# Generated by pormake.
# Topology wkr, (6)-cn, num edge types: 1
# Building blocks:
#     Node 0, Type 0, BuildingBlock: IZENUY_clean_sbu_0, # of connection points: 6
#     Node 1, Type 0, BuildingBlock: IZENUY_clean_sbu_0, # of connection points: 6
#     Node 2, Type 0, BuildingBlock: IZENUY_clean_sbu_0, # of connection points: 6
#     Node 3, Type 0, BuildingBlock: IZENUY_clean_sbu_0, # of connection points: 6
#     Node 4, Type 0, BuildingBlock: IZENUY_clean_sbu_0, # of connection points: 6
#     Node 5, Type 0, BuildingBlock: IZENUY_clean_sbu_0, # of connection points: 6
#     Node 6, Type 0, BuildingBlock: IZENUY_clean_sbu_0, # of connection points: 6
#     Node 7, Type 0, BuildingBlock: IZENUY_clean_sbu_0, # of connection points: 6
#     Node 8, Type 0, BuildingBlock: IZENUY_clean_sbu_0, # of connection points: 6
#     Node 9, Type 0, BuildingBlock: IZENUY_clean_sbu_0, # of connection points: 6
#     Node 10, Type 0, BuildingBlock: IZENUY_clean_sbu_0, # of connection points: 6
#     Node 11, Type 0, BuildingBlock: IZENUY_clean_sbu_0, # of connection points: 6
#     Node 12, Type 0, BuildingBlock: IZENUY_clean_sbu_0, # of connection points: 6
#     Node 13, Type 0, BuildingBlock: IZENUY_clean_sbu_0, # of connection points: 6
#     Node 14, Type 0, BuildingBlock: IZENUY_clean_sbu_0, # of connection points: 6
#     Node 15, Type 0, BuildingBlock: IZENUY_clean_sbu_0, # of connection points: 6
#     Node 16, Type 0, BuildingBlock: IZENUY_clean_sbu_0, # of connection points: 6
#     Node 17, Type 0, BuildingBlock: IZENUY_clean_sbu_0, # of connection points: 6
#     Node 18, Type 0, BuildingBlock: IZENUY_clean_sbu_0, # of connection points: 6
#     Node 19, Type 0, BuildingBlock: IZENUY_clean_sbu_0, # of connection points: 6
#     Node 20, Type 0, BuildingBlock: IZENUY_clean_sbu_0, # of connection points: 6
#     Node 21, Type 0, BuildingBlock: IZENUY_clean_sbu_0, # of connection points: 6
#     Node 22, Type 0, BuildingBlock: IZENUY_clean_sbu_0, # of connection points: 6
#     Node 23, Type 0, BuildingBlock: IZENUY_clean_sbu_0, # of connection points: 6
#     Edge 24, Type (0, 0), None
#     Edge 25, Type (0, 0), None
#     Edge 26, Type (0, 0), None
#     Edge 27, Type (0, 0), None
#     Edge 28, Type (0, 0), None
#     Edge 29, Type (0, 0), None
#     Edge 30, Type (0, 0), None
#     Edge 31, Type (0, 0), None
#     Edge 32, Type (0, 0), None
#     Edge 33, Type (0, 0), None
#     Edge 34, Type (0, 0), None
#     Edge 35, Type (0, 0), None
#     Edge 36, Type (0, 0), None
#     Edge 37, Type (0, 0), None
#     Edge 38, Type (0, 0), None
#     Edge 39, Type (0, 0), None
#     Edge 40, Type (0, 0), None
#     Edge 41, Type (0, 0), None
#     Edge 42, Type (0, 0), None
#     Edge 43, Type (0, 0), None
#     Edge 44, Type (0, 0), None
#     Edge 45, Type (0, 0), None
#     Edge 46, Type (0, 0), None
#     Edge 47, Type (0, 0), None
#     Edge 48, Type (0, 0), None
#     Edge 49, Type (0, 0), None
#     Edge 50, Type (0, 0), None
#     Edge 51, Type (0, 0), None
#     Edge 52, Type (0, 0), None
#     Edge 53, Type (0, 0), None
#     Edge 54, Type (0, 0), None
#     Edge 55, Type (0, 0), None
#     Edge 56, Type (0, 0), None
#     Edge 57, Type (0, 0), None
#     Edge 58, Type (0, 0), None
#     Edge 59, Type (0, 0), None
#     Edge 60, Type (0, 0), None
#     Edge 61, Type (0, 0), None
#     Edge 62, Type (0, 0), None
#     Edge 63, Type (0, 0), None
#     Edge 64, Type (0, 0), None
#     Edge 65, Type (0, 0), None
#     Edge 66, Type (0, 0), None
#     Edge 67, Type (0, 0), None
#     Edge 68, Type (0, 0), None
#     Edge 69, Type (0, 0), None
#     Edge 70, Type (0, 0), None
#     Edge 71, Type (0, 0), None
#     Edge 72, Type (0, 0), None
#     Edge 73, Type (0, 0), None
#     Edge 74, Type (0, 0), None
#     Edge 75, Type (0, 0), None
#     Edge 76, Type (0, 0), None
#     Edge 77, Type (0, 0), None
#     Edge 78, Type (0, 0), None
#     Edge 79, Type (0, 0), None
#     Edge 80, Type (0, 0), None
#     Edge 81, Type (0, 0), None
#     Edge 82, Type (0, 0), None
#     Edge 83, Type (0, 0), None
#     Edge 84, Type (0, 0), None
#     Edge 85, Type (0, 0), None
#     Edge 86, Type (0, 0), None
#     Edge 87, Type (0, 0), None
#     Edge 88, Type (0, 0), None
#     Edge 89, Type (0, 0), None
#     Edge 90, Type (0, 0), None
#     Edge 91, Type (0, 0), None
#     Edge 92, Type (0, 0), None
#     Edge 93, Type (0, 0), None
#     Edge 94, Type (0, 0), None
#     Edge 95, Type (0, 0), None
# Relax obj value: 0.597
# Max RMSD: 0.291
# Mean RMSD: 0.291
data_MOF--net-wkr--node1-IZENUY_clean_sbu_0--edge1-none
_symmetry_space_group_name_H-M    P1
_symmetry_Int_Tables_number       1
_symmetry_cell_setting            triclinic
loop_
_symmetry_equiv_pos_as_xyz
'x, y, z'
_cell_length_a     24.689283
_cell_length_b     24.688833
_cell_length_c     23.221419
_cell_angle_alpha  89.986474
_cell_angle_beta   89.999585
_cell_angle_gamma 120.00192
loop_
_atom_site_label
_atom_site_type_symbol
_atom_site_fract_x
_atom_site_fract_y
_atom_site_fract_z
_atom_type_partial_charge
Fe0 Fe 0.45722 0.1294 0.22282 0.0
Fe1 Fe 0.57801 0.24417 0.21319 0.0
O2 O 0.53491 0.16914 0.21319 0.0
Fe3 Fe 0.55604 0.11798 0.21858 0.0
O4 O 0.55633 0.05248 0.23278 0.0
O5 O 0.46272 0.05243 0.24838 0.0
O6 O 0.4635 0.1634 0.30006 0.0
C7 C 0.48802 0.22387 0.30783 0.0
C8 C 0.48727 0.09052 0.11945 0.0
O9 O 0.52487 0.25715 0.26705 0.0
C10 C 0.66432 0.20787 0.17181 0.0
O11 O 0.45018 0.19992 0.19344 0.0
O12 O 0.53468 0.23326 0.14761 0.0
O13 O 0.53554 0.09517 0.14395 0.0
O14 O 0.44836 0.10042 0.14761 0.0
C15 C 0.59706 0.19693 0.30914 0.0
O16 O 0.63481 0.23814 0.16617 0.0
O17 O 0.63937 0.15824 0.20042 0.0
C18 C 0.49147 0.24232 0.15917 0.0
O19 O 0.61576 0.24549 0.27849 0.0
O20 O 0.57731 0.14247 0.28952 0.0
C21 C 0.49914 0.02469 0.24865 0.0
Fe22 Fe 0.3181 0.46209 0.22334 0.0
Fe23 Fe 0.32418 0.58292 0.21371 0.0
O24 O 0.35607 0.53979 0.2137 0.0
Fe25 Fe 0.42834 0.56088 0.21908 0.0
O26 O 0.49412 0.56119 0.23323 0.0
O27 O 0.40059 0.46754 0.24876 0.0
O28 O 0.29045 0.46842 0.30061 0.0
C29 C 0.25453 0.49298 0.30839 0.0
C30 C 0.387 0.49205 0.11996 0.0
O31 O 0.2581 0.52983 0.26762 0.0
C32 C 0.44679 0.66919 0.17231 0.0
O33 O 0.24054 0.45509 0.19404 0.0
O34 O 0.29171 0.53956 0.14816 0.0
O35 O 0.43061 0.54035 0.14443 0.0
O36 O 0.33816 0.45319 0.14813 0.0
C37 C 0.39048 0.60198 0.30964 0.0
O38 O 0.38701 0.63969 0.16666 0.0
O39 O 0.47144 0.64422 0.20092 0.0
C40 C 0.23944 0.49637 0.15977 0.0
O41 O 0.36065 0.6207 0.27899 0.0
O42 O 0.42514 0.58216 0.29002 0.0
C43 C 0.46475 0.50395 0.24892 0.0
Fe44 Fe 0.84636 0.32312 0.22282 0.0
Fe45 Fe 0.73161 0.32919 0.2131 0.0
O46 O 0.80664 0.36109 0.21308 0.0
Fe47 Fe 0.85783 0.43338 0.2184 0.0
O48 O 0.92333 0.49916 0.23255 0.0
O49 O 0.92332 0.4056 0.24835 0.0
O50 O 0.81234 0.29548 0.30005 0.0
C51 C 0.75187 0.25954 0.30782 0.0
C52 C 0.88535 0.39196 0.11937 0.0
O53 O 0.71862 0.26312 0.26703 0.0
C54 C 0.76793 0.4518 0.17166 0.0
O55 O 0.77584 0.24556 0.19348 0.0
O56 O 0.74247 0.29673 0.14752 0.0
O57 O 0.88067 0.4356 0.14377 0.0
O58 O 0.87542 0.34317 0.14762 0.0
C59 C 0.77886 0.39554 0.30899 0.0
O60 O 0.73767 0.39201 0.16605 0.0
O61 O 0.81761 0.47649 0.20019 0.0
C62 C 0.7335 0.2445 0.15918 0.0
O63 O 0.7303 0.36565 0.27837 0.0
O64 O 0.83332 0.43024 0.28933 0.0
C65 C 0.95108 0.46976 0.24856 0.0
Fe66 Fe 0.39282 0.73654 0.21359 0.0
Fe67 Fe 0.41492 0.86276 0.21886 0.0
O68 O 0.43599 0.81156 0.21356 0.0
Fe69 Fe 0.51369 0.85126 0.22323 0.0
O70 O 0.50729 0.81728 0.30051 0.0
O71 O 0.44588 0.72354 0.26753 0.0
O72 O 0.35504 0.73526 0.27885 0.0
C73 C 0.37374 0.78382 0.30947 0.0
C74 C 0.47938 0.73836 0.15967 0.0
O75 O 0.39357 0.8383 0.28981 0.0
C76 C 0.48383 0.89017 0.11978 0.0
O77 O 0.3361 0.74262 0.16653 0.0
O78 O 0.33159 0.82256 0.20071 0.0
O79 O 0.52067 0.78069 0.19396 0.0
O80 O 0.43616 0.74737 0.14802 0.0
C81 C 0.47184 0.95606 0.24881 0.0
O82 O 0.43553 0.88554 0.1442 0.0
O83 O 0.52268 0.88023 0.14801 0.0
C84 C 0.3066 0.77289 0.17217 0.0
O85 O 0.41465 0.92827 0.23296 0.0
O86 O 0.50825 0.92831 0.24864 0.0
C87 C 0.48272 0.75681 0.3083 0.0
Fe88 Fe 0.54245 0.4198 0.21841 0.0
Fe89 Fe 0.65271 0.5186 0.22275 0.0
O90 O 0.61474 0.44091 0.21307 0.0
Fe91 Fe 0.64664 0.39778 0.2131 0.0
O92 O 0.61018 0.36001 0.2784 0.0
O93 O 0.54559 0.39845 0.28935 0.0
O94 O 0.47667 0.41953 0.23257 0.0
C95 C 0.50608 0.47666 0.24859 0.0
C96 C 0.52404 0.3115 0.17172 0.0
O97 O 0.57024 0.51309 0.24831 0.0
C98 C 0.7313 0.48435 0.15909 0.0
O99 O 0.54024 0.44038 0.14377 0.0
O100 O 0.63267 0.52756 0.14754 0.0
O101 O 0.58382 0.34098 0.16609 0.0
O102 O 0.49935 0.33648 0.20024 0.0
C103 C 0.7163 0.48773 0.30776 0.0
O104 O 0.73027 0.52563 0.19338 0.0
O105 O 0.67907 0.44109 0.14749 0.0
C106 C 0.58392 0.48866 0.11931 0.0
O107 O 0.68036 0.51225 0.29999 0.0
O108 O 0.71273 0.4509 0.26697 0.0
C109 C 0.58028 0.37868 0.30902 0.0
Fe110 Fe 0.11303 0.54747 0.21901 0.0
Fe111 Fe 0.12452 0.65773 0.2232 0.0
O112 O 0.16423 0.61973 0.21362 0.0
Fe113 Fe 0.23925 0.65159 0.21366 0.0
O114 O 0.2405 0.61512 0.27897 0.0
O115 O 0.13746 0.55066 0.28997 0.0
O116 O 0.04753 0.48169 0.23315 0.0
C117 C 0.0197 0.51109 0.24887 0.0
C118 C 0.20288 0.52899 0.17233 0.0
O119 O 0.04745 0.57525 0.24863 0.0
C120 C 0.23742 0.73628 0.15961 0.0
O121 O 0.09029 0.54521 0.14434 0.0
O122 O 0.09562 0.63769 0.14797 0.0
O123 O 0.2332 0.58876 0.16667 0.0
O124 O 0.15324 0.50434 0.20092 0.0
C125 C 0.21893 0.72126 0.30828 0.0
O126 O 0.1951 0.73528 0.19389 0.0
O127 O 0.22841 0.68403 0.14804 0.0
C128 C 0.0857 0.58887 0.11982 0.0
O129 O 0.15846 0.68536 0.30048 0.0
O130 O 0.25221 0.71769 0.26751 0.0
C131 C 0.19194 0.58529 0.30961 0.0
Fe132 Fe 0.73161 0.3978 0.46202 0.0
Fe133 Fe 0.85782 0.41986 0.45667 0.0
O134 O 0.80663 0.44094 0.46204 0.0
Fe135 Fe 0.84636 0.51864 0.45241 0.0
O136 O 0.8124 0.51231 0.37514 0.0
O137 O 0.71863 0.45089 0.40811 0.0
O138 O 0.73032 0.36004 0.39674 0.0
C139 C 0.77888 0.3787 0.3661 0.0
C140 C 0.7334 0.48432 0.51597 0.0
O141 O 0.83337 0.39861 0.38573 0.0
C142 C 0.88529 0.48868 0.5558 0.0
O143 O 0.73767 0.34103 0.50906 0.0
O144 O 0.81759 0.33652 0.47481 0.0
O145 O 0.77579 0.52562 0.48171 0.0
O146 O 0.74248 0.44113 0.52758 0.0
C147 C 0.95116 0.47679 0.42684 0.0
O148 O 0.88061 0.44038 0.53133 0.0
O149 O 0.87531 0.52754 0.52763 0.0
C150 C 0.76796 0.31154 0.50341 0.0
O151 O 0.9233 0.41956 0.44254 0.0
O152 O 0.92341 0.5132 0.427 0.0
C153 C 0.75192 0.48771 0.36733 0.0
Fe154 Fe 0.32421 0.73656 0.46251 0.0
Fe155 Fe 0.42843 0.86276 0.45712 0.0
O156 O 0.35614 0.81159 0.46251 0.0
Fe157 Fe 0.31819 0.85133 0.45288 0.0
O158 O 0.29049 0.81734 0.37564 0.0
O159 O 0.25811 0.72359 0.40865 0.0
O160 O 0.36064 0.73524 0.39721 0.0
C161 C 0.39057 0.7838 0.36657 0.0
C162 C 0.23953 0.73841 0.51654 0.0
O163 O 0.42522 0.83827 0.38619 0.0
C164 C 0.38712 0.89021 0.55626 0.0
O165 O 0.38705 0.74259 0.50952 0.0
O166 O 0.47152 0.82251 0.47529 0.0
O167 O 0.24064 0.7808 0.48227 0.0
O168 O 0.2918 0.74747 0.5281 0.0
C169 C 0.46482 0.95604 0.42706 0.0
O170 O 0.43073 0.88557 0.53176 0.0
O171 O 0.3383 0.88031 0.52809 0.0
C172 C 0.44683 0.77287 0.50389 0.0
O173 O 0.49422 0.92825 0.44293 0.0
O174 O 0.40067 0.9283 0.42732 0.0
C175 C 0.25457 0.75687 0.36786 0.0
Fe176 Fe 0.45713 0.323 0.45251 0.0
Fe177 Fe 0.57797 0.32911 0.46206 0.0
O178 O 0.53483 0.36099 0.46209 0.0
Fe179 Fe 0.5559 0.43325 0.45672 0.0
O180 O 0.55619 0.49903 0.4426 0.0
O181 O 0.46255 0.40549 0.42709 0.0
O182 O 0.46344 0.29538 0.37523 0.0
C183 C 0.48803 0.2595 0.36741 0.0
C184 C 0.48717 0.39184 0.55591 0.0
O185 O 0.52485 0.26303 0.40819 0.0
C186 C 0.66422 0.45171 0.5034 0.0
O187 O 0.45016 0.24545 0.48182 0.0
O188 O 0.53464 0.29665 0.52764 0.0
O189 O 0.53542 0.4355 0.5314 0.0
O190 O 0.44827 0.34303 0.52775 0.0
C191 C 0.59708 0.3955 0.36613 0.0
O192 O 0.63476 0.39193 0.50907 0.0
O193 O 0.63924 0.47636 0.47481 0.0
C194 C 0.49145 0.24437 0.51608 0.0
O195 O 0.61574 0.3656 0.39676 0.0
O196 O 0.57713 0.43006 0.38576 0.0
C197 C 0.49896 0.46965 0.4269 0.0
Fe198 Fe 0.11301 0.56092 0.45733 0.0
Fe199 Fe 0.12445 0.46212 0.453 0.0
O200 O 0.16419 0.53982 0.46266 0.0
Fe201 Fe 0.23922 0.58293 0.46263 0.0
O202 O 0.24054 0.62071 0.39733 0.0
O203 O 0.1375 0.58226 0.38638 0.0
O204 O 0.04751 0.56121 0.44318 0.0
C205 C 0.01978 0.50408 0.42716 0.0
C206 C 0.20293 0.66923 0.504 0.0
O207 O 0.0475 0.46764 0.42744 0.0
C208 C 0.23736 0.49637 0.51664 0.0
O209 O 0.09023 0.54036 0.53198 0.0
O210 O 0.09546 0.45318 0.52821 0.0
O211 O 0.23322 0.63974 0.50964 0.0
O212 O 0.15325 0.64425 0.47548 0.0
C213 C 0.21891 0.49301 0.36797 0.0
O214 O 0.19497 0.45509 0.48237 0.0
O215 O 0.2283 0.53958 0.52821 0.0
C216 C 0.08562 0.49208 0.55644 0.0
O217 O 0.15845 0.46846 0.37575 0.0
O218 O 0.25218 0.5298 0.40876 0.0
C219 C 0.19197 0.60211 0.36673 0.0
Fe220 Fe 0.65279 0.12947 0.45247 0.0
Fe221 Fe 0.64665 0.24419 0.46211 0.0
O222 O 0.6148 0.16917 0.46215 0.0
Fe223 Fe 0.54253 0.11796 0.45684 0.0
O224 O 0.47675 0.05245 0.44274 0.0
O225 O 0.57031 0.05242 0.42706 0.0
O226 O 0.68036 0.16344 0.3752 0.0
C227 C 0.71623 0.22391 0.36739 0.0
C228 C 0.58404 0.09056 0.55592 0.0
O229 O 0.7127 0.25718 0.40817 0.0
C230 C 0.52407 0.20781 0.50353 0.0
O231 O 0.73035 0.20005 0.48174 0.0
O232 O 0.67914 0.23335 0.52769 0.0
O233 O 0.54036 0.09518 0.5315 0.0
O234 O 0.63282 0.1005 0.52769 0.0
C235 C 0.58021 0.19692 0.36625 0.0
O236 O 0.58384 0.23813 0.50917 0.0
O237 O 0.4994 0.15814 0.47501 0.0
C238 C 0.73138 0.24236 0.51603 0.0
O239 O 0.61015 0.24548 0.39685 0.0
O240 O 0.54564 0.14243 0.3859 0.0
C241 C 0.50615 0.02467 0.42689 0.0
Fe242 Fe 0.39279 0.65156 0.46263 0.0
Fe243 Fe 0.41482 0.54736 0.45731 0.0
O244 O 0.43593 0.61965 0.46264 0.0
Fe245 Fe 0.51362 0.65762 0.4529 0.0
O246 O 0.50724 0.68525 0.37566 0.0
O247 O 0.44588 0.71762 0.40868 0.0
O248 O 0.35501 0.6151 0.39736 0.0
C249 C 0.37361 0.58514 0.36675 0.0
C250 C 0.47939 0.73625 0.51653 0.0
O251 O 0.39343 0.5505 0.3864 0.0
C252 C 0.48378 0.58879 0.55634 0.0
O253 O 0.33601 0.58875 0.50968 0.0
O254 O 0.33152 0.50426 0.47555 0.0
O255 O 0.52066 0.73518 0.48223 0.0
O256 O 0.43614 0.68402 0.5282 0.0
C257 C 0.47166 0.51098 0.42713 0.0
O258 O 0.43546 0.54514 0.53194 0.0
O259 O 0.52262 0.63758 0.5281 0.0
C260 C 0.30654 0.52896 0.50408 0.0
O261 O 0.41453 0.48158 0.44316 0.0
O262 O 0.50809 0.57513 0.42737 0.0
C263 C 0.48268 0.72116 0.36788 0.0
Fe264 Fe 0.39312 0.73654 0.96253 0.0
Fe265 Fe 0.41515 0.86275 0.95713 0.0
O266 O 0.43625 0.81157 0.96254 0.0
Fe267 Fe 0.51394 0.85129 0.95291 0.0
O268 O 0.50764 0.81729 0.87567 0.0
O269 O 0.44626 0.72355 0.90868 0.0
O270 O 0.35539 0.73524 0.89721 0.0
C271 C 0.37412 0.78381 0.86657 0.0
C272 C 0.47964 0.73837 1.01657 0.0
O273 O 0.39389 0.83827 0.8862 0.0
C274 C 0.48391 0.8902 1.05626 0.0
O275 O 0.33633 0.74259 1.00952 0.0
O276 O 0.33181 0.82252 0.97528 0.0
O277 O 0.52094 0.78076 0.9823 0.0
O278 O 0.43643 0.74744 1.02812 0.0
C279 C 0.47206 0.95603 0.92707 0.0
O280 O 0.43565 0.88556 1.03178 0.0
O281 O 0.52282 0.88028 1.02811 0.0
C282 C 0.30684 0.77288 1.00389 0.0
O283 O 0.41488 0.92825 0.94294 0.0
O284 O 0.50847 0.92828 0.92734 0.0
C285 C 0.48311 0.75682 0.8679 0.0
Fe286 Fe 0.65294 0.51859 0.95242 0.0
Fe287 Fe 0.6469 0.39778 0.96204 0.0
O288 O 0.61499 0.44089 0.96206 0.0
Fe289 Fe 0.54271 0.41978 0.95668 0.0
O290 O 0.47691 0.41945 0.94254 0.0
O291 O 0.57043 0.51311 0.92701 0.0
O292 O 0.68059 0.51227 0.87515 0.0
C293 C 0.71652 0.48774 0.86735 0.0
C294 C 0.58403 0.48861 1.05579 0.0
O295 O 0.71297 0.45089 0.90812 0.0
C296 C 0.52431 0.31148 1.00344 0.0
O297 O 0.73051 0.52562 0.98171 0.0
O298 O 0.67937 0.44114 1.02759 0.0
O299 O 0.54043 0.4403 1.03134 0.0
O300 O 0.63287 0.52749 1.02764 0.0
C301 C 0.58059 0.3787 0.86612 0.0
O302 O 0.58409 0.341 1.00909 0.0
O303 O 0.49963 0.33644 0.97484 0.0
C304 C 0.73163 0.48435 1.01598 0.0
O305 O 0.61043 0.36 0.89677 0.0
O306 O 0.54592 0.39851 0.88574 0.0
C307 C 0.50627 0.47669 0.92684 0.0
Fe308 Fe 0.23952 0.65158 0.96261 0.0
Fe309 Fe 0.11329 0.54741 0.95729 0.0
O310 O 0.16449 0.6197 0.96261 0.0
Fe311 Fe 0.12479 0.65769 0.95287 0.0
O312 O 0.15883 0.68533 0.87564 0.0
O313 O 0.25255 0.71766 0.90867 0.0
O314 O 0.24083 0.61511 0.89734 0.0
C315 C 0.19227 0.58524 0.86671 0.0
C316 C 0.23766 0.73628 1.01651 0.0
O317 O 0.13781 0.55054 0.88637 0.0
C318 C 0.08577 0.58885 1.0563 0.0
O319 O 0.23344 0.58875 1.00967 0.0
O320 O 0.15348 0.50428 0.97552 0.0
O321 O 0.19533 0.73524 0.98221 0.0
O322 O 0.22866 0.68405 1.02818 0.0
C323 C 0.02005 0.51106 0.92712 0.0
O324 O 0.09044 0.5452 1.03191 0.0
O325 O 0.09574 0.63765 1.02807 0.0
C326 C 0.20315 0.52896 1.00406 0.0
O327 O 0.04778 0.48165 0.94313 0.0
O328 O 0.04782 0.57522 0.92733 0.0
C329 C 0.2193 0.72126 0.86788 0.0
Fe330 Fe 0.57831 0.24417 0.96213 0.0
Fe331 Fe 0.55626 0.11796 0.95685 0.0
O332 O 0.53516 0.16914 0.96216 0.0
Fe333 Fe 0.45747 0.12942 0.95249 0.0
O334 O 0.46385 0.1634 0.87522 0.0
O335 O 0.52523 0.25714 0.9082 0.0
O336 O 0.61609 0.24546 0.89686 0.0
C337 C 0.59741 0.1969 0.86624 0.0
C338 C 0.49175 0.24231 1.01606 0.0
O339 O 0.57758 0.14242 0.8859 0.0
C340 C 0.48734 0.09052 1.05593 0.0
O341 O 0.63506 0.23811 1.00917 0.0
O342 O 0.63959 0.15819 0.97499 0.0
O343 O 0.45046 0.19998 0.98178 0.0
O344 O 0.53499 0.23332 1.02771 0.0
C345 C 0.49936 0.02466 0.9269 0.0
O346 O 0.53566 0.09518 1.03152 0.0
O347 O 0.44849 0.10045 1.02771 0.0
C348 C 0.66458 0.20786 1.00352 0.0
O349 O 0.55655 0.05246 0.94275 0.0
O350 O 0.46294 0.0524 0.92708 0.0
C351 C 0.4884 0.22387 0.86743 0.0
Fe352 Fe 0.31832 0.46209 0.95301 0.0
Fe353 Fe 0.32444 0.58294 0.96266 0.0
O354 O 0.35631 0.53979 0.96269 0.0
Fe355 Fe 0.42859 0.56086 0.95735 0.0
O356 O 0.49436 0.56111 0.9432 0.0
O357 O 0.40078 0.46757 0.92745 0.0
O358 O 0.29068 0.46846 0.87576 0.0
C359 C 0.25476 0.493 0.86799 0.0
C360 C 0.38712 0.492 1.05644 0.0
O361 O 0.25835 0.52984 0.90877 0.0
C362 C 0.44704 0.66918 1.00404 0.0
O363 O 0.24077 0.45509 0.98237 0.0
O364 O 0.29199 0.53963 1.02827 0.0
O365 O 0.4308 0.54028 1.032 0.0
O366 O 0.33835 0.45312 1.02822 0.0
C367 C 0.39079 0.60201 0.86674 0.0
O368 O 0.38727 0.63972 1.00967 0.0
O369 O 0.47172 0.64419 0.97551 0.0
C370 C 0.23975 0.49639 1.01666 0.0
O371 O 0.36092 0.6207 0.89736 0.0
O372 O 0.42546 0.58221 0.88641 0.0
C373 C 0.46494 0.50398 0.92718 0.0
Fe374 Fe 0.73189 0.32917 0.96205 0.0
Fe375 Fe 0.85809 0.43333 0.95668 0.0
O376 O 0.80691 0.36106 0.96207 0.0
Fe377 Fe 0.84664 0.32308 0.95248 0.0
O378 O 0.8127 0.29545 0.87521 0.0
O379 O 0.71894 0.26308 0.90818 0.0
O380 O 0.7306 0.36564 0.89675 0.0
C381 C 0.77916 0.39549 0.8661 0.0
C382 C 0.73376 0.24449 1.01608 0.0
O383 O 0.83364 0.43013 0.88573 0.0
C384 C 0.88546 0.39195 1.05586 0.0
O385 O 0.73792 0.39198 1.00905 0.0
O386 O 0.81786 0.47643 0.9748 0.0
O387 O 0.77608 0.24552 0.98179 0.0
O388 O 0.74275 0.29673 1.02766 0.0
C389 C 0.95142 0.46973 0.92681 0.0
O390 O 0.88086 0.4356 1.03135 0.0
O391 O 0.87555 0.34313 1.02771 0.0
C392 C 0.76822 0.45176 1.00339 0.0
O393 O 0.92359 0.49912 0.94253 0.0
O394 O 0.92369 0.40557 0.92705 0.0
C395 C 0.75223 0.25953 0.86741 0.0
Fe396 Fe 0.23949 0.58296 0.71371 0.0
Fe397 Fe 0.1133 0.56096 0.71906 0.0
O398 O 0.16446 0.53985 0.71369 0.0
Fe399 Fe 0.12471 0.46215 0.72333 0.0
O400 O 0.15867 0.46847 0.8006 0.0
O401 O 0.25245 0.52986 0.76763 0.0
O402 O 0.24081 0.62074 0.77898 0.0
C403 C 0.19226 0.6021 0.80961 0.0
C404 C 0.23766 0.4964 0.65977 0.0
O405 O 0.13776 0.58222 0.79 0.0
C406 C 0.08578 0.49212 0.61995 0.0
O407 O 0.23345 0.63973 0.66665 0.0
O408 O 0.15355 0.64429 0.7009 0.0
O409 O 0.19526 0.45513 0.69404 0.0
O410 O 0.2286 0.5396 0.64816 0.0
C411 C 0.01995 0.50405 0.7489 0.0
O412 O 0.09049 0.54043 0.64441 0.0
O413 O 0.09576 0.45325 0.64811 0.0
C414 C 0.20319 0.66925 0.67229 0.0
O415 O 0.04783 0.56129 0.7332 0.0
O416 O 0.04768 0.46762 0.74874 0.0
C417 C 0.21915 0.49304 0.80841 0.0
Fe418 Fe 0.64693 0.2442 0.71319 0.0
Fe419 Fe 0.54275 0.11798 0.71856 0.0
O420 O 0.61503 0.16917 0.71317 0.0
Fe421 Fe 0.65301 0.12946 0.7228 0.0
O422 O 0.6807 0.16344 0.80005 0.0
O423 O 0.71305 0.25719 0.76704 0.0
O424 O 0.61049 0.24549 0.7785 0.0
C425 C 0.58058 0.19692 0.80913 0.0
C426 C 0.73164 0.2424 0.65916 0.0
O427 O 0.54596 0.14244 0.7895 0.0
C428 C 0.58409 0.09054 0.61944 0.0
O429 O 0.58409 0.23815 0.66619 0.0
O430 O 0.49964 0.1582 0.70042 0.0
O431 O 0.73055 0.20001 0.69342 0.0
O432 O 0.67936 0.23332 0.6476 0.0
C433 C 0.50639 0.0247 0.74862 0.0
O434 O 0.54046 0.09519 0.64392 0.0
O435 O 0.63291 0.10048 0.64759 0.0
C436 C 0.5243 0.20785 0.67182 0.0
O437 O 0.47698 0.05248 0.73274 0.0
O438 O 0.57055 0.05246 0.74836 0.0
C439 C 0.7166 0.22391 0.80783 0.0
Fe440 Fe 0.39312 0.65159 0.7137 0.0
Fe441 Fe 0.41514 0.54741 0.71904 0.0
O442 O 0.43624 0.61968 0.71366 0.0
Fe443 Fe 0.51394 0.65764 0.72324 0.0
O444 O 0.50765 0.68528 0.80051 0.0
O445 O 0.44627 0.71767 0.76755 0.0
O446 O 0.35536 0.61511 0.779 0.0
C447 C 0.374 0.58519 0.80963 0.0
C448 C 0.47966 0.73629 0.65965 0.0
O449 O 0.39391 0.55061 0.79 0.0
C450 C 0.48388 0.58878 0.61986 0.0
O451 O 0.33631 0.58877 0.6667 0.0
O452 O 0.3318 0.50432 0.70094 0.0
O453 O 0.52095 0.7352 0.69392 0.0
O454 O 0.43645 0.68402 0.64811 0.0
C455 C 0.47206 0.51099 0.74887 0.0
O456 O 0.43562 0.54515 0.64436 0.0
O457 O 0.52279 0.63759 0.64801 0.0
C458 C 0.30683 0.529 0.67235 0.0
O459 O 0.41483 0.48161 0.73317 0.0
O460 O 0.50848 0.57515 0.74867 0.0
C461 C 0.48308 0.72118 0.80833 0.0
Fe462 Fe 0.73187 0.39783 0.7131 0.0
Fe463 Fe 0.8581 0.41988 0.7184 0.0
O464 O 0.8069 0.44097 0.71308 0.0
Fe465 Fe 0.84661 0.51866 0.72275 0.0
O466 O 0.81261 0.5123 0.79999 0.0
O467 O 0.71889 0.45093 0.76699 0.0
O468 O 0.73056 0.36004 0.77839 0.0
C469 C 0.77913 0.37866 0.80899 0.0
C470 C 0.7337 0.48439 0.65911 0.0
O471 O 0.8336 0.39852 0.78934 0.0
C472 C 0.88548 0.48874 0.61931 0.0
O473 O 0.73791 0.34105 0.66607 0.0
O474 O 0.81789 0.33657 0.70023 0.0
O475 O 0.77607 0.52567 0.69338 0.0
O476 O 0.74278 0.4412 0.64752 0.0
C477 C 0.95132 0.47675 0.74858 0.0
O478 O 0.88089 0.44047 0.64376 0.0
O479 O 0.8756 0.52763 0.64753 0.0
C480 C 0.76822 0.31158 0.6717 0.0
O481 O 0.92361 0.41963 0.73255 0.0
O482 O 0.92359 0.51317 0.7483 0.0
C483 C 0.75215 0.48773 0.80778 0.0
Fe484 Fe 0.42866 0.86278 0.71885 0.0
Fe485 Fe 0.31841 0.85131 0.72322 0.0
O486 O 0.35639 0.81159 0.71354 0.0
Fe487 Fe 0.32451 0.73656 0.71358 0.0
O488 O 0.36101 0.73527 0.77885 0.0
O489 O 0.42553 0.83832 0.7898 0.0
O490 O 0.49445 0.92828 0.73294 0.0
C491 C 0.46507 0.95608 0.74879 0.0
C492 C 0.44708 0.77289 0.67218 0.0
O493 O 0.40091 0.92834 0.74862 0.0
C494 C 0.23979 0.73842 0.65966 0.0
O495 O 0.43084 0.88556 0.64419 0.0
O496 O 0.33839 0.88027 0.64799 0.0
O497 O 0.3873 0.7426 0.66653 0.0
O498 O 0.47176 0.82256 0.7007 0.0
C499 C 0.25495 0.75688 0.80831 0.0
O500 O 0.24084 0.78075 0.69395 0.0
O501 O 0.29202 0.74741 0.64801 0.0
C502 C 0.38718 0.89021 0.61977 0.0
O503 O 0.29084 0.81735 0.80049 0.0
O504 O 0.25847 0.7236 0.76752 0.0
C505 C 0.39095 0.78382 0.80945 0.0
Fe506 Fe 0.57829 0.32914 0.71312 0.0
Fe507 Fe 0.55621 0.4333 0.71844 0.0
O508 O 0.53514 0.36102 0.71311 0.0
Fe509 Fe 0.45744 0.32303 0.72285 0.0
O510 O 0.46384 0.2954 0.80009 0.0
O511 O 0.52522 0.26306 0.76706 0.0
O512 O 0.61607 0.3656 0.7784 0.0
C513 C 0.59745 0.39554 0.80901 0.0
C514 C 0.49172 0.24445 0.65921 0.0
O515 O 0.57761 0.43017 0.78936 0.0
C516 C 0.48725 0.39186 0.61943 0.0
O517 O 0.63507 0.39197 0.66608 0.0
O518 O 0.63952 0.47643 0.7002 0.0
O519 O 0.45043 0.24548 0.69351 0.0
O520 O 0.53496 0.29668 0.64755 0.0
C521 C 0.49935 0.46966 0.74863 0.0
O522 O 0.53557 0.43552 0.64382 0.0
O523 O 0.44842 0.34306 0.64766 0.0
C524 C 0.66452 0.45176 0.67168 0.0
O525 O 0.55648 0.49907 0.7326 0.0
O526 O 0.46293 0.4055 0.74839 0.0
C527 C 0.48841 0.25951 0.80786 0.0
loop_
_geom_bond_atom_site_label_1
_geom_bond_atom_site_label_2
_geom_bond_distance
_geom_bond_site_symmetry_2
_ccdc_geom_bond_type
Fe0 O2 1.918 . S
Fe0 O5 1.997 . S
Fe0 O6 2.002 . S
Fe0 O11 1.976 . S
Fe0 O14 1.996 . S
Fe1 O2 1.918 . S
Fe1 O9 1.997 . S
Fe1 O12 1.996 . S
Fe1 O16 1.976 . S
Fe1 O19 2.002 . S
O2 Fe0 1.918 . S
O2 Fe1 1.918 . S
O2 Fe3 1.918 . S
Fe3 O2 1.918 . S
Fe3 O4 2.002 . S
Fe3 O13 1.976 . S
Fe3 O17 1.996 . S
Fe3 O20 1.997 . S
O4 Fe3 2.002 . S
O4 C21 1.295 . S
O5 Fe0 1.997 . S
O5 C21 1.235 . S
O6 Fe0 2.002 . S
O6 C7 1.295 . S
C7 O6 1.295 . S
C7 O9 1.235 . S
C8 O13 1.287 . S
C8 O14 1.255 . S
O9 Fe1 1.997 . S
O9 C7 1.235 . S
C10 O16 1.287 . S
C10 O17 1.255 . S
O11 Fe0 1.976 . S
O11 C18 1.287 . S
O12 Fe1 1.996 . S
O12 C18 1.255 . S
O13 Fe3 1.976 . S
O13 C8 1.287 . S
O14 Fe0 1.996 . S
O14 C8 1.255 . S
C15 O19 1.295 . S
C15 O20 1.235 . S
O16 Fe1 1.976 . S
O16 C10 1.287 . S
O17 Fe3 1.996 . S
O17 C10 1.255 . S
C18 O11 1.287 . S
C18 O12 1.255 . S
O19 Fe1 2.002 . S
O19 C15 1.295 . S
O20 Fe3 1.997 . S
O20 C15 1.235 . S
C21 O4 1.295 . S
C21 O5 1.235 . S
Fe22 O24 1.918 . S
Fe22 O27 1.997 . S
Fe22 O28 2.002 . S
Fe22 O33 1.976 . S
Fe22 O36 1.996 . S
Fe23 O24 1.918 . S
Fe23 O31 1.997 . S
Fe23 O34 1.996 . S
Fe23 O38 1.976 . S
Fe23 O41 2.002 . S
O24 Fe22 1.918 . S
O24 Fe23 1.918 . S
O24 Fe25 1.918 . S
Fe25 O24 1.918 . S
Fe25 O26 2.002 . S
Fe25 O35 1.976 . S
Fe25 O39 1.996 . S
Fe25 O42 1.997 . S
O26 Fe25 2.002 . S
O26 C43 1.295 . S
O27 Fe22 1.997 . S
O27 C43 1.235 . S
O28 Fe22 2.002 . S
O28 C29 1.295 . S
C29 O28 1.295 . S
C29 O31 1.235 . S
C30 O35 1.287 . S
C30 O36 1.255 . S
O31 Fe23 1.997 . S
O31 C29 1.235 . S
C32 O38 1.287 . S
C32 O39 1.255 . S
O33 Fe22 1.976 . S
O33 C40 1.287 . S
O34 Fe23 1.996 . S
O34 C40 1.255 . S
O35 Fe25 1.976 . S
O35 C30 1.287 . S
O36 Fe22 1.996 . S
O36 C30 1.255 . S
C37 O41 1.295 . S
C37 O42 1.235 . S
O38 Fe23 1.976 . S
O38 C32 1.287 . S
O39 Fe25 1.996 . S
O39 C32 1.255 . S
C40 O33 1.287 . S
C40 O34 1.255 . S
O41 Fe23 2.002 . S
O41 C37 1.295 . S
O42 Fe25 1.997 . S
O42 C37 1.235 . S
C43 O26 1.295 . S
C43 O27 1.235 . S
Fe44 O46 1.918 . S
Fe44 O49 1.997 . S
Fe44 O50 2.002 . S
Fe44 O55 1.976 . S
Fe44 O58 1.996 . S
Fe45 O46 1.918 . S
Fe45 O53 1.997 . S
Fe45 O56 1.996 . S
Fe45 O60 1.976 . S
Fe45 O63 2.002 . S
O46 Fe44 1.918 . S
O46 Fe45 1.918 . S
O46 Fe47 1.918 . S
Fe47 O46 1.918 . S
Fe47 O48 2.002 . S
Fe47 O57 1.976 . S
Fe47 O61 1.996 . S
Fe47 O64 1.997 . S
O48 Fe47 2.002 . S
O48 C65 1.295 . S
O49 Fe44 1.997 . S
O49 C65 1.235 . S
O50 Fe44 2.002 . S
O50 C51 1.295 . S
C51 O50 1.295 . S
C51 O53 1.235 . S
C52 O57 1.287 . S
C52 O58 1.255 . S
O53 Fe45 1.997 . S
O53 C51 1.235 . S
C54 O60 1.287 . S
C54 O61 1.255 . S
O55 Fe44 1.976 . S
O55 C62 1.287 . S
O56 Fe45 1.996 . S
O56 C62 1.255 . S
O57 Fe47 1.976 . S
O57 C52 1.287 . S
O58 Fe44 1.996 . S
O58 C52 1.255 . S
C59 O63 1.295 . S
C59 O64 1.235 . S
O60 Fe45 1.976 . S
O60 C54 1.287 . S
O61 Fe47 1.996 . S
O61 C54 1.255 . S
C62 O55 1.287 . S
C62 O56 1.255 . S
O63 Fe45 2.002 . S
O63 C59 1.295 . S
O64 Fe47 1.997 . S
O64 C59 1.235 . S
C65 O48 1.295 . S
C65 O49 1.235 . S
Fe66 O68 1.918 . S
Fe66 O71 1.997 . S
Fe66 O72 2.002 . S
Fe66 O77 1.976 . S
Fe66 O80 1.996 . S
Fe67 O68 1.918 . S
Fe67 O75 1.997 . S
Fe67 O78 1.996 . S
Fe67 O82 1.976 . S
Fe67 O85 2.002 . S
O68 Fe66 1.918 . S
O68 Fe67 1.918 . S
O68 Fe69 1.918 . S
Fe69 O68 1.918 . S
Fe69 O70 2.002 . S
Fe69 O79 1.976 . S
Fe69 O83 1.996 . S
Fe69 O86 1.997 . S
O70 Fe69 2.002 . S
O70 C87 1.295 . S
O71 Fe66 1.997 . S
O71 C87 1.235 . S
O72 Fe66 2.002 . S
O72 C73 1.295 . S
C73 O72 1.295 . S
C73 O75 1.235 . S
C74 O79 1.287 . S
C74 O80 1.255 . S
O75 Fe67 1.997 . S
O75 C73 1.235 . S
C76 O82 1.287 . S
C76 O83 1.255 . S
O77 Fe66 1.976 . S
O77 C84 1.287 . S
O78 Fe67 1.996 . S
O78 C84 1.255 . S
O79 Fe69 1.976 . S
O79 C74 1.287 . S
O80 Fe66 1.996 . S
O80 C74 1.255 . S
C81 O85 1.295 . S
C81 O86 1.235 . S
O82 Fe67 1.976 . S
O82 C76 1.287 . S
O83 Fe69 1.996 . S
O83 C76 1.255 . S
C84 O77 1.287 . S
C84 O78 1.255 . S
O85 Fe67 2.002 . S
O85 C81 1.295 . S
O86 Fe69 1.997 . S
O86 C81 1.235 . S
C87 O70 1.295 . S
C87 O71 1.235 . S
Fe88 O90 1.918 . S
Fe88 O93 1.997 . S
Fe88 O94 2.002 . S
Fe88 O99 1.976 . S
Fe88 O102 1.996 . S
Fe89 O90 1.918 . S
Fe89 O97 1.997 . S
Fe89 O100 1.996 . S
Fe89 O104 1.976 . S
Fe89 O107 2.002 . S
O90 Fe88 1.918 . S
O90 Fe89 1.918 . S
O90 Fe91 1.918 . S
Fe91 O90 1.918 . S
Fe91 O92 2.002 . S
Fe91 O101 1.976 . S
Fe91 O105 1.996 . S
Fe91 O108 1.997 . S
O92 Fe91 2.002 . S
O92 C109 1.295 . S
O93 Fe88 1.997 . S
O93 C109 1.235 . S
O94 Fe88 2.002 . S
O94 C95 1.295 . S
C95 O94 1.295 . S
C95 O97 1.235 . S
C96 O101 1.287 . S
C96 O102 1.255 . S
O97 Fe89 1.997 . S
O97 C95 1.235 . S
C98 O104 1.287 . S
C98 O105 1.255 . S
O99 Fe88 1.976 . S
O99 C106 1.287 . S
O100 Fe89 1.996 . S
O100 C106 1.255 . S
O101 Fe91 1.976 . S
O101 C96 1.287 . S
O102 Fe88 1.996 . S
O102 C96 1.255 . S
C103 O107 1.295 . S
C103 O108 1.235 . S
O104 Fe89 1.976 . S
O104 C98 1.287 . S
O105 Fe91 1.996 . S
O105 C98 1.255 . S
C106 O99 1.287 . S
C106 O100 1.255 . S
O107 Fe89 2.002 . S
O107 C103 1.295 . S
O108 Fe91 1.997 . S
O108 C103 1.235 . S
C109 O92 1.295 . S
C109 O93 1.235 . S
Fe110 O112 1.918 . S
Fe110 O115 1.997 . S
Fe110 O116 2.002 . S
Fe110 O121 1.976 . S
Fe110 O124 1.996 . S
Fe111 O112 1.918 . S
Fe111 O119 1.997 . S
Fe111 O122 1.996 . S
Fe111 O126 1.976 . S
Fe111 O129 2.002 . S
O112 Fe110 1.918 . S
O112 Fe111 1.918 . S
O112 Fe113 1.918 . S
Fe113 O112 1.918 . S
Fe113 O114 2.002 . S
Fe113 O123 1.976 . S
Fe113 O127 1.996 . S
Fe113 O130 1.997 . S
O114 Fe113 2.002 . S
O114 C131 1.295 . S
O115 Fe110 1.997 . S
O115 C131 1.235 . S
O116 Fe110 2.002 . S
O116 C117 1.295 . S
C117 O116 1.295 . S
C117 O119 1.235 . S
C118 O123 1.287 . S
C118 O124 1.255 . S
O119 Fe111 1.997 . S
O119 C117 1.235 . S
C120 O126 1.287 . S
C120 O127 1.255 . S
O121 Fe110 1.976 . S
O121 C128 1.287 . S
O122 Fe111 1.996 . S
O122 C128 1.255 . S
O123 Fe113 1.976 . S
O123 C118 1.287 . S
O124 Fe110 1.996 . S
O124 C118 1.255 . S
C125 O129 1.295 . S
C125 O130 1.235 . S
O126 Fe111 1.976 . S
O126 C120 1.287 . S
O127 Fe113 1.996 . S
O127 C120 1.255 . S
C128 O121 1.287 . S
C128 O122 1.255 . S
O129 Fe111 2.002 . S
O129 C125 1.295 . S
O130 Fe113 1.997 . S
O130 C125 1.235 . S
C131 O114 1.295 . S
C131 O115 1.235 . S
Fe132 O134 1.918 . S
Fe132 O137 1.997 . S
Fe132 O138 2.002 . S
Fe132 O143 1.976 . S
Fe132 O146 1.996 . S
Fe133 O134 1.918 . S
Fe133 O141 1.997 . S
Fe133 O144 1.996 . S
Fe133 O148 1.976 . S
Fe133 O151 2.002 . S
O134 Fe132 1.918 . S
O134 Fe133 1.918 . S
O134 Fe135 1.918 . S
Fe135 O134 1.918 . S
Fe135 O136 2.002 . S
Fe135 O145 1.976 . S
Fe135 O149 1.996 . S
Fe135 O152 1.997 . S
O136 Fe135 2.002 . S
O136 C153 1.295 . S
O137 Fe132 1.997 . S
O137 C153 1.235 . S
O138 Fe132 2.002 . S
O138 C139 1.295 . S
C139 O138 1.295 . S
C139 O141 1.235 . S
C140 O145 1.287 . S
C140 O146 1.255 . S
O141 Fe133 1.997 . S
O141 C139 1.235 . S
C142 O148 1.287 . S
C142 O149 1.255 . S
O143 Fe132 1.976 . S
O143 C150 1.287 . S
O144 Fe133 1.996 . S
O144 C150 1.255 . S
O145 Fe135 1.976 . S
O145 C140 1.287 . S
O146 Fe132 1.996 . S
O146 C140 1.255 . S
C147 O151 1.295 . S
C147 O152 1.235 . S
O148 Fe133 1.976 . S
O148 C142 1.287 . S
O149 Fe135 1.996 . S
O149 C142 1.255 . S
C150 O143 1.287 . S
C150 O144 1.255 . S
O151 Fe133 2.002 . S
O151 C147 1.295 . S
O152 Fe135 1.997 . S
O152 C147 1.235 . S
C153 O136 1.295 . S
C153 O137 1.235 . S
Fe154 O156 1.918 . S
Fe154 O159 1.997 . S
Fe154 O160 2.002 . S
Fe154 O165 1.976 . S
Fe154 O168 1.996 . S
Fe155 O156 1.918 . S
Fe155 O163 1.997 . S
Fe155 O166 1.996 . S
Fe155 O170 1.976 . S
Fe155 O173 2.002 . S
O156 Fe154 1.918 . S
O156 Fe155 1.918 . S
O156 Fe157 1.918 . S
Fe157 O156 1.918 . S
Fe157 O158 2.002 . S
Fe157 O167 1.976 . S
Fe157 O171 1.996 . S
Fe157 O174 1.997 . S
O158 Fe157 2.002 . S
O158 C175 1.295 . S
O159 Fe154 1.997 . S
O159 C175 1.235 . S
O160 Fe154 2.002 . S
O160 C161 1.295 . S
C161 O160 1.295 . S
C161 O163 1.235 . S
C162 O167 1.287 . S
C162 O168 1.255 . S
O163 Fe155 1.997 . S
O163 C161 1.235 . S
C164 O170 1.287 . S
C164 O171 1.255 . S
O165 Fe154 1.976 . S
O165 C172 1.287 . S
O166 Fe155 1.996 . S
O166 C172 1.255 . S
O167 Fe157 1.976 . S
O167 C162 1.287 . S
O168 Fe154 1.996 . S
O168 C162 1.255 . S
C169 O173 1.295 . S
C169 O174 1.235 . S
O170 Fe155 1.976 . S
O170 C164 1.287 . S
O171 Fe157 1.996 . S
O171 C164 1.255 . S
C172 O165 1.287 . S
C172 O166 1.255 . S
O173 Fe155 2.002 . S
O173 C169 1.295 . S
O174 Fe157 1.997 . S
O174 C169 1.235 . S
C175 O158 1.295 . S
C175 O159 1.235 . S
Fe176 O178 1.918 . S
Fe176 O181 1.997 . S
Fe176 O182 2.002 . S
Fe176 O187 1.976 . S
Fe176 O190 1.996 . S
Fe177 O178 1.918 . S
Fe177 O185 1.997 . S
Fe177 O188 1.996 . S
Fe177 O192 1.976 . S
Fe177 O195 2.002 . S
O178 Fe176 1.918 . S
O178 Fe177 1.918 . S
O178 Fe179 1.918 . S
Fe179 O178 1.918 . S
Fe179 O180 2.002 . S
Fe179 O189 1.976 . S
Fe179 O193 1.996 . S
Fe179 O196 1.997 . S
O180 Fe179 2.002 . S
O180 C197 1.295 . S
O181 Fe176 1.997 . S
O181 C197 1.235 . S
O182 Fe176 2.002 . S
O182 C183 1.295 . S
C183 O182 1.295 . S
C183 O185 1.235 . S
C184 O189 1.287 . S
C184 O190 1.255 . S
O185 Fe177 1.997 . S
O185 C183 1.235 . S
C186 O192 1.287 . S
C186 O193 1.255 . S
O187 Fe176 1.976 . S
O187 C194 1.287 . S
O188 Fe177 1.996 . S
O188 C194 1.255 . S
O189 Fe179 1.976 . S
O189 C184 1.287 . S
O190 Fe176 1.996 . S
O190 C184 1.255 . S
C191 O195 1.295 . S
C191 O196 1.235 . S
O192 Fe177 1.976 . S
O192 C186 1.287 . S
O193 Fe179 1.996 . S
O193 C186 1.255 . S
C194 O187 1.287 . S
C194 O188 1.255 . S
O195 Fe177 2.002 . S
O195 C191 1.295 . S
O196 Fe179 1.997 . S
O196 C191 1.235 . S
C197 O180 1.295 . S
C197 O181 1.235 . S
Fe198 O200 1.918 . S
Fe198 O203 1.997 . S
Fe198 O204 2.002 . S
Fe198 O209 1.976 . S
Fe198 O212 1.996 . S
Fe199 O200 1.918 . S
Fe199 O207 1.997 . S
Fe199 O210 1.996 . S
Fe199 O214 1.976 . S
Fe199 O217 2.002 . S
O200 Fe198 1.918 . S
O200 Fe199 1.918 . S
O200 Fe201 1.918 . S
Fe201 O200 1.918 . S
Fe201 O202 2.002 . S
Fe201 O211 1.976 . S
Fe201 O215 1.996 . S
Fe201 O218 1.997 . S
O202 Fe201 2.002 . S
O202 C219 1.295 . S
O203 Fe198 1.997 . S
O203 C219 1.235 . S
O204 Fe198 2.002 . S
O204 C205 1.295 . S
C205 O204 1.295 . S
C205 O207 1.235 . S
C206 O211 1.287 . S
C206 O212 1.255 . S
O207 Fe199 1.997 . S
O207 C205 1.235 . S
C208 O214 1.287 . S
C208 O215 1.255 . S
O209 Fe198 1.976 . S
O209 C216 1.287 . S
O210 Fe199 1.996 . S
O210 C216 1.255 . S
O211 Fe201 1.976 . S
O211 C206 1.287 . S
O212 Fe198 1.996 . S
O212 C206 1.255 . S
C213 O217 1.295 . S
C213 O218 1.235 . S
O214 Fe199 1.976 . S
O214 C208 1.287 . S
O215 Fe201 1.996 . S
O215 C208 1.255 . S
C216 O209 1.287 . S
C216 O210 1.255 . S
O217 Fe199 2.002 . S
O217 C213 1.295 . S
O218 Fe201 1.997 . S
O218 C213 1.235 . S
C219 O202 1.295 . S
C219 O203 1.235 . S
Fe220 O222 1.918 . S
Fe220 O225 1.997 . S
Fe220 O226 2.002 . S
Fe220 O231 1.976 . S
Fe220 O234 1.996 . S
Fe221 O222 1.918 . S
Fe221 O229 1.997 . S
Fe221 O232 1.996 . S
Fe221 O236 1.976 . S
Fe221 O239 2.002 . S
O222 Fe220 1.918 . S
O222 Fe221 1.918 . S
O222 Fe223 1.918 . S
Fe223 O222 1.918 . S
Fe223 O224 2.002 . S
Fe223 O233 1.976 . S
Fe223 O237 1.996 . S
Fe223 O240 1.997 . S
O224 Fe223 2.002 . S
O224 C241 1.295 . S
O225 Fe220 1.997 . S
O225 C241 1.235 . S
O226 Fe220 2.002 . S
O226 C227 1.295 . S
C227 O226 1.295 . S
C227 O229 1.235 . S
C228 O233 1.287 . S
C228 O234 1.255 . S
O229 Fe221 1.997 . S
O229 C227 1.235 . S
C230 O236 1.287 . S
C230 O237 1.255 . S
O231 Fe220 1.976 . S
O231 C238 1.287 . S
O232 Fe221 1.996 . S
O232 C238 1.255 . S
O233 Fe223 1.976 . S
O233 C228 1.287 . S
O234 Fe220 1.996 . S
O234 C228 1.255 . S
C235 O239 1.295 . S
C235 O240 1.235 . S
O236 Fe221 1.976 . S
O236 C230 1.287 . S
O237 Fe223 1.996 . S
O237 C230 1.255 . S
C238 O231 1.287 . S
C238 O232 1.255 . S
O239 Fe221 2.002 . S
O239 C235 1.295 . S
O240 Fe223 1.997 . S
O240 C235 1.235 . S
C241 O224 1.295 . S
C241 O225 1.235 . S
Fe242 O244 1.918 . S
Fe242 O247 1.997 . S
Fe242 O248 2.002 . S
Fe242 O253 1.976 . S
Fe242 O256 1.996 . S
Fe243 O244 1.918 . S
Fe243 O251 1.997 . S
Fe243 O254 1.996 . S
Fe243 O258 1.976 . S
Fe243 O261 2.002 . S
O244 Fe242 1.918 . S
O244 Fe243 1.918 . S
O244 Fe245 1.918 . S
Fe245 O244 1.918 . S
Fe245 O246 2.002 . S
Fe245 O255 1.976 . S
Fe245 O259 1.996 . S
Fe245 O262 1.997 . S
O246 Fe245 2.002 . S
O246 C263 1.295 . S
O247 Fe242 1.997 . S
O247 C263 1.235 . S
O248 Fe242 2.002 . S
O248 C249 1.295 . S
C249 O248 1.295 . S
C249 O251 1.235 . S
C250 O255 1.287 . S
C250 O256 1.255 . S
O251 Fe243 1.997 . S
O251 C249 1.235 . S
C252 O258 1.287 . S
C252 O259 1.255 . S
O253 Fe242 1.976 . S
O253 C260 1.287 . S
O254 Fe243 1.996 . S
O254 C260 1.255 . S
O255 Fe245 1.976 . S
O255 C250 1.287 . S
O256 Fe242 1.996 . S
O256 C250 1.255 . S
C257 O261 1.295 . S
C257 O262 1.235 . S
O258 Fe243 1.976 . S
O258 C252 1.287 . S
O259 Fe245 1.996 . S
O259 C252 1.255 . S
C260 O253 1.287 . S
C260 O254 1.255 . S
O261 Fe243 2.002 . S
O261 C257 1.295 . S
O262 Fe245 1.997 . S
O262 C257 1.235 . S
C263 O246 1.295 . S
C263 O247 1.235 . S
Fe264 O266 1.918 . S
Fe264 O269 1.997 . S
Fe264 O270 2.002 . S
Fe264 O275 1.976 . S
Fe264 O278 1.996 . S
Fe265 O266 1.918 . S
Fe265 O273 1.997 . S
Fe265 O276 1.996 . S
Fe265 O280 1.976 . S
Fe265 O283 2.002 . S
O266 Fe264 1.918 . S
O266 Fe265 1.918 . S
O266 Fe267 1.918 . S
Fe267 O266 1.918 . S
Fe267 O268 2.002 . S
Fe267 O277 1.976 . S
Fe267 O281 1.996 . S
Fe267 O284 1.997 . S
O268 Fe267 2.002 . S
O268 C285 1.295 . S
O269 Fe264 1.997 . S
O269 C285 1.235 . S
O270 Fe264 2.002 . S
O270 C271 1.295 . S
C271 O270 1.295 . S
C271 O273 1.235 . S
C272 O277 1.287 . S
C272 O278 1.255 . S
O273 Fe265 1.997 . S
O273 C271 1.235 . S
C274 O280 1.287 . S
C274 O281 1.255 . S
O275 Fe264 1.976 . S
O275 C282 1.287 . S
O276 Fe265 1.996 . S
O276 C282 1.255 . S
O277 Fe267 1.976 . S
O277 C272 1.287 . S
O278 Fe264 1.996 . S
O278 C272 1.255 . S
C279 O283 1.295 . S
C279 O284 1.235 . S
O280 Fe265 1.976 . S
O280 C274 1.287 . S
O281 Fe267 1.996 . S
O281 C274 1.255 . S
C282 O275 1.287 . S
C282 O276 1.255 . S
O283 Fe265 2.002 . S
O283 C279 1.295 . S
O284 Fe267 1.997 . S
O284 C279 1.235 . S
C285 O268 1.295 . S
C285 O269 1.235 . S
Fe286 O288 1.918 . S
Fe286 O291 1.997 . S
Fe286 O292 2.002 . S
Fe286 O297 1.976 . S
Fe286 O300 1.996 . S
Fe287 O288 1.918 . S
Fe287 O295 1.997 . S
Fe287 O298 1.996 . S
Fe287 O302 1.976 . S
Fe287 O305 2.002 . S
O288 Fe286 1.918 . S
O288 Fe287 1.918 . S
O288 Fe289 1.918 . S
Fe289 O288 1.918 . S
Fe289 O290 2.002 . S
Fe289 O299 1.976 . S
Fe289 O303 1.996 . S
Fe289 O306 1.997 . S
O290 Fe289 2.002 . S
O290 C307 1.295 . S
O291 Fe286 1.997 . S
O291 C307 1.235 . S
O292 Fe286 2.002 . S
O292 C293 1.295 . S
C293 O292 1.295 . S
C293 O295 1.235 . S
C294 O299 1.287 . S
C294 O300 1.255 . S
O295 Fe287 1.997 . S
O295 C293 1.235 . S
C296 O302 1.287 . S
C296 O303 1.255 . S
O297 Fe286 1.976 . S
O297 C304 1.287 . S
O298 Fe287 1.996 . S
O298 C304 1.255 . S
O299 Fe289 1.976 . S
O299 C294 1.287 . S
O300 Fe286 1.996 . S
O300 C294 1.255 . S
C301 O305 1.295 . S
C301 O306 1.235 . S
O302 Fe287 1.976 . S
O302 C296 1.287 . S
O303 Fe289 1.996 . S
O303 C296 1.255 . S
C304 O297 1.287 . S
C304 O298 1.255 . S
O305 Fe287 2.002 . S
O305 C301 1.295 . S
O306 Fe289 1.997 . S
O306 C301 1.235 . S
C307 O290 1.295 . S
C307 O291 1.235 . S
Fe308 O310 1.918 . S
Fe308 O313 1.997 . S
Fe308 O314 2.002 . S
Fe308 O319 1.976 . S
Fe308 O322 1.996 . S
Fe309 O310 1.918 . S
Fe309 O317 1.997 . S
Fe309 O320 1.996 . S
Fe309 O324 1.976 . S
Fe309 O327 2.002 . S
O310 Fe308 1.918 . S
O310 Fe309 1.918 . S
O310 Fe311 1.918 . S
Fe311 O310 1.918 . S
Fe311 O312 2.002 . S
Fe311 O321 1.976 . S
Fe311 O325 1.996 . S
Fe311 O328 1.997 . S
O312 Fe311 2.002 . S
O312 C329 1.295 . S
O313 Fe308 1.997 . S
O313 C329 1.235 . S
O314 Fe308 2.002 . S
O314 C315 1.295 . S
C315 O314 1.295 . S
C315 O317 1.235 . S
C316 O321 1.287 . S
C316 O322 1.255 . S
O317 Fe309 1.997 . S
O317 C315 1.235 . S
C318 O324 1.287 . S
C318 O325 1.255 . S
O319 Fe308 1.976 . S
O319 C326 1.287 . S
O320 Fe309 1.996 . S
O320 C326 1.255 . S
O321 Fe311 1.976 . S
O321 C316 1.287 . S
O322 Fe308 1.996 . S
O322 C316 1.255 . S
C323 O327 1.295 . S
C323 O328 1.235 . S
O324 Fe309 1.976 . S
O324 C318 1.287 . S
O325 Fe311 1.996 . S
O325 C318 1.255 . S
C326 O319 1.287 . S
C326 O320 1.255 . S
O327 Fe309 2.002 . S
O327 C323 1.295 . S
O328 Fe311 1.997 . S
O328 C323 1.235 . S
C329 O312 1.295 . S
C329 O313 1.235 . S
Fe330 O332 1.918 . S
Fe330 O335 1.997 . S
Fe330 O336 2.002 . S
Fe330 O341 1.976 . S
Fe330 O344 1.996 . S
Fe331 O332 1.918 . S
Fe331 O339 1.997 . S
Fe331 O342 1.996 . S
Fe331 O346 1.976 . S
Fe331 O349 2.002 . S
O332 Fe330 1.918 . S
O332 Fe331 1.918 . S
O332 Fe333 1.918 . S
Fe333 O332 1.918 . S
Fe333 O334 2.002 . S
Fe333 O343 1.976 . S
Fe333 O347 1.996 . S
Fe333 O350 1.997 . S
O334 Fe333 2.002 . S
O334 C351 1.295 . S
O335 Fe330 1.997 . S
O335 C351 1.235 . S
O336 Fe330 2.002 . S
O336 C337 1.295 . S
C337 O336 1.295 . S
C337 O339 1.235 . S
C338 O343 1.287 . S
C338 O344 1.255 . S
O339 Fe331 1.997 . S
O339 C337 1.235 . S
C340 O346 1.287 . S
C340 O347 1.255 . S
O341 Fe330 1.976 . S
O341 C348 1.287 . S
O342 Fe331 1.996 . S
O342 C348 1.255 . S
O343 Fe333 1.976 . S
O343 C338 1.287 . S
O344 Fe330 1.996 . S
O344 C338 1.255 . S
C345 O349 1.295 . S
C345 O350 1.235 . S
O346 Fe331 1.976 . S
O346 C340 1.287 . S
O347 Fe333 1.996 . S
O347 C340 1.255 . S
C348 O341 1.287 . S
C348 O342 1.255 . S
O349 Fe331 2.002 . S
O349 C345 1.295 . S
O350 Fe333 1.997 . S
O350 C345 1.235 . S
C351 O334 1.295 . S
C351 O335 1.235 . S
Fe352 O354 1.918 . S
Fe352 O357 1.997 . S
Fe352 O358 2.002 . S
Fe352 O363 1.976 . S
Fe352 O366 1.996 . S
Fe353 O354 1.918 . S
Fe353 O361 1.997 . S
Fe353 O364 1.996 . S
Fe353 O368 1.976 . S
Fe353 O371 2.002 . S
O354 Fe352 1.918 . S
O354 Fe353 1.918 . S
O354 Fe355 1.918 . S
Fe355 O354 1.918 . S
Fe355 O356 2.002 . S
Fe355 O365 1.976 . S
Fe355 O369 1.996 . S
Fe355 O372 1.997 . S
O356 Fe355 2.002 . S
O356 C373 1.295 . S
O357 Fe352 1.997 . S
O357 C373 1.235 . S
O358 Fe352 2.002 . S
O358 C359 1.295 . S
C359 O358 1.295 . S
C359 O361 1.235 . S
C360 O365 1.287 . S
C360 O366 1.255 . S
O361 Fe353 1.997 . S
O361 C359 1.235 . S
C362 O368 1.287 . S
C362 O369 1.255 . S
O363 Fe352 1.976 . S
O363 C370 1.287 . S
O364 Fe353 1.996 . S
O364 C370 1.255 . S
O365 Fe355 1.976 . S
O365 C360 1.287 . S
O366 Fe352 1.996 . S
O366 C360 1.255 . S
C367 O371 1.295 . S
C367 O372 1.235 . S
O368 Fe353 1.976 . S
O368 C362 1.287 . S
O369 Fe355 1.996 . S
O369 C362 1.255 . S
C370 O363 1.287 . S
C370 O364 1.255 . S
O371 Fe353 2.002 . S
O371 C367 1.295 . S
O372 Fe355 1.997 . S
O372 C367 1.235 . S
C373 O356 1.295 . S
C373 O357 1.235 . S
Fe374 O376 1.918 . S
Fe374 O379 1.997 . S
Fe374 O380 2.002 . S
Fe374 O385 1.976 . S
Fe374 O388 1.996 . S
Fe375 O376 1.918 . S
Fe375 O383 1.997 . S
Fe375 O386 1.996 . S
Fe375 O390 1.976 . S
Fe375 O393 2.002 . S
O376 Fe374 1.918 . S
O376 Fe375 1.918 . S
O376 Fe377 1.918 . S
Fe377 O376 1.918 . S
Fe377 O378 2.002 . S
Fe377 O387 1.976 . S
Fe377 O391 1.996 . S
Fe377 O394 1.997 . S
O378 Fe377 2.002 . S
O378 C395 1.295 . S
O379 Fe374 1.997 . S
O379 C395 1.235 . S
O380 Fe374 2.002 . S
O380 C381 1.295 . S
C381 O380 1.295 . S
C381 O383 1.235 . S
C382 O387 1.287 . S
C382 O388 1.255 . S
O383 Fe375 1.997 . S
O383 C381 1.235 . S
C384 O390 1.287 . S
C384 O391 1.255 . S
O385 Fe374 1.976 . S
O385 C392 1.287 . S
O386 Fe375 1.996 . S
O386 C392 1.255 . S
O387 Fe377 1.976 . S
O387 C382 1.287 . S
O388 Fe374 1.996 . S
O388 C382 1.255 . S
C389 O393 1.295 . S
C389 O394 1.235 . S
O390 Fe375 1.976 . S
O390 C384 1.287 . S
O391 Fe377 1.996 . S
O391 C384 1.255 . S
C392 O385 1.287 . S
C392 O386 1.255 . S
O393 Fe375 2.002 . S
O393 C389 1.295 . S
O394 Fe377 1.997 . S
O394 C389 1.235 . S
C395 O378 1.295 . S
C395 O379 1.235 . S
Fe396 O398 1.918 . S
Fe396 O401 1.997 . S
Fe396 O402 2.002 . S
Fe396 O407 1.976 . S
Fe396 O410 1.996 . S
Fe397 O398 1.918 . S
Fe397 O405 1.997 . S
Fe397 O408 1.996 . S
Fe397 O412 1.976 . S
Fe397 O415 2.002 . S
O398 Fe396 1.918 . S
O398 Fe397 1.918 . S
O398 Fe399 1.918 . S
Fe399 O398 1.918 . S
Fe399 O400 2.002 . S
Fe399 O409 1.976 . S
Fe399 O413 1.996 . S
Fe399 O416 1.997 . S
O400 Fe399 2.002 . S
O400 C417 1.295 . S
O401 Fe396 1.997 . S
O401 C417 1.235 . S
O402 Fe396 2.002 . S
O402 C403 1.295 . S
C403 O402 1.295 . S
C403 O405 1.235 . S
C404 O409 1.287 . S
C404 O410 1.255 . S
O405 Fe397 1.997 . S
O405 C403 1.235 . S
C406 O412 1.287 . S
C406 O413 1.255 . S
O407 Fe396 1.976 . S
O407 C414 1.287 . S
O408 Fe397 1.996 . S
O408 C414 1.255 . S
O409 Fe399 1.976 . S
O409 C404 1.287 . S
O410 Fe396 1.996 . S
O410 C404 1.255 . S
C411 O415 1.295 . S
C411 O416 1.235 . S
O412 Fe397 1.976 . S
O412 C406 1.287 . S
O413 Fe399 1.996 . S
O413 C406 1.255 . S
C414 O407 1.287 . S
C414 O408 1.255 . S
O415 Fe397 2.002 . S
O415 C411 1.295 . S
O416 Fe399 1.997 . S
O416 C411 1.235 . S
C417 O400 1.295 . S
C417 O401 1.235 . S
Fe418 O420 1.918 . S
Fe418 O423 1.997 . S
Fe418 O424 2.002 . S
Fe418 O429 1.976 . S
Fe418 O432 1.996 . S
Fe419 O420 1.918 . S
Fe419 O427 1.997 . S
Fe419 O430 1.996 . S
Fe419 O434 1.976 . S
Fe419 O437 2.002 . S
O420 Fe418 1.918 . S
O420 Fe419 1.918 . S
O420 Fe421 1.918 . S
Fe421 O420 1.918 . S
Fe421 O422 2.002 . S
Fe421 O431 1.976 . S
Fe421 O435 1.996 . S
Fe421 O438 1.997 . S
O422 Fe421 2.002 . S
O422 C439 1.295 . S
O423 Fe418 1.997 . S
O423 C439 1.235 . S
O424 Fe418 2.002 . S
O424 C425 1.295 . S
C425 O424 1.295 . S
C425 O427 1.235 . S
C426 O431 1.287 . S
C426 O432 1.255 . S
O427 Fe419 1.997 . S
O427 C425 1.235 . S
C428 O434 1.287 . S
C428 O435 1.255 . S
O429 Fe418 1.976 . S
O429 C436 1.287 . S
O430 Fe419 1.996 . S
O430 C436 1.255 . S
O431 Fe421 1.976 . S
O431 C426 1.287 . S
O432 Fe418 1.996 . S
O432 C426 1.255 . S
C433 O437 1.295 . S
C433 O438 1.235 . S
O434 Fe419 1.976 . S
O434 C428 1.287 . S
O435 Fe421 1.996 . S
O435 C428 1.255 . S
C436 O429 1.287 . S
C436 O430 1.255 . S
O437 Fe419 2.002 . S
O437 C433 1.295 . S
O438 Fe421 1.997 . S
O438 C433 1.235 . S
C439 O422 1.295 . S
C439 O423 1.235 . S
Fe440 O442 1.918 . S
Fe440 O445 1.997 . S
Fe440 O446 2.002 . S
Fe440 O451 1.976 . S
Fe440 O454 1.996 . S
Fe441 O442 1.918 . S
Fe441 O449 1.997 . S
Fe441 O452 1.996 . S
Fe441 O456 1.976 . S
Fe441 O459 2.002 . S
O442 Fe440 1.918 . S
O442 Fe441 1.918 . S
O442 Fe443 1.918 . S
Fe443 O442 1.918 . S
Fe443 O444 2.002 . S
Fe443 O453 1.976 . S
Fe443 O457 1.996 . S
Fe443 O460 1.997 . S
O444 Fe443 2.002 . S
O444 C461 1.295 . S
O445 Fe440 1.997 . S
O445 C461 1.235 . S
O446 Fe440 2.002 . S
O446 C447 1.295 . S
C447 O446 1.295 . S
C447 O449 1.235 . S
C448 O453 1.287 . S
C448 O454 1.255 . S
O449 Fe441 1.997 . S
O449 C447 1.235 . S
C450 O456 1.287 . S
C450 O457 1.255 . S
O451 Fe440 1.976 . S
O451 C458 1.287 . S
O452 Fe441 1.996 . S
O452 C458 1.255 . S
O453 Fe443 1.976 . S
O453 C448 1.287 . S
O454 Fe440 1.996 . S
O454 C448 1.255 . S
C455 O459 1.295 . S
C455 O460 1.235 . S
O456 Fe441 1.976 . S
O456 C450 1.287 . S
O457 Fe443 1.996 . S
O457 C450 1.255 . S
C458 O451 1.287 . S
C458 O452 1.255 . S
O459 Fe441 2.002 . S
O459 C455 1.295 . S
O460 Fe443 1.997 . S
O460 C455 1.235 . S
C461 O444 1.295 . S
C461 O445 1.235 . S
Fe462 O464 1.918 . S
Fe462 O467 1.997 . S
Fe462 O468 2.002 . S
Fe462 O473 1.976 . S
Fe462 O476 1.996 . S
Fe463 O464 1.918 . S
Fe463 O471 1.997 . S
Fe463 O474 1.996 . S
Fe463 O478 1.976 . S
Fe463 O481 2.002 . S
O464 Fe462 1.918 . S
O464 Fe463 1.918 . S
O464 Fe465 1.918 . S
Fe465 O464 1.918 . S
Fe465 O466 2.002 . S
Fe465 O475 1.976 . S
Fe465 O479 1.996 . S
Fe465 O482 1.997 . S
O466 Fe465 2.002 . S
O466 C483 1.295 . S
O467 Fe462 1.997 . S
O467 C483 1.235 . S
O468 Fe462 2.002 . S
O468 C469 1.295 . S
C469 O468 1.295 . S
C469 O471 1.235 . S
C470 O475 1.287 . S
C470 O476 1.255 . S
O471 Fe463 1.997 . S
O471 C469 1.235 . S
C472 O478 1.287 . S
C472 O479 1.255 . S
O473 Fe462 1.976 . S
O473 C480 1.287 . S
O474 Fe463 1.996 . S
O474 C480 1.255 . S
O475 Fe465 1.976 . S
O475 C470 1.287 . S
O476 Fe462 1.996 . S
O476 C470 1.255 . S
C477 O481 1.295 . S
C477 O482 1.235 . S
O478 Fe463 1.976 . S
O478 C472 1.287 . S
O479 Fe465 1.996 . S
O479 C472 1.255 . S
C480 O473 1.287 . S
C480 O474 1.255 . S
O481 Fe463 2.002 . S
O481 C477 1.295 . S
O482 Fe465 1.997 . S
O482 C477 1.235 . S
C483 O466 1.295 . S
C483 O467 1.235 . S
Fe484 O486 1.918 . S
Fe484 O489 1.997 . S
Fe484 O490 2.002 . S
Fe484 O495 1.976 . S
Fe484 O498 1.996 . S
Fe485 O486 1.918 . S
Fe485 O493 1.997 . S
Fe485 O496 1.996 . S
Fe485 O500 1.976 . S
Fe485 O503 2.002 . S
O486 Fe484 1.918 . S
O486 Fe485 1.918 . S
O486 Fe487 1.918 . S
Fe487 O486 1.918 . S
Fe487 O488 2.002 . S
Fe487 O497 1.976 . S
Fe487 O501 1.996 . S
Fe487 O504 1.997 . S
O488 Fe487 2.002 . S
O488 C505 1.295 . S
O489 Fe484 1.997 . S
O489 C505 1.235 . S
O490 Fe484 2.002 . S
O490 C491 1.295 . S
C491 O490 1.295 . S
C491 O493 1.235 . S
C492 O497 1.287 . S
C492 O498 1.255 . S
O493 Fe485 1.997 . S
O493 C491 1.235 . S
C494 O500 1.287 . S
C494 O501 1.255 . S
O495 Fe484 1.976 . S
O495 C502 1.287 . S
O496 Fe485 1.996 . S
O496 C502 1.255 . S
O497 Fe487 1.976 . S
O497 C492 1.287 . S
O498 Fe484 1.996 . S
O498 C492 1.255 . S
C499 O503 1.295 . S
C499 O504 1.235 . S
O500 Fe485 1.976 . S
O500 C494 1.287 . S
O501 Fe487 1.996 . S
O501 C494 1.255 . S
C502 O495 1.287 . S
C502 O496 1.255 . S
O503 Fe485 2.002 . S
O503 C499 1.295 . S
O504 Fe487 1.997 . S
O504 C499 1.235 . S
C505 O488 1.295 . S
C505 O489 1.235 . S
Fe506 O508 1.918 . S
Fe506 O511 1.997 . S
Fe506 O512 2.002 . S
Fe506 O517 1.976 . S
Fe506 O520 1.996 . S
Fe507 O508 1.918 . S
Fe507 O515 1.997 . S
Fe507 O518 1.996 . S
Fe507 O522 1.976 . S
Fe507 O525 2.002 . S
O508 Fe506 1.918 . S
O508 Fe507 1.918 . S
O508 Fe509 1.918 . S
Fe509 O508 1.918 . S
Fe509 O510 2.002 . S
Fe509 O519 1.976 . S
Fe509 O523 1.996 . S
Fe509 O526 1.997 . S
O510 Fe509 2.002 . S
O510 C527 1.295 . S
O511 Fe506 1.997 . S
O511 C527 1.235 . S
O512 Fe506 2.002 . S
O512 C513 1.295 . S
C513 O512 1.295 . S
C513 O515 1.235 . S
C514 O519 1.287 . S
C514 O520 1.255 . S
O515 Fe507 1.997 . S
O515 C513 1.235 . S
C516 O522 1.287 . S
C516 O523 1.255 . S
O517 Fe506 1.976 . S
O517 C524 1.287 . S
O518 Fe507 1.996 . S
O518 C524 1.255 . S
O519 Fe509 1.976 . S
O519 C514 1.287 . S
O520 Fe506 1.996 . S
O520 C514 1.255 . S
C521 O525 1.295 . S
C521 O526 1.235 . S
O522 Fe507 1.976 . S
O522 C516 1.287 . S
O523 Fe509 1.996 . S
O523 C516 1.255 . S
C524 O517 1.287 . S
C524 O518 1.255 . S
O525 Fe507 2.002 . S
O525 C521 1.295 . S
O526 Fe509 1.997 . S
O526 C521 1.235 . S
C527 O510 1.295 . S
C527 O511 1.235 . S
C183 C7 2.221 . S
C29 C213 2.221 . S
C51 C227 2.221 . S
C87 C263 2.221 . S
C103 C153 2.221 . S
C175 C125 2.221 . S
C461 C285 2.221 . S
C483 C293 2.221 . S
C499 C329 2.221 . S
C351 C527 2.221 . S
C417 C359 2.221 . S
C439 C395 2.221 . S
C21 C81 4.796 1_545 S
C95 C43 4.796 . S
C65 C117 4.796 1_655 S
C147 C205 4.796 1_655 S
C169 C241 4.796 1_565 S
C197 C257 4.796 . S
C345 C279 4.796 1_545 S
C307 C373 4.796 . S
C389 C323 4.796 1_655 S
C411 C477 4.796 1_455 S
C433 C491 4.796 1_545 S
C521 C455 4.796 . S
C15 C235 1.205 . S
C249 C37 1.205 . S
C59 C139 1.205 . S
C73 C161 1.205 . S
C191 C109 1.205 . S
C219 C131 1.205 . S
C271 C505 1.205 . S
C301 C513 1.205 . S
C315 C403 1.205 . S
C337 C425 1.205 . S
C447 C367 1.205 . S
C469 C381 1.205 . S
C18 C96 1.309 . S
C118 C40 1.309 . S
C62 C10 1.309 . S
C32 C74 1.309 . S
C54 C98 1.309 . S
C84 C120 1.309 . S
C140 C186 1.309 . S
C206 C162 1.309 . S
C194 C230 1.309 . S
C208 C260 1.309 . S
C150 C238 1.309 . S
C250 C172 1.309 . S
C272 C362 1.309 . S
C392 C304 1.309 . S
C282 C316 1.309 . S
C338 C296 1.309 . S
C326 C370 1.309 . S
C382 C348 1.309 . S
C404 C458 1.309 . S
C480 C426 1.309 . S
C492 C448 1.309 . S
C470 C524 1.309 . S
C414 C494 1.309 . S
C514 C436 1.309 . S
C340 C8 1.576 1_556 S
C360 C30 1.576 1_556 S
C52 C384 1.576 1_554 S
C274 C76 1.576 1_556 S
C294 C106 1.576 1_556 S
C128 C318 1.576 1_554 S
C472 C142 1.576 . S
C502 C164 1.576 . S
C184 C516 1.576 . S
C406 C216 1.576 . S
C228 C428 1.576 . S
C450 C252 1.576 . S
