# Generated by pormake.
# Topology snl, (6)-cn, num edge types: 1
# Building blocks:
#     Node 0, Type 0, BuildingBlock: CUKXOW_clean_sbu_0, # of connection points: 6
#     Node 1, Type 0, BuildingBlock: CUKXOW_clean_sbu_0, # of connection points: 6
#     Node 2, Type 0, BuildingBlock: CUKXOW_clean_sbu_0, # of connection points: 6
#     Node 3, Type 0, BuildingBlock: CUKXOW_clean_sbu_0, # of connection points: 6
#     Node 4, Type 0, BuildingBlock: CUKXOW_clean_sbu_0, # of connection points: 6
#     Node 5, Type 0, BuildingBlock: CUKXOW_clean_sbu_0, # of connection points: 6
#     Node 6, Type 0, BuildingBlock: CUKXOW_clean_sbu_0, # of connection points: 6
#     Node 7, Type 0, BuildingBlock: CUKXOW_clean_sbu_0, # of connection points: 6
#     Node 8, Type 0, BuildingBlock: CUKXOW_clean_sbu_0, # of connection points: 6
#     Node 9, Type 0, BuildingBlock: CUKXOW_clean_sbu_0, # of connection points: 6
#     Node 10, Type 0, BuildingBlock: CUKXOW_clean_sbu_0, # of connection points: 6
#     Node 11, Type 0, BuildingBlock: CUKXOW_clean_sbu_0, # of connection points: 6
#     Node 12, Type 0, BuildingBlock: CUKXOW_clean_sbu_0, # of connection points: 6
#     Node 13, Type 0, BuildingBlock: CUKXOW_clean_sbu_0, # of connection points: 6
#     Node 14, Type 0, BuildingBlock: CUKXOW_clean_sbu_0, # of connection points: 6
#     Node 15, Type 0, BuildingBlock: CUKXOW_clean_sbu_0, # of connection points: 6
#     Edge 16, Type (0, 0), BuildingBlock: OJICUG_clean_linker_0, # of connection points: 2
#     Edge 17, Type (0, 0), BuildingBlock: OJICUG_clean_linker_0, # of connection points: 2
#     Edge 18, Type (0, 0), BuildingBlock: OJICUG_clean_linker_0, # of connection points: 2
#     Edge 19, Type (0, 0), BuildingBlock: OJICUG_clean_linker_0, # of connection points: 2
#     Edge 20, Type (0, 0), BuildingBlock: OJICUG_clean_linker_0, # of connection points: 2
#     Edge 21, Type (0, 0), BuildingBlock: OJICUG_clean_linker_0, # of connection points: 2
#     Edge 22, Type (0, 0), BuildingBlock: OJICUG_clean_linker_0, # of connection points: 2
#     Edge 23, Type (0, 0), BuildingBlock: OJICUG_clean_linker_0, # of connection points: 2
#     Edge 24, Type (0, 0), BuildingBlock: OJICUG_clean_linker_0, # of connection points: 2
#     Edge 25, Type (0, 0), BuildingBlock: OJICUG_clean_linker_0, # of connection points: 2
#     Edge 26, Type (0, 0), BuildingBlock: OJICUG_clean_linker_0, # of connection points: 2
#     Edge 27, Type (0, 0), BuildingBlock: OJICUG_clean_linker_0, # of connection points: 2
#     Edge 28, Type (0, 0), BuildingBlock: OJICUG_clean_linker_0, # of connection points: 2
#     Edge 29, Type (0, 0), BuildingBlock: OJICUG_clean_linker_0, # of connection points: 2
#     Edge 30, Type (0, 0), BuildingBlock: OJICUG_clean_linker_0, # of connection points: 2
#     Edge 31, Type (0, 0), BuildingBlock: OJICUG_clean_linker_0, # of connection points: 2
#     Edge 32, Type (0, 0), BuildingBlock: OJICUG_clean_linker_0, # of connection points: 2
#     Edge 33, Type (0, 0), BuildingBlock: OJICUG_clean_linker_0, # of connection points: 2
#     Edge 34, Type (0, 0), BuildingBlock: OJICUG_clean_linker_0, # of connection points: 2
#     Edge 35, Type (0, 0), BuildingBlock: OJICUG_clean_linker_0, # of connection points: 2
#     Edge 36, Type (0, 0), BuildingBlock: OJICUG_clean_linker_0, # of connection points: 2
#     Edge 37, Type (0, 0), BuildingBlock: OJICUG_clean_linker_0, # of connection points: 2
#     Edge 38, Type (0, 0), BuildingBlock: OJICUG_clean_linker_0, # of connection points: 2
#     Edge 39, Type (0, 0), BuildingBlock: OJICUG_clean_linker_0, # of connection points: 2
#     Edge 40, Type (0, 0), BuildingBlock: OJICUG_clean_linker_0, # of connection points: 2
#     Edge 41, Type (0, 0), BuildingBlock: OJICUG_clean_linker_0, # of connection points: 2
#     Edge 42, Type (0, 0), BuildingBlock: OJICUG_clean_linker_0, # of connection points: 2
#     Edge 43, Type (0, 0), BuildingBlock: OJICUG_clean_linker_0, # of connection points: 2
#     Edge 44, Type (0, 0), BuildingBlock: OJICUG_clean_linker_0, # of connection points: 2
#     Edge 45, Type (0, 0), BuildingBlock: OJICUG_clean_linker_0, # of connection points: 2
#     Edge 46, Type (0, 0), BuildingBlock: OJICUG_clean_linker_0, # of connection points: 2
#     Edge 47, Type (0, 0), BuildingBlock: OJICUG_clean_linker_0, # of connection points: 2
#     Edge 48, Type (0, 0), BuildingBlock: OJICUG_clean_linker_0, # of connection points: 2
#     Edge 49, Type (0, 0), BuildingBlock: OJICUG_clean_linker_0, # of connection points: 2
#     Edge 50, Type (0, 0), BuildingBlock: OJICUG_clean_linker_0, # of connection points: 2
#     Edge 51, Type (0, 0), BuildingBlock: OJICUG_clean_linker_0, # of connection points: 2
#     Edge 52, Type (0, 0), BuildingBlock: OJICUG_clean_linker_0, # of connection points: 2
#     Edge 53, Type (0, 0), BuildingBlock: OJICUG_clean_linker_0, # of connection points: 2
#     Edge 54, Type (0, 0), BuildingBlock: OJICUG_clean_linker_0, # of connection points: 2
#     Edge 55, Type (0, 0), BuildingBlock: OJICUG_clean_linker_0, # of connection points: 2
#     Edge 56, Type (0, 0), BuildingBlock: OJICUG_clean_linker_0, # of connection points: 2
#     Edge 57, Type (0, 0), BuildingBlock: OJICUG_clean_linker_0, # of connection points: 2
#     Edge 58, Type (0, 0), BuildingBlock: OJICUG_clean_linker_0, # of connection points: 2
#     Edge 59, Type (0, 0), BuildingBlock: OJICUG_clean_linker_0, # of connection points: 2
#     Edge 60, Type (0, 0), BuildingBlock: OJICUG_clean_linker_0, # of connection points: 2
#     Edge 61, Type (0, 0), BuildingBlock: OJICUG_clean_linker_0, # of connection points: 2
#     Edge 62, Type (0, 0), BuildingBlock: OJICUG_clean_linker_0, # of connection points: 2
#     Edge 63, Type (0, 0), BuildingBlock: OJICUG_clean_linker_0, # of connection points: 2
# Relax obj value: 0.197
# Max RMSD: 0.289
# Mean RMSD: 0.226
data_MOF--net-snl--node1-CUKXOW_clean_sbu_0--edge1-OJICUG_clean_linker_0
_symmetry_space_group_name_H-M    P1
_symmetry_Int_Tables_number       1
_symmetry_cell_setting            triclinic
loop_
_symmetry_equiv_pos_as_xyz
'x, y, z'
_cell_length_a     51.172885
_cell_length_b     48.467536
_cell_length_c     10.374029
_cell_angle_alpha  94.702687
_cell_angle_beta   94.758173
_cell_angle_gamma 90.221917
loop_
_atom_site_label
_atom_site_type_symbol
_atom_site_fract_x
_atom_site_fract_y
_atom_site_fract_z
_atom_type_partial_charge
Tb0 Tb 0.11132 0.61777 0.13242 0.0
C1 C 0.14271 0.67395 0.18834 0.0
Tb2 Tb 0.17192 0.61759 0.18438 0.0
O3 O 0.1058 0.60197 0.32079 0.0
O4 O 0.13914 0.6248 0.29673 0.0
O5 O 0.12175 0.66122 0.12649 0.0
C6 C 0.2204 0.61599 0.29296 0.0
O7 O 0.16345 0.66057 0.2351 0.0
C8 C 0.15807 0.61602 0.93008 0.0
C9 C 0.14071 0.5616 0.1317 0.0
O10 O 0.21084 0.63554 0.22538 0.0
O11 O 0.20252 0.5973 0.30129 0.0
O12 O 0.18215 0.61648 0.98022 0.0
O13 O 0.14406 0.61664 1.02409 0.0
O14 O 0.16191 0.57441 0.18939 0.0
O15 O 0.1197 0.57464 0.08534 0.0
C16 C 0.06256 0.62526 0.03439 0.0
O17 O 0.07802 0.60609 0.99167 0.0
O18 O 0.07435 0.63972 0.13304 0.0
C19 C 0.12862 0.61034 0.37454 0.0
Tb20 Tb 0.58639 0.87707 0.45053 0.0
C21 C 0.61693 0.8191 0.44617 0.0
Tb22 Tb 0.64998 0.87496 0.44458 0.0
O23 O 0.57826 0.87902 0.23783 0.0
O24 O 0.61544 0.87493 0.31706 0.0
O25 O 0.59629 0.83354 0.48556 0.0
C26 C 0.6991 0.87371 0.36519 0.0
O27 O 0.63776 0.8313 0.40419 0.0
C28 C 0.63468 0.87643 0.68491 0.0
C29 C 0.62163 0.93349 0.49417 0.0
O30 O 0.68965 0.85731 0.44335 0.0
O31 O 0.68064 0.89066 0.33014 0.0
O32 O 0.65903 0.87597 0.65723 0.0
O33 O 0.62095 0.87636 0.57808 0.0
O34 O 0.64317 0.91987 0.46252 0.0
O35 O 0.59852 0.92087 0.5037 0.0
C36 C 0.5344 0.87755 0.48904 0.0
O37 O 0.55094 0.89806 0.51924 0.0
O38 O 0.54761 0.85655 0.44392 0.0
C39 C 0.6024 0.87684 0.21004 0.0
Tb40 Tb 0.41624 0.35734 0.65891 0.0
C41 C 0.37753 0.30688 0.64189 0.0
Tb42 Tb 0.35674 0.3677 0.67098 0.0
O43 O 0.41972 0.34297 0.85481 0.0
O44 O 0.39091 0.37104 0.80482 0.0
O45 O 0.40033 0.31577 0.60681 0.0
C46 C 0.31027 0.37282 0.76233 0.0
O47 O 0.35949 0.32371 0.68632 0.0
C48 C 0.36909 0.36173 0.4247 0.0
C49 C 0.39334 0.41766 0.6631 0.0
O50 O 0.32656 0.35301 0.78457 0.0
O51 O 0.32008 0.38985 0.68838 0.0
O52 O 0.34562 0.36709 0.45848 0.0
O53 O 0.3831 0.36 0.52898 0.0
O54 O 0.37244 0.40891 0.71511 0.0
O55 O 0.4108 0.4004 0.61479 0.0
C56 C 0.4661 0.36029 0.6068 0.0
O57 O 0.45454 0.37759 0.68455 0.0
O58 O 0.44974 0.34073 0.55935 0.0
C59 C 0.3991 0.35576 0.89246 0.0
Tb60 Tb 0.881 0.16169 0.91345 0.0
C61 C 0.93713 0.13263 0.90067 0.0
Tb62 Tb 0.88538 0.09634 0.9184 0.0
O63 O 0.86609 0.16395 0.10582 0.0
O64 O 0.89092 0.1321 0.05437 0.0
O65 O 0.92229 0.15435 0.87218 0.0
C66 C 0.88837 0.04402 0.99744 0.0
O67 O 0.92697 0.10956 0.94009 0.0
C68 C 0.88125 0.1113 0.67583 0.0
C69 C 0.82889 0.12472 0.87419 0.0
O70 O 0.90355 0.05493 0.92033 0.0
O71 O 0.87166 0.06289 1.03188 0.0
O72 O 0.88342 0.08586 0.70613 0.0
O73 O 0.88106 0.12613 0.78159 0.0
O74 O 0.84248 0.1031 0.91506 0.0
O75 O 0.84049 0.1484 0.85203 0.0
C76 C 0.88092 0.21743 0.89268 0.0
O77 O 0.89652 0.20401 0.97039 0.0
O78 O 0.86595 0.19915 0.82232 0.0
C79 C 0.87661 0.14128 0.14165 0.0
Tb80 Tb 0.09994 0.39191 0.05016 0.0
C81 C 0.12164 0.33489 0.95039 0.0
Tb82 Tb 0.16174 0.38471 0.03781 0.0
O83 O 0.09031 0.39599 0.83912 0.0
O84 O 0.12803 0.39195 0.91525 0.0
O85 O 0.10261 0.3477 1.01018 0.0
C86 C 0.209 0.38129 0.95505 0.0
O87 O 0.14506 0.34623 0.94051 0.0
C88 C 0.14695 0.38361 0.27979 0.0
C89 C 0.13797 0.44329 0.0983 0.0
O90 O 0.19764 0.36191 1.01034 0.0
O91 O 0.19382 0.40257 0.94677 0.0
O92 O 0.1711 0.38163 0.25011 0.0
O93 O 0.13359 0.38519 0.17333 0.0
O94 O 0.15775 0.42934 0.05066 0.0
O95 O 0.11603 0.43161 0.12744 0.0
C96 C 0.05417 0.39793 0.14725 0.0
O97 O 0.06571 0.41641 0.08744 0.0
O98 O 0.06808 0.37556 0.14936 0.0
C99 C 0.11453 0.39406 0.80933 0.0
Tb100 Tb 0.91766 0.8684 0.1367 0.0
C101 C 0.88356 0.81291 0.09901 0.0
Tb102 Tb 0.85623 0.87231 0.14012 0.0
O103 O 0.92003 0.85311 0.3297 0.0
O104 O 0.88976 0.87915 0.27743 0.0
O105 O 0.90591 0.82521 0.07573 0.0
C106 C 0.80719 0.87416 0.22092 0.0
O107 O 0.86309 0.82728 0.13914 0.0
C108 C 0.8701 0.86744 0.89765 0.0
C109 C 0.88906 0.92692 0.11288 0.0
O110 O 0.82589 0.85792 0.26012 0.0
O111 O 0.81634 0.88956 0.13785 0.0
O112 O 0.84603 0.86964 0.92812 0.0
O113 O 0.88429 0.86752 1.0031 0.0
O114 O 0.86771 0.91639 0.15737 0.0
O115 O 0.90959 0.91117 0.08452 0.0
C116 C 0.97042 0.87132 0.12593 0.0
O117 O 0.95604 0.88902 0.18832 0.0
O118 O 0.95482 0.85241 0.06437 0.0
C119 C 0.89859 0.8642 0.36518 0.0
Tb120 Tb 0.38348 0.64335 0.48162 0.0
C121 C 0.43674 0.61886 0.56061 0.0
Tb122 Tb 0.38457 0.58283 0.49414 0.0
O123 O 0.39348 0.65224 0.69078 0.0
O124 O 0.37278 0.61625 0.62096 0.0
O125 O 0.42505 0.64012 0.51044 0.0
C126 C 0.3914 0.53166 0.56259 0.0
O127 O 0.42428 0.59533 0.57374 0.0
C128 C 0.38263 0.59835 0.25498 0.0
C129 C 0.33094 0.60915 0.42779 0.0
O130 O 0.40174 0.54182 0.46678 0.0
O131 O 0.37694 0.55011 0.61858 0.0
O132 O 0.37218 0.57564 0.28619 0.0
O133 O 0.39528 0.60995 0.35505 0.0
O134 O 0.34222 0.58777 0.48047 0.0
O135 O 0.34466 0.63069 0.40061 0.0
C136 C 0.37641 0.69172 0.38507 0.0
O137 O 0.36211 0.68185 0.46832 0.0
O138 O 0.39547 0.67514 0.36141 0.0
C139 C 0.38457 0.62869 0.72144 0.0
Tb140 Tb 0.60002 0.11313 0.60688 0.0
C141 C 0.63284 0.16882 0.62879 0.0
Tb142 Tb 0.66347 0.11201 0.65944 0.0
O143 O 0.59207 0.11242 0.81305 0.0
O144 O 0.6295 0.11397 0.76294 0.0
O145 O 0.61236 0.15467 0.56888 0.0
C146 C 0.71453 0.11635 0.75604 0.0
O147 O 0.65283 0.15631 0.69134 0.0
C148 C 0.64793 0.11041 0.40762 0.0
C149 C 0.62963 0.05503 0.59435 0.0
O150 O 0.70148 0.134 0.68915 0.0
O151 O 0.69843 0.09618 0.77251 0.0
O152 O 0.67221 0.10937 0.45413 0.0
O153 O 0.63426 0.11174 0.50359 0.0
O154 O 0.6523 0.06728 0.6449 0.0
O155 O 0.60803 0.06916 0.56095 0.0
C156 C 0.54838 0.1196 0.53983 0.0
O157 O 0.56131 0.0966 0.52275 0.0
O158 O 0.56495 0.13888 0.58748 0.0
C159 C 0.6163 0.11316 0.85942 0.0
Tb160 Tb 0.83728 0.39478 0.93017 0.0
C161 C 0.86616 0.454 0.98381 0.0
Tb162 Tb 0.89895 0.39821 0.99127 0.0
O163 O 0.82698 0.39492 0.13498 0.0
O164 O 0.86491 0.39725 0.09046 0.0
O165 O 0.84493 0.43986 0.93029 0.0
C166 C 0.94539 0.4019 0.12376 0.0
O167 O 0.88765 0.44149 1.03022 0.0
C168 C 0.88503 0.39623 0.73644 0.0
C169 C 0.87176 0.33904 0.93184 0.0
O170 O 0.93429 0.42148 0.06175 0.0
O171 O 0.93053 0.37994 0.10901 0.0
O172 O 0.90926 0.39751 0.78636 0.0
O173 O 0.87127 0.39582 0.83106 0.0
O174 O 0.89223 0.35355 0.98965 0.0
O175 O 0.8498 0.35126 0.88681 0.0
C176 C 0.79036 0.39086 0.80051 0.0
O177 O 0.8024 0.37092 0.85586 0.0
O178 O 0.80458 0.41328 0.81925 0.0
C179 C 0.85118 0.3965 0.18504 0.0
Tb180 Tb 0.32275 0.13683 0.66944 0.0
C181 C 0.35392 0.08007 0.68026 0.0
Tb182 Tb 0.38655 0.13369 0.65947 0.0
O183 O 0.31386 0.13565 0.45547 0.0
O184 O 0.35139 0.13237 0.53417 0.0
O185 O 0.33287 0.09435 0.71306 0.0
C186 C 0.43623 0.13019 0.5897 0.0
O187 O 0.37491 0.09105 0.6368 0.0
C188 C 0.37116 0.13753 0.90259 0.0
C189 C 0.35734 0.18992 0.63889 0.0
O190 O 0.41836 0.11078 0.56746 0.0
O191 O 0.42588 0.1516 0.64942 0.0
O192 O 0.39537 0.13569 0.87381 0.0
O193 O 0.35774 0.13781 0.79526 0.0
O194 O 0.37668 0.17405 0.60001 0.0
O195 O 0.33601 0.18026 0.68743 0.0
C196 C 0.27231 0.13824 0.73579 0.0
O197 O 0.28914 0.15878 0.75315 0.0
O198 O 0.28426 0.11697 0.68422 0.0
C199 C 0.33806 0.13333 0.42684 0.0
Tb200 Tb 0.65504 0.64178 0.4814 0.0
C201 C 0.62704 0.58349 0.49943 0.0
Tb202 Tb 0.59318 0.63924 0.4893 0.0
O203 O 0.66523 0.64322 0.69485 0.0
O204 O 0.62718 0.64151 0.61724 0.0
O205 O 0.64822 0.59657 0.46703 0.0
C206 C 0.5463 0.63182 0.56996 0.0
O207 O 0.6053 0.59691 0.52776 0.0
C208 C 0.6074 0.63895 0.24687 0.0
C209 C 0.62086 0.6978 0.47776 0.0
O210 O 0.55889 0.61362 0.50144 0.0
O211 O 0.55983 0.65478 0.59106 0.0
O212 O 0.58315 0.63822 0.27564 0.0
O213 O 0.62101 0.63951 0.35369 0.0
O214 O 0.59993 0.68437 0.51171 0.0
O215 O 0.64289 0.6847 0.4485 0.0
C216 C 0.70069 0.64022 0.37954 0.0
O217 O 0.69374 0.65952 0.46416 0.0
O218 O 0.68215 0.6218 0.35413 0.0
C219 C 0.64095 0.64241 0.72377 0.0
Tb220 Tb 0.13907 0.90542 0.22087 0.0
C221 C 0.19559 0.87969 0.26555 0.0
Tb222 Tb 0.1426 0.8455 0.21918 0.0
O223 O 0.12278 0.90939 0.40913 0.0
O224 O 0.14945 0.87799 0.36682 0.0
O225 O 0.18208 0.90117 0.22545 0.0
C226 C 0.14336 0.7919 0.25402 0.0
O227 O 0.18321 0.85682 0.29055 0.0
C228 C 0.14554 0.86371 0.98855 0.0
C229 C 0.08538 0.87266 0.19339 0.0
O230 O 0.16049 0.80512 0.19776 0.0
O231 O 0.12542 0.80881 0.29205 0.0
O232 O 0.15712 0.84183 1.02626 0.0
O233 O 0.13117 0.87264 0.07496 0.0
O234 O 0.09924 0.84992 0.21424 0.0
O235 O 0.09714 0.89672 0.18343 0.0
C236 C 0.13932 0.95528 0.13605 0.0
O237 O 0.14019 0.95049 0.25761 0.0
O238 O 0.13892 0.93222 0.06415 0.0
C239 C 0.13426 0.88741 0.44931 0.0
Tb240 Tb 0.84157 0.63494 1.02537 0.0
C241 C 0.87031 0.57595 1.00808 0.0
Tb242 Tb 0.90346 0.63221 1.01822 0.0
O243 O 0.83158 0.63645 0.81364 0.0
O244 O 0.86969 0.63474 0.89007 0.0
O245 O 0.84932 0.59043 0.0408 0.0
C246 C 0.9523 0.63405 0.95129 0.0
O247 O 0.89264 0.58804 0.98248 0.0
C248 C 0.88885 0.63138 0.25922 0.0
C249 C 0.87467 0.69111 1.03253 0.0
O250 O 0.93609 0.6134 0.9195 0.0
O251 O 0.94083 0.65335 1.01891 0.0
O252 O 0.91307 0.63049 0.2305 0.0
O253 O 0.87534 0.63231 0.1529 0.0
O254 O 0.89542 0.67647 0.9985 0.0
O255 O 0.85233 0.67911 0.05726 0.0
C256 C 0.79555 0.63866 0.12364 0.0
O257 O 0.81491 0.65599 0.15253 0.0
O258 O 0.80194 0.61934 0.03801 0.0
C259 C 0.85585 0.63545 0.78436 0.0
Tb260 Tb 0.10608 0.10603 0.83408 0.0
C261 C 0.15934 0.13957 0.80952 0.0
Tb262 Tb 0.10405 0.17111 0.82888 0.0
O263 O 0.10358 0.09552 0.62112 0.0
O264 O 0.10267 0.13573 0.6985 0.0
O265 O 0.14794 0.11561 0.82814 0.0
C266 C 0.10301 0.22279 0.76182 0.0
O267 O 0.14592 0.16306 0.80125 0.0
C268 C 0.10765 0.15596 0.07095 0.0
C269 C 0.05099 0.13632 0.84017 0.0
O270 O 0.12293 0.20641 0.75729 0.0
O271 O 0.08332 0.20953 0.79951 0.0
O272 O 0.10733 0.18154 0.04244 0.0
O273 O 0.107 0.14165 0.96406 0.0
O274 O 0.06201 0.15886 0.79976 0.0
O275 O 0.06511 0.11441 0.87217 0.0
C276 C 0.11479 0.05869 0.93527 0.0
O277 O 0.09755 0.06216 0.8387 0.0
O278 O 0.12697 0.0817 0.97446 0.0
C279 C 0.10238 0.12116 0.59225 0.0
Tb280 Tb 0.62611 0.40757 0.56625 0.0
C281 C 0.68287 0.38049 0.60089 0.0
Tb282 Tb 0.63155 0.3443 0.5639 0.0
O283 O 0.61235 0.41066 0.76058 0.0
O284 O 0.63688 0.37868 0.70725 0.0
O285 O 0.66889 0.40281 0.57546 0.0
C286 C 0.63113 0.28917 0.59669 0.0
O287 O 0.67206 0.35601 0.61256 0.0
C288 C 0.63589 0.36491 0.33772 0.0
C289 C 0.5758 0.3709 0.54602 0.0
O290 O 0.61896 0.30124 0.50223 0.0
O291 O 0.64328 0.30833 0.67464 0.0
O292 O 0.64758 0.34287 0.37486 0.0
O293 O 0.6208 0.37331 0.42285 0.0
O294 O 0.59033 0.3508 0.59229 0.0
O295 O 0.58621 0.39345 0.50512 0.0
C296 C 0.62598 0.46269 0.5286 0.0
O297 O 0.61205 0.45024 0.60556 0.0
O298 O 0.63986 0.44384 0.46975 0.0
C299 C 0.62279 0.38786 0.79529 0.0
Tb300 Tb 0.36498 0.91689 0.4246 0.0
C301 C 0.31045 0.88471 0.348 0.0
Tb302 Tb 0.36421 0.85184 0.36636 0.0
O303 O 0.36617 0.92798 0.22122 0.0
O304 O 0.36495 0.88762 0.26535 0.0
O305 O 0.32253 0.90746 0.40534 0.0
C306 C 0.36172 0.80054 0.2568 0.0
O307 O 0.32347 0.8622 0.30975 0.0
C308 C 0.36425 0.86696 0.62039 0.0
C309 C 0.41908 0.88294 0.43349 0.0
O310 O 0.34287 0.81354 0.31088 0.0
O311 O 0.38208 0.81685 0.26221 0.0
O312 O 0.36425 0.84141 0.57178 0.0
O313 O 0.36421 0.88126 0.52494 0.0
O314 O 0.40638 0.86066 0.3749 0.0
O315 O 0.40652 0.90585 0.47404 0.0
C316 C 0.36103 0.96526 0.55902 0.0
O317 O 0.38215 0.95607 0.50948 0.0
O318 O 0.34209 0.94744 0.53128 0.0
C319 C 0.36562 0.90237 0.17145 0.0
C320 C 0.12465 0.60622 0.73813 0.0
C321 C 0.1499 0.61495 0.78871 0.0
H322 H 0.09831 0.59729 0.56732 0.0
C323 C 0.16816 0.6218 0.70178 0.0
H324 H 0.11029 0.60049 0.80229 0.0
C325 C 0.16129 0.62032 0.56761 0.0
C326 C 0.13614 0.61135 0.51666 0.0
H327 H 0.18783 0.62854 0.73771 0.0
H328 H 0.17572 0.62609 0.50369 0.0
C329 C 0.11791 0.60419 0.60343 0.0
C330 C 0.59243 0.88039 0.9713 0.0
C331 C 0.61115 0.87709 0.07669 0.0
H332 H 0.58493 0.88262 0.76501 0.0
C333 C 0.63743 0.87341 0.05128 0.0
H334 H 0.57191 0.88311 0.98736 0.0
C335 C 0.64484 0.87338 0.92389 0.0
C336 C 0.62612 0.87665 0.81862 0.0
H337 H 0.65217 0.87026 0.12928 0.0
H338 H 0.66534 0.87052 0.90768 0.0
C339 C 0.59979 0.88008 0.8437 0.0
C340 C 0.40083 0.34818 0.25686 0.0
C341 C 0.37729 0.36063 0.28965 0.0
H342 H 0.42582 0.33636 0.10565 0.0
C343 C 0.361 0.37169 0.19071 0.0
H344 H 0.41374 0.33938 0.33047 0.0
C345 C 0.36814 0.37052 0.06236 0.0
C346 C 0.39143 0.35757 1.02883 0.0
H347 H 0.34273 0.3815 0.21277 0.0
H348 H 0.35533 0.37958 0.9893 0.0
C349 C 0.40766 0.34639 0.12779 0.0
C350 C 0.87074 0.14543 0.50745 0.0
C351 C 0.88078 0.11986 0.54094 0.0
H352 H 0.86099 0.17187 0.35469 0.0
C353 C 0.88971 0.10141 0.4421 0.0
H354 H 0.8636 0.15999 0.58098 0.0
C355 C 0.88874 0.10835 0.31294 0.0
C356 C 0.87814 0.13364 0.27861 0.0
H357 H 0.89763 0.08152 0.4648 0.0
H358 H 0.89604 0.09382 0.23989 0.0
C359 C 0.86915 0.1521 0.37754 0.0
C360 C 0.15668 0.38312 0.52177 0.0
C361 C 0.13834 0.38619 0.41473 0.0
H362 H 0.16376 0.38303 0.72925 0.0
C363 C 0.1123 0.39218 0.43938 0.0
H364 H 0.17696 0.37855 0.50662 0.0
C365 C 0.10479 0.39484 0.56737 0.0
C366 C 0.12313 0.39171 0.67438 0.0
H367 H 0.09776 0.39501 0.35997 0.0
H368 H 0.08452 0.3994 0.58255 0.0
C369 C 0.14919 0.3858 0.64977 0.0
C370 C 0.90243 0.85703 0.72962 0.0
C371 C 0.87817 0.86744 0.76321 0.0
H372 H 0.92753 0.84728 0.57695 0.0
C373 C 0.86073 0.87723 0.66514 0.0
H374 H 0.9162 0.84928 0.80275 0.0
C375 C 0.86737 0.8767 0.53633 0.0
C376 C 0.89133 0.86562 0.50177 0.0
H377 H 0.84188 0.88549 0.6882 0.0
H378 H 0.85366 0.88471 0.46379 0.0
C379 C 0.90879 0.85582 0.60005 0.0
C380 C 0.3985 0.63619 0.96088 0.0
C381 C 0.38406 0.62073 0.85764 0.0
H382 H 0.40973 0.64119 0.16592 0.0
C383 C 0.36919 0.59793 0.88669 0.0
H384 H 0.41026 0.65383 0.94214 0.0
C385 C 0.36872 0.59086 1.01544 0.0
C386 C 0.38316 0.60631 0.11873 0.0
H387 H 0.35773 0.58566 0.81009 0.0
H388 H 0.35697 0.5732 0.0341 0.0
C389 C 0.39812 0.62903 0.08953 0.0
C390 C 0.65142 0.11144 0.0439 0.0
C391 C 0.6249 0.11211 0.99891 0.0
H392 H 0.67932 0.11018 0.20904 0.0
C393 C 0.60579 0.11198 0.08955 0.0
H394 H 0.6665 0.11159 0.97667 0.0
C395 C 0.61301 0.11131 0.22255 0.0
C396 C 0.63952 0.11063 0.26757 0.0
H397 H 0.58511 0.11254 0.05765 0.0
H398 H 0.59792 0.11139 0.28989 0.0
C399 C 0.65864 0.11062 0.17695 0.0
C400 C 0.8867 0.3986 0.37037 0.0
C401 C 0.86003 0.39645 0.32595 0.0
H402 H 0.9154 0.40013 0.53419 0.0
C403 C 0.84153 0.39417 0.4181 0.0
H404 H 0.9014 0.40054 0.30246 0.0
C405 C 0.8495 0.394 0.55117 0.0
C406 C 0.87618 0.39613 0.59553 0.0
H407 H 0.8208 0.39246 0.38729 0.0
H408 H 0.83478 0.39216 0.6192 0.0
C409 C 0.89467 0.3984 0.50338 0.0
C410 C 0.32815 0.13572 0.18632 0.0
C411 C 0.34691 0.13433 0.29339 0.0
H412 H 0.32081 0.13783 0.97973 0.0
C413 C 0.37354 0.13422 0.27028 0.0
H414 H 0.30741 0.13587 0.2005 0.0
C415 C 0.38116 0.13543 0.14345 0.0
C416 C 0.36238 0.13677 0.03634 0.0
H417 H 0.38848 0.13327 0.35004 0.0
H418 H 0.40189 0.13526 0.12921 0.0
C419 C 0.33576 0.13691 0.05951 0.0
C420 C 0.59782 0.63664 1.00413 0.0
C421 C 0.61622 0.6399 0.11345 0.0
H422 H 0.59104 0.63477 0.79598 0.0
C423 C 0.64263 0.64437 0.09292 0.0
H424 H 0.57727 0.63325 1.01628 0.0
C425 C 0.65049 0.64516 0.9665 0.0
C426 C 0.63212 0.64179 0.85722 0.0
H427 H 0.65718 0.64756 0.17443 0.0
H428 H 0.67105 0.64857 0.95438 0.0
C429 C 0.60566 0.63757 0.87767 0.0
C430 C 0.15465 0.86134 0.62946 0.0
C431 C 0.13642 0.88087 0.58657 0.0
H432 H 0.17205 0.84102 0.7906 0.0
C433 C 0.12106 0.89481 0.67702 0.0
H434 H 0.16678 0.85029 0.5621 0.0
C435 C 0.12399 0.88942 0.80809 0.0
C436 C 0.14249 0.87013 0.85111 0.0
H437 H 0.10681 0.90996 0.64654 0.0
H438 H 0.11169 0.9002 0.87533 0.0
C439 C 0.15771 0.85611 0.76039 0.0
C440 C 0.89117 0.63478 0.62822 0.0
C441 C 0.86451 0.63432 0.65048 0.0
H442 H 0.91961 0.63428 0.48722 0.0
C443 C 0.84575 0.63265 0.54255 0.0
H444 H 0.90607 0.63608 0.70901 0.0
C445 C 0.85346 0.63147 0.41535 0.0
C446 C 0.88011 0.63219 0.39301 0.0
H447 H 0.825 0.63209 0.55632 0.0
H448 H 0.8386 0.62978 0.33478 0.0
C449 C 0.89887 0.63375 0.501 0.0
C450 C 0.10741 0.15828 0.43884 0.0
C451 C 0.1032 0.13041 0.45932 0.0
H452 H 0.11252 0.18798 0.30019 0.0
C453 C 0.10049 0.11085 0.35072 0.0
H454 H 0.10961 0.17382 0.52027 0.0
C455 C 0.10193 0.11894 0.22455 0.0
C456 C 0.10661 0.14672 0.20401 0.0
H457 H 0.09707 0.08919 0.36315 0.0
H458 H 0.09893 0.10352 0.14333 0.0
C459 C 0.10917 0.16632 0.31268 0.0
C460 C 0.61525 0.3914 0.15766 0.0
C461 C 0.63303 0.37137 0.19964 0.0
H462 H 0.59788 0.41192 0.99686 0.0
C463 C 0.64723 0.35639 0.10686 0.0
H464 H 0.60395 0.40318 0.22642 0.0
C465 C 0.64367 0.36125 0.97502 0.0
C466 C 0.62586 0.38127 0.93314 0.0
H467 H 0.66104 0.34073 0.13606 0.0
H468 H 0.65499 0.34952 0.90621 0.0
C469 C 0.6117 0.39626 1.02597 0.0
C470 C 0.36417 0.86499 0.98675 0.0
C471 C 0.36551 0.89318 1.03072 0.0
H472 H 0.36274 0.83477 0.82297 0.0
C473 C 0.3665 0.91284 0.93828 0.0
H474 H 0.36331 0.84936 0.05515 0.0
C475 C 0.36613 0.90452 0.80505 0.0
C476 C 0.36473 0.87633 0.76109 0.0
H477 H 0.36754 0.93475 0.96897 0.0
H478 H 0.367 0.92012 0.73664 0.0
C479 C 0.36382 0.85669 0.8536 0.0
C480 C 0.11893 0.7184 0.22256 0.0
C481 C 0.14261 0.70412 0.21211 0.0
H482 H 0.1007 0.75803 0.24939 0.0
C483 C 0.16644 0.71884 0.2272 0.0
H484 H 0.10034 0.70735 0.21303 0.0
C485 C 0.16657 0.74754 0.24666 0.0
C486 C 0.14294 0.76185 0.25432 0.0
H487 H 0.18494 0.70825 0.22008 0.0
H488 H 0.18514 0.75862 0.25296 0.0
C489 C 0.11913 0.7472 0.24513 0.0
C490 C 0.4918 0.90351 0.52048 0.0
C491 C 0.50493 0.87887 0.48496 0.0
H492 H 0.45482 0.92433 0.53291 0.0
C493 C 0.48951 0.85564 0.43606 0.0
H494 H 0.50296 0.9219 0.55773 0.0
C495 C 0.46196 0.85704 0.42089 0.0
C496 C 0.44867 0.88174 0.45428 0.0
H497 H 0.49879 0.83633 0.40701 0.0
H498 H 0.45109 0.83861 0.38158 0.0
C499 C 0.4641 0.90492 0.50571 0.0
C500 C 0.34891 0.26738 0.68563 0.0
C501 C 0.37162 0.277 0.6344 0.0
H502 H 0.32642 0.2323 0.727 0.0
C503 C 0.38856 0.25784 0.5782 0.0
H504 H 0.33533 0.28166 0.7294 0.0
C505 C 0.3833 0.22961 0.57613 0.0
C506 C 0.36104 0.2199 0.63104 0.0
H507 H 0.40604 0.26457 0.53693 0.0
H508 H 0.39708 0.21543 0.53331 0.0
C509 C 0.34369 0.23908 0.68409 0.0
C510 C 0.97827 0.15732 0.84189 0.0
C511 C 0.96632 0.1339 0.8858 0.0
H512 H 0.01371 0.1766 0.79264 0.0
C513 C 0.98262 0.11134 0.91303 0.0
H514 H 0.96661 0.17517 0.81933 0.0
C515 C 0.00972 0.11215 0.89728 0.0
C516 C 0.02173 0.13553 0.85344 0.0
H517 H 0.97447 0.09284 0.94667 0.0
H518 H 0.0213 0.09426 0.92008 0.0
C519 C 0.00545 0.15813 0.82607 0.0
C520 C 0.13557 0.29208 0.82485 0.0
C521 C 0.1159 0.30722 0.88483 0.0
H522 H 0.14648 0.25316 0.73353 0.0
C523 C 0.09054 0.29574 0.88065 0.0
H524 H 0.15514 0.30058 0.82376 0.0
C525 C 0.08551 0.2688 0.827 0.0
C526 C 0.1058 0.25291 0.77754 0.0
H527 H 0.07474 0.30715 0.92292 0.0
H528 H 0.06626 0.25982 0.8325 0.0
C529 C 0.13052 0.26508 0.77147 0.0
C530 C 0.04142 0.89587 0.20127 0.0
C531 C 0.05591 0.87161 0.17647 0.0
H532 H 0.00353 0.9147 0.20607 0.0
C533 C 0.04187 0.84713 0.13143 0.0
H534 H 0.05139 0.91514 0.23614 0.0
C535 C 0.01421 0.8471 0.11075 0.0
C536 C 0.99984 0.87137 0.13744 0.0
H537 H 0.05227 0.82809 0.11034 0.0
H538 H 0.00403 0.82793 0.07631 0.0
C539 C 0.01388 0.89567 0.18365 0.0
C540 C 0.39129 0.73085 0.2689 0.0
C541 C 0.37122 0.7173 0.32384 0.0
H542 H 0.40372 0.76882 0.20013 0.0
C543 C 0.34628 0.72897 0.3254 0.0
H544 H 0.41053 0.72174 0.26453 0.0
C545 C 0.34214 0.7553 0.28475 0.0
C546 C 0.36314 0.77041 0.24586 0.0
H547 H 0.33034 0.71835 0.36396 0.0
H548 H 0.32322 0.76476 0.29583 0.0
C549 C 0.38731 0.75752 0.23058 0.0
C550 C 0.50837 0.14822 0.57467 0.0
C551 C 0.51924 0.12256 0.53529 0.0
H552 H 0.47394 0.17068 0.62254 0.0
C553 C 0.50217 0.09965 0.5054 0.0
H554 H 0.52088 0.16629 0.59901 0.0
C555 C 0.47506 0.10222 0.51867 0.0
C556 C 0.46443 0.12771 0.56294 0.0
H557 H 0.50988 0.07955 0.47568 0.0
H558 H 0.46254 0.08405 0.49814 0.0
C559 C 0.48141 0.15073 0.58861 0.0
C560 C 0.89753 0.26556 0.97203 0.0
C561 C 0.87887 0.2485 0.89587 0.0
H562 H 0.91009 0.3067 0.04248 0.0
C563 C 0.85777 0.26154 0.82959 0.0
H564 H 0.91398 0.25642 1.02503 0.0
C565 C 0.85528 0.29072 0.8408 0.0
C566 C 0.87397 0.30781 0.91763 0.0
H567 H 0.8429 0.24915 0.77065 0.0
H568 H 0.83867 0.29986 0.78915 0.0
C569 C 0.89522 0.2946 0.98214 0.0
C570 C 0.59629 0.77323 0.4948 0.0
C571 C 0.6174 0.78795 0.45241 0.0
H572 H 0.58063 0.73389 0.53607 0.0
C573 C 0.63951 0.7725 0.41836 0.0
H574 H 0.5789 0.7841 0.52226 0.0
C575 C 0.64056 0.74362 0.4268 0.0
C576 C 0.61953 0.72886 0.46942 0.0
H577 H 0.65629 0.78274 0.38548 0.0
H578 H 0.65804 0.73286 0.3996 0.0
C579 C 0.59732 0.74424 0.50291 0.0
C580 C 0.8557 0.73879 0.08524 0.0
C581 C 0.87672 0.72234 0.0455 0.0
H582 H 0.84122 0.77956 0.1331 0.0
C583 C 0.89998 0.73617 1.02208 0.0
H584 H 0.83745 0.72919 0.10476 0.0
C585 C 0.90217 0.7653 0.03859 0.0
C586 C 0.8812 0.78173 0.0793 0.0
H587 H 0.9167 0.72447 0.99167 0.0
H588 H 0.92046 0.77493 1.01996 0.0
C589 C 0.85789 0.7679 0.10183 0.0
C590 C 0.61525 0.21203 0.53338 0.0
C591 C 0.63296 0.19977 0.62286 0.0
H592 H 0.60097 0.24926 0.45486 0.0
C593 C 0.65012 0.21748 0.70545 0.0
H594 H 0.60175 0.19932 0.46754 0.0
C595 C 0.64936 0.2465 0.69904 0.0
C596 C 0.63171 0.25854 0.60862 0.0
H597 H 0.66398 0.20897 0.77586 0.0
H598 H 0.66278 0.2595 0.76398 0.0
C599 C 0.61477 0.24083 0.52586 0.0
C600 C 0.9857 0.37773 0.19842 0.0
C601 C 0.97291 0.40249 0.173 0.0
H602 H 0.02252 0.35692 0.2115 0.0
C603 C 0.9875 0.42691 0.1704 0.0
H604 H 0.97468 0.35872 0.20219 0.0
C605 C 0.01467 0.42586 0.17529 0.0
C606 C 0.02732 0.4004 0.18322 0.0
H607 H 0.97792 0.44632 0.15301 0.0
H608 H 0.02555 0.4445 0.16198 0.0
C609 C 0.01297 0.37669 0.20361 0.0
C610 C 0.47655 0.64762 0.62393 0.0
C611 C 0.46499 0.62126 0.59456 0.0
H612 H 0.51206 0.67159 0.64192 0.0
C613 C 0.48089 0.59794 0.58057 0.0
H614 H 0.46458 0.66586 0.63718 0.0
C615 C 0.50795 0.6013 0.58204 0.0
C616 C 0.51924 0.62793 0.59949 0.0
H617 H 0.47236 0.57743 0.55845 0.0
H618 H 0.51984 0.58325 0.56187 0.0
C619 C 0.50363 0.65092 0.62728 0.0
C620 C 0.50809 0.33961 0.54235 0.0
C621 C 0.49353 0.363 0.57827 0.0
H622 H 0.54608 0.32383 0.50559 0.0
C623 C 0.50569 0.38921 0.59328 0.0
H624 H 0.49902 0.31922 0.53034 0.0
C625 C 0.53227 0.39197 0.5756 0.0
C626 C 0.5472 0.36844 0.54637 0.0
H627 H 0.4947 0.40755 0.6203 0.0
H628 H 0.54139 0.41232 0.59076 0.0
C629 C 0.53489 0.34226 0.52846 0.0
C630 C 0.02285 0.65387 1.0221 0.0
C631 C 0.03515 0.62892 0.98755 0.0
H632 H 0.98669 0.67527 1.03273 0.0
C633 C 0.02045 0.60697 0.92022 0.0
H634 H 0.03394 0.67118 0.07248 0.0
C635 C 0.99321 0.60917 0.89853 0.0
C636 C 0.98073 0.63346 0.94273 0.0
H637 H 0.02971 0.58758 0.89225 0.0
H638 H 0.98186 0.59139 0.85483 0.0
C639 C 0.99586 0.65621 0.99885 0.0
C640 C 0.11624 0.51717 0.11263 0.0
C641 C 0.14027 0.53138 0.12262 0.0
H642 H 0.09679 0.47804 0.09932 0.0
C643 C 0.16381 0.51652 0.12706 0.0
H644 H 0.09784 0.52819 0.11002 0.0
C645 C 0.16326 0.4877 0.12001 0.0
C646 C 0.13917 0.47354 0.11107 0.0
H647 H 0.18261 0.52714 0.13449 0.0
H648 H 0.18158 0.47656 0.12207 0.0
C649 C 0.11569 0.48849 0.10792 0.0
C650 C 0.73492 0.8924 0.24149 0.0
C651 C 0.7267 0.87374 0.32737 0.0
H652 H 0.76661 0.90721 0.14094 0.0
C653 C 0.7453 0.85535 0.37872 0.0
H654 H 0.72117 0.90687 0.20023 0.0
C655 C 0.7714 0.85562 0.3452 0.0
C656 C 0.77961 0.87424 0.25915 0.0
H657 H 0.7397 0.84074 0.44537 0.0
H658 H 0.78515 0.84114 0.38644 0.0
C659 C 0.76101 0.89262 0.20772 0.0
C660 C 0.38049 0.46619 0.72007 0.0
C661 C 0.39574 0.4474 0.64902 0.0
H662 H 0.36738 0.50788 0.74842 0.0
C663 C 0.41135 0.45704 0.55666 0.0
H664 H 0.36847 0.45936 0.79281 0.0
C665 C 0.41053 0.48481 0.53073 0.0
C666 C 0.39431 0.50321 0.5977 0.0
H667 H 0.42326 0.44296 0.5005 0.0
H668 H 0.42199 0.4917 0.45594 0.0
C669 C 0.37985 0.49392 0.69483 0.0
C670 C 0.7853 0.09858 0.87463 0.0
C671 C 0.79941 0.12241 0.84926 0.0
H672 H 0.74766 0.07791 0.86691 0.0
C673 C 0.78493 0.14424 0.79764 0.0
H674 H 0.79555 0.08129 0.9145 0.0
C675 C 0.75758 0.14223 0.77043 0.0
C676 C 0.74352 0.1184 0.79425 0.0
H677 H 0.79476 0.16297 0.77646 0.0
H678 H 0.74742 0.15942 0.7291 0.0
C679 C 0.75775 0.09663 0.84775 0.0
C680 C 0.84469 0.53025 0.98811 0.0
C681 C 0.86891 0.54473 1.00179 0.0
H682 H 0.82462 0.49072 0.96943 0.0
C683 C 0.89194 0.52892 1.00949 0.0
H684 H 0.82647 0.54154 0.98137 0.0
C685 C 0.89085 0.49981 1.00509 0.0
C686 C 0.86669 0.48525 0.99016 0.0
H687 H 0.91099 0.53906 1.02045 0.0
H688 H 0.90915 0.48866 1.01189 0.0
C689 C 0.8436 0.50099 0.98088 0.0
C690 C 0.2019 0.11458 0.77096 0.0
C691 C 0.1885 0.13965 0.79435 0.0
H692 H 0.23825 0.09454 0.73366 0.0
C693 C 0.20334 0.16445 0.80182 0.0
H694 H 0.19143 0.09499 0.76398 0.0
C695 C 0.23056 0.16411 0.78628 0.0
C696 C 0.24372 0.139 0.76068 0.0
H697 H 0.19394 0.18421 0.81998 0.0
H698 H 0.24121 0.18358 0.79201 0.0
C699 C 0.22892 0.11428 0.75343 0.0
C700 C 0.64644 0.53557 0.44941 0.0
C701 C 0.62733 0.55246 0.50615 0.0
H702 H 0.66087 0.49419 0.40946 0.0
C703 C 0.60783 0.53923 0.56814 0.0
H704 H 0.66172 0.5448 0.40021 0.0
C705 C 0.60753 0.51034 0.57435 0.0
C706 C 0.62645 0.49344 0.51718 0.0
H707 H 0.59275 0.55125 0.61333 0.0
H708 H 0.5923 0.50118 0.62415 0.0
C709 C 0.64589 0.50646 0.45404 0.0
C710 C 0.26609 0.90825 0.32467 0.0
C711 C 0.28102 0.88388 0.32691 0.0
H712 H 0.22772 0.92618 0.30152 0.0
C713 C 0.26744 0.85831 0.30926 0.0
H714 H 0.27576 0.92832 0.33767 0.0
C715 C 0.23991 0.85709 0.29112 0.0
C716 C 0.22497 0.88138 0.28724 0.0
H717 H 0.27809 0.83906 0.31099 0.0
H718 H 0.23034 0.83697 0.27849 0.0
C719 C 0.23849 0.90701 0.30358 0.0
C720 C 0.6484 0.97819 0.5438 0.0
C721 C 0.62375 0.96458 0.52192 0.0
H722 H 0.66975 0.01674 0.58529 0.0
C723 C 0.60124 0.98115 0.52669 0.0
H724 H 0.66629 0.96635 0.54178 0.0
C725 C 0.60327 0.01018 0.55027 0.0
C726 C 0.62789 0.02382 0.57212 0.0
H727 H 0.5819 0.97172 0.51052 0.0
H728 H 0.58535 0.02197 0.55179 0.0
C729 C 0.65044 0.00724 0.56947 0.0
C730 C 0.25066 0.35634 0.93039 0.0
C731 C 0.23498 0.37932 0.90699 0.0
H732 H 0.28721 0.33643 0.9028 0.0
C733 C 0.24419 0.40031 0.8365 0.0
H734 H 0.24388 0.33994 0.98473 0.0
C735 C 0.26884 0.39824 0.7891 0.0
C736 C 0.28451 0.37524 0.81252 0.0
H737 H 0.23229 0.41819 0.81729 0.0
H738 H 0.27561 0.41456 0.7343 0.0
C739 C 0.27536 0.35436 0.88376 0.0
C740 C 0.90945 0.96853 1.02208 0.0
C741 C 0.88954 0.95732 0.08917 0.0
H742 H 0.92464 0.00413 0.94051 0.0
C743 C 0.86961 0.9754 0.12907 0.0
H744 H 0.92512 0.95552 0.98898 0.0
C745 C 0.86948 0.0035 0.10189 0.0
C746 C 0.88913 0.01446 1.03279 0.0
H747 H 0.8539 0.96781 0.18088 0.0
H748 H 0.85371 0.01656 0.13335 0.0
C749 C 0.90917 0.99654 0.99392 0.0
C750 C 0.26463 0.63655 0.32415 0.0
C751 C 0.2481 0.61419 0.3384 0.0
H752 H 0.30348 0.65241 0.34064 0.0
C753 C 0.25863 0.58998 0.38665 0.0
H754 H 0.25696 0.65546 0.28745 0.0
C755 C 0.28571 0.58802 0.41714 0.0
C756 C 0.30233 0.61029 0.39935 0.0
H757 H 0.24607 0.57244 0.39781 0.0
H758 H 0.29359 0.56911 0.45266 0.0
C759 C 0.2914 0.63465 0.35419 0.0
C760 C 0.33345 0.00539 0.62373 0.0
C761 C 0.35825 0.9931 0.62089 0.0
H762 H 0.31245 0.0435 0.64627 0.0
C763 C 0.38079 0.0087 0.66337 0.0
H764 H 0.31578 0.99347 0.59213 0.0
C765 C 0.37886 0.0369 0.69596 0.0
C766 C 0.35438 0.04994 0.68445 0.0
H767 H 0.40004 0.99943 0.66424 0.0
H768 H 0.39678 0.04882 0.72139 0.0
C769 C 0.33151 0.03387 0.65521 0.0
C770 C 0.76698 0.66053 0.28424 0.0
C771 C 0.77102 0.63956 0.18662 0.0
H772 H 0.74125 0.67711 0.42312 0.0
C773 C 0.7519 0.61887 0.15308 0.0
H774 H 0.7816 0.67664 0.31188 0.0
C775 C 0.72902 0.61907 0.21694 0.0
C776 C 0.72501 0.63996 0.31494 0.0
H777 H 0.75469 0.60246 0.07824 0.0
H778 H 0.71447 0.60289 0.18942 0.0
C779 C 0.74405 0.66076 0.34803 0.0
C780 C 0.13284 0.03185 0.11432 0.0
C781 C 0.12097 0.0324 0.98769 0.0
H782 H 0.14783 0.00634 0.26235 0.0
C783 C 0.11593 0.00775 0.90968 0.0
H784 H 0.13684 0.05085 0.17553 0.0
C785 C 0.12289 0.98264 0.95749 0.0
C786 C 0.13431 0.98196 0.0849 0.0
H787 H 0.10699 0.00791 0.81133 0.0
H788 H 0.11877 0.96373 0.8957 0.0
C789 C 0.13917 0.00661 0.16356 0.0
C790 C 0.72375 0.40947 0.65076 0.0
C791 C 0.7114 0.38332 0.6333 0.0
H792 H 0.75891 0.43241 0.71784 0.0
C793 C 0.72614 0.35968 0.65924 0.0
H794 H 0.71295 0.42805 0.63116 0.0
C795 C 0.75214 0.36225 0.70951 0.0
C796 C 0.764 0.38843 0.73372 0.0
H797 H 0.71738 0.33916 0.64539 0.0
H798 H 0.76272 0.34374 0.73285 0.0
C799 C 0.74998 0.412 0.70052 0.0
loop_
_geom_bond_atom_site_label_1
_geom_bond_atom_site_label_2
_geom_bond_distance
_geom_bond_site_symmetry_2
_ccdc_geom_bond_type
Tb0 O3 2.453 . S
Tb0 O4 2.596 . S
Tb0 O5 2.374 . S
Tb0 O13 2.343 1_554 S
Tb0 O15 2.353 . S
Tb0 O17 2.427 . S
Tb0 O18 2.513 . S
C1 O5 1.251 . S
C1 O7 1.263 . S
Tb2 O4 2.343 . S
Tb2 O7 2.353 . S
Tb2 O10 2.427 . S
Tb2 O11 2.513 . S
Tb2 O12 2.453 1_554 S
Tb2 O13 2.596 1_554 S
Tb2 O14 2.374 . S
O3 Tb0 2.453 . S
O3 C19 1.245 . S
O4 Tb0 2.596 . S
O4 Tb2 2.343 . S
O4 C19 1.259 . S
O5 Tb0 2.374 . S
O5 C1 1.251 . S
C6 O10 1.275 . S
C6 O11 1.246 . S
O7 C1 1.263 . S
O7 Tb2 2.353 . S
C8 O12 1.245 . S
C8 O13 1.259 . S
C9 O14 1.250 . S
C9 O15 1.263 . S
O10 Tb2 2.427 . S
O10 C6 1.275 . S
O11 Tb2 2.513 . S
O11 C6 1.246 . S
O12 Tb2 2.453 1_556 S
O12 C8 1.245 . S
O13 Tb0 2.343 1_556 S
O13 Tb2 2.596 1_556 S
O13 C8 1.259 . S
O14 Tb2 2.374 . S
O14 C9 1.250 . S
O15 Tb0 2.353 . S
O15 C9 1.263 . S
C16 O17 1.275 1_556 S
C16 O18 1.246 1_556 S
O17 Tb0 2.427 . S
O17 C16 1.275 1_554 S
O18 Tb0 2.513 . S
O18 C16 1.246 1_554 S
C19 O3 1.245 . S
C19 O4 1.259 . S
Tb20 O23 2.453 . S
Tb20 O24 2.596 . S
Tb20 O25 2.374 . S
Tb20 O33 2.343 . S
Tb20 O35 2.353 . S
Tb20 O37 2.427 . S
Tb20 O38 2.513 . S
C21 O25 1.251 . S
C21 O27 1.263 . S
Tb22 O24 2.343 . S
Tb22 O27 2.353 . S
Tb22 O30 2.427 . S
Tb22 O31 2.513 . S
Tb22 O32 2.453 . S
Tb22 O33 2.596 . S
Tb22 O34 2.374 . S
O23 Tb20 2.453 . S
O23 C39 1.245 . S
O24 Tb20 2.596 . S
O24 Tb22 2.343 . S
O24 C39 1.259 . S
O25 Tb20 2.374 . S
O25 C21 1.251 . S
C26 O30 1.275 . S
C26 O31 1.246 . S
O27 C21 1.263 . S
O27 Tb22 2.353 . S
C28 O32 1.245 . S
C28 O33 1.259 . S
C29 O34 1.250 . S
C29 O35 1.263 . S
O30 Tb22 2.427 . S
O30 C26 1.275 . S
O31 Tb22 2.513 . S
O31 C26 1.246 . S
O32 Tb22 2.453 . S
O32 C28 1.245 . S
O33 Tb20 2.343 . S
O33 Tb22 2.596 . S
O33 C28 1.259 . S
O34 Tb22 2.374 . S
O34 C29 1.250 . S
O35 Tb20 2.353 . S
O35 C29 1.263 . S
C36 O37 1.275 . S
C36 O38 1.246 . S
O37 Tb20 2.427 . S
O37 C36 1.275 . S
O38 Tb20 2.513 . S
O38 C36 1.246 . S
C39 O23 1.245 . S
C39 O24 1.259 . S
Tb40 O43 2.453 . S
Tb40 O44 2.596 . S
Tb40 O45 2.374 . S
Tb40 O53 2.343 . S
Tb40 O55 2.353 . S
Tb40 O57 2.427 . S
Tb40 O58 2.513 . S
C41 O45 1.251 . S
C41 O47 1.263 . S
Tb42 O44 2.343 . S
Tb42 O47 2.353 . S
Tb42 O50 2.427 . S
Tb42 O51 2.513 . S
Tb42 O52 2.453 . S
Tb42 O53 2.596 . S
Tb42 O54 2.374 . S
O43 Tb40 2.453 . S
O43 C59 1.245 . S
O44 Tb40 2.596 . S
O44 Tb42 2.343 . S
O44 C59 1.259 . S
O45 Tb40 2.374 . S
O45 C41 1.251 . S
C46 O50 1.275 . S
C46 O51 1.246 . S
O47 C41 1.263 . S
O47 Tb42 2.353 . S
C48 O52 1.245 . S
C48 O53 1.259 . S
C49 O54 1.250 . S
C49 O55 1.263 . S
O50 Tb42 2.427 . S
O50 C46 1.275 . S
O51 Tb42 2.513 . S
O51 C46 1.246 . S
O52 Tb42 2.453 . S
O52 C48 1.245 . S
O53 Tb40 2.343 . S
O53 Tb42 2.596 . S
O53 C48 1.259 . S
O54 Tb42 2.374 . S
O54 C49 1.250 . S
O55 Tb40 2.353 . S
O55 C49 1.263 . S
C56 O57 1.275 . S
C56 O58 1.246 . S
O57 Tb40 2.427 . S
O57 C56 1.275 . S
O58 Tb40 2.513 . S
O58 C56 1.246 . S
C59 O43 1.245 . S
C59 O44 1.259 . S
Tb60 O63 2.453 1_556 S
Tb60 O64 2.596 1_556 S
Tb60 O65 2.374 . S
Tb60 O73 2.343 . S
Tb60 O75 2.353 . S
Tb60 O77 2.427 . S
Tb60 O78 2.513 . S
C61 O65 1.251 . S
C61 O67 1.263 . S
Tb62 O64 2.343 1_556 S
Tb62 O67 2.353 . S
Tb62 O70 2.427 . S
Tb62 O71 2.513 . S
Tb62 O72 2.453 . S
Tb62 O73 2.596 . S
Tb62 O74 2.374 . S
O63 Tb60 2.453 1_554 S
O63 C79 1.245 . S
O64 Tb60 2.596 1_554 S
O64 Tb62 2.343 1_554 S
O64 C79 1.259 . S
O65 Tb60 2.374 . S
O65 C61 1.251 . S
C66 O70 1.275 1_554 S
C66 O71 1.246 1_554 S
O67 C61 1.263 . S
O67 Tb62 2.353 . S
C68 O72 1.245 . S
C68 O73 1.259 . S
C69 O74 1.250 . S
C69 O75 1.263 . S
O70 Tb62 2.427 . S
O70 C66 1.275 1_556 S
O71 Tb62 2.513 . S
O71 C66 1.246 1_556 S
O72 Tb62 2.453 . S
O72 C68 1.245 . S
O73 Tb60 2.343 . S
O73 Tb62 2.596 . S
O73 C68 1.259 . S
O74 Tb62 2.374 . S
O74 C69 1.250 . S
O75 Tb60 2.353 . S
O75 C69 1.263 . S
C76 O77 1.275 . S
C76 O78 1.246 . S
O77 Tb60 2.427 . S
O77 C76 1.275 . S
O78 Tb60 2.513 . S
O78 C76 1.246 . S
C79 O63 1.245 . S
C79 O64 1.259 . S
Tb80 O83 2.453 . S
Tb80 O84 2.596 . S
Tb80 O85 2.374 . S
Tb80 O93 2.343 1_556 S
Tb80 O95 2.353 . S
Tb80 O97 2.427 1_556 S
Tb80 O98 2.513 1_556 S
C81 O85 1.251 . S
C81 O87 1.263 . S
Tb82 O84 2.343 1_554 S
Tb82 O87 2.353 1_554 S
Tb82 O90 2.427 1_554 S
Tb82 O91 2.513 1_554 S
Tb82 O92 2.453 . S
Tb82 O93 2.596 . S
Tb82 O94 2.374 . S
O83 Tb80 2.453 . S
O83 C99 1.245 . S
O84 Tb80 2.596 . S
O84 Tb82 2.343 1_556 S
O84 C99 1.259 . S
O85 Tb80 2.374 . S
O85 C81 1.251 . S
C86 O90 1.275 . S
C86 O91 1.246 . S
O87 C81 1.263 . S
O87 Tb82 2.353 1_556 S
C88 O92 1.245 . S
C88 O93 1.259 . S
C89 O94 1.250 1_556 S
C89 O95 1.263 . S
O90 Tb82 2.427 1_556 S
O90 C86 1.275 . S
O91 Tb82 2.513 1_556 S
O91 C86 1.246 . S
O92 Tb82 2.453 . S
O92 C88 1.245 . S
O93 Tb80 2.343 1_554 S
O93 Tb82 2.596 . S
O93 C88 1.259 . S
O94 Tb82 2.374 . S
O94 C89 1.250 1_554 S
O95 Tb80 2.353 . S
O95 C89 1.263 . S
C96 O97 1.275 . S
C96 O98 1.246 . S
O97 Tb80 2.427 1_554 S
O97 C96 1.275 . S
O98 Tb80 2.513 1_554 S
O98 C96 1.246 . S
C99 O83 1.245 . S
C99 O84 1.259 . S
Tb100 O103 2.453 . S
Tb100 O104 2.596 . S
Tb100 O105 2.374 . S
Tb100 O113 2.343 1_554 S
Tb100 O115 2.353 . S
Tb100 O117 2.427 . S
Tb100 O118 2.513 . S
C101 O105 1.251 . S
C101 O107 1.263 . S
Tb102 O104 2.343 . S
Tb102 O107 2.353 . S
Tb102 O110 2.427 . S
Tb102 O111 2.513 . S
Tb102 O112 2.453 1_554 S
Tb102 O113 2.596 1_554 S
Tb102 O114 2.374 . S
O103 Tb100 2.453 . S
O103 C119 1.245 . S
O104 Tb100 2.596 . S
O104 Tb102 2.343 . S
O104 C119 1.259 . S
O105 Tb100 2.374 . S
O105 C101 1.251 . S
C106 O110 1.275 . S
C106 O111 1.246 . S
O107 C101 1.263 . S
O107 Tb102 2.353 . S
C108 O112 1.245 . S
C108 O113 1.259 . S
C109 O114 1.250 . S
C109 O115 1.263 . S
O110 Tb102 2.427 . S
O110 C106 1.275 . S
O111 Tb102 2.513 . S
O111 C106 1.246 . S
O112 Tb102 2.453 1_556 S
O112 C108 1.245 . S
O113 Tb100 2.343 1_556 S
O113 Tb102 2.596 1_556 S
O113 C108 1.259 . S
O114 Tb102 2.374 . S
O114 C109 1.250 . S
O115 Tb100 2.353 . S
O115 C109 1.263 . S
C116 O117 1.275 . S
C116 O118 1.246 . S
O117 Tb100 2.427 . S
O117 C116 1.275 . S
O118 Tb100 2.513 . S
O118 C116 1.246 . S
C119 O103 1.245 . S
C119 O104 1.259 . S
Tb120 O123 2.453 . S
Tb120 O124 2.596 . S
Tb120 O125 2.374 . S
Tb120 O133 2.343 . S
Tb120 O135 2.353 . S
Tb120 O137 2.427 . S
Tb120 O138 2.513 . S
C121 O125 1.251 . S
C121 O127 1.263 . S
Tb122 O124 2.343 . S
Tb122 O127 2.353 . S
Tb122 O130 2.427 . S
Tb122 O131 2.513 . S
Tb122 O132 2.453 . S
Tb122 O133 2.596 . S
Tb122 O134 2.374 . S
O123 Tb120 2.453 . S
O123 C139 1.245 . S
O124 Tb120 2.596 . S
O124 Tb122 2.343 . S
O124 C139 1.259 . S
O125 Tb120 2.374 . S
O125 C121 1.251 . S
C126 O130 1.275 . S
C126 O131 1.246 . S
O127 C121 1.263 . S
O127 Tb122 2.353 . S
C128 O132 1.245 . S
C128 O133 1.259 . S
C129 O134 1.250 . S
C129 O135 1.263 . S
O130 Tb122 2.427 . S
O130 C126 1.275 . S
O131 Tb122 2.513 . S
O131 C126 1.246 . S
O132 Tb122 2.453 . S
O132 C128 1.245 . S
O133 Tb120 2.343 . S
O133 Tb122 2.596 . S
O133 C128 1.259 . S
O134 Tb122 2.374 . S
O134 C129 1.250 . S
O135 Tb120 2.353 . S
O135 C129 1.263 . S
C136 O137 1.275 . S
C136 O138 1.246 . S
O137 Tb120 2.427 . S
O137 C136 1.275 . S
O138 Tb120 2.513 . S
O138 C136 1.246 . S
C139 O123 1.245 . S
C139 O124 1.259 . S
Tb140 O143 2.453 . S
Tb140 O144 2.596 . S
Tb140 O145 2.374 . S
Tb140 O153 2.343 . S
Tb140 O155 2.353 . S
Tb140 O157 2.427 . S
Tb140 O158 2.513 . S
C141 O145 1.251 . S
C141 O147 1.263 . S
Tb142 O144 2.343 . S
Tb142 O147 2.353 . S
Tb142 O150 2.427 . S
Tb142 O151 2.513 . S
Tb142 O152 2.453 . S
Tb142 O153 2.596 . S
Tb142 O154 2.374 . S
O143 Tb140 2.453 . S
O143 C159 1.245 . S
O144 Tb140 2.596 . S
O144 Tb142 2.343 . S
O144 C159 1.259 . S
O145 Tb140 2.374 . S
O145 C141 1.251 . S
C146 O150 1.275 . S
C146 O151 1.246 . S
O147 C141 1.263 . S
O147 Tb142 2.353 . S
C148 O152 1.245 . S
C148 O153 1.259 . S
C149 O154 1.250 . S
C149 O155 1.263 . S
O150 Tb142 2.427 . S
O150 C146 1.275 . S
O151 Tb142 2.513 . S
O151 C146 1.246 . S
O152 Tb142 2.453 . S
O152 C148 1.245 . S
O153 Tb140 2.343 . S
O153 Tb142 2.596 . S
O153 C148 1.259 . S
O154 Tb142 2.374 . S
O154 C149 1.250 . S
O155 Tb140 2.353 . S
O155 C149 1.263 . S
C156 O157 1.275 . S
C156 O158 1.246 . S
O157 Tb140 2.427 . S
O157 C156 1.275 . S
O158 Tb140 2.513 . S
O158 C156 1.246 . S
C159 O143 1.245 . S
C159 O144 1.259 . S
Tb160 O163 2.453 1_556 S
Tb160 O164 2.596 . S
Tb160 O165 2.374 . S
Tb160 O173 2.343 . S
Tb160 O175 2.353 . S
Tb160 O177 2.427 . S
Tb160 O178 2.513 . S
C161 O165 1.251 . S
C161 O167 1.263 . S
Tb162 O164 2.343 . S
Tb162 O167 2.353 . S
Tb162 O170 2.427 . S
Tb162 O171 2.513 . S
Tb162 O172 2.453 . S
Tb162 O173 2.596 . S
Tb162 O174 2.374 . S
O163 Tb160 2.453 1_554 S
O163 C179 1.245 . S
O164 Tb160 2.596 . S
O164 Tb162 2.343 . S
O164 C179 1.259 1_556 S
O165 Tb160 2.374 . S
O165 C161 1.251 . S
C166 O170 1.275 1_554 S
C166 O171 1.246 1_554 S
O167 C161 1.263 . S
O167 Tb162 2.353 . S
C168 O172 1.245 . S
C168 O173 1.259 . S
C169 O174 1.250 . S
C169 O175 1.263 . S
O170 Tb162 2.427 . S
O170 C166 1.275 1_556 S
O171 Tb162 2.513 . S
O171 C166 1.246 1_556 S
O172 Tb162 2.453 . S
O172 C168 1.245 . S
O173 Tb160 2.343 . S
O173 Tb162 2.596 . S
O173 C168 1.259 . S
O174 Tb162 2.374 . S
O174 C169 1.250 . S
O175 Tb160 2.353 . S
O175 C169 1.263 . S
C176 O177 1.275 . S
C176 O178 1.246 . S
O177 Tb160 2.427 . S
O177 C176 1.275 . S
O178 Tb160 2.513 . S
O178 C176 1.246 . S
C179 O163 1.245 . S
C179 O164 1.259 1_554 S
Tb180 O183 2.453 . S
Tb180 O184 2.596 . S
Tb180 O185 2.374 . S
Tb180 O193 2.343 . S
Tb180 O195 2.353 . S
Tb180 O197 2.427 . S
Tb180 O198 2.513 . S
C181 O185 1.251 . S
C181 O187 1.263 . S
Tb182 O184 2.343 . S
Tb182 O187 2.353 . S
Tb182 O190 2.427 . S
Tb182 O191 2.513 . S
Tb182 O192 2.453 . S
Tb182 O193 2.596 . S
Tb182 O194 2.374 . S
O183 Tb180 2.453 . S
O183 C199 1.245 . S
O184 Tb180 2.596 . S
O184 Tb182 2.343 . S
O184 C199 1.259 . S
O185 Tb180 2.374 . S
O185 C181 1.251 . S
C186 O190 1.275 . S
C186 O191 1.246 . S
O187 C181 1.263 . S
O187 Tb182 2.353 . S
C188 O192 1.245 . S
C188 O193 1.259 . S
C189 O194 1.250 . S
C189 O195 1.263 . S
O190 Tb182 2.427 . S
O190 C186 1.275 . S
O191 Tb182 2.513 . S
O191 C186 1.246 . S
O192 Tb182 2.453 . S
O192 C188 1.245 . S
O193 Tb180 2.343 . S
O193 Tb182 2.596 . S
O193 C188 1.259 . S
O194 Tb182 2.374 . S
O194 C189 1.250 . S
O195 Tb180 2.353 . S
O195 C189 1.263 . S
C196 O197 1.275 . S
C196 O198 1.246 . S
O197 Tb180 2.427 . S
O197 C196 1.275 . S
O198 Tb180 2.513 . S
O198 C196 1.246 . S
C199 O183 1.245 . S
C199 O184 1.259 . S
Tb200 O203 2.453 . S
Tb200 O204 2.596 . S
Tb200 O205 2.374 . S
Tb200 O213 2.343 . S
Tb200 O215 2.353 . S
Tb200 O217 2.427 . S
Tb200 O218 2.513 . S
C201 O205 1.251 . S
C201 O207 1.263 . S
Tb202 O204 2.343 . S
Tb202 O207 2.353 . S
Tb202 O210 2.427 . S
Tb202 O211 2.513 . S
Tb202 O212 2.453 . S
Tb202 O213 2.596 . S
Tb202 O214 2.374 . S
O203 Tb200 2.453 . S
O203 C219 1.245 . S
O204 Tb200 2.596 . S
O204 Tb202 2.343 . S
O204 C219 1.259 . S
O205 Tb200 2.374 . S
O205 C201 1.251 . S
C206 O210 1.275 . S
C206 O211 1.246 . S
O207 C201 1.263 . S
O207 Tb202 2.353 . S
C208 O212 1.245 . S
C208 O213 1.259 . S
C209 O214 1.250 . S
C209 O215 1.263 . S
O210 Tb202 2.427 . S
O210 C206 1.275 . S
O211 Tb202 2.513 . S
O211 C206 1.246 . S
O212 Tb202 2.453 . S
O212 C208 1.245 . S
O213 Tb200 2.343 . S
O213 Tb202 2.596 . S
O213 C208 1.259 . S
O214 Tb202 2.374 . S
O214 C209 1.250 . S
O215 Tb200 2.353 . S
O215 C209 1.263 . S
C216 O217 1.275 . S
C216 O218 1.246 . S
O217 Tb200 2.427 . S
O217 C216 1.275 . S
O218 Tb200 2.513 . S
O218 C216 1.246 . S
C219 O203 1.245 . S
C219 O204 1.259 . S
Tb220 O223 2.453 . S
Tb220 O224 2.596 . S
Tb220 O225 2.374 . S
Tb220 O233 2.343 . S
Tb220 O235 2.353 . S
Tb220 O237 2.427 . S
Tb220 O238 2.513 . S
C221 O225 1.251 . S
C221 O227 1.263 . S
Tb222 O224 2.343 . S
Tb222 O227 2.353 . S
Tb222 O230 2.427 . S
Tb222 O231 2.513 . S
Tb222 O232 2.453 1_554 S
Tb222 O233 2.596 . S
Tb222 O234 2.374 . S
O223 Tb220 2.453 . S
O223 C239 1.245 . S
O224 Tb220 2.596 . S
O224 Tb222 2.343 . S
O224 C239 1.259 . S
O225 Tb220 2.374 . S
O225 C221 1.251 . S
C226 O230 1.275 . S
C226 O231 1.246 . S
O227 C221 1.263 . S
O227 Tb222 2.353 . S
C228 O232 1.245 . S
C228 O233 1.259 1_556 S
C229 O234 1.250 . S
C229 O235 1.263 . S
O230 Tb222 2.427 . S
O230 C226 1.275 . S
O231 Tb222 2.513 . S
O231 C226 1.246 . S
O232 Tb222 2.453 1_556 S
O232 C228 1.245 . S
O233 Tb220 2.343 . S
O233 Tb222 2.596 . S
O233 C228 1.259 1_554 S
O234 Tb222 2.374 . S
O234 C229 1.250 . S
O235 Tb220 2.353 . S
O235 C229 1.263 . S
C236 O237 1.275 . S
C236 O238 1.246 . S
O237 Tb220 2.427 . S
O237 C236 1.275 . S
O238 Tb220 2.513 . S
O238 C236 1.246 . S
C239 O223 1.245 . S
C239 O224 1.259 . S
Tb240 O243 2.453 . S
Tb240 O244 2.596 . S
Tb240 O245 2.374 . S
Tb240 O253 2.343 1_556 S
Tb240 O255 2.353 . S
Tb240 O257 2.427 1_556 S
Tb240 O258 2.513 1_556 S
C241 O245 1.251 . S
C241 O247 1.263 1_556 S
Tb242 O244 2.343 1_554 S
Tb242 O247 2.353 . S
Tb242 O250 2.427 1_554 S
Tb242 O251 2.513 1_554 S
Tb242 O252 2.453 . S
Tb242 O253 2.596 . S
Tb242 O254 2.374 . S
O243 Tb240 2.453 . S
O243 C259 1.245 . S
O244 Tb240 2.596 . S
O244 Tb242 2.343 1_556 S
O244 C259 1.259 . S
O245 Tb240 2.374 . S
O245 C241 1.251 . S
C246 O250 1.275 . S
C246 O251 1.246 . S
O247 C241 1.263 1_554 S
O247 Tb242 2.353 . S
C248 O252 1.245 . S
C248 O253 1.259 . S
C249 O254 1.250 . S
C249 O255 1.263 1_554 S
O250 Tb242 2.427 1_556 S
O250 C246 1.275 . S
O251 Tb242 2.513 1_556 S
O251 C246 1.246 . S
O252 Tb242 2.453 . S
O252 C248 1.245 . S
O253 Tb240 2.343 1_554 S
O253 Tb242 2.596 . S
O253 C248 1.259 . S
O254 Tb242 2.374 . S
O254 C249 1.250 . S
O255 Tb240 2.353 . S
O255 C249 1.263 1_556 S
C256 O257 1.275 . S
C256 O258 1.246 . S
O257 Tb240 2.427 1_554 S
O257 C256 1.275 . S
O258 Tb240 2.513 1_554 S
O258 C256 1.246 . S
C259 O243 1.245 . S
C259 O244 1.259 . S
Tb260 O263 2.453 . S
Tb260 O264 2.596 . S
Tb260 O265 2.374 . S
Tb260 O273 2.343 1_556 S
Tb260 O275 2.353 . S
Tb260 O277 2.427 . S
Tb260 O278 2.513 . S
C261 O265 1.251 . S
C261 O267 1.263 . S
Tb262 O264 2.343 . S
Tb262 O267 2.353 . S
Tb262 O270 2.427 . S
Tb262 O271 2.513 . S
Tb262 O272 2.453 1_556 S
Tb262 O273 2.596 1_556 S
Tb262 O274 2.374 . S
O263 Tb260 2.453 . S
O263 C279 1.245 . S
O264 Tb260 2.596 . S
O264 Tb262 2.343 . S
O264 C279 1.259 . S
O265 Tb260 2.374 . S
O265 C261 1.251 . S
C266 O270 1.275 . S
C266 O271 1.246 . S
O267 C261 1.263 . S
O267 Tb262 2.353 . S
C268 O272 1.245 . S
C268 O273 1.259 . S
C269 O274 1.250 . S
C269 O275 1.263 . S
O270 Tb262 2.427 . S
O270 C266 1.275 . S
O271 Tb262 2.513 . S
O271 C266 1.246 . S
O272 Tb262 2.453 1_554 S
O272 C268 1.245 . S
O273 Tb260 2.343 1_554 S
O273 Tb262 2.596 1_554 S
O273 C268 1.259 . S
O274 Tb262 2.374 . S
O274 C269 1.250 . S
O275 Tb260 2.353 . S
O275 C269 1.263 . S
C276 O277 1.275 . S
C276 O278 1.246 . S
O277 Tb260 2.427 . S
O277 C276 1.275 . S
O278 Tb260 2.513 . S
O278 C276 1.246 . S
C279 O263 1.245 . S
C279 O264 1.259 . S
Tb280 O283 2.453 . S
Tb280 O284 2.596 . S
Tb280 O285 2.374 . S
Tb280 O293 2.343 . S
Tb280 O295 2.353 . S
Tb280 O297 2.427 . S
Tb280 O298 2.513 . S
C281 O285 1.251 . S
C281 O287 1.263 . S
Tb282 O284 2.343 . S
Tb282 O287 2.353 . S
Tb282 O290 2.427 . S
Tb282 O291 2.513 . S
Tb282 O292 2.453 . S
Tb282 O293 2.596 . S
Tb282 O294 2.374 . S
O283 Tb280 2.453 . S
O283 C299 1.245 . S
O284 Tb280 2.596 . S
O284 Tb282 2.343 . S
O284 C299 1.259 . S
O285 Tb280 2.374 . S
O285 C281 1.251 . S
C286 O290 1.275 . S
C286 O291 1.246 . S
O287 C281 1.263 . S
O287 Tb282 2.353 . S
C288 O292 1.245 . S
C288 O293 1.259 . S
C289 O294 1.250 . S
C289 O295 1.263 . S
O290 Tb282 2.427 . S
O290 C286 1.275 . S
O291 Tb282 2.513 . S
O291 C286 1.246 . S
O292 Tb282 2.453 . S
O292 C288 1.245 . S
O293 Tb280 2.343 . S
O293 Tb282 2.596 . S
O293 C288 1.259 . S
O294 Tb282 2.374 . S
O294 C289 1.250 . S
O295 Tb280 2.353 . S
O295 C289 1.263 . S
C296 O297 1.275 . S
C296 O298 1.246 . S
O297 Tb280 2.427 . S
O297 C296 1.275 . S
O298 Tb280 2.513 . S
O298 C296 1.246 . S
C299 O283 1.245 . S
C299 O284 1.259 . S
Tb300 O303 2.453 . S
Tb300 O304 2.596 . S
Tb300 O305 2.374 . S
Tb300 O313 2.343 . S
Tb300 O315 2.353 . S
Tb300 O317 2.427 . S
Tb300 O318 2.513 . S
C301 O305 1.251 . S
C301 O307 1.263 . S
Tb302 O304 2.343 . S
Tb302 O307 2.353 . S
Tb302 O310 2.427 . S
Tb302 O311 2.513 . S
Tb302 O312 2.453 . S
Tb302 O313 2.596 . S
Tb302 O314 2.374 . S
O303 Tb300 2.453 . S
O303 C319 1.245 . S
O304 Tb300 2.596 . S
O304 Tb302 2.343 . S
O304 C319 1.259 . S
O305 Tb300 2.374 . S
O305 C301 1.251 . S
C306 O310 1.275 . S
C306 O311 1.246 . S
O307 C301 1.263 . S
O307 Tb302 2.353 . S
C308 O312 1.245 . S
C308 O313 1.259 . S
C309 O314 1.250 . S
C309 O315 1.263 . S
O310 Tb302 2.427 . S
O310 C306 1.275 . S
O311 Tb302 2.513 . S
O311 C306 1.246 . S
O312 Tb302 2.453 . S
O312 C308 1.245 . S
O313 Tb300 2.343 . S
O313 Tb302 2.596 . S
O313 C308 1.259 . S
O314 Tb302 2.374 . S
O314 C309 1.250 . S
O315 Tb300 2.353 . S
O315 C309 1.263 . S
C316 O317 1.275 . S
C316 O318 1.246 . S
O317 Tb300 2.427 . S
O317 C316 1.275 . S
O318 Tb300 2.513 . S
O318 C316 1.246 . S
C319 O303 1.245 . S
C319 O304 1.259 . S
C320 C321 1.387 . S
C320 H324 0.950 . S
C320 C329 1.390 . S
C321 C320 1.387 . S
C321 C323 1.387 . S
H322 C329 0.950 . S
C323 C321 1.387 . S
C323 C325 1.390 . S
C323 H327 0.950 . S
H324 C320 0.950 . S
C325 C323 1.390 . S
C325 C326 1.387 . S
C325 H328 0.950 . S
C326 C325 1.387 . S
C326 C329 1.387 . S
H327 C323 0.950 . S
H328 C325 0.950 . S
C329 C320 1.390 . S
C329 H322 0.950 . S
C329 C326 1.387 . S
C330 C331 1.387 . S
C330 H334 0.950 . S
C330 C339 1.390 1_554 S
C331 C330 1.387 . S
C331 C333 1.387 1_554 S
H332 C339 0.950 . S
C333 C331 1.387 1_556 S
C333 C335 1.390 . S
C333 H337 0.950 . S
H334 C330 0.950 . S
C335 C333 1.390 . S
C335 C336 1.387 . S
C335 H338 0.950 . S
C336 C335 1.387 . S
C336 C339 1.387 . S
H337 C333 0.950 . S
H338 C335 0.950 . S
C339 C330 1.390 1_556 S
C339 H332 0.950 . S
C339 C336 1.387 . S
C340 C341 1.387 . S
C340 H344 0.950 . S
C340 C349 1.390 . S
C341 C340 1.387 . S
C341 C343 1.387 . S
H342 C349 0.950 . S
C343 C341 1.387 . S
C343 C345 1.390 . S
C343 H347 0.950 . S
H344 C340 0.950 . S
C345 C343 1.390 . S
C345 C346 1.387 1_554 S
C345 H348 0.950 . S
C346 C345 1.387 1_556 S
C346 C349 1.387 1_556 S
H347 C343 0.950 . S
H348 C345 0.950 . S
C349 C340 1.390 . S
C349 H342 0.950 . S
C349 C346 1.387 1_554 S
C350 C351 1.387 . S
C350 H354 0.950 . S
C350 C359 1.390 . S
C351 C350 1.387 . S
C351 C353 1.387 . S
H352 C359 0.950 . S
C353 C351 1.387 . S
C353 C355 1.390 . S
C353 H357 0.950 . S
H354 C350 0.950 . S
C355 C353 1.390 . S
C355 C356 1.387 . S
C355 H358 0.950 . S
C356 C355 1.387 . S
C356 C359 1.387 . S
H357 C353 0.950 . S
H358 C355 0.950 . S
C359 C350 1.390 . S
C359 H352 0.950 . S
C359 C356 1.387 . S
C360 C361 1.387 . S
C360 H364 0.950 . S
C360 C369 1.390 . S
C361 C360 1.387 . S
C361 C363 1.387 . S
H362 C369 0.950 . S
C363 C361 1.387 . S
C363 C365 1.390 . S
C363 H367 0.950 . S
H364 C360 0.950 . S
C365 C363 1.390 . S
C365 C366 1.387 . S
C365 H368 0.950 . S
C366 C365 1.387 . S
C366 C369 1.387 . S
H367 C363 0.950 . S
H368 C365 0.950 . S
C369 C360 1.390 . S
C369 H362 0.950 . S
C369 C366 1.387 . S
C370 C371 1.387 . S
C370 H374 0.950 . S
C370 C379 1.390 . S
C371 C370 1.387 . S
C371 C373 1.387 . S
H372 C379 0.950 . S
C373 C371 1.387 . S
C373 C375 1.390 . S
C373 H377 0.950 . S
H374 C370 0.950 . S
C375 C373 1.390 . S
C375 C376 1.387 . S
C375 H378 0.950 . S
C376 C375 1.387 . S
C376 C379 1.387 . S
H377 C373 0.950 . S
H378 C375 0.950 . S
C379 C370 1.390 . S
C379 H372 0.950 . S
C379 C376 1.387 . S
C380 C381 1.387 . S
C380 H384 0.950 . S
C380 C389 1.390 . S
C381 C380 1.387 . S
C381 C383 1.387 . S
H382 C389 0.950 . S
C383 C381 1.387 . S
C383 C385 1.390 1_556 S
C383 H387 0.950 . S
H384 C380 0.950 . S
C385 C383 1.390 1_554 S
C385 C386 1.387 . S
C385 H388 0.950 . S
C386 C385 1.387 . S
C386 C389 1.387 1_554 S
H387 C383 0.950 . S
H388 C385 0.950 . S
C389 C380 1.390 . S
C389 H382 0.950 . S
C389 C386 1.387 1_556 S
C390 C391 1.387 . S
C390 H394 0.950 1_554 S
C390 C399 1.390 . S
C391 C390 1.387 . S
C391 C393 1.387 . S
H392 C399 0.950 . S
C393 C391 1.387 . S
C393 C395 1.390 . S
C393 H397 0.950 . S
H394 C390 0.950 1_556 S
C395 C393 1.390 . S
C395 C396 1.387 . S
C395 H398 0.950 . S
C396 C395 1.387 . S
C396 C399 1.387 . S
H397 C393 0.950 . S
H398 C395 0.950 . S
C399 C390 1.390 . S
C399 H392 0.950 . S
C399 C396 1.387 . S
C400 C401 1.387 . S
C400 H404 0.950 . S
C400 C409 1.390 . S
C401 C400 1.387 . S
C401 C403 1.387 . S
H402 C409 0.950 . S
C403 C401 1.387 . S
C403 C405 1.390 . S
C403 H407 0.950 . S
H404 C400 0.950 . S
C405 C403 1.390 . S
C405 C406 1.387 . S
C405 H408 0.950 . S
C406 C405 1.387 . S
C406 C409 1.387 . S
H407 C403 0.950 . S
H408 C405 0.950 . S
C409 C400 1.390 . S
C409 H402 0.950 . S
C409 C406 1.387 . S
C410 C411 1.387 . S
C410 H414 0.950 . S
C410 C419 1.390 . S
C411 C410 1.387 . S
C411 C413 1.387 . S
H412 C419 0.950 . S
C413 C411 1.387 . S
C413 C415 1.390 . S
C413 H417 0.950 . S
H414 C410 0.950 . S
C415 C413 1.390 . S
C415 C416 1.387 . S
C415 H418 0.950 . S
C416 C415 1.387 . S
C416 C419 1.387 . S
H417 C413 0.950 . S
H418 C415 0.950 . S
C419 C410 1.390 . S
C419 H412 0.950 . S
C419 C416 1.387 . S
C420 C421 1.387 1_556 S
C420 H424 0.950 . S
C420 C429 1.390 . S
C421 C420 1.387 1_554 S
C421 C423 1.387 1_554 S
H422 C429 0.950 . S
C423 C421 1.387 1_556 S
C423 C425 1.390 . S
C423 H427 0.950 . S
H424 C420 0.950 . S
C425 C423 1.390 . S
C425 C426 1.387 . S
C425 H428 0.950 . S
C426 C425 1.387 . S
C426 C429 1.387 . S
H427 C423 0.950 . S
H428 C425 0.950 . S
C429 C420 1.390 . S
C429 H422 0.950 . S
C429 C426 1.387 . S
C430 C431 1.387 . S
C430 H434 0.950 . S
C430 C439 1.390 . S
C431 C430 1.387 . S
C431 C433 1.387 . S
H432 C439 0.950 . S
C433 C431 1.387 . S
C433 C435 1.390 . S
C433 H437 0.950 . S
H434 C430 0.950 . S
C435 C433 1.390 . S
C435 C436 1.387 . S
C435 H438 0.950 . S
C436 C435 1.387 . S
C436 C439 1.387 . S
H437 C433 0.950 . S
H438 C435 0.950 . S
C439 C430 1.390 . S
C439 H432 0.950 . S
C439 C436 1.387 . S
C440 C441 1.387 . S
C440 H444 0.950 . S
C440 C449 1.390 . S
C441 C440 1.387 . S
C441 C443 1.387 . S
H442 C449 0.950 . S
C443 C441 1.387 . S
C443 C445 1.390 . S
C443 H447 0.950 . S
H444 C440 0.950 . S
C445 C443 1.390 . S
C445 C446 1.387 . S
C445 H448 0.950 . S
C446 C445 1.387 . S
C446 C449 1.387 . S
H447 C443 0.950 . S
H448 C445 0.950 . S
C449 C440 1.390 . S
C449 H442 0.950 . S
C449 C446 1.387 . S
C450 C451 1.387 . S
C450 H454 0.950 . S
C450 C459 1.390 . S
C451 C450 1.387 . S
C451 C453 1.387 . S
H452 C459 0.950 . S
C453 C451 1.387 . S
C453 C455 1.390 . S
C453 H457 0.950 . S
H454 C450 0.950 . S
C455 C453 1.390 . S
C455 C456 1.387 . S
C455 H458 0.950 . S
C456 C455 1.387 . S
C456 C459 1.387 . S
H457 C453 0.950 . S
H458 C455 0.950 . S
C459 C450 1.390 . S
C459 H452 0.950 . S
C459 C456 1.387 . S
C460 C461 1.387 . S
C460 H464 0.950 . S
C460 C469 1.390 1_554 S
C461 C460 1.387 . S
C461 C463 1.387 . S
H462 C469 0.950 . S
C463 C461 1.387 . S
C463 C465 1.390 1_554 S
C463 H467 0.950 . S
H464 C460 0.950 . S
C465 C463 1.390 1_556 S
C465 C466 1.387 . S
C465 H468 0.950 . S
C466 C465 1.387 . S
C466 C469 1.387 . S
H467 C463 0.950 . S
H468 C465 0.950 . S
C469 C460 1.390 1_556 S
C469 H462 0.950 . S
C469 C466 1.387 . S
C470 C471 1.387 1_556 S
C470 H474 0.950 . S
C470 C479 1.390 . S
C471 C470 1.387 1_554 S
C471 C473 1.387 . S
H472 C479 0.950 . S
C473 C471 1.387 . S
C473 C475 1.390 1_554 S
C473 H477 0.950 . S
H474 C470 0.950 . S
C475 C473 1.390 1_556 S
C475 C476 1.387 . S
C475 H478 0.950 . S
C476 C475 1.387 . S
C476 C479 1.387 . S
H477 C473 0.950 . S
H478 C475 0.950 . S
C479 C470 1.390 . S
C479 H472 0.950 . S
C479 C476 1.387 . S
C480 C481 1.387 . S
C480 H484 0.950 . S
C480 C489 1.390 . S
C481 C480 1.387 . S
C481 C483 1.387 . S
H482 C489 0.950 . S
C483 C481 1.387 . S
C483 C485 1.390 . S
C483 H487 0.950 . S
H484 C480 0.950 . S
C485 C483 1.390 . S
C485 C486 1.387 . S
C485 H488 0.950 . S
C486 C485 1.387 . S
C486 C489 1.387 . S
H487 C483 0.950 . S
H488 C485 0.950 . S
C489 C480 1.390 . S
C489 H482 0.950 . S
C489 C486 1.387 . S
C490 C491 1.387 . S
C490 H494 0.950 . S
C490 C499 1.390 . S
C491 C490 1.387 . S
C491 C493 1.387 . S
H492 C499 0.950 . S
C493 C491 1.387 . S
C493 C495 1.390 . S
C493 H497 0.950 . S
H494 C490 0.950 . S
C495 C493 1.390 . S
C495 C496 1.387 . S
C495 H498 0.950 . S
C496 C495 1.387 . S
C496 C499 1.387 . S
H497 C493 0.950 . S
H498 C495 0.950 . S
C499 C490 1.390 . S
C499 H492 0.950 . S
C499 C496 1.387 . S
C500 C501 1.387 . S
C500 H504 0.950 . S
C500 C509 1.390 . S
C501 C500 1.387 . S
C501 C503 1.387 . S
H502 C509 0.950 . S
C503 C501 1.387 . S
C503 C505 1.390 . S
C503 H507 0.950 . S
H504 C500 0.950 . S
C505 C503 1.390 . S
C505 C506 1.387 . S
C505 H508 0.950 . S
C506 C505 1.387 . S
C506 C509 1.387 . S
H507 C503 0.950 . S
H508 C505 0.950 . S
C509 C500 1.390 . S
C509 H502 0.950 . S
C509 C506 1.387 . S
C510 C511 1.387 1_554 S
C510 H514 0.950 . S
C510 C519 1.390 1_655 S
C511 C510 1.387 1_556 S
C511 C513 1.387 . S
H512 C519 0.950 . S
C513 C511 1.387 . S
C513 C515 1.390 1_655 S
C513 H517 0.950 . S
H514 C510 0.950 . S
C515 C513 1.390 1_455 S
C515 C516 1.387 . S
C515 H518 0.950 . S
C516 C515 1.387 . S
C516 C519 1.387 1_556 S
H517 C513 0.950 . S
H518 C515 0.950 . S
C519 C510 1.390 1_455 S
C519 H512 0.950 . S
C519 C516 1.387 1_554 S
C520 C521 1.387 . S
C520 H524 0.950 . S
C520 C529 1.390 . S
C521 C520 1.387 . S
C521 C523 1.387 . S
H522 C529 0.950 . S
C523 C521 1.387 . S
C523 C525 1.390 . S
C523 H527 0.950 . S
H524 C520 0.950 . S
C525 C523 1.390 . S
C525 C526 1.387 . S
C525 H528 0.950 . S
C526 C525 1.387 . S
C526 C529 1.387 . S
H527 C523 0.950 . S
H528 C525 0.950 . S
C529 C520 1.390 . S
C529 H522 0.950 . S
C529 C526 1.387 . S
C530 C531 1.387 . S
C530 H534 0.950 . S
C530 C539 1.390 . S
C531 C530 1.387 . S
C531 C533 1.387 . S
H532 C539 0.950 1_655 S
C533 C531 1.387 . S
C533 C535 1.391 . S
C533 H537 0.950 . S
H534 C530 0.950 . S
C535 C533 1.391 . S
C535 C536 1.388 1_455 S
C535 H538 0.949 1_454 S
C536 C535 1.388 1_655 S
C536 C539 1.387 1_655 S
H537 C533 0.950 . S
H538 C535 0.949 1_656 S
C539 C530 1.390 . S
C539 H532 0.950 1_455 S
C539 C536 1.387 1_455 S
C540 C541 1.387 . S
C540 H544 0.950 . S
C540 C549 1.390 . S
C541 C540 1.387 . S
C541 C543 1.387 . S
H542 C549 0.950 . S
C543 C541 1.387 . S
C543 C545 1.390 . S
C543 H547 0.950 . S
H544 C540 0.950 . S
C545 C543 1.390 . S
C545 C546 1.387 . S
C545 H548 0.950 . S
C546 C545 1.387 . S
C546 C549 1.387 . S
H547 C543 0.950 . S
H548 C545 0.950 . S
C549 C540 1.390 . S
C549 H542 0.950 . S
C549 C546 1.387 . S
C550 C551 1.387 . S
C550 H554 0.950 . S
C550 C559 1.390 . S
C551 C550 1.387 . S
C551 C553 1.387 . S
H552 C559 0.950 . S
C553 C551 1.387 . S
C553 C555 1.390 . S
C553 H557 0.950 . S
H554 C550 0.950 . S
C555 C553 1.390 . S
C555 C556 1.387 . S
C555 H558 0.950 . S
C556 C555 1.387 . S
C556 C559 1.387 . S
H557 C553 0.950 . S
H558 C555 0.950 . S
C559 C550 1.390 . S
C559 H552 0.950 . S
C559 C556 1.387 . S
C560 C561 1.387 . S
C560 H564 0.950 . S
C560 C569 1.390 . S
C561 C560 1.387 . S
C561 C563 1.387 . S
H562 C569 0.950 . S
C563 C561 1.387 . S
C563 C565 1.390 . S
C563 H567 0.950 . S
H564 C560 0.950 . S
C565 C563 1.390 . S
C565 C566 1.387 . S
C565 H568 0.950 . S
C566 C565 1.387 . S
C566 C569 1.387 . S
H567 C563 0.950 . S
H568 C565 0.950 . S
C569 C560 1.390 . S
C569 H562 0.950 . S
C569 C566 1.387 . S
C570 C571 1.387 . S
C570 H574 0.950 . S
C570 C579 1.390 . S
C571 C570 1.387 . S
C571 C573 1.387 . S
H572 C579 0.950 . S
C573 C571 1.387 . S
C573 C575 1.390 . S
C573 H577 0.950 . S
H574 C570 0.950 . S
C575 C573 1.390 . S
C575 C576 1.387 . S
C575 H578 0.950 . S
C576 C575 1.387 . S
C576 C579 1.387 . S
H577 C573 0.950 . S
H578 C575 0.950 . S
C579 C570 1.390 . S
C579 H572 0.950 . S
C579 C576 1.387 . S
C580 C581 1.387 . S
C580 H584 0.950 . S
C580 C589 1.390 . S
C581 C580 1.387 . S
C581 C583 1.387 . S
H582 C589 0.950 . S
C583 C581 1.387 . S
C583 C585 1.390 . S
C583 H587 0.950 1_554 S
H584 C580 0.950 . S
C585 C583 1.390 . S
C585 C586 1.387 . S
C585 H588 0.950 1_554 S
C586 C585 1.387 . S
C586 C589 1.387 . S
H587 C583 0.950 1_556 S
H588 C585 0.950 1_556 S
C589 C580 1.390 . S
C589 H582 0.950 . S
C589 C586 1.387 . S
C590 C591 1.387 . S
C590 H594 0.950 . S
C590 C599 1.390 . S
C591 C590 1.387 . S
C591 C593 1.387 . S
H592 C599 0.950 . S
C593 C591 1.387 . S
C593 C595 1.390 . S
C593 H597 0.950 . S
H594 C590 0.950 . S
C595 C593 1.390 . S
C595 C596 1.387 . S
C595 H598 0.950 . S
C596 C595 1.387 . S
C596 C599 1.387 . S
H597 C593 0.950 . S
H598 C595 0.950 . S
C599 C590 1.390 . S
C599 H592 0.950 . S
C599 C596 1.387 . S
C600 C601 1.387 . S
C600 H604 0.950 . S
C600 C609 1.390 1_655 S
C601 C600 1.387 . S
C601 C603 1.387 . S
H602 C609 0.950 . S
C603 C601 1.387 . S
C603 C605 1.390 1_655 S
C603 H607 0.950 . S
H604 C600 0.950 . S
C605 C603 1.390 1_455 S
C605 C606 1.387 . S
C605 H608 0.950 . S
C606 C605 1.387 . S
C606 C609 1.387 . S
H607 C603 0.950 . S
H608 C605 0.950 . S
C609 C600 1.390 1_455 S
C609 H602 0.950 . S
C609 C606 1.387 . S
C610 C611 1.387 . S
C610 H614 0.950 . S
C610 C619 1.390 . S
C611 C610 1.387 . S
C611 C613 1.387 . S
H612 C619 0.950 . S
C613 C611 1.387 . S
C613 C615 1.390 . S
C613 H617 0.950 . S
H614 C610 0.950 . S
C615 C613 1.390 . S
C615 C616 1.387 . S
C615 H618 0.950 . S
C616 C615 1.387 . S
C616 C619 1.387 . S
H617 C613 0.950 . S
H618 C615 0.950 . S
C619 C610 1.390 . S
C619 H612 0.950 . S
C619 C616 1.387 . S
C620 C621 1.387 . S
C620 H624 0.950 . S
C620 C629 1.390 . S
C621 C620 1.387 . S
C621 C623 1.387 . S
H622 C629 0.950 . S
C623 C621 1.387 . S
C623 C625 1.390 . S
C623 H627 0.950 . S
H624 C620 0.950 . S
C625 C623 1.390 . S
C625 C626 1.387 . S
C625 H628 0.950 . S
C626 C625 1.387 . S
C626 C629 1.387 . S
H627 C623 0.950 . S
H628 C625 0.950 . S
C629 C620 1.390 . S
C629 H622 0.950 . S
C629 C626 1.387 . S
C630 C631 1.387 . S
C630 H634 0.950 1_556 S
C630 C639 1.390 1_455 S
C631 C630 1.387 . S
C631 C633 1.387 . S
H632 C639 0.950 . S
C633 C631 1.387 . S
C633 C635 1.390 1_455 S
C633 H637 0.950 . S
H634 C630 0.950 1_554 S
C635 C633 1.390 1_655 S
C635 C636 1.387 . S
C635 H638 0.950 . S
C636 C635 1.387 . S
C636 C639 1.387 . S
H637 C633 0.950 . S
H638 C635 0.950 . S
C639 C630 1.390 1_655 S
C639 H632 0.950 . S
C639 C636 1.387 . S
C640 C641 1.387 . S
C640 H644 0.950 . S
C640 C649 1.390 . S
C641 C640 1.387 . S
C641 C643 1.387 1_554 S
H642 C649 0.950 . S
C643 C641 1.387 1_556 S
C643 C645 1.390 . S
C643 H647 0.950 . S
H644 C640 0.950 . S
C645 C643 1.390 . S
C645 C646 1.387 1_556 S
C645 H648 0.950 . S
C646 C645 1.387 1_554 S
C646 C649 1.387 . S
H647 C643 0.950 . S
H648 C645 0.950 . S
C649 C640 1.390 . S
C649 H642 0.950 . S
C649 C646 1.387 . S
C650 C651 1.387 . S
C650 H654 0.950 . S
C650 C659 1.390 . S
C651 C650 1.387 . S
C651 C653 1.387 . S
H652 C659 0.950 . S
C653 C651 1.387 . S
C653 C655 1.390 . S
C653 H657 0.950 . S
H654 C650 0.950 . S
C655 C653 1.390 . S
C655 C656 1.387 . S
C655 H658 0.950 . S
C656 C655 1.387 . S
C656 C659 1.387 . S
H657 C653 0.950 . S
H658 C655 0.950 . S
C659 C650 1.390 . S
C659 H652 0.950 . S
C659 C656 1.387 . S
C660 C661 1.387 . S
C660 H664 0.950 . S
C660 C669 1.390 . S
C661 C660 1.387 . S
C661 C663 1.387 . S
H662 C669 0.950 . S
C663 C661 1.387 . S
C663 C665 1.390 . S
C663 H667 0.950 . S
H664 C660 0.950 . S
C665 C663 1.390 . S
C665 C666 1.387 . S
C665 H668 0.950 . S
C666 C665 1.387 . S
C666 C669 1.387 . S
H667 C663 0.950 . S
H668 C665 0.950 . S
C669 C660 1.390 . S
C669 H662 0.950 . S
C669 C666 1.387 . S
C670 C671 1.387 . S
C670 H674 0.950 . S
C670 C679 1.390 . S
C671 C670 1.387 . S
C671 C673 1.387 . S
H672 C679 0.950 . S
C673 C671 1.387 . S
C673 C675 1.390 . S
C673 H677 0.950 . S
H674 C670 0.950 . S
C675 C673 1.390 . S
C675 C676 1.387 . S
C675 H678 0.950 . S
C676 C675 1.387 . S
C676 C679 1.387 . S
H677 C673 0.950 . S
H678 C675 0.950 . S
C679 C670 1.390 . S
C679 H672 0.950 . S
C679 C676 1.387 . S
C680 C681 1.387 1_554 S
C680 H684 0.950 . S
C680 C689 1.390 . S
C681 C680 1.387 1_556 S
C681 C683 1.387 . S
H682 C689 0.950 . S
C683 C681 1.387 . S
C683 C685 1.390 . S
C683 H687 0.950 . S
H684 C680 0.950 . S
C685 C683 1.390 . S
C685 C686 1.387 . S
C685 H688 0.950 . S
C686 C685 1.387 . S
C686 C689 1.387 1_556 S
H687 C683 0.950 . S
H688 C685 0.950 . S
C689 C680 1.390 . S
C689 H682 0.950 . S
C689 C686 1.387 1_554 S
C690 C691 1.387 . S
C690 H694 0.950 . S
C690 C699 1.390 . S
C691 C690 1.387 . S
C691 C693 1.387 . S
H692 C699 0.950 . S
C693 C691 1.387 . S
C693 C695 1.390 . S
C693 H697 0.950 . S
H694 C690 0.950 . S
C695 C693 1.390 . S
C695 C696 1.387 . S
C695 H698 0.950 . S
C696 C695 1.387 . S
C696 C699 1.387 . S
H697 C693 0.950 . S
H698 C695 0.950 . S
C699 C690 1.390 . S
C699 H692 0.950 . S
C699 C696 1.387 . S
C700 C701 1.387 . S
C700 H704 0.950 . S
C700 C709 1.390 . S
C701 C700 1.387 . S
C701 C703 1.387 . S
H702 C709 0.950 . S
C703 C701 1.387 . S
C703 C705 1.390 . S
C703 H707 0.950 . S
H704 C700 0.950 . S
C705 C703 1.390 . S
C705 C706 1.387 . S
C705 H708 0.950 . S
C706 C705 1.387 . S
C706 C709 1.387 . S
H707 C703 0.950 . S
H708 C705 0.950 . S
C709 C700 1.390 . S
C709 H702 0.950 . S
C709 C706 1.387 . S
C710 C711 1.387 . S
C710 H714 0.950 . S
C710 C719 1.390 . S
C711 C710 1.387 . S
C711 C713 1.387 . S
H712 C719 0.950 . S
C713 C711 1.387 . S
C713 C715 1.390 . S
C713 H717 0.950 . S
H714 C710 0.950 . S
C715 C713 1.390 . S
C715 C716 1.387 . S
C715 H718 0.950 . S
C716 C715 1.387 . S
C716 C719 1.387 . S
H717 C713 0.950 . S
H718 C715 0.950 . S
C719 C710 1.390 . S
C719 H712 0.950 . S
C719 C716 1.387 . S
C720 C721 1.387 . S
C720 H724 0.950 . S
C720 C729 1.390 1_565 S
C721 C720 1.387 . S
C721 C723 1.387 . S
H722 C729 0.950 . S
C723 C721 1.387 . S
C723 C725 1.390 1_565 S
C723 H727 0.950 . S
H724 C720 0.950 . S
C725 C723 1.390 1_545 S
C725 C726 1.387 . S
C725 H728 0.950 . S
C726 C725 1.387 . S
C726 C729 1.387 . S
H727 C723 0.950 . S
H728 C725 0.950 . S
C729 C720 1.390 1_545 S
C729 H722 0.950 . S
C729 C726 1.387 . S
C730 C731 1.387 . S
C730 H734 0.950 . S
C730 C739 1.390 . S
C731 C730 1.387 . S
C731 C733 1.387 . S
H732 C739 0.950 . S
C733 C731 1.387 . S
C733 C735 1.390 . S
C733 H737 0.950 . S
H734 C730 0.950 . S
C735 C733 1.390 . S
C735 C736 1.387 . S
C735 H738 0.950 . S
C736 C735 1.387 . S
C736 C739 1.387 . S
H737 C733 0.950 . S
H738 C735 0.950 . S
C739 C730 1.390 . S
C739 H732 0.950 . S
C739 C736 1.387 . S
C740 C741 1.387 1_556 S
C740 H744 0.950 . S
C740 C749 1.390 . S
C741 C740 1.387 1_554 S
C741 C743 1.387 . S
H742 C749 0.950 1_545 S
C743 C741 1.387 . S
C743 C745 1.390 1_565 S
C743 H747 0.950 . S
H744 C740 0.950 . S
C745 C743 1.390 1_545 S
C745 C746 1.387 . S
C745 H748 0.950 . S
C746 C745 1.387 . S
C746 C749 1.387 1_544 S
H747 C743 0.950 . S
H748 C745 0.950 . S
C749 C740 1.390 . S
C749 H742 0.950 1_565 S
C749 C746 1.387 1_566 S
C750 C751 1.387 . S
C750 H754 0.950 . S
C750 C759 1.390 . S
C751 C750 1.387 . S
C751 C753 1.387 . S
H752 C759 0.950 . S
C753 C751 1.387 . S
C753 C755 1.390 . S
C753 H757 0.950 . S
H754 C750 0.950 . S
C755 C753 1.390 . S
C755 C756 1.387 . S
C755 H758 0.950 . S
C756 C755 1.387 . S
C756 C759 1.387 . S
H757 C753 0.950 . S
H758 C755 0.950 . S
C759 C750 1.390 . S
C759 H752 0.950 . S
C759 C756 1.387 . S
C760 C761 1.387 1_545 S
C760 H764 0.950 . S
C760 C769 1.390 . S
C761 C760 1.387 1_565 S
C761 C763 1.387 1_565 S
H762 C769 0.950 . S
C763 C761 1.387 1_545 S
C763 C765 1.390 . S
C763 H767 0.950 1_545 S
H764 C760 0.950 . S
C765 C763 1.390 . S
C765 C766 1.387 . S
C765 H768 0.950 . S
C766 C765 1.387 . S
C766 C769 1.387 . S
H767 C763 0.950 1_565 S
H768 C765 0.950 . S
C769 C760 1.390 . S
C769 H762 0.950 . S
C769 C766 1.387 . S
C770 C771 1.387 . S
C770 H774 0.950 . S
C770 C779 1.390 . S
C771 C770 1.387 . S
C771 C773 1.387 . S
H772 C779 0.950 . S
C773 C771 1.387 . S
C773 C775 1.390 . S
C773 H777 0.950 . S
H774 C770 0.950 . S
C775 C773 1.390 . S
C775 C776 1.387 . S
C775 H778 0.950 . S
C776 C775 1.387 . S
C776 C779 1.387 . S
H777 C773 0.950 . S
H778 C775 0.950 . S
C779 C770 1.390 . S
C779 H772 0.950 . S
C779 C776 1.387 . S
C780 C781 1.387 . S
C780 H784 0.950 . S
C780 C789 1.390 1_545 S
C781 C780 1.387 . S
C781 C783 1.387 1_554 S
H782 C789 0.950 . S
C783 C781 1.387 1_556 S
C783 C785 1.390 1_545 S
C783 H787 0.950 . S
H784 C780 0.950 . S
C785 C783 1.390 1_565 S
C785 C786 1.387 1_556 S
C785 H788 0.950 . S
C786 C785 1.387 1_554 S
C786 C789 1.387 . S
H787 C783 0.950 . S
H788 C785 0.950 . S
C789 C780 1.390 1_565 S
C789 H782 0.950 . S
C789 C786 1.387 . S
C790 C791 1.387 . S
C790 H794 0.950 . S
C790 C799 1.390 . S
C791 C790 1.387 . S
C791 C793 1.387 . S
H792 C799 0.950 . S
C793 C791 1.387 . S
C793 C795 1.390 . S
C793 H797 0.950 . S
H794 C790 0.950 . S
C795 C793 1.390 . S
C795 C796 1.387 . S
C795 H798 0.950 . S
C796 C795 1.387 . S
C796 C799 1.387 . S
H797 C793 0.950 . S
H798 C795 0.950 . S
C799 C790 1.390 . S
C799 H792 0.950 . S
C799 C796 1.387 . S
C321 C8 1.689 . S
C326 C19 1.689 . S
C331 C39 1.657 . S
C336 C28 1.657 . S
C341 C48 1.636 . S
C346 C59 1.636 . S
C351 C68 1.661 . S
C356 C79 1.661 . S
C361 C88 1.663 . S
C366 C99 1.663 . S
C371 C108 1.650 . S
C376 C119 1.650 . S
C381 C139 1.662 . S
C386 C128 1.662 . S
C391 C159 1.718 1_554 S
C396 C148 1.718 . S
C401 C179 1.701 . S
C406 C168 1.701 . S
C411 C199 1.664 . S
C416 C188 1.664 1_554 S
C421 C208 1.638 . S
C426 C219 1.638 . S
C431 C239 1.658 . S
C436 C228 1.658 . S
C441 C259 1.662 . S
C446 C248 1.662 . S
C451 C279 1.653 . S
C456 C268 1.653 . S
C461 C288 1.662 . S
C466 C299 1.662 . S
C471 C319 1.712 . S
C476 C308 1.712 . S
C481 C1 1.613 . S
C486 C226 1.456 . S
C491 C36 1.783 . S
C496 C309 1.937 . S
C501 C41 1.626 . S
C506 C189 1.557 . S
C511 C61 1.934 . S
C516 C269 1.998 . S
C521 C81 1.604 . S
C526 C266 1.436 . S
C531 C229 1.934 . S
C536 C116 1.761 . S
C541 C136 1.452 . S
C546 C306 1.367 . S
C551 C156 1.667 . S
C556 C186 1.765 . S
C561 C76 1.703 . S
C566 C169 1.786 . S
C571 C21 1.881 . S
C576 C209 1.885 . S
C581 C249 1.788 . S
C586 C101 1.764 . S
C591 C141 1.621 . S
C596 C286 1.588 . S
C601 C166 1.494 . S
C606 C96 1.484 . S
C611 C121 1.581 . S
C616 C206 1.499 . S
C621 C56 1.615 . S
C626 C289 1.666 . S
C631 C16 1.639 . S
C636 C246 1.586 . S
C641 C9 1.319 . S
C646 C89 1.318 1_554 S
C651 C26 1.630 . S
C656 C106 1.630 . S
C661 C49 1.370 . S
C666 C126 1.333 . S
C671 C69 1.698 . S
C676 C146 1.641 . S
C681 C241 1.658 . S
C686 C161 1.665 . S
C691 C261 1.717 . S
C696 C196 1.671 . S
C701 C201 1.681 . S
C706 C296 1.614 . S
C711 C301 1.720 . S
C716 C221 1.709 . S
C721 C29 1.708 . S
C726 C149 1.721 . S
C731 C86 1.366 . S
C736 C46 1.353 . S
C741 C109 1.734 . S
C746 C66 1.675 . S
C751 C6 1.334 . S
C756 C129 1.397 . S
C761 C316 1.344 . S
C766 C181 1.408 . S
C771 C256 1.421 . S
C776 C216 1.413 . S
C781 C276 1.367 1_554 S
C786 C236 1.372 . S
C791 C281 1.437 . S
C796 C176 1.390 . S
