# Generated by pormake.
# Topology irl, (4)-cn, num edge types: 1
# Building blocks:
#     Node 0, Type 0, BuildingBlock: ICAMEG_clean_sbu_1, # of connection points: 4
#     Node 1, Type 0, BuildingBlock: ICAMEG_clean_sbu_1, # of connection points: 4
#     Node 2, Type 0, BuildingBlock: ICAMEG_clean_sbu_1, # of connection points: 4
#     Node 3, Type 0, BuildingBlock: ICAMEG_clean_sbu_1, # of connection points: 4
#     Node 4, Type 0, BuildingBlock: ICAMEG_clean_sbu_1, # of connection points: 4
#     Node 5, Type 0, BuildingBlock: ICAMEG_clean_sbu_1, # of connection points: 4
#     Node 6, Type 0, BuildingBlock: ICAMEG_clean_sbu_1, # of connection points: 4
#     Node 7, Type 0, BuildingBlock: ICAMEG_clean_sbu_1, # of connection points: 4
#     Edge 8, Type (0, 0), BuildingBlock: XIVTED_clean_linker_0, # of connection points: 2
#     Edge 9, Type (0, 0), BuildingBlock: XIVTED_clean_linker_0, # of connection points: 2
#     Edge 10, Type (0, 0), BuildingBlock: XIVTED_clean_linker_0, # of connection points: 2
#     Edge 11, Type (0, 0), BuildingBlock: XIVTED_clean_linker_0, # of connection points: 2
#     Edge 12, Type (0, 0), BuildingBlock: XIVTED_clean_linker_0, # of connection points: 2
#     Edge 13, Type (0, 0), BuildingBlock: XIVTED_clean_linker_0, # of connection points: 2
#     Edge 14, Type (0, 0), BuildingBlock: XIVTED_clean_linker_0, # of connection points: 2
#     Edge 15, Type (0, 0), BuildingBlock: XIVTED_clean_linker_0, # of connection points: 2
#     Edge 16, Type (0, 0), BuildingBlock: XIVTED_clean_linker_0, # of connection points: 2
#     Edge 17, Type (0, 0), BuildingBlock: XIVTED_clean_linker_0, # of connection points: 2
#     Edge 18, Type (0, 0), BuildingBlock: XIVTED_clean_linker_0, # of connection points: 2
#     Edge 19, Type (0, 0), BuildingBlock: XIVTED_clean_linker_0, # of connection points: 2
#     Edge 20, Type (0, 0), BuildingBlock: XIVTED_clean_linker_0, # of connection points: 2
#     Edge 21, Type (0, 0), BuildingBlock: XIVTED_clean_linker_0, # of connection points: 2
#     Edge 22, Type (0, 0), BuildingBlock: XIVTED_clean_linker_0, # of connection points: 2
#     Edge 23, Type (0, 0), BuildingBlock: XIVTED_clean_linker_0, # of connection points: 2
# Relax obj value: 0.025
# Max RMSD: 0.076
# Mean RMSD: 0.076
data_MOF--net-irl--node1-ICAMEG_clean_sbu_1--edge1-XIVTED_clean_linker_0
_symmetry_space_group_name_H-M    P1
_symmetry_Int_Tables_number       1
_symmetry_cell_setting            triclinic
loop_
_symmetry_equiv_pos_as_xyz
'x, y, z'
_cell_length_a     34.645462
_cell_length_b     49.867109
_cell_length_c     30.624107
_cell_angle_alpha  89.99804
_cell_angle_beta   89.999499
_cell_angle_gamma 90.04324
loop_
_atom_site_label
_atom_site_type_symbol
_atom_site_fract_x
_atom_site_fract_y
_atom_site_fract_z
_atom_type_partial_charge
Co0 Co 0.01981 0.15313 0.00111 0.0
Co1 Co 0.1098 0.12987 0.03264 0.0
O2 O 0.07631 0.15322 0.99788 0.0
C3 C 0.03613 0.14207 0.90838 0.0
O4 O 0.06396 0.1262 0.92166 0.0
C5 C 0.13855 0.18441 0.05289 0.0
O6 O 0.10261 0.19219 0.05773 0.0
O7 O 0.0815 0.13911 0.0874 0.0
O8 O 0.02175 0.15071 0.06597 0.0
H9 H 0.13838 0.05903 0.1447 0.0
H10 H 0.0597 0.19577 0.95115 0.0
O11 O 0.01614 0.15518 0.93594 0.0
H12 H 0.98739 0.24296 0.06657 0.0
H13 H 0.88667 0.18383 0.95834 0.0
H14 H 0.96171 0.12264 0.05206 0.0
H15 H 0.9839 0.19372 0.06008 0.0
H16 H 0.95783 0.18372 0.95552 0.0
O17 O 0.14618 0.16024 0.04292 0.0
H18 H 0.09662 0.0883 0.10019 0.0
H19 H 0.19512 0.12252 0.03917 0.0
H20 H 0.8906 0.12223 0.05619 0.0
H21 H 0.06381 0.24508 0.95626 0.0
H22 H 0.8526 0.153 0.00909 0.0
H23 H 0.02755 0.26898 0.01439 0.0
O24 O 0.01784 0.11332 0.99706 0.0
H25 H 0.17636 0.15077 0.89088 0.0
H26 H 0.13623 0.07877 0.99146 0.0
H27 H 0.16959 0.06709 0.92294 0.0
H28 H 0.18995 0.10325 0.87211 0.0
H29 H 0.14254 0.16151 0.95955 0.0
H30 H 0.23796 0.09378 0.08327 0.0
H31 H 0.20961 0.06168 0.13638 0.0
O32 O 0.07481 0.09882 0.02286 0.0
C33 C 0.04666 0.1458 0.09553 0.0
C34 C 0.15108 0.07289 0.12159 0.0
C35 C 0.20697 0.09242 0.08715 0.0
N36 N 0.1434 0.10697 0.06692 0.0
C37 C 0.12758 0.08946 0.09622 0.0
C38 C 0.18257 0.10869 0.06235 0.0
C39 C 0.19104 0.0744 0.11693 0.0
C40 C 0.04357 0.20607 0.97626 0.0
N41 N 0.02143 0.19192 0.00511 0.0
C42 C 0.04613 0.23397 0.97911 0.0
C43 C 0.02581 0.24737 0.01177 0.0
C44 C 0.00329 0.23278 0.04108 0.0
C45 C 0.00149 0.2049 0.03729 0.0
C46 C 0.90291 0.17038 0.9791 0.0
C47 C 0.94537 0.1362 0.03168 0.0
C48 C 0.9432 0.1702 0.9776 0.0
N49 N 0.96389 0.15336 0.00389 0.0
C50 C 0.90511 0.13583 0.03406 0.0
C51 C 0.88381 0.15308 0.00759 0.0
C52 C 0.04097 0.09463 0.00811 0.0
C53 C 0.16769 0.13484 0.91279 0.0
C54 C 0.14477 0.09459 0.96941 0.0
C55 C 0.1638 0.08787 0.93073 0.0
C56 C 0.17525 0.10817 0.90225 0.0
N57 N 0.13741 0.12078 0.97951 0.0
C58 C 0.14866 0.1408 0.9518 0.0
Co59 Co 0.97967 0.84399 -0.00047 0.0
Co60 Co 0.88959 0.86695 0.03127 0.0
O61 O 0.92317 0.84373 0.99638 0.0
C62 C 0.96326 0.85476 0.90664 0.0
O63 O 0.93532 0.87061 0.91969 0.0
C64 C 0.86127 0.81235 0.05161 0.0
O65 O 0.8973 0.80477 0.05656 0.0
O66 O 0.91797 0.85768 0.08599 0.0
O67 O 0.97781 0.84647 0.06437 0.0
H68 H 0.8607 0.93757 0.14359 0.0
H69 H 0.93996 0.80116 0.94982 0.0
O70 O 0.98331 0.84183 0.93437 0.0
H71 H 0.0128 0.75435 0.06524 0.0
H72 H 0.11299 0.8137 0.95667 0.0
H73 H 0.03761 0.87477 0.05025 0.0
H74 H 0.01598 0.8036 0.05854 0.0
H75 H 0.04183 0.81353 0.95398 0.0
O76 O 0.8534 0.83645 0.04147 0.0
H77 H 0.9026 0.90845 0.09897 0.0
H78 H 0.80424 0.87405 0.03793 0.0
H79 H 0.10872 0.87546 0.05424 0.0
H80 H 0.93616 0.75185 0.95514 0.0
H81 H 0.14689 0.84476 0.00721 0.0
H82 H 0.9727 0.72814 0.01326 0.0
O83 O 0.98134 0.8838 0.99533 0.0
H84 H 0.82297 0.84613 0.88953 0.0
H85 H 0.86292 0.91806 0.99033 0.0
H86 H 0.82943 0.92978 0.92191 0.0
H87 H 0.80916 0.89365 0.87097 0.0
H88 H 0.85692 0.83535 0.9581 0.0
H89 H 0.76127 0.90263 0.08215 0.0
H90 H 0.78949 0.93475 0.13531 0.0
O91 O 0.92442 0.8981 0.02161 0.0
C92 C 0.9529 0.85116 0.09402 0.0
C93 C 0.84806 0.92371 0.12045 0.0
C94 C 0.79226 0.90407 0.08601 0.0
N95 N 0.8559 0.88971 0.06568 0.0
C96 C 0.87164 0.90722 0.09502 0.0
C97 C 0.81673 0.88789 0.06114 0.0
C98 C 0.80811 0.9221 0.11582 0.0
C99 C 0.95621 0.79094 0.97493 0.0
N100 N 0.97831 0.8052 0.00367 0.0
C101 C 0.95383 0.76304 0.9779 0.0
C102 C 0.97429 0.74975 0.01056 0.0
C103 C 0.99678 0.76445 0.03975 0.0
C104 C 0.99841 0.79233 0.03585 0.0
C105 C 0.09668 0.82713 0.9774 0.0
C106 C 0.05402 0.86123 0.0299 0.0
C107 C 0.05638 0.82715 0.97597 0.0
N108 N 0.0356 0.84396 0.00222 0.0
C109 C 0.09428 0.86176 0.0322 0.0
C110 C 0.11568 0.84455 0.00577 0.0
C111 C 0.95816 0.9024 0.00664 0.0
C112 C 0.83161 0.86205 0.91149 0.0
C113 C 0.85442 0.90225 0.96824 0.0
C114 C 0.83532 0.90899 0.92961 0.0
C115 C 0.82392 0.88872 0.90106 0.0
N116 N 0.8619 0.87605 0.97822 0.0
C117 C 0.85071 0.85606 0.95044 0.0
Co118 Co 0.02189 0.84302 0.49835 0.0
Co119 Co 0.11196 0.86607 0.46646 0.0
O120 O 0.0784 0.8427 0.50119 0.0
C121 C 0.03876 0.85366 0.59115 0.0
O122 O 0.0668 0.8694 0.57794 0.0
C123 C 0.13977 0.81155 0.44493 0.0
O124 O 0.10367 0.80404 0.44022 0.0
O125 O 0.08319 0.85725 0.4118 0.0
O126 O 0.02351 0.84562 0.43349 0.0
H127 H 0.14066 0.93743 0.35528 0.0
H128 H 0.06163 0.80008 0.54766 0.0
O129 O 0.0185 0.84078 0.56352 0.0
H130 H 0.98822 0.75352 0.43235 0.0
H131 H 0.88865 0.81271 0.54174 0.0
H132 H 0.96384 0.87391 0.44803 0.0
H133 H 0.98522 0.80276 0.43931 0.0
H134 H 0.95983 0.81253 0.54409 0.0
O135 O 0.14784 0.83558 0.4554 0.0
H136 H 0.09883 0.90809 0.39967 0.0
H137 H 0.19732 0.87301 0.45925 0.0
H138 H 0.89272 0.87461 0.44438 0.0
H139 H 0.06526 0.75078 0.54208 0.0
H140 H 0.85464 0.84384 0.49147 0.0
H141 H 0.02844 0.7272 0.48401 0.0
O142 O 0.02036 0.88284 0.50276 0.0
H143 H 0.17928 0.84405 0.60727 0.0
H144 H 0.1393 0.91681 0.50815 0.0
H145 H 0.17332 0.92794 0.57651 0.0
H146 H 0.19361 0.8914 0.6266 0.0
H147 H 0.14481 0.83386 0.53877 0.0
H148 H 0.24022 0.9018 0.41524 0.0
H149 H 0.2119 0.93437 0.36292 0.0
O150 O 0.07745 0.89721 0.477 0.0
C151 C 0.04829 0.85061 0.40382 0.0
C152 C 0.15334 0.92337 0.37805 0.0
C153 C 0.20922 0.90334 0.41165 0.0
N154 N 0.1456 0.88899 0.43222 0.0
C155 C 0.12981 0.90675 0.40335 0.0
C156 C 0.18478 0.88704 0.4364 0.0
C157 C 0.19331 0.92162 0.38232 0.0
C158 C 0.04526 0.78992 0.52258 0.0
N159 N 0.02309 0.80424 0.49402 0.0
C160 C 0.04754 0.76202 0.51946 0.0
C161 C 0.02692 0.74881 0.48683 0.0
C162 C 0.00436 0.76357 0.45782 0.0
C163 C 0.00284 0.79144 0.46187 0.0
C164 C 0.90492 0.82617 0.52098 0.0
C165 C 0.94747 0.86034 0.46841 0.0
C166 C 0.94522 0.82618 0.52222 0.0
N167 N 0.96595 0.84303 0.49594 0.0
C168 C 0.90721 0.86088 0.4663 0.0
C169 C 0.88586 0.84364 0.49276 0.0
C170 C 0.0437 0.90147 0.49192 0.0
C171 C 0.17064 0.86015 0.58568 0.0
C172 C 0.14781 0.90082 0.52988 0.0
C173 C 0.1672 0.90723 0.56847 0.0
C174 C 0.17862 0.88672 0.59654 0.0
N175 N 0.14005 0.87472 0.51947 0.0
C176 C 0.15124 0.8545 0.54677 0.0
Co177 Co 0.97792 0.15093 0.49993 0.0
Co178 Co 0.88786 0.12794 0.46797 0.0
O179 O 0.92141 0.15127 0.50275 0.0
C180 C 0.96101 0.14048 0.59282 0.0
O181 O 0.93296 0.1247 0.57978 0.0
C182 C 0.8601 0.18241 0.4463 0.0
O183 O 0.8962 0.18987 0.44148 0.0
O184 O 0.9166 0.13683 0.41331 0.0
O185 O 0.97632 0.14831 0.43509 0.0
H186 H 0.85915 0.05666 0.35665 0.0
H187 H 0.93816 0.19393 0.54911 0.0
O188 O 0.98129 0.15325 0.56507 0.0
H189 H 0.01172 0.24037 0.4338 0.0
H190 H 0.11119 0.1812 0.54331 0.0
H191 H 0.03594 0.11998 0.44969 0.0
H192 H 0.01467 0.19114 0.44086 0.0
H193 H 0.04001 0.18143 0.54562 0.0
O194 O 0.85198 0.15843 0.45698 0.0
H195 H 0.90098 0.08598 0.40107 0.0
H196 H 0.8025 0.12099 0.46076 0.0
H197 H 0.10707 0.11923 0.44607 0.0
H198 H 0.93458 0.24322 0.54342 0.0
H199 H 0.14517 0.15 0.49313 0.0
H200 H 0.97147 0.26675 0.48536 0.0
O201 O 0.97941 0.11111 0.5044 0.0
H202 H 0.82054 0.14979 0.60884 0.0
H203 H 0.86054 0.07714 0.50952 0.0
H204 H 0.82655 0.06593 0.57786 0.0
H205 H 0.80625 0.10242 0.62806 0.0
H206 H 0.85499 0.16006 0.54036 0.0
H207 H 0.7596 0.09222 0.41671 0.0
H208 H 0.78792 0.05968 0.36433 0.0
O209 O 0.92239 0.09679 0.4784 0.0
C210 C 0.95153 0.14344 0.40539 0.0
C211 C 0.84647 0.0707 0.37944 0.0
C212 C 0.7906 0.09069 0.41311 0.0
N213 N 0.85421 0.10505 0.43367 0.0
C214 C 0.87001 0.08731 0.40476 0.0
C215 C 0.81503 0.10698 0.43788 0.0
C216 C 0.80651 0.07243 0.38374 0.0
C217 C 0.95456 0.20406 0.52402 0.0
N218 N 0.97675 0.18971 0.49552 0.0
C219 C 0.95231 0.23196 0.52085 0.0
C220 C 0.97297 0.24514 0.48822 0.0
C221 C 0.99555 0.23035 0.45927 0.0
C222 C 0.99705 0.20248 0.46337 0.0
C223 C 0.0949 0.16774 0.52257 0.0
C224 C 0.05233 0.13355 0.47005 0.0
C225 C 0.0546 0.16775 0.52379 0.0
N226 N 0.03386 0.1509 0.49753 0.0
C227 C 0.09259 0.13298 0.46796 0.0
C228 C 0.11395 0.15023 0.4944 0.0
C229 C 0.95609 0.0925 0.49341 0.0
C230 C 0.82919 0.13371 0.58721 0.0
C231 C 0.85203 0.0931 0.5313 0.0
C232 C 0.83265 0.08665 0.56988 0.0
C233 C 0.82123 0.10713 0.598 0.0
N234 N 0.85978 0.11922 0.52095 0.0
C235 C 0.84858 0.13941 0.54831 0.0
Co236 Co 0.52127 0.65204 -0.00031 0.0
Co237 Co 0.61131 0.62892 0.03127 0.0
O238 O 0.57776 0.65229 0.99662 0.0
C239 C 0.53778 0.64146 0.90679 0.0
O240 O 0.56572 0.62563 0.91986 0.0
C241 C 0.63955 0.68347 0.05218 0.0
O242 O 0.60351 0.69104 0.05706 0.0
O243 O 0.58283 0.63789 0.08606 0.0
O244 O 0.52306 0.64936 0.06453 0.0
H245 H 0.6401 0.55774 0.1427 0.0
H246 H 0.56102 0.695 0.95033 0.0
O247 O 0.51769 0.65437 0.93453 0.0
H248 H 0.48817 0.7415 0.06608 0.0
H249 H 0.38801 0.68251 0.95692 0.0
H250 H 0.46326 0.62114 0.05011 0.0
H251 H 0.48496 0.69227 0.05899 0.0
H252 H 0.45918 0.68265 0.9543 0.0
O253 O 0.64745 0.65938 0.04195 0.0
H254 H 0.59824 0.58706 0.09837 0.0
H255 H 0.69666 0.62184 0.03802 0.0
H256 H 0.39214 0.62048 0.05403 0.0
H257 H 0.56487 0.7443 0.95604 0.0
H258 H 0.35404 0.65133 0.00719 0.0
H259 H 0.52833 0.76784 0.01433 0.0
O260 O 0.51958 0.61224 0.99518 0.0
H261 H 0.67816 0.65051 0.88997 0.0
H262 H 0.63812 0.57804 0.9897 0.0
H263 H 0.67175 0.56669 0.9212 0.0
H264 H 0.69207 0.60309 0.8708 0.0
H265 H 0.64406 0.66091 0.9586 0.0
H266 H 0.73959 0.59307 0.08195 0.0
H267 H 0.71133 0.56066 0.13462 0.0
O268 O 0.57654 0.59779 0.0211 0.0
C269 C 0.54792 0.64445 0.09413 0.0
C270 C 0.65276 0.57173 0.11977 0.0
C271 C 0.7086 0.59159 0.08573 0.0
N272 N 0.64497 0.606 0.06545 0.0
C273 C 0.6292 0.58833 0.09451 0.0
C274 C 0.68415 0.60787 0.06102 0.0
C275 C 0.69272 0.5734 0.11526 0.0
C276 C 0.54478 0.70515 0.97551 0.0
N277 N 0.52264 0.69082 0.00412 0.0
C278 C 0.54718 0.73304 0.9787 0.0
C279 C 0.52672 0.74624 0.01145 0.0
C280 C 0.50419 0.73147 0.04052 0.0
C281 C 0.50254 0.7036 0.03639 0.0
C282 C 0.40429 0.66902 0.97757 0.0
C283 C 0.44687 0.63474 0.02985 0.0
C284 C 0.44459 0.66898 0.97618 0.0
N285 N 0.46534 0.65208 0.00232 0.0
C286 C 0.40661 0.63422 0.03211 0.0
C287 C 0.38525 0.65152 0.00579 0.0
C288 C 0.54277 0.59358 0.00614 0.0
C289 C 0.6695 0.63447 0.91169 0.0
C290 C 0.64664 0.59396 0.96784 0.0
C291 C 0.66582 0.58743 0.92916 0.0
C292 C 0.67725 0.60786 0.90092 0.0
N293 N 0.63911 0.6201 0.97816 0.0
C294 C 0.65032 0.64025 0.95068 0.0
Co295 Co 0.48048 0.34292 0.99754 0.0
Co296 Co 0.39075 0.36637 0.02959 0.0
O297 O 0.42398 0.34297 0.99455 0.0
C298 C 0.46441 0.35393 0.9048 0.0
O299 O 0.43657 0.36991 0.91768 0.0
C300 C 0.36189 0.31193 0.05023 0.0
O301 O 0.39784 0.30414 0.05502 0.0
O302 O 0.41926 0.35704 0.08424 0.0
O303 O 0.47879 0.34541 0.06218 0.0
H304 H 0.36302 0.4373 0.14177 0.0
H305 H 0.4402 0.30031 0.94791 0.0
O306 O 0.48404 0.34074 0.93256 0.0
H307 H 0.51268 0.25308 0.06317 0.0
H308 H 0.61338 0.31181 0.9545 0.0
H309 H 0.53888 0.37342 0.04806 0.0
H310 H 0.51642 0.30231 0.05648 0.0
H311 H 0.54221 0.31206 0.95195 0.0
O312 O 0.35428 0.33607 0.04006 0.0
H313 H 0.40444 0.40791 0.09707 0.0
H314 H 0.3055 0.37389 0.03666 0.0
H315 H 0.60999 0.37369 0.05192 0.0
H316 H 0.43584 0.25102 0.95322 0.0
H317 H 0.64773 0.34272 0.00491 0.0
H318 H 0.47219 0.22711 0.01126 0.0
O319 O 0.48261 0.38274 0.99334 0.0
H320 H 0.32346 0.34571 0.88819 0.0
H321 H 0.36434 0.41755 0.98867 0.0
H322 H 0.33071 0.42935 0.92038 0.0
H323 H 0.30997 0.39327 0.86961 0.0
H324 H 0.35757 0.33485 0.95663 0.0
H325 H 0.263 0.40274 0.08097 0.0
H326 H 0.29175 0.43481 0.13386 0.0
O327 O 0.42586 0.39733 0.01965 0.0
C328 C 0.45415 0.35031 0.09197 0.0
C329 C 0.35015 0.42346 0.11875 0.0
C330 C 0.29401 0.40404 0.08468 0.0
N331 N 0.35743 0.38933 0.0641 0.0
C332 C 0.37346 0.40682 0.09328 0.0
C333 C 0.31822 0.3877 0.05976 0.0
C334 C 0.31016 0.42204 0.11433 0.0
C335 C 0.45636 0.29 0.97299 0.0
N336 N 0.47868 0.30414 0.00168 0.0
C337 C 0.45367 0.26211 0.97595 0.0
C338 C 0.47403 0.24871 0.00856 0.0
C339 C 0.49674 0.26328 0.03772 0.0
C340 C 0.49868 0.29115 0.03382 0.0
C341 C 0.59726 0.32536 0.97523 0.0
C342 C 0.5551 0.35976 0.02771 0.0
C343 C 0.55697 0.32562 0.97387 0.0
N344 N 0.53642 0.34257 0.00012 0.0
C345 C 0.59536 0.36006 0.02994 0.0
C346 C 0.61651 0.3427 0.00352 0.0
C347 C 0.45962 0.40146 0.00463 0.0
C348 C 0.33231 0.36161 0.91008 0.0
C349 C 0.35565 0.40177 0.96664 0.0
C350 C 0.33646 0.40855 0.92809 0.0
C351 C 0.32479 0.3883 0.89964 0.0
N352 N 0.36295 0.37555 0.97664 0.0
C353 C 0.35151 0.35558 0.94896 0.0
Co354 Co 0.52179 0.34303 0.49666 0.0
Co355 Co 0.61164 0.36604 0.46404 0.0
O356 O 0.57831 0.34271 0.49914 0.0
C357 C 0.53868 0.35356 0.58938 0.0
O358 O 0.56676 0.36936 0.57645 0.0
C359 C 0.6393 0.31149 0.44263 0.0
O360 O 0.60317 0.30399 0.43818 0.0
O361 O 0.58257 0.35716 0.40959 0.0
O362 O 0.52304 0.34575 0.43202 0.0
H363 H 0.63966 0.43735 0.35254 0.0
H364 H 0.56178 0.29998 0.54546 0.0
O365 O 0.51866 0.34062 0.56164 0.0
H366 H 0.4878 0.25366 0.43037 0.0
H367 H 0.38874 0.31258 0.5406 0.0
H368 H 0.46351 0.37411 0.44703 0.0
H369 H 0.48481 0.30288 0.43764 0.0
H370 H 0.45993 0.31237 0.54249 0.0
O371 O 0.64746 0.33554 0.45283 0.0
H372 H 0.59811 0.40803 0.3973 0.0
H373 H 0.69696 0.37295 0.4561 0.0
H374 H 0.39237 0.37484 0.44384 0.0
H375 H 0.56542 0.25069 0.53955 0.0
H376 H 0.3545 0.34391 0.49087 0.0
H377 H 0.52832 0.22723 0.48159 0.0
O378 O 0.52034 0.38284 0.5013 0.0
H379 H 0.67983 0.34421 0.6044 0.0
H380 H 0.6393 0.41683 0.5053 0.0
H381 H 0.6738 0.42805 0.57331 0.0
H382 H 0.69438 0.39158 0.62338 0.0
H383 H 0.64487 0.33393 0.53626 0.0
H384 H 0.73958 0.40171 0.41169 0.0
H385 H 0.71095 0.43428 0.35959 0.0
O386 O 0.57717 0.39718 0.47476 0.0
C387 C 0.54755 0.35063 0.40208 0.0
C388 C 0.65248 0.42329 0.37521 0.0
C389 C 0.70856 0.40326 0.40837 0.0
N390 N 0.64508 0.38893 0.42947 0.0
C391 C 0.6291 0.40669 0.40072 0.0
C392 C 0.68428 0.38697 0.43333 0.0
C393 C 0.69248 0.42154 0.37915 0.0
C394 C 0.54529 0.28987 0.52042 0.0
N395 N 0.52296 0.30425 0.4921 0.0
C396 C 0.54758 0.26198 0.51712 0.0
C397 C 0.52679 0.24883 0.48455 0.0
C398 C 0.50407 0.26365 0.45578 0.0
C399 C 0.50255 0.29152 0.46001 0.0
C400 C 0.40492 0.32611 0.51987 0.0
C401 C 0.44722 0.36047 0.46738 0.0
C402 C 0.44522 0.32611 0.52085 0.0
N403 N 0.46584 0.34305 0.4946 0.0
C404 C 0.40695 0.36103 0.46553 0.0
C405 C 0.38573 0.34369 0.49196 0.0
C406 C 0.54359 0.40146 0.49014 0.0
C407 C 0.67106 0.36028 0.58282 0.0
C408 C 0.64791 0.40088 0.52703 0.0
C409 C 0.66759 0.40734 0.56542 0.0
C410 C 0.67916 0.38686 0.59348 0.0
N411 N 0.64004 0.37476 0.5168 0.0
C412 C 0.65138 0.35458 0.54411 0.0
Co413 Co 0.4788 0.65099 0.49844 0.0
Co414 Co 0.38863 0.62815 0.46659 0.0
O415 O 0.42229 0.65147 0.50128 0.0
C416 C 0.46194 0.64073 0.5914 0.0
O417 O 0.43383 0.62497 0.57844 0.0
C418 C 0.36089 0.68268 0.44506 0.0
O419 O 0.39699 0.69016 0.44025 0.0
O420 O 0.41736 0.63695 0.41188 0.0
O421 O 0.47717 0.64823 0.43361 0.0
H422 H 0.35964 0.55682 0.35545 0.0
H423 H 0.43926 0.69418 0.5474 0.0
O424 O 0.48222 0.65345 0.56358 0.0
H425 H 0.51295 0.74022 0.43176 0.0
H426 H 0.61221 0.68107 0.54159 0.0
H427 H 0.53667 0.61981 0.44836 0.0
H428 H 0.5157 0.691 0.43911 0.0
H429 H 0.54104 0.68147 0.54392 0.0
O430 O 0.3528 0.65867 0.4556 0.0
H431 H 0.40159 0.58613 0.39976 0.0
H432 H 0.30324 0.6213 0.4595 0.0
H433 H 0.60779 0.6189 0.44473 0.0
H434 H 0.43588 0.74348 0.54143 0.0
H435 H 0.64604 0.64969 0.49159 0.0
H436 H 0.47284 0.76679 0.48319 0.0
O437 O 0.48011 0.61119 0.50314 0.0
H438 H 0.32153 0.65021 0.60751 0.0
H439 H 0.36115 0.57743 0.50826 0.0
H440 H 0.32719 0.56632 0.57666 0.0
H441 H 0.30708 0.60288 0.62682 0.0
H442 H 0.35596 0.66037 0.53898 0.0
H443 H 0.26023 0.59254 0.41556 0.0
H444 H 0.28842 0.55993 0.36322 0.0
O445 O 0.42307 0.59696 0.47705 0.0
C446 C 0.45234 0.64341 0.40392 0.0
C447 C 0.34702 0.57089 0.37823 0.0
C448 C 0.29122 0.59097 0.41193 0.0
N449 N 0.35489 0.60527 0.43238 0.0
C450 C 0.37062 0.58749 0.40349 0.0
C451 C 0.31572 0.60725 0.43663 0.0
C452 C 0.30706 0.57267 0.38258 0.0
C453 C 0.45569 0.70423 0.52224 0.0
N454 N 0.4778 0.68977 0.49381 0.0
C455 C 0.45355 0.73212 0.51891 0.0
C456 C 0.47425 0.74519 0.48618 0.0
C457 C 0.49675 0.73029 0.4573 0.0
C458 C 0.49813 0.70242 0.46157 0.0
C459 C 0.59586 0.6676 0.52094 0.0
C460 C 0.55312 0.6334 0.46864 0.0
C461 C 0.55556 0.66771 0.52217 0.0
N462 N 0.53474 0.65084 0.49602 0.0
C463 C 0.59338 0.63273 0.46654 0.0
C464 C 0.61483 0.65 0.49287 0.0
C465 C 0.45673 0.59262 0.49214 0.0
C466 C 0.3301 0.63411 0.5859 0.0
C467 C 0.35274 0.59342 0.53003 0.0
C468 C 0.33336 0.58702 0.56864 0.0
C469 C 0.32205 0.60754 0.59675 0.0
N470 N 0.36058 0.61951 0.51963 0.0
C471 C 0.34947 0.63974 0.54697 0.0
H472 H 0.03116 0.92154 0.99057 0.0
H473 H 0.96787 0.07566 0.99204 0.0
H474 H 0.9141 0.94771 0.01399 0.0
H475 H 0.08491 0.04924 0.01486 0.0
H476 H 0.94761 0.0287 0.98775 0.0
H477 H 0.05134 0.96853 0.98707 0.0
C478 C 0.00965 0.9371 0.99465 0.0
C479 C 0.97086 0.93061 0.00264 0.0
C480 C 0.97774 0.03329 0.99351 0.0
C481 C 0.99375 0.98429 0.99846 0.0
C482 C 0.98935 0.06006 0.99584 0.0
C483 C 0.02817 0.06646 0.00387 0.0
C484 C 0.00519 0.01283 -0.00125 0.0
C485 C 0.0547 0.04535 0.00864 0.0
C486 C 0.02122 0.96388 0.99278 0.0
C487 C 0.9443 0.95167 0.00779 0.0
N488 N 0.04272 0.0195 0.00595 0.0
N489 N 0.95624 0.97755 0.00556 0.0
H490 H 0.08819 0.94667 0.48554 0.0
H491 H 0.91157 0.04733 0.48695 0.0
H492 H 0.97083 0.92074 0.50814 0.0
H493 H 0.02904 0.07317 0.50905 0.0
H494 H 0.93271 0.00089 0.49104 0.0
H495 H 0.06708 0.9931 0.49044 0.0
C496 C 0.058 0.95067 0.49181 0.0
C497 C 0.03124 0.92967 0.49647 0.0
C498 C 0.95379 0.01672 0.49537 0.0
C499 C 0.0069 0.98297 0.50159 0.0
C500 C 0.94179 0.04331 0.49296 0.0
C501 C 0.96856 0.06429 0.4977 0.0
C502 C 0.99296 0.01097 0.50187 0.0
C503 C 0.00737 0.05768 0.50528 0.0
C504 C 0.04602 0.97725 0.49469 0.0
C505 C 0.99248 0.93624 0.5044 0.0
N506 N 0.01847 0.03157 0.50675 0.0
N507 N 0.98141 0.96235 0.50634 0.0
H508 H 0.4698 0.57458 0.98958 0.0
H509 H 0.53279 0.42038 0.98861 0.0
H510 H 0.58681 0.5482 0.01275 0.0
H511 H 0.41582 0.44688 0.01163 0.0
H512 H 0.5532 0.46734 0.98494 0.0
H513 H 0.44961 0.52764 0.98509 0.0
C514 C 0.4913 0.55899 0.99341 0.0
C515 C 0.53007 0.5654 0.00163 0.0
C516 C 0.52305 0.46276 0.99059 0.0
C517 C 0.50716 0.51177 0.9963 0.0
C518 C 0.51135 0.436 0.99256 0.0
C519 C 0.47251 0.42961 0.00049 0.0
C520 C 0.49566 0.48324 0.99609 0.0
C521 C 0.44604 0.45075 0.00547 0.0
C522 C 0.47972 0.53222 0.99097 0.0
C523 C 0.55662 0.54429 0.00642 0.0
N524 N 0.4581 0.47659 0.00314 0.0
N525 N 0.54467 0.51844 0.00364 0.0
H526 H 0.58813 0.4466 0.48338 0.0
H527 H 0.412 0.54753 0.48592 0.0
H528 H 0.47089 0.42082 0.50714 0.0
H529 H 0.52961 0.57315 0.50773 0.0
H530 H 0.43295 0.50105 0.49003 0.0
H531 H 0.56721 0.49304 0.48856 0.0
C532 C 0.55801 0.45063 0.48997 0.0
C533 C 0.53123 0.42967 0.49487 0.0
C534 C 0.4541 0.51684 0.4943 0.0
C535 C 0.5071 0.483 0.50031 0.0
C536 C 0.44221 0.54345 0.49188 0.0
C537 C 0.46908 0.56438 0.49651 0.0
C538 C 0.49325 0.51102 0.5007 0.0
C539 C 0.50787 0.55771 0.50403 0.0
C540 C 0.54614 0.47722 0.49302 0.0
C541 C 0.49256 0.43629 0.50321 0.0
N542 N 0.51886 0.53157 0.5055 0.0
N543 N 0.48158 0.46241 0.50529 0.0
H544 H 0.09026 0.14142 0.17033 0.0
H545 H 0.90796 0.14039 0.33038 0.0
H546 H 0.97304 0.153 0.126 0.0
H547 H 0.02536 0.15017 0.37531 0.0
H548 H 0.93126 0.14215 0.25499 0.0
H549 H 0.06701 0.14186 0.24578 0.0
C550 C 0.05971 0.14415 0.17637 0.0
C551 C 0.03364 0.14715 0.14162 0.0
C552 C 0.95185 0.14401 0.28143 0.0
C553 C 0.00681 0.14743 0.22791 0.0
C554 C 0.93857 0.14296 0.32449 0.0
C555 C 0.96467 0.14513 0.35938 0.0
C556 C 0.99154 0.14696 0.27315 0.0
C557 C 0.00407 0.14844 0.3496 0.0
C558 C 0.04646 0.14442 0.21947 0.0
C559 C 0.99431 0.15062 0.15159 0.0
N560 N 0.01628 0.14911 0.30748 0.0
N561 N 0.98212 0.1505 0.19373 0.0
H562 H 0.09175 0.8545 0.32886 0.0
H563 H 0.9093 0.85466 0.16898 0.0
H564 H 0.97449 0.84372 0.37366 0.0
H565 H 0.02663 0.84424 0.12424 0.0
H566 H 0.93261 0.85345 0.2444 0.0
H567 H 0.06838 0.85356 0.25347 0.0
C568 C 0.06116 0.85186 0.32293 0.0
C569 C 0.03512 0.8492 0.3578 0.0
C570 C 0.95317 0.85132 0.218 0.0
C571 C 0.00816 0.84832 0.27156 0.0
C572 C 0.93989 0.85204 0.17492 0.0
C573 C 0.96597 0.84957 0.14006 0.0
C574 C 0.99285 0.84838 0.22633 0.0
C575 C 0.00534 0.84622 0.14991 0.0
C576 C 0.04784 0.85129 0.27987 0.0
C577 C 0.99574 0.84584 0.34797 0.0
N578 N 0.01756 0.84588 0.19204 0.0
N579 N 0.98348 0.84564 0.30585 0.0
H580 H 0.08534 0.8636 0.6615 0.0
H581 H 0.91684 0.86462 0.83612 0.0
H582 H 0.96898 0.84105 0.62696 0.0
H583 H 0.03291 0.8417 0.87104 0.0
H584 H 0.9354 0.86313 0.75874 0.0
H585 H 0.06678 0.86269 0.73889 0.0
C586 C 0.05596 0.85843 0.67023 0.0
C587 C 0.02867 0.85231 0.63791 0.0
C588 C 0.95666 0.85833 0.78346 0.0
C589 C 0.00722 0.85174 0.72583 0.0
C590 C 0.94617 0.85927 0.82748 0.0
C591 C 0.97337 0.8532 0.8599 0.0
C592 C 0.99481 0.85194 0.772 0.0
C593 C 0.01099 0.84633 0.84701 0.0
C594 C 0.04546 0.85784 0.71426 0.0
C595 C 0.99097 0.84571 0.65092 0.0
N596 N 0.02074 0.84617 0.80403 0.0
N597 N 0.98122 0.84588 0.69389 0.0
H598 H 0.08259 0.13174 0.83814 0.0
H599 H 0.91433 0.13098 0.66328 0.0
H600 H 0.96649 0.15492 0.87248 0.0
H601 H 0.03069 0.1534 0.62851 0.0
H602 H 0.93274 0.13262 0.74071 0.0
H603 H 0.06407 0.13254 0.76074 0.0
C604 C 0.05327 0.13702 0.82936 0.0
C605 C 0.02605 0.14335 0.86163 0.0
C606 C 0.95409 0.13728 0.71601 0.0
C607 C 0.00464 0.1438 0.7737 0.0
C608 C 0.94368 0.13626 0.67197 0.0
C609 C 0.97101 0.14214 0.63958 0.0
C610 C 0.99229 0.14355 0.72752 0.0
C611 C 0.00867 0.14891 0.65252 0.0
C612 C 0.04279 0.13755 0.78533 0.0
C613 C 0.98842 0.15009 0.84856 0.0
N614 N 0.01833 0.14915 0.69551 0.0
N615 N 0.97869 0.14986 0.80558 0.0
H616 H 0.59141 0.64027 0.16907 0.0
H617 H 0.40886 0.64001 0.32888 0.0
H618 H 0.4742 0.65139 0.12441 0.0
H619 H 0.52622 0.64995 0.37384 0.0
H620 H 0.43226 0.64128 0.2535 0.0
H621 H 0.56805 0.64096 0.24448 0.0
C622 C 0.56084 0.64294 0.17502 0.0
C623 C 0.53481 0.64577 0.14019 0.0
C624 C 0.45282 0.64328 0.27994 0.0
C625 C 0.50786 0.64634 0.22645 0.0
C626 C 0.43948 0.64251 0.323 0.0
C627 C 0.46553 0.64487 0.3579 0.0
C628 C 0.49252 0.64613 0.27168 0.0
C629 C 0.50495 0.64808 0.34813 0.0
C630 C 0.54752 0.64336 0.2181 0.0
C631 C 0.49545 0.64915 0.15006 0.0
N632 N 0.51722 0.64847 0.30602 0.0
N633 N 0.48319 0.6492 0.19219 0.0
H634 H 0.47336 0.3437 0.37354 0.0
H635 H 0.52798 0.3423 0.12085 0.0
H636 H 0.5899 0.35426 0.32621 0.0
H637 H 0.41172 0.35487 0.1677 0.0
H638 H 0.5508 0.34145 0.19594 0.0
H639 H 0.45037 0.34263 0.29847 0.0
C640 C 0.49424 0.34572 0.34742 0.0
C641 C 0.53376 0.34914 0.35637 0.0
C642 C 0.52031 0.34438 0.1898 0.0
C643 C 0.50732 0.34782 0.27008 0.0
C644 C 0.50712 0.34479 0.14686 0.0
C645 C 0.46774 0.34874 0.13776 0.0
C646 C 0.49401 0.3477 0.22412 0.0
C647 C 0.44228 0.35183 0.17307 0.0
C648 C 0.48096 0.34518 0.30451 0.0
C649 C 0.55923 0.35164 0.32096 0.0
N650 N 0.45587 0.3512 0.21473 0.0
N651 N 0.54556 0.35087 0.27935 0.0
H652 H 0.53455 0.34085 0.87081 0.0
H653 H 0.46841 0.34094 0.62353 0.0
H654 H 0.4193 0.36433 0.83337 0.0
H655 H 0.58411 0.36361 0.66073 0.0
H656 H 0.44989 0.34058 0.70065 0.0
H657 H 0.55316 0.34029 0.7937 0.0
C658 C 0.51309 0.34569 0.84632 0.0
C659 C 0.47531 0.35266 0.85835 0.0
C660 C 0.4793 0.34559 0.69183 0.0
C661 C 0.49638 0.35177 0.77046 0.0
C662 C 0.48999 0.34564 0.64797 0.0
C663 C 0.52788 0.35232 0.63586 0.0
C664 C 0.50688 0.35168 0.72378 0.0
C665 C 0.55459 0.35845 0.66878 0.0
C666 C 0.52383 0.34553 0.80247 0.0
C667 C 0.44875 0.35896 0.82538 0.0
N668 N 0.54365 0.35779 0.71141 0.0
N669 N 0.45972 0.35816 0.78277 0.0
H670 H 0.58415 0.63148 0.83631 0.0
H671 H 0.41542 0.63119 0.66198 0.0
H672 H 0.46805 0.65437 0.87117 0.0
H673 H 0.53171 0.65362 0.62694 0.0
H674 H 0.43404 0.63266 0.73935 0.0
H675 H 0.56548 0.63256 0.75896 0.0
C676 C 0.55479 0.63676 0.82766 0.0
C677 C 0.52762 0.64292 0.86006 0.0
C678 C 0.45533 0.63736 0.71461 0.0
C679 C 0.50603 0.64369 0.77218 0.0
C680 C 0.4448 0.63644 0.6706 0.0
C681 C 0.47205 0.64236 0.63814 0.0
C682 C 0.49356 0.64358 0.72603 0.0
C683 C 0.50975 0.64909 0.651 0.0
C684 C 0.54423 0.63745 0.78365 0.0
C685 C 0.48995 0.64967 0.84715 0.0
N686 N 0.51952 0.64924 0.69396 0.0
N687 N 0.48014 0.6496 0.80419 0.0
H688 H 0.36529 0.25723 0.06036 0.0
H689 H 0.13512 0.23923 0.06121 0.0
H690 H 0.28477 0.32307 0.05133 0.0
H691 H 0.21566 0.1733 0.05442 0.0
H692 H 0.18971 0.2704 0.06464 0.0
H693 H 0.31071 0.22614 0.06518 0.0
C694 C 0.3362 0.26516 0.05964 0.0
C695 C 0.32962 0.29276 0.05521 0.0
C696 C 0.19537 0.24909 0.06257 0.0
C697 C 0.2671 0.25738 0.06066 0.0
C698 C 0.16422 0.2313 0.06072 0.0
C699 C 0.1708 0.20364 0.05729 0.0
C700 C 0.23332 0.23911 0.06112 0.0
C701 C 0.20916 0.19448 0.05673 0.0
C702 C 0.30505 0.24741 0.0623 0.0
C703 C 0.29127 0.30192 0.05443 0.0
N704 N 0.23891 0.21216 0.05852 0.0
N705 N 0.26151 0.28429 0.05702 0.0
H706 H 0.63544 0.73821 0.0613 0.0
H707 H 0.86536 0.75764 0.06123 0.0
H708 H 0.7168 0.67281 0.0536 0.0
H709 H 0.78401 0.823 0.05261 0.0
H710 H 0.81117 0.72618 0.06556 0.0
H711 H 0.68962 0.76969 0.06528 0.0
C712 C 0.66463 0.73046 0.06072 0.0
C713 C 0.67157 0.70286 0.05688 0.0
C714 C 0.80524 0.74744 0.06287 0.0
C715 C 0.73363 0.73868 0.06134 0.0
C716 C 0.83616 0.76538 0.06051 0.0
C717 C 0.82923 0.79296 0.05633 0.0
C718 C 0.76717 0.75717 0.0612 0.0
C719 C 0.79077 0.80189 0.05551 0.0
C720 C 0.69556 0.74842 0.06288 0.0
C721 C 0.71004 0.69394 0.05623 0.0
N722 N 0.76123 0.78405 0.05782 0.0
N723 N 0.73957 0.71178 0.05833 0.0
H724 H 0.13542 0.75686 0.43518 0.0
H725 H 0.36526 0.73737 0.43516 0.0
H726 H 0.21701 0.82221 0.44298 0.0
H727 H 0.28365 0.67204 0.4432 0.0
H728 H 0.31119 0.76885 0.43049 0.0
H729 H 0.18949 0.72538 0.43058 0.0
C730 C 0.16464 0.7646 0.43564 0.0
C731 C 0.17168 0.79217 0.43974 0.0
C732 C 0.30518 0.7476 0.4331 0.0
C733 C 0.2336 0.75637 0.43457 0.0
C734 C 0.33604 0.72964 0.43566 0.0
C735 C 0.32899 0.70207 0.43985 0.0
C736 C 0.26707 0.73788 0.43459 0.0
C737 C 0.2905 0.69315 0.44035 0.0
C738 C 0.1955 0.74664 0.43312 0.0
C739 C 0.21017 0.80109 0.44019 0.0
N740 N 0.26104 0.711 0.43789 0.0
N741 N 0.23964 0.78325 0.43777 0.0
H742 H 0.63478 0.25672 0.43431 0.0
H743 H 0.86457 0.23699 0.43503 0.0
H744 H 0.71653 0.32205 0.44 0.0
H745 H 0.78282 0.17184 0.44489 0.0
H746 H 0.81058 0.26846 0.42938 0.0
H747 H 0.68878 0.22513 0.43062 0.0
C748 C 0.66403 0.26442 0.43448 0.0
C749 C 0.67114 0.29203 0.43775 0.0
C750 C 0.80451 0.24725 0.43261 0.0
C751 C 0.73297 0.2561 0.43364 0.0
C752 C 0.83533 0.22929 0.43575 0.0
C753 C 0.82822 0.20178 0.44071 0.0
C754 C 0.76639 0.23758 0.43431 0.0
C755 C 0.78971 0.19291 0.44144 0.0
C756 C 0.69484 0.2464 0.43249 0.0
C757 C 0.70965 0.30091 0.43786 0.0
N758 N 0.76029 0.21075 0.43841 0.0
N759 N 0.73907 0.28301 0.43599 0.0
loop_
_geom_bond_atom_site_label_1
_geom_bond_atom_site_label_2
_geom_bond_distance
_geom_bond_site_symmetry_2
_ccdc_geom_bond_type
Co0 O2 2.125 1_654 S
Co0 O8 2.090 1_655 S
Co0 O11 2.076 1_554 S
Co0 O24 2.093 1_654 S
Co0 N41 2.156 . S
Co0 N49 2.232 . S
Co1 O2 2.160 1_554 S
Co1 O7 2.058 . S
Co1 O17 2.057 . S
Co1 O32 2.037 . S
Co1 N36 2.145 . S
Co1 N57 2.257 1_554 S
O2 Co0 2.125 1_456 S
O2 Co1 2.160 1_556 S
C3 O4 1.278 . S
C3 O11 1.224 1_455 S
O4 C3 1.278 . S
C5 O6 1.245 . S
C5 O17 1.232 . S
O6 C5 1.245 . S
O7 Co1 2.058 . S
O7 C33 1.269 . S
O8 Co0 2.090 1_455 S
O8 C33 1.257 . S
H9 C34 0.930 . S
H10 C40 0.930 1_455 S
O11 Co0 2.076 1_556 S
O11 C3 1.224 1_655 S
H12 C44 0.929 . S
H13 C46 0.930 . S
H14 C47 0.930 . S
H15 C45 0.929 . S
H16 C48 0.928 . S
O17 Co1 2.057 . S
O17 C5 1.232 . S
H18 C37 0.929 . S
H19 C38 0.929 . S
H20 C50 0.931 . S
H21 C42 0.929 . S
H22 C51 0.930 . S
H23 C43 0.931 . S
O24 Co0 2.093 1_456 S
O24 C52 1.214 1_556 S
H25 C53 0.929 . S
H26 C54 0.929 1_554 S
H27 C55 0.930 . S
H28 C56 0.929 . S
H29 C58 0.930 . S
H30 C35 0.930 . S
H31 C39 0.930 . S
O32 Co1 2.037 . S
O32 C52 1.234 . S
C33 O7 1.269 . S
C33 O8 1.257 . S
C34 H9 0.930 . S
C34 C37 1.388 . S
C34 C39 1.418 . S
C35 H30 0.930 . S
C35 C38 1.404 . S
C35 C39 1.353 . S
N36 Co1 2.145 . S
N36 C37 1.397 . S
N36 C38 1.334 . S
C37 H18 0.929 . S
C37 C34 1.388 . S
C37 N36 1.397 . S
C38 H19 0.929 . S
C38 C35 1.404 . S
C38 N36 1.334 . S
C39 H31 0.930 . S
C39 C34 1.418 . S
C39 C35 1.353 . S
C40 H10 0.930 1_655 S
C40 N41 1.330 1_556 S
C40 C42 1.446 . S
N41 Co0 2.156 . S
N41 C40 1.330 1_554 S
N41 C45 1.418 . S
C42 H21 0.929 . S
C42 C40 1.446 . S
C42 C43 1.332 1_556 S
C43 H23 0.931 . S
C43 C42 1.332 1_554 S
C43 C44 1.267 . S
C44 H12 0.929 . S
C44 C43 1.267 . S
C44 C45 1.251 . S
C45 H15 0.929 . S
C45 N41 1.418 . S
C45 C44 1.251 . S
C46 H13 0.930 . S
C46 C48 1.406 . S
C46 C51 1.261 1_556 S
C47 H14 0.930 . S
C47 N49 1.325 . S
C47 C50 1.357 . S
C48 H16 0.928 . S
C48 C46 1.406 . S
C48 N49 1.261 1_556 S
N49 Co0 2.232 . S
N49 C47 1.325 . S
N49 C48 1.261 1_554 S
C50 H20 0.931 . S
C50 C47 1.357 . S
C50 C51 1.312 . S
C51 H22 0.930 . S
C51 C46 1.261 1_554 S
C51 C50 1.312 . S
C52 O24 1.214 1_554 S
C52 O32 1.234 . S
C53 H25 0.929 . S
C53 C56 1.391 . S
C53 C58 1.391 . S
C54 H26 0.929 1_556 S
C54 C55 1.390 . S
C54 N57 1.391 . S
C55 H27 0.930 . S
C55 C54 1.390 . S
C55 C56 1.392 . S
C56 H28 0.929 . S
C56 C53 1.391 . S
C56 C55 1.392 . S
N57 Co1 2.257 1_556 S
N57 C54 1.391 . S
N57 C58 1.388 . S
C58 H29 0.930 . S
C58 C53 1.391 . S
C58 N57 1.388 . S
Co59 O61 2.125 1_454 S
Co59 O67 2.090 1_455 S
Co59 O70 2.076 1_554 S
Co59 O83 2.093 1_454 S
Co59 N100 2.156 . S
Co59 N108 2.232 . S
Co60 O61 2.160 1_554 S
Co60 O66 2.058 . S
Co60 O76 2.057 . S
Co60 O91 2.037 . S
Co60 N95 2.145 . S
Co60 N116 2.257 1_554 S
O61 Co59 2.125 1_656 S
O61 Co60 2.160 1_556 S
C62 O63 1.278 . S
C62 O70 1.224 1_655 S
O63 C62 1.278 . S
C64 O65 1.245 . S
C64 O76 1.232 . S
O65 C64 1.245 . S
O66 Co60 2.058 . S
O66 C92 1.269 . S
O67 Co59 2.090 1_655 S
O67 C92 1.257 . S
H68 C93 0.930 . S
H69 C99 0.930 1_655 S
O70 Co59 2.076 1_556 S
O70 C62 1.224 1_455 S
H71 C103 0.929 . S
H72 C105 0.930 . S
H73 C106 0.930 . S
H74 C104 0.929 . S
H75 C107 0.928 . S
O76 Co60 2.057 . S
O76 C64 1.232 . S
H77 C96 0.929 . S
H78 C97 0.929 . S
H79 C109 0.931 . S
H80 C101 0.929 . S
H81 C110 0.930 . S
H82 C102 0.931 . S
O83 Co59 2.093 1_656 S
O83 C111 1.214 1_556 S
H84 C112 0.929 . S
H85 C113 0.929 1_554 S
H86 C114 0.930 . S
H87 C115 0.929 . S
H88 C117 0.930 . S
H89 C94 0.930 . S
H90 C98 0.930 . S
O91 Co60 2.037 . S
O91 C111 1.234 . S
C92 O66 1.269 . S
C92 O67 1.257 . S
C93 H68 0.930 . S
C93 C96 1.388 . S
C93 C98 1.418 . S
C94 H89 0.930 . S
C94 C97 1.404 . S
C94 C98 1.353 . S
N95 Co60 2.145 . S
N95 C96 1.397 . S
N95 C97 1.334 . S
C96 H77 0.929 . S
C96 C93 1.388 . S
C96 N95 1.397 . S
C97 H78 0.929 . S
C97 C94 1.404 . S
C97 N95 1.334 . S
C98 H90 0.930 . S
C98 C93 1.418 . S
C98 C94 1.353 . S
C99 H69 0.930 1_455 S
C99 N100 1.330 1_556 S
C99 C101 1.446 . S
N100 Co59 2.156 . S
N100 C99 1.330 1_554 S
N100 C104 1.418 . S
C101 H80 0.929 . S
C101 C99 1.446 . S
C101 C102 1.332 1_556 S
C102 H82 0.931 . S
C102 C101 1.332 1_554 S
C102 C103 1.267 . S
C103 H71 0.929 . S
C103 C102 1.267 . S
C103 C104 1.251 . S
C104 H74 0.929 . S
C104 N100 1.418 . S
C104 C103 1.251 . S
C105 H72 0.930 . S
C105 C107 1.406 . S
C105 C110 1.261 1_556 S
C106 H73 0.930 . S
C106 N108 1.325 . S
C106 C109 1.357 . S
C107 H75 0.928 . S
C107 C105 1.406 . S
C107 N108 1.261 1_556 S
N108 Co59 2.232 . S
N108 C106 1.325 . S
N108 C107 1.261 1_554 S
C109 H79 0.931 . S
C109 C106 1.357 . S
C109 C110 1.312 . S
C110 H81 0.930 . S
C110 C105 1.261 1_554 S
C110 C109 1.312 . S
C111 O83 1.214 1_554 S
C111 O91 1.234 . S
C112 H84 0.929 . S
C112 C115 1.391 . S
C112 C117 1.391 . S
C113 H85 0.929 1_556 S
C113 C114 1.390 . S
C113 N116 1.391 . S
C114 H86 0.930 . S
C114 C113 1.390 . S
C114 C115 1.392 . S
C115 H87 0.929 . S
C115 C112 1.391 . S
C115 C114 1.392 . S
N116 Co60 2.257 1_556 S
N116 C113 1.391 . S
N116 C117 1.388 . S
C117 H88 0.930 . S
C117 C112 1.391 . S
C117 N116 1.388 . S
Co118 O120 2.126 1_655 S
Co118 O126 2.072 1_655 S
Co118 O129 2.094 . S
Co118 O142 2.093 1_655 S
Co118 N159 2.156 . S
Co118 N167 2.230 . S
Co119 O120 2.160 . S
Co119 O125 2.058 . S
Co119 O135 2.057 . S
Co119 O150 2.037 . S
Co119 N154 2.145 . S
Co119 N175 2.257 . S
O120 Co118 2.126 1_455 S
O120 Co119 2.160 . S
C121 O122 1.278 . S
C121 O129 1.224 1_455 S
O122 C121 1.278 . S
C123 O124 1.245 . S
C123 O135 1.232 . S
O124 C123 1.245 . S
O125 Co119 2.058 . S
O125 C151 1.269 . S
O126 Co118 2.072 1_455 S
O126 C151 1.257 . S
H127 C152 0.930 . S
H128 C158 0.930 1_455 S
O129 Co118 2.094 . S
O129 C121 1.224 1_655 S
H130 C162 0.929 . S
H131 C164 0.930 . S
H132 C165 0.930 . S
H133 C163 0.929 . S
H134 C166 0.928 . S
O135 Co119 2.057 . S
O135 C123 1.232 . S
H136 C155 0.929 . S
H137 C156 0.929 . S
H138 C168 0.931 . S
H139 C160 0.929 . S
H140 C169 0.930 . S
H141 C161 0.931 . S
O142 Co118 2.093 1_455 S
O142 C170 1.214 . S
H143 C171 0.929 . S
H144 C172 0.929 . S
H145 C173 0.930 . S
H146 C174 0.929 . S
H147 C176 0.930 . S
H148 C153 0.930 . S
H149 C157 0.930 . S
O150 Co119 2.037 . S
O150 C170 1.234 . S
C151 O125 1.269 . S
C151 O126 1.257 . S
C152 H127 0.930 . S
C152 C155 1.388 . S
C152 C157 1.418 . S
C153 H148 0.930 . S
C153 C156 1.404 . S
C153 C157 1.353 . S
N154 Co119 2.145 . S
N154 C155 1.397 . S
N154 C156 1.334 . S
C155 H136 0.929 . S
C155 C152 1.388 . S
C155 N154 1.397 . S
C156 H137 0.929 . S
C156 C153 1.404 . S
C156 N154 1.334 . S
C157 H149 0.930 . S
C157 C152 1.418 . S
C157 C153 1.353 . S
C158 H128 0.930 1_655 S
C158 N159 1.330 . S
C158 C160 1.446 . S
N159 Co118 2.156 . S
N159 C158 1.330 . S
N159 C163 1.418 . S
C160 H139 0.929 . S
C160 C158 1.446 . S
C160 C161 1.332 . S
C161 H141 0.931 . S
C161 C160 1.332 . S
C161 C162 1.267 . S
C162 H130 0.929 . S
C162 C161 1.267 . S
C162 C163 1.251 . S
C163 H133 0.929 . S
C163 N159 1.418 . S
C163 C162 1.251 . S
C164 H131 0.930 . S
C164 C166 1.406 . S
C164 C169 1.261 . S
C165 H132 0.930 . S
C165 N167 1.325 . S
C165 C168 1.357 . S
C166 H134 0.928 . S
C166 C164 1.406 . S
C166 N167 1.261 . S
N167 Co118 2.230 . S
N167 C165 1.325 . S
N167 C166 1.261 . S
C168 H138 0.931 . S
C168 C165 1.357 . S
C168 C169 1.312 . S
C169 H140 0.930 . S
C169 C164 1.261 . S
C169 C168 1.312 . S
C170 O142 1.214 . S
C170 O150 1.234 . S
C171 H143 0.929 . S
C171 C174 1.391 . S
C171 C176 1.391 . S
C172 H144 0.929 . S
C172 C173 1.390 . S
C172 N175 1.391 . S
C173 H145 0.930 . S
C173 C172 1.390 . S
C173 C174 1.392 . S
C174 H146 0.929 . S
C174 C171 1.391 . S
C174 C173 1.392 . S
N175 Co119 2.257 . S
N175 C172 1.391 . S
N175 C176 1.388 . S
C176 H147 0.930 . S
C176 C171 1.391 . S
C176 N175 1.388 . S
Co177 O179 2.126 1_455 S
Co177 O185 2.072 1_455 S
Co177 O188 2.094 . S
Co177 O201 2.093 1_455 S
Co177 N218 2.156 . S
Co177 N226 2.230 . S
Co178 O179 2.160 . S
Co178 O184 2.058 . S
Co178 O194 2.057 . S
Co178 O209 2.037 . S
Co178 N213 2.145 . S
Co178 N234 2.257 . S
O179 Co177 2.126 1_655 S
O179 Co178 2.160 . S
C180 O181 1.278 . S
C180 O188 1.224 1_655 S
O181 C180 1.278 . S
C182 O183 1.245 . S
C182 O194 1.232 . S
O183 C182 1.245 . S
O184 Co178 2.058 . S
O184 C210 1.269 . S
O185 Co177 2.072 1_655 S
O185 C210 1.257 . S
H186 C211 0.930 . S
H187 C217 0.930 1_655 S
O188 Co177 2.094 . S
O188 C180 1.224 1_455 S
H189 C221 0.929 . S
H190 C223 0.930 . S
H191 C224 0.930 . S
H192 C222 0.929 . S
H193 C225 0.928 . S
O194 Co178 2.057 . S
O194 C182 1.232 . S
H195 C214 0.929 . S
H196 C215 0.929 . S
H197 C227 0.931 . S
H198 C219 0.929 . S
H199 C228 0.930 . S
H200 C220 0.931 . S
O201 Co177 2.093 1_655 S
O201 C229 1.214 . S
H202 C230 0.929 . S
H203 C231 0.929 . S
H204 C232 0.930 . S
H205 C233 0.929 . S
H206 C235 0.930 . S
H207 C212 0.930 . S
H208 C216 0.930 . S
O209 Co178 2.037 . S
O209 C229 1.234 . S
C210 O184 1.269 . S
C210 O185 1.257 . S
C211 H186 0.930 . S
C211 C214 1.388 . S
C211 C216 1.418 . S
C212 H207 0.930 . S
C212 C215 1.404 . S
C212 C216 1.353 . S
N213 Co178 2.145 . S
N213 C214 1.397 . S
N213 C215 1.334 . S
C214 H195 0.929 . S
C214 C211 1.388 . S
C214 N213 1.397 . S
C215 H196 0.929 . S
C215 C212 1.404 . S
C215 N213 1.334 . S
C216 H208 0.930 . S
C216 C211 1.418 . S
C216 C212 1.353 . S
C217 H187 0.930 1_455 S
C217 N218 1.330 . S
C217 C219 1.446 . S
N218 Co177 2.156 . S
N218 C217 1.330 . S
N218 C222 1.418 . S
C219 H198 0.929 . S
C219 C217 1.446 . S
C219 C220 1.332 . S
C220 H200 0.931 . S
C220 C219 1.332 . S
C220 C221 1.267 . S
C221 H189 0.929 . S
C221 C220 1.267 . S
C221 C222 1.251 . S
C222 H192 0.929 . S
C222 N218 1.418 . S
C222 C221 1.251 . S
C223 H190 0.930 . S
C223 C225 1.406 . S
C223 C228 1.261 . S
C224 H191 0.930 . S
C224 N226 1.325 . S
C224 C227 1.357 . S
C225 H193 0.928 . S
C225 C223 1.406 . S
C225 N226 1.261 . S
N226 Co177 2.230 . S
N226 C224 1.325 . S
N226 C225 1.261 . S
C227 H197 0.931 . S
C227 C224 1.357 . S
C227 C228 1.312 . S
C228 H199 0.930 . S
C228 C223 1.261 . S
C228 C227 1.312 . S
C229 O201 1.214 . S
C229 O209 1.234 . S
C230 H202 0.929 . S
C230 C233 1.391 . S
C230 C235 1.391 . S
C231 H203 0.929 . S
C231 C232 1.390 . S
C231 N234 1.391 . S
C232 H204 0.930 . S
C232 C231 1.390 . S
C232 C233 1.392 . S
C233 H205 0.929 . S
C233 C230 1.391 . S
C233 C232 1.392 . S
N234 Co178 2.257 . S
N234 C231 1.391 . S
N234 C235 1.388 . S
C235 H206 0.930 . S
C235 C230 1.391 . S
C235 N234 1.388 . S
Co236 O238 2.142 1_554 S
Co236 O244 2.092 . S
Co236 O247 2.075 1_554 S
Co236 O260 2.096 1_554 S
Co236 N277 2.151 . S
Co236 N285 2.216 . S
Co237 O238 2.160 1_554 S
Co237 O243 2.058 . S
Co237 O253 2.057 . S
Co237 O268 2.037 . S
Co237 N272 2.145 . S
Co237 N293 2.257 1_554 S
O238 Co236 2.142 1_556 S
O238 Co237 2.160 1_556 S
C239 O240 1.278 . S
C239 O247 1.224 . S
O240 C239 1.278 . S
C241 O242 1.245 . S
C241 O253 1.232 . S
O242 C241 1.245 . S
O243 Co237 2.058 . S
O243 C269 1.269 . S
O244 Co236 2.092 . S
O244 C269 1.257 . S
H245 C270 0.930 . S
H246 C276 0.930 . S
O247 Co236 2.075 1_556 S
O247 C239 1.224 . S
H248 C280 0.929 . S
H249 C282 0.930 . S
H250 C283 0.930 . S
H251 C281 0.929 . S
H252 C284 0.928 . S
O253 Co237 2.057 . S
O253 C241 1.232 . S
H254 C273 0.929 . S
H255 C274 0.929 . S
H256 C286 0.931 . S
H257 C278 0.929 . S
H258 C287 0.930 . S
H259 C279 0.931 . S
O260 Co236 2.096 1_556 S
O260 C288 1.214 1_556 S
H261 C289 0.929 . S
H262 C290 0.929 1_554 S
H263 C291 0.930 . S
H264 C292 0.929 . S
H265 C294 0.930 . S
H266 C271 0.930 . S
H267 C275 0.930 . S
O268 Co237 2.037 . S
O268 C288 1.234 . S
C269 O243 1.269 . S
C269 O244 1.257 . S
C270 H245 0.930 . S
C270 C273 1.388 . S
C270 C275 1.418 . S
C271 H266 0.930 . S
C271 C274 1.404 . S
C271 C275 1.353 . S
N272 Co237 2.145 . S
N272 C273 1.397 . S
N272 C274 1.334 . S
C273 H254 0.929 . S
C273 C270 1.388 . S
C273 N272 1.397 . S
C274 H255 0.929 . S
C274 C271 1.404 . S
C274 N272 1.334 . S
C275 H267 0.930 . S
C275 C270 1.418 . S
C275 C271 1.353 . S
C276 H246 0.930 . S
C276 N277 1.330 1_556 S
C276 C278 1.446 . S
N277 Co236 2.151 . S
N277 C276 1.330 1_554 S
N277 C281 1.418 . S
C278 H257 0.929 . S
C278 C276 1.446 . S
C278 C279 1.332 1_556 S
C279 H259 0.931 . S
C279 C278 1.332 1_554 S
C279 C280 1.267 . S
C280 H248 0.929 . S
C280 C279 1.267 . S
C280 C281 1.251 . S
C281 H251 0.929 . S
C281 N277 1.418 . S
C281 C280 1.251 . S
C282 H249 0.930 . S
C282 C284 1.406 . S
C282 C287 1.261 1_556 S
C283 H250 0.930 . S
C283 N285 1.325 . S
C283 C286 1.357 . S
C284 H252 0.928 . S
C284 C282 1.406 . S
C284 N285 1.261 1_556 S
N285 Co236 2.216 . S
N285 C283 1.325 . S
N285 C284 1.261 1_554 S
C286 H256 0.931 . S
C286 C283 1.357 . S
C286 C287 1.312 . S
C287 H258 0.930 . S
C287 C282 1.261 1_554 S
C287 C286 1.312 . S
C288 O260 1.214 1_554 S
C288 O268 1.234 . S
C289 H261 0.929 . S
C289 C292 1.391 . S
C289 C294 1.391 . S
C290 H262 0.929 1_556 S
C290 C291 1.390 . S
C290 N293 1.391 . S
C291 H263 0.930 . S
C291 C290 1.390 . S
C291 C292 1.392 . S
C292 H264 0.929 . S
C292 C289 1.391 . S
C292 C291 1.392 . S
N293 Co237 2.257 1_556 S
N293 C290 1.391 . S
N293 C294 1.388 . S
C294 H265 0.930 . S
C294 C289 1.391 . S
C294 N293 1.388 . S
Co295 O297 2.142 1_554 S
Co295 O303 2.092 . S
Co295 O306 2.075 1_554 S
Co295 O319 2.096 1_554 S
Co295 N336 2.151 . S
Co295 N344 2.216 . S
Co296 O297 2.160 1_554 S
Co296 O302 2.058 . S
Co296 O312 2.057 . S
Co296 O327 2.037 . S
Co296 N331 2.145 . S
Co296 N352 2.257 1_554 S
O297 Co295 2.142 1_556 S
O297 Co296 2.160 1_556 S
C298 O299 1.278 . S
C298 O306 1.224 . S
O299 C298 1.278 . S
C300 O301 1.245 . S
C300 O312 1.232 . S
O301 C300 1.245 . S
O302 Co296 2.058 . S
O302 C328 1.269 . S
O303 Co295 2.092 . S
O303 C328 1.257 . S
H304 C329 0.930 . S
H305 C335 0.930 . S
O306 Co295 2.075 1_556 S
O306 C298 1.224 . S
H307 C339 0.929 . S
H308 C341 0.930 . S
H309 C342 0.930 . S
H310 C340 0.929 . S
H311 C343 0.928 . S
O312 Co296 2.057 . S
O312 C300 1.232 . S
H313 C332 0.929 . S
H314 C333 0.929 . S
H315 C345 0.931 . S
H316 C337 0.929 . S
H317 C346 0.930 . S
H318 C338 0.931 . S
O319 Co295 2.096 1_556 S
O319 C347 1.214 1_556 S
H320 C348 0.929 . S
H321 C349 0.929 1_554 S
H322 C350 0.930 . S
H323 C351 0.929 . S
H324 C353 0.930 . S
H325 C330 0.930 . S
H326 C334 0.930 . S
O327 Co296 2.037 . S
O327 C347 1.234 . S
C328 O302 1.269 . S
C328 O303 1.257 . S
C329 H304 0.930 . S
C329 C332 1.388 . S
C329 C334 1.418 . S
C330 H325 0.930 . S
C330 C333 1.404 . S
C330 C334 1.353 . S
N331 Co296 2.145 . S
N331 C332 1.397 . S
N331 C333 1.334 . S
C332 H313 0.929 . S
C332 C329 1.388 . S
C332 N331 1.397 . S
C333 H314 0.929 . S
C333 C330 1.404 . S
C333 N331 1.334 . S
C334 H326 0.930 . S
C334 C329 1.418 . S
C334 C330 1.353 . S
C335 H305 0.930 . S
C335 N336 1.330 1_556 S
C335 C337 1.446 . S
N336 Co295 2.151 . S
N336 C335 1.330 1_554 S
N336 C340 1.418 . S
C337 H316 0.929 . S
C337 C335 1.446 . S
C337 C338 1.332 1_556 S
C338 H318 0.931 . S
C338 C337 1.332 1_554 S
C338 C339 1.267 . S
C339 H307 0.929 . S
C339 C338 1.267 . S
C339 C340 1.251 . S
C340 H310 0.929 . S
C340 N336 1.418 . S
C340 C339 1.251 . S
C341 H308 0.930 . S
C341 C343 1.406 . S
C341 C346 1.261 1_556 S
C342 H309 0.930 . S
C342 N344 1.325 . S
C342 C345 1.357 . S
C343 H311 0.928 . S
C343 C341 1.406 . S
C343 N344 1.261 1_556 S
N344 Co295 2.216 . S
N344 C342 1.325 . S
N344 C343 1.261 1_554 S
C345 H315 0.931 . S
C345 C342 1.357 . S
C345 C346 1.312 . S
C346 H317 0.930 . S
C346 C341 1.261 1_554 S
C346 C345 1.312 . S
C347 O319 1.214 1_554 S
C347 O327 1.234 . S
C348 H320 0.929 . S
C348 C351 1.391 . S
C348 C353 1.391 . S
C349 H321 0.929 1_556 S
C349 C350 1.390 . S
C349 N352 1.391 . S
C350 H322 0.930 . S
C350 C349 1.390 . S
C350 C351 1.392 . S
C351 H323 0.929 . S
C351 C348 1.391 . S
C351 C350 1.392 . S
N352 Co296 2.257 1_556 S
N352 C349 1.391 . S
N352 C353 1.388 . S
C353 H324 0.930 . S
C353 C348 1.391 . S
C353 N352 1.388 . S
Co354 O356 2.143 . S
Co354 O362 2.074 . S
Co354 O365 2.093 . S
Co354 O378 2.097 . S
Co354 N395 2.151 . S
Co354 N403 2.214 . S
Co355 O356 2.160 . S
Co355 O361 2.058 . S
Co355 O371 2.057 . S
Co355 O386 2.037 . S
Co355 N390 2.145 . S
Co355 N411 2.257 . S
O356 Co354 2.143 . S
O356 Co355 2.160 . S
C357 O358 1.278 . S
C357 O365 1.224 . S
O358 C357 1.278 . S
C359 O360 1.245 . S
C359 O371 1.232 . S
O360 C359 1.245 . S
O361 Co355 2.058 . S
O361 C387 1.269 . S
O362 Co354 2.074 . S
O362 C387 1.257 . S
H363 C388 0.930 . S
H364 C394 0.930 . S
O365 Co354 2.093 . S
O365 C357 1.224 . S
H366 C398 0.929 . S
H367 C400 0.930 . S
H368 C401 0.930 . S
H369 C399 0.929 . S
H370 C402 0.928 . S
O371 Co355 2.057 . S
O371 C359 1.232 . S
H372 C391 0.929 . S
H373 C392 0.929 . S
H374 C404 0.931 . S
H375 C396 0.929 . S
H376 C405 0.930 . S
H377 C397 0.931 . S
O378 Co354 2.097 . S
O378 C406 1.214 . S
H379 C407 0.929 . S
H380 C408 0.929 . S
H381 C409 0.930 . S
H382 C410 0.929 . S
H383 C412 0.930 . S
H384 C389 0.930 . S
H385 C393 0.930 . S
O386 Co355 2.037 . S
O386 C406 1.234 . S
C387 O361 1.269 . S
C387 O362 1.257 . S
C388 H363 0.930 . S
C388 C391 1.388 . S
C388 C393 1.418 . S
C389 H384 0.930 . S
C389 C392 1.404 . S
C389 C393 1.353 . S
N390 Co355 2.145 . S
N390 C391 1.397 . S
N390 C392 1.334 . S
C391 H372 0.929 . S
C391 C388 1.388 . S
C391 N390 1.397 . S
C392 H373 0.929 . S
C392 C389 1.404 . S
C392 N390 1.334 . S
C393 H385 0.930 . S
C393 C388 1.418 . S
C393 C389 1.353 . S
C394 H364 0.930 . S
C394 N395 1.330 . S
C394 C396 1.446 . S
N395 Co354 2.151 . S
N395 C394 1.330 . S
N395 C399 1.418 . S
C396 H375 0.929 . S
C396 C394 1.446 . S
C396 C397 1.332 . S
C397 H377 0.931 . S
C397 C396 1.332 . S
C397 C398 1.267 . S
C398 H366 0.929 . S
C398 C397 1.267 . S
C398 C399 1.251 . S
C399 H369 0.929 . S
C399 N395 1.418 . S
C399 C398 1.251 . S
C400 H367 0.930 . S
C400 C402 1.406 . S
C400 C405 1.261 . S
C401 H368 0.930 . S
C401 N403 1.325 . S
C401 C404 1.357 . S
C402 H370 0.928 . S
C402 C400 1.406 . S
C402 N403 1.261 . S
N403 Co354 2.214 . S
N403 C401 1.325 . S
N403 C402 1.261 . S
C404 H374 0.931 . S
C404 C401 1.357 . S
C404 C405 1.312 . S
C405 H376 0.930 . S
C405 C400 1.261 . S
C405 C404 1.312 . S
C406 O378 1.214 . S
C406 O386 1.234 . S
C407 H379 0.929 . S
C407 C410 1.391 . S
C407 C412 1.391 . S
C408 H380 0.929 . S
C408 C409 1.390 . S
C408 N411 1.391 . S
C409 H381 0.930 . S
C409 C408 1.390 . S
C409 C410 1.392 . S
C410 H382 0.929 . S
C410 C407 1.391 . S
C410 C409 1.392 . S
N411 Co355 2.257 . S
N411 C408 1.391 . S
N411 C412 1.388 . S
C412 H383 0.930 . S
C412 C407 1.391 . S
C412 N411 1.388 . S
Co413 O415 2.143 . S
Co413 O421 2.074 . S
Co413 O424 2.093 . S
Co413 O437 2.097 . S
Co413 N454 2.151 . S
Co413 N462 2.214 . S
Co414 O415 2.160 . S
Co414 O420 2.058 . S
Co414 O430 2.057 . S
Co414 O445 2.037 . S
Co414 N449 2.145 . S
Co414 N470 2.257 . S
O415 Co413 2.143 . S
O415 Co414 2.160 . S
C416 O417 1.278 . S
C416 O424 1.224 . S
O417 C416 1.278 . S
C418 O419 1.245 . S
C418 O430 1.232 . S
O419 C418 1.245 . S
O420 Co414 2.058 . S
O420 C446 1.269 . S
O421 Co413 2.074 . S
O421 C446 1.257 . S
H422 C447 0.930 . S
H423 C453 0.930 . S
O424 Co413 2.093 . S
O424 C416 1.224 . S
H425 C457 0.929 . S
H426 C459 0.930 . S
H427 C460 0.930 . S
H428 C458 0.929 . S
H429 C461 0.928 . S
O430 Co414 2.057 . S
O430 C418 1.232 . S
H431 C450 0.929 . S
H432 C451 0.929 . S
H433 C463 0.931 . S
H434 C455 0.929 . S
H435 C464 0.930 . S
H436 C456 0.931 . S
O437 Co413 2.097 . S
O437 C465 1.214 . S
H438 C466 0.929 . S
H439 C467 0.929 . S
H440 C468 0.930 . S
H441 C469 0.929 . S
H442 C471 0.930 . S
H443 C448 0.930 . S
H444 C452 0.930 . S
O445 Co414 2.037 . S
O445 C465 1.234 . S
C446 O420 1.269 . S
C446 O421 1.257 . S
C447 H422 0.930 . S
C447 C450 1.388 . S
C447 C452 1.418 . S
C448 H443 0.930 . S
C448 C451 1.404 . S
C448 C452 1.353 . S
N449 Co414 2.145 . S
N449 C450 1.397 . S
N449 C451 1.334 . S
C450 H431 0.929 . S
C450 C447 1.388 . S
C450 N449 1.397 . S
C451 H432 0.929 . S
C451 C448 1.404 . S
C451 N449 1.334 . S
C452 H444 0.930 . S
C452 C447 1.418 . S
C452 C448 1.353 . S
C453 H423 0.930 . S
C453 N454 1.330 . S
C453 C455 1.446 . S
N454 Co413 2.151 . S
N454 C453 1.330 . S
N454 C458 1.418 . S
C455 H434 0.929 . S
C455 C453 1.446 . S
C455 C456 1.332 . S
C456 H436 0.931 . S
C456 C455 1.332 . S
C456 C457 1.267 . S
C457 H425 0.929 . S
C457 C456 1.267 . S
C457 C458 1.251 . S
C458 H428 0.929 . S
C458 N454 1.418 . S
C458 C457 1.251 . S
C459 H426 0.930 . S
C459 C461 1.406 . S
C459 C464 1.261 . S
C460 H427 0.930 . S
C460 N462 1.325 . S
C460 C463 1.357 . S
C461 H429 0.928 . S
C461 C459 1.406 . S
C461 N462 1.261 . S
N462 Co413 2.214 . S
N462 C460 1.325 . S
N462 C461 1.261 . S
C463 H433 0.931 . S
C463 C460 1.357 . S
C463 C464 1.312 . S
C464 H435 0.930 . S
C464 C459 1.261 . S
C464 C463 1.312 . S
C465 O437 1.214 . S
C465 O445 1.234 . S
C466 H438 0.929 . S
C466 C469 1.391 . S
C466 C471 1.391 . S
C467 H439 0.929 . S
C467 C468 1.390 . S
C467 N470 1.391 . S
C468 H440 0.930 . S
C468 C467 1.390 . S
C468 C469 1.392 . S
C469 H441 0.929 . S
C469 C466 1.391 . S
C469 C468 1.392 . S
N470 Co414 2.257 . S
N470 C467 1.391 . S
N470 C471 1.388 . S
C471 H442 0.930 . S
C471 C466 1.391 . S
C471 N470 1.388 . S
H472 C478 0.930 1_455 S
H473 C482 0.930 1_655 S
H474 C487 0.929 . S
H475 C485 0.929 . S
H476 C480 0.929 . S
H477 C486 0.929 . S
C478 H472 0.930 1_655 S
C478 C479 1.367 1_556 S
C478 C486 1.378 1_655 S
C479 C478 1.367 1_554 S
C479 C487 1.433 . S
C480 H476 0.929 . S
C480 C482 1.378 1_655 S
C480 C484 1.350 1_655 S
C481 C484 1.463 1_665 S
C481 C486 1.350 1_654 S
C481 N489 1.427 . S
C482 H473 0.930 1_455 S
C482 C480 1.378 1_455 S
C482 C483 1.367 . S
C483 C482 1.367 . S
C483 C485 1.433 1_554 S
C484 C480 1.350 1_455 S
C484 C481 1.463 1_445 S
C484 N488 1.427 1_554 S
C485 H475 0.929 . S
C485 C483 1.433 1_556 S
C485 N488 1.384 . S
C486 H477 0.929 . S
C486 C478 1.378 1_455 S
C486 C481 1.350 1_456 S
C487 H474 0.929 . S
C487 C479 1.433 . S
C487 N489 1.384 . S
N488 C484 1.427 1_556 S
N488 C485 1.384 . S
N489 C481 1.427 . S
N489 C487 1.384 . S
H490 C496 0.930 . S
H491 C500 0.930 . S
H492 C505 0.929 . S
H493 C503 0.929 . S
H494 C498 0.929 . S
H495 C504 0.929 . S
C496 H490 0.930 . S
C496 C497 1.367 . S
C496 C504 1.378 . S
C497 C496 1.367 . S
C497 C505 1.433 1_455 S
C498 H494 0.929 . S
C498 C500 1.378 . S
C498 C502 1.350 . S
C499 C502 1.463 1_465 S
C499 C504 1.350 . S
C499 N507 1.427 1_455 S
C500 H491 0.930 . S
C500 C498 1.378 . S
C500 C501 1.367 . S
C501 C500 1.367 . S
C501 C503 1.433 1_655 S
C502 C498 1.350 . S
C502 C499 1.463 1_645 S
C502 N506 1.427 1_655 S
C503 H493 0.929 . S
C503 C501 1.433 1_455 S
C503 N506 1.384 . S
C504 H495 0.929 . S
C504 C496 1.378 . S
C504 C499 1.350 . S
C505 H492 0.929 . S
C505 C497 1.433 1_655 S
C505 N507 1.384 . S
N506 C502 1.427 1_455 S
N506 C503 1.384 . S
N507 C499 1.427 1_655 S
N507 C505 1.384 . S
H508 C514 0.930 . S
H509 C518 0.930 . S
H510 C523 0.929 . S
H511 C521 0.929 . S
H512 C516 0.929 . S
H513 C522 0.929 . S
C514 H508 0.930 . S
C514 C515 1.367 . S
C514 C522 1.378 . S
C515 C514 1.367 . S
C515 C523 1.433 1_554 S
C516 H512 0.929 . S
C516 C518 1.378 . S
C516 C520 1.350 1_556 S
C517 C520 1.463 . S
C517 C522 1.350 . S
C517 N525 1.427 1_554 S
C518 H509 0.930 . S
C518 C516 1.378 . S
C518 C519 1.367 1_556 S
C519 C518 1.367 1_554 S
C519 C521 1.433 . S
C520 C516 1.350 1_554 S
C520 C517 1.463 . S
C520 N524 1.427 . S
C521 H511 0.929 . S
C521 C519 1.433 . S
C521 N524 1.384 . S
C522 H513 0.929 . S
C522 C514 1.378 . S
C522 C517 1.350 . S
C523 H510 0.929 . S
C523 C515 1.433 1_556 S
C523 N525 1.384 . S
N524 C520 1.427 . S
N524 C521 1.384 . S
N525 C517 1.427 1_556 S
N525 C523 1.384 . S
H526 C532 0.930 . S
H527 C536 0.930 . S
H528 C541 0.929 . S
H529 C539 0.929 . S
H530 C534 0.929 . S
H531 C540 0.929 . S
C532 H526 0.930 . S
C532 C533 1.367 . S
C532 C540 1.378 . S
C533 C532 1.367 . S
C533 C541 1.433 . S
C534 H530 0.929 . S
C534 C536 1.378 . S
C534 C538 1.350 . S
C535 C538 1.463 . S
C535 C540 1.350 . S
C535 N543 1.427 . S
C536 H527 0.930 . S
C536 C534 1.378 . S
C536 C537 1.367 . S
C537 C536 1.367 . S
C537 C539 1.433 . S
C538 C534 1.350 . S
C538 C535 1.463 . S
C538 N542 1.427 . S
C539 H529 0.929 . S
C539 C537 1.433 . S
C539 N542 1.384 . S
C540 H531 0.929 . S
C540 C532 1.378 . S
C540 C535 1.350 . S
C541 H528 0.929 . S
C541 C533 1.433 . S
C541 N543 1.384 . S
N542 C538 1.427 . S
N542 C539 1.384 . S
N543 C535 1.427 . S
N543 C541 1.384 . S
H544 C550 0.930 . S
H545 C554 0.930 . S
H546 C559 0.929 . S
H547 C557 0.929 . S
H548 C552 0.929 . S
H549 C558 0.929 . S
C550 H544 0.930 . S
C550 C551 1.367 . S
C550 C558 1.378 . S
C551 C550 1.367 . S
C551 C559 1.433 1_455 S
C552 H548 0.929 . S
C552 C554 1.378 . S
C552 C556 1.350 . S
C553 C556 1.463 1_455 S
C553 C558 1.350 . S
C553 N561 1.427 1_455 S
C554 H545 0.930 . S
C554 C552 1.378 . S
C554 C555 1.367 . S
C555 C554 1.367 . S
C555 C557 1.433 1_655 S
C556 C552 1.350 . S
C556 C553 1.463 1_655 S
C556 N560 1.427 1_655 S
C557 H547 0.929 . S
C557 C555 1.433 1_455 S
C557 N560 1.384 . S
C558 H549 0.929 . S
C558 C550 1.378 . S
C558 C553 1.350 . S
C559 H546 0.929 . S
C559 C551 1.433 1_655 S
C559 N561 1.384 . S
N560 C556 1.427 1_455 S
N560 C557 1.384 . S
N561 C553 1.427 1_655 S
N561 C559 1.384 . S
H562 C568 0.930 . S
H563 C572 0.930 . S
H564 C577 0.929 . S
H565 C575 0.929 . S
H566 C570 0.929 . S
H567 C576 0.929 . S
C568 H562 0.930 . S
C568 C569 1.367 . S
C568 C576 1.378 . S
C569 C568 1.367 . S
C569 C577 1.433 1_455 S
C570 H566 0.929 . S
C570 C572 1.378 . S
C570 C574 1.350 . S
C571 C574 1.463 1_455 S
C571 C576 1.350 . S
C571 N579 1.427 1_455 S
C572 H563 0.930 . S
C572 C570 1.378 . S
C572 C573 1.367 . S
C573 C572 1.367 . S
C573 C575 1.433 1_655 S
C574 C570 1.350 . S
C574 C571 1.463 1_655 S
C574 N578 1.427 1_655 S
C575 H565 0.929 . S
C575 C573 1.433 1_455 S
C575 N578 1.384 . S
C576 H567 0.929 . S
C576 C568 1.378 . S
C576 C571 1.350 . S
C577 H564 0.929 . S
C577 C569 1.433 1_655 S
C577 N579 1.384 . S
N578 C574 1.427 1_455 S
N578 C575 1.384 . S
N579 C571 1.427 1_655 S
N579 C577 1.384 . S
H580 C586 0.930 . S
H581 C590 0.930 . S
H582 C595 0.929 . S
H583 C593 0.929 . S
H584 C588 0.929 . S
H585 C594 0.929 . S
C586 H580 0.930 . S
C586 C587 1.367 . S
C586 C594 1.378 . S
C587 C586 1.367 . S
C587 C595 1.433 1_455 S
C588 H584 0.929 . S
C588 C590 1.378 . S
C588 C592 1.350 . S
C589 C592 1.463 1_455 S
C589 C594 1.350 . S
C589 N597 1.427 1_455 S
C590 H581 0.930 . S
C590 C588 1.378 . S
C590 C591 1.367 . S
C591 C590 1.367 . S
C591 C593 1.433 1_655 S
C592 C588 1.350 . S
C592 C589 1.463 1_655 S
C592 N596 1.427 1_655 S
C593 H583 0.929 . S
C593 C591 1.433 1_455 S
C593 N596 1.384 . S
C594 H585 0.929 . S
C594 C586 1.378 . S
C594 C589 1.350 . S
C595 H582 0.929 . S
C595 C587 1.433 1_655 S
C595 N597 1.384 . S
N596 C592 1.427 1_455 S
N596 C593 1.384 . S
N597 C589 1.427 1_655 S
N597 C595 1.384 . S
H598 C604 0.930 . S
H599 C608 0.930 . S
H600 C613 0.929 . S
H601 C611 0.929 . S
H602 C606 0.929 . S
H603 C612 0.929 . S
C604 H598 0.930 . S
C604 C605 1.367 . S
C604 C612 1.378 . S
C605 C604 1.367 . S
C605 C613 1.433 1_455 S
C606 H602 0.929 . S
C606 C608 1.378 . S
C606 C610 1.350 . S
C607 C610 1.463 1_455 S
C607 C612 1.350 . S
C607 N615 1.427 1_455 S
C608 H599 0.930 . S
C608 C606 1.378 . S
C608 C609 1.367 . S
C609 C608 1.367 . S
C609 C611 1.433 1_655 S
C610 C606 1.350 . S
C610 C607 1.463 1_655 S
C610 N614 1.427 1_655 S
C611 H601 0.929 . S
C611 C609 1.433 1_455 S
C611 N614 1.384 . S
C612 H603 0.929 . S
C612 C604 1.378 . S
C612 C607 1.350 . S
C613 H600 0.929 . S
C613 C605 1.433 1_655 S
C613 N615 1.384 . S
N614 C610 1.427 1_455 S
N614 C611 1.384 . S
N615 C607 1.427 1_655 S
N615 C613 1.384 . S
H616 C622 0.930 . S
H617 C626 0.930 . S
H618 C631 0.929 . S
H619 C629 0.929 . S
H620 C624 0.929 . S
H621 C630 0.929 . S
C622 H616 0.930 . S
C622 C623 1.367 . S
C622 C630 1.378 . S
C623 C622 1.367 . S
C623 C631 1.433 . S
C624 H620 0.929 . S
C624 C626 1.378 . S
C624 C628 1.350 . S
C625 C628 1.463 . S
C625 C630 1.350 . S
C625 N633 1.427 . S
C626 H617 0.930 . S
C626 C624 1.378 . S
C626 C627 1.367 . S
C627 C626 1.367 . S
C627 C629 1.433 . S
C628 C624 1.350 . S
C628 C625 1.463 . S
C628 N632 1.427 . S
C629 H619 0.929 . S
C629 C627 1.433 . S
C629 N632 1.384 . S
C630 H621 0.929 . S
C630 C622 1.378 . S
C630 C625 1.350 . S
C631 H618 0.929 . S
C631 C623 1.433 . S
C631 N633 1.384 . S
N632 C628 1.427 . S
N632 C629 1.384 . S
N633 C625 1.427 . S
N633 C631 1.384 . S
H634 C640 0.930 . S
H635 C644 0.930 . S
H636 C649 0.929 . S
H637 C647 0.929 . S
H638 C642 0.929 . S
H639 C648 0.929 . S
C640 H634 0.930 . S
C640 C641 1.367 . S
C640 C648 1.378 . S
C641 C640 1.367 . S
C641 C649 1.433 . S
C642 H638 0.929 . S
C642 C644 1.378 . S
C642 C646 1.350 . S
C643 C646 1.463 . S
C643 C648 1.350 . S
C643 N651 1.427 . S
C644 H635 0.930 . S
C644 C642 1.378 . S
C644 C645 1.367 . S
C645 C644 1.367 . S
C645 C647 1.433 . S
C646 C642 1.350 . S
C646 C643 1.463 . S
C646 N650 1.427 . S
C647 H637 0.929 . S
C647 C645 1.433 . S
C647 N650 1.384 . S
C648 H639 0.929 . S
C648 C640 1.378 . S
C648 C643 1.350 . S
C649 H636 0.929 . S
C649 C641 1.433 . S
C649 N651 1.384 . S
N650 C646 1.427 . S
N650 C647 1.384 . S
N651 C643 1.427 . S
N651 C649 1.384 . S
H652 C658 0.930 . S
H653 C662 0.930 . S
H654 C667 0.929 . S
H655 C665 0.929 . S
H656 C660 0.929 . S
H657 C666 0.929 . S
C658 H652 0.930 . S
C658 C659 1.367 . S
C658 C666 1.378 . S
C659 C658 1.367 . S
C659 C667 1.433 . S
C660 H656 0.929 . S
C660 C662 1.378 . S
C660 C664 1.350 . S
C661 C664 1.463 . S
C661 C666 1.350 . S
C661 N669 1.427 . S
C662 H653 0.930 . S
C662 C660 1.378 . S
C662 C663 1.367 . S
C663 C662 1.367 . S
C663 C665 1.433 . S
C664 C660 1.350 . S
C664 C661 1.463 . S
C664 N668 1.427 . S
C665 H655 0.929 . S
C665 C663 1.433 . S
C665 N668 1.384 . S
C666 H657 0.929 . S
C666 C658 1.378 . S
C666 C661 1.350 . S
C667 H654 0.929 . S
C667 C659 1.433 . S
C667 N669 1.384 . S
N668 C664 1.427 . S
N668 C665 1.384 . S
N669 C661 1.427 . S
N669 C667 1.384 . S
H670 C676 0.930 . S
H671 C680 0.930 . S
H672 C685 0.929 . S
H673 C683 0.929 . S
H674 C678 0.929 . S
H675 C684 0.929 . S
C676 H670 0.930 . S
C676 C677 1.367 . S
C676 C684 1.378 . S
C677 C676 1.367 . S
C677 C685 1.433 . S
C678 H674 0.929 . S
C678 C680 1.378 . S
C678 C682 1.350 . S
C679 C682 1.463 . S
C679 C684 1.350 . S
C679 N687 1.427 . S
C680 H671 0.930 . S
C680 C678 1.378 . S
C680 C681 1.367 . S
C681 C680 1.367 . S
C681 C683 1.433 . S
C682 C678 1.350 . S
C682 C679 1.463 . S
C682 N686 1.427 . S
C683 H673 0.929 . S
C683 C681 1.433 . S
C683 N686 1.384 . S
C684 H675 0.929 . S
C684 C676 1.378 . S
C684 C679 1.350 . S
C685 H672 0.929 . S
C685 C677 1.433 . S
C685 N687 1.384 . S
N686 C682 1.427 . S
N686 C683 1.384 . S
N687 C679 1.427 . S
N687 C685 1.384 . S
H688 C694 0.930 . S
H689 C698 0.930 . S
H690 C703 0.929 . S
H691 C701 0.929 . S
H692 C696 0.929 . S
H693 C702 0.929 . S
C694 H688 0.930 . S
C694 C695 1.367 . S
C694 C702 1.378 . S
C695 C694 1.367 . S
C695 C703 1.433 1_554 S
C696 H692 0.929 . S
C696 C698 1.378 . S
C696 C700 1.350 1_556 S
C697 C700 1.463 . S
C697 C702 1.350 . S
C697 N705 1.427 1_554 S
C698 H689 0.930 . S
C698 C696 1.378 . S
C698 C699 1.367 1_556 S
C699 C698 1.367 1_554 S
C699 C701 1.433 . S
C700 C696 1.350 1_554 S
C700 C697 1.463 . S
C700 N704 1.427 . S
C701 H691 0.929 . S
C701 C699 1.433 . S
C701 N704 1.384 . S
C702 H693 0.929 . S
C702 C694 1.378 . S
C702 C697 1.350 . S
C703 H690 0.929 . S
C703 C695 1.433 1_556 S
C703 N705 1.384 . S
N704 C700 1.427 . S
N704 C701 1.384 . S
N705 C697 1.427 1_556 S
N705 C703 1.384 . S
H706 C712 0.930 . S
H707 C716 0.930 . S
H708 C721 0.929 . S
H709 C719 0.929 . S
H710 C714 0.929 . S
H711 C720 0.929 . S
C712 H706 0.930 . S
C712 C713 1.367 1_556 S
C712 C720 1.378 . S
C713 C712 1.367 1_554 S
C713 C721 1.433 . S
C714 H710 0.929 . S
C714 C716 1.378 . S
C714 C718 1.350 . S
C715 C718 1.463 . S
C715 C720 1.350 1_554 S
C715 N723 1.427 . S
C716 H707 0.930 . S
C716 C714 1.378 . S
C716 C717 1.367 . S
C717 C716 1.367 . S
C717 C719 1.433 1_554 S
C718 C714 1.350 . S
C718 C715 1.463 . S
C718 N722 1.427 1_554 S
C719 H709 0.929 . S
C719 C717 1.433 1_556 S
C719 N722 1.384 . S
C720 H711 0.929 . S
C720 C712 1.378 . S
C720 C715 1.350 1_556 S
C721 H708 0.929 . S
C721 C713 1.433 . S
C721 N723 1.384 . S
N722 C718 1.427 1_556 S
N722 C719 1.384 . S
N723 C715 1.427 . S
N723 C721 1.384 . S
H724 C730 0.930 . S
H725 C734 0.930 . S
H726 C739 0.929 . S
H727 C737 0.929 . S
H728 C732 0.929 . S
H729 C738 0.929 . S
C730 H724 0.930 . S
C730 C731 1.367 . S
C730 C738 1.378 . S
C731 C730 1.367 . S
C731 C739 1.433 . S
C732 H728 0.929 . S
C732 C734 1.378 . S
C732 C736 1.350 . S
C733 C736 1.463 . S
C733 C738 1.350 . S
C733 N741 1.427 . S
C734 H725 0.930 . S
C734 C732 1.378 . S
C734 C735 1.367 . S
C735 C734 1.367 . S
C735 C737 1.433 . S
C736 C732 1.350 . S
C736 C733 1.463 . S
C736 N740 1.427 . S
C737 H727 0.929 . S
C737 C735 1.433 . S
C737 N740 1.384 . S
C738 H729 0.929 . S
C738 C730 1.378 . S
C738 C733 1.350 . S
C739 H726 0.929 . S
C739 C731 1.433 . S
C739 N741 1.384 . S
N740 C736 1.427 . S
N740 C737 1.384 . S
N741 C733 1.427 . S
N741 C739 1.384 . S
H742 C748 0.930 . S
H743 C752 0.930 . S
H744 C757 0.929 . S
H745 C755 0.929 . S
H746 C750 0.929 . S
H747 C756 0.929 . S
C748 H742 0.930 . S
C748 C749 1.367 . S
C748 C756 1.378 . S
C749 C748 1.367 . S
C749 C757 1.433 . S
C750 H746 0.929 . S
C750 C752 1.378 . S
C750 C754 1.350 . S
C751 C754 1.463 . S
C751 C756 1.350 . S
C751 N759 1.427 . S
C752 H743 0.930 . S
C752 C750 1.378 . S
C752 C753 1.367 . S
C753 C752 1.367 . S
C753 C755 1.433 . S
C754 C750 1.350 . S
C754 C751 1.463 . S
C754 N758 1.427 . S
C755 H745 0.929 . S
C755 C753 1.433 . S
C755 N758 1.384 . S
C756 H747 0.929 . S
C756 C748 1.378 . S
C756 C751 1.350 . S
C757 H744 0.929 . S
C757 C749 1.433 . S
C757 N759 1.384 . S
N758 C754 1.427 . S
N758 C755 1.384 . S
N759 C751 1.427 . S
N759 C757 1.384 . S
C479 C111 1.513 . S
C483 C52 1.516 . S
C497 C170 1.516 . S
C501 C229 1.514 . S
C515 C288 1.516 . S
C519 C347 1.513 . S
C533 C406 1.514 . S
C537 C465 1.515 . S
C551 C33 1.333 . S
C555 C210 1.336 . S
C569 C151 1.333 . S
C573 C92 1.337 . S
C587 C121 1.411 . S
C591 C62 1.404 . S
C605 C3 1.411 . S
C609 C180 1.404 . S
C623 C269 1.333 . S
C627 C446 1.336 . S
C641 C387 1.340 . S
C645 C328 1.337 . S
C659 C298 1.405 . S
C663 C357 1.414 . S
C677 C239 1.411 . S
C681 C416 1.404 . S
C695 C300 1.513 . S
C699 C5 1.514 . S
C713 C241 1.514 . S
C717 C64 1.513 . S
C731 C123 1.514 . S
C735 C418 1.514 . S
C749 C359 1.514 . S
C753 C182 1.513 . S
