# Generated by pormake.
# Topology ulj, (4)-cn, num edge types: 1
# Building blocks:
#     Node 0, Type 0, BuildingBlock: ESEHIV_clean_sbu_0, # of connection points: 4
#     Node 1, Type 0, BuildingBlock: ESEHIV_clean_sbu_0, # of connection points: 4
#     Node 2, Type 0, BuildingBlock: ESEHIV_clean_sbu_0, # of connection points: 4
#     Node 3, Type 0, BuildingBlock: ESEHIV_clean_sbu_0, # of connection points: 4
#     Node 4, Type 0, BuildingBlock: ESEHIV_clean_sbu_0, # of connection points: 4
#     Node 5, Type 0, BuildingBlock: ESEHIV_clean_sbu_0, # of connection points: 4
#     Node 6, Type 0, BuildingBlock: ESEHIV_clean_sbu_0, # of connection points: 4
#     Node 7, Type 0, BuildingBlock: ESEHIV_clean_sbu_0, # of connection points: 4
#     Node 8, Type 0, BuildingBlock: ESEHIV_clean_sbu_0, # of connection points: 4
#     Node 9, Type 0, BuildingBlock: ESEHIV_clean_sbu_0, # of connection points: 4
#     Node 10, Type 0, BuildingBlock: ESEHIV_clean_sbu_0, # of connection points: 4
#     Node 11, Type 0, BuildingBlock: ESEHIV_clean_sbu_0, # of connection points: 4
#     Node 12, Type 0, BuildingBlock: ESEHIV_clean_sbu_0, # of connection points: 4
#     Node 13, Type 0, BuildingBlock: ESEHIV_clean_sbu_0, # of connection points: 4
#     Node 14, Type 0, BuildingBlock: ESEHIV_clean_sbu_0, # of connection points: 4
#     Node 15, Type 0, BuildingBlock: ESEHIV_clean_sbu_0, # of connection points: 4
#     Node 16, Type 0, BuildingBlock: ESEHIV_clean_sbu_0, # of connection points: 4
#     Node 17, Type 0, BuildingBlock: ESEHIV_clean_sbu_0, # of connection points: 4
#     Node 18, Type 0, BuildingBlock: ESEHIV_clean_sbu_0, # of connection points: 4
#     Node 19, Type 0, BuildingBlock: ESEHIV_clean_sbu_0, # of connection points: 4
#     Node 20, Type 0, BuildingBlock: ESEHIV_clean_sbu_0, # of connection points: 4
#     Node 21, Type 0, BuildingBlock: ESEHIV_clean_sbu_0, # of connection points: 4
#     Node 22, Type 0, BuildingBlock: ESEHIV_clean_sbu_0, # of connection points: 4
#     Node 23, Type 0, BuildingBlock: ESEHIV_clean_sbu_0, # of connection points: 4
#     Node 24, Type 0, BuildingBlock: ESEHIV_clean_sbu_0, # of connection points: 4
#     Node 25, Type 0, BuildingBlock: ESEHIV_clean_sbu_0, # of connection points: 4
#     Node 26, Type 0, BuildingBlock: ESEHIV_clean_sbu_0, # of connection points: 4
#     Node 27, Type 0, BuildingBlock: ESEHIV_clean_sbu_0, # of connection points: 4
#     Node 28, Type 0, BuildingBlock: ESEHIV_clean_sbu_0, # of connection points: 4
#     Node 29, Type 0, BuildingBlock: ESEHIV_clean_sbu_0, # of connection points: 4
#     Node 30, Type 0, BuildingBlock: ESEHIV_clean_sbu_0, # of connection points: 4
#     Node 31, Type 0, BuildingBlock: ESEHIV_clean_sbu_0, # of connection points: 4
#     Node 32, Type 0, BuildingBlock: ESEHIV_clean_sbu_0, # of connection points: 4
#     Node 33, Type 0, BuildingBlock: ESEHIV_clean_sbu_0, # of connection points: 4
#     Node 34, Type 0, BuildingBlock: ESEHIV_clean_sbu_0, # of connection points: 4
#     Node 35, Type 0, BuildingBlock: ESEHIV_clean_sbu_0, # of connection points: 4
#     Node 36, Type 0, BuildingBlock: ESEHIV_clean_sbu_0, # of connection points: 4
#     Node 37, Type 0, BuildingBlock: ESEHIV_clean_sbu_0, # of connection points: 4
#     Node 38, Type 0, BuildingBlock: ESEHIV_clean_sbu_0, # of connection points: 4
#     Node 39, Type 0, BuildingBlock: ESEHIV_clean_sbu_0, # of connection points: 4
#     Node 40, Type 0, BuildingBlock: ESEHIV_clean_sbu_0, # of connection points: 4
#     Node 41, Type 0, BuildingBlock: ESEHIV_clean_sbu_0, # of connection points: 4
#     Node 42, Type 0, BuildingBlock: ESEHIV_clean_sbu_0, # of connection points: 4
#     Node 43, Type 0, BuildingBlock: ESEHIV_clean_sbu_0, # of connection points: 4
#     Node 44, Type 0, BuildingBlock: ESEHIV_clean_sbu_0, # of connection points: 4
#     Node 45, Type 0, BuildingBlock: ESEHIV_clean_sbu_0, # of connection points: 4
#     Node 46, Type 0, BuildingBlock: ESEHIV_clean_sbu_0, # of connection points: 4
#     Node 47, Type 0, BuildingBlock: ESEHIV_clean_sbu_0, # of connection points: 4
#     Edge 48, Type (0, 0), BuildingBlock: KIFKEQ_clean_linker_1, # of connection points: 2
#     Edge 49, Type (0, 0), BuildingBlock: KIFKEQ_clean_linker_1, # of connection points: 2
#     Edge 50, Type (0, 0), BuildingBlock: KIFKEQ_clean_linker_1, # of connection points: 2
#     Edge 51, Type (0, 0), BuildingBlock: KIFKEQ_clean_linker_1, # of connection points: 2
#     Edge 52, Type (0, 0), BuildingBlock: KIFKEQ_clean_linker_1, # of connection points: 2
#     Edge 53, Type (0, 0), BuildingBlock: KIFKEQ_clean_linker_1, # of connection points: 2
#     Edge 54, Type (0, 0), BuildingBlock: KIFKEQ_clean_linker_1, # of connection points: 2
#     Edge 55, Type (0, 0), BuildingBlock: KIFKEQ_clean_linker_1, # of connection points: 2
#     Edge 56, Type (0, 0), BuildingBlock: KIFKEQ_clean_linker_1, # of connection points: 2
#     Edge 57, Type (0, 0), BuildingBlock: KIFKEQ_clean_linker_1, # of connection points: 2
#     Edge 58, Type (0, 0), BuildingBlock: KIFKEQ_clean_linker_1, # of connection points: 2
#     Edge 59, Type (0, 0), BuildingBlock: KIFKEQ_clean_linker_1, # of connection points: 2
#     Edge 60, Type (0, 0), BuildingBlock: KIFKEQ_clean_linker_1, # of connection points: 2
#     Edge 61, Type (0, 0), BuildingBlock: KIFKEQ_clean_linker_1, # of connection points: 2
#     Edge 62, Type (0, 0), BuildingBlock: KIFKEQ_clean_linker_1, # of connection points: 2
#     Edge 63, Type (0, 0), BuildingBlock: KIFKEQ_clean_linker_1, # of connection points: 2
#     Edge 64, Type (0, 0), BuildingBlock: KIFKEQ_clean_linker_1, # of connection points: 2
#     Edge 65, Type (0, 0), BuildingBlock: KIFKEQ_clean_linker_1, # of connection points: 2
#     Edge 66, Type (0, 0), BuildingBlock: KIFKEQ_clean_linker_1, # of connection points: 2
#     Edge 67, Type (0, 0), BuildingBlock: KIFKEQ_clean_linker_1, # of connection points: 2
#     Edge 68, Type (0, 0), BuildingBlock: KIFKEQ_clean_linker_1, # of connection points: 2
#     Edge 69, Type (0, 0), BuildingBlock: KIFKEQ_clean_linker_1, # of connection points: 2
#     Edge 70, Type (0, 0), BuildingBlock: KIFKEQ_clean_linker_1, # of connection points: 2
#     Edge 71, Type (0, 0), BuildingBlock: KIFKEQ_clean_linker_1, # of connection points: 2
#     Edge 72, Type (0, 0), BuildingBlock: KIFKEQ_clean_linker_1, # of connection points: 2
#     Edge 73, Type (0, 0), BuildingBlock: KIFKEQ_clean_linker_1, # of connection points: 2
#     Edge 74, Type (0, 0), BuildingBlock: KIFKEQ_clean_linker_1, # of connection points: 2
#     Edge 75, Type (0, 0), BuildingBlock: KIFKEQ_clean_linker_1, # of connection points: 2
#     Edge 76, Type (0, 0), BuildingBlock: KIFKEQ_clean_linker_1, # of connection points: 2
#     Edge 77, Type (0, 0), BuildingBlock: KIFKEQ_clean_linker_1, # of connection points: 2
#     Edge 78, Type (0, 0), BuildingBlock: KIFKEQ_clean_linker_1, # of connection points: 2
#     Edge 79, Type (0, 0), BuildingBlock: KIFKEQ_clean_linker_1, # of connection points: 2
#     Edge 80, Type (0, 0), BuildingBlock: KIFKEQ_clean_linker_1, # of connection points: 2
#     Edge 81, Type (0, 0), BuildingBlock: KIFKEQ_clean_linker_1, # of connection points: 2
#     Edge 82, Type (0, 0), BuildingBlock: KIFKEQ_clean_linker_1, # of connection points: 2
#     Edge 83, Type (0, 0), BuildingBlock: KIFKEQ_clean_linker_1, # of connection points: 2
#     Edge 84, Type (0, 0), BuildingBlock: KIFKEQ_clean_linker_1, # of connection points: 2
#     Edge 85, Type (0, 0), BuildingBlock: KIFKEQ_clean_linker_1, # of connection points: 2
#     Edge 86, Type (0, 0), BuildingBlock: KIFKEQ_clean_linker_1, # of connection points: 2
#     Edge 87, Type (0, 0), BuildingBlock: KIFKEQ_clean_linker_1, # of connection points: 2
#     Edge 88, Type (0, 0), BuildingBlock: KIFKEQ_clean_linker_1, # of connection points: 2
#     Edge 89, Type (0, 0), BuildingBlock: KIFKEQ_clean_linker_1, # of connection points: 2
#     Edge 90, Type (0, 0), BuildingBlock: KIFKEQ_clean_linker_1, # of connection points: 2
#     Edge 91, Type (0, 0), BuildingBlock: KIFKEQ_clean_linker_1, # of connection points: 2
#     Edge 92, Type (0, 0), BuildingBlock: KIFKEQ_clean_linker_1, # of connection points: 2
#     Edge 93, Type (0, 0), BuildingBlock: KIFKEQ_clean_linker_1, # of connection points: 2
#     Edge 94, Type (0, 0), BuildingBlock: KIFKEQ_clean_linker_1, # of connection points: 2
#     Edge 95, Type (0, 0), BuildingBlock: KIFKEQ_clean_linker_1, # of connection points: 2
#     Edge 96, Type (0, 0), BuildingBlock: KIFKEQ_clean_linker_1, # of connection points: 2
#     Edge 97, Type (0, 0), BuildingBlock: KIFKEQ_clean_linker_1, # of connection points: 2
#     Edge 98, Type (0, 0), BuildingBlock: KIFKEQ_clean_linker_1, # of connection points: 2
#     Edge 99, Type (0, 0), BuildingBlock: KIFKEQ_clean_linker_1, # of connection points: 2
#     Edge 100, Type (0, 0), BuildingBlock: KIFKEQ_clean_linker_1, # of connection points: 2
#     Edge 101, Type (0, 0), BuildingBlock: KIFKEQ_clean_linker_1, # of connection points: 2
#     Edge 102, Type (0, 0), BuildingBlock: KIFKEQ_clean_linker_1, # of connection points: 2
#     Edge 103, Type (0, 0), BuildingBlock: KIFKEQ_clean_linker_1, # of connection points: 2
#     Edge 104, Type (0, 0), BuildingBlock: KIFKEQ_clean_linker_1, # of connection points: 2
#     Edge 105, Type (0, 0), BuildingBlock: KIFKEQ_clean_linker_1, # of connection points: 2
#     Edge 106, Type (0, 0), BuildingBlock: KIFKEQ_clean_linker_1, # of connection points: 2
#     Edge 107, Type (0, 0), BuildingBlock: KIFKEQ_clean_linker_1, # of connection points: 2
#     Edge 108, Type (0, 0), BuildingBlock: KIFKEQ_clean_linker_1, # of connection points: 2
#     Edge 109, Type (0, 0), BuildingBlock: KIFKEQ_clean_linker_1, # of connection points: 2
#     Edge 110, Type (0, 0), BuildingBlock: KIFKEQ_clean_linker_1, # of connection points: 2
#     Edge 111, Type (0, 0), BuildingBlock: KIFKEQ_clean_linker_1, # of connection points: 2
#     Edge 112, Type (0, 0), BuildingBlock: KIFKEQ_clean_linker_1, # of connection points: 2
#     Edge 113, Type (0, 0), BuildingBlock: KIFKEQ_clean_linker_1, # of connection points: 2
#     Edge 114, Type (0, 0), BuildingBlock: KIFKEQ_clean_linker_1, # of connection points: 2
#     Edge 115, Type (0, 0), BuildingBlock: KIFKEQ_clean_linker_1, # of connection points: 2
#     Edge 116, Type (0, 0), BuildingBlock: KIFKEQ_clean_linker_1, # of connection points: 2
#     Edge 117, Type (0, 0), BuildingBlock: KIFKEQ_clean_linker_1, # of connection points: 2
#     Edge 118, Type (0, 0), BuildingBlock: KIFKEQ_clean_linker_1, # of connection points: 2
#     Edge 119, Type (0, 0), BuildingBlock: KIFKEQ_clean_linker_1, # of connection points: 2
#     Edge 120, Type (0, 0), BuildingBlock: KIFKEQ_clean_linker_1, # of connection points: 2
#     Edge 121, Type (0, 0), BuildingBlock: KIFKEQ_clean_linker_1, # of connection points: 2
#     Edge 122, Type (0, 0), BuildingBlock: KIFKEQ_clean_linker_1, # of connection points: 2
#     Edge 123, Type (0, 0), BuildingBlock: KIFKEQ_clean_linker_1, # of connection points: 2
#     Edge 124, Type (0, 0), BuildingBlock: KIFKEQ_clean_linker_1, # of connection points: 2
#     Edge 125, Type (0, 0), BuildingBlock: KIFKEQ_clean_linker_1, # of connection points: 2
#     Edge 126, Type (0, 0), BuildingBlock: KIFKEQ_clean_linker_1, # of connection points: 2
#     Edge 127, Type (0, 0), BuildingBlock: KIFKEQ_clean_linker_1, # of connection points: 2
#     Edge 128, Type (0, 0), BuildingBlock: KIFKEQ_clean_linker_1, # of connection points: 2
#     Edge 129, Type (0, 0), BuildingBlock: KIFKEQ_clean_linker_1, # of connection points: 2
#     Edge 130, Type (0, 0), BuildingBlock: KIFKEQ_clean_linker_1, # of connection points: 2
#     Edge 131, Type (0, 0), BuildingBlock: KIFKEQ_clean_linker_1, # of connection points: 2
#     Edge 132, Type (0, 0), BuildingBlock: KIFKEQ_clean_linker_1, # of connection points: 2
#     Edge 133, Type (0, 0), BuildingBlock: KIFKEQ_clean_linker_1, # of connection points: 2
#     Edge 134, Type (0, 0), BuildingBlock: KIFKEQ_clean_linker_1, # of connection points: 2
#     Edge 135, Type (0, 0), BuildingBlock: KIFKEQ_clean_linker_1, # of connection points: 2
#     Edge 136, Type (0, 0), BuildingBlock: KIFKEQ_clean_linker_1, # of connection points: 2
#     Edge 137, Type (0, 0), BuildingBlock: KIFKEQ_clean_linker_1, # of connection points: 2
#     Edge 138, Type (0, 0), BuildingBlock: KIFKEQ_clean_linker_1, # of connection points: 2
#     Edge 139, Type (0, 0), BuildingBlock: KIFKEQ_clean_linker_1, # of connection points: 2
#     Edge 140, Type (0, 0), BuildingBlock: KIFKEQ_clean_linker_1, # of connection points: 2
#     Edge 141, Type (0, 0), BuildingBlock: KIFKEQ_clean_linker_1, # of connection points: 2
#     Edge 142, Type (0, 0), BuildingBlock: KIFKEQ_clean_linker_1, # of connection points: 2
#     Edge 143, Type (0, 0), BuildingBlock: KIFKEQ_clean_linker_1, # of connection points: 2
# Relax obj value: 0.037
# Max RMSD: 0.127
# Mean RMSD: 0.127
data_MOF--net-ulj--node1-ESEHIV_clean_sbu_0--edge1-KIFKEQ_clean_linker_1
_symmetry_space_group_name_H-M    P1
_symmetry_Int_Tables_number       1
_symmetry_cell_setting            triclinic
loop_
_symmetry_equiv_pos_as_xyz
'x, y, z'
_cell_length_a     70.42814
_cell_length_b     70.453636
_cell_length_c     70.531726
_cell_angle_alpha  89.97125
_cell_angle_beta   90.05033
_cell_angle_gamma 89.998023
loop_
_atom_site_label
_atom_site_type_symbol
_atom_site_fract_x
_atom_site_fract_y
_atom_site_fract_z
_atom_type_partial_charge
Cu0 Cu 0.15973 0.26964 0.33273 0.0
N1 N 0.14478 0.24913 0.34156 0.0
N2 N 0.1248 0.23124 0.35893 0.0
C3 C 0.13513 0.24747 0.3581 0.0
C4 C 0.12819 0.22239 0.34228 0.0
C5 C 0.14042 0.2334 0.33168 0.0
O6 O 0.14872 0.29309 0.34316 0.0
C7 C 0.19437 0.25064 0.34426 0.0
O8 O 0.18309 0.23743 0.35103 0.0
H9 H 0.13524 0.25815 0.36909 0.0
H10 H 0.14561 0.23028 0.3176 0.0
N11 N 0.15781 0.27144 0.30615 0.0
N12 N 0.16587 0.27616 0.27567 0.0
C13 C 0.1722 0.27363 0.29364 0.0
C14 C 0.14185 0.27252 0.29572 0.0
C15 C 0.14675 0.27544 0.27698 0.0
C16 C 0.14871 0.29779 0.36062 0.0
O17 O 0.15839 0.28745 0.37275 0.0
H18 H 0.187 0.2741 0.29777 0.0
H19 H 0.12762 0.27167 0.30143 0.0
O20 O 0.1871 0.26584 0.33755 0.0
H21 H 0.12233 0.20884 0.33805 0.0
H22 H 0.13695 0.27706 0.26525 0.0
Cu23 Cu 0.5288 0.64728 0.95981 0.0
N24 N 0.52578 0.65036 0.93348 0.0
N25 N 0.51522 0.66551 0.90745 0.0
C26 C 0.51485 0.66448 0.92657 0.0
C27 C 0.52692 0.65126 0.90207 0.0
C28 C 0.53355 0.64203 0.91818 0.0
O29 O 0.53923 0.6724 0.96649 0.0
C30 C 0.49585 0.62513 0.9605 0.0
O31 O 0.49981 0.62382 0.94238 0.0
H32 H 0.50672 0.67385 0.93561 0.0
H33 H 0.54349 0.63034 0.91868 0.0
N34 N 0.54555 0.62888 0.96934 0.0
N35 N 0.55647 0.61164 0.99392 0.0
C36 C 0.54966 0.62859 0.98802 0.0
C37 C 0.54988 0.61141 0.96301 0.0
C38 C 0.55677 0.6008 0.97809 0.0
C39 C 0.55699 0.67425 0.96291 0.0
O40 O 0.56673 0.65907 0.95824 0.0
H41 H 0.5458 0.64008 0.99743 0.0
H42 H 0.54669 0.60622 0.94893 0.0
O43 O 0.50494 0.63727 0.97054 0.0
H44 H 0.53078 0.64796 0.8876 0.0
H45 H 0.56069 0.58596 0.97756 0.0
Cu46 Cu 0.88485 0.27012 0.34814 0.0
N47 N 0.88703 0.27966 0.37308 0.0
N48 N 0.90143 0.29463 0.39733 0.0
C49 C 0.90344 0.28688 0.37991 0.0
C50 C 0.88291 0.29209 0.40169 0.0
C51 C 0.87408 0.28278 0.38675 0.0
O52 O 0.90823 0.25497 0.34468 0.0
C53 C 0.87271 0.30727 0.33717 0.0
O54 O 0.87734 0.31243 0.35444 0.0
H55 H 0.91644 0.28721 0.37175 0.0
H56 H 0.85919 0.27916 0.38568 0.0
N57 N 0.86427 0.25398 0.34276 0.0
N58 N 0.84331 0.23993 0.32324 0.0
C59 C 0.85701 0.25318 0.32507 0.0
C60 C 0.85479 0.24066 0.35265 0.0
C61 C 0.84189 0.23188 0.34058 0.0
C62 C 0.91007 0.24241 0.35769 0.0
O63 O 0.89632 0.24059 0.37013 0.0
H64 H 0.8623 0.26171 0.31347 0.0
H65 H 0.8573 0.23726 0.36739 0.0
O66 O 0.87875 0.29134 0.3309 0.0
H67 H 0.87613 0.29685 0.4146 0.0
H68 H 0.83232 0.22044 0.34426 0.0
Cu69 Cu 0.52734 0.90771 0.95734 0.0
N70 N 0.53078 0.90363 0.93105 0.0
N71 N 0.54155 0.88797 0.90542 0.0
C72 C 0.54029 0.8883 0.92453 0.0
C73 C 0.53237 0.90379 0.89961 0.0
C74 C 0.52556 0.91332 0.91543 0.0
O75 O 0.51766 0.88263 0.96514 0.0
C76 C 0.5553 0.93448 0.95816 0.0
O77 O 0.54624 0.93817 0.94233 0.0
H78 H 0.54649 0.87771 0.93377 0.0
H79 H 0.51757 0.92644 0.91552 0.0
N80 N 0.50937 0.92537 0.96632 0.0
N81 N 0.49471 0.94191 0.98924 0.0
C82 C 0.50947 0.93061 0.98474 0.0
C83 C 0.49408 0.93397 0.95871 0.0
C84 C 0.48488 0.94403 0.97291 0.0
C85 C 0.50104 0.87984 0.95826 0.0
O86 O 0.49297 0.8936 0.94866 0.0
H87 H 0.51985 0.92553 0.99488 0.0
H88 H 0.48957 0.93255 0.94411 0.0
O89 O 0.55066 0.91953 0.96744 0.0
H90 H 0.53056 0.90809 0.88499 0.0
H91 H 0.4719 0.95211 0.97138 0.0
Cu92 Cu 0.16103 0.78039 0.22263 0.0
N93 N 0.14317 0.79927 0.21587 0.0
N94 N 0.12338 0.81765 0.19878 0.0
C95 C 0.13821 0.80538 0.19833 0.0
C96 C 0.11904 0.81943 0.21734 0.0
C97 C 0.13119 0.80817 0.22776 0.0
O98 O 0.15227 0.75676 0.21058 0.0
C99 C 0.20187 0.78028 0.21993 0.0
O100 O 0.20057 0.76299 0.2268 0.0
H101 H 0.14493 0.8005 0.18545 0.0
H102 H 0.13104 0.8063 0.24298 0.0
N103 N 0.16021 0.77608 0.2491 0.0
N104 N 0.16832 0.77053 0.27955 0.0
C105 C 0.17428 0.77652 0.26222 0.0
C106 C 0.14489 0.76966 0.25844 0.0
C107 C 0.14976 0.76628 0.27705 0.0
C108 C 0.15108 0.75385 0.19277 0.0
O109 O 0.15857 0.76627 0.18108 0.0
H110 H 0.18866 0.78082 0.25902 0.0
H111 H 0.13121 0.76701 0.25196 0.0
O112 O 0.18665 0.7893 0.216 0.0
H113 H 0.10784 0.82826 0.22304 0.0
H114 H 0.1404 0.76035 0.28765 0.0
Cu115 Cu 0.03013 0.64198 0.09068 0.0
N116 N 0.03985 0.64476 0.11548 0.0
N117 N 0.05805 0.65878 0.13765 0.0
C118 C 0.05305 0.65812 0.11916 0.0
C119 C 0.04752 0.64507 0.146 0.0
C120 C 0.0362 0.63651 0.13231 0.0
O121 O 1.01697 0.66639 0.08696 0.0
C122 C 0.05818 0.61724 0.0828 0.0
O123 O 0.05208 0.61228 0.09966 0.0
H124 H 0.05891 0.66721 0.10827 0.0
H125 H 1.02599 0.62526 0.13451 0.0
N126 N 1.01229 0.62331 0.08421 0.0
N127 N 0.9979 0.6049 0.06251 0.0
C128 C 1.00915 0.62006 0.06564 0.0
C129 C 1.00258 0.60969 0.09343 0.0
C130 C 0.99352 0.59839 0.08002 0.0
C131 C 1.00304 0.66786 0.09857 0.0
O132 O 0.99914 0.65338 0.10963 0.0
H133 H 1.01547 0.62859 0.05456 0.0
H134 H 1.00262 0.60768 0.10863 0.0
O135 O 0.0514 0.63238 0.07527 0.0
H136 H 0.04763 0.64172 0.16098 0.0
H137 H 0.985 0.58594 0.08294 0.0
Cu138 Cu 0.89037 0.77836 0.20803 0.0
N139 N 0.89282 0.76737 0.18368 0.0
N140 N 0.90745 0.75263 0.1594 0.0
C141 C 0.9094 0.76057 0.17678 0.0
C142 C 0.88883 0.75463 0.15518 0.0
C143 C 0.87989 0.76376 0.17009 0.0
O144 O 0.91076 0.79748 0.20917 0.0
C145 C 0.88173 0.74221 0.22283 0.0
O146 O 0.88485 0.73553 0.20574 0.0
H147 H 0.92256 0.76097 0.18469 0.0
H148 H 0.86499 0.76727 0.17096 0.0
N149 N 0.86749 0.7907 0.21405 0.0
N150 N 0.84724 0.79974 0.23705 0.0
C151 C 0.86551 0.7991 0.23118 0.0
C152 C 0.84972 0.78607 0.20874 0.0
C153 C 0.83724 0.79174 0.22278 0.0
C154 C 0.90752 0.812 0.19874 0.0
O155 O 0.89115 0.81294 0.18983 0.0
H156 H 0.8775 0.80212 0.24031 0.0
H157 H 0.84623 0.77712 0.19681 0.0
O158 O 0.88884 0.75832 0.22727 0.0
H159 H 0.8821 0.74986 0.14224 0.0
H160 H 0.82219 0.78866 0.22315 0.0
Cu161 Cu 1.02358 0.92005 0.09345 0.0
N162 N 1.01174 0.92115 0.11733 0.0
N163 N 0.99539 0.90912 0.14197 0.0
C164 C 1.00458 0.9054 0.12556 0.0
C165 C 0.99695 0.92814 0.14416 0.0
C166 C 1.00705 0.93551 0.12897 0.0
O167 O 0.04001 0.89758 0.09597 0.0
C168 C 0.98809 0.9286 0.07708 0.0
O169 O 0.97987 0.92554 0.0935 0.0
H170 H 1.00543 0.89152 0.11906 0.0
H171 H 1.01023 0.9503 0.12642 0.0
N172 N 0.038 0.94091 0.08509 0.0
N173 N 0.04798 0.95876 0.06046 0.0
C174 C 0.04465 0.94103 0.06715 0.0
C175 C 0.03739 0.95926 0.09026 0.0
C176 C 0.0437 0.97025 0.07524 0.0
C177 C 0.05591 0.9001 0.1044 0.0
O178 O 0.06145 0.91756 0.10785 0.0
H179 H 0.04458 0.92839 0.05846 0.0
H180 H 0.03101 0.96448 0.10317 0.0
O181 O 1.00399 0.92052 0.07376 0.0
H182 H 0.99103 0.93627 0.15574 0.0
H183 H 0.04372 0.98559 0.07491 0.0
Cu184 Cu 0.35337 0.164 0.28341 0.0
N185 N 0.3792 0.15932 0.2777 0.0
N186 N 0.40363 0.14265 0.26565 0.0
C187 C 0.38479 0.14305 0.26923 0.0
C188 C 0.41025 0.15941 0.27221 0.0
C189 C 0.39519 0.16959 0.27982 0.0
O190 O 0.34593 0.13964 0.29481 0.0
C191 C 0.34937 0.18849 0.25374 0.0
O192 O 0.3657 0.19339 0.26124 0.0
H193 H 0.37503 0.13184 0.26531 0.0
H194 H 0.39584 0.18356 0.28613 0.0
N195 N 0.34677 0.18317 0.30088 0.0
N196 N 0.3263 0.20282 0.31546 0.0
C197 C 0.32889 0.19006 0.30143 0.0
C198 C 0.35602 0.19207 0.31504 0.0
C199 C 0.34335 0.20409 0.32417 0.0
C200 C 0.35407 0.1369 0.31082 0.0
O201 O 0.36455 0.15053 0.31795 0.0
H202 H 0.31776 0.18529 0.29197 0.0
H203 H 0.37075 0.18973 0.31873 0.0
O204 O 0.34092 0.17382 0.26035 0.0
H205 H 0.42491 0.16398 0.2716 0.0
H206 H 0.34645 0.21302 0.33627 0.0
Cu207 Cu 0.40869 0.4616 1.01842 0.0
N208 N 0.4078 0.43556 1.0245 0.0
N209 N 0.39488 0.40896 0.03659 0.0
C210 C 0.39287 0.42783 0.0337 0.0
C211 C 0.41186 0.40464 0.02875 0.0
C212 C 0.41975 0.42103 1.02122 0.0
O213 O 0.38485 0.46499 1.00402 0.0
C214 C 0.42418 0.46854 0.0547 0.0
O215 O 0.42327 0.45005 0.05676 0.0
H216 H 0.38089 0.43614 0.03852 0.0
H217 H 0.43317 0.4222 1.0139 0.0
N218 N 0.42879 0.47061 1.00341 0.0
N219 N 0.44708 0.49515 0.99414 0.0
C220 C 0.4293 0.48903 0.99809 0.0
C221 C 0.44696 0.46475 1.00278 0.0
C222 C 0.45821 0.47976 0.99691 0.0
C223 C 0.38557 0.45794 0.98729 0.0
O224 O 0.402 0.45164 0.98113 0.0
H225 H 0.41711 0.4983 0.99928 0.0
H226 H 0.45197 0.45125 1.00807 0.0
O227 O 0.41455 0.47633 0.0414 0.0
H228 H 0.41814 0.39063 0.02831 0.0
H229 H 0.47354 0.47959 0.99592 0.0
Cu230 Cu 0.71583 0.40561 0.27359 0.0
N231 N 0.69043 0.40569 0.26494 0.0
N232 N 0.66458 0.41718 0.25015 0.0
C233 C 0.6822 0.42098 0.25675 0.0
C234 C 0.66154 0.39875 0.25447 0.0
C235 C 0.67742 0.39174 0.26369 0.0
O236 O 0.71743 0.42833 0.28991 0.0
C237 C 0.72869 0.38707 0.24253 0.0
O238 O 0.71387 0.37715 0.24787 0.0
H239 H 0.68936 0.43446 0.25498 0.0
H240 H 0.67951 0.37733 0.26854 0.0
N241 N 0.72438 0.38465 0.28792 0.0
N242 N 0.74689 0.36471 0.29876 0.0
C243 C 0.7431 0.3818 0.29089 0.0
C244 C 0.71583 0.36878 0.29421 0.0
C245 C 0.72967 0.35648 0.30094 0.0
C246 C 0.70971 0.42624 0.30621 0.0
O247 O 0.70312 0.4094 0.31076 0.0
H248 H 0.75382 0.39176 0.28625 0.0
H249 H 0.70077 0.366 0.29335 0.0
O250 O 0.73228 0.40262 0.25123 0.0
H251 H 0.64882 0.39083 0.25101 0.0
H252 H 0.72718 0.34246 0.3067 0.0
Cu253 Cu 0.64359 0.09458 1.02406 0.0
N254 N 0.64714 0.12019 0.03098 0.0
N255 N 0.66244 0.14305 0.04721 0.0
C256 C 0.66083 0.12429 0.04369 0.0
C257 C 0.64897 0.15121 0.0362 0.0
C258 C 0.63961 0.13707 0.02607 0.0
O259 O 0.66794 0.08972 1.0111 0.0
C260 C 0.61812 0.09127 0.05171 0.0
O261 O 0.61279 0.10562 0.04108 0.0
H262 H 0.66942 0.11344 0.05037 0.0
H263 H 0.6283 0.13898 1.01587 0.0
N264 N 0.62487 0.08582 1.00712 0.0
N265 N 0.60725 0.06244 0.9944 0.0
C266 C 0.62192 0.06695 1.00584 0.0
C267 C 0.61152 0.09378 0.99601 0.0
C268 C 0.60071 0.07934 0.988 0.0
C269 C 0.66842 0.0985 0.99515 0.0
O270 O 0.65316 0.10762 0.98955 0.0
H271 H 0.63047 0.05668 1.01343 0.0
H272 H 0.60951 0.10889 0.99418 0.0
O273 O 0.63375 0.08285 0.04753 0.0
H274 H 0.64629 0.16631 0.03523 0.0
H275 H 0.58867 0.0812 0.97864 0.0
Cu276 Cu 0.35262 0.88904 0.26994 0.0
N277 N 0.37855 0.8926 0.27543 0.0
N278 N 0.40271 0.9073 0.29032 0.0
C279 C 0.38439 0.90159 0.29131 0.0
C280 C 0.40866 0.90156 0.27303 0.0
C281 C 0.39372 0.89262 0.26385 0.0
O282 O 0.34575 0.91458 0.26082 0.0
C283 C 0.34974 0.86292 0.29816 0.0
O284 O 0.3656 0.8584 0.28947 0.0
H285 H 0.37481 0.90526 0.30272 0.0
H286 H 0.39357 0.88777 0.24931 0.0
N287 N 0.34597 0.87088 0.25156 0.0
N288 N 0.32597 0.85065 0.23706 0.0
C289 C 0.32791 0.86471 0.24994 0.0
C290 C 0.35605 0.86023 0.23935 0.0
C291 C 0.34373 0.84774 0.23037 0.0
C292 C 0.34091 0.91796 0.24366 0.0
O293 O 0.33461 0.90399 0.23309 0.0
H294 H 0.31648 0.87015 0.25861 0.0
H295 H 0.37125 0.86115 0.2374 0.0
O296 O 0.34095 0.87791 0.29276 0.0
H297 H 0.42255 0.90428 0.26708 0.0
H298 H 0.34761 0.8373 0.21981 0.0
Cu299 Cu 0.14175 0.45624 1.01616 0.0
N300 N 0.14232 0.43023 1.01019 0.0
N301 N 0.15563 0.40383 0.99818 0.0
C302 C 0.15843 0.42185 1.00409 0.0
C303 C 0.13686 0.40069 1.00083 0.0
C304 C 0.12869 0.41698 1.00829 0.0
O305 O 0.16543 0.45955 0.03068 0.0
C306 C 0.12801 0.4628 0.97914 0.0
O307 O 0.13233 0.44516 0.97496 0.0
H308 H 0.17182 0.42931 1.003 0.0
H309 H 0.1138 0.41925 1.01131 0.0
N310 N 0.12188 0.46592 0.03102 0.0
N311 N 0.10382 0.48959 0.04234 0.0
C312 C 0.11916 0.48484 0.03198 0.0
C313 C 0.10764 0.45824 0.04118 0.0
C314 C 0.09657 0.47288 0.04837 0.0
C315 C 0.16443 0.45261 0.04743 0.0
O316 O 0.14798 0.44614 0.05334 0.0
H317 H 0.1284 0.49501 1.0251 0.0
H318 H 0.10538 0.44317 0.04308 0.0
O319 O 0.13667 0.47076 0.99295 0.0
H320 H 0.12944 0.38772 0.99726 0.0
H321 H 0.08398 0.47132 0.05702 0.0
Cu322 Cu 0.71358 0.66134 0.27776 0.0
N323 N 0.69008 0.66209 0.29052 0.0
N324 N 0.66525 0.65001 0.30659 0.0
C325 C 0.68203 0.64636 0.29801 0.0
C326 C 0.66264 0.66889 0.30435 0.0
C327 C 0.67787 0.67627 0.29435 0.0
O328 O 0.70973 0.64347 0.25663 0.0
C329 C 0.74225 0.66082 0.30784 0.0
O330 O 0.75474 0.6512 0.31779 0.0
H331 H 0.6886 0.63249 0.29739 0.0
H332 H 0.67985 0.69092 0.29026 0.0
N333 N 0.72455 0.68402 0.26868 0.0
N334 N 0.74948 0.70243 0.26113 0.0
C335 C 0.74262 0.68456 0.26226 0.0
C336 C 0.71966 0.70232 0.27132 0.0
C337 C 0.73506 0.71368 0.26682 0.0
C338 C 0.69855 0.64821 0.24317 0.0
O339 O 0.6912 0.66535 0.24336 0.0
H340 H 0.75114 0.67196 0.2601 0.0
H341 H 0.70648 0.70704 0.27756 0.0
O342 O 0.73188 0.65168 0.29601 0.0
H343 H 0.65048 0.67682 0.30937 0.0
H344 H 0.73587 0.72894 0.26843 0.0
Cu345 Cu 0.91992 0.09684 1.01174 0.0
N346 N 0.92098 0.11774 0.99521 0.0
N347 N 0.90842 0.1401 0.97623 0.0
C348 C 0.90516 0.12437 0.98669 0.0
C349 C 0.92722 0.14348 0.97822 0.0
C350 C 0.93491 0.12975 0.99006 0.0
O351 O 0.90308 0.10525 0.03236 0.0
C352 C 0.91809 0.06437 0.98635 0.0
O353 O 0.90847 0.0503 0.9788 0.0
H354 H 0.89143 0.11765 0.98824 0.0
H355 H 0.9495 0.12882 0.99474 0.0
N356 N 0.94249 0.08673 1.02191 0.0
N357 N 0.96021 0.06238 0.03245 0.0
C358 C 0.94258 0.06974 0.03079 0.0
C359 C 0.96085 0.0905 1.01815 0.0
C360 C 0.9718 0.07545 1.02455 0.0
C361 C 0.90841 0.1199 0.0416 0.0
O362 O 0.92516 0.12714 0.03771 0.0
H363 H 0.92972 0.06205 0.03422 0.0
H364 H 0.96581 0.10243 1.00989 0.0
O365 O 0.90921 0.0761 0.99703 0.0
H366 H 0.93482 0.15527 0.97197 0.0
H367 H 0.98694 0.07377 1.02256 0.0
Cu368 Cu 0.27677 0.33709 0.1496 0.0
N369 N 0.26887 0.36261 0.14853 0.0
N370 N 0.25565 0.38847 0.13522 0.0
C371 C 0.25887 0.36959 0.13376 0.0
C372 C 0.26399 0.39352 0.15175 0.0
C373 C 0.27221 0.3776 0.15987 0.0
O374 O 0.29186 0.33447 0.12617 0.0
C375 C 0.24684 0.32611 0.17068 0.0
O376 O 0.25335 0.34132 0.17926 0.0
H377 H 0.25405 0.36082 0.12213 0.0
H378 H 0.28019 0.37709 0.17295 0.0
N379 N 0.29221 0.32935 0.17007 0.0
N380 N 0.30482 0.30813 0.19028 0.0
C381 C 0.29407 0.31083 0.17465 0.0
C382 C 0.30211 0.33884 0.18336 0.0
C383 C 0.31003 0.32577 0.19575 0.0
C384 C 0.30789 0.34301 0.12715 0.0
O385 O 0.31284 0.35072 0.14336 0.0
H386 H 0.28758 0.29951 0.16655 0.0
H387 H 0.30341 0.3541 0.18411 0.0
O388 O 0.25414 0.32151 0.1547 0.0
H389 H 0.2645 0.40776 0.15746 0.0
H390 H 0.31866 0.32905 0.20802 0.0
Cu391 Cu 0.2809 0.71398 0.40498 0.0
N392 N 0.27432 0.6881 0.40593 0.0
N393 N 0.26065 0.66233 0.41887 0.0
C394 C 0.25992 0.68139 0.41664 0.0
C395 C 0.27619 0.65682 0.4091 0.0
C396 C 0.28464 0.67272 0.40123 0.0
O397 O 0.29557 0.71718 0.42867 0.0
C398 C 0.24738 0.72248 0.38669 0.0
O399 O 0.25147 0.70584 0.37939 0.0
H400 H 0.24992 0.69055 0.42383 0.0
H401 H 0.298 0.67314 0.39372 0.0
N402 N 0.29573 0.72208 0.38435 0.0
N403 N 0.30773 0.7434 0.3639 0.0
C404 C 0.29797 0.74065 0.38016 0.0
C405 C 0.30426 0.71262 0.37015 0.0
C406 C 0.31182 0.72573 0.35761 0.0
C407 C 0.31297 0.71187 0.42808 0.0
O408 O 0.32033 0.70748 0.41156 0.0
H409 H 0.29236 0.75194 0.3889 0.0
H410 H 0.3046 0.69734 0.36876 0.0
O411 O 0.25769 0.72881 0.40026 0.0
H412 H 0.28148 0.64242 0.40822 0.0
H413 H 0.31927 0.72247 0.3446 0.0
Cu414 Cu 0.9533 0.51941 0.914 0.0
N415 N 0.92665 0.52112 0.91214 0.0
N416 N 0.90115 0.53211 0.89619 0.0
C417 C 0.91842 0.53621 0.90357 0.0
C418 C 0.89831 0.51363 0.90046 0.0
C419 C 0.91406 0.50688 0.91016 0.0
O420 O 0.95861 0.50942 0.88838 0.0
C421 C 0.95387 0.54899 0.93888 0.0
O422 O 0.93844 0.53972 0.94372 0.0
H423 H 0.92599 0.54929 0.90079 0.0
H424 H 0.91697 0.49219 0.91357 0.0
N425 N 0.96511 0.50334 0.93181 0.0
N426 N 0.99102 0.49273 0.94724 0.0
C427 C 0.98416 0.50115 0.93146 0.0
C428 C 0.9596 0.49632 0.94868 0.0
C429 C 0.97556 0.48967 0.95819 0.0
C430 C 0.96074 0.49146 0.88631 0.0
O431 O 0.96502 0.48111 0.90116 0.0
H432 H 0.99294 0.50674 0.92018 0.0
H433 H 0.94528 0.497 0.95415 0.0
O434 O 0.96262 0.54387 0.92379 0.0
H435 H 0.88631 0.50523 0.89584 0.0
H436 H 0.97579 0.48355 0.97227 0.0
Cu437 Cu 0.77081 0.83327 0.38485 0.0
N438 N 0.77878 0.85877 0.38406 0.0
N439 N 0.79372 0.88421 0.39633 0.0
C440 C 0.78445 0.86782 0.39999 0.0
C441 C 0.7937 0.88563 0.3772 0.0
C442 C 0.78446 0.86995 0.36967 0.0
O443 O 0.75675 0.83217 0.40905 0.0
C444 C 0.80853 0.82401 0.37367 0.0
O445 O 0.81487 0.84046 0.37969 0.0
H446 H 0.78324 0.86161 0.41397 0.0
H447 H 0.78328 0.8663 0.35482 0.0
N448 N 0.75562 0.82337 0.36519 0.0
N449 N 0.74612 0.79888 0.34699 0.0
C450 C 0.75296 0.80443 0.36402 0.0
C451 C 0.75003 0.83025 0.34826 0.0
C452 C 0.74397 0.81517 0.33708 0.0
C453 C 0.73861 0.83329 0.40905 0.0
O454 O 0.72944 0.83125 0.39297 0.0
H455 H 0.75739 0.79473 0.37508 0.0
H456 H 0.75165 0.84485 0.34382 0.0
O457 O 0.7933 0.81732 0.38094 0.0
H458 H 0.80061 0.89674 0.36916 0.0
H459 H 0.73979 0.81598 0.32233 0.0
Cu460 Cu 0.59569 0.53103 0.41395 0.0
N461 N 0.62199 0.52661 0.41236 0.0
N462 N 0.64836 0.51536 0.39832 0.0
C463 C 0.6294 0.51791 0.39701 0.0
C464 C 0.65312 0.52285 0.41534 0.0
C465 C 0.63684 0.5299 0.42393 0.0
O466 O 0.59121 0.54228 0.3887 0.0
C467 C 0.59185 0.49574 0.43279 0.0
O468 O 0.61048 0.49572 0.43235 0.0
H469 H 0.62078 0.51303 0.38528 0.0
H470 H 0.63588 0.53663 0.43767 0.0
N471 N 0.58623 0.54753 0.43257 0.0
N472 N 0.56287 0.55964 0.4506 0.0
C473 C 0.56771 0.54671 0.43735 0.0
C474 C 0.59362 0.56152 0.44325 0.0
C475 C 0.57919 0.56909 0.45434 0.0
C476 C 0.58755 0.55995 0.38657 0.0
O477 O 0.58015 0.56939 0.40079 0.0
H478 H 0.55781 0.53705 0.43069 0.0
H479 H 0.6083 0.56602 0.44287 0.0
O480 O 0.58289 0.5075 0.42221 0.0
H481 H 0.66732 0.52321 0.4212 0.0
H482 H 0.58065 0.58061 0.46437 0.0
Cu483 Cu 0.27703 0.70937 0.66255 0.0
N484 N 0.27645 0.68282 0.6597 0.0
N485 N 0.28665 0.65685 0.64408 0.0
C486 C 0.29156 0.67336 0.65259 0.0
C487 C 0.2676 0.6558 0.64606 0.0
C488 C 0.26136 0.67184 0.65557 0.0
O489 O 0.27168 0.71659 0.63623 0.0
C490 C 0.30372 0.70657 0.69036 0.0
O491 O 0.29237 0.69223 0.694 0.0
H492 H 0.30557 0.67961 0.65165 0.0
H493 H 0.24673 0.67614 0.6574 0.0
N494 N 0.25943 0.7214 0.67866 0.0
N495 N 0.24786 0.74623 0.69505 0.0
C496 C 0.2602 0.74031 0.68166 0.0
C497 C 0.24625 0.71491 0.69085 0.0
C498 C 0.23906 0.73022 0.70096 0.0
C499 C 0.25499 0.72204 0.63161 0.0
O500 O 0.24522 0.73215 0.64381 0.0
H501 H 0.27014 0.7495 0.6744 0.0
H502 H 0.2425 0.70013 0.69262 0.0
O503 O 0.30094 0.71612 0.67516 0.0
H504 H 0.25865 0.64489 0.64 0.0
H505 H 0.22823 0.72957 0.71182 0.0
Cu506 Cu 0.96905 0.51917 0.64252 0.0
N507 N 0.962 0.49562 0.65295 0.0
N508 N 0.94565 0.47245 0.66748 0.0
C509 C 0.9467 0.49129 0.66373 0.0
C510 C 0.96094 0.46477 0.65884 0.0
C511 C 0.97095 0.47904 0.64996 0.0
O512 O 0.95346 0.53889 0.65501 0.0
C513 C 0.9566 0.50583 0.60579 0.0
O514 O 0.94462 0.49527 0.61539 0.0
H515 H 0.93629 0.50164 0.66825 0.0
H516 H 0.98372 0.47742 0.64161 0.0
N517 N 0.99498 0.52353 0.64746 0.0
N518 N 1.02585 0.53001 0.64296 0.0
C519 C 1.00918 0.52523 0.63467 0.0
C520 C 1.00302 0.52711 0.6644 0.0
C521 C 1.02198 0.53123 0.66166 0.0
C522 C 0.9596 0.55535 0.65953 0.0
O523 O 0.97658 0.56051 0.65383 0.0
H524 H 1.00718 0.52374 0.61952 0.0
H525 H 0.99546 0.52727 0.67774 0.0
O526 O 0.96686 0.51783 0.61469 0.0
H527 H 0.96468 0.44987 0.65894 0.0
H528 H 0.03212 0.53502 0.67257 0.0
Cu529 Cu 0.08729 1.02157 0.63548 0.0
N530 N 0.11252 0.03064 0.63706 0.0
N531 N 0.1375 0.04534 0.65064 0.0
C532 C 0.12 0.03784 0.65322 0.0
C533 C 0.14123 0.04253 0.63204 0.0
C534 C 0.12587 0.03346 0.62373 0.0
O535 O 0.08513 1.00506 0.65799 0.0
C536 C 0.07716 0.05858 0.62424 0.0
O537 O 0.09367 0.06465 0.63041 0.0
H538 H 0.11225 0.03837 0.66646 0.0
H539 H 0.12436 0.02978 0.60894 0.0
N540 N 0.07989 1.00746 0.61403 0.0
N541 N 0.05574 0.99771 0.59542 0.0
C542 C 0.06261 0.99904 0.6133 0.0
C543 C 0.08416 1.01142 0.59584 0.0
C544 C 0.06939 1.00537 0.58438 0.0
C545 C 0.09427 0.98944 0.65627 0.0
O546 O 0.10199 0.98558 0.63976 0.0
H547 H 0.05412 0.99638 0.62581 0.0
H548 H 0.09586 1.02028 0.5914 0.0
O549 O 0.07039 0.04332 0.63136 0.0
H550 H 0.15405 0.04692 0.62481 0.0
H551 H 0.06809 1.0079 0.56929 0.0
Cu552 Cu 0.65713 0.77875 0.84557 0.0
N553 N 0.65381 0.77851 0.87201 0.0
N554 N 0.6384 0.7693 0.89837 0.0
C555 C 0.64107 0.76644 0.87964 0.0
C556 C 0.65026 0.78372 0.90284 0.0
C557 C 0.65963 0.78952 0.88649 0.0
O558 O 0.6303 0.78127 0.83821 0.0
C559 C 0.68934 0.75795 0.84705 0.0
O560 O 0.69212 0.77234 0.85857 0.0
H561 H 0.63352 0.75596 0.87134 0.0
H562 H 0.66943 0.80127 0.88517 0.0
N563 N 0.67073 0.79854 0.83391 0.0
N564 N 0.68547 0.81249 0.80927 0.0
C565 C 0.67727 0.79653 0.81604 0.0
C566 C 0.67501 0.81646 0.83887 0.0
C567 C 0.68408 0.82511 0.82368 0.0
C568 C 0.62385 0.79679 0.8313 0.0
O569 O 0.63463 0.80659 0.8197 0.0
H570 H 0.67523 0.78368 0.80791 0.0
H571 H 0.67139 0.82291 0.8523 0.0
O572 O 0.67293 0.75641 0.83932 0.0
H573 H 0.65153 0.79011 0.91674 0.0
H574 H 0.68909 0.83963 0.82329 0.0
Cu575 Cu 1.02515 0.13089 0.45184 0.0
N576 N 1.02128 0.134 0.42556 0.0
N577 N 1.00883 0.15007 0.40096 0.0
C578 C 1.01074 0.14894 0.41993 0.0
C579 C 1.0185 0.13497 0.39416 0.0
C580 C 0.02638 0.12514 0.40941 0.0
O581 O 0.03394 0.15685 0.45741 0.0
C582 C 0.99662 0.10501 0.45303 0.0
O583 O 1.00577 0.10075 0.4374 0.0
H584 H 1.00437 0.15882 0.42981 0.0
H585 H 0.03505 0.11249 0.40872 0.0
N586 N 0.04258 0.11353 0.4623 0.0
N587 N 0.05322 0.09703 0.48756 0.0
C588 C 0.04504 0.11321 0.48129 0.0
C589 C 0.04935 0.09677 0.45615 0.0
C590 C 0.05605 0.08663 0.47168 0.0
C591 C 0.05184 0.16011 0.45734 0.0
O592 O 0.06345 0.14612 0.4614 0.0
H593 H 0.0393 0.12408 0.49048 0.0
H594 H 0.04812 0.09164 0.44176 0.0
O595 O 1.00152 0.12002 0.46205 0.0
H596 H 1.02 0.13146 0.3793 0.0
H597 H 0.06175 0.07237 0.47133 0.0
Cu598 Cu 0.39175 0.77586 0.84886 0.0
N599 N 0.39519 0.7796 0.87505 0.0
N600 N 0.41153 0.78953 0.90061 0.0
C601 C 0.40954 0.79048 0.88157 0.0
C602 C 0.39763 0.77759 0.90635 0.0
C603 C 0.38768 0.77134 0.89054 0.0
O604 O 0.41684 0.76556 0.84192 0.0
C605 C 0.36691 0.80621 0.84667 0.0
O606 O 0.36392 0.80041 0.8641 0.0
H607 H 0.41864 0.79863 0.87228 0.0
H608 H 0.37633 0.76102 0.89032 0.0
N609 N 0.37383 0.75823 0.84018 0.0
N610 N 0.3568 0.74462 0.81697 0.0
C611 C 0.37244 0.75472 0.82146 0.0
C612 C 0.35847 0.75007 0.84803 0.0
C613 C 0.34802 0.74146 0.83374 0.0
C614 C 0.41888 0.74822 0.84705 0.0
O615 O 0.4041 0.73921 0.85395 0.0
H616 H 0.38249 0.7602 0.81123 0.0
H617 H 0.35458 0.75117 0.86282 0.0
O618 O 0.38086 0.79902 0.83747 0.0
H619 H 0.39525 0.77308 0.92082 0.0
H620 H 0.33451 0.73435 0.83546 0.0
Cu621 Cu 1.02363 0.41327 0.45581 0.0
N622 N 0.03531 0.40913 0.43202 0.0
N623 N 0.05454 0.39433 0.41128 0.0
C624 C 0.04836 0.39535 0.42941 0.0
C625 C 0.04493 0.4082 0.40211 0.0
C626 C 0.03304 0.41725 0.4149 0.0
O627 O 1.00876 0.38985 0.46 0.0
C628 C 0.05302 0.43584 0.46584 0.0
O629 O 0.04898 0.4409 0.44837 0.0
H630 H 0.05325 0.3863 0.4408 0.0
H631 H 1.02334 0.42877 0.41189 0.0
N632 N 1.0067 0.43371 0.45895 0.0
N633 N 0.99134 0.45518 0.47686 0.0
C634 C 1.00552 0.44237 0.47597 0.0
C635 C 0.99261 0.44133 0.4485 0.0
C636 C 0.98305 0.45456 0.45957 0.0
C637 C 0.99732 0.38663 0.44622 0.0
O638 O 0.99643 0.39904 0.43236 0.0
H639 H 1.01437 0.43853 0.48792 0.0
H640 H 0.98908 0.43716 0.43417 0.0
O641 O 0.04415 0.42162 0.47292 0.0
H642 H 0.04606 0.41139 0.38715 0.0
H643 H 0.9708 0.46281 0.45532 0.0
Cu644 Cu 0.65704 0.26705 0.71863 0.0
N645 N 0.65491 0.27743 0.69399 0.0
N646 N 0.64128 0.29374 0.6701 0.0
C647 C 0.64131 0.29001 0.68892 0.0
C648 C 0.65533 0.28282 0.66296 0.0
C649 C 0.66365 0.27275 0.67768 0.0
O650 O 0.63421 0.25097 0.72077 0.0
C651 C 0.67 0.30263 0.73213 0.0
O652 O 0.66815 0.30856 0.7146 0.0
H653 H 0.63127 0.29595 0.69891 0.0
H654 H 0.67491 0.26238 0.67648 0.0
N655 N 0.67875 0.25248 0.72423 0.0
N656 N 0.70017 0.24295 0.74604 0.0
C657 C 0.68158 0.24566 0.74196 0.0
C658 C 0.69622 0.2539 0.71667 0.0
C659 C 0.7094 0.24793 0.72999 0.0
C660 C 0.63522 0.23447 0.71325 0.0
O661 O 0.65178 0.22854 0.70706 0.0
H662 H 0.67042 0.24528 0.7525 0.0
H663 H 0.69939 0.26086 0.70338 0.0
O664 O 0.66152 0.28738 0.73715 0.0
H665 H 0.65934 0.28213 0.64817 0.0
H666 H 0.72467 0.24871 0.72845 0.0
Cu667 Cu 0.52302 0.14173 0.59252 0.0
N668 N 0.52573 0.14323 0.6191 0.0
N669 N 0.53769 0.15557 0.64599 0.0
C670 C 0.53698 0.15665 0.62688 0.0
C671 C 0.52633 0.14076 0.65047 0.0
C672 C 0.51882 0.13328 0.63387 0.0
O673 O 0.51486 0.16802 0.5871 0.0
C674 C 0.55089 0.11508 0.59104 0.0
O675 O 0.54054 0.10991 0.60562 0.0
H676 H 0.54489 0.16681 0.61851 0.0
H677 H 0.50926 0.12132 0.63268 0.0
N678 N 0.50569 0.12466 0.58146 0.0
N679 N 0.49502 0.10765 0.55663 0.0
C680 C 0.50472 0.12315 0.5624 0.0
C681 C 0.49639 0.10938 0.58816 0.0
C682 C 0.48971 0.09891 0.57286 0.0
C683 C 0.49758 0.17191 0.58294 0.0
O684 O 0.4865 0.15834 0.57662 0.0
H685 H 0.51218 0.13267 0.55295 0.0
H686 H 0.49552 0.10547 0.60296 0.0
O687 O 0.5469 0.1308 0.58278 0.0
H688 H 0.52357 0.13575 0.66471 0.0
H689 H 0.48206 0.08562 0.57368 0.0
Cu690 Cu 0.38912 0.27649 0.70165 0.0
N691 N 0.39289 0.27233 0.67546 0.0
N692 N 0.40828 0.26069 0.65009 0.0
C693 C 0.40846 0.26315 0.66907 0.0
C694 C 0.3919 0.26877 0.64421 0.0
C695 C 0.38252 0.27614 0.65986 0.0
O696 O 0.41372 0.28785 0.70866 0.0
C697 C 0.36457 0.24619 0.70378 0.0
O698 O 0.36073 0.25319 0.68698 0.0
H699 H 0.41951 0.25784 0.67835 0.0
H700 H 0.36895 0.28333 0.65988 0.0
N701 N 0.37064 0.29359 0.71036 0.0
N702 N 0.35291 0.30662 0.73343 0.0
C703 C 0.3683 0.29603 0.72918 0.0
C704 C 0.35616 0.30299 0.70219 0.0
C705 C 0.34529 0.3112 0.71641 0.0
C706 C 0.41525 0.30492 0.70249 0.0
O707 O 0.4005 0.3128 0.69427 0.0
H708 H 0.37762 0.28965 0.73958 0.0
H709 H 0.35327 0.30325 0.68713 0.0
O710 O 0.37875 0.25299 0.71296 0.0
H711 H 0.38703 0.26929 0.62966 0.0
H712 H 0.33235 0.31924 0.71436 0.0
Cu713 Cu 0.52657 0.41232 0.5962 0.0
N714 N 0.51748 0.41285 0.62131 0.0
N715 N 0.50264 0.40005 0.64649 0.0
C716 C 0.51252 0.39672 0.63042 0.0
C717 C 0.50151 0.41918 0.64763 0.0
C718 C 0.51066 0.42704 0.63209 0.0
O719 O 0.54334 0.38983 0.59617 0.0
C720 C 0.48901 0.42089 0.58627 0.0
O721 O 0.482 0.41292 0.60158 0.0
H722 H 0.51478 0.38275 0.62446 0.0
H723 H 0.5111 0.44191 0.6283 0.0
N724 N 0.54044 0.43313 0.58695 0.0
N725 N 0.55063 0.45118 0.56262 0.0
C726 C 0.54633 0.43349 0.56873 0.0
C727 C 0.54102 0.45131 0.59272 0.0
C728 C 0.54744 0.46244 0.57783 0.0
C729 C 0.55791 0.39227 0.60677 0.0
O730 O 0.56048 0.40921 0.61414 0.0
H731 H 0.54564 0.42115 0.55963 0.0
H732 H 0.53572 0.45635 0.6062 0.0
O733 O 0.50444 0.41418 0.5795 0.0
H734 H 0.49393 0.42698 0.65846 0.0
H735 H 0.54874 0.47773 0.57801 0.0
Cu736 Cu 0.84088 0.65365 0.7799 0.0
N737 N 0.86649 0.6507 0.77253 0.0
N738 N 0.89013 0.63806 0.75511 0.0
C739 C 0.87122 0.63865 0.75843 0.0
C740 C 0.8976 0.65034 0.76788 0.0
C741 C 0.88302 0.65808 0.7786 0.0
O742 O 0.83549 0.62874 0.79174 0.0
C743 C 0.83702 0.68073 0.75375 0.0
O744 O 0.85161 0.68546 0.76436 0.0
H745 H 0.86077 0.63024 0.75098 0.0
H746 H 0.88439 0.66831 0.78994 0.0
N747 N 0.83331 0.6718 0.79806 0.0
N748 N 0.81171 0.68996 0.81294 0.0
C749 C 0.8149 0.67707 0.79917 0.0
C750 C 0.84226 0.68187 0.81161 0.0
C751 C 0.82892 0.69298 0.82091 0.0
C752 C 0.84504 0.62697 0.80716 0.0
O753 O 0.85565 0.64127 0.81265 0.0
H754 H 0.80395 0.67126 0.79009 0.0
H755 H 0.85731 0.68116 0.81456 0.0
O756 O 0.82867 0.6649 0.75726 0.0
H757 H 0.91252 0.65369 0.76936 0.0
H758 H 0.83172 0.70268 0.83247 0.0
Cu759 Cu 0.90654 0.94805 0.52067 0.0
N760 N 0.90557 0.92256 0.52861 0.0
N761 N 0.89203 0.89717 0.54239 0.0
C762 C 0.88935 0.91472 0.53517 0.0
C763 C 0.91079 0.89374 0.54017 0.0
C764 C 0.91909 0.90938 0.53156 0.0
O765 O 0.88236 0.95123 0.50678 0.0
C766 C 0.92288 0.95803 0.55642 0.0
O767 O 0.92048 0.94023 0.56134 0.0
H768 H 0.87597 0.92228 0.53559 0.0
H769 H 0.93402 0.91134 0.52852 0.0
N770 N 0.92581 0.95581 0.50416 0.0
N771 N 0.94418 0.97864 0.49172 0.0
C772 C 0.9278 0.9745 0.50066 0.0
C773 C 0.94153 0.94761 0.49708 0.0
C774 C 0.95283 0.9617 0.48916 0.0
C775 C 0.88224 0.94376 0.4902 0.0
O776 O 0.89802 0.93637 0.48363 0.0
H777 H 0.91769 0.98502 0.50547 0.0
H778 H 0.94504 0.93273 0.4985 0.0
O779 O 0.91364 0.96451 0.54217 0.0
H780 H 0.91808 0.88103 0.54481 0.0
H781 H 0.96676 0.95976 0.48299 0.0
Cu782 Cu 0.20703 0.89139 0.77645 0.0
N783 N 0.18198 0.89105 0.76674 0.0
N784 N 0.15652 0.90271 0.75124 0.0
C785 C 0.1742 0.90622 0.75791 0.0
C786 C 0.15301 0.88452 0.7563 0.0
C787 C 0.16867 0.8774 0.76586 0.0
O788 O 0.20778 0.91514 0.79133 0.0
C789 C 0.21867 0.87926 0.73987 0.0
O790 O 0.20183 0.88418 0.73358 0.0
H791 H 0.18181 0.9194 0.75582 0.0
H792 H 0.17026 0.86321 0.77144 0.0
N793 N 0.21496 0.87163 0.79253 0.0
N794 N 0.23897 0.85382 0.804 0.0
C795 C 0.23289 0.87147 0.79942 0.0
C796 C 0.20938 0.85336 0.79288 0.0
C797 C 0.22404 0.84241 0.80008 0.0
C798 C 0.19475 0.91537 0.804 0.0
O799 O 0.18442 0.9 0.80627 0.0
H800 H 0.24206 0.88378 0.79888 0.0
H801 H 0.19647 0.84805 0.78654 0.0
O802 O 0.22462 0.8864 0.75545 0.0
H803 H 0.14011 0.87676 0.75326 0.0
H804 H 0.22408 0.82709 0.80114 0.0
Cu805 Cu 0.15114 0.58594 0.53886 0.0
N806 N 0.15169 0.61104 0.54791 0.0
N807 N 0.16504 0.63744 0.55979 0.0
C808 C 0.1676 0.61906 0.55497 0.0
C809 C 0.14671 0.64116 0.55546 0.0
C810 C 0.1385 0.62485 0.54815 0.0
O811 O 0.17262 0.58524 0.52098 0.0
C812 C 0.14468 0.57346 0.57674 0.0
O813 O 0.14705 0.59124 0.58173 0.0
H814 H 0.18094 0.61153 0.55622 0.0
H815 H 0.12403 0.62325 0.54328 0.0
N816 N 0.12921 0.57817 0.52577 0.0
N817 N 0.1085 0.55675 0.51447 0.0
C818 C 0.12489 0.5596 0.52395 0.0
C819 C 0.11497 0.58753 0.5171 0.0
C820 C 0.10225 0.57431 0.50995 0.0
C821 C 0.1697 0.59538 0.5062 0.0
O822 O 0.15297 0.60338 0.50419 0.0
H823 H 0.13382 0.54831 0.52933 0.0
H824 H 0.11391 0.6028 0.51596 0.0
O825 O 0.15011 0.56816 0.56029 0.0
H826 H 0.13965 0.65464 0.55758 0.0
H827 H 0.08933 0.57739 0.50221 0.0
Cu828 Cu 0.83786 0.38364 0.78208 0.0
N829 N 0.85955 0.38352 0.79766 0.0
N830 N 0.88377 0.39709 0.81344 0.0
C831 C 0.86744 0.39988 0.80375 0.0
C832 C 0.88619 0.37803 0.81349 0.0
C833 C 0.87132 0.36972 0.80365 0.0
O834 O 0.84578 0.39922 0.7604 0.0
C835 C 0.80532 0.38833 0.80776 0.0
O836 O 0.79248 0.39963 0.81518 0.0
H837 H 0.86126 0.41365 0.8009 0.0
H838 H 0.8695 0.35477 0.80078 0.0
N839 N 0.82755 0.36048 0.77351 0.0
N840 N 0.80327 0.34123 0.76601 0.0
C841 C 0.80949 0.35932 0.7672 0.0
C842 C 0.83323 0.34237 0.77583 0.0
C843 C 0.8182 0.33046 0.77136 0.0
C844 C 0.86032 0.39338 0.75133 0.0
O845 O 0.86738 0.3767 0.75582 0.0
H846 H 0.80049 0.37162 0.76521 0.0
H847 H 0.84673 0.3381 0.78175 0.0
O848 O 0.81783 0.3957 0.79681 0.0
H849 H 0.89812 0.3706 0.8197 0.0
H850 H 0.81801 0.31517 0.77275 0.0
Cu851 Cu 0.64578 0.96055 0.52101 0.0
N852 N 0.64402 0.93585 0.51083 0.0
N853 N 0.65408 0.91 0.49508 0.0
C854 C 0.65916 0.9261 0.5042 0.0
C855 C 0.63491 0.90957 0.49615 0.0
C856 C 0.62876 0.92549 0.50589 0.0
O857 O 0.66928 0.96056 0.53618 0.0
C858 C 0.63476 0.97361 0.48461 0.0
O859 O 0.64014 0.9574 0.4772 0.0
H860 H 0.67358 0.93134 0.50508 0.0
H861 H 0.61419 0.92966 0.50836 0.0
N862 N 0.62625 0.96868 0.53709 0.0
N863 N 0.60777 0.99121 0.54998 0.0
C864 C 0.62427 0.98729 0.54111 0.0
C865 C 0.61046 0.96033 0.54383 0.0
C866 C 0.59909 0.97421 0.55197 0.0
C867 C 0.66937 0.9473 0.54858 0.0
O868 O 0.65424 0.93649 0.55011 0.0
H869 H 0.6345 0.9979 0.53677 0.0
H870 H 0.607 0.94547 0.54213 0.0
O871 O 0.6421 0.9788 0.50036 0.0
H872 H 0.62592 0.89878 0.48993 0.0
H873 H 0.58511 0.97207 0.55796 0.0
Cu874 Cu 0.20195 0.15883 0.76769 0.0
N875 N 0.17546 0.15816 0.77113 0.0
N876 N 0.14977 0.14499 0.78487 0.0
C877 C 0.16789 0.15094 0.78718 0.0
C878 C 0.14572 0.14877 0.76651 0.0
C879 C 0.1616 0.15675 0.75806 0.0
O880 O 0.20597 0.13256 0.75868 0.0
C881 C 0.20481 0.18499 0.79593 0.0
O882 O 0.19022 0.19091 0.78594 0.0
H883 H 0.17628 0.14818 0.79975 0.0
H884 H 0.16346 0.15953 0.74309 0.0
N885 N 0.21271 0.17589 0.75017 0.0
N886 N 0.23675 0.19257 0.73733 0.0
C887 C 0.23126 0.18066 0.75131 0.0
C888 C 0.20601 0.18523 0.73494 0.0
C889 C 0.22083 0.19547 0.72695 0.0
C890 C 0.21073 0.12898 0.74153 0.0
O891 O 0.21951 0.14214 0.73171 0.0
H892 H 0.24068 0.17494 0.76201 0.0
H893 H 0.19153 0.18448 0.72987 0.0
O894 O 0.21258 0.16915 0.79143 0.0
H895 H 0.13264 0.14504 0.75937 0.0
H896 H 0.21988 0.20435 0.71447 0.0
Cu897 Cu 0.41206 0.59257 0.5371 0.0
N898 N 0.40985 0.61911 0.53414 0.0
N899 N 0.39604 0.64558 0.52276 0.0
C900 C 0.39605 0.62641 0.52303 0.0
C901 C 0.41059 0.6506 0.53425 0.0
C902 C 0.41898 0.63424 0.5414 0.0
O903 O 0.38667 0.58692 0.54762 0.0
C904 C 0.43644 0.59161 0.50707 0.0
O905 O 0.44146 0.60712 0.51606 0.0
H906 H 0.38626 0.61764 0.51508 0.0
H907 H 0.43082 0.63346 0.55115 0.0
N908 N 0.43031 0.58159 0.55342 0.0
N909 N 0.44787 0.55734 0.56464 0.0
C910 C 0.43475 0.56299 0.55185 0.0
C911 C 0.44123 0.58812 0.56768 0.0
C912 C 0.45193 0.57313 0.57475 0.0
C913 C 0.38514 0.59244 0.56488 0.0
O914 O 0.40047 0.59848 0.57358 0.0
H915 H 0.42811 0.55365 0.54162 0.0
H916 H 0.44131 0.60263 0.57269 0.0
O917 O 0.42162 0.58267 0.51276 0.0
H918 H 0.41472 0.66503 0.53751 0.0
H919 H 0.462 0.57385 0.58632 0.0
Cu920 Cu 0.77327 0.83961 0.66079 0.0
N921 N 0.76966 0.86603 0.6587 0.0
N922 N 0.75888 0.89207 0.6437 0.0
C923 C 0.76281 0.87336 0.64242 0.0
C924 C 0.76354 0.89678 0.66171 0.0
C925 C 0.77028 0.88068 0.67093 0.0
O926 O 0.78398 0.83347 0.63568 0.0
C927 C 0.73622 0.83783 0.67736 0.0
O928 O 0.73454 0.85575 0.67257 0.0
H929 H 0.75972 0.86473 0.63011 0.0
H930 H 0.77451 0.8796 0.68563 0.0
N931 N 0.79039 0.8299 0.67884 0.0
N932 N 0.80385 0.8061 0.69517 0.0
C933 C 0.78874 0.81179 0.68495 0.0
C934 C 0.80716 0.83601 0.68574 0.0
C935 C 0.8156 0.82123 0.69565 0.0
C936 C 0.79987 0.84187 0.63281 0.0
O937 O 0.80714 0.85214 0.64651 0.0
H938 H 0.77722 0.80249 0.68082 0.0
H939 H 0.8133 0.8498 0.68299 0.0
O940 O 0.74951 0.82796 0.6699 0.0
H941 H 0.76182 0.91072 0.66791 0.0
H942 H 0.82953 0.82138 0.70216 0.0
Cu943 Cu 0.77134 0.21361 0.88334 0.0
N944 N 0.75959 0.18958 0.88333 0.0
N945 N 0.74535 0.16437 0.89688 0.0
C946 C 0.75425 0.18114 0.89969 0.0
C947 C 0.74514 0.16214 0.87783 0.0
C948 C 0.75404 0.17763 0.86952 0.0
O949 O 0.79312 0.21055 0.90053 0.0
C950 C 0.7402 0.24081 0.88334 0.0
O951 O 0.72971 0.25328 0.89237 0.0
H952 H 0.75643 0.18756 0.91347 0.0
H953 H 0.75597 0.18013 0.85451 0.0
N954 N 0.77993 0.22504 0.86076 0.0
N955 N 0.788 0.2501 0.84272 0.0
C956 C 0.78433 0.24368 0.86038 0.0
C957 C 0.78105 0.21926 0.84261 0.0
C958 C 0.78612 0.2347 0.83145 0.0
C959 C 0.80709 0.20063 0.8946 0.0
O960 O 0.80663 0.19435 0.87706 0.0
H961 H 0.78411 0.25254 0.87291 0.0
H962 H 0.77764 0.20512 0.83771 0.0
O963 O 0.75246 0.23132 0.89289 0.0
H964 H 0.739 0.15019 0.8704 0.0
H965 H 0.78738 0.23479 0.81615 0.0
Cu966 Cu 0.46396 1.02431 0.41253 0.0
N967 N 0.4383 0.03185 0.41243 0.0
N968 N 0.41232 0.04567 0.40004 0.0
C969 C 0.42938 0.03765 0.39647 0.0
C970 C 0.41033 0.04466 0.41908 0.0
C971 C 0.42632 0.03611 0.42667 0.0
O972 O 0.46638 1.00846 0.38962 0.0
C973 C 0.47248 0.06227 0.42228 0.0
O974 O 0.45573 0.06745 0.41594 0.0
H975 H 0.43599 0.03729 0.38262 0.0
H976 H 0.4294 0.03423 0.44155 0.0
N977 N 0.47271 1.01037 0.4335 0.0
N978 N 0.49776 1.00175 0.45132 0.0
C979 C 0.49047 1.00306 0.43364 0.0
C980 C 0.46857 1.01358 0.45186 0.0
C981 C 0.48394 1.00824 0.46285 0.0
C982 C 0.45857 0.99214 0.39122 0.0
O983 O 0.45172 0.98728 0.40785 0.0
H984 H 0.49885 1.00132 0.42089 0.0
H985 H 0.45643 1.02153 0.45678 0.0
O986 O 0.47978 0.04692 0.41596 0.0
H987 H 0.39849 0.05032 0.42704 0.0
H988 H 0.48544 1.01053 0.47796 0.0
Cu989 Cu 0.27172 0.3434 0.88802 0.0
N990 N 0.27383 0.36991 0.89085 0.0
N991 N 0.2863 0.39543 0.90555 0.0
C992 C 0.28952 0.37784 0.89855 0.0
C993 C 0.26773 0.39875 0.90195 0.0
C994 C 0.26007 0.38297 0.89304 0.0
O995 O 0.26515 0.3366 0.91427 0.0
C996 C 0.29801 0.34381 0.85981 0.0
O997 O 0.28732 0.35863 0.85609 0.0
H998 H 0.30255 0.36998 0.90073 0.0
H999 H 0.24521 0.38056 0.89001 0.0
N1000 N 0.25309 0.33327 0.87179 0.0
N1001 N 0.23918 0.30976 0.85521 0.0
C1002 C 0.25418 0.31506 0.86593 0.0
C1003 C 0.23684 0.34 0.86439 0.0
C1004 C 0.22822 0.32553 0.85418 0.0
C1005 C 0.24878 0.33002 0.91859 0.0
O1006 O 0.23956 0.31981 0.90604 0.0
H1007 H 0.26558 0.30569 0.87019 0.0
H1008 H 0.23147 0.35422 0.86652 0.0
O1009 O 0.29495 0.33462 0.87519 0.0
H1010 H 0.25994 0.41123 0.90635 0.0
H1011 H 0.21484 0.32661 0.84671 0.0
Cu1012 Cu 0.08743 0.03334 0.91004 0.0
N1013 N 0.11294 1.02547 0.90749 0.0
N1014 N 0.1375 1.01107 0.89294 0.0
C1015 C 0.11906 1.01638 0.89179 0.0
C1016 C 0.14324 1.01724 0.91018 0.0
C1017 C 0.1281 0.02617 0.91909 0.0
O1018 O 0.08321 0.04807 0.88659 0.0
C1019 C 0.07937 0.99729 0.92541 0.0
O1020 O 0.09712 0.99314 0.92154 0.0
H1021 H 0.10979 1.01314 0.87999 0.0
H1022 H 0.12813 0.0324 0.93309 0.0
N1023 N 0.08055 0.04873 0.93066 0.0
N1024 N 0.05706 0.05828 0.95011 0.0
C1025 C 0.06253 0.05521 0.93199 0.0
C1026 C 0.08684 0.04781 0.94865 0.0
C1027 C 0.07248 0.05381 0.96063 0.0
C1028 C 0.09098 0.06451 0.88695 0.0
O1029 O 0.09872 0.07025 0.9029 0.0
H1030 H 0.05281 0.0551 0.92009 0.0
H1031 H 0.09995 0.04108 0.95297 0.0
O1032 O 0.07167 1.01132 0.91683 0.0
H1033 H 0.15732 1.01541 0.91604 0.0
H1034 H 0.07291 0.05342 0.97597 0.0
Cu1035 Cu 0.78347 0.2257 0.1556 0.0
N1036 N 0.80658 0.21769 0.14468 0.0
N1037 N 0.82926 0.2013 0.12935 0.0
C1038 C 0.81041 0.20293 0.13296 0.0
C1039 C 0.83744 0.21569 0.13902 0.0
C1040 C 0.82351 0.2257 0.14835 0.0
O1041 O 0.7619 0.21448 0.14174 0.0
C1042 C 0.79576 0.21063 0.19183 0.0
O1043 O 0.80694 0.1995 0.18191 0.0
H1044 H 0.7997 0.19331 0.12759 0.0
H1045 H 0.82558 0.23786 0.15748 0.0
N1046 N 0.78129 0.25224 0.1533 0.0
N1047 N 0.77662 0.28283 0.16097 0.0
C1048 C 0.78024 0.2651 0.16749 0.0
C1049 C 0.77837 0.26218 0.13728 0.0
C1050 C 0.77545 0.28099 0.14194 0.0
C1051 C 0.75807 0.19682 0.14072 0.0
O1052 O 0.76842 0.18477 0.15051 0.0
H1053 H 0.78125 0.2614 0.18235 0.0
H1054 H 0.77782 0.25606 0.12323 0.0
O1055 O 0.78384 0.22118 0.18316 0.0
H1056 H 0.85248 0.21883 0.13929 0.0
H1057 H 0.77245 0.29239 0.13209 0.0
Cu1058 Cu 0.4583 0.02798 0.14316 0.0
N1059 N 0.43168 1.02515 0.14532 0.0
N1060 N 0.40547 1.01302 0.15885 0.0
C1061 C 0.42437 1.01564 0.16025 0.0
C1062 C 0.40051 1.02127 0.14229 0.0
C1063 C 0.41669 0.02894 0.13403 0.0
O1064 O 0.46457 0.035 0.1696 0.0
C1065 C 0.46 1.00514 0.11274 0.0
O1066 O 0.44862 1.01921 0.10827 0.0
H1067 H 0.43301 1.00997 0.17163 0.0
H1068 H 0.41747 0.03619 0.12054 0.0
N1069 N 0.46938 0.04714 0.12806 0.0
N1070 N 0.49402 0.06114 0.11353 0.0
C1071 C 0.48746 0.04529 0.12196 0.0
C1072 C 0.46417 0.06484 0.123 0.0
C1073 C 0.47946 0.07359 0.11422 0.0
C1074 C 0.45634 0.05066 0.17399 0.0
O1075 O 0.44656 0.05954 0.16088 0.0
H1076 H 0.49602 0.03278 0.12455 0.0
H1077 H 0.45054 0.07122 0.12603 0.0
O1078 O 0.46698 1.00492 0.12956 0.0
H1079 H 0.38629 1.02154 0.13646 0.0
H1080 H 0.47997 0.08804 0.10903 0.0
Cu1081 Cu 0.58783 0.53472 0.13919 0.0
N1082 N 0.613 0.54337 0.13702 0.0
N1083 N 0.63835 0.55965 0.14767 0.0
C1084 C 0.62269 0.54959 0.15234 0.0
C1085 C 0.63866 0.55946 0.12848 0.0
C1086 C 0.623 0.54945 0.12196 0.0
O1087 O 0.58823 0.52031 0.16319 0.0
C1088 C 0.57838 0.57258 0.13085 0.0
O1089 O 0.59392 0.57923 0.13874 0.0
H1090 H 0.61723 0.54835 0.16663 0.0
H1091 H 0.61847 0.54809 0.10737 0.0
N1092 N 0.57769 0.52 0.11936 0.0
N1093 N 0.55358 0.50918 0.10135 0.0
C1094 C 0.5589 0.51629 0.11836 0.0
C1095 C 0.58467 0.51512 0.10231 0.0
C1096 C 0.56988 0.50834 0.09122 0.0
C1097 C 0.58824 0.50216 0.16347 0.0
O1098 O 0.58417 0.49287 0.14787 0.0
H1099 H 0.54913 0.52005 0.12957 0.0
H1100 H 0.59921 0.51727 0.09788 0.0
O1101 O 0.57152 0.55705 0.13716 0.0
H1102 H 0.64887 0.56684 0.11972 0.0
H1103 H 0.57103 0.50367 0.07666 0.0
H1104 H 0.21043 0.31257 0.16501 0.0
H1105 H 0.25773 0.31094 0.20374 0.0
H1106 H 0.19032 0.29721 0.18902 0.0
H1107 H 0.23792 0.29646 0.22779 0.0
H1108 H 0.20155 0.26385 0.26792 0.0
H1109 H 0.22084 0.27132 0.24021 0.0
H1110 H 0.17501 0.30536 0.21766 0.0
H1111 H 0.15563 0.29727 0.24506 0.0
C1112 C 0.21664 0.30841 0.17843 0.0
C1113 C 0.23567 0.31273 0.18245 0.0
C1114 C 0.20507 0.29991 0.19237 0.0
C1115 C 0.21231 0.29567 0.21061 0.0
C1116 C 0.2317 0.29914 0.21401 0.0
C1117 C 0.24314 0.30752 0.20017 0.0
C1118 C 0.1956 0.27288 0.25701 0.0
C1119 C 0.17706 0.28003 0.25885 0.0
C1120 C 0.20667 0.27722 0.24105 0.0
C1121 C 0.19967 0.28913 0.22654 0.0
C1122 C 0.18092 0.29591 0.22823 0.0
C1123 C 0.16977 0.29135 0.24408 0.0
H1124 H 0.55233 0.55744 0.10569 0.0
H1125 H 0.59357 0.60245 0.11133 0.0
H1126 H 0.5468 0.56673 0.07275 0.0
H1127 H 0.58853 0.61132 0.07848 0.0
H1128 H 0.56414 0.63454 1.02398 0.0
H1129 H 0.56759 0.62555 0.057 0.0
H1130 H 0.5607 0.56657 0.0418 0.0
H1131 H 0.55622 0.57571 1.00873 0.0
C1132 C 0.56012 0.5694 0.1 0.0
C1133 C 0.57336 0.57922 0.11133 0.0
C1134 C 0.55711 0.57462 0.08097 0.0
C1135 C 0.56723 0.5898 0.07273 0.0
C1136 C 0.5802 0.59976 0.08423 0.0
C1137 C 0.58316 0.5946 0.10319 0.0
C1138 C 0.56317 0.61964 0.0276 0.0
C1139 C 0.55979 0.60593 1.01347 0.0
C1140 C 0.56539 0.61443 0.04664 0.0
C1141 C 0.56448 0.59527 0.05229 0.0
C1142 C 0.56126 0.58149 0.03815 0.0
C1143 C 0.55895 0.58673 1.01904 0.0
H1144 H 0.8334 0.2638 0.29486 0.0
H1145 H 0.8308 0.20512 0.31207 0.0
H1146 H 0.81951 0.25559 0.26429 0.0
H1147 H 0.81659 0.19681 0.2814 0.0
H1148 H 0.81807 0.18888 0.21518 0.0
H1149 H 0.82713 0.19525 0.24797 0.0
H1150 H 0.79059 0.24444 0.24844 0.0
H1151 H 0.7816 0.23814 0.21558 0.0
C1152 C 0.82975 0.24913 0.29215 0.0
C1153 C 0.83338 0.2351 0.30589 0.0
C1154 C 0.82158 0.24443 0.27465 0.0
C1155 C 0.81693 0.22551 0.27026 0.0
C1156 C 0.82014 0.2115 0.28419 0.0
C1157 C 0.82813 0.21627 0.30185 0.0
C1158 C 0.81173 0.2009 0.22233 0.0
C1159 C 0.79914 0.21302 0.21261 0.0
C1160 C 0.81688 0.20451 0.24122 0.0
C1161 C 0.80973 0.22045 0.25089 0.0
C1162 C 0.79659 0.23217 0.2414 0.0
C1163 C 0.7913 0.22847 0.22256 0.0
H1164 H 0.51878 0.95571 1.01591 0.0
H1165 H 0.45987 0.94341 1.00513 0.0
H1166 H 0.51062 0.9681 0.04727 0.0
H1167 H 0.45165 0.95445 0.03675 0.0
H1168 H 0.43866 0.99748 0.08209 0.0
H1169 H 0.44736 0.98131 0.05347 0.0
H1170 H 0.50081 0.96481 0.07886 0.0
H1171 H 0.49225 0.9825 0.10771 0.0
C1172 C 0.50408 0.95548 1.02039 0.0
C1173 C 0.48991 0.94891 1.00793 0.0
C1174 C 0.49937 0.96242 0.03849 0.0
C1175 C 0.48036 0.96261 0.0448 0.0
C1176 C 0.46636 0.95526 0.03244 0.0
C1177 C 0.47103 0.94881 1.01422 0.0
C1178 C 0.45224 0.99025 0.08179 0.0
C1179 C 0.46477 0.99144 0.0973 0.0
C1180 C 0.45722 0.98069 0.06522 0.0
C1181 C 0.47487 0.97152 0.06348 0.0
C1182 C 0.48718 0.97188 0.07939 0.0
C1183 C 0.48219 0.98176 0.09612 0.0
H1184 H 0.2113 0.71347 0.37728 0.0
H1185 H 0.25349 0.75721 0.37043 0.0
H1186 H 0.19183 0.72815 0.35265 0.0
H1187 H 0.23414 0.77187 0.34533 0.0
H1188 H 0.20707 0.76894 0.28324 0.0
H1189 H 0.22517 0.7611 0.31175 0.0
H1190 H 0.17316 0.75714 0.3437 0.0
H1191 H 0.15506 0.76544 0.31557 0.0
C1192 C 0.21606 0.72666 0.37096 0.0
C1193 C 0.23367 0.73445 0.37613 0.0
C1194 C 0.20497 0.73503 0.35673 0.0
C1195 C 0.21144 0.75116 0.34689 0.0
C1196 C 0.22877 0.75941 0.35256 0.0
C1197 C 0.23971 0.75122 0.36715 0.0
C1198 C 0.19942 0.76676 0.29635 0.0
C1199 C 0.17941 0.76756 0.29676 0.0
C1200 C 0.20987 0.76227 0.31277 0.0
C1201 C 0.20062 0.75832 0.33002 0.0
C1202 C 0.18074 0.75982 0.33061 0.0
C1203 C 0.17033 0.76449 0.31432 0.0
H1204 H 1.01811 0.60676 0.02969 0.0
H1205 H 0.96588 0.58535 0.05343 0.0
H1206 H 1.00854 0.59563 0.99837 0.0
H1207 H 0.95648 0.57376 1.02214 0.0
H1208 H 0.93479 0.57238 0.96243 0.0
H1209 H 0.94616 0.58637 0.99187 0.0
H1210 H 1.00294 0.56707 0.97917 0.0
H1211 H 0.99141 0.55317 0.94936 0.0
C1212 C 1.00454 0.59971 0.02825 0.0
C1213 C 0.99265 0.5972 0.04415 0.0
C1214 C 0.99914 0.59314 1.01025 0.0
C1215 C 0.98162 0.58396 1.00755 0.0
C1216 C 0.96992 0.58109 1.02354 0.0
C1217 C 0.97538 0.58755 0.04157 0.0
C1218 C 0.94982 0.57158 0.96564 0.0
C1219 C 0.96221 0.56178 0.95345 0.0
C1220 C 0.9563 0.57935 0.98271 0.0
C1221 C 0.9754 0.5775 0.98823 0.0
C1222 C 0.98812 0.56879 0.97543 0.0
C1223 C 0.98159 0.56099 0.95821 0.0
H1224 H 0.86179 0.82516 0.26199 0.0
H1225 H 0.81812 0.78282 0.25597 0.0
H1226 H 0.85264 0.83004 0.29484 0.0
H1227 H 0.81007 0.78605 0.28915 0.0
H1228 H 0.78785 0.80572 0.34617 0.0
H1229 H 0.79632 0.80066 0.31336 0.0
H1230 H 0.85308 0.82117 0.32519 0.0
H1231 H 0.84367 0.82786 0.35765 0.0
C1232 C 0.85037 0.81669 0.26779 0.0
C1233 C 0.84087 0.80345 0.25629 0.0
C1234 C 0.8452 0.81927 0.28685 0.0
C1235 C 0.83068 0.80827 0.29529 0.0
C1236 C 0.82109 0.79514 0.28356 0.0
C1237 C 0.82586 0.79306 0.26435 0.0
C1238 C 0.80216 0.80901 0.34181 0.0
C1239 C 0.81499 0.81731 0.35464 0.0
C1240 C 0.80719 0.80601 0.32279 0.0
C1241 C 0.82549 0.81065 0.316 0.0
C1242 C 0.83865 0.81795 0.32928 0.0
C1243 C 0.83338 0.82151 0.34816 0.0
H1244 H 0.09155 0.96669 0.94552 0.0
H1245 H 0.04972 1.01143 0.94708 0.0
H1246 H 0.08355 0.95778 0.97762 0.0
H1247 H 0.04088 1.00188 0.97926 0.0
H1248 H 0.04536 0.9941 0.04406 0.0
H1249 H 0.05092 1.0025 1.01111 0.0
H1250 H 0.06296 0.94376 0.99836 0.0
H1251 H 0.05881 0.93562 0.03129 0.0
C1252 C 0.08023 0.97434 0.95254 0.0
C1253 C 0.07128 0.98975 0.94352 0.0
C1254 C 0.07552 0.96915 0.97111 0.0
C1255 C 0.0615 0.97902 0.98138 0.0
C1256 C 0.05195 0.99403 0.97207 0.0
C1257 C 0.05679 0.99933 0.95342 0.0
C1258 C 0.04944 0.98294 0.03438 0.0
C1259 C 0.05162 0.96407 0.04078 0.0
C1260 C 0.05236 0.98777 1.01523 0.0
C1261 C 0.05746 0.97389 1.00176 0.0
C1262 C 0.05943 0.95504 1.00815 0.0
C1263 C 0.05676 0.95027 0.02726 0.0
H1264 H 0.31353 0.21205 0.35064 0.0
H1265 H 0.29879 0.21467 0.29135 0.0
H1266 H 0.28254 0.22569 0.35886 0.0
H1267 H 0.26793 0.22832 0.29948 0.0
H1268 H 0.21995 0.26731 0.31995 0.0
H1269 H 0.25274 0.25758 0.31365 0.0
H1270 H 0.24838 0.21457 0.357 0.0
H1271 H 0.2156 0.22412 0.36315 0.0
C1272 C 0.30378 0.21577 0.33936 0.0
C1273 C 0.30863 0.21218 0.32034 0.0
C1274 C 0.28597 0.22345 0.34406 0.0
C1275 C 0.27268 0.2281 0.32984 0.0
C1276 C 0.27781 0.22507 0.3108 0.0
C1277 C 0.29546 0.21709 0.30614 0.0
C1278 C 0.22607 0.25598 0.32836 0.0
C1279 C 0.21507 0.24652 0.34208 0.0
C1280 C 0.24484 0.2503 0.32464 0.0
C1281 C 0.25323 0.23522 0.33476 0.0
C1282 C 0.24247 0.22631 0.34902 0.0
C1283 C 0.22362 0.23176 0.35251 0.0
H1284 H 0.50079 0.60783 0.99527 0.0
H1285 H 0.46706 0.60548 0.94426 0.0
H1286 H 0.48788 0.57699 1.00509 0.0
H1287 H 0.45451 0.57479 0.95372 0.0
H1288 H 0.42582 0.52383 0.97946 0.0
H1289 H 0.43517 0.55672 0.97448 0.0
H1290 H 0.49125 0.54403 0.99576 0.0
H1291 H 0.48164 0.51127 1.00147 0.0
C1292 C 0.49017 0.60104 0.98646 0.0
C1293 C 0.48481 0.60925 0.96907 0.0
C1294 C 0.48301 0.58317 0.9919 0.0
C1295 C 0.47023 0.57315 0.98014 0.0
C1296 C 0.46412 0.58199 0.9633 0.0
C1297 C 0.47134 0.59969 0.95785 0.0
C1298 C 0.4401 0.52803 0.98326 0.0
C1299 C 0.45294 0.51467 0.99078 0.0
C1300 C 0.44554 0.54696 0.98026 0.0
C1301 C 0.46403 0.55321 0.98465 0.0
C1302 C 0.47683 0.53991 0.99239 0.0
C1303 C 0.47138 0.52094 0.99538 0.0
H1304 H 0.84977 0.29479 0.30789 0.0
H1305 H 0.85828 0.34215 0.34575 0.0
H1306 H 0.81983 0.30882 0.29718 0.0
H1307 H 0.82843 0.35594 0.33538 0.0
H1308 H 0.77994 0.38393 0.30439 0.0
H1309 H 0.81126 0.37086 0.31053 0.0
H1310 H 0.78795 0.3142 0.30913 0.0
H1311 H 0.75661 0.3273 0.30218 0.0
C1312 C 0.84548 0.30835 0.31368 0.0
C1313 C 0.85654 0.31728 0.32773 0.0
C1314 C 0.82814 0.3163 0.30771 0.0
C1315 C 0.82147 0.33349 0.31551 0.0
C1316 C 0.83304 0.34281 0.32886 0.0
C1317 C 0.85025 0.33484 0.33487 0.0
C1318 C 0.78142 0.36867 0.30515 0.0
C1319 C 0.76553 0.35676 0.30277 0.0
C1320 C 0.79947 0.36114 0.30888 0.0
C1321 C 0.8023 0.34141 0.31041 0.0
C1322 C 0.78646 0.32944 0.30785 0.0
C1323 C 0.76836 0.337 0.30412 0.0
H1324 H 0.57883 0.95712 0.93822 0.0
H1325 H 0.55816 0.94765 0.99496 0.0
H1326 H 0.59193 0.98759 0.9478 0.0
H1327 H 0.57119 0.97853 1.00468 0.0
H1328 H 0.60949 0.03117 1.01703 0.0
H1329 H 0.59933 0.99889 1.00961 0.0
H1330 H 0.57823 1.0182 0.95545 0.0
H1331 H 0.58883 0.0504 0.9627 0.0
C1332 C 0.57752 0.96136 0.95293 0.0
C1333 C 0.56758 0.94985 0.96585 0.0
C1334 C 0.58479 0.97902 0.95837 0.0
C1335 C 0.58227 0.98585 0.97692 0.0
C1336 C 0.57343 0.97378 0.99026 0.0
C1337 C 0.56612 0.95596 0.98477 0.0
C1338 C 0.60282 0.02855 1.00346 0.0
C1339 C 0.60021 0.04348 0.99037 0.0
C1340 C 0.59681 1.00999 0.99929 0.0
C1341 C 0.58813 1.00576 0.98184 0.0
C1342 C 0.58518 1.02077 0.96891 0.0
C1343 C 0.59107 0.03935 0.97313 0.0
H1344 H 0.23666 0.76608 0.2302 0.0
H1345 H 0.20984 0.81684 0.20871 0.0
H1346 H 0.26677 0.78294 0.23263 0.0
H1347 H 0.24009 0.83362 0.21075 0.0
H1348 H 0.28979 0.86361 0.24047 0.0
H1349 H 0.26052 0.84635 0.23462 0.0
H1350 H 0.29288 0.79767 0.21624 0.0
H1351 H 0.32233 0.81481 0.22281 0.0
C1352 C 0.23722 0.78077 0.2257 0.0
C1353 C 0.22069 0.79007 0.21933 0.0
C1354 C 0.25458 0.79045 0.22702 0.0
C1355 C 0.25598 0.80976 0.22203 0.0
C1356 C 0.23957 0.81888 0.21506 0.0
C1357 C 0.2222 0.80919 0.21374 0.0
C1358 C 0.29076 0.84919 0.23529 0.0
C1359 C 0.30858 0.84062 0.23232 0.0
C1360 C 0.27386 0.83932 0.23166 0.0
C1361 C 0.27417 0.82053 0.22492 0.0
C1362 C 0.29199 0.81203 0.22162 0.0
C1363 C 0.30895 0.82195 0.22521 0.0
H1364 H 0.08771 0.50262 0.07467 0.0
H1365 H 0.10476 0.51988 1.01854 0.0
H1366 H 0.07867 0.5354 0.08189 0.0
H1367 H 0.09556 0.5527 0.0257 0.0
H1368 H 0.0535 0.60382 0.04631 0.0
H1369 H 0.06492 0.57288 0.03469 0.0
H1370 H 0.09819 0.56609 0.08563 0.0
H1371 H 0.08707 0.59678 0.09698 0.0
C1372 C 0.08932 0.51337 0.06381 0.0
C1373 C 0.09709 0.50864 0.04611 0.0
C1374 C 0.0843 0.53218 0.06797 0.0
C1375 C 0.08659 0.54672 0.05442 0.0
C1376 C 0.09365 0.54187 0.03644 0.0
C1377 C 0.09902 0.5231 0.0324 0.0
C1378 C 0.06395 0.59611 0.05455 0.0
C1379 C 0.06954 0.60283 0.07248 0.0
C1380 C 0.07028 0.57827 0.04804 0.0
C1381 C 0.08211 0.56684 0.05948 0.0
C1382 C 0.08879 0.57434 0.07667 0.0
C1383 C 0.08263 0.59207 0.08304 0.0
H1384 H 0.85809 0.761 0.24761 0.0
H1385 H 0.86672 0.70651 0.22126 0.0
H1386 H 0.82675 0.75112 0.25784 0.0
H1387 H 0.83597 0.69598 0.23261 0.0
H1388 H 0.7723 0.68812 0.23398 0.0
H1389 H 0.80492 0.69685 0.22705 0.0
H1390 H 0.80393 0.73661 0.27389 0.0
H1391 H 0.77072 0.72887 0.27936 0.0
C1392 C 0.85349 0.74671 0.24441 0.0
C1393 C 0.86488 0.73471 0.23328 0.0
C1394 C 0.83532 0.74095 0.25031 0.0
C1395 C 0.82805 0.72286 0.2456 0.0
C1396 C 0.84029 0.71033 0.23587 0.0
C1397 C 0.85825 0.71625 0.22961 0.0
C1398 C 0.77913 0.69879 0.24268 0.0
C1399 C 0.76891 0.70783 0.25715 0.0
C1400 C 0.79806 0.70371 0.23892 0.0
C1401 C 0.80769 0.71744 0.24995 0.0
C1402 C 0.79733 0.72628 0.26467 0.0
C1403 C 0.77817 0.72176 0.26799 0.0
H1404 H 0.98644 0.03872 1.01715 0.0
H1405 H 0.94436 0.04255 0.06114 0.0
H1406 H 0.99188 1.00557 1.02487 0.0
H1407 H 0.95084 1.00998 0.07037 0.0
H1408 H 0.95423 0.94754 0.07782 0.0
H1409 H 0.94724 0.97899 0.06572 0.0
H1410 H 1.00403 0.98231 0.04245 0.0
H1411 H 1.00987 0.95002 0.05268 0.0
C1412 C 0.97856 0.0325 0.02871 0.0
C1413 C 0.96482 0.04323 0.03836 0.0
C1414 C 0.98175 1.01337 0.03334 0.0
C1415 C 0.97174 1.0045 0.04826 0.0
C1416 C 0.95847 1.01567 0.05835 0.0
C1417 C 0.95487 0.03458 0.05326 0.0
C1418 C 0.96506 0.95486 0.06974 0.0
C1419 C 0.98281 0.94631 0.06663 0.0
C1420 C 0.96121 0.97322 0.06305 0.0
C1421 C 0.97521 0.98396 0.05354 0.0
C1422 C 0.99267 0.9749 0.04961 0.0
C1423 C 0.99622 0.95625 0.05573 0.0
H1424 H 0.33668 0.29985 0.21025 0.0
H1425 H 0.28421 0.27541 0.19019 0.0
H1426 H 0.34572 0.26931 0.22382 0.0
H1427 H 0.29342 0.24463 0.20354 0.0
H1428 H 0.31164 0.19905 0.25063 0.0
H1429 H 0.29958 0.22766 0.23459 0.0
H1430 H 0.35544 0.23816 0.21174 0.0
H1431 H 0.36733 0.20996 0.2277 0.0
C1432 C 0.32702 0.28799 0.2088 0.0
C1433 C 0.30979 0.29013 0.19897 0.0
C1434 C 0.33228 0.27038 0.21642 0.0
C1435 C 0.32041 0.25437 0.21458 0.0
C1436 C 0.30292 0.25661 0.20521 0.0
C1437 C 0.29773 0.27423 0.19741 0.0
C1438 C 0.32112 0.20714 0.24164 0.0
C1439 C 0.34044 0.2022 0.2404 0.0
C1440 C 0.31428 0.22364 0.23258 0.0
C1441 C 0.32665 0.2355 0.22221 0.0
C1442 C 0.34561 0.2297 0.21998 0.0
C1443 C 0.35238 0.21336 0.22895 0.0
H1444 H 0.36968 0.83982 0.32126 0.0
H1445 H 0.31219 0.85344 0.30508 0.0
H1446 H 0.35858 0.81175 0.33792 0.0
H1447 H 0.30091 0.82491 0.32181 0.0
H1448 H 0.28861 0.77695 0.36671 0.0
H1449 H 0.29754 0.80756 0.35287 0.0
H1450 H 0.3464 0.78128 0.32692 0.0
H1451 H 0.33773 0.75092 0.34101 0.0
C1452 C 0.35456 0.837 0.32157 0.0
C1453 C 0.34184 0.84888 0.3118 0.0
C1454 C 0.34821 0.82074 0.33097 0.0
C1455 C 0.3289 0.81574 0.33086 0.0
C1456 C 0.3159 0.8283 0.32217 0.0
C1457 C 0.32232 0.84473 0.31269 0.0
C1458 C 0.30134 0.77773 0.35816 0.0
C1459 C 0.31254 0.76141 0.35514 0.0
C1460 C 0.30635 0.79527 0.35007 0.0
C1461 C 0.32281 0.79701 0.33893 0.0
C1462 C 0.3338 0.78061 0.33568 0.0
C1463 C 0.32872 0.76309 0.34362 0.0
H1464 H 1.00797 0.49134 0.98206 0.0
H1465 H 1.01948 0.48624 0.92221 0.0
H1466 H 0.04165 0.486 0.98893 0.0
H1467 H 0.05303 0.48141 0.92897 0.0
H1468 H 0.10644 0.44974 0.94974 0.0
H1469 H 0.07368 0.4576 0.94214 0.0
H1470 H 0.07361 0.50021 0.98611 0.0
H1471 H 0.10656 0.49225 0.99378 0.0
C1472 C 1.01763 0.48903 0.97037 0.0
C1473 C 1.01089 0.48921 0.95156 0.0
C1474 C 0.03703 0.48621 0.97429 0.0
C1475 C 0.0502 0.4833 0.95952 0.0
C1476 C 0.04339 0.48344 0.94075 0.0
C1477 C 1.02409 0.48637 0.93685 0.0
C1478 C 0.09961 0.46103 0.95762 0.0
C1479 C 0.10927 0.47028 0.97245 0.0
C1480 C 0.08073 0.46556 0.95323 0.0
C1481 C 0.0708 0.47945 0.96359 0.0
C1482 C 0.08065 0.48922 0.97801 0.0
C1483 C 0.09966 0.48479 0.98229 0.0
H1484 H 0.76907 0.76943 0.35622 0.0
H1485 H 0.72077 0.78426 0.32165 0.0
H1486 H 0.76721 0.73679 0.34513 0.0
H1487 H 0.71892 0.75124 0.31031 0.0
H1488 H 0.71142 0.68375 0.31533 0.0
H1489 H 0.7117 0.71778 0.32312 0.0
H1490 H 0.7725 0.71871 0.31564 0.0
H1491 H 0.77202 0.68505 0.30747 0.0
C1492 C 0.75793 0.7657 0.34634 0.0
C1493 C 0.74494 0.77952 0.34001 0.0
C1494 C 0.75699 0.74696 0.33978 0.0
C1495 C 0.74292 0.74129 0.32677 0.0
C1496 C 0.72985 0.75506 0.32041 0.0
C1497 C 0.73098 0.77399 0.32681 0.0
C1498 C 0.72469 0.69142 0.31474 0.0
C1499 C 0.7416 0.68181 0.31029 0.0
C1500 C 0.72491 0.71089 0.31936 0.0
C1501 C 0.74215 0.72106 0.32007 0.0
C1502 C 0.75899 0.71138 0.31541 0.0
C1503 C 0.75871 0.69208 0.31062 0.0
H1504 H 0.4516 0.55566 0.50644 0.0
H1505 H 0.45467 0.61031 0.47917 0.0
H1506 H 0.48211 0.54685 0.49213 0.0
H1507 H 0.48473 0.60155 0.46456 0.0
H1508 H 0.54866 0.59248 0.4651 0.0
H1509 H 0.5165 0.59828 0.47646 0.0
H1510 H 0.50151 0.54012 0.46425 0.0
H1511 H 0.53388 0.53418 0.45346 0.0
C1512 C 0.45834 0.56543 0.49668 0.0
C1513 C 0.4506 0.58359 0.49373 0.0
C1514 C 0.47597 0.5605 0.48863 0.0
C1515 C 0.48622 0.57366 0.4775 0.0
C1516 C 0.47761 0.59122 0.47344 0.0
C1517 C 0.46016 0.59613 0.48153 0.0
C1518 C 0.5386 0.58087 0.465 0.0
C1519 C 0.54397 0.56291 0.45818 0.0
C1520 C 0.52 0.58424 0.47129 0.0
C1521 C 0.50617 0.56975 0.47104 0.0
C1522 C 0.51167 0.55165 0.46467 0.0
C1523 C 0.53026 0.5483 0.4583 0.0
H1524 H 0.2531 0.77858 0.67485 0.0
H1525 H 0.23636 0.7581 0.73001 0.0
H1526 H 0.24885 0.81121 0.68552 0.0
H1527 H 0.23183 0.7909 0.74068 0.0
H1528 H 0.24114 0.85315 0.75853 0.0
H1529 H 0.24932 0.82106 0.74793 0.0
H1530 H 0.22243 0.83217 0.69403 0.0
H1531 H 0.21423 0.86407 0.70461 0.0
C1532 C 0.24861 0.78101 0.68931 0.0
C1533 C 0.24509 0.7656 0.70154 0.0
C1534 C 0.24603 0.79978 0.69541 0.0
C1535 C 0.24 0.8038 0.714 0.0
C1536 C 0.23667 0.7884 0.72633 0.0
C1537 C 0.23906 0.76956 0.72015 0.0
C1538 C 0.23737 0.84891 0.74425 0.0
C1539 C 0.2271 0.86131 0.73238 0.0
C1540 C 0.24184 0.83038 0.73826 0.0
C1541 C 0.23643 0.82389 0.72014 0.0
C1542 C 0.22697 0.83664 0.70801 0.0
C1543 C 0.22227 0.855 0.71408 0.0
H1544 H 0.11764 0.54947 0.56242 0.0
H1545 H 0.13846 0.57285 0.61491 0.0
H1546 H 0.0895 0.53783 0.5785 0.0
H1547 H 0.1111 0.55994 0.63154 0.0
H1548 H 0.05032 0.558 0.65215 0.0
H1549 H 0.08006 0.56595 0.63673 0.0
H1550 H 0.07234 0.51882 0.59812 0.0
H1551 H 0.04181 0.51187 0.61304 0.0
C1552 C 0.11656 0.55149 0.57758 0.0
C1553 C 0.13033 0.56214 0.58735 0.0
C1554 C 0.10029 0.54478 0.58693 0.0
C1555 C 0.0975 0.54816 0.60645 0.0
C1556 C 0.11213 0.55757 0.61642 0.0
C1557 C 0.12811 0.56472 0.60696 0.0
C1558 C 0.05505 0.54933 0.6404 0.0
C1559 C 0.04372 0.53432 0.63382 0.0
C1560 C 0.07231 0.55375 0.63157 0.0
C1561 C 0.07909 0.54298 0.61611 0.0
C1562 C 0.06771 0.52775 0.6097 0.0
C1563 C 0.05018 0.52364 0.6183 0.0
H1564 H 0.93882 0.95586 0.59166 0.0
H1565 H 0.94708 0.98152 0.53683 0.0
H1566 H 0.96998 0.96689 0.60166 0.0
H1567 H 0.97882 0.99142 0.5461 0.0
H1568 H 0.03348 1.01605 0.56982 0.0
H1569 H 1.00057 1.00921 0.56167 0.0
H1570 H 1.00145 0.96127 0.60006 0.0
H1571 H 0.03394 0.96915 0.60894 0.0
C1572 C 0.94726 0.96407 0.58178 0.0
C1573 C 0.94028 0.96793 0.5635 0.0
C1574 C 0.96542 0.97014 0.58738 0.0
C1575 C 0.97755 0.97982 0.57469 0.0
C1576 C 0.97017 0.98427 0.55656 0.0
C1577 C 0.95179 0.97858 0.55115 0.0
C1578 C 0.0266 1.00403 0.57645 0.0
C1579 C 0.0364 0.99309 0.58998 0.0
C1580 C 1.00761 0.99998 0.57173 0.0
C1581 C 0.99785 0.98459 0.5801 0.0
C1582 C 1.00792 0.97355 0.59352 0.0
C1583 C 0.02675 0.9779 0.59854 0.0
H1584 H 0.74539 0.80762 0.70053 0.0
H1585 H 0.70537 0.85365 0.69466 0.0
H1586 H 0.73327 0.80115 0.73229 0.0
H1587 H 0.69291 0.84692 0.72613 0.0
H1588 H 0.69048 0.84608 0.79063 0.0
H1589 H 0.70187 0.85074 0.75837 0.0
H1590 H 0.70801 0.79011 0.75177 0.0
H1591 H 0.69749 0.78553 0.78427 0.0
C1592 C 0.73367 0.81605 0.70578 0.0
C1593 C 0.72642 0.8312 0.69494 0.0
C1594 C 0.72671 0.81237 0.7241 0.0
C1595 C 0.71225 0.82369 0.73209 0.0
C1596 C 0.70437 0.83819 0.7208 0.0
C1597 C 0.71138 0.84191 0.70257 0.0
C1598 C 0.69444 0.83373 0.78244 0.0
C1599 C 0.69288 0.81541 0.79024 0.0
C1600 C 0.70076 0.83638 0.76373 0.0
C1601 C 0.70572 0.8208 0.75219 0.0
C1602 C 0.70445 0.80251 0.76011 0.0
C1603 C 0.69816 0.79986 0.77881 0.0
H1604 H 0.0555 0.06117 0.50241 0.0
H1605 H 0.05715 0.1204 0.51795 0.0
H1606 H 0.05948 0.05237 0.53572 0.0
H1607 H 0.06031 0.11168 0.5511 0.0
H1608 H 0.08887 0.09024 0.60531 0.0
H1609 H 0.0827 0.09913 0.57265 0.0
H1610 H 0.04453 0.05152 0.56678 0.0
H1611 H 0.05103 0.04237 0.59967 0.0
C1612 C 0.05674 0.07235 0.51285 0.0
C1613 C 0.05601 0.09156 0.50728 0.0
C1614 C 0.05876 0.06728 0.53207 0.0
C1615 C 0.06022 0.08126 0.54631 0.0
C1616 C 0.05948 0.10043 0.54068 0.0
C1617 C 0.05745 0.10548 0.52154 0.0
C1618 C 0.07892 0.08176 0.59722 0.0
C1619 C 0.07051 0.06553 0.60528 0.0
C1620 C 0.07532 0.08692 0.57836 0.0
C1621 C 0.06315 0.07604 0.56682 0.0
C1622 C 0.05421 0.06012 0.57505 0.0
C1623 C 0.05776 0.05498 0.59404 0.0
H1624 H 0.36453 0.76315 0.78395 0.0
H1625 H 0.33404 0.71519 0.80685 0.0
H1626 H 0.35452 0.75439 0.75206 0.0
H1627 H 0.32349 0.70678 0.77499 0.0
H1628 H 0.32189 0.68442 0.71583 0.0
H1629 H 0.3359 0.69403 0.74587 0.0
H1630 H 0.3269 0.75287 0.73118 0.0
H1631 H 0.31311 0.7431 0.70074 0.0
C1632 C 0.35577 0.75066 0.78222 0.0
C1633 C 0.3503 0.73974 0.79807 0.0
C1634 C 0.34984 0.74577 0.76387 0.0
C1635 C 0.33833 0.72976 0.76081 0.0
C1636 C 0.33265 0.719 0.7767 0.0
C1637 C 0.33852 0.72394 0.79505 0.0
C1638 C 0.32334 0.69944 0.71879 0.0
C1639 C 0.31644 0.71299 0.70587 0.0
C1640 C 0.33114 0.70496 0.73616 0.0
C1641 C 0.33214 0.72422 0.74124 0.0
C1642 C 0.32638 0.7379 0.72778 0.0
C1643 C 0.31861 0.73233 0.71024 0.0
H1644 H 1.01423 0.46791 0.50496 0.0
H1645 H 0.95569 0.46629 0.48699 0.0
H1646 H 1.00479 0.48237 0.53484 0.0
H1647 H 0.94617 0.48125 0.51687 0.0
H1648 H 0.93643 0.48216 0.58243 0.0
H1649 H 0.94412 0.47239 0.5502 0.0
H1650 H 0.99222 0.51039 0.55017 0.0
H1651 H 0.98467 0.51999 0.58259 0.0
C1652 C 0.99932 0.47079 0.50733 0.0
C1653 C 0.98571 0.46574 0.49359 0.0
C1654 C 0.9939 0.4793 0.52444 0.0
C1655 C 0.97467 0.48297 0.52843 0.0
C1656 C 0.96108 0.47846 0.51443 0.0
C1657 C 0.96655 0.47005 0.49719 0.0
C1658 C 0.94852 0.48865 0.5755 0.0
C1659 C 0.95995 0.50183 0.58524 0.0
C1660 C 0.95288 0.48309 0.5569 0.0
C1661 C 0.96889 0.49046 0.5475 0.0
C1662 C 0.97994 0.50417 0.55701 0.0
C1663 C 0.97551 0.50981 0.57559 0.0
H1664 H 0.68499 0.22292 0.77526 0.0
H1665 H 0.73366 0.25672 0.75982 0.0
H1666 H 0.69695 0.2207 0.80781 0.0
H1667 H 0.74549 0.25466 0.79233 0.0
H1668 H 0.74152 0.26924 0.85752 0.0
H1669 H 0.73421 0.26798 0.82366 0.0
H1670 H 0.72391 0.20777 0.82825 0.0
H1671 H 0.73156 0.20919 0.86225 0.0
C1672 C 0.69831 0.22976 0.77875 0.0
C1673 C 0.70825 0.24007 0.76482 0.0
C1674 C 0.70524 0.22838 0.7974 0.0
C1675 C 0.72218 0.23755 0.80278 0.0
C1676 C 0.73235 0.24751 0.78876 0.0
C1677 C 0.72559 0.24859 0.77003 0.0
C1678 C 0.73825 0.25564 0.85117 0.0
C1679 C 0.73787 0.23917 0.86241 0.0
C1680 C 0.734 0.25491 0.83175 0.0
C1681 C 0.72853 0.23776 0.82311 0.0
C1682 C 0.72812 0.22122 0.83439 0.0
C1683 C 0.73281 0.22192 0.85379 0.0
H1684 H 0.49801 0.04719 0.44801 0.0
H1685 H 0.46123 0.09538 0.43892 0.0
H1686 H 0.50419 0.05807 0.48039 0.0
H1687 H 0.46733 0.10617 0.47111 0.0
H1688 H 0.49394 0.12952 0.52497 0.0
H1689 H 0.49097 0.11915 0.49219 0.0
H1690 H 0.48719 0.06092 0.51088 0.0
H1691 H 0.49066 0.07133 0.54382 0.0
C1692 C 0.49148 0.06026 0.45276 0.0
C1693 C 0.47908 0.07037 0.44075 0.0
C1694 C 0.49486 0.0664 0.47145 0.0
C1695 C 0.48616 0.08296 0.47854 0.0
C1696 C 0.47443 0.09345 0.46621 0.0
C1697 C 0.47091 0.08723 0.44767 0.0
C1698 C 0.49262 0.11448 0.52215 0.0
C1699 C 0.49256 0.10131 0.53718 0.0
C1700 C 0.49075 0.10852 0.50328 0.0
C1701 C 0.48883 0.08916 0.49875 0.0
C1702 C 0.48884 0.07593 0.51375 0.0
C1703 C 0.49059 0.08192 0.5327 0.0
H1704 H 0.33114 0.33673 0.7438 0.0
H1705 H 0.3584 0.28658 0.76607 0.0
H1706 H 0.31989 0.34462 0.77552 0.0
H1707 H 0.34767 0.29477 0.7979 0.0
H1708 H 0.30561 0.307 0.84863 0.0
H1709 H 0.3196 0.29725 0.81824 0.0
H1710 H 0.33202 0.35588 0.80533 0.0
H1711 H 0.31787 0.36546 0.83527 0.0
C1712 C 0.33474 0.32737 0.75542 0.0
C1713 C 0.34586 0.31111 0.75225 0.0
C1714 C 0.32847 0.332 0.77373 0.0
C1715 C 0.33304 0.32047 0.78946 0.0
C1716 C 0.34383 0.30399 0.78622 0.0
C1717 C 0.35018 0.29941 0.76792 0.0
C1718 C 0.3119 0.31768 0.83953 0.0
C1719 C 0.31069 0.337 0.84439 0.0
C1720 C 0.31978 0.31214 0.82202 0.0
C1721 C 0.32659 0.32582 0.80903 0.0
C1722 C 0.32647 0.34497 0.81462 0.0
C1723 C 0.31858 0.35046 0.83195 0.0
H1724 H 0.55749 0.50414 0.44983 0.0
H1725 H 0.6056 0.46644 0.45381 0.0
H1726 H 0.54611 0.49269 0.48061 0.0
H1727 H 0.59465 0.45539 0.48449 0.0
H1728 H 0.56537 0.42906 0.53463 0.0
H1729 H 0.5723 0.43795 0.5021 0.0
H1730 H 0.5541 0.49529 0.51377 0.0
H1731 H 0.54629 0.48613 0.54618 0.0
C1732 C 0.56541 0.49311 0.45702 0.0
C1733 C 0.58246 0.48619 0.44922 0.0
C1734 C 0.55905 0.48673 0.47486 0.0
C1735 C 0.5695 0.47318 0.48531 0.0
C1736 C 0.58602 0.46564 0.47697 0.0
C1737 C 0.59236 0.47204 0.45927 0.0
C1738 C 0.56261 0.44353 0.53031 0.0
C1739 C 0.55526 0.45681 0.54329 0.0
C1740 C 0.56679 0.44871 0.51156 0.0
C1741 C 0.56386 0.46742 0.50509 0.0
C1742 C 0.55636 0.4807 0.51802 0.0
C1743 C 0.55214 0.47549 0.53681 0.0
H1744 H 0.6927 0.72871 0.82049 0.0
H1745 H 0.7243 0.75949 0.86301 0.0
H1746 H 0.72158 0.71076 0.81253 0.0
H1747 H 0.75274 0.7426 0.85466 0.0
H1748 H 0.79993 0.70087 0.84786 0.0
H1749 H 0.76942 0.71466 0.85645 0.0
H1750 H 0.75182 0.71257 0.79776 0.0
H1751 H 0.78217 0.69803 0.78944 0.0
C1752 C 0.70569 0.73159 0.8282 0.0
C1753 C 0.70601 0.74556 0.84245 0.0
C1754 C 0.72235 0.72144 0.82353 0.0
C1755 C 0.73973 0.72505 0.83296 0.0
C1756 C 0.73978 0.73891 0.84729 0.0
C1757 C 0.72328 0.74883 0.85199 0.0
C1758 C 0.78957 0.70341 0.8368 0.0
C1759 C 0.7936 0.69842 0.81796 0.0
C1760 C 0.77198 0.7114 0.84168 0.0
C1761 C 0.75794 0.71503 0.82782 0.0
C1762 C 0.76198 0.70983 0.80895 0.0
C1763 C 0.77949 0.70156 0.80413 0.0
H1764 H 0.93871 1.0108 0.51222 0.0
H1765 H 0.96603 0.98925 0.46193 0.0
H1766 H 0.94916 0.04295 0.50429 0.0
H1767 H 0.97661 1.0214 0.45403 0.0
H1768 H 0.97382 0.08157 0.43323 0.0
H1769 H 0.96076 0.05134 0.44362 0.0
H1770 H 0.97905 0.06309 0.50084 0.0
H1771 H 0.99232 0.09363 0.49028 0.0
C1772 C 0.94692 1.01293 0.49943 0.0
C1773 C 0.95134 0.99745 0.48755 0.0
C1774 C 0.95305 0.03136 0.49499 0.0
C1775 C 0.96354 0.03483 0.47842 0.0
C1776 C 0.96829 1.01929 0.46676 0.0
C1777 C 0.96238 1.00082 0.47134 0.0
C1778 C 0.97461 0.07798 0.44816 0.0
C1779 C 0.98404 0.09006 0.46094 0.0
C1780 C 0.96735 0.0605 0.45405 0.0
C1781 C 0.96925 0.05455 0.47296 0.0
C1782 C 0.9774 0.06723 0.48614 0.0
C1783 C 0.9848 0.08483 0.48017 0.0
H1784 H 0.26571 0.87508 0.82193 0.0
H1785 H 0.2565 0.81999 0.79683 0.0
H1786 H 0.2983 0.86614 0.82962 0.0
H1787 H 0.28892 0.81084 0.80499 0.0
H1788 H 0.353 0.80324 0.8102 0.0
H1789 H 0.32272 0.81594 0.7984 0.0
H1790 H 0.31472 0.84561 0.85135 0.0
H1791 H 0.3448 0.83313 0.86288 0.0
C1792 C 0.2706 0.86106 0.81802 0.0
C1793 C 0.25827 0.84827 0.80887 0.0
C1794 C 0.28933 0.85586 0.82254 0.0
C1795 C 0.29641 0.83771 0.81797 0.0
C1796 C 0.28415 0.825 0.80857 0.0
C1797 C 0.26538 0.83017 0.80414 0.0
C1798 C 0.34507 0.81301 0.81901 0.0
C1799 C 0.35146 0.81735 0.83741 0.0
C1800 C 0.32752 0.82004 0.8124 0.0
C1801 C 0.31605 0.83173 0.82395 0.0
C1802 C 0.32309 0.83685 0.84191 0.0
C1803 C 0.34043 0.82969 0.84855 0.0
H1804 H 0.08949 0.54768 0.48238 0.0
H1805 H 0.10857 0.5246 0.53574 0.0
H1806 H 0.07749 0.5164 0.4732 0.0
H1807 H 0.09631 0.49325 0.52663 0.0
H1808 H 0.04876 0.44745 0.50312 0.0
H1809 H 0.0624 0.47657 0.51696 0.0
H1810 H 0.09614 0.48465 0.4666 0.0
H1811 H 0.08294 0.45576 0.45306 0.0
C1812 C 0.09089 0.53599 0.49224 0.0
C1813 C 0.10011 0.53862 0.5097 0.0
C1814 C 0.08413 0.51805 0.48697 0.0
C1815 C 0.08609 0.50232 0.49915 0.0
C1816 C 0.0946 0.50507 0.51696 0.0
C1817 C 0.10172 0.52298 0.52209 0.0
C1818 C 0.05968 0.45503 0.49541 0.0
C1819 C 0.06481 0.44927 0.47701 0.0
C1820 C 0.06732 0.47181 0.50322 0.0
C1821 C 0.08003 0.4831 0.49265 0.0
C1822 C 0.08613 0.47648 0.47493 0.0
C1823 C 0.0787 0.45979 0.46727 0.0
H1824 H 0.78364 0.31312 0.78367 0.0
H1825 H 0.77898 0.35604 0.74046 0.0
H1826 H 0.75022 0.30518 0.77961 0.0
H1827 H 0.74613 0.34726 0.73499 0.0
H1828 H 0.68429 0.33851 0.7331 0.0
H1829 H 0.71564 0.34832 0.74361 0.0
H1830 H 0.7266 0.2912 0.76336 0.0
H1831 H 0.69457 0.28214 0.75439 0.0
C1832 C 0.77549 0.32065 0.77305 0.0
C1833 C 0.78392 0.33531 0.76247 0.0
C1834 C 0.75622 0.31606 0.77059 0.0
C1835 C 0.74493 0.32561 0.75703 0.0
C1836 C 0.75376 0.3399 0.74608 0.0
C1837 C 0.77281 0.34484 0.74898 0.0
C1838 C 0.69324 0.32824 0.74024 0.0
C1839 C 0.68692 0.30951 0.74279 0.0
C1840 C 0.7115 0.33372 0.74594 0.0
C1841 C 0.72435 0.32045 0.75376 0.0
C1842 C 0.71746 0.30198 0.75741 0.0
C1843 C 0.69894 0.29668 0.75223 0.0
H1844 H 0.61434 1.0245 0.53151 0.0
H1845 H 0.58446 1.00039 0.57914 0.0
H1846 H 0.60306 0.05615 0.54028 0.0
H1847 H 0.573 0.03197 0.58781 0.0
H1848 H 0.57244 0.0909 0.61135 0.0
H1849 H 0.58699 0.06153 0.60055 0.0
H1850 H 0.573 0.0759 0.54271 0.0
H1851 H 0.55829 0.10564 0.55369 0.0
C1852 C 0.60543 1.02595 0.54391 0.0
C1853 C 0.6005 1.00986 0.55477 0.0
C1854 C 0.59881 0.0441 0.54883 0.0
C1855 C 0.58728 0.04671 0.56487 0.0
C1856 C 0.58212 0.03057 0.57553 0.0
C1857 C 0.58854 1.01241 0.57049 0.0
C1858 C 0.57291 0.08809 0.59625 0.0
C1859 C 0.56427 0.10067 0.58338 0.0
C1860 C 0.58104 0.07108 0.59008 0.0
C1861 C 0.58078 0.06607 0.57081 0.0
C1862 C 0.57341 0.0793 0.55768 0.0
C1863 C 0.56516 0.09644 0.56392 0.0
H1864 H 0.34607 0.2173 0.6868 0.0
H1865 H 0.34838 0.24848 0.7393 0.0
H1866 H 0.31579 0.20347 0.69605 0.0
H1867 H 0.31763 0.23488 0.74858 0.0
H1868 H 0.26539 0.19707 0.76307 0.0
H1869 H 0.2979 0.20749 0.757 0.0
H1870 H 0.28403 0.21545 0.6979 0.0
H1871 H 0.25181 0.20449 0.70384 0.0
C1872 C 0.34034 0.22076 0.70063 0.0
C1873 C 0.34978 0.23381 0.71239 0.0
C1874 C 0.32276 0.21308 0.70581 0.0
C1875 C 0.31388 0.21837 0.72287 0.0
C1876 C 0.32396 0.23043 0.73533 0.0
C1877 C 0.34173 0.23809 0.73013 0.0
C1878 C 0.26928 0.20088 0.74873 0.0
C1879 C 0.25583 0.19972 0.73392 0.0
C1880 C 0.28796 0.20705 0.74529 0.0
C1881 C 0.29384 0.21214 0.72691 0.0
C1882 C 0.28027 0.21129 0.71219 0.0
C1883 C 0.26161 0.20522 0.71564 0.0
H1884 H 0.50234 0.44489 0.55807 0.0
H1885 H 0.46198 0.44231 0.60408 0.0
H1886 H 0.49347 0.47814 0.5524 0.0
H1887 H 0.45344 0.4753 0.59856 0.0
H1888 H 0.45837 0.54031 0.59759 0.0
H1889 H 0.46888 0.50745 0.602 0.0
H1890 H 0.4647 0.49799 0.54171 0.0
H1891 H 0.4541 0.53084 0.53734 0.0
C1892 C 0.49149 0.45129 0.56687 0.0
C1893 C 0.48287 0.44073 0.5815 0.0
C1894 C 0.48642 0.47038 0.56363 0.0
C1895 C 0.47283 0.47951 0.57513 0.0
C1896 C 0.46414 0.46888 0.58959 0.0
C1897 C 0.46897 0.44982 0.59265 0.0
C1898 C 0.45986 0.53129 0.58526 0.0
C1899 C 0.45525 0.53824 0.56714 0.0
C1900 C 0.46576 0.51239 0.58779 0.0
C1901 C 0.46755 0.49997 0.57222 0.0
C1902 C 0.46355 0.50712 0.55401 0.0
C1903 C 0.45732 0.52592 0.55153 0.0
H1904 H 0.80036 0.69031 0.74228 0.0
H1905 H 0.85932 0.7048 0.7346 0.0
H1906 H 0.79118 0.71947 0.72547 0.0
H1907 H 0.8506 0.73402 0.71947 0.0
H1908 H 0.8342 0.78466 0.68644 0.0
H1909 H 0.8403 0.75199 0.69578 0.0
H1910 H 0.78828 0.75187 0.72848 0.0
H1911 H 0.78165 0.78414 0.71741 0.0
C1912 C 0.81134 0.69945 0.73659 0.0
C1913 C 0.83057 0.69516 0.73972 0.0
C1914 C 0.80613 0.71645 0.72729 0.0
C1915 C 0.82005 0.7296 0.72111 0.0
C1916 C 0.83924 0.72451 0.72348 0.0
C1917 C 0.84434 0.70759 0.73239 0.0
C1918 C 0.82416 0.77756 0.69564 0.0
C1919 C 0.80767 0.78698 0.70149 0.0
C1920 C 0.82763 0.75876 0.70117 0.0
C1921 C 0.81504 0.74898 0.71336 0.0
C1922 C 0.79832 0.75852 0.71897 0.0
C1923 C 0.79458 0.77717 0.71287 0.0
H1924 H 0.77317 0.36728 0.80924 0.0
H1925 H 0.83373 0.36272 0.81653 0.0
H1926 H 0.76958 0.33376 0.81752 0.0
H1927 H 0.83025 0.32874 0.82393 0.0
H1928 H 0.80966 0.26328 0.81355 0.0
H1929 H 0.81504 0.29668 0.80466 0.0
H1930 H 0.77836 0.31463 0.85014 0.0
H1931 H 0.77355 0.28161 0.85939 0.0
C1932 C 0.78578 0.35905 0.81238 0.0
C1933 C 0.80383 0.36758 0.81168 0.0
C1934 C 0.7837 0.33985 0.81713 0.0
C1935 C 0.79964 0.32856 0.82115 0.0
C1936 C 0.81773 0.33702 0.82058 0.0
C1937 C 0.81976 0.35642 0.8162 0.0
C1938 C 0.80279 0.27437 0.82163 0.0
C1939 C 0.79115 0.26969 0.83718 0.0
C1940 C 0.80595 0.29347 0.81662 0.0
C1941 C 0.79711 0.30826 0.82672 0.0
C1942 C 0.78534 0.30356 0.84208 0.0
C1943 C 0.78261 0.28459 0.84739 0.0
H1944 H 0.61759 0.97029 0.45 0.0
H1945 H 0.60913 0.9944 0.50551 0.0
H1946 H 0.58515 0.97849 0.44142 0.0
H1947 H 0.57633 1.00133 0.49766 0.0
H1948 H 0.5194 1.02205 0.47581 0.0
H1949 H 0.55306 1.01789 0.48262 0.0
H1950 H 0.55436 0.96951 0.44484 0.0
H1951 H 0.52097 0.9747 0.43729 0.0
C1952 C 0.60882 0.97745 0.46038 0.0
C1953 C 0.61607 0.98159 0.47849 0.0
C1954 C 0.58999 0.98191 0.45558 0.0
C1955 C 0.57759 0.99026 0.4689 0.0
C1956 C 0.58518 0.99509 0.4868 0.0
C1957 C 0.60415 0.99102 0.49142 0.0
C1958 C 0.52693 1.01048 0.46908 0.0
C1959 C 0.5175 0.9986 0.45611 0.0
C1960 C 0.54632 1.00801 0.473 0.0
C1961 C 0.55685 0.99331 0.46436 0.0
C1962 C 0.54718 0.98131 0.45153 0.0
C1963 C 0.52789 0.98409 0.4473 0.0
H1964 H 0.20521 0.29532 0.84339 0.0
H1965 H 0.26451 0.28088 0.84949 0.0
H1966 H 0.19879 0.26367 0.83137 0.0
H1967 H 0.25789 0.24887 0.83837 0.0
H1968 H 0.24069 0.20006 0.79637 0.0
H1969 H 0.24992 0.22998 0.8115 0.0
H1970 H 0.19588 0.23173 0.84042 0.0
H1971 H 0.1866 0.20238 0.8247 0.0
C1972 C 0.21693 0.28547 0.84224 0.0
C1973 C 0.23539 0.29091 0.84761 0.0
C1974 C 0.21319 0.26707 0.83557 0.0
C1975 C 0.22774 0.25338 0.83409 0.0
C1976 C 0.24627 0.25889 0.83922 0.0
C1977 C 0.25003 0.27733 0.84584 0.0
C1978 C 0.23115 0.20648 0.80657 0.0
C1979 C 0.21304 0.19869 0.80961 0.0
C1980 C 0.23634 0.2238 0.81513 0.0
C1981 C 0.22351 0.23368 0.82695 0.0
C1982 C 0.20598 0.22498 0.83102 0.0
C1983 C 0.20077 0.20788 0.82232 0.0
H1984 H 0.0288 0.07733 0.93203 0.0
H1985 H 0.04101 0.04555 0.9829 0.0
H1986 H 0.99553 0.07996 0.94161 0.0
H1987 H 1.00799 0.04856 0.99268 0.0
H1988 H 0.94368 0.0361 0.99138 0.0
H1989 H 0.97733 0.03575 0.98304 0.0
H1990 H 0.97322 0.09395 0.96429 0.0
H1991 H 0.9392 0.09381 0.97184 0.0
C1992 C 1.02444 0.07105 0.94534 0.0
C1993 C 0.03771 0.06124 0.95665 0.0
C1994 C 1.00535 0.07269 0.95093 0.0
C1995 C 0.9989 0.06441 0.96793 0.0
C1996 C 1.01228 0.05494 0.97941 0.0
C1997 C 0.03137 0.05342 0.97389 0.0
C1998 C 0.95004 0.04889 0.98568 0.0
C1999 C 0.93893 0.06523 0.98292 0.0
C2000 C 0.96939 0.04875 0.98101 0.0
C2001 C 0.97824 0.06493 0.9733 0.0
C2002 C 0.967 0.08124 0.97028 0.0
C2003 C 0.94757 0.08134 0.97496 0.0
H2004 H 0.75238 0.31152 0.15259 0.0
H2005 H 0.7929 0.29276 0.19441 0.0
H2006 H 0.74509 0.33922 0.17178 0.0
H2007 H 0.7864 0.32098 0.21339 0.0
H2008 H 0.75002 0.35761 0.25361 0.0
H2009 H 0.76413 0.33368 0.23337 0.0
H2010 H 0.75244 0.36867 0.18429 0.0
H2011 H 0.73729 0.39221 0.2049 0.0
C2012 C 0.76003 0.31353 0.16575 0.0
C2013 C 0.77315 0.29983 0.172 0.0
C2014 C 0.75595 0.32958 0.17679 0.0
C2015 C 0.76508 0.33261 0.19433 0.0
C2016 C 0.7787 0.31912 0.20024 0.0
C2017 C 0.78252 0.30289 0.18933 0.0
C2018 C 0.75114 0.3605 0.23855 0.0
C2019 C 0.74288 0.37694 0.23087 0.0
C2020 C 0.75922 0.34668 0.22682 0.0
C2021 C 0.75933 0.34888 0.20696 0.0
C2022 C 0.75229 0.36612 0.19942 0.0
C2023 C 0.74397 0.37989 0.21124 0.0
H2024 H 0.59607 0.11399 0.07264 0.0
H2025 H 0.60812 0.05479 0.06311 0.0
H2026 H 0.56722 0.10594 0.08884 0.0
H2027 H 0.57941 0.04624 0.08093 0.0
H2028 H 0.51474 0.03879 0.0903 0.0
H2029 H 0.54693 0.04457 0.0787 0.0
H2030 H 0.54945 0.09567 0.1127 0.0
H2031 H 0.51679 0.09047 0.12266 0.0
C2032 C 0.59288 0.09908 0.07472 0.0
C2033 C 0.60446 0.08506 0.06654 0.0
C2034 C 0.57617 0.09436 0.08422 0.0
C2035 C 0.57047 0.07532 0.0863 0.0
C2036 C 0.58289 0.06111 0.07934 0.0
C2037 C 0.59966 0.06593 0.06947 0.0
C2038 C 0.52227 0.05131 0.09507 0.0
C2039 C 0.51318 0.06441 0.10702 0.0
C2040 C 0.54088 0.05456 0.08864 0.0
C2041 C 0.55114 0.07078 0.09444 0.0
C2042 C 0.5421 0.08338 0.10718 0.0
C2043 C 0.52332 0.08041 0.11306 0.0
H2044 H 0.52289 0.50129 0.12343 0.0
H2045 H 0.54007 0.5075 0.06501 0.0
H2046 H 0.49057 0.49475 0.11329 0.0
H2047 H 0.50777 0.50015 0.0548 0.0
H2048 H 0.44433 0.49949 0.04156 0.0
H2049 H 0.4751 0.51089 0.05316 0.0
H2050 H 0.47273 0.47017 0.09891 0.0
H2051 H 0.44206 0.45917 0.08756 0.0
C2052 C 0.51985 0.50133 0.1084 0.0
C2053 C 0.53433 0.50494 0.09511 0.0
C2054 C 0.50122 0.49737 0.10254 0.0
C2055 C 0.49637 0.49683 0.08317 0.0
C2056 C 0.51079 0.50063 0.06984 0.0
C2057 C 0.52948 0.50459 0.07572 0.0
C2058 C 0.45012 0.49341 0.05444 0.0
C2059 C 0.44057 0.47851 0.06373 0.0
C2060 C 0.46796 0.49972 0.06093 0.0
C2061 C 0.47664 0.49141 0.07696 0.0
C2062 C 0.46657 0.47715 0.08668 0.0
C2063 C 0.44888 0.47079 0.08015 0.0
H2064 H 0.14385 0.31013 0.39716 0.0
H2065 H 0.12488 0.32091 0.33993 0.0
H2066 H 0.12175 0.33394 0.40894 0.0
H2067 H 0.10249 0.34459 0.35178 0.0
H2068 H 0.07559 0.39797 0.37895 0.0
H2069 H 0.09897 0.37567 0.3664 0.0
H2070 H 0.08813 0.33788 0.41335 0.0
H2071 H 0.06485 0.35998 0.4258 0.0
C2072 C 0.13504 0.31763 0.38704 0.0
C2073 C 0.13621 0.31348 0.36756 0.0
C2074 C 0.1222 0.33124 0.39384 0.0
C2075 C 0.1101 0.34117 0.38139 0.0
C2076 C 0.11163 0.33739 0.36183 0.0
C2077 C 0.12447 0.32373 0.35502 0.0
C2078 C 0.07807 0.38487 0.38655 0.0
C2079 C 0.06828 0.381 0.40354 0.0
C2080 C 0.09154 0.37203 0.37933 0.0
C2081 C 0.09566 0.35495 0.38889 0.0
C2082 C 0.08573 0.35103 0.40576 0.0
C2083 C 0.07228 0.3638 0.41294 0.0
H2084 H 0.60454 0.75415 0.88799 0.0
H2085 H 0.64147 0.76195 0.93617 0.0
H2086 H 0.58332 0.73479 0.90713 0.0
H2087 H 0.61989 0.74283 0.95564 0.0
H2088 H 0.59339 0.68345 0.97088 0.0
H2089 H 0.61176 0.70951 0.95762 0.0
H2090 H 0.56066 0.73289 0.93305 0.0
H2091 H 0.54226 0.70646 0.94634 0.0
C2092 C 0.6081 0.75182 0.90274 0.0
C2093 C 0.62495 0.75938 0.91041 0.0
C2094 C 0.59572 0.7409 0.91384 0.0
C2095 C 0.59981 0.7371 0.93301 0.0
C2096 C 0.61632 0.74526 0.9409 0.0
C2097 C 0.62867 0.75634 0.92978 0.0
C2098 C 0.58595 0.69452 0.96321 0.0
C2099 C 0.56633 0.69293 0.9598 0.0
C2100 C 0.59652 0.70952 0.95555 0.0
C2101 C 0.58783 0.7233 0.94401 0.0
C2102 C 0.56792 0.72242 0.94165 0.0
C2103 C 0.55727 0.70744 0.94952 0.0
H2104 H 0.9257 0.23469 0.3915 0.0
H2105 H 0.93397 0.22449 0.33178 0.0
H2106 H 0.95162 0.21343 0.39904 0.0
H2107 H 0.9605 0.20276 0.33942 0.0
H2108 H 0.98693 0.14624 0.36921 0.0
H2109 H 0.96535 0.17031 0.35581 0.0
H2110 H 0.98595 0.21108 0.39659 0.0
H2111 H 1.00697 0.1872 0.40994 0.0
C2112 C 0.9333 0.22806 0.3799 0.0
C2113 C 0.92779 0.23136 0.36103 0.0
C2114 C 0.94829 0.21588 0.38424 0.0
C2115 C 0.95831 0.20636 0.36987 0.0
C2116 C 0.95306 0.20983 0.35085 0.0
C2117 C 0.93804 0.2224 0.34645 0.0
C2118 C 0.98706 0.16047 0.375 0.0
C2119 C 0.99842 0.16469 0.39088 0.0
C2120 C 0.97473 0.17428 0.36731 0.0
C2121 C 0.97362 0.19258 0.37533 0.0
C2122 C 0.98604 0.19705 0.39031 0.0
C2123 C 0.99815 0.18333 0.39799 0.0
H2124 H 0.51356 0.84613 0.94352 0.0
H2125 H 0.46542 0.87282 0.97004 0.0
H2126 H 0.49294 0.82049 0.9321 0.0
H2127 H 0.44478 0.8477 0.95853 0.0
H2128 H 0.40987 0.79858 0.93817 0.0
H2129 H 0.43353 0.81588 0.95671 0.0
H2130 H 0.46964 0.81934 0.90737 0.0
H2131 H 0.44647 0.80147 0.88919 0.0
C2132 C 0.49876 0.84601 0.94771 0.0
C2133 C 0.49117 0.86129 0.958 0.0
C2134 C 0.48681 0.83155 0.94082 0.0
C2135 C 0.46702 0.83208 0.94407 0.0
C2136 C 0.45986 0.84656 0.95579 0.0
C2137 C 0.47175 0.86098 0.96255 0.0
C2138 C 0.42298 0.80276 0.93135 0.0
C2139 C 0.426 0.79881 0.91203 0.0
C2140 C 0.43655 0.81283 0.94198 0.0
C2141 C 0.4536 0.81919 0.93361 0.0
C2142 C 0.45688 0.81457 0.91448 0.0
C2143 C 0.44334 0.80455 0.90388 0.0
H2144 H 0.14601 0.74329 0.15573 0.0
H2145 H 0.12878 0.72855 0.21259 0.0
H2146 H 0.12431 0.71961 0.14301 0.0
H2147 H 0.10664 0.7051 0.19982 0.0
H2148 H 0.07877 0.65357 0.16998 0.0
H2149 H 0.10227 0.67522 0.18366 0.0
H2150 H 0.09112 0.71542 0.13876 0.0
H2151 H 0.06794 0.69388 0.12518 0.0
C2152 C 0.13767 0.73493 0.16556 0.0
C2153 C 0.13918 0.73796 0.18522 0.0
C2154 C 0.12504 0.7214 0.15823 0.0
C2155 C 0.1134 0.7105 0.17031 0.0
C2156 C 0.11539 0.71308 0.19002 0.0
C2157 C 0.12809 0.72661 0.19737 0.0
C2158 C 0.08127 0.66707 0.1631 0.0
C2159 C 0.07152 0.67179 0.1463 0.0
C2160 C 0.09477 0.67953 0.17095 0.0
C2161 C 0.09888 0.69709 0.16225 0.0
C2162 C 0.08883 0.70188 0.14566 0.0
C2163 C 0.07542 0.68946 0.13783 0.0
H2164 H 0.94551 0.75937 0.15976 0.0
H2165 H 0.90267 0.72439 0.13349 0.0
H2166 H 0.97009 0.7427 0.14204 0.0
H2167 H 0.92718 0.70739 0.11608 0.0
H2168 H 0.97304 0.68337 0.07929 0.0
H2169 H 0.95039 0.70653 0.09201 0.0
H2170 H 0.98601 0.71359 0.14145 0.0
H2171 H 1.00864 0.69106 0.12832 0.0
C2172 C 0.94131 0.74806 0.15026 0.0
C2173 C 0.92202 0.74322 0.14822 0.0
C2174 C 0.95546 0.73843 0.14004 0.0
C2175 C 0.95083 0.72351 0.12754 0.0
C2176 C 0.93146 0.71896 0.12523 0.0
C2177 C 0.9173 0.7287 0.13534 0.0
C2178 C 0.97637 0.69061 0.09243 0.0
C2179 C 0.99288 0.68584 0.10254 0.0
C2180 C 0.96319 0.70359 0.09998 0.0
C2181 C 0.96608 0.71192 0.11798 0.0
C2182 C 0.98322 0.70784 0.12749 0.0
C2183 C 0.99635 0.69495 0.11991 0.0
H2184 H 0.90068 0.84772 0.18634 0.0
H2185 H 0.94677 0.81043 0.20181 0.0
H2186 H 0.92315 0.87128 0.17527 0.0
H2187 H 0.96963 0.83443 0.19086 0.0
H2188 H 1.00021 0.87077 0.14408 0.0
H2189 H 0.98032 0.84794 0.16079 0.0
H2190 H 0.94692 0.89393 0.18363 0.0
H2191 H 0.96632 0.91671 0.16633 0.0
C2192 C 0.9157 0.84466 0.18769 0.0
C2193 C 0.92187 0.8271 0.19495 0.0
C2194 C 0.92866 0.85831 0.18142 0.0
C2195 C 0.94832 0.85488 0.18208 0.0
C2196 C 0.9546 0.83753 0.18994 0.0
C2197 C 0.94152 0.82383 0.19642 0.0
C2198 C 0.98861 0.87608 0.15262 0.0
C2199 C 0.98478 0.89571 0.15351 0.0
C2200 C 0.97732 0.86292 0.16246 0.0
C2201 C 0.96183 0.86897 0.1735 0.0
C2202 C 0.95851 0.88865 0.17504 0.0
C2203 C 0.9698 0.9018 0.16521 0.0
H2204 H 0.09346 0.89907 0.11319 0.0
H2205 H 0.04217 0.8659 0.11753 0.0
H2206 H 0.10982 0.87682 0.134 0.0
H2207 H 0.05861 0.84344 0.13847 0.0
H2208 H 0.08634 0.82819 0.19696 0.0
H2209 H 0.07043 0.84527 0.17143 0.0
H2210 H 0.12223 0.84454 0.13877 0.0
H2211 H 0.13827 0.82761 0.16457 0.0
C2212 C 0.08579 0.88673 0.11823 0.0
C2213 C 0.0665 0.88427 0.11362 0.0
C2214 C 0.09521 0.87392 0.13017 0.0
C2215 C 0.08556 0.85836 0.13811 0.0
C2216 C 0.06646 0.85537 0.1328 0.0
C2217 C 0.05708 0.86811 0.12059 0.0
C2218 C 0.09438 0.83165 0.18435 0.0
C2219 C 0.1137 0.82667 0.18298 0.0
C2220 C 0.08515 0.84126 0.16956 0.0
C2221 C 0.09499 0.84635 0.15296 0.0
C2222 C 0.11421 0.84098 0.15138 0.0
C2223 C 0.12341 0.83117 0.16613 0.0
H2224 H 0.37775 0.10837 0.30101 0.0
H2225 H 0.33608 0.12461 0.34253 0.0
H2226 H 0.38971 0.08389 0.3223 0.0
H2227 H 0.34716 0.09945 0.36364 0.0
H2228 H 0.39052 0.07673 0.40666 0.0
H2229 H 0.37288 0.09533 0.38362 0.0
H2230 H 0.38892 0.0558 0.33957 0.0
H2231 H 0.40719 0.03761 0.36275 0.0
C2232 C 0.37044 0.10593 0.3143 0.0
C2233 C 0.35568 0.11808 0.31992 0.0
C2234 C 0.37739 0.09194 0.32668 0.0
C2235 C 0.36971 0.08972 0.34503 0.0
C2236 C 0.35386 0.10094 0.34992 0.0
C2237 C 0.34714 0.11511 0.33764 0.0
C2238 C 0.39005 0.07183 0.39213 0.0
C2239 C 0.40037 0.05568 0.3866 0.0
C2240 C 0.3798 0.08249 0.3788 0.0
C2241 C 0.3793 0.07722 0.3595 0.0
C2242 C 0.38914 0.06063 0.35413 0.0
C2243 C 0.39961 0.05011 0.36746 0.0
H2244 H 0.38395 0.45682 0.94902 0.0
H2245 H 0.3489 0.44917 0.99854 0.0
H2246 H 0.35896 0.44382 0.92911 0.0
H2247 H 0.32371 0.43563 0.9785 0.0
H2248 H 0.27773 0.42129 0.93321 0.0
H2249 H 0.30005 0.43926 0.9529 0.0
H2250 H 0.34691 0.41263 0.92381 0.0
H2251 H 0.32475 0.39523 0.90391 0.0
C2252 C 0.37071 0.45264 0.95564 0.0
C2253 C 0.36847 0.45404 0.97541 0.0
C2254 C 0.35641 0.44495 0.94421 0.0
C2255 C 0.33938 0.43819 0.95214 0.0
C2256 C 0.3366 0.44068 0.97183 0.0
C2257 C 0.35099 0.44854 0.98334 0.0
C2258 C 0.2928 0.41947 0.93083 0.0
C2259 C 0.29936 0.40676 0.91684 0.0
C2260 C 0.30562 0.42965 0.9423 0.0
C2261 C 0.32538 0.42757 0.93999 0.0
C2262 C 0.33186 0.41494 0.9259 0.0
C2263 C 0.3191 0.40474 0.91455 0.0
H2264 H 0.70283 0.46411 0.29824 0.0
H2265 H 0.70717 0.4242 0.34442 0.0
H2266 H 0.69063 0.48818 0.32033 0.0
H2267 H 0.69499 0.44787 0.36628 0.0
H2268 H 0.68131 0.49626 0.40522 0.0
H2269 H 0.69982 0.47749 0.38272 0.0
H2270 H 0.661 0.49305 0.33793 0.0
H2271 H 0.64287 0.51219 0.36027 0.0
C2272 C 0.70166 0.46063 0.31315 0.0
C2273 C 0.70601 0.44223 0.31955 0.0
C2274 C 0.69444 0.47434 0.32581 0.0
C2275 C 0.69167 0.47002 0.34517 0.0
C2276 C 0.69706 0.45191 0.35161 0.0
C2277 C 0.70401 0.43824 0.339 0.0
C2278 C 0.6769 0.49596 0.39052 0.0
C2279 C 0.66039 0.50561 0.38471 0.0
C2280 C 0.68745 0.48505 0.3776 0.0
C2281 C 0.68189 0.48354 0.35844 0.0
C2282 C 0.66587 0.4939 0.35247 0.0
C2283 C 0.65528 0.50472 0.3654 0.0
H2284 H 0.69615 0.12424 1.00215 0.0
H2285 H 0.67808 0.08238 0.96158 0.0
H2286 H 0.71672 0.13866 0.97838 0.0
H2287 H 0.69931 0.09603 0.93787 0.0
H2288 H 0.71474 0.14109 0.89336 0.0
H2289 H 0.69965 0.12222 0.91803 0.0
H2290 H 0.74253 0.14038 0.95798 0.0
H2291 H 0.75715 0.15973 0.93333 0.0
C2292 C 0.69744 0.11745 0.98843 0.0
C2293 C 0.6859 0.10182 0.98394 0.0
C2294 C 0.70913 0.12585 0.97461 0.0
C2295 C 0.70963 0.11884 0.95585 0.0
C2296 C 0.69909 0.10226 0.95189 0.0
C2297 C 0.68723 0.09405 0.96565 0.0
C2298 C 0.72107 0.1409 0.90735 0.0
C2299 C 0.73712 0.1521 0.91129 0.0
C2300 C 0.71245 0.12993 0.92161 0.0
C2301 C 0.71973 0.12958 0.94028 0.0
C2302 C 0.73615 0.14043 0.94402 0.0
C2303 C 0.74462 0.15156 0.9298 0.0
H2304 H 0.32483 0.93539 0.21298 0.0
H2305 H 0.372 0.93984 0.2517 0.0
H2306 H 0.33824 0.96065 0.19358 0.0
H2307 H 0.38624 0.96409 0.23177 0.0
H2308 H 0.40693 1.01329 0.19713 0.0
H2309 H 0.38904 0.99346 0.21906 0.0
H2310 H 0.36073 0.96692 0.17146 0.0
H2311 H 0.37783 0.98782 0.14987 0.0
C2312 C 0.33799 0.94197 0.21747 0.0
C2313 C 0.34722 0.9357 0.234 0.0
C2314 C 0.34593 0.95631 0.20613 0.0
C2315 C 0.36367 0.96448 0.21067 0.0
C2316 C 0.37248 0.95861 0.2277 0.0
C2317 C 0.36429 0.94459 0.23927 0.0
C2318 C 0.39668 1.00335 0.19146 0.0
C2319 C 0.39377 1.00214 0.17178 0.0
C2320 C 0.38647 0.99176 0.20403 0.0
C2321 C 0.37336 0.97818 0.1973 0.0
C2322 C 0.37029 0.97729 0.1775 0.0
C2323 C 0.38019 0.98925 0.16497 0.0
H2324 H 0.23897 0.42267 0.14226 0.0
H2325 H 0.24887 0.38185 0.0977 0.0
H2326 H 0.2203 0.44192 0.12045 0.0
H2327 H 0.22955 0.40069 0.07614 0.0
H2328 H 0.2009 0.44275 0.03691 0.0
H2329 H 0.22562 0.4296 0.05775 0.0
H2330 H 0.18966 0.43974 0.1063 0.0
H2331 H 0.16546 0.45298 0.08567 0.0
C2332 C 0.23733 0.41781 0.12781 0.0
C2333 C 0.24535 0.40047 0.12196 0.0
C2334 C 0.22643 0.42882 0.11528 0.0
C2335 C 0.2232 0.42287 0.09647 0.0
C2336 C 0.23179 0.40589 0.09042 0.0
C2337 C 0.24268 0.39487 0.10295 0.0
C2338 C 0.19863 0.44274 0.05209 0.0
C2339 C 0.18127 0.449 0.05964 0.0
C2340 C 0.21266 0.43493 0.06405 0.0
C2341 C 0.20966 0.4334 0.08379 0.0
C2342 C 0.19271 0.4408 0.09129 0.0
C2343 C 0.17874 0.44839 0.07941 0.0
H2344 H 0.67885 0.65587 0.21073 0.0
H2345 H 0.70417 0.60939 0.24161 0.0
H2346 H 0.66645 0.63376 0.18736 0.0
H2347 H 0.69184 0.58708 0.21792 0.0
H2348 H 0.64503 0.55313 0.18511 0.0
H2349 H 0.66147 0.57383 0.20749 0.0
H2350 H 0.67481 0.61249 0.16191 0.0
H2351 H 0.65791 0.59209 0.13966 0.0
C2352 C 0.68197 0.64091 0.21246 0.0
C2353 C 0.69253 0.63448 0.22815 0.0
C2354 C 0.67493 0.62818 0.19891 0.0
C2355 C 0.67809 0.60853 0.20063 0.0
C2356 C 0.68894 0.60207 0.21618 0.0
C2357 C 0.69615 0.61488 0.22971 0.0
C2358 C 0.65149 0.56602 0.17982 0.0
C2359 C 0.64991 0.57093 0.16051 0.0
C2360 C 0.66112 0.57784 0.19267 0.0
C2361 C 0.66941 0.59499 0.18663 0.0
C2362 C 0.66839 0.59956 0.1672 0.0
C2363 C 0.65884 0.58771 0.15433 0.0
H2364 H 0.81639 0.18288 0.09781 0.0
H2365 H 0.86457 0.18745 0.1353 0.0
H2366 H 0.8346 0.16147 0.07722 0.0
H2367 H 0.88253 0.16603 0.11519 0.0
H2368 H 0.91757 0.14999 0.06392 0.0
H2369 H 0.89753 0.16791 0.08523 0.0
H2370 H 0.85047 0.13064 0.07273 0.0
H2371 H 0.87074 0.11271 0.05074 0.0
C2372 C 0.83075 0.17911 0.1018 0.0
C2373 C 0.83911 0.1872 0.11804 0.0
C2374 C 0.84121 0.1668 0.09002 0.0
C2375 C 0.86024 0.1622 0.09428 0.0
C2376 C 0.86816 0.16961 0.11106 0.0
C2377 C 0.85781 0.18193 0.12267 0.0
C2378 C 0.90299 0.14543 0.06571 0.0
C2379 C 0.89587 0.12978 0.05557 0.0
C2380 C 0.89145 0.15572 0.07812 0.0
C2381 C 0.87231 0.15073 0.08096 0.0
C2382 C 0.86509 0.13501 0.07087 0.0
C2383 C 0.87675 0.12462 0.05836 0.0
H2384 H 0.35687 0.41385 0.04209 0.0
H2385 H 0.40308 0.37539 0.05402 0.0
H2386 H 0.33569 0.39444 0.0613 0.0
H2387 H 0.38172 0.35559 0.07268 0.0
H2388 H 0.34615 0.34466 0.12707 0.0
H2389 H 0.36673 0.35815 0.10299 0.0
H2390 H 0.31858 0.36461 0.06556 0.0
H2391 H 0.29779 0.35111 0.09012 0.0
C2392 C 0.36255 0.40121 0.04869 0.0
C2393 C 0.38189 0.39645 0.04664 0.0
C2394 C 0.35026 0.38987 0.05953 0.0
C2395 C 0.35691 0.37341 0.06871 0.0
C2396 C 0.37607 0.36827 0.06607 0.0
C2397 C 0.38835 0.37959 0.0552 0.0
C2398 C 0.34 0.34846 0.11351 0.0
C2399 C 0.32033 0.3467 0.1105 0.0
C2400 C 0.35185 0.35622 0.09961 0.0
C2401 C 0.34441 0.36266 0.08226 0.0
C2402 C 0.32482 0.36001 0.07882 0.0
C2403 C 0.31291 0.35201 0.09276 0.0
H2404 H 0.35129 0.71264 0.43162 0.0
H2405 H 0.30049 0.69973 0.46319 0.0
H2406 H 0.37065 0.69884 0.45665 0.0
H2407 H 0.31999 0.68587 0.48857 0.0
H2408 H 0.35972 0.63791 0.51216 0.0
H2409 H 0.33912 0.65697 0.49192 0.0
H2410 H 0.38228 0.70038 0.48901 0.0
H2411 H 0.4031 0.68103 0.50898 0.0
C2412 C 0.34426 0.70727 0.44419 0.0
C2413 C 0.32431 0.70737 0.44538 0.0
C2414 C 0.35541 0.69936 0.45862 0.0
C2415 C 0.34698 0.69105 0.47468 0.0
C2416 C 0.32701 0.69194 0.47633 0.0
C2417 C 0.31581 0.70011 0.4619 0.0
C2418 C 0.36487 0.65151 0.50723 0.0
C2419 C 0.38325 0.65775 0.51207 0.0
C2420 C 0.3529 0.66261 0.49578 0.0
C2421 C 0.35896 0.68027 0.48869 0.0
C2422 C 0.37714 0.68679 0.49401 0.0
C2423 C 0.38907 0.67574 0.5056 0.0
H2424 H 0.92895 0.49985 0.86527 0.0
H2425 H 0.97385 0.45867 0.87121 0.0
H2426 H 0.911 0.47743 0.84571 0.0
H2427 H 0.95632 0.43649 0.85134 0.0
H2428 H 0.90905 0.39284 0.84231 0.0
H2429 H 0.92916 0.41706 0.85646 0.0
H2430 H 0.90691 0.45863 0.8173 0.0
H2431 H 0.88669 0.43435 0.80317 0.0
C2432 C 0.93538 0.48635 0.86169 0.0
C2433 C 0.9529 0.48109 0.86971 0.0
C2434 C 0.925 0.47337 0.85059 0.0
C2435 C 0.93195 0.45487 0.84724 0.0
C2436 C 0.9502 0.45033 0.85401 0.0
C2437 C 0.96044 0.46319 0.86516 0.0
C2438 C 0.90855 0.40706 0.83653 0.0
C2439 C 0.8961 0.41149 0.82158 0.0
C2440 C 0.92018 0.42104 0.84464 0.0
C2441 C 0.91984 0.43993 0.83801 0.0
C2442 C 0.90747 0.44436 0.82297 0.0
C2443 C 0.8958 0.43036 0.81486 0.0
H2444 H 0.69073 0.90091 0.50314 0.0
H2445 H 0.64567 0.89027 0.46315 0.0
H2446 H 0.71182 0.88018 0.48506 0.0
H2447 H 0.66671 0.87023 0.44465 0.0
H2448 H 0.70229 0.8251 0.41911 0.0
H2449 H 0.68231 0.84175 0.44177 0.0
H2450 H 0.73003 0.87694 0.45767 0.0
H2451 H 0.75021 0.85938 0.43564 0.0
C2452 C 0.68535 0.8942 0.49042 0.0
C2453 C 0.66643 0.89723 0.48468 0.0
C2454 C 0.69749 0.88232 0.47995 0.0
C2455 C 0.69116 0.87328 0.46326 0.0
C2456 C 0.67217 0.87638 0.45761 0.0
C2457 C 0.66 0.88802 0.46821 0.0
C2458 C 0.70862 0.83607 0.42782 0.0
C2459 C 0.72787 0.84082 0.42561 0.0
C2460 C 0.69706 0.8459 0.44067 0.0
C2461 C 0.70425 0.86116 0.45142 0.0
C2462 C 0.72383 0.86526 0.44987 0.0
C2463 C 0.73551 0.85513 0.43722 0.0
H2464 H 0.57672 0.59468 0.37331 0.0
H2465 H 0.61873 0.55097 0.36481 0.0
H2466 H 0.59424 0.61579 0.35234 0.0
H2467 H 0.63682 0.57233 0.34443 0.0
H2468 H 0.66144 0.61217 0.29968 0.0
H2469 H 0.64118 0.58955 0.31631 0.0
H2470 H 0.62129 0.63464 0.35277 0.0
H2471 H 0.64113 0.65718 0.33576 0.0
C2472 C 0.5896 0.58947 0.36673 0.0
C2473 C 0.59623 0.57107 0.37075 0.0
C2474 C 0.59986 0.60171 0.35487 0.0
C2475 C 0.61731 0.5961 0.34685 0.0
C2476 C 0.62345 0.57729 0.35012 0.0
C2477 C 0.61301 0.56493 0.36183 0.0
C2478 C 0.65275 0.61724 0.31127 0.0
C2479 C 0.65298 0.63659 0.31632 0.0
C2480 C 0.6411 0.60421 0.32089 0.0
C2481 C 0.62938 0.61007 0.336 0.0
C2482 C 0.62966 0.62947 0.34099 0.0
C2483 C 0.64116 0.6425 0.33126 0.0
H2484 H 0.19524 0.62807 0.58186 0.0
H2485 H 0.16674 0.67583 0.55624 0.0
H2486 H 0.21833 0.64939 0.59619 0.0
H2487 H 0.19012 0.69725 0.57016 0.0
H2488 H 0.21977 0.73053 0.61801 0.0
H2489 H 0.19901 0.71054 0.5992 0.0
H2490 H 0.2445 0.66997 0.5922 0.0
H2491 H 0.26514 0.6898 0.61176 0.0
C2492 C 0.19405 0.64312 0.57904 0.0
C2493 C 0.17902 0.65019 0.56792 0.0
C2494 C 0.20741 0.65542 0.58721 0.0
C2495 C 0.20627 0.67519 0.58441 0.0
C2496 C 0.19139 0.6822 0.57298 0.0
C2497 C 0.17792 0.6699 0.56495 0.0
C2498 C 0.22551 0.71752 0.61218 0.0
C2499 C 0.24417 0.71182 0.61654 0.0
C2500 C 0.21355 0.706 0.60127 0.0
C2501 C 0.21986 0.68841 0.59422 0.0
C2502 C 0.23892 0.68321 0.59765 0.0
C2503 C 0.25091 0.69475 0.60866 0.0
H2504 H 0.92804 0.62969 0.75341 0.0
H2505 H 0.8749 0.61998 0.72431 0.0
H2506 H 0.94429 0.61008 0.73006 0.0
H2507 H 0.89115 0.60027 0.70122 0.0
H2508 H 0.924 0.54967 0.6749 0.0
H2509 H 0.90725 0.56968 0.69779 0.0
H2510 H 0.95367 0.60967 0.6968 0.0
H2511 H 0.97041 0.58971 0.67413 0.0
C2512 C 0.91975 0.62354 0.74206 0.0
C2513 C 0.89999 0.62655 0.74104 0.0
C2514 C 0.92914 0.61223 0.72859 0.0
C2515 C 0.91908 0.60347 0.71369 0.0
C2516 C 0.89937 0.60648 0.71262 0.0
C2517 C 0.89 0.61788 0.726 0.0
C2518 C 0.93058 0.56279 0.67946 0.0
C2519 C 0.9486 0.568 0.67257 0.0
C2520 C 0.92094 0.57432 0.69258 0.0
C2521 C 0.9291 0.59132 0.69931 0.0
C2522 C 0.94702 0.59659 0.69223 0.0
C2523 C 0.95658 0.58516 0.67905 0.0
H2524 H 0.15835 0.94139 0.74895 0.0
H2525 H 0.12745 0.89298 0.72754 0.0
H2526 H 0.1404 0.96215 0.72788 0.0
H2527 H 0.10903 0.91381 0.70708 0.0
H2528 H 0.10187 0.95186 0.6543 0.0
H2529 H 0.11468 0.93127 0.67872 0.0
H2530 H 0.11005 0.97674 0.7195 0.0
H2531 H 0.09732 0.99765 0.6946 0.0
C2532 C 0.14769 0.93511 0.73987 0.0
C2533 C 0.14467 0.91531 0.7399 0.0
C2534 C 0.13715 0.94713 0.72792 0.0
C2535 C 0.12326 0.93976 0.71557 0.0
C2536 C 0.11978 0.92006 0.71612 0.0
C2537 C 0.13029 0.90805 0.72806 0.0
C2538 C 0.10322 0.95743 0.66855 0.0
C2539 C 0.0985 0.97644 0.67245 0.0
C2540 C 0.11054 0.94553 0.68266 0.0
C2541 C 0.11354 0.95222 0.70121 0.0
C2542 C 0.10814 0.97109 0.70535 0.0
C2543 C 0.1006 0.98304 0.69115 0.0
H2544 H 0.60149 0.82495 0.81679 0.0
H2545 H 0.61084 0.79262 0.86787 0.0
H2546 H 0.57969 0.84569 0.83373 0.0
H2547 H 0.59004 0.81397 0.88523 0.0
H2548 H 0.54419 0.85012 0.91205 0.0
H2549 H 0.56116 0.82649 0.89335 0.0
H2550 H 0.57881 0.87055 0.85443 0.0
H2551 H 0.56096 0.89379 0.87272 0.0
C2552 C 0.59872 0.82214 0.83164 0.0
C2553 C 0.60792 0.80701 0.84088 0.0
C2554 C 0.5864 0.83428 0.84152 0.0
C2555 C 0.58316 0.832 0.86114 0.0
C2556 C 0.5918 0.81631 0.87017 0.0
C2557 C 0.60384 0.80393 0.86016 0.0
C2558 C 0.55166 0.85469 0.89944 0.0
C2559 C 0.55121 0.87388 0.89392 0.0
C2560 C 0.56155 0.84112 0.88869 0.0
C2561 C 0.57162 0.84634 0.87219 0.0
C2562 C 0.571 0.86562 0.86668 0.0
C2563 C 0.56082 0.87911 0.87726 0.0
H2564 H 0.03507 0.1818 0.42944 0.0
H2565 H 0.08758 0.17459 0.46007 0.0
H2566 H 0.05135 0.20206 0.4064 0.0
H2567 H 0.10385 0.19472 0.43718 0.0
H2568 H 0.12793 0.23869 0.39672 0.0
H2569 H 0.10843 0.22574 0.42238 0.0
H2570 H 0.07453 0.19544 0.38133 0.0
H2571 H 0.09373 0.2086 0.35581 0.0
C2572 C 0.04993 0.18499 0.43161 0.0
C2573 C 0.05998 0.17647 0.44661 0.0
C2574 C 0.05936 0.19643 0.41824 0.0
C2575 C 0.07905 0.19986 0.41969 0.0
C2576 C 0.08872 0.19253 0.43556 0.0
C2577 C 0.07935 0.18095 0.44874 0.0
C2578 C 0.11616 0.22948 0.39316 0.0
C2579 C 0.11258 0.22459 0.37413 0.0
C2580 C 0.10502 0.22194 0.4079 0.0
C2581 C 0.08984 0.20947 0.40402 0.0
C2582 C 0.08591 0.20512 0.38494 0.0
C2583 C 0.09713 0.2125 0.37026 0.0
H2584 H 0.50443 0.6613 0.87054 0.0
H2585 H 0.50289 0.70076 0.9173 0.0
H2586 H 0.48518 0.6831 0.85164 0.0
H2587 H 0.4831 0.72211 0.8988 0.0
H2588 H 0.4526 0.76256 0.86069 0.0
H2589 H 0.4794 0.74372 0.87265 0.0
H2590 H 0.4528 0.69277 0.85125 0.0
H2591 H 0.42654 0.71158 0.8392 0.0
C2592 C 0.50016 0.67466 0.87677 0.0
C2593 C 0.50505 0.67902 0.89563 0.0
C2594 C 0.48896 0.68716 0.86596 0.0
C2595 C 0.48236 0.70442 0.87365 0.0
C2596 C 0.48797 0.70911 0.89222 0.0
C2597 C 0.49913 0.69664 0.90301 0.0
C2598 C 0.45297 0.74746 0.85784 0.0
C2599 C 0.43755 0.73858 0.84883 0.0
C2600 C 0.46815 0.73656 0.865 0.0
C2601 C 0.46825 0.71658 0.8632 0.0
C2602 C 0.45347 0.70804 0.85284 0.0
C2603 C 0.43834 0.71886 0.84586 0.0
H2604 H 0.99924 0.36304 0.41649 0.0
H2605 H 0.96977 0.37105 0.46938 0.0
H2606 H 0.97662 0.33874 0.40726 0.0
H2607 H 0.94686 0.34624 0.46028 0.0
H2608 H 0.89628 0.32363 0.42243 0.0
H2609 H 0.92087 0.34287 0.43759 0.0
H2610 H 0.96405 0.30787 0.4118 0.0
H2611 H 0.93951 0.28891 0.39651 0.0
C2612 C 0.98822 0.35907 0.42646 0.0
C2613 C 0.98648 0.36873 0.44378 0.0
C2614 C 0.97517 0.34509 0.42116 0.0
C2615 C 0.95974 0.34042 0.43294 0.0
C2616 C 0.95844 0.34954 0.45074 0.0
C2617 C 0.97173 0.36353 0.45614 0.0
C2618 C 0.91101 0.31986 0.42023 0.0
C2619 C 0.91585 0.30485 0.40796 0.0
C2620 C 0.92518 0.33088 0.429 0.0
C2621 C 0.94458 0.32716 0.42582 0.0
C2622 C 0.94933 0.31153 0.4143 0.0
C2623 C 0.93522 0.30061 0.40548 0.0
H2624 H 0.59882 0.2467 0.70543 0.0
H2625 H 0.63323 0.19619 0.70922 0.0
H2626 H 0.57297 0.22791 0.69144 0.0
H2627 H 0.60761 0.17752 0.69542 0.0
H2628 H 0.55391 0.14562 0.67959 0.0
H2629 H 0.5751 0.16495 0.69925 0.0
H2630 H 0.56847 0.21177 0.66031 0.0
H2631 H 0.54721 0.19253 0.64086 0.0
C2632 C 0.60068 0.23153 0.70378 0.0
C2633 C 0.61809 0.22296 0.7085 0.0
C2634 C 0.58595 0.22078 0.69556 0.0
C2635 C 0.58819 0.20116 0.69216 0.0
C2636 C 0.60523 0.1925 0.69793 0.0
C2637 C 0.61999 0.20325 0.70583 0.0
C2638 C 0.55675 0.16012 0.67539 0.0
C2639 C 0.54896 0.16742 0.65852 0.0
C2640 C 0.56901 0.17119 0.6866 0.0
C2641 C 0.5736 0.18996 0.68139 0.0
C2642 C 0.56519 0.19747 0.66491 0.0
C2643 C 0.55314 0.18634 0.6536 0.0
H2644 H 0.44646 0.26049 0.65493 0.0
H2645 H 0.40178 0.23769 0.62001 0.0
H2646 H 0.46994 0.24243 0.63703 0.0
H2647 H 0.42484 0.21869 0.60274 0.0
H2648 H 0.46872 0.19175 0.56657 0.0
H2649 H 0.44853 0.21561 0.58124 0.0
H2650 H 0.48341 0.2135 0.63173 0.0
H2651 H 0.50425 0.19065 0.61631 0.0
C2652 C 0.44167 0.25148 0.64344 0.0
C2653 C 0.42224 0.25055 0.63889 0.0
C2654 C 0.45514 0.24096 0.63318 0.0
C2655 C 0.44958 0.22881 0.61826 0.0
C2656 C 0.43004 0.22808 0.6137 0.0
C2657 C 0.41665 0.23893 0.62371 0.0
C2658 C 0.47238 0.19689 0.58058 0.0
C2659 C 0.48822 0.18944 0.59015 0.0
C2660 C 0.46055 0.21037 0.58923 0.0
C2661 C 0.46381 0.21641 0.60803 0.0
C2662 C 0.48029 0.20956 0.61723 0.0
C2663 C 0.4924 0.19641 0.60835 0.0
H2664 H 0.51315 0.36342 0.65276 0.0
H2665 H 0.46978 0.40445 0.66623 0.0
H2666 H 0.49562 0.33908 0.6701 0.0
H2667 H 0.452 0.3802 0.68308 0.0
H2668 H 0.42475 0.33777 0.7199 0.0
H2669 H 0.4486 0.36046 0.70922 0.0
H2670 H 0.46865 0.31957 0.66817 0.0
H2671 H 0.44531 0.29668 0.67971 0.0
C2672 C 0.49987 0.36727 0.65943 0.0
C2673 C 0.49293 0.38598 0.65802 0.0
C2674 C 0.48973 0.35325 0.66937 0.0
C2675 C 0.47224 0.35745 0.67813 0.0
C2676 C 0.46555 0.37631 0.677 0.0
C2677 C 0.47576 0.39033 0.66721 0.0
C2678 C 0.43491 0.33336 0.70924 0.0
C2679 C 0.43348 0.31527 0.70101 0.0
C2680 C 0.44834 0.34654 0.70275 0.0
C2681 C 0.46043 0.3422 0.68742 0.0
C2682 C 0.45982 0.32356 0.68007 0.0
C2683 C 0.44652 0.31027 0.68681 0.0
H2684 H 0.55441 0.35312 0.60173 0.0
H2685 H 0.59079 0.39581 0.62648 0.0
H2686 H 0.57442 0.3282 0.61607 0.0
H2687 H 0.61027 0.3713 0.64068 0.0
H2688 H 0.62496 0.32573 0.68384 0.0
H2689 H 0.6047 0.34814 0.66699 0.0
H2690 H 0.60899 0.3142 0.61628 0.0
H2691 H 0.62935 0.29154 0.6333 0.0
C2692 C 0.56674 0.35722 0.60995 0.0
C2693 C 0.57081 0.37655 0.61301 0.0
C2694 C 0.57819 0.34295 0.6182 0.0
C2695 C 0.5938 0.34774 0.62983 0.0
C2696 C 0.59818 0.36704 0.63218 0.0
C2697 C 0.58697 0.38114 0.62389 0.0
C2698 C 0.62149 0.32288 0.66916 0.0
C2699 C 0.6289 0.30679 0.65998 0.0
C2700 C 0.60995 0.33584 0.65942 0.0
C2701 C 0.60525 0.33307 0.64021 0.0
C2702 C 0.61225 0.31675 0.63107 0.0
C2703 C 0.62407 0.30386 0.64079 0.0
H2704 H 0.89874 0.57044 0.89694 0.0
H2705 H 0.87842 0.52131 0.86664 0.0
H2706 H 0.88167 0.59107 0.87506 0.0
H2707 H 0.86099 0.54204 0.84475 0.0
H2708 H 0.85522 0.59053 0.79702 0.0
H2709 H 0.86679 0.56591 0.81894 0.0
H2710 H 0.84973 0.60054 0.86644 0.0
H2711 H 0.83858 0.62495 0.84465 0.0
C2712 C 0.89053 0.56402 0.88566 0.0
C2713 C 0.88998 0.54417 0.88369 0.0
C2714 C 0.88055 0.57586 0.87315 0.0
C2715 C 0.86974 0.5683 0.8581 0.0
C2716 C 0.86915 0.54841 0.85609 0.0
C2717 C 0.87902 0.53651 0.86879 0.0
C2718 C 0.8532 0.59244 0.81213 0.0
C2719 C 0.84573 0.60958 0.8191 0.0
C2720 C 0.86002 0.57843 0.82474 0.0
C2721 C 0.85961 0.58136 0.84455 0.0
C2722 C 0.85074 0.5979 0.85135 0.0
C2723 C 0.84402 0.6118 0.83883 0.0
H2724 H 0.85243 0.92052 0.49854 0.0
H2725 H 0.8739 0.9582 0.45558 0.0
H2726 H 0.82942 0.90772 0.47598 0.0
H2727 H 0.85027 0.94645 0.4332 0.0
H2728 H 0.82661 0.9036 0.39074 0.0
H2729 H 0.84533 0.92052 0.41423 0.0
H2730 H 0.80277 0.90842 0.4567 0.0
H2731 H 0.78448 0.8908 0.43314 0.0
C2732 C 0.85157 0.92672 0.4845 0.0
C2733 C 0.86471 0.94064 0.47894 0.0
C2734 C 0.83841 0.9193 0.47141 0.0
C2735 C 0.83797 0.9257 0.45241 0.0
C2736 C 0.85036 0.94062 0.4474 0.0
C2737 C 0.86371 0.94773 0.46037 0.0
C2738 C 0.82111 0.90477 0.40502 0.0
C2739 C 0.804 0.89576 0.40997 0.0
C2740 C 0.83186 0.91461 0.41862 0.0
C2741 C 0.82575 0.91606 0.43764 0.0
C2742 C 0.8083 0.90745 0.44242 0.0
C2743 C 0.79769 0.89737 0.42885 0.0
H2744 H 0.15901 0.92797 0.80794 0.0
H2745 H 0.2165 0.94142 0.82409 0.0
H2746 H 0.1471 0.95298 0.82842 0.0
H2747 H 0.20447 0.9668 0.84504 0.0
H2748 H 0.16922 0.98932 0.89866 0.0
H2749 H 0.18516 0.96889 0.87557 0.0
H2750 H 0.14601 0.98748 0.83231 0.0
H2751 H 0.13027 1.00796 0.85514 0.0
C2752 C 0.16916 0.93657 0.81567 0.0
C2753 C 0.18871 0.93279 0.81428 0.0
C2754 C 0.16231 0.95099 0.82743 0.0
C2755 C 0.17476 0.962 0.83846 0.0
C2756 C 0.19446 0.95854 0.83681 0.0
C2757 C 0.20139 0.94418 0.82467 0.0
C2758 C 0.16417 0.98932 0.88417 0.0
C2759 C 0.14813 1.00016 0.87899 0.0
C2760 C 0.17338 0.97759 0.87088 0.0
C2761 C 0.16679 0.97632 0.85207 0.0
C2762 C 0.1513 0.98778 0.84673 0.0
C2763 C 0.14217 0.99952 0.85993 0.0
H2764 H 0.20875 0.59716 0.51115 0.0
H2765 H 0.16447 0.60574 0.4697 0.0
H2766 H 0.23175 0.61194 0.4894 0.0
H2767 H 0.18716 0.62012 0.44816 0.0
H2768 H 0.22386 0.66911 0.42763 0.0
H2769 H 0.20332 0.65061 0.44831 0.0
H2770 H 0.24872 0.61056 0.4579 0.0
H2771 H 0.26952 0.62942 0.43736 0.0
C2772 C 0.20403 0.60171 0.49725 0.0
C2773 C 0.18474 0.6004 0.49224 0.0
C2774 C 0.21718 0.61025 0.4848 0.0
C2775 C 0.21124 0.61763 0.46715 0.0
C2776 C 0.19219 0.61511 0.46179 0.0
C2777 C 0.17918 0.60669 0.47413 0.0
C2778 C 0.22954 0.65642 0.43417 0.0
C2779 C 0.24838 0.65081 0.43073 0.0
C2780 C 0.21768 0.64566 0.44593 0.0
C2781 C 0.22428 0.62895 0.45473 0.0
C2782 C 0.24317 0.62335 0.45143 0.0
C2783 C 0.25504 0.63408 0.43948 0.0
H2784 H 0.89125 0.38377 0.73037 0.0
H2785 H 0.85334 0.43073 0.74107 0.0
H2786 H 0.91024 0.40357 0.70978 0.0
H2787 H 0.87228 0.45069 0.71971 0.0
H2788 H 0.925 0.48509 0.69759 0.0
H2789 H 0.90267 0.46666 0.71688 0.0
H2790 H 0.9109 0.41843 0.67999 0.0
H2791 H 0.93337 0.43663 0.66123 0.0
C2792 C 0.88676 0.3983 0.72813 0.0
C2793 C 0.87066 0.40557 0.73742 0.0
C2794 C 0.89767 0.40971 0.71613 0.0
C2795 C 0.89284 0.42882 0.71285 0.0
C2796 C 0.87657 0.43611 0.72197 0.0
C2797 C 0.8656 0.42461 0.73409 0.0
C2798 C 0.92186 0.47061 0.69355 0.0
C2799 C 0.93123 0.46226 0.67803 0.0
C2800 C 0.90901 0.46002 0.70458 0.0
C2801 C 0.9051 0.44087 0.70025 0.0
C2802 C 0.91388 0.43291 0.68418 0.0
C2803 C 0.92679 0.44338 0.67334 0.0
H2804 H 0.68371 0.91227 0.5529 0.0
H2805 H 0.69255 0.97016 0.57062 0.0
H2806 H 0.70784 0.90152 0.57511 0.0
H2807 H 0.71694 0.95929 0.59336 0.0
H2808 H 0.73581 0.92291 0.6485 0.0
H2809 H 0.71705 0.93897 0.62394 0.0
H2810 H 0.74239 0.9031 0.58136 0.0
H2811 H 0.76112 0.88728 0.60566 0.0
C2812 C 0.69114 0.92276 0.56135 0.0
C2813 C 0.68636 0.94206 0.5599 0.0
C2814 C 0.70502 0.9166 0.57409 0.0
C2815 C 0.71439 0.92951 0.58607 0.0
C2816 C 0.70994 0.94897 0.58438 0.0
C2817 C 0.69617 0.95523 0.57125 0.0
C2818 C 0.73768 0.91873 0.63386 0.0
C2819 C 0.74975 0.90349 0.62918 0.0
C2820 C 0.72693 0.92797 0.61976 0.0
C2821 C 0.72799 0.92215 0.60068 0.0
C2822 C 0.74092 0.90771 0.59593 0.0
C2823 C 0.75164 0.89857 0.60993 0.0
H2824 H 0.13746 0.04121 0.68911 0.0
H2825 H 0.16369 0.07291 0.64384 0.0
H2826 H 0.15624 0.05881 0.7123 0.0
H2827 H 0.1821 0.09078 0.66685 0.0
H2828 H 0.22387 0.11241 0.70917 0.0
H2829 H 0.20726 0.09059 0.68819 0.0
H2830 H 0.16048 0.08821 0.72772 0.0
H2831 H 0.1776 0.10953 0.74906 0.0
C2832 C 0.14715 0.052 0.68406 0.0
C2833 C 0.149 0.05551 0.66447 0.0
C2834 C 0.15796 0.06219 0.69743 0.0
C2835 C 0.17092 0.07632 0.69167 0.0
C2836 C 0.17272 0.07977 0.67203 0.0
C2837 C 0.16204 0.0695 0.6587 0.0
C2838 C 0.21023 0.10688 0.71361 0.0
C2839 C 0.20218 0.11271 0.7309 0.0
C2840 C 0.2005 0.09452 0.70139 0.0
C2841 C 0.1822 0.08777 0.70588 0.0
C2842 C 0.17454 0.09288 0.72367 0.0
C2843 C 0.18442 0.10512 0.73603 0.0
H2844 H 0.35174 0.60763 0.5509 0.0
H2845 H 0.37775 0.58578 0.60176 0.0
H2846 H 0.32605 0.62147 0.57006 0.0
H2847 H 0.35226 0.59921 0.62076 0.0
H2848 H 0.32415 0.65036 0.6493 0.0
H2849 H 0.34543 0.63185 0.62935 0.0
H2850 H 0.29859 0.61753 0.59252 0.0
H2851 H 0.27725 0.63642 0.61249 0.0
C2852 C 0.35155 0.60508 0.56605 0.0
C2853 C 0.36674 0.59549 0.57479 0.0
C2854 C 0.33692 0.61316 0.57709 0.0
C2855 C 0.33726 0.61186 0.59708 0.0
C2856 C 0.3517 0.60095 0.60552 0.0
C2857 C 0.36622 0.59299 0.59457 0.0
C2858 C 0.31834 0.64325 0.63699 0.0
C2859 C 0.29893 0.64489 0.63263 0.0
C2860 C 0.33053 0.63245 0.62558 0.0
C2861 C 0.32378 0.62299 0.60931 0.0
C2862 C 0.30433 0.62461 0.60488 0.0
C2863 C 0.29205 0.63531 0.61646 0.0
H2864 H 0.89785 0.87338 0.57217 0.0
H2865 H 0.85426 0.89506 0.53509 0.0
H2866 H 0.8739 0.85669 0.59064 0.0
H2867 H 0.83022 0.87781 0.55304 0.0
H2868 H 0.79184 0.86758 0.60559 0.0
H2869 H 0.81374 0.8789 0.58143 0.0
H2870 H 0.85184 0.83256 0.59452 0.0
H2871 H 0.83009 0.822 0.61937 0.0
C2872 C 0.88317 0.87424 0.5677 0.0
C2873 C 0.87802 0.88571 0.55221 0.0
C2874 C 0.86932 0.86455 0.57827 0.0
C2875 C 0.84987 0.8658 0.57354 0.0
C2876 C 0.84488 0.87672 0.55752 0.0
C2877 C 0.85871 0.8866 0.54712 0.0
C2878 C 0.80449 0.85934 0.60266 0.0
C2879 C 0.80898 0.84359 0.614 0.0
C2880 C 0.81724 0.86592 0.58885 0.0
C2881 C 0.83491 0.8569 0.586 0.0
C2882 C 0.83867 0.84024 0.59647 0.0
C2883 C 0.82599 0.83384 0.61045 0.0
H2884 H 0.87047 0.1428 0.98288 0.0
H2885 H 0.91463 0.1622 0.94517 0.0
H2886 H 0.8468 0.15934 0.96385 0.0
H2887 H 0.89095 0.17922 0.92636 0.0
H2888 H 0.84059 0.18421 0.88437 0.0
H2889 H 0.86539 0.17141 0.90468 0.0
H2890 H 0.83465 0.19036 0.95412 0.0
H2891 H 0.80954 0.20308 0.93362 0.0
C2892 C 0.87518 0.15061 0.97054 0.0
C2893 C 0.89454 0.15092 0.9655 0.0
C2894 C 0.86158 0.16034 0.95974 0.0
C2895 C 0.86686 0.17063 0.94347 0.0
C2896 C 0.88628 0.17129 0.93865 0.0
C2897 C 0.89992 0.16164 0.94954 0.0
C2898 C 0.83914 0.18585 0.89957 0.0
C2899 C 0.82297 0.19467 0.90732 0.0
C2900 C 0.85349 0.17857 0.91125 0.0
C2901 C 0.85211 0.17976 0.93111 0.0
C2902 C 0.83613 0.18899 0.9389 0.0
C2903 C 0.82179 0.19643 0.92715 0.0
H2904 H 0.39619 0.90945 0.32813 0.0
H2905 H 0.43202 0.93195 0.28389 0.0
H2906 H 0.41168 0.92994 0.35111 0.0
H2907 H 0.44806 0.95217 0.30715 0.0
H2908 H 0.45529 1.00097 0.35303 0.0
H2909 H 0.44324 0.98013 0.32779 0.0
H2910 H 0.44118 0.93348 0.36747 0.0
H2911 H 0.45273 0.95419 0.39243 0.0
C2912 C 0.40742 0.91873 0.32327 0.0
C2913 C 0.41276 0.91894 0.30406 0.0
C2914 C 0.41651 0.9304 0.33654 0.0
C2915 C 0.4313 0.94272 0.33111 0.0
C2916 C 0.4367 0.94298 0.31188 0.0
C2917 C 0.42761 0.93119 0.29856 0.0
C2918 C 0.45263 0.98617 0.3562 0.0
C2919 C 0.45486 0.97931 0.37481 0.0
C2920 C 0.44566 0.9742 0.34174 0.0
C2921 C 0.44081 0.95513 0.34561 0.0
C2922 C 0.44419 0.94815 0.36399 0.0
C2923 C 0.45101 0.96003 0.37833 0.0
H2924 H 0.21668 0.31604 0.9352 0.0
H2925 H 0.25497 0.3638 0.93722 0.0
H2926 H 0.1949 0.33247 0.95639 0.0
H2927 H 0.23291 0.3806 0.9579 0.0
H2928 H 0.19384 0.40357 1.00375 0.0
H2929 H 0.21748 0.38439 0.98731 0.0
H2930 H 0.17278 0.35731 0.95521 0.0
H2931 H 0.14923 0.37622 0.97196 0.0
C2932 C 0.2206 0.32996 0.94041 0.0
C2933 C 0.23766 0.33852 0.93449 0.0
C2934 C 0.20795 0.33955 0.95241 0.0
C2935 C 0.21181 0.35812 0.95873 0.0
C2936 C 0.22936 0.3663 0.95356 0.0
C2937 C 0.24213 0.35661 0.94167 0.0
C2938 C 0.18905 0.3935 0.9932 0.0
C2939 C 0.16954 0.39155 0.98919 0.0
C2940 C 0.20266 0.38248 0.98369 0.0
C2941 C 0.19723 0.3692 0.96977 0.0
C2942 C 0.17766 0.36705 0.96602 0.0
C2943 C 0.16404 0.37798 0.97564 0.0
H2944 H 0.09288 0.10279 0.88558 0.0
H2945 H 0.09694 0.05337 0.84977 0.0
H2946 H 0.10467 0.12263 0.85998 0.0
H2947 H 0.1093 0.07331 0.82395 0.0
H2948 H 0.12238 0.1184 0.77762 0.0
H2949 H 0.105 0.09919 0.80078 0.0
H2950 H 0.13517 0.1272 0.84615 0.0
H2951 H 0.15197 0.14664 0.82317 0.0
C2952 C 0.096 0.09619 0.87206 0.0
C2953 C 0.09397 0.07646 0.86976 0.0
C2954 C 0.103 0.10757 0.85739 0.0
C2955 C 0.10844 0.09961 0.83994 0.0
C2956 C 0.10527 0.08 0.83716 0.0
C2957 C 0.09808 0.06855 0.85193 0.0
C2958 C 0.12509 0.12067 0.79254 0.0
C2959 C 0.13863 0.13418 0.79845 0.0
C2960 C 0.11525 0.10947 0.80585 0.0
C2961 C 0.11853 0.1116 0.82544 0.0
C2962 C 0.13194 0.12527 0.83127 0.0
C2963 C 0.14178 0.13635 0.81803 0.0
H2964 H 0.69716 0.12973 0.05726 0.0
H2965 H 0.6589 0.17672 0.06611 0.0
H2966 H 0.71931 0.14324 0.07989 0.0
H2967 H 0.68123 0.19038 0.08905 0.0
H2968 H 0.73545 0.21728 0.11614 0.0
H2969 H 0.71217 0.20515 0.0934 0.0
H2970 H 0.72287 0.14811 0.11311 0.0
H2971 H 0.7463 0.16014 0.13545 0.0
C2972 C 0.69334 0.14289 0.06417 0.0
C2973 C 0.67601 0.15194 0.05995 0.0
C2974 C 0.70611 0.15067 0.07725 0.0
C2975 C 0.70206 0.16782 0.08665 0.0
C2976 C 0.68495 0.1772 0.08208 0.0
C2977 C 0.67211 0.16938 0.0689 0.0
C2978 C 0.73277 0.20215 0.11569 0.0
C2979 C 0.74291 0.18971 0.12764 0.0
C2980 C 0.71932 0.19518 0.10266 0.0
C2981 C 0.71566 0.17557 0.10117 0.0
C2982 C 0.72551 0.16324 0.11347 0.0
C2983 C 0.73892 0.17019 0.12645 0.0
H2984 H 0.47915 0.07521 0.19347 0.0
H2985 H 0.4265 0.04448 0.19687 0.0
H2986 H 0.46863 0.09624 0.21897 0.0
H2987 H 0.41535 0.06581 0.22144 0.0
H2988 H 0.39771 0.10473 0.26815 0.0
H2989 H 0.41376 0.07962 0.25062 0.0
H2990 H 0.44863 0.12179 0.2228 0.0
H2991 H 0.43313 0.14662 0.24121 0.0
C2992 C 0.46566 0.07242 0.2003 0.0
C2993 C 0.45393 0.05777 0.1936 0.0
C2994 C 0.45932 0.08483 0.21461 0.0
C2995 C 0.44085 0.0832 0.22227 0.0
C2996 C 0.42971 0.06764 0.21634 0.0
C2997 C 0.43618 0.05515 0.20226 0.0
C2998 C 0.40891 0.10857 0.25838 0.0
C2999 C 0.41403 0.12772 0.25602 0.0
C3000 C 0.41813 0.09414 0.24817 0.0
C3001 C 0.43254 0.0984 0.23493 0.0
C3002 C 0.43793 0.11763 0.23298 0.0
C3003 C 0.42894 0.13201 0.24349 0.0
H3004 H 0.65979 0.45507 0.25509 0.0
H3005 H 0.64163 0.40788 0.22079 0.0
H3006 H 0.63941 0.47635 0.23683 0.0
H3007 H 0.62214 0.42902 0.20175 0.0
H3008 H 0.57883 0.46664 0.17547 0.0
H3009 H 0.59555 0.44677 0.19823 0.0
H3010 H 0.63473 0.49278 0.20926 0.0
H3011 H 0.61699 0.51293 0.18743 0.0
C3012 C 0.65152 0.44928 0.24351 0.0
C3013 C 0.65229 0.42976 0.23946 0.0
C3014 C 0.63985 0.46151 0.23289 0.0
C3015 C 0.62886 0.45465 0.2176 0.0
C3016 C 0.6298 0.43503 0.21361 0.0
C3017 C 0.64114 0.42278 0.22448 0.0
C3018 C 0.59075 0.47261 0.18313 0.0
C3019 C 0.59648 0.4914 0.1797 0.0
C3020 C 0.60062 0.4611 0.19603 0.0
C3021 C 0.61696 0.46779 0.20551 0.0
C3022 C 0.6222 0.48693 0.20256 0.0
C3023 C 0.61199 0.49861 0.18998 0.0
loop_
_geom_bond_atom_site_label_1
_geom_bond_atom_site_label_2
_geom_bond_distance
_geom_bond_site_symmetry_2
_ccdc_geom_bond_type
Cu0 N1 1.999 . S
Cu0 O6 1.974 . S
Cu0 N11 1.985 . S
Cu0 O20 1.959 . S
N1 Cu0 1.999 . S
N1 C3 1.263 . S
N1 C5 1.389 . S
N2 C3 1.358 . S
N2 C4 1.400 . S
C3 N1 1.263 . S
C3 N2 1.358 . S
C3 H9 0.930 . S
C4 N2 1.400 . S
C4 C5 1.351 . S
C4 H21 0.930 . S
C5 N1 1.389 . S
C5 C4 1.351 . S
C5 H10 0.930 . S
O6 Cu0 1.974 . S
O6 C16 1.282 . S
C7 O8 1.261 . S
C7 O20 1.251 . S
O8 C7 1.261 . S
H9 C3 0.930 . S
H10 C5 0.930 . S
N11 Cu0 1.985 . S
N11 C13 1.335 . S
N11 C14 1.390 . S
N12 C13 1.345 . S
N12 C15 1.336 . S
C13 N11 1.335 . S
C13 N12 1.345 . S
C13 H18 0.930 . S
C14 N11 1.390 . S
C14 C15 1.346 . S
C14 H19 0.930 . S
C15 N12 1.336 . S
C15 C14 1.346 . S
C15 H22 0.929 . S
C16 O6 1.282 . S
C16 O17 1.216 . S
O17 C16 1.216 . S
H18 C13 0.930 . S
H19 C14 0.930 . S
O20 Cu0 1.959 . S
O20 C7 1.251 . S
H21 C4 0.930 . S
H22 C15 0.929 . S
Cu23 N24 1.999 . S
Cu23 O29 1.974 . S
Cu23 N34 1.985 . S
Cu23 O43 1.959 . S
N24 Cu23 1.999 . S
N24 C26 1.263 . S
N24 C28 1.389 . S
N25 C26 1.358 . S
N25 C27 1.400 . S
C26 N24 1.263 . S
C26 N25 1.358 . S
C26 H32 0.930 . S
C27 N25 1.400 . S
C27 C28 1.351 . S
C27 H44 0.930 . S
C28 N24 1.389 . S
C28 C27 1.351 . S
C28 H33 0.930 . S
O29 Cu23 1.974 . S
O29 C39 1.282 . S
C30 O31 1.261 . S
C30 O43 1.251 . S
O31 C30 1.261 . S
H32 C26 0.930 . S
H33 C28 0.930 . S
N34 Cu23 1.985 . S
N34 C36 1.335 . S
N34 C37 1.390 . S
N35 C36 1.345 . S
N35 C38 1.336 . S
C36 N34 1.335 . S
C36 N35 1.345 . S
C36 H41 0.930 . S
C37 N34 1.390 . S
C37 C38 1.346 . S
C37 H42 0.930 . S
C38 N35 1.336 . S
C38 C37 1.346 . S
C38 H45 0.929 . S
C39 O29 1.282 . S
C39 O40 1.216 . S
O40 C39 1.216 . S
H41 C36 0.930 . S
H42 C37 0.930 . S
O43 Cu23 1.959 . S
O43 C30 1.251 . S
H44 C27 0.930 . S
H45 C38 0.929 . S
Cu46 N47 1.999 . S
Cu46 O52 1.974 . S
Cu46 N57 1.985 . S
Cu46 O66 1.959 . S
N47 Cu46 1.999 . S
N47 C49 1.263 . S
N47 C51 1.389 . S
N48 C49 1.358 . S
N48 C50 1.400 . S
C49 N47 1.263 . S
C49 N48 1.358 . S
C49 H55 0.930 . S
C50 N48 1.400 . S
C50 C51 1.351 . S
C50 H67 0.930 . S
C51 N47 1.389 . S
C51 C50 1.351 . S
C51 H56 0.930 . S
O52 Cu46 1.974 . S
O52 C62 1.282 . S
C53 O54 1.261 . S
C53 O66 1.251 . S
O54 C53 1.261 . S
H55 C49 0.930 . S
H56 C51 0.930 . S
N57 Cu46 1.985 . S
N57 C59 1.335 . S
N57 C60 1.390 . S
N58 C59 1.345 . S
N58 C61 1.336 . S
C59 N57 1.335 . S
C59 N58 1.345 . S
C59 H64 0.930 . S
C60 N57 1.390 . S
C60 C61 1.346 . S
C60 H65 0.930 . S
C61 N58 1.336 . S
C61 C60 1.346 . S
C61 H68 0.929 . S
C62 O52 1.282 . S
C62 O63 1.216 . S
O63 C62 1.216 . S
H64 C59 0.930 . S
H65 C60 0.930 . S
O66 Cu46 1.959 . S
O66 C53 1.251 . S
H67 C50 0.930 . S
H68 C61 0.929 . S
Cu69 N70 1.999 . S
Cu69 O75 1.974 . S
Cu69 N80 1.985 . S
Cu69 O89 1.959 . S
N70 Cu69 1.999 . S
N70 C72 1.263 . S
N70 C74 1.389 . S
N71 C72 1.358 . S
N71 C73 1.400 . S
C72 N70 1.263 . S
C72 N71 1.358 . S
C72 H78 0.930 . S
C73 N71 1.400 . S
C73 C74 1.351 . S
C73 H90 0.930 . S
C74 N70 1.389 . S
C74 C73 1.351 . S
C74 H79 0.930 . S
O75 Cu69 1.974 . S
O75 C85 1.282 . S
C76 O77 1.261 . S
C76 O89 1.251 . S
O77 C76 1.261 . S
H78 C72 0.930 . S
H79 C74 0.930 . S
N80 Cu69 1.985 . S
N80 C82 1.335 . S
N80 C83 1.390 . S
N81 C82 1.345 . S
N81 C84 1.336 . S
C82 N80 1.335 . S
C82 N81 1.345 . S
C82 H87 0.930 . S
C83 N80 1.390 . S
C83 C84 1.346 . S
C83 H88 0.930 . S
C84 N81 1.336 . S
C84 C83 1.346 . S
C84 H91 0.929 . S
C85 O75 1.282 . S
C85 O86 1.216 . S
O86 C85 1.216 . S
H87 C82 0.930 . S
H88 C83 0.930 . S
O89 Cu69 1.959 . S
O89 C76 1.251 . S
H90 C73 0.930 . S
H91 C84 0.929 . S
Cu92 N93 1.999 . S
Cu92 O98 1.974 . S
Cu92 N103 1.985 . S
Cu92 O112 1.959 . S
N93 Cu92 1.999 . S
N93 C95 1.263 . S
N93 C97 1.389 . S
N94 C95 1.358 . S
N94 C96 1.400 . S
C95 N93 1.263 . S
C95 N94 1.358 . S
C95 H101 0.930 . S
C96 N94 1.400 . S
C96 C97 1.351 . S
C96 H113 0.930 . S
C97 N93 1.389 . S
C97 C96 1.351 . S
C97 H102 0.930 . S
O98 Cu92 1.974 . S
O98 C108 1.282 . S
C99 O100 1.261 . S
C99 O112 1.251 . S
O100 C99 1.261 . S
H101 C95 0.930 . S
H102 C97 0.930 . S
N103 Cu92 1.985 . S
N103 C105 1.335 . S
N103 C106 1.390 . S
N104 C105 1.345 . S
N104 C107 1.336 . S
C105 N103 1.335 . S
C105 N104 1.345 . S
C105 H110 0.930 . S
C106 N103 1.390 . S
C106 C107 1.346 . S
C106 H111 0.930 . S
C107 N104 1.336 . S
C107 C106 1.346 . S
C107 H114 0.929 . S
C108 O98 1.282 . S
C108 O109 1.216 . S
O109 C108 1.216 . S
H110 C105 0.930 . S
H111 C106 0.930 . S
O112 Cu92 1.959 . S
O112 C99 1.251 . S
H113 C96 0.930 . S
H114 C107 0.929 . S
Cu115 N116 1.999 . S
Cu115 O121 1.974 1_455 S
Cu115 N126 1.985 1_455 S
Cu115 O135 1.959 . S
N116 Cu115 1.999 . S
N116 C118 1.263 . S
N116 C120 1.389 . S
N117 C118 1.358 . S
N117 C119 1.400 . S
C118 N116 1.263 . S
C118 N117 1.358 . S
C118 H124 0.930 . S
C119 N117 1.400 . S
C119 C120 1.351 . S
C119 H136 0.930 . S
C120 N116 1.389 . S
C120 C119 1.351 . S
C120 H125 0.930 . S
O121 Cu115 1.974 1_655 S
O121 C131 1.282 . S
C122 O123 1.261 . S
C122 O135 1.251 . S
O123 C122 1.261 . S
H124 C118 0.930 . S
H125 C120 0.930 . S
N126 Cu115 1.985 1_655 S
N126 C128 1.335 . S
N126 C129 1.390 . S
N127 C128 1.345 . S
N127 C130 1.336 . S
C128 N126 1.335 . S
C128 N127 1.345 . S
C128 H133 0.930 . S
C129 N126 1.390 . S
C129 C130 1.346 . S
C129 H134 0.930 . S
C130 N127 1.336 . S
C130 C129 1.346 . S
C130 H137 0.929 . S
C131 O121 1.282 . S
C131 O132 1.216 . S
O132 C131 1.216 . S
H133 C128 0.930 . S
H134 C129 0.930 . S
O135 Cu115 1.959 . S
O135 C122 1.251 . S
H136 C119 0.930 . S
H137 C130 0.929 . S
Cu138 N139 1.999 . S
Cu138 O144 1.974 . S
Cu138 N149 1.985 . S
Cu138 O158 1.959 . S
N139 Cu138 1.999 . S
N139 C141 1.263 . S
N139 C143 1.389 . S
N140 C141 1.358 . S
N140 C142 1.400 . S
C141 N139 1.263 . S
C141 N140 1.358 . S
C141 H147 0.930 . S
C142 N140 1.400 . S
C142 C143 1.351 . S
C142 H159 0.930 . S
C143 N139 1.389 . S
C143 C142 1.351 . S
C143 H148 0.930 . S
O144 Cu138 1.974 . S
O144 C154 1.282 . S
C145 O146 1.261 . S
C145 O158 1.251 . S
O146 C145 1.261 . S
H147 C141 0.930 . S
H148 C143 0.930 . S
N149 Cu138 1.985 . S
N149 C151 1.335 . S
N149 C152 1.390 . S
N150 C151 1.345 . S
N150 C153 1.336 . S
C151 N149 1.335 . S
C151 N150 1.345 . S
C151 H156 0.930 . S
C152 N149 1.390 . S
C152 C153 1.346 . S
C152 H157 0.930 . S
C153 N150 1.336 . S
C153 C152 1.346 . S
C153 H160 0.929 . S
C154 O144 1.282 . S
C154 O155 1.216 . S
O155 C154 1.216 . S
H156 C151 0.930 . S
H157 C152 0.930 . S
O158 Cu138 1.959 . S
O158 C145 1.251 . S
H159 C142 0.930 . S
H160 C153 0.929 . S
Cu161 N162 1.999 . S
Cu161 O167 1.974 1_655 S
Cu161 N172 1.985 1_655 S
Cu161 O181 1.959 . S
N162 Cu161 1.999 . S
N162 C164 1.263 . S
N162 C166 1.389 . S
N163 C164 1.358 . S
N163 C165 1.400 . S
C164 N162 1.263 . S
C164 N163 1.358 . S
C164 H170 0.930 . S
C165 N163 1.400 . S
C165 C166 1.351 . S
C165 H182 0.930 . S
C166 N162 1.389 . S
C166 C165 1.351 . S
C166 H171 0.930 . S
O167 Cu161 1.974 1_455 S
O167 C177 1.282 . S
C168 O169 1.261 . S
C168 O181 1.251 . S
O169 C168 1.261 . S
H170 C164 0.930 . S
H171 C166 0.930 . S
N172 Cu161 1.985 1_455 S
N172 C174 1.335 . S
N172 C175 1.390 . S
N173 C174 1.345 . S
N173 C176 1.336 . S
C174 N172 1.335 . S
C174 N173 1.345 . S
C174 H179 0.930 . S
C175 N172 1.390 . S
C175 C176 1.346 . S
C175 H180 0.930 . S
C176 N173 1.336 . S
C176 C175 1.346 . S
C176 H183 0.929 . S
C177 O167 1.282 . S
C177 O178 1.216 . S
O178 C177 1.216 . S
H179 C174 0.930 . S
H180 C175 0.930 . S
O181 Cu161 1.959 . S
O181 C168 1.251 . S
H182 C165 0.930 . S
H183 C176 0.929 . S
Cu184 N185 1.999 . S
Cu184 O190 1.974 . S
Cu184 N195 1.985 . S
Cu184 O204 1.959 . S
N185 Cu184 1.999 . S
N185 C187 1.263 . S
N185 C189 1.389 . S
N186 C187 1.358 . S
N186 C188 1.400 . S
C187 N185 1.263 . S
C187 N186 1.358 . S
C187 H193 0.930 . S
C188 N186 1.400 . S
C188 C189 1.351 . S
C188 H205 0.930 . S
C189 N185 1.389 . S
C189 C188 1.351 . S
C189 H194 0.930 . S
O190 Cu184 1.974 . S
O190 C200 1.282 . S
C191 O192 1.261 . S
C191 O204 1.251 . S
O192 C191 1.261 . S
H193 C187 0.930 . S
H194 C189 0.930 . S
N195 Cu184 1.985 . S
N195 C197 1.335 . S
N195 C198 1.390 . S
N196 C197 1.345 . S
N196 C199 1.336 . S
C197 N195 1.335 . S
C197 N196 1.345 . S
C197 H202 0.930 . S
C198 N195 1.390 . S
C198 C199 1.346 . S
C198 H203 0.930 . S
C199 N196 1.336 . S
C199 C198 1.346 . S
C199 H206 0.929 . S
C200 O190 1.282 . S
C200 O201 1.216 . S
O201 C200 1.216 . S
H202 C197 0.930 . S
H203 C198 0.930 . S
O204 Cu184 1.959 . S
O204 C191 1.251 . S
H205 C188 0.930 . S
H206 C199 0.929 . S
Cu207 N208 1.999 . S
Cu207 O213 1.974 1_554 S
Cu207 N218 1.985 1_554 S
Cu207 O227 1.959 . S
N208 Cu207 1.999 . S
N208 C210 1.263 . S
N208 C212 1.389 . S
N209 C210 1.358 . S
N209 C211 1.400 . S
C210 N208 1.263 . S
C210 N209 1.358 . S
C210 H216 0.930 . S
C211 N209 1.400 . S
C211 C212 1.351 . S
C211 H228 0.930 . S
C212 N208 1.389 . S
C212 C211 1.351 . S
C212 H217 0.930 . S
O213 Cu207 1.974 1_556 S
O213 C223 1.282 . S
C214 O215 1.261 . S
C214 O227 1.251 . S
O215 C214 1.261 . S
H216 C210 0.930 . S
H217 C212 0.930 . S
N218 Cu207 1.985 1_556 S
N218 C220 1.335 . S
N218 C221 1.390 . S
N219 C220 1.345 . S
N219 C222 1.336 . S
C220 N218 1.335 . S
C220 N219 1.345 . S
C220 H225 0.930 . S
C221 N218 1.390 . S
C221 C222 1.346 . S
C221 H226 0.930 . S
C222 N219 1.336 . S
C222 C221 1.346 . S
C222 H229 0.929 . S
C223 O213 1.282 . S
C223 O224 1.216 . S
O224 C223 1.216 . S
H225 C220 0.930 . S
H226 C221 0.930 . S
O227 Cu207 1.959 . S
O227 C214 1.251 . S
H228 C211 0.930 . S
H229 C222 0.929 . S
Cu230 N231 1.999 . S
Cu230 O236 1.974 . S
Cu230 N241 1.985 . S
Cu230 O250 1.959 . S
N231 Cu230 1.999 . S
N231 C233 1.263 . S
N231 C235 1.389 . S
N232 C233 1.358 . S
N232 C234 1.400 . S
C233 N231 1.263 . S
C233 N232 1.358 . S
C233 H239 0.930 . S
C234 N232 1.400 . S
C234 C235 1.351 . S
C234 H251 0.930 . S
C235 N231 1.389 . S
C235 C234 1.351 . S
C235 H240 0.930 . S
O236 Cu230 1.974 . S
O236 C246 1.282 . S
C237 O238 1.261 . S
C237 O250 1.251 . S
O238 C237 1.261 . S
H239 C233 0.930 . S
H240 C235 0.930 . S
N241 Cu230 1.985 . S
N241 C243 1.335 . S
N241 C244 1.390 . S
N242 C243 1.345 . S
N242 C245 1.336 . S
C243 N241 1.335 . S
C243 N242 1.345 . S
C243 H248 0.930 . S
C244 N241 1.390 . S
C244 C245 1.346 . S
C244 H249 0.930 . S
C245 N242 1.336 . S
C245 C244 1.346 . S
C245 H252 0.929 . S
C246 O236 1.282 . S
C246 O247 1.216 . S
O247 C246 1.216 . S
H248 C243 0.930 . S
H249 C244 0.930 . S
O250 Cu230 1.959 . S
O250 C237 1.251 . S
H251 C234 0.930 . S
H252 C245 0.929 . S
Cu253 N254 1.999 . S
Cu253 O259 1.974 1_554 S
Cu253 N264 1.985 1_554 S
Cu253 O273 1.959 . S
N254 Cu253 1.999 . S
N254 C256 1.263 . S
N254 C258 1.389 . S
N255 C256 1.358 . S
N255 C257 1.400 . S
C256 N254 1.263 . S
C256 N255 1.358 . S
C256 H262 0.930 . S
C257 N255 1.400 . S
C257 C258 1.351 . S
C257 H274 0.930 . S
C258 N254 1.389 . S
C258 C257 1.351 . S
C258 H263 0.930 . S
O259 Cu253 1.974 1_556 S
O259 C269 1.282 . S
C260 O261 1.261 . S
C260 O273 1.251 . S
O261 C260 1.261 . S
H262 C256 0.930 . S
H263 C258 0.930 . S
N264 Cu253 1.985 1_556 S
N264 C266 1.335 . S
N264 C267 1.390 . S
N265 C266 1.345 . S
N265 C268 1.336 . S
C266 N264 1.335 . S
C266 N265 1.345 . S
C266 H271 0.930 . S
C267 N264 1.390 . S
C267 C268 1.346 . S
C267 H272 0.930 . S
C268 N265 1.336 . S
C268 C267 1.346 . S
C268 H275 0.929 . S
C269 O259 1.282 . S
C269 O270 1.216 . S
O270 C269 1.216 . S
H271 C266 0.930 . S
H272 C267 0.930 . S
O273 Cu253 1.959 . S
O273 C260 1.251 . S
H274 C257 0.930 . S
H275 C268 0.929 . S
Cu276 N277 1.999 . S
Cu276 O282 1.974 . S
Cu276 N287 1.985 . S
Cu276 O296 1.959 . S
N277 Cu276 1.999 . S
N277 C279 1.263 . S
N277 C281 1.389 . S
N278 C279 1.358 . S
N278 C280 1.400 . S
C279 N277 1.263 . S
C279 N278 1.358 . S
C279 H285 0.930 . S
C280 N278 1.400 . S
C280 C281 1.351 . S
C280 H297 0.930 . S
C281 N277 1.389 . S
C281 C280 1.351 . S
C281 H286 0.930 . S
O282 Cu276 1.974 . S
O282 C292 1.282 . S
C283 O284 1.261 . S
C283 O296 1.251 . S
O284 C283 1.261 . S
H285 C279 0.930 . S
H286 C281 0.930 . S
N287 Cu276 1.985 . S
N287 C289 1.335 . S
N287 C290 1.390 . S
N288 C289 1.345 . S
N288 C291 1.336 . S
C289 N287 1.335 . S
C289 N288 1.345 . S
C289 H294 0.930 . S
C290 N287 1.390 . S
C290 C291 1.346 . S
C290 H295 0.930 . S
C291 N288 1.336 . S
C291 C290 1.346 . S
C291 H298 0.929 . S
C292 O282 1.282 . S
C292 O293 1.216 . S
O293 C292 1.216 . S
H294 C289 0.930 . S
H295 C290 0.930 . S
O296 Cu276 1.959 . S
O296 C283 1.251 . S
H297 C280 0.930 . S
H298 C291 0.929 . S
Cu299 N300 1.999 . S
Cu299 O305 1.974 1_556 S
Cu299 N310 1.985 1_556 S
Cu299 O319 1.959 . S
N300 Cu299 1.999 . S
N300 C302 1.263 . S
N300 C304 1.389 . S
N301 C302 1.358 . S
N301 C303 1.400 . S
C302 N300 1.263 . S
C302 N301 1.358 . S
C302 H308 0.930 . S
C303 N301 1.400 . S
C303 C304 1.351 . S
C303 H320 0.930 . S
C304 N300 1.389 . S
C304 C303 1.351 . S
C304 H309 0.930 . S
O305 Cu299 1.974 1_554 S
O305 C315 1.282 . S
C306 O307 1.261 . S
C306 O319 1.251 . S
O307 C306 1.261 . S
H308 C302 0.930 . S
H309 C304 0.930 . S
N310 Cu299 1.985 1_554 S
N310 C312 1.335 . S
N310 C313 1.390 . S
N311 C312 1.345 . S
N311 C314 1.336 . S
C312 N310 1.335 . S
C312 N311 1.345 . S
C312 H317 0.930 . S
C313 N310 1.390 . S
C313 C314 1.346 . S
C313 H318 0.930 . S
C314 N311 1.336 . S
C314 C313 1.346 . S
C314 H321 0.929 . S
C315 O305 1.282 . S
C315 O316 1.216 . S
O316 C315 1.216 . S
H317 C312 0.930 . S
H318 C313 0.930 . S
O319 Cu299 1.959 . S
O319 C306 1.251 . S
H320 C303 0.930 . S
H321 C314 0.929 . S
Cu322 N323 1.999 . S
Cu322 O328 1.974 . S
Cu322 N333 1.985 . S
Cu322 O342 1.959 . S
N323 Cu322 1.999 . S
N323 C325 1.263 . S
N323 C327 1.389 . S
N324 C325 1.358 . S
N324 C326 1.400 . S
C325 N323 1.263 . S
C325 N324 1.358 . S
C325 H331 0.930 . S
C326 N324 1.400 . S
C326 C327 1.351 . S
C326 H343 0.930 . S
C327 N323 1.389 . S
C327 C326 1.351 . S
C327 H332 0.930 . S
O328 Cu322 1.974 . S
O328 C338 1.282 . S
C329 O330 1.261 . S
C329 O342 1.251 . S
O330 C329 1.261 . S
H331 C325 0.930 . S
H332 C327 0.930 . S
N333 Cu322 1.985 . S
N333 C335 1.335 . S
N333 C336 1.390 . S
N334 C335 1.345 . S
N334 C337 1.336 . S
C335 N333 1.335 . S
C335 N334 1.345 . S
C335 H340 0.930 . S
C336 N333 1.390 . S
C336 C337 1.346 . S
C336 H341 0.930 . S
C337 N334 1.336 . S
C337 C336 1.346 . S
C337 H344 0.929 . S
C338 O328 1.282 . S
C338 O339 1.216 . S
O339 C338 1.216 . S
H340 C335 0.930 . S
H341 C336 0.930 . S
O342 Cu322 1.959 . S
O342 C329 1.251 . S
H343 C326 0.930 . S
H344 C337 0.929 . S
Cu345 N346 1.999 . S
Cu345 O351 1.974 1_556 S
Cu345 N356 1.985 1_556 S
Cu345 O365 1.959 . S
N346 Cu345 1.999 . S
N346 C348 1.263 . S
N346 C350 1.389 . S
N347 C348 1.358 . S
N347 C349 1.400 . S
C348 N346 1.263 . S
C348 N347 1.358 . S
C348 H354 0.930 . S
C349 N347 1.400 . S
C349 C350 1.351 . S
C349 H366 0.930 . S
C350 N346 1.389 . S
C350 C349 1.351 . S
C350 H355 0.930 . S
O351 Cu345 1.974 1_554 S
O351 C361 1.282 . S
C352 O353 1.261 . S
C352 O365 1.251 . S
O353 C352 1.261 . S
H354 C348 0.930 . S
H355 C350 0.930 . S
N356 Cu345 1.985 1_554 S
N356 C358 1.335 . S
N356 C359 1.390 . S
N357 C358 1.345 . S
N357 C360 1.336 . S
C358 N356 1.335 . S
C358 N357 1.345 . S
C358 H363 0.930 . S
C359 N356 1.390 . S
C359 C360 1.346 . S
C359 H364 0.930 . S
C360 N357 1.336 . S
C360 C359 1.346 . S
C360 H367 0.929 . S
C361 O351 1.282 . S
C361 O362 1.216 . S
O362 C361 1.216 . S
H363 C358 0.930 . S
H364 C359 0.930 . S
O365 Cu345 1.959 . S
O365 C352 1.251 . S
H366 C349 0.930 . S
H367 C360 0.929 . S
Cu368 N369 1.999 . S
Cu368 O374 1.974 . S
Cu368 N379 1.985 . S
Cu368 O388 1.959 . S
N369 Cu368 1.999 . S
N369 C371 1.263 . S
N369 C373 1.389 . S
N370 C371 1.358 . S
N370 C372 1.400 . S
C371 N369 1.263 . S
C371 N370 1.358 . S
C371 H377 0.930 . S
C372 N370 1.400 . S
C372 C373 1.351 . S
C372 H389 0.930 . S
C373 N369 1.389 . S
C373 C372 1.351 . S
C373 H378 0.930 . S
O374 Cu368 1.974 . S
O374 C384 1.282 . S
C375 O376 1.261 . S
C375 O388 1.251 . S
O376 C375 1.261 . S
H377 C371 0.930 . S
H378 C373 0.930 . S
N379 Cu368 1.985 . S
N379 C381 1.335 . S
N379 C382 1.390 . S
N380 C381 1.345 . S
N380 C383 1.336 . S
C381 N379 1.335 . S
C381 N380 1.345 . S
C381 H386 0.930 . S
C382 N379 1.390 . S
C382 C383 1.346 . S
C382 H387 0.930 . S
C383 N380 1.336 . S
C383 C382 1.346 . S
C383 H390 0.929 . S
C384 O374 1.282 . S
C384 O385 1.216 . S
O385 C384 1.216 . S
H386 C381 0.930 . S
H387 C382 0.930 . S
O388 Cu368 1.959 . S
O388 C375 1.251 . S
H389 C372 0.930 . S
H390 C383 0.929 . S
Cu391 N392 1.999 . S
Cu391 O397 1.974 . S
Cu391 N402 1.985 . S
Cu391 O411 1.959 . S
N392 Cu391 1.999 . S
N392 C394 1.263 . S
N392 C396 1.389 . S
N393 C394 1.358 . S
N393 C395 1.400 . S
C394 N392 1.263 . S
C394 N393 1.358 . S
C394 H400 0.930 . S
C395 N393 1.400 . S
C395 C396 1.351 . S
C395 H412 0.930 . S
C396 N392 1.389 . S
C396 C395 1.351 . S
C396 H401 0.930 . S
O397 Cu391 1.974 . S
O397 C407 1.282 . S
C398 O399 1.261 . S
C398 O411 1.251 . S
O399 C398 1.261 . S
H400 C394 0.930 . S
H401 C396 0.930 . S
N402 Cu391 1.985 . S
N402 C404 1.335 . S
N402 C405 1.390 . S
N403 C404 1.345 . S
N403 C406 1.336 . S
C404 N402 1.335 . S
C404 N403 1.345 . S
C404 H409 0.930 . S
C405 N402 1.390 . S
C405 C406 1.346 . S
C405 H410 0.930 . S
C406 N403 1.336 . S
C406 C405 1.346 . S
C406 H413 0.929 . S
C407 O397 1.282 . S
C407 O408 1.216 . S
O408 C407 1.216 . S
H409 C404 0.930 . S
H410 C405 0.930 . S
O411 Cu391 1.959 . S
O411 C398 1.251 . S
H412 C395 0.930 . S
H413 C406 0.929 . S
Cu414 N415 1.999 . S
Cu414 O420 1.974 . S
Cu414 N425 1.985 . S
Cu414 O434 1.959 . S
N415 Cu414 1.999 . S
N415 C417 1.263 . S
N415 C419 1.389 . S
N416 C417 1.358 . S
N416 C418 1.400 . S
C417 N415 1.263 . S
C417 N416 1.358 . S
C417 H423 0.930 . S
C418 N416 1.400 . S
C418 C419 1.351 . S
C418 H435 0.930 . S
C419 N415 1.389 . S
C419 C418 1.351 . S
C419 H424 0.930 . S
O420 Cu414 1.974 . S
O420 C430 1.282 . S
C421 O422 1.261 . S
C421 O434 1.251 . S
O422 C421 1.261 . S
H423 C417 0.930 . S
H424 C419 0.930 . S
N425 Cu414 1.985 . S
N425 C427 1.335 . S
N425 C428 1.390 . S
N426 C427 1.345 . S
N426 C429 1.336 . S
C427 N425 1.335 . S
C427 N426 1.345 . S
C427 H432 0.930 . S
C428 N425 1.390 . S
C428 C429 1.346 . S
C428 H433 0.930 . S
C429 N426 1.336 . S
C429 C428 1.346 . S
C429 H436 0.929 . S
C430 O420 1.282 . S
C430 O431 1.216 . S
O431 C430 1.216 . S
H432 C427 0.930 . S
H433 C428 0.930 . S
O434 Cu414 1.959 . S
O434 C421 1.251 . S
H435 C418 0.930 . S
H436 C429 0.929 . S
Cu437 N438 1.999 . S
Cu437 O443 1.974 . S
Cu437 N448 1.985 . S
Cu437 O457 1.959 . S
N438 Cu437 1.999 . S
N438 C440 1.263 . S
N438 C442 1.389 . S
N439 C440 1.358 . S
N439 C441 1.400 . S
C440 N438 1.263 . S
C440 N439 1.358 . S
C440 H446 0.930 . S
C441 N439 1.400 . S
C441 C442 1.351 . S
C441 H458 0.930 . S
C442 N438 1.389 . S
C442 C441 1.351 . S
C442 H447 0.930 . S
O443 Cu437 1.974 . S
O443 C453 1.282 . S
C444 O445 1.261 . S
C444 O457 1.251 . S
O445 C444 1.261 . S
H446 C440 0.930 . S
H447 C442 0.930 . S
N448 Cu437 1.985 . S
N448 C450 1.335 . S
N448 C451 1.390 . S
N449 C450 1.345 . S
N449 C452 1.336 . S
C450 N448 1.335 . S
C450 N449 1.345 . S
C450 H455 0.930 . S
C451 N448 1.390 . S
C451 C452 1.346 . S
C451 H456 0.930 . S
C452 N449 1.336 . S
C452 C451 1.346 . S
C452 H459 0.929 . S
C453 O443 1.282 . S
C453 O454 1.216 . S
O454 C453 1.216 . S
H455 C450 0.930 . S
H456 C451 0.930 . S
O457 Cu437 1.959 . S
O457 C444 1.251 . S
H458 C441 0.930 . S
H459 C452 0.929 . S
Cu460 N461 1.999 . S
Cu460 O466 1.974 . S
Cu460 N471 1.985 . S
Cu460 O480 1.959 . S
N461 Cu460 1.999 . S
N461 C463 1.263 . S
N461 C465 1.389 . S
N462 C463 1.358 . S
N462 C464 1.400 . S
C463 N461 1.263 . S
C463 N462 1.358 . S
C463 H469 0.930 . S
C464 N462 1.400 . S
C464 C465 1.351 . S
C464 H481 0.930 . S
C465 N461 1.389 . S
C465 C464 1.351 . S
C465 H470 0.930 . S
O466 Cu460 1.974 . S
O466 C476 1.282 . S
C467 O468 1.261 . S
C467 O480 1.251 . S
O468 C467 1.261 . S
H469 C463 0.930 . S
H470 C465 0.930 . S
N471 Cu460 1.985 . S
N471 C473 1.335 . S
N471 C474 1.390 . S
N472 C473 1.345 . S
N472 C475 1.336 . S
C473 N471 1.335 . S
C473 N472 1.345 . S
C473 H478 0.930 . S
C474 N471 1.390 . S
C474 C475 1.346 . S
C474 H479 0.930 . S
C475 N472 1.336 . S
C475 C474 1.346 . S
C475 H482 0.929 . S
C476 O466 1.282 . S
C476 O477 1.216 . S
O477 C476 1.216 . S
H478 C473 0.930 . S
H479 C474 0.930 . S
O480 Cu460 1.959 . S
O480 C467 1.251 . S
H481 C464 0.930 . S
H482 C475 0.929 . S
Cu483 N484 1.999 . S
Cu483 O489 1.974 . S
Cu483 N494 1.985 . S
Cu483 O503 1.959 . S
N484 Cu483 1.999 . S
N484 C486 1.263 . S
N484 C488 1.389 . S
N485 C486 1.358 . S
N485 C487 1.400 . S
C486 N484 1.263 . S
C486 N485 1.358 . S
C486 H492 0.930 . S
C487 N485 1.400 . S
C487 C488 1.351 . S
C487 H504 0.930 . S
C488 N484 1.389 . S
C488 C487 1.351 . S
C488 H493 0.930 . S
O489 Cu483 1.974 . S
O489 C499 1.282 . S
C490 O491 1.261 . S
C490 O503 1.251 . S
O491 C490 1.261 . S
H492 C486 0.930 . S
H493 C488 0.930 . S
N494 Cu483 1.985 . S
N494 C496 1.335 . S
N494 C497 1.390 . S
N495 C496 1.345 . S
N495 C498 1.336 . S
C496 N494 1.335 . S
C496 N495 1.345 . S
C496 H501 0.930 . S
C497 N494 1.390 . S
C497 C498 1.346 . S
C497 H502 0.930 . S
C498 N495 1.336 . S
C498 C497 1.346 . S
C498 H505 0.929 . S
C499 O489 1.282 . S
C499 O500 1.216 . S
O500 C499 1.216 . S
H501 C496 0.930 . S
H502 C497 0.930 . S
O503 Cu483 1.959 . S
O503 C490 1.251 . S
H504 C487 0.930 . S
H505 C498 0.929 . S
Cu506 N507 1.999 . S
Cu506 O512 1.974 . S
Cu506 N517 1.985 . S
Cu506 O526 1.959 . S
N507 Cu506 1.999 . S
N507 C509 1.263 . S
N507 C511 1.389 . S
N508 C509 1.358 . S
N508 C510 1.400 . S
C509 N507 1.263 . S
C509 N508 1.358 . S
C509 H515 0.930 . S
C510 N508 1.400 . S
C510 C511 1.351 . S
C510 H527 0.930 . S
C511 N507 1.389 . S
C511 C510 1.351 . S
C511 H516 0.930 . S
O512 Cu506 1.974 . S
O512 C522 1.282 . S
C513 O514 1.261 . S
C513 O526 1.251 . S
O514 C513 1.261 . S
H515 C509 0.930 . S
H516 C511 0.930 . S
N517 Cu506 1.985 . S
N517 C519 1.335 . S
N517 C520 1.390 . S
N518 C519 1.345 . S
N518 C521 1.336 . S
C519 N517 1.335 . S
C519 N518 1.345 . S
C519 H524 0.930 . S
C520 N517 1.390 . S
C520 C521 1.346 . S
C520 H525 0.930 . S
C521 N518 1.336 . S
C521 C520 1.346 . S
C521 H528 0.929 . S
C522 O512 1.282 . S
C522 O523 1.216 . S
O523 C522 1.216 . S
H524 C519 0.930 . S
H525 C520 0.930 . S
O526 Cu506 1.959 . S
O526 C513 1.251 . S
H527 C510 0.930 . S
H528 C521 0.929 . S
Cu529 N530 1.999 . S
Cu529 O535 1.974 1_545 S
Cu529 N540 1.985 1_545 S
Cu529 O549 1.959 . S
N530 Cu529 1.999 . S
N530 C532 1.263 . S
N530 C534 1.389 . S
N531 C532 1.358 . S
N531 C533 1.400 . S
C532 N530 1.263 . S
C532 N531 1.358 . S
C532 H538 0.930 . S
C533 N531 1.400 . S
C533 C534 1.351 . S
C533 H550 0.930 . S
C534 N530 1.389 . S
C534 C533 1.351 . S
C534 H539 0.930 . S
O535 Cu529 1.974 1_565 S
O535 C545 1.282 . S
C536 O537 1.261 . S
C536 O549 1.251 . S
O537 C536 1.261 . S
H538 C532 0.930 . S
H539 C534 0.930 . S
N540 Cu529 1.985 1_565 S
N540 C542 1.335 . S
N540 C543 1.390 . S
N541 C542 1.345 . S
N541 C544 1.336 . S
C542 N540 1.335 . S
C542 N541 1.345 . S
C542 H547 0.930 . S
C543 N540 1.390 . S
C543 C544 1.346 . S
C543 H548 0.930 . S
C544 N541 1.336 . S
C544 C543 1.346 . S
C544 H551 0.929 . S
C545 O535 1.282 . S
C545 O546 1.216 . S
O546 C545 1.216 . S
H547 C542 0.930 . S
H548 C543 0.930 . S
O549 Cu529 1.959 . S
O549 C536 1.251 . S
H550 C533 0.930 . S
H551 C544 0.929 . S
Cu552 N553 1.999 . S
Cu552 O558 1.974 . S
Cu552 N563 1.985 . S
Cu552 O572 1.959 . S
N553 Cu552 1.999 . S
N553 C555 1.263 . S
N553 C557 1.389 . S
N554 C555 1.358 . S
N554 C556 1.400 . S
C555 N553 1.263 . S
C555 N554 1.358 . S
C555 H561 0.930 . S
C556 N554 1.400 . S
C556 C557 1.351 . S
C556 H573 0.930 . S
C557 N553 1.389 . S
C557 C556 1.351 . S
C557 H562 0.930 . S
O558 Cu552 1.974 . S
O558 C568 1.282 . S
C559 O560 1.261 . S
C559 O572 1.251 . S
O560 C559 1.261 . S
H561 C555 0.930 . S
H562 C557 0.930 . S
N563 Cu552 1.985 . S
N563 C565 1.335 . S
N563 C566 1.390 . S
N564 C565 1.345 . S
N564 C567 1.336 . S
C565 N563 1.335 . S
C565 N564 1.345 . S
C565 H570 0.930 . S
C566 N563 1.390 . S
C566 C567 1.346 . S
C566 H571 0.930 . S
C567 N564 1.336 . S
C567 C566 1.346 . S
C567 H574 0.929 . S
C568 O558 1.282 . S
C568 O569 1.216 . S
O569 C568 1.216 . S
H570 C565 0.930 . S
H571 C566 0.930 . S
O572 Cu552 1.959 . S
O572 C559 1.251 . S
H573 C556 0.930 . S
H574 C567 0.929 . S
Cu575 N576 1.999 . S
Cu575 O581 1.974 1_655 S
Cu575 N586 1.985 1_655 S
Cu575 O595 1.959 . S
N576 Cu575 1.999 . S
N576 C578 1.263 . S
N576 C580 1.389 . S
N577 C578 1.358 . S
N577 C579 1.400 . S
C578 N576 1.263 . S
C578 N577 1.358 . S
C578 H584 0.930 . S
C579 N577 1.400 . S
C579 C580 1.351 . S
C579 H596 0.930 . S
C580 N576 1.389 . S
C580 C579 1.351 . S
C580 H585 0.930 . S
O581 Cu575 1.974 1_455 S
O581 C591 1.282 . S
C582 O583 1.261 . S
C582 O595 1.251 . S
O583 C582 1.261 . S
H584 C578 0.930 . S
H585 C580 0.930 . S
N586 Cu575 1.985 1_455 S
N586 C588 1.335 . S
N586 C589 1.390 . S
N587 C588 1.345 . S
N587 C590 1.336 . S
C588 N586 1.335 . S
C588 N587 1.345 . S
C588 H593 0.930 . S
C589 N586 1.390 . S
C589 C590 1.346 . S
C589 H594 0.930 . S
C590 N587 1.336 . S
C590 C589 1.346 . S
C590 H597 0.929 . S
C591 O581 1.282 . S
C591 O592 1.216 . S
O592 C591 1.216 . S
H593 C588 0.930 . S
H594 C589 0.930 . S
O595 Cu575 1.959 . S
O595 C582 1.251 . S
H596 C579 0.930 . S
H597 C590 0.929 . S
Cu598 N599 1.999 . S
Cu598 O604 1.974 . S
Cu598 N609 1.985 . S
Cu598 O618 1.959 . S
N599 Cu598 1.999 . S
N599 C601 1.263 . S
N599 C603 1.389 . S
N600 C601 1.358 . S
N600 C602 1.400 . S
C601 N599 1.263 . S
C601 N600 1.358 . S
C601 H607 0.930 . S
C602 N600 1.400 . S
C602 C603 1.351 . S
C602 H619 0.930 . S
C603 N599 1.389 . S
C603 C602 1.351 . S
C603 H608 0.930 . S
O604 Cu598 1.974 . S
O604 C614 1.282 . S
C605 O606 1.261 . S
C605 O618 1.251 . S
O606 C605 1.261 . S
H607 C601 0.930 . S
H608 C603 0.930 . S
N609 Cu598 1.985 . S
N609 C611 1.335 . S
N609 C612 1.390 . S
N610 C611 1.345 . S
N610 C613 1.336 . S
C611 N609 1.335 . S
C611 N610 1.345 . S
C611 H616 0.930 . S
C612 N609 1.390 . S
C612 C613 1.346 . S
C612 H617 0.930 . S
C613 N610 1.336 . S
C613 C612 1.346 . S
C613 H620 0.929 . S
C614 O604 1.282 . S
C614 O615 1.216 . S
O615 C614 1.216 . S
H616 C611 0.930 . S
H617 C612 0.930 . S
O618 Cu598 1.959 . S
O618 C605 1.251 . S
H619 C602 0.930 . S
H620 C613 0.929 . S
Cu621 N622 1.999 . S
Cu621 O627 1.974 1_455 S
Cu621 N632 1.985 1_455 S
Cu621 O641 1.959 . S
N622 Cu621 1.999 . S
N622 C624 1.263 . S
N622 C626 1.389 . S
N623 C624 1.358 . S
N623 C625 1.400 . S
C624 N622 1.263 . S
C624 N623 1.358 . S
C624 H630 0.930 . S
C625 N623 1.400 . S
C625 C626 1.351 . S
C625 H642 0.930 . S
C626 N622 1.389 . S
C626 C625 1.351 . S
C626 H631 0.930 . S
O627 Cu621 1.974 1_655 S
O627 C637 1.282 . S
C628 O629 1.261 . S
C628 O641 1.251 . S
O629 C628 1.261 . S
H630 C624 0.930 . S
H631 C626 0.930 . S
N632 Cu621 1.985 1_655 S
N632 C634 1.335 . S
N632 C635 1.390 . S
N633 C634 1.345 . S
N633 C636 1.336 . S
C634 N632 1.335 . S
C634 N633 1.345 . S
C634 H639 0.930 . S
C635 N632 1.390 . S
C635 C636 1.346 . S
C635 H640 0.930 . S
C636 N633 1.336 . S
C636 C635 1.346 . S
C636 H643 0.929 . S
C637 O627 1.282 . S
C637 O638 1.216 . S
O638 C637 1.216 . S
H639 C634 0.930 . S
H640 C635 0.930 . S
O641 Cu621 1.959 . S
O641 C628 1.251 . S
H642 C625 0.930 . S
H643 C636 0.929 . S
Cu644 N645 1.999 . S
Cu644 O650 1.974 . S
Cu644 N655 1.985 . S
Cu644 O664 1.959 . S
N645 Cu644 1.999 . S
N645 C647 1.263 . S
N645 C649 1.389 . S
N646 C647 1.358 . S
N646 C648 1.400 . S
C647 N645 1.263 . S
C647 N646 1.358 . S
C647 H653 0.930 . S
C648 N646 1.400 . S
C648 C649 1.351 . S
C648 H665 0.930 . S
C649 N645 1.389 . S
C649 C648 1.351 . S
C649 H654 0.930 . S
O650 Cu644 1.974 . S
O650 C660 1.282 . S
C651 O652 1.261 . S
C651 O664 1.251 . S
O652 C651 1.261 . S
H653 C647 0.930 . S
H654 C649 0.930 . S
N655 Cu644 1.985 . S
N655 C657 1.335 . S
N655 C658 1.390 . S
N656 C657 1.345 . S
N656 C659 1.336 . S
C657 N655 1.335 . S
C657 N656 1.345 . S
C657 H662 0.930 . S
C658 N655 1.390 . S
C658 C659 1.346 . S
C658 H663 0.930 . S
C659 N656 1.336 . S
C659 C658 1.346 . S
C659 H666 0.929 . S
C660 O650 1.282 . S
C660 O661 1.216 . S
O661 C660 1.216 . S
H662 C657 0.930 . S
H663 C658 0.930 . S
O664 Cu644 1.959 . S
O664 C651 1.251 . S
H665 C648 0.930 . S
H666 C659 0.929 . S
Cu667 N668 1.999 . S
Cu667 O673 1.974 . S
Cu667 N678 1.985 . S
Cu667 O687 1.959 . S
N668 Cu667 1.999 . S
N668 C670 1.263 . S
N668 C672 1.389 . S
N669 C670 1.358 . S
N669 C671 1.400 . S
C670 N668 1.263 . S
C670 N669 1.358 . S
C670 H676 0.930 . S
C671 N669 1.400 . S
C671 C672 1.351 . S
C671 H688 0.930 . S
C672 N668 1.389 . S
C672 C671 1.351 . S
C672 H677 0.930 . S
O673 Cu667 1.974 . S
O673 C683 1.282 . S
C674 O675 1.261 . S
C674 O687 1.251 . S
O675 C674 1.261 . S
H676 C670 0.930 . S
H677 C672 0.930 . S
N678 Cu667 1.985 . S
N678 C680 1.335 . S
N678 C681 1.390 . S
N679 C680 1.345 . S
N679 C682 1.336 . S
C680 N678 1.335 . S
C680 N679 1.345 . S
C680 H685 0.930 . S
C681 N678 1.390 . S
C681 C682 1.346 . S
C681 H686 0.930 . S
C682 N679 1.336 . S
C682 C681 1.346 . S
C682 H689 0.929 . S
C683 O673 1.282 . S
C683 O684 1.216 . S
O684 C683 1.216 . S
H685 C680 0.930 . S
H686 C681 0.930 . S
O687 Cu667 1.959 . S
O687 C674 1.251 . S
H688 C671 0.930 . S
H689 C682 0.929 . S
Cu690 N691 1.999 . S
Cu690 O696 1.974 . S
Cu690 N701 1.985 . S
Cu690 O710 1.959 . S
N691 Cu690 1.999 . S
N691 C693 1.263 . S
N691 C695 1.389 . S
N692 C693 1.358 . S
N692 C694 1.400 . S
C693 N691 1.263 . S
C693 N692 1.358 . S
C693 H699 0.930 . S
C694 N692 1.400 . S
C694 C695 1.351 . S
C694 H711 0.930 . S
C695 N691 1.389 . S
C695 C694 1.351 . S
C695 H700 0.930 . S
O696 Cu690 1.974 . S
O696 C706 1.282 . S
C697 O698 1.261 . S
C697 O710 1.251 . S
O698 C697 1.261 . S
H699 C693 0.930 . S
H700 C695 0.930 . S
N701 Cu690 1.985 . S
N701 C703 1.335 . S
N701 C704 1.390 . S
N702 C703 1.345 . S
N702 C705 1.336 . S
C703 N701 1.335 . S
C703 N702 1.345 . S
C703 H708 0.930 . S
C704 N701 1.390 . S
C704 C705 1.346 . S
C704 H709 0.930 . S
C705 N702 1.336 . S
C705 C704 1.346 . S
C705 H712 0.929 . S
C706 O696 1.282 . S
C706 O707 1.216 . S
O707 C706 1.216 . S
H708 C703 0.930 . S
H709 C704 0.930 . S
O710 Cu690 1.959 . S
O710 C697 1.251 . S
H711 C694 0.930 . S
H712 C705 0.929 . S
Cu713 N714 1.999 . S
Cu713 O719 1.974 . S
Cu713 N724 1.985 . S
Cu713 O733 1.959 . S
N714 Cu713 1.999 . S
N714 C716 1.263 . S
N714 C718 1.389 . S
N715 C716 1.358 . S
N715 C717 1.400 . S
C716 N714 1.263 . S
C716 N715 1.358 . S
C716 H722 0.930 . S
C717 N715 1.400 . S
C717 C718 1.351 . S
C717 H734 0.930 . S
C718 N714 1.389 . S
C718 C717 1.351 . S
C718 H723 0.930 . S
O719 Cu713 1.974 . S
O719 C729 1.282 . S
C720 O721 1.261 . S
C720 O733 1.251 . S
O721 C720 1.261 . S
H722 C716 0.930 . S
H723 C718 0.930 . S
N724 Cu713 1.985 . S
N724 C726 1.335 . S
N724 C727 1.390 . S
N725 C726 1.345 . S
N725 C728 1.336 . S
C726 N724 1.335 . S
C726 N725 1.345 . S
C726 H731 0.930 . S
C727 N724 1.390 . S
C727 C728 1.346 . S
C727 H732 0.930 . S
C728 N725 1.336 . S
C728 C727 1.346 . S
C728 H735 0.929 . S
C729 O719 1.282 . S
C729 O730 1.216 . S
O730 C729 1.216 . S
H731 C726 0.930 . S
H732 C727 0.930 . S
O733 Cu713 1.959 . S
O733 C720 1.251 . S
H734 C717 0.930 . S
H735 C728 0.929 . S
Cu736 N737 1.999 . S
Cu736 O742 1.974 . S
Cu736 N747 1.985 . S
Cu736 O756 1.959 . S
N737 Cu736 1.999 . S
N737 C739 1.263 . S
N737 C741 1.389 . S
N738 C739 1.358 . S
N738 C740 1.400 . S
C739 N737 1.263 . S
C739 N738 1.358 . S
C739 H745 0.930 . S
C740 N738 1.400 . S
C740 C741 1.351 . S
C740 H757 0.930 . S
C741 N737 1.389 . S
C741 C740 1.351 . S
C741 H746 0.930 . S
O742 Cu736 1.974 . S
O742 C752 1.282 . S
C743 O744 1.261 . S
C743 O756 1.251 . S
O744 C743 1.261 . S
H745 C739 0.930 . S
H746 C741 0.930 . S
N747 Cu736 1.985 . S
N747 C749 1.335 . S
N747 C750 1.390 . S
N748 C749 1.345 . S
N748 C751 1.336 . S
C749 N747 1.335 . S
C749 N748 1.345 . S
C749 H754 0.930 . S
C750 N747 1.390 . S
C750 C751 1.346 . S
C750 H755 0.930 . S
C751 N748 1.336 . S
C751 C750 1.346 . S
C751 H758 0.929 . S
C752 O742 1.282 . S
C752 O753 1.216 . S
O753 C752 1.216 . S
H754 C749 0.930 . S
H755 C750 0.930 . S
O756 Cu736 1.959 . S
O756 C743 1.251 . S
H757 C740 0.930 . S
H758 C751 0.929 . S
Cu759 N760 1.999 . S
Cu759 O765 1.974 . S
Cu759 N770 1.985 . S
Cu759 O779 1.959 . S
N760 Cu759 1.999 . S
N760 C762 1.263 . S
N760 C764 1.389 . S
N761 C762 1.358 . S
N761 C763 1.400 . S
C762 N760 1.263 . S
C762 N761 1.358 . S
C762 H768 0.930 . S
C763 N761 1.400 . S
C763 C764 1.351 . S
C763 H780 0.930 . S
C764 N760 1.389 . S
C764 C763 1.351 . S
C764 H769 0.930 . S
O765 Cu759 1.974 . S
O765 C775 1.282 . S
C766 O767 1.261 . S
C766 O779 1.251 . S
O767 C766 1.261 . S
H768 C762 0.930 . S
H769 C764 0.930 . S
N770 Cu759 1.985 . S
N770 C772 1.335 . S
N770 C773 1.390 . S
N771 C772 1.345 . S
N771 C774 1.336 . S
C772 N770 1.335 . S
C772 N771 1.345 . S
C772 H777 0.930 . S
C773 N770 1.390 . S
C773 C774 1.346 . S
C773 H778 0.930 . S
C774 N771 1.336 . S
C774 C773 1.346 . S
C774 H781 0.929 . S
C775 O765 1.282 . S
C775 O776 1.216 . S
O776 C775 1.216 . S
H777 C772 0.930 . S
H778 C773 0.930 . S
O779 Cu759 1.959 . S
O779 C766 1.251 . S
H780 C763 0.930 . S
H781 C774 0.929 . S
Cu782 N783 1.999 . S
Cu782 O788 1.974 . S
Cu782 N793 1.985 . S
Cu782 O802 1.959 . S
N783 Cu782 1.999 . S
N783 C785 1.263 . S
N783 C787 1.389 . S
N784 C785 1.358 . S
N784 C786 1.400 . S
C785 N783 1.263 . S
C785 N784 1.358 . S
C785 H791 0.930 . S
C786 N784 1.400 . S
C786 C787 1.351 . S
C786 H803 0.930 . S
C787 N783 1.389 . S
C787 C786 1.351 . S
C787 H792 0.930 . S
O788 Cu782 1.974 . S
O788 C798 1.282 . S
C789 O790 1.261 . S
C789 O802 1.251 . S
O790 C789 1.261 . S
H791 C785 0.930 . S
H792 C787 0.930 . S
N793 Cu782 1.985 . S
N793 C795 1.335 . S
N793 C796 1.390 . S
N794 C795 1.345 . S
N794 C797 1.336 . S
C795 N793 1.335 . S
C795 N794 1.345 . S
C795 H800 0.930 . S
C796 N793 1.390 . S
C796 C797 1.346 . S
C796 H801 0.930 . S
C797 N794 1.336 . S
C797 C796 1.346 . S
C797 H804 0.929 . S
C798 O788 1.282 . S
C798 O799 1.216 . S
O799 C798 1.216 . S
H800 C795 0.930 . S
H801 C796 0.930 . S
O802 Cu782 1.959 . S
O802 C789 1.251 . S
H803 C786 0.930 . S
H804 C797 0.929 . S
Cu805 N806 1.999 . S
Cu805 O811 1.974 . S
Cu805 N816 1.985 . S
Cu805 O825 1.959 . S
N806 Cu805 1.999 . S
N806 C808 1.263 . S
N806 C810 1.389 . S
N807 C808 1.358 . S
N807 C809 1.400 . S
C808 N806 1.263 . S
C808 N807 1.358 . S
C808 H814 0.930 . S
C809 N807 1.400 . S
C809 C810 1.351 . S
C809 H826 0.930 . S
C810 N806 1.389 . S
C810 C809 1.351 . S
C810 H815 0.930 . S
O811 Cu805 1.974 . S
O811 C821 1.282 . S
C812 O813 1.261 . S
C812 O825 1.251 . S
O813 C812 1.261 . S
H814 C808 0.930 . S
H815 C810 0.930 . S
N816 Cu805 1.985 . S
N816 C818 1.335 . S
N816 C819 1.390 . S
N817 C818 1.345 . S
N817 C820 1.336 . S
C818 N816 1.335 . S
C818 N817 1.345 . S
C818 H823 0.930 . S
C819 N816 1.390 . S
C819 C820 1.346 . S
C819 H824 0.930 . S
C820 N817 1.336 . S
C820 C819 1.346 . S
C820 H827 0.929 . S
C821 O811 1.282 . S
C821 O822 1.216 . S
O822 C821 1.216 . S
H823 C818 0.930 . S
H824 C819 0.930 . S
O825 Cu805 1.959 . S
O825 C812 1.251 . S
H826 C809 0.930 . S
H827 C820 0.929 . S
Cu828 N829 1.999 . S
Cu828 O834 1.974 . S
Cu828 N839 1.985 . S
Cu828 O848 1.959 . S
N829 Cu828 1.999 . S
N829 C831 1.263 . S
N829 C833 1.389 . S
N830 C831 1.358 . S
N830 C832 1.400 . S
C831 N829 1.263 . S
C831 N830 1.358 . S
C831 H837 0.930 . S
C832 N830 1.400 . S
C832 C833 1.351 . S
C832 H849 0.930 . S
C833 N829 1.389 . S
C833 C832 1.351 . S
C833 H838 0.930 . S
O834 Cu828 1.974 . S
O834 C844 1.282 . S
C835 O836 1.261 . S
C835 O848 1.251 . S
O836 C835 1.261 . S
H837 C831 0.930 . S
H838 C833 0.930 . S
N839 Cu828 1.985 . S
N839 C841 1.335 . S
N839 C842 1.390 . S
N840 C841 1.345 . S
N840 C843 1.336 . S
C841 N839 1.335 . S
C841 N840 1.345 . S
C841 H846 0.930 . S
C842 N839 1.390 . S
C842 C843 1.346 . S
C842 H847 0.930 . S
C843 N840 1.336 . S
C843 C842 1.346 . S
C843 H850 0.929 . S
C844 O834 1.282 . S
C844 O845 1.216 . S
O845 C844 1.216 . S
H846 C841 0.930 . S
H847 C842 0.930 . S
O848 Cu828 1.959 . S
O848 C835 1.251 . S
H849 C832 0.930 . S
H850 C843 0.929 . S
Cu851 N852 1.999 . S
Cu851 O857 1.974 . S
Cu851 N862 1.985 . S
Cu851 O871 1.959 . S
N852 Cu851 1.999 . S
N852 C854 1.263 . S
N852 C856 1.389 . S
N853 C854 1.358 . S
N853 C855 1.400 . S
C854 N852 1.263 . S
C854 N853 1.358 . S
C854 H860 0.930 . S
C855 N853 1.400 . S
C855 C856 1.351 . S
C855 H872 0.930 . S
C856 N852 1.389 . S
C856 C855 1.351 . S
C856 H861 0.930 . S
O857 Cu851 1.974 . S
O857 C867 1.282 . S
C858 O859 1.261 . S
C858 O871 1.251 . S
O859 C858 1.261 . S
H860 C854 0.930 . S
H861 C856 0.930 . S
N862 Cu851 1.985 . S
N862 C864 1.335 . S
N862 C865 1.390 . S
N863 C864 1.345 . S
N863 C866 1.336 . S
C864 N862 1.335 . S
C864 N863 1.345 . S
C864 H869 0.930 . S
C865 N862 1.390 . S
C865 C866 1.346 . S
C865 H870 0.930 . S
C866 N863 1.336 . S
C866 C865 1.346 . S
C866 H873 0.929 . S
C867 O857 1.282 . S
C867 O868 1.216 . S
O868 C867 1.216 . S
H869 C864 0.930 . S
H870 C865 0.930 . S
O871 Cu851 1.959 . S
O871 C858 1.251 . S
H872 C855 0.930 . S
H873 C866 0.929 . S
Cu874 N875 1.999 . S
Cu874 O880 1.974 . S
Cu874 N885 1.985 . S
Cu874 O894 1.959 . S
N875 Cu874 1.999 . S
N875 C877 1.263 . S
N875 C879 1.389 . S
N876 C877 1.358 . S
N876 C878 1.400 . S
C877 N875 1.263 . S
C877 N876 1.358 . S
C877 H883 0.930 . S
C878 N876 1.400 . S
C878 C879 1.351 . S
C878 H895 0.930 . S
C879 N875 1.389 . S
C879 C878 1.351 . S
C879 H884 0.930 . S
O880 Cu874 1.974 . S
O880 C890 1.282 . S
C881 O882 1.261 . S
C881 O894 1.251 . S
O882 C881 1.261 . S
H883 C877 0.930 . S
H884 C879 0.930 . S
N885 Cu874 1.985 . S
N885 C887 1.335 . S
N885 C888 1.390 . S
N886 C887 1.345 . S
N886 C889 1.336 . S
C887 N885 1.335 . S
C887 N886 1.345 . S
C887 H892 0.930 . S
C888 N885 1.390 . S
C888 C889 1.346 . S
C888 H893 0.930 . S
C889 N886 1.336 . S
C889 C888 1.346 . S
C889 H896 0.929 . S
C890 O880 1.282 . S
C890 O891 1.216 . S
O891 C890 1.216 . S
H892 C887 0.930 . S
H893 C888 0.930 . S
O894 Cu874 1.959 . S
O894 C881 1.251 . S
H895 C878 0.930 . S
H896 C889 0.929 . S
Cu897 N898 1.999 . S
Cu897 O903 1.974 . S
Cu897 N908 1.985 . S
Cu897 O917 1.959 . S
N898 Cu897 1.999 . S
N898 C900 1.263 . S
N898 C902 1.389 . S
N899 C900 1.358 . S
N899 C901 1.400 . S
C900 N898 1.263 . S
C900 N899 1.358 . S
C900 H906 0.930 . S
C901 N899 1.400 . S
C901 C902 1.351 . S
C901 H918 0.930 . S
C902 N898 1.389 . S
C902 C901 1.351 . S
C902 H907 0.930 . S
O903 Cu897 1.974 . S
O903 C913 1.282 . S
C904 O905 1.261 . S
C904 O917 1.251 . S
O905 C904 1.261 . S
H906 C900 0.930 . S
H907 C902 0.930 . S
N908 Cu897 1.985 . S
N908 C910 1.335 . S
N908 C911 1.390 . S
N909 C910 1.345 . S
N909 C912 1.336 . S
C910 N908 1.335 . S
C910 N909 1.345 . S
C910 H915 0.930 . S
C911 N908 1.390 . S
C911 C912 1.346 . S
C911 H916 0.930 . S
C912 N909 1.336 . S
C912 C911 1.346 . S
C912 H919 0.929 . S
C913 O903 1.282 . S
C913 O914 1.216 . S
O914 C913 1.216 . S
H915 C910 0.930 . S
H916 C911 0.930 . S
O917 Cu897 1.959 . S
O917 C904 1.251 . S
H918 C901 0.930 . S
H919 C912 0.929 . S
Cu920 N921 1.999 . S
Cu920 O926 1.974 . S
Cu920 N931 1.985 . S
Cu920 O940 1.959 . S
N921 Cu920 1.999 . S
N921 C923 1.263 . S
N921 C925 1.389 . S
N922 C923 1.358 . S
N922 C924 1.400 . S
C923 N921 1.263 . S
C923 N922 1.358 . S
C923 H929 0.930 . S
C924 N922 1.400 . S
C924 C925 1.351 . S
C924 H941 0.930 . S
C925 N921 1.389 . S
C925 C924 1.351 . S
C925 H930 0.930 . S
O926 Cu920 1.974 . S
O926 C936 1.282 . S
C927 O928 1.261 . S
C927 O940 1.251 . S
O928 C927 1.261 . S
H929 C923 0.930 . S
H930 C925 0.930 . S
N931 Cu920 1.985 . S
N931 C933 1.335 . S
N931 C934 1.390 . S
N932 C933 1.345 . S
N932 C935 1.336 . S
C933 N931 1.335 . S
C933 N932 1.345 . S
C933 H938 0.930 . S
C934 N931 1.390 . S
C934 C935 1.346 . S
C934 H939 0.930 . S
C935 N932 1.336 . S
C935 C934 1.346 . S
C935 H942 0.929 . S
C936 O926 1.282 . S
C936 O937 1.216 . S
O937 C936 1.216 . S
H938 C933 0.930 . S
H939 C934 0.930 . S
O940 Cu920 1.959 . S
O940 C927 1.251 . S
H941 C924 0.930 . S
H942 C935 0.929 . S
Cu943 N944 1.999 . S
Cu943 O949 1.974 . S
Cu943 N954 1.985 . S
Cu943 O963 1.959 . S
N944 Cu943 1.999 . S
N944 C946 1.263 . S
N944 C948 1.389 . S
N945 C946 1.358 . S
N945 C947 1.400 . S
C946 N944 1.263 . S
C946 N945 1.358 . S
C946 H952 0.930 . S
C947 N945 1.400 . S
C947 C948 1.351 . S
C947 H964 0.930 . S
C948 N944 1.389 . S
C948 C947 1.351 . S
C948 H953 0.930 . S
O949 Cu943 1.974 . S
O949 C959 1.282 . S
C950 O951 1.261 . S
C950 O963 1.251 . S
O951 C950 1.261 . S
H952 C946 0.930 . S
H953 C948 0.930 . S
N954 Cu943 1.985 . S
N954 C956 1.335 . S
N954 C957 1.390 . S
N955 C956 1.345 . S
N955 C958 1.336 . S
C956 N954 1.335 . S
C956 N955 1.345 . S
C956 H961 0.930 . S
C957 N954 1.390 . S
C957 C958 1.346 . S
C957 H962 0.930 . S
C958 N955 1.336 . S
C958 C957 1.346 . S
C958 H965 0.929 . S
C959 O949 1.282 . S
C959 O960 1.216 . S
O960 C959 1.216 . S
H961 C956 0.930 . S
H962 C957 0.930 . S
O963 Cu943 1.959 . S
O963 C950 1.251 . S
H964 C947 0.930 . S
H965 C958 0.929 . S
Cu966 N967 1.999 . S
Cu966 O972 1.974 1_545 S
Cu966 N977 1.985 1_545 S
Cu966 O986 1.959 . S
N967 Cu966 1.999 . S
N967 C969 1.263 . S
N967 C971 1.389 . S
N968 C969 1.358 . S
N968 C970 1.400 . S
C969 N967 1.263 . S
C969 N968 1.358 . S
C969 H975 0.930 . S
C970 N968 1.400 . S
C970 C971 1.351 . S
C970 H987 0.930 . S
C971 N967 1.389 . S
C971 C970 1.351 . S
C971 H976 0.930 . S
O972 Cu966 1.974 1_565 S
O972 C982 1.282 . S
C973 O974 1.261 . S
C973 O986 1.251 . S
O974 C973 1.261 . S
H975 C969 0.930 . S
H976 C971 0.930 . S
N977 Cu966 1.985 1_565 S
N977 C979 1.335 . S
N977 C980 1.390 . S
N978 C979 1.345 . S
N978 C981 1.336 . S
C979 N977 1.335 . S
C979 N978 1.345 . S
C979 H984 0.930 . S
C980 N977 1.390 . S
C980 C981 1.346 . S
C980 H985 0.930 . S
C981 N978 1.336 . S
C981 C980 1.346 . S
C981 H988 0.929 . S
C982 O972 1.282 . S
C982 O983 1.216 . S
O983 C982 1.216 . S
H984 C979 0.930 . S
H985 C980 0.930 . S
O986 Cu966 1.959 . S
O986 C973 1.251 . S
H987 C970 0.930 . S
H988 C981 0.929 . S
Cu989 N990 1.999 . S
Cu989 O995 1.974 . S
Cu989 N1000 1.985 . S
Cu989 O1009 1.959 . S
N990 Cu989 1.999 . S
N990 C992 1.263 . S
N990 C994 1.389 . S
N991 C992 1.358 . S
N991 C993 1.400 . S
C992 N990 1.263 . S
C992 N991 1.358 . S
C992 H998 0.930 . S
C993 N991 1.400 . S
C993 C994 1.351 . S
C993 H1010 0.930 . S
C994 N990 1.389 . S
C994 C993 1.351 . S
C994 H999 0.930 . S
O995 Cu989 1.974 . S
O995 C1005 1.282 . S
C996 O997 1.261 . S
C996 O1009 1.251 . S
O997 C996 1.261 . S
H998 C992 0.930 . S
H999 C994 0.930 . S
N1000 Cu989 1.985 . S
N1000 C1002 1.335 . S
N1000 C1003 1.390 . S
N1001 C1002 1.345 . S
N1001 C1004 1.336 . S
C1002 N1000 1.335 . S
C1002 N1001 1.345 . S
C1002 H1007 0.930 . S
C1003 N1000 1.390 . S
C1003 C1004 1.346 . S
C1003 H1008 0.930 . S
C1004 N1001 1.336 . S
C1004 C1003 1.346 . S
C1004 H1011 0.929 . S
C1005 O995 1.282 . S
C1005 O1006 1.216 . S
O1006 C1005 1.216 . S
H1007 C1002 0.930 . S
H1008 C1003 0.930 . S
O1009 Cu989 1.959 . S
O1009 C996 1.251 . S
H1010 C993 0.930 . S
H1011 C1004 0.929 . S
Cu1012 N1013 1.999 . S
Cu1012 O1018 1.974 1_565 S
Cu1012 N1023 1.985 1_565 S
Cu1012 O1032 1.959 . S
N1013 Cu1012 1.999 . S
N1013 C1015 1.263 . S
N1013 C1017 1.389 . S
N1014 C1015 1.358 . S
N1014 C1016 1.400 . S
C1015 N1013 1.263 . S
C1015 N1014 1.358 . S
C1015 H1021 0.930 . S
C1016 N1014 1.400 . S
C1016 C1017 1.351 . S
C1016 H1033 0.930 . S
C1017 N1013 1.389 . S
C1017 C1016 1.351 . S
C1017 H1022 0.930 . S
O1018 Cu1012 1.974 1_545 S
O1018 C1028 1.282 . S
C1019 O1020 1.261 . S
C1019 O1032 1.251 . S
O1020 C1019 1.261 . S
H1021 C1015 0.930 . S
H1022 C1017 0.930 . S
N1023 Cu1012 1.985 1_545 S
N1023 C1025 1.335 . S
N1023 C1026 1.390 . S
N1024 C1025 1.345 . S
N1024 C1027 1.336 . S
C1025 N1023 1.335 . S
C1025 N1024 1.345 . S
C1025 H1030 0.930 . S
C1026 N1023 1.390 . S
C1026 C1027 1.346 . S
C1026 H1031 0.930 . S
C1027 N1024 1.336 . S
C1027 C1026 1.346 . S
C1027 H1034 0.929 . S
C1028 O1018 1.282 . S
C1028 O1029 1.216 . S
O1029 C1028 1.216 . S
H1030 C1025 0.930 . S
H1031 C1026 0.930 . S
O1032 Cu1012 1.959 . S
O1032 C1019 1.251 . S
H1033 C1016 0.930 . S
H1034 C1027 0.929 . S
Cu1035 N1036 1.999 . S
Cu1035 O1041 1.974 . S
Cu1035 N1046 1.985 . S
Cu1035 O1055 1.959 . S
N1036 Cu1035 1.999 . S
N1036 C1038 1.263 . S
N1036 C1040 1.389 . S
N1037 C1038 1.358 . S
N1037 C1039 1.400 . S
C1038 N1036 1.263 . S
C1038 N1037 1.358 . S
C1038 H1044 0.930 . S
C1039 N1037 1.400 . S
C1039 C1040 1.351 . S
C1039 H1056 0.930 . S
C1040 N1036 1.389 . S
C1040 C1039 1.351 . S
C1040 H1045 0.930 . S
O1041 Cu1035 1.974 . S
O1041 C1051 1.282 . S
C1042 O1043 1.261 . S
C1042 O1055 1.251 . S
O1043 C1042 1.261 . S
H1044 C1038 0.930 . S
H1045 C1040 0.930 . S
N1046 Cu1035 1.985 . S
N1046 C1048 1.335 . S
N1046 C1049 1.390 . S
N1047 C1048 1.345 . S
N1047 C1050 1.336 . S
C1048 N1046 1.335 . S
C1048 N1047 1.345 . S
C1048 H1053 0.930 . S
C1049 N1046 1.390 . S
C1049 C1050 1.346 . S
C1049 H1054 0.930 . S
C1050 N1047 1.336 . S
C1050 C1049 1.346 . S
C1050 H1057 0.929 . S
C1051 O1041 1.282 . S
C1051 O1052 1.216 . S
O1052 C1051 1.216 . S
H1053 C1048 0.930 . S
H1054 C1049 0.930 . S
O1055 Cu1035 1.959 . S
O1055 C1042 1.251 . S
H1056 C1039 0.930 . S
H1057 C1050 0.929 . S
Cu1058 N1059 1.999 . S
Cu1058 O1064 1.974 1_565 S
Cu1058 N1069 1.985 1_565 S
Cu1058 O1078 1.959 . S
N1059 Cu1058 1.999 . S
N1059 C1061 1.263 . S
N1059 C1063 1.389 . S
N1060 C1061 1.358 . S
N1060 C1062 1.400 . S
C1061 N1059 1.263 . S
C1061 N1060 1.358 . S
C1061 H1067 0.930 . S
C1062 N1060 1.400 . S
C1062 C1063 1.351 . S
C1062 H1079 0.930 . S
C1063 N1059 1.389 . S
C1063 C1062 1.351 . S
C1063 H1068 0.930 . S
O1064 Cu1058 1.974 1_545 S
O1064 C1074 1.282 . S
C1065 O1066 1.261 . S
C1065 O1078 1.251 . S
O1066 C1065 1.261 . S
H1067 C1061 0.930 . S
H1068 C1063 0.930 . S
N1069 Cu1058 1.985 1_545 S
N1069 C1071 1.335 . S
N1069 C1072 1.390 . S
N1070 C1071 1.345 . S
N1070 C1073 1.336 . S
C1071 N1069 1.335 . S
C1071 N1070 1.345 . S
C1071 H1076 0.930 . S
C1072 N1069 1.390 . S
C1072 C1073 1.346 . S
C1072 H1077 0.930 . S
C1073 N1070 1.336 . S
C1073 C1072 1.346 . S
C1073 H1080 0.929 . S
C1074 O1064 1.282 . S
C1074 O1075 1.216 . S
O1075 C1074 1.216 . S
H1076 C1071 0.930 . S
H1077 C1072 0.930 . S
O1078 Cu1058 1.959 . S
O1078 C1065 1.251 . S
H1079 C1062 0.930 . S
H1080 C1073 0.929 . S
Cu1081 N1082 1.999 . S
Cu1081 O1087 1.974 . S
Cu1081 N1092 1.985 . S
Cu1081 O1101 1.959 . S
N1082 Cu1081 1.999 . S
N1082 C1084 1.263 . S
N1082 C1086 1.389 . S
N1083 C1084 1.358 . S
N1083 C1085 1.400 . S
C1084 N1082 1.263 . S
C1084 N1083 1.358 . S
C1084 H1090 0.930 . S
C1085 N1083 1.400 . S
C1085 C1086 1.351 . S
C1085 H1102 0.930 . S
C1086 N1082 1.389 . S
C1086 C1085 1.351 . S
C1086 H1091 0.930 . S
O1087 Cu1081 1.974 . S
O1087 C1097 1.282 . S
C1088 O1089 1.261 . S
C1088 O1101 1.251 . S
O1089 C1088 1.261 . S
H1090 C1084 0.930 . S
H1091 C1086 0.930 . S
N1092 Cu1081 1.985 . S
N1092 C1094 1.335 . S
N1092 C1095 1.390 . S
N1093 C1094 1.345 . S
N1093 C1096 1.336 . S
C1094 N1092 1.335 . S
C1094 N1093 1.345 . S
C1094 H1099 0.930 . S
C1095 N1092 1.390 . S
C1095 C1096 1.346 . S
C1095 H1100 0.930 . S
C1096 N1093 1.336 . S
C1096 C1095 1.346 . S
C1096 H1103 0.929 . S
C1097 O1087 1.282 . S
C1097 O1098 1.216 . S
O1098 C1097 1.216 . S
H1099 C1094 0.930 . S
H1100 C1095 0.930 . S
O1101 Cu1081 1.959 . S
O1101 C1088 1.251 . S
H1102 C1085 0.930 . S
H1103 C1096 0.929 . S
H1104 C1112 0.950 . S
H1105 C1117 0.950 . S
H1106 C1114 0.950 . S
H1107 C1116 0.950 . S
H1108 C1118 0.950 . S
H1109 C1120 0.950 . S
H1110 C1122 0.950 . S
H1111 C1123 0.950 . S
C1112 H1104 0.950 . S
C1112 C1113 1.386 . S
C1112 C1114 1.391 . S
C1113 C1112 1.386 . S
C1113 C1117 1.393 . S
C1114 H1106 0.950 . S
C1114 C1112 1.391 . S
C1114 C1115 1.400 . S
C1115 C1114 1.400 . S
C1115 C1116 1.398 . S
C1115 C1121 1.491 . S
C1116 H1107 0.950 . S
C1116 C1115 1.398 . S
C1116 C1117 1.391 . S
C1117 H1105 0.950 . S
C1117 C1113 1.393 . S
C1117 C1116 1.391 . S
C1118 H1108 0.950 . S
C1118 C1119 1.386 . S
C1118 C1120 1.391 . S
C1119 C1118 1.386 . S
C1119 C1123 1.393 . S
C1120 H1109 0.950 . S
C1120 C1118 1.391 . S
C1120 C1121 1.400 . S
C1121 C1115 1.491 . S
C1121 C1120 1.400 . S
C1121 C1122 1.398 . S
C1122 H1110 0.950 . S
C1122 C1121 1.398 . S
C1122 C1123 1.391 . S
C1123 H1111 0.950 . S
C1123 C1119 1.393 . S
C1123 C1122 1.391 . S
H1124 C1132 0.950 . S
H1125 C1137 0.950 . S
H1126 C1134 0.950 . S
H1127 C1136 0.950 . S
H1128 C1138 0.950 . S
H1129 C1140 0.950 . S
H1130 C1142 0.950 . S
H1131 C1143 0.950 . S
C1132 H1124 0.950 . S
C1132 C1133 1.386 . S
C1132 C1134 1.391 . S
C1133 C1132 1.386 . S
C1133 C1137 1.393 . S
C1134 H1126 0.950 . S
C1134 C1132 1.391 . S
C1134 C1135 1.400 . S
C1135 C1134 1.400 . S
C1135 C1136 1.398 . S
C1135 C1141 1.491 . S
C1136 H1127 0.950 . S
C1136 C1135 1.398 . S
C1136 C1137 1.391 . S
C1137 H1125 0.950 . S
C1137 C1133 1.393 . S
C1137 C1136 1.391 . S
C1138 H1128 0.950 . S
C1138 C1139 1.386 . S
C1138 C1140 1.391 1_556 S
C1139 C1138 1.386 . S
C1139 C1143 1.393 . S
C1140 H1129 0.950 . S
C1140 C1138 1.391 1_554 S
C1140 C1141 1.400 . S
C1141 C1135 1.491 . S
C1141 C1140 1.400 . S
C1141 C1142 1.398 1_554 S
C1142 H1130 0.950 . S
C1142 C1141 1.398 1_556 S
C1142 C1143 1.391 . S
C1143 H1131 0.950 . S
C1143 C1139 1.393 . S
C1143 C1142 1.391 . S
H1144 C1152 0.950 . S
H1145 C1157 0.950 . S
H1146 C1154 0.950 . S
H1147 C1156 0.950 . S
H1148 C1158 0.950 . S
H1149 C1160 0.950 . S
H1150 C1162 0.950 . S
H1151 C1163 0.950 . S
C1152 H1144 0.950 . S
C1152 C1153 1.386 . S
C1152 C1154 1.391 . S
C1153 C1152 1.386 . S
C1153 C1157 1.393 . S
C1154 H1146 0.950 . S
C1154 C1152 1.391 . S
C1154 C1155 1.400 . S
C1155 C1154 1.400 . S
C1155 C1156 1.398 . S
C1155 C1161 1.491 . S
C1156 H1147 0.950 . S
C1156 C1155 1.398 . S
C1156 C1157 1.391 . S
C1157 H1145 0.950 . S
C1157 C1153 1.393 . S
C1157 C1156 1.391 . S
C1158 H1148 0.950 . S
C1158 C1159 1.386 . S
C1158 C1160 1.391 . S
C1159 C1158 1.386 . S
C1159 C1163 1.393 . S
C1160 H1149 0.950 . S
C1160 C1158 1.391 . S
C1160 C1161 1.400 . S
C1161 C1155 1.491 . S
C1161 C1160 1.400 . S
C1161 C1162 1.398 . S
C1162 H1150 0.950 . S
C1162 C1161 1.398 . S
C1162 C1163 1.391 . S
C1163 H1151 0.950 . S
C1163 C1159 1.393 . S
C1163 C1162 1.391 . S
H1164 C1172 0.950 . S
H1165 C1177 0.950 . S
H1166 C1174 0.950 1_554 S
H1167 C1176 0.973 . S
H1168 C1178 0.950 . S
H1169 C1180 0.950 . S
H1170 C1182 0.950 . S
H1171 C1183 0.950 . S
C1172 H1164 0.950 . S
C1172 C1173 1.386 . S
C1172 C1174 1.391 . S
C1173 C1172 1.386 . S
C1173 C1177 1.393 . S
C1174 H1166 0.950 1_556 S
C1174 C1172 1.391 . S
C1174 C1175 1.400 1_556 S
C1175 C1174 1.400 1_554 S
C1175 C1176 1.416 . S
C1175 C1181 1.491 . S
C1176 H1167 0.973 . S
C1176 C1175 1.416 . S
C1176 C1177 1.352 1_554 S
C1177 H1165 0.950 . S
C1177 C1173 1.393 . S
C1177 C1176 1.352 1_556 S
C1178 H1168 0.950 . S
C1178 C1179 1.386 . S
C1178 C1180 1.391 . S
C1179 C1178 1.386 . S
C1179 C1183 1.393 . S
C1180 H1169 0.950 . S
C1180 C1178 1.391 . S
C1180 C1181 1.400 . S
C1181 C1175 1.491 . S
C1181 C1180 1.400 . S
C1181 C1182 1.398 . S
C1182 H1170 0.950 . S
C1182 C1181 1.398 . S
C1182 C1183 1.391 . S
C1183 H1171 0.950 . S
C1183 C1179 1.393 . S
C1183 C1182 1.391 . S
H1184 C1192 0.950 . S
H1185 C1197 0.950 . S
H1186 C1194 0.950 . S
H1187 C1196 0.950 . S
H1188 C1198 0.950 . S
H1189 C1200 0.950 . S
H1190 C1202 0.950 . S
H1191 C1203 0.950 . S
C1192 H1184 0.950 . S
C1192 C1193 1.386 . S
C1192 C1194 1.391 . S
C1193 C1192 1.386 . S
C1193 C1197 1.393 . S
C1194 H1186 0.950 . S
C1194 C1192 1.391 . S
C1194 C1195 1.400 . S
C1195 C1194 1.400 . S
C1195 C1196 1.398 . S
C1195 C1201 1.491 . S
C1196 H1187 0.950 . S
C1196 C1195 1.398 . S
C1196 C1197 1.391 . S
C1197 H1185 0.950 . S
C1197 C1193 1.393 . S
C1197 C1196 1.391 . S
C1198 H1188 0.950 . S
C1198 C1199 1.386 . S
C1198 C1200 1.391 . S
C1199 C1198 1.386 . S
C1199 C1203 1.393 . S
C1200 H1189 0.950 . S
C1200 C1198 1.391 . S
C1200 C1201 1.400 . S
C1201 C1195 1.491 . S
C1201 C1200 1.400 . S
C1201 C1202 1.398 . S
C1202 H1190 0.950 . S
C1202 C1201 1.398 . S
C1202 C1203 1.391 . S
C1203 H1191 0.950 . S
C1203 C1199 1.393 . S
C1203 C1202 1.391 . S
H1204 C1212 0.950 . S
H1205 C1217 0.950 . S
H1206 C1214 0.950 . S
H1207 C1216 0.950 . S
H1208 C1218 0.950 . S
H1209 C1220 0.950 . S
H1210 C1222 0.950 . S
H1211 C1223 0.950 . S
C1212 H1204 0.950 . S
C1212 C1213 1.386 . S
C1212 C1214 1.391 1_554 S
C1213 C1212 1.386 . S
C1213 C1217 1.393 . S
C1214 H1206 0.950 . S
C1214 C1212 1.391 1_556 S
C1214 C1215 1.400 . S
C1215 C1214 1.400 . S
C1215 C1216 1.398 1_556 S
C1215 C1221 1.491 . S
C1216 H1207 0.950 . S
C1216 C1215 1.398 1_554 S
C1216 C1217 1.391 . S
C1217 H1205 0.950 . S
C1217 C1213 1.393 . S
C1217 C1216 1.391 . S
C1218 H1208 0.950 . S
C1218 C1219 1.386 . S
C1218 C1220 1.391 . S
C1219 C1218 1.386 . S
C1219 C1223 1.393 . S
C1220 H1209 0.950 . S
C1220 C1218 1.391 . S
C1220 C1221 1.400 . S
C1221 C1215 1.491 . S
C1221 C1220 1.400 . S
C1221 C1222 1.398 . S
C1222 H1210 0.950 . S
C1222 C1221 1.398 . S
C1222 C1223 1.391 . S
C1223 H1211 0.950 . S
C1223 C1219 1.393 . S
C1223 C1222 1.391 . S
H1224 C1232 0.950 . S
H1225 C1237 0.950 . S
H1226 C1234 0.950 . S
H1227 C1236 0.950 . S
H1228 C1238 0.950 . S
H1229 C1240 0.950 . S
H1230 C1242 0.950 . S
H1231 C1243 0.950 . S
C1232 H1224 0.950 . S
C1232 C1233 1.386 . S
C1232 C1234 1.391 . S
C1233 C1232 1.386 . S
C1233 C1237 1.393 . S
C1234 H1226 0.950 . S
C1234 C1232 1.391 . S
C1234 C1235 1.400 . S
C1235 C1234 1.400 . S
C1235 C1236 1.398 . S
C1235 C1241 1.491 . S
C1236 H1227 0.950 . S
C1236 C1235 1.398 . S
C1236 C1237 1.391 . S
C1237 H1225 0.950 . S
C1237 C1233 1.393 . S
C1237 C1236 1.391 . S
C1238 H1228 0.950 . S
C1238 C1239 1.386 . S
C1238 C1240 1.391 . S
C1239 C1238 1.386 . S
C1239 C1243 1.393 . S
C1240 H1229 0.950 . S
C1240 C1238 1.391 . S
C1240 C1241 1.400 . S
C1241 C1235 1.491 . S
C1241 C1240 1.400 . S
C1241 C1242 1.398 . S
C1242 H1230 0.950 . S
C1242 C1241 1.398 . S
C1242 C1243 1.391 . S
C1243 H1231 0.950 . S
C1243 C1239 1.393 . S
C1243 C1242 1.391 . S
H1244 C1252 0.950 . S
H1245 C1257 0.950 . S
H1246 C1254 0.950 . S
H1247 C1256 0.950 . S
H1248 C1258 0.950 . S
H1249 C1260 0.950 . S
H1250 C1262 0.950 . S
H1251 C1263 0.950 . S
C1252 H1244 0.950 . S
C1252 C1253 1.386 . S
C1252 C1254 1.391 . S
C1253 C1252 1.386 . S
C1253 C1257 1.393 . S
C1254 H1246 0.950 . S
C1254 C1252 1.391 . S
C1254 C1255 1.400 . S
C1255 C1254 1.400 . S
C1255 C1256 1.398 . S
C1255 C1261 1.491 . S
C1256 H1247 0.950 . S
C1256 C1255 1.398 . S
C1256 C1257 1.391 . S
C1257 H1245 0.950 . S
C1257 C1253 1.393 . S
C1257 C1256 1.391 . S
C1258 H1248 0.950 . S
C1258 C1259 1.386 . S
C1258 C1260 1.391 . S
C1259 C1258 1.386 . S
C1259 C1263 1.393 . S
C1260 H1249 0.950 . S
C1260 C1258 1.391 . S
C1260 C1261 1.400 1_554 S
C1261 C1255 1.491 . S
C1261 C1260 1.400 1_556 S
C1261 C1262 1.398 . S
C1262 H1250 0.950 . S
C1262 C1261 1.398 . S
C1262 C1263 1.391 1_556 S
C1263 H1251 0.950 . S
C1263 C1259 1.393 . S
C1263 C1262 1.391 1_554 S
H1264 C1272 0.950 . S
H1265 C1277 0.950 . S
H1266 C1274 0.950 . S
H1267 C1276 0.950 . S
H1268 C1278 0.950 . S
H1269 C1280 0.950 . S
H1270 C1282 0.950 . S
H1271 C1283 0.950 . S
C1272 H1264 0.950 . S
C1272 C1273 1.386 . S
C1272 C1274 1.391 . S
C1273 C1272 1.386 . S
C1273 C1277 1.393 . S
C1274 H1266 0.950 . S
C1274 C1272 1.391 . S
C1274 C1275 1.400 . S
C1275 C1274 1.400 . S
C1275 C1276 1.398 . S
C1275 C1281 1.491 . S
C1276 H1267 0.950 . S
C1276 C1275 1.398 . S
C1276 C1277 1.391 . S
C1277 H1265 0.950 . S
C1277 C1273 1.393 . S
C1277 C1276 1.391 . S
C1278 H1268 0.950 . S
C1278 C1279 1.386 . S
C1278 C1280 1.391 . S
C1279 C1278 1.386 . S
C1279 C1283 1.393 . S
C1280 H1269 0.950 . S
C1280 C1278 1.391 . S
C1280 C1281 1.400 . S
C1281 C1275 1.491 . S
C1281 C1280 1.400 . S
C1281 C1282 1.398 . S
C1282 H1270 0.950 . S
C1282 C1281 1.398 . S
C1282 C1283 1.391 . S
C1283 H1271 0.950 . S
C1283 C1279 1.393 . S
C1283 C1282 1.391 . S
H1284 C1292 0.950 . S
H1285 C1297 0.950 . S
H1286 C1294 0.950 . S
H1287 C1296 0.950 . S
H1288 C1298 0.950 . S
H1289 C1300 0.950 . S
H1290 C1302 0.950 . S
H1291 C1303 0.950 . S
C1292 H1284 0.950 . S
C1292 C1293 1.386 . S
C1292 C1294 1.391 . S
C1293 C1292 1.386 . S
C1293 C1297 1.393 . S
C1294 H1286 0.950 . S
C1294 C1292 1.391 . S
C1294 C1295 1.400 . S
C1295 C1294 1.400 . S
C1295 C1296 1.398 . S
C1295 C1301 1.491 . S
C1296 H1287 0.950 . S
C1296 C1295 1.398 . S
C1296 C1297 1.391 . S
C1297 H1285 0.950 . S
C1297 C1293 1.393 . S
C1297 C1296 1.391 . S
C1298 H1288 0.950 . S
C1298 C1299 1.386 . S
C1298 C1300 1.391 . S
C1299 C1298 1.386 . S
C1299 C1303 1.393 . S
C1300 H1289 0.950 . S
C1300 C1298 1.391 . S
C1300 C1301 1.400 . S
C1301 C1295 1.491 . S
C1301 C1300 1.400 . S
C1301 C1302 1.398 . S
C1302 H1290 0.950 . S
C1302 C1301 1.398 . S
C1302 C1303 1.391 . S
C1303 H1291 0.950 . S
C1303 C1299 1.393 . S
C1303 C1302 1.391 . S
H1304 C1312 0.950 . S
H1305 C1317 0.950 . S
H1306 C1314 0.950 . S
H1307 C1316 0.950 . S
H1308 C1318 0.950 . S
H1309 C1320 0.950 . S
H1310 C1322 0.950 . S
H1311 C1323 0.950 . S
C1312 H1304 0.950 . S
C1312 C1313 1.386 . S
C1312 C1314 1.391 . S
C1313 C1312 1.386 . S
C1313 C1317 1.393 . S
C1314 H1306 0.950 . S
C1314 C1312 1.391 . S
C1314 C1315 1.400 . S
C1315 C1314 1.400 . S
C1315 C1316 1.398 . S
C1315 C1321 1.491 . S
C1316 H1307 0.950 . S
C1316 C1315 1.398 . S
C1316 C1317 1.391 . S
C1317 H1305 0.950 . S
C1317 C1313 1.393 . S
C1317 C1316 1.391 . S
C1318 H1308 0.950 . S
C1318 C1319 1.386 . S
C1318 C1320 1.391 . S
C1319 C1318 1.386 . S
C1319 C1323 1.393 . S
C1320 H1309 0.950 . S
C1320 C1318 1.391 . S
C1320 C1321 1.400 . S
C1321 C1315 1.491 . S
C1321 C1320 1.400 . S
C1321 C1322 1.398 . S
C1322 H1310 0.950 . S
C1322 C1321 1.398 . S
C1322 C1323 1.391 . S
C1323 H1311 0.950 . S
C1323 C1319 1.393 . S
C1323 C1322 1.391 . S
H1324 C1332 0.950 . S
H1325 C1337 0.950 . S
H1326 C1334 0.950 . S
H1327 C1336 0.950 . S
H1328 C1338 0.950 . S
H1329 C1340 0.934 1_565 S
H1330 C1342 0.950 . S
H1331 C1343 0.950 . S
C1332 H1324 0.950 . S
C1332 C1333 1.386 . S
C1332 C1334 1.391 . S
C1333 C1332 1.386 . S
C1333 C1337 1.393 . S
C1334 H1326 0.950 . S
C1334 C1332 1.391 . S
C1334 C1335 1.400 . S
C1335 C1334 1.400 . S
C1335 C1336 1.398 . S
C1335 C1341 1.491 . S
C1336 H1327 0.950 . S
C1336 C1335 1.398 . S
C1336 C1337 1.391 . S
C1337 H1325 0.950 . S
C1337 C1333 1.393 . S
C1337 C1336 1.391 . S
C1338 H1328 0.950 . S
C1338 C1339 1.386 . S
C1338 C1340 1.391 . S
C1339 C1338 1.386 . S
C1339 C1343 1.393 . S
C1340 H1329 0.934 1_545 S
C1340 C1338 1.391 . S
C1340 C1341 1.400 1_545 S
C1341 C1335 1.491 . S
C1341 C1340 1.400 1_565 S
C1341 C1342 1.398 . S
C1342 H1330 0.950 . S
C1342 C1341 1.398 . S
C1342 C1343 1.391 1_565 S
C1343 H1331 0.950 . S
C1343 C1339 1.393 . S
C1343 C1342 1.391 1_545 S
H1344 C1352 0.950 . S
H1345 C1357 0.950 . S
H1346 C1354 0.950 . S
H1347 C1356 0.950 . S
H1348 C1358 0.950 . S
H1349 C1360 0.950 . S
H1350 C1362 0.950 . S
H1351 C1363 0.950 . S
C1352 H1344 0.950 . S
C1352 C1353 1.386 . S
C1352 C1354 1.391 . S
C1353 C1352 1.386 . S
C1353 C1357 1.393 . S
C1354 H1346 0.950 . S
C1354 C1352 1.391 . S
C1354 C1355 1.400 . S
C1355 C1354 1.400 . S
C1355 C1356 1.398 . S
C1355 C1361 1.491 . S
C1356 H1347 0.950 . S
C1356 C1355 1.398 . S
C1356 C1357 1.391 . S
C1357 H1345 0.950 . S
C1357 C1353 1.393 . S
C1357 C1356 1.391 . S
C1358 H1348 0.950 . S
C1358 C1359 1.386 . S
C1358 C1360 1.391 . S
C1359 C1358 1.386 . S
C1359 C1363 1.393 . S
C1360 H1349 0.950 . S
C1360 C1358 1.391 . S
C1360 C1361 1.400 . S
C1361 C1355 1.491 . S
C1361 C1360 1.400 . S
C1361 C1362 1.398 . S
C1362 H1350 0.950 . S
C1362 C1361 1.398 . S
C1362 C1363 1.391 . S
C1363 H1351 0.950 . S
C1363 C1359 1.393 . S
C1363 C1362 1.391 . S
H1364 C1372 0.950 . S
H1365 C1377 0.950 . S
H1366 C1374 0.950 . S
H1367 C1376 0.950 . S
H1368 C1378 0.950 . S
H1369 C1380 0.950 . S
H1370 C1382 0.950 . S
H1371 C1383 0.950 . S
C1372 H1364 0.950 . S
C1372 C1373 1.386 . S
C1372 C1374 1.391 . S
C1373 C1372 1.386 . S
C1373 C1377 1.393 . S
C1374 H1366 0.950 . S
C1374 C1372 1.391 . S
C1374 C1375 1.400 . S
C1375 C1374 1.400 . S
C1375 C1376 1.398 . S
C1375 C1381 1.491 . S
C1376 H1367 0.950 . S
C1376 C1375 1.398 . S
C1376 C1377 1.391 . S
C1377 H1365 0.950 . S
C1377 C1373 1.393 . S
C1377 C1376 1.391 . S
C1378 H1368 0.950 . S
C1378 C1379 1.386 . S
C1378 C1380 1.391 . S
C1379 C1378 1.386 . S
C1379 C1383 1.393 . S
C1380 H1369 0.950 . S
C1380 C1378 1.391 . S
C1380 C1381 1.400 . S
C1381 C1375 1.491 . S
C1381 C1380 1.400 . S
C1381 C1382 1.398 . S
C1382 H1370 0.950 . S
C1382 C1381 1.398 . S
C1382 C1383 1.391 . S
C1383 H1371 0.950 . S
C1383 C1379 1.393 . S
C1383 C1382 1.391 . S
H1384 C1392 0.950 . S
H1385 C1397 0.950 . S
H1386 C1394 0.950 . S
H1387 C1396 0.950 . S
H1388 C1398 0.950 . S
H1389 C1400 0.950 . S
H1390 C1402 0.950 . S
H1391 C1403 0.950 . S
C1392 H1384 0.950 . S
C1392 C1393 1.386 . S
C1392 C1394 1.391 . S
C1393 C1392 1.386 . S
C1393 C1397 1.393 . S
C1394 H1386 0.950 . S
C1394 C1392 1.391 . S
C1394 C1395 1.400 . S
C1395 C1394 1.400 . S
C1395 C1396 1.398 . S
C1395 C1401 1.491 . S
C1396 H1387 0.950 . S
C1396 C1395 1.398 . S
C1396 C1397 1.391 . S
C1397 H1385 0.950 . S
C1397 C1393 1.393 . S
C1397 C1396 1.391 . S
C1398 H1388 0.950 . S
C1398 C1399 1.386 . S
C1398 C1400 1.391 . S
C1399 C1398 1.386 . S
C1399 C1403 1.393 . S
C1400 H1389 0.950 . S
C1400 C1398 1.391 . S
C1400 C1401 1.400 . S
C1401 C1395 1.491 . S
C1401 C1400 1.400 . S
C1401 C1402 1.398 . S
C1402 H1390 0.950 . S
C1402 C1401 1.398 . S
C1402 C1403 1.391 . S
C1403 H1391 0.950 . S
C1403 C1399 1.393 . S
C1403 C1402 1.391 . S
H1404 C1412 0.950 . S
H1405 C1417 0.950 . S
H1406 C1414 0.950 . S
H1407 C1416 0.950 . S
H1408 C1418 0.950 . S
H1409 C1420 0.950 . S
H1410 C1422 0.950 . S
H1411 C1423 0.950 . S
C1412 H1404 0.950 . S
C1412 C1413 1.386 . S
C1412 C1414 1.391 . S
C1413 C1412 1.386 . S
C1413 C1417 1.393 . S
C1414 H1406 0.950 . S
C1414 C1412 1.391 . S
C1414 C1415 1.400 1_545 S
C1415 C1414 1.400 1_565 S
C1415 C1416 1.398 . S
C1415 C1421 1.491 . S
C1416 H1407 0.950 . S
C1416 C1415 1.398 . S
C1416 C1417 1.391 1_565 S
C1417 H1405 0.950 . S
C1417 C1413 1.393 . S
C1417 C1416 1.391 1_545 S
C1418 H1408 0.950 . S
C1418 C1419 1.386 . S
C1418 C1420 1.391 . S
C1419 C1418 1.386 . S
C1419 C1423 1.393 . S
C1420 H1409 0.950 . S
C1420 C1418 1.391 . S
C1420 C1421 1.400 . S
C1421 C1415 1.491 . S
C1421 C1420 1.400 . S
C1421 C1422 1.398 . S
C1422 H1410 0.950 . S
C1422 C1421 1.398 . S
C1422 C1423 1.391 . S
C1423 H1411 0.950 . S
C1423 C1419 1.393 . S
C1423 C1422 1.391 . S
H1424 C1432 0.950 . S
H1425 C1437 0.950 . S
H1426 C1434 0.950 . S
H1427 C1436 0.950 . S
H1428 C1438 0.950 . S
H1429 C1440 0.950 . S
H1430 C1442 0.950 . S
H1431 C1443 0.950 . S
C1432 H1424 0.950 . S
C1432 C1433 1.386 . S
C1432 C1434 1.391 . S
C1433 C1432 1.386 . S
C1433 C1437 1.393 . S
C1434 H1426 0.950 . S
C1434 C1432 1.391 . S
C1434 C1435 1.400 . S
C1435 C1434 1.400 . S
C1435 C1436 1.398 . S
C1435 C1441 1.491 . S
C1436 H1427 0.950 . S
C1436 C1435 1.398 . S
C1436 C1437 1.391 . S
C1437 H1425 0.950 . S
C1437 C1433 1.393 . S
C1437 C1436 1.391 . S
C1438 H1428 0.950 . S
C1438 C1439 1.386 . S
C1438 C1440 1.391 . S
C1439 C1438 1.386 . S
C1439 C1443 1.393 . S
C1440 H1429 0.950 . S
C1440 C1438 1.391 . S
C1440 C1441 1.400 . S
C1441 C1435 1.491 . S
C1441 C1440 1.400 . S
C1441 C1442 1.398 . S
C1442 H1430 0.950 . S
C1442 C1441 1.398 . S
C1442 C1443 1.391 . S
C1443 H1431 0.950 . S
C1443 C1439 1.393 . S
C1443 C1442 1.391 . S
H1444 C1452 0.950 . S
H1445 C1457 0.950 . S
H1446 C1454 0.950 . S
H1447 C1456 0.950 . S
H1448 C1458 0.950 . S
H1449 C1460 0.950 . S
H1450 C1462 0.950 . S
H1451 C1463 0.950 . S
C1452 H1444 0.950 . S
C1452 C1453 1.386 . S
C1452 C1454 1.391 . S
C1453 C1452 1.386 . S
C1453 C1457 1.393 . S
C1454 H1446 0.950 . S
C1454 C1452 1.391 . S
C1454 C1455 1.400 . S
C1455 C1454 1.400 . S
C1455 C1456 1.398 . S
C1455 C1461 1.491 . S
C1456 H1447 0.950 . S
C1456 C1455 1.398 . S
C1456 C1457 1.391 . S
C1457 H1445 0.950 . S
C1457 C1453 1.393 . S
C1457 C1456 1.391 . S
C1458 H1448 0.950 . S
C1458 C1459 1.386 . S
C1458 C1460 1.391 . S
C1459 C1458 1.386 . S
C1459 C1463 1.393 . S
C1460 H1449 0.950 . S
C1460 C1458 1.391 . S
C1460 C1461 1.400 . S
C1461 C1455 1.491 . S
C1461 C1460 1.400 . S
C1461 C1462 1.398 . S
C1462 H1450 0.950 . S
C1462 C1461 1.398 . S
C1462 C1463 1.391 . S
C1463 H1451 0.950 . S
C1463 C1459 1.393 . S
C1463 C1462 1.391 . S
H1464 C1472 0.950 . S
H1465 C1477 0.950 . S
H1466 C1474 0.950 . S
H1467 C1476 0.950 . S
H1468 C1478 0.950 . S
H1469 C1480 0.950 . S
H1470 C1482 0.950 . S
H1471 C1483 0.950 . S
C1472 H1464 0.950 . S
C1472 C1473 1.386 . S
C1472 C1474 1.391 . S
C1473 C1472 1.386 . S
C1473 C1477 1.393 . S
C1474 H1466 0.950 . S
C1474 C1472 1.391 . S
C1474 C1475 1.400 1_655 S
C1475 C1474 1.400 1_455 S
C1475 C1476 1.398 . S
C1475 C1481 1.491 . S
C1476 H1467 0.950 . S
C1476 C1475 1.398 . S
C1476 C1477 1.391 1_455 S
C1477 H1465 0.950 . S
C1477 C1473 1.393 . S
C1477 C1476 1.391 1_655 S
C1478 H1468 0.950 . S
C1478 C1479 1.386 . S
C1478 C1480 1.391 . S
C1479 C1478 1.386 . S
C1479 C1483 1.393 . S
C1480 H1469 0.950 . S
C1480 C1478 1.391 . S
C1480 C1481 1.400 . S
C1481 C1475 1.491 . S
C1481 C1480 1.400 . S
C1481 C1482 1.398 . S
C1482 H1470 0.950 . S
C1482 C1481 1.398 . S
C1482 C1483 1.391 . S
C1483 H1471 0.950 . S
C1483 C1479 1.393 . S
C1483 C1482 1.391 . S
H1484 C1492 0.950 . S
H1485 C1497 0.950 . S
H1486 C1494 0.950 . S
H1487 C1496 0.950 . S
H1488 C1498 0.950 . S
H1489 C1500 0.950 . S
H1490 C1502 0.950 . S
H1491 C1503 0.950 . S
C1492 H1484 0.950 . S
C1492 C1493 1.386 . S
C1492 C1494 1.391 . S
C1493 C1492 1.386 . S
C1493 C1497 1.393 . S
C1494 H1486 0.950 . S
C1494 C1492 1.391 . S
C1494 C1495 1.400 . S
C1495 C1494 1.400 . S
C1495 C1496 1.398 . S
C1495 C1501 1.491 . S
C1496 H1487 0.950 . S
C1496 C1495 1.398 . S
C1496 C1497 1.391 . S
C1497 H1485 0.950 . S
C1497 C1493 1.393 . S
C1497 C1496 1.391 . S
C1498 H1488 0.950 . S
C1498 C1499 1.386 . S
C1498 C1500 1.391 . S
C1499 C1498 1.386 . S
C1499 C1503 1.393 . S
C1500 H1489 0.950 . S
C1500 C1498 1.391 . S
C1500 C1501 1.400 . S
C1501 C1495 1.491 . S
C1501 C1500 1.400 . S
C1501 C1502 1.398 . S
C1502 H1490 0.950 . S
C1502 C1501 1.398 . S
C1502 C1503 1.391 . S
C1503 H1491 0.950 . S
C1503 C1499 1.393 . S
C1503 C1502 1.391 . S
H1504 C1512 0.950 . S
H1505 C1517 0.950 . S
H1506 C1514 0.950 . S
H1507 C1516 0.950 . S
H1508 C1518 0.950 . S
H1509 C1520 0.950 . S
H1510 C1522 0.950 . S
H1511 C1523 0.950 . S
C1512 H1504 0.950 . S
C1512 C1513 1.386 . S
C1512 C1514 1.391 . S
C1513 C1512 1.386 . S
C1513 C1517 1.393 . S
C1514 H1506 0.950 . S
C1514 C1512 1.391 . S
C1514 C1515 1.400 . S
C1515 C1514 1.400 . S
C1515 C1516 1.398 . S
C1515 C1521 1.491 . S
C1516 H1507 0.950 . S
C1516 C1515 1.398 . S
C1516 C1517 1.391 . S
C1517 H1505 0.950 . S
C1517 C1513 1.393 . S
C1517 C1516 1.391 . S
C1518 H1508 0.950 . S
C1518 C1519 1.386 . S
C1518 C1520 1.391 . S
C1519 C1518 1.386 . S
C1519 C1523 1.393 . S
C1520 H1509 0.950 . S
C1520 C1518 1.391 . S
C1520 C1521 1.400 . S
C1521 C1515 1.491 . S
C1521 C1520 1.400 . S
C1521 C1522 1.398 . S
C1522 H1510 0.950 . S
C1522 C1521 1.398 . S
C1522 C1523 1.391 . S
C1523 H1511 0.950 . S
C1523 C1519 1.393 . S
C1523 C1522 1.391 . S
H1524 C1532 0.950 . S
H1525 C1537 0.950 . S
H1526 C1534 0.950 . S
H1527 C1536 0.950 . S
H1528 C1538 0.950 . S
H1529 C1540 0.950 . S
H1530 C1542 0.950 . S
H1531 C1543 0.950 . S
C1532 H1524 0.950 . S
C1532 C1533 1.386 . S
C1532 C1534 1.391 . S
C1533 C1532 1.386 . S
C1533 C1537 1.393 . S
C1534 H1526 0.950 . S
C1534 C1532 1.391 . S
C1534 C1535 1.400 . S
C1535 C1534 1.400 . S
C1535 C1536 1.398 . S
C1535 C1541 1.491 . S
C1536 H1527 0.950 . S
C1536 C1535 1.398 . S
C1536 C1537 1.391 . S
C1537 H1525 0.950 . S
C1537 C1533 1.393 . S
C1537 C1536 1.391 . S
C1538 H1528 0.950 . S
C1538 C1539 1.386 . S
C1538 C1540 1.391 . S
C1539 C1538 1.386 . S
C1539 C1543 1.393 . S
C1540 H1529 0.950 . S
C1540 C1538 1.391 . S
C1540 C1541 1.400 . S
C1541 C1535 1.491 . S
C1541 C1540 1.400 . S
C1541 C1542 1.398 . S
C1542 H1530 0.950 . S
C1542 C1541 1.398 . S
C1542 C1543 1.391 . S
C1543 H1531 0.950 . S
C1543 C1539 1.393 . S
C1543 C1542 1.391 . S
H1544 C1552 0.950 . S
H1545 C1557 0.950 . S
H1546 C1554 0.950 . S
H1547 C1556 0.950 . S
H1548 C1558 0.950 . S
H1549 C1560 0.950 . S
H1550 C1562 0.963 . S
H1551 C1563 0.950 . S
C1552 H1544 0.950 . S
C1552 C1553 1.386 . S
C1552 C1554 1.391 . S
C1553 C1552 1.386 . S
C1553 C1557 1.393 . S
C1554 H1546 0.950 . S
C1554 C1552 1.391 . S
C1554 C1555 1.400 . S
C1555 C1554 1.400 . S
C1555 C1556 1.398 . S
C1555 C1561 1.491 . S
C1556 H1547 0.950 . S
C1556 C1555 1.398 . S
C1556 C1557 1.391 . S
C1557 H1545 0.950 . S
C1557 C1553 1.393 . S
C1557 C1556 1.391 . S
C1558 H1548 0.950 . S
C1558 C1559 1.386 . S
C1558 C1560 1.391 1_655 S
C1559 C1558 1.386 . S
C1559 C1563 1.393 . S
C1560 H1549 0.950 . S
C1560 C1558 1.391 1_455 S
C1560 C1561 1.400 . S
C1561 C1555 1.491 . S
C1561 C1560 1.400 . S
C1561 C1562 1.398 1_455 S
C1562 H1550 0.963 . S
C1562 C1561 1.398 1_655 S
C1562 C1563 1.391 . S
C1563 H1551 0.950 . S
C1563 C1559 1.393 . S
C1563 C1562 1.391 . S
H1564 C1572 0.950 . S
H1565 C1577 0.950 . S
H1566 C1574 0.950 . S
H1567 C1576 0.950 . S
H1568 C1578 0.950 . S
H1569 C1580 0.950 . S
H1570 C1582 0.950 . S
H1571 C1583 0.950 . S
C1572 H1564 0.950 . S
C1572 C1573 1.386 . S
C1572 C1574 1.391 . S
C1573 C1572 1.386 . S
C1573 C1577 1.393 . S
C1574 H1566 0.950 . S
C1574 C1572 1.391 . S
C1574 C1575 1.400 . S
C1575 C1574 1.400 . S
C1575 C1576 1.398 . S
C1575 C1581 1.491 . S
C1576 H1567 0.950 . S
C1576 C1575 1.398 . S
C1576 C1577 1.391 . S
C1577 H1565 0.950 . S
C1577 C1573 1.393 . S
C1577 C1576 1.391 . S
C1578 H1568 0.950 . S
C1578 C1579 1.386 . S
C1578 C1580 1.391 . S
C1579 C1578 1.386 . S
C1579 C1583 1.393 . S
C1580 H1569 0.950 . S
C1580 C1578 1.391 . S
C1580 C1581 1.400 1_455 S
C1581 C1575 1.491 . S
C1581 C1580 1.400 1_655 S
C1581 C1582 1.398 . S
C1582 H1570 0.950 . S
C1582 C1581 1.398 . S
C1582 C1583 1.391 1_655 S
C1583 H1571 0.950 . S
C1583 C1579 1.393 . S
C1583 C1582 1.391 1_455 S
H1584 C1592 0.950 . S
H1585 C1597 0.950 . S
H1586 C1594 0.950 . S
H1587 C1596 0.950 . S
H1588 C1598 0.950 . S
H1589 C1600 0.950 . S
H1590 C1602 0.950 . S
H1591 C1603 0.950 . S
C1592 H1584 0.950 . S
C1592 C1593 1.386 . S
C1592 C1594 1.391 . S
C1593 C1592 1.386 . S
C1593 C1597 1.393 . S
C1594 H1586 0.950 . S
C1594 C1592 1.391 . S
C1594 C1595 1.400 . S
C1595 C1594 1.400 . S
C1595 C1596 1.398 . S
C1595 C1601 1.491 . S
C1596 H1587 0.950 . S
C1596 C1595 1.398 . S
C1596 C1597 1.391 . S
C1597 H1585 0.950 . S
C1597 C1593 1.393 . S
C1597 C1596 1.391 . S
C1598 H1588 0.950 . S
C1598 C1599 1.386 . S
C1598 C1600 1.391 . S
C1599 C1598 1.386 . S
C1599 C1603 1.393 . S
C1600 H1589 0.950 . S
C1600 C1598 1.391 . S
C1600 C1601 1.400 . S
C1601 C1595 1.491 . S
C1601 C1600 1.400 . S
C1601 C1602 1.398 . S
C1602 H1590 0.950 . S
C1602 C1601 1.398 . S
C1602 C1603 1.391 . S
C1603 H1591 0.950 . S
C1603 C1599 1.393 . S
C1603 C1602 1.391 . S
H1604 C1612 0.950 . S
H1605 C1617 0.950 . S
H1606 C1614 0.950 . S
H1607 C1616 0.950 . S
H1608 C1618 0.950 . S
H1609 C1620 0.950 . S
H1610 C1622 0.950 . S
H1611 C1623 0.950 . S
C1612 H1604 0.950 . S
C1612 C1613 1.386 . S
C1612 C1614 1.391 . S
C1613 C1612 1.386 . S
C1613 C1617 1.393 . S
C1614 H1606 0.950 . S
C1614 C1612 1.391 . S
C1614 C1615 1.400 . S
C1615 C1614 1.400 . S
C1615 C1616 1.398 . S
C1615 C1621 1.491 . S
C1616 H1607 0.950 . S
C1616 C1615 1.398 . S
C1616 C1617 1.391 . S
C1617 H1605 0.950 . S
C1617 C1613 1.393 . S
C1617 C1616 1.391 . S
C1618 H1608 0.950 . S
C1618 C1619 1.386 . S
C1618 C1620 1.391 . S
C1619 C1618 1.386 . S
C1619 C1623 1.393 . S
C1620 H1609 0.950 . S
C1620 C1618 1.391 . S
C1620 C1621 1.400 . S
C1621 C1615 1.491 . S
C1621 C1620 1.400 . S
C1621 C1622 1.398 . S
C1622 H1610 0.950 . S
C1622 C1621 1.398 . S
C1622 C1623 1.391 . S
C1623 H1611 0.950 . S
C1623 C1619 1.393 . S
C1623 C1622 1.391 . S
H1624 C1632 0.950 . S
H1625 C1637 0.950 . S
H1626 C1634 0.950 . S
H1627 C1636 0.950 . S
H1628 C1638 0.950 . S
H1629 C1640 0.950 . S
H1630 C1642 0.950 . S
H1631 C1643 0.950 . S
C1632 H1624 0.950 . S
C1632 C1633 1.386 . S
C1632 C1634 1.391 . S
C1633 C1632 1.386 . S
C1633 C1637 1.393 . S
C1634 H1626 0.950 . S
C1634 C1632 1.391 . S
C1634 C1635 1.400 . S
C1635 C1634 1.400 . S
C1635 C1636 1.398 . S
C1635 C1641 1.491 . S
C1636 H1627 0.950 . S
C1636 C1635 1.398 . S
C1636 C1637 1.391 . S
C1637 H1625 0.950 . S
C1637 C1633 1.393 . S
C1637 C1636 1.391 . S
C1638 H1628 0.950 . S
C1638 C1639 1.386 . S
C1638 C1640 1.391 . S
C1639 C1638 1.386 . S
C1639 C1643 1.393 . S
C1640 H1629 0.950 . S
C1640 C1638 1.391 . S
C1640 C1641 1.400 . S
C1641 C1635 1.491 . S
C1641 C1640 1.400 . S
C1641 C1642 1.398 . S
C1642 H1630 0.950 . S
C1642 C1641 1.398 . S
C1642 C1643 1.391 . S
C1643 H1631 0.950 . S
C1643 C1639 1.393 . S
C1643 C1642 1.391 . S
H1644 C1652 0.950 . S
H1645 C1657 0.950 . S
H1646 C1654 0.950 . S
H1647 C1656 0.950 . S
H1648 C1658 0.950 . S
H1649 C1660 0.950 . S
H1650 C1662 0.950 . S
H1651 C1663 0.950 . S
C1652 H1644 0.950 . S
C1652 C1653 1.386 . S
C1652 C1654 1.391 . S
C1653 C1652 1.386 . S
C1653 C1657 1.393 . S
C1654 H1646 0.950 . S
C1654 C1652 1.391 . S
C1654 C1655 1.400 . S
C1655 C1654 1.400 . S
C1655 C1656 1.398 . S
C1655 C1661 1.491 . S
C1656 H1647 0.950 . S
C1656 C1655 1.398 . S
C1656 C1657 1.391 . S
C1657 H1645 0.950 . S
C1657 C1653 1.393 . S
C1657 C1656 1.391 . S
C1658 H1648 0.950 . S
C1658 C1659 1.386 . S
C1658 C1660 1.391 . S
C1659 C1658 1.386 . S
C1659 C1663 1.393 . S
C1660 H1649 0.950 . S
C1660 C1658 1.391 . S
C1660 C1661 1.400 . S
C1661 C1655 1.491 . S
C1661 C1660 1.400 . S
C1661 C1662 1.398 . S
C1662 H1650 0.950 . S
C1662 C1661 1.398 . S
C1662 C1663 1.391 . S
C1663 H1651 0.950 . S
C1663 C1659 1.393 . S
C1663 C1662 1.391 . S
H1664 C1672 0.950 . S
H1665 C1677 0.950 . S
H1666 C1674 0.950 . S
H1667 C1676 0.950 . S
H1668 C1678 0.950 . S
H1669 C1680 0.950 . S
H1670 C1682 0.950 . S
H1671 C1683 0.950 . S
C1672 H1664 0.950 . S
C1672 C1673 1.386 . S
C1672 C1674 1.391 . S
C1673 C1672 1.386 . S
C1673 C1677 1.393 . S
C1674 H1666 0.950 . S
C1674 C1672 1.391 . S
C1674 C1675 1.400 . S
C1675 C1674 1.400 . S
C1675 C1676 1.398 . S
C1675 C1681 1.491 . S
C1676 H1667 0.950 . S
C1676 C1675 1.398 . S
C1676 C1677 1.391 . S
C1677 H1665 0.950 . S
C1677 C1673 1.393 . S
C1677 C1676 1.391 . S
C1678 H1668 0.950 . S
C1678 C1679 1.386 . S
C1678 C1680 1.391 . S
C1679 C1678 1.386 . S
C1679 C1683 1.393 . S
C1680 H1669 0.950 . S
C1680 C1678 1.391 . S
C1680 C1681 1.400 . S
C1681 C1675 1.491 . S
C1681 C1680 1.400 . S
C1681 C1682 1.398 . S
C1682 H1670 0.950 . S
C1682 C1681 1.398 . S
C1682 C1683 1.391 . S
C1683 H1671 0.950 . S
C1683 C1679 1.393 . S
C1683 C1682 1.391 . S
H1684 C1692 0.950 . S
H1685 C1697 0.950 . S
H1686 C1694 0.950 . S
H1687 C1696 0.950 . S
H1688 C1698 0.950 . S
H1689 C1700 0.950 . S
H1690 C1702 0.950 . S
H1691 C1703 0.950 . S
C1692 H1684 0.950 . S
C1692 C1693 1.386 . S
C1692 C1694 1.391 . S
C1693 C1692 1.386 . S
C1693 C1697 1.393 . S
C1694 H1686 0.950 . S
C1694 C1692 1.391 . S
C1694 C1695 1.400 . S
C1695 C1694 1.400 . S
C1695 C1696 1.398 . S
C1695 C1701 1.491 . S
C1696 H1687 0.950 . S
C1696 C1695 1.398 . S
C1696 C1697 1.391 . S
C1697 H1685 0.950 . S
C1697 C1693 1.393 . S
C1697 C1696 1.391 . S
C1698 H1688 0.950 . S
C1698 C1699 1.386 . S
C1698 C1700 1.391 . S
C1699 C1698 1.386 . S
C1699 C1703 1.393 . S
C1700 H1689 0.950 . S
C1700 C1698 1.391 . S
C1700 C1701 1.400 . S
C1701 C1695 1.491 . S
C1701 C1700 1.400 . S
C1701 C1702 1.398 . S
C1702 H1690 0.950 . S
C1702 C1701 1.398 . S
C1702 C1703 1.391 . S
C1703 H1691 0.950 . S
C1703 C1699 1.393 . S
C1703 C1702 1.391 . S
H1704 C1712 0.950 . S
H1705 C1717 0.950 . S
H1706 C1714 0.950 . S
H1707 C1716 0.950 . S
H1708 C1718 0.950 . S
H1709 C1720 0.950 . S
H1710 C1722 0.950 . S
H1711 C1723 0.950 . S
C1712 H1704 0.950 . S
C1712 C1713 1.386 . S
C1712 C1714 1.391 . S
C1713 C1712 1.386 . S
C1713 C1717 1.393 . S
C1714 H1706 0.950 . S
C1714 C1712 1.391 . S
C1714 C1715 1.400 . S
C1715 C1714 1.400 . S
C1715 C1716 1.398 . S
C1715 C1721 1.491 . S
C1716 H1707 0.950 . S
C1716 C1715 1.398 . S
C1716 C1717 1.391 . S
C1717 H1705 0.950 . S
C1717 C1713 1.393 . S
C1717 C1716 1.391 . S
C1718 H1708 0.950 . S
C1718 C1719 1.386 . S
C1718 C1720 1.391 . S
C1719 C1718 1.386 . S
C1719 C1723 1.393 . S
C1720 H1709 0.950 . S
C1720 C1718 1.391 . S
C1720 C1721 1.400 . S
C1721 C1715 1.491 . S
C1721 C1720 1.400 . S
C1721 C1722 1.398 . S
C1722 H1710 0.950 . S
C1722 C1721 1.398 . S
C1722 C1723 1.391 . S
C1723 H1711 0.950 . S
C1723 C1719 1.393 . S
C1723 C1722 1.391 . S
H1724 C1732 0.950 . S
H1725 C1737 0.950 . S
H1726 C1734 0.950 . S
H1727 C1736 0.950 . S
H1728 C1738 0.950 . S
H1729 C1740 0.950 . S
H1730 C1742 0.950 . S
H1731 C1743 0.950 . S
C1732 H1724 0.950 . S
C1732 C1733 1.386 . S
C1732 C1734 1.391 . S
C1733 C1732 1.386 . S
C1733 C1737 1.393 . S
C1734 H1726 0.950 . S
C1734 C1732 1.391 . S
C1734 C1735 1.400 . S
C1735 C1734 1.400 . S
C1735 C1736 1.398 . S
C1735 C1741 1.491 . S
C1736 H1727 0.950 . S
C1736 C1735 1.398 . S
C1736 C1737 1.391 . S
C1737 H1725 0.950 . S
C1737 C1733 1.393 . S
C1737 C1736 1.391 . S
C1738 H1728 0.950 . S
C1738 C1739 1.386 . S
C1738 C1740 1.391 . S
C1739 C1738 1.386 . S
C1739 C1743 1.393 . S
C1740 H1729 0.950 . S
C1740 C1738 1.391 . S
C1740 C1741 1.400 . S
C1741 C1735 1.491 . S
C1741 C1740 1.400 . S
C1741 C1742 1.398 . S
C1742 H1730 0.950 . S
C1742 C1741 1.398 . S
C1742 C1743 1.391 . S
C1743 H1731 0.950 . S
C1743 C1739 1.393 . S
C1743 C1742 1.391 . S
H1744 C1752 0.950 . S
H1745 C1757 0.950 . S
H1746 C1754 0.950 . S
H1747 C1756 0.950 . S
H1748 C1758 0.950 . S
H1749 C1760 0.950 . S
H1750 C1762 0.950 . S
H1751 C1763 0.950 . S
C1752 H1744 0.950 . S
C1752 C1753 1.386 . S
C1752 C1754 1.391 . S
C1753 C1752 1.386 . S
C1753 C1757 1.393 . S
C1754 H1746 0.950 . S
C1754 C1752 1.391 . S
C1754 C1755 1.400 . S
C1755 C1754 1.400 . S
C1755 C1756 1.398 . S
C1755 C1761 1.491 . S
C1756 H1747 0.950 . S
C1756 C1755 1.398 . S
C1756 C1757 1.391 . S
C1757 H1745 0.950 . S
C1757 C1753 1.393 . S
C1757 C1756 1.391 . S
C1758 H1748 0.950 . S
C1758 C1759 1.386 . S
C1758 C1760 1.391 . S
C1759 C1758 1.386 . S
C1759 C1763 1.393 . S
C1760 H1749 0.950 . S
C1760 C1758 1.391 . S
C1760 C1761 1.400 . S
C1761 C1755 1.491 . S
C1761 C1760 1.400 . S
C1761 C1762 1.398 . S
C1762 H1750 0.950 . S
C1762 C1761 1.398 . S
C1762 C1763 1.391 . S
C1763 H1751 0.950 . S
C1763 C1759 1.393 . S
C1763 C1762 1.391 . S
H1764 C1772 0.950 . S
H1765 C1777 0.950 . S
H1766 C1774 0.950 . S
H1767 C1776 0.950 . S
H1768 C1778 0.950 . S
H1769 C1780 0.950 . S
H1770 C1782 0.950 . S
H1771 C1783 0.950 . S
C1772 H1764 0.950 . S
C1772 C1773 1.386 . S
C1772 C1774 1.391 1_565 S
C1773 C1772 1.386 . S
C1773 C1777 1.393 . S
C1774 H1766 0.950 . S
C1774 C1772 1.391 1_545 S
C1774 C1775 1.400 . S
C1775 C1774 1.400 . S
C1775 C1776 1.398 1_545 S
C1775 C1781 1.491 . S
C1776 H1767 0.950 . S
C1776 C1775 1.398 1_565 S
C1776 C1777 1.391 . S
C1777 H1765 0.950 . S
C1777 C1773 1.393 . S
C1777 C1776 1.391 . S
C1778 H1768 0.950 . S
C1778 C1779 1.386 . S
C1778 C1780 1.391 . S
C1779 C1778 1.386 . S
C1779 C1783 1.393 . S
C1780 H1769 0.950 . S
C1780 C1778 1.391 . S
C1780 C1781 1.400 . S
C1781 C1775 1.491 . S
C1781 C1780 1.400 . S
C1781 C1782 1.398 . S
C1782 H1770 0.950 . S
C1782 C1781 1.398 . S
C1782 C1783 1.391 . S
C1783 H1771 0.950 . S
C1783 C1779 1.393 . S
C1783 C1782 1.391 . S
H1784 C1792 0.950 . S
H1785 C1797 0.950 . S
H1786 C1794 0.950 . S
H1787 C1796 0.950 . S
H1788 C1798 0.950 . S
H1789 C1800 0.950 . S
H1790 C1802 0.950 . S
H1791 C1803 0.950 . S
C1792 H1784 0.950 . S
C1792 C1793 1.386 . S
C1792 C1794 1.391 . S
C1793 C1792 1.386 . S
C1793 C1797 1.393 . S
C1794 H1786 0.950 . S
C1794 C1792 1.391 . S
C1794 C1795 1.400 . S
C1795 C1794 1.400 . S
C1795 C1796 1.398 . S
C1795 C1801 1.491 . S
C1796 H1787 0.950 . S
C1796 C1795 1.398 . S
C1796 C1797 1.391 . S
C1797 H1785 0.950 . S
C1797 C1793 1.393 . S
C1797 C1796 1.391 . S
C1798 H1788 0.950 . S
C1798 C1799 1.386 . S
C1798 C1800 1.391 . S
C1799 C1798 1.386 . S
C1799 C1803 1.393 . S
C1800 H1789 0.950 . S
C1800 C1798 1.391 . S
C1800 C1801 1.400 . S
C1801 C1795 1.491 . S
C1801 C1800 1.400 . S
C1801 C1802 1.398 . S
C1802 H1790 0.950 . S
C1802 C1801 1.398 . S
C1802 C1803 1.391 . S
C1803 H1791 0.950 . S
C1803 C1799 1.393 . S
C1803 C1802 1.391 . S
H1804 C1812 0.950 . S
H1805 C1817 0.950 . S
H1806 C1814 0.950 . S
H1807 C1816 0.950 . S
H1808 C1818 0.950 . S
H1809 C1820 0.950 . S
H1810 C1822 0.950 . S
H1811 C1823 0.950 . S
C1812 H1804 0.950 . S
C1812 C1813 1.386 . S
C1812 C1814 1.391 . S
C1813 C1812 1.386 . S
C1813 C1817 1.393 . S
C1814 H1806 0.950 . S
C1814 C1812 1.391 . S
C1814 C1815 1.400 . S
C1815 C1814 1.400 . S
C1815 C1816 1.398 . S
C1815 C1821 1.491 . S
C1816 H1807 0.950 . S
C1816 C1815 1.398 . S
C1816 C1817 1.391 . S
C1817 H1805 0.950 . S
C1817 C1813 1.393 . S
C1817 C1816 1.391 . S
C1818 H1808 0.950 . S
C1818 C1819 1.386 . S
C1818 C1820 1.391 . S
C1819 C1818 1.386 . S
C1819 C1823 1.393 . S
C1820 H1809 0.950 . S
C1820 C1818 1.391 . S
C1820 C1821 1.400 . S
C1821 C1815 1.491 . S
C1821 C1820 1.400 . S
C1821 C1822 1.398 . S
C1822 H1810 0.950 . S
C1822 C1821 1.398 . S
C1822 C1823 1.391 . S
C1823 H1811 0.950 . S
C1823 C1819 1.393 . S
C1823 C1822 1.391 . S
H1824 C1832 0.950 . S
H1825 C1837 0.950 . S
H1826 C1834 0.950 . S
H1827 C1836 0.950 . S
H1828 C1838 0.950 . S
H1829 C1840 0.950 . S
H1830 C1842 0.950 . S
H1831 C1843 0.950 . S
C1832 H1824 0.950 . S
C1832 C1833 1.386 . S
C1832 C1834 1.391 . S
C1833 C1832 1.386 . S
C1833 C1837 1.393 . S
C1834 H1826 0.950 . S
C1834 C1832 1.391 . S
C1834 C1835 1.400 . S
C1835 C1834 1.400 . S
C1835 C1836 1.398 . S
C1835 C1841 1.491 . S
C1836 H1827 0.950 . S
C1836 C1835 1.398 . S
C1836 C1837 1.391 . S
C1837 H1825 0.950 . S
C1837 C1833 1.393 . S
C1837 C1836 1.391 . S
C1838 H1828 0.950 . S
C1838 C1839 1.386 . S
C1838 C1840 1.391 . S
C1839 C1838 1.386 . S
C1839 C1843 1.393 . S
C1840 H1829 0.950 . S
C1840 C1838 1.391 . S
C1840 C1841 1.400 . S
C1841 C1835 1.491 . S
C1841 C1840 1.400 . S
C1841 C1842 1.398 . S
C1842 H1830 0.950 . S
C1842 C1841 1.398 . S
C1842 C1843 1.391 . S
C1843 H1831 0.950 . S
C1843 C1839 1.393 . S
C1843 C1842 1.391 . S
H1844 C1852 0.950 . S
H1845 C1857 0.950 . S
H1846 C1854 0.950 . S
H1847 C1856 0.950 . S
H1848 C1858 0.950 . S
H1849 C1860 0.950 . S
H1850 C1862 0.950 . S
H1851 C1863 0.950 . S
C1852 H1844 0.950 . S
C1852 C1853 1.386 . S
C1852 C1854 1.391 1_565 S
C1853 C1852 1.386 . S
C1853 C1857 1.393 . S
C1854 H1846 0.950 . S
C1854 C1852 1.391 1_545 S
C1854 C1855 1.400 . S
C1855 C1854 1.400 . S
C1855 C1856 1.398 1_545 S
C1855 C1861 1.491 . S
C1856 H1847 0.950 . S
C1856 C1855 1.398 1_565 S
C1856 C1857 1.391 . S
C1857 H1845 0.950 . S
C1857 C1853 1.393 . S
C1857 C1856 1.391 . S
C1858 H1848 0.950 . S
C1858 C1859 1.386 . S
C1858 C1860 1.391 . S
C1859 C1858 1.386 . S
C1859 C1863 1.393 . S
C1860 H1849 0.950 . S
C1860 C1858 1.391 . S
C1860 C1861 1.400 . S
C1861 C1855 1.491 . S
C1861 C1860 1.400 . S
C1861 C1862 1.398 . S
C1862 H1850 0.950 . S
C1862 C1861 1.398 . S
C1862 C1863 1.391 . S
C1863 H1851 0.950 . S
C1863 C1859 1.393 . S
C1863 C1862 1.391 . S
H1864 C1872 0.950 . S
H1865 C1877 0.950 . S
H1866 C1874 0.950 . S
H1867 C1876 0.950 . S
H1868 C1878 0.950 . S
H1869 C1880 0.950 . S
H1870 C1882 0.950 . S
H1871 C1883 0.950 . S
C1872 H1864 0.950 . S
C1872 C1873 1.386 . S
C1872 C1874 1.391 . S
C1873 C1872 1.386 . S
C1873 C1877 1.393 . S
C1874 H1866 0.950 . S
C1874 C1872 1.391 . S
C1874 C1875 1.400 . S
C1875 C1874 1.400 . S
C1875 C1876 1.398 . S
C1875 C1881 1.491 . S
C1876 H1867 0.950 . S
C1876 C1875 1.398 . S
C1876 C1877 1.391 . S
C1877 H1865 0.950 . S
C1877 C1873 1.393 . S
C1877 C1876 1.391 . S
C1878 H1868 0.950 . S
C1878 C1879 1.386 . S
C1878 C1880 1.391 . S
C1879 C1878 1.386 . S
C1879 C1883 1.393 . S
C1880 H1869 0.950 . S
C1880 C1878 1.391 . S
C1880 C1881 1.400 . S
C1881 C1875 1.491 . S
C1881 C1880 1.400 . S
C1881 C1882 1.398 . S
C1882 H1870 0.950 . S
C1882 C1881 1.398 . S
C1882 C1883 1.391 . S
C1883 H1871 0.950 . S
C1883 C1879 1.393 . S
C1883 C1882 1.391 . S
H1884 C1892 0.950 . S
H1885 C1897 0.950 . S
H1886 C1894 0.950 . S
H1887 C1896 0.950 . S
H1888 C1898 0.950 . S
H1889 C1900 0.950 . S
H1890 C1902 0.950 . S
H1891 C1903 0.950 . S
C1892 H1884 0.950 . S
C1892 C1893 1.386 . S
C1892 C1894 1.391 . S
C1893 C1892 1.386 . S
C1893 C1897 1.393 . S
C1894 H1886 0.950 . S
C1894 C1892 1.391 . S
C1894 C1895 1.400 . S
C1895 C1894 1.400 . S
C1895 C1896 1.398 . S
C1895 C1901 1.491 . S
C1896 H1887 0.950 . S
C1896 C1895 1.398 . S
C1896 C1897 1.391 . S
C1897 H1885 0.950 . S
C1897 C1893 1.393 . S
C1897 C1896 1.391 . S
C1898 H1888 0.950 . S
C1898 C1899 1.386 . S
C1898 C1900 1.391 . S
C1899 C1898 1.386 . S
C1899 C1903 1.393 . S
C1900 H1889 0.950 . S
C1900 C1898 1.391 . S
C1900 C1901 1.400 . S
C1901 C1895 1.491 . S
C1901 C1900 1.400 . S
C1901 C1902 1.398 . S
C1902 H1890 0.950 . S
C1902 C1901 1.398 . S
C1902 C1903 1.391 . S
C1903 H1891 0.950 . S
C1903 C1899 1.393 . S
C1903 C1902 1.391 . S
H1904 C1912 0.950 . S
H1905 C1917 0.950 . S
H1906 C1914 0.950 . S
H1907 C1916 0.950 . S
H1908 C1918 0.950 . S
H1909 C1920 0.950 . S
H1910 C1922 0.950 . S
H1911 C1923 0.950 . S
C1912 H1904 0.950 . S
C1912 C1913 1.386 . S
C1912 C1914 1.391 . S
C1913 C1912 1.386 . S
C1913 C1917 1.393 . S
C1914 H1906 0.950 . S
C1914 C1912 1.391 . S
C1914 C1915 1.400 . S
C1915 C1914 1.400 . S
C1915 C1916 1.398 . S
C1915 C1921 1.491 . S
C1916 H1907 0.950 . S
C1916 C1915 1.398 . S
C1916 C1917 1.391 . S
C1917 H1905 0.950 . S
C1917 C1913 1.393 . S
C1917 C1916 1.391 . S
C1918 H1908 0.950 . S
C1918 C1919 1.386 . S
C1918 C1920 1.391 . S
C1919 C1918 1.386 . S
C1919 C1923 1.393 . S
C1920 H1909 0.950 . S
C1920 C1918 1.391 . S
C1920 C1921 1.400 . S
C1921 C1915 1.491 . S
C1921 C1920 1.400 . S
C1921 C1922 1.398 . S
C1922 H1910 0.950 . S
C1922 C1921 1.398 . S
C1922 C1923 1.391 . S
C1923 H1911 0.950 . S
C1923 C1919 1.393 . S
C1923 C1922 1.391 . S
H1924 C1932 0.950 . S
H1925 C1937 0.950 . S
H1926 C1934 0.950 . S
H1927 C1936 0.950 . S
H1928 C1938 0.950 . S
H1929 C1940 0.950 . S
H1930 C1942 0.950 . S
H1931 C1943 0.950 . S
C1932 H1924 0.950 . S
C1932 C1933 1.386 . S
C1932 C1934 1.391 . S
C1933 C1932 1.386 . S
C1933 C1937 1.393 . S
C1934 H1926 0.950 . S
C1934 C1932 1.391 . S
C1934 C1935 1.400 . S
C1935 C1934 1.400 . S
C1935 C1936 1.398 . S
C1935 C1941 1.491 . S
C1936 H1927 0.950 . S
C1936 C1935 1.398 . S
C1936 C1937 1.391 . S
C1937 H1925 0.950 . S
C1937 C1933 1.393 . S
C1937 C1936 1.391 . S
C1938 H1928 0.950 . S
C1938 C1939 1.386 . S
C1938 C1940 1.391 . S
C1939 C1938 1.386 . S
C1939 C1943 1.393 . S
C1940 H1929 0.950 . S
C1940 C1938 1.391 . S
C1940 C1941 1.400 . S
C1941 C1935 1.491 . S
C1941 C1940 1.400 . S
C1941 C1942 1.398 . S
C1942 H1930 0.950 . S
C1942 C1941 1.398 . S
C1942 C1943 1.391 . S
C1943 H1931 0.950 . S
C1943 C1939 1.393 . S
C1943 C1942 1.391 . S
H1944 C1952 0.950 . S
H1945 C1957 0.950 . S
H1946 C1954 0.950 . S
H1947 C1956 0.950 . S
H1948 C1958 0.950 . S
H1949 C1960 0.950 . S
H1950 C1962 0.950 . S
H1951 C1963 0.950 . S
C1952 H1944 0.950 . S
C1952 C1953 1.386 . S
C1952 C1954 1.391 . S
C1953 C1952 1.386 . S
C1953 C1957 1.393 . S
C1954 H1946 0.950 . S
C1954 C1952 1.391 . S
C1954 C1955 1.400 . S
C1955 C1954 1.400 . S
C1955 C1956 1.398 . S
C1955 C1961 1.491 . S
C1956 H1947 0.950 . S
C1956 C1955 1.398 . S
C1956 C1957 1.391 . S
C1957 H1945 0.950 . S
C1957 C1953 1.393 . S
C1957 C1956 1.391 . S
C1958 H1948 0.950 . S
C1958 C1959 1.386 . S
C1958 C1960 1.391 . S
C1959 C1958 1.386 . S
C1959 C1963 1.393 . S
C1960 H1949 0.950 . S
C1960 C1958 1.391 . S
C1960 C1961 1.400 . S
C1961 C1955 1.491 . S
C1961 C1960 1.400 . S
C1961 C1962 1.398 . S
C1962 H1950 0.950 . S
C1962 C1961 1.398 . S
C1962 C1963 1.391 . S
C1963 H1951 0.950 . S
C1963 C1959 1.393 . S
C1963 C1962 1.391 . S
H1964 C1972 0.950 . S
H1965 C1977 0.950 . S
H1966 C1974 0.950 . S
H1967 C1976 0.950 . S
H1968 C1978 0.950 . S
H1969 C1980 0.950 . S
H1970 C1982 0.950 . S
H1971 C1983 0.950 . S
C1972 H1964 0.950 . S
C1972 C1973 1.386 . S
C1972 C1974 1.391 . S
C1973 C1972 1.386 . S
C1973 C1977 1.393 . S
C1974 H1966 0.950 . S
C1974 C1972 1.391 . S
C1974 C1975 1.400 . S
C1975 C1974 1.400 . S
C1975 C1976 1.398 . S
C1975 C1981 1.491 . S
C1976 H1967 0.950 . S
C1976 C1975 1.398 . S
C1976 C1977 1.391 . S
C1977 H1965 0.950 . S
C1977 C1973 1.393 . S
C1977 C1976 1.391 . S
C1978 H1968 0.950 . S
C1978 C1979 1.386 . S
C1978 C1980 1.391 . S
C1979 C1978 1.386 . S
C1979 C1983 1.393 . S
C1980 H1969 0.950 . S
C1980 C1978 1.391 . S
C1980 C1981 1.400 . S
C1981 C1975 1.491 . S
C1981 C1980 1.400 . S
C1981 C1982 1.398 . S
C1982 H1970 0.950 . S
C1982 C1981 1.398 . S
C1982 C1983 1.391 . S
C1983 H1971 0.950 . S
C1983 C1979 1.393 . S
C1983 C1982 1.391 . S
H1984 C1992 0.950 . S
H1985 C1997 0.950 . S
H1986 C1994 0.950 . S
H1987 C1996 0.950 . S
H1988 C1998 0.950 . S
H1989 C2000 0.950 . S
H1990 C2002 0.950 . S
H1991 C2003 0.950 . S
C1992 H1984 0.950 . S
C1992 C1993 1.386 . S
C1992 C1994 1.391 1_455 S
C1993 C1992 1.386 . S
C1993 C1997 1.393 . S
C1994 H1986 0.950 . S
C1994 C1992 1.391 1_655 S
C1994 C1995 1.400 . S
C1995 C1994 1.400 . S
C1995 C1996 1.398 1_655 S
C1995 C2001 1.491 . S
C1996 H1987 0.950 . S
C1996 C1995 1.398 1_455 S
C1996 C1997 1.391 . S
C1997 H1985 0.950 . S
C1997 C1993 1.393 . S
C1997 C1996 1.391 . S
C1998 H1988 0.950 . S
C1998 C1999 1.386 . S
C1998 C2000 1.391 . S
C1999 C1998 1.386 . S
C1999 C2003 1.393 . S
C2000 H1989 0.950 . S
C2000 C1998 1.391 . S
C2000 C2001 1.400 . S
C2001 C1995 1.491 . S
C2001 C2000 1.400 . S
C2001 C2002 1.398 . S
C2002 H1990 0.950 . S
C2002 C2001 1.398 . S
C2002 C2003 1.391 . S
C2003 H1991 0.950 . S
C2003 C1999 1.393 . S
C2003 C2002 1.391 . S
H2004 C2012 0.950 . S
H2005 C2017 0.950 . S
H2006 C2014 0.950 . S
H2007 C2016 0.950 . S
H2008 C2018 0.950 . S
H2009 C2020 0.950 . S
H2010 C2022 0.950 . S
H2011 C2023 0.950 . S
C2012 H2004 0.950 . S
C2012 C2013 1.386 . S
C2012 C2014 1.391 . S
C2013 C2012 1.386 . S
C2013 C2017 1.393 . S
C2014 H2006 0.950 . S
C2014 C2012 1.391 . S
C2014 C2015 1.400 . S
C2015 C2014 1.400 . S
C2015 C2016 1.398 . S
C2015 C2021 1.491 . S
C2016 H2007 0.950 . S
C2016 C2015 1.398 . S
C2016 C2017 1.391 . S
C2017 H2005 0.950 . S
C2017 C2013 1.393 . S
C2017 C2016 1.391 . S
C2018 H2008 0.950 . S
C2018 C2019 1.386 . S
C2018 C2020 1.391 . S
C2019 C2018 1.386 . S
C2019 C2023 1.393 . S
C2020 H2009 0.950 . S
C2020 C2018 1.391 . S
C2020 C2021 1.400 . S
C2021 C2015 1.491 . S
C2021 C2020 1.400 . S
C2021 C2022 1.398 . S
C2022 H2010 0.950 . S
C2022 C2021 1.398 . S
C2022 C2023 1.391 . S
C2023 H2011 0.950 . S
C2023 C2019 1.393 . S
C2023 C2022 1.391 . S
H2024 C2032 0.950 . S
H2025 C2037 0.950 . S
H2026 C2034 0.950 . S
H2027 C2036 0.950 . S
H2028 C2038 0.950 . S
H2029 C2040 0.950 . S
H2030 C2042 0.950 . S
H2031 C2043 0.950 . S
C2032 H2024 0.950 . S
C2032 C2033 1.386 . S
C2032 C2034 1.391 . S
C2033 C2032 1.386 . S
C2033 C2037 1.393 . S
C2034 H2026 0.950 . S
C2034 C2032 1.391 . S
C2034 C2035 1.400 . S
C2035 C2034 1.400 . S
C2035 C2036 1.398 . S
C2035 C2041 1.491 . S
C2036 H2027 0.950 . S
C2036 C2035 1.398 . S
C2036 C2037 1.391 . S
C2037 H2025 0.950 . S
C2037 C2033 1.393 . S
C2037 C2036 1.391 . S
C2038 H2028 0.950 . S
C2038 C2039 1.386 . S
C2038 C2040 1.391 . S
C2039 C2038 1.386 . S
C2039 C2043 1.393 . S
C2040 H2029 0.950 . S
C2040 C2038 1.391 . S
C2040 C2041 1.400 . S
C2041 C2035 1.491 . S
C2041 C2040 1.400 . S
C2041 C2042 1.398 . S
C2042 H2030 0.950 . S
C2042 C2041 1.398 . S
C2042 C2043 1.391 . S
C2043 H2031 0.950 . S
C2043 C2039 1.393 . S
C2043 C2042 1.391 . S
H2044 C2052 0.950 . S
H2045 C2057 0.950 . S
H2046 C2054 0.950 . S
H2047 C2056 0.950 . S
H2048 C2058 0.950 . S
H2049 C2060 0.950 . S
H2050 C2062 0.950 . S
H2051 C2063 0.950 . S
C2052 H2044 0.950 . S
C2052 C2053 1.386 . S
C2052 C2054 1.391 . S
C2053 C2052 1.386 . S
C2053 C2057 1.393 . S
C2054 H2046 0.950 . S
C2054 C2052 1.391 . S
C2054 C2055 1.400 . S
C2055 C2054 1.400 . S
C2055 C2056 1.398 . S
C2055 C2061 1.491 . S
C2056 H2047 0.950 . S
C2056 C2055 1.398 . S
C2056 C2057 1.391 . S
C2057 H2045 0.950 . S
C2057 C2053 1.393 . S
C2057 C2056 1.391 . S
C2058 H2048 0.950 . S
C2058 C2059 1.386 . S
C2058 C2060 1.391 . S
C2059 C2058 1.386 . S
C2059 C2063 1.393 . S
C2060 H2049 0.950 . S
C2060 C2058 1.391 . S
C2060 C2061 1.400 . S
C2061 C2055 1.491 . S
C2061 C2060 1.400 . S
C2061 C2062 1.398 . S
C2062 H2050 0.950 . S
C2062 C2061 1.398 . S
C2062 C2063 1.391 . S
C2063 H2051 0.950 . S
C2063 C2059 1.393 . S
C2063 C2062 1.391 . S
H2064 C2072 0.950 . S
H2065 C2077 0.950 . S
H2066 C2074 0.950 . S
H2067 C2076 0.950 . S
H2068 C2078 0.950 . S
H2069 C2080 0.950 . S
H2070 C2082 0.950 . S
H2071 C2083 0.950 . S
C2072 H2064 0.950 . S
C2072 C2073 1.386 . S
C2072 C2074 1.391 . S
C2073 C2072 1.386 . S
C2073 C2077 1.393 . S
C2074 H2066 0.950 . S
C2074 C2072 1.391 . S
C2074 C2075 1.400 . S
C2075 C2074 1.400 . S
C2075 C2076 1.398 . S
C2075 C2081 1.491 . S
C2076 H2067 0.950 . S
C2076 C2075 1.398 . S
C2076 C2077 1.391 . S
C2077 H2065 0.950 . S
C2077 C2073 1.393 . S
C2077 C2076 1.391 . S
C2078 H2068 0.950 . S
C2078 C2079 1.386 . S
C2078 C2080 1.391 . S
C2079 C2078 1.386 . S
C2079 C2083 1.393 . S
C2080 H2069 0.950 . S
C2080 C2078 1.391 . S
C2080 C2081 1.400 . S
C2081 C2075 1.491 . S
C2081 C2080 1.400 . S
C2081 C2082 1.398 . S
C2082 H2070 0.950 . S
C2082 C2081 1.398 . S
C2082 C2083 1.391 . S
C2083 H2071 0.950 . S
C2083 C2079 1.393 . S
C2083 C2082 1.391 . S
H2084 C2092 0.950 . S
H2085 C2097 0.950 . S
H2086 C2094 0.950 . S
H2087 C2096 0.950 . S
H2088 C2098 0.950 . S
H2089 C2100 0.950 . S
H2090 C2102 0.950 . S
H2091 C2103 0.950 . S
C2092 H2084 0.950 . S
C2092 C2093 1.386 . S
C2092 C2094 1.391 . S
C2093 C2092 1.386 . S
C2093 C2097 1.393 . S
C2094 H2086 0.950 . S
C2094 C2092 1.391 . S
C2094 C2095 1.400 . S
C2095 C2094 1.400 . S
C2095 C2096 1.398 . S
C2095 C2101 1.491 . S
C2096 H2087 0.950 . S
C2096 C2095 1.398 . S
C2096 C2097 1.391 . S
C2097 H2085 0.950 . S
C2097 C2093 1.393 . S
C2097 C2096 1.391 . S
C2098 H2088 0.950 . S
C2098 C2099 1.386 . S
C2098 C2100 1.391 . S
C2099 C2098 1.386 . S
C2099 C2103 1.393 . S
C2100 H2089 0.950 . S
C2100 C2098 1.391 . S
C2100 C2101 1.400 . S
C2101 C2095 1.491 . S
C2101 C2100 1.400 . S
C2101 C2102 1.398 . S
C2102 H2090 0.950 . S
C2102 C2101 1.398 . S
C2102 C2103 1.391 . S
C2103 H2091 0.950 . S
C2103 C2099 1.393 . S
C2103 C2102 1.391 . S
H2104 C2112 0.950 . S
H2105 C2117 0.950 . S
H2106 C2114 0.950 . S
H2107 C2116 0.950 . S
H2108 C2118 0.950 . S
H2109 C2120 0.950 . S
H2110 C2122 0.950 . S
H2111 C2123 0.950 . S
C2112 H2104 0.950 . S
C2112 C2113 1.386 . S
C2112 C2114 1.391 . S
C2113 C2112 1.386 . S
C2113 C2117 1.393 . S
C2114 H2106 0.950 . S
C2114 C2112 1.391 . S
C2114 C2115 1.400 . S
C2115 C2114 1.400 . S
C2115 C2116 1.398 . S
C2115 C2121 1.491 . S
C2116 H2107 0.950 . S
C2116 C2115 1.398 . S
C2116 C2117 1.391 . S
C2117 H2105 0.950 . S
C2117 C2113 1.393 . S
C2117 C2116 1.391 . S
C2118 H2108 0.950 . S
C2118 C2119 1.386 . S
C2118 C2120 1.391 . S
C2119 C2118 1.386 . S
C2119 C2123 1.393 . S
C2120 H2109 0.950 . S
C2120 C2118 1.391 . S
C2120 C2121 1.400 . S
C2121 C2115 1.491 . S
C2121 C2120 1.400 . S
C2121 C2122 1.398 . S
C2122 H2110 0.950 . S
C2122 C2121 1.398 . S
C2122 C2123 1.391 . S
C2123 H2111 0.950 . S
C2123 C2119 1.393 . S
C2123 C2122 1.391 . S
H2124 C2132 0.950 . S
H2125 C2137 0.950 . S
H2126 C2134 0.950 . S
H2127 C2136 0.950 . S
H2128 C2138 0.950 . S
H2129 C2140 0.950 . S
H2130 C2142 0.950 . S
H2131 C2143 0.950 . S
C2132 H2124 0.950 . S
C2132 C2133 1.386 . S
C2132 C2134 1.391 . S
C2133 C2132 1.386 . S
C2133 C2137 1.393 . S
C2134 H2126 0.950 . S
C2134 C2132 1.391 . S
C2134 C2135 1.400 . S
C2135 C2134 1.400 . S
C2135 C2136 1.398 . S
C2135 C2141 1.491 . S
C2136 H2127 0.950 . S
C2136 C2135 1.398 . S
C2136 C2137 1.391 . S
C2137 H2125 0.950 . S
C2137 C2133 1.393 . S
C2137 C2136 1.391 . S
C2138 H2128 0.950 . S
C2138 C2139 1.386 . S
C2138 C2140 1.391 . S
C2139 C2138 1.386 . S
C2139 C2143 1.393 . S
C2140 H2129 0.950 . S
C2140 C2138 1.391 . S
C2140 C2141 1.400 . S
C2141 C2135 1.491 . S
C2141 C2140 1.400 . S
C2141 C2142 1.398 . S
C2142 H2130 0.950 . S
C2142 C2141 1.398 . S
C2142 C2143 1.391 . S
C2143 H2131 0.950 . S
C2143 C2139 1.393 . S
C2143 C2142 1.391 . S
H2144 C2152 0.950 . S
H2145 C2157 0.950 . S
H2146 C2154 0.950 . S
H2147 C2156 0.950 . S
H2148 C2158 0.950 . S
H2149 C2160 0.950 . S
H2150 C2162 0.950 . S
H2151 C2163 0.950 . S
C2152 H2144 0.950 . S
C2152 C2153 1.386 . S
C2152 C2154 1.391 . S
C2153 C2152 1.386 . S
C2153 C2157 1.393 . S
C2154 H2146 0.950 . S
C2154 C2152 1.391 . S
C2154 C2155 1.400 . S
C2155 C2154 1.400 . S
C2155 C2156 1.398 . S
C2155 C2161 1.491 . S
C2156 H2147 0.950 . S
C2156 C2155 1.398 . S
C2156 C2157 1.391 . S
C2157 H2145 0.950 . S
C2157 C2153 1.393 . S
C2157 C2156 1.391 . S
C2158 H2148 0.950 . S
C2158 C2159 1.386 . S
C2158 C2160 1.391 . S
C2159 C2158 1.386 . S
C2159 C2163 1.393 . S
C2160 H2149 0.950 . S
C2160 C2158 1.391 . S
C2160 C2161 1.400 . S
C2161 C2155 1.491 . S
C2161 C2160 1.400 . S
C2161 C2162 1.398 . S
C2162 H2150 0.950 . S
C2162 C2161 1.398 . S
C2162 C2163 1.391 . S
C2163 H2151 0.950 . S
C2163 C2159 1.393 . S
C2163 C2162 1.391 . S
H2164 C2172 0.950 . S
H2165 C2177 0.950 . S
H2166 C2174 0.950 . S
H2167 C2176 0.950 . S
H2168 C2178 0.950 . S
H2169 C2180 0.950 . S
H2170 C2182 0.950 . S
H2171 C2183 0.950 . S
C2172 H2164 0.950 . S
C2172 C2173 1.386 . S
C2172 C2174 1.391 . S
C2173 C2172 1.386 . S
C2173 C2177 1.393 . S
C2174 H2166 0.950 . S
C2174 C2172 1.391 . S
C2174 C2175 1.400 . S
C2175 C2174 1.400 . S
C2175 C2176 1.398 . S
C2175 C2181 1.491 . S
C2176 H2167 0.950 . S
C2176 C2175 1.398 . S
C2176 C2177 1.391 . S
C2177 H2165 0.950 . S
C2177 C2173 1.393 . S
C2177 C2176 1.391 . S
C2178 H2168 0.950 . S
C2178 C2179 1.386 . S
C2178 C2180 1.391 . S
C2179 C2178 1.386 . S
C2179 C2183 1.393 . S
C2180 H2169 0.950 . S
C2180 C2178 1.391 . S
C2180 C2181 1.400 . S
C2181 C2175 1.491 . S
C2181 C2180 1.400 . S
C2181 C2182 1.398 . S
C2182 H2170 0.950 . S
C2182 C2181 1.398 . S
C2182 C2183 1.391 . S
C2183 H2171 0.950 . S
C2183 C2179 1.393 . S
C2183 C2182 1.391 . S
H2184 C2192 0.950 . S
H2185 C2197 0.950 . S
H2186 C2194 0.950 . S
H2187 C2196 0.950 . S
H2188 C2198 0.950 . S
H2189 C2200 0.950 . S
H2190 C2202 0.950 . S
H2191 C2203 0.950 . S
C2192 H2184 0.950 . S
C2192 C2193 1.386 . S
C2192 C2194 1.391 . S
C2193 C2192 1.386 . S
C2193 C2197 1.393 . S
C2194 H2186 0.950 . S
C2194 C2192 1.391 . S
C2194 C2195 1.400 . S
C2195 C2194 1.400 . S
C2195 C2196 1.398 . S
C2195 C2201 1.491 . S
C2196 H2187 0.950 . S
C2196 C2195 1.398 . S
C2196 C2197 1.391 . S
C2197 H2185 0.950 . S
C2197 C2193 1.393 . S
C2197 C2196 1.391 . S
C2198 H2188 0.950 . S
C2198 C2199 1.386 . S
C2198 C2200 1.391 . S
C2199 C2198 1.386 . S
C2199 C2203 1.393 . S
C2200 H2189 0.950 . S
C2200 C2198 1.391 . S
C2200 C2201 1.400 . S
C2201 C2195 1.491 . S
C2201 C2200 1.400 . S
C2201 C2202 1.398 . S
C2202 H2190 0.950 . S
C2202 C2201 1.398 . S
C2202 C2203 1.391 . S
C2203 H2191 0.950 . S
C2203 C2199 1.393 . S
C2203 C2202 1.391 . S
H2204 C2212 0.950 . S
H2205 C2217 0.950 . S
H2206 C2214 0.950 . S
H2207 C2216 0.950 . S
H2208 C2218 0.950 . S
H2209 C2220 0.950 . S
H2210 C2222 0.950 . S
H2211 C2223 0.950 . S
C2212 H2204 0.950 . S
C2212 C2213 1.386 . S
C2212 C2214 1.391 . S
C2213 C2212 1.386 . S
C2213 C2217 1.393 . S
C2214 H2206 0.950 . S
C2214 C2212 1.391 . S
C2214 C2215 1.400 . S
C2215 C2214 1.400 . S
C2215 C2216 1.398 . S
C2215 C2221 1.491 . S
C2216 H2207 0.950 . S
C2216 C2215 1.398 . S
C2216 C2217 1.391 . S
C2217 H2205 0.950 . S
C2217 C2213 1.393 . S
C2217 C2216 1.391 . S
C2218 H2208 0.950 . S
C2218 C2219 1.386 . S
C2218 C2220 1.391 . S
C2219 C2218 1.386 . S
C2219 C2223 1.393 . S
C2220 H2209 0.950 . S
C2220 C2218 1.391 . S
C2220 C2221 1.400 . S
C2221 C2215 1.491 . S
C2221 C2220 1.400 . S
C2221 C2222 1.398 . S
C2222 H2210 0.950 . S
C2222 C2221 1.398 . S
C2222 C2223 1.391 . S
C2223 H2211 0.950 . S
C2223 C2219 1.393 . S
C2223 C2222 1.391 . S
H2224 C2232 0.950 . S
H2225 C2237 0.950 . S
H2226 C2234 0.950 . S
H2227 C2236 0.950 . S
H2228 C2238 0.950 . S
H2229 C2240 0.950 . S
H2230 C2242 0.950 . S
H2231 C2243 0.950 . S
C2232 H2224 0.950 . S
C2232 C2233 1.386 . S
C2232 C2234 1.391 . S
C2233 C2232 1.386 . S
C2233 C2237 1.393 . S
C2234 H2226 0.950 . S
C2234 C2232 1.391 . S
C2234 C2235 1.400 . S
C2235 C2234 1.400 . S
C2235 C2236 1.398 . S
C2235 C2241 1.491 . S
C2236 H2227 0.950 . S
C2236 C2235 1.398 . S
C2236 C2237 1.391 . S
C2237 H2225 0.950 . S
C2237 C2233 1.393 . S
C2237 C2236 1.391 . S
C2238 H2228 0.950 . S
C2238 C2239 1.386 . S
C2238 C2240 1.391 . S
C2239 C2238 1.386 . S
C2239 C2243 1.393 . S
C2240 H2229 0.950 . S
C2240 C2238 1.391 . S
C2240 C2241 1.400 . S
C2241 C2235 1.491 . S
C2241 C2240 1.400 . S
C2241 C2242 1.398 . S
C2242 H2230 0.950 . S
C2242 C2241 1.398 . S
C2242 C2243 1.391 . S
C2243 H2231 0.950 . S
C2243 C2239 1.393 . S
C2243 C2242 1.391 . S
H2244 C2252 0.950 . S
H2245 C2257 0.950 . S
H2246 C2254 0.950 . S
H2247 C2256 0.950 . S
H2248 C2258 0.950 . S
H2249 C2260 0.950 . S
H2250 C2262 0.950 . S
H2251 C2263 0.950 . S
C2252 H2244 0.950 . S
C2252 C2253 1.386 . S
C2252 C2254 1.391 . S
C2253 C2252 1.386 . S
C2253 C2257 1.393 . S
C2254 H2246 0.950 . S
C2254 C2252 1.391 . S
C2254 C2255 1.400 . S
C2255 C2254 1.400 . S
C2255 C2256 1.398 . S
C2255 C2261 1.491 . S
C2256 H2247 0.950 . S
C2256 C2255 1.398 . S
C2256 C2257 1.391 . S
C2257 H2245 0.950 . S
C2257 C2253 1.393 . S
C2257 C2256 1.391 . S
C2258 H2248 0.950 . S
C2258 C2259 1.386 . S
C2258 C2260 1.391 . S
C2259 C2258 1.386 . S
C2259 C2263 1.393 . S
C2260 H2249 0.950 . S
C2260 C2258 1.391 . S
C2260 C2261 1.400 . S
C2261 C2255 1.491 . S
C2261 C2260 1.400 . S
C2261 C2262 1.398 . S
C2262 H2250 0.950 . S
C2262 C2261 1.398 . S
C2262 C2263 1.391 . S
C2263 H2251 0.950 . S
C2263 C2259 1.393 . S
C2263 C2262 1.391 . S
H2264 C2272 0.950 . S
H2265 C2277 0.950 . S
H2266 C2274 0.950 . S
H2267 C2276 0.950 . S
H2268 C2278 0.950 . S
H2269 C2280 0.950 . S
H2270 C2282 0.950 . S
H2271 C2283 0.950 . S
C2272 H2264 0.950 . S
C2272 C2273 1.386 . S
C2272 C2274 1.391 . S
C2273 C2272 1.386 . S
C2273 C2277 1.393 . S
C2274 H2266 0.950 . S
C2274 C2272 1.391 . S
C2274 C2275 1.400 . S
C2275 C2274 1.400 . S
C2275 C2276 1.398 . S
C2275 C2281 1.491 . S
C2276 H2267 0.950 . S
C2276 C2275 1.398 . S
C2276 C2277 1.391 . S
C2277 H2265 0.950 . S
C2277 C2273 1.393 . S
C2277 C2276 1.391 . S
C2278 H2268 0.950 . S
C2278 C2279 1.386 . S
C2278 C2280 1.391 . S
C2279 C2278 1.386 . S
C2279 C2283 1.393 . S
C2280 H2269 0.950 . S
C2280 C2278 1.391 . S
C2280 C2281 1.400 . S
C2281 C2275 1.491 . S
C2281 C2280 1.400 . S
C2281 C2282 1.398 . S
C2282 H2270 0.950 . S
C2282 C2281 1.398 . S
C2282 C2283 1.391 . S
C2283 H2271 0.950 . S
C2283 C2279 1.393 . S
C2283 C2282 1.391 . S
H2284 C2292 0.950 . S
H2285 C2297 0.950 . S
H2286 C2294 0.950 . S
H2287 C2296 0.950 . S
H2288 C2298 0.950 . S
H2289 C2300 0.950 . S
H2290 C2302 0.950 . S
H2291 C2303 0.950 . S
C2292 H2284 0.950 . S
C2292 C2293 1.386 . S
C2292 C2294 1.391 . S
C2293 C2292 1.386 . S
C2293 C2297 1.393 . S
C2294 H2286 0.950 . S
C2294 C2292 1.391 . S
C2294 C2295 1.400 . S
C2295 C2294 1.400 . S
C2295 C2296 1.398 . S
C2295 C2301 1.491 . S
C2296 H2287 0.950 . S
C2296 C2295 1.398 . S
C2296 C2297 1.391 . S
C2297 H2285 0.950 . S
C2297 C2293 1.393 . S
C2297 C2296 1.391 . S
C2298 H2288 0.950 . S
C2298 C2299 1.386 . S
C2298 C2300 1.391 . S
C2299 C2298 1.386 . S
C2299 C2303 1.393 . S
C2300 H2289 0.950 . S
C2300 C2298 1.391 . S
C2300 C2301 1.400 . S
C2301 C2295 1.491 . S
C2301 C2300 1.400 . S
C2301 C2302 1.398 . S
C2302 H2290 0.950 . S
C2302 C2301 1.398 . S
C2302 C2303 1.391 . S
C2303 H2291 0.950 . S
C2303 C2299 1.393 . S
C2303 C2302 1.391 . S
H2304 C2312 0.950 . S
H2305 C2317 0.950 . S
H2306 C2314 0.950 . S
H2307 C2316 0.950 . S
H2308 C2318 0.950 . S
H2309 C2320 0.950 . S
H2310 C2322 0.950 . S
H2311 C2323 0.950 . S
C2312 H2304 0.950 . S
C2312 C2313 1.386 . S
C2312 C2314 1.391 . S
C2313 C2312 1.386 . S
C2313 C2317 1.393 . S
C2314 H2306 0.950 . S
C2314 C2312 1.391 . S
C2314 C2315 1.400 . S
C2315 C2314 1.400 . S
C2315 C2316 1.398 . S
C2315 C2321 1.491 . S
C2316 H2307 0.950 . S
C2316 C2315 1.398 . S
C2316 C2317 1.391 . S
C2317 H2305 0.950 . S
C2317 C2313 1.393 . S
C2317 C2316 1.391 . S
C2318 H2308 0.950 . S
C2318 C2319 1.386 . S
C2318 C2320 1.391 . S
C2319 C2318 1.386 . S
C2319 C2323 1.393 . S
C2320 H2309 0.950 . S
C2320 C2318 1.391 . S
C2320 C2321 1.400 . S
C2321 C2315 1.491 . S
C2321 C2320 1.400 . S
C2321 C2322 1.398 . S
C2322 H2310 0.950 . S
C2322 C2321 1.398 . S
C2322 C2323 1.391 . S
C2323 H2311 0.950 . S
C2323 C2319 1.393 . S
C2323 C2322 1.391 . S
H2324 C2332 0.950 . S
H2325 C2337 0.950 . S
H2326 C2334 0.950 . S
H2327 C2336 0.950 . S
H2328 C2338 0.950 . S
H2329 C2340 0.950 . S
H2330 C2342 0.950 . S
H2331 C2343 0.950 . S
C2332 H2324 0.950 . S
C2332 C2333 1.386 . S
C2332 C2334 1.391 . S
C2333 C2332 1.386 . S
C2333 C2337 1.393 . S
C2334 H2326 0.950 . S
C2334 C2332 1.391 . S
C2334 C2335 1.400 . S
C2335 C2334 1.400 . S
C2335 C2336 1.398 . S
C2335 C2341 1.491 . S
C2336 H2327 0.950 . S
C2336 C2335 1.398 . S
C2336 C2337 1.391 . S
C2337 H2325 0.950 . S
C2337 C2333 1.393 . S
C2337 C2336 1.391 . S
C2338 H2328 0.950 . S
C2338 C2339 1.386 . S
C2338 C2340 1.391 . S
C2339 C2338 1.386 . S
C2339 C2343 1.393 . S
C2340 H2329 0.950 . S
C2340 C2338 1.391 . S
C2340 C2341 1.400 . S
C2341 C2335 1.491 . S
C2341 C2340 1.400 . S
C2341 C2342 1.398 . S
C2342 H2330 0.950 . S
C2342 C2341 1.398 . S
C2342 C2343 1.391 . S
C2343 H2331 0.950 . S
C2343 C2339 1.393 . S
C2343 C2342 1.391 . S
H2344 C2352 0.950 . S
H2345 C2357 0.950 . S
H2346 C2354 0.950 . S
H2347 C2356 0.950 . S
H2348 C2358 0.950 . S
H2349 C2360 0.950 . S
H2350 C2362 0.950 . S
H2351 C2363 0.950 . S
C2352 H2344 0.950 . S
C2352 C2353 1.386 . S
C2352 C2354 1.391 . S
C2353 C2352 1.386 . S
C2353 C2357 1.393 . S
C2354 H2346 0.950 . S
C2354 C2352 1.391 . S
C2354 C2355 1.400 . S
C2355 C2354 1.400 . S
C2355 C2356 1.398 . S
C2355 C2361 1.491 . S
C2356 H2347 0.950 . S
C2356 C2355 1.398 . S
C2356 C2357 1.391 . S
C2357 H2345 0.950 . S
C2357 C2353 1.393 . S
C2357 C2356 1.391 . S
C2358 H2348 0.950 . S
C2358 C2359 1.386 . S
C2358 C2360 1.391 . S
C2359 C2358 1.386 . S
C2359 C2363 1.393 . S
C2360 H2349 0.950 . S
C2360 C2358 1.391 . S
C2360 C2361 1.400 . S
C2361 C2355 1.491 . S
C2361 C2360 1.400 . S
C2361 C2362 1.398 . S
C2362 H2350 0.950 . S
C2362 C2361 1.398 . S
C2362 C2363 1.391 . S
C2363 H2351 0.950 . S
C2363 C2359 1.393 . S
C2363 C2362 1.391 . S
H2364 C2372 0.950 . S
H2365 C2377 0.950 . S
H2366 C2374 0.950 . S
H2367 C2376 0.950 . S
H2368 C2378 0.950 . S
H2369 C2380 0.950 . S
H2370 C2382 0.950 . S
H2371 C2383 0.950 . S
C2372 H2364 0.950 . S
C2372 C2373 1.386 . S
C2372 C2374 1.391 . S
C2373 C2372 1.386 . S
C2373 C2377 1.393 . S
C2374 H2366 0.950 . S
C2374 C2372 1.391 . S
C2374 C2375 1.400 . S
C2375 C2374 1.400 . S
C2375 C2376 1.398 . S
C2375 C2381 1.491 . S
C2376 H2367 0.950 . S
C2376 C2375 1.398 . S
C2376 C2377 1.391 . S
C2377 H2365 0.950 . S
C2377 C2373 1.393 . S
C2377 C2376 1.391 . S
C2378 H2368 0.950 . S
C2378 C2379 1.386 . S
C2378 C2380 1.391 . S
C2379 C2378 1.386 . S
C2379 C2383 1.393 . S
C2380 H2369 0.950 . S
C2380 C2378 1.391 . S
C2380 C2381 1.400 . S
C2381 C2375 1.491 . S
C2381 C2380 1.400 . S
C2381 C2382 1.398 . S
C2382 H2370 0.950 . S
C2382 C2381 1.398 . S
C2382 C2383 1.391 . S
C2383 H2371 0.950 . S
C2383 C2379 1.393 . S
C2383 C2382 1.391 . S
H2384 C2392 0.950 . S
H2385 C2397 0.950 . S
H2386 C2394 0.950 . S
H2387 C2396 0.950 . S
H2388 C2398 0.950 . S
H2389 C2400 0.950 . S
H2390 C2402 0.950 . S
H2391 C2403 0.950 . S
C2392 H2384 0.950 . S
C2392 C2393 1.386 . S
C2392 C2394 1.391 . S
C2393 C2392 1.386 . S
C2393 C2397 1.393 . S
C2394 H2386 0.950 . S
C2394 C2392 1.391 . S
C2394 C2395 1.400 . S
C2395 C2394 1.400 . S
C2395 C2396 1.398 . S
C2395 C2401 1.491 . S
C2396 H2387 0.950 . S
C2396 C2395 1.398 . S
C2396 C2397 1.391 . S
C2397 H2385 0.950 . S
C2397 C2393 1.393 . S
C2397 C2396 1.391 . S
C2398 H2388 0.950 . S
C2398 C2399 1.386 . S
C2398 C2400 1.391 . S
C2399 C2398 1.386 . S
C2399 C2403 1.393 . S
C2400 H2389 0.950 . S
C2400 C2398 1.391 . S
C2400 C2401 1.400 . S
C2401 C2395 1.491 . S
C2401 C2400 1.400 . S
C2401 C2402 1.398 . S
C2402 H2390 0.950 . S
C2402 C2401 1.398 . S
C2402 C2403 1.391 . S
C2403 H2391 0.950 . S
C2403 C2399 1.393 . S
C2403 C2402 1.391 . S
H2404 C2412 0.950 . S
H2405 C2417 0.950 . S
H2406 C2414 0.950 . S
H2407 C2416 0.950 . S
H2408 C2418 0.950 . S
H2409 C2420 0.950 . S
H2410 C2422 0.950 . S
H2411 C2423 0.950 . S
C2412 H2404 0.950 . S
C2412 C2413 1.386 . S
C2412 C2414 1.391 . S
C2413 C2412 1.386 . S
C2413 C2417 1.393 . S
C2414 H2406 0.950 . S
C2414 C2412 1.391 . S
C2414 C2415 1.400 . S
C2415 C2414 1.400 . S
C2415 C2416 1.398 . S
C2415 C2421 1.491 . S
C2416 H2407 0.950 . S
C2416 C2415 1.398 . S
C2416 C2417 1.391 . S
C2417 H2405 0.950 . S
C2417 C2413 1.393 . S
C2417 C2416 1.391 . S
C2418 H2408 0.950 . S
C2418 C2419 1.386 . S
C2418 C2420 1.391 . S
C2419 C2418 1.386 . S
C2419 C2423 1.393 . S
C2420 H2409 0.950 . S
C2420 C2418 1.391 . S
C2420 C2421 1.400 . S
C2421 C2415 1.491 . S
C2421 C2420 1.400 . S
C2421 C2422 1.398 . S
C2422 H2410 0.950 . S
C2422 C2421 1.398 . S
C2422 C2423 1.391 . S
C2423 H2411 0.950 . S
C2423 C2419 1.393 . S
C2423 C2422 1.391 . S
H2424 C2432 0.950 . S
H2425 C2437 0.950 . S
H2426 C2434 0.950 . S
H2427 C2436 0.950 . S
H2428 C2438 0.950 . S
H2429 C2440 0.950 . S
H2430 C2442 0.950 . S
H2431 C2443 0.950 . S
C2432 H2424 0.950 . S
C2432 C2433 1.386 . S
C2432 C2434 1.391 . S
C2433 C2432 1.386 . S
C2433 C2437 1.393 . S
C2434 H2426 0.950 . S
C2434 C2432 1.391 . S
C2434 C2435 1.400 . S
C2435 C2434 1.400 . S
C2435 C2436 1.398 . S
C2435 C2441 1.491 . S
C2436 H2427 0.950 . S
C2436 C2435 1.398 . S
C2436 C2437 1.391 . S
C2437 H2425 0.950 . S
C2437 C2433 1.393 . S
C2437 C2436 1.391 . S
C2438 H2428 0.950 . S
C2438 C2439 1.386 . S
C2438 C2440 1.391 . S
C2439 C2438 1.386 . S
C2439 C2443 1.393 . S
C2440 H2429 0.950 . S
C2440 C2438 1.391 . S
C2440 C2441 1.400 . S
C2441 C2435 1.491 . S
C2441 C2440 1.400 . S
C2441 C2442 1.398 . S
C2442 H2430 0.950 . S
C2442 C2441 1.398 . S
C2442 C2443 1.391 . S
C2443 H2431 0.950 . S
C2443 C2439 1.393 . S
C2443 C2442 1.391 . S
H2444 C2452 0.950 . S
H2445 C2457 0.950 . S
H2446 C2454 0.950 . S
H2447 C2456 0.950 . S
H2448 C2458 0.950 . S
H2449 C2460 0.950 . S
H2450 C2462 0.950 . S
H2451 C2463 0.950 . S
C2452 H2444 0.950 . S
C2452 C2453 1.386 . S
C2452 C2454 1.391 . S
C2453 C2452 1.386 . S
C2453 C2457 1.393 . S
C2454 H2446 0.950 . S
C2454 C2452 1.391 . S
C2454 C2455 1.400 . S
C2455 C2454 1.400 . S
C2455 C2456 1.398 . S
C2455 C2461 1.491 . S
C2456 H2447 0.950 . S
C2456 C2455 1.398 . S
C2456 C2457 1.391 . S
C2457 H2445 0.950 . S
C2457 C2453 1.393 . S
C2457 C2456 1.391 . S
C2458 H2448 0.950 . S
C2458 C2459 1.386 . S
C2458 C2460 1.391 . S
C2459 C2458 1.386 . S
C2459 C2463 1.393 . S
C2460 H2449 0.950 . S
C2460 C2458 1.391 . S
C2460 C2461 1.400 . S
C2461 C2455 1.491 . S
C2461 C2460 1.400 . S
C2461 C2462 1.398 . S
C2462 H2450 0.950 . S
C2462 C2461 1.398 . S
C2462 C2463 1.391 . S
C2463 H2451 0.950 . S
C2463 C2459 1.393 . S
C2463 C2462 1.391 . S
H2464 C2472 0.950 . S
H2465 C2477 0.950 . S
H2466 C2474 0.950 . S
H2467 C2476 0.950 . S
H2468 C2478 0.950 . S
H2469 C2480 0.950 . S
H2470 C2482 0.950 . S
H2471 C2483 0.950 . S
C2472 H2464 0.950 . S
C2472 C2473 1.386 . S
C2472 C2474 1.391 . S
C2473 C2472 1.386 . S
C2473 C2477 1.393 . S
C2474 H2466 0.950 . S
C2474 C2472 1.391 . S
C2474 C2475 1.400 . S
C2475 C2474 1.400 . S
C2475 C2476 1.398 . S
C2475 C2481 1.491 . S
C2476 H2467 0.950 . S
C2476 C2475 1.398 . S
C2476 C2477 1.391 . S
C2477 H2465 0.950 . S
C2477 C2473 1.393 . S
C2477 C2476 1.391 . S
C2478 H2468 0.950 . S
C2478 C2479 1.386 . S
C2478 C2480 1.391 . S
C2479 C2478 1.386 . S
C2479 C2483 1.393 . S
C2480 H2469 0.950 . S
C2480 C2478 1.391 . S
C2480 C2481 1.400 . S
C2481 C2475 1.491 . S
C2481 C2480 1.400 . S
C2481 C2482 1.398 . S
C2482 H2470 0.950 . S
C2482 C2481 1.398 . S
C2482 C2483 1.391 . S
C2483 H2471 0.950 . S
C2483 C2479 1.393 . S
C2483 C2482 1.391 . S
H2484 C2492 0.950 . S
H2485 C2497 0.950 . S
H2486 C2494 0.950 . S
H2487 C2496 0.950 . S
H2488 C2498 0.950 . S
H2489 C2500 0.950 . S
H2490 C2502 0.950 . S
H2491 C2503 0.950 . S
C2492 H2484 0.950 . S
C2492 C2493 1.386 . S
C2492 C2494 1.391 . S
C2493 C2492 1.386 . S
C2493 C2497 1.393 . S
C2494 H2486 0.950 . S
C2494 C2492 1.391 . S
C2494 C2495 1.400 . S
C2495 C2494 1.400 . S
C2495 C2496 1.398 . S
C2495 C2501 1.491 . S
C2496 H2487 0.950 . S
C2496 C2495 1.398 . S
C2496 C2497 1.391 . S
C2497 H2485 0.950 . S
C2497 C2493 1.393 . S
C2497 C2496 1.391 . S
C2498 H2488 0.950 . S
C2498 C2499 1.386 . S
C2498 C2500 1.391 . S
C2499 C2498 1.386 . S
C2499 C2503 1.393 . S
C2500 H2489 0.950 . S
C2500 C2498 1.391 . S
C2500 C2501 1.400 . S
C2501 C2495 1.491 . S
C2501 C2500 1.400 . S
C2501 C2502 1.398 . S
C2502 H2490 0.950 . S
C2502 C2501 1.398 . S
C2502 C2503 1.391 . S
C2503 H2491 0.950 . S
C2503 C2499 1.393 . S
C2503 C2502 1.391 . S
H2504 C2512 0.950 . S
H2505 C2517 0.950 . S
H2506 C2514 0.950 . S
H2507 C2516 0.950 . S
H2508 C2518 0.950 . S
H2509 C2520 0.950 . S
H2510 C2522 0.950 . S
H2511 C2523 0.950 . S
C2512 H2504 0.950 . S
C2512 C2513 1.386 . S
C2512 C2514 1.391 . S
C2513 C2512 1.386 . S
C2513 C2517 1.393 . S
C2514 H2506 0.950 . S
C2514 C2512 1.391 . S
C2514 C2515 1.400 . S
C2515 C2514 1.400 . S
C2515 C2516 1.398 . S
C2515 C2521 1.491 . S
C2516 H2507 0.950 . S
C2516 C2515 1.398 . S
C2516 C2517 1.391 . S
C2517 H2505 0.950 . S
C2517 C2513 1.393 . S
C2517 C2516 1.391 . S
C2518 H2508 0.950 . S
C2518 C2519 1.386 . S
C2518 C2520 1.391 . S
C2519 C2518 1.386 . S
C2519 C2523 1.393 . S
C2520 H2509 0.950 . S
C2520 C2518 1.391 . S
C2520 C2521 1.400 . S
C2521 C2515 1.491 . S
C2521 C2520 1.400 . S
C2521 C2522 1.398 . S
C2522 H2510 0.950 . S
C2522 C2521 1.398 . S
C2522 C2523 1.391 . S
C2523 H2511 0.950 . S
C2523 C2519 1.393 . S
C2523 C2522 1.391 . S
H2524 C2532 0.950 . S
H2525 C2537 0.950 . S
H2526 C2534 0.950 . S
H2527 C2536 0.950 . S
H2528 C2538 0.950 . S
H2529 C2540 0.950 . S
H2530 C2542 0.950 . S
H2531 C2543 0.950 . S
C2532 H2524 0.950 . S
C2532 C2533 1.386 . S
C2532 C2534 1.391 . S
C2533 C2532 1.386 . S
C2533 C2537 1.393 . S
C2534 H2526 0.950 . S
C2534 C2532 1.391 . S
C2534 C2535 1.400 . S
C2535 C2534 1.400 . S
C2535 C2536 1.398 . S
C2535 C2541 1.491 . S
C2536 H2527 0.950 . S
C2536 C2535 1.398 . S
C2536 C2537 1.391 . S
C2537 H2525 0.950 . S
C2537 C2533 1.393 . S
C2537 C2536 1.391 . S
C2538 H2528 0.950 . S
C2538 C2539 1.386 . S
C2538 C2540 1.391 . S
C2539 C2538 1.386 . S
C2539 C2543 1.393 . S
C2540 H2529 0.950 . S
C2540 C2538 1.391 . S
C2540 C2541 1.400 . S
C2541 C2535 1.491 . S
C2541 C2540 1.400 . S
C2541 C2542 1.398 . S
C2542 H2530 0.950 . S
C2542 C2541 1.398 . S
C2542 C2543 1.391 . S
C2543 H2531 0.950 . S
C2543 C2539 1.393 . S
C2543 C2542 1.391 . S
H2544 C2552 0.950 . S
H2545 C2557 0.950 . S
H2546 C2554 0.950 . S
H2547 C2556 0.950 . S
H2548 C2558 0.950 . S
H2549 C2560 0.950 . S
H2550 C2562 0.950 . S
H2551 C2563 0.950 . S
C2552 H2544 0.950 . S
C2552 C2553 1.386 . S
C2552 C2554 1.391 . S
C2553 C2552 1.386 . S
C2553 C2557 1.393 . S
C2554 H2546 0.950 . S
C2554 C2552 1.391 . S
C2554 C2555 1.400 . S
C2555 C2554 1.400 . S
C2555 C2556 1.398 . S
C2555 C2561 1.491 . S
C2556 H2547 0.950 . S
C2556 C2555 1.398 . S
C2556 C2557 1.391 . S
C2557 H2545 0.950 . S
C2557 C2553 1.393 . S
C2557 C2556 1.391 . S
C2558 H2548 0.950 . S
C2558 C2559 1.386 . S
C2558 C2560 1.391 . S
C2559 C2558 1.386 . S
C2559 C2563 1.393 . S
C2560 H2549 0.950 . S
C2560 C2558 1.391 . S
C2560 C2561 1.400 . S
C2561 C2555 1.491 . S
C2561 C2560 1.400 . S
C2561 C2562 1.398 . S
C2562 H2550 0.950 . S
C2562 C2561 1.398 . S
C2562 C2563 1.391 . S
C2563 H2551 0.950 . S
C2563 C2559 1.393 . S
C2563 C2562 1.391 . S
H2564 C2572 0.950 . S
H2565 C2577 0.950 . S
H2566 C2574 0.950 . S
H2567 C2576 0.950 . S
H2568 C2578 0.950 . S
H2569 C2580 0.950 . S
H2570 C2582 0.950 . S
H2571 C2583 0.950 . S
C2572 H2564 0.950 . S
C2572 C2573 1.386 . S
C2572 C2574 1.391 . S
C2573 C2572 1.386 . S
C2573 C2577 1.393 . S
C2574 H2566 0.950 . S
C2574 C2572 1.391 . S
C2574 C2575 1.400 . S
C2575 C2574 1.400 . S
C2575 C2576 1.398 . S
C2575 C2581 1.491 . S
C2576 H2567 0.950 . S
C2576 C2575 1.398 . S
C2576 C2577 1.391 . S
C2577 H2565 0.950 . S
C2577 C2573 1.393 . S
C2577 C2576 1.391 . S
C2578 H2568 0.950 . S
C2578 C2579 1.386 . S
C2578 C2580 1.391 . S
C2579 C2578 1.386 . S
C2579 C2583 1.393 . S
C2580 H2569 0.950 . S
C2580 C2578 1.391 . S
C2580 C2581 1.400 . S
C2581 C2575 1.491 . S
C2581 C2580 1.400 . S
C2581 C2582 1.398 . S
C2582 H2570 0.950 . S
C2582 C2581 1.398 . S
C2582 C2583 1.391 . S
C2583 H2571 0.950 . S
C2583 C2579 1.393 . S
C2583 C2582 1.391 . S
H2584 C2592 0.950 . S
H2585 C2597 0.950 . S
H2586 C2594 0.950 . S
H2587 C2596 0.950 . S
H2588 C2598 0.950 . S
H2589 C2600 0.950 . S
H2590 C2602 0.950 . S
H2591 C2603 0.950 . S
C2592 H2584 0.950 . S
C2592 C2593 1.386 . S
C2592 C2594 1.391 . S
C2593 C2592 1.386 . S
C2593 C2597 1.393 . S
C2594 H2586 0.950 . S
C2594 C2592 1.391 . S
C2594 C2595 1.400 . S
C2595 C2594 1.400 . S
C2595 C2596 1.398 . S
C2595 C2601 1.491 . S
C2596 H2587 0.950 . S
C2596 C2595 1.398 . S
C2596 C2597 1.391 . S
C2597 H2585 0.950 . S
C2597 C2593 1.393 . S
C2597 C2596 1.391 . S
C2598 H2588 0.950 . S
C2598 C2599 1.386 . S
C2598 C2600 1.391 . S
C2599 C2598 1.386 . S
C2599 C2603 1.393 . S
C2600 H2589 0.950 . S
C2600 C2598 1.391 . S
C2600 C2601 1.400 . S
C2601 C2595 1.491 . S
C2601 C2600 1.400 . S
C2601 C2602 1.398 . S
C2602 H2590 0.950 . S
C2602 C2601 1.398 . S
C2602 C2603 1.391 . S
C2603 H2591 0.950 . S
C2603 C2599 1.393 . S
C2603 C2602 1.391 . S
H2604 C2612 0.950 . S
H2605 C2617 0.950 . S
H2606 C2614 0.950 . S
H2607 C2616 0.950 . S
H2608 C2618 0.950 . S
H2609 C2620 0.950 . S
H2610 C2622 0.950 . S
H2611 C2623 0.950 . S
C2612 H2604 0.950 . S
C2612 C2613 1.386 . S
C2612 C2614 1.391 . S
C2613 C2612 1.386 . S
C2613 C2617 1.393 . S
C2614 H2606 0.950 . S
C2614 C2612 1.391 . S
C2614 C2615 1.400 . S
C2615 C2614 1.400 . S
C2615 C2616 1.398 . S
C2615 C2621 1.491 . S
C2616 H2607 0.950 . S
C2616 C2615 1.398 . S
C2616 C2617 1.391 . S
C2617 H2605 0.950 . S
C2617 C2613 1.393 . S
C2617 C2616 1.391 . S
C2618 H2608 0.950 . S
C2618 C2619 1.386 . S
C2618 C2620 1.391 . S
C2619 C2618 1.386 . S
C2619 C2623 1.393 . S
C2620 H2609 0.950 . S
C2620 C2618 1.391 . S
C2620 C2621 1.400 . S
C2621 C2615 1.491 . S
C2621 C2620 1.400 . S
C2621 C2622 1.398 . S
C2622 H2610 0.950 . S
C2622 C2621 1.398 . S
C2622 C2623 1.391 . S
C2623 H2611 0.950 . S
C2623 C2619 1.393 . S
C2623 C2622 1.391 . S
H2624 C2632 0.950 . S
H2625 C2637 0.950 . S
H2626 C2634 0.950 . S
H2627 C2636 0.950 . S
H2628 C2638 0.950 . S
H2629 C2640 0.950 . S
H2630 C2642 0.950 . S
H2631 C2643 0.950 . S
C2632 H2624 0.950 . S
C2632 C2633 1.386 . S
C2632 C2634 1.391 . S
C2633 C2632 1.386 . S
C2633 C2637 1.393 . S
C2634 H2626 0.950 . S
C2634 C2632 1.391 . S
C2634 C2635 1.400 . S
C2635 C2634 1.400 . S
C2635 C2636 1.398 . S
C2635 C2641 1.491 . S
C2636 H2627 0.950 . S
C2636 C2635 1.398 . S
C2636 C2637 1.391 . S
C2637 H2625 0.950 . S
C2637 C2633 1.393 . S
C2637 C2636 1.391 . S
C2638 H2628 0.950 . S
C2638 C2639 1.386 . S
C2638 C2640 1.391 . S
C2639 C2638 1.386 . S
C2639 C2643 1.393 . S
C2640 H2629 0.950 . S
C2640 C2638 1.391 . S
C2640 C2641 1.400 . S
C2641 C2635 1.491 . S
C2641 C2640 1.400 . S
C2641 C2642 1.398 . S
C2642 H2630 0.950 . S
C2642 C2641 1.398 . S
C2642 C2643 1.391 . S
C2643 H2631 0.950 . S
C2643 C2639 1.393 . S
C2643 C2642 1.391 . S
H2644 C2652 0.950 . S
H2645 C2657 0.950 . S
H2646 C2654 0.950 . S
H2647 C2656 0.950 . S
H2648 C2658 0.950 . S
H2649 C2660 0.950 . S
H2650 C2662 0.950 . S
H2651 C2663 0.950 . S
C2652 H2644 0.950 . S
C2652 C2653 1.386 . S
C2652 C2654 1.391 . S
C2653 C2652 1.386 . S
C2653 C2657 1.393 . S
C2654 H2646 0.950 . S
C2654 C2652 1.391 . S
C2654 C2655 1.400 . S
C2655 C2654 1.400 . S
C2655 C2656 1.398 . S
C2655 C2661 1.491 . S
C2656 H2647 0.950 . S
C2656 C2655 1.398 . S
C2656 C2657 1.391 . S
C2657 H2645 0.950 . S
C2657 C2653 1.393 . S
C2657 C2656 1.391 . S
C2658 H2648 0.950 . S
C2658 C2659 1.386 . S
C2658 C2660 1.391 . S
C2659 C2658 1.386 . S
C2659 C2663 1.393 . S
C2660 H2649 0.950 . S
C2660 C2658 1.391 . S
C2660 C2661 1.400 . S
C2661 C2655 1.491 . S
C2661 C2660 1.400 . S
C2661 C2662 1.398 . S
C2662 H2650 0.950 . S
C2662 C2661 1.398 . S
C2662 C2663 1.391 . S
C2663 H2651 0.950 . S
C2663 C2659 1.393 . S
C2663 C2662 1.391 . S
H2664 C2672 0.950 . S
H2665 C2677 0.950 . S
H2666 C2674 0.950 . S
H2667 C2676 0.950 . S
H2668 C2678 0.950 . S
H2669 C2680 0.950 . S
H2670 C2682 0.950 . S
H2671 C2683 0.950 . S
C2672 H2664 0.950 . S
C2672 C2673 1.386 . S
C2672 C2674 1.391 . S
C2673 C2672 1.386 . S
C2673 C2677 1.393 . S
C2674 H2666 0.950 . S
C2674 C2672 1.391 . S
C2674 C2675 1.400 . S
C2675 C2674 1.400 . S
C2675 C2676 1.398 . S
C2675 C2681 1.491 . S
C2676 H2667 0.950 . S
C2676 C2675 1.398 . S
C2676 C2677 1.391 . S
C2677 H2665 0.950 . S
C2677 C2673 1.393 . S
C2677 C2676 1.391 . S
C2678 H2668 0.950 . S
C2678 C2679 1.386 . S
C2678 C2680 1.391 . S
C2679 C2678 1.386 . S
C2679 C2683 1.393 . S
C2680 H2669 0.950 . S
C2680 C2678 1.391 . S
C2680 C2681 1.400 . S
C2681 C2675 1.491 . S
C2681 C2680 1.400 . S
C2681 C2682 1.398 . S
C2682 H2670 0.950 . S
C2682 C2681 1.398 . S
C2682 C2683 1.391 . S
C2683 H2671 0.950 . S
C2683 C2679 1.393 . S
C2683 C2682 1.391 . S
H2684 C2692 0.950 . S
H2685 C2697 0.950 . S
H2686 C2694 0.950 . S
H2687 C2696 0.950 . S
H2688 C2698 0.950 . S
H2689 C2700 0.950 . S
H2690 C2702 0.950 . S
H2691 C2703 0.950 . S
C2692 H2684 0.950 . S
C2692 C2693 1.386 . S
C2692 C2694 1.391 . S
C2693 C2692 1.386 . S
C2693 C2697 1.393 . S
C2694 H2686 0.950 . S
C2694 C2692 1.391 . S
C2694 C2695 1.400 . S
C2695 C2694 1.400 . S
C2695 C2696 1.398 . S
C2695 C2701 1.491 . S
C2696 H2687 0.950 . S
C2696 C2695 1.398 . S
C2696 C2697 1.391 . S
C2697 H2685 0.950 . S
C2697 C2693 1.393 . S
C2697 C2696 1.391 . S
C2698 H2688 0.950 . S
C2698 C2699 1.386 . S
C2698 C2700 1.391 . S
C2699 C2698 1.386 . S
C2699 C2703 1.393 . S
C2700 H2689 0.950 . S
C2700 C2698 1.391 . S
C2700 C2701 1.400 . S
C2701 C2695 1.491 . S
C2701 C2700 1.400 . S
C2701 C2702 1.398 . S
C2702 H2690 0.950 . S
C2702 C2701 1.398 . S
C2702 C2703 1.391 . S
C2703 H2691 0.950 . S
C2703 C2699 1.393 . S
C2703 C2702 1.391 . S
H2704 C2712 0.950 . S
H2705 C2717 0.950 . S
H2706 C2714 0.950 . S
H2707 C2716 0.950 . S
H2708 C2718 0.950 . S
H2709 C2720 0.950 . S
H2710 C2722 0.950 . S
H2711 C2723 0.950 . S
C2712 H2704 0.950 . S
C2712 C2713 1.386 . S
C2712 C2714 1.391 . S
C2713 C2712 1.386 . S
C2713 C2717 1.393 . S
C2714 H2706 0.950 . S
C2714 C2712 1.391 . S
C2714 C2715 1.400 . S
C2715 C2714 1.400 . S
C2715 C2716 1.398 . S
C2715 C2721 1.491 . S
C2716 H2707 0.950 . S
C2716 C2715 1.398 . S
C2716 C2717 1.391 . S
C2717 H2705 0.950 . S
C2717 C2713 1.393 . S
C2717 C2716 1.391 . S
C2718 H2708 0.950 . S
C2718 C2719 1.386 . S
C2718 C2720 1.391 . S
C2719 C2718 1.386 . S
C2719 C2723 1.393 . S
C2720 H2709 0.950 . S
C2720 C2718 1.391 . S
C2720 C2721 1.400 . S
C2721 C2715 1.491 . S
C2721 C2720 1.400 . S
C2721 C2722 1.398 . S
C2722 H2710 0.950 . S
C2722 C2721 1.398 . S
C2722 C2723 1.391 . S
C2723 H2711 0.950 . S
C2723 C2719 1.393 . S
C2723 C2722 1.391 . S
H2724 C2732 0.950 . S
H2725 C2737 0.950 . S
H2726 C2734 0.950 . S
H2727 C2736 0.950 . S
H2728 C2738 0.950 . S
H2729 C2740 0.950 . S
H2730 C2742 0.950 . S
H2731 C2743 0.950 . S
C2732 H2724 0.950 . S
C2732 C2733 1.386 . S
C2732 C2734 1.391 . S
C2733 C2732 1.386 . S
C2733 C2737 1.393 . S
C2734 H2726 0.950 . S
C2734 C2732 1.391 . S
C2734 C2735 1.400 . S
C2735 C2734 1.400 . S
C2735 C2736 1.398 . S
C2735 C2741 1.491 . S
C2736 H2727 0.950 . S
C2736 C2735 1.398 . S
C2736 C2737 1.391 . S
C2737 H2725 0.950 . S
C2737 C2733 1.393 . S
C2737 C2736 1.391 . S
C2738 H2728 0.950 . S
C2738 C2739 1.386 . S
C2738 C2740 1.391 . S
C2739 C2738 1.386 . S
C2739 C2743 1.393 . S
C2740 H2729 0.950 . S
C2740 C2738 1.391 . S
C2740 C2741 1.400 . S
C2741 C2735 1.491 . S
C2741 C2740 1.400 . S
C2741 C2742 1.398 . S
C2742 H2730 0.950 . S
C2742 C2741 1.398 . S
C2742 C2743 1.391 . S
C2743 H2731 0.950 . S
C2743 C2739 1.393 . S
C2743 C2742 1.391 . S
H2744 C2752 0.950 . S
H2745 C2757 0.950 . S
H2746 C2754 0.950 . S
H2747 C2756 0.950 . S
H2748 C2758 0.950 . S
H2749 C2760 0.950 . S
H2750 C2762 0.950 . S
H2751 C2763 0.950 . S
C2752 H2744 0.950 . S
C2752 C2753 1.386 . S
C2752 C2754 1.391 . S
C2753 C2752 1.386 . S
C2753 C2757 1.393 . S
C2754 H2746 0.950 . S
C2754 C2752 1.391 . S
C2754 C2755 1.400 . S
C2755 C2754 1.400 . S
C2755 C2756 1.398 . S
C2755 C2761 1.491 . S
C2756 H2747 0.950 . S
C2756 C2755 1.398 . S
C2756 C2757 1.391 . S
C2757 H2745 0.950 . S
C2757 C2753 1.393 . S
C2757 C2756 1.391 . S
C2758 H2748 0.950 . S
C2758 C2759 1.386 . S
C2758 C2760 1.391 . S
C2759 C2758 1.386 . S
C2759 C2763 1.393 . S
C2760 H2749 0.950 . S
C2760 C2758 1.391 . S
C2760 C2761 1.400 . S
C2761 C2755 1.491 . S
C2761 C2760 1.400 . S
C2761 C2762 1.398 . S
C2762 H2750 0.950 . S
C2762 C2761 1.398 . S
C2762 C2763 1.391 . S
C2763 H2751 0.950 . S
C2763 C2759 1.393 . S
C2763 C2762 1.391 . S
H2764 C2772 0.950 . S
H2765 C2777 0.950 . S
H2766 C2774 0.950 . S
H2767 C2776 0.950 . S
H2768 C2778 0.950 . S
H2769 C2780 0.950 . S
H2770 C2782 0.950 . S
H2771 C2783 0.950 . S
C2772 H2764 0.950 . S
C2772 C2773 1.386 . S
C2772 C2774 1.391 . S
C2773 C2772 1.386 . S
C2773 C2777 1.393 . S
C2774 H2766 0.950 . S
C2774 C2772 1.391 . S
C2774 C2775 1.400 . S
C2775 C2774 1.400 . S
C2775 C2776 1.398 . S
C2775 C2781 1.491 . S
C2776 H2767 0.950 . S
C2776 C2775 1.398 . S
C2776 C2777 1.391 . S
C2777 H2765 0.950 . S
C2777 C2773 1.393 . S
C2777 C2776 1.391 . S
C2778 H2768 0.950 . S
C2778 C2779 1.386 . S
C2778 C2780 1.391 . S
C2779 C2778 1.386 . S
C2779 C2783 1.393 . S
C2780 H2769 0.950 . S
C2780 C2778 1.391 . S
C2780 C2781 1.400 . S
C2781 C2775 1.491 . S
C2781 C2780 1.400 . S
C2781 C2782 1.398 . S
C2782 H2770 0.950 . S
C2782 C2781 1.398 . S
C2782 C2783 1.391 . S
C2783 H2771 0.950 . S
C2783 C2779 1.393 . S
C2783 C2782 1.391 . S
H2784 C2792 0.950 . S
H2785 C2797 0.950 . S
H2786 C2794 0.950 . S
H2787 C2796 0.950 . S
H2788 C2798 0.950 . S
H2789 C2800 0.950 . S
H2790 C2802 0.950 . S
H2791 C2803 0.950 . S
C2792 H2784 0.950 . S
C2792 C2793 1.386 . S
C2792 C2794 1.391 . S
C2793 C2792 1.386 . S
C2793 C2797 1.393 . S
C2794 H2786 0.950 . S
C2794 C2792 1.391 . S
C2794 C2795 1.400 . S
C2795 C2794 1.400 . S
C2795 C2796 1.398 . S
C2795 C2801 1.491 . S
C2796 H2787 0.950 . S
C2796 C2795 1.398 . S
C2796 C2797 1.391 . S
C2797 H2785 0.950 . S
C2797 C2793 1.393 . S
C2797 C2796 1.391 . S
C2798 H2788 0.950 . S
C2798 C2799 1.386 . S
C2798 C2800 1.391 . S
C2799 C2798 1.386 . S
C2799 C2803 1.393 . S
C2800 H2789 0.950 . S
C2800 C2798 1.391 . S
C2800 C2801 1.400 . S
C2801 C2795 1.491 . S
C2801 C2800 1.400 . S
C2801 C2802 1.398 . S
C2802 H2790 0.950 . S
C2802 C2801 1.398 . S
C2802 C2803 1.391 . S
C2803 H2791 0.950 . S
C2803 C2799 1.393 . S
C2803 C2802 1.391 . S
H2804 C2812 0.950 . S
H2805 C2817 0.950 . S
H2806 C2814 0.950 . S
H2807 C2816 0.950 . S
H2808 C2818 0.950 . S
H2809 C2820 0.950 . S
H2810 C2822 0.950 . S
H2811 C2823 0.950 . S
C2812 H2804 0.950 . S
C2812 C2813 1.386 . S
C2812 C2814 1.391 . S
C2813 C2812 1.386 . S
C2813 C2817 1.393 . S
C2814 H2806 0.950 . S
C2814 C2812 1.391 . S
C2814 C2815 1.400 . S
C2815 C2814 1.400 . S
C2815 C2816 1.398 . S
C2815 C2821 1.491 . S
C2816 H2807 0.950 . S
C2816 C2815 1.398 . S
C2816 C2817 1.391 . S
C2817 H2805 0.950 . S
C2817 C2813 1.393 . S
C2817 C2816 1.391 . S
C2818 H2808 0.950 . S
C2818 C2819 1.386 . S
C2818 C2820 1.391 . S
C2819 C2818 1.386 . S
C2819 C2823 1.393 . S
C2820 H2809 0.950 . S
C2820 C2818 1.391 . S
C2820 C2821 1.400 . S
C2821 C2815 1.491 . S
C2821 C2820 1.400 . S
C2821 C2822 1.398 . S
C2822 H2810 0.950 . S
C2822 C2821 1.398 . S
C2822 C2823 1.391 . S
C2823 H2811 0.950 . S
C2823 C2819 1.393 . S
C2823 C2822 1.391 . S
H2824 C2832 0.950 . S
H2825 C2837 0.950 . S
H2826 C2834 0.950 . S
H2827 C2836 0.950 . S
H2828 C2838 0.950 . S
H2829 C2840 0.950 . S
H2830 C2842 0.950 . S
H2831 C2843 0.950 . S
C2832 H2824 0.950 . S
C2832 C2833 1.386 . S
C2832 C2834 1.391 . S
C2833 C2832 1.386 . S
C2833 C2837 1.393 . S
C2834 H2826 0.950 . S
C2834 C2832 1.391 . S
C2834 C2835 1.400 . S
C2835 C2834 1.400 . S
C2835 C2836 1.398 . S
C2835 C2841 1.491 . S
C2836 H2827 0.950 . S
C2836 C2835 1.398 . S
C2836 C2837 1.391 . S
C2837 H2825 0.950 . S
C2837 C2833 1.393 . S
C2837 C2836 1.391 . S
C2838 H2828 0.950 . S
C2838 C2839 1.386 . S
C2838 C2840 1.391 . S
C2839 C2838 1.386 . S
C2839 C2843 1.393 . S
C2840 H2829 0.950 . S
C2840 C2838 1.391 . S
C2840 C2841 1.400 . S
C2841 C2835 1.491 . S
C2841 C2840 1.400 . S
C2841 C2842 1.398 . S
C2842 H2830 0.950 . S
C2842 C2841 1.398 . S
C2842 C2843 1.391 . S
C2843 H2831 0.950 . S
C2843 C2839 1.393 . S
C2843 C2842 1.391 . S
H2844 C2852 0.950 . S
H2845 C2857 0.950 . S
H2846 C2854 0.950 . S
H2847 C2856 0.950 . S
H2848 C2858 0.950 . S
H2849 C2860 0.950 . S
H2850 C2862 0.950 . S
H2851 C2863 0.950 . S
C2852 H2844 0.950 . S
C2852 C2853 1.386 . S
C2852 C2854 1.391 . S
C2853 C2852 1.386 . S
C2853 C2857 1.393 . S
C2854 H2846 0.950 . S
C2854 C2852 1.391 . S
C2854 C2855 1.400 . S
C2855 C2854 1.400 . S
C2855 C2856 1.398 . S
C2855 C2861 1.491 . S
C2856 H2847 0.950 . S
C2856 C2855 1.398 . S
C2856 C2857 1.391 . S
C2857 H2845 0.950 . S
C2857 C2853 1.393 . S
C2857 C2856 1.391 . S
C2858 H2848 0.950 . S
C2858 C2859 1.386 . S
C2858 C2860 1.391 . S
C2859 C2858 1.386 . S
C2859 C2863 1.393 . S
C2860 H2849 0.950 . S
C2860 C2858 1.391 . S
C2860 C2861 1.400 . S
C2861 C2855 1.491 . S
C2861 C2860 1.400 . S
C2861 C2862 1.398 . S
C2862 H2850 0.950 . S
C2862 C2861 1.398 . S
C2862 C2863 1.391 . S
C2863 H2851 0.950 . S
C2863 C2859 1.393 . S
C2863 C2862 1.391 . S
H2864 C2872 0.950 . S
H2865 C2877 0.950 . S
H2866 C2874 0.950 . S
H2867 C2876 0.950 . S
H2868 C2878 0.950 . S
H2869 C2880 0.950 . S
H2870 C2882 0.950 . S
H2871 C2883 0.950 . S
C2872 H2864 0.950 . S
C2872 C2873 1.386 . S
C2872 C2874 1.391 . S
C2873 C2872 1.386 . S
C2873 C2877 1.393 . S
C2874 H2866 0.950 . S
C2874 C2872 1.391 . S
C2874 C2875 1.400 . S
C2875 C2874 1.400 . S
C2875 C2876 1.398 . S
C2875 C2881 1.491 . S
C2876 H2867 0.950 . S
C2876 C2875 1.398 . S
C2876 C2877 1.391 . S
C2877 H2865 0.950 . S
C2877 C2873 1.393 . S
C2877 C2876 1.391 . S
C2878 H2868 0.950 . S
C2878 C2879 1.386 . S
C2878 C2880 1.391 . S
C2879 C2878 1.386 . S
C2879 C2883 1.393 . S
C2880 H2869 0.950 . S
C2880 C2878 1.391 . S
C2880 C2881 1.400 . S
C2881 C2875 1.491 . S
C2881 C2880 1.400 . S
C2881 C2882 1.398 . S
C2882 H2870 0.950 . S
C2882 C2881 1.398 . S
C2882 C2883 1.391 . S
C2883 H2871 0.950 . S
C2883 C2879 1.393 . S
C2883 C2882 1.391 . S
H2884 C2892 0.950 . S
H2885 C2897 0.950 . S
H2886 C2894 0.950 . S
H2887 C2896 0.950 . S
H2888 C2898 0.950 . S
H2889 C2900 0.950 . S
H2890 C2902 0.950 . S
H2891 C2903 0.950 . S
C2892 H2884 0.950 . S
C2892 C2893 1.386 . S
C2892 C2894 1.391 . S
C2893 C2892 1.386 . S
C2893 C2897 1.393 . S
C2894 H2886 0.950 . S
C2894 C2892 1.391 . S
C2894 C2895 1.400 . S
C2895 C2894 1.400 . S
C2895 C2896 1.398 . S
C2895 C2901 1.491 . S
C2896 H2887 0.950 . S
C2896 C2895 1.398 . S
C2896 C2897 1.391 . S
C2897 H2885 0.950 . S
C2897 C2893 1.393 . S
C2897 C2896 1.391 . S
C2898 H2888 0.950 . S
C2898 C2899 1.386 . S
C2898 C2900 1.391 . S
C2899 C2898 1.386 . S
C2899 C2903 1.393 . S
C2900 H2889 0.950 . S
C2900 C2898 1.391 . S
C2900 C2901 1.400 . S
C2901 C2895 1.491 . S
C2901 C2900 1.400 . S
C2901 C2902 1.398 . S
C2902 H2890 0.950 . S
C2902 C2901 1.398 . S
C2902 C2903 1.391 . S
C2903 H2891 0.950 . S
C2903 C2899 1.393 . S
C2903 C2902 1.391 . S
H2904 C2912 0.950 . S
H2905 C2917 0.950 . S
H2906 C2914 0.950 . S
H2907 C2916 0.950 . S
H2908 C2918 0.950 . S
H2909 C2920 0.950 . S
H2910 C2922 0.950 . S
H2911 C2923 0.950 . S
C2912 H2904 0.950 . S
C2912 C2913 1.386 . S
C2912 C2914 1.391 . S
C2913 C2912 1.386 . S
C2913 C2917 1.393 . S
C2914 H2906 0.950 . S
C2914 C2912 1.391 . S
C2914 C2915 1.400 . S
C2915 C2914 1.400 . S
C2915 C2916 1.398 . S
C2915 C2921 1.491 . S
C2916 H2907 0.950 . S
C2916 C2915 1.398 . S
C2916 C2917 1.391 . S
C2917 H2905 0.950 . S
C2917 C2913 1.393 . S
C2917 C2916 1.391 . S
C2918 H2908 0.950 . S
C2918 C2919 1.386 . S
C2918 C2920 1.391 . S
C2919 C2918 1.386 . S
C2919 C2923 1.393 . S
C2920 H2909 0.950 . S
C2920 C2918 1.391 . S
C2920 C2921 1.400 . S
C2921 C2915 1.491 . S
C2921 C2920 1.400 . S
C2921 C2922 1.398 . S
C2922 H2910 0.950 . S
C2922 C2921 1.398 . S
C2922 C2923 1.391 . S
C2923 H2911 0.950 . S
C2923 C2919 1.393 . S
C2923 C2922 1.391 . S
H2924 C2932 0.950 . S
H2925 C2937 0.950 . S
H2926 C2934 0.950 . S
H2927 C2936 0.950 . S
H2928 C2938 0.950 . S
H2929 C2940 0.950 . S
H2930 C2942 0.950 . S
H2931 C2943 0.950 . S
C2932 H2924 0.950 . S
C2932 C2933 1.386 . S
C2932 C2934 1.391 . S
C2933 C2932 1.386 . S
C2933 C2937 1.393 . S
C2934 H2926 0.950 . S
C2934 C2932 1.391 . S
C2934 C2935 1.400 . S
C2935 C2934 1.400 . S
C2935 C2936 1.398 . S
C2935 C2941 1.491 . S
C2936 H2927 0.950 . S
C2936 C2935 1.398 . S
C2936 C2937 1.391 . S
C2937 H2925 0.950 . S
C2937 C2933 1.393 . S
C2937 C2936 1.391 . S
C2938 H2928 0.950 . S
C2938 C2939 1.386 . S
C2938 C2940 1.391 . S
C2939 C2938 1.386 . S
C2939 C2943 1.393 . S
C2940 H2929 0.950 . S
C2940 C2938 1.391 . S
C2940 C2941 1.400 . S
C2941 C2935 1.491 . S
C2941 C2940 1.400 . S
C2941 C2942 1.398 . S
C2942 H2930 0.950 . S
C2942 C2941 1.398 . S
C2942 C2943 1.391 . S
C2943 H2931 0.950 . S
C2943 C2939 1.393 . S
C2943 C2942 1.391 . S
H2944 C2952 0.950 . S
H2945 C2957 0.950 . S
H2946 C2954 0.950 . S
H2947 C2956 0.950 . S
H2948 C2958 0.950 . S
H2949 C2960 0.950 . S
H2950 C2962 0.950 . S
H2951 C2963 0.950 . S
C2952 H2944 0.950 . S
C2952 C2953 1.386 . S
C2952 C2954 1.391 . S
C2953 C2952 1.386 . S
C2953 C2957 1.393 . S
C2954 H2946 0.950 . S
C2954 C2952 1.391 . S
C2954 C2955 1.400 . S
C2955 C2954 1.400 . S
C2955 C2956 1.398 . S
C2955 C2961 1.491 . S
C2956 H2947 0.950 . S
C2956 C2955 1.398 . S
C2956 C2957 1.391 . S
C2957 H2945 0.950 . S
C2957 C2953 1.393 . S
C2957 C2956 1.391 . S
C2958 H2948 0.950 . S
C2958 C2959 1.386 . S
C2958 C2960 1.391 . S
C2959 C2958 1.386 . S
C2959 C2963 1.393 . S
C2960 H2949 0.950 . S
C2960 C2958 1.391 . S
C2960 C2961 1.400 . S
C2961 C2955 1.491 . S
C2961 C2960 1.400 . S
C2961 C2962 1.398 . S
C2962 H2950 0.950 . S
C2962 C2961 1.398 . S
C2962 C2963 1.391 . S
C2963 H2951 0.950 . S
C2963 C2959 1.393 . S
C2963 C2962 1.391 . S
H2964 C2972 0.950 . S
H2965 C2977 0.950 . S
H2966 C2974 0.950 . S
H2967 C2976 0.950 . S
H2968 C2978 0.950 . S
H2969 C2980 0.950 . S
H2970 C2982 0.950 . S
H2971 C2983 0.950 . S
C2972 H2964 0.950 . S
C2972 C2973 1.386 . S
C2972 C2974 1.391 . S
C2973 C2972 1.386 . S
C2973 C2977 1.393 . S
C2974 H2966 0.950 . S
C2974 C2972 1.391 . S
C2974 C2975 1.400 . S
C2975 C2974 1.400 . S
C2975 C2976 1.398 . S
C2975 C2981 1.491 . S
C2976 H2967 0.950 . S
C2976 C2975 1.398 . S
C2976 C2977 1.391 . S
C2977 H2965 0.950 . S
C2977 C2973 1.393 . S
C2977 C2976 1.391 . S
C2978 H2968 0.950 . S
C2978 C2979 1.386 . S
C2978 C2980 1.391 . S
C2979 C2978 1.386 . S
C2979 C2983 1.393 . S
C2980 H2969 0.950 . S
C2980 C2978 1.391 . S
C2980 C2981 1.400 . S
C2981 C2975 1.491 . S
C2981 C2980 1.400 . S
C2981 C2982 1.398 . S
C2982 H2970 0.950 . S
C2982 C2981 1.398 . S
C2982 C2983 1.391 . S
C2983 H2971 0.950 . S
C2983 C2979 1.393 . S
C2983 C2982 1.391 . S
H2984 C2992 0.950 . S
H2985 C2997 0.950 . S
H2986 C2994 0.950 . S
H2987 C2996 0.950 . S
H2988 C2998 0.950 . S
H2989 C3000 0.950 . S
H2990 C3002 0.950 . S
H2991 C3003 0.950 . S
C2992 H2984 0.950 . S
C2992 C2993 1.386 . S
C2992 C2994 1.391 . S
C2993 C2992 1.386 . S
C2993 C2997 1.393 . S
C2994 H2986 0.950 . S
C2994 C2992 1.391 . S
C2994 C2995 1.400 . S
C2995 C2994 1.400 . S
C2995 C2996 1.398 . S
C2995 C3001 1.491 . S
C2996 H2987 0.950 . S
C2996 C2995 1.398 . S
C2996 C2997 1.391 . S
C2997 H2985 0.950 . S
C2997 C2993 1.393 . S
C2997 C2996 1.391 . S
C2998 H2988 0.950 . S
C2998 C2999 1.386 . S
C2998 C3000 1.391 . S
C2999 C2998 1.386 . S
C2999 C3003 1.393 . S
C3000 H2989 0.950 . S
C3000 C2998 1.391 . S
C3000 C3001 1.400 . S
C3001 C2995 1.491 . S
C3001 C3000 1.400 . S
C3001 C3002 1.398 . S
C3002 H2990 0.950 . S
C3002 C3001 1.398 . S
C3002 C3003 1.391 . S
C3003 H2991 0.950 . S
C3003 C2999 1.393 . S
C3003 C3002 1.391 . S
H3004 C3012 0.950 . S
H3005 C3017 0.950 . S
H3006 C3014 0.950 . S
H3007 C3016 0.950 . S
H3008 C3018 0.950 . S
H3009 C3020 0.950 . S
H3010 C3022 0.950 . S
H3011 C3023 0.950 . S
C3012 H3004 0.950 . S
C3012 C3013 1.386 . S
C3012 C3014 1.391 . S
C3013 C3012 1.386 . S
C3013 C3017 1.393 . S
C3014 H3006 0.950 . S
C3014 C3012 1.391 . S
C3014 C3015 1.400 . S
C3015 C3014 1.400 . S
C3015 C3016 1.398 . S
C3015 C3021 1.491 . S
C3016 H3007 0.950 . S
C3016 C3015 1.398 . S
C3016 C3017 1.391 . S
C3017 H3005 0.950 . S
C3017 C3013 1.393 . S
C3017 C3016 1.391 . S
C3018 H3008 0.950 . S
C3018 C3019 1.386 . S
C3018 C3020 1.391 . S
C3019 C3018 1.386 . S
C3019 C3023 1.393 . S
C3020 H3009 0.950 . S
C3020 C3018 1.391 . S
C3020 C3021 1.400 . S
C3021 C3015 1.491 . S
C3021 C3020 1.400 . S
C3021 C3022 1.398 . S
C3022 H3010 0.950 . S
C3022 C3021 1.398 . S
C3022 C3023 1.391 . S
C3023 H3011 0.950 . S
C3023 C3019 1.393 . S
C3023 C3022 1.391 . S
C1113 C375 1.406 . S
C1119 N12 1.393 . S
C1133 C1088 1.409 . S
C1139 N35 1.395 . S
C1153 N58 1.392 . S
C1159 C1042 1.399 . S
C1173 N81 1.398 . S
C1179 C1065 1.404 . S
C1193 C398 1.407 . S
C1199 N104 1.393 . S
C1213 N127 1.408 . S
C1219 C421 1.417 . S
C1233 N150 1.399 . S
C1239 C444 1.412 . S
C1253 C1019 1.404 . S
C1259 N173 1.400 . S
C1273 N196 1.401 . S
C1279 C7 1.410 . S
C1293 C30 1.407 . S
C1299 N219 1.395 . S
C1313 C53 1.409 . S
C1319 N242 1.401 . S
C1333 C76 1.404 . S
C1339 N265 1.399 . S
C1353 C99 1.405 . S
C1359 N288 1.404 . S
C1373 N311 1.395 . S
C1379 C122 1.397 . S
C1393 C145 1.402 . S
C1399 N334 1.400 . S
C1413 N357 1.392 . S
C1419 C168 1.405 . S
C1433 N380 1.404 . S
C1439 C191 1.406 . S
C1453 C283 1.407 . S
C1459 N403 1.395 . S
C1473 N426 1.387 . S
C1479 C306 1.397 . S
C1493 N449 1.392 . S
C1499 C329 1.404 . S
C1513 C904 1.410 . S
C1519 N472 1.406 . S
C1533 N495 1.390 . S
C1539 C789 1.403 . S
C1553 C812 1.413 . S
C1559 N518 1.403 . S
C1573 C766 1.406 . S
C1579 N541 1.405 . S
C1593 C927 1.403 . S
C1599 N564 1.392 . S
C1613 N587 1.386 . S
C1619 C536 1.399 . S
C1633 N610 1.397 . S
C1639 C490 1.402 . S
C1653 N633 1.400 . S
C1659 C513 1.414 . S
C1673 N656 1.393 . S
C1679 C950 1.407 . S
C1693 C973 1.402 . S
C1699 N679 1.384 . S
C1713 N702 1.400 . S
C1719 C996 1.409 . S
C1733 C467 1.407 . S
C1739 N725 1.393 . S
C1753 C559 1.402 . S
C1759 N748 1.396 . S
C1773 N771 1.403 . S
C1779 C582 1.401 . S
C1793 N794 1.397 . S
C1799 C605 1.411 . S
C1813 N817 1.385 . S
C1819 C628 1.394 . S
C1833 N840 1.400 . S
C1839 C651 1.403 . S
C1853 N863 1.408 . S
C1859 C674 1.410 . S
C1873 C697 1.414 . S
C1879 N886 1.406 . S
C1893 C720 1.408 . S
C1899 N909 1.405 . S
C1913 C743 1.402 . S
C1919 N932 1.395 . S
C1933 C835 1.404 . S
C1939 N955 1.394 . S
C1953 C858 1.403 . S
C1959 N978 1.402 . S
C1973 N1001 1.400 . S
C1979 C881 1.410 . S
C1993 N1024 1.402 . S
C1999 C352 1.403 . S
C2013 N1047 1.400 . S
C2019 C237 1.412 . S
C2033 C260 1.396 . S
C2039 N1070 1.385 . S
C2053 N1093 1.398 . S
C2059 C214 1.396 . S
C2073 C16 1.609 . S
C2079 N623 1.524 . S
C2093 N554 1.512 . S
C2099 C39 1.637 . S
C2113 C62 1.607 . S
C2119 N577 1.522 . S
C2133 C85 1.634 . S
C2139 N600 1.511 . S
C2153 C108 1.613 . S
C2159 N117 1.526 . S
C2173 N140 1.524 . S
C2179 C131 1.651 . S
C2193 C154 1.619 . S
C2199 N163 1.493 . S
C2213 C177 1.636 . S
C2219 N94 1.536 . S
C2233 C200 1.608 . S
C2239 N968 1.515 . S
C2253 C223 1.642 . S
C2259 N991 1.540 . S
C2273 C246 1.632 . S
C2279 N462 1.541 . S
C2293 C269 1.648 . S
C2299 N945 1.540 . S
C2313 C292 1.618 . S
C2319 N1060 1.499 . S
C2333 N370 1.549 . S
C2339 C315 1.636 . S
C2353 C338 1.624 . S
C2359 N1083 1.513 . S
C2373 N1037 1.523 . S
C2379 C361 1.644 . S
C2393 N209 1.530 . S
C2399 C384 1.608 . S
C2413 C407 1.631 . S
C2419 N899 1.511 . S
C2433 C430 1.639 . S
C2439 N830 1.523 . S
C2453 N853 1.547 . S
C2459 C453 1.631 . S
C2473 C476 1.622 . S
C2479 N324 1.529 . S
C2493 N807 1.528 . S
C2499 C499 1.632 . S
C2513 N738 1.545 . S
C2519 C522 1.630 . S
C2533 N784 1.521 . S
C2539 C545 1.648 . S
C2553 C568 1.637 . S
C2559 N71 1.513 . S
C2573 C591 1.640 . S
C2579 N2 1.546 . S
C2593 N25 1.524 . S
C2599 C614 1.630 . S
C2613 C637 1.643 . S
C2619 N48 1.531 . S
C2633 C660 1.629 . S
C2639 N669 1.536 . S
C2653 N692 1.522 . S
C2659 C683 1.633 . S
C2673 N715 1.534 . S
C2679 C706 1.624 . S
C2693 C729 1.623 . S
C2699 N646 1.519 . S
C2713 N416 1.523 . S
C2719 C752 1.626 . S
C2733 C775 1.639 . S
C2739 N439 1.523 . S
C2753 C798 1.610 . S
C2759 N1014 1.512 . S
C2773 C821 1.621 . S
C2779 N393 1.523 . S
C2793 C844 1.632 . S
C2799 N508 1.518 . S
C2813 C867 1.639 . S
C2819 N922 1.519 . S
C2833 N531 1.524 . S
C2839 C890 1.607 . S
C2853 C913 1.623 . S
C2859 N485 1.518 . S
C2873 N761 1.511 . S
C2879 C936 1.636 . S
C2893 N347 1.531 . S
C2899 C959 1.608 . S
C2913 N278 1.522 . S
C2919 C982 1.647 . S
C2933 C1005 1.617 . S
C2939 N301 1.492 . S
C2953 C1028 1.647 . S
C2959 N876 1.543 . S
C2973 N255 1.523 . S
C2979 C1051 1.607 . S
C2993 C1074 1.631 . S
C2999 N186 1.553 . S
C3013 N232 1.519 . S
C3019 C1097 1.634 . S
