# Generated by pormake.
# Topology wfa, (4)-cn, num edge types: 1
# Building blocks:
#     Node 0, Type 0, BuildingBlock: ESEHIV_clean_sbu_0, # of connection points: 4
#     Node 1, Type 0, BuildingBlock: ESEHIV_clean_sbu_0, # of connection points: 4
#     Node 2, Type 0, BuildingBlock: ESEHIV_clean_sbu_0, # of connection points: 4
#     Node 3, Type 0, BuildingBlock: ESEHIV_clean_sbu_0, # of connection points: 4
#     Node 4, Type 0, BuildingBlock: ESEHIV_clean_sbu_0, # of connection points: 4
#     Node 5, Type 0, BuildingBlock: ESEHIV_clean_sbu_0, # of connection points: 4
#     Node 6, Type 0, BuildingBlock: ESEHIV_clean_sbu_0, # of connection points: 4
#     Node 7, Type 0, BuildingBlock: ESEHIV_clean_sbu_0, # of connection points: 4
#     Node 8, Type 0, BuildingBlock: ESEHIV_clean_sbu_0, # of connection points: 4
#     Node 9, Type 0, BuildingBlock: ESEHIV_clean_sbu_0, # of connection points: 4
#     Node 10, Type 0, BuildingBlock: ESEHIV_clean_sbu_0, # of connection points: 4
#     Node 11, Type 0, BuildingBlock: ESEHIV_clean_sbu_0, # of connection points: 4
#     Node 12, Type 0, BuildingBlock: ESEHIV_clean_sbu_0, # of connection points: 4
#     Node 13, Type 0, BuildingBlock: ESEHIV_clean_sbu_0, # of connection points: 4
#     Node 14, Type 0, BuildingBlock: ESEHIV_clean_sbu_0, # of connection points: 4
#     Node 15, Type 0, BuildingBlock: ESEHIV_clean_sbu_0, # of connection points: 4
#     Edge 16, Type (0, 0), BuildingBlock: KIFKEQ_clean_linker_1, # of connection points: 2
#     Edge 17, Type (0, 0), BuildingBlock: KIFKEQ_clean_linker_1, # of connection points: 2
#     Edge 18, Type (0, 0), BuildingBlock: KIFKEQ_clean_linker_1, # of connection points: 2
#     Edge 19, Type (0, 0), BuildingBlock: KIFKEQ_clean_linker_1, # of connection points: 2
#     Edge 20, Type (0, 0), BuildingBlock: KIFKEQ_clean_linker_1, # of connection points: 2
#     Edge 21, Type (0, 0), BuildingBlock: KIFKEQ_clean_linker_1, # of connection points: 2
#     Edge 22, Type (0, 0), BuildingBlock: KIFKEQ_clean_linker_1, # of connection points: 2
#     Edge 23, Type (0, 0), BuildingBlock: KIFKEQ_clean_linker_1, # of connection points: 2
#     Edge 24, Type (0, 0), BuildingBlock: KIFKEQ_clean_linker_1, # of connection points: 2
#     Edge 25, Type (0, 0), BuildingBlock: KIFKEQ_clean_linker_1, # of connection points: 2
#     Edge 26, Type (0, 0), BuildingBlock: KIFKEQ_clean_linker_1, # of connection points: 2
#     Edge 27, Type (0, 0), BuildingBlock: KIFKEQ_clean_linker_1, # of connection points: 2
#     Edge 28, Type (0, 0), BuildingBlock: KIFKEQ_clean_linker_1, # of connection points: 2
#     Edge 29, Type (0, 0), BuildingBlock: KIFKEQ_clean_linker_1, # of connection points: 2
#     Edge 30, Type (0, 0), BuildingBlock: KIFKEQ_clean_linker_1, # of connection points: 2
#     Edge 31, Type (0, 0), BuildingBlock: KIFKEQ_clean_linker_1, # of connection points: 2
#     Edge 32, Type (0, 0), BuildingBlock: KIFKEQ_clean_linker_1, # of connection points: 2
#     Edge 33, Type (0, 0), BuildingBlock: KIFKEQ_clean_linker_1, # of connection points: 2
#     Edge 34, Type (0, 0), BuildingBlock: KIFKEQ_clean_linker_1, # of connection points: 2
#     Edge 35, Type (0, 0), BuildingBlock: KIFKEQ_clean_linker_1, # of connection points: 2
#     Edge 36, Type (0, 0), BuildingBlock: KIFKEQ_clean_linker_1, # of connection points: 2
#     Edge 37, Type (0, 0), BuildingBlock: KIFKEQ_clean_linker_1, # of connection points: 2
#     Edge 38, Type (0, 0), BuildingBlock: KIFKEQ_clean_linker_1, # of connection points: 2
#     Edge 39, Type (0, 0), BuildingBlock: KIFKEQ_clean_linker_1, # of connection points: 2
#     Edge 40, Type (0, 0), BuildingBlock: KIFKEQ_clean_linker_1, # of connection points: 2
#     Edge 41, Type (0, 0), BuildingBlock: KIFKEQ_clean_linker_1, # of connection points: 2
#     Edge 42, Type (0, 0), BuildingBlock: KIFKEQ_clean_linker_1, # of connection points: 2
#     Edge 43, Type (0, 0), BuildingBlock: KIFKEQ_clean_linker_1, # of connection points: 2
#     Edge 44, Type (0, 0), BuildingBlock: KIFKEQ_clean_linker_1, # of connection points: 2
#     Edge 45, Type (0, 0), BuildingBlock: KIFKEQ_clean_linker_1, # of connection points: 2
#     Edge 46, Type (0, 0), BuildingBlock: KIFKEQ_clean_linker_1, # of connection points: 2
#     Edge 47, Type (0, 0), BuildingBlock: KIFKEQ_clean_linker_1, # of connection points: 2
# Relax obj value: 0.145
# Max RMSD: 0.162
# Mean RMSD: 0.152
data_MOF--net-wfa--node1-ESEHIV_clean_sbu_0--edge1-KIFKEQ_clean_linker_1
_symmetry_space_group_name_H-M    P1
_symmetry_Int_Tables_number       1
_symmetry_cell_setting            triclinic
loop_
_symmetry_equiv_pos_as_xyz
'x, y, z'
_cell_length_a     53.277069
_cell_length_b     53.175699
_cell_length_c     23.273489
_cell_angle_alpha  88.668155
_cell_angle_beta   88.363998
_cell_angle_gamma 89.084478
loop_
_atom_site_label
_atom_site_type_symbol
_atom_site_fract_x
_atom_site_fract_y
_atom_site_fract_z
_atom_type_partial_charge
Cu0 Cu 0.66341 0.0862 0.03742 0.0
N1 N 0.64679 0.1146 0.06683 0.0
N2 N 0.61415 0.13738 0.1005 0.0
C3 C 0.62271 0.11437 0.08585 0.0
C4 C 0.63385 0.15279 0.09146 0.0
C5 C 0.65399 0.13866 0.07029 0.0
O6 O 0.63516 0.06331 0.02614 0.0
C7 C 0.68958 0.07982 0.14438 0.0
O8 O 0.67066 0.09291 0.16632 0.0
H9 H 0.61163 0.09752 0.08922 0.0
H10 H 0.67234 0.1455 0.05728 0.0
N11 N 0.68003 0.09505 0.96734 0.0
N12 N 0.70874 0.09724 0.89488 0.0
C13 C 0.70034 0.08395 0.94181 0.0
C14 C 0.67545 0.11591 0.93523 0.0
C15 C 0.69303 0.11731 0.89075 0.0
C16 C 0.61904 0.06942 0.98826 0.0
O17 O 0.62446 0.08774 0.9514 0.0
H18 H 0.70934 0.06703 0.95854 0.0
H19 H 0.66062 0.12949 0.94428 0.0
O20 O 0.68917 0.07389 0.09148 0.0
H21 H 0.63355 0.17285 0.09831 0.0
H22 H 0.69421 0.13206 0.85797 0.0
Cu23 Cu 0.5163 0.64528 0.06824 0.0
N24 N 0.53975 0.62637 0.11116 0.0
N25 N 0.54516 0.59287 0.17087 0.0
C26 C 0.53739 0.60126 0.11902 0.0
C27 C 0.55407 0.61348 0.19577 0.0
C28 C 0.5507 0.63401 0.15905 0.0
O29 O 0.49239 0.61907 0.04894 0.0
C30 C 0.51729 0.69182 0.12103 0.0
O31 O 0.53738 0.6934 0.08725 0.0
H32 H 0.52666 0.58997 0.09132 0.0
H33 H 0.55272 0.65348 0.1703 0.0
N34 N 0.52952 0.66088 1.0003 0.0
N35 N 0.53278 0.6868 0.92271 0.0
C36 C 0.51802 0.67879 0.96765 0.0
C37 C 0.55235 0.65749 0.97533 0.0
C38 C 0.55438 0.67332 0.92758 0.0
C39 C 0.49681 0.60598 1.00419 0.0
O40 O 0.5114 0.61547 0.96304 0.0
H41 H 0.49916 0.68575 0.97681 0.0
H42 H 0.56659 0.64458 0.99111 0.0
O43 O 0.50396 0.67204 0.11976 0.0
H44 H 0.56006 0.61425 0.23973 0.0
H45 H 0.57078 0.67507 0.89934 0.0
Cu46 Cu 0.87267 0.50662 0.02944 0.0
N47 N 0.88276 0.53357 0.07304 0.0
N48 N 0.89964 0.5464 0.15396 0.0
C49 C 0.90094 0.52982 0.11121 0.0
C50 C 0.87983 0.56156 0.14224 0.0
C51 C 0.86959 0.55379 0.09171 0.0
O52 O 0.90427 0.48668 0.01724 0.0
C53 C 0.82526 0.50509 0.08197 0.0
O54 O 0.82322 0.52476 0.04717 0.0
H55 H 0.91238 0.51282 0.11279 0.0
H56 H 0.85211 0.56054 0.07412 0.0
N57 N 0.85962 0.51717 0.95817 0.0
N58 N 0.83446 0.52115 0.88234 0.0
C59 C 0.83973 0.50788 0.93111 0.0
C60 C 0.86737 0.53676 0.92515 0.0
C61 C 0.85209 0.53919 0.87854 0.0
C62 C 0.92324 0.49916 0.99788 0.0
O63 O 0.91986 0.52296 0.9835 0.0
H64 H 0.82874 0.49238 0.94837 0.0
H65 H 0.8827 0.54886 0.93498 0.0
O66 O 0.84561 0.49196 0.07923 0.0
H67 H 0.87182 0.57545 0.17099 0.0
H68 H 0.85382 0.55348 0.84492 0.0
Cu69 Cu 0.03805 0.87481 0.03868 0.0
N70 N 1.01312 0.87859 0.0957 0.0
N71 N 1.00762 0.89026 0.18717 0.0
C72 C 1.01564 0.89703 0.13366 0.0
C73 C 0.99878 0.86678 0.18241 0.0
C74 C 1.00212 0.85966 0.12591 0.0
O75 O 0.04954 0.90945 0.02389 0.0
C76 C 0.05779 0.82879 0.08014 0.0
O77 O 0.04184 0.81964 0.04446 0.0
H78 H 0.02753 0.91306 0.12486 0.0
H79 H 1.00055 0.84071 0.11062 0.0
N80 N 0.02666 0.85962 0.97188 0.0
N81 N 0.02533 0.83522 0.89448 0.0
C82 C 0.04002 0.84521 0.93438 0.0
C83 C 1.0028 0.85888 0.95471 0.0
C84 C 1.00194 0.84402 0.90703 0.0
C85 C 0.03509 0.92512 0.99789 0.0
O86 O 1.01504 0.91665 0.97362 0.0
H87 H 0.05999 0.84154 0.93741 0.0
H88 H 0.98701 0.86792 0.97648 0.0
O89 O 0.0615 0.85247 0.07939 0.0
H90 H 0.99326 0.85454 0.21823 0.0
H91 H 0.98516 0.83924 0.88478 0.0
Cu92 Cu 0.15833 0.03205 0.49905 0.0
N93 N 0.14322 1.0007 0.49634 0.0
N94 N 0.11739 0.9716 0.46453 0.0
C95 C 0.12675 0.9949 0.45616 0.0
C96 C 0.12847 0.96241 0.51232 0.0
C97 C 0.14443 0.98044 0.53187 0.0
O98 O 0.12951 0.05481 0.48288 0.0
C99 C 0.19923 0.04931 0.42199 0.0
O100 O 0.1989 0.07026 0.45084 0.0
H101 H 0.1213 1.00794 0.42222 0.0
H102 H 0.15586 0.97897 0.56952 0.0
N103 N 0.17308 0.03564 0.57163 0.0
N104 N 0.20092 0.0375 0.64251 0.0
C105 C 0.19767 0.03679 0.58486 0.0
C106 C 0.16058 0.03501 0.6227 0.0
C107 C 0.17752 0.03643 0.6661 0.0
C108 C 0.1162 0.06797 0.51788 0.0
O109 O 0.12432 0.07172 0.56963 0.0
H110 H 0.21287 0.03672 0.553 0.0
H111 H 0.14052 0.03273 0.62818 0.0
O112 O 0.18373 0.03207 0.43624 0.0
H113 H 0.12543 0.94397 0.53166 0.0
H114 H 0.17299 0.0356 0.71173 0.0
Cu115 Cu 0.50085 0.15621 0.48593 0.0
N116 N 0.47225 0.15166 0.44357 0.0
N117 N 0.46602 0.15164 0.3488 0.0
C118 C 0.47718 0.14009 0.39371 0.0
C119 C 0.45174 0.17014 0.37226 0.0
C120 C 0.45541 0.16995 0.4308 0.0
O121 O 0.51561 0.1218 0.49331 0.0
C122 C 0.5078 0.20318 0.43464 0.0
O123 O 0.49247 0.20874 0.47779 0.0
H124 H 0.49343 0.12777 0.38837 0.0
H125 H 0.45015 0.1851 0.45913 0.0
N126 N 0.49355 0.17018 0.55846 0.0
N127 N 0.49554 0.19452 0.63584 0.0
C128 C 0.50775 0.18603 0.58805 0.0
C129 C 0.47173 0.16856 0.58865 0.0
C130 C 0.47292 0.18338 0.63627 0.0
C131 C 0.50245 0.10547 0.52153 0.0
O132 O 0.48164 0.11316 0.54765 0.0
H133 H 0.52635 0.19176 0.57377 0.0
H134 H 0.4557 0.15804 0.57576 0.0
O135 O 0.51783 0.18114 0.43407 0.0
H136 H 0.44259 0.18513 0.34806 0.0
H137 H 0.45779 0.18654 0.6674 0.0
Cu138 Cu 0.37988 0.48762 0.4616 0.0
N139 N 0.40002 0.46722 0.41274 0.0
N140 N 0.43304 0.46617 0.34994 0.0
C141 C 0.42446 0.4726 0.40278 0.0
C142 C 0.41331 0.45518 0.32603 0.0
C143 C 0.39305 0.45588 0.36465 0.0
O144 O 0.40518 0.51013 0.49174 0.0
C145 C 0.33594 0.48831 0.40112 0.0
O146 O 0.3359 0.46559 0.42452 0.0
H147 H 0.43471 0.48459 0.42981 0.0
H148 H 0.37392 0.45153 0.3549 0.0
N149 N 0.36266 0.47092 0.52349 0.0
N150 N 0.33418 0.46452 0.59566 0.0
C151 C 0.34397 0.48115 0.55636 0.0
C152 C 0.36485 0.44694 0.54252 0.0
C153 C 0.34744 0.44297 0.58694 0.0
C154 C 0.41833 0.50188 0.53355 0.0
O155 O 0.40931 0.48341 0.56596 0.0
H156 H 0.33763 0.50047 0.55101 0.0
H157 H 0.37789 0.4332 0.52471 0.0
O158 O 0.35403 0.50284 0.41202 0.0
H159 H 0.4127 0.4494 0.28183 0.0
H160 H 0.34438 0.42529 0.60982 0.0
Cu161 Cu 0.02423 0.38009 0.4718 0.0
N162 N 0.99466 0.39293 0.44058 0.0
N163 N 0.96666 0.42134 0.40867 0.0
C164 C 0.98819 0.41746 0.43688 0.0
C165 C 0.95898 0.39814 0.39527 0.0
C166 C 0.97626 0.38065 0.41526 0.0
O167 O 0.04497 0.41011 0.48225 0.0
C168 C 0.03571 0.35408 0.3671 0.0
O169 O 0.02527 0.37416 0.34344 0.0
H170 H 0.99929 0.43223 0.45399 0.0
H171 H 0.97592 0.3605 0.40993 0.0
N172 N 1.01498 0.36677 0.54466 0.0
N173 N 1.00874 0.34247 0.62386 0.0
C174 C 0.0202 0.34442 0.57107 0.0
C175 C 0.99968 0.37912 0.58162 0.0
C176 C 0.9958 0.36433 0.63012 0.0
C177 C 0.05059 0.42532 0.44071 0.0
O178 O 0.04657 0.41838 0.38802 0.0
H179 H 0.03227 0.33007 0.55225 0.0
H180 H 0.99168 0.39764 0.5734 0.0
O181 O 0.03836 0.35338 0.42159 0.0
H182 H 0.94273 0.39409 0.37041 0.0
H183 H 0.98398 0.36927 0.66684 0.0
Cu184 Cu 0.3848 1.01365 0.98722 0.0
N185 N 0.39716 0.98188 0.96608 0.0
N186 N 0.42541 0.95376 0.93334 0.0
C187 C 0.41807 0.97816 0.93337 0.0
C188 C 0.40821 0.94154 0.96674 0.0
C189 C 0.39077 0.95894 0.98683 0.0
O190 O 0.41619 0.03333 0.99144 0.0
C191 C 0.3465 1.00977 0.90573 0.0
O192 O 0.34811 0.98611 0.92284 0.0
H193 H 0.42863 0.99334 0.91313 0.0
H194 H 0.37515 0.95526 0.01636 0.0
N195 N 0.36812 1.01058 0.06005 0.0
N196 N 0.33974 1.01258 0.1334 0.0
C197 C 0.34649 0.02148 0.08008 0.0
C198 C 0.3751 0.99448 0.10236 0.0
C199 C 0.35787 0.9957 0.14722 0.0
C200 C 0.43363 0.02353 0.02201 0.0
O201 O 0.42837 1.00331 0.05311 0.0
H202 H 0.33552 0.03495 0.05537 0.0
H203 H 0.39125 0.98198 0.1003 0.0
O204 O 0.36081 0.02569 0.9284 0.0
H205 H 0.40852 0.92158 0.97696 0.0
H206 H 0.35861 0.9848 0.18701 0.0
Cu207 Cu 0.50692 0.37561 0.97225 0.0
N208 N 0.48564 0.39345 0.92208 0.0
N209 N 0.48193 0.42462 0.8556 0.0
C210 C 0.49088 0.41748 0.90713 0.0
C211 C 0.46989 0.40421 0.83745 0.0
C212 C 0.47226 0.38501 0.87842 0.0
O213 O 0.52516 0.40381 1.00481 0.0
C214 C 0.51293 0.33132 0.91316 0.0
O215 O 0.49051 0.32843 0.937 0.0
H216 H 0.50438 0.42833 0.92906 0.0
H217 H 0.46726 0.36559 0.87317 0.0
N218 N 0.49108 0.35691 0.03261 0.0
N219 N 0.48655 0.32983 0.10748 0.0
C220 C 0.50244 0.33942 0.0666 0.0
C221 C 0.4671 0.35818 0.05225 0.0
C222 C 0.46432 0.34167 0.09866 0.0
C223 C 0.51373 0.41586 0.04508 0.0
O224 O 0.49667 0.40396 0.07654 0.0
H225 H 0.52213 0.33427 0.0622 0.0
H226 H 0.45281 0.37056 0.03468 0.0
O227 O 0.52511 0.35123 0.92314 0.0
H228 H 0.46198 0.40244 0.79545 0.0
H229 H 0.44724 0.3386 0.12399 0.0
Cu230 Cu 0.15761 0.50355 0.97412 0.0
N231 N 0.14697 0.53489 0.9457 0.0
N232 N 0.12021 0.56507 0.91657 0.0
C233 C 0.12296 0.5431 0.94603 0.0
C234 C 0.14369 0.57125 0.89836 0.0
C235 C 0.16017 0.55263 0.91661 0.0
O236 O 0.12618 0.48424 0.9847 0.0
C237 C 0.1839 0.49327 0.86721 0.0
O238 O 0.16422 0.50451 0.84481 0.0
H239 H 0.1077 0.53271 0.96622 0.0
H240 H 0.18013 0.55146 0.90692 0.0
N241 N 0.17042 0.50911 0.04711 0.0
N242 N 0.19466 0.51276 0.12386 0.0
C243 C 0.19354 0.50516 0.06867 0.0
C244 C 0.1567 0.51969 0.08969 0.0
C245 C 0.17144 0.52195 0.13673 0.0
C246 C 0.11041 0.48155 0.9449 0.0
O247 O 0.11721 0.48772 0.89182 0.0
H248 H 0.20907 0.49672 0.04467 0.0
H249 H 0.13726 0.52559 0.08637 0.0
O250 O 0.18417 0.48972 0.92175 0.0
H251 H 0.1485 0.58726 0.87091 0.0
H252 H 0.1655 0.53014 0.17712 0.0
Cu253 Cu 0.04435 0.16021 0.97839 0.0
N254 N 0.0645 0.14504 0.92109 0.0
N255 N 0.06624 0.11952 0.84538 0.0
C256 C 0.05654 0.1236 0.89848 0.0
C257 C 0.0814 0.13926 0.83396 0.0
C258 C 0.08028 0.155 0.88075 0.0
O259 O 0.02748 0.13043 0.01237 0.0
C260 C 0.03643 0.20515 0.92054 0.0
O261 O 0.05937 0.20758 0.93863 0.0
H262 H 0.04101 0.11306 0.91698 0.0
H263 H 0.08816 0.17358 0.88223 0.0
N264 N 0.06107 0.17761 0.03599 0.0
N265 N 0.06703 0.20582 0.10493 0.0
C266 C 0.05028 0.19502 0.07067 0.0
C267 C 0.08555 0.17732 0.04864 0.0
C268 C 0.08925 0.19454 0.09116 0.0
C269 C 0.04238 0.1151 0.03822 0.0
O270 O 0.06461 0.12329 0.05107 0.0
H271 H 0.0305 0.19992 0.06993 0.0
H272 H 0.09981 0.16586 0.02745 0.0
O273 O 0.02444 0.1852 0.93484 0.0
H274 H 0.09092 0.14317 0.7931 0.0
H275 H 0.10714 0.199 0.10897 0.0
Cu276 Cu 0.88822 0.06335 0.52416 0.0
N277 N 0.91 0.03957 0.55767 0.0
N278 N 0.94559 0.03343 0.6057 0.0
C279 C 0.92324 0.04572 0.60372 0.0
C280 C 0.94632 1.01854 0.55956 0.0
C281 C 0.92445 0.02242 0.52995 0.0
O282 O 0.91345 0.08817 0.50028 0.0
C283 C 0.85403 0.05892 0.61818 0.0
O284 O 0.86115 0.03524 0.6145 0.0
H285 H 0.91835 0.06172 0.62993 0.0
H286 H 0.92127 1.016 0.48711 0.0
N287 N 0.8699 0.05069 0.46265 0.0
N288 N 0.84077 0.04725 0.39482 0.0
C289 C 0.85255 0.06291 0.43035 0.0
C290 C 0.86877 0.0265 0.44747 0.0
C291 C 0.85114 0.02435 0.40577 0.0
C292 C 0.92936 0.08188 0.46087 0.0
O293 O 0.92332 0.06403 0.42593 0.0
H294 H 0.84826 0.08277 0.43403 0.0
H295 H 0.87907 1.01113 0.46737 0.0
O296 O 0.86387 0.07507 0.58319 0.0
H297 H 0.96248 1.00755 0.54513 0.0
H298 H 0.84556 1.00691 0.38717 0.0
Cu299 Cu 0.52915 0.86454 0.55861 0.0
N300 N 0.55564 0.87033 0.6069 0.0
N301 N 0.56247 0.88281 0.69623 0.0
C302 C 0.55253 0.88878 0.64506 0.0
C303 C 0.57336 0.85996 0.68928 0.0
C304 C 0.56931 0.85239 0.63397 0.0
O305 O 0.51492 0.89871 0.54279 0.0
C306 C 0.51643 0.81743 0.60722 0.0
O307 O 0.53351 0.81028 0.56902 0.0
H308 H 0.53862 0.90366 0.63982 0.0
H309 H 0.57218 0.83349 0.61865 0.0
N310 N 0.53981 0.84924 0.48967 0.0
N311 N 0.54053 0.82455 0.41254 0.0
C312 C 0.52626 0.83466 0.45553 0.0
C313 C 0.56334 0.84845 0.46736 0.0
C314 C 0.56385 0.83338 0.41994 0.0
C315 C 0.53027 0.91458 0.51973 0.0
O316 O 0.55267 0.90626 0.50353 0.0
H317 H 0.50651 0.83104 0.46319 0.0
H318 H 0.57921 0.85754 0.48553 0.0
O319 O 0.50936 0.84058 0.60722 0.0
H320 H 0.58037 0.84809 0.72388 0.0
H321 H 0.58043 0.82851 0.39439 0.0
Cu322 Cu 0.65014 0.51068 0.54328 0.0
N323 N 0.62972 0.53499 0.57921 0.0
N324 N 0.59445 0.5387 0.6338 0.0
C325 C 0.61736 0.52769 0.62797 0.0
C326 C 0.59265 0.55439 0.58763 0.0
C327 C 0.61431 0.552 0.55398 0.0
O328 O 0.62291 0.48811 0.52422 0.0
C329 C 0.68663 0.51796 0.62065 0.0
O330 O 0.68141 0.54076 0.60102 0.0
H331 H 0.6231 0.51122 0.65283 0.0
H332 H 0.61653 0.55899 0.51024 0.0
N333 N 0.66848 0.52169 0.47673 0.0
N334 N 0.69487 0.52104 0.39984 0.0
C335 C 0.686 0.5082 0.44678 0.0
C336 C 0.66669 0.54391 0.448 0.0
C337 C 0.68267 0.54342 0.40032 0.0
C338 C 0.60889 0.4969 0.48456 0.0
O339 O 0.61886 0.51272 0.44659 0.0
H340 H 0.69165 0.48914 0.45832 0.0
H341 H 0.65444 0.55935 0.46028 0.0
O342 O 0.6747 0.49961 0.60052 0.0
H343 H 0.5758 0.5646 0.57547 0.0
H344 H 0.68515 0.55835 0.36831 0.0
Cu345 Cu 0.03715 0.66102 0.53886 0.0
N346 N 1.00908 0.65301 0.58447 0.0
N347 N 0.99624 0.63776 0.67048 0.0
C348 C 1.01075 0.63394 0.62302 0.0
C349 C 0.98419 0.65988 0.66049 0.0
C350 C 0.99207 0.66922 0.6072 0.0
O351 O 0.0537 0.62815 0.52349 0.0
C352 C 0.04633 0.70772 0.58662 0.0
O353 O 0.02936 0.7144 0.54922 0.0
H354 H 0.02586 0.62008 0.62126 0.0
H355 H 0.98864 0.6881 0.59072 0.0
N356 N 0.02821 0.67735 0.46984 0.0
N357 N 0.02967 0.70465 0.39521 0.0
C358 C 0.04305 0.69175 0.43496 0.0
C359 C 1.00477 0.68097 0.45086 0.0
C360 C 1.00561 0.69781 0.40496 0.0
C361 C 0.04184 0.61356 0.49116 0.0
O362 O 0.02131 0.62229 0.46732 0.0
H363 H 0.06291 0.69415 0.44131 0.0
H364 H 0.9881 0.67294 0.47096 0.0
O365 O 0.05446 0.68492 0.58751 0.0
H366 H 0.97317 0.67011 0.6923 0.0
H367 H 0.98965 0.70508 0.38166 0.0
H368 H 0.47951 0.11175 0.28594 0.0
H369 H 0.48148 0.19271 0.28697 0.0
H370 H 0.51271 0.11126 0.21191 0.0
H371 H 0.5146 0.19248 0.21238 0.0
H372 H 0.57112 0.11465 0.07328 0.0
H373 H 0.5296 0.12106 0.11743 0.0
H374 H 0.55864 0.18028 0.21959 0.0
H375 H 0.60019 0.17395 0.17474 0.0
C376 C 0.48629 0.12949 0.26828 0.0
C377 C 0.47801 0.15218 0.29251 0.0
C378 C 0.50542 0.12928 0.22598 0.0
C379 C 0.51674 0.15184 0.20693 0.0
C380 C 0.50665 0.17475 0.22691 0.0
C381 C 0.48737 0.17491 0.26907 0.0
C382 C 0.56861 0.12915 0.10492 0.0
C383 C 0.58908 0.14348 0.1214 0.0
C384 C 0.54476 0.13288 0.13009 0.0
C385 C 0.54076 0.15099 0.17254 0.0
C386 C 0.56092 0.16634 0.18657 0.0
C387 C 0.58481 0.16267 0.16111 0.0
H388 H 0.43876 0.48007 0.23676 0.0
H389 H 0.47716 0.47772 0.39764 0.0
H390 H 0.47161 0.50645 0.19432 0.0
H391 H 0.50996 0.50453 0.35522 0.0
H392 H 0.53172 0.58551 0.28382 0.0
H393 H 0.50951 0.54964 0.32599 0.0
H394 H 0.51651 0.51151 0.16453 0.0
H395 H 0.53876 0.54764 0.122 0.0
C396 C 0.45453 0.48454 0.26275 0.0
C397 C 0.45498 0.47702 0.32112 0.0
C398 C 0.47344 0.4998 0.23832 0.0
C399 C 0.49328 0.50802 0.27155 0.0
C400 C 0.49469 0.49903 0.32869 0.0
C401 C 0.47589 0.48363 0.35299 0.0
C402 C 0.52924 0.56926 0.25757 0.0
C403 C 0.53684 0.56971 0.1991 0.0
C404 C 0.51638 0.54861 0.28184 0.0
C405 C 0.51075 0.52782 0.24836 0.0
C406 C 0.51997 0.52746 0.19114 0.0
C407 C 0.53283 0.54812 0.16685 0.0
H408 H 0.94838 0.53874 0.17319 0.0
H409 H 0.87507 0.53958 0.25595 0.0
H410 H 0.96481 0.51349 0.25253 0.0
H411 H 0.89138 0.51444 0.33643 0.0
H412 H 0.99086 0.46592 0.39531 0.0
H413 H 0.97462 0.5046 0.35192 0.0
H414 H 0.90271 0.46977 0.33299 0.0
H415 H 0.91861 0.43136 0.37869 0.0
C416 C 0.93616 0.53461 0.2101 0.0
C417 C 0.91055 0.54102 0.20861 0.0
C418 C 0.94548 0.52005 0.25557 0.0
C419 C 0.92927 0.5115 0.30036 0.0
C420 C 0.90423 0.52039 0.30205 0.0
C421 C 0.89496 0.53512 0.25652 0.0
C422 C 0.97137 0.46662 0.38354 0.0
C423 C 0.95615 0.44525 0.38981 0.0
C424 C 0.96211 0.48885 0.35824 0.0
C425 C 0.93745 0.49026 0.33849 0.0
C426 C 0.92175 0.46947 0.34816 0.0
C427 C 0.93099 0.44724 0.37355 0.0
H428 H 1.00863 0.93973 0.20802 0.0
H429 H 0.02812 0.8668 0.27993 0.0
H430 H 0.03257 0.95985 0.28168 0.0
H431 H 0.05247 0.88676 0.35315 0.0
H432 H 0.08554 0.93376 0.49632 0.0
H433 H 0.0546 0.91415 0.43658 0.0
H434 H 0.07734 0.96252 0.29347 0.0
H435 H 0.10805 0.98184 0.35244 0.0
C436 C 1.01756 0.92807 0.24054 0.0
C437 C 1.01649 0.90175 0.23818 0.0
C438 C 0.0315 0.93952 0.28236 0.0
C439 C 0.0449 0.92491 0.32268 0.0
C440 C 0.04233 0.8986 0.32296 0.0
C441 C 0.02825 0.88713 0.28114 0.0
C442 C 0.08401 0.94011 0.45205 0.0
C443 C 0.09926 0.95957 0.42951 0.0
C444 C 0.0662 0.92891 0.41785 0.0
C445 C 0.06319 0.93698 0.36039 0.0
C446 C 0.07859 0.95628 0.33793 0.0
C447 C 0.09633 0.96737 0.3719 0.0
H448 H 0.45362 0.91416 0.97165 0.0
H449 H 0.44887 0.97058 0.83598 0.0
H450 H 0.49246 0.89762 0.92758 0.0
H451 H 0.48713 0.9539 0.79119 0.0
H452 H 0.56133 0.93098 0.72809 0.0
H453 H 0.53114 0.94926 0.79689 0.0
H454 H 0.5063 0.87459 0.84608 0.0
H455 H 0.53729 0.85664 0.77933 0.0
C456 C 0.46078 0.9229 0.93218 0.0
C457 C 0.44813 0.94364 0.90716 0.0
C458 C 0.4831 0.9135 0.90701 0.0
C459 C 0.49318 0.92451 0.856 0.0
C460 C 0.48045 0.9453 0.83126 0.0
C461 C 0.45832 0.95479 0.85665 0.0
C462 C 0.55018 0.91858 0.75578 0.0
C463 C 0.55167 0.89249 0.74866 0.0
C464 C 0.53256 0.92898 0.79438 0.0
C465 C 0.51571 0.91346 0.82591 0.0
C466 C 0.51893 0.88719 0.82279 0.0
C467 C 0.53683 0.87682 0.78472 0.0
H468 H 0.59749 0.5197 0.74203 0.0
H469 H 0.54535 0.53435 0.60628 0.0
H470 H 0.56529 0.49601 0.79612 0.0
H471 H 0.51308 0.51104 0.66108 0.0
H472 H 0.49574 0.46956 0.89624 0.0
H473 H 0.52024 0.50166 0.84429 0.0
H474 H 0.51291 0.46148 0.68706 0.0
H475 H 0.48918 0.42881 0.73911 0.0
C476 C 0.57903 0.51823 0.72423 0.0
C477 C 0.57412 0.52877 0.66964 0.0
C478 C 0.56057 0.50475 0.75525 0.0
C479 C 0.5368 0.50128 0.73219 0.0
C480 C 0.53141 0.51291 0.67907 0.0
C481 C 0.54982 0.52659 0.64818 0.0
C482 C 0.49908 0.46765 0.85045 0.0
C483 C 0.49084 0.44623 0.82225 0.0
C484 C 0.51306 0.48611 0.82075 0.0
C485 C 0.51862 0.484 0.76176 0.0
C486 C 0.50869 0.46373 0.73245 0.0
C487 C 0.49501 0.44499 0.76236 0.0
H488 H 1.00669 0.66256 0.76691 0.0
H489 H 1.00195 0.58868 0.69617 0.0
H490 H 0.03172 0.64533 0.84523 0.0
H491 H 0.02733 0.57137 0.77335 0.0
H492 H 0.07423 0.54346 0.91309 0.0
H493 H 0.0365 0.56168 0.87236 0.0
H494 H 0.07534 0.63134 0.83772 0.0
H495 H 0.11284 0.61352 0.88095 0.0
C496 C 1.01 0.64244 0.76965 0.0
C497 C 1.00251 0.62689 0.72543 0.0
C498 C 0.02468 0.63262 0.81398 0.0
C499 C 0.03201 0.60708 0.81488 0.0
C500 C 0.02202 0.5911 0.77427 0.0
C501 C 1.00743 0.60094 0.73 0.0
C502 C 0.07465 0.56291 0.89847 0.0
C503 C 0.09688 0.5769 0.89964 0.0
C504 C 0.05295 0.57329 0.87463 0.0
C505 C 0.05291 0.59786 0.8512 0.0
C506 C 0.07458 0.6124 0.85578 0.0
C507 C 0.09628 0.60205 0.87979 0.0
H508 H 0.06129 0.1254 0.7293 0.0
H509 H 0.04729 0.07376 0.87216 0.0
H510 H 0.03521 0.09996 0.66886 0.0
H511 H 0.0207 0.04893 0.81234 0.0
H512 H 0.94366 0.0461 0.71706 0.0
H513 H 0.97765 0.06297 0.7724 0.0
H514 H 0.02857 0.05502 0.62614 0.0
H515 H 0.99455 0.03771 0.57106 0.0
C516 C 0.05328 0.1083 0.74744 0.0
C517 C 0.05604 0.10191 0.806 0.0
C518 C 0.03824 0.09378 0.71283 0.0
C519 C 0.02554 0.07274 0.73625 0.0
C520 C 0.02989 0.06529 0.79341 0.0
C521 C 0.04512 0.07955 0.82763 0.0
C522 C 0.96222 0.04756 0.69716 0.0
C523 C 0.96643 0.04049 0.63993 0.0
C524 C 0.9817 0.05712 0.72878 0.0
C525 C 1.00579 0.06028 0.70359 0.0
C526 C 1.01022 0.05275 0.64667 0.0
C527 C 0.99079 0.04265 0.61537 0.0
H528 H 0.73944 0.13112 0.84151 0.0
H529 H 0.72721 0.05153 0.86382 0.0
H530 H 0.77527 0.12272 0.77722 0.0
H531 H 0.76243 0.04287 0.79752 0.0
H532 H 0.83937 0.03245 0.71464 0.0
H533 H 0.80553 0.04206 0.78313 0.0
H534 H 0.78833 0.11021 0.68615 0.0
H535 H 0.82322 0.10103 0.61916 0.0
C536 C 0.74429 0.11178 0.83216 0.0
C537 C 0.7304 0.09199 0.85778 0.0
C538 C 0.76484 0.1069 0.7949 0.0
C539 C 0.77198 0.08206 0.78139 0.0
C540 C 0.75803 0.06226 0.80734 0.0
C541 C 0.73768 0.06717 0.84534 0.0
C542 C 0.82848 0.0496 0.70811 0.0
C543 C 0.83406 0.06597 0.66128 0.0
C544 C 0.8088 0.05503 0.74728 0.0
C545 C 0.79373 0.07684 0.74045 0.0
C546 C 0.79957 0.0934 0.69378 0.0
C547 C 0.81958 0.08812 0.65501 0.0
H548 H 0.50874 0.82634 0.72291 0.0
H549 H 0.51154 0.76714 0.59931 0.0
H550 H 0.50998 0.79466 0.80145 0.0
H551 H 0.51217 0.73569 0.67684 0.0
H552 H 0.55276 0.69031 0.81438 0.0
H553 H 0.54441 0.72231 0.74109 0.0
H554 H 0.49082 0.75858 0.85588 0.0
H555 H 0.49978 0.7266 0.93048 0.0
C556 C 0.50867 0.80659 0.71257 0.0
C557 C 0.51005 0.79926 0.65484 0.0
C558 C 0.50954 0.78838 0.75757 0.0
C559 C 0.51178 0.76251 0.74566 0.0
C560 C 0.51117 0.75536 0.68788 0.0
C561 C 0.51048 0.77343 0.64329 0.0
C562 C 0.53929 0.70511 0.82442 0.0
C563 C 0.52703 0.70572 0.87872 0.0
C564 C 0.53422 0.72341 0.78191 0.0
C565 C 0.5167 0.74305 0.79203 0.0
C566 C 0.50445 0.74382 0.84644 0.0
C567 C 0.50944 0.72531 0.8891 0.0
H568 H 0.81579 0.55592 0.8065 0.0
H569 H 0.80443 0.48015 0.87233 0.0
H570 H 0.78019 0.55219 0.74576 0.0
H571 H 0.76763 0.47687 0.81235 0.0
H572 H 0.71691 0.47639 0.64652 0.0
H573 H 0.75278 0.47512 0.71117 0.0
H574 H 0.7356 0.55155 0.75938 0.0
H575 H 0.70076 0.55296 0.69481 0.0
C576 C 0.80588 0.53834 0.80811 0.0
C577 C 0.8133 0.51839 0.84499 0.0
C578 C 0.78506 0.53632 0.77349 0.0
C579 C 0.77065 0.51436 0.7746 0.0
C580 C 0.77825 0.49407 0.81031 0.0
C581 C 0.79927 0.49608 0.84519 0.0
C582 C 0.72072 0.49273 0.67158 0.0
C583 C 0.7062 0.51489 0.66481 0.0
C584 C 0.74125 0.49204 0.70861 0.0
C585 C 0.74751 0.51346 0.7396 0.0
C586 C 0.73195 0.53496 0.735 0.0
C587 C 0.71178 0.5357 0.69806 0.0
H588 H 0.06262 0.79946 0.89671 0.0
H589 H 1.00376 0.83045 0.79168 0.0
H590 H 0.07287 0.7684 0.82278 0.0
H591 H 1.01362 0.79949 0.71878 0.0
H592 H 0.04818 0.75823 0.57346 0.0
H593 H 0.04677 0.78944 0.64828 0.0
H594 H 0.05401 0.73038 0.77746 0.0
H595 H 0.05577 0.69889 0.70161 0.0
C596 C 0.05204 0.79982 0.85768 0.0
C597 C 0.03237 0.81754 0.85013 0.0
C598 C 0.05775 0.78186 0.81557 0.0
C599 C 0.0442 0.78147 0.76453 0.0
C600 C 0.02475 0.79939 0.75702 0.0
C601 C 1.0189 0.81706 0.79915 0.0
C602 C 0.05012 0.75189 0.61772 0.0
C603 C 0.05204 0.72607 0.63152 0.0
C604 C 0.04906 0.7698 0.66075 0.0
C605 C 0.04969 0.76246 0.71911 0.0
C606 C 0.05348 0.73673 0.73296 0.0
C607 C 0.05464 0.71867 0.68951 0.0
H608 H 0.24584 1.01573 0.61199 0.0
H609 H 0.20865 0.05872 0.74518 0.0
H610 H 0.28329 1.01176 0.67053 0.0
H611 H 0.24587 0.05465 0.80378 0.0
H612 H 0.32445 0.05631 0.88165 0.0
H613 H 0.29108 0.06581 0.81308 0.0
H614 H 0.29321 0.98849 0.76054 0.0
H615 H 0.32607 0.97908 0.82849 0.0
C616 C 0.24577 0.02467 0.65331 0.0
C617 C 0.22409 0.03737 0.67395 0.0
C618 C 0.26718 0.02224 0.68717 0.0
C619 C 0.26765 0.03276 0.74224 0.0
C620 C 0.24635 0.04643 0.76161 0.0
C621 C 0.22488 0.04856 0.72815 0.0
C622 C 0.31797 0.04147 0.85492 0.0
C623 C 0.32793 1.01691 0.86092 0.0
C624 C 0.29874 0.04685 0.81583 0.0
C625 C 0.28937 0.02792 0.78104 0.0
C626 C 0.30003 1.00364 0.7859 0.0
C627 C 0.31884 0.99821 0.82537 0.0
H628 H 0.48029 0.19914 0.74707 0.0
H629 H 0.52912 0.23228 0.61601 0.0
H630 H 0.4907 0.23195 0.8125 0.0
H631 H 0.54042 0.26494 0.68273 0.0
H632 H 0.52213 0.33628 0.79727 0.0
H633 H 0.52231 0.30195 0.72867 0.0
H634 H 0.52228 0.24788 0.87019 0.0
H635 H 0.52107 0.28219 0.93791 0.0
C636 C 0.49343 0.21334 0.73225 0.0
C637 C 0.50367 0.21302 0.67593 0.0
C638 C 0.49974 0.23209 0.77023 0.0
C639 C 0.51661 0.25119 0.75337 0.0
C640 C 0.52728 0.25067 0.69729 0.0
C641 C 0.52098 0.23177 0.65913 0.0
C642 C 0.52321 0.31702 0.81336 0.0
C643 C 0.52191 0.31185 0.87282 0.0
C644 C 0.52313 0.29728 0.77412 0.0
C645 C 0.52174 0.27201 0.79371 0.0
C646 C 0.52266 0.26703 0.85332 0.0
C647 C 0.52242 0.28668 0.89227 0.0
H648 H 0.2976 0.501 0.59124 0.0
H649 H 0.32277 0.43719 0.6936 0.0
H650 H 0.26239 0.5073 0.65827 0.0
H651 H 0.28687 0.44293 0.75962 0.0
H652 H 0.23124 0.47604 0.89702 0.0
H653 H 0.26795 0.46913 0.83312 0.0
H654 H 0.22333 0.48926 0.68655 0.0
H655 H 0.18711 0.49658 0.74997 0.0
C656 C 0.29578 0.48829 0.62803 0.0
C657 C 0.31329 0.46851 0.63638 0.0
C658 C 0.27525 0.49173 0.66639 0.0
C659 C 0.27143 0.47551 0.71453 0.0
C660 C 0.28913 0.45595 0.72344 0.0
C661 C 0.30968 0.45247 0.68498 0.0
C662 C 0.22924 0.47882 0.85112 0.0
C663 C 0.2061 0.48697 0.82895 0.0
C664 C 0.25033 0.4748 0.81431 0.0
C665 C 0.24887 0.47886 0.75432 0.0
C666 C 0.22553 0.48645 0.73237 0.0
C667 C 0.20457 0.49046 0.76897 0.0
H668 H 1.01912 0.29274 0.60536 0.0
H669 H 1.00142 0.34559 0.73926 0.0
H670 H 0.02185 0.25878 0.67828 0.0
H671 H 1.00327 0.31191 0.8109 0.0
H672 H 0.04595 0.25465 0.92321 0.0
H673 H 0.03723 0.28689 0.85076 0.0
H674 H 0.99705 0.23313 0.7535 0.0
H675 H 1.00609 0.20038 0.82708 0.0
C676 C 1.01573 0.29715 0.65009 0.0
C677 C 1.0101 0.32204 0.66612 0.0
C678 C 1.01696 0.27762 0.69183 0.0
C679 C 1.01279 0.28259 0.75056 0.0
C680 C 1.00679 0.30738 0.76623 0.0
C681 C 1.00552 0.32675 0.72481 0.0
C682 C 0.03482 0.24975 0.88697 0.0
C683 C 0.02655 0.22501 0.8811 0.0
C684 C 0.02978 0.26829 0.84533 0.0
C685 C 1.01647 0.26267 0.79609 0.0
C686 C 1.00752 0.23803 0.79073 0.0
C687 C 1.01236 0.21938 0.83316 0.0
H688 H 0.20465 1.00838 0.35302 0.0
H689 H 0.23674 0.08087 0.38248 0.0
H690 H 0.23652 1.0006 0.27823 0.0
H691 H 0.26903 0.07284 0.30808 0.0
H692 H 0.31385 0.05718 0.13928 0.0
H693 H 0.27826 0.06723 0.20476 0.0
H694 H 0.28061 0.99114 0.27366 0.0
H695 H 0.31528 0.98114 0.20793 0.0
C696 C 0.21848 0.02272 0.34357 0.0
C697 C 0.21814 0.0452 0.37433 0.0
C698 C 0.23689 1.01819 0.30068 0.0
C699 C 0.25559 0.03597 0.28718 0.0
C700 C 0.25485 0.05878 0.31681 0.0
C701 C 0.2364 0.06331 0.35985 0.0
C702 C 0.30647 0.04259 0.16793 0.0
C703 C 0.31761 1.01842 0.16857 0.0
C704 C 0.28624 0.04838 0.20589 0.0
C705 C 0.27648 0.03003 0.24481 0.0
C706 C 0.28731 1.00574 0.24412 0.0
C707 C 0.30749 1.00005 0.2067 0.0
H708 H 0.46836 0.23152 0.40172 0.0
H709 H 0.54427 0.21221 0.34791 0.0
H710 H 0.46478 0.26044 0.32137 0.0
H711 H 0.54121 0.2429 0.26712 0.0
H712 H 0.51668 0.28807 0.10087 0.0
H713 H 0.5236 0.2561 0.17702 0.0
H714 H 0.4772 0.30007 0.29382 0.0
H715 H 0.46942 0.33075 0.21732 0.0
C716 C 0.4846 0.23381 0.37309 0.0
C717 C 0.50687 0.21994 0.3824 0.0
C718 C 0.48258 0.25069 0.32676 0.0
C719 C 0.50296 0.25498 0.28829 0.0
C720 C 0.52511 0.24037 0.29596 0.0
C721 C 0.52697 0.22284 0.34239 0.0
C722 C 0.50805 0.29074 0.14301 0.0
C723 C 0.49214 0.3117 0.15289 0.0
C724 C 0.51209 0.27249 0.18681 0.0
C725 C 0.50059 0.27499 0.24178 0.0
C726 C 0.48568 0.29673 0.25182 0.0
C727 C 0.48127 0.31454 0.20799 0.0
H728 H 0.28995 0.46779 0.39955 0.0
H729 H 0.33538 0.52423 0.31254 0.0
H730 H 0.257 0.47513 0.33134 0.0
H731 H 0.30174 0.53184 0.24329 0.0
H732 H 0.24491 0.51177 0.09618 0.0
H733 H 0.27973 0.5087 0.16318 0.0
H734 H 0.22638 0.50776 0.30624 0.0
H735 H 0.19203 0.51003 0.24026 0.0
C736 C 0.29284 0.48201 0.36601 0.0
C737 C 0.31535 0.49546 0.36172 0.0
C738 C 0.2738 0.48629 0.32688 0.0
C739 C 0.2766 0.50412 0.28175 0.0
C740 C 0.29904 0.51786 0.27738 0.0
C741 C 0.31818 0.51371 0.31733 0.0
C742 C 0.24067 0.51079 0.14192 0.0
C743 C 0.21554 0.51112 0.16255 0.0
C744 C 0.26063 0.50935 0.18033 0.0
C745 C 0.25589 0.50793 0.24018 0.0
C746 C 0.23079 0.50859 0.26051 0.0
C747 C 0.211 0.51012 0.22244 0.0
H748 H 0.02891 0.24063 0.10447 0.0
H749 H 0.09491 0.21773 0.19678 0.0
H750 H 0.02196 0.27533 0.16962 0.0
H751 H 0.08836 0.25304 0.26111 0.0
H752 H 0.05384 0.3068 0.39939 0.0
H753 H 0.0614 0.27039 0.33802 0.0
H754 H 0.03977 0.31519 0.18994 0.0
H755 H 0.03199 0.35111 0.25072 0.0
C756 C 0.04192 0.24283 0.13877 0.0
C757 C 0.06254 0.22618 0.14486 0.0
C758 C 0.03808 0.26303 0.17596 0.0
C759 C 0.05469 0.2673 0.22069 0.0
C760 C 0.07506 0.25039 0.22753 0.0
C761 C 0.07897 0.23021 0.1901 0.0
C762 C 0.05086 0.3089 0.35368 0.0
C763 C 0.04221 0.33201 0.33032 0.0
C764 C 0.05525 0.288 0.31836 0.0
C765 C 0.05096 0.28962 0.2588 0.0
C766 C 0.0428 0.31291 0.23559 0.0
C767 C 0.03851 0.33369 0.27065 0.0
H768 H 0.7354 0.05896 0.11127 0.0
H769 H 0.69466 0.08771 0.2593 0.0
H770 H 0.77246 0.05213 0.16954 0.0
H771 H 0.73129 0.08032 0.31774 0.0
H772 H 0.80767 0.0871 0.39783 0.0
H773 H 0.77202 0.09499 0.33614 0.0
H774 H 0.79035 0.02725 0.24409 0.0
H775 H 0.82651 1.02003 0.30381 0.0
C776 C 0.73422 0.06358 0.15636 0.0
C777 C 0.7119 0.07391 0.18032 0.0
C778 C 0.75552 0.0596 0.19001 0.0
C779 C 0.75516 0.06578 0.24871 0.0
C780 C 0.73267 0.07577 0.27265 0.0
C781 C 0.71146 0.0798 0.23905 0.0
C782 C 0.80436 0.07404 0.36402 0.0
C783 C 0.82013 0.05279 0.35653 0.0
C784 C 0.78361 0.0784 0.32887 0.0
C785 C 0.77793 0.06167 0.285 0.0
C786 C 0.79402 0.04073 0.27684 0.0
C787 C 0.81475 0.0364 0.31186 0.0
H788 H 0.50131 0.79193 0.41881 0.0
H789 H 0.56329 0.81637 0.30888 0.0
H790 H 0.49051 0.76092 0.34781 0.0
H791 H 0.55332 0.78496 0.23979 0.0
H792 H 0.52274 0.74157 0.10043 0.0
H793 H 0.52425 0.77481 0.17014 0.0
H794 H 0.50484 0.72143 0.30642 0.0
H795 H 0.50234 0.68819 0.23532 0.0
C796 C 0.51255 0.79087 0.37947 0.0
C797 C 0.53325 0.80677 0.36988 0.0
C798 C 0.5065 0.77285 0.33895 0.0
C799 C 0.52091 0.77036 0.28762 0.0
C800 C 0.54141 0.78647 0.27807 0.0
C801 C 0.54741 0.80438 0.31832 0.0
C802 C 0.51818 0.73706 0.14513 0.0
C803 C 0.51246 0.71228 0.16241 0.0
C804 C 0.51934 0.75608 0.18534 0.0
C805 C 0.51536 0.75081 0.24441 0.0
C806 C 0.50801 0.72628 0.26139 0.0
C807 C 0.50648 0.7072 0.22069 0.0
H808 H 0.74337 0.50637 0.4127 0.0
H809 H 0.68609 0.51714 0.28759 0.0
H810 H 0.77461 0.49812 0.33546 0.0
H811 H 0.71634 0.50722 0.2106 0.0
H812 H 0.77909 0.52694 0.0847 0.0
H813 H 0.74801 0.52718 0.16152 0.0
H814 H 0.79322 0.47445 0.25979 0.0
H815 H 0.82558 0.47535 0.18226 0.0
C816 C 0.73742 0.50631 0.3686 0.0
C817 C 0.71246 0.51261 0.3558 0.0
C818 C 0.75525 0.50147 0.32419 0.0
C819 C 0.74836 0.50242 0.26601 0.0
C820 C 0.72284 0.50714 0.25424 0.0
C821 C 0.70531 0.51258 0.29835 0.0
C822 C 0.7825 0.51511 0.12229 0.0
C823 C 0.80503 0.50116 0.12697 0.0
C824 C 0.76433 0.51505 0.16667 0.0
C825 C 0.76767 0.50071 0.21754 0.0
C826 C 0.78992 0.48598 0.22173 0.0
C827 C 0.8084 0.48621 0.17695 0.0
H828 H 0.07103 0.77935 0.08065 0.0
H829 H 0.05701 0.84173 0.19299 0.0
H830 H 0.06912 0.75017 0.16329 0.0
H831 H 0.0546 0.81246 0.27576 0.0
H832 H 1.00595 0.74824 0.36695 0.0
H833 H 1.01976 0.78004 0.29604 0.0
H834 H 0.08738 0.73654 0.26148 0.0
H835 H 0.07355 0.70472 0.33343 0.0
C836 C 0.0685 0.78687 0.12333 0.0
C837 C 0.06439 0.81279 0.13044 0.0
C838 C 0.06733 0.77017 0.17064 0.0
C839 C 0.06146 0.779 0.22593 0.0
C840 C 0.05903 0.80512 0.23358 0.0
C841 C 0.06073 0.8219 0.18631 0.0
C842 C 0.02381 0.74553 0.34441 0.0
C843 C 0.03857 0.72389 0.35525 0.0
C844 C 0.03188 0.76388 0.30433 0.0
C845 C 0.05473 0.76086 0.27338 0.0
C846 C 0.06971 0.73939 0.28478 0.0
C847 C 0.06184 0.72123 0.32587 0.0
H848 H 0.4551 0.06329 0.95896 0.0
H849 H 0.47339 1.00214 0.07644 0.0
H850 H 0.49969 0.07417 0.95156 0.0
H851 H 0.51735 1.01207 0.06725 0.0
H852 H 0.5938 0.04764 0.08116 0.0
H853 H 0.54911 0.03871 0.09083 0.0
H854 H 0.53938 0.06211 0.91367 0.0
H855 H 0.58384 0.07199 0.90513 0.0
C856 C 0.46852 0.05222 0.98329 0.0
C857 C 0.46039 0.03191 0.01849 0.0
C858 C 0.49423 0.05826 0.97867 0.0
C859 C 0.51253 0.04404 1.00879 0.0
C860 C 0.50415 0.02391 0.04416 0.0
C861 C 0.47865 1.01807 0.04912 0.0
C862 C 0.5822 0.05049 0.04402 0.0
C863 C 0.5926 0.06032 0.99222 0.0
C864 C 0.5564 0.04541 0.04948 0.0
C865 C 0.54019 0.04969 1.00306 0.0
C866 C 0.55085 0.059 0.95088 0.0
C867 C 0.57656 0.06435 0.9457 0.0
H868 H 0.48015 0.44613 0.10232 0.0
H869 H 0.54414 0.44971 0.98449 0.0
H870 H 0.47271 0.49067 0.08913 0.0
H871 H 0.5378 0.49517 0.97418 0.0
H872 H 0.51001 0.57195 0.92174 0.0
H873 H 0.51406 0.52665 0.93304 0.0
H874 H 0.48165 0.53112 0.10497 0.0
H875 H 0.47714 0.57637 0.09295 0.0
C876 C 0.49315 0.45653 0.07455 0.0
C877 C 0.51277 0.44404 0.04427 0.0
C878 C 0.48886 0.48242 0.0671 0.0
C879 C 0.50439 0.49704 0.03008 0.0
C880 C 0.52486 0.48473 1.00192 0.0
C881 C 0.52886 0.45859 1.00855 0.0
C882 C 0.50332 0.56324 0.96172 0.0
C883 C 0.49354 0.57807 1.00673 0.0
C884 C 0.50607 0.5371 0.96863 0.0
C885 C 0.49919 0.52481 0.02085 0.0
C886 C 0.48757 0.5395 0.06421 0.0
C887 C 0.48475 0.56569 0.05724 0.0
H888 H 0.94592 0.45815 0.94539 0.0
H889 H 0.96052 0.52005 0.05522 0.0
H890 H 0.99135 0.44895 0.93723 0.0
H891 H 1.00545 0.51103 0.04761 0.0
H892 H 0.0855 0.48285 0.0504 0.0
H893 H 0.04014 0.48204 0.06981 0.0
H894 H 0.02798 0.47009 0.89003 0.0
H895 H 0.07322 0.47078 0.87071 0.0
C896 C 0.95875 0.4693 0.96908 0.0
C897 C 0.94963 0.48966 1.00137 0.0
C898 C 0.98482 0.46426 0.96395 0.0
C899 C 1.00227 0.47927 0.99166 0.0
C900 C 0.99279 0.49882 0.02619 0.0
C901 C 0.96695 0.50404 0.03051 0.0
C902 C 0.07322 0.47949 0.01518 0.0
C903 C 0.0832 0.47691 0.95891 0.0
C904 C 0.04711 0.47923 0.02623 0.0
C905 C 0.03018 0.47614 0.98148 0.0
C906 C 0.04028 0.47227 0.92577 0.0
C907 C 0.06634 0.47278 0.91464 0.0
H908 H 1.00384 0.08774 0.99338 0.0
H909 H 0.07284 0.0791 0.08512 0.0
H910 H 1.00187 0.04202 0.98546 0.0
H911 H 0.07186 0.03415 0.07428 0.0
H912 H 0.05708 0.95069 0.08378 0.0
H913 H 0.05615 0.99584 0.09894 0.0
H914 H 1.01848 1.00762 0.93807 0.0
H915 H 1.01809 0.96229 0.92532 0.0
C916 C 1.01843 0.07613 0.01244 0.0
C917 C 0.03842 0.08729 0.04007 0.0
C918 C 1.01758 0.04982 1.00708 0.0
C919 C 0.03686 0.03393 0.02867 0.0
C920 C 0.05637 0.04526 0.05774 0.0
C921 C 0.05701 0.07136 0.06372 0.0
C922 C 0.0489 0.96297 0.05133 0.0
C923 C 0.03787 0.95283 1.00309 0.0
C924 C 0.04832 0.98905 0.05993 0.0
C925 C 0.03715 1.00588 0.01988 0.0
C926 C 0.02672 0.99558 0.97082 0.0
C927 C 0.02683 0.96948 0.96293 0.0
H928 H 0.08754 0.05036 0.43204 0.0
H929 H 0.08456 0.10153 0.5733 0.0
H930 H 0.0432 0.05777 0.41686 0.0
H931 H 0.04032 0.1103 0.55613 0.0
H932 H 0.95494 0.09551 0.55614 0.0
H933 H 1.00023 0.09585 0.56678 0.0
H934 H 1.01077 0.08202 0.38523 0.0
H935 H 0.96551 0.08073 0.37563 0.0
C936 C 0.07757 0.06378 0.45896 0.0
C937 C 0.08982 0.07539 0.50377 0.0
C938 C 0.05192 0.06821 0.45007 0.0
C939 C 0.03763 0.08481 0.485 0.0
C940 C 0.05021 0.09705 0.52874 0.0
C941 C 0.07581 0.09225 0.53827 0.0
C942 C 0.96694 0.09316 0.51823 0.0
C943 C 0.95648 0.08804 0.465 0.0
C944 C 0.99314 0.09323 0.5243 0.0
C945 C 1.00969 0.08822 0.47727 0.0
C946 C 0.99901 0.08495 0.42322 0.0
C947 C 0.97288 0.08462 0.41735 0.0
H948 H 0.56209 0.95137 0.48134 0.0
H949 H 0.48704 0.94134 0.55196 0.0
H950 H 0.55624 0.99657 0.48214 0.0
H951 H 0.48063 0.98706 0.55046 0.0
H952 H 0.48472 0.06959 0.59696 0.0
H953 H 0.49071 0.02426 0.59488 0.0
H954 H 0.53827 0.03267 0.44229 0.0
H955 H 0.53293 0.07839 0.44607 0.0
C956 C 0.54408 0.95877 0.49639 0.0
C957 C 0.52504 0.94241 0.51668 0.0
C958 C 0.54066 0.98497 0.49645 0.0
C959 C 0.51795 0.99598 0.51636 0.0
C960 C 0.49863 0.97959 0.53567 0.0
C961 C 0.50216 0.95322 0.53605 0.0
C962 C 0.49667 0.06183 0.56315 0.0
C963 C 0.50844 0.07783 0.52183 0.0
C964 C 0.49988 0.03561 0.56154 0.0
C965 C 0.51479 0.02429 0.51809 0.0
C966 C 0.52688 0.04039 0.47704 0.0
C967 C 0.52385 0.06676 0.47908 0.0
H968 H 0.57652 0.533 0.44614 0.0
H969 H 0.57789 0.46274 0.54243 0.0
H970 H 0.53199 0.53704 0.46323 0.0
H971 H 0.53233 0.46543 0.55581 0.0
H972 H 0.45232 0.48207 0.60862 0.0
H973 H 0.49747 0.48067 0.59771 0.0
H974 H 0.4928 0.52831 0.44492 0.0
H975 H 0.44757 0.5302 0.45736 0.0
C976 C 0.56714 0.51792 0.46984 0.0
C977 C 0.58094 0.49731 0.49224 0.0
C978 C 0.5412 0.52018 0.47947 0.0
C979 C 0.52772 0.50154 0.51059 0.0
C980 C 0.5416 0.48063 0.5325 0.0
C981 C 0.56787 0.47877 0.52423 0.0
C982 C 0.46094 0.49276 0.57335 0.0
C983 C 0.44604 0.50614 0.53368 0.0
C984 C 0.48714 0.49167 0.5665 0.0
C985 C 0.49956 0.50405 0.51993 0.0
C986 C 0.48458 0.51863 0.48203 0.0
C987 C 0.45832 0.51983 0.48911 0.0
H988 H 0.02888 0.58396 0.40385 0.0
H989 H 0.0698 0.58148 0.56126 0.0
H990 H 0.03498 0.53894 0.39422 0.0
H991 H 0.07617 0.53578 0.55137 0.0
H992 H 0.04885 0.45071 0.54333 0.0
H993 H 0.0509 0.49627 0.55615 0.0
H994 H 0.06634 0.50682 0.37422 0.0
H995 H 0.06404 0.46167 0.36136 0.0
C996 C 0.03957 0.57384 0.43612 0.0
C997 C 0.04894 0.5865 0.48321 0.0
C998 C 0.04319 0.54788 0.43042 0.0
C999 C 0.05618 0.5335 0.47183 0.0
C1000 C 0.06598 0.54617 0.51871 0.0
C1001 C 0.06257 0.57241 0.52411 0.0
C1002 C 0.05319 0.4627 0.50625 0.0
C1003 C 0.0561 0.45235 0.4512 0.0
C1004 C 0.05439 0.4889 0.51363 0.0
C1005 C 0.05844 0.50542 0.46613 0.0
C1006 C 0.06269 0.49485 0.41172 0.0
C1007 C 0.06152 0.46881 0.40439 0.0
loop_
_geom_bond_atom_site_label_1
_geom_bond_atom_site_label_2
_geom_bond_distance
_geom_bond_site_symmetry_2
_ccdc_geom_bond_type
Cu0 N1 1.999 . S
Cu0 O6 1.974 . S
Cu0 N11 1.985 1_544 S
Cu0 O20 1.959 . S
N1 Cu0 1.999 . S
N1 C3 1.263 . S
N1 C5 1.389 . S
N2 C3 1.358 . S
N2 C4 1.400 . S
C3 N1 1.263 . S
C3 N2 1.358 . S
C3 H9 0.930 . S
C4 N2 1.400 . S
C4 C5 1.351 . S
C4 H21 0.930 . S
C5 N1 1.389 . S
C5 C4 1.351 . S
C5 H10 0.930 . S
O6 Cu0 1.974 . S
O6 C16 1.282 1_545 S
C7 O8 1.261 . S
C7 O20 1.251 1_565 S
O8 C7 1.261 . S
H9 C3 0.930 . S
H10 C5 0.930 . S
N11 Cu0 1.985 1_566 S
N11 C13 1.335 . S
N11 C14 1.390 . S
N12 C13 1.345 . S
N12 C15 1.336 . S
C13 N11 1.335 . S
C13 N12 1.345 . S
C13 H18 0.930 1_565 S
C14 N11 1.390 . S
C14 C15 1.346 . S
C14 H19 0.930 . S
C15 N12 1.336 . S
C15 C14 1.346 . S
C15 H22 0.929 . S
C16 O6 1.282 1_565 S
C16 O17 1.216 . S
O17 C16 1.216 . S
H18 C13 0.930 1_545 S
H19 C14 0.930 . S
O20 Cu0 1.959 . S
O20 C7 1.251 1_545 S
H21 C4 0.930 . S
H22 C15 0.929 . S
Cu23 N24 1.999 . S
Cu23 O29 1.974 . S
Cu23 N34 1.985 . S
Cu23 O43 1.959 . S
N24 Cu23 1.999 . S
N24 C26 1.263 . S
N24 C28 1.389 . S
N25 C26 1.358 . S
N25 C27 1.400 . S
C26 N24 1.263 . S
C26 N25 1.358 . S
C26 H32 0.930 . S
C27 N25 1.400 . S
C27 C28 1.351 . S
C27 H44 0.930 . S
C28 N24 1.389 . S
C28 C27 1.351 . S
C28 H33 0.930 . S
O29 Cu23 1.974 . S
O29 C39 1.282 . S
C30 O31 1.261 . S
C30 O43 1.251 . S
O31 C30 1.261 . S
H32 C26 0.930 . S
H33 C28 0.930 . S
N34 Cu23 1.985 . S
N34 C36 1.335 1_554 S
N34 C37 1.390 1_554 S
N35 C36 1.345 . S
N35 C38 1.336 . S
C36 N34 1.335 1_556 S
C36 N35 1.345 . S
C36 H41 0.930 1_556 S
C37 N34 1.390 1_556 S
C37 C38 1.346 . S
C37 H42 0.930 . S
C38 N35 1.336 . S
C38 C37 1.346 . S
C38 H45 0.929 . S
C39 O29 1.282 . S
C39 O40 1.216 . S
O40 C39 1.216 . S
H41 C36 0.930 1_554 S
H42 C37 0.930 . S
O43 Cu23 1.959 . S
O43 C30 1.251 . S
H44 C27 0.930 . S
H45 C38 0.929 . S
Cu46 N47 1.999 . S
Cu46 O52 1.974 . S
Cu46 N57 1.985 1_554 S
Cu46 O66 1.959 . S
N47 Cu46 1.999 . S
N47 C49 1.263 . S
N47 C51 1.389 . S
N48 C49 1.358 . S
N48 C50 1.400 . S
C49 N47 1.263 . S
C49 N48 1.358 . S
C49 H55 0.930 . S
C50 N48 1.400 . S
C50 C51 1.351 . S
C50 H67 0.930 . S
C51 N47 1.389 . S
C51 C50 1.351 . S
C51 H56 0.930 . S
O52 Cu46 1.974 . S
O52 C62 1.282 . S
C53 O54 1.261 . S
C53 O66 1.251 . S
O54 C53 1.261 . S
H55 C49 0.930 . S
H56 C51 0.930 . S
N57 Cu46 1.985 1_556 S
N57 C59 1.335 . S
N57 C60 1.390 . S
N58 C59 1.345 . S
N58 C61 1.336 . S
C59 N57 1.335 . S
C59 N58 1.345 . S
C59 H64 0.930 1_556 S
C60 N57 1.390 . S
C60 C61 1.346 . S
C60 H65 0.930 . S
C61 N58 1.336 . S
C61 C60 1.346 . S
C61 H68 0.929 . S
C62 O52 1.282 . S
C62 O63 1.216 . S
O63 C62 1.216 . S
H64 C59 0.930 1_554 S
H65 C60 0.930 . S
O66 Cu46 1.959 . S
O66 C53 1.251 . S
H67 C50 0.930 . S
H68 C61 0.929 . S
Cu69 N70 1.999 . S
Cu69 O75 1.974 . S
Cu69 N80 1.985 1_454 S
Cu69 O89 1.959 . S
N70 Cu69 1.999 . S
N70 C72 1.263 . S
N70 C74 1.389 . S
N71 C72 1.358 . S
N71 C73 1.400 . S
C72 N70 1.263 . S
C72 N71 1.358 . S
C72 H78 0.930 . S
C73 N71 1.400 . S
C73 C74 1.351 . S
C73 H90 0.930 . S
C74 N70 1.389 . S
C74 C73 1.351 . S
C74 H79 0.930 . S
O75 Cu69 1.974 . S
O75 C85 1.282 1_455 S
C76 O77 1.261 . S
C76 O89 1.251 1_655 S
O77 C76 1.261 . S
H78 C72 0.930 . S
H79 C74 0.930 . S
N80 Cu69 1.985 1_656 S
N80 C82 1.335 . S
N80 C83 1.390 . S
N81 C82 1.345 . S
N81 C84 1.336 . S
C82 N80 1.335 . S
C82 N81 1.345 . S
C82 H87 0.930 1_655 S
C83 N80 1.390 . S
C83 C84 1.346 . S
C83 H88 0.930 . S
C84 N81 1.336 . S
C84 C83 1.346 . S
C84 H91 0.929 . S
C85 O75 1.282 1_655 S
C85 O86 1.222 . S
O86 C85 1.222 . S
H87 C82 0.930 1_455 S
H88 C83 0.930 . S
O89 Cu69 1.959 . S
O89 C76 1.251 1_455 S
H90 C73 0.930 . S
H91 C84 0.929 . S
Cu92 N93 1.999 . S
Cu92 O98 1.974 . S
Cu92 N103 1.985 1_565 S
Cu92 O112 1.959 . S
N93 Cu92 1.999 . S
N93 C95 1.263 . S
N93 C97 1.389 . S
N94 C95 1.358 . S
N94 C96 1.400 . S
C95 N93 1.263 . S
C95 N94 1.358 . S
C95 H101 0.930 . S
C96 N94 1.400 . S
C96 C97 1.351 . S
C96 H113 0.930 . S
C97 N93 1.389 . S
C97 C96 1.351 . S
C97 H102 0.930 . S
O98 Cu92 1.974 . S
O98 C108 1.282 1_565 S
C99 O100 1.261 . S
C99 O112 1.251 1_545 S
O100 C99 1.261 . S
H101 C95 0.930 . S
H102 C97 0.930 . S
N103 Cu92 1.985 1_545 S
N103 C105 1.335 . S
N103 C106 1.390 . S
N104 C105 1.345 . S
N104 C107 1.336 . S
C105 N103 1.335 . S
C105 N104 1.345 . S
C105 H110 0.930 1_545 S
C106 N103 1.390 . S
C106 C107 1.346 . S
C106 H111 0.930 . S
C107 N104 1.336 . S
C107 C106 1.346 . S
C107 H114 0.929 . S
C108 O98 1.282 1_545 S
C108 O109 1.216 . S
O109 C108 1.216 . S
H110 C105 0.930 1_565 S
H111 C106 0.930 . S
O112 Cu92 1.959 . S
O112 C99 1.251 1_565 S
H113 C96 0.930 . S
H114 C107 0.929 . S
Cu115 N116 1.999 . S
Cu115 O121 1.974 . S
Cu115 N126 1.985 . S
Cu115 O135 1.959 . S
N116 Cu115 1.999 . S
N116 C118 1.263 . S
N116 C120 1.389 . S
N117 C118 1.358 . S
N117 C119 1.400 . S
C118 N116 1.263 . S
C118 N117 1.358 . S
C118 H124 0.930 . S
C119 N117 1.400 . S
C119 C120 1.351 . S
C119 H136 0.930 . S
C120 N116 1.389 . S
C120 C119 1.351 . S
C120 H125 0.930 . S
O121 Cu115 1.974 . S
O121 C131 1.282 . S
C122 O123 1.261 . S
C122 O135 1.251 . S
O123 C122 1.261 . S
H124 C118 0.930 . S
H125 C120 0.930 . S
N126 Cu115 1.985 . S
N126 C128 1.335 . S
N126 C129 1.390 . S
N127 C128 1.345 . S
N127 C130 1.336 . S
C128 N126 1.335 . S
C128 N127 1.345 . S
C128 H133 0.930 . S
C129 N126 1.390 . S
C129 C130 1.346 . S
C129 H134 0.930 . S
C130 N127 1.336 . S
C130 C129 1.346 . S
C130 H137 0.929 . S
C131 O121 1.282 . S
C131 O132 1.216 . S
O132 C131 1.216 . S
H133 C128 0.930 . S
H134 C129 0.930 . S
O135 Cu115 1.959 . S
O135 C122 1.251 . S
H136 C119 0.930 . S
H137 C130 0.929 . S
Cu138 N139 1.999 . S
Cu138 O144 1.974 . S
Cu138 N149 1.985 . S
Cu138 O158 1.959 . S
N139 Cu138 1.999 . S
N139 C141 1.263 . S
N139 C143 1.389 . S
N140 C141 1.358 . S
N140 C142 1.400 . S
C141 N139 1.263 . S
C141 N140 1.358 . S
C141 H147 0.930 . S
C142 N140 1.400 . S
C142 C143 1.351 . S
C142 H159 0.930 . S
C143 N139 1.389 . S
C143 C142 1.351 . S
C143 H148 0.930 . S
O144 Cu138 1.974 . S
O144 C154 1.282 . S
C145 O146 1.261 . S
C145 O158 1.251 . S
O146 C145 1.261 . S
H147 C141 0.930 . S
H148 C143 0.930 . S
N149 Cu138 1.985 . S
N149 C151 1.335 . S
N149 C152 1.390 . S
N150 C151 1.345 . S
N150 C153 1.336 . S
C151 N149 1.335 . S
C151 N150 1.345 . S
C151 H156 0.930 . S
C152 N149 1.390 . S
C152 C153 1.346 . S
C152 H157 0.930 . S
C153 N150 1.336 . S
C153 C152 1.346 . S
C153 H160 0.929 . S
C154 O144 1.282 . S
C154 O155 1.216 . S
O155 C154 1.216 . S
H156 C151 0.930 . S
H157 C152 0.930 . S
O158 Cu138 1.959 . S
O158 C145 1.251 . S
H159 C142 0.930 . S
H160 C153 0.929 . S
Cu161 N162 1.999 . S
Cu161 O167 1.974 . S
Cu161 N172 1.985 1_655 S
Cu161 O181 1.959 . S
N162 Cu161 1.999 . S
N162 C164 1.263 . S
N162 C166 1.389 . S
N163 C164 1.358 . S
N163 C165 1.400 . S
C164 N162 1.263 . S
C164 N163 1.358 . S
C164 H170 0.930 . S
C165 N163 1.400 . S
C165 C166 1.351 . S
C165 H182 0.930 . S
C166 N162 1.389 . S
C166 C165 1.351 . S
C166 H171 0.930 . S
O167 Cu161 1.974 . S
O167 C177 1.282 1_655 S
C168 O169 1.261 . S
C168 O181 1.251 1_455 S
O169 C168 1.261 . S
H170 C164 0.930 . S
H171 C166 0.930 . S
N172 Cu161 1.985 1_455 S
N172 C174 1.335 . S
N172 C175 1.390 . S
N173 C174 1.345 . S
N173 C176 1.336 . S
C174 N172 1.335 . S
C174 N173 1.345 . S
C174 H179 0.930 1_455 S
C175 N172 1.390 . S
C175 C176 1.346 . S
C175 H180 0.930 . S
C176 N173 1.336 . S
C176 C175 1.346 . S
C176 H183 0.929 . S
C177 O167 1.282 1_455 S
C177 O178 1.216 . S
O178 C177 1.216 . S
H179 C174 0.930 1_655 S
H180 C175 0.930 . S
O181 Cu161 1.959 . S
O181 C168 1.251 1_655 S
H182 C165 0.930 . S
H183 C176 0.929 . S
Cu184 N185 1.999 . S
Cu184 O190 1.974 . S
Cu184 N195 1.985 1_566 S
Cu184 O204 1.959 . S
N185 Cu184 1.999 . S
N185 C187 1.263 . S
N185 C189 1.389 . S
N186 C187 1.358 . S
N186 C188 1.400 . S
C187 N185 1.263 . S
C187 N186 1.358 . S
C187 H193 0.930 . S
C188 N186 1.400 . S
C188 C189 1.351 . S
C188 H205 0.930 . S
C189 N185 1.389 . S
C189 C188 1.351 . S
C189 H194 0.930 . S
O190 Cu184 1.974 . S
O190 C200 1.282 1_565 S
C191 O192 1.261 . S
C191 O204 1.251 1_545 S
O192 C191 1.261 . S
H193 C187 0.930 . S
H194 C189 0.930 . S
N195 Cu184 1.985 1_544 S
N195 C197 1.335 . S
N195 C198 1.390 . S
N196 C197 1.345 . S
N196 C199 1.336 . S
C197 N195 1.335 . S
C197 N196 1.345 . S
C197 H202 0.930 1_545 S
C198 N195 1.390 . S
C198 C199 1.346 . S
C198 H203 0.930 . S
C199 N196 1.336 . S
C199 C198 1.346 . S
C199 H206 0.929 . S
C200 O190 1.282 1_545 S
C200 O201 1.216 . S
O201 C200 1.216 . S
H202 C197 0.930 1_565 S
H203 C198 0.930 . S
O204 Cu184 1.959 . S
O204 C191 1.251 1_565 S
H205 C188 0.930 . S
H206 C199 0.929 . S
Cu207 N208 1.999 . S
Cu207 O213 1.974 . S
Cu207 N218 1.985 . S
Cu207 O227 1.959 . S
N208 Cu207 1.999 . S
N208 C210 1.263 . S
N208 C212 1.389 . S
N209 C210 1.358 . S
N209 C211 1.400 . S
C210 N208 1.263 . S
C210 N209 1.358 . S
C210 H216 0.930 . S
C211 N209 1.400 . S
C211 C212 1.351 . S
C211 H228 0.930 . S
C212 N208 1.389 . S
C212 C211 1.351 . S
C212 H217 0.930 . S
O213 Cu207 1.974 . S
O213 C223 1.282 . S
C214 O215 1.261 . S
C214 O227 1.251 . S
O215 C214 1.261 . S
H216 C210 0.930 . S
H217 C212 0.930 . S
N218 Cu207 1.985 . S
N218 C220 1.335 1_556 S
N218 C221 1.390 1_556 S
N219 C220 1.345 . S
N219 C222 1.336 . S
C220 N218 1.335 1_554 S
C220 N219 1.345 . S
C220 H225 0.930 1_554 S
C221 N218 1.390 1_554 S
C221 C222 1.346 . S
C221 H226 0.930 . S
C222 N219 1.336 . S
C222 C221 1.346 . S
C222 H229 0.929 . S
C223 O213 1.282 . S
C223 O224 1.216 . S
O224 C223 1.216 . S
H225 C220 0.930 1_556 S
H226 C221 0.930 . S
O227 Cu207 1.959 . S
O227 C214 1.251 . S
H228 C211 0.930 . S
H229 C222 0.929 . S
Cu230 N231 1.999 . S
Cu230 O236 1.974 . S
Cu230 N241 1.985 1_556 S
Cu230 O250 1.959 . S
N231 Cu230 1.999 . S
N231 C233 1.263 . S
N231 C235 1.389 . S
N232 C233 1.358 . S
N232 C234 1.400 . S
C233 N231 1.263 . S
C233 N232 1.358 . S
C233 H239 0.930 . S
C234 N232 1.400 . S
C234 C235 1.351 . S
C234 H251 0.930 . S
C235 N231 1.389 . S
C235 C234 1.351 . S
C235 H240 0.930 . S
O236 Cu230 1.974 . S
O236 C246 1.282 . S
C237 O238 1.261 . S
C237 O250 1.251 . S
O238 C237 1.261 . S
H239 C233 0.930 . S
H240 C235 0.930 . S
N241 Cu230 1.985 1_554 S
N241 C243 1.335 . S
N241 C244 1.390 . S
N242 C243 1.345 . S
N242 C245 1.336 . S
C243 N241 1.335 . S
C243 N242 1.345 . S
C243 H248 0.930 1_554 S
C244 N241 1.390 . S
C244 C245 1.346 . S
C244 H249 0.930 . S
C245 N242 1.336 . S
C245 C244 1.346 . S
C245 H252 0.929 . S
C246 O236 1.282 . S
C246 O247 1.216 . S
O247 C246 1.216 . S
H248 C243 0.930 1_556 S
H249 C244 0.930 . S
O250 Cu230 1.959 . S
O250 C237 1.251 . S
H251 C234 0.930 . S
H252 C245 0.929 . S
Cu253 N254 1.999 . S
Cu253 O259 1.974 . S
Cu253 N264 1.985 1_656 S
Cu253 O273 1.959 . S
N254 Cu253 1.999 . S
N254 C256 1.263 . S
N254 C258 1.389 . S
N255 C256 1.358 . S
N255 C257 1.400 . S
C256 N254 1.263 . S
C256 N255 1.358 . S
C256 H262 0.930 . S
C257 N255 1.400 . S
C257 C258 1.351 . S
C257 H274 0.930 . S
C258 N254 1.389 . S
C258 C257 1.351 . S
C258 H263 0.930 . S
O259 Cu253 1.974 . S
O259 C269 1.282 1_655 S
C260 O261 1.261 . S
C260 O273 1.251 1_455 S
O261 C260 1.261 . S
H262 C256 0.930 . S
H263 C258 0.930 . S
N264 Cu253 1.985 1_454 S
N264 C266 1.335 . S
N264 C267 1.390 . S
N265 C266 1.345 . S
N265 C268 1.336 . S
C266 N264 1.335 . S
C266 N265 1.345 . S
C266 H271 0.930 1_455 S
C267 N264 1.390 . S
C267 C268 1.346 . S
C267 H272 0.930 . S
C268 N265 1.336 . S
C268 C267 1.346 . S
C268 H275 0.929 . S
C269 O259 1.282 1_455 S
C269 O270 1.222 . S
O270 C269 1.222 . S
H271 C266 0.930 1_655 S
H272 C267 0.930 . S
O273 Cu253 1.959 . S
O273 C260 1.251 1_655 S
H274 C257 0.930 . S
H275 C268 0.929 . S
Cu276 N277 1.999 . S
Cu276 O282 1.974 . S
Cu276 N287 1.985 1_545 S
Cu276 O296 1.959 . S
N277 Cu276 1.999 . S
N277 C279 1.263 . S
N277 C281 1.389 . S
N278 C279 1.358 . S
N278 C280 1.400 . S
C279 N277 1.263 . S
C279 N278 1.358 . S
C279 H285 0.930 . S
C280 N278 1.400 . S
C280 C281 1.351 . S
C280 H297 0.930 . S
C281 N277 1.389 . S
C281 C280 1.351 . S
C281 H286 0.930 . S
O282 Cu276 1.974 . S
O282 C292 1.282 1_545 S
C283 O284 1.261 . S
C283 O296 1.251 1_565 S
O284 C283 1.261 . S
H285 C279 0.930 . S
H286 C281 0.930 . S
N287 Cu276 1.985 1_565 S
N287 C289 1.335 . S
N287 C290 1.390 . S
N288 C289 1.345 . S
N288 C291 1.336 . S
C289 N287 1.335 . S
C289 N288 1.345 . S
C289 H294 0.930 1_565 S
C290 N287 1.390 . S
C290 C291 1.346 . S
C290 H295 0.930 . S
C291 N288 1.336 . S
C291 C290 1.346 . S
C291 H298 0.929 . S
C292 O282 1.282 1_565 S
C292 O293 1.216 . S
O293 C292 1.216 . S
H294 C289 0.930 1_545 S
H295 C290 0.930 . S
O296 Cu276 1.959 . S
O296 C283 1.251 1_545 S
H297 C280 0.930 . S
H298 C291 0.929 . S
Cu299 N300 1.999 . S
Cu299 O305 1.974 . S
Cu299 N310 1.985 . S
Cu299 O319 1.959 . S
N300 Cu299 1.999 . S
N300 C302 1.263 . S
N300 C304 1.389 . S
N301 C302 1.358 . S
N301 C303 1.400 . S
C302 N300 1.263 . S
C302 N301 1.358 . S
C302 H308 0.930 . S
C303 N301 1.400 . S
C303 C304 1.351 . S
C303 H320 0.930 . S
C304 N300 1.389 . S
C304 C303 1.351 . S
C304 H309 0.930 . S
O305 Cu299 1.974 . S
O305 C315 1.282 . S
C306 O307 1.261 . S
C306 O319 1.251 . S
O307 C306 1.261 . S
H308 C302 0.930 . S
H309 C304 0.930 . S
N310 Cu299 1.985 . S
N310 C312 1.335 . S
N310 C313 1.390 . S
N311 C312 1.345 . S
N311 C314 1.336 . S
C312 N310 1.335 . S
C312 N311 1.345 . S
C312 H317 0.930 . S
C313 N310 1.390 . S
C313 C314 1.346 . S
C313 H318 0.930 . S
C314 N311 1.336 . S
C314 C313 1.346 . S
C314 H321 0.929 . S
C315 O305 1.282 . S
C315 O316 1.216 . S
O316 C315 1.216 . S
H317 C312 0.930 . S
H318 C313 0.930 . S
O319 Cu299 1.959 . S
O319 C306 1.251 . S
H320 C303 0.930 . S
H321 C314 0.929 . S
Cu322 N323 1.999 . S
Cu322 O328 1.974 . S
Cu322 N333 1.985 . S
Cu322 O342 1.959 . S
N323 Cu322 1.999 . S
N323 C325 1.263 . S
N323 C327 1.389 . S
N324 C325 1.358 . S
N324 C326 1.400 . S
C325 N323 1.263 . S
C325 N324 1.358 . S
C325 H331 0.930 . S
C326 N324 1.400 . S
C326 C327 1.351 . S
C326 H343 0.930 . S
C327 N323 1.389 . S
C327 C326 1.351 . S
C327 H332 0.930 . S
O328 Cu322 1.974 . S
O328 C338 1.282 . S
C329 O330 1.261 . S
C329 O342 1.251 . S
O330 C329 1.261 . S
H331 C325 0.930 . S
H332 C327 0.930 . S
N333 Cu322 1.985 . S
N333 C335 1.335 . S
N333 C336 1.390 . S
N334 C335 1.345 . S
N334 C337 1.336 . S
C335 N333 1.335 . S
C335 N334 1.345 . S
C335 H340 0.930 . S
C336 N333 1.390 . S
C336 C337 1.346 . S
C336 H341 0.930 . S
C337 N334 1.336 . S
C337 C336 1.346 . S
C337 H344 0.929 . S
C338 O328 1.282 . S
C338 O339 1.216 . S
O339 C338 1.216 . S
H340 C335 0.930 . S
H341 C336 0.930 . S
O342 Cu322 1.959 . S
O342 C329 1.251 . S
H343 C326 0.930 . S
H344 C337 0.929 . S
Cu345 N346 1.999 . S
Cu345 O351 1.974 . S
Cu345 N356 1.985 1_455 S
Cu345 O365 1.959 . S
N346 Cu345 1.999 . S
N346 C348 1.263 . S
N346 C350 1.389 . S
N347 C348 1.358 . S
N347 C349 1.400 . S
C348 N346 1.263 . S
C348 N347 1.358 . S
C348 H354 0.930 . S
C349 N347 1.400 . S
C349 C350 1.351 . S
C349 H366 0.930 . S
C350 N346 1.389 . S
C350 C349 1.351 . S
C350 H355 0.930 . S
O351 Cu345 1.974 . S
O351 C361 1.282 1_455 S
C352 O353 1.261 . S
C352 O365 1.251 1_655 S
O353 C352 1.261 . S
H354 C348 0.930 . S
H355 C350 0.930 . S
N356 Cu345 1.985 1_655 S
N356 C358 1.335 . S
N356 C359 1.390 . S
N357 C358 1.345 . S
N357 C360 1.336 . S
C358 N356 1.335 . S
C358 N357 1.345 . S
C358 H363 0.930 1_655 S
C359 N356 1.390 . S
C359 C360 1.346 . S
C359 H364 0.930 . S
C360 N357 1.336 . S
C360 C359 1.346 . S
C360 H367 0.929 . S
C361 O351 1.282 1_655 S
C361 O362 1.216 . S
O362 C361 1.216 . S
H363 C358 0.930 1_455 S
H364 C359 0.930 . S
O365 Cu345 1.959 . S
O365 C352 1.251 1_455 S
H366 C349 0.930 . S
H367 C360 0.929 . S
H368 C376 0.950 . S
H369 C381 0.950 . S
H370 C378 0.950 . S
H371 C380 0.950 . S
H372 C382 0.950 . S
H373 C384 0.950 . S
H374 C386 0.950 . S
H375 C387 0.950 . S
C376 H368 0.950 . S
C376 C377 1.386 . S
C376 C378 1.391 . S
C377 C376 1.386 . S
C377 C381 1.393 . S
C378 H370 0.950 . S
C378 C376 1.391 . S
C378 C379 1.400 . S
C379 C378 1.400 . S
C379 C380 1.398 . S
C379 C385 1.491 . S
C380 H371 0.950 . S
C380 C379 1.398 . S
C380 C381 1.391 . S
C381 H369 0.950 . S
C381 C377 1.393 . S
C381 C380 1.391 . S
C382 H372 0.950 . S
C382 C383 1.386 . S
C382 C384 1.391 . S
C383 C382 1.386 . S
C383 C387 1.393 . S
C384 H373 0.950 . S
C384 C382 1.391 . S
C384 C385 1.400 . S
C385 C379 1.491 . S
C385 C384 1.400 . S
C385 C386 1.398 . S
C386 H374 0.950 . S
C386 C385 1.398 . S
C386 C387 1.391 . S
C387 H375 0.950 . S
C387 C383 1.393 . S
C387 C386 1.391 . S
H388 C396 0.950 . S
H389 C401 0.950 . S
H390 C398 0.950 . S
H391 C400 0.950 . S
H392 C402 0.950 . S
H393 C404 0.950 . S
H394 C406 0.950 . S
H395 C407 0.950 . S
C396 H388 0.950 . S
C396 C397 1.386 . S
C396 C398 1.391 . S
C397 C396 1.386 . S
C397 C401 1.393 . S
C398 H390 0.950 . S
C398 C396 1.391 . S
C398 C399 1.400 . S
C399 C398 1.400 . S
C399 C400 1.398 . S
C399 C405 1.491 . S
C400 H391 0.950 . S
C400 C399 1.398 . S
C400 C401 1.391 . S
C401 H389 0.950 . S
C401 C397 1.393 . S
C401 C400 1.391 . S
C402 H392 0.950 . S
C402 C403 1.386 . S
C402 C404 1.391 . S
C403 C402 1.386 . S
C403 C407 1.393 . S
C404 H393 0.950 . S
C404 C402 1.391 . S
C404 C405 1.400 . S
C405 C399 1.491 . S
C405 C404 1.400 . S
C405 C406 1.398 . S
C406 H394 0.950 . S
C406 C405 1.398 . S
C406 C407 1.391 . S
C407 H395 0.950 . S
C407 C403 1.393 . S
C407 C406 1.391 . S
H408 C416 0.950 . S
H409 C421 0.950 . S
H410 C418 0.950 . S
H411 C420 0.950 . S
H412 C422 0.950 . S
H413 C424 0.950 . S
H414 C426 0.950 . S
H415 C427 0.950 . S
C416 H408 0.950 . S
C416 C417 1.386 . S
C416 C418 1.391 . S
C417 C416 1.386 . S
C417 C421 1.393 . S
C418 H410 0.950 . S
C418 C416 1.391 . S
C418 C419 1.400 . S
C419 C418 1.400 . S
C419 C420 1.398 . S
C419 C425 1.491 . S
C420 H411 0.950 . S
C420 C419 1.398 . S
C420 C421 1.391 . S
C421 H409 0.950 . S
C421 C417 1.393 . S
C421 C420 1.391 . S
C422 H412 0.950 . S
C422 C423 1.386 . S
C422 C424 1.391 . S
C423 C422 1.386 . S
C423 C427 1.393 . S
C424 H413 0.950 . S
C424 C422 1.391 . S
C424 C425 1.400 . S
C425 C419 1.491 . S
C425 C424 1.400 . S
C425 C426 1.398 . S
C426 H414 0.950 . S
C426 C425 1.398 . S
C426 C427 1.391 . S
C427 H415 0.950 . S
C427 C423 1.393 . S
C427 C426 1.391 . S
H428 C436 0.933 1_655 S
H429 C441 0.950 . S
H430 C438 0.950 . S
H431 C440 0.950 . S
H432 C442 0.950 . S
H433 C444 0.950 . S
H434 C446 0.950 . S
H435 C447 0.950 . S
C436 H428 0.933 1_455 S
C436 C437 1.386 . S
C436 C438 1.391 . S
C437 C436 1.386 . S
C437 C441 1.393 . S
C438 H430 0.950 . S
C438 C436 1.391 . S
C438 C439 1.400 . S
C439 C438 1.400 . S
C439 C440 1.398 . S
C439 C445 1.491 . S
C440 H431 0.950 . S
C440 C439 1.398 . S
C440 C441 1.391 . S
C441 H429 0.950 . S
C441 C437 1.393 . S
C441 C440 1.391 . S
C442 H432 0.950 . S
C442 C443 1.386 . S
C442 C444 1.391 . S
C443 C442 1.386 . S
C443 C447 1.393 . S
C444 H433 0.950 . S
C444 C442 1.391 . S
C444 C445 1.400 . S
C445 C439 1.491 . S
C445 C444 1.400 . S
C445 C446 1.398 . S
C446 H434 0.950 . S
C446 C445 1.398 . S
C446 C447 1.391 . S
C447 H435 0.950 . S
C447 C443 1.393 . S
C447 C446 1.391 . S
H448 C456 0.950 . S
H449 C461 0.950 . S
H450 C458 0.950 . S
H451 C460 0.950 . S
H452 C462 0.950 . S
H453 C464 0.950 . S
H454 C466 0.950 . S
H455 C467 0.950 . S
C456 H448 0.950 . S
C456 C457 1.386 . S
C456 C458 1.391 . S
C457 C456 1.386 . S
C457 C461 1.393 . S
C458 H450 0.950 . S
C458 C456 1.391 . S
C458 C459 1.400 . S
C459 C458 1.400 . S
C459 C460 1.398 . S
C459 C465 1.491 . S
C460 H451 0.950 . S
C460 C459 1.398 . S
C460 C461 1.391 . S
C461 H449 0.950 . S
C461 C457 1.393 . S
C461 C460 1.391 . S
C462 H452 0.950 . S
C462 C463 1.386 . S
C462 C464 1.391 . S
C463 C462 1.386 . S
C463 C467 1.393 . S
C464 H453 0.950 . S
C464 C462 1.391 . S
C464 C465 1.400 . S
C465 C459 1.491 . S
C465 C464 1.400 . S
C465 C466 1.398 . S
C466 H454 0.950 . S
C466 C465 1.398 . S
C466 C467 1.391 . S
C467 H455 0.950 . S
C467 C463 1.393 . S
C467 C466 1.391 . S
H468 C476 0.950 . S
H469 C481 0.950 . S
H470 C478 0.950 . S
H471 C480 0.950 . S
H472 C482 0.950 . S
H473 C484 0.950 . S
H474 C486 0.950 . S
H475 C487 0.950 . S
C476 H468 0.950 . S
C476 C477 1.386 . S
C476 C478 1.391 . S
C477 C476 1.386 . S
C477 C481 1.393 . S
C478 H470 0.950 . S
C478 C476 1.391 . S
C478 C479 1.400 . S
C479 C478 1.400 . S
C479 C480 1.398 . S
C479 C485 1.491 . S
C480 H471 0.950 . S
C480 C479 1.398 . S
C480 C481 1.391 . S
C481 H469 0.950 . S
C481 C477 1.393 . S
C481 C480 1.391 . S
C482 H472 0.950 . S
C482 C483 1.386 . S
C482 C484 1.391 . S
C483 C482 1.386 . S
C483 C487 1.393 . S
C484 H473 0.950 . S
C484 C482 1.391 . S
C484 C485 1.400 . S
C485 C479 1.491 . S
C485 C484 1.400 . S
C485 C486 1.398 . S
C486 H474 0.950 . S
C486 C485 1.398 . S
C486 C487 1.391 . S
C487 H475 0.950 . S
C487 C483 1.393 . S
C487 C486 1.391 . S
H488 C496 0.950 . S
H489 C501 0.950 1_655 S
H490 C498 0.950 . S
H491 C500 0.950 . S
H492 C502 0.950 . S
H493 C504 0.950 . S
H494 C506 0.950 . S
H495 C507 0.950 . S
C496 H488 0.950 . S
C496 C497 1.386 . S
C496 C498 1.391 . S
C497 C496 1.386 . S
C497 C501 1.393 . S
C498 H490 0.950 . S
C498 C496 1.391 . S
C498 C499 1.400 . S
C499 C498 1.400 . S
C499 C500 1.398 . S
C499 C505 1.491 . S
C500 H491 0.950 . S
C500 C499 1.398 . S
C500 C501 1.391 . S
C501 H489 0.950 1_455 S
C501 C497 1.393 . S
C501 C500 1.391 . S
C502 H492 0.950 . S
C502 C503 1.386 . S
C502 C504 1.391 . S
C503 C502 1.386 . S
C503 C507 1.393 . S
C504 H493 0.950 . S
C504 C502 1.391 . S
C504 C505 1.400 . S
C505 C499 1.491 . S
C505 C504 1.400 . S
C505 C506 1.398 . S
C506 H494 0.950 . S
C506 C505 1.398 . S
C506 C507 1.391 . S
C507 H495 0.950 . S
C507 C503 1.393 . S
C507 C506 1.391 . S
H508 C516 0.922 1_455 S
H509 C521 0.950 . S
H510 C518 0.950 . S
H511 C520 0.950 . S
H512 C522 0.950 . S
H513 C524 0.950 . S
H514 C526 0.950 . S
H515 C527 0.950 . S
C516 H508 0.922 1_655 S
C516 C517 1.386 . S
C516 C518 1.391 . S
C517 C516 1.386 . S
C517 C521 1.393 . S
C518 H510 0.950 . S
C518 C516 1.391 . S
C518 C519 1.400 . S
C519 C518 1.400 . S
C519 C520 1.398 . S
C519 C525 1.491 . S
C520 H511 0.950 . S
C520 C519 1.398 . S
C520 C521 1.391 . S
C521 H509 0.950 . S
C521 C517 1.393 . S
C521 C520 1.391 . S
C522 H512 0.950 . S
C522 C523 1.386 . S
C522 C524 1.391 . S
C523 C522 1.386 . S
C523 C527 1.393 . S
C524 H513 0.950 . S
C524 C522 1.391 . S
C524 C525 1.400 . S
C525 C519 1.491 . S
C525 C524 1.400 . S
C525 C526 1.398 . S
C526 H514 0.950 . S
C526 C525 1.398 . S
C526 C527 1.391 . S
C527 H515 0.950 . S
C527 C523 1.393 . S
C527 C526 1.391 . S
H528 C536 0.950 . S
H529 C541 0.950 . S
H530 C538 0.950 . S
H531 C540 0.950 . S
H532 C542 0.950 . S
H533 C544 0.950 . S
H534 C546 0.950 . S
H535 C547 0.950 . S
C536 H528 0.950 . S
C536 C537 1.386 1_545 S
C536 C538 1.391 . S
C537 C536 1.386 1_565 S
C537 C541 1.393 . S
C538 H530 0.950 . S
C538 C536 1.391 . S
C538 C539 1.400 1_545 S
C539 C538 1.400 1_565 S
C539 C540 1.398 . S
C539 C545 1.491 . S
C540 H531 0.950 . S
C540 C539 1.398 . S
C540 C541 1.391 . S
C541 H529 0.950 . S
C541 C537 1.393 . S
C541 C540 1.391 . S
C542 H532 0.950 . S
C542 C543 1.386 . S
C542 C544 1.391 . S
C543 C542 1.386 . S
C543 C547 1.393 1_565 S
C544 H533 0.950 . S
C544 C542 1.391 . S
C544 C545 1.400 . S
C545 C539 1.491 . S
C545 C544 1.400 . S
C545 C546 1.398 1_565 S
C546 H534 0.950 . S
C546 C545 1.398 1_545 S
C546 C547 1.391 . S
C547 H535 0.950 . S
C547 C543 1.393 1_545 S
C547 C546 1.391 . S
H548 C556 0.950 . S
H549 C561 0.950 . S
H550 C558 0.950 . S
H551 C560 0.950 . S
H552 C562 0.950 . S
H553 C564 0.950 . S
H554 C566 0.950 . S
H555 C567 0.950 . S
C556 H548 0.950 . S
C556 C557 1.386 . S
C556 C558 1.391 . S
C557 C556 1.386 . S
C557 C561 1.393 . S
C558 H550 0.950 . S
C558 C556 1.391 . S
C558 C559 1.400 . S
C559 C558 1.400 . S
C559 C560 1.398 . S
C559 C565 1.491 . S
C560 H551 0.950 . S
C560 C559 1.398 . S
C560 C561 1.391 . S
C561 H549 0.950 . S
C561 C557 1.393 . S
C561 C560 1.391 . S
C562 H552 0.950 . S
C562 C563 1.386 . S
C562 C564 1.391 . S
C563 C562 1.386 . S
C563 C567 1.393 . S
C564 H553 0.950 . S
C564 C562 1.391 . S
C564 C565 1.400 . S
C565 C559 1.491 . S
C565 C564 1.400 . S
C565 C566 1.398 . S
C566 H554 0.950 . S
C566 C565 1.398 . S
C566 C567 1.391 . S
C567 H555 0.950 . S
C567 C563 1.393 . S
C567 C566 1.391 . S
H568 C576 0.950 . S
H569 C581 0.950 . S
H570 C578 0.950 . S
H571 C580 0.950 . S
H572 C582 0.950 . S
H573 C584 0.950 . S
H574 C586 0.950 . S
H575 C587 0.950 . S
C576 H568 0.950 . S
C576 C577 1.386 . S
C576 C578 1.391 . S
C577 C576 1.386 . S
C577 C581 1.393 . S
C578 H570 0.950 . S
C578 C576 1.391 . S
C578 C579 1.400 . S
C579 C578 1.400 . S
C579 C580 1.398 . S
C579 C585 1.491 . S
C580 H571 0.950 . S
C580 C579 1.398 . S
C580 C581 1.391 . S
C581 H569 0.950 . S
C581 C577 1.393 . S
C581 C580 1.391 . S
C582 H572 0.950 . S
C582 C583 1.386 . S
C582 C584 1.391 . S
C583 C582 1.386 . S
C583 C587 1.393 . S
C584 H573 0.950 . S
C584 C582 1.391 . S
C584 C585 1.400 . S
C585 C579 1.491 . S
C585 C584 1.400 . S
C585 C586 1.398 . S
C586 H574 0.950 . S
C586 C585 1.398 . S
C586 C587 1.391 . S
C587 H575 0.950 . S
C587 C583 1.393 . S
C587 C586 1.391 . S
H588 C596 0.950 1_455 S
H589 C601 0.950 . S
H590 C598 0.950 1_455 S
H591 C600 0.950 . S
H592 C602 0.950 . S
H593 C604 0.950 . S
H594 C606 0.950 . S
H595 C607 0.950 . S
C596 H588 0.950 1_655 S
C596 C597 1.386 . S
C596 C598 1.391 . S
C597 C596 1.386 . S
C597 C601 1.393 . S
C598 H590 0.950 1_655 S
C598 C596 1.391 . S
C598 C599 1.400 . S
C599 C598 1.400 . S
C599 C600 1.398 . S
C599 C605 1.491 . S
C600 H591 0.950 . S
C600 C599 1.398 . S
C600 C601 1.391 . S
C601 H589 0.950 . S
C601 C597 1.393 . S
C601 C600 1.391 . S
C602 H592 0.950 . S
C602 C603 1.386 . S
C602 C604 1.391 . S
C603 C602 1.386 . S
C603 C607 1.393 1_655 S
C604 H593 0.950 . S
C604 C602 1.391 . S
C604 C605 1.400 . S
C605 C599 1.491 . S
C605 C604 1.400 . S
C605 C606 1.398 1_655 S
C606 H594 0.950 . S
C606 C605 1.398 1_455 S
C606 C607 1.391 . S
C607 H595 0.950 . S
C607 C603 1.393 1_455 S
C607 C606 1.391 . S
H608 C616 0.950 . S
H609 C621 0.950 . S
H610 C618 0.950 . S
H611 C620 0.950 . S
H612 C622 0.950 . S
H613 C624 0.950 . S
H614 C626 0.950 . S
H615 C627 0.950 . S
C616 H608 0.950 . S
C616 C617 1.386 1_565 S
C616 C618 1.391 . S
C617 C616 1.386 1_545 S
C617 C621 1.393 . S
C618 H610 0.950 . S
C618 C616 1.391 . S
C618 C619 1.400 1_565 S
C619 C618 1.400 1_545 S
C619 C620 1.398 . S
C619 C625 1.491 . S
C620 H611 0.950 . S
C620 C619 1.398 . S
C620 C621 1.391 . S
C621 H609 0.950 . S
C621 C617 1.393 . S
C621 C620 1.391 . S
C622 H612 0.950 . S
C622 C623 1.386 . S
C622 C624 1.391 . S
C623 C622 1.386 . S
C623 C627 1.393 1_545 S
C624 H613 0.950 . S
C624 C622 1.391 . S
C624 C625 1.400 . S
C625 C619 1.491 . S
C625 C624 1.400 . S
C625 C626 1.398 1_545 S
C626 H614 0.950 . S
C626 C625 1.398 1_565 S
C626 C627 1.391 . S
C627 H615 0.950 . S
C627 C623 1.393 1_565 S
C627 C626 1.391 . S
H628 C636 0.950 . S
H629 C641 0.950 . S
H630 C638 0.950 . S
H631 C640 0.950 . S
H632 C642 0.950 . S
H633 C644 0.950 . S
H634 C646 0.950 . S
H635 C647 0.950 . S
C636 H628 0.950 . S
C636 C637 1.386 . S
C636 C638 1.391 . S
C637 C636 1.386 . S
C637 C641 1.393 . S
C638 H630 0.950 . S
C638 C636 1.391 . S
C638 C639 1.400 . S
C639 C638 1.400 . S
C639 C640 1.398 . S
C639 C645 1.491 . S
C640 H631 0.950 . S
C640 C639 1.398 . S
C640 C641 1.391 . S
C641 H629 0.950 . S
C641 C637 1.393 . S
C641 C640 1.391 . S
C642 H632 0.950 . S
C642 C643 1.386 . S
C642 C644 1.391 . S
C643 C642 1.386 . S
C643 C647 1.393 . S
C644 H633 0.950 . S
C644 C642 1.391 . S
C644 C645 1.400 . S
C645 C639 1.491 . S
C645 C644 1.400 . S
C645 C646 1.398 . S
C646 H634 0.950 . S
C646 C645 1.398 . S
C646 C647 1.391 . S
C647 H635 0.950 . S
C647 C643 1.393 . S
C647 C646 1.391 . S
H648 C656 0.950 . S
H649 C661 0.950 . S
H650 C658 0.950 . S
H651 C660 0.950 . S
H652 C662 0.950 . S
H653 C664 0.950 . S
H654 C666 0.950 . S
H655 C667 0.950 . S
C656 H648 0.950 . S
C656 C657 1.386 . S
C656 C658 1.391 . S
C657 C656 1.386 . S
C657 C661 1.393 . S
C658 H650 0.950 . S
C658 C656 1.391 . S
C658 C659 1.400 . S
C659 C658 1.400 . S
C659 C660 1.398 . S
C659 C665 1.491 . S
C660 H651 0.950 . S
C660 C659 1.398 . S
C660 C661 1.391 . S
C661 H649 0.950 . S
C661 C657 1.393 . S
C661 C660 1.391 . S
C662 H652 0.950 . S
C662 C663 1.386 . S
C662 C664 1.391 . S
C663 C662 1.386 . S
C663 C667 1.393 . S
C664 H653 0.950 . S
C664 C662 1.391 . S
C664 C665 1.400 . S
C665 C659 1.491 . S
C665 C664 1.400 . S
C665 C666 1.398 . S
C666 H654 0.950 . S
C666 C665 1.398 . S
C666 C667 1.391 . S
C667 H655 0.950 . S
C667 C663 1.393 . S
C667 C666 1.391 . S
H668 C676 0.950 . S
H669 C681 0.950 . S
H670 C678 0.950 . S
H671 C680 0.950 . S
H672 C682 0.950 . S
H673 C684 0.950 . S
H674 C686 0.950 . S
H675 C687 0.950 . S
C676 H668 0.950 . S
C676 C677 1.386 1_655 S
C676 C678 1.391 . S
C677 C676 1.386 1_455 S
C677 C681 1.393 . S
C678 H670 0.950 . S
C678 C676 1.391 . S
C678 C679 1.400 1_655 S
C679 C678 1.400 1_455 S
C679 C680 1.398 . S
C679 C685 1.491 . S
C680 H671 0.950 . S
C680 C679 1.398 . S
C680 C681 1.391 . S
C681 H669 0.950 . S
C681 C677 1.393 . S
C681 C680 1.391 . S
C682 H672 0.950 . S
C682 C683 1.386 . S
C682 C684 1.391 . S
C683 C682 1.386 . S
C683 C687 1.393 1_455 S
C684 H673 0.950 . S
C684 C682 1.391 . S
C684 C685 1.400 . S
C685 C679 1.491 . S
C685 C684 1.400 . S
C685 C686 1.398 1_455 S
C686 H674 0.950 . S
C686 C685 1.398 1_655 S
C686 C687 1.391 . S
C687 H675 0.950 . S
C687 C683 1.393 1_655 S
C687 C686 1.391 . S
H688 C696 0.950 . S
H689 C701 0.950 . S
H690 C698 0.950 . S
H691 C700 0.950 . S
H692 C702 0.950 . S
H693 C704 0.950 . S
H694 C706 0.950 . S
H695 C707 0.950 . S
C696 H688 0.950 . S
C696 C697 1.386 1_565 S
C696 C698 1.391 . S
C697 C696 1.386 1_545 S
C697 C701 1.393 . S
C698 H690 0.950 . S
C698 C696 1.391 . S
C698 C699 1.400 1_565 S
C699 C698 1.400 1_545 S
C699 C700 1.398 . S
C699 C705 1.491 . S
C700 H691 0.950 . S
C700 C699 1.398 . S
C700 C701 1.391 . S
C701 H689 0.950 . S
C701 C697 1.393 . S
C701 C700 1.391 . S
C702 H692 0.950 . S
C702 C703 1.386 . S
C702 C704 1.391 . S
C703 C702 1.386 . S
C703 C707 1.393 1_545 S
C704 H693 0.950 . S
C704 C702 1.391 . S
C704 C705 1.400 . S
C705 C699 1.491 . S
C705 C704 1.400 . S
C705 C706 1.398 1_545 S
C706 H694 0.950 . S
C706 C705 1.398 1_565 S
C706 C707 1.391 . S
C707 H695 0.950 . S
C707 C703 1.393 1_565 S
C707 C706 1.391 . S
H708 C716 0.950 . S
H709 C721 0.950 . S
H710 C718 0.950 . S
H711 C720 0.950 . S
H712 C722 0.950 . S
H713 C724 0.950 . S
H714 C726 0.950 . S
H715 C727 0.950 . S
C716 H708 0.950 . S
C716 C717 1.386 . S
C716 C718 1.391 . S
C717 C716 1.386 . S
C717 C721 1.393 . S
C718 H710 0.950 . S
C718 C716 1.391 . S
C718 C719 1.400 . S
C719 C718 1.400 . S
C719 C720 1.398 . S
C719 C725 1.491 . S
C720 H711 0.950 . S
C720 C719 1.398 . S
C720 C721 1.391 . S
C721 H709 0.950 . S
C721 C717 1.393 . S
C721 C720 1.391 . S
C722 H712 0.950 . S
C722 C723 1.386 . S
C722 C724 1.391 . S
C723 C722 1.386 . S
C723 C727 1.393 . S
C724 H713 0.950 . S
C724 C722 1.391 . S
C724 C725 1.400 . S
C725 C719 1.491 . S
C725 C724 1.400 . S
C725 C726 1.398 . S
C726 H714 0.950 . S
C726 C725 1.398 . S
C726 C727 1.391 . S
C727 H715 0.950 . S
C727 C723 1.393 . S
C727 C726 1.391 . S
H728 C736 0.950 . S
H729 C741 0.950 . S
H730 C738 0.950 . S
H731 C740 0.950 . S
H732 C742 0.950 . S
H733 C744 0.950 . S
H734 C746 0.950 . S
H735 C747 0.950 . S
C736 H728 0.950 . S
C736 C737 1.386 . S
C736 C738 1.391 . S
C737 C736 1.386 . S
C737 C741 1.393 . S
C738 H730 0.950 . S
C738 C736 1.391 . S
C738 C739 1.400 . S
C739 C738 1.400 . S
C739 C740 1.398 . S
C739 C745 1.491 . S
C740 H731 0.950 . S
C740 C739 1.398 . S
C740 C741 1.391 . S
C741 H729 0.950 . S
C741 C737 1.393 . S
C741 C740 1.391 . S
C742 H732 0.950 . S
C742 C743 1.386 . S
C742 C744 1.391 . S
C743 C742 1.386 . S
C743 C747 1.393 . S
C744 H733 0.950 . S
C744 C742 1.391 . S
C744 C745 1.400 . S
C745 C739 1.491 . S
C745 C744 1.400 . S
C745 C746 1.398 . S
C746 H734 0.950 . S
C746 C745 1.398 . S
C746 C747 1.391 . S
C747 H735 0.950 . S
C747 C743 1.393 . S
C747 C746 1.391 . S
H748 C756 0.950 . S
H749 C761 0.950 . S
H750 C758 0.950 . S
H751 C760 0.950 . S
H752 C762 0.950 . S
H753 C764 0.950 . S
H754 C766 0.950 . S
H755 C767 0.950 . S
C756 H748 0.950 . S
C756 C757 1.386 . S
C756 C758 1.391 . S
C757 C756 1.386 . S
C757 C761 1.393 . S
C758 H750 0.950 . S
C758 C756 1.391 . S
C758 C759 1.400 . S
C759 C758 1.400 . S
C759 C760 1.398 . S
C759 C765 1.491 . S
C760 H751 0.950 . S
C760 C759 1.398 . S
C760 C761 1.391 . S
C761 H749 0.950 . S
C761 C757 1.393 . S
C761 C760 1.391 . S
C762 H752 0.950 . S
C762 C763 1.386 . S
C762 C764 1.391 . S
C763 C762 1.386 . S
C763 C767 1.393 . S
C764 H753 0.950 . S
C764 C762 1.391 . S
C764 C765 1.400 . S
C765 C759 1.491 . S
C765 C764 1.400 . S
C765 C766 1.398 . S
C766 H754 0.950 . S
C766 C765 1.398 . S
C766 C767 1.391 . S
C767 H755 0.950 . S
C767 C763 1.393 . S
C767 C766 1.391 . S
H768 C776 0.950 . S
H769 C781 0.950 . S
H770 C778 0.950 . S
H771 C780 0.950 . S
H772 C782 0.950 . S
H773 C784 0.950 . S
H774 C786 0.950 1_545 S
H775 C787 0.930 1_545 S
C776 H768 0.950 . S
C776 C777 1.386 1_545 S
C776 C778 1.391 . S
C777 C776 1.386 1_565 S
C777 C781 1.393 . S
C778 H770 0.950 . S
C778 C776 1.391 . S
C778 C779 1.400 1_545 S
C779 C778 1.400 1_565 S
C779 C780 1.398 . S
C779 C785 1.491 . S
C780 H771 0.950 . S
C780 C779 1.398 . S
C780 C781 1.391 . S
C781 H769 0.950 . S
C781 C777 1.393 . S
C781 C780 1.391 . S
C782 H772 0.950 . S
C782 C783 1.386 . S
C782 C784 1.391 . S
C783 C782 1.386 . S
C783 C787 1.393 . S
C784 H773 0.950 . S
C784 C782 1.391 . S
C784 C785 1.400 . S
C785 C779 1.491 . S
C785 C784 1.400 . S
C785 C786 1.398 . S
C786 H774 0.950 1_565 S
C786 C785 1.398 . S
C786 C787 1.391 . S
C787 H775 0.930 1_565 S
C787 C783 1.393 . S
C787 C786 1.391 . S
H788 C796 0.950 . S
H789 C801 0.950 . S
H790 C798 0.950 . S
H791 C800 0.950 . S
H792 C802 0.950 . S
H793 C804 0.950 . S
H794 C806 0.950 . S
H795 C807 0.950 . S
C796 H788 0.950 . S
C796 C797 1.386 . S
C796 C798 1.391 . S
C797 C796 1.386 . S
C797 C801 1.393 . S
C798 H790 0.950 . S
C798 C796 1.391 . S
C798 C799 1.400 . S
C799 C798 1.400 . S
C799 C800 1.398 . S
C799 C805 1.491 . S
C800 H791 0.950 . S
C800 C799 1.398 . S
C800 C801 1.391 . S
C801 H789 0.950 . S
C801 C797 1.393 . S
C801 C800 1.391 . S
C802 H792 0.950 . S
C802 C803 1.386 . S
C802 C804 1.391 . S
C803 C802 1.386 . S
C803 C807 1.393 . S
C804 H793 0.950 . S
C804 C802 1.391 . S
C804 C805 1.400 . S
C805 C799 1.491 . S
C805 C804 1.400 . S
C805 C806 1.398 . S
C806 H794 0.950 . S
C806 C805 1.398 . S
C806 C807 1.391 . S
C807 H795 0.950 . S
C807 C803 1.393 . S
C807 C806 1.391 . S
H808 C816 0.950 . S
H809 C821 0.950 . S
H810 C818 0.950 . S
H811 C820 0.950 . S
H812 C822 0.950 . S
H813 C824 0.950 . S
H814 C826 0.950 . S
H815 C827 0.950 . S
C816 H808 0.950 . S
C816 C817 1.386 . S
C816 C818 1.391 . S
C817 C816 1.386 . S
C817 C821 1.393 . S
C818 H810 0.950 . S
C818 C816 1.391 . S
C818 C819 1.400 . S
C819 C818 1.400 . S
C819 C820 1.398 . S
C819 C825 1.491 . S
C820 H811 0.950 . S
C820 C819 1.398 . S
C820 C821 1.391 . S
C821 H809 0.950 . S
C821 C817 1.393 . S
C821 C820 1.391 . S
C822 H812 0.950 . S
C822 C823 1.386 . S
C822 C824 1.391 . S
C823 C822 1.386 . S
C823 C827 1.393 . S
C824 H813 0.950 . S
C824 C822 1.391 . S
C824 C825 1.400 . S
C825 C819 1.491 . S
C825 C824 1.400 . S
C825 C826 1.398 . S
C826 H814 0.950 . S
C826 C825 1.398 . S
C826 C827 1.391 . S
C827 H815 0.950 . S
C827 C823 1.393 . S
C827 C826 1.391 . S
H828 C836 0.950 . S
H829 C841 0.950 . S
H830 C838 0.950 . S
H831 C840 0.950 . S
H832 C842 0.950 . S
H833 C844 0.950 . S
H834 C846 0.950 . S
H835 C847 0.950 . S
C836 H828 0.950 . S
C836 C837 1.386 . S
C836 C838 1.391 . S
C837 C836 1.386 . S
C837 C841 1.393 1_655 S
C838 H830 0.950 . S
C838 C836 1.391 . S
C838 C839 1.400 . S
C839 C838 1.400 . S
C839 C840 1.398 1_655 S
C839 C845 1.491 . S
C840 H831 0.950 . S
C840 C839 1.398 1_455 S
C840 C841 1.391 . S
C841 H829 0.950 . S
C841 C837 1.393 1_455 S
C841 C840 1.391 . S
C842 H832 0.950 . S
C842 C843 1.386 1_455 S
C842 C844 1.391 . S
C843 C842 1.386 1_655 S
C843 C847 1.393 . S
C844 H833 0.950 . S
C844 C842 1.391 . S
C844 C845 1.400 1_455 S
C845 C839 1.491 . S
C845 C844 1.400 1_655 S
C845 C846 1.398 . S
C846 H834 0.950 . S
C846 C845 1.398 . S
C846 C847 1.391 . S
C847 H835 0.950 . S
C847 C843 1.393 . S
C847 C846 1.391 . S
H848 C856 0.950 . S
H849 C861 0.950 . S
H850 C858 0.950 . S
H851 C860 0.950 . S
H852 C862 0.950 . S
H853 C864 0.950 . S
H854 C866 0.950 . S
H855 C867 0.950 . S
C856 H848 0.950 . S
C856 C857 1.386 1_566 S
C856 C858 1.391 . S
C857 C856 1.386 1_544 S
C857 C861 1.393 . S
C858 H850 0.950 . S
C858 C856 1.391 . S
C858 C859 1.400 1_566 S
C859 C858 1.400 1_544 S
C859 C860 1.398 . S
C859 C865 1.491 1_544 S
C860 H851 0.950 . S
C860 C859 1.398 . S
C860 C861 1.391 . S
C861 H849 0.950 . S
C861 C857 1.393 . S
C861 C860 1.391 . S
C862 H852 0.950 . S
C862 C863 1.386 1_544 S
C862 C864 1.391 . S
C863 C862 1.386 1_566 S
C863 C867 1.393 . S
C864 H853 0.950 . S
C864 C862 1.391 . S
C864 C865 1.400 1_544 S
C865 C859 1.491 1_566 S
C865 C864 1.400 1_566 S
C865 C866 1.398 . S
C866 H854 0.950 . S
C866 C865 1.398 . S
C866 C867 1.391 . S
C867 H855 0.950 . S
C867 C863 1.393 . S
C867 C866 1.391 . S
H868 C876 0.950 . S
H869 C881 0.950 . S
H870 C878 0.950 . S
H871 C880 0.950 . S
H872 C882 0.950 . S
H873 C884 0.950 . S
H874 C886 0.950 . S
H875 C887 0.950 . S
C876 H868 0.950 . S
C876 C877 1.386 . S
C876 C878 1.391 . S
C877 C876 1.386 . S
C877 C881 1.393 1_554 S
C878 H870 0.950 . S
C878 C876 1.391 . S
C878 C879 1.400 . S
C879 C878 1.400 . S
C879 C880 1.398 1_554 S
C879 C885 1.491 1_554 S
C880 H871 0.950 . S
C880 C879 1.398 1_556 S
C880 C881 1.391 . S
C881 H869 0.950 . S
C881 C877 1.393 1_556 S
C881 C880 1.391 . S
C882 H872 0.950 . S
C882 C883 1.386 . S
C882 C884 1.391 . S
C883 C882 1.386 . S
C883 C887 1.393 1_556 S
C884 H873 0.950 . S
C884 C882 1.391 . S
C884 C885 1.400 . S
C885 C879 1.491 1_556 S
C885 C884 1.400 . S
C885 C886 1.398 1_556 S
C886 H874 0.950 . S
C886 C885 1.398 1_554 S
C886 C887 1.391 . S
C887 H875 0.950 . S
C887 C883 1.393 1_554 S
C887 C886 1.391 . S
H888 C896 0.950 . S
H889 C901 0.950 . S
H890 C898 0.950 . S
H891 C900 0.950 . S
H892 C902 0.950 . S
H893 C904 0.950 . S
H894 C906 0.950 . S
H895 C907 0.950 . S
C896 H888 0.950 . S
C896 C897 1.386 . S
C896 C898 1.391 . S
C897 C896 1.386 . S
C897 C901 1.393 1_556 S
C898 H890 0.950 . S
C898 C896 1.391 . S
C898 C899 1.409 . S
C899 C898 1.409 . S
C899 C900 1.390 1_556 S
C899 C905 1.490 1_656 S
C900 H891 0.950 . S
C900 C899 1.390 1_554 S
C900 C901 1.391 . S
C901 H889 0.950 . S
C901 C897 1.393 1_554 S
C901 C900 1.391 . S
C902 H892 0.950 . S
C902 C903 1.386 . S
C902 C904 1.391 . S
C903 C902 1.386 . S
C903 C907 1.393 1_554 S
C904 H893 0.950 . S
C904 C902 1.391 . S
C904 C905 1.409 . S
C905 C899 1.490 1_454 S
C905 C904 1.409 . S
C905 C906 1.390 1_554 S
C906 H894 0.950 . S
C906 C905 1.390 1_556 S
C906 C907 1.391 . S
C907 H895 0.950 . S
C907 C903 1.393 1_556 S
C907 C906 1.391 . S
H908 C916 0.958 . S
H909 C921 0.950 . S
H910 C918 0.950 . S
H911 C920 0.950 . S
H912 C922 0.955 . S
H913 C924 0.950 . S
H914 C926 0.950 . S
H915 C927 0.950 . S
C916 H908 0.958 . S
C916 C917 1.374 1_656 S
C916 C918 1.396 . S
C917 C916 1.374 1_454 S
C917 C921 1.393 . S
C918 H910 0.950 . S
C918 C916 1.396 . S
C918 C919 1.400 1_656 S
C919 C918 1.400 1_454 S
C919 C920 1.398 . S
C919 C925 1.491 1_444 S
C920 H911 0.950 . S
C920 C919 1.398 . S
C920 C921 1.391 . S
C921 H909 0.950 . S
C921 C917 1.393 . S
C921 C920 1.391 . S
C922 H912 0.955 . S
C922 C923 1.377 1_454 S
C922 C924 1.395 . S
C923 C922 1.377 1_656 S
C923 C927 1.393 . S
C924 H913 0.950 . S
C924 C922 1.395 . S
C924 C925 1.400 1_454 S
C925 C919 1.491 1_666 S
C925 C924 1.400 1_656 S
C925 C926 1.398 . S
C926 H914 0.950 . S
C926 C925 1.398 . S
C926 C927 1.391 . S
C927 H915 0.950 . S
C927 C923 1.393 . S
C927 C926 1.391 . S
H928 C936 0.950 . S
H929 C941 0.950 . S
H930 C938 0.950 . S
H931 C940 0.950 . S
H932 C942 0.950 . S
H933 C944 0.950 . S
H934 C946 0.950 . S
H935 C947 0.950 . S
C936 H928 0.950 . S
C936 C937 1.386 1_565 S
C936 C938 1.391 . S
C937 C936 1.386 1_545 S
C937 C941 1.393 . S
C938 H930 0.950 . S
C938 C936 1.391 . S
C938 C939 1.369 1_565 S
C939 C938 1.369 1_545 S
C939 C940 1.434 . S
C939 C945 1.487 1_445 S
C940 H931 0.950 . S
C940 C939 1.434 . S
C940 C941 1.391 . S
C941 H929 0.950 . S
C941 C937 1.393 . S
C941 C940 1.391 . S
C942 H932 0.950 . S
C942 C943 1.386 1_545 S
C942 C944 1.391 . S
C943 C942 1.386 1_565 S
C943 C947 1.393 . S
C944 H933 0.950 . S
C944 C942 1.391 . S
C944 C945 1.400 1_545 S
C945 C939 1.487 1_665 S
C945 C944 1.400 1_565 S
C945 C946 1.398 . S
C946 H934 0.950 . S
C946 C945 1.398 . S
C946 C947 1.391 . S
C947 H935 0.950 . S
C947 C943 1.393 . S
C947 C946 1.391 . S
H948 C956 0.950 . S
H949 C961 0.950 . S
H950 C958 0.965 . S
H951 C960 0.950 . S
H952 C962 0.950 . S
H953 C964 0.965 . S
H954 C966 0.950 . S
H955 C967 0.950 . S
C956 H948 0.950 . S
C956 C957 1.386 . S
C956 C958 1.391 . S
C957 C956 1.386 . S
C957 C961 1.393 . S
C958 H950 0.965 . S
C958 C956 1.391 . S
C958 C959 1.400 . S
C959 C958 1.400 . S
C959 C960 1.398 . S
C959 C965 1.491 1_565 S
C960 H951 0.950 . S
C960 C959 1.398 . S
C960 C961 1.391 . S
C961 H949 0.950 . S
C961 C957 1.393 . S
C961 C960 1.391 . S
C962 H952 0.950 . S
C962 C963 1.386 . S
C962 C964 1.391 . S
C963 C962 1.386 . S
C963 C967 1.393 . S
C964 H953 0.965 . S
C964 C962 1.391 . S
C964 C965 1.400 . S
C965 C959 1.491 1_545 S
C965 C964 1.400 . S
C965 C966 1.398 . S
C966 H954 0.950 . S
C966 C965 1.398 . S
C966 C967 1.391 . S
C967 H955 0.950 . S
C967 C963 1.393 . S
C967 C966 1.391 . S
H968 C976 0.950 . S
H969 C981 0.950 . S
H970 C978 0.950 . S
H971 C980 0.950 . S
H972 C982 0.950 . S
H973 C984 0.950 . S
H974 C986 0.950 . S
H975 C987 0.950 . S
C976 H968 0.950 . S
C976 C977 1.386 . S
C976 C978 1.391 . S
C977 C976 1.386 . S
C977 C981 1.393 . S
C978 H970 0.950 . S
C978 C976 1.391 . S
C978 C979 1.400 . S
C979 C978 1.400 . S
C979 C980 1.398 . S
C979 C985 1.491 . S
C980 H971 0.950 . S
C980 C979 1.398 . S
C980 C981 1.391 . S
C981 H969 0.950 . S
C981 C977 1.393 . S
C981 C980 1.391 . S
C982 H972 0.950 . S
C982 C983 1.386 . S
C982 C984 1.391 . S
C983 C982 1.386 . S
C983 C987 1.393 . S
C984 H973 0.950 . S
C984 C982 1.391 . S
C984 C985 1.400 . S
C985 C979 1.491 . S
C985 C984 1.400 . S
C985 C986 1.398 . S
C986 H974 0.950 . S
C986 C985 1.398 . S
C986 C987 1.391 . S
C987 H975 0.950 . S
C987 C983 1.393 . S
C987 C986 1.391 . S
H988 C996 0.946 1_455 S
H989 C1001 0.950 . S
H990 C998 0.950 . S
H991 C1000 0.950 . S
H992 C1002 0.948 1_655 S
H993 C1004 0.950 . S
H994 C1006 0.950 . S
H995 C1007 0.950 . S
C996 H988 0.946 1_655 S
C996 C997 1.393 . S
C996 C998 1.389 1_655 S
C997 C996 1.393 . S
C997 C1001 1.393 . S
C998 H990 0.950 . S
C998 C996 1.389 1_455 S
C998 C999 1.398 1_455 S
C999 C998 1.398 1_655 S
C999 C1000 1.403 . S
C999 C1005 1.489 1_655 S
C1000 H991 0.950 . S
C1000 C999 1.403 . S
C1000 C1001 1.391 . S
C1001 H989 0.950 . S
C1001 C997 1.393 . S
C1001 C1000 1.391 . S
C1002 H992 0.948 1_455 S
C1002 C1003 1.386 . S
C1002 C1004 1.391 1_455 S
C1003 C1002 1.386 . S
C1003 C1007 1.393 . S
C1004 H993 0.950 . S
C1004 C1002 1.391 1_655 S
C1004 C1005 1.400 1_655 S
C1005 C999 1.489 1_455 S
C1005 C1004 1.400 1_455 S
C1005 C1006 1.398 . S
C1006 H994 0.950 . S
C1006 C1005 1.398 . S
C1006 C1007 1.391 . S
C1007 H995 0.950 . S
C1007 C1003 1.393 . S
C1007 C1006 1.391 . S
C377 N117 0.630 . S
C383 N2 0.516 . S
C397 N140 0.858 . S
C403 N25 0.872 . S
C417 N48 0.633 . S
C423 N163 0.514 . S
C437 N71 0.457 . S
C443 N94 0.539 . S
C457 N186 0.566 . S
C463 N301 0.607 . S
C477 N324 0.901 . S
C483 N209 0.852 . S
C497 N347 0.551 . S
C503 N232 0.629 . S
C517 N255 0.493 . S
C523 N278 0.490 . S
C537 N12 1.733 . S
C543 C283 1.745 . S
C557 C306 2.106 . S
C563 N35 2.084 . S
C577 N58 2.331 . S
C583 C329 2.369 . S
C597 N81 1.922 . S
C603 C352 1.933 . S
C617 N104 1.923 . S
C623 C191 1.935 . S
C637 N127 2.332 . S
C643 C214 2.375 . S
C657 N150 2.074 . S
C663 C237 2.100 . S
C677 N173 1.735 . S
C683 C260 1.745 . S
C697 C99 1.730 . S
C703 N196 1.716 . S
C717 C122 2.112 . S
C723 N219 2.082 . S
C737 C145 2.374 . S
C743 N242 2.341 . S
C757 N265 1.910 . S
C763 C168 1.925 . S
C777 C7 1.926 . S
C783 N288 1.914 . S
C797 N311 2.335 . S
C803 C30 2.369 . S
C817 N334 2.069 . S
C823 C53 2.101 . S
C837 C76 1.745 . S
C843 N357 1.734 . S
C857 C200 1.506 1_554 S
C863 C16 1.505 1_556 S
C877 C223 2.111 1_554 S
C883 C39 2.111 1_556 S
C897 C62 2.531 1_556 S
C903 C246 2.531 1_554 S
C917 C269 1.883 1_554 S
C923 C85 1.882 1_556 S
C937 C108 1.898 . S
C943 C292 1.897 . S
C957 C315 2.534 . S
C963 C131 2.534 . S
C977 C338 2.109 . S
C983 C154 2.109 . S
C997 C361 1.511 . S
C1003 C177 1.510 . S
