# Generated by pormake.
# Topology uog, (4)-cn, num edge types: 1
# Building blocks:
#     Node 0, Type 0, BuildingBlock: MUDLON_clean_sbu_0, # of connection points: 4
#     Node 1, Type 0, BuildingBlock: MUDLON_clean_sbu_0, # of connection points: 4
#     Node 2, Type 0, BuildingBlock: MUDLON_clean_sbu_0, # of connection points: 4
#     Node 3, Type 0, BuildingBlock: MUDLON_clean_sbu_0, # of connection points: 4
#     Node 4, Type 0, BuildingBlock: MUDLON_clean_sbu_0, # of connection points: 4
#     Node 5, Type 0, BuildingBlock: MUDLON_clean_sbu_0, # of connection points: 4
#     Edge 6, Type (0, 0), BuildingBlock: FUNLAD_clean_linker_0, # of connection points: 2
#     Edge 7, Type (0, 0), BuildingBlock: FUNLAD_clean_linker_0, # of connection points: 2
#     Edge 8, Type (0, 0), BuildingBlock: FUNLAD_clean_linker_0, # of connection points: 2
#     Edge 9, Type (0, 0), BuildingBlock: FUNLAD_clean_linker_0, # of connection points: 2
#     Edge 10, Type (0, 0), BuildingBlock: FUNLAD_clean_linker_0, # of connection points: 2
#     Edge 11, Type (0, 0), BuildingBlock: FUNLAD_clean_linker_0, # of connection points: 2
#     Edge 12, Type (0, 0), BuildingBlock: FUNLAD_clean_linker_0, # of connection points: 2
#     Edge 13, Type (0, 0), BuildingBlock: FUNLAD_clean_linker_0, # of connection points: 2
#     Edge 14, Type (0, 0), BuildingBlock: FUNLAD_clean_linker_0, # of connection points: 2
#     Edge 15, Type (0, 0), BuildingBlock: FUNLAD_clean_linker_0, # of connection points: 2
#     Edge 16, Type (0, 0), BuildingBlock: FUNLAD_clean_linker_0, # of connection points: 2
#     Edge 17, Type (0, 0), BuildingBlock: FUNLAD_clean_linker_0, # of connection points: 2
# Relax obj value: 0.035
# Max RMSD: 0.253
# Mean RMSD: 0.253
data_MOF--net-uog--node1-MUDLON_clean_sbu_0--edge1-FUNLAD_clean_linker_0
_symmetry_space_group_name_H-M    P1
_symmetry_Int_Tables_number       1
_symmetry_cell_setting            triclinic
loop_
_symmetry_equiv_pos_as_xyz
'x, y, z'
_cell_length_a     34.606045
_cell_length_b     34.62219
_cell_length_c     51.72499
_cell_angle_alpha  89.974813
_cell_angle_beta   90.136665
_cell_angle_gamma 119.78252
loop_
_atom_site_label
_atom_site_type_symbol
_atom_site_fract_x
_atom_site_fract_y
_atom_site_fract_z
_atom_type_partial_charge
Mg0 Mg 0.59065 0.29701 0.19015 0.0
C1 C 0.60577 0.31069 0.13464 0.0
O2 O 0.56271 0.29454 0.13744 0.0
C3 C 0.64731 0.29468 0.23519 0.0
O4 O 0.64665 0.26191 0.22204 0.0
C5 C 0.5681 0.20439 0.17873 0.0
O6 O 0.60776 0.22807 0.16842 0.0
O7 O 0.55011 0.22465 0.18945 0.0
O8 O 0.62934 0.31665 0.15475 0.0
O9 O 0.55501 0.33405 0.19037 0.0
C10 C 0.58014 0.37517 0.18536 0.0
O11 O 0.62241 0.38956 0.18057 0.0
O12 O 0.62914 0.31563 0.22566 0.0
Mg13 Mg 0.31454 0.59931 0.52376 0.0
C14 C 0.33849 0.67019 0.47938 0.0
O15 O 0.33781 0.69742 0.49682 0.0
C16 C 0.31313 0.6519 0.57113 0.0
O17 O 0.27601 0.64611 0.56064 0.0
C18 C 0.39179 0.58765 0.5282 0.0
O19 O 0.40706 0.63051 0.5313 0.0
O20 O 0.35019 0.5624 0.52456 0.0
O21 O 0.33142 0.63194 0.48617 0.0
O22 O 0.2422 0.55909 0.5256 0.0
C23 C 0.22059 0.57538 0.51454 0.0
O24 O 0.24283 0.61349 0.50235 0.0
O25 O 0.33683 0.63947 0.55882 0.0
Mg26 Mg 0.70961 0.29889 0.85114 0.0
C27 C 0.67553 0.28626 0.7973 0.0
O28 O 0.67499 0.24865 0.80175 0.0
C29 C 0.71026 0.3146 0.90633 0.0
O30 O 0.73656 0.29766 0.90331 0.0
C31 C 0.80052 0.37435 0.85243 0.0
O32 O 0.77544 0.39276 0.85499 0.0
O33 O 0.78168 0.33228 0.85006 0.0
O34 O 0.6876 0.31492 0.81537 0.0
O35 O 0.67723 0.22704 0.85401 0.0
C36 C 0.63565 0.2082 0.85844 0.0
O37 O 0.61724 0.2332 0.86142 0.0
O38 O 0.69248 0.32077 0.88637 0.0
Mg39 Mg 0.41552 0.70738 0.18946 0.0
C40 C 0.39744 0.67008 0.13648 0.0
O41 O 0.43452 0.67077 0.1429 0.0
C42 C 0.40121 0.72094 0.24356 0.0
O43 O 0.44277 0.75098 0.23881 0.0
C44 C 0.43137 0.79788 0.1824 0.0
O45 O 0.38786 0.77254 0.18123 0.0
O46 O 0.4549 0.77933 0.18551 0.0
O47 O 0.37887 0.6827 0.15309 0.0
O48 O 0.45259 0.67237 0.19501 0.0
C49 C 0.4286 0.63241 0.20268 0.0
O50 O 0.38632 0.61789 0.20752 0.0
O51 O 0.3777 0.69583 0.22511 0.0
Mg52 Mg 0.72273 0.42105 0.51708 0.0
C53 C 0.73226 0.38831 0.4653 0.0
O54 O 0.772 0.42319 0.46834 0.0
C55 C 0.71275 0.41674 0.57257 0.0
O56 O 0.73161 0.45916 0.56656 0.0
C57 C 0.64516 0.43169 0.50915 0.0
O58 O 0.63019 0.38883 0.5064 0.0
O59 O 0.68649 0.45712 0.51354 0.0
O60 O 0.70414 0.37731 0.48356 0.0
O61 O 0.79498 0.46078 0.51845 0.0
C62 C 0.81378 0.43801 0.52343 0.0
O63 O 0.78858 0.39509 0.52756 0.0
O64 O 0.70329 0.38864 0.55442 0.0
Mg65 Mg 0.30069 0.71087 0.85386 0.0
C66 C 0.30454 0.65886 0.80693 0.0
O67 O 0.26656 0.62731 0.81616 0.0
C68 C 0.323 0.66926 0.90234 0.0
O69 O 0.31685 0.63563 0.88773 0.0
C70 C 0.20743 0.63755 0.86129 0.0
O71 O 0.23021 0.62155 0.87295 0.0
O72 O 0.22838 0.6761 0.85122 0.0
O73 O 0.3269 0.69437 0.81995 0.0
O74 O 0.33048 0.7825 0.85144 0.0
C75 C 0.37262 0.80211 0.84916 0.0
O76 O 0.39204 0.77778 0.84807 0.0
O77 O 0.31958 0.70112 0.89253 0.0
C78 C 0.56677 0.13403 0.16614 0.0
C79 C 0.54654 0.15517 0.17895 0.0
C80 C 0.548 0.08782 0.16701 0.0
C81 C 0.50861 0.06152 0.18097 0.0
C82 C 0.4878 0.08257 0.19327 0.0
C83 C 0.5066 0.1289 0.19236 0.0
C84 C 0.48758 0.01214 0.18238 0.0
C85 C 0.51005 0.98996 0.17865 0.0
C86 C 0.48902 0.94055 0.17962 0.0
C87 C 0.51612 0.92141 0.18365 0.0
C88 C 0.4977 0.87512 0.18441 0.0
C89 C 0.45171 0.84693 0.18099 0.0
H90 H 0.4211 0.92528 0.17164 0.0
C91 C 0.4247 0.86604 0.17654 0.0
C92 C 0.44308 0.91221 0.17574 0.0
H93 H 0.38917 0.84532 0.17355 0.0
H94 H 0.59731 0.15317 0.15536 0.0
H95 H 0.56429 0.07304 0.15641 0.0
H96 H 0.45713 0.06314 0.20389 0.0
H97 H 0.49009 0.14412 0.20238 0.0
H98 H 0.45269 0.99385 0.18774 0.0
H99 H 0.54579 0.00858 0.1757 0.0
H100 H 0.55169 0.94236 0.18642 0.0
H101 H 0.51946 0.86148 0.18782 0.0
C102 C 0.40955 0.5262 0.52106 0.0
C103 C 0.42325 0.57031 0.5282 0.0
C104 C 0.44034 0.51109 0.52015 0.0
C105 C 0.48547 0.53991 0.5264 0.0
C106 C 0.49868 0.58353 0.53417 0.0
C107 C 0.4681 0.59865 0.53492 0.0
C108 C 0.5197 0.52584 0.52565 0.0
C109 C 0.51651 0.4926 0.51063 0.0
C110 C 0.55092 0.47876 0.50989 0.0
C111 C 0.53798 0.43513 0.50226 0.0
C112 C 0.56878 0.42023 0.50172 0.0
C113 C 0.61354 0.44883 0.50851 0.0
H114 H 0.60774 0.54221 0.52121 0.0
C115 C 0.62697 0.49298 0.51542 0.0
C116 C 0.59601 0.50786 0.51609 0.0
H117 H 0.66127 0.51591 0.52058 0.0
H118 H 0.37517 0.50346 0.51596 0.0
H119 H 0.42844 0.47677 0.51487 0.0
H120 H 0.53304 0.60631 0.53936 0.0
H121 H 0.47979 0.63277 0.5407 0.0
H122 H 0.54905 0.5445 0.53763 0.0
H123 H 0.48714 0.47387 0.49868 0.0
H124 H 0.50367 0.41215 0.49709 0.0
H125 H 0.55731 0.38608 0.49613 0.0
C126 C 0.8694 0.4485 0.85699 0.0
C127 C 0.84962 0.40243 0.85274 0.0
C128 C 0.91565 0.47537 0.85771 0.0
C129 C 0.94335 0.45684 0.85393 0.0
C130 C 0.92354 0.41073 0.84983 0.0
C131 C 0.87718 0.38378 0.84917 0.0
C132 C 0.99276 0.48404 0.85537 0.0
C133 C 0.0157 0.5286 0.85213 0.0
C134 C 0.06498 0.55583 0.85461 0.0
C135 C 0.08723 0.59799 0.84289 0.0
C136 C 0.13347 0.62481 0.8451 0.0
C137 C 0.15839 0.61008 0.85925 0.0
H138 H 0.07409 0.51009 0.87934 0.0
C139 C 0.13606 0.56824 0.87133 0.0
C140 C 0.08993 0.54151 0.86917 0.0
H141 H 0.15418 0.55604 0.88263 0.0
H142 H 0.84915 0.46391 0.86008 0.0
H143 H 0.92926 0.51038 0.86183 0.0
H144 H 0.944 0.39544 0.84712 0.0
H145 H 0.86299 0.34839 0.84595 0.0
H146 H 0.01074 0.46616 0.85848 0.0
H147 H 0.99817 0.54603 0.84659 0.0
H148 H 0.06882 0.61012 0.83182 0.0
H149 H 0.14964 0.65693 0.83562 0.0
C150 C 0.14849 0.57057 0.50216 0.0
C151 C 0.17149 0.55375 0.51644 0.0
C152 C 0.10245 0.55196 0.50456 0.0
C153 C 0.07823 0.51628 0.52162 0.0
C154 C 0.10111 0.49879 0.53545 0.0
C155 C 0.14725 0.51733 0.53293 0.0
C156 C 0.0291 0.49554 0.52485 0.0
C157 C 1.00582 0.51612 0.5187 0.0
C158 C 0.95648 0.49526 0.52099 0.0
C159 C 0.93709 0.52253 0.51912 0.0
C160 C 0.89083 0.50426 0.52014 0.0
C161 C 0.86286 0.45818 0.52308 0.0
H162 H 0.94121 0.42637 0.5246 0.0
C163 C 0.88216 0.43089 0.52505 0.0
C164 C 0.92829 0.44905 0.52385 0.0
H165 H 0.86158 0.39516 0.52706 0.0
H166 H 0.16605 0.59826 0.48901 0.0
H167 H 0.08619 0.56543 0.49272 0.0
H168 H 0.08331 0.47095 0.54847 0.0
H169 H 0.16396 0.50353 0.54417 0.0
H170 H 0.01215 0.46266 0.53345 0.0
H171 H 0.02356 0.55041 0.51218 0.0
H172 H 0.95781 0.55818 0.51671 0.0
H173 H 0.87701 0.5262 0.51851 0.0
C174 C 0.44616 0.8715 0.84467 0.0
C175 C 0.4 0.85122 0.8487 0.0
C176 C 0.47285 0.91773 0.84517 0.0
C177 C 0.45404 0.9449 0.84999 0.0
C178 C 0.40772 0.92466 0.85333 0.0
C179 C 0.38093 0.87828 0.85277 0.0
C180 C 0.48143 0.99427 0.85112 0.0
C181 C 0.5254 0.01624 0.85662 0.0
C182 C 0.55297 0.06557 0.85758 0.0
C183 C 0.59916 0.08544 0.85383 0.0
C184 C 0.62626 0.13174 0.85433 0.0
C185 C 0.60769 0.15914 0.85884 0.0
H186 H 0.49949 0.07915 0.86664 0.0
C187 C 0.56165 0.13924 0.86323 0.0
C188 C 0.53458 0.09302 0.86269 0.0
H189 H 0.54632 0.15936 0.86703 0.0
H190 H 0.46188 0.85166 0.84111 0.0
H191 H 0.50803 0.93178 0.84143 0.0
H192 H 0.39224 0.94477 0.85675 0.0
H193 H 0.34544 0.86368 0.85582 0.0
H194 H 0.46428 0.01282 0.84755 0.0
H195 H 0.54255 0.99771 0.86023 0.0
H196 H 0.61429 0.06509 0.85015 0.0
H197 H 0.66163 0.14602 0.85099 0.0
C198 C 0.48886 0.61327 0.19484 0.0
C199 C 0.44626 0.60128 0.20419 0.0
C200 C 0.50378 0.58234 0.19473 0.0
C201 C 0.47627 0.53869 0.20393 0.0
C202 C 0.4344 0.52739 0.21406 0.0
C203 C 0.41945 0.55815 0.21407 0.0
C204 C 0.48996 0.50414 0.20369 0.0
C205 C 0.52036 0.50467 0.18725 0.0
C206 C 0.534 0.47012 0.1869 0.0
C207 C 0.57621 0.48178 0.1772 0.0
C208 C 0.59082 0.45079 0.17661 0.0
C209 C 0.56329 0.40702 0.18538 0.0
H210 H 0.47263 0.4153 0.20213 0.0
C211 C 0.52051 0.39482 0.19451 0.0
C212 C 0.50597 0.42605 0.19529 0.0
H213 H 0.49842 0.36127 0.20123 0.0
H214 H 0.51044 0.64633 0.18727 0.0
H215 H 0.53692 0.593 0.1876 0.0
H216 H 0.41271 0.49427 0.22156 0.0
H217 H 0.38655 0.54785 0.22159 0.0
H218 H 0.47342 0.4768 0.21725 0.0
H219 H 0.53692 0.53196 0.17367 0.0
H220 H 0.59831 0.51527 0.17035 0.0
H221 H 0.62387 0.46129 0.16927 0.0
C222 C 0.71801 0.31348 0.95429 0.0
C223 C 0.69989 0.32347 0.93267 0.0
C224 C 0.70641 0.31884 0.97931 0.0
C225 C 0.67666 0.33489 0.98338 0.0
C226 C 0.65915 0.34561 0.96174 0.0
C227 C 0.67068 0.34007 0.93664 0.0
C228 C 0.66036 0.33736 1.00962 0.0
C229 C 0.68066 0.33668 0.03181 0.0
C230 C 0.66122 0.33293 0.05798 0.0
C231 C 0.68887 0.34293 0.07981 0.0
C232 C 0.67123 0.33652 0.10479 0.0
C233 C 0.62543 0.31974 0.10844 0.0
H234 H 0.59244 0.30688 0.04565 0.0
C235 C 0.59784 0.31023 0.08663 0.0
C236 C 0.61538 0.31647 0.06173 0.0
H237 H 0.56233 0.29698 0.08873 0.0
H238 H 0.74044 0.30038 0.95195 0.0
H239 H 0.71976 0.30879 0.9952 0.0
H240 H 0.63587 0.35766 0.96423 0.0
H241 H 0.65609 0.34803 0.92039 0.0
H242 H 0.63017 0.33952 1.01046 0.0
H243 H 0.71295 0.33873 0.03105 0.0
H244 H 0.72422 0.35523 0.07755 0.0
H245 H 0.69339 0.34412 0.1212 0.0
C246 C 0.41075 0.74482 0.2898 0.0
C247 C 0.38443 0.71447 0.27048 0.0
C248 C 0.39801 0.73708 0.31573 0.0
C249 C 0.35835 0.69878 0.32306 0.0
C250 C 0.33143 0.66901 0.30365 0.0
C251 C 0.34417 0.67685 0.27761 0.0
C252 C 0.34623 0.68691 0.35073 0.0
C253 C 0.36265 0.7165 0.37039 0.0
C254 C 0.35473 0.70352 0.39817 0.0
C255 C 0.35903 0.73511 0.41672 0.0
C256 C 0.35377 0.72453 0.44311 0.0
C257 C 0.34468 0.68224 0.45154 0.0
H258 H 0.34387 0.63649 0.39317 0.0
C259 C 0.34087 0.65083 0.43297 0.0
C260 C 0.34589 0.6613 0.40666 0.0
H261 H 0.33411 0.61797 0.43871 0.0
H262 H 0.44204 0.77413 0.28502 0.0
H263 H 0.42045 0.76035 0.32994 0.0
H264 H 0.30087 0.63906 0.3087 0.0
H265 H 0.32324 0.65273 0.26322 0.0
H266 H 0.32295 0.65221 0.35495 0.0
H267 H 0.38244 0.75178 0.36618 0.0
H268 H 0.36644 0.7681 0.41078 0.0
H269 H 0.35702 0.74954 0.45688 0.0
C270 C 0.67683 0.33975 0.76406 0.0
C271 C 0.66691 0.29649 0.77084 0.0
C272 C 0.67339 0.35019 0.73833 0.0
C273 C 0.66001 0.3175 0.71887 0.0
C274 C 0.64765 0.27378 0.72596 0.0
C275 C 0.65131 0.26341 0.75161 0.0
C276 C 0.65964 0.32782 0.691 0.0
C277 C 0.68754 0.36808 0.68087 0.0
C278 C 0.69096 0.37859 0.6528 0.0
C279 C 0.71087 0.42342 0.64548 0.0
C280 C 0.71724 0.4355 0.61946 0.0
C281 C 0.70421 0.403 0.60002 0.0
H282 H 0.66323 0.31098 0.6381 0.0
C283 C 0.68409 0.358 0.60721 0.0
C284 C 0.67756 0.34584 0.63335 0.0
H285 H 0.67392 0.3322 0.59268 0.0
H286 H 0.68846 0.36587 0.77847 0.0
H287 H 0.68153 0.38391 0.7338 0.0
H288 H 0.63665 0.24783 0.71145 0.0
H289 H 0.64289 0.2296 0.75623 0.0
H290 H 0.63753 0.30063 0.67843 0.0
H291 H 0.70983 0.39492 0.69361 0.0
H292 H 0.72182 0.44937 0.65998 0.0
H293 H 0.73292 0.47052 0.61465 0.0
C294 C 0.32633 0.63115 0.94313 0.0
C295 C 0.32984 0.66886 0.93068 0.0
C296 C 0.33 0.63026 0.97011 0.0
C297 C 0.33765 0.66734 0.98521 0.0
C298 C 0.34138 0.70497 0.97264 0.0
C299 C 0.33765 0.70582 0.94579 0.0
C300 C 0.34131 0.66836 1.014 0.0
C301 C 0.35007 0.64071 0.02797 0.0
C302 C 0.3583 0.64555 0.05639 0.0
C303 C 0.38635 0.6313 0.06713 0.0
C304 C 0.39776 0.63807 0.0933 0.0
C305 C 0.38083 0.65869 0.10955 0.0
H306 H 0.31676 0.67453 0.06547 0.0
C307 C 0.35082 0.67088 0.0992 0.0
C308 C 0.33969 0.66445 0.07285 0.0
H309 H 0.33703 0.6866 0.11126 0.0
H310 H 0.31984 0.60193 0.9321 0.0
H311 H 0.32583 0.60011 0.97891 0.0
H312 H 0.34718 0.73401 0.98366 0.0
H313 H 0.34048 0.73547 0.93692 0.0
H314 H 0.33961 0.69515 0.02388 0.0
H315 H 0.35556 0.61617 1.01816 0.0
H316 H 0.40073 0.61615 0.05504 0.0
H317 H 0.42062 0.62786 0.10068 0.0
C318 C 0.75133 0.37661 0.42049 0.0
C319 C 0.71896 0.36668 0.43964 0.0
C320 C 0.73883 0.36158 0.39514 0.0
C321 C 0.69356 0.33625 0.38837 0.0
C322 C 0.66129 0.32493 0.40773 0.0
C323 C 0.67382 0.33966 0.43317 0.0
C324 C 0.67887 0.32522 0.36104 0.0
C325 C 0.70414 0.3224 0.34216 0.0
C326 C 0.69019 0.31613 0.31462 0.0
C327 C 0.70205 0.29145 0.29821 0.0
C328 C 0.68874 0.28489 0.27224 0.0
C329 C 0.66421 0.30383 0.2621 0.0
H330 H 0.65812 0.35635 0.31624 0.0
C331 C 0.65383 0.32993 0.27835 0.0
C332 C 0.66652 0.33589 0.30432 0.0
H333 H 0.63511 0.34515 0.27116 0.0
H334 H 0.78641 0.39739 0.42486 0.0
H335 H 0.76472 0.37187 0.38074 0.0
H336 H 0.62618 0.30565 0.40302 0.0
H337 H 0.64805 0.33158 0.44744 0.0
H338 H 0.64579 0.31942 0.35628 0.0
H339 H 0.73531 0.32362 0.34692 0.0
H340 H 0.72086 0.27646 0.30562 0.0
H341 H 0.69743 0.26479 0.26018 0.0
C342 C 0.34453 0.69619 0.76608 0.0
C343 C 0.31671 0.65681 0.77971 0.0
C344 C 0.35083 0.69509 0.73943 0.0
C345 C 0.32996 0.65448 0.72593 0.0
C346 C 0.30431 0.61492 0.73978 0.0
C347 C 0.29723 0.61608 0.76634 0.0
C348 C 0.33376 0.65246 0.69741 0.0
C349 C 0.33385 0.68326 0.6814 0.0
C350 C 0.33208 0.67842 0.65281 0.0
C351 C 0.30679 0.69225 0.63829 0.0
C352 C 0.30174 0.68501 0.61156 0.0
C353 C 0.32289 0.66486 0.59871 0.0
H354 H 0.37523 0.64976 0.65044 0.0
C355 C 0.35029 0.65333 0.61307 0.0
C356 C 0.35458 0.65974 0.63986 0.0
H357 H 0.36708 0.63774 0.60379 0.0
H358 H 0.36004 0.72815 0.77578 0.0
H359 H 0.37171 0.72606 0.7294 0.0
H360 H 0.28827 0.58316 0.72985 0.0
H361 H 0.27576 0.58519 0.7763 0.0
H362 H 0.33197 0.62264 0.68931 0.0
H363 H 0.3307 0.71056 0.68945 0.0
H364 H 0.2895 0.70716 0.64779 0.0
H365 H 0.28056 0.6944 0.60104 0.0
loop_
_geom_bond_atom_site_label_1
_geom_bond_atom_site_label_2
_geom_bond_distance
_geom_bond_site_symmetry_2
_ccdc_geom_bond_type
Mg0 O7 2.141 . S
Mg0 O8 2.048 . S
Mg0 O9 2.048 . S
Mg0 O12 2.141 . S
C1 O2 1.313 . S
C1 O8 1.195 . S
O2 C1 1.313 . S
C3 O4 1.245 . S
C3 O12 1.289 . S
O4 C3 1.245 . S
C5 O6 1.245 . S
C5 O7 1.289 . S
O6 C5 1.245 . S
O7 Mg0 2.141 . S
O7 C5 1.289 . S
O8 Mg0 2.048 . S
O8 C1 1.195 . S
O9 Mg0 2.048 . S
O9 C10 1.195 . S
C10 O9 1.195 . S
C10 O11 1.313 . S
O11 C10 1.313 . S
O12 Mg0 2.141 . S
O12 C3 1.289 . S
Mg13 O20 2.141 . S
Mg13 O21 2.048 . S
Mg13 O22 2.048 . S
Mg13 O25 2.141 . S
C14 O15 1.313 . S
C14 O21 1.195 . S
O15 C14 1.313 . S
C16 O17 1.245 . S
C16 O25 1.289 . S
O17 C16 1.245 . S
C18 O19 1.245 . S
C18 O20 1.289 . S
O19 C18 1.245 . S
O20 Mg13 2.141 . S
O20 C18 1.289 . S
O21 Mg13 2.048 . S
O21 C14 1.195 . S
O22 Mg13 2.048 . S
O22 C23 1.195 . S
C23 O22 1.195 . S
C23 O24 1.313 . S
O24 C23 1.313 . S
O25 Mg13 2.141 . S
O25 C16 1.289 . S
Mg26 O33 2.141 . S
Mg26 O34 2.048 . S
Mg26 O35 2.048 . S
Mg26 O38 2.141 . S
C27 O28 1.313 . S
C27 O34 1.195 . S
O28 C27 1.313 . S
C29 O30 1.245 . S
C29 O38 1.289 . S
O30 C29 1.245 . S
C31 O32 1.245 . S
C31 O33 1.289 . S
O32 C31 1.245 . S
O33 Mg26 2.141 . S
O33 C31 1.289 . S
O34 Mg26 2.048 . S
O34 C27 1.195 . S
O35 Mg26 2.048 . S
O35 C36 1.195 . S
C36 O35 1.195 . S
C36 O37 1.313 . S
O37 C36 1.313 . S
O38 Mg26 2.141 . S
O38 C29 1.289 . S
Mg39 O46 2.141 . S
Mg39 O47 2.048 . S
Mg39 O48 2.048 . S
Mg39 O51 2.141 . S
C40 O41 1.313 . S
C40 O47 1.195 . S
O41 C40 1.313 . S
C42 O43 1.245 . S
C42 O51 1.289 . S
O43 C42 1.245 . S
C44 O45 1.245 . S
C44 O46 1.289 . S
O45 C44 1.245 . S
O46 Mg39 2.141 . S
O46 C44 1.289 . S
O47 Mg39 2.048 . S
O47 C40 1.195 . S
O48 Mg39 2.048 . S
O48 C49 1.195 . S
C49 O48 1.195 . S
C49 O50 1.313 . S
O50 C49 1.313 . S
O51 Mg39 2.141 . S
O51 C42 1.289 . S
Mg52 O59 2.141 . S
Mg52 O60 2.048 . S
Mg52 O61 2.048 . S
Mg52 O64 2.141 . S
C53 O54 1.313 . S
C53 O60 1.195 . S
O54 C53 1.313 . S
C55 O56 1.245 . S
C55 O64 1.289 . S
O56 C55 1.245 . S
C57 O58 1.245 . S
C57 O59 1.289 . S
O58 C57 1.245 . S
O59 Mg52 2.141 . S
O59 C57 1.289 . S
O60 Mg52 2.048 . S
O60 C53 1.195 . S
O61 Mg52 2.048 . S
O61 C62 1.195 . S
C62 O61 1.195 . S
C62 O63 1.313 . S
O63 C62 1.313 . S
O64 Mg52 2.141 . S
O64 C55 1.289 . S
Mg65 O72 2.141 . S
Mg65 O73 2.048 . S
Mg65 O74 2.048 . S
Mg65 O77 2.141 . S
C66 O67 1.313 . S
C66 O73 1.195 . S
O67 C66 1.313 . S
C68 O69 1.245 . S
C68 O77 1.289 . S
O69 C68 1.245 . S
C70 O71 1.245 . S
C70 O72 1.289 . S
O71 C70 1.245 . S
O72 Mg65 2.141 . S
O72 C70 1.289 . S
O73 Mg65 2.048 . S
O73 C66 1.195 . S
O74 Mg65 2.048 . S
O74 C75 1.195 . S
C75 O74 1.195 . S
C75 O76 1.313 . S
O76 C75 1.313 . S
O77 Mg65 2.141 . S
O77 C68 1.289 . S
C78 C79 1.386 . S
C78 C80 1.383 . S
C78 H94 0.951 . S
C79 C78 1.386 . S
C79 C83 1.383 . S
C80 C78 1.383 . S
C80 C81 1.402 . S
C80 H95 0.951 . S
C81 C80 1.402 . S
C81 C82 1.375 . S
C81 C84 1.481 . S
C82 C81 1.375 . S
C82 C83 1.367 . S
C82 H96 0.951 . S
C83 C79 1.383 . S
C83 C82 1.367 . S
C83 H97 0.950 . S
C84 C81 1.481 . S
C84 C85 1.297 1_545 S
C84 H98 0.950 . S
C85 C84 1.297 1_565 S
C85 C86 1.479 . S
C85 H99 0.950 . S
C86 C85 1.479 . S
C86 C87 1.375 . S
C86 C92 1.404 . S
C87 C86 1.375 . S
C87 C88 1.369 . S
C87 H100 0.950 . S
C88 C87 1.369 . S
C88 C89 1.392 . S
C88 H101 0.951 . S
C89 C88 1.392 . S
C89 C91 1.384 . S
H90 C92 0.949 . S
C91 C89 1.384 . S
C91 C92 1.385 . S
C91 H93 0.950 . S
C92 C86 1.404 . S
C92 H90 0.949 . S
C92 C91 1.385 . S
H93 C91 0.950 . S
H94 C78 0.951 . S
H95 C80 0.951 . S
H96 C82 0.951 . S
H97 C83 0.950 . S
H98 C84 0.950 . S
H99 C85 0.950 . S
H100 C87 0.950 . S
H101 C88 0.951 . S
C102 C103 1.386 . S
C102 C104 1.383 . S
C102 H118 0.951 . S
C103 C102 1.386 . S
C103 C107 1.383 . S
C104 C102 1.383 . S
C104 C105 1.402 . S
C104 H119 0.951 . S
C105 C104 1.402 . S
C105 C106 1.375 . S
C105 C108 1.481 . S
C106 C105 1.375 . S
C106 C107 1.367 . S
C106 H120 0.951 . S
C107 C103 1.383 . S
C107 C106 1.367 . S
C107 H121 0.950 . S
C108 C105 1.481 . S
C108 C109 1.297 . S
C108 H122 0.950 . S
C109 C108 1.297 . S
C109 C110 1.479 . S
C109 H123 0.950 . S
C110 C109 1.479 . S
C110 C111 1.375 . S
C110 C116 1.404 . S
C111 C110 1.375 . S
C111 C112 1.369 . S
C111 H124 0.950 . S
C112 C111 1.369 . S
C112 C113 1.392 . S
C112 H125 0.951 . S
C113 C112 1.392 . S
C113 C115 1.384 . S
H114 C116 0.949 . S
C115 C113 1.384 . S
C115 C116 1.385 . S
C115 H117 0.950 . S
C116 C110 1.404 . S
C116 H114 0.949 . S
C116 C115 1.385 . S
H117 C115 0.950 . S
H118 C102 0.951 . S
H119 C104 0.951 . S
H120 C106 0.951 . S
H121 C107 0.950 . S
H122 C108 0.950 . S
H123 C109 0.950 . S
H124 C111 0.950 . S
H125 C112 0.951 . S
C126 C127 1.386 . S
C126 C128 1.383 . S
C126 H142 0.951 . S
C127 C126 1.386 . S
C127 C131 1.383 . S
C128 C126 1.383 . S
C128 C129 1.402 . S
C128 H143 0.951 . S
C129 C128 1.402 . S
C129 C130 1.375 . S
C129 C132 1.481 . S
C130 C129 1.375 . S
C130 C131 1.367 . S
C130 H144 0.951 . S
C131 C127 1.383 . S
C131 C130 1.367 . S
C131 H145 0.950 . S
C132 C129 1.481 . S
C132 C133 1.297 1_655 S
C132 H146 0.950 . S
C133 C132 1.297 1_455 S
C133 C134 1.479 . S
C133 H147 0.950 . S
C134 C133 1.479 . S
C134 C135 1.375 . S
C134 C140 1.404 . S
C135 C134 1.375 . S
C135 C136 1.369 . S
C135 H148 0.950 . S
C136 C135 1.369 . S
C136 C137 1.392 . S
C136 H149 0.951 . S
C137 C136 1.392 . S
C137 C139 1.384 . S
H138 C140 0.949 . S
C139 C137 1.384 . S
C139 C140 1.385 . S
C139 H141 0.950 . S
C140 C134 1.404 . S
C140 H138 0.949 . S
C140 C139 1.385 . S
H141 C139 0.950 . S
H142 C126 0.951 . S
H143 C128 0.951 . S
H144 C130 0.951 . S
H145 C131 0.950 . S
H146 C132 0.950 . S
H147 C133 0.950 . S
H148 C135 0.950 . S
H149 C136 0.951 . S
C150 C151 1.386 . S
C150 C152 1.383 . S
C150 H166 0.951 . S
C151 C150 1.386 . S
C151 C155 1.383 . S
C152 C150 1.383 . S
C152 C153 1.402 . S
C152 H167 0.951 . S
C153 C152 1.402 . S
C153 C154 1.375 . S
C153 C156 1.481 . S
C154 C153 1.375 . S
C154 C155 1.367 . S
C154 H168 0.951 . S
C155 C151 1.383 . S
C155 C154 1.367 . S
C155 H169 0.950 . S
C156 C153 1.481 . S
C156 C157 1.297 1_455 S
C156 H170 0.950 . S
C157 C156 1.297 1_655 S
C157 C158 1.479 . S
C157 H171 0.950 . S
C158 C157 1.479 . S
C158 C159 1.375 . S
C158 C164 1.404 . S
C159 C158 1.375 . S
C159 C160 1.369 . S
C159 H172 0.950 . S
C160 C159 1.369 . S
C160 C161 1.392 . S
C160 H173 0.951 . S
C161 C160 1.392 . S
C161 C163 1.384 . S
H162 C164 0.949 . S
C163 C161 1.384 . S
C163 C164 1.385 . S
C163 H165 0.950 . S
C164 C158 1.404 . S
C164 H162 0.949 . S
C164 C163 1.385 . S
H165 C163 0.950 . S
H166 C150 0.951 . S
H167 C152 0.951 . S
H168 C154 0.951 . S
H169 C155 0.950 . S
H170 C156 0.950 . S
H171 C157 0.950 . S
H172 C159 0.950 . S
H173 C160 0.951 . S
C174 C175 1.386 . S
C174 C176 1.383 . S
C174 H190 0.951 . S
C175 C174 1.386 . S
C175 C179 1.383 . S
C176 C174 1.383 . S
C176 C177 1.402 . S
C176 H191 0.951 . S
C177 C176 1.402 . S
C177 C178 1.375 . S
C177 C180 1.481 . S
C178 C177 1.375 . S
C178 C179 1.367 . S
C178 H192 0.951 . S
C179 C175 1.383 . S
C179 C178 1.367 . S
C179 H193 0.950 . S
C180 C177 1.481 . S
C180 C181 1.297 1_565 S
C180 H194 0.950 . S
C181 C180 1.297 1_545 S
C181 C182 1.479 . S
C181 H195 0.950 . S
C182 C181 1.479 . S
C182 C183 1.375 . S
C182 C188 1.404 . S
C183 C182 1.375 . S
C183 C184 1.369 . S
C183 H196 0.950 . S
C184 C183 1.369 . S
C184 C185 1.392 . S
C184 H197 0.951 . S
C185 C184 1.392 . S
C185 C187 1.384 . S
H186 C188 0.949 . S
C187 C185 1.384 . S
C187 C188 1.385 . S
C187 H189 0.950 . S
C188 C182 1.404 . S
C188 H186 0.949 . S
C188 C187 1.385 . S
H189 C187 0.950 . S
H190 C174 0.951 . S
H191 C176 0.951 . S
H192 C178 0.951 . S
H193 C179 0.950 . S
H194 C180 0.950 . S
H195 C181 0.950 . S
H196 C183 0.950 . S
H197 C184 0.951 . S
C198 C199 1.386 . S
C198 C200 1.383 . S
C198 H214 0.951 . S
C199 C198 1.386 . S
C199 C203 1.383 . S
C200 C198 1.383 . S
C200 C201 1.402 . S
C200 H215 0.951 . S
C201 C200 1.402 . S
C201 C202 1.375 . S
C201 C204 1.481 . S
C202 C201 1.375 . S
C202 C203 1.367 . S
C202 H216 0.951 . S
C203 C199 1.383 . S
C203 C202 1.367 . S
C203 H217 0.950 . S
C204 C201 1.481 . S
C204 C205 1.297 . S
C204 H218 0.950 . S
C205 C204 1.297 . S
C205 C206 1.479 . S
C205 H219 0.950 . S
C206 C205 1.479 . S
C206 C207 1.375 . S
C206 C212 1.404 . S
C207 C206 1.375 . S
C207 C208 1.369 . S
C207 H220 0.950 . S
C208 C207 1.369 . S
C208 C209 1.392 . S
C208 H221 0.951 . S
C209 C208 1.392 . S
C209 C211 1.384 . S
H210 C212 0.949 . S
C211 C209 1.384 . S
C211 C212 1.385 . S
C211 H213 0.950 . S
C212 C206 1.404 . S
C212 H210 0.949 . S
C212 C211 1.385 . S
H213 C211 0.950 . S
H214 C198 0.951 . S
H215 C200 0.951 . S
H216 C202 0.951 . S
H217 C203 0.950 . S
H218 C204 0.950 . S
H219 C205 0.950 . S
H220 C207 0.950 . S
H221 C208 0.951 . S
C222 C223 1.386 . S
C222 C224 1.383 . S
C222 H238 0.951 . S
C223 C222 1.386 . S
C223 C227 1.383 . S
C224 C222 1.383 . S
C224 C225 1.402 . S
C224 H239 0.951 . S
C225 C224 1.402 . S
C225 C226 1.375 . S
C225 C228 1.481 . S
C226 C225 1.375 . S
C226 C227 1.367 . S
C226 H240 0.951 . S
C227 C223 1.383 . S
C227 C226 1.367 . S
C227 H241 0.950 . S
C228 C225 1.481 . S
C228 C229 1.297 1_556 S
C228 H242 0.950 1_556 S
C229 C228 1.297 1_554 S
C229 C230 1.479 . S
C229 H243 0.950 1_554 S
C230 C229 1.479 . S
C230 C231 1.375 . S
C230 C236 1.404 . S
C231 C230 1.375 . S
C231 C232 1.369 . S
C231 H244 0.950 . S
C232 C231 1.369 . S
C232 C233 1.392 . S
C232 H245 0.951 . S
C233 C232 1.392 . S
C233 C235 1.384 . S
H234 C236 0.949 . S
C235 C233 1.384 . S
C235 C236 1.385 . S
C235 H237 0.950 . S
C236 C230 1.404 . S
C236 H234 0.949 . S
C236 C235 1.385 . S
H237 C235 0.950 . S
H238 C222 0.951 . S
H239 C224 0.951 . S
H240 C226 0.951 . S
H241 C227 0.950 . S
H242 C228 0.950 1_554 S
H243 C229 0.950 1_556 S
H244 C231 0.950 . S
H245 C232 0.951 . S
C246 C247 1.386 . S
C246 C248 1.383 . S
C246 H262 0.951 . S
C247 C246 1.386 . S
C247 C251 1.383 . S
C248 C246 1.383 . S
C248 C249 1.402 . S
C248 H263 0.951 . S
C249 C248 1.402 . S
C249 C250 1.375 . S
C249 C252 1.481 . S
C250 C249 1.375 . S
C250 C251 1.367 . S
C250 H264 0.951 . S
C251 C247 1.383 . S
C251 C250 1.367 . S
C251 H265 0.950 . S
C252 C249 1.481 . S
C252 C253 1.297 . S
C252 H266 0.950 . S
C253 C252 1.297 . S
C253 C254 1.479 . S
C253 H267 0.950 . S
C254 C253 1.479 . S
C254 C255 1.375 . S
C254 C260 1.404 . S
C255 C254 1.375 . S
C255 C256 1.369 . S
C255 H268 0.950 . S
C256 C255 1.369 . S
C256 C257 1.392 . S
C256 H269 0.951 . S
C257 C256 1.392 . S
C257 C259 1.384 . S
H258 C260 0.949 . S
C259 C257 1.384 . S
C259 C260 1.385 . S
C259 H261 0.950 . S
C260 C254 1.404 . S
C260 H258 0.949 . S
C260 C259 1.385 . S
H261 C259 0.950 . S
H262 C246 0.951 . S
H263 C248 0.951 . S
H264 C250 0.951 . S
H265 C251 0.950 . S
H266 C252 0.950 . S
H267 C253 0.950 . S
H268 C255 0.950 . S
H269 C256 0.951 . S
C270 C271 1.386 . S
C270 C272 1.383 . S
C270 H286 0.951 . S
C271 C270 1.386 . S
C271 C275 1.383 . S
C272 C270 1.383 . S
C272 C273 1.402 . S
C272 H287 0.951 . S
C273 C272 1.402 . S
C273 C274 1.375 . S
C273 C276 1.481 . S
C274 C273 1.375 . S
C274 C275 1.367 . S
C274 H288 0.951 . S
C275 C271 1.383 . S
C275 C274 1.367 . S
C275 H289 0.950 . S
C276 C273 1.481 . S
C276 C277 1.297 . S
C276 H290 0.950 . S
C277 C276 1.297 . S
C277 C278 1.479 . S
C277 H291 0.950 . S
C278 C277 1.479 . S
C278 C279 1.375 . S
C278 C284 1.404 . S
C279 C278 1.375 . S
C279 C280 1.369 . S
C279 H292 0.950 . S
C280 C279 1.369 . S
C280 C281 1.392 . S
C280 H293 0.951 . S
C281 C280 1.392 . S
C281 C283 1.384 . S
H282 C284 0.949 . S
C283 C281 1.384 . S
C283 C284 1.385 . S
C283 H285 0.950 . S
C284 C278 1.404 . S
C284 H282 0.949 . S
C284 C283 1.385 . S
H285 C283 0.950 . S
H286 C270 0.951 . S
H287 C272 0.951 . S
H288 C274 0.951 . S
H289 C275 0.950 . S
H290 C276 0.950 . S
H291 C277 0.950 . S
H292 C279 0.950 . S
H293 C280 0.951 . S
C294 C295 1.386 . S
C294 C296 1.383 . S
C294 H310 0.951 . S
C295 C294 1.386 . S
C295 C299 1.383 . S
C296 C294 1.383 . S
C296 C297 1.402 . S
C296 H311 0.951 . S
C297 C296 1.402 . S
C297 C298 1.375 . S
C297 C300 1.481 . S
C298 C297 1.375 . S
C298 C299 1.367 . S
C298 H312 0.951 . S
C299 C295 1.383 . S
C299 C298 1.367 . S
C299 H313 0.950 . S
C300 C297 1.481 . S
C300 C301 1.297 1_556 S
C300 H314 0.950 1_556 S
C301 C300 1.297 1_554 S
C301 C302 1.479 . S
C301 H315 0.950 1_554 S
C302 C301 1.479 . S
C302 C303 1.375 . S
C302 C308 1.404 . S
C303 C302 1.375 . S
C303 C304 1.369 . S
C303 H316 0.950 . S
C304 C303 1.369 . S
C304 C305 1.392 . S
C304 H317 0.951 . S
C305 C304 1.392 . S
C305 C307 1.384 . S
H306 C308 0.949 . S
C307 C305 1.384 . S
C307 C308 1.385 . S
C307 H309 0.950 . S
C308 C302 1.404 . S
C308 H306 0.949 . S
C308 C307 1.385 . S
H309 C307 0.950 . S
H310 C294 0.951 . S
H311 C296 0.951 . S
H312 C298 0.951 . S
H313 C299 0.950 . S
H314 C300 0.950 1_554 S
H315 C301 0.950 1_556 S
H316 C303 0.950 . S
H317 C304 0.951 . S
C318 C319 1.386 . S
C318 C320 1.383 . S
C318 H334 0.951 . S
C319 C318 1.386 . S
C319 C323 1.383 . S
C320 C318 1.383 . S
C320 C321 1.402 . S
C320 H335 0.951 . S
C321 C320 1.402 . S
C321 C322 1.375 . S
C321 C324 1.481 . S
C322 C321 1.375 . S
C322 C323 1.367 . S
C322 H336 0.951 . S
C323 C319 1.383 . S
C323 C322 1.367 . S
C323 H337 0.950 . S
C324 C321 1.481 . S
C324 C325 1.297 . S
C324 H338 0.950 . S
C325 C324 1.297 . S
C325 C326 1.479 . S
C325 H339 0.950 . S
C326 C325 1.479 . S
C326 C327 1.375 . S
C326 C332 1.404 . S
C327 C326 1.375 . S
C327 C328 1.369 . S
C327 H340 0.950 . S
C328 C327 1.369 . S
C328 C329 1.392 . S
C328 H341 0.951 . S
C329 C328 1.392 . S
C329 C331 1.384 . S
H330 C332 0.949 . S
C331 C329 1.384 . S
C331 C332 1.385 . S
C331 H333 0.950 . S
C332 C326 1.404 . S
C332 H330 0.949 . S
C332 C331 1.385 . S
H333 C331 0.950 . S
H334 C318 0.951 . S
H335 C320 0.951 . S
H336 C322 0.951 . S
H337 C323 0.950 . S
H338 C324 0.950 . S
H339 C325 0.950 . S
H340 C327 0.950 . S
H341 C328 0.951 . S
C342 C343 1.386 . S
C342 C344 1.383 . S
C342 H358 0.951 . S
C343 C342 1.386 . S
C343 C347 1.383 . S
C344 C342 1.383 . S
C344 C345 1.402 . S
C344 H359 0.951 . S
C345 C344 1.402 . S
C345 C346 1.375 . S
C345 C348 1.481 . S
C346 C345 1.375 . S
C346 C347 1.367 . S
C346 H360 0.951 . S
C347 C343 1.383 . S
C347 C346 1.367 . S
C347 H361 0.950 . S
C348 C345 1.481 . S
C348 C349 1.297 . S
C348 H362 0.950 . S
C349 C348 1.297 . S
C349 C350 1.479 . S
C349 H363 0.950 . S
C350 C349 1.479 . S
C350 C351 1.375 . S
C350 C356 1.404 . S
C351 C350 1.375 . S
C351 C352 1.369 . S
C351 H364 0.950 . S
C352 C351 1.369 . S
C352 C353 1.392 . S
C352 H365 0.951 . S
C353 C352 1.392 . S
C353 C355 1.384 . S
H354 C356 0.949 . S
C355 C353 1.384 . S
C355 C356 1.385 . S
C355 H357 0.950 . S
C356 C350 1.404 . S
C356 H354 0.949 . S
C356 C355 1.385 . S
H357 C355 0.950 . S
H358 C342 0.951 . S
H359 C344 0.951 . S
H360 C346 0.951 . S
H361 C347 0.950 . S
H362 C348 0.950 . S
H363 C349 0.950 . S
H364 C351 0.950 . S
H365 C352 0.951 . S
C79 C5 1.929 . S
C89 C44 1.925 . S
C103 C18 1.947 . S
C113 C57 1.910 . S
C127 C31 1.937 . S
C137 C70 1.912 . S
C151 C23 2.013 . S
C161 C62 2.035 . S
C175 C75 2.011 . S
C185 C36 2.025 . S
C199 C49 2.028 . S
C209 C10 2.033 . S
C223 C29 1.652 . S
C233 C1 1.640 . S
C247 C42 1.610 . S
C257 C14 1.647 . S
C271 C27 1.628 . S
C281 C55 1.579 . S
C295 C68 1.643 . S
C305 C40 1.666 . S
C319 C53 1.624 . S
C329 C3 1.640 . S
C343 C66 1.618 . S
C353 C16 1.595 . S
