# Generated by pormake.
# Topology wkj, (6)-cn, num edge types: 1
# Building blocks:
#     Node 0, Type 0, BuildingBlock: INOVEN_clean_sbu_0, # of connection points: 6
#     Node 1, Type 0, BuildingBlock: INOVEN_clean_sbu_0, # of connection points: 6
#     Node 2, Type 0, BuildingBlock: INOVEN_clean_sbu_0, # of connection points: 6
#     Node 3, Type 0, BuildingBlock: INOVEN_clean_sbu_0, # of connection points: 6
#     Node 4, Type 0, BuildingBlock: INOVEN_clean_sbu_0, # of connection points: 6
#     Node 5, Type 0, BuildingBlock: INOVEN_clean_sbu_0, # of connection points: 6
#     Node 6, Type 0, BuildingBlock: INOVEN_clean_sbu_0, # of connection points: 6
#     Node 7, Type 0, BuildingBlock: INOVEN_clean_sbu_0, # of connection points: 6
#     Node 8, Type 0, BuildingBlock: INOVEN_clean_sbu_0, # of connection points: 6
#     Node 9, Type 0, BuildingBlock: INOVEN_clean_sbu_0, # of connection points: 6
#     Node 10, Type 0, BuildingBlock: INOVEN_clean_sbu_0, # of connection points: 6
#     Node 11, Type 0, BuildingBlock: INOVEN_clean_sbu_0, # of connection points: 6
#     Edge 12, Type (0, 0), BuildingBlock: TEMPAE_clean_linker_10, # of connection points: 2
#     Edge 13, Type (0, 0), BuildingBlock: TEMPAE_clean_linker_10, # of connection points: 2
#     Edge 14, Type (0, 0), BuildingBlock: TEMPAE_clean_linker_10, # of connection points: 2
#     Edge 15, Type (0, 0), BuildingBlock: TEMPAE_clean_linker_10, # of connection points: 2
#     Edge 16, Type (0, 0), BuildingBlock: TEMPAE_clean_linker_10, # of connection points: 2
#     Edge 17, Type (0, 0), BuildingBlock: TEMPAE_clean_linker_10, # of connection points: 2
#     Edge 18, Type (0, 0), BuildingBlock: TEMPAE_clean_linker_10, # of connection points: 2
#     Edge 19, Type (0, 0), BuildingBlock: TEMPAE_clean_linker_10, # of connection points: 2
#     Edge 20, Type (0, 0), BuildingBlock: TEMPAE_clean_linker_10, # of connection points: 2
#     Edge 21, Type (0, 0), BuildingBlock: TEMPAE_clean_linker_10, # of connection points: 2
#     Edge 22, Type (0, 0), BuildingBlock: TEMPAE_clean_linker_10, # of connection points: 2
#     Edge 23, Type (0, 0), BuildingBlock: TEMPAE_clean_linker_10, # of connection points: 2
#     Edge 24, Type (0, 0), BuildingBlock: TEMPAE_clean_linker_10, # of connection points: 2
#     Edge 25, Type (0, 0), BuildingBlock: TEMPAE_clean_linker_10, # of connection points: 2
#     Edge 26, Type (0, 0), BuildingBlock: TEMPAE_clean_linker_10, # of connection points: 2
#     Edge 27, Type (0, 0), BuildingBlock: TEMPAE_clean_linker_10, # of connection points: 2
#     Edge 28, Type (0, 0), BuildingBlock: TEMPAE_clean_linker_10, # of connection points: 2
#     Edge 29, Type (0, 0), BuildingBlock: TEMPAE_clean_linker_10, # of connection points: 2
#     Edge 30, Type (0, 0), BuildingBlock: TEMPAE_clean_linker_10, # of connection points: 2
#     Edge 31, Type (0, 0), BuildingBlock: TEMPAE_clean_linker_10, # of connection points: 2
#     Edge 32, Type (0, 0), BuildingBlock: TEMPAE_clean_linker_10, # of connection points: 2
#     Edge 33, Type (0, 0), BuildingBlock: TEMPAE_clean_linker_10, # of connection points: 2
#     Edge 34, Type (0, 0), BuildingBlock: TEMPAE_clean_linker_10, # of connection points: 2
#     Edge 35, Type (0, 0), BuildingBlock: TEMPAE_clean_linker_10, # of connection points: 2
#     Edge 36, Type (0, 0), BuildingBlock: TEMPAE_clean_linker_10, # of connection points: 2
#     Edge 37, Type (0, 0), BuildingBlock: TEMPAE_clean_linker_10, # of connection points: 2
#     Edge 38, Type (0, 0), BuildingBlock: TEMPAE_clean_linker_10, # of connection points: 2
#     Edge 39, Type (0, 0), BuildingBlock: TEMPAE_clean_linker_10, # of connection points: 2
#     Edge 40, Type (0, 0), BuildingBlock: TEMPAE_clean_linker_10, # of connection points: 2
#     Edge 41, Type (0, 0), BuildingBlock: TEMPAE_clean_linker_10, # of connection points: 2
#     Edge 42, Type (0, 0), BuildingBlock: TEMPAE_clean_linker_10, # of connection points: 2
#     Edge 43, Type (0, 0), BuildingBlock: TEMPAE_clean_linker_10, # of connection points: 2
#     Edge 44, Type (0, 0), BuildingBlock: TEMPAE_clean_linker_10, # of connection points: 2
#     Edge 45, Type (0, 0), BuildingBlock: TEMPAE_clean_linker_10, # of connection points: 2
#     Edge 46, Type (0, 0), BuildingBlock: TEMPAE_clean_linker_10, # of connection points: 2
#     Edge 47, Type (0, 0), BuildingBlock: TEMPAE_clean_linker_10, # of connection points: 2
# Relax obj value: 0.711
# Max RMSD: 0.170
# Mean RMSD: 0.170
data_MOF--net-wkj--node1-INOVEN_clean_sbu_0--edge1-TEMPAE_clean_linker_10
_symmetry_space_group_name_H-M    P1
_symmetry_Int_Tables_number       1
_symmetry_cell_setting            triclinic
loop_
_symmetry_equiv_pos_as_xyz
'x, y, z'
_cell_length_a     49.602769
_cell_length_b     49.314662
_cell_length_c     31.114753
_cell_angle_alpha  90.069529
_cell_angle_beta   90.025741
_cell_angle_gamma 120.00785
loop_
_atom_site_label
_atom_site_type_symbol
_atom_site_fract_x
_atom_site_fract_y
_atom_site_fract_z
_atom_type_partial_charge
Gd0 Gd 0.47078 0.07901 0.36715 0.0
Gd1 Gd 0.53072 0.11364 0.34019 0.0
C2 C 0.51866 0.10526 0.45036 0.0
C3 C 0.41178 0.04422 0.38239 0.0
C4 C 0.39072 0.0478 0.41167 0.0
C5 C 0.3586 0.02701 0.40991 0.0
C6 C 0.40299 0.07134 0.44301 0.0
C7 C 0.35171 0.05019 0.47516 0.0
C8 C 0.3837 0.07252 0.47453 0.0
C9 C 0.33913 0.02829 0.44137 0.0
C10 C 0.48722 0.14045 0.34804 0.0
C11 C 0.48401 0.0618 0.26847 0.0
C12 C 0.58271 0.16477 0.32582 0.0
C13 C 0.59429 0.19104 0.29492 0.0
C14 C 0.60471 0.18831 0.25416 0.0
C15 C 0.59411 0.21875 0.30542 0.0
C16 C 0.611 0.23879 0.23307 0.0
C17 C 0.60231 0.24236 0.27477 0.0
C18 C 0.61276 0.21173 0.22362 0.0
C19 C 0.52399 0.05922 0.36665 0.0
O20 O 0.48896 0.08686 0.43852 0.0
O21 O 0.5388 0.11915 0.41741 0.0
O22 O 0.42287 0.06445 0.35118 0.0
O23 O 0.43311 0.04012 0.40083 0.0
O24 O 0.47525 0.12642 0.38406 0.0
O25 O 0.49201 0.12198 0.32519 0.0
O26 O 0.5097 0.09005 0.27259 0.0
O27 O 0.46737 0.0505 0.30437 0.0
O28 O 0.57651 0.13738 0.31093 0.0
O29 O 0.5618 0.16277 0.35318 0.0
O30 O 0.53999 0.07407 0.33291 0.0
O31 O 0.51067 0.073 0.38245 0.0
H32 H 0.34878 0.009 0.38538 0.0
H33 H 0.42779 0.08777 0.44449 0.0
H34 H 0.39443 0.0894 0.50027 0.0
H35 H 0.31456 0.01101 0.44067 0.0
H36 H 0.60553 0.16751 0.24513 0.0
H37 H 0.58672 0.22179 0.33693 0.0
H38 H 0.60093 0.26292 0.28336 0.0
H39 H 0.61861 0.20756 0.1917 0.0
Gd40 Gd 0.36498 0.47052 0.71164 0.0
Gd41 Gd 0.40039 0.53357 0.68819 0.0
C42 C 0.39322 0.52193 0.79518 0.0
C43 C 0.33515 0.41338 0.73969 0.0
C44 C 0.34031 0.38717 0.74831 0.0
C45 C 0.31963 0.36338 0.77557 0.0
C46 C 0.3655 0.38564 0.7304 0.0
C47 C 0.35085 0.33801 0.77083 0.0
C48 C 0.3708 0.36121 0.74171 0.0
C49 C 0.32477 0.33902 0.7867 0.0
C50 C 0.32792 0.49271 0.67617 0.0
C51 C 0.39506 0.47936 0.61494 0.0
C52 C 0.41569 0.58774 0.65586 0.0
C53 C 0.40649 0.59953 0.61841 0.0
C54 C 0.40888 0.59039 0.57658 0.0
C55 C 0.39333 0.61872 0.62478 0.0
C56 C 0.38408 0.61853 0.5481 0.0
C57 C 0.38201 0.62801 0.58992 0.0
C58 C 0.39782 0.59981 0.54186 0.0
C59 C 0.43642 0.51519 0.7278 0.0
O60 O 0.37832 0.49184 0.78238 0.0
O61 O 0.40238 0.54333 0.76352 0.0
O62 O 0.34914 0.4377 0.76499 0.0
O63 O 0.33594 0.421 0.69951 0.0
O64 O 0.32633 0.46644 0.66778 0.0
O65 O 0.34968 0.50667 0.70335 0.0
O66 O 0.39784 0.50787 0.62079 0.0
O67 O 0.38682 0.46143 0.65011 0.0
O68 O 0.43145 0.57337 0.64881 0.0
O69 O 0.39403 0.57377 0.68485 0.0
O70 O 0.44185 0.54379 0.72792 0.0
O71 O 0.41503 0.49894 0.70104 0.0
H72 H 0.29998 0.36416 0.78942 0.0
H73 H 0.38155 0.40378 0.70885 0.0
H74 H 0.39115 0.36118 0.72915 0.0
H75 H 0.30929 0.32209 0.81 0.0
H76 H 0.41854 0.5753 0.57065 0.0
H77 H 0.39114 0.62593 0.65689 0.0
H78 H 0.37143 0.64229 0.59567 0.0
H79 H 0.39903 0.5914 0.51013 0.0
Gd80 Gd 0.88947 0.38651 1.02587 0.0
Gd81 Gd 0.86304 0.42165 1.00563 0.0
C82 C 0.86978 0.41608 1.11254 0.0
C83 C 0.91205 0.35246 1.05299 0.0
C84 C 0.93048 0.3501 1.08776 0.0
C85 C 0.92963 0.3216 1.09416 0.0
C86 C 0.94964 0.37603 1.11351 0.0
C87 C 0.96718 0.34477 0.15208 0.0
C88 C 0.96797 0.3734 0.14541 0.0
C89 C 0.94782 0.3189 0.12614 0.0
C90 C 0.83213 0.35091 0.98464 0.0
C91 C 0.91132 0.41868 0.93081 0.0
C92 C 0.82314 0.43963 0.98842 0.0
C93 C 0.78902 0.42315 0.98792 0.0
C94 C 0.77408 0.43209 0.95765 0.0
C95 C 0.77214 0.39404 1.00845 0.0
C96 C 0.73098 0.37867 0.95585 0.0
C97 C 0.74272 0.37202 0.99301 0.0
C98 C 0.74475 0.41 0.94217 0.0
C99 C 0.92186 0.46114 1.02967 0.0
O100 O 0.88498 0.40139 1.09839 0.0
O101 O 0.85692 0.42468 1.08121 0.0
O102 O 0.88412 0.34689 1.06286 0.0
O103 O 0.92686 0.37621 1.02695 0.0
O104 O 0.85817 0.35338 0.97286 0.0
O105 O 0.83824 0.36999 1.01526 0.0
O106 O 0.88547 0.42075 0.93715 0.0
O107 O 0.92083 0.40988 0.96539 0.0
O108 O 0.83523 0.42973 0.95944 0.0
O109 O 0.83655 0.44372 1.02572 0.0
O110 O 0.90853 0.46608 0.99721 0.0
O111 O 0.90437 0.43429 1.04417 0.0
H112 H 0.9149 0.30142 1.07436 0.0
H113 H 0.95057 0.39825 1.10873 0.0
H114 H 0.9829 0.39381 0.16468 0.0
H115 H 0.94635 0.29646 0.13101 0.0
H116 H 0.78665 0.45463 0.94184 0.0
H117 H 0.78318 0.38687 1.03239 0.0
H118 H 0.73209 0.34826 1.00482 0.0
H119 H 0.73599 0.41609 0.91406 0.0
Gd120 Gd 0.51774 0.89231 0.35865 0.0
Gd121 Gd 0.45979 0.88512 0.34818 0.0
C122 C 0.47205 0.87801 0.4488 0.0
C123 C 0.57172 0.9004 0.38038 0.0
C124 C 0.59194 0.91143 0.4179 0.0
C125 C 0.62073 0.91259 0.41703 0.0
C126 C 0.58303 0.92175 0.45421 0.0
C127 C 0.63209 0.93513 0.4886 0.0
C128 C 0.60299 0.93361 0.48926 0.0
C129 C 0.64081 0.92446 0.45225 0.0
C130 C 0.48067 0.83674 0.3168 0.0
C131 C 0.51124 0.92437 0.26791 0.0
C132 C 0.40362 0.86413 0.31994 0.0
C133 C 0.37872 0.83204 0.31113 0.0
C134 C 0.34991 0.82636 0.2955 0.0
C135 C 0.38552 0.80765 0.31176 0.0
C136 C 0.33839 0.77469 0.271 0.0
C137 C 0.36556 0.77919 0.29177 0.0
C138 C 0.32958 0.79762 0.27614 0.0
C139 C 0.49989 0.94017 0.38649 0.0
O140 O 0.50104 0.88925 0.43262 0.0
O141 O 0.44973 0.86996 0.41964 0.0
O142 O 0.54575 0.87397 0.38514 0.0
O143 O 0.56783 0.92154 0.36075 0.0
O144 O 0.50734 0.85891 0.30391 0.0
O145 O 0.47256 0.84675 0.34949 0.0
O146 O 0.48239 0.91361 0.2836 0.0
O147 O 0.53035 0.91903 0.29231 0.0
O148 O 0.42783 0.87375 0.29504 0.0
O149 O 0.41135 0.87133 0.36008 0.0
O150 O 0.47057 0.92435 0.39597 0.0
O151 O 0.50492 0.92789 0.35475 0.0
H152 H 0.62781 0.90469 0.38896 0.0
H153 H 0.56102 0.92136 0.45505 0.0
H154 H 0.59601 0.94248 0.51637 0.0
H155 H 0.66313 0.9255 0.451 0.0
H156 H 0.34416 0.84486 0.2953 0.0
H157 H 0.40762 0.8116 0.32415 0.0
H158 H 0.37331 0.76229 0.28858 0.0
H159 H 0.30843 0.79457 0.26149 0.0
Gd160 Gd 0.59615 0.50578 0.70923 0.0
Gd161 Gd 0.55968 0.44026 0.68688 0.0
C162 C 0.56514 0.45376 0.79448 0.0
C163 C 0.6267 0.56283 0.73625 0.0
C164 C 0.62775 0.58472 0.76905 0.0
C165 C 0.65647 0.60616 0.78738 0.0
C166 C 0.60112 0.58644 0.77943 0.0
C167 C 0.63187 0.6305 0.82668 0.0
C168 C 0.60312 0.60901 0.80827 0.0
C169 C 0.65856 0.62898 0.81596 0.0
C170 C 0.63056 0.48467 0.66358 0.0
C171 C 0.56405 0.49292 0.61322 0.0
C172 C 0.54578 0.38326 0.6695 0.0
C173 C 0.56105 0.36984 0.64383 0.0
C174 C 0.54502 0.33808 0.6325 0.0
C175 C 0.59136 0.38925 0.62864 0.0
C176 C 0.58807 0.34623 0.58629 0.0
C177 C 0.60486 0.37754 0.60037 0.0
C178 C 0.55844 0.32631 0.60388 0.0
C179 C 0.52344 0.46342 0.71437 0.0
O180 O 0.58124 0.48406 0.78104 0.0
O181 O 0.55497 0.43208 0.76286 0.0
O182 O 0.63375 0.54155 0.74787 0.0
O183 O 0.60365 0.55253 0.70869 0.0
O184 O 0.63 0.51009 0.65661 0.0
O185 O 0.61152 0.47055 0.69382 0.0
O186 O 0.56269 0.46504 0.61905 0.0
O187 O 0.57174 0.51121 0.64803 0.0
O188 O 0.53472 0.39828 0.64791 0.0
O189 O 0.56097 0.3984 0.70382 0.0
O190 O 0.51307 0.43921 0.68914 0.0
O191 O 0.55021 0.47039 0.7252 0.0
H192 H 0.67736 0.60547 0.77922 0.0
H193 H 0.57881 0.5706 0.76496 0.0
H194 H 0.58224 0.60985 0.81594 0.0
H195 H 0.68091 0.64508 0.8302 0.0
H196 H 0.52165 0.32275 0.64427 0.0
H197 H 0.60394 0.41386 0.63697 0.0
H198 H 0.62743 0.39374 0.58686 0.0
H199 H 0.54497 0.30212 0.59357 0.0
Gd200 Gd 0.08689 0.61896 1.02919 0.0
Gd201 Gd 0.1017 0.57355 1.01128 0.0
C202 C 0.10387 0.5858 1.11525 0.0
C203 C 0.0712 0.65875 1.05688 0.0
C204 C 0.05111 0.66025 1.08982 0.0
C205 C 0.04017 0.6813 1.08491 0.0
C206 C 0.04079 0.63922 0.12421 0.0
C207 C 0.00739 0.65936 0.14782 0.0
C208 C 0.01895 0.63863 0.15285 0.0
C209 C 0.01853 0.68098 1.11382 0.0
C210 C 0.1429 0.64647 0.98566 0.0
C211 C 0.05918 0.58458 0.93461 0.0
C212 C 0.12865 0.54404 0.98111 0.0
C213 C 0.15496 0.55489 0.95143 0.0
C214 C 0.1624 0.53392 0.93172 0.0
C215 C 0.17268 0.58693 0.94234 0.0
C216 C 0.20341 0.57691 0.89086 0.0
C217 C 0.19683 0.5979 0.9127 0.0
C218 C 0.18647 0.54486 0.90143 0.0
C219 C 0.04513 0.55068 1.04985 0.0
O220 O 0.09145 0.60324 1.10148 0.0
O221 O 0.11248 0.57314 1.0842 0.0
O222 O 0.09586 0.65818 1.0702 0.0
O223 O 0.05663 0.63868 1.02621 0.0
O224 O 0.11907 0.64933 0.97718 0.0
O225 O 0.13509 0.62613 1.01558 0.0
O226 O 0.07835 0.5733 0.94362 0.0
O227 O 0.05662 0.60189 0.96583 0.0
O228 O 0.10302 0.54107 0.96498 0.0
O229 O 0.13575 0.5587 1.01779 0.0
O230 O 0.06388 0.54023 1.05815 0.0
O231 O 0.0563 0.5697 1.01985 0.0
H232 H 0.04797 0.69762 1.05827 0.0
H233 H 0.04884 0.6226 0.1281 0.0
H234 H 0.0104 0.62122 0.1781 0.0
H235 H 0.01051 0.69757 1.10948 0.0
H236 H 0.14899 0.5091 0.93867 0.0
H237 H 0.16703 0.60334 0.95709 0.0
H238 H 0.20875 0.62257 0.90459 0.0
H239 H 0.19088 0.52816 0.8848 0.0
Gd240 Gd 0.89487 0.53288 0.54117 0.0
Gd241 Gd 0.88395 0.47374 0.55598 0.0
C242 C 0.875 0.48271 0.45338 0.0
C243 C 0.90581 0.58685 0.51283 0.0
C244 C 0.90053 0.59667 0.47068 0.0
C245 C 0.88973 0.61803 0.46753 0.0
C246 C 0.90427 0.58306 0.43332 0.0
C247 C 0.88725 0.6125 0.38972 0.0
C248 C 0.89768 0.59082 0.39338 0.0
C249 C 0.88334 0.62613 0.42718 0.0
C250 C 0.84017 0.49973 0.58575 0.0
C251 C 0.92369 0.52519 0.63485 0.0
C252 C 0.86003 0.41682 0.58349 0.0
C253 C 0.83921 0.3995 0.61945 0.0
C254 C 0.84791 0.40904 0.66214 0.0
C255 C 0.8086 0.37567 0.61047 0.0
C256 C 0.79448 0.37467 0.68527 0.0
C257 C 0.78635 0.36343 0.6431 0.0
C258 C 0.82577 0.39656 0.69478 0.0
C259 C 0.93872 0.50924 0.51454 0.0
O260 O 0.88242 0.51129 0.46892 0.0
O261 O 0.87286 0.4623 0.48301 0.0
O262 O 0.8806 0.56761 0.53344 0.0
O263 O 0.92694 0.57847 0.51451 0.0
O264 O 0.86338 0.52655 0.59706 0.0
O265 O 0.84851 0.48972 0.55335 0.0
O266 O 0.90468 0.49492 0.62491 0.0
O267 O 0.92609 0.54564 0.60439 0.0
O268 O 0.88854 0.43867 0.59253 0.0
O269 O 0.84713 0.42559 0.55425 0.0
O270 O 0.92011 0.47979 0.50769 0.0
O271 O 0.92888 0.51811 0.54548 0.0
H272 H 0.88638 0.6285 0.49619 0.0
H273 H 0.91264 0.56665 0.43481 0.0
H274 H 0.90201 0.58065 0.36518 0.0
H275 H 0.87573 0.64319 0.42519 0.0
H276 H 0.87136 0.42716 0.67018 0.0
H277 H 0.80144 0.36784 0.57773 0.0
H278 H 0.7625 0.34651 0.63488 0.0
H279 H 0.83291 0.40495 0.72732 0.0
Gd280 Gd 0.38705 0.90648 0.8696 0.0
Gd281 Gd 0.41713 0.87588 0.89596 0.0
C282 C 0.4105 0.88167 0.78586 0.0
C283 C 0.36246 0.94139 0.85593 0.0
C284 C 0.35847 0.96096 0.82372 0.0
C285 C 0.32888 0.95046 0.80587 0.0
C286 C 0.38315 0.99057 0.81216 0.0
C287 C 0.34909 -0.00226 0.76295 0.0
C288 C 0.37848 0.0088 0.78205 0.0
C289 C 0.32425 0.96857 0.77565 0.0
C290 C 0.34602 0.84557 0.89513 0.0
C291 C 0.41797 0.92535 0.96916 0.0
C292 C 0.42254 0.82709 0.9105 0.0
C293 C 0.40771 0.80021 0.93992 0.0
C294 C 0.37658 0.78808 0.95224 0.0
C295 C 0.42468 0.78686 0.95655 0.0
C296 C 0.38034 0.75158 1.00079 0.0
C297 C 0.41111 0.76271 0.98684 0.0
C298 C 0.36297 0.76395 0.98219 0.0
C299 C 0.46091 0.93049 0.86378 0.0
O300 O 0.4001 0.90092 0.79816 0.0
O301 O 0.41691 0.86784 0.81884 0.0
O302 O 0.34802 0.9113 0.84873 0.0
O303 O 0.39008 0.95181 0.87267 0.0
O304 O 0.34499 0.85777 0.8589 0.0
O305 O 0.36998 0.86568 0.91532 0.0
O306 O 0.4218 0.90051 0.96328 0.0
O307 O 0.40663 0.93316 0.93547 0.0
O308 O 0.44095 0.85447 0.92787 0.0
O309 O 0.40414 0.82814 0.8813 0.0
O310 O 0.46493 0.91753 0.89768 0.0
O311 O 0.43313 0.91499 0.85112 0.0
H312 H 0.30934 0.92797 0.8149 0.0
H313 H 0.4061 -0.0004 0.82605 0.0
H314 H 0.39798 0.03135 0.77322 0.0
H315 H 0.30146 0.95915 0.76108 0.0
H316 H 0.36307 0.79799 0.93977 0.0
H317 H 0.44868 0.79574 0.94712 0.0
H318 H 0.42506 0.75366 1.00069 0.0
H319 H 0.33948 0.75651 0.99284 0.0
Gd320 Gd 0.44364 0.36225 0.21858 0.0
Gd321 Gd 0.50129 0.40912 0.23412 0.0
C322 C 0.49531 0.38998 0.13313 0.0
C323 C 0.39104 0.3212 0.1851 0.0
C324 C 0.38184 0.31415 0.13976 0.0
C325 C 0.36857 0.28328 0.12457 0.0
C326 C 0.39007 0.33861 1.1104 0.0
C327 C 0.37297 0.30167 1.05106 0.0
C328 C 0.38585 0.33247 1.06654 0.0
C329 C 0.36413 0.27704 1.08046 0.0
C330 C 0.47425 0.3377 0.26343 0.0
C331 C 0.44928 0.40101 0.31042 0.0
C332 C 0.55665 0.44269 0.2667 0.0
C333 C 0.58097 0.43531 0.27766 0.0
C334 C 0.60812 0.45742 0.29855 0.0
C335 C 0.57495 0.40455 0.27286 0.0
C336 C 0.61891 0.4161 0.31915 0.0
C337 C 0.59361 0.39487 0.29369 0.0
C338 C 0.62735 0.448 0.31851 0.0
C339 C 0.46874 0.43025 0.1883 0.0
O340 O 0.46568 0.3721 0.14703 0.0
O341 O 0.51587 0.40502 0.1642 0.0
O342 O 0.41229 0.31473 0.19723 0.0
O343 O 0.39637 0.34833 0.19946 0.0
O344 O 0.44777 0.33514 0.27365 0.0
O345 O 0.48583 0.35727 0.23228 0.0
O346 O 0.47915 0.41571 0.29812 0.0
O347 O 0.42949 0.37868 0.28308 0.0
O348 O 0.5314 0.42787 0.28964 0.0
O349 O 0.55059 0.4425 0.22601 0.0
O350 O 0.49818 0.44074 0.1851 0.0
O351 O 0.45827 0.41154 0.21934 0.0
H352 H 0.36244 0.26414 0.14674 0.0
H353 H 0.40065 0.36265 0.12118 0.0
H354 H 0.39343 0.35203 1.04465 0.0
H355 H 0.35394 0.25308 1.06937 0.0
H356 H 0.61334 0.48144 0.30193 0.0
H357 H 0.55431 0.38755 0.2559 0.0
H358 H 0.58626 0.37018 0.29322 0.0
H359 H 0.64725 0.46518 0.33664 0.0
Gd360 Gd 0.08186 0.46629 0.53814 0.0
Gd361 Gd 0.08239 0.51919 0.55111 0.0
C362 C 0.09947 0.5126 0.44933 0.0
C363 C 0.0709 0.40917 0.53061 0.0
C364 C 0.06664 0.38709 0.49569 0.0
C365 C 0.09241 0.38688 0.47717 0.0
C366 C 0.03677 0.36673 0.47954 0.0
C367 C 0.05902 0.35064 0.42217 0.0
C368 C 0.033 0.34879 0.44307 0.0
C369 C 0.08863 0.36884 0.44063 0.0
C370 C 0.13982 0.50784 0.56752 0.0
C371 C 0.04624 0.47339 0.63022 0.0
C372 C 0.10417 0.57894 0.55841 0.0
C373 C 0.12517 0.60288 0.58918 0.0
C374 C 0.11969 0.59842 0.63347 0.0
C375 C 0.15391 0.62732 0.57448 0.0
C376 C 0.17344 0.63833 0.64763 0.0
C377 C 0.17799 0.64481 0.6035 0.0
C378 C 0.14357 0.6161 0.66243 0.0
C379 C 0.02875 0.47614 0.50894 0.0
O380 O 0.09056 0.48335 0.46377 0.0
O381 O 0.09997 0.53187 0.4797 0.0
O382 O 0.09866 0.43342 0.53484 0.0
O383 O 0.04909 0.41639 0.53547 0.0
O384 O 0.13366 0.49238 0.53194 0.0
O385 O 0.1142 0.50387 0.58366 0.0
O386 O 0.05816 0.50265 0.61692 0.0
O387 O 0.05209 0.45486 0.60435 0.0
O388 O 0.07635 0.55806 0.57162 0.0
O389 O 0.11757 0.56652 0.53622 0.0
O390 O 0.02965 0.49439 0.53968 0.0
O391 O 0.05595 0.48233 0.50259 0.0
H392 H 0.11568 0.40167 0.48971 0.0
H393 H 0.01639 0.3658 0.49374 0.0
H394 H 0.00986 0.33532 0.42949 0.0
H395 H 0.10903 0.37042 0.4255 0.0
H396 H 0.09784 0.5797 0.64575 0.0
H397 H 0.15855 0.63115 0.54034 0.0
H398 H 0.20068 0.66188 0.59127 0.0
H399 H 0.13932 0.61018 0.6962 0.0
Gd400 Gd 0.61376 0.08665 0.87509 0.0
Gd401 Gd 0.56298 0.09358 0.88686 0.0
C402 C 0.58342 0.10435 0.78669 0.0
C403 C 0.65994 0.07967 0.85115 0.0
C404 C 0.67063 0.07298 0.81106 0.0
C405 C 0.70126 0.07887 0.80768 0.0
C406 C 0.6505 0.0612 0.77579 0.0
C407 C 0.69139 0.06036 0.73392 0.0
C408 C 0.66072 0.05475 0.73762 0.0
C409 C 0.71163 0.07256 0.76926 0.0
C410 C 0.63188 0.14096 0.91967 0.0
C411 C 0.57514 0.0527 0.96494 0.0
C412 C 0.5262 0.11212 0.9172 0.0
C413 C 0.52937 0.14282 0.92558 0.0
C414 C 0.50432 0.14444 0.94342 0.0
C415 C 0.55879 0.16994 0.92351 0.0
C416 C 0.53979 0.19767 0.9672 0.0
C417 C 0.56397 0.19731 0.94415 0.0
C418 C 0.50944 0.17186 0.96381 0.0
C419 C 0.54862 0.03994 0.84471 0.0
O420 O 0.60107 0.09259 0.80177 0.0
O421 O 0.56891 0.11155 0.81666 0.0
O422 O 0.66121 0.1067 0.85263 0.0
O423 O 0.63395 0.05697 0.86657 0.0
O424 O 0.63584 0.11817 0.93168 0.0
O425 O 0.61395 0.13196 0.88672 0.0
O426 O 0.55691 0.06352 0.94982 0.0
O427 O 0.59976 0.05869 0.94055 0.0
O428 O 0.54399 0.10577 0.941 0.0
O429 O 0.52579 0.10424 0.87715 0.0
O430 O 0.53523 0.05618 0.83691 0.0
O431 O 0.56554 0.0509 0.87717 0.0
H432 H 0.71706 0.08822 0.83476 0.0
H433 H 0.6268 0.05662 0.77795 0.0
H434 H 0.64427 0.04457 0.71136 0.0
H435 H 0.73532 0.07707 0.76723 0.0
H436 H 0.48144 0.12373 0.94506 0.0
H437 H 0.57838 0.16904 0.90967 0.0
H438 H 0.58762 0.21674 0.94646 0.0
H439 H 0.49041 0.17165 0.98119 0.0
Gd440 Gd 0.5139 0.60811 0.2193 0.0
Gd441 Gd 0.45541 0.56116 0.23419 0.0
C442 C 0.46212 0.58228 0.13403 0.0
C443 C 0.56913 0.64986 0.19372 0.0
C444 C 0.58316 0.67334 0.15978 0.0
C445 C 0.6146 0.69642 0.16282 0.0
C446 C 0.56616 0.67146 0.12287 0.0
C447 C 0.61351 0.71165 1.08889 0.0
C448 C 0.58122 0.69047 1.08764 0.0
C449 C 0.6297 0.71562 0.12763 0.0
C450 C 0.48087 0.63175 0.25988 0.0
C451 C 0.50704 0.56828 0.31029 0.0
C452 C 0.39966 0.52998 0.26505 0.0
C453 C 0.37393 0.53662 0.26589 0.0
C454 C 0.34376 0.51299 0.27621 0.0
C455 C 0.38032 0.56762 0.26223 0.0
C456 C 0.32939 0.55256 0.29186 0.0
C457 C 0.35826 0.57559 0.27519 0.0
C458 C 0.32136 0.52086 0.2883 0.0
C459 C 0.48909 0.54 0.19159 0.0
O460 O 0.49161 0.60111 0.14817 0.0
O461 O 0.44163 0.56591 0.16444 0.0
O462 O 0.55361 0.6552 0.22289 0.0
O463 O 0.555 0.62068 0.18125 0.0
O464 O 0.50693 0.63465 0.27288 0.0
O465 O 0.47114 0.61267 0.22819 0.0
O466 O 0.47699 0.55494 0.29902 0.0
O467 O 0.52708 0.58916 0.28189 0.0
O468 O 0.42393 0.54926 0.2878 0.0
O469 O 0.4072 0.52391 0.22762 0.0
O470 O 0.45972 0.52949 0.18669 0.0
O471 O 0.49881 0.55893 0.2226 0.0
H472 H 0.62789 0.6984 0.19148 0.0
H473 H 0.54174 0.65399 0.12025 0.0
H474 H 0.56805 0.68643 1.05822 0.0
H475 H 0.6545 0.73191 0.12963 0.0
H476 H 0.33824 0.48882 0.27821 0.0
H477 H 0.40338 0.58612 0.25336 0.0
H478 H 0.3655 0.60024 0.27702 0.0
H479 H 0.29897 0.50242 0.2995 0.0
C480 C 0.49179 0.17993 0.29021 0.0
C481 C 0.48965 0.1713 0.33382 0.0
C482 C 0.49181 0.2077 0.27702 0.0
C483 C 0.49041 0.22838 0.30788 0.0
C484 C 0.48998 0.22054 0.352 0.0
C485 C 0.48902 0.19222 0.36422 0.0
C486 C 0.49291 0.21473 0.22972 0.0
C487 C 0.49051 0.24221 0.38663 0.0
C488 C 0.5093 0.3127 0.27359 0.0
C489 C 0.4797 0.31018 0.27248 0.0
C490 C 0.51339 0.28682 0.28488 0.0
C491 C 0.4872 0.25678 0.29431 0.0
C492 C 0.45729 0.25399 0.29173 0.0
C493 C 0.45403 0.28035 0.28176 0.0
C494 C 0.54615 0.29256 0.28847 0.0
C495 C 0.4283 0.22284 0.29954 0.0
H496 H 0.49257 0.16447 0.2661 0.0
H497 H 0.48788 0.18648 0.39803 0.0
H498 H 0.47215 0.21641 0.22061 0.0
H499 H 0.51376 0.23773 0.2227 0.0
H500 H 0.49369 0.19658 0.20946 0.0
H501 H 0.49435 0.23535 0.41906 0.0
H502 H 0.5092 0.26659 0.38002 0.0
H503 H 0.46808 0.24207 0.3868 0.0
H504 H 0.52953 0.3351 0.26684 0.0
H505 H 0.43085 0.27734 0.28084 0.0
H506 H 0.54737 0.27086 0.28442 0.0
H507 H 0.55542 0.30231 0.32081 0.0
H508 H 0.56158 0.31003 0.26434 0.0
H509 H 0.42841 0.2046 0.27872 0.0
H510 H 0.40667 0.22362 0.29314 0.0
H511 H 0.42783 0.21556 0.33338 0.0
C512 C 0.30259 0.52772 0.67415 0.0
C513 C 0.30157 0.49918 0.66518 0.0
C514 C 0.27764 0.53298 0.66241 0.0
C515 C 0.25042 0.50914 0.64144 0.0
C516 C 0.24932 0.48027 0.63293 0.0
C517 C 0.27456 0.47582 0.64445 0.0
C518 C 0.28066 0.56435 0.67193 0.0
C519 C 0.22136 0.45384 0.61096 0.0
C520 C 0.17041 0.5065 0.63405 0.0
C521 C 0.16966 0.51477 0.59091 0.0
C522 C 0.19691 0.50613 0.65164 0.0
C523 C 0.22381 0.51437 0.62596 0.0
C524 C 0.22367 0.52454 0.58328 0.0
C525 C 0.19694 0.52439 0.56652 0.0
C526 C 0.1955 0.49539 0.69732 0.0
C527 C 0.25138 0.53425 0.55424 0.0
H528 H 0.32309 0.54618 0.68985 0.0
H529 H 0.27301 0.45361 0.63707 0.0
H530 H 0.27998 0.57568 0.64148 0.0
H531 H 0.26071 0.56121 0.69176 0.0
H532 H 0.30263 0.58031 0.68912 0.0
H533 H 0.22308 0.43229 0.6084 0.0
H534 H 0.19984 0.44818 0.62889 0.0
H535 H 0.21893 0.46112 0.57813 0.0
H536 H 0.14966 0.49855 0.65341 0.0
H537 H 0.19695 0.53071 0.53316 0.0
H538 H 0.21579 0.51333 0.71572 0.0
H539 H 0.19681 0.47357 0.69768 0.0
H540 H 0.17381 0.49089 0.71387 0.0
H541 H 0.27287 0.55266 0.56999 0.0
H542 H 0.2486 0.5433 0.52287 0.0
H543 H 0.2547 0.51395 0.5481 0.0
C544 C 0.77298 0.31576 0.99605 0.0
C545 C 0.80043 0.32265 0.97376 0.0
C546 C 0.74382 0.28834 0.987 0.0
C547 C 0.74139 0.26673 0.9546 0.0
C548 C 0.76901 0.2739 0.93174 0.0
C549 C 0.79777 0.30132 0.94155 0.0
C550 C 0.7155 0.28247 1.01237 0.0
C551 C 0.76838 0.25214 0.89714 0.0
C552 C 0.67893 0.17895 0.96321 0.0
C553 C 0.65721 0.17428 0.93057 0.0
C554 C 0.7055 0.20855 0.97162 0.0
C555 C 0.71117 0.2353 0.94745 0.0
C556 C 0.68859 0.23111 0.91564 0.0
C557 C 0.66223 0.2009 0.90741 0.0
C558 C 0.72811 0.21094 1.00596 0.0
C559 C 0.69248 0.25851 0.88968 0.0
H560 H 0.77432 0.33161 1.02116 0.0
H561 H 0.81847 0.30595 0.92387 0.0
H562 H 0.6994 0.28575 0.99108 0.0
H563 H 0.70274 0.25803 1.02436 0.0
H564 H 0.72161 0.29861 1.04022 0.0
H565 H 0.79129 0.26129 0.88105 0.0
H566 H 0.76158 0.22894 0.91128 0.0
H567 H 0.75068 0.24847 0.87251 0.0
H568 H 0.67565 0.15897 0.98184 0.0
H569 H 0.64594 0.19807 0.88219 0.0
H570 H 0.73131 0.22894 1.03003 0.0
H571 H 0.75119 0.21847 0.99133 0.0
H572 H 0.72021 0.18838 1.02286 0.0
H573 H 0.69438 0.27711 0.91161 0.0
H574 H 0.67277 0.25207 0.8672 0.0
H575 H 0.71427 0.26816 0.87082 0.0
C576 C 0.45002 0.66087 0.2483 0.0
C577 C 0.47301 0.65731 0.27005 0.0
C578 C 0.44565 0.687 0.25628 0.0
C579 C 0.46502 0.71087 0.28622 0.0
C580 C 0.48746 0.70667 0.30906 0.0
C581 C 0.49091 0.68026 0.30106 0.0
C582 C 0.42081 0.68949 0.23162 0.0
C583 C 0.50902 0.73095 0.34099 0.0
C584 C 0.48688 0.79735 0.27218 0.0
C585 C 0.47176 0.80298 0.30656 0.0
C586 C 0.48375 0.76759 0.26433 0.0
C587 C 0.46449 0.74164 0.29093 0.0
C588 C 0.4476 0.74656 0.32428 0.0
C589 C 0.45153 0.77698 0.33187 0.0
C590 C 0.50247 0.76438 0.22849 0.0
C591 C 0.42583 0.71973 0.35267 0.0
H592 H 0.43584 0.64361 0.22435 0.0
H593 H 0.50866 0.67814 0.31856 0.0
H594 H 0.40787 0.69699 0.25308 0.0
H595 H 0.43183 0.70746 0.20614 0.0
H596 H 0.404 0.66692 0.21619 0.0
H597 H 0.52422 0.72379 0.3578 0.0
H598 H 0.52402 0.7534 0.32413 0.0
H599 H 0.49537 0.73539 0.36537 0.0
H600 H 0.5024 0.81679 0.25188 0.0
H601 H 0.43947 0.78052 0.35838 0.0
H602 H 0.48702 0.74489 0.20676 0.0
H603 H 0.51969 0.75864 0.24217 0.0
H604 H 0.51516 0.78612 0.20916 0.0
H605 H 0.40896 0.69981 0.33259 0.0
H606 H 0.41275 0.72641 0.37518 0.0
H607 H 0.4392 0.71137 0.37163 0.0
C608 C 0.67928 0.50137 0.61899 0.0
C609 C 0.65829 0.48117 0.65027 0.0
C610 C 0.70683 0.50097 0.6077 0.0
C611 C 0.71439 0.47974 0.6278 0.0
C612 C 0.6928 0.45851 0.65849 0.0
C613 C 0.66532 0.45953 0.66938 0.0
C614 C 0.72844 0.52413 0.57487 0.0
C615 C 0.6991 0.43511 0.68074 0.0
C616 C 0.7804 0.46984 0.57471 0.0
C617 C 0.80702 0.49106 0.5982 0.0
C618 C 0.75015 0.46503 0.58466 0.0
C619 C 0.74588 0.48176 0.61899 0.0
C620 C 0.7726 0.50235 0.64348 0.0
C621 C 0.80233 0.50664 0.63295 0.0
C622 C 0.72279 0.44257 0.55755 0.0
C623 C 0.77003 0.52085 0.68035 0.0
H624 H 0.67444 0.51819 0.60361 0.0
H625 H 0.64963 0.44371 0.69354 0.0
H626 H 0.75103 0.54054 0.59025 0.0
H627 H 0.73325 0.51173 0.54887 0.0
H628 H 0.71872 0.53798 0.56029 0.0
H629 H 0.67914 0.41841 0.70081 0.0
H630 H 0.70424 0.42168 0.65671 0.0
H631 H 0.71993 0.44761 0.70163 0.0
H632 H 0.78327 0.45759 0.54775 0.0
H633 H 0.82233 0.52303 0.65172 0.0
H634 H 0.71379 0.45564 0.53917 0.0
H635 H 0.70356 0.42558 0.5783 0.0
H636 H 0.72913 0.42945 0.53452 0.0
H637 H 0.76257 0.53719 0.66806 0.0
H638 H 0.79241 0.53464 0.69783 0.0
H639 H 0.75207 0.50488 0.70344 0.0
C640 C 0.30095 0.7903 0.8829 0.0
C641 C 0.31973 0.81448 0.91185 0.0
C642 C 0.27511 0.76154 0.89674 0.0
C643 C 0.26639 0.75653 0.94085 0.0
C644 C 0.28573 0.78063 0.97044 0.0
C645 C 0.31212 0.80888 0.9558 0.0
C646 C 0.25663 0.73662 0.86369 0.0
C647 C 0.27772 0.7773 1.01758 0.0
C648 C 0.17827 0.70237 0.96116 0.0
C649 C 0.17544 0.67405 0.97624 0.0
C650 C 0.20733 0.72903 0.95121 0.0
C651 C 0.23534 0.72803 0.9547 0.0
C652 C 0.23293 0.69952 0.96979 0.0
C653 C 0.20333 0.67328 0.98106 0.0
C654 C 0.20791 0.75853 0.93667 0.0
C655 C 0.26164 0.69653 0.97332 0.0
H656 H 0.3065 0.79387 0.84895 0.0
H657 H 0.32617 0.8271 0.97873 0.0
H658 H 0.25252 0.7135 0.87491 0.0
H659 H 0.23354 0.73466 0.85917 0.0
H660 H 0.26858 0.74185 0.83208 0.0
H661 H 0.2967 0.79585 1.03725 0.0
H662 H 0.2563 0.77876 1.02224 0.0
H663 H 0.27279 0.75412 1.02962 0.0
H664 H 0.15742 0.70402 0.95735 0.0
H665 H 0.20207 0.65202 0.99284 0.0
H666 H 0.216 0.76374 0.90289 0.0
H667 H 0.22456 0.77871 0.95658 0.0
H668 H 0.18466 0.7566 0.93876 0.0
H669 H 0.27351 0.70141 0.9417 0.0
H670 H 0.25617 0.67286 0.98415 0.0
H671 H 0.27828 0.71412 0.99635 0.0
C672 C 0.5394 0.20581 1.0451 0.0
C673 C 0.54799 0.21922 1.00426 0.0
C674 C 0.55384 0.22308 1.08201 0.0
C675 C 0.57662 0.25532 1.07826 0.0
C676 C 0.58274 0.26991 1.03737 0.0
C677 C 0.5689 0.25145 1.00056 0.0
C678 C 0.54674 0.20558 0.12429 0.0
C679 C 0.60494 0.30445 1.0315 0.0
C680 C 0.59147 0.26989 0.19347 0.0
C681 C 0.61343 0.25993 0.19729 0.0
C682 C 0.58387 0.27653 0.15283 0.0
C683 C 0.59703 0.27091 1.11599 0.0
C684 C 0.62404 0.2683 0.12071 0.0
C685 C 0.63239 0.26352 0.16182 0.0
C686 C 0.55823 0.28432 0.14886 0.0
C687 C 0.64097 0.26536 1.08226 0.0
H688 H 0.52352 0.18083 1.04803 0.0
H689 H 0.57543 0.26194 0.96892 0.0
H690 H 0.56838 0.20811 0.13854 0.0
H691 H 0.53668 0.21518 0.1474 0.0
H692 H 0.52989 0.18017 0.12066 0.0
H693 H 0.62566 0.30792 1.01326 0.0
H694 H 0.59361 0.31474 1.01183 0.0
H695 H 0.6126 0.31742 1.06237 0.0
H696 H 0.57756 0.26888 0.22086 0.0
H697 H 0.6511 0.25834 0.16523 0.0
H698 H 0.53545 0.26246 0.14569 0.0
H699 H 0.56169 0.29882 0.11986 0.0
H700 H 0.55724 0.29701 0.17781 0.0
H701 H 0.62536 0.24366 1.0641 0.0
H702 H 0.66219 0.26457 1.09162 0.0
H703 H 0.64798 0.28552 1.06042 0.0
C704 C 0.31514 0.59138 0.32121 0.0
C705 C 0.31373 0.56225 0.32429 0.0
C706 C 0.31634 0.60805 0.35855 0.0
C707 C 0.31699 0.59544 0.3991 0.0
C708 C 0.30854 0.56343 0.4019 0.0
C709 C 0.30649 0.54706 0.36423 0.0
C710 C 0.3209 0.6405 0.35408 0.0
C711 C 0.30735 0.54796 0.44441 0.0
C712 C 0.38536 0.63259 0.47125 0.0
C713 C 0.36996 0.62554 0.51082 0.0
C714 C 0.3689 0.62775 0.43289 0.0
C715 C 0.33636 0.61636 0.43457 0.0
C716 C 0.32245 0.616 0.47441 0.0
C717 C 0.33927 0.61987 0.51255 0.0
C718 C 0.3856 0.63045 0.39109 0.0
C719 C 0.28915 0.60885 0.47659 0.0
H720 H 0.31886 0.60267 0.29016 0.0
H721 H 0.30412 0.52409 0.36722 0.0
H722 H 0.31909 0.65033 0.38536 0.0
H723 H 0.34399 0.65635 0.33959 0.0
H724 H 0.30313 0.63989 0.33173 0.0
H725 H 0.29845 0.52244 0.4409 0.0
H726 H 0.33105 0.55884 0.45859 0.0
H727 H 0.29212 0.55107 0.46746 0.0
H728 H 0.40962 0.63871 0.47014 0.0
H729 H 0.32755 0.61569 0.54326 0.0
H730 H 0.38122 0.64475 0.36778 0.0
H731 H 0.37685 0.60685 0.37685 0.0
H732 H 0.41119 0.64145 0.39548 0.0
H733 H 0.28673 0.62649 0.45744 0.0
H734 H 0.2816 0.60915 0.51011 0.0
H735 H 0.27319 0.58568 0.46208 0.0
C736 C 0.73642 0.34233 0.90814 0.0
C737 C 0.71775 0.3547 0.92154 0.0
C738 C 0.73789 0.33577 0.86487 0.0
C739 C 0.7187 0.33979 0.83498 0.0
C740 C 0.69488 0.34523 0.85 0.0
C741 C 0.69515 0.35354 0.89331 0.0
C742 C 0.76396 0.33037 0.85053 0.0
C743 C 0.67221 0.34689 0.81938 0.0
C744 C 0.7719 0.38864 0.74672 0.0
C745 C 0.7704 0.36558 0.71897 0.0
C746 C 0.75265 0.38067 0.7827 0.0
C747 C 0.73071 0.34872 0.79059 0.0
C748 C 0.72649 0.32571 0.7599 0.0
C749 C 0.74673 0.33437 0.7245 0.0
C750 C 0.75815 0.40627 0.81435 0.0
C751 C 0.70232 0.29169 0.76579 0.0
H752 H 0.75383 0.34291 0.92975 0.0
H753 H 0.68028 0.36257 0.90368 0.0
H754 H 0.75541 0.31096 0.82696 0.0
H755 H 0.7824 0.35181 0.83466 0.0
H756 H 0.77471 0.32484 0.87786 0.0
H757 H 0.65001 0.34066 0.83592 0.0
H758 H 0.68221 0.37112 0.80703 0.0
H759 H 0.66729 0.33097 0.79154 0.0
H760 H 0.78922 0.41298 0.74134 0.0
H761 H 0.74496 0.31648 0.70251 0.0
H762 H 0.76698 0.40239 0.84518 0.0
H763 H 0.73608 0.40597 0.82114 0.0
H764 H 0.77532 0.42995 0.80237 0.0
H765 H 0.71334 0.2791 0.78038 0.0
H766 H 0.69257 0.28052 0.73422 0.0
H767 H 0.68298 0.28868 0.78692 0.0
C768 C 0.33662 0.70962 1.04384 0.0
C769 C 0.36827 0.73228 1.04017 0.0
C770 C 0.32259 0.70045 1.08444 0.0
C771 C 0.34055 0.71514 0.12151 0.0
C772 C 0.37341 0.73337 0.11795 0.0
C773 C 0.38691 0.74166 1.07712 0.0
C774 C 0.28805 0.678 1.08706 0.0
C775 C 0.39396 0.74811 0.15683 0.0
C776 C 0.32032 0.76156 0.19549 0.0
C777 C 0.32518 0.75146 0.23537 0.0
C778 C 0.32084 0.7468 0.1574 0.0
C779 C 0.32581 0.72089 0.15936 0.0
C780 C 0.32484 0.70714 0.19965 0.0
C781 C 0.32487 0.72283 0.23743 0.0
C782 C 0.32063 0.76195 1.1152 0.0
C783 C 0.32686 0.67773 0.20341 0.0
H784 H 0.32231 0.70117 1.01518 0.0
H785 H 0.41151 0.75863 1.07455 0.0
H786 H 0.28093 0.66769 0.11964 0.0
H787 H 0.27523 0.6904 1.07892 0.0
H788 H 0.28105 0.65884 1.06321 0.0
H789 H 0.41911 0.76003 0.14864 0.0
H790 H 0.38887 0.76563 0.17142 0.0
H791 H 0.38929 0.73004 0.18138 0.0
H792 H 0.32006 0.78335 0.19326 0.0
H793 H 0.3273 0.71405 0.26827 0.0
H794 H 0.30293 0.7444 1.09321 0.0
H795 H 0.34367 0.77171 1.09933 0.0
H796 H 0.31539 0.78122 0.11944 0.0
H797 H 0.32212 0.66497 0.17242 0.0
H798 H 0.30995 0.66192 0.22778 0.0
H799 H 0.35038 0.68374 0.21492 0.0
C800 C 0.63431 0.41618 0.39514 0.0
C801 C 0.63075 0.40382 0.35359 0.0
C802 C 0.63487 0.39953 0.43105 0.0
C803 C 0.63221 0.36971 0.42532 0.0
C804 C 0.63322 0.3592 0.3833 0.0
C805 C 0.63223 0.37631 0.34778 0.0
C806 C 0.63442 0.4124 0.47514 0.0
C807 C 0.63292 0.3289 0.3752 0.0
C808 C 0.63016 0.34843 0.53917 0.0
C809 C 0.59841 0.33739 0.54661 0.0
C810 C 0.64169 0.35305 0.49696 0.0
C811 C 0.62112 0.34786 0.46245 0.0
C812 C 0.58859 0.33053 0.4697 0.0
C813 C 0.57756 0.32535 0.512 0.0
C814 C 0.67617 0.36755 0.48943 0.0
C815 C 0.56553 0.32216 0.43338 0.0
H816 H 0.63327 0.43736 0.40033 0.0
H817 H 0.63057 0.36702 0.31568 0.0
H818 H 0.65362 0.41406 0.49528 0.0
H819 H 0.63698 0.43608 0.47364 0.0
H820 H 0.61215 0.39658 0.49161 0.0
H821 H 0.651 0.33275 0.3511 0.0
H822 H 0.63716 0.31903 0.40477 0.0
H823 H 0.61016 0.31148 0.36116 0.0
H824 H 0.6463 0.35646 0.566 0.0
H825 H 0.55287 0.3159 0.51745 0.0
H826 H 0.68645 0.39284 0.48226 0.0
H827 H 0.68047 0.35649 0.46114 0.0
H828 H 0.68823 0.36504 0.51795 0.0
H829 H 0.5674 0.34379 0.4196 0.0
H830 H 0.54115 0.30672 0.44416 0.0
H831 H 0.57067 0.31 0.40745 0.0
C832 C 0.20863 0.5722 0.81268 0.0
C833 C 0.22225 0.58786 0.85112 0.0
C834 C 0.21659 0.58844 0.77369 0.0
C835 C 0.23897 0.62088 0.77364 0.0
C836 C 0.25767 0.63443 0.81046 0.0
C837 C 0.24875 0.61785 0.84934 0.0
C838 C 0.19753 0.572 0.73424 0.0
C839 C 0.28458 0.66757 0.81038 0.0
C840 C 0.22538 0.64518 0.66651 0.0
C841 C 0.20017 0.64929 0.67749 0.0
C842 C 0.24312 0.64148 0.69867 0.0
C843 C 0.2346 0.64097 0.74214 0.0
C844 C 0.2133 0.65122 0.75299 0.0
C845 C 0.19665 0.65573 0.72022 0.0
C846 C 0.26821 0.6344 0.68551 0.0
C847 C 0.20438 0.65273 0.79903 0.0
H848 H 0.18876 0.54867 0.81363 0.0
H849 H 0.26035 0.62959 0.87888 0.0
H850 H 0.18325 0.58255 0.72455 0.0
H851 H 0.21311 0.57463 0.70712 0.0
H852 H 0.18163 0.54658 0.73971 0.0
H853 H 0.30474 0.66861 0.82748 0.0
H854 H 0.29184 0.67678 0.7773 0.0
H855 H 0.27812 0.68299 0.82819 0.0
H856 H 0.22907 0.64123 0.6333 0.0
H857 H 0.17808 0.66037 0.72842 0.0
H858 H 0.25765 0.61191 0.66765 0.0
H859 H 0.28163 0.63323 0.7133 0.0
H860 H 0.28454 0.65279 0.66307 0.0
H861 H 0.19263 0.62893 0.81332 0.0
H862 H 0.18842 0.66236 0.80168 0.0
H863 H 0.22541 0.6677 0.8184 0.0
C864 C 0.40867 0.93455 1.05141 0.0
C865 C 0.42663 0.94524 1.01309 0.0
C866 C 0.41515 0.95322 1.09055 0.0
C867 C 0.44244 0.98398 1.09592 0.0
C868 C 0.46015 -0.00485 1.0564 0.0
C869 C 0.45179 0.9766 1.01688 0.0
C870 C 0.39017 0.93997 0.12442 0.0
C871 C 0.48822 0.02755 1.05426 0.0
C872 C 0.46881 0.05383 0.18489 0.0
C873 C 0.47352 0.04215 0.22431 0.0
C874 C 0.45714 0.03539 0.14548 0.0
C875 C 0.45205 0.00387 0.14098 0.0
C876 C 0.45641 0.9919 0.18139 0.0
C877 C 0.46575 0.01021 0.22112 0.0
C878 C 0.44787 0.04991 1.11011 0.0
C879 C 0.45114 0.95909 0.18397 0.0
H880 H 0.38807 0.91151 1.05044 0.0
H881 H 0.46592 0.98686 0.9885 0.0
H882 H 0.38876 0.91857 0.13826 0.0
H883 H 0.39377 0.95693 0.15031 0.0
H884 H 0.36718 0.93251 1.10936 0.0
H885 H 0.50501 0.0291 1.02973 0.0
H886 H 0.48077 0.04418 1.04345 0.0
H887 H 0.50029 0.03538 1.08561 0.0
H888 H 0.47268 0.0775 0.18515 0.0
H889 H 0.46794 -0.00066 0.25014 0.0
H890 H 0.43327 0.05911 0.12356 0.0
H891 H 0.43445 0.03318 1.08407 0.0
H892 H 0.46901 0.07034 1.09678 0.0
H893 H 0.42645 0.94274 0.19193 0.0
H894 H 0.46458 0.95665 0.21054 0.0
H895 H 0.45712 0.95168 0.15346 0.0
C896 C 0.45996 0.42612 0.38944 0.0
C897 C 0.4388 0.41036 0.35499 0.0
C898 C 0.45182 0.43517 0.43008 0.0
C899 C 0.42124 0.43047 0.43963 0.0
C900 C 0.39942 0.41391 0.40508 0.0
C901 C 0.40812 0.40443 0.36492 0.0
C902 C 0.47769 0.45069 0.46219 0.0
C903 C 0.36587 0.40526 0.40999 0.0
C904 C 0.40752 0.4417 0.56657 0.0
C905 C 0.40122 0.46695 0.56961 0.0
C906 C 0.41293 0.42963 0.52641 0.0
C907 C 0.41265 0.44221 0.48448 0.0
C908 C 0.40457 0.46671 0.48728 0.0
C909 C 0.39985 0.47868 0.52815 0.0
C910 C 0.41844 0.4023 0.52993 0.0
C911 C 0.39996 0.4808 0.44692 0.0
H912 H 0.48377 0.43138 0.38506 0.0
H913 H 0.39031 0.39235 0.34074 0.0
H914 H 0.47118 0.45769 0.49244 0.0
H915 H 0.48719 0.43508 0.46974 0.0
H916 H 0.49637 0.47189 0.44687 0.0
H917 H 0.35027 0.38217 0.39487 0.0
H918 H 0.35906 0.40434 0.44415 0.0
H919 H 0.36209 0.42287 0.39305 0.0
H920 H 0.4084 0.43089 0.59643 0.0
H921 H 0.39428 0.4973 0.52719 0.0
H922 H 0.4432 0.41109 0.53831 0.0
H923 H 0.413 0.38867 0.49963 0.0
H924 H 0.4041 0.38629 0.55613 0.0
H925 H 0.41021 0.5065 0.45076 0.0
H926 H 0.37462 0.47078 0.44142 0.0
H927 H 0.41017 0.47626 0.41802 0.0
C928 C 0.00525 0.47402 0.68421 0.0
C929 C 0.02505 0.462 0.67303 0.0
C930 C 0.98598 0.46554 0.72266 0.0
C931 C 0.98587 0.44484 0.7556 0.0
C932 C 0.00539 0.43179 0.74381 0.0
C933 C 0.02392 0.44013 0.70414 0.0
C934 C 0.9654 0.47945 0.72674 0.0
C935 C 0.00676 0.40802 0.77264 0.0
C936 C 0.96299 0.43924 0.88298 0.0
C937 C 0.92997 0.4258 0.88563 0.0
C938 C 0.98068 0.44575 0.84294 0.0
C939 C 0.96628 0.43757 0.80081 0.0
C940 C 0.9326 0.4229 0.80356 0.0
C941 C 0.91575 0.41831 0.84411 0.0
C942 C 0.01559 0.46206 0.84742 0.0
C943 C 0.91293 0.41047 0.76365 0.0
H944 H 0.00423 0.49031 0.66181 0.0
H945 H 0.03814 0.42955 0.69804 0.0
H946 H 0.94356 0.46487 0.70856 0.0
H947 H 0.95972 0.48096 0.76067 0.0
H948 H 0.97678 0.50306 0.71207 0.0
H949 H 0.02829 0.41985 0.79231 0.0
H950 H 0.98638 0.39645 0.79442 0.0
H951 H 0.00798 0.38975 0.75322 0.0
H952 H 0.97575 0.4456 0.91305 0.0
H953 H 0.89062 0.40747 0.84301 0.0
H954 H 0.02809 0.47128 0.81667 0.0
H955 H 0.02219 0.44539 0.861 0.0
H956 H 0.02367 0.48184 0.87049 0.0
H957 H 0.90347 0.42596 0.75513 0.0
H958 H 0.89262 0.3869 0.76996 0.0
H959 H 0.92595 0.40867 0.73588 0.0
C960 C 0.52376 0.97257 0.21641 0.0
C961 C 0.52256 0.94346 0.22363 0.0
C962 C 0.53351 0.98993 0.17609 0.0
C963 C 0.54275 0.97904 0.139 0.0
C964 C 0.54308 0.95035 0.14695 0.0
C965 C 0.53324 0.93352 0.18766 0.0
C966 C 0.53413 0.0207 0.17348 0.0
C967 C 0.55479 0.93693 1.11309 0.0
C968 C 0.53964 0.00413 1.016 0.0
C969 C 0.56749 0.03322 1.00891 0.0
C970 C 0.53196 0.98673 1.05633 0.0
C971 C 0.55201 -0.00249 1.09349 0.0
C972 C 0.58095 0.02614 1.08564 0.0
C973 C 0.58796 0.04303 1.04499 0.0
C974 C 0.50177 0.95613 1.05898 0.0
C975 C 0.60595 0.03944 0.11961 0.0
H976 H 0.517 0.98218 0.24288 0.0
H977 H 0.53386 0.91197 0.19103 0.0
H978 H 0.55807 0.03982 0.16665 0.0
H979 H 0.51913 0.02003 0.14663 0.0
H980 H 0.52649 0.02659 0.20382 0.0
H981 H 0.57241 0.93198 0.12736 0.0
H982 H 0.53522 0.9142 1.10181 0.0
H983 H 0.56537 0.95262 1.08509 0.0
H984 H 0.52325 -0.00528 0.98959 0.0
H985 H 0.61002 0.06458 1.04177 0.0
H986 H 0.48708 0.95737 1.08491 0.0
H987 H 0.50631 0.93696 1.0673 0.0
H988 H 0.48875 0.94985 1.02819 0.0
H989 H 0.60903 0.06218 0.13093 0.0
H990 H 0.62849 0.04436 1.10543 0.0
H991 H 0.60084 0.0237 0.14757 0.0
C992 C 0.55851 0.49253 0.5267 0.0
C993 C 0.55742 0.50466 0.56796 0.0
C994 C 0.55332 0.50402 0.48586 0.0
C995 C 0.54515 0.52843 0.48311 0.0
C996 C 0.54524 0.54147 0.5248 0.0
C997 C 0.55099 0.52978 0.5649 0.0
C998 C 0.55749 0.48953 0.44554 0.0
C999 C 0.53979 0.56885 0.52812 0.0
C1000 C 0.54843 0.5649 0.36367 0.0
C1001 C 0.51768 0.55898 0.35444 0.0
C1002 C 0.55756 0.55583 0.40365 0.0
C1003 C 0.53608 0.53965 0.4385 0.0
C1004 C 0.5054 0.53489 0.42962 0.0
C1005 C 0.49685 0.54365 0.38919 0.0
C1006 C 0.59117 0.56454 0.40803 0.0
C1007 C 0.47988 0.51961 0.46218 0.0
H1008 H 0.56418 0.47398 0.52588 0.0
H1009 H 0.55033 0.54083 0.5947 0.0
H1010 H 0.54689 0.4937 0.41677 0.0
H1011 H 0.58277 0.49954 0.43956 0.0
H1012 H 0.54735 0.46388 0.44974 0.0
H1013 H 0.55435 0.58509 0.55406 0.0
H1014 H 0.54501 0.58222 0.49766 0.0
H1015 H 0.51511 0.56018 0.53676 0.0
H1016 H 0.56595 0.57674 0.33913 0.0
H1017 H 0.47304 0.5385 0.38521 0.0
H1018 H 0.59481 0.54686 0.39095 0.0
H1019 H 0.59833 0.56566 0.44207 0.0
H1020 H 0.60659 0.58756 0.39272 0.0
H1021 H 0.48668 0.51274 0.49228 0.0
H1022 H 0.46101 0.49833 0.44715 0.0
H1023 H 0.47051 0.53529 0.46995 0.0
C1024 C 0.01731 0.58672 0.88193 0.0
C1025 C 0.03961 0.57707 0.89036 0.0
C1026 C -0.00086 0.57992 0.84228 0.0
C1027 C 0.00168 0.56224 0.80707 0.0
C1028 C 0.02463 0.55291 0.81526 0.0
C1029 C 0.04229 0.55986 0.85536 0.0
C1030 C 0.97692 0.59224 0.83856 0.0
C1031 C 0.03036 0.53407 0.78233 0.0
C1032 C 0.9309 0.52096 0.71993 0.0
C1033 C 0.94304 0.53586 0.67951 0.0
C1034 C 0.94854 0.52957 0.76029 0.0
C1035 C 0.98092 0.55375 0.76315 0.0
C1036 C -0.00715 0.56971 0.7227 0.0
C1037 C 0.97449 0.5609 0.68301 0.0
C1038 C 0.93195 0.51134 0.79995 0.0
C1039 C 0.0257 0.59684 0.72078 0.0
H1040 H 0.01374 0.59992 0.90691 0.0
H1041 H 0.05858 0.55145 0.85913 0.0
H1042 H 0.97503 0.59855 0.8049 0.0
H1043 H 0.95351 0.57386 0.84928 0.0
H1044 H 0.98423 0.61313 0.8593 0.0
H1045 H 0.01486 0.50903 0.78976 0.0
H1046 H 0.02543 0.53845 0.74919 0.0
H1047 H 0.05472 0.53883 0.78385 0.0
H1048 H 0.90699 0.50194 0.72032 0.0
H1049 H 0.98542 0.57372 0.65389 0.0
H1050 H 0.92058 0.52311 0.81595 0.0
H1051 H 0.94814 0.50987 0.82319 0.0
H1052 H 0.91344 0.48718 0.79157 0.0
H1053 H 0.03217 0.61064 0.75104 0.0
H1054 H 0.02887 0.61267 0.69349 0.0
H1055 H 0.042 0.58784 0.71613 0.0
C1056 C 0.57045 0.06058 0.39962 0.0
C1057 C 0.53798 0.04783 0.39833 0.0
C1058 C 0.58441 0.054 0.43424 0.0
C1059 C 0.56527 0.03094 0.4645 0.0
C1060 C 0.53492 0.02685 0.46988 0.0
C1061 C 0.52076 0.03279 0.43512 0.0
C1062 C 0.61921 0.07214 0.43914 0.0
C1063 C 0.51763 0.01715 0.51196 0.0
C1064 C 0.5196 0.95727 0.46204 0.0
C1065 C 0.52483 0.95921 0.41726 0.0
C1066 C 0.54462 0.97674 0.48945 0.0
C1067 C 0.57004 0.00299 0.47054 0.0
C1068 C 0.57939 -0.00549 0.43227 0.0
C1069 C 0.5559 0.9756 0.40297 0.0
C1070 C 0.54346 0.97144 0.53703 0.0
C1071 C 0.61284 0.00524 0.42234 0.0
H1072 H 0.5851 0.07694 0.37513 0.0
H1073 H 0.49675 0.02735 0.43784 0.0
H1074 H 0.62721 0.06412 0.46719 0.0
H1075 H 0.63064 0.07082 0.40919 0.0
H1076 H 0.6267 0.09724 0.44402 0.0
H1077 H 0.50444 0.02954 0.51701 0.0
H1078 H 0.49993 0.99189 0.5113 0.0
H1079 H 0.53379 0.02248 0.53942 0.0
H1080 H 0.49712 0.94084 0.4753 0.0
H1081 H 0.56189 0.97291 0.37037 0.0
H1082 H 0.51929 0.96093 0.54936 0.0
H1083 H 0.55909 -0.00654 0.55457 0.0
H1084 H 0.55187 0.95482 0.54345 0.0
H1085 H 0.62005 0.01997 0.39301 0.0
H1086 H 0.61535 0.9846 0.41487 0.0
H1087 H 0.62836 0.01812 0.44973 0.0
C1088 C 0.45991 0.52244 0.80093 0.0
C1089 C 0.44279 0.50233 0.7667 0.0
C1090 C 0.4648 0.50996 0.83875 0.0
C1091 C 0.45813 0.47854 0.83775 0.0
C1092 C 0.43143 0.45854 0.81298 0.0
C1093 C 0.42663 0.47002 0.7743 0.0
C1094 C 0.47971 0.53063 0.87727 0.0
C1095 C 0.4087 0.42564 0.82654 0.0
C1096 C 0.48733 0.43983 0.77543 0.0
C1097 C 0.50529 0.4661 0.74921 0.0
C1098 C 0.47952 0.44396 0.81749 0.0
C1099 C 0.48584 0.47403 0.83058 0.0
C1100 C 0.51203 0.49913 0.81055 0.0
C1101 C 0.51842 0.49589 0.76787 0.0
C1102 C 0.4667 0.41724 0.84876 0.0
C1103 C 0.53542 0.52742 0.8351 0.0
H1104 H 0.46861 0.54741 0.7989 0.0
H1105 H 0.40919 0.45419 0.75178 0.0
H1106 H 0.48393 0.518 0.90361 0.0
H1107 H 0.5015 0.55215 0.86829 0.0
H1108 H 0.46453 0.53933 0.88918 0.0
H1109 H 0.38461 0.42148 0.82379 0.0
H1110 H 0.41034 0.40887 0.80446 0.0
H1111 H 0.41267 0.42115 0.86024 0.0
H1112 H 0.48211 0.41673 0.76493 0.0
H1113 H 0.53718 0.51584 0.75152 0.0
H1114 H 0.44598 0.39673 0.83495 0.0
H1115 H 0.46092 0.42376 0.88019 0.0
H1116 H 0.48425 0.40995 0.85423 0.0
H1117 H 0.53109 0.52471 0.8702 0.0
H1118 H 0.53547 0.54856 0.82283 0.0
H1119 H 0.55913 0.53116 0.82934 0.0
C1120 C 0.91863 0.50066 1.07488 0.0
C1121 C 0.93432 0.4843 1.06409 0.0
C1122 C 0.92485 0.51667 1.11429 0.0
C1123 C 0.95059 0.52058 0.13839 0.0
C1124 C 0.95583 0.49482 0.1359 0.0
C1125 C 0.95129 0.4797 1.0964 0.0
C1126 C 0.90565 0.53071 0.12908 0.0
C1127 C 0.96709 0.48404 0.17356 0.0
C1128 C 0.02635 0.55003 0.12543 0.0
C1129 C 0.02399 0.55306 1.0808 0.0
C1130 C 0.00625 0.55416 0.15328 0.0
C1131 C 0.97947 0.55247 0.13532 0.0
C1132 C 0.98455 0.56729 1.09476 0.0
C1133 C 0.00492 0.56471 1.06622 0.0
C1134 C 0.01031 0.55564 0.20105 0.0
C1135 C 0.96751 0.58381 1.08066 0.0
H1136 H 0.90036 0.49933 1.0543 0.0
H1137 H 0.95821 0.46216 1.09238 0.0
H1138 H 0.91737 0.54799 0.15537 0.0
H1139 H 0.9003 0.54178 1.10183 0.0
H1140 H 0.88311 0.51165 0.14146 0.0
H1141 H 0.95591 0.45814 0.17342 0.0
H1142 H -0.00755 0.49301 0.17082 0.0
H1143 H 0.96186 0.49168 0.20445 0.0
H1144 H 0.04346 0.54484 0.13838 0.0
H1145 H 0.00611 0.57211 1.03314 0.0
H1146 H 0.02272 0.5433 0.21162 0.0
H1147 H -0.0123 0.54616 0.21806 0.0
H1148 H 0.02428 0.5807 0.21002 0.0
H1149 H 0.94912 0.56908 1.05713 0.0
H1150 H 0.98377 0.60591 1.06388 0.0
H1151 H 0.9571 0.58942 1.10843 0.0
C1152 C 0.97726 0.46203 0.47507 0.0
C1153 C 0.00815 0.46894 0.47127 0.0
C1154 C 0.96366 0.46797 0.43935 0.0
C1155 C 0.9838 0.48878 0.40768 0.0
C1156 C 0.00829 0.48403 0.39668 0.0
C1157 C 0.02104 0.47423 0.42936 0.0
C1158 C 0.92923 0.45038 0.43219 0.0
C1159 C 0.02355 0.49456 0.35375 0.0
C1160 C 0.95233 0.53095 0.44062 0.0
C1161 C 0.96215 0.52958 0.48274 0.0
C1162 C 0.96854 0.52839 0.40533 0.0
C1163 C -0.00734 0.52239 0.41398 0.0
C1164 C 0.00983 0.5367 0.45194 0.0
C1165 C -0.00694 0.53686 0.48826 0.0
C1166 C 0.95596 0.52449 0.36055 0.0
C1167 C 0.04418 0.54869 0.45502 0.0
H1168 H 0.96425 0.4522 0.50441 0.0
H1169 H 0.04218 0.47391 0.42308 0.0
H1170 H 0.91649 0.43475 0.45955 0.0
H1171 H 0.92099 0.46705 0.42639 0.0
H1172 H 0.92399 0.43598 0.4026 0.0
H1173 H 0.04519 0.51746 0.35721 0.0
H1174 H 0.02933 0.4771 0.3411 0.0
H1175 H 0.00809 0.49733 0.33046 0.0
H1176 H 0.93079 0.53033 0.4348 0.0
H1177 H 0.00301 0.53994 0.52014 0.0
H1178 H 0.93858 0.49948 0.35494 0.0
H1179 H 0.97487 0.53145 0.33655 0.0
H1180 H 0.94471 0.53886 0.35598 0.0
H1181 H 0.05636 0.57446 0.45964 0.0
H1182 H 0.05355 0.54368 0.42563 0.0
H1183 H 0.04954 0.53895 0.48361 0.0
C1184 C 0.50043 0.92421 0.82275 0.0
C1185 C 0.48369 0.94007 0.82883 0.0
C1186 C 0.51774 0.92888 0.78503 0.0
C1187 C 0.52227 0.95333 0.75703 0.0
C1188 C 0.49722 0.95965 0.75593 0.0
C1189 C 0.48028 0.95576 0.79361 0.0
C1190 C 0.53147 0.90843 0.77538 0.0
C1191 C 0.48866 0.97098 0.71607 0.0
C1192 C 0.55212 0.02688 0.7673 0.0
C1193 C 0.55505 0.02261 0.8116 0.0
C1194 C 0.55718 0.00835 0.73735 0.0
C1195 C 0.55533 0.9808 0.75327 0.0
C1196 C 0.5728 0.98674 0.79163 0.0
C1197 C 0.56888 0.0048 0.82326 0.0
C1198 C 0.56005 0.015 0.69003 0.0
C1199 C 0.59334 0.97306 0.79997 0.0
H1200 H 0.49867 0.907 0.84594 0.0
H1201 H 0.46309 0.96323 0.79452 0.0
H1202 H 0.54704 0.91682 0.74693 0.0
H1203 H 0.54405 0.90674 0.80384 0.0
H1204 H 0.5122 0.88435 0.7685 0.0
H1205 H 0.46306 0.96027 0.71366 0.0
H1206 H 0.49773 -0.00346 0.71807 0.0
H1207 H 0.4974 0.9652 0.68665 0.0
H1208 H 0.54596 0.04383 0.7563 0.0
H1209 H 0.57695 0.00535 0.8558 0.0
H1210 H 0.54724 0.02714 0.68044 0.0
H1211 H 0.55194 0.99325 0.67087 0.0
H1212 H 0.58503 0.0306 0.68255 0.0
H1213 H 0.58435 0.95692 0.82785 0.0
H1214 H 0.61698 0.99214 0.80892 0.0
H1215 H 0.59522 0.96071 0.77128 0.0
C1216 C 0.50582 0.54872 1.11482 0.0
C1217 C 0.50802 0.53805 0.15618 0.0
C1218 C 0.50047 0.52946 1.07878 0.0
C1219 C 0.49617 0.49973 1.08598 0.0
C1220 C 0.5145 0.49847 0.11995 0.0
C1221 C 0.51676 0.5151 0.15788 0.0
C1222 C 0.49318 0.53749 1.03556 0.0
C1223 C 0.5327 0.48196 1.11408 0.0
C1224 C 0.4417 0.45656 0.1563 0.0
C1225 C 0.45068 0.43383 0.15297 0.0
C1226 C 0.44412 0.4742 0.11939 0.0
C1227 C 0.46274 0.47396 1.08512 0.0
C1228 C 0.45859 0.44451 1.07603 0.0
C1229 C 0.45337 0.42446 1.11092 0.0
C1230 C 0.42559 0.49048 1.11453 0.0
C1231 C 0.46643 0.43774 1.03236 0.0
H1232 H 0.50543 0.56994 1.11043 0.0
H1233 H 0.52369 0.50932 0.18796 0.0
H1234 H 0.49643 0.52376 1.00979 0.0
H1235 H 0.46851 0.53165 1.03496 0.0
H1236 H 0.50847 0.56282 1.02918 0.0
H1237 H 0.54799 0.49169 1.08551 0.0
H1238 H 0.54728 0.48456 0.14261 0.0
H1239 H 0.51683 0.45693 1.10734 0.0
H1240 H 0.43436 0.46134 0.18679 0.0
H1241 H 0.4543 0.40366 1.10509 0.0
H1242 H 0.44121 0.51564 1.10819 0.0
H1243 H 0.41106 0.48738 0.14327 0.0
H1244 H 0.41016 0.48086 1.08602 0.0
H1245 H 0.45064 0.41279 1.02401 0.0
H1246 H 0.49075 0.44256 1.03268 0.0
H1247 H 0.46447 0.45286 1.00755 0.0
C1248 C 0.36741 0.02635 0.69377 0.0
C1249 C 0.34502 0.0146 0.7264 0.0
C1250 C 0.3616 0.0367 0.65496 0.0
C1251 C 0.33258 0.03524 0.64859 0.0
C1252 C 0.31106 0.0262 0.68284 0.0
C1253 C 0.31748 0.01576 0.7214 0.0
C1254 C 0.38555 0.0466 0.61949 0.0
C1255 C 0.28038 0.02535 0.67814 0.0
C1256 C 0.34018 0.07166 0.5413 0.0
C1257 C 0.33397 0.0458 0.51544 0.0
C1258 C 0.33508 0.06811 0.58579 0.0
C1259 C 0.32359 0.03813 0.60413 0.0
C1260 C 0.31167 0.01147 0.57717 0.0
C1261 C 0.31708 0.01563 0.53293 0.0
C1262 C 0.34609 0.09687 0.61345 0.0
C1263 C 0.29787 0.97885 0.59542 0.0
H1264 H 0.38866 0.02538 0.69727 0.0
H1265 H 0.30036 0.00734 0.74698 0.0
H1266 H 0.37621 0.02927 0.59289 0.0
H1267 H 0.39084 0.0696 0.60623 0.0
H1268 H 0.40768 0.04847 0.63076 0.0
H1269 H 0.273 0.03054 0.70932 0.0
H1270 H 0.28146 0.04222 0.65371 0.0
H1271 H 0.26223 0.00148 0.66818 0.0
H1272 H 0.35203 0.09499 0.5276 0.0
H1273 H 0.31157 -0.00465 0.51327 0.0
H1274 H 0.37035 0.10511 0.62405 0.0
H1275 H 0.33141 0.09163 0.64258 0.0
H1276 H 0.34586 0.11615 0.59535 0.0
H1277 H 0.31682 0.9755 0.60852 0.0
H1278 H 0.28516 0.96061 0.57058 0.0
H1279 H 0.28164 0.9754 0.62207 0.0
C1280 C 0.35795 0.31169 0.97929 0.0
C1281 C 0.36906 0.29579 1.0042 0.0
C1282 C 0.35714 0.30954 0.93455 0.0
C1283 C 0.36718 0.29041 0.91399 0.0
C1284 C 0.37688 0.27289 0.93905 0.0
C1285 C 0.37795 0.27599 0.98404 0.0
C1286 C 0.34633 0.32865 0.90945 0.0
C1287 C 0.3874 0.2519 0.91889 0.0
C1288 C 0.3365 0.28691 0.80548 0.0
C1289 C 0.35977 0.31661 0.79174 0.0
C1290 C 0.34073 0.27375 0.84297 0.0
C1291 C 0.36873 0.29089 0.86636 0.0
C1292 C 0.39461 0.31635 0.84646 0.0
C1293 C 0.38979 0.32919 0.80908 0.0
C1294 C 0.31342 0.24485 0.86149 0.0
C1295 C 0.42572 0.33365 0.86875 0.0
H1296 H 0.35037 0.3264 0.9949 0.0
H1297 H 0.3867 0.26373 1.00324 0.0
H1298 H 0.3652 0.34537 0.88801 0.0
H1299 H 0.32604 0.31304 0.8891 0.0
H1300 H 0.3394 0.34226 0.93066 0.0
H1301 H 0.38121 0.2313 0.93968 0.0
H1302 H 0.37715 0.24352 0.88655 0.0
H1303 H 0.41312 0.2651 0.91571 0.0
H1304 H 0.31366 0.27614 0.79062 0.0
H1305 H 0.40838 0.35141 0.79747 0.0
H1306 H 0.30025 0.25192 0.88319 0.0
H1307 H 0.32131 0.23107 0.88051 0.0
H1308 H 0.29737 0.22979 0.83572 0.0
H1309 H 0.42569 0.35139 0.89071 0.0
H1310 H 0.44488 0.34592 0.84519 0.0
H1311 H 0.43034 0.31756 0.88811 0.0
C1312 C 0.00129 0.32487 0.1809 0.0
C1313 C 0.98549 0.34154 0.18714 0.0
C1314 C 0.01796 0.32108 0.21457 0.0
C1315 C 0.01848 0.33408 0.25529 0.0
C1316 C 0.00276 0.35116 0.26157 0.0
C1317 C 0.98644 0.35459 0.22744 0.0
C1318 C 0.03439 0.30276 0.20663 0.0
C1319 C 0.00293 0.36569 0.30449 0.0
C1320 C 0.02857 0.31124 0.3654 0.0
C1321 C 0.0555 0.33894 0.37751 0.0
C1322 C 0.01805 0.30669 0.32281 0.0
C1323 C 0.03516 0.3303 0.29216 0.0
C1324 C 0.06515 0.35518 0.30265 0.0
C1325 C 0.075 0.35933 0.3455 0.0
C1326 C 0.98644 0.27919 0.31238 0.0
C1327 C 0.08466 0.38016 0.27032 0.0
H1328 H 0.00077 0.31492 0.14961 0.0
H1329 H 0.97383 0.36701 0.23257 0.0
H1330 H 0.05727 0.31362 0.22319 0.0
H1331 H 0.02002 0.27874 0.21957 0.0
H1332 H 0.03804 0.30085 0.17178 0.0
H1333 H -0.01057 0.37812 0.30381 0.0
H1334 H -0.00713 0.34733 0.32963 0.0
H1335 H 0.02719 0.38271 0.31412 0.0
H1336 H 0.014 0.29486 0.38994 0.0
H1337 H 0.09613 0.38061 0.35438 0.0
H1338 H 0.98616 0.27003 0.27972 0.0
H1339 H 0.9689 0.28689 0.31312 0.0
H1340 H 0.97939 0.25994 0.33602 0.0
H1341 H 0.0826 0.36993 0.23789 0.0
H1342 H 0.10959 0.39305 0.27987 0.0
H1343 H 0.07634 0.39724 0.26826 0.0
C1344 C 0.71561 0.03305 0.69624 0.0
C1345 C 0.70079 0.05092 0.69416 0.0
C1346 C 0.7162 0.01626 0.66022 0.0
C1347 C 0.70079 0.0168 0.6223 0.0
C1348 C 0.68982 0.03826 0.61844 0.0
C1349 C 0.6904 0.05545 0.65445 0.0
C1350 C 0.73013 -0.00468 0.66443 0.0
C1351 C 0.6736 0.04003 0.57827 0.0
C1352 C 0.68452 0.97369 0.51758 0.0
C1353 C 0.65371 0.95002 0.52491 0.0
C1354 C 0.70239 -0.00629 0.55105 0.0
C1355 C 0.68859 0.99021 0.59192 0.0
C1356 C 0.65896 0.9639 0.6005 0.0
C1357 C 0.64204 0.94386 0.56684 0.0
C1358 C 0.73466 0.02029 0.54136 0.0
C1359 C 0.64338 0.95897 0.64383 0.0
H1360 H 0.72429 0.02994 0.72672 0.0
H1361 H 0.6801 0.07031 0.6525 0.0
H1362 H 0.7121 0.97195 0.67609 0.0
H1363 H 0.73888 0.99216 0.63308 0.0
H1364 H 0.74954 0.00505 0.68807 0.0
H1365 H 0.66899 0.05987 0.57927 0.0
H1366 H 0.68781 0.04267 0.54944 0.0
H1367 H 0.65099 0.01798 0.57454 0.0
H1368 H 0.69384 0.97822 0.48522 0.0
H1369 H 0.61857 0.92482 0.57261 0.0
H1370 H 0.74958 0.02802 0.5705 0.0
H1371 H 0.73311 0.04051 0.52879 0.0
H1372 H 0.74599 0.01333 0.51629 0.0
H1373 H 0.65909 0.95983 0.66978 0.0
H1374 H 0.62132 0.93617 0.64581 0.0
H1375 H 0.63802 0.97795 0.64998 0.0
C1376 C 0.61752 0.73063 1.01335 0.0
C1377 C 0.63058 0.72275 1.04775 0.0
C1378 C 0.62446 0.72683 0.97086 0.0
C1379 C 0.64439 0.71454 0.96334 0.0
C1380 C 0.66216 0.71271 0.99757 0.0
C1381 C 0.65508 0.71697 1.03964 0.0
C1382 C 0.60698 0.73141 0.9346 0.0
C1383 C 0.68474 0.70103 0.99065 0.0
C1384 C 0.61262 0.64266 0.89328 0.0
C1385 C 0.6336 0.65322 0.859 0.0
C1386 C 0.61522 0.66292 0.92645 0.0
C1387 C 0.63925 0.69476 0.92494 0.0
C1388 C 0.65949 0.70599 0.88914 0.0
C1389 C 0.6567 0.68488 0.85676 0.0
C1390 C 0.59302 0.64974 0.96407 0.0
C1391 C 0.68478 0.7398 0.88538 0.0
H1392 H 0.59941 0.73632 1.01952 0.0
H1393 H 0.66582 0.71144 1.06597 0.0
H1394 H 0.62153 0.73971 0.90517 0.0
H1395 H 0.58587 0.70872 0.92699 0.0
H1396 H 0.59948 0.74845 0.94351 0.0
H1397 H 0.70025 0.70588 1.01886 0.0
H1398 H 0.67152 0.67533 0.98522 0.0
H1399 H 0.69929 0.71206 0.96187 0.0
H1400 H 0.59489 0.61812 0.89505 0.0
H1401 H 0.6727 0.6931 0.82984 0.0
H1402 H 0.58015 0.66259 0.96808 0.0
H1403 H 0.60622 0.65264 0.99416 0.0
H1404 H 0.57574 0.62447 0.96 0.0
H1405 H 0.67929 0.75572 0.90375 0.0
H1406 H 0.68869 0.74727 0.8512 0.0
H1407 H 0.70691 0.74242 0.89791 0.0
C1408 C 0.95873 0.66154 0.163 0.0
C1409 C 0.98353 0.65794 0.17778 0.0
C1410 C 0.93521 0.65842 0.1911 0.0
C1411 C 0.93613 0.65054 0.23454 0.0
C1412 C 0.9615 0.64752 0.24971 0.0
C1413 C 0.98506 0.65183 0.22132 0.0
C1414 C 0.90912 0.66254 0.17358 0.0
C1415 C 0.96351 0.63884 0.29578 0.0
C1416 C 0.90279 0.65586 0.33751 0.0
C1417 C 0.88545 0.62372 0.34635 0.0
C1418 C 0.91503 0.66613 0.2963 0.0
C1419 C 0.91037 0.64359 0.26465 0.0
C1420 C 0.88735 0.61192 0.27101 0.0
C1421 C 0.87463 0.60236 0.31206 0.0
C1422 C 0.93743 0.70047 0.28913 0.0
C1423 C 0.88063 0.58728 0.23736 0.0
H1424 H 0.95719 0.66603 0.12925 0.0
H1425 H 0.0046 0.64995 0.23323 0.0
H1426 H 0.8911 0.6401 0.15928 0.0
H1427 H 0.89801 0.66956 0.19883 0.0
H1428 H 0.91774 0.68042 0.14767 0.0
H1429 H 0.98439 0.63659 0.30174 0.0
H1430 H 0.96444 0.65691 0.31796 0.0
H1431 H 0.94259 0.6162 0.30399 0.0
H1432 H 0.91042 0.67268 0.36361 0.0
H1433 H 0.85998 0.57757 0.31863 0.0
H1434 H 0.93671 0.70704 0.2552 0.0
H1435 H 0.96146 0.70559 0.29626 0.0
H1436 H 0.93209 0.71516 0.31064 0.0
H1437 H 0.87966 0.59596 0.20489 0.0
H1438 H 0.85832 0.5654 0.24375 0.0
H1439 H 0.89962 0.58154 0.23748 0.0
C1440 C 0.55988 0.12777 0.51551 0.0
C1441 C 0.52942 0.10675 0.49957 0.0
C1442 C 0.56951 0.12877 0.56018 0.0
C1443 C 0.54928 0.10722 0.59264 0.0
C1444 C 0.51864 0.08563 0.57635 0.0
C1445 C 0.50927 0.08624 0.53206 0.0
C1446 C 0.60196 0.15409 0.57178 0.0
C1447 C 0.49489 0.06092 0.60563 0.0
C1448 C 0.58811 0.09624 0.70171 0.0
C1449 C 0.57665 0.10657 0.73646 0.0
C1450 C 0.57984 0.0964 0.65654 0.0
C1451 C 0.55937 0.10756 0.64246 0.0
C1452 C 0.54839 0.11868 0.67741 0.0
C1453 C 0.55654 0.11769 0.72218 0.0
C1454 C 0.5925 0.08332 0.62355 0.0
C1455 C 0.5275 0.13202 0.66827 0.0
H1456 H 0.57666 0.14432 0.49295 0.0
H1457 H 0.48565 0.06946 0.5226 0.0
H1458 H 0.60614 0.15687 0.60693 0.0
H1459 H 0.61901 0.14865 0.55682 0.0
H1460 H 0.60649 0.17684 0.55828 0.0
H1461 H 0.4783 0.03975 0.5872 0.0
H1462 H 0.50596 0.05382 0.63084 0.0
H1463 H 0.48123 0.07029 0.62152 0.0
H1464 H 0.60335 0.08718 0.70984 0.0
H1465 H 0.54668 0.12586 0.74654 0.0
H1466 H 0.60499 0.1008 0.59801 0.0
H1467 H 0.57291 0.06249 0.60799 0.0
H1468 H 0.60882 0.07654 0.63775 0.0
H1469 H 0.53192 0.15096 0.69146 0.0
H1470 H 0.50291 0.1133 0.67227 0.0
H1471 H 0.53061 0.14154 0.63521 0.0
C1472 C 0.41382 0.56256 0.86164 0.0
C1473 C 0.40191 0.53159 0.84517 0.0
C1474 C 0.42233 0.57161 0.90662 0.0
C1475 C 0.42116 0.55018 0.93938 0.0
C1476 C 0.40925 0.51877 0.92263 0.0
C1477 C 0.39957 0.51017 0.87785 0.0
C1478 C 0.43204 0.60491 0.91825 0.0
C1479 C 0.40811 0.49346 0.95096 0.0
C1480 C 0.47228 0.59081 1.04821 0.0
C1481 C 0.45187 0.57658 1.08388 0.0
C1482 C 0.46321 0.58287 1.00301 0.0
C1483 C 0.43185 0.56011 0.98947 0.0
C1484 C 0.41092 0.54691 1.0256 0.0
C1485 C 0.42092 0.55467 1.07029 0.0
C1486 C 0.4885 0.59899 0.96993 0.0
C1487 C 0.37686 0.5242 1.01813 0.0
H1488 H 0.4162 0.58036 0.83911 0.0
H1489 H 0.39112 0.48614 0.86809 0.0
H1490 H 0.43121 0.60843 0.95333 0.0
H1491 H 0.45605 0.62056 0.90644 0.0
H1492 H 0.41675 0.61217 0.9019 0.0
H1493 H 0.42295 0.50284 0.97998 0.0
H1494 H 0.38369 0.47756 0.96099 0.0
H1495 H 0.41576 0.47908 0.93274 0.0
H1496 H 0.49629 0.60784 1.05549 0.0
H1497 H 0.40374 0.54285 1.09525 0.0
H1498 H 0.48336 0.58533 0.93972 0.0
H1499 H 0.51128 0.60337 0.98252 0.0
H1500 H 0.49114 0.6222 0.96257 0.0
H1501 H 0.36243 0.5287 1.04117 0.0
H1502 H 0.37222 0.50008 1.02427 0.0
H1503 H 0.36924 0.52546 0.98505 0.0
C1504 C 0.85066 0.43759 0.17889 0.0
C1505 C 0.86967 0.42568 0.16252 0.0
C1506 C 0.85018 0.44641 0.2238 0.0
C1507 C 0.87037 0.44553 0.2568 0.0
C1508 C 0.89027 0.43428 0.24 0.0
C1509 C 0.88907 0.42415 0.19531 0.0
C1510 C 0.82682 0.45628 0.2351 0.0
C1511 C 0.91395 0.43299 0.26897 0.0
C1512 C 0.8791 0.49486 0.36751 0.0
C1513 C 0.87179 0.47357 0.40259 0.0
C1514 C 0.87898 0.48667 0.32199 0.0
C1515 C 0.87033 0.45537 0.30732 0.0
C1516 C 0.86159 0.43359 0.34275 0.0
C1517 C 0.86282 0.44271 0.38779 0.0
C1518 C 0.88904 0.51274 0.28974 0.0
C1519 C 0.85018 0.39948 0.33414 0.0
H1520 H 0.83516 0.43965 0.15629 0.0
H1521 H 0.90428 0.41533 0.18592 0.0
H1522 H 0.82209 0.45507 0.27008 0.0
H1523 H 0.83567 0.48064 0.22387 0.0
H1524 H 0.80448 0.44128 0.21809 0.0
H1525 H 0.93559 0.43918 0.25096 0.0
H1526 H 0.9201 0.44894 0.29702 0.0
H1527 H 0.90449 0.40867 0.28068 0.0
H1528 H 0.88608 0.51887 0.37554 0.0
H1529 H 0.85661 0.42484 0.4121 0.0
H1530 H 0.86869 0.51524 0.2811 0.0
H1531 H 0.89857 0.50828 0.26002 0.0
H1532 H 0.90684 0.5355 0.3036 0.0
H1533 H 0.83039 0.38458 0.35571 0.0
H1534 H 0.86913 0.39447 0.34162 0.0
H1535 H 0.84253 0.39258 0.30043 0.0
C1536 C 0.48645 0.88958 0.53313 0.0
C1537 C 0.46403 0.87692 0.49924 0.0
C1538 C 0.47864 0.89023 0.57838 0.0
C1539 C 0.44704 0.87736 0.5935 0.0
C1540 C 0.42437 0.86383 0.55947 0.0
C1541 C 0.43288 0.86423 0.51455 0.0
C1542 C 0.50486 0.90596 0.61029 0.0
C1543 C 0.39014 0.84829 0.56967 0.0
C1544 C 0.4303 0.85966 0.72138 0.0
C1545 C 0.41938 0.87975 0.73661 0.0
C1546 C 0.43861 0.85822 0.67671 0.0
C1547 C 0.43791 0.87831 0.64343 0.0
C1548 C 0.42742 0.89901 0.65897 0.0
C1549 C 0.41791 0.89888 0.70338 0.0
C1550 C 0.44785 0.83418 0.66603 0.0
C1551 C 0.42647 0.92223 0.62851 0.0
H1552 H 0.5107 0.89982 0.52419 0.0
H1553 H 0.41436 0.85415 0.49092 0.0
H1554 H 0.50513 0.92699 0.62366 0.0
H1555 H 0.50132 0.89009 0.63754 0.0
H1556 H 0.52787 0.91312 0.59569 0.0
H1557 H 0.37676 0.82719 0.54925 0.0
H1558 H 0.38501 0.84124 0.60386 0.0
H1559 H 0.38166 0.86473 0.56209 0.0
H1560 H 0.43208 0.84426 0.74458 0.0
H1561 H 0.40978 0.91481 0.7123 0.0
H1562 H 0.47123 0.84181 0.67978 0.0
H1563 H 0.44843 0.83039 0.63099 0.0
H1564 H 0.43141 0.81146 0.68129 0.0
H1565 H 0.42605 0.94169 0.64593 0.0
H1566 H 0.4051 0.91019 0.6086 0.0
H1567 H 0.44687 0.93226 0.60662 0.0
C1568 C 0.55435 0.46408 0.87634 0.0
C1569 C 0.55535 0.44385 0.84424 0.0
C1570 C 0.54399 0.45485 0.92076 0.0
C1571 C 0.5348 0.42409 0.93794 0.0
C1572 C 0.53625 0.40371 0.90558 0.0
C1573 C 0.54545 0.41328 0.8609 0.0
C1574 C 0.54242 0.47905 0.94853 0.0
C1575 C 0.52832 0.37093 0.91732 0.0
C1576 C 0.53604 0.41902 1.06894 0.0
C1577 C 0.50538 0.3964 1.08276 0.0
C1578 C 0.54554 0.42742 1.02414 0.0
C1579 C 0.52452 0.4138 0.98811 0.0
C1580 C 0.49357 0.3902 1.00178 0.0
C1581 C 0.48487 0.38199 1.04705 0.0
C1582 C 0.57907 0.45161 1.0161 0.0
C1583 C 0.46835 0.37355 0.96868 0.0
H1584 H 0.5611 0.48768 0.86653 0.0
H1585 H 0.54525 0.39622 0.83874 0.0
H1586 H 0.53044 0.46962 0.97952 0.0
H1587 H 0.56641 0.49846 0.95497 0.0
H1588 H 0.53006 0.48926 0.93108 0.0
H1589 H 0.54434 0.36465 0.90092 0.0
H1590 H 0.52952 0.36778 0.95241 0.0
H1591 H 0.50444 0.35431 0.90579 0.0
H1592 H 0.55327 0.43109 1.09381 0.0
H1593 H 0.46107 0.36442 1.05435 0.0
H1594 H 0.58157 0.47524 1.01752 0.0
H1595 H 0.58722 0.44857 0.98421 0.0
H1596 H 0.59446 0.45063 1.04126 0.0
H1597 H 0.44515 0.36735 0.98183 0.0
H1598 H 0.46734 0.3513 0.95967 0.0
H1599 H 0.4726 0.38784 0.93929 0.0
C1600 C 0.09374 0.50249 0.36358 0.0
C1601 C 0.10367 0.52317 0.39964 0.0
C1602 C 0.09448 0.51244 0.31902 0.0
C1603 C 0.10699 0.54492 0.30667 0.0
C1604 C 0.11938 0.56594 0.34302 0.0
C1605 C 0.11658 0.5551 0.38721 0.0
C1606 C 0.08071 0.487 0.28541 0.0
C1607 C 0.13739 0.60087 0.3365 0.0
C1608 C 0.12113 0.56069 0.17793 0.0
C1609 C 0.10563 0.57715 0.16493 0.0
C1610 C 0.12273 0.55148 0.22199 0.0
C1611 C 0.10698 0.55656 0.25751 0.0
C1612 C 0.09151 0.5736 0.24467 0.0
C1613 C 0.09148 0.58372 0.20038 0.0
C1614 C 0.14301 0.53722 0.22954 0.0
C1615 C 0.07495 0.58208 0.2781 0.0
H1616 H 0.08383 0.47774 0.37014 0.0
H1617 H 0.12539 0.57249 0.41262 0.0
H1618 H 0.07169 0.49382 0.25728 0.0
H1619 H 0.09886 0.48173 0.27444 0.0
H1620 H 0.06154 0.46489 0.29889 0.0
H1621 H 0.14303 0.60774 0.30234 0.0
H1622 H 0.12394 0.61135 0.34994 0.0
H1623 H 0.15959 0.6111 0.3548 0.0
H1624 H 0.13299 0.55517 0.15316 0.0
H1625 H 0.07966 0.59667 0.19354 0.0
H1626 H 0.1313 0.51312 0.21615 0.0
H1627 H 0.14838 0.53653 0.26397 0.0
H1628 H 0.16534 0.55075 0.21194 0.0
H1629 H 0.05516 0.58341 0.26434 0.0
H1630 H 0.09123 0.60579 0.29071 0.0
H1631 H 0.06621 0.56524 0.30519 0.0
loop_
_geom_bond_atom_site_label_1
_geom_bond_atom_site_label_2
_geom_bond_distance
_geom_bond_site_symmetry_2
_ccdc_geom_bond_type
Gd0 C3 2.818 . S
Gd0 O20 2.377 . S
Gd0 O22 2.448 . S
Gd0 O23 2.506 . S
Gd0 O24 2.435 . S
Gd0 O25 2.717 . S
Gd0 O27 2.395 . S
Gd0 O31 2.327 . S
Gd1 C12 2.818 . S
Gd1 O21 2.395 . S
Gd1 O25 2.327 . S
Gd1 O26 2.377 . S
Gd1 O28 2.448 . S
Gd1 O29 2.506 . S
Gd1 O30 2.435 . S
Gd1 O31 2.717 . S
C2 O20 1.240 . S
C2 O21 1.240 . S
C3 Gd0 2.818 . S
C3 C4 1.510 . S
C3 O22 1.249 . S
C3 O23 1.252 . S
C4 C3 1.510 . S
C4 C5 1.404 . S
C4 C6 1.352 . S
C5 C4 1.404 . S
C5 C9 1.389 . S
C5 H32 0.930 . S
C6 C4 1.352 . S
C6 C8 1.374 . S
C6 H33 0.931 . S
C7 C8 1.359 . S
C7 C9 1.364 . S
C8 C6 1.374 . S
C8 C7 1.359 . S
C8 H34 0.931 . S
C9 C5 1.389 . S
C9 C7 1.364 . S
C9 H35 0.931 . S
C10 O24 1.256 . S
C10 O25 1.257 . S
C11 O26 1.240 . S
C11 O27 1.240 . S
C12 Gd1 2.818 . S
C12 C13 1.510 . S
C12 O28 1.249 . S
C12 O29 1.252 . S
C13 C12 1.510 . S
C13 C14 1.404 . S
C13 C15 1.352 . S
C14 C13 1.404 . S
C14 C18 1.389 . S
C14 H36 0.930 . S
C15 C13 1.352 . S
C15 C17 1.374 . S
C15 H37 0.931 . S
C16 C17 1.359 . S
C16 C18 1.364 . S
C17 C15 1.374 . S
C17 C16 1.359 . S
C17 H38 0.931 . S
C18 C14 1.389 . S
C18 C16 1.364 . S
C18 H39 0.931 . S
C19 O30 1.256 . S
C19 O31 1.257 . S
O20 Gd0 2.377 . S
O20 C2 1.240 . S
O21 Gd1 2.395 . S
O21 C2 1.240 . S
O22 Gd0 2.448 . S
O22 C3 1.249 . S
O23 Gd0 2.506 . S
O23 C3 1.252 . S
O24 Gd0 2.435 . S
O24 C10 1.256 . S
O25 Gd0 2.717 . S
O25 Gd1 2.327 . S
O25 C10 1.257 . S
O26 Gd1 2.377 . S
O26 C11 1.240 . S
O27 Gd0 2.395 . S
O27 C11 1.240 . S
O28 Gd1 2.448 . S
O28 C12 1.249 . S
O29 Gd1 2.506 . S
O29 C12 1.252 . S
O30 Gd1 2.435 . S
O30 C19 1.256 . S
O31 Gd0 2.327 . S
O31 Gd1 2.717 . S
O31 C19 1.257 . S
H32 C5 0.930 . S
H33 C6 0.931 . S
H34 C8 0.931 . S
H35 C9 0.931 . S
H36 C14 0.930 . S
H37 C15 0.931 . S
H38 C17 0.931 . S
H39 C18 0.931 . S
Gd40 C43 2.818 . S
Gd40 O60 2.377 . S
Gd40 O62 2.448 . S
Gd40 O63 2.506 . S
Gd40 O64 2.435 . S
Gd40 O65 2.717 . S
Gd40 O67 2.395 . S
Gd40 O71 2.327 . S
Gd41 C52 2.818 . S
Gd41 O61 2.395 . S
Gd41 O65 2.327 . S
Gd41 O66 2.377 . S
Gd41 O68 2.448 . S
Gd41 O69 2.506 . S
Gd41 O70 2.435 . S
Gd41 O71 2.717 . S
C42 O60 1.240 . S
C42 O61 1.240 . S
C43 Gd40 2.818 . S
C43 C44 1.510 . S
C43 O62 1.249 . S
C43 O63 1.252 . S
C44 C43 1.510 . S
C44 C45 1.404 . S
C44 C46 1.352 . S
C45 C44 1.404 . S
C45 C49 1.389 . S
C45 H72 0.930 . S
C46 C44 1.352 . S
C46 C48 1.374 . S
C46 H73 0.931 . S
C47 C48 1.359 . S
C47 C49 1.364 . S
C48 C46 1.374 . S
C48 C47 1.359 . S
C48 H74 0.931 . S
C49 C45 1.389 . S
C49 C47 1.364 . S
C49 H75 0.931 . S
C50 O64 1.256 . S
C50 O65 1.257 . S
C51 O66 1.240 . S
C51 O67 1.240 . S
C52 Gd41 2.818 . S
C52 C53 1.510 . S
C52 O68 1.249 . S
C52 O69 1.252 . S
C53 C52 1.510 . S
C53 C54 1.404 . S
C53 C55 1.352 . S
C54 C53 1.404 . S
C54 C58 1.389 . S
C54 H76 0.930 . S
C55 C53 1.352 . S
C55 C57 1.374 . S
C55 H77 0.931 . S
C56 C57 1.359 . S
C56 C58 1.364 . S
C57 C55 1.374 . S
C57 C56 1.359 . S
C57 H78 0.931 . S
C58 C54 1.389 . S
C58 C56 1.364 . S
C58 H79 0.931 . S
C59 O70 1.256 . S
C59 O71 1.257 . S
O60 Gd40 2.377 . S
O60 C42 1.240 . S
O61 Gd41 2.395 . S
O61 C42 1.240 . S
O62 Gd40 2.448 . S
O62 C43 1.249 . S
O63 Gd40 2.506 . S
O63 C43 1.252 . S
O64 Gd40 2.435 . S
O64 C50 1.256 . S
O65 Gd40 2.717 . S
O65 Gd41 2.327 . S
O65 C50 1.257 . S
O66 Gd41 2.377 . S
O66 C51 1.240 . S
O67 Gd40 2.395 . S
O67 C51 1.240 . S
O68 Gd41 2.448 . S
O68 C52 1.249 . S
O69 Gd41 2.506 . S
O69 C52 1.252 . S
O70 Gd41 2.435 . S
O70 C59 1.256 . S
O71 Gd40 2.327 . S
O71 Gd41 2.717 . S
O71 C59 1.257 . S
H72 C45 0.930 . S
H73 C46 0.931 . S
H74 C48 0.931 . S
H75 C49 0.931 . S
H76 C54 0.930 . S
H77 C55 0.931 . S
H78 C57 0.931 . S
H79 C58 0.931 . S
Gd80 C83 2.818 1_556 S
Gd80 O100 2.377 . S
Gd80 O102 2.448 . S
Gd80 O103 2.506 . S
Gd80 O104 2.435 . S
Gd80 O105 2.717 . S
Gd80 O107 2.395 . S
Gd80 O111 2.327 . S
Gd81 C92 2.818 . S
Gd81 O101 2.395 . S
Gd81 O105 2.327 . S
Gd81 O106 2.377 . S
Gd81 O108 2.448 . S
Gd81 O109 2.506 . S
Gd81 O110 2.435 . S
Gd81 O111 2.717 . S
C82 O100 1.240 . S
C82 O101 1.240 . S
C83 Gd80 2.818 1_554 S
C83 C84 1.510 . S
C83 O102 1.249 1_554 S
C83 O103 1.252 1_554 S
C84 C83 1.510 . S
C84 C85 1.404 . S
C84 C86 1.352 . S
C85 C84 1.404 . S
C85 C89 1.389 . S
C85 H112 0.930 . S
C86 C84 1.352 . S
C86 C88 1.374 . S
C86 H113 0.931 . S
C87 C88 1.359 . S
C87 C89 1.364 . S
C88 C86 1.374 . S
C88 C87 1.359 . S
C88 H114 0.931 . S
C89 C85 1.389 . S
C89 C87 1.364 . S
C89 H115 0.931 . S
C90 O104 1.256 . S
C90 O105 1.257 . S
C91 O106 1.240 . S
C91 O107 1.240 . S
C92 Gd81 2.818 . S
C92 C93 1.510 . S
C92 O108 1.249 . S
C92 O109 1.252 . S
C93 C92 1.510 . S
C93 C94 1.404 . S
C93 C95 1.352 . S
C94 C93 1.404 . S
C94 C98 1.389 . S
C94 H116 0.930 . S
C95 C93 1.352 . S
C95 C97 1.374 . S
C95 H117 0.931 . S
C96 C97 1.359 . S
C96 C98 1.364 . S
C97 C95 1.374 . S
C97 C96 1.359 . S
C97 H118 0.931 . S
C98 C94 1.389 . S
C98 C96 1.364 . S
C98 H119 0.931 . S
C99 O110 1.256 . S
C99 O111 1.257 . S
O100 Gd80 2.377 . S
O100 C82 1.240 . S
O101 Gd81 2.395 . S
O101 C82 1.240 . S
O102 Gd80 2.448 . S
O102 C83 1.249 1_556 S
O103 Gd80 2.506 . S
O103 C83 1.252 1_556 S
O104 Gd80 2.435 . S
O104 C90 1.256 . S
O105 Gd80 2.717 . S
O105 Gd81 2.327 . S
O105 C90 1.257 . S
O106 Gd81 2.377 . S
O106 C91 1.240 . S
O107 Gd80 2.395 . S
O107 C91 1.240 . S
O108 Gd81 2.448 . S
O108 C92 1.249 . S
O109 Gd81 2.506 . S
O109 C92 1.252 . S
O110 Gd81 2.435 . S
O110 C99 1.256 . S
O111 Gd80 2.327 . S
O111 Gd81 2.717 . S
O111 C99 1.257 . S
H112 C85 0.930 . S
H113 C86 0.931 . S
H114 C88 0.931 . S
H115 C89 0.931 . S
H116 C94 0.930 . S
H117 C95 0.931 . S
H118 C97 0.931 . S
H119 C98 0.931 . S
Gd120 C123 2.818 . S
Gd120 O140 2.377 . S
Gd120 O142 2.448 . S
Gd120 O143 2.506 . S
Gd120 O144 2.435 . S
Gd120 O145 2.717 . S
Gd120 O147 2.395 . S
Gd120 O151 2.327 . S
Gd121 C132 2.818 . S
Gd121 O141 2.395 . S
Gd121 O145 2.327 . S
Gd121 O146 2.377 . S
Gd121 O148 2.448 . S
Gd121 O149 2.506 . S
Gd121 O150 2.435 . S
Gd121 O151 2.717 . S
C122 O140 1.240 . S
C122 O141 1.240 . S
C123 Gd120 2.818 . S
C123 C124 1.510 . S
C123 O142 1.249 . S
C123 O143 1.252 . S
C124 C123 1.510 . S
C124 C125 1.404 . S
C124 C126 1.352 . S
C125 C124 1.404 . S
C125 C129 1.389 . S
C125 H152 0.930 . S
C126 C124 1.352 . S
C126 C128 1.374 . S
C126 H153 0.931 . S
C127 C128 1.359 . S
C127 C129 1.364 . S
C128 C126 1.374 . S
C128 C127 1.359 . S
C128 H154 0.931 . S
C129 C125 1.389 . S
C129 C127 1.364 . S
C129 H155 0.931 . S
C130 O144 1.256 . S
C130 O145 1.257 . S
C131 O146 1.240 . S
C131 O147 1.240 . S
C132 Gd121 2.818 . S
C132 C133 1.510 . S
C132 O148 1.249 . S
C132 O149 1.252 . S
C133 C132 1.510 . S
C133 C134 1.404 . S
C133 C135 1.352 . S
C134 C133 1.404 . S
C134 C138 1.389 . S
C134 H156 0.930 . S
C135 C133 1.352 . S
C135 C137 1.374 . S
C135 H157 0.931 . S
C136 C137 1.359 . S
C136 C138 1.364 . S
C137 C135 1.374 . S
C137 C136 1.359 . S
C137 H158 0.931 . S
C138 C134 1.389 . S
C138 C136 1.364 . S
C138 H159 0.931 . S
C139 O150 1.256 . S
C139 O151 1.257 . S
O140 Gd120 2.377 . S
O140 C122 1.240 . S
O141 Gd121 2.395 . S
O141 C122 1.240 . S
O142 Gd120 2.448 . S
O142 C123 1.249 . S
O143 Gd120 2.506 . S
O143 C123 1.252 . S
O144 Gd120 2.435 . S
O144 C130 1.256 . S
O145 Gd120 2.717 . S
O145 Gd121 2.327 . S
O145 C130 1.257 . S
O146 Gd121 2.377 . S
O146 C131 1.240 . S
O147 Gd120 2.395 . S
O147 C131 1.240 . S
O148 Gd121 2.448 . S
O148 C132 1.249 . S
O149 Gd121 2.506 . S
O149 C132 1.252 . S
O150 Gd121 2.435 . S
O150 C139 1.256 . S
O151 Gd120 2.327 . S
O151 Gd121 2.717 . S
O151 C139 1.257 . S
H152 C125 0.930 . S
H153 C126 0.931 . S
H154 C128 0.931 . S
H155 C129 0.931 . S
H156 C134 0.930 . S
H157 C135 0.931 . S
H158 C137 0.931 . S
H159 C138 0.931 . S
Gd160 C163 2.818 . S
Gd160 O180 2.377 . S
Gd160 O182 2.448 . S
Gd160 O183 2.506 . S
Gd160 O184 2.435 . S
Gd160 O185 2.717 . S
Gd160 O187 2.395 . S
Gd160 O191 2.327 . S
Gd161 C172 2.818 . S
Gd161 O181 2.395 . S
Gd161 O185 2.327 . S
Gd161 O186 2.377 . S
Gd161 O188 2.448 . S
Gd161 O189 2.506 . S
Gd161 O190 2.435 . S
Gd161 O191 2.717 . S
C162 O180 1.240 . S
C162 O181 1.240 . S
C163 Gd160 2.818 . S
C163 C164 1.510 . S
C163 O182 1.249 . S
C163 O183 1.252 . S
C164 C163 1.510 . S
C164 C165 1.404 . S
C164 C166 1.352 . S
C165 C164 1.404 . S
C165 C169 1.389 . S
C165 H192 0.930 . S
C166 C164 1.352 . S
C166 C168 1.374 . S
C166 H193 0.931 . S
C167 C168 1.359 . S
C167 C169 1.364 . S
C168 C166 1.374 . S
C168 C167 1.359 . S
C168 H194 0.931 . S
C169 C165 1.389 . S
C169 C167 1.364 . S
C169 H195 0.931 . S
C170 O184 1.256 . S
C170 O185 1.257 . S
C171 O186 1.240 . S
C171 O187 1.240 . S
C172 Gd161 2.818 . S
C172 C173 1.510 . S
C172 O188 1.249 . S
C172 O189 1.252 . S
C173 C172 1.510 . S
C173 C174 1.404 . S
C173 C175 1.352 . S
C174 C173 1.404 . S
C174 C178 1.389 . S
C174 H196 0.930 . S
C175 C173 1.352 . S
C175 C177 1.374 . S
C175 H197 0.931 . S
C176 C177 1.359 . S
C176 C178 1.364 . S
C177 C175 1.374 . S
C177 C176 1.359 . S
C177 H198 0.931 . S
C178 C174 1.389 . S
C178 C176 1.364 . S
C178 H199 0.931 . S
C179 O190 1.256 . S
C179 O191 1.257 . S
O180 Gd160 2.377 . S
O180 C162 1.240 . S
O181 Gd161 2.395 . S
O181 C162 1.240 . S
O182 Gd160 2.448 . S
O182 C163 1.249 . S
O183 Gd160 2.506 . S
O183 C163 1.252 . S
O184 Gd160 2.435 . S
O184 C170 1.256 . S
O185 Gd160 2.717 . S
O185 Gd161 2.327 . S
O185 C170 1.257 . S
O186 Gd161 2.377 . S
O186 C171 1.240 . S
O187 Gd160 2.395 . S
O187 C171 1.240 . S
O188 Gd161 2.448 . S
O188 C172 1.249 . S
O189 Gd161 2.506 . S
O189 C172 1.252 . S
O190 Gd161 2.435 . S
O190 C179 1.256 . S
O191 Gd160 2.327 . S
O191 Gd161 2.717 . S
O191 C179 1.257 . S
H192 C165 0.930 . S
H193 C166 0.931 . S
H194 C168 0.931 . S
H195 C169 0.931 . S
H196 C174 0.930 . S
H197 C175 0.931 . S
H198 C177 0.931 . S
H199 C178 0.931 . S
Gd200 C203 2.818 1_556 S
Gd200 O220 2.377 . S
Gd200 O222 2.448 . S
Gd200 O223 2.506 . S
Gd200 O224 2.435 . S
Gd200 O225 2.717 . S
Gd200 O227 2.395 . S
Gd200 O231 2.327 . S
Gd201 C212 2.818 . S
Gd201 O221 2.395 . S
Gd201 O225 2.327 . S
Gd201 O226 2.377 . S
Gd201 O228 2.448 . S
Gd201 O229 2.506 . S
Gd201 O230 2.435 . S
Gd201 O231 2.717 . S
C202 O220 1.240 . S
C202 O221 1.240 . S
C203 Gd200 2.818 1_554 S
C203 C204 1.510 . S
C203 O222 1.249 1_554 S
C203 O223 1.252 1_554 S
C204 C203 1.510 . S
C204 C205 1.404 . S
C204 C206 1.352 . S
C205 C204 1.404 . S
C205 C209 1.389 . S
C205 H232 0.930 . S
C206 C204 1.352 . S
C206 C208 1.374 . S
C206 H233 0.931 . S
C207 C208 1.359 . S
C207 C209 1.364 . S
C208 C206 1.374 . S
C208 C207 1.359 . S
C208 H234 0.931 . S
C209 C205 1.389 . S
C209 C207 1.364 . S
C209 H235 0.931 . S
C210 O224 1.256 . S
C210 O225 1.257 . S
C211 O226 1.240 . S
C211 O227 1.240 . S
C212 Gd201 2.818 . S
C212 C213 1.510 . S
C212 O228 1.249 . S
C212 O229 1.252 . S
C213 C212 1.510 . S
C213 C214 1.404 . S
C213 C215 1.352 . S
C214 C213 1.404 . S
C214 C218 1.389 . S
C214 H236 0.930 . S
C215 C213 1.352 . S
C215 C217 1.374 . S
C215 H237 0.931 . S
C216 C217 1.359 . S
C216 C218 1.364 . S
C217 C215 1.374 . S
C217 C216 1.359 . S
C217 H238 0.931 . S
C218 C214 1.389 . S
C218 C216 1.364 . S
C218 H239 0.931 . S
C219 O230 1.256 . S
C219 O231 1.257 . S
O220 Gd200 2.377 . S
O220 C202 1.240 . S
O221 Gd201 2.395 . S
O221 C202 1.240 . S
O222 Gd200 2.448 . S
O222 C203 1.249 1_556 S
O223 Gd200 2.506 . S
O223 C203 1.252 1_556 S
O224 Gd200 2.435 . S
O224 C210 1.256 . S
O225 Gd200 2.717 . S
O225 Gd201 2.327 . S
O225 C210 1.257 . S
O226 Gd201 2.377 . S
O226 C211 1.240 . S
O227 Gd200 2.395 . S
O227 C211 1.240 . S
O228 Gd201 2.448 . S
O228 C212 1.249 . S
O229 Gd201 2.506 . S
O229 C212 1.252 . S
O230 Gd201 2.435 . S
O230 C219 1.256 . S
O231 Gd200 2.327 . S
O231 Gd201 2.717 . S
O231 C219 1.257 . S
H232 C205 0.930 . S
H233 C206 0.931 . S
H234 C208 0.931 . S
H235 C209 0.931 . S
H236 C214 0.930 . S
H237 C215 0.931 . S
H238 C217 0.931 . S
H239 C218 0.931 . S
Gd240 C243 2.818 . S
Gd240 O260 2.377 . S
Gd240 O262 2.448 . S
Gd240 O263 2.506 . S
Gd240 O264 2.435 . S
Gd240 O265 2.717 . S
Gd240 O267 2.395 . S
Gd240 O271 2.327 . S
Gd241 C252 2.818 . S
Gd241 O261 2.395 . S
Gd241 O265 2.327 . S
Gd241 O266 2.377 . S
Gd241 O268 2.448 . S
Gd241 O269 2.506 . S
Gd241 O270 2.435 . S
Gd241 O271 2.717 . S
C242 O260 1.240 . S
C242 O261 1.240 . S
C243 Gd240 2.818 . S
C243 C244 1.510 . S
C243 O262 1.249 . S
C243 O263 1.252 . S
C244 C243 1.510 . S
C244 C245 1.404 . S
C244 C246 1.352 . S
C245 C244 1.404 . S
C245 C249 1.389 . S
C245 H272 0.930 . S
C246 C244 1.352 . S
C246 C248 1.374 . S
C246 H273 0.931 . S
C247 C248 1.359 . S
C247 C249 1.364 . S
C248 C246 1.374 . S
C248 C247 1.359 . S
C248 H274 0.931 . S
C249 C245 1.389 . S
C249 C247 1.364 . S
C249 H275 0.931 . S
C250 O264 1.256 . S
C250 O265 1.257 . S
C251 O266 1.240 . S
C251 O267 1.240 . S
C252 Gd241 2.818 . S
C252 C253 1.510 . S
C252 O268 1.249 . S
C252 O269 1.252 . S
C253 C252 1.510 . S
C253 C254 1.404 . S
C253 C255 1.352 . S
C254 C253 1.404 . S
C254 C258 1.389 . S
C254 H276 0.930 . S
C255 C253 1.352 . S
C255 C257 1.374 . S
C255 H277 0.931 . S
C256 C257 1.359 . S
C256 C258 1.364 . S
C257 C255 1.374 . S
C257 C256 1.359 . S
C257 H278 0.931 . S
C258 C254 1.389 . S
C258 C256 1.364 . S
C258 H279 0.931 . S
C259 O270 1.256 . S
C259 O271 1.257 . S
O260 Gd240 2.377 . S
O260 C242 1.240 . S
O261 Gd241 2.395 . S
O261 C242 1.240 . S
O262 Gd240 2.448 . S
O262 C243 1.249 . S
O263 Gd240 2.506 . S
O263 C243 1.252 . S
O264 Gd240 2.435 . S
O264 C250 1.256 . S
O265 Gd240 2.717 . S
O265 Gd241 2.327 . S
O265 C250 1.257 . S
O266 Gd241 2.377 . S
O266 C251 1.240 . S
O267 Gd240 2.395 . S
O267 C251 1.240 . S
O268 Gd241 2.448 . S
O268 C252 1.249 . S
O269 Gd241 2.506 . S
O269 C252 1.252 . S
O270 Gd241 2.435 . S
O270 C259 1.256 . S
O271 Gd240 2.327 . S
O271 Gd241 2.717 . S
O271 C259 1.257 . S
H272 C245 0.930 . S
H273 C246 0.931 . S
H274 C248 0.931 . S
H275 C249 0.931 . S
H276 C254 0.930 . S
H277 C255 0.931 . S
H278 C257 0.931 . S
H279 C258 0.931 . S
Gd280 C283 2.818 . S
Gd280 O300 2.377 . S
Gd280 O302 2.448 . S
Gd280 O303 2.506 . S
Gd280 O304 2.435 . S
Gd280 O305 2.717 . S
Gd280 O307 2.395 . S
Gd280 O311 2.327 . S
Gd281 C292 2.818 . S
Gd281 O301 2.395 . S
Gd281 O305 2.327 . S
Gd281 O306 2.377 . S
Gd281 O308 2.448 . S
Gd281 O309 2.506 . S
Gd281 O310 2.435 . S
Gd281 O311 2.717 . S
C282 O300 1.240 . S
C282 O301 1.240 . S
C283 Gd280 2.818 . S
C283 C284 1.510 . S
C283 O302 1.249 . S
C283 O303 1.252 . S
C284 C283 1.510 . S
C284 C285 1.404 . S
C284 C286 1.352 . S
C285 C284 1.404 . S
C285 C289 1.389 . S
C285 H312 0.930 . S
C286 C284 1.352 . S
C286 C288 1.374 . S
C286 H313 0.931 . S
C287 C288 1.359 . S
C287 C289 1.364 . S
C288 C286 1.374 . S
C288 C287 1.359 . S
C288 H314 0.931 . S
C289 C285 1.389 . S
C289 C287 1.364 . S
C289 H315 0.931 . S
C290 O304 1.256 . S
C290 O305 1.257 . S
C291 O306 1.240 . S
C291 O307 1.240 . S
C292 Gd281 2.818 . S
C292 C293 1.510 . S
C292 O308 1.249 . S
C292 O309 1.252 . S
C293 C292 1.510 . S
C293 C294 1.404 . S
C293 C295 1.352 . S
C294 C293 1.404 . S
C294 C298 1.389 . S
C294 H316 0.930 . S
C295 C293 1.352 . S
C295 C297 1.374 . S
C295 H317 0.931 . S
C296 C297 1.359 . S
C296 C298 1.364 . S
C297 C295 1.374 . S
C297 C296 1.359 . S
C297 H318 0.931 . S
C298 C294 1.389 . S
C298 C296 1.364 . S
C298 H319 0.931 . S
C299 O310 1.256 . S
C299 O311 1.257 . S
O300 Gd280 2.377 . S
O300 C282 1.240 . S
O301 Gd281 2.395 . S
O301 C282 1.240 . S
O302 Gd280 2.448 . S
O302 C283 1.249 . S
O303 Gd280 2.506 . S
O303 C283 1.252 . S
O304 Gd280 2.435 . S
O304 C290 1.256 . S
O305 Gd280 2.717 . S
O305 Gd281 2.327 . S
O305 C290 1.257 . S
O306 Gd281 2.377 . S
O306 C291 1.240 . S
O307 Gd280 2.395 . S
O307 C291 1.240 . S
O308 Gd281 2.448 . S
O308 C292 1.249 . S
O309 Gd281 2.506 . S
O309 C292 1.252 . S
O310 Gd281 2.435 . S
O310 C299 1.256 . S
O311 Gd280 2.327 . S
O311 Gd281 2.717 . S
O311 C299 1.257 . S
H312 C285 0.930 . S
H313 C286 0.931 . S
H314 C288 0.931 . S
H315 C289 0.931 . S
H316 C294 0.930 . S
H317 C295 0.931 . S
H318 C297 0.931 . S
H319 C298 0.931 . S
Gd320 C323 2.818 1_554 S
Gd320 O340 2.377 . S
Gd320 O342 2.448 . S
Gd320 O343 2.506 . S
Gd320 O344 2.435 . S
Gd320 O345 2.717 . S
Gd320 O347 2.395 . S
Gd320 O351 2.327 . S
Gd321 C332 2.818 . S
Gd321 O341 2.395 . S
Gd321 O345 2.327 . S
Gd321 O346 2.377 . S
Gd321 O348 2.448 . S
Gd321 O349 2.506 . S
Gd321 O350 2.435 . S
Gd321 O351 2.717 . S
C322 O340 1.240 . S
C322 O341 1.240 . S
C323 Gd320 2.818 1_556 S
C323 C324 1.510 . S
C323 O342 1.249 1_556 S
C323 O343 1.252 1_556 S
C324 C323 1.510 . S
C324 C325 1.404 . S
C324 C326 1.352 . S
C325 C324 1.404 . S
C325 C329 1.389 . S
C325 H352 0.930 . S
C326 C324 1.352 . S
C326 C328 1.374 . S
C326 H353 0.931 . S
C327 C328 1.359 . S
C327 C329 1.364 . S
C328 C326 1.374 . S
C328 C327 1.359 . S
C328 H354 0.931 . S
C329 C325 1.389 . S
C329 C327 1.364 . S
C329 H355 0.931 . S
C330 O344 1.256 . S
C330 O345 1.257 . S
C331 O346 1.240 . S
C331 O347 1.240 . S
C332 Gd321 2.818 . S
C332 C333 1.510 . S
C332 O348 1.249 . S
C332 O349 1.252 . S
C333 C332 1.510 . S
C333 C334 1.404 . S
C333 C335 1.352 . S
C334 C333 1.404 . S
C334 C338 1.389 . S
C334 H356 0.930 . S
C335 C333 1.352 . S
C335 C337 1.374 . S
C335 H357 0.931 . S
C336 C337 1.359 . S
C336 C338 1.364 . S
C337 C335 1.374 . S
C337 C336 1.359 . S
C337 H358 0.931 . S
C338 C334 1.389 . S
C338 C336 1.364 . S
C338 H359 0.931 . S
C339 O350 1.256 . S
C339 O351 1.257 . S
O340 Gd320 2.377 . S
O340 C322 1.240 . S
O341 Gd321 2.395 . S
O341 C322 1.240 . S
O342 Gd320 2.448 . S
O342 C323 1.249 1_554 S
O343 Gd320 2.506 . S
O343 C323 1.252 1_554 S
O344 Gd320 2.435 . S
O344 C330 1.256 . S
O345 Gd320 2.717 . S
O345 Gd321 2.327 . S
O345 C330 1.257 . S
O346 Gd321 2.377 . S
O346 C331 1.240 . S
O347 Gd320 2.395 . S
O347 C331 1.240 . S
O348 Gd321 2.448 . S
O348 C332 1.249 . S
O349 Gd321 2.506 . S
O349 C332 1.252 . S
O350 Gd321 2.435 . S
O350 C339 1.256 . S
O351 Gd320 2.327 . S
O351 Gd321 2.717 . S
O351 C339 1.257 . S
H352 C325 0.930 . S
H353 C326 0.931 . S
H354 C328 0.931 . S
H355 C329 0.931 . S
H356 C334 0.930 . S
H357 C335 0.931 . S
H358 C337 0.931 . S
H359 C338 0.931 . S
Gd360 C363 2.818 . S
Gd360 O380 2.377 . S
Gd360 O382 2.448 . S
Gd360 O383 2.506 . S
Gd360 O384 2.435 . S
Gd360 O385 2.717 . S
Gd360 O387 2.395 . S
Gd360 O391 2.327 . S
Gd361 C372 2.818 . S
Gd361 O381 2.395 . S
Gd361 O385 2.327 . S
Gd361 O386 2.377 . S
Gd361 O388 2.448 . S
Gd361 O389 2.506 . S
Gd361 O390 2.435 . S
Gd361 O391 2.717 . S
C362 O380 1.240 . S
C362 O381 1.240 . S
C363 Gd360 2.818 . S
C363 C364 1.510 . S
C363 O382 1.249 . S
C363 O383 1.252 . S
C364 C363 1.510 . S
C364 C365 1.404 . S
C364 C366 1.352 . S
C365 C364 1.404 . S
C365 C369 1.389 . S
C365 H392 0.930 . S
C366 C364 1.352 . S
C366 C368 1.374 . S
C366 H393 0.931 . S
C367 C368 1.359 . S
C367 C369 1.364 . S
C368 C366 1.374 . S
C368 C367 1.359 . S
C368 H394 0.931 . S
C369 C365 1.389 . S
C369 C367 1.364 . S
C369 H395 0.931 . S
C370 O384 1.256 . S
C370 O385 1.257 . S
C371 O386 1.240 . S
C371 O387 1.240 . S
C372 Gd361 2.818 . S
C372 C373 1.510 . S
C372 O388 1.249 . S
C372 O389 1.252 . S
C373 C372 1.510 . S
C373 C374 1.404 . S
C373 C375 1.352 . S
C374 C373 1.404 . S
C374 C378 1.389 . S
C374 H396 0.930 . S
C375 C373 1.352 . S
C375 C377 1.374 . S
C375 H397 0.931 . S
C376 C377 1.359 . S
C376 C378 1.364 . S
C377 C375 1.374 . S
C377 C376 1.359 . S
C377 H398 0.931 . S
C378 C374 1.389 . S
C378 C376 1.364 . S
C378 H399 0.931 . S
C379 O390 1.256 . S
C379 O391 1.257 . S
O380 Gd360 2.377 . S
O380 C362 1.240 . S
O381 Gd361 2.395 . S
O381 C362 1.240 . S
O382 Gd360 2.448 . S
O382 C363 1.249 . S
O383 Gd360 2.506 . S
O383 C363 1.252 . S
O384 Gd360 2.435 . S
O384 C370 1.256 . S
O385 Gd360 2.717 . S
O385 Gd361 2.327 . S
O385 C370 1.257 . S
O386 Gd361 2.377 . S
O386 C371 1.240 . S
O387 Gd360 2.395 . S
O387 C371 1.240 . S
O388 Gd361 2.448 . S
O388 C372 1.249 . S
O389 Gd361 2.506 . S
O389 C372 1.252 . S
O390 Gd361 2.435 . S
O390 C379 1.256 . S
O391 Gd360 2.327 . S
O391 Gd361 2.717 . S
O391 C379 1.257 . S
H392 C365 0.930 . S
H393 C366 0.931 . S
H394 C368 0.931 . S
H395 C369 0.931 . S
H396 C374 0.930 . S
H397 C375 0.931 . S
H398 C377 0.931 . S
H399 C378 0.931 . S
Gd400 C403 2.818 . S
Gd400 O420 2.377 . S
Gd400 O422 2.448 . S
Gd400 O423 2.506 . S
Gd400 O424 2.435 . S
Gd400 O425 2.717 . S
Gd400 O427 2.395 . S
Gd400 O431 2.327 . S
Gd401 C412 2.818 . S
Gd401 O421 2.395 . S
Gd401 O425 2.327 . S
Gd401 O426 2.377 . S
Gd401 O428 2.448 . S
Gd401 O429 2.506 . S
Gd401 O430 2.435 . S
Gd401 O431 2.717 . S
C402 O420 1.240 . S
C402 O421 1.240 . S
C403 Gd400 2.818 . S
C403 C404 1.510 . S
C403 O422 1.249 . S
C403 O423 1.252 . S
C404 C403 1.510 . S
C404 C405 1.404 . S
C404 C406 1.352 . S
C405 C404 1.404 . S
C405 C409 1.389 . S
C405 H432 0.930 . S
C406 C404 1.352 . S
C406 C408 1.374 . S
C406 H433 0.931 . S
C407 C408 1.359 . S
C407 C409 1.364 . S
C408 C406 1.374 . S
C408 C407 1.359 . S
C408 H434 0.931 . S
C409 C405 1.389 . S
C409 C407 1.364 . S
C409 H435 0.931 . S
C410 O424 1.256 . S
C410 O425 1.257 . S
C411 O426 1.240 . S
C411 O427 1.240 . S
C412 Gd401 2.818 . S
C412 C413 1.510 . S
C412 O428 1.249 . S
C412 O429 1.252 . S
C413 C412 1.510 . S
C413 C414 1.404 . S
C413 C415 1.352 . S
C414 C413 1.404 . S
C414 C418 1.389 . S
C414 H436 0.930 . S
C415 C413 1.352 . S
C415 C417 1.374 . S
C415 H437 0.931 . S
C416 C417 1.359 . S
C416 C418 1.364 . S
C417 C415 1.374 . S
C417 C416 1.359 . S
C417 H438 0.931 . S
C418 C414 1.389 . S
C418 C416 1.364 . S
C418 H439 0.931 . S
C419 O430 1.256 . S
C419 O431 1.257 . S
O420 Gd400 2.377 . S
O420 C402 1.240 . S
O421 Gd401 2.395 . S
O421 C402 1.240 . S
O422 Gd400 2.448 . S
O422 C403 1.249 . S
O423 Gd400 2.506 . S
O423 C403 1.252 . S
O424 Gd400 2.435 . S
O424 C410 1.256 . S
O425 Gd400 2.717 . S
O425 Gd401 2.327 . S
O425 C410 1.257 . S
O426 Gd401 2.377 . S
O426 C411 1.240 . S
O427 Gd400 2.395 . S
O427 C411 1.240 . S
O428 Gd401 2.448 . S
O428 C412 1.249 . S
O429 Gd401 2.506 . S
O429 C412 1.252 . S
O430 Gd401 2.435 . S
O430 C419 1.256 . S
O431 Gd400 2.327 . S
O431 Gd401 2.717 . S
O431 C419 1.257 . S
H432 C405 0.930 . S
H433 C406 0.931 . S
H434 C408 0.931 . S
H435 C409 0.931 . S
H436 C414 0.930 . S
H437 C415 0.931 . S
H438 C417 0.931 . S
H439 C418 0.931 . S
Gd440 C443 2.818 1_554 S
Gd440 O460 2.377 . S
Gd440 O462 2.448 . S
Gd440 O463 2.506 . S
Gd440 O464 2.435 . S
Gd440 O465 2.717 . S
Gd440 O467 2.395 . S
Gd440 O471 2.327 . S
Gd441 C452 2.818 . S
Gd441 O461 2.395 . S
Gd441 O465 2.327 . S
Gd441 O466 2.377 . S
Gd441 O468 2.448 . S
Gd441 O469 2.506 . S
Gd441 O470 2.435 . S
Gd441 O471 2.717 . S
C442 O460 1.240 . S
C442 O461 1.240 . S
C443 Gd440 2.818 1_556 S
C443 C444 1.510 . S
C443 O462 1.249 1_556 S
C443 O463 1.252 1_556 S
C444 C443 1.510 . S
C444 C445 1.404 . S
C444 C446 1.352 . S
C445 C444 1.404 . S
C445 C449 1.389 . S
C445 H472 0.930 . S
C446 C444 1.352 . S
C446 C448 1.374 . S
C446 H473 0.931 . S
C447 C448 1.359 . S
C447 C449 1.364 . S
C448 C446 1.374 . S
C448 C447 1.359 . S
C448 H474 0.931 . S
C449 C445 1.389 . S
C449 C447 1.364 . S
C449 H475 0.931 . S
C450 O464 1.256 . S
C450 O465 1.257 . S
C451 O466 1.240 . S
C451 O467 1.240 . S
C452 Gd441 2.818 . S
C452 C453 1.510 . S
C452 O468 1.249 . S
C452 O469 1.252 . S
C453 C452 1.510 . S
C453 C454 1.404 . S
C453 C455 1.352 . S
C454 C453 1.404 . S
C454 C458 1.389 . S
C454 H476 0.930 . S
C455 C453 1.352 . S
C455 C457 1.374 . S
C455 H477 0.931 . S
C456 C457 1.359 . S
C456 C458 1.364 . S
C457 C455 1.374 . S
C457 C456 1.359 . S
C457 H478 0.931 . S
C458 C454 1.389 . S
C458 C456 1.364 . S
C458 H479 0.931 . S
C459 O470 1.256 . S
C459 O471 1.257 . S
O460 Gd440 2.377 . S
O460 C442 1.240 . S
O461 Gd441 2.395 . S
O461 C442 1.240 . S
O462 Gd440 2.448 . S
O462 C443 1.249 1_554 S
O463 Gd440 2.506 . S
O463 C443 1.252 1_554 S
O464 Gd440 2.435 . S
O464 C450 1.256 . S
O465 Gd440 2.717 . S
O465 Gd441 2.327 . S
O465 C450 1.257 . S
O466 Gd441 2.377 . S
O466 C451 1.240 . S
O467 Gd440 2.395 . S
O467 C451 1.240 . S
O468 Gd441 2.448 . S
O468 C452 1.249 . S
O469 Gd441 2.506 . S
O469 C452 1.252 . S
O470 Gd441 2.435 . S
O470 C459 1.256 . S
O471 Gd440 2.327 . S
O471 Gd441 2.717 . S
O471 C459 1.257 . S
H472 C445 0.930 . S
H473 C446 0.931 . S
H474 C448 0.931 . S
H475 C449 0.931 . S
H476 C454 0.930 . S
H477 C455 0.931 . S
H478 C457 0.931 . S
H479 C458 0.931 . S
C480 C481 1.391 . S
C480 C482 1.394 . S
C480 H496 0.931 . S
C481 C480 1.391 . S
C481 C485 1.376 . S
C482 C480 1.394 . S
C482 C483 1.369 . S
C482 C486 1.531 . S
C483 C482 1.369 . S
C483 C484 1.410 . S
C483 C491 1.503 . S
C484 C483 1.410 . S
C484 C485 1.392 . S
C484 C487 1.511 . S
C485 C481 1.376 . S
C485 C484 1.392 . S
C485 H497 0.929 . S
C486 C482 1.531 . S
C486 H498 0.960 . S
C486 H499 0.962 . S
C486 H500 0.960 . S
C487 C484 1.511 . S
C487 H501 0.961 . S
C487 H502 0.961 . S
C487 H503 0.961 . S
C488 C489 1.370 . S
C488 C490 1.363 . S
C488 H504 0.931 . S
C489 C488 1.370 . S
C489 C493 1.408 . S
C490 C488 1.363 . S
C490 C491 1.370 . S
C490 C494 1.524 . S
C491 C483 1.503 . S
C491 C490 1.370 . S
C491 C492 1.403 . S
C492 C491 1.403 . S
C492 C493 1.404 . S
C492 C495 1.539 . S
C493 C489 1.408 . S
C493 C492 1.404 . S
C493 H505 0.930 . S
C494 C490 1.524 . S
C494 H506 0.956 . S
C494 H507 0.961 . S
C494 H508 0.961 . S
C495 C492 1.539 . S
C495 H509 0.958 . S
C495 H510 0.961 . S
C495 H511 0.960 . S
H496 C480 0.931 . S
H497 C485 0.929 . S
H498 C486 0.960 . S
H499 C486 0.962 . S
H500 C486 0.960 . S
H501 C487 0.961 . S
H502 C487 0.961 . S
H503 C487 0.961 . S
H504 C488 0.931 . S
H505 C493 0.930 . S
H506 C494 0.956 . S
H507 C494 0.961 . S
H508 C494 0.961 . S
H509 C495 0.958 . S
H510 C495 0.961 . S
H511 C495 0.960 . S
C512 C513 1.391 . S
C512 C514 1.394 . S
C512 H528 0.931 . S
C513 C512 1.391 . S
C513 C517 1.376 . S
C514 C512 1.394 . S
C514 C515 1.369 . S
C514 C518 1.531 . S
C515 C514 1.369 . S
C515 C516 1.410 . S
C515 C523 1.503 . S
C516 C515 1.410 . S
C516 C517 1.392 . S
C516 C519 1.511 . S
C517 C513 1.376 . S
C517 C516 1.392 . S
C517 H529 0.929 . S
C518 C514 1.531 . S
C518 H530 0.960 . S
C518 H531 0.962 . S
C518 H532 0.960 . S
C519 C516 1.511 . S
C519 H533 0.961 . S
C519 H534 0.961 . S
C519 H535 0.961 . S
C520 C521 1.370 . S
C520 C522 1.363 . S
C520 H536 0.931 . S
C521 C520 1.370 . S
C521 C525 1.408 . S
C522 C520 1.363 . S
C522 C523 1.370 . S
C522 C526 1.524 . S
C523 C515 1.503 . S
C523 C522 1.370 . S
C523 C524 1.403 . S
C524 C523 1.403 . S
C524 C525 1.404 . S
C524 C527 1.539 . S
C525 C521 1.408 . S
C525 C524 1.404 . S
C525 H537 0.930 . S
C526 C522 1.524 . S
C526 H538 0.956 . S
C526 H539 0.961 . S
C526 H540 0.961 . S
C527 C524 1.539 . S
C527 H541 0.958 . S
C527 H542 0.961 . S
C527 H543 0.960 . S
H528 C512 0.931 . S
H529 C517 0.929 . S
H530 C518 0.960 . S
H531 C518 0.962 . S
H532 C518 0.960 . S
H533 C519 0.961 . S
H534 C519 0.961 . S
H535 C519 0.961 . S
H536 C520 0.931 . S
H537 C525 0.930 . S
H538 C526 0.956 . S
H539 C526 0.961 . S
H540 C526 0.961 . S
H541 C527 0.958 . S
H542 C527 0.961 . S
H543 C527 0.960 . S
C544 C545 1.391 . S
C544 C546 1.394 . S
C544 H560 0.931 . S
C545 C544 1.391 . S
C545 C549 1.376 . S
C546 C544 1.394 . S
C546 C547 1.369 . S
C546 C550 1.531 . S
C547 C546 1.369 . S
C547 C548 1.410 . S
C547 C555 1.503 . S
C548 C547 1.410 . S
C548 C549 1.392 . S
C548 C551 1.511 . S
C549 C545 1.376 . S
C549 C548 1.392 . S
C549 H561 0.929 . S
C550 C546 1.531 . S
C550 H562 0.960 . S
C550 H563 0.962 . S
C550 H564 0.960 . S
C551 C548 1.511 . S
C551 H565 0.961 . S
C551 H566 0.961 . S
C551 H567 0.961 . S
C552 C553 1.370 . S
C552 C554 1.363 . S
C552 H568 0.931 . S
C553 C552 1.370 . S
C553 C557 1.408 . S
C554 C552 1.363 . S
C554 C555 1.370 . S
C554 C558 1.524 . S
C555 C547 1.503 . S
C555 C554 1.370 . S
C555 C556 1.403 . S
C556 C555 1.403 . S
C556 C557 1.404 . S
C556 C559 1.539 . S
C557 C553 1.408 . S
C557 C556 1.404 . S
C557 H569 0.930 . S
C558 C554 1.524 . S
C558 H570 0.956 . S
C558 H571 0.961 . S
C558 H572 0.961 . S
C559 C556 1.539 . S
C559 H573 0.958 . S
C559 H574 0.961 . S
C559 H575 0.960 . S
H560 C544 0.931 . S
H561 C549 0.929 . S
H562 C550 0.960 . S
H563 C550 0.962 . S
H564 C550 0.960 . S
H565 C551 0.961 . S
H566 C551 0.961 . S
H567 C551 0.961 . S
H568 C552 0.931 . S
H569 C557 0.930 . S
H570 C558 0.956 . S
H571 C558 0.961 . S
H572 C558 0.961 . S
H573 C559 0.958 . S
H574 C559 0.961 . S
H575 C559 0.960 . S
C576 C577 1.391 . S
C576 C578 1.394 . S
C576 H592 0.931 . S
C577 C576 1.391 . S
C577 C581 1.376 . S
C578 C576 1.394 . S
C578 C579 1.369 . S
C578 C582 1.531 . S
C579 C578 1.369 . S
C579 C580 1.410 . S
C579 C587 1.503 . S
C580 C579 1.410 . S
C580 C581 1.392 . S
C580 C583 1.511 . S
C581 C577 1.376 . S
C581 C580 1.392 . S
C581 H593 0.929 . S
C582 C578 1.531 . S
C582 H594 0.960 . S
C582 H595 0.962 . S
C582 H596 0.960 . S
C583 C580 1.511 . S
C583 H597 0.961 . S
C583 H598 0.961 . S
C583 H599 0.961 . S
C584 C585 1.370 . S
C584 C586 1.363 . S
C584 H600 0.931 . S
C585 C584 1.370 . S
C585 C589 1.408 . S
C586 C584 1.363 . S
C586 C587 1.370 . S
C586 C590 1.524 . S
C587 C579 1.503 . S
C587 C586 1.370 . S
C587 C588 1.403 . S
C588 C587 1.403 . S
C588 C589 1.404 . S
C588 C591 1.539 . S
C589 C585 1.408 . S
C589 C588 1.404 . S
C589 H601 0.930 . S
C590 C586 1.524 . S
C590 H602 0.956 . S
C590 H603 0.961 . S
C590 H604 0.961 . S
C591 C588 1.539 . S
C591 H605 0.958 . S
C591 H606 0.961 . S
C591 H607 0.960 . S
H592 C576 0.931 . S
H593 C581 0.929 . S
H594 C582 0.960 . S
H595 C582 0.962 . S
H596 C582 0.960 . S
H597 C583 0.961 . S
H598 C583 0.961 . S
H599 C583 0.961 . S
H600 C584 0.931 . S
H601 C589 0.930 . S
H602 C590 0.956 . S
H603 C590 0.961 . S
H604 C590 0.961 . S
H605 C591 0.958 . S
H606 C591 0.961 . S
H607 C591 0.960 . S
C608 C609 1.391 . S
C608 C610 1.394 . S
C608 H624 0.931 . S
C609 C608 1.391 . S
C609 C613 1.376 . S
C610 C608 1.394 . S
C610 C611 1.369 . S
C610 C614 1.531 . S
C611 C610 1.369 . S
C611 C612 1.410 . S
C611 C619 1.503 . S
C612 C611 1.410 . S
C612 C613 1.392 . S
C612 C615 1.511 . S
C613 C609 1.376 . S
C613 C612 1.392 . S
C613 H625 0.929 . S
C614 C610 1.531 . S
C614 H626 0.960 . S
C614 H627 0.962 . S
C614 H628 0.960 . S
C615 C612 1.511 . S
C615 H629 0.961 . S
C615 H630 0.961 . S
C615 H631 0.961 . S
C616 C617 1.370 . S
C616 C618 1.363 . S
C616 H632 0.931 . S
C617 C616 1.370 . S
C617 C621 1.408 . S
C618 C616 1.363 . S
C618 C619 1.370 . S
C618 C622 1.524 . S
C619 C611 1.503 . S
C619 C618 1.370 . S
C619 C620 1.403 . S
C620 C619 1.403 . S
C620 C621 1.404 . S
C620 C623 1.539 . S
C621 C617 1.408 . S
C621 C620 1.404 . S
C621 H633 0.930 . S
C622 C618 1.524 . S
C622 H634 0.956 . S
C622 H635 0.961 . S
C622 H636 0.961 . S
C623 C620 1.539 . S
C623 H637 0.958 . S
C623 H638 0.961 . S
C623 H639 0.960 . S
H624 C608 0.931 . S
H625 C613 0.929 . S
H626 C614 0.960 . S
H627 C614 0.962 . S
H628 C614 0.960 . S
H629 C615 0.961 . S
H630 C615 0.961 . S
H631 C615 0.961 . S
H632 C616 0.931 . S
H633 C621 0.930 . S
H634 C622 0.956 . S
H635 C622 0.961 . S
H636 C622 0.961 . S
H637 C623 0.958 . S
H638 C623 0.961 . S
H639 C623 0.960 . S
C640 C641 1.391 . S
C640 C642 1.394 . S
C640 H656 0.931 . S
C641 C640 1.391 . S
C641 C645 1.376 . S
C642 C640 1.394 . S
C642 C643 1.369 . S
C642 C646 1.531 . S
C643 C642 1.369 . S
C643 C644 1.410 . S
C643 C651 1.503 . S
C644 C643 1.410 . S
C644 C645 1.392 . S
C644 C647 1.511 . S
C645 C641 1.376 . S
C645 C644 1.392 . S
C645 H657 0.929 . S
C646 C642 1.531 . S
C646 H658 0.960 . S
C646 H659 0.962 . S
C646 H660 0.960 . S
C647 C644 1.511 . S
C647 H661 0.961 . S
C647 H662 0.961 . S
C647 H663 0.961 . S
C648 C649 1.370 . S
C648 C650 1.363 . S
C648 H664 0.931 . S
C649 C648 1.370 . S
C649 C653 1.408 . S
C650 C648 1.363 . S
C650 C651 1.370 . S
C650 C654 1.524 . S
C651 C643 1.503 . S
C651 C650 1.370 . S
C651 C652 1.403 . S
C652 C651 1.403 . S
C652 C653 1.404 . S
C652 C655 1.539 . S
C653 C649 1.408 . S
C653 C652 1.404 . S
C653 H665 0.930 . S
C654 C650 1.524 . S
C654 H666 0.956 . S
C654 H667 0.961 . S
C654 H668 0.961 . S
C655 C652 1.539 . S
C655 H669 0.958 . S
C655 H670 0.961 . S
C655 H671 0.960 . S
H656 C640 0.931 . S
H657 C645 0.929 . S
H658 C646 0.960 . S
H659 C646 0.962 . S
H660 C646 0.960 . S
H661 C647 0.961 . S
H662 C647 0.961 . S
H663 C647 0.961 . S
H664 C648 0.931 . S
H665 C653 0.930 . S
H666 C654 0.956 . S
H667 C654 0.961 . S
H668 C654 0.961 . S
H669 C655 0.958 . S
H670 C655 0.961 . S
H671 C655 0.960 . S
C672 C673 1.391 . S
C672 C674 1.394 . S
C672 H688 0.931 . S
C673 C672 1.391 . S
C673 C677 1.376 . S
C674 C672 1.394 . S
C674 C675 1.369 . S
C674 C678 1.531 1_556 S
C675 C674 1.369 . S
C675 C676 1.410 . S
C675 C683 1.503 1_556 S
C676 C675 1.410 . S
C676 C677 1.392 . S
C676 C679 1.511 . S
C677 C673 1.376 . S
C677 C676 1.392 . S
C677 H689 0.929 . S
C678 C674 1.531 1_554 S
C678 H690 0.960 . S
C678 H691 0.962 . S
C678 H692 0.960 . S
C679 C676 1.511 . S
C679 H693 0.961 . S
C679 H694 0.961 . S
C679 H695 0.961 . S
C680 C681 1.370 . S
C680 C682 1.363 . S
C680 H696 0.931 . S
C681 C680 1.370 . S
C681 C685 1.408 . S
C682 C680 1.363 . S
C682 C683 1.370 . S
C682 C686 1.524 1_554 S
C683 C675 1.503 1_554 S
C683 C682 1.370 . S
C683 C684 1.403 . S
C684 C683 1.403 . S
C684 C685 1.404 . S
C684 C687 1.539 . S
C685 C681 1.408 . S
C685 C684 1.404 . S
C685 H697 0.930 . S
C686 C682 1.524 1_556 S
C686 H698 0.956 . S
C686 H699 0.961 . S
C686 H700 0.961 . S
C687 C684 1.539 . S
C687 H701 0.958 . S
C687 H702 0.961 . S
C687 H703 0.960 . S
H688 C672 0.931 . S
H689 C677 0.929 . S
H690 C678 0.960 . S
H691 C678 0.962 . S
H692 C678 0.960 . S
H693 C679 0.961 . S
H694 C679 0.961 . S
H695 C679 0.961 . S
H696 C680 0.931 . S
H697 C685 0.930 . S
H698 C686 0.956 . S
H699 C686 0.961 . S
H700 C686 0.961 . S
H701 C687 0.958 . S
H702 C687 0.961 . S
H703 C687 0.960 . S
C704 C705 1.391 . S
C704 C706 1.394 . S
C704 H720 0.931 . S
C705 C704 1.391 . S
C705 C709 1.376 . S
C706 C704 1.394 . S
C706 C707 1.369 . S
C706 C710 1.531 . S
C707 C706 1.369 . S
C707 C708 1.410 . S
C707 C715 1.503 . S
C708 C707 1.410 . S
C708 C709 1.392 . S
C708 C711 1.511 . S
C709 C705 1.376 . S
C709 C708 1.392 . S
C709 H721 0.929 . S
C710 C706 1.531 . S
C710 H722 0.960 . S
C710 H723 0.962 . S
C710 H724 0.960 . S
C711 C708 1.511 . S
C711 H725 0.961 . S
C711 H726 0.961 . S
C711 H727 0.961 . S
C712 C713 1.370 . S
C712 C714 1.363 . S
C712 H728 0.931 . S
C713 C712 1.370 . S
C713 C717 1.408 . S
C714 C712 1.363 . S
C714 C715 1.370 . S
C714 C718 1.524 . S
C715 C707 1.503 . S
C715 C714 1.370 . S
C715 C716 1.403 . S
C716 C715 1.403 . S
C716 C717 1.404 . S
C716 C719 1.539 . S
C717 C713 1.408 . S
C717 C716 1.404 . S
C717 H729 0.930 . S
C718 C714 1.524 . S
C718 H730 0.956 . S
C718 H731 0.961 . S
C718 H732 0.961 . S
C719 C716 1.539 . S
C719 H733 0.958 . S
C719 H734 0.961 . S
C719 H735 0.960 . S
H720 C704 0.931 . S
H721 C709 0.929 . S
H722 C710 0.960 . S
H723 C710 0.962 . S
H724 C710 0.960 . S
H725 C711 0.961 . S
H726 C711 0.961 . S
H727 C711 0.961 . S
H728 C712 0.931 . S
H729 C717 0.930 . S
H730 C718 0.956 . S
H731 C718 0.961 . S
H732 C718 0.961 . S
H733 C719 0.958 . S
H734 C719 0.961 . S
H735 C719 0.960 . S
C736 C737 1.391 . S
C736 C738 1.394 . S
C736 H752 0.931 . S
C737 C736 1.391 . S
C737 C741 1.376 . S
C738 C736 1.394 . S
C738 C739 1.369 . S
C738 C742 1.531 . S
C739 C738 1.369 . S
C739 C740 1.410 . S
C739 C747 1.503 . S
C740 C739 1.410 . S
C740 C741 1.392 . S
C740 C743 1.511 . S
C741 C737 1.376 . S
C741 C740 1.392 . S
C741 H753 0.929 . S
C742 C738 1.531 . S
C742 H754 0.960 . S
C742 H755 0.962 . S
C742 H756 0.960 . S
C743 C740 1.511 . S
C743 H757 0.961 . S
C743 H758 0.961 . S
C743 H759 0.961 . S
C744 C745 1.370 . S
C744 C746 1.363 . S
C744 H760 0.931 . S
C745 C744 1.370 . S
C745 C749 1.408 . S
C746 C744 1.363 . S
C746 C747 1.370 . S
C746 C750 1.524 . S
C747 C739 1.503 . S
C747 C746 1.370 . S
C747 C748 1.403 . S
C748 C747 1.403 . S
C748 C749 1.404 . S
C748 C751 1.539 . S
C749 C745 1.408 . S
C749 C748 1.404 . S
C749 H761 0.930 . S
C750 C746 1.524 . S
C750 H762 0.956 . S
C750 H763 0.961 . S
C750 H764 0.961 . S
C751 C748 1.539 . S
C751 H765 0.958 . S
C751 H766 0.961 . S
C751 H767 0.960 . S
H752 C736 0.931 . S
H753 C741 0.929 . S
H754 C742 0.960 . S
H755 C742 0.962 . S
H756 C742 0.960 . S
H757 C743 0.961 . S
H758 C743 0.961 . S
H759 C743 0.961 . S
H760 C744 0.931 . S
H761 C749 0.930 . S
H762 C750 0.956 . S
H763 C750 0.961 . S
H764 C750 0.961 . S
H765 C751 0.958 . S
H766 C751 0.961 . S
H767 C751 0.960 . S
C768 C769 1.391 . S
C768 C770 1.394 . S
C768 H784 0.931 . S
C769 C768 1.391 . S
C769 C773 1.376 . S
C770 C768 1.394 . S
C770 C771 1.369 . S
C770 C774 1.531 1_556 S
C771 C770 1.369 . S
C771 C772 1.410 . S
C771 C779 1.503 1_556 S
C772 C771 1.410 . S
C772 C773 1.392 . S
C772 C775 1.511 . S
C773 C769 1.376 . S
C773 C772 1.392 . S
C773 H785 0.929 . S
C774 C770 1.531 1_554 S
C774 H786 0.960 . S
C774 H787 0.962 . S
C774 H788 0.960 . S
C775 C772 1.511 . S
C775 H789 0.961 . S
C775 H790 0.961 . S
C775 H791 0.961 . S
C776 C777 1.370 . S
C776 C778 1.363 . S
C776 H792 0.931 . S
C777 C776 1.370 . S
C777 C781 1.408 . S
C778 C776 1.363 . S
C778 C779 1.370 . S
C778 C782 1.524 . S
C779 C771 1.503 1_554 S
C779 C778 1.370 . S
C779 C780 1.403 . S
C780 C779 1.403 . S
C780 C781 1.404 . S
C780 C783 1.539 1_554 S
C781 C777 1.408 . S
C781 C780 1.404 . S
C781 H793 0.930 . S
C782 C778 1.524 . S
C782 H794 0.956 . S
C782 H795 0.993 . S
C782 H796 0.961 . S
C783 C780 1.539 1_556 S
C783 H797 0.958 1_556 S
C783 H798 0.961 . S
C783 H799 0.960 . S
H784 C768 0.931 . S
H785 C773 0.929 . S
H786 C774 0.960 . S
H787 C774 0.962 . S
H788 C774 0.960 . S
H789 C775 0.961 . S
H790 C775 0.961 . S
H791 C775 0.961 . S
H792 C776 0.931 . S
H793 C781 0.930 . S
H794 C782 0.956 . S
H795 C782 0.993 . S
H796 C782 0.961 . S
H797 C783 0.958 1_554 S
H798 C783 0.961 . S
H799 C783 0.960 . S
C800 C801 1.391 . S
C800 C802 1.394 . S
C800 H816 0.931 . S
C801 C800 1.391 . S
C801 C805 1.376 . S
C802 C800 1.394 . S
C802 C803 1.369 . S
C802 C806 1.531 . S
C803 C802 1.369 . S
C803 C804 1.410 . S
C803 C811 1.503 . S
C804 C803 1.410 . S
C804 C805 1.392 . S
C804 C807 1.511 . S
C805 C801 1.376 . S
C805 C804 1.392 . S
C805 H817 0.929 . S
C806 C802 1.531 . S
C806 H818 0.960 . S
C806 H819 0.962 . S
C806 H820 0.960 . S
C807 C804 1.511 . S
C807 H821 0.961 . S
C807 H822 0.961 . S
C807 H823 0.961 . S
C808 C809 1.370 . S
C808 C810 1.363 . S
C808 H824 0.931 . S
C809 C808 1.370 . S
C809 C813 1.408 . S
C810 C808 1.363 . S
C810 C811 1.370 . S
C810 C814 1.524 . S
C811 C803 1.503 . S
C811 C810 1.370 . S
C811 C812 1.403 . S
C812 C811 1.403 . S
C812 C813 1.404 . S
C812 C815 1.539 . S
C813 C809 1.408 . S
C813 C812 1.404 . S
C813 H825 0.930 . S
C814 C810 1.524 . S
C814 H826 0.956 . S
C814 H827 0.961 . S
C814 H828 0.961 . S
C815 C812 1.539 . S
C815 H829 0.958 . S
C815 H830 0.961 . S
C815 H831 0.960 . S
H816 C800 0.931 . S
H817 C805 0.929 . S
H818 C806 0.960 . S
H819 C806 0.962 . S
H820 C806 0.960 . S
H821 C807 0.961 . S
H822 C807 0.961 . S
H823 C807 0.961 . S
H824 C808 0.931 . S
H825 C813 0.930 . S
H826 C814 0.956 . S
H827 C814 0.961 . S
H828 C814 0.961 . S
H829 C815 0.958 . S
H830 C815 0.961 . S
H831 C815 0.960 . S
C832 C833 1.391 . S
C832 C834 1.394 . S
C832 H848 0.931 . S
C833 C832 1.391 . S
C833 C837 1.376 . S
C834 C832 1.394 . S
C834 C835 1.369 . S
C834 C838 1.531 . S
C835 C834 1.369 . S
C835 C836 1.410 . S
C835 C843 1.503 . S
C836 C835 1.410 . S
C836 C837 1.392 . S
C836 C839 1.511 . S
C837 C833 1.376 . S
C837 C836 1.392 . S
C837 H849 0.929 . S
C838 C834 1.531 . S
C838 H850 0.960 . S
C838 H851 0.962 . S
C838 H852 0.960 . S
C839 C836 1.511 . S
C839 H853 0.961 . S
C839 H854 0.961 . S
C839 H855 0.961 . S
C840 C841 1.370 . S
C840 C842 1.363 . S
C840 H856 0.931 . S
C841 C840 1.370 . S
C841 C845 1.408 . S
C842 C840 1.363 . S
C842 C843 1.370 . S
C842 C846 1.524 . S
C843 C835 1.503 . S
C843 C842 1.370 . S
C843 C844 1.403 . S
C844 C843 1.403 . S
C844 C845 1.404 . S
C844 C847 1.539 . S
C845 C841 1.408 . S
C845 C844 1.404 . S
C845 H857 0.930 . S
C846 C842 1.524 . S
C846 H858 0.956 . S
C846 H859 0.961 . S
C846 H860 0.961 . S
C847 C844 1.539 . S
C847 H861 0.958 . S
C847 H862 0.961 . S
C847 H863 0.960 . S
H848 C832 0.931 . S
H849 C837 0.929 . S
H850 C838 0.960 . S
H851 C838 0.962 . S
H852 C838 0.960 . S
H853 C839 0.961 . S
H854 C839 0.961 . S
H855 C839 0.961 . S
H856 C840 0.931 . S
H857 C845 0.930 . S
H858 C846 0.956 . S
H859 C846 0.961 . S
H860 C846 0.961 . S
H861 C847 0.958 . S
H862 C847 0.961 . S
H863 C847 0.960 . S
C864 C865 1.391 . S
C864 C866 1.394 . S
C864 H880 0.931 . S
C865 C864 1.391 . S
C865 C869 1.376 . S
C866 C864 1.394 . S
C866 C867 1.369 . S
C866 C870 1.531 1_556 S
C867 C866 1.369 . S
C867 C868 1.410 . S
C867 C875 1.503 1_566 S
C868 C867 1.410 . S
C868 C869 1.392 . S
C868 C871 1.511 1_565 S
C869 C865 1.376 . S
C869 C868 1.392 . S
C869 H881 0.929 . S
C870 C866 1.531 1_554 S
C870 H882 0.960 . S
C870 H883 0.962 . S
C870 H884 0.960 . S
C871 C868 1.511 1_545 S
C871 H885 0.961 . S
C871 H886 0.961 . S
C871 H887 0.961 . S
C872 C873 1.370 . S
C872 C874 1.363 . S
C872 H888 0.931 . S
C873 C872 1.370 . S
C873 C877 1.408 . S
C874 C872 1.363 . S
C874 C875 1.370 . S
C874 C878 1.524 1_554 S
C875 C867 1.503 1_544 S
C875 C874 1.370 . S
C875 C876 1.403 1_545 S
C876 C875 1.403 1_565 S
C876 C877 1.404 1_565 S
C876 C879 1.539 . S
C877 C873 1.408 . S
C877 C876 1.404 1_545 S
C877 H889 0.930 . S
C878 C874 1.524 1_556 S
C878 H890 0.956 . S
C878 H891 0.961 . S
C878 H892 0.961 . S
C879 C876 1.539 . S
C879 H893 0.958 . S
C879 H894 0.961 . S
C879 H895 0.960 . S
H880 C864 0.931 . S
H881 C869 0.929 . S
H882 C870 0.960 . S
H883 C870 0.962 . S
H884 C870 0.960 . S
H885 C871 0.961 . S
H886 C871 0.961 . S
H887 C871 0.961 . S
H888 C872 0.931 . S
H889 C877 0.930 . S
H890 C878 0.956 . S
H891 C878 0.961 . S
H892 C878 0.961 . S
H893 C879 0.958 . S
H894 C879 0.961 . S
H895 C879 0.960 . S
C896 C897 1.391 . S
C896 C898 1.394 . S
C896 H912 0.931 . S
C897 C896 1.391 . S
C897 C901 1.376 . S
C898 C896 1.394 . S
C898 C899 1.369 . S
C898 C902 1.531 . S
C899 C898 1.369 . S
C899 C900 1.410 . S
C899 C907 1.503 . S
C900 C899 1.410 . S
C900 C901 1.392 . S
C900 C903 1.511 . S
C901 C897 1.376 . S
C901 C900 1.392 . S
C901 H913 0.929 . S
C902 C898 1.531 . S
C902 H914 0.960 . S
C902 H915 0.962 . S
C902 H916 0.960 . S
C903 C900 1.511 . S
C903 H917 0.961 . S
C903 H918 0.961 . S
C903 H919 0.961 . S
C904 C905 1.370 . S
C904 C906 1.363 . S
C904 H920 0.931 . S
C905 C904 1.370 . S
C905 C909 1.408 . S
C906 C904 1.363 . S
C906 C907 1.370 . S
C906 C910 1.524 . S
C907 C899 1.503 . S
C907 C906 1.370 . S
C907 C908 1.403 . S
C908 C907 1.403 . S
C908 C909 1.404 . S
C908 C911 1.539 . S
C909 C905 1.408 . S
C909 C908 1.404 . S
C909 H921 0.930 . S
C910 C906 1.524 . S
C910 H922 0.956 . S
C910 H923 0.961 . S
C910 H924 0.961 . S
C911 C908 1.539 . S
C911 H925 0.958 . S
C911 H926 0.961 . S
C911 H927 0.960 . S
H912 C896 0.931 . S
H913 C901 0.929 . S
H914 C902 0.960 . S
H915 C902 0.962 . S
H916 C902 0.960 . S
H917 C903 0.961 . S
H918 C903 0.961 . S
H919 C903 0.961 . S
H920 C904 0.931 . S
H921 C909 0.930 . S
H922 C910 0.956 . S
H923 C910 0.961 . S
H924 C910 0.961 . S
H925 C911 0.958 . S
H926 C911 0.961 . S
H927 C911 0.960 . S
C928 C929 1.391 . S
C928 C930 1.394 . S
C928 H944 0.931 . S
C929 C928 1.391 . S
C929 C933 1.376 . S
C930 C928 1.394 . S
C930 C931 1.369 . S
C930 C934 1.531 1_455 S
C931 C930 1.369 . S
C931 C932 1.410 . S
C931 C939 1.503 1_455 S
C932 C931 1.410 . S
C932 C933 1.392 . S
C932 C935 1.511 . S
C933 C929 1.376 . S
C933 C932 1.392 . S
C933 H945 0.929 . S
C934 C930 1.531 1_655 S
C934 H946 0.960 . S
C934 H947 0.962 1_655 S
C934 H948 0.960 . S
C935 C932 1.511 . S
C935 H949 0.961 . S
C935 H950 0.961 . S
C935 H951 0.961 1_455 S
C936 C937 1.370 . S
C936 C938 1.363 1_655 S
C936 H952 0.931 1_655 S
C937 C936 1.370 . S
C937 C941 1.408 . S
C938 C936 1.363 1_455 S
C938 C939 1.370 1_455 S
C938 C942 1.524 . S
C939 C931 1.503 1_655 S
C939 C938 1.370 1_655 S
C939 C940 1.403 . S
C940 C939 1.403 . S
C940 C941 1.404 . S
C940 C943 1.539 . S
C941 C937 1.408 . S
C941 C940 1.404 . S
C941 H953 0.930 . S
C942 C938 1.524 . S
C942 H954 0.956 . S
C942 H955 0.961 . S
C942 H956 0.961 . S
C943 C940 1.539 . S
C943 H957 0.958 . S
C943 H958 0.961 . S
C943 H959 0.960 . S
H944 C928 0.931 . S
H945 C933 0.929 . S
H946 C934 0.960 . S
H947 C934 0.962 1_455 S
H948 C934 0.960 . S
H949 C935 0.961 . S
H950 C935 0.961 . S
H951 C935 0.961 1_655 S
H952 C936 0.931 1_455 S
H953 C941 0.930 . S
H954 C942 0.956 . S
H955 C942 0.961 . S
H956 C942 0.961 . S
H957 C943 0.958 . S
H958 C943 0.961 . S
H959 C943 0.960 . S
C960 C961 1.391 . S
C960 C962 1.377 1_565 S
C960 H976 0.931 . S
C961 C960 1.391 . S
C961 C965 1.376 . S
C962 C960 1.377 1_545 S
C962 C963 1.351 1_545 S
C962 C966 1.567 . S
C963 C962 1.351 1_565 S
C963 C964 1.410 . S
C963 C971 1.503 1_564 S
C964 C963 1.410 . S
C964 C965 1.392 . S
C964 C967 1.511 . S
C965 C961 1.376 . S
C965 C964 1.392 . S
C965 H977 0.929 . S
C966 C962 1.567 . S
C966 H978 0.960 . S
C966 H979 0.962 . S
C966 H980 0.960 . S
C967 C964 1.511 . S
C967 H981 0.961 . S
C967 H982 0.961 1_554 S
C967 H983 0.961 . S
C968 C969 1.370 . S
C968 C970 1.363 1_545 S
C968 H984 0.931 . S
C969 C968 1.370 . S
C969 C973 1.408 . S
C970 C968 1.363 1_565 S
C970 C971 1.370 1_565 S
C970 C974 1.524 . S
C971 C963 1.503 1_546 S
C971 C970 1.370 1_545 S
C971 C972 1.403 . S
C972 C971 1.403 . S
C972 C973 1.404 . S
C972 C975 1.539 1_556 S
C973 C969 1.408 . S
C973 C972 1.404 . S
C973 H985 0.930 . S
C974 C970 1.524 . S
C974 H986 0.956 . S
C974 H987 0.961 . S
C974 H988 0.961 . S
C975 C972 1.539 1_554 S
C975 H989 0.958 . S
C975 H990 0.965 . S
C975 H991 0.960 . S
H976 C960 0.931 . S
H977 C965 0.929 . S
H978 C966 0.960 . S
H979 C966 0.962 . S
H980 C966 0.960 . S
H981 C967 0.961 . S
H982 C967 0.961 1_556 S
H983 C967 0.961 . S
H984 C968 0.931 . S
H985 C973 0.930 . S
H986 C974 0.956 . S
H987 C974 0.961 . S
H988 C974 0.961 . S
H989 C975 0.958 . S
H990 C975 0.965 . S
H991 C975 0.960 . S
C992 C993 1.391 . S
C992 C994 1.394 . S
C992 H1008 0.931 . S
C993 C992 1.391 . S
C993 C997 1.376 . S
C994 C992 1.394 . S
C994 C995 1.369 . S
C994 C998 1.531 . S
C995 C994 1.369 . S
C995 C996 1.410 . S
C995 C1003 1.503 . S
C996 C995 1.410 . S
C996 C997 1.392 . S
C996 C999 1.511 . S
C997 C993 1.376 . S
C997 C996 1.392 . S
C997 H1009 0.929 . S
C998 C994 1.531 . S
C998 H1010 0.960 . S
C998 H1011 0.962 . S
C998 H1012 0.960 . S
C999 C996 1.511 . S
C999 H1013 0.961 . S
C999 H1014 0.961 . S
C999 H1015 0.961 . S
C1000 C1001 1.370 . S
C1000 C1002 1.363 . S
C1000 H1016 0.931 . S
C1001 C1000 1.370 . S
C1001 C1005 1.408 . S
C1002 C1000 1.363 . S
C1002 C1003 1.370 . S
C1002 C1006 1.524 . S
C1003 C995 1.503 . S
C1003 C1002 1.370 . S
C1003 C1004 1.403 . S
C1004 C1003 1.403 . S
C1004 C1005 1.404 . S
C1004 C1007 1.539 . S
C1005 C1001 1.408 . S
C1005 C1004 1.404 . S
C1005 H1017 0.930 . S
C1006 C1002 1.524 . S
C1006 H1018 0.956 . S
C1006 H1019 0.961 . S
C1006 H1020 0.961 . S
C1007 C1004 1.539 . S
C1007 H1021 0.958 . S
C1007 H1022 0.961 . S
C1007 H1023 0.960 . S
H1008 C992 0.931 . S
H1009 C997 0.929 . S
H1010 C998 0.960 . S
H1011 C998 0.962 . S
H1012 C998 0.960 . S
H1013 C999 0.961 . S
H1014 C999 0.961 . S
H1015 C999 0.961 . S
H1016 C1000 0.931 . S
H1017 C1005 0.930 . S
H1018 C1006 0.956 . S
H1019 C1006 0.961 . S
H1020 C1006 0.961 . S
H1021 C1007 0.958 . S
H1022 C1007 0.961 . S
H1023 C1007 0.960 . S
C1024 C1025 1.391 . S
C1024 C1026 1.396 . S
C1024 H1040 0.931 . S
C1025 C1024 1.391 . S
C1025 C1029 1.376 . S
C1026 C1024 1.396 . S
C1026 C1027 1.372 . S
C1026 C1030 1.525 1_455 S
C1027 C1026 1.372 . S
C1027 C1028 1.410 . S
C1027 C1035 1.503 1_455 S
C1028 C1027 1.410 . S
C1028 C1029 1.392 . S
C1028 C1031 1.511 . S
C1029 C1025 1.376 . S
C1029 C1028 1.392 . S
C1029 H1041 0.929 . S
C1030 C1026 1.525 1_655 S
C1030 H1042 0.960 . S
C1030 H1043 0.962 . S
C1030 H1044 0.960 . S
C1031 C1028 1.511 . S
C1031 H1045 0.961 . S
C1031 H1046 0.961 . S
C1031 H1047 0.961 . S
C1032 C1033 1.370 . S
C1032 C1034 1.363 . S
C1032 H1048 0.931 . S
C1033 C1032 1.370 . S
C1033 C1037 1.408 . S
C1034 C1032 1.363 . S
C1034 C1035 1.370 . S
C1034 C1038 1.524 . S
C1035 C1027 1.503 1_655 S
C1035 C1034 1.370 . S
C1035 C1036 1.406 1_655 S
C1036 C1035 1.406 1_455 S
C1036 C1037 1.397 1_455 S
C1036 C1039 1.544 . S
C1037 C1033 1.408 . S
C1037 C1036 1.397 1_655 S
C1037 H1049 0.930 . S
C1038 C1034 1.524 . S
C1038 H1050 0.956 . S
C1038 H1051 0.961 . S
C1038 H1052 0.961 . S
C1039 C1036 1.544 . S
C1039 H1053 0.958 . S
C1039 H1054 0.961 . S
C1039 H1055 0.960 . S
H1040 C1024 0.931 . S
H1041 C1029 0.929 . S
H1042 C1030 0.960 . S
H1043 C1030 0.962 . S
H1044 C1030 0.960 . S
H1045 C1031 0.961 . S
H1046 C1031 0.961 . S
H1047 C1031 0.961 . S
H1048 C1032 0.931 . S
H1049 C1037 0.930 . S
H1050 C1038 0.956 . S
H1051 C1038 0.961 . S
H1052 C1038 0.961 . S
H1053 C1039 0.958 . S
H1054 C1039 0.961 . S
H1055 C1039 0.960 . S
C1056 C1057 1.391 . S
C1056 C1058 1.394 . S
C1056 H1072 0.931 . S
C1057 C1056 1.391 . S
C1057 C1061 1.376 . S
C1058 C1056 1.394 . S
C1058 C1059 1.369 . S
C1058 C1062 1.531 1_545 S
C1059 C1058 1.369 . S
C1059 C1060 1.410 . S
C1059 C1067 1.503 1_545 S
C1060 C1059 1.410 . S
C1060 C1061 1.392 . S
C1060 C1063 1.511 . S
C1061 C1057 1.376 . S
C1061 C1060 1.392 . S
C1061 H1073 0.929 . S
C1062 C1058 1.531 1_565 S
C1062 H1074 0.960 . S
C1062 H1075 0.962 . S
C1062 H1076 0.960 . S
C1063 C1060 1.511 . S
C1063 H1077 0.961 . S
C1063 H1078 0.961 . S
C1063 H1079 0.961 . S
C1064 C1065 1.370 . S
C1064 C1066 1.363 . S
C1064 H1080 0.931 . S
C1065 C1064 1.370 . S
C1065 C1069 1.408 . S
C1066 C1064 1.363 . S
C1066 C1067 1.370 . S
C1066 C1070 1.524 . S
C1067 C1059 1.503 1_565 S
C1067 C1066 1.370 . S
C1067 C1068 1.403 . S
C1068 C1067 1.403 . S
C1068 C1069 1.404 . S
C1068 C1071 1.539 1_565 S
C1069 C1065 1.408 . S
C1069 C1068 1.404 . S
C1069 H1081 0.930 . S
C1070 C1066 1.524 . S
C1070 H1082 0.956 . S
C1070 H1083 0.958 1_565 S
C1070 H1084 0.961 . S
C1071 C1068 1.539 1_545 S
C1071 H1085 0.958 1_545 S
C1071 H1086 0.961 . S
C1071 H1087 0.960 . S
H1072 C1056 0.931 . S
H1073 C1061 0.929 . S
H1074 C1062 0.960 . S
H1075 C1062 0.962 . S
H1076 C1062 0.960 . S
H1077 C1063 0.961 . S
H1078 C1063 0.961 . S
H1079 C1063 0.961 . S
H1080 C1064 0.931 . S
H1081 C1069 0.930 . S
H1082 C1070 0.956 . S
H1083 C1070 0.958 1_545 S
H1084 C1070 0.961 . S
H1085 C1071 0.958 1_565 S
H1086 C1071 0.961 . S
H1087 C1071 0.960 . S
C1088 C1089 1.391 . S
C1088 C1090 1.394 . S
C1088 H1104 0.931 . S
C1089 C1088 1.391 . S
C1089 C1093 1.376 . S
C1090 C1088 1.394 . S
C1090 C1091 1.369 . S
C1090 C1094 1.531 . S
C1091 C1090 1.369 . S
C1091 C1092 1.410 . S
C1091 C1099 1.503 . S
C1092 C1091 1.410 . S
C1092 C1093 1.392 . S
C1092 C1095 1.511 . S
C1093 C1089 1.376 . S
C1093 C1092 1.392 . S
C1093 H1105 0.929 . S
C1094 C1090 1.531 . S
C1094 H1106 0.960 . S
C1094 H1107 0.962 . S
C1094 H1108 0.960 . S
C1095 C1092 1.511 . S
C1095 H1109 0.961 . S
C1095 H1110 0.961 . S
C1095 H1111 0.961 . S
C1096 C1097 1.370 . S
C1096 C1098 1.363 . S
C1096 H1112 0.931 . S
C1097 C1096 1.370 . S
C1097 C1101 1.408 . S
C1098 C1096 1.363 . S
C1098 C1099 1.370 . S
C1098 C1102 1.524 . S
C1099 C1091 1.503 . S
C1099 C1098 1.370 . S
C1099 C1100 1.403 . S
C1100 C1099 1.403 . S
C1100 C1101 1.404 . S
C1100 C1103 1.539 . S
C1101 C1097 1.408 . S
C1101 C1100 1.404 . S
C1101 H1113 0.930 . S
C1102 C1098 1.524 . S
C1102 H1114 0.956 . S
C1102 H1115 0.961 . S
C1102 H1116 0.961 . S
C1103 C1100 1.539 . S
C1103 H1117 0.958 . S
C1103 H1118 0.961 . S
C1103 H1119 0.960 . S
H1104 C1088 0.931 . S
H1105 C1093 0.929 . S
H1106 C1094 0.960 . S
H1107 C1094 0.962 . S
H1108 C1094 0.960 . S
H1109 C1095 0.961 . S
H1110 C1095 0.961 . S
H1111 C1095 0.961 . S
H1112 C1096 0.931 . S
H1113 C1101 0.930 . S
H1114 C1102 0.956 . S
H1115 C1102 0.961 . S
H1116 C1102 0.961 . S
H1117 C1103 0.958 . S
H1118 C1103 0.961 . S
H1119 C1103 0.960 . S
C1120 C1121 1.391 . S
C1120 C1122 1.394 . S
C1120 H1136 0.931 . S
C1121 C1120 1.391 . S
C1121 C1125 1.376 . S
C1122 C1120 1.394 . S
C1122 C1123 1.369 . S
C1122 C1126 1.531 1_655 S
C1123 C1122 1.369 . S
C1123 C1124 1.410 . S
C1123 C1131 1.503 1_655 S
C1124 C1123 1.410 . S
C1124 C1125 1.392 . S
C1124 C1127 1.511 . S
C1125 C1121 1.376 . S
C1125 C1124 1.392 . S
C1125 H1137 0.929 . S
C1126 C1122 1.531 1_455 S
C1126 H1138 0.960 . S
C1126 H1139 0.962 . S
C1126 H1140 0.960 . S
C1127 C1124 1.511 . S
C1127 H1141 0.961 . S
C1127 H1142 0.961 . S
C1127 H1143 0.961 . S
C1128 C1129 1.370 . S
C1128 C1130 1.363 . S
C1128 H1144 0.931 . S
C1129 C1128 1.370 . S
C1129 C1133 1.408 . S
C1130 C1128 1.363 . S
C1130 C1131 1.370 . S
C1130 C1134 1.524 . S
C1131 C1123 1.503 1_455 S
C1131 C1130 1.370 . S
C1131 C1132 1.403 . S
C1132 C1131 1.403 . S
C1132 C1133 1.404 . S
C1132 C1135 1.539 1_455 S
C1133 C1129 1.408 . S
C1133 C1132 1.404 . S
C1133 H1145 0.930 . S
C1134 C1130 1.524 . S
C1134 H1146 0.956 . S
C1134 H1147 0.961 . S
C1134 H1148 0.961 . S
C1135 C1132 1.539 1_655 S
C1135 H1149 0.958 . S
C1135 H1150 0.961 . S
C1135 H1151 0.960 . S
H1136 C1120 0.931 . S
H1137 C1125 0.929 . S
H1138 C1126 0.960 . S
H1139 C1126 0.962 . S
H1140 C1126 0.960 . S
H1141 C1127 0.961 . S
H1142 C1127 0.961 . S
H1143 C1127 0.961 . S
H1144 C1128 0.931 . S
H1145 C1133 0.930 . S
H1146 C1134 0.956 . S
H1147 C1134 0.961 . S
H1148 C1134 0.961 . S
H1149 C1135 0.958 . S
H1150 C1135 0.961 . S
H1151 C1135 0.960 . S
C1152 C1153 1.391 . S
C1152 C1154 1.394 . S
C1152 H1168 0.931 . S
C1153 C1152 1.391 . S
C1153 C1157 1.376 . S
C1154 C1152 1.394 . S
C1154 C1155 1.369 . S
C1154 C1158 1.531 1_455 S
C1155 C1154 1.369 . S
C1155 C1156 1.410 . S
C1155 C1163 1.503 1_455 S
C1156 C1155 1.410 . S
C1156 C1157 1.392 . S
C1156 C1159 1.511 . S
C1157 C1153 1.376 . S
C1157 C1156 1.392 . S
C1157 H1169 0.929 . S
C1158 C1154 1.531 1_655 S
C1158 H1170 0.960 . S
C1158 H1171 0.962 . S
C1158 H1172 0.960 . S
C1159 C1156 1.511 . S
C1159 H1173 0.961 . S
C1159 H1174 0.961 . S
C1159 H1175 0.961 . S
C1160 C1161 1.370 . S
C1160 C1162 1.363 . S
C1160 H1176 0.931 . S
C1161 C1160 1.370 . S
C1161 C1165 1.408 . S
C1162 C1160 1.363 . S
C1162 C1163 1.370 . S
C1162 C1166 1.524 . S
C1163 C1155 1.503 1_655 S
C1163 C1162 1.370 . S
C1163 C1164 1.403 . S
C1164 C1163 1.403 . S
C1164 C1165 1.404 . S
C1164 C1167 1.539 . S
C1165 C1161 1.408 . S
C1165 C1164 1.404 . S
C1165 H1177 0.930 . S
C1166 C1162 1.524 . S
C1166 H1178 0.956 . S
C1166 H1179 0.961 1_655 S
C1166 H1180 0.961 . S
C1167 C1164 1.539 . S
C1167 H1181 0.958 . S
C1167 H1182 0.961 . S
C1167 H1183 0.960 1_655 S
H1168 C1152 0.931 . S
H1169 C1157 0.929 . S
H1170 C1158 0.960 . S
H1171 C1158 0.962 . S
H1172 C1158 0.960 . S
H1173 C1159 0.961 . S
H1174 C1159 0.961 . S
H1175 C1159 0.961 . S
H1176 C1160 0.931 . S
H1177 C1165 0.930 . S
H1178 C1166 0.956 . S
H1179 C1166 0.961 1_455 S
H1180 C1166 0.961 . S
H1181 C1167 0.958 . S
H1182 C1167 0.961 . S
H1183 C1167 0.960 1_455 S
C1184 C1185 1.391 . S
C1184 C1186 1.394 . S
C1184 H1200 0.931 . S
C1185 C1184 1.391 . S
C1185 C1189 1.376 . S
C1186 C1184 1.394 . S
C1186 C1187 1.369 . S
C1186 C1190 1.531 1_565 S
C1187 C1186 1.369 . S
C1187 C1188 1.410 . S
C1187 C1195 1.503 1_565 S
C1188 C1187 1.410 . S
C1188 C1189 1.392 . S
C1188 C1191 1.511 . S
C1189 C1185 1.376 . S
C1189 C1188 1.392 . S
C1189 H1201 0.929 . S
C1190 C1186 1.531 1_545 S
C1190 H1202 0.960 . S
C1190 H1203 0.962 . S
C1190 H1204 0.960 . S
C1191 C1188 1.511 . S
C1191 H1205 0.961 . S
C1191 H1206 0.961 . S
C1191 H1207 0.961 . S
C1192 C1193 1.370 . S
C1192 C1194 1.363 . S
C1192 H1208 0.931 . S
C1193 C1192 1.370 . S
C1193 C1197 1.408 . S
C1194 C1192 1.363 . S
C1194 C1195 1.370 . S
C1194 C1198 1.524 . S
C1195 C1187 1.503 1_545 S
C1195 C1194 1.370 . S
C1195 C1196 1.403 . S
C1196 C1195 1.403 . S
C1196 C1197 1.404 . S
C1196 C1199 1.539 1_545 S
C1197 C1193 1.408 . S
C1197 C1196 1.404 . S
C1197 H1209 0.930 . S
C1198 C1194 1.524 . S
C1198 H1210 0.956 . S
C1198 H1211 0.961 . S
C1198 H1212 0.961 . S
C1199 C1196 1.539 1_565 S
C1199 H1213 0.958 . S
C1199 H1214 0.961 . S
C1199 H1215 0.960 . S
H1200 C1184 0.931 . S
H1201 C1189 0.929 . S
H1202 C1190 0.960 . S
H1203 C1190 0.962 . S
H1204 C1190 0.960 . S
H1205 C1191 0.961 . S
H1206 C1191 0.961 . S
H1207 C1191 0.961 . S
H1208 C1192 0.931 . S
H1209 C1197 0.930 . S
H1210 C1198 0.956 . S
H1211 C1198 0.961 . S
H1212 C1198 0.961 . S
H1213 C1199 0.958 . S
H1214 C1199 0.961 . S
H1215 C1199 0.960 . S
C1216 C1217 1.391 . S
C1216 C1218 1.394 . S
C1216 H1232 0.931 . S
C1217 C1216 1.391 . S
C1217 C1221 1.376 . S
C1218 C1216 1.394 . S
C1218 C1219 1.369 . S
C1218 C1222 1.531 . S
C1219 C1218 1.369 . S
C1219 C1220 1.410 . S
C1219 C1227 1.503 . S
C1220 C1219 1.410 . S
C1220 C1221 1.392 . S
C1220 C1223 1.511 . S
C1221 C1217 1.376 . S
C1221 C1220 1.392 . S
C1221 H1233 0.929 . S
C1222 C1218 1.531 . S
C1222 H1234 0.960 . S
C1222 H1235 0.962 . S
C1222 H1236 0.960 1_554 S
C1223 C1220 1.511 . S
C1223 H1237 0.961 . S
C1223 H1238 0.961 . S
C1223 H1239 0.961 . S
C1224 C1225 1.370 . S
C1224 C1226 1.363 . S
C1224 H1240 0.931 . S
C1225 C1224 1.370 . S
C1225 C1229 1.408 . S
C1226 C1224 1.363 . S
C1226 C1227 1.370 . S
C1226 C1230 1.524 . S
C1227 C1219 1.503 . S
C1227 C1226 1.370 . S
C1227 C1228 1.403 . S
C1228 C1227 1.403 . S
C1228 C1229 1.404 . S
C1228 C1231 1.539 . S
C1229 C1225 1.408 . S
C1229 C1228 1.404 . S
C1229 H1241 0.930 . S
C1230 C1226 1.524 . S
C1230 H1242 0.956 . S
C1230 H1243 0.961 . S
C1230 H1244 0.961 . S
C1231 C1228 1.539 . S
C1231 H1245 0.958 . S
C1231 H1246 0.961 . S
C1231 H1247 0.960 . S
H1232 C1216 0.931 . S
H1233 C1221 0.929 . S
H1234 C1222 0.960 . S
H1235 C1222 0.962 . S
H1236 C1222 0.960 1_556 S
H1237 C1223 0.961 . S
H1238 C1223 0.961 . S
H1239 C1223 0.961 . S
H1240 C1224 0.931 . S
H1241 C1229 0.930 . S
H1242 C1230 0.956 . S
H1243 C1230 0.961 . S
H1244 C1230 0.961 . S
H1245 C1231 0.958 . S
H1246 C1231 0.961 . S
H1247 C1231 0.960 . S
C1248 C1249 1.391 . S
C1248 C1250 1.394 . S
C1248 H1264 0.931 . S
C1249 C1248 1.391 . S
C1249 C1253 1.376 . S
C1250 C1248 1.394 . S
C1250 C1251 1.369 . S
C1250 C1254 1.531 . S
C1251 C1250 1.369 . S
C1251 C1252 1.410 . S
C1251 C1259 1.503 1_565 S
C1252 C1251 1.410 . S
C1252 C1253 1.392 . S
C1252 C1255 1.511 1_565 S
C1253 C1249 1.376 . S
C1253 C1252 1.392 . S
C1253 H1265 0.929 . S
C1254 C1250 1.531 . S
C1254 H1266 0.960 . S
C1254 H1267 0.962 . S
C1254 H1268 0.960 . S
C1255 C1252 1.511 1_545 S
C1255 H1269 0.961 . S
C1255 H1270 0.961 . S
C1255 H1271 0.961 . S
C1256 C1257 1.370 . S
C1256 C1258 1.363 . S
C1256 H1272 0.931 . S
C1257 C1256 1.370 . S
C1257 C1261 1.408 . S
C1258 C1256 1.363 . S
C1258 C1259 1.370 . S
C1258 C1262 1.524 . S
C1259 C1251 1.503 1_545 S
C1259 C1258 1.370 . S
C1259 C1260 1.403 . S
C1260 C1259 1.403 . S
C1260 C1261 1.404 . S
C1260 C1263 1.539 1_545 S
C1261 C1257 1.408 . S
C1261 C1260 1.404 . S
C1261 H1273 0.930 . S
C1262 C1258 1.524 . S
C1262 H1274 0.956 . S
C1262 H1275 0.961 . S
C1262 H1276 0.961 . S
C1263 C1260 1.539 1_565 S
C1263 H1277 0.958 . S
C1263 H1278 0.961 1_565 S
C1263 H1279 0.960 . S
H1264 C1248 0.931 . S
H1265 C1253 0.929 . S
H1266 C1254 0.960 . S
H1267 C1254 0.962 . S
H1268 C1254 0.960 . S
H1269 C1255 0.961 . S
H1270 C1255 0.961 . S
H1271 C1255 0.961 . S
H1272 C1256 0.931 . S
H1273 C1261 0.930 . S
H1274 C1262 0.956 . S
H1275 C1262 0.961 . S
H1276 C1262 0.961 . S
H1277 C1263 0.958 . S
H1278 C1263 0.961 1_545 S
H1279 C1263 0.960 . S
C1280 C1281 1.391 . S
C1280 C1282 1.394 . S
C1280 H1296 0.931 . S
C1281 C1280 1.391 . S
C1281 C1285 1.376 . S
C1282 C1280 1.394 . S
C1282 C1283 1.369 . S
C1282 C1286 1.531 . S
C1283 C1282 1.369 . S
C1283 C1284 1.410 . S
C1283 C1291 1.503 . S
C1284 C1283 1.410 . S
C1284 C1285 1.392 . S
C1284 C1287 1.511 . S
C1285 C1281 1.376 . S
C1285 C1284 1.392 . S
C1285 H1297 0.929 . S
C1286 C1282 1.531 . S
C1286 H1298 0.960 . S
C1286 H1299 0.962 . S
C1286 H1300 0.960 . S
C1287 C1284 1.511 . S
C1287 H1301 0.961 . S
C1287 H1302 0.961 . S
C1287 H1303 0.961 . S
C1288 C1289 1.370 . S
C1288 C1290 1.363 . S
C1288 H1304 0.931 . S
C1289 C1288 1.370 . S
C1289 C1293 1.408 . S
C1290 C1288 1.363 . S
C1290 C1291 1.370 . S
C1290 C1294 1.524 . S
C1291 C1283 1.503 . S
C1291 C1290 1.370 . S
C1291 C1292 1.403 . S
C1292 C1291 1.403 . S
C1292 C1293 1.404 . S
C1292 C1295 1.539 . S
C1293 C1289 1.408 . S
C1293 C1292 1.404 . S
C1293 H1305 0.930 . S
C1294 C1290 1.524 . S
C1294 H1306 0.956 . S
C1294 H1307 0.961 . S
C1294 H1308 0.961 . S
C1295 C1292 1.539 . S
C1295 H1309 0.958 . S
C1295 H1310 0.961 . S
C1295 H1311 0.960 . S
H1296 C1280 0.931 . S
H1297 C1285 0.929 . S
H1298 C1286 0.960 . S
H1299 C1286 0.962 . S
H1300 C1286 0.960 . S
H1301 C1287 0.961 . S
H1302 C1287 0.961 . S
H1303 C1287 0.961 . S
H1304 C1288 0.931 . S
H1305 C1293 0.930 . S
H1306 C1294 0.956 . S
H1307 C1294 0.961 . S
H1308 C1294 0.961 . S
H1309 C1295 0.958 . S
H1310 C1295 0.961 . S
H1311 C1295 0.960 . S
C1312 C1313 1.391 . S
C1312 C1314 1.394 . S
C1312 H1328 0.931 . S
C1313 C1312 1.391 . S
C1313 C1317 1.376 . S
C1314 C1312 1.394 . S
C1314 C1315 1.369 . S
C1314 C1318 1.531 1_655 S
C1315 C1314 1.369 . S
C1315 C1316 1.410 . S
C1315 C1323 1.503 1_655 S
C1316 C1315 1.410 . S
C1316 C1317 1.392 . S
C1316 C1319 1.511 . S
C1317 C1313 1.376 . S
C1317 C1316 1.392 . S
C1317 H1329 0.929 . S
C1318 C1314 1.531 1_455 S
C1318 H1330 0.960 . S
C1318 H1331 0.962 . S
C1318 H1332 0.960 . S
C1319 C1316 1.511 . S
C1319 H1333 0.961 . S
C1319 H1334 0.961 . S
C1319 H1335 0.961 . S
C1320 C1321 1.370 . S
C1320 C1322 1.363 . S
C1320 H1336 0.931 . S
C1321 C1320 1.370 . S
C1321 C1325 1.408 . S
C1322 C1320 1.363 . S
C1322 C1323 1.370 . S
C1322 C1326 1.524 . S
C1323 C1315 1.503 1_455 S
C1323 C1322 1.370 . S
C1323 C1324 1.403 . S
C1324 C1323 1.403 . S
C1324 C1325 1.404 . S
C1324 C1327 1.539 . S
C1325 C1321 1.408 . S
C1325 C1324 1.404 . S
C1325 H1337 0.930 . S
C1326 C1322 1.524 . S
C1326 H1338 0.956 . S
C1326 H1339 0.961 1_455 S
C1326 H1340 0.961 . S
C1327 C1324 1.539 . S
C1327 H1341 0.958 . S
C1327 H1342 0.961 . S
C1327 H1343 0.960 1_455 S
H1328 C1312 0.931 . S
H1329 C1317 0.929 . S
H1330 C1318 0.960 . S
H1331 C1318 0.962 . S
H1332 C1318 0.960 . S
H1333 C1319 0.961 . S
H1334 C1319 0.961 . S
H1335 C1319 0.961 . S
H1336 C1320 0.931 . S
H1337 C1325 0.930 . S
H1338 C1326 0.956 . S
H1339 C1326 0.961 1_655 S
H1340 C1326 0.961 . S
H1341 C1327 0.958 . S
H1342 C1327 0.961 . S
H1343 C1327 0.960 1_655 S
C1344 C1345 1.391 . S
C1344 C1346 1.394 . S
C1344 H1360 0.931 . S
C1345 C1344 1.391 . S
C1345 C1349 1.376 . S
C1346 C1344 1.394 . S
C1346 C1347 1.369 . S
C1346 C1350 1.531 . S
C1347 C1346 1.369 . S
C1347 C1348 1.410 . S
C1347 C1355 1.503 1_545 S
C1348 C1347 1.410 . S
C1348 C1349 1.392 . S
C1348 C1351 1.511 . S
C1349 C1345 1.376 . S
C1349 C1348 1.392 . S
C1349 H1361 0.929 . S
C1350 C1346 1.531 . S
C1350 H1362 0.960 1_545 S
C1350 H1363 0.962 . S
C1350 H1364 0.960 . S
C1351 C1348 1.511 . S
C1351 H1365 0.961 . S
C1351 H1366 0.961 . S
C1351 H1367 0.957 1_545 S
C1352 C1353 1.370 . S
C1352 C1354 1.363 . S
C1352 H1368 0.931 . S
C1353 C1352 1.370 . S
C1353 C1357 1.408 . S
C1354 C1352 1.363 . S
C1354 C1355 1.370 . S
C1354 C1358 1.524 1_565 S
C1355 C1347 1.503 1_565 S
C1355 C1354 1.370 . S
C1355 C1356 1.403 . S
C1356 C1355 1.403 . S
C1356 C1357 1.404 . S
C1356 C1359 1.539 . S
C1357 C1353 1.408 . S
C1357 C1356 1.404 . S
C1357 H1369 0.930 . S
C1358 C1354 1.524 1_545 S
C1358 H1370 0.956 . S
C1358 H1371 0.961 . S
C1358 H1372 0.961 . S
C1359 C1356 1.539 . S
C1359 H1373 0.958 . S
C1359 H1374 0.961 . S
C1359 H1375 0.960 . S
H1360 C1344 0.931 . S
H1361 C1349 0.929 . S
H1362 C1350 0.960 1_565 S
H1363 C1350 0.962 . S
H1364 C1350 0.960 . S
H1365 C1351 0.961 . S
H1366 C1351 0.961 . S
H1367 C1351 0.957 1_565 S
H1368 C1352 0.931 . S
H1369 C1357 0.930 . S
H1370 C1358 0.956 . S
H1371 C1358 0.961 . S
H1372 C1358 0.961 . S
H1373 C1359 0.958 . S
H1374 C1359 0.961 . S
H1375 C1359 0.960 . S
C1376 C1377 1.391 . S
C1376 C1378 1.394 . S
C1376 H1392 0.931 . S
C1377 C1376 1.391 . S
C1377 C1381 1.376 . S
C1378 C1376 1.394 . S
C1378 C1379 1.369 . S
C1378 C1382 1.531 . S
C1379 C1378 1.369 . S
C1379 C1380 1.410 . S
C1379 C1387 1.503 . S
C1380 C1379 1.410 . S
C1380 C1381 1.392 . S
C1380 C1383 1.511 . S
C1381 C1377 1.376 . S
C1381 C1380 1.392 . S
C1381 H1393 0.929 . S
C1382 C1378 1.531 . S
C1382 H1394 0.960 . S
C1382 H1395 0.962 . S
C1382 H1396 0.960 . S
C1383 C1380 1.511 . S
C1383 H1397 0.961 . S
C1383 H1398 0.961 . S
C1383 H1399 0.961 . S
C1384 C1385 1.370 . S
C1384 C1386 1.363 . S
C1384 H1400 0.931 . S
C1385 C1384 1.370 . S
C1385 C1389 1.408 . S
C1386 C1384 1.363 . S
C1386 C1387 1.370 . S
C1386 C1390 1.524 . S
C1387 C1379 1.503 . S
C1387 C1386 1.370 . S
C1387 C1388 1.403 . S
C1388 C1387 1.403 . S
C1388 C1389 1.404 . S
C1388 C1391 1.539 . S
C1389 C1385 1.408 . S
C1389 C1388 1.404 . S
C1389 H1401 0.930 . S
C1390 C1386 1.524 . S
C1390 H1402 0.956 . S
C1390 H1403 0.961 . S
C1390 H1404 0.961 . S
C1391 C1388 1.539 . S
C1391 H1405 0.958 . S
C1391 H1406 0.961 . S
C1391 H1407 0.960 . S
H1392 C1376 0.931 . S
H1393 C1381 0.929 . S
H1394 C1382 0.960 . S
H1395 C1382 0.962 . S
H1396 C1382 0.960 . S
H1397 C1383 0.961 . S
H1398 C1383 0.961 . S
H1399 C1383 0.961 . S
H1400 C1384 0.931 . S
H1401 C1389 0.930 . S
H1402 C1390 0.956 . S
H1403 C1390 0.961 . S
H1404 C1390 0.961 . S
H1405 C1391 0.958 . S
H1406 C1391 0.961 . S
H1407 C1391 0.960 . S
C1408 C1409 1.391 . S
C1408 C1410 1.394 . S
C1408 H1424 0.931 . S
C1409 C1408 1.391 . S
C1409 C1413 1.376 . S
C1410 C1408 1.394 . S
C1410 C1411 1.369 . S
C1410 C1414 1.531 1_455 S
C1411 C1410 1.369 . S
C1411 C1412 1.410 . S
C1411 C1419 1.503 1_455 S
C1412 C1411 1.410 . S
C1412 C1413 1.392 . S
C1412 C1415 1.511 . S
C1413 C1409 1.376 . S
C1413 C1412 1.392 . S
C1413 H1425 0.929 . S
C1414 C1410 1.531 1_655 S
C1414 H1426 0.960 . S
C1414 H1427 0.962 . S
C1414 H1428 0.960 . S
C1415 C1412 1.511 . S
C1415 H1429 0.961 . S
C1415 H1430 0.961 . S
C1415 H1431 0.961 . S
C1416 C1417 1.370 . S
C1416 C1418 1.363 . S
C1416 H1432 0.931 . S
C1417 C1416 1.370 . S
C1417 C1421 1.408 . S
C1418 C1416 1.363 . S
C1418 C1419 1.370 . S
C1418 C1422 1.522 1_655 S
C1419 C1411 1.503 1_655 S
C1419 C1418 1.370 . S
C1419 C1420 1.403 . S
C1420 C1419 1.403 . S
C1420 C1421 1.404 . S
C1420 C1423 1.539 . S
C1421 C1417 1.408 . S
C1421 C1420 1.404 . S
C1421 H1433 0.930 . S
C1422 C1418 1.522 1_455 S
C1422 H1434 0.952 1_455 S
C1422 H1435 0.977 . S
C1422 H1436 0.951 1_455 S
C1423 C1420 1.539 . S
C1423 H1437 0.958 . S
C1423 H1438 0.961 . S
C1423 H1439 0.960 . S
H1424 C1408 0.931 . S
H1425 C1413 0.929 . S
H1426 C1414 0.960 . S
H1427 C1414 0.962 . S
H1428 C1414 0.960 . S
H1429 C1415 0.961 . S
H1430 C1415 0.961 . S
H1431 C1415 0.961 . S
H1432 C1416 0.931 . S
H1433 C1421 0.930 . S
H1434 C1422 0.952 1_655 S
H1435 C1422 0.977 . S
H1436 C1422 0.951 1_655 S
H1437 C1423 0.958 . S
H1438 C1423 0.961 . S
H1439 C1423 0.960 . S
C1440 C1441 1.391 . S
C1440 C1442 1.394 . S
C1440 H1456 0.931 . S
C1441 C1440 1.391 . S
C1441 C1445 1.376 . S
C1442 C1440 1.394 . S
C1442 C1443 1.369 . S
C1442 C1446 1.531 . S
C1443 C1442 1.369 . S
C1443 C1444 1.410 . S
C1443 C1451 1.503 . S
C1444 C1443 1.410 . S
C1444 C1445 1.392 . S
C1444 C1447 1.511 . S
C1445 C1441 1.376 . S
C1445 C1444 1.392 . S
C1445 H1457 0.929 . S
C1446 C1442 1.531 . S
C1446 H1458 0.960 . S
C1446 H1459 0.962 . S
C1446 H1460 0.960 . S
C1447 C1444 1.511 . S
C1447 H1461 0.961 . S
C1447 H1462 0.961 . S
C1447 H1463 0.961 . S
C1448 C1449 1.370 . S
C1448 C1450 1.363 . S
C1448 H1464 0.931 . S
C1449 C1448 1.370 . S
C1449 C1453 1.408 . S
C1450 C1448 1.363 . S
C1450 C1451 1.370 . S
C1450 C1454 1.524 . S
C1451 C1443 1.503 . S
C1451 C1450 1.370 . S
C1451 C1452 1.403 . S
C1452 C1451 1.403 . S
C1452 C1453 1.404 . S
C1452 C1455 1.539 . S
C1453 C1449 1.408 . S
C1453 C1452 1.404 . S
C1453 H1465 0.930 . S
C1454 C1450 1.524 . S
C1454 H1466 0.956 . S
C1454 H1467 0.961 . S
C1454 H1468 0.961 . S
C1455 C1452 1.539 . S
C1455 H1469 0.958 . S
C1455 H1470 0.961 . S
C1455 H1471 0.960 . S
H1456 C1440 0.931 . S
H1457 C1445 0.929 . S
H1458 C1446 0.960 . S
H1459 C1446 0.962 . S
H1460 C1446 0.960 . S
H1461 C1447 0.961 . S
H1462 C1447 0.961 . S
H1463 C1447 0.961 . S
H1464 C1448 0.931 . S
H1465 C1453 0.930 . S
H1466 C1454 0.956 . S
H1467 C1454 0.961 . S
H1468 C1454 0.961 . S
H1469 C1455 0.958 . S
H1470 C1455 0.961 . S
H1471 C1455 0.960 . S
C1472 C1473 1.391 . S
C1472 C1474 1.394 . S
C1472 H1488 0.931 . S
C1473 C1472 1.391 . S
C1473 C1477 1.376 . S
C1474 C1472 1.394 . S
C1474 C1475 1.369 . S
C1474 C1478 1.531 . S
C1475 C1474 1.369 . S
C1475 C1476 1.410 . S
C1475 C1483 1.503 . S
C1476 C1475 1.410 . S
C1476 C1477 1.392 . S
C1476 C1479 1.511 . S
C1477 C1473 1.376 . S
C1477 C1476 1.392 . S
C1477 H1489 0.929 . S
C1478 C1474 1.531 . S
C1478 H1490 0.960 . S
C1478 H1491 0.962 . S
C1478 H1492 0.960 . S
C1479 C1476 1.511 . S
C1479 H1493 0.961 . S
C1479 H1494 0.961 . S
C1479 H1495 0.961 . S
C1480 C1481 1.370 . S
C1480 C1482 1.363 . S
C1480 H1496 0.931 . S
C1481 C1480 1.370 . S
C1481 C1485 1.408 . S
C1482 C1480 1.363 . S
C1482 C1483 1.370 . S
C1482 C1486 1.524 . S
C1483 C1475 1.503 . S
C1483 C1482 1.370 . S
C1483 C1484 1.403 . S
C1484 C1483 1.403 . S
C1484 C1485 1.404 . S
C1484 C1487 1.539 . S
C1485 C1481 1.408 . S
C1485 C1484 1.404 . S
C1485 H1497 0.930 . S
C1486 C1482 1.524 . S
C1486 H1498 0.956 . S
C1486 H1499 0.961 . S
C1486 H1500 0.961 . S
C1487 C1484 1.539 . S
C1487 H1501 0.958 . S
C1487 H1502 0.961 . S
C1487 H1503 0.960 . S
H1488 C1472 0.931 . S
H1489 C1477 0.929 . S
H1490 C1478 0.960 . S
H1491 C1478 0.962 . S
H1492 C1478 0.960 . S
H1493 C1479 0.961 . S
H1494 C1479 0.961 . S
H1495 C1479 0.961 . S
H1496 C1480 0.931 . S
H1497 C1485 0.930 . S
H1498 C1486 0.956 . S
H1499 C1486 0.961 . S
H1500 C1486 0.961 . S
H1501 C1487 0.958 . S
H1502 C1487 0.961 . S
H1503 C1487 0.960 . S
C1504 C1505 1.391 . S
C1504 C1506 1.394 . S
C1504 H1520 0.931 . S
C1505 C1504 1.391 . S
C1505 C1509 1.376 . S
C1506 C1504 1.394 . S
C1506 C1507 1.369 . S
C1506 C1510 1.531 . S
C1507 C1506 1.369 . S
C1507 C1508 1.410 . S
C1507 C1515 1.503 . S
C1508 C1507 1.410 . S
C1508 C1509 1.392 . S
C1508 C1511 1.511 . S
C1509 C1505 1.376 . S
C1509 C1508 1.392 . S
C1509 H1521 0.929 . S
C1510 C1506 1.531 . S
C1510 H1522 0.960 . S
C1510 H1523 0.962 . S
C1510 H1524 0.960 . S
C1511 C1508 1.511 . S
C1511 H1525 0.961 . S
C1511 H1526 0.961 . S
C1511 H1527 0.961 . S
C1512 C1513 1.370 . S
C1512 C1514 1.363 . S
C1512 H1528 0.931 . S
C1513 C1512 1.370 . S
C1513 C1517 1.408 . S
C1514 C1512 1.363 . S
C1514 C1515 1.370 . S
C1514 C1518 1.524 . S
C1515 C1507 1.503 . S
C1515 C1514 1.370 . S
C1515 C1516 1.403 . S
C1516 C1515 1.403 . S
C1516 C1517 1.404 . S
C1516 C1519 1.539 . S
C1517 C1513 1.408 . S
C1517 C1516 1.404 . S
C1517 H1529 0.930 . S
C1518 C1514 1.524 . S
C1518 H1530 0.956 . S
C1518 H1531 0.961 . S
C1518 H1532 0.961 . S
C1519 C1516 1.539 . S
C1519 H1533 0.958 . S
C1519 H1534 0.961 . S
C1519 H1535 0.960 . S
H1520 C1504 0.931 . S
H1521 C1509 0.929 . S
H1522 C1510 0.960 . S
H1523 C1510 0.962 . S
H1524 C1510 0.960 . S
H1525 C1511 0.961 . S
H1526 C1511 0.961 . S
H1527 C1511 0.961 . S
H1528 C1512 0.931 . S
H1529 C1517 0.930 . S
H1530 C1518 0.956 . S
H1531 C1518 0.961 . S
H1532 C1518 0.961 . S
H1533 C1519 0.958 . S
H1534 C1519 0.961 . S
H1535 C1519 0.960 . S
C1536 C1537 1.391 . S
C1536 C1538 1.394 . S
C1536 H1552 0.931 . S
C1537 C1536 1.391 . S
C1537 C1541 1.376 . S
C1538 C1536 1.394 . S
C1538 C1539 1.369 . S
C1538 C1542 1.531 . S
C1539 C1538 1.369 . S
C1539 C1540 1.410 . S
C1539 C1547 1.503 . S
C1540 C1539 1.410 . S
C1540 C1541 1.392 . S
C1540 C1543 1.511 . S
C1541 C1537 1.376 . S
C1541 C1540 1.392 . S
C1541 H1553 0.929 . S
C1542 C1538 1.531 . S
C1542 H1554 0.960 . S
C1542 H1555 0.962 . S
C1542 H1556 0.960 . S
C1543 C1540 1.511 . S
C1543 H1557 0.961 . S
C1543 H1558 0.961 . S
C1543 H1559 0.961 . S
C1544 C1545 1.370 . S
C1544 C1546 1.363 . S
C1544 H1560 0.931 . S
C1545 C1544 1.370 . S
C1545 C1549 1.408 . S
C1546 C1544 1.363 . S
C1546 C1547 1.370 . S
C1546 C1550 1.524 . S
C1547 C1539 1.503 . S
C1547 C1546 1.370 . S
C1547 C1548 1.403 . S
C1548 C1547 1.403 . S
C1548 C1549 1.404 . S
C1548 C1551 1.539 . S
C1549 C1545 1.408 . S
C1549 C1548 1.404 . S
C1549 H1561 0.930 . S
C1550 C1546 1.524 . S
C1550 H1562 0.956 . S
C1550 H1563 0.961 . S
C1550 H1564 0.961 . S
C1551 C1548 1.539 . S
C1551 H1565 0.958 . S
C1551 H1566 0.961 . S
C1551 H1567 0.960 . S
H1552 C1536 0.931 . S
H1553 C1541 0.929 . S
H1554 C1542 0.960 . S
H1555 C1542 0.962 . S
H1556 C1542 0.960 . S
H1557 C1543 0.961 . S
H1558 C1543 0.961 . S
H1559 C1543 0.961 . S
H1560 C1544 0.931 . S
H1561 C1549 0.930 . S
H1562 C1550 0.956 . S
H1563 C1550 0.961 . S
H1564 C1550 0.961 . S
H1565 C1551 0.958 . S
H1566 C1551 0.961 . S
H1567 C1551 0.960 . S
C1568 C1569 1.391 . S
C1568 C1570 1.394 . S
C1568 H1584 0.931 . S
C1569 C1568 1.391 . S
C1569 C1573 1.376 . S
C1570 C1568 1.394 . S
C1570 C1571 1.369 . S
C1570 C1574 1.531 . S
C1571 C1570 1.369 . S
C1571 C1572 1.410 . S
C1571 C1579 1.503 . S
C1572 C1571 1.410 . S
C1572 C1573 1.392 . S
C1572 C1575 1.511 . S
C1573 C1569 1.376 . S
C1573 C1572 1.392 . S
C1573 H1585 0.929 . S
C1574 C1570 1.531 . S
C1574 H1586 0.960 . S
C1574 H1587 0.962 . S
C1574 H1588 0.960 . S
C1575 C1572 1.511 . S
C1575 H1589 0.961 . S
C1575 H1590 0.961 . S
C1575 H1591 0.961 . S
C1576 C1577 1.370 . S
C1576 C1578 1.363 . S
C1576 H1592 0.931 . S
C1577 C1576 1.370 . S
C1577 C1581 1.408 . S
C1578 C1576 1.363 . S
C1578 C1579 1.370 . S
C1578 C1582 1.524 . S
C1579 C1571 1.503 . S
C1579 C1578 1.370 . S
C1579 C1580 1.403 . S
C1580 C1579 1.403 . S
C1580 C1581 1.404 . S
C1580 C1583 1.539 . S
C1581 C1577 1.408 . S
C1581 C1580 1.404 . S
C1581 H1593 0.930 . S
C1582 C1578 1.524 . S
C1582 H1594 0.956 . S
C1582 H1595 0.961 . S
C1582 H1596 0.961 . S
C1583 C1580 1.539 . S
C1583 H1597 0.958 . S
C1583 H1598 0.961 . S
C1583 H1599 0.960 . S
H1584 C1568 0.931 . S
H1585 C1573 0.929 . S
H1586 C1574 0.960 . S
H1587 C1574 0.962 . S
H1588 C1574 0.960 . S
H1589 C1575 0.961 . S
H1590 C1575 0.961 . S
H1591 C1575 0.961 . S
H1592 C1576 0.931 . S
H1593 C1581 0.930 . S
H1594 C1582 0.956 . S
H1595 C1582 0.961 . S
H1596 C1582 0.961 . S
H1597 C1583 0.958 . S
H1598 C1583 0.961 . S
H1599 C1583 0.960 . S
C1600 C1601 1.391 . S
C1600 C1602 1.394 . S
C1600 H1616 0.931 . S
C1601 C1600 1.391 . S
C1601 C1605 1.376 . S
C1602 C1600 1.394 . S
C1602 C1603 1.369 . S
C1602 C1606 1.531 . S
C1603 C1602 1.369 . S
C1603 C1604 1.410 . S
C1603 C1611 1.503 . S
C1604 C1603 1.410 . S
C1604 C1605 1.392 . S
C1604 C1607 1.511 . S
C1605 C1601 1.376 . S
C1605 C1604 1.392 . S
C1605 H1617 0.929 . S
C1606 C1602 1.531 . S
C1606 H1618 0.960 . S
C1606 H1619 0.962 . S
C1606 H1620 0.960 . S
C1607 C1604 1.511 . S
C1607 H1621 0.961 . S
C1607 H1622 0.961 . S
C1607 H1623 0.961 . S
C1608 C1609 1.370 . S
C1608 C1610 1.363 . S
C1608 H1624 0.931 . S
C1609 C1608 1.370 . S
C1609 C1613 1.408 . S
C1610 C1608 1.363 . S
C1610 C1611 1.370 . S
C1610 C1614 1.524 . S
C1611 C1603 1.503 . S
C1611 C1610 1.370 . S
C1611 C1612 1.403 . S
C1612 C1611 1.403 . S
C1612 C1613 1.404 . S
C1612 C1615 1.539 . S
C1613 C1609 1.408 . S
C1613 C1612 1.404 . S
C1613 H1625 0.930 . S
C1614 C1610 1.524 . S
C1614 H1626 0.956 . S
C1614 H1627 0.961 . S
C1614 H1628 0.961 . S
C1615 C1612 1.539 . S
C1615 H1629 0.958 . S
C1615 H1630 0.961 . S
C1615 H1631 0.960 . S
H1616 C1600 0.931 . S
H1617 C1605 0.929 . S
H1618 C1606 0.960 . S
H1619 C1606 0.962 . S
H1620 C1606 0.960 . S
H1621 C1607 0.961 . S
H1622 C1607 0.961 . S
H1623 C1607 0.961 . S
H1624 C1608 0.931 . S
H1625 C1613 0.930 . S
H1626 C1614 0.956 . S
H1627 C1614 0.961 . S
H1628 C1614 0.961 . S
H1629 C1615 0.958 . S
H1630 C1615 0.961 . S
H1631 C1615 0.960 . S
C481 C10 1.095 . S
C489 C330 1.068 . S
C513 C50 1.102 . S
C521 C370 1.084 . S
C545 C90 1.054 . S
C553 C410 1.087 . S
C577 C450 1.045 . S
C585 C130 1.080 . S
C609 C170 1.053 . S
C617 C250 1.069 . S
C641 C290 1.102 . S
C649 C210 1.084 . S
C673 C416 1.475 . S
C681 C16 1.435 . S
C705 C456 1.422 . S
C713 C56 1.443 . S
C737 C96 1.454 . S
C745 C256 1.446 . S
C769 C296 1.452 . S
C777 C136 1.447 . S
C801 C336 1.463 . S
C809 C176 1.426 . S
C833 C216 1.475 . S
C841 C376 1.435 . S
C865 C291 4.322 . S
C873 C11 4.325 . S
C897 C331 4.314 . S
C905 C51 4.330 . S
C929 C371 4.317 . S
C937 C91 4.332 . S
C961 C131 4.321 . S
C969 C411 4.332 . S
C993 C171 4.315 . S
C1001 C451 4.326 . S
C1025 C211 4.332 . S
C1033 C251 4.329 . S
C1057 C19 0.417 . S
C1065 C139 0.504 . S
C1089 C59 0.486 . S
C1097 C179 0.554 . S
C1121 C99 0.402 . S
C1129 C219 0.515 . S
C1153 C379 0.444 . S
C1161 C259 0.489 . S
C1185 C299 0.405 . S
C1193 C419 0.513 . S
C1217 C459 0.616 . S
C1225 C339 0.482 . S
C1249 C287 0.847 . S
C1257 C7 0.764 . S
C1281 C327 0.720 . S
C1289 C47 0.749 . S
C1313 C87 0.742 . S
C1321 C367 0.740 . S
C1345 C407 0.698 . S
C1353 C127 0.785 . S
C1377 C447 0.806 . S
C1385 C167 0.787 . S
C1409 C207 0.716 . S
C1417 C247 0.752 . S
C1441 C2 4.660 . S
C1449 C402 4.664 . S
C1473 C42 4.654 . S
C1481 C442 4.662 1_556 S
C1505 C82 4.659 1_554 S
C1513 C242 4.662 . S
C1537 C122 4.653 . S
C1545 C282 4.663 . S
C1569 C162 4.654 . S
C1577 C322 4.662 1_556 S
C1601 C362 4.657 . S
C1609 C202 4.665 1_554 S
