# Generated by pormake.
# Topology rob, (6)-cn, num edge types: 1
# Building blocks:
#     Node 0, Type 0, BuildingBlock: BETGAK_clean_sbu_0, # of connection points: 6
#     Node 1, Type 0, BuildingBlock: BETGAK_clean_sbu_0, # of connection points: 6
#     Node 2, Type 0, BuildingBlock: BETGAK_clean_sbu_0, # of connection points: 6
#     Node 3, Type 0, BuildingBlock: BETGAK_clean_sbu_0, # of connection points: 6
#     Edge 4, Type (0, 0), BuildingBlock: XUDNAN_clean_linker_2, # of connection points: 2
#     Edge 5, Type (0, 0), BuildingBlock: XUDNAN_clean_linker_2, # of connection points: 2
#     Edge 6, Type (0, 0), BuildingBlock: XUDNAN_clean_linker_2, # of connection points: 2
#     Edge 7, Type (0, 0), BuildingBlock: XUDNAN_clean_linker_2, # of connection points: 2
#     Edge 8, Type (0, 0), BuildingBlock: XUDNAN_clean_linker_2, # of connection points: 2
#     Edge 9, Type (0, 0), BuildingBlock: XUDNAN_clean_linker_2, # of connection points: 2
#     Edge 10, Type (0, 0), BuildingBlock: XUDNAN_clean_linker_2, # of connection points: 2
#     Edge 11, Type (0, 0), BuildingBlock: XUDNAN_clean_linker_2, # of connection points: 2
#     Edge 12, Type (0, 0), BuildingBlock: XUDNAN_clean_linker_2, # of connection points: 2
#     Edge 13, Type (0, 0), BuildingBlock: XUDNAN_clean_linker_2, # of connection points: 2
#     Edge 14, Type (0, 0), BuildingBlock: XUDNAN_clean_linker_2, # of connection points: 2
#     Edge 15, Type (0, 0), BuildingBlock: XUDNAN_clean_linker_2, # of connection points: 2
# Relax obj value: 0.163
# Max RMSD: 0.200
# Mean RMSD: 0.200
data_MOF--net-rob--node1-BETGAK_clean_sbu_0--edge1-XUDNAN_clean_linker_2
_symmetry_space_group_name_H-M    P1
_symmetry_Int_Tables_number       1
_symmetry_cell_setting            triclinic
loop_
_symmetry_equiv_pos_as_xyz
'x, y, z'
_cell_length_a     16.46176
_cell_length_b     22.880825
_cell_length_c     36.695119
_cell_angle_alpha  89.844785
_cell_angle_beta   125.06685
_cell_angle_gamma 90.075416
loop_
_atom_site_label
_atom_site_type_symbol
_atom_site_fract_x
_atom_site_fract_y
_atom_site_fract_z
_atom_type_partial_charge
La0 La 0.19145 0.31524 1.00235 0.0
La1 La 0.39546 0.28445 0.02686 0.0
C2 C 0.04401 0.3168 1.00679 0.0
C3 C 1.03547 0.32806 0.0443 0.0
C4 C 0.07511 0.37907 0.07002 0.0
C5 C 0.07677 0.38637 0.10825 0.0
C6 C 0.03986 0.34266 0.12219 0.0
C7 C 0.99626 0.29271 0.09537 0.0
C8 C 0.99416 0.28552 0.05684 0.0
C9 C 0.28562 0.40234 0.99507 0.0
C10 C 0.386 0.32062 0.10446 0.0
C11 C 0.54073 0.27598 0.0213 0.0
C12 C 0.54357 0.26495 0.98217 0.0
C13 C 0.49198 0.21746 0.95371 0.0
C14 C 0.48599 0.21057 0.9144 0.0
C15 C 0.53057 0.2512 0.90214 0.0
C16 C 0.58508 0.29768 0.93137 0.0
C17 C 0.59135 0.30449 0.97094 0.0
C18 C 0.29775 0.19804 0.03304 0.0
C19 C 0.20576 0.2891 0.9245 0.0
O20 O 0.06971 0.36096 0.99266 0.0
O21 O 0.0916 0.2691 1.01013 0.0
O22 O 0.18982 0.39599 0.97028 0.0
O23 O 0.3245 0.36345 0.02511 0.0
O24 O 0.28824 0.31924 0.07533 0.0
O25 O 0.44773 0.31367 0.09278 0.0
O26 O 0.50936 0.23305 0.03386 0.0
O27 O 0.50221 0.32597 0.02125 0.0
O28 O 0.39315 0.205 0.05934 0.0
O29 O 0.26128 0.23668 1.00294 0.0
O30 O 0.30256 0.29027 0.95477 0.0
O31 O 0.14196 0.29031 0.93544 0.0
H32 H 0.10764 0.4128 0.06143 0.0
H33 H 0.10915 0.42597 0.12748 0.0
H34 H 0.96769 0.25798 0.10514 0.0
H35 H 0.96327 0.24574 0.03765 0.0
H36 H 0.45375 0.18625 0.96109 0.0
H37 H 0.4449 0.17367 0.89321 0.0
H38 H 0.61975 0.33004 0.92289 0.0
H39 H 0.63112 0.34165 0.99215 0.0
La40 La 0.69882 0.82809 0.99851 0.0
La41 La 0.88107 0.76455 0.0185 0.0
C42 C 0.55267 0.85656 0.99991 0.0
C43 C 0.52655 0.84334 0.03157 0.0
C44 C 0.49462 0.88836 0.04647 0.0
C45 C 0.47719 0.87749 0.07906 0.0
C46 C 0.49138 0.82125 0.09752 0.0
C47 C 0.52199 0.77605 0.08197 0.0
C48 C 0.53932 0.78693 0.04941 0.0
C49 C 0.84366 0.89576 0.01216 0.0
C50 C 0.86276 0.77835 0.09628 0.0
C51 C 1.03022 0.7356 0.01935 0.0
C52 C 0.04961 0.72957 0.98469 0.0
C53 C 0.07809 0.67501 0.97806 0.0
C54 C 0.08863 0.66673 0.9432 0.0
C55 C 0.0715 0.71297 0.91422 0.0
C56 C 0.04691 0.76826 0.92192 0.0
C57 C 1.03583 0.77648 0.95672 0.0
C58 C 0.73601 0.69669 1.00461 0.0
C59 C 0.7129 0.81141 0.91928 0.0
O60 O 0.6309 0.88963 0.01547 0.0
O61 O 0.55139 0.81276 0.97664 0.0
O62 O 0.75009 0.90804 0.98455 0.0
O63 O 0.85304 0.84923 0.03283 0.0
O64 O 0.76846 0.79019 0.06508 0.0
O65 O 0.92915 0.77449 0.08697 0.0
O66 O 0.96753 0.6981 0.01718 0.0
O67 O 1.01574 0.7884 0.02826 0.0
O68 O 0.8295 0.68419 0.03201 0.0
O69 O 0.72713 0.74344 0.98431 0.0
O70 O 0.80534 0.79404 0.94921 0.0
O71 O 0.64964 0.82169 0.92976 0.0
H72 H 0.48449 0.93223 0.03332 0.0
H73 H 0.45235 0.91319 0.0897 0.0
H74 H 0.53534 0.73242 0.09582 0.0
H75 H 0.5651 0.7514 0.03903 0.0
H76 H 0.08995 0.63826 0.99929 0.0
H77 H 0.10888 0.62379 0.9385 0.0
H78 H 1.03244 0.80462 0.89998 0.0
H79 H 1.01406 0.81918 0.96095 0.0
La80 La 0.36247 0.81671 0.50332 0.0
La81 La 0.2014 0.76553 0.50991 0.0
C82 C 0.48071 0.83233 0.4813 0.0
C83 C 0.47629 0.82379 0.43995 0.0
C84 C 0.45375 0.87097 0.41089 0.0
C85 C 0.44934 0.86336 0.37191 0.0
C86 C 0.46793 0.8084 0.36097 0.0
C87 C 0.49157 0.76134 0.39035 0.0
C88 C 0.49579 0.76893 0.42929 0.0
C89 C 0.25196 0.89392 0.50826 0.0
C90 C 0.15554 0.77391 0.41628 0.0
C91 C 0.08306 0.74902 0.53176 0.0
C92 C 0.09211 0.73859 0.57403 0.0
C93 C 0.10374 0.68162 0.59084 0.0
C94 C 0.10627 0.67137 0.62908 0.0
C95 C 0.09629 0.71768 0.65143 0.0
C96 C 0.08735 0.7749 0.63533 0.0
C97 C 0.0849 0.78519 0.59701 0.0
C98 C 0.32441 0.68972 0.51114 0.0
C99 C 0.40931 0.80883 0.59803 0.0
O100 O 0.42416 0.87348 0.48024 0.0
O101 O 0.48054 0.78534 0.50181 0.0
O102 O 0.34521 0.90101 0.52468 0.0
O103 O 0.22097 0.84645 0.48673 0.0
O104 O 0.25204 0.78197 0.43688 0.0
O105 O 0.11375 0.77393 0.4381 0.0
O106 O 0.11383 0.70745 0.51797 0.0
O107 O 0.10817 0.80086 0.52616 0.0
O108 O 0.23156 0.67857 0.4935 0.0
O109 O 0.34433 0.739 0.52909 0.0
O110 O 0.31502 0.79387 0.57828 0.0
O111 O 0.44963 0.81432 0.57561 0.0
H112 H 0.43899 0.91393 0.41816 0.0
H113 H 0.42962 0.90048 0.34995 0.0
H114 H 0.50816 0.71859 0.38363 0.0
H115 H 0.51457 0.73169 0.45108 0.0
H116 H 0.10945 0.64461 0.57409 0.0
H117 H 0.11503 0.62684 0.64088 0.0
H118 H 0.07857 0.81161 0.65135 0.0
H119 H 0.07527 0.82962 0.58487 0.0
La120 La 0.87165 0.31262 0.51237 0.0
La121 La 0.69836 0.26426 0.51097 0.0
C122 C 1.00545 0.32811 0.49969 0.0
C123 C 1.01362 0.33224 0.46163 0.0
C124 C 0.06277 0.38036 0.45892 0.0
C125 C 0.07467 0.38499 0.42425 0.0
C126 C 0.03846 0.34122 0.39153 0.0
C127 C 0.98808 0.29324 0.39398 0.0
C128 C 0.9754 0.28887 0.42857 0.0
C129 C 0.7675 0.39149 0.52041 0.0
C130 C 0.66428 0.28633 0.42025 0.0
C131 C 0.56734 0.24593 0.5251 0.0
C132 C 0.5623 0.24285 0.56406 0.0
C133 C 0.50829 0.19754 0.56654 0.0
C134 C 0.49767 0.19499 0.60167 0.0
C135 C 0.54042 0.23799 0.63515 0.0
C136 C 0.5969 0.2826 0.63327 0.0
C137 C 0.60779 0.28503 0.59808 0.0
C138 C 0.81594 0.18701 0.50919 0.0
C139 C 0.90359 0.29546 0.60336 0.0
O140 O 0.9583 0.37078 0.50373 0.0
O141 O 0.98346 0.27702 0.5081 0.0
O142 O 0.86207 0.39499 0.53865 0.0
O143 O 0.73234 0.34702 0.49552 0.0
O144 O 0.76175 0.2909 0.44233 0.0
O145 O 0.61923 0.2823 0.44051 0.0
O146 O 0.6164 0.20423 0.52139 0.0
O147 O 0.58503 0.29718 0.51513 0.0
O148 O 0.72064 0.18007 0.4877 0.0
O149 O 0.83971 0.23336 0.53105 0.0
O150 O 0.80627 0.28831 0.58103 0.0
O151 O 0.94899 0.29812 0.58312 0.0
H152 H 0.09256 0.41445 0.48388 0.0
H153 H 0.11228 0.42309 0.42313 0.0
H154 H 0.96048 0.25833 0.36979 0.0
H155 H 0.93683 0.25127 0.42968 0.0
H156 H 0.47306 0.16437 0.54087 0.0
H157 H 0.4552 0.1594 0.60242 0.0
H158 H 0.62988 0.31673 0.65815 0.0
H159 H 0.65025 0.32045 0.59711 0.0
H160 H 0.74781 0.60101 0.05259 0.0
H161 H 0.53783 0.70858 0.93888 0.0
H162 H 0.40008 0.64642 0.92547 0.0
H163 H 0.62902 0.4633 1.00465 0.0
H164 H 0.65522 0.43341 0.05585 0.0
H165 H 0.73699 0.48723 0.05733 0.0
H166 H 0.71459 0.55275 0.10848 0.0
H167 H 0.63298 0.499 0.10725 0.0
H168 H 0.59136 0.57337 0.09087 0.0
H169 H 0.28598 0.5705 0.92297 0.0
H170 H 0.20293 0.48763 0.93204 0.0
H171 H 0.48586 0.42972 0.04847 0.0
C172 C 0.67274 0.6115 0.02493 0.0
C173 C 0.65328 0.65988 0.99689 0.0
C174 C 0.55423 0.6722 0.96105 0.0
C175 C 0.47561 0.63695 0.9531 0.0
C176 C 0.49729 0.58943 0.98127 0.0
C177 C 0.5934 0.57669 0.01654 0.0
C178 C 0.59652 0.52273 0.04157 0.0
C179 C 0.65809 0.47379 0.03972 0.0
C180 C 0.63619 0.53789 0.08991 0.0
C181 C 0.48722 0.50685 0.01469 0.0
C182 C 0.43142 0.54589 0.98002 0.0
C183 C 0.329 0.5398 0.95006 0.0
C184 C 0.28248 0.49253 0.95552 0.0
C185 C 0.33791 0.45191 0.99077 0.0
C186 C 0.44164 0.4596 0.02092 0.0
H187 H 0.30078 0.58376 0.46882 0.0
H188 H 0.522 0.70177 0.5703 0.0
H189 H 0.65458 0.63565 0.58465 0.0
H190 H 0.43116 0.44746 0.5251 0.0
H191 H 0.39783 0.41103 0.47478 0.0
H192 H 0.31689 0.46592 0.47275 0.0
H193 H 0.32296 0.52343 0.41358 0.0
H194 H 0.40344 0.46859 0.41526 0.0
H195 H 0.44142 0.54415 0.42522 0.0
H196 H 0.76346 0.56034 0.5886 0.0
H197 H 0.84763 0.47943 0.57938 0.0
H198 H 0.56251 0.40718 0.47402 0.0
C199 C 0.3772 0.5952 0.49418 0.0
C200 C 0.40112 0.64795 0.51852 0.0
C201 C 0.50183 0.66185 0.55115 0.0
C202 C 0.57784 0.62441 0.55973 0.0
C203 C 0.55242 0.57304 0.53534 0.0
C204 C 0.45499 0.55814 0.50304 0.0
C205 C 0.45033 0.50082 0.4808 0.0
C206 C 0.39581 0.45352 0.48885 0.0
C207 C 0.40168 0.50982 0.43075 0.0
C208 C 0.56038 0.48663 0.50553 0.0
C209 C 0.61707 0.52894 0.53707 0.0
C210 C 0.72013 0.52685 0.56406 0.0
C211 C 0.76725 0.48065 0.55847 0.0
C212 C 0.71181 0.43705 0.52599 0.0
C213 C 0.6067 0.43973 0.49932 0.0
H214 H 0.09831 0.16875 0.97607 0.0
H215 H 0.37634 0.11361 0.09659 0.0
H216 H 0.29176 1.02955 0.10328 0.0
H217 H 0.94554 0.13225 0.01499 0.0
H218 H 0.84175 0.10819 0.96117 0.0
H219 H 0.92497 0.16306 0.96506 0.0
H220 H 0.9563 0.09935 0.91601 0.0
H221 H 0.87386 0.04409 0.91234 0.0
H222 H 0.99955 1.02527 0.93271 0.0
H223 H 0.17772 0.95113 0.09728 0.0
H224 H 0.04014 0.88598 0.08032 0.0
H225 H 0.83355 0.99294 0.96545 0.0
C226 C 0.14107 0.13924 1.00403 0.0
C227 C 0.24401 0.14804 0.03599 0.0
C228 C 0.29752 0.10789 0.07173 0.0
C229 C 0.25009 0.05992 0.07584 0.0
C230 C 0.1486 0.05267 0.04409 0.0
C231 C 0.09439 0.09135 1.009 0.0
C232 C 0.9855 0.0741 0.98017 0.0
C233 C 0.92062 0.12226 0.98037 0.0
C234 C 0.95187 0.05985 0.93248 0.0
C235 C 0.98729 1.0196 1.00443 0.0
C236 C 0.08231 1.00792 0.04109 0.0
C237 C 0.10297 0.95987 0.06867 0.0
C238 C 1.02443 0.92297 0.05872 0.0
C239 C 0.9263 0.93426 0.02158 0.0
C240 C 0.90784 0.98324 0.99412 0.0
H241 H 0.78916 0.08685 0.45991 0.0
H242 H 1.01143 0.18904 0.57441 0.0
H243 H 0.14084 0.12096 0.58814 0.0
H244 H 0.90258 0.94232 0.50734 0.0
H245 H 0.87432 0.91375 0.45553 0.0
H246 H 0.79489 0.96822 0.45523 0.0
H247 H 0.81807 1.03447 0.40452 0.0
H248 H 0.89728 0.98017 0.40461 0.0
H249 H 0.94168 0.05386 0.42194 0.0
H250 H 0.24775 0.04723 0.58905 0.0
H251 H 0.33138 0.97073 0.57537 0.0
H252 H 0.0472 0.91169 0.46029 0.0
C253 C 0.86498 0.09426 0.48804 0.0
C254 C 0.89004 0.14334 0.51613 0.0
C255 C 0.99019 0.15204 0.55233 0.0
C256 C 0.0645 0.11338 0.56062 0.0
C257 C 0.0381 0.06582 0.53246 0.0
C258 C 0.94125 0.05578 0.4968 0.0
C259 C 0.93598 1.00224 0.47086 0.0
C260 C 0.87319 0.95376 0.47234 0.0
C261 C 0.89589 1.01868 0.42262 0.0
C262 C 0.04508 0.98484 0.49726 0.0
C263 C 0.10174 1.02219 0.53284 0.0
C264 C 0.20438 1.01739 0.5615 0.0
C265 C 0.25121 0.97382 0.55334 0.0
C266 C 0.1959 0.93533 0.51684 0.0
C267 C 0.09107 0.94021 0.48872 0.0
H268 H 0.70838 0.24712 0.36344 0.0
H269 H 0.49001 0.34518 0.36881 0.0
H270 H 0.40456 0.37189 0.28947 0.0
H271 H 0.72376 0.34033 0.28955 0.0
H272 H 0.73038 0.28164 0.25864 0.0
H273 H 0.77627 0.27088 0.3161 0.0
H274 H 0.6618 0.1811 0.29478 0.0
H275 H 0.6169 0.191 0.23739 0.0
H276 H 0.53053 0.18863 0.25262 0.0
H277 H 0.35227 0.39403 0.21257 0.0
H278 H 0.3041 0.38876 0.13541 0.0
H279 H 0.55246 0.27285 0.1784 0.0
C280 C 0.64191 0.2737 0.34764 0.0
C281 C 0.60537 0.2943 0.37187 0.0
C282 C 0.51818 0.32863 0.35045 0.0
C283 C 0.47008 0.34457 0.3057 0.0
C284 C 0.50954 0.32491 0.28302 0.0
C285 C 0.59163 0.28884 0.30276 0.0
C286 C 0.61448 0.27053 0.2699 0.0
C287 C 0.71734 0.29221 0.28443 0.0
C288 C 0.60532 0.20386 0.26327 0.0
C289 C 0.53266 0.3023 0.22864 0.0
C290 C 0.47437 0.33423 0.23733 0.0
C291 C 0.39436 0.3674 0.20476 0.0
C292 C 0.36864 0.36472 0.16133 0.0
C293 C 0.4243 0.33004 0.15122 0.0
C294 C 0.50923 0.29994 0.18549 0.0
H295 H 0.53998 0.89186 0.16844 0.0
H296 H 0.40713 0.7244 0.10766 0.0
H297 H 0.38671 0.70327 0.16793 0.0
H298 H 0.67407 0.84449 0.28157 0.0
H299 H 0.65241 0.91042 0.30157 0.0
H300 H 0.65562 0.91297 0.25336 0.0
H301 H 0.48058 0.95991 0.20727 0.0
H302 H 0.47684 0.95769 0.25537 0.0
H303 H 0.37944 0.92371 0.20415 0.0
H304 H 0.3845 0.69902 0.23594 0.0
H305 H 0.39625 0.71306 0.30533 0.0
H306 H 0.52698 0.88429 0.3214 0.0
C307 C 0.5054 0.85103 0.1674 0.0
C308 C 0.47562 0.80971 0.13318 0.0
C309 C 0.43209 0.75645 0.13372 0.0
C310 C 0.41958 0.74415 0.16772 0.0
C311 C 0.45049 0.78559 0.20104 0.0
C312 C 0.49209 0.83808 0.20107 0.0
C313 C 0.51962 0.87492 0.241 0.0
C314 C 0.6321 0.88635 0.27115 0.0
C315 C 0.46058 0.93246 0.22604 0.0
C316 C 0.48741 0.83481 0.2635 0.0
C317 C 0.44787 0.78349 0.23991 0.0
C318 C 0.41493 0.73919 0.25456 0.0
C319 C 0.42231 0.74754 0.29425 0.0
C320 C 0.4617 0.80001 0.31898 0.0
C321 C 0.49473 0.84407 0.3031 0.0
H322 H 0.52408 0.80619 0.84149 0.0
H323 H 0.83338 0.83368 0.89272 0.0
H324 H 0.78807 0.84069 0.81626 0.0
H325 H 0.4667 0.71519 0.75151 0.0
H326 H 0.34346 0.74383 0.71274 0.0
H327 H 0.39808 0.74539 0.77155 0.0
H328 H 0.36964 0.85694 0.76752 0.0
H329 H 0.31445 0.85563 0.70859 0.0
H330 H 0.41779 0.90347 0.74434 0.0
H331 H 0.71212 0.84053 0.73495 0.0
H332 H 0.60905 0.83161 0.65305 0.0
H333 H 0.34898 0.80297 0.65384 0.0
C334 C 0.58181 0.81463 0.8365 0.0
C335 C 0.68228 0.8194 0.87304 0.0
C336 C 0.75606 0.82946 0.86524 0.0
C337 C 0.73105 0.83383 0.82191 0.0
C338 C 0.63183 0.82799 0.78659 0.0
C339 C 0.55814 0.81861 0.79324 0.0
C340 C 0.45789 0.81097 0.7492 0.0
C341 C 0.41404 0.75022 0.74609 0.0
C342 C 0.38573 0.85969 0.742 0.0
C343 C 0.4875 0.81689 0.71709 0.0
C344 C 0.58796 0.82714 0.73936 0.0
C345 C 0.63313 0.83285 0.71699 0.0
C346 C 0.57404 0.82768 0.67048 0.0
C347 C 0.47103 0.81658 0.64693 0.0
C348 C 0.42751 0.81155 0.67074 0.0
H349 H 0.67146 0.2628 0.72517 0.0
H350 H 0.3659 0.2131 0.62486 0.0
H351 H 0.33226 0.2109 0.68207 0.0
H352 H 0.70407 0.17449 0.81409 0.0
H353 H 0.77761 0.22787 0.85693 0.0
H354 H 0.77925 0.22577 0.80829 0.0
H355 H 0.72744 0.33452 0.79227 0.0
H356 H 0.72609 0.33723 0.84099 0.0
H357 H 0.61716 0.35804 0.78747 0.0
H358 H 0.33035 0.21314 0.74923 0.0
H359 H 0.35968 0.2207 0.82268 0.0
H360 H 0.66551 0.27106 0.88096 0.0
C361 C 0.59735 0.25181 0.71521 0.0
C362 C 0.52158 0.23754 0.67039 0.0
C363 C 0.4258 0.22301 0.65896 0.0
C364 C 0.40566 0.22203 0.69121 0.0
C365 C 0.48185 0.23586 0.73495 0.0
C366 C 0.57577 0.2506 0.74713 0.0
C367 C 0.64396 0.26356 0.7967 0.0
C368 C 0.73137 0.22033 0.82039 0.0
C369 C 0.68081 0.32712 0.80482 0.0
C370 C 0.57342 0.25381 0.8103 0.0
C371 C 0.48046 0.23775 0.77403 0.0
C372 C 0.40286 0.22564 0.77791 0.0
C373 C 0.42051 0.22989 0.81997 0.0
C374 C 0.51491 0.24654 0.85789 0.0
C375 C 0.59223 0.25881 0.8527 0.0
H376 H 0.05047 0.77847 0.17515 0.0
H377 H 0.73847 0.75662 0.12102 0.0
H378 H 0.77973 0.74847 0.19664 0.0
H379 H 0.14269 0.67664 0.26934 0.0
H380 H 0.24993 0.72051 0.30737 0.0
H381 H 0.19853 0.72117 0.2487 0.0
H382 H 0.18101 0.83332 0.24676 0.0
H383 H 0.23236 0.83378 0.30524 0.0
H384 H 0.11269 0.86635 0.26602 0.0
H385 H 0.85254 0.74897 0.27796 0.0
H386 H 0.95406 0.7563 0.36003 0.0
H387 H 0.21865 0.77655 0.36163 0.0
C388 C 0.99116 0.77109 0.17925 0.0
C389 C 0.89111 0.76867 0.14209 0.0
C390 C 0.81552 0.7594 0.1489 0.0
C391 C 0.83819 0.75435 0.19179 0.0
C392 C 0.93708 0.7582 0.22774 0.0
C393 C 1.01257 0.76591 0.22205 0.0
C394 C 0.11233 0.77045 0.26658 0.0
C395 C 0.17986 0.71912 0.27337 0.0
C396 C 0.16246 0.8295 0.2714 0.0
C397 C 0.08038 0.76586 0.29785 0.0
C398 C 0.97917 0.7582 0.27482 0.0
C399 C 0.93214 0.7544 0.29649 0.0
C400 C 0.99033 0.75869 0.34308 0.0
C401 C 0.09423 0.76686 0.36735 0.0
C402 C 0.13944 0.77003 0.34421 0.0
H403 H 0.91141 0.31087 0.30256 0.0
H404 H 0.20586 0.38001 0.3997 0.0
H405 H 0.23491 0.3891 0.34122 0.0
H406 H 0.97931 0.22497 0.24158 0.0
H407 H 0.86582 0.23958 0.18793 0.0
H408 H 0.86629 0.23949 0.23715 0.0
H409 H 0.79365 0.34421 0.21862 0.0
H410 H 0.79288 0.34467 0.16933 0.0
H411 H 0.85685 0.40147 0.21034 0.0
H412 H 0.23282 0.39158 0.27311 0.0
H413 H 0.20249 0.38439 0.19951 0.0
H414 H 0.91082 0.31148 0.14507 0.0
C415 C 0.98214 0.32757 0.31161 0.0
C416 C 0.0558 0.34527 0.35586 0.0
C417 C 0.14727 0.36727 0.36605 0.0
C418 C 0.16481 0.37228 0.33306 0.0
C419 C 0.09043 0.35493 0.28988 0.0
C420 C 1.00099 0.33283 0.27898 0.0
C421 C 0.93406 0.31704 0.22986 0.0
C422 C 0.90999 0.25136 0.22379 0.0
C423 C 0.83873 0.35406 0.20562 0.0
C424 C 1.00041 0.33338 0.21504 0.0
C425 C 0.08987 0.35547 0.2503 0.0
C426 C 0.16316 0.37429 0.24525 0.0
C427 C 0.14499 0.37031 0.20312 0.0
C428 C 0.05449 0.3475 0.16623 0.0
C429 C 0.9812 0.3287 0.17252 0.0
H430 H 0.83902 0.28525 0.65766 0.0
H431 H 0.10374 0.31043 0.6598 0.0
H432 H 0.20558 0.31194 0.74154 0.0
H433 H 0.91649 0.37867 0.75316 0.0
H434 H 0.86222 0.33164 0.77327 0.0
H435 H 0.80936 0.33502 0.7146 0.0
H436 H 0.82747 0.22264 0.7142 0.0
H437 H 0.88283 0.21947 0.7731 0.0
H438 H 0.948 0.18965 0.75128 0.0
H439 H 0.27808 0.31195 0.82058 0.0
H440 H 0.32435 0.30529 0.89636 0.0
H441 H 1.01474 0.27892 0.84654 0.0
C442 C 0.9183 0.29148 0.67531 0.0
C443 C 0.96347 0.29787 0.65231 0.0
C444 C 0.06745 0.30556 0.67661 0.0
C445 C 0.12596 0.30656 0.72305 0.0
C446 C 0.07928 0.29995 0.74459 0.0
C447 C 0.9781 0.29258 0.72184 0.0
C448 C 0.94804 0.28541 0.75379 0.0
C449 C 0.88001 0.33569 0.74839 0.0
C450 C 0.89871 0.22572 0.74772 0.0
C451 C 0.04885 0.28912 0.79803 0.0
C452 C 0.12265 0.29799 0.79144 0.0
C453 C 0.22156 0.30394 0.82635 0.0
C454 C 0.24675 0.30001 0.86946 0.0
C455 C 0.17324 0.29068 0.8777 0.0
C456 C 0.07258 0.28547 0.84137 0.0
H457 H 0.17501 0.78141 0.72917 0.0
H458 H 0.99838 0.62745 0.65956 0.0
H459 H 0.98143 0.60752 0.7208 0.0
H460 H 0.30173 0.72154 0.84191 0.0
H461 H 0.29803 0.78958 0.86553 0.0
H462 H 0.30252 0.78991 0.81759 0.0
H463 H 0.14277 0.85305 0.77453 0.0
H464 H 0.13769 0.8527 0.82226 0.0
H465 H 1.03265 0.82757 0.76915 0.0
H466 H 0.9788 0.60499 0.78799 0.0
H467 H 0.9853 0.62228 0.85591 0.0
H468 H 0.15774 0.77979 0.8819 0.0
C469 C 0.13279 0.74349 0.7268 0.0
C470 C 0.08904 0.70564 0.68953 0.0
C471 C 1.03475 0.65639 0.68803 0.0
C472 C 1.0241 0.64482 0.72261 0.0
C473 C 0.06791 0.68289 0.75868 0.0
C474 C 0.12104 0.73131 0.7611 0.0
C475 C 0.15761 0.76618 0.80306 0.0
C476 C 0.27173 0.76683 0.83384 0.0
C477 C 0.11511 0.82857 0.79154 0.0
C478 C 0.11462 0.73048 0.82319 0.0
C479 C 0.06445 0.68217 0.79727 0.0
C480 C 1.01822 0.64252 0.80868 0.0
C481 C 1.02272 0.65259 0.84747 0.0
C482 C 0.07227 0.70223 0.87436 0.0
C483 C 0.11894 0.7416 0.86193 0.0
loop_
_geom_bond_atom_site_label_1
_geom_bond_atom_site_label_2
_geom_bond_distance
_geom_bond_site_symmetry_2
_ccdc_geom_bond_type
La0 C2 2.928 1_556 S
La0 O20 2.521 1_556 S
La0 O21 2.628 1_556 S
La0 O22 2.554 1_556 S
La0 O23 2.757 . S
La0 O24 2.470 1_556 S
La0 O29 2.482 1_556 S
La0 O31 2.503 . S
La1 C11 2.928 1_554 S
La1 O23 2.482 1_554 S
La1 O25 2.503 . S
La1 O26 2.521 1_554 S
La1 O27 2.628 1_554 S
La1 O28 2.554 1_554 S
La1 O29 2.757 . S
La1 O30 2.470 1_554 S
C2 La0 2.928 1_554 S
C2 C3 1.503 . S
C2 O20 1.261 . S
C2 O21 1.243 . S
C3 C2 1.503 . S
C3 C4 1.394 . S
C3 C8 1.373 . S
C4 C3 1.394 . S
C4 C5 1.380 . S
C4 H32 0.930 . S
C5 C4 1.380 . S
C5 C6 1.376 . S
C5 H33 0.930 . S
C6 C5 1.376 . S
C6 C7 1.370 . S
C7 C6 1.370 . S
C7 C8 1.396 . S
C7 H34 0.929 . S
C8 C3 1.373 . S
C8 C7 1.396 . S
C8 H35 0.929 . S
C9 O22 1.240 . S
C9 O23 1.289 1_554 S
C10 O24 1.258 . S
C10 O25 1.256 . S
C11 La1 2.928 1_556 S
C11 C12 1.503 . S
C11 O26 1.261 . S
C11 O27 1.243 . S
C12 C11 1.503 . S
C12 C13 1.394 . S
C12 C17 1.373 . S
C13 C12 1.394 . S
C13 C14 1.380 . S
C13 H36 0.930 . S
C14 C13 1.380 . S
C14 C15 1.376 . S
C14 H37 0.930 . S
C15 C14 1.376 . S
C15 C16 1.370 . S
C16 C15 1.370 . S
C16 C17 1.396 . S
C16 H38 0.929 . S
C17 C12 1.373 . S
C17 C16 1.396 . S
C17 H39 0.929 . S
C18 O28 1.240 . S
C18 O29 1.289 1_556 S
C19 O30 1.258 . S
C19 O31 1.256 . S
O20 La0 2.521 1_554 S
O20 C2 1.261 . S
O21 La0 2.628 1_554 S
O21 C2 1.243 . S
O22 La0 2.554 1_554 S
O22 C9 1.240 . S
O23 La0 2.757 . S
O23 La1 2.482 1_556 S
O23 C9 1.289 1_556 S
O24 La0 2.470 1_554 S
O24 C10 1.258 . S
O25 La1 2.503 . S
O25 C10 1.256 . S
O26 La1 2.521 1_556 S
O26 C11 1.261 . S
O27 La1 2.628 1_556 S
O27 C11 1.243 . S
O28 La1 2.554 1_556 S
O28 C18 1.240 . S
O29 La0 2.482 1_554 S
O29 La1 2.757 . S
O29 C18 1.289 1_554 S
O30 La1 2.470 1_556 S
O30 C19 1.258 . S
O31 La0 2.503 . S
O31 C19 1.256 . S
H32 C4 0.930 . S
H33 C5 0.930 . S
H34 C7 0.929 . S
H35 C8 0.929 . S
H36 C13 0.930 . S
H37 C14 0.930 . S
H38 C16 0.929 . S
H39 C17 0.929 . S
La40 C42 2.928 1_556 S
La40 O60 2.521 1_556 S
La40 O61 2.628 1_556 S
La40 O62 2.554 1_556 S
La40 O63 2.757 . S
La40 O64 2.470 1_556 S
La40 O69 2.482 1_556 S
La40 O71 2.503 . S
La41 C51 2.928 1_554 S
La41 O63 2.482 1_554 S
La41 O65 2.503 . S
La41 O66 2.521 1_554 S
La41 O67 2.628 1_554 S
La41 O68 2.554 1_554 S
La41 O69 2.757 . S
La41 O70 2.470 1_554 S
C42 La40 2.928 1_554 S
C42 C43 1.503 . S
C42 O60 1.261 . S
C42 O61 1.243 . S
C43 C42 1.503 . S
C43 C44 1.394 . S
C43 C48 1.373 . S
C44 C43 1.394 . S
C44 C45 1.380 . S
C44 H72 0.930 . S
C45 C44 1.380 . S
C45 C46 1.376 . S
C45 H73 0.930 . S
C46 C45 1.376 . S
C46 C47 1.370 . S
C47 C46 1.370 . S
C47 C48 1.396 . S
C47 H74 0.929 . S
C48 C43 1.373 . S
C48 C47 1.396 . S
C48 H75 0.929 . S
C49 O62 1.240 . S
C49 O63 1.289 1_554 S
C50 O64 1.258 . S
C50 O65 1.256 . S
C51 La41 2.928 1_556 S
C51 C52 1.503 . S
C51 O66 1.261 . S
C51 O67 1.243 . S
C52 C51 1.503 . S
C52 C53 1.394 . S
C52 C57 1.373 . S
C53 C52 1.394 . S
C53 C54 1.380 . S
C53 H76 0.930 . S
C54 C53 1.380 . S
C54 C55 1.376 . S
C54 H77 0.930 . S
C55 C54 1.376 . S
C55 C56 1.370 . S
C56 C55 1.370 . S
C56 C57 1.396 . S
C56 H78 0.929 . S
C57 C52 1.373 . S
C57 C56 1.396 . S
C57 H79 0.929 . S
C58 O68 1.240 . S
C58 O69 1.289 1_556 S
C59 O70 1.258 . S
C59 O71 1.256 . S
O60 La40 2.521 1_554 S
O60 C42 1.261 . S
O61 La40 2.628 1_554 S
O61 C42 1.243 . S
O62 La40 2.554 1_554 S
O62 C49 1.240 . S
O63 La40 2.757 . S
O63 La41 2.482 1_556 S
O63 C49 1.289 1_556 S
O64 La40 2.470 1_554 S
O64 C50 1.258 . S
O65 La41 2.503 . S
O65 C50 1.256 . S
O66 La41 2.521 1_556 S
O66 C51 1.261 . S
O67 La41 2.628 1_556 S
O67 C51 1.243 . S
O68 La41 2.554 1_556 S
O68 C58 1.240 . S
O69 La40 2.482 1_554 S
O69 La41 2.757 . S
O69 C58 1.289 1_554 S
O70 La41 2.470 1_556 S
O70 C59 1.258 . S
O71 La40 2.503 . S
O71 C59 1.256 . S
H72 C44 0.930 . S
H73 C45 0.930 . S
H74 C47 0.929 . S
H75 C48 0.929 . S
H76 C53 0.930 . S
H77 C54 0.930 . S
H78 C56 0.929 . S
H79 C57 0.929 . S
La80 C82 2.928 . S
La80 O100 2.521 . S
La80 O101 2.628 . S
La80 O102 2.554 . S
La80 O103 2.757 . S
La80 O104 2.470 . S
La80 O109 2.482 . S
La80 O111 2.503 . S
La81 C91 2.928 . S
La81 O103 2.482 . S
La81 O105 2.503 . S
La81 O106 2.521 . S
La81 O107 2.628 . S
La81 O108 2.554 . S
La81 O109 2.757 . S
La81 O110 2.470 . S
C82 La80 2.928 . S
C82 C83 1.503 . S
C82 O100 1.261 . S
C82 O101 1.243 . S
C83 C82 1.503 . S
C83 C84 1.394 . S
C83 C88 1.373 . S
C84 C83 1.394 . S
C84 C85 1.380 . S
C84 H112 0.930 . S
C85 C84 1.380 . S
C85 C86 1.376 . S
C85 H113 0.930 . S
C86 C85 1.376 . S
C86 C87 1.370 . S
C87 C86 1.370 . S
C87 C88 1.396 . S
C87 H114 0.929 . S
C88 C83 1.373 . S
C88 C87 1.396 . S
C88 H115 0.929 . S
C89 O102 1.240 . S
C89 O103 1.289 . S
C90 O104 1.258 . S
C90 O105 1.256 . S
C91 La81 2.928 . S
C91 C92 1.503 . S
C91 O106 1.261 . S
C91 O107 1.243 . S
C92 C91 1.503 . S
C92 C93 1.394 . S
C92 C97 1.373 . S
C93 C92 1.394 . S
C93 C94 1.380 . S
C93 H116 0.930 . S
C94 C93 1.380 . S
C94 C95 1.376 . S
C94 H117 0.930 . S
C95 C94 1.376 . S
C95 C96 1.370 . S
C96 C95 1.370 . S
C96 C97 1.396 . S
C96 H118 0.929 . S
C97 C92 1.373 . S
C97 C96 1.396 . S
C97 H119 0.929 . S
C98 O108 1.240 . S
C98 O109 1.289 . S
C99 O110 1.258 . S
C99 O111 1.256 . S
O100 La80 2.521 . S
O100 C82 1.261 . S
O101 La80 2.628 . S
O101 C82 1.243 . S
O102 La80 2.554 . S
O102 C89 1.240 . S
O103 La80 2.757 . S
O103 La81 2.482 . S
O103 C89 1.289 . S
O104 La80 2.470 . S
O104 C90 1.258 . S
O105 La81 2.503 . S
O105 C90 1.256 . S
O106 La81 2.521 . S
O106 C91 1.261 . S
O107 La81 2.628 . S
O107 C91 1.243 . S
O108 La81 2.554 . S
O108 C98 1.240 . S
O109 La80 2.482 . S
O109 La81 2.757 . S
O109 C98 1.289 . S
O110 La81 2.470 . S
O110 C99 1.258 . S
O111 La80 2.503 . S
O111 C99 1.256 . S
H112 C84 0.930 . S
H113 C85 0.930 . S
H114 C87 0.929 . S
H115 C88 0.929 . S
H116 C93 0.930 . S
H117 C94 0.930 . S
H118 C96 0.929 . S
H119 C97 0.929 . S
La120 C122 2.928 . S
La120 O140 2.521 . S
La120 O141 2.628 . S
La120 O142 2.554 . S
La120 O143 2.757 . S
La120 O144 2.470 . S
La120 O149 2.482 . S
La120 O151 2.503 . S
La121 C131 2.928 . S
La121 O143 2.482 . S
La121 O145 2.503 . S
La121 O146 2.521 . S
La121 O147 2.628 . S
La121 O148 2.554 . S
La121 O149 2.757 . S
La121 O150 2.470 . S
C122 La120 2.928 . S
C122 C123 1.503 . S
C122 O140 1.261 . S
C122 O141 1.243 . S
C123 C122 1.503 . S
C123 C124 1.394 . S
C123 C128 1.373 . S
C124 C123 1.394 . S
C124 C125 1.380 . S
C124 H152 0.930 . S
C125 C124 1.380 . S
C125 C126 1.376 . S
C125 H153 0.930 . S
C126 C125 1.376 . S
C126 C127 1.370 . S
C127 C126 1.370 . S
C127 C128 1.396 . S
C127 H154 0.929 . S
C128 C123 1.373 . S
C128 C127 1.396 . S
C128 H155 0.929 . S
C129 O142 1.240 . S
C129 O143 1.289 . S
C130 O144 1.258 . S
C130 O145 1.256 . S
C131 La121 2.928 . S
C131 C132 1.503 . S
C131 O146 1.261 . S
C131 O147 1.243 . S
C132 C131 1.503 . S
C132 C133 1.394 . S
C132 C137 1.373 . S
C133 C132 1.394 . S
C133 C134 1.380 . S
C133 H156 0.930 . S
C134 C133 1.380 . S
C134 C135 1.376 . S
C134 H157 0.930 . S
C135 C134 1.376 . S
C135 C136 1.370 . S
C136 C135 1.370 . S
C136 C137 1.396 . S
C136 H158 0.929 . S
C137 C132 1.373 . S
C137 C136 1.396 . S
C137 H159 0.929 . S
C138 O148 1.240 . S
C138 O149 1.289 . S
C139 O150 1.258 . S
C139 O151 1.256 . S
O140 La120 2.521 . S
O140 C122 1.261 . S
O141 La120 2.628 . S
O141 C122 1.243 . S
O142 La120 2.554 . S
O142 C129 1.240 . S
O143 La120 2.757 . S
O143 La121 2.482 . S
O143 C129 1.289 . S
O144 La120 2.470 . S
O144 C130 1.258 . S
O145 La121 2.503 . S
O145 C130 1.256 . S
O146 La121 2.521 . S
O146 C131 1.261 . S
O147 La121 2.628 . S
O147 C131 1.243 . S
O148 La121 2.554 . S
O148 C138 1.240 . S
O149 La120 2.482 . S
O149 La121 2.757 . S
O149 C138 1.289 . S
O150 La121 2.470 . S
O150 C139 1.258 . S
O151 La120 2.503 . S
O151 C139 1.256 . S
H152 C124 0.930 . S
H153 C125 0.930 . S
H154 C127 0.929 . S
H155 C128 0.929 . S
H156 C133 0.930 . S
H157 C134 0.930 . S
H158 C136 0.929 . S
H159 C137 0.929 . S
H160 C172 0.930 . S
H161 C174 0.930 . S
H162 C175 0.930 . S
H163 C179 0.959 . S
H164 C179 0.959 . S
H165 C179 0.961 . S
H166 C180 0.960 . S
H167 C180 0.961 . S
H168 C180 0.959 . S
H169 C183 0.929 . S
H170 C184 0.931 . S
H171 C186 0.930 . S
C172 H160 0.930 . S
C172 C173 1.399 1_554 S
C172 C177 1.399 . S
C173 C172 1.399 1_556 S
C173 C174 1.376 . S
C174 H161 0.930 . S
C174 C173 1.376 . S
C174 C175 1.388 . S
C175 H162 0.930 . S
C175 C174 1.388 . S
C175 C176 1.390 . S
C176 C175 1.390 . S
C176 C177 1.394 1_556 S
C176 C182 1.465 . S
C177 C172 1.399 . S
C177 C176 1.394 1_554 S
C177 C178 1.516 . S
C178 C177 1.516 . S
C178 C179 1.502 . S
C178 C180 1.561 . S
C178 C181 1.526 . S
C179 H163 0.959 . S
C179 H164 0.959 . S
C179 H165 0.961 . S
C179 C178 1.502 . S
C180 H166 0.960 . S
C180 H167 0.961 . S
C180 H168 0.959 . S
C180 C178 1.561 . S
C181 C178 1.526 . S
C181 C182 1.396 1_554 S
C181 C186 1.390 . S
C182 C176 1.465 . S
C182 C181 1.396 1_556 S
C182 C183 1.399 . S
C183 H169 0.929 . S
C183 C182 1.399 . S
C183 C184 1.385 . S
C184 H170 0.931 . S
C184 C183 1.385 . S
C184 C185 1.389 1_556 S
C185 C184 1.389 1_554 S
C185 C186 1.387 . S
C186 H171 0.930 . S
C186 C181 1.390 . S
C186 C185 1.387 . S
H187 C199 0.930 . S
H188 C201 0.930 . S
H189 C202 0.930 . S
H190 C206 0.959 . S
H191 C206 0.959 . S
H192 C206 0.961 . S
H193 C207 0.960 . S
H194 C207 0.961 . S
H195 C207 0.959 . S
H196 C210 0.929 . S
H197 C211 0.931 . S
H198 C213 0.930 . S
C199 H187 0.930 . S
C199 C200 1.399 . S
C199 C204 1.399 . S
C200 C199 1.399 . S
C200 C201 1.376 . S
C201 H188 0.930 . S
C201 C200 1.376 . S
C201 C202 1.388 . S
C202 H189 0.930 . S
C202 C201 1.388 . S
C202 C203 1.390 . S
C203 C202 1.390 . S
C203 C204 1.394 . S
C203 C209 1.465 . S
C204 C199 1.399 . S
C204 C203 1.394 . S
C204 C205 1.516 . S
C205 C204 1.516 . S
C205 C206 1.502 . S
C205 C207 1.561 . S
C205 C208 1.526 . S
C206 H190 0.959 . S
C206 H191 0.959 . S
C206 H192 0.961 . S
C206 C205 1.502 . S
C207 H193 0.960 . S
C207 H194 0.961 . S
C207 H195 0.959 . S
C207 C205 1.561 . S
C208 C205 1.526 . S
C208 C209 1.396 . S
C208 C213 1.390 . S
C209 C203 1.465 . S
C209 C208 1.396 . S
C209 C210 1.399 . S
C210 H196 0.929 . S
C210 C209 1.399 . S
C210 C211 1.385 . S
C211 H197 0.931 . S
C211 C210 1.385 . S
C211 C212 1.389 . S
C212 C211 1.389 . S
C212 C213 1.387 . S
C213 H198 0.930 . S
C213 C208 1.390 . S
C213 C212 1.387 . S
H214 C226 0.930 . S
H215 C228 0.930 . S
H216 C229 0.930 . S
H217 C233 0.959 . S
H218 C233 0.959 1_565 S
H219 C233 0.961 . S
H220 C234 0.960 . S
H221 C234 0.961 . S
H222 C234 0.959 1_455 S
H223 C237 0.929 . S
H224 C238 0.931 . S
H225 C240 0.930 . S
C226 H214 0.930 . S
C226 C227 1.399 . S
C226 C231 1.399 . S
C227 C226 1.399 . S
C227 C228 1.376 1_556 S
C228 H215 0.930 . S
C228 C227 1.376 1_554 S
C228 C229 1.388 . S
C229 H216 0.930 . S
C229 C228 1.388 . S
C229 C230 1.390 . S
C230 C229 1.390 . S
C230 C231 1.394 1_554 S
C230 C236 1.465 1_545 S
C231 C226 1.399 . S
C231 C230 1.394 1_556 S
C231 C232 1.516 1_445 S
C232 C231 1.516 1_665 S
C232 C233 1.502 1_565 S
C232 C234 1.561 . S
C232 C235 1.526 . S
C233 H217 0.959 . S
C233 H218 0.959 1_545 S
C233 H219 0.961 . S
C233 C232 1.502 1_545 S
C234 H220 0.960 . S
C234 H221 0.961 . S
C234 H222 0.959 1_655 S
C234 C232 1.561 . S
C235 C232 1.526 . S
C235 C236 1.396 1_656 S
C235 C240 1.390 . S
C236 C230 1.465 1_565 S
C236 C235 1.396 1_454 S
C236 C237 1.399 . S
C237 H223 0.929 . S
C237 C236 1.399 . S
C237 C238 1.385 1_455 S
C238 H224 0.931 . S
C238 C237 1.385 1_655 S
C238 C239 1.389 . S
C239 C238 1.389 . S
C239 C240 1.387 1_554 S
C240 H225 0.930 . S
C240 C235 1.390 . S
C240 C239 1.387 1_556 S
H241 C253 0.930 . S
H242 C255 0.930 . S
H243 C256 0.930 . S
H244 C260 0.959 1_565 S
H245 C260 0.959 1_565 S
H246 C260 0.961 . S
H247 C261 0.960 1_655 S
H248 C261 0.961 . S
H249 C261 0.959 . S
H250 C264 0.929 . S
H251 C265 0.931 . S
H252 C267 0.930 . S
C253 H241 0.930 . S
C253 C254 1.399 . S
C253 C258 1.399 . S
C254 C253 1.399 . S
C254 C255 1.376 . S
C255 H242 0.930 . S
C255 C254 1.376 . S
C255 C256 1.388 1_655 S
C256 H243 0.930 . S
C256 C255 1.388 1_455 S
C256 C257 1.390 . S
C257 C256 1.390 . S
C257 C258 1.394 1_455 S
C257 C263 1.465 1_545 S
C258 C253 1.399 . S
C258 C257 1.394 1_655 S
C258 C259 1.516 . S
C259 C258 1.516 . S
C259 C260 1.502 . S
C259 C261 1.561 1_655 S
C259 C262 1.526 1_645 S
C260 H244 0.959 1_545 S
C260 H245 0.959 1_545 S
C260 H246 0.961 . S
C260 C259 1.502 . S
C261 H247 0.960 1_455 S
C261 H248 0.961 . S
C261 H249 0.959 . S
C261 C259 1.561 1_455 S
C262 C259 1.526 1_465 S
C262 C263 1.396 . S
C262 C267 1.390 . S
C263 C257 1.465 1_565 S
C263 C262 1.396 . S
C263 C264 1.399 . S
C264 H250 0.929 . S
C264 C263 1.399 . S
C264 C265 1.385 . S
C265 H251 0.931 . S
C265 C264 1.385 . S
C265 C266 1.389 . S
C266 C265 1.389 . S
C266 C267 1.387 . S
C267 H252 0.930 . S
C267 C262 1.390 . S
C267 C266 1.387 . S
H268 C280 0.930 . S
H269 C282 0.930 . S
H270 C283 0.930 . S
H271 C287 0.959 . S
H272 C287 0.959 . S
H273 C287 0.961 . S
H274 C288 0.960 . S
H275 C288 0.961 . S
H276 C288 0.959 . S
H277 C291 0.929 . S
H278 C292 0.931 . S
H279 C294 0.930 . S
C280 H268 0.930 . S
C280 C281 1.399 . S
C280 C285 1.399 . S
C281 C280 1.399 . S
C281 C282 1.376 . S
C282 H269 0.930 . S
C282 C281 1.376 . S
C282 C283 1.388 . S
C283 H270 0.930 . S
C283 C282 1.388 . S
C283 C284 1.390 . S
C284 C283 1.390 . S
C284 C285 1.394 . S
C284 C290 1.465 . S
C285 C280 1.399 . S
C285 C284 1.394 . S
C285 C286 1.516 . S
C286 C285 1.516 . S
C286 C287 1.502 . S
C286 C288 1.561 . S
C286 C289 1.526 . S
C287 H271 0.959 . S
C287 H272 0.959 . S
C287 H273 0.961 . S
C287 C286 1.502 . S
C288 H274 0.960 . S
C288 H275 0.961 . S
C288 H276 0.959 . S
C288 C286 1.561 . S
C289 C286 1.526 . S
C289 C290 1.396 . S
C289 C294 1.390 . S
C290 C284 1.465 . S
C290 C289 1.396 . S
C290 C291 1.399 . S
C291 H277 0.929 . S
C291 C290 1.399 . S
C291 C292 1.385 . S
C292 H278 0.931 . S
C292 C291 1.385 . S
C292 C293 1.389 . S
C293 C292 1.389 . S
C293 C294 1.387 . S
C294 H279 0.930 . S
C294 C289 1.390 . S
C294 C293 1.387 . S
H295 C307 0.930 . S
H296 C309 0.930 . S
H297 C310 0.930 . S
H298 C314 0.959 . S
H299 C314 0.959 . S
H300 C314 0.961 . S
H301 C315 0.960 . S
H302 C315 0.961 . S
H303 C315 0.959 . S
H304 C318 0.929 . S
H305 C319 0.931 . S
H306 C321 0.930 . S
C307 H295 0.930 . S
C307 C308 1.399 . S
C307 C312 1.399 . S
C308 C307 1.399 . S
C308 C309 1.376 . S
C309 H296 0.930 . S
C309 C308 1.376 . S
C309 C310 1.388 . S
C310 H297 0.930 . S
C310 C309 1.388 . S
C310 C311 1.390 . S
C311 C310 1.390 . S
C311 C312 1.394 . S
C311 C317 1.465 . S
C312 C307 1.399 . S
C312 C311 1.394 . S
C312 C313 1.516 . S
C313 C312 1.516 . S
C313 C314 1.502 . S
C313 C315 1.561 . S
C313 C316 1.526 . S
C314 H298 0.959 . S
C314 H299 0.959 . S
C314 H300 0.961 . S
C314 C313 1.502 . S
C315 H301 0.960 . S
C315 H302 0.961 . S
C315 H303 0.959 . S
C315 C313 1.561 . S
C316 C313 1.526 . S
C316 C317 1.396 . S
C316 C321 1.390 . S
C317 C311 1.465 . S
C317 C316 1.396 . S
C317 C318 1.399 . S
C318 H304 0.929 . S
C318 C317 1.399 . S
C318 C319 1.385 . S
C319 H305 0.931 . S
C319 C318 1.385 . S
C319 C320 1.389 . S
C320 C319 1.389 . S
C320 C321 1.387 . S
C321 H306 0.930 . S
C321 C316 1.390 . S
C321 C320 1.387 . S
H322 C334 0.930 . S
H323 C336 0.930 . S
H324 C337 0.930 . S
H325 C341 0.959 . S
H326 C341 0.959 . S
H327 C341 0.961 . S
H328 C342 0.960 . S
H329 C342 0.961 . S
H330 C342 0.959 . S
H331 C345 0.929 . S
H332 C346 0.931 . S
H333 C348 0.930 . S
C334 H322 0.930 . S
C334 C335 1.399 . S
C334 C339 1.399 . S
C335 C334 1.399 . S
C335 C336 1.376 . S
C336 H323 0.930 . S
C336 C335 1.376 . S
C336 C337 1.388 . S
C337 H324 0.930 . S
C337 C336 1.388 . S
C337 C338 1.390 . S
C338 C337 1.390 . S
C338 C339 1.394 . S
C338 C344 1.465 . S
C339 C334 1.399 . S
C339 C338 1.394 . S
C339 C340 1.516 . S
C340 C339 1.516 . S
C340 C341 1.502 . S
C340 C342 1.561 . S
C340 C343 1.526 . S
C341 H325 0.959 . S
C341 H326 0.959 . S
C341 H327 0.961 . S
C341 C340 1.502 . S
C342 H328 0.960 . S
C342 H329 0.961 . S
C342 H330 0.959 . S
C342 C340 1.561 . S
C343 C340 1.526 . S
C343 C344 1.396 . S
C343 C348 1.390 . S
C344 C338 1.465 . S
C344 C343 1.396 . S
C344 C345 1.399 . S
C345 H331 0.929 . S
C345 C344 1.399 . S
C345 C346 1.385 . S
C346 H332 0.931 . S
C346 C345 1.385 . S
C346 C347 1.389 . S
C347 C346 1.389 . S
C347 C348 1.387 . S
C348 H333 0.930 . S
C348 C343 1.390 . S
C348 C347 1.387 . S
H349 C361 0.930 . S
H350 C363 0.930 . S
H351 C364 0.930 . S
H352 C368 0.959 . S
H353 C368 0.959 . S
H354 C368 0.961 . S
H355 C369 0.960 . S
H356 C369 0.961 . S
H357 C369 0.959 . S
H358 C372 0.929 . S
H359 C373 0.931 . S
H360 C375 0.930 . S
C361 H349 0.930 . S
C361 C362 1.399 . S
C361 C366 1.399 . S
C362 C361 1.399 . S
C362 C363 1.376 . S
C363 H350 0.930 . S
C363 C362 1.376 . S
C363 C364 1.388 . S
C364 H351 0.930 . S
C364 C363 1.388 . S
C364 C365 1.390 . S
C365 C364 1.390 . S
C365 C366 1.394 . S
C365 C371 1.465 . S
C366 C361 1.399 . S
C366 C365 1.394 . S
C366 C367 1.516 . S
C367 C366 1.516 . S
C367 C368 1.502 . S
C367 C369 1.561 . S
C367 C370 1.526 . S
C368 H352 0.959 . S
C368 H353 0.959 . S
C368 H354 0.961 . S
C368 C367 1.502 . S
C369 H355 0.960 . S
C369 H356 0.961 . S
C369 H357 0.959 . S
C369 C367 1.561 . S
C370 C367 1.526 . S
C370 C371 1.396 . S
C370 C375 1.390 . S
C371 C365 1.465 . S
C371 C370 1.396 . S
C371 C372 1.399 . S
C372 H358 0.929 . S
C372 C371 1.399 . S
C372 C373 1.385 . S
C373 H359 0.931 . S
C373 C372 1.385 . S
C373 C374 1.389 . S
C374 C373 1.389 . S
C374 C375 1.387 . S
C375 H360 0.930 . S
C375 C370 1.390 . S
C375 C374 1.387 . S
H376 C388 0.930 . S
H377 C390 0.930 . S
H378 C391 0.930 . S
H379 C395 0.959 . S
H380 C395 0.959 . S
H381 C395 0.961 . S
H382 C396 0.960 . S
H383 C396 0.961 . S
H384 C396 0.959 . S
H385 C399 0.929 . S
H386 C400 0.931 . S
H387 C402 0.930 . S
C388 H376 0.930 . S
C388 C389 1.399 . S
C388 C393 1.399 . S
C389 C388 1.399 . S
C389 C390 1.376 . S
C390 H377 0.930 . S
C390 C389 1.376 . S
C390 C391 1.388 . S
C391 H378 0.930 . S
C391 C390 1.388 . S
C391 C392 1.390 . S
C392 C391 1.390 . S
C392 C393 1.394 . S
C392 C398 1.465 1_655 S
C393 C388 1.399 . S
C393 C392 1.394 . S
C393 C394 1.516 1_655 S
C394 C393 1.516 1_455 S
C394 C395 1.502 1_455 S
C394 C396 1.561 . S
C394 C397 1.526 . S
C395 H379 0.959 . S
C395 H380 0.959 . S
C395 H381 0.961 . S
C395 C394 1.502 1_655 S
C396 H382 0.960 . S
C396 H383 0.961 . S
C396 H384 0.959 . S
C396 C394 1.561 . S
C397 C394 1.526 . S
C397 C398 1.396 . S
C397 C402 1.390 . S
C398 C392 1.465 1_455 S
C398 C397 1.396 . S
C398 C399 1.399 . S
C399 H385 0.929 . S
C399 C398 1.399 . S
C399 C400 1.385 . S
C400 H386 0.931 . S
C400 C399 1.385 . S
C400 C401 1.389 . S
C401 C400 1.389 . S
C401 C402 1.387 . S
C402 H387 0.930 . S
C402 C397 1.390 . S
C402 C401 1.387 . S
H403 C415 0.930 . S
H404 C417 0.930 . S
H405 C418 0.930 . S
H406 C422 0.959 . S
H407 C422 0.959 . S
H408 C422 0.961 . S
H409 C423 0.960 . S
H410 C423 0.961 . S
H411 C423 0.959 . S
H412 C426 0.929 . S
H413 C427 0.931 . S
H414 C429 0.930 . S
C415 H403 0.930 . S
C415 C416 1.399 . S
C415 C420 1.399 . S
C416 C415 1.399 . S
C416 C417 1.376 1_655 S
C417 H404 0.930 . S
C417 C416 1.376 1_455 S
C417 C418 1.388 . S
C418 H405 0.930 . S
C418 C417 1.388 . S
C418 C419 1.390 . S
C419 C418 1.390 . S
C419 C420 1.394 1_455 S
C419 C425 1.465 . S
C420 C415 1.399 . S
C420 C419 1.394 1_655 S
C420 C421 1.516 . S
C421 C420 1.516 . S
C421 C422 1.502 . S
C421 C423 1.561 . S
C421 C424 1.526 . S
C422 H406 0.959 . S
C422 H407 0.959 . S
C422 H408 0.961 . S
C422 C421 1.502 . S
C423 H409 0.960 . S
C423 H410 0.961 . S
C423 H411 0.959 . S
C423 C421 1.561 . S
C424 C421 1.526 . S
C424 C425 1.396 1_655 S
C424 C429 1.390 . S
C425 C419 1.465 . S
C425 C424 1.396 1_455 S
C425 C426 1.399 . S
C426 H412 0.929 . S
C426 C425 1.399 . S
C426 C427 1.385 . S
C427 H413 0.931 . S
C427 C426 1.385 . S
C427 C428 1.389 . S
C428 C427 1.389 . S
C428 C429 1.387 1_455 S
C429 H414 0.930 . S
C429 C424 1.390 . S
C429 C428 1.387 1_655 S
H430 C442 0.930 . S
H431 C444 0.930 . S
H432 C445 0.930 1_455 S
H433 C449 0.959 . S
H434 C449 0.959 . S
H435 C449 0.961 . S
H436 C450 0.960 . S
H437 C450 0.961 . S
H438 C450 0.959 . S
H439 C453 0.929 . S
H440 C454 0.931 . S
H441 C456 0.930 . S
C442 H430 0.930 . S
C442 C443 1.399 . S
C442 C447 1.399 . S
C443 C442 1.399 . S
C443 C444 1.376 . S
C444 H431 0.930 . S
C444 C443 1.376 . S
C444 C445 1.388 . S
C445 H432 0.930 1_655 S
C445 C444 1.388 . S
C445 C446 1.393 1_655 S
C446 C445 1.393 1_455 S
C446 C447 1.393 1_455 S
C446 C452 1.463 . S
C447 C442 1.399 . S
C447 C446 1.393 1_655 S
C447 C448 1.516 . S
C448 C447 1.516 . S
C448 C449 1.502 . S
C448 C450 1.561 1_655 S
C448 C451 1.526 1_655 S
C449 H433 0.959 . S
C449 H434 0.959 . S
C449 H435 0.961 . S
C449 C448 1.502 . S
C450 H436 0.960 . S
C450 H437 0.961 . S
C450 H438 0.959 . S
C450 C448 1.561 1_455 S
C451 C448 1.526 1_455 S
C451 C452 1.396 . S
C451 C456 1.390 . S
C452 C446 1.463 . S
C452 C451 1.396 . S
C452 C453 1.399 . S
C453 H439 0.929 . S
C453 C452 1.399 . S
C453 C454 1.385 . S
C454 H440 0.931 . S
C454 C453 1.385 . S
C454 C455 1.389 . S
C455 C454 1.389 . S
C455 C456 1.387 . S
C456 H441 0.930 . S
C456 C451 1.390 . S
C456 C455 1.387 . S
H457 C469 0.930 . S
H458 C471 0.930 . S
H459 C472 0.930 . S
H460 C476 0.959 . S
H461 C476 0.959 . S
H462 C476 0.961 . S
H463 C477 0.960 . S
H464 C477 0.961 . S
H465 C477 0.959 . S
H466 C480 0.929 . S
H467 C481 0.931 . S
H468 C483 0.930 . S
C469 H457 0.930 . S
C469 C470 1.399 . S
C469 C474 1.399 . S
C470 C469 1.399 . S
C470 C471 1.376 1_455 S
C471 H458 0.930 . S
C471 C470 1.376 1_655 S
C471 C472 1.388 . S
C472 H459 0.930 . S
C472 C471 1.388 . S
C472 C473 1.390 . S
C473 C472 1.390 . S
C473 C474 1.394 1_655 S
C473 C479 1.465 . S
C474 C469 1.399 . S
C474 C473 1.394 1_455 S
C474 C475 1.516 . S
C475 C474 1.516 . S
C475 C476 1.502 . S
C475 C477 1.561 1_455 S
C475 C478 1.526 . S
C476 H460 0.959 . S
C476 H461 0.959 . S
C476 H462 0.961 . S
C476 C475 1.502 . S
C477 H463 0.960 . S
C477 H464 0.961 . S
C477 H465 0.959 . S
C477 C475 1.561 1_655 S
C478 C475 1.526 . S
C478 C479 1.396 1_455 S
C478 C483 1.390 . S
C479 C473 1.465 . S
C479 C478 1.396 1_655 S
C479 C480 1.399 . S
C480 H466 0.929 . S
C480 C479 1.399 . S
C480 C481 1.385 . S
C481 H467 0.931 . S
C481 C480 1.385 . S
C481 C482 1.389 . S
C482 C481 1.389 . S
C482 C483 1.387 1_655 S
C483 H468 0.930 . S
C483 C478 1.390 . S
C483 C482 1.387 1_455 S
C173 C58 1.594 . S
C185 C9 1.574 . S
C200 C98 1.590 . S
C212 C129 1.578 . S
C227 C18 1.567 . S
C239 C49 1.593 . S
C254 C138 1.593 . S
C266 C89 1.575 . S
C281 C130 1.679 . S
C293 C10 1.675 . S
C308 C46 0.998 . S
C320 C86 0.962 . S
C335 C59 1.688 . S
C347 C99 1.682 . S
C362 C135 1.028 . S
C374 C15 1.001 . S
C389 C50 1.672 . S
C401 C90 1.671 . S
C416 C126 1.028 . S
C428 C6 0.987 . S
C443 C139 1.704 . S
C455 C19 1.709 . S
C470 C95 1.029 . S
C482 C55 1.007 . S
