# Generated by pormake.
# Topology uoy, (4)-cn, num edge types: 1
# Building blocks:
#     Node 0, Type 0, BuildingBlock: CEKHIL_clean_sbu_0, # of connection points: 4
#     Node 1, Type 0, BuildingBlock: CEKHIL_clean_sbu_0, # of connection points: 4
#     Node 2, Type 0, BuildingBlock: CEKHIL_clean_sbu_0, # of connection points: 4
#     Node 3, Type 0, BuildingBlock: CEKHIL_clean_sbu_0, # of connection points: 4
#     Node 4, Type 0, BuildingBlock: CEKHIL_clean_sbu_0, # of connection points: 4
#     Node 5, Type 0, BuildingBlock: CEKHIL_clean_sbu_0, # of connection points: 4
#     Node 6, Type 0, BuildingBlock: CEKHIL_clean_sbu_0, # of connection points: 4
#     Node 7, Type 0, BuildingBlock: CEKHIL_clean_sbu_0, # of connection points: 4
#     Node 8, Type 0, BuildingBlock: CEKHIL_clean_sbu_0, # of connection points: 4
#     Node 9, Type 0, BuildingBlock: CEKHIL_clean_sbu_0, # of connection points: 4
#     Node 10, Type 0, BuildingBlock: CEKHIL_clean_sbu_0, # of connection points: 4
#     Node 11, Type 0, BuildingBlock: CEKHIL_clean_sbu_0, # of connection points: 4
#     Node 12, Type 0, BuildingBlock: CEKHIL_clean_sbu_0, # of connection points: 4
#     Node 13, Type 0, BuildingBlock: CEKHIL_clean_sbu_0, # of connection points: 4
#     Node 14, Type 0, BuildingBlock: CEKHIL_clean_sbu_0, # of connection points: 4
#     Node 15, Type 0, BuildingBlock: CEKHIL_clean_sbu_0, # of connection points: 4
#     Edge 16, Type (0, 0), BuildingBlock: UVAHIK_clean_linker_0, # of connection points: 2
#     Edge 17, Type (0, 0), BuildingBlock: UVAHIK_clean_linker_0, # of connection points: 2
#     Edge 18, Type (0, 0), BuildingBlock: UVAHIK_clean_linker_0, # of connection points: 2
#     Edge 19, Type (0, 0), BuildingBlock: UVAHIK_clean_linker_0, # of connection points: 2
#     Edge 20, Type (0, 0), BuildingBlock: UVAHIK_clean_linker_0, # of connection points: 2
#     Edge 21, Type (0, 0), BuildingBlock: UVAHIK_clean_linker_0, # of connection points: 2
#     Edge 22, Type (0, 0), BuildingBlock: UVAHIK_clean_linker_0, # of connection points: 2
#     Edge 23, Type (0, 0), BuildingBlock: UVAHIK_clean_linker_0, # of connection points: 2
#     Edge 24, Type (0, 0), BuildingBlock: UVAHIK_clean_linker_0, # of connection points: 2
#     Edge 25, Type (0, 0), BuildingBlock: UVAHIK_clean_linker_0, # of connection points: 2
#     Edge 26, Type (0, 0), BuildingBlock: UVAHIK_clean_linker_0, # of connection points: 2
#     Edge 27, Type (0, 0), BuildingBlock: UVAHIK_clean_linker_0, # of connection points: 2
#     Edge 28, Type (0, 0), BuildingBlock: UVAHIK_clean_linker_0, # of connection points: 2
#     Edge 29, Type (0, 0), BuildingBlock: UVAHIK_clean_linker_0, # of connection points: 2
#     Edge 30, Type (0, 0), BuildingBlock: UVAHIK_clean_linker_0, # of connection points: 2
#     Edge 31, Type (0, 0), BuildingBlock: UVAHIK_clean_linker_0, # of connection points: 2
#     Edge 32, Type (0, 0), BuildingBlock: UVAHIK_clean_linker_0, # of connection points: 2
#     Edge 33, Type (0, 0), BuildingBlock: UVAHIK_clean_linker_0, # of connection points: 2
#     Edge 34, Type (0, 0), BuildingBlock: UVAHIK_clean_linker_0, # of connection points: 2
#     Edge 35, Type (0, 0), BuildingBlock: UVAHIK_clean_linker_0, # of connection points: 2
#     Edge 36, Type (0, 0), BuildingBlock: UVAHIK_clean_linker_0, # of connection points: 2
#     Edge 37, Type (0, 0), BuildingBlock: UVAHIK_clean_linker_0, # of connection points: 2
#     Edge 38, Type (0, 0), BuildingBlock: UVAHIK_clean_linker_0, # of connection points: 2
#     Edge 39, Type (0, 0), BuildingBlock: UVAHIK_clean_linker_0, # of connection points: 2
#     Edge 40, Type (0, 0), BuildingBlock: UVAHIK_clean_linker_0, # of connection points: 2
#     Edge 41, Type (0, 0), BuildingBlock: UVAHIK_clean_linker_0, # of connection points: 2
#     Edge 42, Type (0, 0), BuildingBlock: UVAHIK_clean_linker_0, # of connection points: 2
#     Edge 43, Type (0, 0), BuildingBlock: UVAHIK_clean_linker_0, # of connection points: 2
#     Edge 44, Type (0, 0), BuildingBlock: UVAHIK_clean_linker_0, # of connection points: 2
#     Edge 45, Type (0, 0), BuildingBlock: UVAHIK_clean_linker_0, # of connection points: 2
#     Edge 46, Type (0, 0), BuildingBlock: UVAHIK_clean_linker_0, # of connection points: 2
#     Edge 47, Type (0, 0), BuildingBlock: UVAHIK_clean_linker_0, # of connection points: 2
# Relax obj value: 0.040
# Max RMSD: 0.062
# Mean RMSD: 0.062
data_MOF--net-uoy--node1-CEKHIL_clean_sbu_0--edge1-UVAHIK_clean_linker_0
_symmetry_space_group_name_H-M    P1
_symmetry_Int_Tables_number       1
_symmetry_cell_setting            triclinic
loop_
_symmetry_equiv_pos_as_xyz
'x, y, z'
_cell_length_a     35.32951
_cell_length_b     35.342793
_cell_length_c     138.68946
_cell_angle_alpha  89.987874
_cell_angle_beta   90.00755
_cell_angle_gamma 90.001932
loop_
_atom_site_label
_atom_site_type_symbol
_atom_site_fract_x
_atom_site_fract_y
_atom_site_fract_z
_atom_type_partial_charge
Co0 Co 0.24277 0.11485 0.18325 0.0
O1 O 0.1887 0.12057 0.18378 0.0
O2 O 0.21819 0.0718 0.17718 0.0
C3 C 0.25397 0.13043 0.19874 0.0
O4 O 0.29828 0.09903 0.18176 0.0
Co5 Co 0.29447 0.18486 0.18684 0.0
O6 O 0.33472 0.14584 0.1877 0.0
C7 C 0.25159 0.17828 0.1687 0.0
C8 C 0.18638 0.08832 0.17937 0.0
C9 C 0.33064 0.11228 0.18448 0.0
O10 O 0.24379 0.14351 0.17064 0.0
O11 O 0.26832 0.20043 0.17463 0.0
O12 O 0.2438 0.09616 0.19654 0.0
O13 O 0.25341 0.1544 0.19173 0.0
Co14 Co 0.88926 0.74218 0.43343 0.0
O15 O 0.88449 0.68792 0.43396 0.0
O16 O 0.93231 0.71842 0.42719 0.0
C17 C 0.87452 0.7534 0.44897 0.0
O18 O 0.90433 0.79789 0.43191 0.0
Co19 Co 0.81868 0.793 0.43717 0.0
O20 O 0.85703 0.8339 0.43777 0.0
C21 C 0.82497 0.75014 0.41906 0.0
C22 C 0.91663 0.68628 0.42946 0.0
C23 C 0.89062 0.83017 0.43453 0.0
O24 O 0.85996 0.74291 0.42091 0.0
O25 O 0.8028 0.7665 0.42505 0.0
O26 O 0.90864 0.74313 0.44665 0.0
O27 O 0.85007 0.75261 0.44207 0.0
Co28 Co 0.26087 0.38941 0.68383 0.0
O29 O 0.31495 0.3838 0.68442 0.0
O30 O 0.28546 0.43274 0.67789 0.0
C31 C 0.24932 0.37324 0.69926 0.0
O32 O 0.20536 0.40519 0.6823 0.0
Co33 Co 0.20925 0.31919 0.6871 0.0
O34 O 0.16891 0.35807 0.68806 0.0
C35 C 0.25185 0.32692 0.66895 0.0
C36 C 0.31727 0.4162 0.68008 0.0
C37 C 0.17297 0.39177 0.68494 0.0
O38 O 0.26021 0.36133 0.67115 0.0
O39 O 0.23467 0.30446 0.67473 0.0
O40 O 0.25951 0.40759 0.69715 0.0
O41 O 0.25011 0.34948 0.6922 0.0
Co42 Co 0.6146 0.75927 0.9335 0.0
O43 O 0.62056 0.8134 0.93396 0.0
O44 O 0.57167 0.78383 0.92743 0.0
C45 C 0.63019 0.74788 0.94897 0.0
O46 O 0.59823 0.70388 0.93209 0.0
Co47 Co 0.68431 0.707 0.93689 0.0
O48 O 0.64506 0.66707 0.93787 0.0
C49 C 0.67724 0.74922 0.91869 0.0
C50 C 0.58819 0.81565 0.92958 0.0
C51 C 0.61137 0.67142 0.93476 0.0
O52 O 0.64286 0.75784 0.92086 0.0
O53 O 0.69953 0.73202 0.92451 0.0
O54 O 0.59614 0.75886 0.94679 0.0
O55 O 0.65421 0.74808 0.94196 0.0
Co56 Co 0.24195 0.39004 0.05832 0.0
O57 O 0.18783 0.38457 0.05778 0.0
O58 O 0.21759 0.43308 0.06444 0.0
C59 C 0.25345 0.3748 0.04283 0.0
O60 O 0.29751 0.40562 0.05984 0.0
Co61 Co 0.29336 0.31982 0.05477 0.0
O62 O 0.33374 0.35869 0.0539 0.0
C63 C 0.25131 0.32686 0.07302 0.0
C64 C 0.1857 0.41675 0.06223 0.0
C65 C 0.32981 0.39223 0.05714 0.0
O66 O 0.24284 0.36133 0.0709 0.0
O67 O 0.26834 0.3046 0.06716 0.0
O68 O 0.24305 0.40896 0.04507 0.0
O69 O 0.25264 0.35061 0.0498 0.0
Co70 Co 0.61371 0.74075 0.30855 0.0
O71 O 0.61954 0.68669 0.30807 0.0
O72 O 0.57045 0.71616 0.31453 0.0
C73 C 0.62987 0.75194 0.29311 0.0
O74 O 0.59772 0.79622 0.30997 0.0
Co75 Co 0.68379 0.7925 0.30519 0.0
O76 O 0.64472 0.83261 0.30411 0.0
C77 C 0.67613 0.75048 0.32343 0.0
C78 C 0.58713 0.68437 0.31241 0.0
C79 C 0.61103 0.82854 0.30725 0.0
O80 O 0.64176 0.74188 0.32124 0.0
O81 O 0.69855 0.76758 0.31763 0.0
O82 O 0.59554 0.74166 0.29523 0.0
O83 O 0.65362 0.75142 0.30016 0.0
Co84 Co 0.26191 0.11525 0.55879 0.0
O85 O 0.31618 0.12014 0.55824 0.0
O86 O 0.28581 0.07193 0.56486 0.0
C87 C 0.25046 0.13091 0.54331 0.0
O88 O 0.20623 0.09995 0.56031 0.0
Co89 Co 0.21072 0.18579 0.55532 0.0
O90 O 0.16993 0.14735 0.55461 0.0
C91 C 0.25413 0.17881 0.57335 0.0
C92 C 0.31792 0.08778 0.56264 0.0
C93 C 0.17385 0.11364 0.55774 0.0
O94 O 0.26129 0.14389 0.57141 0.0
O95 O 0.23763 0.20118 0.56743 0.0
O96 O 0.26082 0.09667 0.54549 0.0
O97 O 0.25126 0.15488 0.55032 0.0
Co98 Co 0.88991 0.7613 0.80873 0.0
O99 O 0.88583 0.81553 0.80819 0.0
O100 O 0.93337 0.78454 0.81493 0.0
C101 C 0.8746 0.75051 0.7932 0.0
O102 O 0.90415 0.70544 0.81027 0.0
Co103 Co 0.81874 0.71142 0.80497 0.0
O104 O 0.8566 0.67001 0.80432 0.0
C105 C 0.82572 0.75412 0.82312 0.0
C106 C 0.91795 0.81684 0.8127 0.0
C107 C 0.89016 0.67334 0.80761 0.0
O108 O 0.86075 0.76106 0.82126 0.0
O109 O 0.80335 0.73797 0.81713 0.0
O110 O 0.90907 0.75974 0.79549 0.0
O111 O 0.85039 0.75174 0.80015 0.0
Co112 Co 0.74173 0.61505 0.68371 0.0
O113 O 0.68749 0.61949 0.68433 0.0
O114 O 0.71804 0.57135 0.67774 0.0
C115 C 0.75319 0.63125 0.69913 0.0
O116 O 0.79747 0.60028 0.68214 0.0
Co117 Co 0.7923 0.68599 0.68701 0.0
O118 O 0.83328 0.64777 0.68795 0.0
C119 C 0.74976 0.67779 0.66886 0.0
C120 C 0.68588 0.58709 0.67997 0.0
C121 C 0.82968 0.61407 0.68479 0.0
O122 O 0.74178 0.64328 0.67105 0.0
O123 O 0.7667 0.70042 0.67463 0.0
O124 O 0.74356 0.59675 0.69701 0.0
O125 O 0.75188 0.65507 0.6921 0.0
Co126 Co 0.38973 0.2398 0.93365 0.0
O127 O 0.38526 0.18566 0.93428 0.0
O128 O 0.43287 0.2161 0.92739 0.0
C129 C 0.37518 0.25113 0.94919 0.0
O130 O 0.40414 0.2956 0.93202 0.0
Co131 Co 0.31871 0.28984 0.93751 0.0
O132 O 0.35678 0.33107 0.93806 0.0
C133 C 0.32505 0.24698 0.91938 0.0
C134 C 0.4172 0.18399 0.9297 0.0
C135 C 0.39025 0.32771 0.93471 0.0
O136 O 0.36011 0.23994 0.92119 0.0
O137 O 0.30289 0.26326 0.92539 0.0
O138 O 0.40947 0.24156 0.94683 0.0
O139 O 0.35063 0.24975 0.94232 0.0
Co140 Co 0.76192 0.88953 0.1837 0.0
O141 O 0.81616 0.88529 0.18438 0.0
O142 O 0.78554 0.93332 0.17776 0.0
C143 C 0.75027 0.8732 0.19911 0.0
O144 O 0.70616 0.90408 0.18205 0.0
Co145 Co 0.71158 0.81838 0.18692 0.0
O146 O 0.67033 0.85636 0.18773 0.0
C147 C 0.75447 0.82682 0.16883 0.0
C148 C 0.81773 0.91768 0.18001 0.0
C149 C 0.67391 0.8901 0.1846 0.0
O150 O 0.76222 0.86136 0.17104 0.0
O151 O 0.73752 0.80409 0.17458 0.0
O152 O 0.75978 0.90776 0.197 0.0
O153 O 0.75179 0.84942 0.19207 0.0
Co154 Co 0.11501 0.26174 0.43363 0.0
O155 O 0.12126 0.31582 0.4341 0.0
O156 O 0.07231 0.28663 0.42749 0.0
C157 C 0.13011 0.25028 0.44914 0.0
O158 O 0.09855 0.20638 0.43218 0.0
Co159 Co 0.18462 0.20937 0.43722 0.0
O160 O 0.14528 0.16947 0.43799 0.0
C161 C 0.17855 0.25228 0.4191 0.0
C162 C 0.08901 0.31833 0.42968 0.0
C163 C 0.11167 0.17387 0.43482 0.0
O164 O 0.14378 0.26021 0.42103 0.0
O165 O 0.20059 0.2355 0.42506 0.0
O166 O 0.09616 0.26137 0.4469 0.0
O167 O 0.15427 0.25043 0.44217 0.0
Co168 Co 0.74253 0.88865 0.55857 0.0
O169 O 0.68843 0.88256 0.558 0.0
O170 O 0.7176 0.93162 0.56456 0.0
C171 C 0.75443 0.8729 0.54312 0.0
O172 O 0.79792 0.90503 0.5601 0.0
Co173 Co 0.7949 0.81884 0.55525 0.0
O174 O 0.83498 0.858 0.55453 0.0
C175 C 0.75107 0.82547 0.57321 0.0
C176 C 0.6859 0.91494 0.56236 0.0
C177 C 0.83052 0.89175 0.55758 0.0
O178 O 0.74356 0.86029 0.57123 0.0
O179 O 0.76792 0.80323 0.56732 0.0
O180 O 0.74338 0.90697 0.54524 0.0
O181 O 0.75401 0.84907 0.55016 0.0
Co182 Co 0.11425 0.24184 0.8089 0.0
O183 O 0.12014 0.18781 0.80836 0.0
O184 O 0.07102 0.21713 0.81485 0.0
C185 C 0.13041 0.25329 0.79347 0.0
O186 O 0.09821 0.29727 0.81037 0.0
Co187 Co 0.18431 0.29366 0.80561 0.0
O188 O 0.14522 0.33376 0.80456 0.0
C189 C 0.17659 0.25134 0.8238 0.0
C190 C 0.08775 0.18539 0.81271 0.0
C191 C 0.11151 0.32963 0.80768 0.0
O192 O 0.14224 0.24279 0.82158 0.0
O193 O 0.19905 0.26855 0.81803 0.0
O194 O 0.09609 0.24294 0.79557 0.0
O195 O 0.15417 0.25267 0.80053 0.0
Co196 Co 0.76152 0.61537 0.05882 0.0
O197 O 0.81574 0.62048 0.05829 0.0
O198 O 0.78552 0.57229 0.06496 0.0
C199 C 0.75012 0.63064 0.04332 0.0
O200 O 0.70588 0.59993 0.06032 0.0
Co201 Co 0.71026 0.68578 0.05526 0.0
O202 O 0.66956 0.64723 0.05459 0.0
C203 C 0.7537 0.67924 0.07328 0.0
C204 C 0.81757 0.58824 0.06274 0.0
C205 C 0.6735 0.61355 0.05773 0.0
O206 O 0.76076 0.64425 0.07139 0.0
O207 O 0.73723 0.7015 0.06733 0.0
O208 O 0.76059 0.59649 0.04555 0.0
O209 O 0.75082 0.65479 0.05029 0.0
Co210 Co 0.38882 0.26019 0.30852 0.0
O211 O 0.38449 0.31442 0.30799 0.0
O212 O 0.4325 0.28362 0.31457 0.0
C213 C 0.37282 0.24921 0.29306 0.0
O214 O 0.40342 0.20439 0.31002 0.0
Co215 Co 0.31773 0.20999 0.30508 0.0
O216 O 0.35579 0.16885 0.30416 0.0
C217 C 0.32589 0.25189 0.32332 0.0
C218 C 0.41684 0.31586 0.31239 0.0
C219 C 0.38949 0.17228 0.30734 0.0
O220 O 0.36043 0.25986 0.32116 0.0
O221 O 0.30324 0.23518 0.31751 0.0
O222 O 0.40732 0.25868 0.29524 0.0
O223 O 0.34887 0.25039 0.30007 0.0
C224 C 0.23315 0.3373 0.09032 0.0
C225 C 0.24236 0.31237 0.08277 0.0
C226 C 0.22764 0.32363 0.09967 0.0
C227 C 0.20778 0.23759 0.11387 0.0
H228 H 0.26635 0.28776 0.13374 0.0
C229 C 0.23836 0.16953 0.15105 0.0
C230 C 0.24219 0.19354 0.15906 0.0
C231 C 0.23307 0.18467 0.14182 0.0
C232 C 0.24915 0.27377 0.12836 0.0
H233 H 0.25121 0.25331 0.07908 0.0
H234 H 0.24142 0.22962 0.09537 0.0
H235 H 0.26544 0.31362 0.11751 0.0
H236 H 0.24096 0.25204 0.16378 0.0
H237 H 0.23047 0.27826 0.14782 0.0
H238 H 0.1915 0.19764 0.12472 0.0
C239 C 0.23853 0.25969 0.09405 0.0
C240 C 0.24873 0.28862 0.11904 0.0
C241 C 0.24444 0.27336 0.08473 0.0
C242 C 0.23878 0.2328 0.15773 0.0
C243 C 0.23296 0.24786 0.14855 0.0
C244 C 0.20787 0.22289 0.12324 0.0
C245 C 0.23075 0.28474 0.10165 0.0
C246 C 0.22841 0.27047 0.11168 0.0
C247 C 0.231 0.2241 0.14044 0.0
C248 C 0.22889 0.24059 0.13058 0.0
H249 H 0.23122 0.36749 0.08906 0.0
H250 H 0.22135 0.34351 0.1054 0.0
H251 H 0.19163 0.2232 0.10834 0.0
H252 H 0.24093 0.13915 0.15185 0.0
H253 H 0.23204 0.16549 0.13574 0.0
C254 C 0.83333 0.73689 0.4014 0.0
C255 C 0.8095 0.7406 0.40945 0.0
C256 C 0.81798 0.73151 0.3922 0.0
C257 C 0.72851 0.74721 0.37885 0.0
H258 H 0.77914 0.69018 0.35876 0.0
C259 C 0.66526 0.7322 0.34072 0.0
C260 C 0.69036 0.74148 0.33322 0.0
C261 C 0.67877 0.72649 0.35009 0.0
C262 C 0.76472 0.70619 0.36432 0.0
H263 H 0.75109 0.73908 0.41427 0.0
H264 H 0.72451 0.72846 0.39834 0.0
H265 H 0.80479 0.68986 0.37513 0.0
H266 H 0.74953 0.75031 0.3296 0.0
H267 H 0.7729 0.7402 0.34591 0.0
H268 H 0.68856 0.7636 0.36804 0.0
C269 C 0.75493 0.73109 0.39903 0.0
C270 C 0.77948 0.70617 0.37368 0.0
C271 C 0.7702 0.73698 0.40818 0.0
C272 C 0.72935 0.74349 0.33522 0.0
C273 C 0.74284 0.73739 0.34455 0.0
C274 C 0.7136 0.74692 0.36954 0.0
C275 C 0.77851 0.72923 0.39088 0.0
C276 C 0.7618 0.72707 0.38104 0.0
C277 C 0.71765 0.72947 0.35211 0.0
C278 C 0.7318 0.72682 0.36215 0.0
H279 H 0.86372 0.73962 0.40215 0.0
H280 H 0.83702 0.73058 0.38608 0.0
H281 H 0.71451 0.76429 0.38426 0.0
H282 H 0.63509 0.73033 0.33942 0.0
H283 H 0.65876 0.72013 0.35578 0.0
C284 C 0.26785 0.23325 0.58426 0.0
C285 C 0.26388 0.19402 0.58297 0.0
C286 C 0.27372 0.24837 0.59342 0.0
C287 C 0.29775 0.22356 0.61881 0.0
H288 H 0.24038 0.31459 0.62434 0.0
C289 C 0.25936 0.2737 0.6572 0.0
C290 C 0.26125 0.31268 0.6592 0.0
C291 C 0.2658 0.26021 0.64788 0.0
C292 C 0.25706 0.28952 0.62288 0.0
H293 H 0.26433 0.13972 0.59023 0.0
H294 H 0.27336 0.16619 0.60633 0.0
H295 H 0.24011 0.28872 0.60812 0.0
H296 H 0.2726 0.36793 0.65301 0.0
H297 H 0.28342 0.34426 0.63668 0.0
H298 H 0.3133 0.22381 0.63376 0.0
C299 C 0.27268 0.18528 0.60022 0.0
C300 C 0.257 0.27465 0.61356 0.0
C301 C 0.26732 0.17007 0.591 0.0
C302 C 0.2708 0.33777 0.65171 0.0
C303 C 0.27686 0.32426 0.64236 0.0
C304 C 0.2975 0.23828 0.62817 0.0
C305 C 0.2752 0.2247 0.60156 0.0
C306 C 0.27712 0.24133 0.61141 0.0
C307 C 0.27396 0.28539 0.64034 0.0
C308 C 0.27689 0.27126 0.63031 0.0
H309 H 0.26598 0.25243 0.57818 0.0
H310 H 0.27656 0.27875 0.59413 0.0
H311 H 0.31402 0.1982 0.61739 0.0
H312 H 0.25235 0.25353 0.6628 0.0
H313 H 0.26305 0.23015 0.64652 0.0
C314 C 0.83436 0.76649 0.8408 0.0
C315 C 0.81045 0.76364 0.83274 0.0
C316 C 0.81913 0.77159 0.85002 0.0
C317 C 0.72951 0.75616 0.86327 0.0
H318 H 0.78109 0.81055 0.88368 0.0
C319 C 0.66666 0.76872 0.90149 0.0
C320 C 0.69161 0.75846 0.90894 0.0
C321 C 0.68024 0.77498 0.89215 0.0
C322 C 0.76641 0.79528 0.87804 0.0
H323 H 0.7521 0.76652 0.82793 0.0
H324 H 0.72573 0.77669 0.8439 0.0
H325 H 0.80663 0.81206 0.86731 0.0
H326 H 0.75063 0.74836 0.9125 0.0
H327 H 0.77414 0.75939 0.89624 0.0
H328 H 0.68941 0.73932 0.874 0.0
C329 C 0.75609 0.77358 0.84319 0.0
C330 C 0.78109 0.79599 0.86868 0.0
C331 C 0.77124 0.76794 0.83402 0.0
C332 C 0.73056 0.75594 0.90692 0.0
C333 C 0.74413 0.76257 0.89762 0.0
C334 C 0.71468 0.75578 0.87259 0.0
C335 C 0.77971 0.77445 0.85135 0.0
C336 C 0.76306 0.77603 0.8612 0.0
C337 C 0.71906 0.77155 0.89011 0.0
C338 C 0.73322 0.77491 0.88009 0.0
H339 H 0.8647 0.76322 0.84004 0.0
H340 H 0.8382 0.77177 0.85614 0.0
H341 H 0.71523 0.73978 0.85777 0.0
H342 H 0.63652 0.77102 0.9028 0.0
H343 H 0.66033 0.78216 0.8865 0.0
C344 C 0.73706 0.83419 0.59082 0.0
C345 C 0.74117 0.81023 0.58281 0.0
C346 C 0.73134 0.819 0.60003 0.0
C347 C 0.74693 0.72984 0.61349 0.0
H348 H 0.68881 0.78027 0.63341 0.0
C349 C 0.73139 0.66674 0.65159 0.0
C350 C 0.74036 0.69193 0.65909 0.0
C351 C 0.72561 0.68016 0.64221 0.0
C352 C 0.70511 0.76591 0.6279 0.0
H353 H 0.73992 0.75176 0.57806 0.0
H354 H 0.72872 0.72545 0.59398 0.0
H355 H 0.68902 0.80582 0.61703 0.0
H356 H 0.74843 0.75118 0.66271 0.0
H357 H 0.73823 0.77442 0.64639 0.0
H358 H 0.76313 0.69007 0.62436 0.0
C359 C 0.73131 0.75585 0.59327 0.0
C360 C 0.7054 0.78061 0.61853 0.0
C361 C 0.73755 0.77097 0.58412 0.0
C362 C 0.74186 0.73093 0.65709 0.0
C363 C 0.73571 0.74434 0.64775 0.0
C364 C 0.74634 0.715 0.62281 0.0
C365 C 0.72911 0.77956 0.60139 0.0
C366 C 0.72668 0.76298 0.61123 0.0
C367 C 0.72823 0.71905 0.64019 0.0
C368 C 0.72583 0.73311 0.63014 0.0
H369 H 0.73976 0.86457 0.59004 0.0
H370 H 0.73011 0.83813 0.60612 0.0
H371 H 0.76431 0.71589 0.60813 0.0
H372 H 0.7299 0.63655 0.65288 0.0
H373 H 0.71957 0.66008 0.63652 0.0
C374 C 0.27026 0.23366 0.90852 0.0
C375 C 0.30954 0.23744 0.90978 0.0
C376 C 0.25495 0.22796 0.89937 0.0
C377 C 0.27947 0.20429 0.87393 0.0
H378 H 0.18858 0.26206 0.86848 0.0
C379 C 0.22971 0.24405 0.83561 0.0
C380 C 0.19075 0.24202 0.83357 0.0
C381 C 0.24311 0.23744 0.84493 0.0
C382 C 0.21362 0.24528 0.86993 0.0
H383 H 0.36372 0.23688 0.90245 0.0
H384 H 0.33696 0.2282 0.88639 0.0
H385 H 0.21442 0.26176 0.88472 0.0
H386 H 0.13544 0.23034 0.83969 0.0
H387 H 0.15896 0.21925 0.85603 0.0
H388 H 0.27925 0.18924 0.85895 0.0
C389 C 0.31795 0.22884 0.89251 0.0
C390 C 0.22845 0.24501 0.87925 0.0
C391 C 0.33333 0.23402 0.90171 0.0
C392 C 0.1656 0.23224 0.84102 0.0
C393 C 0.17901 0.22602 0.85038 0.0
C394 C 0.26479 0.20489 0.86457 0.0
C395 C 0.27849 0.22648 0.89121 0.0
C396 C 0.26174 0.22475 0.88137 0.0
C397 C 0.21785 0.22897 0.85243 0.0
C398 C 0.2319 0.22567 0.86246 0.0
H399 H 0.25119 0.23553 0.91462 0.0
H400 H 0.22454 0.22526 0.89869 0.0
H401 H 0.30479 0.18791 0.87533 0.0
H402 H 0.24993 0.25125 0.83003 0.0
H403 H 0.27315 0.24025 0.84632 0.0
C404 C 0.76777 0.67077 0.0909 0.0
C405 C 0.7637 0.69463 0.08286 0.0
C406 C 0.77367 0.68607 0.10008 0.0
C407 C 0.75853 0.7754 0.11346 0.0
H408 H 0.81637 0.72479 0.13341 0.0
C409 C 0.77334 0.8381 0.1516 0.0
C410 C 0.76415 0.8128 0.15907 0.0
C411 C 0.77939 0.8248 0.14223 0.0
C412 C 0.80016 0.73921 0.12789 0.0
H413 H 0.7652 0.75301 0.07804 0.0
H414 H 0.77668 0.77951 0.09393 0.0
H415 H 0.81624 0.69928 0.11703 0.0
H416 H 0.75602 0.7535 0.16263 0.0
H417 H 0.76668 0.73048 0.14632 0.0
H418 H 0.74231 0.81516 0.12432 0.0
C419 C 0.77394 0.74911 0.09325 0.0
C420 C 0.79992 0.72453 0.11853 0.0
C421 C 0.76753 0.73389 0.08412 0.0
C422 C 0.76273 0.77383 0.15704 0.0
C423 C 0.76916 0.76055 0.14771 0.0
C424 C 0.75907 0.79022 0.12278 0.0
C425 C 0.77612 0.72551 0.10139 0.0
C426 C 0.77869 0.7422 0.11122 0.0
C427 C 0.77684 0.78593 0.14018 0.0
C428 C 0.77945 0.77201 0.13012 0.0
H429 H 0.76491 0.64039 0.09015 0.0
H430 H 0.77486 0.66703 0.10619 0.0
H431 H 0.74122 0.78938 0.10809 0.0
H432 H 0.77478 0.86827 0.15293 0.0
H433 H 0.78559 0.84496 0.13657 0.0
C434 C 0.1699 0.26581 0.40147 0.0
C435 C 0.1939 0.26157 0.40947 0.0
C436 C 0.18507 0.2711 0.39224 0.0
C437 C 0.27394 0.2543 0.37873 0.0
H438 H 0.22383 0.31277 0.35881 0.0
C439 C 0.33701 0.2698 0.34062 0.0
C440 C 0.31177 0.26103 0.3331 0.0
C441 C 0.32362 0.27544 0.35 0.0
C442 C 0.23809 0.29636 0.36432 0.0
H443 H 0.25246 0.26202 0.41418 0.0
H444 H 0.27875 0.27248 0.39822 0.0
H445 H 0.19846 0.31292 0.3752 0.0
H446 H 0.25247 0.25314 0.32948 0.0
H447 H 0.22929 0.26315 0.34581 0.0
H448 H 0.31346 0.23771 0.36784 0.0
C449 C 0.24831 0.27033 0.39896 0.0
C450 C 0.2235 0.29628 0.37369 0.0
C451 C 0.23321 0.26453 0.40813 0.0
C452 C 0.27275 0.25956 0.33511 0.0
C453 C 0.25938 0.26559 0.34445 0.0
C454 C 0.28869 0.2547 0.3694 0.0
C455 C 0.22454 0.27275 0.39086 0.0
C456 C 0.24101 0.27489 0.38099 0.0
C457 C 0.28472 0.27291 0.35202 0.0
C458 C 0.27069 0.27535 0.36207 0.0
H459 H 0.13948 0.2636 0.40227 0.0
H460 H 0.16588 0.27247 0.38616 0.0
H461 H 0.28778 0.23684 0.38409 0.0
H462 H 0.36721 0.27125 0.33932 0.0
H463 H 0.34374 0.28136 0.3557 0.0
C464 C 0.27411 0.17943 0.21059 0.0
C465 C 0.26736 0.14119 0.20843 0.0
C466 C 0.28643 0.19012 0.21974 0.0
C467 C 0.33459 0.15587 0.24141 0.0
H468 H 0.28392 0.24018 0.25383 0.0
C469 C 0.38927 0.22861 0.27629 0.0
C470 C 0.36184 0.23578 0.28338 0.0
C471 C 0.37845 0.21579 0.26715 0.0
C472 C 0.29824 0.21651 0.25047 0.0
H473 H 0.26881 0.08405 0.2141 0.0
H474 H 0.2907 0.10283 0.23017 0.0
H475 H 0.26353 0.21973 0.23785 0.0
H476 H 0.3017 0.23503 0.28654 0.0
H477 H 0.28287 0.21309 0.27058 0.0
H478 H 0.36934 0.15278 0.25407 0.0
C479 C 0.28639 0.12444 0.22474 0.0
C480 C 0.28677 0.205 0.2413 0.0
C481 C 0.27367 0.11374 0.21558 0.0
C482 C 0.32348 0.22985 0.2812 0.0
C483 C 0.31267 0.21743 0.27206 0.0
C484 C 0.34635 0.16767 0.25056 0.0
C485 C 0.29258 0.16279 0.22692 0.0
C486 C 0.30478 0.17456 0.23668 0.0
C487 C 0.34 0.21036 0.26493 0.0
C488 C 0.32817 0.19802 0.25518 0.0
H489 H 0.26962 0.20123 0.20521 0.0
H490 H 0.29139 0.21983 0.22119 0.0
H491 H 0.3491 0.13248 0.23798 0.0
H492 H 0.41906 0.23283 0.27779 0.0
H493 H 0.40007 0.21078 0.26176 0.0
C494 C 0.83235 0.78983 0.46003 0.0
C495 C 0.8648 0.76747 0.45867 0.0
C496 C 0.82289 0.8031 0.4692 0.0
C497 C 0.82696 0.77913 0.49415 0.0
H498 H 0.81427 0.88608 0.4995 0.0
C499 C 0.79239 0.83077 0.53243 0.0
C500 C 0.76901 0.86257 0.53352 0.0
C501 C 0.80613 0.82057 0.52337 0.0
C502 C 0.81704 0.85606 0.49812 0.0
H503 H 0.91268 0.74123 0.4658 0.0
H504 H 0.89515 0.76335 0.48196 0.0
H505 H 0.83413 0.86561 0.48346 0.0
H506 H 0.74138 0.90858 0.52599 0.0
H507 H 0.76356 0.88971 0.51005 0.0
H508 H 0.80805 0.76894 0.50852 0.0
C509 C 0.87757 0.77103 0.47587 0.0
C510 C 0.82875 0.84447 0.48895 0.0
C511 C 0.88757 0.7585 0.46665 0.0
C512 C 0.75955 0.88403 0.52536 0.0
C513 C 0.77257 0.87331 0.51623 0.0
C514 C 0.81445 0.79059 0.50324 0.0
C515 C 0.84521 0.79349 0.47719 0.0
C516 C 0.8339 0.80594 0.48693 0.0
C517 C 0.79603 0.84134 0.51511 0.0
C518 C 0.80942 0.82925 0.50538 0.0
H519 H 0.8143 0.79726 0.45402 0.0
H520 H 0.79767 0.82019 0.47008 0.0
H521 H 0.83028 0.7492 0.49269 0.0
H522 H 0.80047 0.81387 0.53861 0.0
H523 H 0.82489 0.79643 0.5229 0.0
C524 C 0.22936 0.32389 0.71105 0.0
C525 C 0.23579 0.36221 0.70892 0.0
C526 C 0.217 0.31302 0.72019 0.0
C527 C 0.16809 0.34668 0.7418 0.0
H528 H 0.21979 0.26328 0.75435 0.0
C529 C 0.11396 0.27345 0.77666 0.0
C530 C 0.14136 0.26688 0.78381 0.0
C531 C 0.12474 0.28634 0.76752 0.0
C532 C 0.20517 0.28668 0.75095 0.0
H533 H 0.23368 0.4193 0.71461 0.0
H534 H 0.21168 0.40021 0.73063 0.0
H535 H 0.24008 0.28378 0.73836 0.0
H536 H 0.20139 0.26884 0.78705 0.0
H537 H 0.22017 0.29088 0.77109 0.0
H538 H 0.13312 0.34944 0.75442 0.0
C539 C 0.2163 0.37867 0.7252 0.0
C540 C 0.21659 0.29822 0.74178 0.0
C541 C 0.22909 0.38955 0.71607 0.0
C542 C 0.17964 0.27354 0.78168 0.0
C543 C 0.19043 0.28601 0.77254 0.0
C544 C 0.15637 0.33484 0.75095 0.0
C545 C 0.21045 0.34026 0.72736 0.0
C546 C 0.19822 0.32835 0.73712 0.0
C547 C 0.16312 0.29244 0.76536 0.0
C548 C 0.17493 0.30482 0.75562 0.0
H549 H 0.23417 0.30219 0.70567 0.0
H550 H 0.21232 0.28325 0.72163 0.0
H551 H 0.15331 0.36983 0.73833 0.0
H552 H 0.08422 0.26867 0.77812 0.0
H553 H 0.10315 0.29086 0.7621 0.0
C554 C 0.74494 0.61868 0.02559 0.0
C555 C 0.73584 0.64075 0.03367 0.0
C556 C 0.73219 0.62916 0.01642 0.0
C557 C 0.6921 0.71198 0.00314 0.0
H558 H 0.67036 0.63634 0.98366 0.0
C559 C 0.61815 0.74376 0.96669 0.0
C560 C 0.64025 0.73398 0.95865 0.0
C561 C 0.62842 0.7314 0.9759 0.0
C562 C 0.67636 0.65765 0.98906 0.0
H563 H 0.70529 0.69031 0.03858 0.0
H564 H 0.68133 0.70739 0.02279 0.0
H565 H 0.69012 0.61632 -0.00026 0.0
H566 H 0.6898 0.70292 0.95389 0.0
H567 H 0.70693 0.68032 0.96997 0.0
H568 H 0.67693 0.75313 0.99245 0.0
C569 C 0.69961 0.68291 0.02336 0.0
C570 C 0.68799 0.6463 -0.00175 0.0
C571 C 0.71309 0.67293 0.03247 0.0
C572 C 0.67229 0.71098 0.95995 0.0
C573 C 0.68202 0.69791 0.96912 0.0
C574 C 0.67967 0.72322 0.99402 0.0
C575 C 0.70937 0.66151 0.01518 0.0
C576 C 0.69627 0.67334 0.00541 0.0
C577 C 0.66039 0.70835 0.97717 0.0
C578 C 0.67197 0.69617 0.98691 0.0
H579 H 0.76263 0.59381 0.02633 0.0
H580 H 0.7409 0.61225 0.01031 0.0
H581 H 0.69904 0.73377 0.00833 0.0
H582 H 0.59336 0.76151 0.96588 0.0
H583 H 0.61136 0.73972 0.98204 0.0
C584 C 0.28002 0.32758 0.03131 0.0
C585 C 0.26808 0.36474 0.0332 0.0
C586 C 0.29405 0.31777 0.02225 0.0
C587 C 0.34125 0.30885 0.0042 0.0
H588 H 0.2899 0.34625 0.98141 0.0
C589 C 0.39333 0.27396 0.96566 0.0
C590 C 0.3652 0.26566 0.95883 0.0
C591 C 0.38346 0.28846 0.9747 0.0
C592 C 0.30446 0.3354 0.98771 0.0
H593 H 0.26171 0.42089 0.02713 0.0
H594 H 0.28655 0.40383 0.01127 0.0
H595 H 0.26879 0.3666 -0.0027 0.0
H596 H 0.30476 0.26558 0.9561 0.0
H597 H 0.2875 0.28984 0.97191 0.0
H598 H 0.37595 0.27648 0.99463 0.0
C599 C 0.28466 0.38217 0.01678 0.0
C600 C 0.29266 0.34747 -0.00319 0.0
C601 C 0.27058 0.39198 0.02586 0.0
C602 C 0.32709 0.27192 0.96121 0.0
C603 C 0.31722 0.28612 0.97025 0.0
C604 C 0.35297 0.29668 0.9951 0.0
C605 C 0.29654 0.34491 0.01487 0.0
C606 C 0.31061 0.33397 0.00517 0.0
C607 C 0.34526 0.29471 0.9771 0.0
C608 C 0.3344 0.30944 0.98675 0.0
H609 H 0.27836 0.30592 0.03682 0.0
H610 H 0.30234 0.28869 0.02098 0.0
H611 H 0.35605 0.29835 0.0105 0.0
H612 H 0.42297 0.26965 0.96399 0.0
H613 H 0.40579 0.29517 0.97977 0.0
C614 C 0.67911 0.77217 0.28132 0.0
C615 C 0.64082 0.76545 0.28344 0.0
C616 C 0.68992 0.78464 0.27218 0.0
C617 C 0.65587 0.83341 0.25058 0.0
H618 H 0.74023 0.78303 0.23809 0.0
C619 C 0.72918 0.88913 0.21588 0.0
C620 C 0.73651 0.86194 0.20873 0.0
C621 C 0.71613 0.87802 0.22497 0.0
C622 C 0.71655 0.79727 0.24148 0.0
H623 H 0.58372 0.76708 0.27773 0.0
H624 H 0.6027 0.78925 0.26171 0.0
H625 H 0.71964 0.76219 0.25403 0.0
H626 H 0.73571 0.80194 0.20545 0.0
H627 H 0.71337 0.7826 0.22133 0.0
H628 H 0.65291 0.86854 0.23798 0.0
C629 C 0.62426 0.7848 0.26714 0.0
C630 C 0.70496 0.78554 0.25062 0.0
C631 C 0.61345 0.77191 0.27628 0.0
C632 C 0.73043 0.82354 0.21082 0.0
C633 C 0.71778 0.81243 0.21992 0.0
C634 C 0.66775 0.84543 0.24146 0.0
C635 C 0.66264 0.791 0.265 0.0
C636 C 0.6745 0.80345 0.25526 0.0
C637 C 0.71061 0.83952 0.2271 0.0
C638 C 0.69813 0.82736 0.23681 0.0
H639 H 0.70084 0.76755 0.2867 0.0
H640 H 0.71966 0.78959 0.27075 0.0
H641 H 0.63246 0.84784 0.25403 0.0
H642 H 0.7335 0.91895 0.21445 0.0
H643 H 0.71104 0.89945 0.2304 0.0
C644 C 0.11776 0.24586 0.46686 0.0
C645 C 0.13994 0.23618 0.45883 0.0
C646 C 0.12792 0.23334 0.47607 0.0
C647 C 0.17579 0.15926 0.48916 0.0
H648 H 0.19872 0.23495 0.50851 0.0
C649 C 0.24496 0.11938 0.52556 0.0
C650 C 0.23606 0.14129 0.53369 0.0
C651 C 0.23206 0.1301 0.51642 0.0
C652 C 0.19171 0.21328 0.5033 0.0
H653 H 0.18952 0.20514 0.45407 0.0
H654 H 0.20642 0.18225 0.47013 0.0
H655 H 0.17637 0.25466 0.49269 0.0
H656 H 0.20574 0.19083 0.53869 0.0
H657 H 0.18152 0.2083 0.52297 0.0
H658 H 0.18975 0.11769 0.49977 0.0
C659 C 0.18154 0.19987 0.46929 0.0
C660 C 0.17912 0.22471 0.49421 0.0
C661 C 0.17193 0.21311 0.46013 0.0
C662 C 0.21338 0.17356 0.53255 0.0
C663 C 0.19975 0.18378 0.52348 0.0
C664 C 0.18757 0.14771 0.49832 0.0
C665 C 0.15984 0.2102 0.47733 0.0
C666 C 0.17135 0.19782 0.48706 0.0
C667 C 0.20928 0.16253 0.51525 0.0
C668 C 0.19596 0.17458 0.50551 0.0
H669 H 0.09301 0.26367 0.46605 0.0
H670 H 0.11081 0.24158 0.4822 0.0
H671 H 0.16977 0.13806 0.48373 0.0
H672 H 0.26259 0.09445 0.52624 0.0
H673 H 0.24061 0.11331 0.51027 0.0
C674 C 0.77409 0.61509 0.71591 0.0
C675 C 0.7671 0.64235 0.70876 0.0
C676 C 0.78738 0.62605 0.72499 0.0
C677 C 0.78839 0.70701 0.74144 0.0
H678 H 0.87136 0.65489 0.75407 0.0
C679 C 0.82545 0.73147 0.78128 0.0
C680 C 0.8638 0.73731 0.7835 0.0
C681 C 0.8147 0.71924 0.77212 0.0
C682 C 0.84829 0.66977 0.75059 0.0
H683 H 0.76873 0.70233 0.70545 0.0
H684 H 0.79152 0.7214 0.7213 0.0
H685 H 0.85063 0.63447 0.73802 0.0
H686 H 0.92106 0.7344 0.77794 0.0
H687 H 0.90216 0.71268 0.76186 0.0
H688 H 0.78591 0.74226 0.75396 0.0
C689 C 0.78665 0.69163 0.71991 0.0
C690 C 0.83623 0.6579 0.74147 0.0
C691 C 0.77374 0.68067 0.71083 0.0
C692 C 0.89129 0.73024 0.77641 0.0
C693 C 0.88051 0.71762 0.76724 0.0
C694 C 0.80016 0.7186 0.75057 0.0
C695 C 0.79349 0.66448 0.7271 0.0
C696 C 0.80622 0.67651 0.7368 0.0
C697 C 0.84207 0.71229 0.765 0.0
C698 C 0.83021 0.70012 0.75524 0.0
H699 H 0.76934 0.58533 0.71449 0.0
H700 H 0.79219 0.60457 0.73043 0.0
H701 H 0.76499 0.72167 0.73804 0.0
H702 H 0.80362 0.73656 0.78661 0.0
H703 H 0.78491 0.71494 0.77063 0.0
C704 C 0.14473 0.03216 0.17596 0.0
C705 C 0.14895 0.0713 0.17731 0.0
C706 C 0.10856 0.01618 0.175 0.0
C707 C 0.00733 0.03824 0.18032 0.0
H708 H 0.9885 0.94775 0.16528 0.0
C709 C 0.8572 0.97464 0.17587 0.0
C710 C 0.85467 0.93583 0.17797 0.0
C711 C 0.89263 0.99193 0.17472 0.0
C712 C 0.99339 0.97304 0.16951 0.0
H713 H 0.11889 0.12464 0.17817 0.0
H714 H 0.05636 0.09728 0.17609 0.0
H715 H 0.05134 0.97657 0.16509 0.0
H716 H 0.88718 0.88446 0.18014 0.0
H717 H 0.94875 0.91449 0.17799 0.0
H718 H 0.94924 0.03478 0.18466 0.0
C719 C 0.08056 0.07849 0.17615 0.0
C720 C 0.02948 0.98947 0.16946 0.0
C721 C 0.11653 0.09429 0.17726 0.0
C722 C 0.88817 0.91446 0.17857 0.0
C723 C 0.92346 0.93159 0.17727 0.0
C724 C 0.9712 0.0221 0.18027 0.0
C725 C 0.07589 0.03911 0.17524 0.0
C726 C 0.03709 0.02216 0.17493 0.0
C727 C 0.92615 0.97061 0.17549 0.0
C728 C 0.9639 0.98913 0.17494 0.0
H729 H 0.16922 0.01373 0.17601 0.0
H730 H 0.10626 0.98573 0.17441 0.0
H731 H 0.01206 0.06283 0.18481 0.0
H732 H 0.83189 0.99183 0.17538 0.0
H733 H 0.89385 0.02204 0.17329 0.0
C734 C 0.03294 0.35984 0.4261 0.0
C735 C 0.07202 0.35578 0.42762 0.0
C736 C 0.01683 0.3959 0.42508 0.0
C737 C 0.03797 0.4974 0.43036 0.0
H738 H 0.94803 0.51516 0.415 0.0
C739 C 0.97368 0.64691 0.42536 0.0
C740 C 0.93481 0.64934 0.42742 0.0
C741 C 0.99117 0.61154 0.42432 0.0
C742 C 0.97316 0.51057 0.41932 0.0
H743 H 0.12515 0.38609 0.42875 0.0
H744 H 0.0976 0.44849 0.42655 0.0
H745 H 0.97736 0.45258 0.415 0.0
H746 H 0.88353 0.61671 0.42961 0.0
H747 H 0.9139 0.55519 0.42762 0.0
H748 H 0.03388 0.55558 0.43457 0.0
C749 C 0.07892 0.42421 0.42652 0.0
C750 C 0.98989 0.47462 0.41938 0.0
C751 C 0.09484 0.38832 0.4277 0.0
C752 C 0.91357 0.61579 0.42806 0.0
C753 C 0.9309 0.58053 0.42686 0.0
C754 C 0.02156 0.5334 0.43019 0.0
C755 C 0.03956 0.42869 0.42541 0.0
C756 C 0.02238 0.46738 0.42497 0.0
C757 C 0.97 0.57796 0.42515 0.0
C758 C 0.98878 0.54032 0.42475 0.0
H759 H 0.01461 0.33527 0.42605 0.0
H760 H 0.9864 0.39801 0.42435 0.0
H761 H 0.06238 0.49298 0.43494 0.0
H762 H 0.99079 0.67226 0.42485 0.0
H763 H 0.02133 0.61041 0.42295 0.0
C764 C 0.35882 0.47239 0.67661 0.0
C765 C 0.35469 0.43327 0.67803 0.0
C766 C 0.39494 0.4884 0.6756 0.0
C767 C 0.49635 0.46666 0.6808 0.0
H768 H 0.51468 0.55661 0.6655 0.0
C769 C 0.64632 0.53008 0.67594 0.0
C770 C 0.6489 0.56895 0.67796 0.0
C771 C 0.61086 0.51277 0.67487 0.0
C772 C 0.50993 0.53147 0.6698 0.0
H773 H 0.38485 0.38 0.67896 0.0
H774 H 0.4473 0.40742 0.67678 0.0
H775 H 0.45184 0.52775 0.6655 0.0
H776 H 0.61646 0.6204 0.68006 0.0
H777 H 0.55483 0.59034 0.67804 0.0
H778 H 0.55457 0.47029 0.68501 0.0
C779 C 0.42307 0.42618 0.67683 0.0
C780 C 0.47384 0.51502 0.66986 0.0
C781 C 0.38715 0.41034 0.678 0.0
C782 C 0.61543 0.59036 0.67854 0.0
C783 C 0.5801 0.5732 0.67733 0.0
C784 C 0.53247 0.48281 0.68063 0.0
C785 C 0.42766 0.46554 0.67583 0.0
C786 C 0.46642 0.48252 0.67542 0.0
C787 C 0.57736 0.53412 0.67564 0.0
C788 C 0.5396 0.51558 0.67522 0.0
H789 H 0.33429 0.49077 0.67664 0.0
H790 H 0.39719 0.51884 0.67495 0.0
H791 H 0.49177 0.44223 0.68536 0.0
H792 H 0.6716 0.51286 0.67546 0.0
H793 H 0.60959 0.48261 0.67352 0.0
C794 C 0.47398 0.14323 0.92623 0.0
C795 C 0.43475 0.14692 0.92754 0.0
C796 C 0.49042 0.1073 0.92521 0.0
C797 C 0.46916 0.00574 0.9303 0.0
H798 H 0.5601 0.9879 0.91535 0.0
C799 C 0.532 0.85596 0.92536 0.0
C800 C 0.57072 0.85291 0.92754 0.0
C801 C 0.51512 0.8916 0.92429 0.0
C802 C 0.53469 0.99253 0.91956 0.0
H803 H 0.38172 0.11624 0.92824 0.0
H804 H 0.40985 0.05416 0.92604 0.0
H805 H 0.53107 0.05068 0.9153 0.0
H806 H 0.6224 0.88472 0.9299 0.0
H807 H 0.59306 0.94673 0.92789 0.0
H808 H 0.47264 0.94749 0.93446 0.0
C809 C 0.42838 0.07855 0.92619 0.0
C810 C 0.51813 0.02857 0.91958 0.0
C811 C 0.41213 0.11426 0.92737 0.0
C812 C 0.59246 0.88612 0.92826 0.0
C813 C 0.57572 0.92166 0.92705 0.0
C814 C 0.4854 0.9697 0.93016 0.0
C815 C 0.46786 0.07437 0.92534 0.0
C816 C 0.48521 0.03577 0.92501 0.0
C817 C 0.53675 0.92484 0.92523 0.0
C818 C 0.51847 0.96272 0.92485 0.0
H819 H 0.49211 0.16794 0.92637 0.0
H820 H 0.52092 0.10537 0.92467 0.0
H821 H 0.44444 0.01016 0.93477 0.0
H822 H 0.51452 0.8309 0.92477 0.0
H823 H 0.48506 0.89319 0.92282 0.0
C824 C 0.14445 0.47301 0.06581 0.0
C825 C 0.1484 0.43389 0.06437 0.0
C826 C 0.10843 0.48916 0.06689 0.0
C827 C 0.00682 0.46777 0.06184 0.0
H828 H 0.98922 0.55801 0.07707 0.0
C829 C 0.85725 0.53151 0.06689 0.0
C830 C 0.85462 0.5703 0.06478 0.0
C831 C 0.89272 0.51423 0.06794 0.0
C832 C 0.99377 0.53279 0.07279 0.0
H833 H 0.11803 0.38073 0.06348 0.0
H834 H 0.05574 0.40837 0.06578 0.0
H835 H 0.05193 0.52888 0.07702 0.0
H836 H 0.88698 0.62168 0.0625 0.0
H837 H 0.94869 0.59167 0.0645 0.0
H838 H 0.94852 0.47157 0.05771 0.0
C839 C 0.08003 0.42704 0.06569 0.0
C840 C 0.02978 0.51618 0.0727 0.0
C841 C 0.11586 0.41107 0.06445 0.0
C842 C 0.88807 0.5917 0.0641 0.0
C843 C 0.92343 0.57457 0.0653 0.0
C844 C 0.97078 0.48406 0.06204 0.0
C845 C 0.07562 0.46642 0.0667 0.0
C846 C 0.03694 0.48357 0.06716 0.0
C847 C 0.92619 0.53554 0.06706 0.0
C848 C 0.96392 0.51694 0.06744 0.0
H849 H 0.16905 0.49131 0.06574 0.0
H850 H 0.10633 0.5196 0.06754 0.0
H851 H 0.01119 0.44326 0.0573 0.0
H852 H 0.83198 0.51429 0.06744 0.0
H853 H 0.894 0.48413 0.06937 0.0
C854 C 0.59326 0.6146 0.31462 0.0
C855 C 0.57019 0.64696 0.31452 0.0
C856 C 0.57756 0.57865 0.31583 0.0
C857 C 0.48876 0.52765 0.32276 0.0
H858 H 0.5339 0.44701 0.30767 0.0
C859 C 0.4136 0.38624 0.31392 0.0
C860 C 0.43498 0.35275 0.31448 0.0
C861 C 0.43076 0.42151 0.3152 0.0
C862 C 0.52128 0.46909 0.31203 0.0
H863 H 0.51257 0.66713 0.31583 0.0
H864 H 0.48473 0.60419 0.31759 0.0
H865 H 0.56188 0.50984 0.30735 0.0
H866 H 0.49104 0.32995 0.31701 0.0
H867 H 0.52131 0.39188 0.31907 0.0
H868 H 0.44716 0.48677 0.32707 0.0
C869 C 0.51518 0.60654 0.31697 0.0
C870 C 0.53737 0.50522 0.31188 0.0
C871 C 0.53106 0.64269 0.31591 0.0
C872 C 0.47383 0.35525 0.31655 0.0
C873 C 0.49116 0.39067 0.31768 0.0
C874 C 0.47237 0.49155 0.3228 0.0
C875 C 0.53819 0.57393 0.3168 0.0
C876 C 0.52134 0.53512 0.31722 0.0
C877 C 0.46984 0.42419 0.31693 0.0
C878 C 0.48839 0.46192 0.31741 0.0
H879 H 0.62362 0.617 0.31369 0.0
H880 H 0.59642 0.55451 0.31593 0.0
H881 H 0.4759 0.54964 0.32709 0.0
H882 H 0.38357 0.38526 0.31237 0.0
H883 H 0.41364 0.44679 0.3145 0.0
C884 C 0.61584 0.90929 0.56427 0.0
C885 C 0.64844 0.93204 0.56436 0.0
C886 C 0.57996 0.92529 0.56543 0.0
C887 C 0.52973 0.01437 0.57257 0.0
H888 H 0.44863 0.97056 0.55738 0.0
C889 C 0.38847 0.09082 0.56398 0.0
C890 C 0.3549 0.06957 0.56462 0.0
C891 C 0.42375 0.07347 0.56515 0.0
C892 C 0.47085 0.98283 0.56177 0.0
H893 H 0.66908 0.98938 0.56593 0.0
H894 H 0.60636 0.01772 0.5676 0.0
H895 H 0.51121 0.94199 0.557 0.0
H896 H 0.33201 0.01357 0.56715 0.0
H897 H 0.39388 0.98304 0.56901 0.0
H898 H 0.48924 0.05624 0.57697 0.0
C899 C 0.60842 0.9873 0.56687 0.0
C900 C 0.50684 0.96638 0.56159 0.0
C901 C 0.64446 0.97112 0.56587 0.0
C902 C 0.35736 0.03069 0.56664 0.0
C903 C 0.39275 0.0132 0.56765 0.0
C904 C 0.49379 0.03114 0.57264 0.0
C905 C 0.57557 0.96464 0.56654 0.0
C906 C 0.5369 0.9819 0.56697 0.0
C907 C 0.42633 0.03437 0.56683 0.0
C908 C 0.46399 0.01559 0.56721 0.0
H909 H 0.61801 0.87899 0.56323 0.0
H910 H 0.55564 0.90667 0.5654 0.0
H911 H 0.55181 0.02684 0.57695 0.0
H912 H 0.38753 0.12086 0.56246 0.0
H913 H 0.44909 0.09048 0.5644 0.0
C914 C 0.09411 0.11564 0.81492 0.0
C915 C 0.07094 0.14793 0.81483 0.0
C916 C 0.07853 0.07965 0.81615 0.0
C917 C 0.98997 0.02847 0.82317 0.0
H918 H 0.03506 0.94786 0.80807 0.0
C919 C 0.91479 0.88717 0.81429 0.0
C920 C 0.93612 0.85366 0.81484 0.0
C921 C 0.93198 0.92241 0.8156 0.0
C922 C 0.02246 0.96992 0.81244 0.0
H923 H 0.01328 0.16794 0.81618 0.0
H924 H 0.98565 0.10493 0.81798 0.0
H925 H 0.06295 0.01072 0.80772 0.0
H926 H 0.99212 0.83076 0.81739 0.0
H927 H 0.02246 0.89265 0.81949 0.0
H928 H 0.94845 0.98754 0.82752 0.0
C929 C 0.01608 0.10737 0.81733 0.0
C930 C 0.0385 0.00608 0.81227 0.0
C931 C 0.03184 0.14356 0.81625 0.0
C932 C 0.97496 0.85609 0.81693 0.0
C933 C 0.99232 0.89148 0.81809 0.0
C934 C 0.97363 0.99235 0.82323 0.0
C935 C 0.03919 0.07482 0.81715 0.0
C936 C 0.02246 0.03598 0.81761 0.0
C937 C 0.97104 0.92502 0.81734 0.0
C938 C 0.98963 0.96273 0.81783 0.0
H939 H 0.12445 0.11813 0.81396 0.0
H940 H 0.09747 0.05557 0.81625 0.0
H941 H 0.97712 0.05044 0.82751 0.0
H942 H 0.88476 0.88625 0.81272 0.0
H943 H 0.9149 0.94771 0.8149 0.0
C944 C 0.63852 0.94723 0.17842 0.0
C945 C 0.63909 0.91352 0.1838 0.0
C946 C 0.6051 0.96841 0.17758 0.0
C947 C 0.50035 0.9612 0.18117 0.0
H948 H 0.50558 0.07065 0.18156 0.0
C949 C 0.36579 0.05521 0.17815 0.0
C950 C 0.36508 0.08827 0.18379 0.0
C951 C 0.39907 0.03376 0.17736 0.0
C952 C 0.5035 0.04009 0.18152 0.0
H953 H 0.60496 0.87622 0.19271 0.0
H954 H 0.54756 0.91341 0.19149 0.0
H955 H 0.56371 0.03392 0.18187 0.0
H956 H 0.39867 0.12397 0.19323 0.0
H957 H 0.45576 0.08632 0.19209 0.0
H958 H 0.4401 0.96738 0.18128 0.0
C959 C 0.57242 0.92306 0.18765 0.0
C960 C 0.53699 0.01896 0.18154 0.0
C961 C 0.60559 0.9018 0.18841 0.0
C962 C 0.3982 0.09895 0.18872 0.0
C963 C 0.43119 0.07743 0.188 0.0
C964 C 0.46684 0.98234 0.18122 0.0
C965 C 0.57155 0.95656 0.18218 0.0
C966 C 0.53591 0.97919 0.1815 0.0
C967 C 0.4323 0.04471 0.18225 0.0
C968 C 0.46793 0.02209 0.18153 0.0
H969 H 0.66373 0.957 0.17474 0.0
H970 H 0.60549 0.99383 0.17323 0.0
H971 H 0.49829 0.93065 0.18093 0.0
H972 H 0.34085 0.04625 0.17423 0.0
H973 H 0.39887 0.00893 0.17279 0.0
C974 C 0.94767 0.86563 0.42829 0.0
C975 C 0.91411 0.86494 0.43374 0.0
C976 C 0.96876 0.89912 0.42744 0.0
C977 C 0.96115 0.00376 0.43107 0.0
H978 H 0.07066 0.99921 0.43151 0.0
C979 C 0.05461 0.13889 0.4284 0.0
C980 C 0.08753 0.13954 0.43409 0.0
C981 C 0.03328 0.10556 0.42751 0.0
C982 C 0.04007 1.00109 0.43145 0.0
H983 H 0.87704 0.89888 0.44275 0.0
H984 H 0.91403 0.95634 0.4415 0.0
H985 H 0.03425 0.94085 0.43172 0.0
H986 H 0.123 0.10585 0.44357 0.0
H987 H 0.08557 0.0487 0.44225 0.0
H988 H 0.96696 0.06403 0.43127 0.0
C989 C 0.92363 0.93156 0.43761 0.0
C990 C 0.01915 0.96748 0.43142 0.0
C991 C 0.90249 0.89834 0.4384 0.0
C992 C 0.09812 0.10636 0.43901 0.0
C993 C 0.07673 0.07334 0.43819 0.0
C994 C 0.98207 0.03739 0.43118 0.0
C995 C 0.95693 0.93259 0.43208 0.0
C996 C 0.97936 0.96832 0.43138 0.0
C997 C 0.04422 0.07225 0.43236 0.0
C998 C 0.02183 0.03654 0.43152 0.0
H999 H 0.95737 0.84049 0.42457 0.0
H1000 H 0.99407 0.89886 0.42304 0.0
H1001 H 0.93057 0.00563 0.43084 0.0
H1002 H 0.04573 0.16388 0.42448 0.0
H1003 H 0.00857 0.10578 0.42289 0.0
C1004 C 0.10513 0.40458 0.68901 0.0
C1005 C 0.13849 0.41574 0.68425 0.0
C1006 C 0.07213 0.4261 0.68829 0.0
C1007 C 0.03671 0.52171 0.68191 0.0
H1008 H 0.93985 0.47006 0.68192 0.0
C1009 C 0.8976 0.60179 0.6889 0.0
C1010 C 0.86443 0.59051 0.68408 0.0
C1011 C 0.93076 0.58049 0.68821 0.0
C1012 C 0.96657 0.48504 0.68178 0.0
H1013 H 0.16311 0.4586 0.675 0.0
H1014 H 0.10509 0.49592 0.67356 0.0
H1015 H 0.99802 0.43337 0.68163 0.0
H1016 H 0.84031 0.54774 0.67472 0.0
H1017 H 0.89856 0.51084 0.67331 0.0
H1018 H 0.00526 0.5734 0.68177 0.0
C1019 C 0.10471 0.47071 0.67799 0.0
C1020 C 1.00008 0.46393 0.68176 0.0
C1021 C 0.13799 0.44925 0.67879 0.0
C1022 C 0.86527 0.55717 0.67856 0.0
C1023 C 0.8987 0.53594 0.67779 0.0
C1024 C 0.0032 0.54283 0.68184 0.0
C1025 C 0.07125 0.4593 0.68271 0.0
C1026 C 0.03564 0.48194 0.682 0.0
C1027 C 0.93195 0.54739 0.68259 0.0
C1028 C 0.96763 0.52481 0.68194 0.0
H1029 H 0.10447 0.37919 0.69339 0.0
H1030 H 0.04736 0.41682 0.69224 0.0
H1031 H 0.06344 0.53667 0.68215 0.0
H1032 H 0.89798 0.62707 0.69332 0.0
H1033 H 0.95537 0.5898 0.69221 0.0
C1034 C 0.4017 0.39601 0.93853 0.0
C1035 C 0.41344 0.36266 0.93387 0.0
C1036 C 0.42275 0.4293 0.93776 0.0
C1037 C 0.5183 0.46526 0.93159 0.0
H1038 H 0.46626 0.56189 0.93151 0.0
C1039 C 0.59775 0.60401 0.93904 0.0
C1040 C 0.58714 0.63714 0.9341 0.0
C1041 C 0.57623 0.57104 0.93829 0.0
C1042 C 0.48133 0.53522 0.9314 0.0
H1043 H 0.45674 0.33841 0.92468 0.0
H1044 H 0.49323 0.39687 0.92315 0.0
H1045 H 0.42977 0.50354 0.93107 0.0
H1046 H 0.54517 0.66147 0.92454 0.0
H1047 H 0.50781 0.60348 0.92305 0.0
H1048 H 0.56986 0.4969 0.93166 0.0
C1049 C 0.46794 0.39704 0.92756 0.0
C1050 C 0.46035 0.50163 0.93129 0.0
C1051 C 0.44695 0.3635 0.9284 0.0
C1052 C 0.55408 0.63651 0.92846 0.0
C1053 C 0.53261 0.60325 0.92764 0.0
C1054 C 0.53928 0.49883 0.93162 0.0
C1055 C 0.45606 0.43043 0.93222 0.0
C1056 C 0.47852 0.46616 0.93156 0.0
C1057 C 0.54358 0.56997 0.9325 0.0
C1058 C 0.5211 0.5343 0.93171 0.0
H1059 H 0.37628 0.39644 0.94289 0.0
H1060 H 0.4131 0.45403 0.94165 0.0
H1061 H 0.53337 0.43861 0.93186 0.0
H1062 H 0.62275 0.60349 0.94356 0.0
H1063 H 0.58509 0.54643 0.94235 0.0
C1064 C 0.63838 0.55598 0.06379 0.0
C1065 C 0.63888 0.58979 0.05845 0.0
C1066 C 0.60501 0.53464 0.06457 0.0
C1067 C 0.50032 0.54206 0.06099 0.0
H1068 H 0.50508 0.43261 0.06028 0.0
C1069 C 0.36528 0.44876 0.06364 0.0
C1070 C 0.36439 0.416 0.05789 0.0
C1071 C 0.39871 0.46992 0.06453 0.0
C1072 C 0.50315 0.46318 0.06041 0.0
H1073 H 0.60474 0.62703 0.04952 0.0
H1074 H 0.5475 0.58966 0.05065 0.0
H1075 H 0.56341 0.46915 0.06011 0.0
H1076 H 0.3978 0.38052 0.04836 0.0
H1077 H 0.45518 0.41769 0.04967 0.0
H1078 H 0.44006 0.53616 0.06083 0.0
C1079 C 0.57233 0.58003 0.05451 0.0
C1080 C 0.53674 0.48417 0.06046 0.0
C1081 C 0.60543 0.6014 0.0538 0.0
C1082 C 0.39747 0.40532 0.05295 0.0
C1083 C 0.43063 0.42655 0.05376 0.0
C1084 C 0.46674 0.52108 0.06086 0.0
C1085 C 0.57148 0.5465 0.05996 0.0
C1086 C 0.53581 0.52394 0.06061 0.0
C1087 C 0.43191 0.45897 0.05963 0.0
C1088 C 0.46765 0.48135 0.06043 0.0
H1089 H 0.66358 0.54626 0.06749 0.0
H1090 H 0.6054 0.50914 0.06889 0.0
H1091 H 0.4984 0.57261 0.0613 0.0
H1092 H 0.34038 0.4577 0.06758 0.0
H1093 H 0.39865 0.49451 0.06918 0.0
C1094 C 0.4466 0.1366 0.31344 0.0
C1095 C 0.41291 0.13743 0.30805 0.0
C1096 C 0.46773 0.10312 0.3142 0.0
C1097 C 0.4602 0.99857 0.31043 0.0
H1098 H 0.56972 0.00339 0.31009 0.0
C1099 C 0.55381 0.86375 0.31347 0.0
C1100 C 0.58697 0.86297 0.30787 0.0
C1101 C 0.53239 0.89707 0.31423 0.0
C1102 C 0.53913 1.00143 0.31011 0.0
H1103 H 0.3756 0.10373 0.29904 0.0
H1104 H 0.41269 0.04622 0.30014 0.0
H1105 H 0.53318 0.06165 0.30984 0.0
H1106 H 0.62287 0.89642 0.29844 0.0
H1107 H 0.5853 0.95357 0.29954 0.0
H1108 H 0.46616 0.93832 0.31025 0.0
C1109 C 0.42237 0.07092 0.30404 0.0
C1110 C 0.51813 0.03499 0.31012 0.0
C1111 C 0.40117 0.10415 0.30335 0.0
C1112 C 0.59777 0.89601 0.30293 0.0
C1113 C 0.57629 0.92904 0.30361 0.0
C1114 C 0.48122 0.965 0.31034 0.0
C1115 C 0.45583 0.06977 0.30952 0.0
C1116 C 0.47834 0.03406 0.31015 0.0
C1117 C 0.5435 0.93025 0.30934 0.0
C1118 C 0.52099 0.96594 0.31006 0.0
H1119 H 0.45639 0.16164 0.31719 0.0
H1120 H 0.49313 0.1033 0.31857 0.0
H1121 H 0.42963 0.99663 0.31064 0.0
H1122 H 0.54474 0.83887 0.3174 0.0
H1123 H 0.50749 0.89694 0.31878 0.0
C1124 C 0.86525 0.94927 0.56382 0.0
C1125 C 0.86488 0.91588 0.55831 0.0
C1126 C 0.89853 0.9707 0.56469 0.0
C1127 C 0.00324 0.96378 0.56106 0.0
H1128 H 0.99842 0.07325 0.56103 0.0
C1129 C 0.13842 0.05673 0.56406 0.0
C1130 C 0.13919 0.08997 0.5585 0.0
C1131 C 0.10496 0.03557 0.56491 0.0
C1132 C 1.00038 0.04267 0.56098 0.0
H1133 H 0.89907 0.87959 0.54916 0.0
H1134 H 0.95614 0.91715 0.55043 0.0
H1135 H 0.94011 0.0367 0.56066 0.0
H1136 H 0.1055 0.12635 0.54924 0.0
H1137 H 0.0481 0.0892 0.55048 0.0
H1138 H 0.0635 0.96971 0.56091 0.0
C1139 C 0.9313 0.92634 0.55436 0.0
C1140 C 0.96679 0.02167 0.56091 0.0
C1141 C 0.89831 0.90486 0.55357 0.0
C1142 C 0.10594 0.10117 0.5537 0.0
C1143 C 0.07276 0.07994 0.55447 0.0
C1144 C 0.03682 0.98477 0.56105 0.0
C1145 C 0.93209 0.95936 0.56 0.0
C1146 C 0.96774 0.9819 0.5608 0.0
C1147 C 0.07162 0.047 0.56014 0.0
C1148 C 0.03589 0.02454 0.56086 0.0
H1149 H 0.84006 0.9585 0.56759 0.0
H1150 H 0.89808 0.99581 0.56915 0.0
H1151 H 0.0052 0.93321 0.56118 0.0
H1152 H 0.16345 0.04738 0.56789 0.0
H1153 H 0.10514 0.01056 0.56942 0.0
C1154 C 0.90153 0.60497 0.80381 0.0
C1155 C 0.9134 0.6384 0.80842 0.0
C1156 C 0.92267 0.57173 0.80456 0.0
C1157 C 0.01852 0.53599 0.81058 0.0
H1158 H 0.96663 0.43929 0.81088 0.0
C1159 C 0.09809 0.39705 0.80335 0.0
C1160 C 0.08744 0.36403 0.80832 0.0
C1161 C 0.0766 0.43006 0.80406 0.0
C1162 C 0.98167 0.46598 0.81093 0.0
H1163 H 0.95701 0.66283 0.81748 0.0
H1164 H 0.99364 0.60446 0.81897 0.0
H1165 H 0.93007 0.49758 0.81128 0.0
H1166 H 0.04548 0.33995 0.81793 0.0
H1167 H 0.00821 0.398 0.81935 0.0
H1168 H 0.07014 0.50444 0.8105 0.0
C1169 C 0.96819 0.60419 0.81463 0.0
C1170 C 0.96064 0.49954 0.81101 0.0
C1171 C 0.94711 0.63768 0.8138 0.0
C1172 C 0.05441 0.36481 0.81397 0.0
C1173 C 0.03299 0.39811 0.81476 0.0
C1174 C 0.03955 0.50245 0.81058 0.0
C1175 C 0.9562 0.57072 0.81002 0.0
C1176 C 0.97874 0.53503 0.81067 0.0
C1177 C 0.04395 0.43127 0.80984 0.0
C1178 C 0.02144 0.46695 0.81057 0.0
H1179 H 0.87594 0.60445 0.79951 0.0
H1180 H 0.91292 0.54693 0.80071 0.0
H1181 H 0.03355 0.56266 0.81025 0.0
H1182 H 0.12308 0.39744 0.79882 0.0
H1183 H 0.08548 0.45457 0.79995 0.0
loop_
_geom_bond_atom_site_label_1
_geom_bond_atom_site_label_2
_geom_bond_distance
_geom_bond_site_symmetry_2
_ccdc_geom_bond_type
Co0 O1 2.216 . S
Co0 O2 2.091 . S
Co0 O4 2.004 . S
Co0 O10 2.021 . S
Co0 O12 2.137 . S
Co0 O13 2.244 . S
O1 Co0 2.216 . S
O1 C8 1.247 . S
O2 Co0 2.091 . S
O2 C8 1.261 . S
C3 O12 1.247 . S
C3 O13 1.272 . S
O4 Co0 2.004 . S
O4 C9 1.259 . S
Co5 O6 2.061 . S
Co5 O11 2.052 . S
Co5 O13 2.135 . S
O6 Co5 2.061 . S
O6 C9 1.235 . S
C7 O10 1.238 . S
C7 O11 1.241 . S
C8 O1 1.247 . S
C8 O2 1.261 . S
C9 O4 1.259 . S
C9 O6 1.235 . S
O10 Co0 2.021 . S
O10 C7 1.238 . S
O11 Co5 2.052 . S
O11 C7 1.241 . S
O12 Co0 2.137 . S
O12 C3 1.247 . S
O13 Co0 2.244 . S
O13 C3 1.272 . S
O13 Co5 2.135 . S
Co14 O15 2.216 . S
Co14 O16 2.091 . S
Co14 O18 2.004 . S
Co14 O24 2.021 . S
Co14 O26 2.137 . S
Co14 O27 2.244 . S
O15 Co14 2.216 . S
O15 C22 1.247 . S
O16 Co14 2.091 . S
O16 C22 1.261 . S
C17 O26 1.247 . S
C17 O27 1.272 . S
O18 Co14 2.004 . S
O18 C23 1.259 . S
Co19 O20 2.061 . S
Co19 O25 2.052 . S
Co19 O27 2.135 . S
O20 Co19 2.061 . S
O20 C23 1.235 . S
C21 O24 1.238 . S
C21 O25 1.241 . S
C22 O15 1.247 . S
C22 O16 1.261 . S
C23 O18 1.259 . S
C23 O20 1.235 . S
O24 Co14 2.021 . S
O24 C21 1.238 . S
O25 Co19 2.052 . S
O25 C21 1.241 . S
O26 Co14 2.137 . S
O26 C17 1.247 . S
O27 Co14 2.244 . S
O27 C17 1.272 . S
O27 Co19 2.135 . S
Co28 O29 2.216 . S
Co28 O30 2.091 . S
Co28 O32 2.004 . S
Co28 O38 2.021 . S
Co28 O40 2.137 . S
Co28 O41 2.244 . S
O29 Co28 2.216 . S
O29 C36 1.247 . S
O30 Co28 2.091 . S
O30 C36 1.261 . S
C31 O40 1.247 . S
C31 O41 1.272 . S
O32 Co28 2.004 . S
O32 C37 1.259 . S
Co33 O34 2.061 . S
Co33 O39 2.052 . S
Co33 O41 2.135 . S
O34 Co33 2.061 . S
O34 C37 1.235 . S
C35 O38 1.238 . S
C35 O39 1.241 . S
C36 O29 1.247 . S
C36 O30 1.261 . S
C37 O32 1.259 . S
C37 O34 1.235 . S
O38 Co28 2.021 . S
O38 C35 1.238 . S
O39 Co33 2.052 . S
O39 C35 1.241 . S
O40 Co28 2.137 . S
O40 C31 1.247 . S
O41 Co28 2.244 . S
O41 C31 1.272 . S
O41 Co33 2.135 . S
Co42 O43 2.216 . S
Co42 O44 2.091 . S
Co42 O46 2.004 . S
Co42 O52 2.021 . S
Co42 O54 2.137 . S
Co42 O55 2.244 . S
O43 Co42 2.216 . S
O43 C50 1.247 . S
O44 Co42 2.091 . S
O44 C50 1.261 . S
C45 O54 1.247 . S
C45 O55 1.272 . S
O46 Co42 2.004 . S
O46 C51 1.259 . S
Co47 O48 2.061 . S
Co47 O53 2.052 . S
Co47 O55 2.135 . S
O48 Co47 2.061 . S
O48 C51 1.235 . S
C49 O52 1.238 . S
C49 O53 1.241 . S
C50 O43 1.247 . S
C50 O44 1.261 . S
C51 O46 1.259 . S
C51 O48 1.235 . S
O52 Co42 2.021 . S
O52 C49 1.238 . S
O53 Co47 2.052 . S
O53 C49 1.241 . S
O54 Co42 2.137 . S
O54 C45 1.247 . S
O55 Co42 2.244 . S
O55 C45 1.272 . S
O55 Co47 2.135 . S
Co56 O57 2.216 . S
Co56 O58 2.091 . S
Co56 O60 2.004 . S
Co56 O66 2.021 . S
Co56 O68 2.137 . S
Co56 O69 2.244 . S
O57 Co56 2.216 . S
O57 C64 1.247 . S
O58 Co56 2.091 . S
O58 C64 1.261 . S
C59 O68 1.247 . S
C59 O69 1.272 . S
O60 Co56 2.004 . S
O60 C65 1.259 . S
Co61 O62 2.061 . S
Co61 O67 2.052 . S
Co61 O69 2.135 . S
O62 Co61 2.061 . S
O62 C65 1.235 . S
C63 O66 1.238 . S
C63 O67 1.241 . S
C64 O57 1.247 . S
C64 O58 1.261 . S
C65 O60 1.259 . S
C65 O62 1.235 . S
O66 Co56 2.021 . S
O66 C63 1.238 . S
O67 Co61 2.052 . S
O67 C63 1.241 . S
O68 Co56 2.137 . S
O68 C59 1.247 . S
O69 Co56 2.244 . S
O69 C59 1.272 . S
O69 Co61 2.135 . S
Co70 O71 2.216 . S
Co70 O72 2.091 . S
Co70 O74 2.004 . S
Co70 O80 2.021 . S
Co70 O82 2.137 . S
Co70 O83 2.244 . S
O71 Co70 2.216 . S
O71 C78 1.247 . S
O72 Co70 2.091 . S
O72 C78 1.261 . S
C73 O82 1.247 . S
C73 O83 1.272 . S
O74 Co70 2.004 . S
O74 C79 1.259 . S
Co75 O76 2.061 . S
Co75 O81 2.052 . S
Co75 O83 2.135 . S
O76 Co75 2.061 . S
O76 C79 1.235 . S
C77 O80 1.238 . S
C77 O81 1.241 . S
C78 O71 1.247 . S
C78 O72 1.261 . S
C79 O74 1.259 . S
C79 O76 1.235 . S
O80 Co70 2.021 . S
O80 C77 1.238 . S
O81 Co75 2.052 . S
O81 C77 1.241 . S
O82 Co70 2.137 . S
O82 C73 1.247 . S
O83 Co70 2.244 . S
O83 C73 1.272 . S
O83 Co75 2.135 . S
Co84 O85 2.216 . S
Co84 O86 2.091 . S
Co84 O88 2.004 . S
Co84 O94 2.021 . S
Co84 O96 2.137 . S
Co84 O97 2.244 . S
O85 Co84 2.216 . S
O85 C92 1.247 . S
O86 Co84 2.091 . S
O86 C92 1.261 . S
C87 O96 1.247 . S
C87 O97 1.272 . S
O88 Co84 2.004 . S
O88 C93 1.259 . S
Co89 O90 2.061 . S
Co89 O95 2.052 . S
Co89 O97 2.135 . S
O90 Co89 2.061 . S
O90 C93 1.235 . S
C91 O94 1.238 . S
C91 O95 1.241 . S
C92 O85 1.247 . S
C92 O86 1.261 . S
C93 O88 1.259 . S
C93 O90 1.235 . S
O94 Co84 2.021 . S
O94 C91 1.238 . S
O95 Co89 2.052 . S
O95 C91 1.241 . S
O96 Co84 2.137 . S
O96 C87 1.247 . S
O97 Co84 2.244 . S
O97 C87 1.272 . S
O97 Co89 2.135 . S
Co98 O99 2.216 . S
Co98 O100 2.091 . S
Co98 O102 2.004 . S
Co98 O108 2.021 . S
Co98 O110 2.137 . S
Co98 O111 2.244 . S
O99 Co98 2.216 . S
O99 C106 1.247 . S
O100 Co98 2.091 . S
O100 C106 1.261 . S
C101 O110 1.247 . S
C101 O111 1.272 . S
O102 Co98 2.004 . S
O102 C107 1.259 . S
Co103 O104 2.061 . S
Co103 O109 2.052 . S
Co103 O111 2.135 . S
O104 Co103 2.061 . S
O104 C107 1.235 . S
C105 O108 1.238 . S
C105 O109 1.241 . S
C106 O99 1.247 . S
C106 O100 1.261 . S
C107 O102 1.259 . S
C107 O104 1.235 . S
O108 Co98 2.021 . S
O108 C105 1.238 . S
O109 Co103 2.052 . S
O109 C105 1.241 . S
O110 Co98 2.137 . S
O110 C101 1.247 . S
O111 Co98 2.244 . S
O111 C101 1.272 . S
O111 Co103 2.135 . S
Co112 O113 2.216 . S
Co112 O114 2.091 . S
Co112 O116 2.004 . S
Co112 O122 2.021 . S
Co112 O124 2.137 . S
Co112 O125 2.244 . S
O113 Co112 2.216 . S
O113 C120 1.247 . S
O114 Co112 2.091 . S
O114 C120 1.261 . S
C115 O124 1.247 . S
C115 O125 1.272 . S
O116 Co112 2.004 . S
O116 C121 1.259 . S
Co117 O118 2.061 . S
Co117 O123 2.052 . S
Co117 O125 2.135 . S
O118 Co117 2.061 . S
O118 C121 1.235 . S
C119 O122 1.238 . S
C119 O123 1.241 . S
C120 O113 1.247 . S
C120 O114 1.261 . S
C121 O116 1.259 . S
C121 O118 1.235 . S
O122 Co112 2.021 . S
O122 C119 1.238 . S
O123 Co117 2.052 . S
O123 C119 1.241 . S
O124 Co112 2.137 . S
O124 C115 1.247 . S
O125 Co112 2.244 . S
O125 C115 1.272 . S
O125 Co117 2.135 . S
Co126 O127 2.216 . S
Co126 O128 2.091 . S
Co126 O130 2.004 . S
Co126 O136 2.021 . S
Co126 O138 2.137 . S
Co126 O139 2.244 . S
O127 Co126 2.216 . S
O127 C134 1.247 . S
O128 Co126 2.091 . S
O128 C134 1.261 . S
C129 O138 1.247 . S
C129 O139 1.272 . S
O130 Co126 2.004 . S
O130 C135 1.259 . S
Co131 O132 2.061 . S
Co131 O137 2.052 . S
Co131 O139 2.135 . S
O132 Co131 2.061 . S
O132 C135 1.235 . S
C133 O136 1.238 . S
C133 O137 1.241 . S
C134 O127 1.247 . S
C134 O128 1.261 . S
C135 O130 1.259 . S
C135 O132 1.235 . S
O136 Co126 2.021 . S
O136 C133 1.238 . S
O137 Co131 2.052 . S
O137 C133 1.241 . S
O138 Co126 2.137 . S
O138 C129 1.247 . S
O139 Co126 2.244 . S
O139 C129 1.272 . S
O139 Co131 2.135 . S
Co140 O141 2.216 . S
Co140 O142 2.091 . S
Co140 O144 2.004 . S
Co140 O150 2.021 . S
Co140 O152 2.137 . S
Co140 O153 2.244 . S
O141 Co140 2.216 . S
O141 C148 1.247 . S
O142 Co140 2.091 . S
O142 C148 1.261 . S
C143 O152 1.247 . S
C143 O153 1.272 . S
O144 Co140 2.004 . S
O144 C149 1.259 . S
Co145 O146 2.061 . S
Co145 O151 2.052 . S
Co145 O153 2.135 . S
O146 Co145 2.061 . S
O146 C149 1.235 . S
C147 O150 1.238 . S
C147 O151 1.241 . S
C148 O141 1.247 . S
C148 O142 1.261 . S
C149 O144 1.259 . S
C149 O146 1.235 . S
O150 Co140 2.021 . S
O150 C147 1.238 . S
O151 Co145 2.052 . S
O151 C147 1.241 . S
O152 Co140 2.137 . S
O152 C143 1.247 . S
O153 Co140 2.244 . S
O153 C143 1.272 . S
O153 Co145 2.135 . S
Co154 O155 2.216 . S
Co154 O156 2.091 . S
Co154 O158 2.004 . S
Co154 O164 2.021 . S
Co154 O166 2.137 . S
Co154 O167 2.244 . S
O155 Co154 2.216 . S
O155 C162 1.247 . S
O156 Co154 2.091 . S
O156 C162 1.261 . S
C157 O166 1.247 . S
C157 O167 1.272 . S
O158 Co154 2.004 . S
O158 C163 1.259 . S
Co159 O160 2.061 . S
Co159 O165 2.052 . S
Co159 O167 2.135 . S
O160 Co159 2.061 . S
O160 C163 1.235 . S
C161 O164 1.238 . S
C161 O165 1.241 . S
C162 O155 1.247 . S
C162 O156 1.261 . S
C163 O158 1.259 . S
C163 O160 1.235 . S
O164 Co154 2.021 . S
O164 C161 1.238 . S
O165 Co159 2.052 . S
O165 C161 1.241 . S
O166 Co154 2.137 . S
O166 C157 1.247 . S
O167 Co154 2.244 . S
O167 C157 1.272 . S
O167 Co159 2.135 . S
Co168 O169 2.216 . S
Co168 O170 2.091 . S
Co168 O172 2.004 . S
Co168 O178 2.021 . S
Co168 O180 2.137 . S
Co168 O181 2.244 . S
O169 Co168 2.216 . S
O169 C176 1.247 . S
O170 Co168 2.091 . S
O170 C176 1.261 . S
C171 O180 1.247 . S
C171 O181 1.272 . S
O172 Co168 2.004 . S
O172 C177 1.259 . S
Co173 O174 2.061 . S
Co173 O179 2.052 . S
Co173 O181 2.135 . S
O174 Co173 2.061 . S
O174 C177 1.235 . S
C175 O178 1.238 . S
C175 O179 1.241 . S
C176 O169 1.247 . S
C176 O170 1.261 . S
C177 O172 1.259 . S
C177 O174 1.235 . S
O178 Co168 2.021 . S
O178 C175 1.238 . S
O179 Co173 2.052 . S
O179 C175 1.241 . S
O180 Co168 2.137 . S
O180 C171 1.247 . S
O181 Co168 2.244 . S
O181 C171 1.272 . S
O181 Co173 2.135 . S
Co182 O183 2.216 . S
Co182 O184 2.091 . S
Co182 O186 2.004 . S
Co182 O192 2.021 . S
Co182 O194 2.137 . S
Co182 O195 2.244 . S
O183 Co182 2.216 . S
O183 C190 1.247 . S
O184 Co182 2.091 . S
O184 C190 1.261 . S
C185 O194 1.247 . S
C185 O195 1.272 . S
O186 Co182 2.004 . S
O186 C191 1.259 . S
Co187 O188 2.061 . S
Co187 O193 2.052 . S
Co187 O195 2.135 . S
O188 Co187 2.061 . S
O188 C191 1.235 . S
C189 O192 1.238 . S
C189 O193 1.241 . S
C190 O183 1.247 . S
C190 O184 1.261 . S
C191 O186 1.259 . S
C191 O188 1.235 . S
O192 Co182 2.021 . S
O192 C189 1.238 . S
O193 Co187 2.052 . S
O193 C189 1.241 . S
O194 Co182 2.137 . S
O194 C185 1.247 . S
O195 Co182 2.244 . S
O195 C185 1.272 . S
O195 Co187 2.135 . S
Co196 O197 2.216 . S
Co196 O198 2.091 . S
Co196 O200 2.004 . S
Co196 O206 2.021 . S
Co196 O208 2.137 . S
Co196 O209 2.244 . S
O197 Co196 2.216 . S
O197 C204 1.247 . S
O198 Co196 2.091 . S
O198 C204 1.261 . S
C199 O208 1.247 . S
C199 O209 1.272 . S
O200 Co196 2.004 . S
O200 C205 1.259 . S
Co201 O202 2.061 . S
Co201 O207 2.052 . S
Co201 O209 2.135 . S
O202 Co201 2.061 . S
O202 C205 1.235 . S
C203 O206 1.238 . S
C203 O207 1.241 . S
C204 O197 1.247 . S
C204 O198 1.261 . S
C205 O200 1.259 . S
C205 O202 1.235 . S
O206 Co196 2.021 . S
O206 C203 1.238 . S
O207 Co201 2.052 . S
O207 C203 1.241 . S
O208 Co196 2.137 . S
O208 C199 1.247 . S
O209 Co196 2.244 . S
O209 C199 1.272 . S
O209 Co201 2.135 . S
Co210 O211 2.216 . S
Co210 O212 2.091 . S
Co210 O214 2.004 . S
Co210 O220 2.021 . S
Co210 O222 2.137 . S
Co210 O223 2.244 . S
O211 Co210 2.216 . S
O211 C218 1.247 . S
O212 Co210 2.091 . S
O212 C218 1.261 . S
C213 O222 1.247 . S
C213 O223 1.272 . S
O214 Co210 2.004 . S
O214 C219 1.259 . S
Co215 O216 2.061 . S
Co215 O221 2.052 . S
Co215 O223 2.135 . S
O216 Co215 2.061 . S
O216 C219 1.235 . S
C217 O220 1.238 . S
C217 O221 1.241 . S
C218 O211 1.247 . S
C218 O212 1.261 . S
C219 O214 1.259 . S
C219 O216 1.235 . S
O220 Co210 2.021 . S
O220 C217 1.238 . S
O221 Co215 2.052 . S
O221 C217 1.241 . S
O222 Co210 2.137 . S
O222 C213 1.247 . S
O223 Co210 2.244 . S
O223 C213 1.272 . S
O223 Co215 2.135 . S
C224 C225 1.349 . S
C224 C226 1.327 . S
C224 H249 0.950 . S
C225 C224 1.349 . S
C225 C241 1.349 . S
C226 C224 1.327 . S
C226 C245 1.429 . S
C226 H250 0.950 . S
C227 C244 1.574 . S
C227 C246 1.368 . S
C227 H251 0.949 . S
H228 C232 0.949 . S
C229 C230 1.349 . S
C229 C231 1.327 . S
C229 H252 0.950 . S
C230 C229 1.349 . S
C230 C242 1.349 . S
C231 C229 1.327 . S
C231 C247 1.429 . S
C231 H253 0.950 . S
C232 H228 0.949 . S
C232 C240 1.574 . S
C232 C248 1.368 . S
H233 C241 0.950 . S
H234 C239 0.950 . S
H235 C240 0.949 . S
H236 C242 0.950 . S
H237 C243 0.950 . S
H238 C244 0.949 . S
C239 H234 0.950 . S
C239 C241 1.327 . S
C239 C245 1.429 . S
C240 C232 1.574 . S
C240 H235 0.949 . S
C240 C246 1.368 . S
C241 C225 1.349 . S
C241 H233 0.950 . S
C241 C239 1.327 . S
C242 C230 1.349 . S
C242 H236 0.950 . S
C242 C243 1.327 . S
C243 H237 0.950 . S
C243 C242 1.327 . S
C243 C247 1.429 . S
C244 C227 1.574 . S
C244 H238 0.949 . S
C244 C248 1.368 . S
C245 C226 1.429 . S
C245 C239 1.429 . S
C245 C246 1.523 . S
C246 C227 1.368 . S
C246 C240 1.368 . S
C246 C245 1.523 . S
C247 C231 1.429 . S
C247 C243 1.429 . S
C247 C248 1.523 . S
C248 C232 1.368 . S
C248 C244 1.368 . S
C248 C247 1.523 . S
H249 C224 0.950 . S
H250 C226 0.950 . S
H251 C227 0.949 . S
H252 C229 0.950 . S
H253 C231 0.950 . S
C254 C255 1.349 . S
C254 C256 1.327 . S
C254 H279 0.950 . S
C255 C254 1.349 . S
C255 C271 1.349 . S
C256 C254 1.327 . S
C256 C275 1.429 . S
C256 H280 0.950 . S
C257 C274 1.574 . S
C257 C276 1.368 . S
C257 H281 0.949 . S
H258 C262 0.949 . S
C259 C260 1.349 . S
C259 C261 1.327 . S
C259 H282 0.950 . S
C260 C259 1.349 . S
C260 C272 1.349 . S
C261 C259 1.327 . S
C261 C277 1.429 . S
C261 H283 0.950 . S
C262 H258 0.949 . S
C262 C270 1.574 . S
C262 C278 1.368 . S
H263 C271 0.950 . S
H264 C269 0.950 . S
H265 C270 0.949 . S
H266 C272 0.950 . S
H267 C273 0.950 . S
H268 C274 0.949 . S
C269 H264 0.950 . S
C269 C271 1.327 . S
C269 C275 1.429 . S
C270 C262 1.574 . S
C270 H265 0.949 . S
C270 C276 1.368 . S
C271 C255 1.349 . S
C271 H263 0.950 . S
C271 C269 1.327 . S
C272 C260 1.349 . S
C272 H266 0.950 . S
C272 C273 1.327 . S
C273 H267 0.950 . S
C273 C272 1.327 . S
C273 C277 1.429 . S
C274 C257 1.574 . S
C274 H268 0.949 . S
C274 C278 1.368 . S
C275 C256 1.429 . S
C275 C269 1.429 . S
C275 C276 1.523 . S
C276 C257 1.368 . S
C276 C270 1.368 . S
C276 C275 1.523 . S
C277 C261 1.429 . S
C277 C273 1.429 . S
C277 C278 1.523 . S
C278 C262 1.368 . S
C278 C274 1.368 . S
C278 C277 1.523 . S
H279 C254 0.950 . S
H280 C256 0.950 . S
H281 C257 0.949 . S
H282 C259 0.950 . S
H283 C261 0.950 . S
C284 C285 1.349 . S
C284 C286 1.327 . S
C284 H309 0.950 . S
C285 C284 1.349 . S
C285 C301 1.349 . S
C286 C284 1.327 . S
C286 C305 1.429 . S
C286 H310 0.950 . S
C287 C304 1.574 . S
C287 C306 1.368 . S
C287 H311 0.949 . S
H288 C292 0.949 . S
C289 C290 1.349 . S
C289 C291 1.327 . S
C289 H312 0.950 . S
C290 C289 1.349 . S
C290 C302 1.349 . S
C291 C289 1.327 . S
C291 C307 1.429 . S
C291 H313 0.950 . S
C292 H288 0.949 . S
C292 C300 1.574 . S
C292 C308 1.368 . S
H293 C301 0.950 . S
H294 C299 0.950 . S
H295 C300 0.949 . S
H296 C302 0.950 . S
H297 C303 0.950 . S
H298 C304 0.949 . S
C299 H294 0.950 . S
C299 C301 1.327 . S
C299 C305 1.429 . S
C300 C292 1.574 . S
C300 H295 0.949 . S
C300 C306 1.368 . S
C301 C285 1.349 . S
C301 H293 0.950 . S
C301 C299 1.327 . S
C302 C290 1.349 . S
C302 H296 0.950 . S
C302 C303 1.327 . S
C303 H297 0.950 . S
C303 C302 1.327 . S
C303 C307 1.429 . S
C304 C287 1.574 . S
C304 H298 0.949 . S
C304 C308 1.368 . S
C305 C286 1.429 . S
C305 C299 1.429 . S
C305 C306 1.523 . S
C306 C287 1.368 . S
C306 C300 1.368 . S
C306 C305 1.523 . S
C307 C291 1.429 . S
C307 C303 1.429 . S
C307 C308 1.523 . S
C308 C292 1.368 . S
C308 C304 1.368 . S
C308 C307 1.523 . S
H309 C284 0.950 . S
H310 C286 0.950 . S
H311 C287 0.949 . S
H312 C289 0.950 . S
H313 C291 0.950 . S
C314 C315 1.349 . S
C314 C316 1.327 . S
C314 H339 0.950 . S
C315 C314 1.349 . S
C315 C331 1.349 . S
C316 C314 1.327 . S
C316 C335 1.429 . S
C316 H340 0.950 . S
C317 C334 1.574 . S
C317 C336 1.368 . S
C317 H341 0.949 . S
H318 C322 0.949 . S
C319 C320 1.349 . S
C319 C321 1.327 . S
C319 H342 0.950 . S
C320 C319 1.349 . S
C320 C332 1.349 . S
C321 C319 1.327 . S
C321 C337 1.429 . S
C321 H343 0.950 . S
C322 H318 0.949 . S
C322 C330 1.574 . S
C322 C338 1.368 . S
H323 C331 0.950 . S
H324 C329 0.950 . S
H325 C330 0.949 . S
H326 C332 0.950 . S
H327 C333 0.950 . S
H328 C334 0.949 . S
C329 H324 0.950 . S
C329 C331 1.327 . S
C329 C335 1.429 . S
C330 C322 1.574 . S
C330 H325 0.949 . S
C330 C336 1.368 . S
C331 C315 1.349 . S
C331 H323 0.950 . S
C331 C329 1.327 . S
C332 C320 1.349 . S
C332 H326 0.950 . S
C332 C333 1.327 . S
C333 H327 0.950 . S
C333 C332 1.327 . S
C333 C337 1.429 . S
C334 C317 1.574 . S
C334 H328 0.949 . S
C334 C338 1.368 . S
C335 C316 1.429 . S
C335 C329 1.429 . S
C335 C336 1.523 . S
C336 C317 1.368 . S
C336 C330 1.368 . S
C336 C335 1.523 . S
C337 C321 1.429 . S
C337 C333 1.429 . S
C337 C338 1.523 . S
C338 C322 1.368 . S
C338 C334 1.368 . S
C338 C337 1.523 . S
H339 C314 0.950 . S
H340 C316 0.950 . S
H341 C317 0.949 . S
H342 C319 0.950 . S
H343 C321 0.950 . S
C344 C345 1.349 . S
C344 C346 1.327 . S
C344 H369 0.950 . S
C345 C344 1.349 . S
C345 C361 1.349 . S
C346 C344 1.327 . S
C346 C365 1.429 . S
C346 H370 0.950 . S
C347 C364 1.574 . S
C347 C366 1.368 . S
C347 H371 0.949 . S
H348 C352 0.949 . S
C349 C350 1.349 . S
C349 C351 1.327 . S
C349 H372 0.950 . S
C350 C349 1.349 . S
C350 C362 1.349 . S
C351 C349 1.327 . S
C351 C367 1.429 . S
C351 H373 0.950 . S
C352 H348 0.949 . S
C352 C360 1.574 . S
C352 C368 1.368 . S
H353 C361 0.950 . S
H354 C359 0.950 . S
H355 C360 0.949 . S
H356 C362 0.950 . S
H357 C363 0.950 . S
H358 C364 0.949 . S
C359 H354 0.950 . S
C359 C361 1.327 . S
C359 C365 1.429 . S
C360 C352 1.574 . S
C360 H355 0.949 . S
C360 C366 1.368 . S
C361 C345 1.349 . S
C361 H353 0.950 . S
C361 C359 1.327 . S
C362 C350 1.349 . S
C362 H356 0.950 . S
C362 C363 1.327 . S
C363 H357 0.950 . S
C363 C362 1.327 . S
C363 C367 1.429 . S
C364 C347 1.574 . S
C364 H358 0.949 . S
C364 C368 1.368 . S
C365 C346 1.429 . S
C365 C359 1.429 . S
C365 C366 1.523 . S
C366 C347 1.368 . S
C366 C360 1.368 . S
C366 C365 1.523 . S
C367 C351 1.429 . S
C367 C363 1.429 . S
C367 C368 1.523 . S
C368 C352 1.368 . S
C368 C364 1.368 . S
C368 C367 1.523 . S
H369 C344 0.950 . S
H370 C346 0.950 . S
H371 C347 0.949 . S
H372 C349 0.950 . S
H373 C351 0.950 . S
C374 C375 1.349 . S
C374 C376 1.327 . S
C374 H399 0.950 . S
C375 C374 1.349 . S
C375 C391 1.349 . S
C376 C374 1.327 . S
C376 C395 1.429 . S
C376 H400 0.950 . S
C377 C394 1.574 . S
C377 C396 1.368 . S
C377 H401 0.949 . S
H378 C382 0.949 . S
C379 C380 1.349 . S
C379 C381 1.327 . S
C379 H402 0.950 . S
C380 C379 1.349 . S
C380 C392 1.349 . S
C381 C379 1.327 . S
C381 C397 1.429 . S
C381 H403 0.950 . S
C382 H378 0.949 . S
C382 C390 1.574 . S
C382 C398 1.368 . S
H383 C391 0.950 . S
H384 C389 0.950 . S
H385 C390 0.949 . S
H386 C392 0.950 . S
H387 C393 0.950 . S
H388 C394 0.949 . S
C389 H384 0.950 . S
C389 C391 1.327 . S
C389 C395 1.429 . S
C390 C382 1.574 . S
C390 H385 0.949 . S
C390 C396 1.368 . S
C391 C375 1.349 . S
C391 H383 0.950 . S
C391 C389 1.327 . S
C392 C380 1.349 . S
C392 H386 0.950 . S
C392 C393 1.327 . S
C393 H387 0.950 . S
C393 C392 1.327 . S
C393 C397 1.429 . S
C394 C377 1.574 . S
C394 H388 0.949 . S
C394 C398 1.368 . S
C395 C376 1.429 . S
C395 C389 1.429 . S
C395 C396 1.523 . S
C396 C377 1.368 . S
C396 C390 1.368 . S
C396 C395 1.523 . S
C397 C381 1.429 . S
C397 C393 1.429 . S
C397 C398 1.523 . S
C398 C382 1.368 . S
C398 C394 1.368 . S
C398 C397 1.523 . S
H399 C374 0.950 . S
H400 C376 0.950 . S
H401 C377 0.949 . S
H402 C379 0.950 . S
H403 C381 0.950 . S
C404 C405 1.349 . S
C404 C406 1.327 . S
C404 H429 0.950 . S
C405 C404 1.349 . S
C405 C421 1.349 . S
C406 C404 1.327 . S
C406 C425 1.429 . S
C406 H430 0.950 . S
C407 C424 1.574 . S
C407 C426 1.368 . S
C407 H431 0.949 . S
H408 C412 0.949 . S
C409 C410 1.349 . S
C409 C411 1.327 . S
C409 H432 0.950 . S
C410 C409 1.349 . S
C410 C422 1.349 . S
C411 C409 1.327 . S
C411 C427 1.429 . S
C411 H433 0.950 . S
C412 H408 0.949 . S
C412 C420 1.574 . S
C412 C428 1.368 . S
H413 C421 0.950 . S
H414 C419 0.950 . S
H415 C420 0.949 . S
H416 C422 0.950 . S
H417 C423 0.950 . S
H418 C424 0.949 . S
C419 H414 0.950 . S
C419 C421 1.327 . S
C419 C425 1.429 . S
C420 C412 1.574 . S
C420 H415 0.949 . S
C420 C426 1.368 . S
C421 C405 1.349 . S
C421 H413 0.950 . S
C421 C419 1.327 . S
C422 C410 1.349 . S
C422 H416 0.950 . S
C422 C423 1.327 . S
C423 H417 0.950 . S
C423 C422 1.327 . S
C423 C427 1.429 . S
C424 C407 1.574 . S
C424 H418 0.949 . S
C424 C428 1.368 . S
C425 C406 1.429 . S
C425 C419 1.429 . S
C425 C426 1.523 . S
C426 C407 1.368 . S
C426 C420 1.368 . S
C426 C425 1.523 . S
C427 C411 1.429 . S
C427 C423 1.429 . S
C427 C428 1.523 . S
C428 C412 1.368 . S
C428 C424 1.368 . S
C428 C427 1.523 . S
H429 C404 0.950 . S
H430 C406 0.950 . S
H431 C407 0.949 . S
H432 C409 0.950 . S
H433 C411 0.950 . S
C434 C435 1.349 . S
C434 C436 1.327 . S
C434 H459 0.950 . S
C435 C434 1.349 . S
C435 C451 1.349 . S
C436 C434 1.327 . S
C436 C455 1.429 . S
C436 H460 0.950 . S
C437 C454 1.574 . S
C437 C456 1.368 . S
C437 H461 0.949 . S
H438 C442 0.949 . S
C439 C440 1.349 . S
C439 C441 1.327 . S
C439 H462 0.950 . S
C440 C439 1.349 . S
C440 C452 1.349 . S
C441 C439 1.327 . S
C441 C457 1.429 . S
C441 H463 0.950 . S
C442 H438 0.949 . S
C442 C450 1.574 . S
C442 C458 1.368 . S
H443 C451 0.950 . S
H444 C449 0.950 . S
H445 C450 0.949 . S
H446 C452 0.950 . S
H447 C453 0.950 . S
H448 C454 0.949 . S
C449 H444 0.950 . S
C449 C451 1.327 . S
C449 C455 1.429 . S
C450 C442 1.574 . S
C450 H445 0.949 . S
C450 C456 1.368 . S
C451 C435 1.349 . S
C451 H443 0.950 . S
C451 C449 1.327 . S
C452 C440 1.349 . S
C452 H446 0.950 . S
C452 C453 1.327 . S
C453 H447 0.950 . S
C453 C452 1.327 . S
C453 C457 1.429 . S
C454 C437 1.574 . S
C454 H448 0.949 . S
C454 C458 1.368 . S
C455 C436 1.429 . S
C455 C449 1.429 . S
C455 C456 1.523 . S
C456 C437 1.368 . S
C456 C450 1.368 . S
C456 C455 1.523 . S
C457 C441 1.429 . S
C457 C453 1.429 . S
C457 C458 1.523 . S
C458 C442 1.368 . S
C458 C454 1.368 . S
C458 C457 1.523 . S
H459 C434 0.950 . S
H460 C436 0.950 . S
H461 C437 0.949 . S
H462 C439 0.950 . S
H463 C441 0.950 . S
C464 C465 1.349 . S
C464 C466 1.327 . S
C464 H489 0.950 . S
C465 C464 1.349 . S
C465 C481 1.349 . S
C466 C464 1.327 . S
C466 C485 1.429 . S
C466 H490 0.950 . S
C467 C484 1.574 . S
C467 C486 1.368 . S
C467 H491 0.949 . S
H468 C472 0.949 . S
C469 C470 1.349 . S
C469 C471 1.327 . S
C469 H492 0.950 . S
C470 C469 1.349 . S
C470 C482 1.349 . S
C471 C469 1.327 . S
C471 C487 1.429 . S
C471 H493 0.950 . S
C472 H468 0.949 . S
C472 C480 1.574 . S
C472 C488 1.368 . S
H473 C481 0.950 . S
H474 C479 0.950 . S
H475 C480 0.949 . S
H476 C482 0.950 . S
H477 C483 0.950 . S
H478 C484 0.949 . S
C479 H474 0.950 . S
C479 C481 1.327 . S
C479 C485 1.429 . S
C480 C472 1.574 . S
C480 H475 0.949 . S
C480 C486 1.368 . S
C481 C465 1.349 . S
C481 H473 0.950 . S
C481 C479 1.327 . S
C482 C470 1.349 . S
C482 H476 0.950 . S
C482 C483 1.327 . S
C483 H477 0.950 . S
C483 C482 1.327 . S
C483 C487 1.429 . S
C484 C467 1.574 . S
C484 H478 0.949 . S
C484 C488 1.368 . S
C485 C466 1.429 . S
C485 C479 1.429 . S
C485 C486 1.523 . S
C486 C467 1.368 . S
C486 C480 1.368 . S
C486 C485 1.523 . S
C487 C471 1.429 . S
C487 C483 1.429 . S
C487 C488 1.523 . S
C488 C472 1.368 . S
C488 C484 1.368 . S
C488 C487 1.523 . S
H489 C464 0.950 . S
H490 C466 0.950 . S
H491 C467 0.949 . S
H492 C469 0.950 . S
H493 C471 0.950 . S
C494 C495 1.349 . S
C494 C496 1.327 . S
C494 H519 0.950 . S
C495 C494 1.349 . S
C495 C511 1.349 . S
C496 C494 1.327 . S
C496 C515 1.429 . S
C496 H520 0.950 . S
C497 C514 1.574 . S
C497 C516 1.368 . S
C497 H521 0.949 . S
H498 C502 0.949 . S
C499 C500 1.349 . S
C499 C501 1.327 . S
C499 H522 0.950 . S
C500 C499 1.349 . S
C500 C512 1.349 . S
C501 C499 1.327 . S
C501 C517 1.429 . S
C501 H523 0.950 . S
C502 H498 0.949 . S
C502 C510 1.574 . S
C502 C518 1.368 . S
H503 C511 0.950 . S
H504 C509 0.950 . S
H505 C510 0.949 . S
H506 C512 0.950 . S
H507 C513 0.950 . S
H508 C514 0.949 . S
C509 H504 0.950 . S
C509 C511 1.327 . S
C509 C515 1.429 . S
C510 C502 1.574 . S
C510 H505 0.949 . S
C510 C516 1.368 . S
C511 C495 1.349 . S
C511 H503 0.950 . S
C511 C509 1.327 . S
C512 C500 1.349 . S
C512 H506 0.950 . S
C512 C513 1.327 . S
C513 H507 0.950 . S
C513 C512 1.327 . S
C513 C517 1.429 . S
C514 C497 1.574 . S
C514 H508 0.949 . S
C514 C518 1.368 . S
C515 C496 1.429 . S
C515 C509 1.429 . S
C515 C516 1.523 . S
C516 C497 1.368 . S
C516 C510 1.368 . S
C516 C515 1.523 . S
C517 C501 1.429 . S
C517 C513 1.429 . S
C517 C518 1.523 . S
C518 C502 1.368 . S
C518 C514 1.368 . S
C518 C517 1.523 . S
H519 C494 0.950 . S
H520 C496 0.950 . S
H521 C497 0.949 . S
H522 C499 0.950 . S
H523 C501 0.950 . S
C524 C525 1.349 . S
C524 C526 1.327 . S
C524 H549 0.950 . S
C525 C524 1.349 . S
C525 C541 1.349 . S
C526 C524 1.327 . S
C526 C545 1.429 . S
C526 H550 0.950 . S
C527 C544 1.574 . S
C527 C546 1.368 . S
C527 H551 0.949 . S
H528 C532 0.949 . S
C529 C530 1.349 . S
C529 C531 1.327 . S
C529 H552 0.950 . S
C530 C529 1.349 . S
C530 C542 1.349 . S
C531 C529 1.327 . S
C531 C547 1.429 . S
C531 H553 0.950 . S
C532 H528 0.949 . S
C532 C540 1.574 . S
C532 C548 1.368 . S
H533 C541 0.950 . S
H534 C539 0.950 . S
H535 C540 0.949 . S
H536 C542 0.950 . S
H537 C543 0.950 . S
H538 C544 0.949 . S
C539 H534 0.950 . S
C539 C541 1.327 . S
C539 C545 1.429 . S
C540 C532 1.574 . S
C540 H535 0.949 . S
C540 C546 1.368 . S
C541 C525 1.349 . S
C541 H533 0.950 . S
C541 C539 1.327 . S
C542 C530 1.349 . S
C542 H536 0.950 . S
C542 C543 1.327 . S
C543 H537 0.950 . S
C543 C542 1.327 . S
C543 C547 1.429 . S
C544 C527 1.574 . S
C544 H538 0.949 . S
C544 C548 1.368 . S
C545 C526 1.429 . S
C545 C539 1.429 . S
C545 C546 1.523 . S
C546 C527 1.368 . S
C546 C540 1.368 . S
C546 C545 1.523 . S
C547 C531 1.429 . S
C547 C543 1.429 . S
C547 C548 1.523 . S
C548 C532 1.368 . S
C548 C544 1.368 . S
C548 C547 1.523 . S
H549 C524 0.950 . S
H550 C526 0.950 . S
H551 C527 0.949 . S
H552 C529 0.950 . S
H553 C531 0.950 . S
C554 C555 1.349 . S
C554 C556 1.327 . S
C554 H579 0.950 . S
C555 C554 1.349 . S
C555 C571 1.349 . S
C556 C554 1.327 . S
C556 C575 1.429 . S
C556 H580 0.950 . S
C557 C574 1.574 1_554 S
C557 C576 1.368 . S
C557 H581 0.949 . S
H558 C562 0.949 . S
C559 C560 1.349 . S
C559 C561 1.327 . S
C559 H582 0.950 . S
C560 C559 1.349 . S
C560 C572 1.349 . S
C561 C559 1.327 . S
C561 C577 1.429 . S
C561 H583 0.950 . S
C562 H558 0.949 . S
C562 C570 1.574 1_556 S
C562 C578 1.368 . S
H563 C571 0.950 . S
H564 C569 0.950 . S
H565 C570 0.949 . S
H566 C572 0.950 . S
H567 C573 0.950 . S
H568 C574 0.949 . S
C569 H564 0.950 . S
C569 C571 1.327 . S
C569 C575 1.429 . S
C570 C562 1.574 1_554 S
C570 H565 0.949 . S
C570 C576 1.368 . S
C571 C555 1.349 . S
C571 H563 0.950 . S
C571 C569 1.327 . S
C572 C560 1.349 . S
C572 H566 0.950 . S
C572 C573 1.327 . S
C573 H567 0.950 . S
C573 C572 1.327 . S
C573 C577 1.429 . S
C574 C557 1.574 1_556 S
C574 H568 0.949 . S
C574 C578 1.368 . S
C575 C556 1.429 . S
C575 C569 1.429 . S
C575 C576 1.523 . S
C576 C557 1.368 . S
C576 C570 1.368 . S
C576 C575 1.523 . S
C577 C561 1.429 . S
C577 C573 1.429 . S
C577 C578 1.523 . S
C578 C562 1.368 . S
C578 C574 1.368 . S
C578 C577 1.523 . S
H579 C554 0.950 . S
H580 C556 0.950 . S
H581 C557 0.949 . S
H582 C559 0.950 . S
H583 C561 0.950 . S
C584 C585 1.349 . S
C584 C586 1.327 . S
C584 H609 0.950 . S
C585 C584 1.349 . S
C585 C601 1.349 . S
C586 C584 1.327 . S
C586 C605 1.429 . S
C586 H610 0.950 . S
C587 C604 1.574 1_554 S
C587 C606 1.368 . S
C587 H611 0.949 . S
H588 C592 0.949 . S
C589 C590 1.349 . S
C589 C591 1.327 . S
C589 H612 0.950 . S
C590 C589 1.349 . S
C590 C602 1.349 . S
C591 C589 1.327 . S
C591 C607 1.429 . S
C591 H613 0.950 . S
C592 H588 0.949 . S
C592 C600 1.574 1_556 S
C592 C608 1.368 . S
H593 C601 0.950 . S
H594 C599 0.950 . S
H595 C600 0.949 . S
H596 C602 0.950 . S
H597 C603 0.950 . S
H598 C604 0.949 . S
C599 H594 0.950 . S
C599 C601 1.327 . S
C599 C605 1.429 . S
C600 C592 1.574 1_554 S
C600 H595 0.949 . S
C600 C606 1.368 . S
C601 C585 1.349 . S
C601 H593 0.950 . S
C601 C599 1.327 . S
C602 C590 1.349 . S
C602 H596 0.950 . S
C602 C603 1.327 . S
C603 H597 0.950 . S
C603 C602 1.327 . S
C603 C607 1.429 . S
C604 C587 1.574 1_556 S
C604 H598 0.949 . S
C604 C608 1.368 . S
C605 C586 1.429 . S
C605 C599 1.429 . S
C605 C606 1.523 . S
C606 C587 1.368 . S
C606 C600 1.368 . S
C606 C605 1.523 . S
C607 C591 1.429 . S
C607 C603 1.429 . S
C607 C608 1.523 . S
C608 C592 1.368 . S
C608 C604 1.368 . S
C608 C607 1.523 . S
H609 C584 0.950 . S
H610 C586 0.950 . S
H611 C587 0.949 . S
H612 C589 0.950 . S
H613 C591 0.950 . S
C614 C615 1.349 . S
C614 C616 1.327 . S
C614 H639 0.950 . S
C615 C614 1.349 . S
C615 C631 1.349 . S
C616 C614 1.327 . S
C616 C635 1.429 . S
C616 H640 0.950 . S
C617 C634 1.574 . S
C617 C636 1.368 . S
C617 H641 0.949 . S
H618 C622 0.949 . S
C619 C620 1.349 . S
C619 C621 1.327 . S
C619 H642 0.950 . S
C620 C619 1.349 . S
C620 C632 1.349 . S
C621 C619 1.327 . S
C621 C637 1.429 . S
C621 H643 0.950 . S
C622 H618 0.949 . S
C622 C630 1.574 . S
C622 C638 1.368 . S
H623 C631 0.950 . S
H624 C629 0.950 . S
H625 C630 0.949 . S
H626 C632 0.950 . S
H627 C633 0.950 . S
H628 C634 0.949 . S
C629 H624 0.950 . S
C629 C631 1.327 . S
C629 C635 1.429 . S
C630 C622 1.574 . S
C630 H625 0.949 . S
C630 C636 1.368 . S
C631 C615 1.349 . S
C631 H623 0.950 . S
C631 C629 1.327 . S
C632 C620 1.349 . S
C632 H626 0.950 . S
C632 C633 1.327 . S
C633 H627 0.950 . S
C633 C632 1.327 . S
C633 C637 1.429 . S
C634 C617 1.574 . S
C634 H628 0.949 . S
C634 C638 1.368 . S
C635 C616 1.429 . S
C635 C629 1.429 . S
C635 C636 1.523 . S
C636 C617 1.368 . S
C636 C630 1.368 . S
C636 C635 1.523 . S
C637 C621 1.429 . S
C637 C633 1.429 . S
C637 C638 1.523 . S
C638 C622 1.368 . S
C638 C634 1.368 . S
C638 C637 1.523 . S
H639 C614 0.950 . S
H640 C616 0.950 . S
H641 C617 0.949 . S
H642 C619 0.950 . S
H643 C621 0.950 . S
C644 C645 1.349 . S
C644 C646 1.327 . S
C644 H669 0.950 . S
C645 C644 1.349 . S
C645 C661 1.349 . S
C646 C644 1.327 . S
C646 C665 1.429 . S
C646 H670 0.950 . S
C647 C664 1.574 . S
C647 C666 1.368 . S
C647 H671 0.949 . S
H648 C652 0.949 . S
C649 C650 1.349 . S
C649 C651 1.327 . S
C649 H672 0.950 . S
C650 C649 1.349 . S
C650 C662 1.349 . S
C651 C649 1.327 . S
C651 C667 1.429 . S
C651 H673 0.950 . S
C652 H648 0.949 . S
C652 C660 1.574 . S
C652 C668 1.368 . S
H653 C661 0.950 . S
H654 C659 0.950 . S
H655 C660 0.949 . S
H656 C662 0.950 . S
H657 C663 0.950 . S
H658 C664 0.949 . S
C659 H654 0.950 . S
C659 C661 1.327 . S
C659 C665 1.429 . S
C660 C652 1.574 . S
C660 H655 0.949 . S
C660 C666 1.368 . S
C661 C645 1.349 . S
C661 H653 0.950 . S
C661 C659 1.327 . S
C662 C650 1.349 . S
C662 H656 0.950 . S
C662 C663 1.327 . S
C663 H657 0.950 . S
C663 C662 1.327 . S
C663 C667 1.429 . S
C664 C647 1.574 . S
C664 H658 0.949 . S
C664 C668 1.368 . S
C665 C646 1.429 . S
C665 C659 1.429 . S
C665 C666 1.523 . S
C666 C647 1.368 . S
C666 C660 1.368 . S
C666 C665 1.523 . S
C667 C651 1.429 . S
C667 C663 1.429 . S
C667 C668 1.523 . S
C668 C652 1.368 . S
C668 C664 1.368 . S
C668 C667 1.523 . S
H669 C644 0.950 . S
H670 C646 0.950 . S
H671 C647 0.949 . S
H672 C649 0.950 . S
H673 C651 0.950 . S
C674 C675 1.349 . S
C674 C676 1.327 . S
C674 H699 0.950 . S
C675 C674 1.349 . S
C675 C691 1.349 . S
C676 C674 1.327 . S
C676 C695 1.429 . S
C676 H700 0.950 . S
C677 C694 1.574 . S
C677 C696 1.368 . S
C677 H701 0.949 . S
H678 C682 0.949 . S
C679 C680 1.349 . S
C679 C681 1.327 . S
C679 H702 0.950 . S
C680 C679 1.349 . S
C680 C692 1.349 . S
C681 C679 1.327 . S
C681 C697 1.429 . S
C681 H703 0.950 . S
C682 H678 0.949 . S
C682 C690 1.574 . S
C682 C698 1.368 . S
H683 C691 0.950 . S
H684 C689 0.950 . S
H685 C690 0.949 . S
H686 C692 0.950 . S
H687 C693 0.950 . S
H688 C694 0.949 . S
C689 H684 0.950 . S
C689 C691 1.327 . S
C689 C695 1.429 . S
C690 C682 1.574 . S
C690 H685 0.949 . S
C690 C696 1.368 . S
C691 C675 1.349 . S
C691 H683 0.950 . S
C691 C689 1.327 . S
C692 C680 1.349 . S
C692 H686 0.950 . S
C692 C693 1.327 . S
C693 H687 0.950 . S
C693 C692 1.327 . S
C693 C697 1.429 . S
C694 C677 1.574 . S
C694 H688 0.949 . S
C694 C698 1.368 . S
C695 C676 1.429 . S
C695 C689 1.429 . S
C695 C696 1.523 . S
C696 C677 1.368 . S
C696 C690 1.368 . S
C696 C695 1.523 . S
C697 C681 1.429 . S
C697 C693 1.429 . S
C697 C698 1.523 . S
C698 C682 1.368 . S
C698 C694 1.368 . S
C698 C697 1.523 . S
H699 C674 0.950 . S
H700 C676 0.950 . S
H701 C677 0.949 . S
H702 C679 0.950 . S
H703 C681 0.950 . S
C704 C705 1.349 . S
C704 C706 1.327 . S
C704 H729 0.950 . S
C705 C704 1.349 . S
C705 C721 1.349 . S
C706 C704 1.327 . S
C706 C725 1.429 . S
C706 H730 0.950 . S
C707 C724 1.574 1_455 S
C707 C726 1.368 . S
C707 H731 0.949 . S
H708 C712 0.949 . S
C709 C710 1.349 . S
C709 C711 1.327 . S
C709 H732 0.950 . S
C710 C709 1.349 . S
C710 C722 1.349 . S
C711 C709 1.327 . S
C711 C727 1.429 . S
C711 H733 0.950 . S
C712 H708 0.949 . S
C712 C720 1.574 1_655 S
C712 C728 1.368 . S
H713 C721 0.950 . S
H714 C719 0.950 . S
H715 C720 0.949 . S
H716 C722 0.950 . S
H717 C723 0.950 . S
H718 C724 0.949 . S
C719 H714 0.950 . S
C719 C721 1.327 . S
C719 C725 1.429 . S
C720 C712 1.574 1_455 S
C720 H715 0.949 . S
C720 C726 1.368 1_565 S
C721 C705 1.349 . S
C721 H713 0.950 . S
C721 C719 1.327 . S
C722 C710 1.349 . S
C722 H716 0.950 . S
C722 C723 1.327 . S
C723 H717 0.950 . S
C723 C722 1.327 . S
C723 C727 1.429 . S
C724 C707 1.574 1_655 S
C724 H718 0.949 . S
C724 C728 1.368 1_545 S
C725 C706 1.429 . S
C725 C719 1.429 . S
C725 C726 1.523 . S
C726 C707 1.368 . S
C726 C720 1.368 1_545 S
C726 C725 1.523 . S
C727 C711 1.429 . S
C727 C723 1.429 . S
C727 C728 1.523 . S
C728 C712 1.368 . S
C728 C724 1.368 1_565 S
C728 C727 1.523 . S
H729 C704 0.950 . S
H730 C706 0.950 . S
H731 C707 0.949 . S
H732 C709 0.950 . S
H733 C711 0.950 . S
C734 C735 1.349 . S
C734 C736 1.327 . S
C734 H759 0.950 . S
C735 C734 1.349 . S
C735 C751 1.349 . S
C736 C734 1.327 . S
C736 C755 1.429 . S
C736 H760 0.950 . S
C737 C754 1.574 . S
C737 C756 1.368 . S
C737 H761 0.949 . S
H738 C742 0.949 . S
C739 C740 1.349 . S
C739 C741 1.327 . S
C739 H762 0.950 . S
C740 C739 1.349 . S
C740 C752 1.349 . S
C741 C739 1.327 . S
C741 C757 1.429 . S
C741 H763 0.950 . S
C742 H738 0.949 . S
C742 C750 1.574 . S
C742 C758 1.368 . S
H743 C751 0.950 . S
H744 C749 0.950 . S
H745 C750 0.949 . S
H746 C752 0.950 . S
H747 C753 0.950 . S
H748 C754 0.949 . S
C749 H744 0.950 . S
C749 C751 1.327 . S
C749 C755 1.429 . S
C750 C742 1.574 . S
C750 H745 0.949 . S
C750 C756 1.368 1_655 S
C751 C735 1.349 . S
C751 H743 0.950 . S
C751 C749 1.327 . S
C752 C740 1.349 . S
C752 H746 0.950 . S
C752 C753 1.327 . S
C753 H747 0.950 . S
C753 C752 1.327 . S
C753 C757 1.429 . S
C754 C737 1.574 . S
C754 H748 0.949 . S
C754 C758 1.368 1_455 S
C755 C736 1.429 . S
C755 C749 1.429 . S
C755 C756 1.523 . S
C756 C737 1.368 . S
C756 C750 1.368 1_455 S
C756 C755 1.523 . S
C757 C741 1.429 . S
C757 C753 1.429 . S
C757 C758 1.523 . S
C758 C742 1.368 . S
C758 C754 1.368 1_655 S
C758 C757 1.523 . S
H759 C734 0.950 . S
H760 C736 0.950 . S
H761 C737 0.949 . S
H762 C739 0.950 . S
H763 C741 0.950 . S
C764 C765 1.349 . S
C764 C766 1.327 . S
C764 H789 0.950 . S
C765 C764 1.349 . S
C765 C781 1.349 . S
C766 C764 1.327 . S
C766 C785 1.429 . S
C766 H790 0.950 . S
C767 C784 1.574 . S
C767 C786 1.368 . S
C767 H791 0.949 . S
H768 C772 0.949 . S
C769 C770 1.349 . S
C769 C771 1.327 . S
C769 H792 0.950 . S
C770 C769 1.349 . S
C770 C782 1.349 . S
C771 C769 1.327 . S
C771 C787 1.429 . S
C771 H793 0.950 . S
C772 H768 0.949 . S
C772 C780 1.574 . S
C772 C788 1.368 . S
H773 C781 0.950 . S
H774 C779 0.950 . S
H775 C780 0.949 . S
H776 C782 0.950 . S
H777 C783 0.950 . S
H778 C784 0.949 . S
C779 H774 0.950 . S
C779 C781 1.327 . S
C779 C785 1.429 . S
C780 C772 1.574 . S
C780 H775 0.949 . S
C780 C786 1.368 . S
C781 C765 1.349 . S
C781 H773 0.950 . S
C781 C779 1.327 . S
C782 C770 1.349 . S
C782 H776 0.950 . S
C782 C783 1.327 . S
C783 H777 0.950 . S
C783 C782 1.327 . S
C783 C787 1.429 . S
C784 C767 1.574 . S
C784 H778 0.949 . S
C784 C788 1.368 . S
C785 C766 1.429 . S
C785 C779 1.429 . S
C785 C786 1.523 . S
C786 C767 1.368 . S
C786 C780 1.368 . S
C786 C785 1.523 . S
C787 C771 1.429 . S
C787 C783 1.429 . S
C787 C788 1.523 . S
C788 C772 1.368 . S
C788 C784 1.368 . S
C788 C787 1.523 . S
H789 C764 0.950 . S
H790 C766 0.950 . S
H791 C767 0.949 . S
H792 C769 0.950 . S
H793 C771 0.950 . S
C794 C795 1.349 . S
C794 C796 1.327 . S
C794 H819 0.950 . S
C795 C794 1.349 . S
C795 C811 1.349 . S
C796 C794 1.327 . S
C796 C815 1.429 . S
C796 H820 0.950 . S
C797 C814 1.574 1_545 S
C797 C816 1.368 . S
C797 H821 0.949 . S
H798 C802 0.949 . S
C799 C800 1.349 . S
C799 C801 1.327 . S
C799 H822 0.950 . S
C800 C799 1.349 . S
C800 C812 1.349 . S
C801 C799 1.327 . S
C801 C817 1.429 . S
C801 H823 0.950 . S
C802 H798 0.949 . S
C802 C810 1.574 1_565 S
C802 C818 1.368 . S
H803 C811 0.950 . S
H804 C809 0.950 . S
H805 C810 0.949 . S
H806 C812 0.950 . S
H807 C813 0.950 . S
H808 C814 0.949 . S
C809 H804 0.950 . S
C809 C811 1.327 . S
C809 C815 1.429 . S
C810 C802 1.574 1_545 S
C810 H805 0.949 . S
C810 C816 1.368 . S
C811 C795 1.349 . S
C811 H803 0.950 . S
C811 C809 1.327 . S
C812 C800 1.349 . S
C812 H806 0.950 . S
C812 C813 1.327 . S
C813 H807 0.950 . S
C813 C812 1.327 . S
C813 C817 1.429 . S
C814 C797 1.574 1_565 S
C814 H808 0.949 . S
C814 C818 1.368 . S
C815 C796 1.429 . S
C815 C809 1.429 . S
C815 C816 1.523 . S
C816 C797 1.368 . S
C816 C810 1.368 . S
C816 C815 1.523 . S
C817 C801 1.429 . S
C817 C813 1.429 . S
C817 C818 1.523 . S
C818 C802 1.368 . S
C818 C814 1.368 . S
C818 C817 1.523 . S
H819 C794 0.950 . S
H820 C796 0.950 . S
H821 C797 0.949 . S
H822 C799 0.950 . S
H823 C801 0.950 . S
C824 C825 1.349 . S
C824 C826 1.327 . S
C824 H849 0.950 . S
C825 C824 1.349 . S
C825 C841 1.349 . S
C826 C824 1.327 . S
C826 C845 1.429 . S
C826 H850 0.950 . S
C827 C844 1.574 1_455 S
C827 C846 1.368 . S
C827 H851 0.949 . S
H828 C832 0.949 . S
C829 C830 1.349 . S
C829 C831 1.327 . S
C829 H852 0.950 . S
C830 C829 1.349 . S
C830 C842 1.349 . S
C831 C829 1.327 . S
C831 C847 1.429 . S
C831 H853 0.950 . S
C832 H828 0.949 . S
C832 C840 1.574 1_655 S
C832 C848 1.368 . S
H833 C841 0.950 . S
H834 C839 0.950 . S
H835 C840 0.949 . S
H836 C842 0.950 . S
H837 C843 0.950 . S
H838 C844 0.949 . S
C839 H834 0.950 . S
C839 C841 1.327 . S
C839 C845 1.429 . S
C840 C832 1.574 1_455 S
C840 H835 0.949 . S
C840 C846 1.368 . S
C841 C825 1.349 . S
C841 H833 0.950 . S
C841 C839 1.327 . S
C842 C830 1.349 . S
C842 H836 0.950 . S
C842 C843 1.327 . S
C843 H837 0.950 . S
C843 C842 1.327 . S
C843 C847 1.429 . S
C844 C827 1.574 1_655 S
C844 H838 0.949 . S
C844 C848 1.368 . S
C845 C826 1.429 . S
C845 C839 1.429 . S
C845 C846 1.523 . S
C846 C827 1.368 . S
C846 C840 1.368 . S
C846 C845 1.523 . S
C847 C831 1.429 . S
C847 C843 1.429 . S
C847 C848 1.523 . S
C848 C832 1.368 . S
C848 C844 1.368 . S
C848 C847 1.523 . S
H849 C824 0.950 . S
H850 C826 0.950 . S
H851 C827 0.949 . S
H852 C829 0.950 . S
H853 C831 0.950 . S
C854 C855 1.349 . S
C854 C856 1.327 . S
C854 H879 0.950 . S
C855 C854 1.349 . S
C855 C871 1.349 . S
C856 C854 1.327 . S
C856 C875 1.429 . S
C856 H880 0.950 . S
C857 C874 1.574 . S
C857 C876 1.368 . S
C857 H881 0.949 . S
H858 C862 0.949 . S
C859 C860 1.349 . S
C859 C861 1.327 . S
C859 H882 0.950 . S
C860 C859 1.349 . S
C860 C872 1.349 . S
C861 C859 1.327 . S
C861 C877 1.429 . S
C861 H883 0.950 . S
C862 H858 0.949 . S
C862 C870 1.574 . S
C862 C878 1.368 . S
H863 C871 0.950 . S
H864 C869 0.950 . S
H865 C870 0.949 . S
H866 C872 0.950 . S
H867 C873 0.950 . S
H868 C874 0.949 . S
C869 H864 0.950 . S
C869 C871 1.327 . S
C869 C875 1.429 . S
C870 C862 1.574 . S
C870 H865 0.949 . S
C870 C876 1.368 . S
C871 C855 1.349 . S
C871 H863 0.950 . S
C871 C869 1.327 . S
C872 C860 1.349 . S
C872 H866 0.950 . S
C872 C873 1.327 . S
C873 H867 0.950 . S
C873 C872 1.327 . S
C873 C877 1.429 . S
C874 C857 1.574 . S
C874 H868 0.949 . S
C874 C878 1.368 . S
C875 C856 1.429 . S
C875 C869 1.429 . S
C875 C876 1.523 . S
C876 C857 1.368 . S
C876 C870 1.368 . S
C876 C875 1.523 . S
C877 C861 1.429 . S
C877 C873 1.429 . S
C877 C878 1.523 . S
C878 C862 1.368 . S
C878 C874 1.368 . S
C878 C877 1.523 . S
H879 C854 0.950 . S
H880 C856 0.950 . S
H881 C857 0.949 . S
H882 C859 0.950 . S
H883 C861 0.950 . S
C884 C885 1.349 . S
C884 C886 1.327 . S
C884 H909 0.950 . S
C885 C884 1.349 . S
C885 C901 1.349 . S
C886 C884 1.327 . S
C886 C905 1.429 . S
C886 H910 0.950 . S
C887 C904 1.574 . S
C887 C906 1.368 1_545 S
C887 H911 0.949 . S
H888 C892 0.949 . S
C889 C890 1.349 . S
C889 C891 1.327 . S
C889 H912 0.950 . S
C890 C889 1.349 . S
C890 C902 1.349 . S
C891 C889 1.327 . S
C891 C907 1.429 . S
C891 H913 0.950 . S
C892 H888 0.949 . S
C892 C900 1.574 . S
C892 C908 1.368 1_565 S
H893 C901 0.950 . S
H894 C899 0.950 . S
H895 C900 0.949 . S
H896 C902 0.950 . S
H897 C903 0.950 . S
H898 C904 0.949 . S
C899 H894 0.950 . S
C899 C901 1.327 . S
C899 C905 1.429 . S
C900 C892 1.574 . S
C900 H895 0.949 . S
C900 C906 1.368 . S
C901 C885 1.349 . S
C901 H893 0.950 . S
C901 C899 1.327 . S
C902 C890 1.349 . S
C902 H896 0.950 . S
C902 C903 1.327 . S
C903 H897 0.950 . S
C903 C902 1.327 . S
C903 C907 1.429 . S
C904 C887 1.574 . S
C904 H898 0.949 . S
C904 C908 1.368 . S
C905 C886 1.429 . S
C905 C899 1.429 . S
C905 C906 1.523 . S
C906 C887 1.368 1_565 S
C906 C900 1.368 . S
C906 C905 1.523 . S
C907 C891 1.429 . S
C907 C903 1.429 . S
C907 C908 1.523 . S
C908 C892 1.368 1_545 S
C908 C904 1.368 . S
C908 C907 1.523 . S
H909 C884 0.950 . S
H910 C886 0.950 . S
H911 C887 0.949 . S
H912 C889 0.950 . S
H913 C891 0.950 . S
C914 C915 1.349 . S
C914 C916 1.327 . S
C914 H939 0.950 . S
C915 C914 1.349 . S
C915 C931 1.349 . S
C916 C914 1.327 . S
C916 C935 1.429 . S
C916 H940 0.950 . S
C917 C934 1.574 1_545 S
C917 C936 1.368 1_655 S
C917 H941 0.949 . S
H918 C922 0.949 . S
C919 C920 1.349 . S
C919 C921 1.327 . S
C919 H942 0.950 . S
C920 C919 1.349 . S
C920 C932 1.349 . S
C921 C919 1.327 . S
C921 C937 1.429 . S
C921 H943 0.950 . S
C922 H918 0.949 . S
C922 C930 1.574 1_565 S
C922 C938 1.368 1_455 S
H923 C931 0.950 . S
H924 C929 0.950 . S
H925 C930 0.949 . S
H926 C932 0.950 . S
H927 C933 0.950 . S
H928 C934 0.949 . S
C929 H924 0.950 . S
C929 C931 1.327 . S
C929 C935 1.429 . S
C930 C922 1.574 1_545 S
C930 H925 0.949 . S
C930 C936 1.368 . S
C931 C915 1.349 . S
C931 H923 0.950 . S
C931 C929 1.327 . S
C932 C920 1.349 . S
C932 H926 0.950 . S
C932 C933 1.327 . S
C933 H927 0.950 . S
C933 C932 1.327 . S
C933 C937 1.429 . S
C934 C917 1.574 1_565 S
C934 H928 0.949 . S
C934 C938 1.368 . S
C935 C916 1.429 . S
C935 C929 1.429 . S
C935 C936 1.523 . S
C936 C917 1.368 1_455 S
C936 C930 1.368 . S
C936 C935 1.523 . S
C937 C921 1.429 . S
C937 C933 1.429 . S
C937 C938 1.523 . S
C938 C922 1.368 1_655 S
C938 C934 1.368 . S
C938 C937 1.523 . S
H939 C914 0.950 . S
H940 C916 0.950 . S
H941 C917 0.949 . S
H942 C919 0.950 . S
H943 C921 0.950 . S
C944 C945 1.349 . S
C944 C946 1.327 . S
C944 H969 0.950 . S
C945 C944 1.349 . S
C945 C961 1.349 . S
C946 C944 1.327 . S
C946 C965 1.429 . S
C946 H970 0.950 . S
C947 C964 1.574 . S
C947 C966 1.368 . S
C947 H971 0.949 . S
H948 C952 0.949 . S
C949 C950 1.349 . S
C949 C951 1.327 . S
C949 H972 0.950 . S
C950 C949 1.349 . S
C950 C962 1.349 . S
C951 C949 1.327 . S
C951 C967 1.429 . S
C951 H973 0.950 . S
C952 H948 0.949 . S
C952 C960 1.574 . S
C952 C968 1.368 . S
H953 C961 0.950 . S
H954 C959 0.950 . S
H955 C960 0.949 . S
H956 C962 0.950 . S
H957 C963 0.950 . S
H958 C964 0.949 . S
C959 H954 0.950 . S
C959 C961 1.327 . S
C959 C965 1.429 . S
C960 C952 1.574 . S
C960 H955 0.949 . S
C960 C966 1.368 1_545 S
C961 C945 1.349 . S
C961 H953 0.950 . S
C961 C959 1.327 . S
C962 C950 1.349 . S
C962 H956 0.950 . S
C962 C963 1.327 . S
C963 H957 0.950 . S
C963 C962 1.327 . S
C963 C967 1.429 . S
C964 C947 1.574 . S
C964 H958 0.949 . S
C964 C968 1.368 1_565 S
C965 C946 1.429 . S
C965 C959 1.429 . S
C965 C966 1.523 . S
C966 C947 1.368 . S
C966 C960 1.368 1_565 S
C966 C965 1.523 . S
C967 C951 1.429 . S
C967 C963 1.429 . S
C967 C968 1.523 . S
C968 C952 1.368 . S
C968 C964 1.368 1_545 S
C968 C967 1.523 . S
H969 C944 0.950 . S
H970 C946 0.950 . S
H971 C947 0.949 . S
H972 C949 0.950 . S
H973 C951 0.950 . S
C974 C975 1.349 . S
C974 C976 1.327 . S
C974 H999 0.950 . S
C975 C974 1.349 . S
C975 C991 1.349 . S
C976 C974 1.327 . S
C976 C995 1.429 . S
C976 H1000 0.950 . S
C977 C994 1.574 1_565 S
C977 C996 1.368 . S
C977 H1001 0.949 . S
H978 C982 0.949 . S
C979 C980 1.349 . S
C979 C981 1.327 . S
C979 H1002 0.950 . S
C980 C979 1.349 . S
C980 C992 1.349 . S
C981 C979 1.327 . S
C981 C997 1.429 . S
C981 H1003 0.950 . S
C982 H978 0.949 . S
C982 C990 1.574 1_545 S
C982 C998 1.368 . S
H983 C991 0.950 . S
H984 C989 0.950 . S
H985 C990 0.949 . S
H986 C992 0.950 . S
H987 C993 0.950 . S
H988 C994 0.949 . S
C989 H984 0.950 . S
C989 C991 1.327 . S
C989 C995 1.429 . S
C990 C982 1.574 1_565 S
C990 H985 0.949 . S
C990 C996 1.368 1_455 S
C991 C975 1.349 . S
C991 H983 0.950 . S
C991 C989 1.327 . S
C992 C980 1.349 . S
C992 H986 0.950 . S
C992 C993 1.327 . S
C993 H987 0.950 . S
C993 C992 1.327 . S
C993 C997 1.429 . S
C994 C977 1.574 1_545 S
C994 H988 0.949 . S
C994 C998 1.368 1_655 S
C995 C976 1.429 . S
C995 C989 1.429 . S
C995 C996 1.523 . S
C996 C977 1.368 . S
C996 C990 1.368 1_655 S
C996 C995 1.523 . S
C997 C981 1.429 . S
C997 C993 1.429 . S
C997 C998 1.523 . S
C998 C982 1.368 . S
C998 C994 1.368 1_455 S
C998 C997 1.523 . S
H999 C974 0.950 . S
H1000 C976 0.950 . S
H1001 C977 0.949 . S
H1002 C979 0.950 . S
H1003 C981 0.950 . S
C1004 C1005 1.349 . S
C1004 C1006 1.327 . S
C1004 H1029 0.950 . S
C1005 C1004 1.349 . S
C1005 C1021 1.349 . S
C1006 C1004 1.327 . S
C1006 C1025 1.429 . S
C1006 H1030 0.950 . S
C1007 C1024 1.574 1_455 S
C1007 C1026 1.368 . S
C1007 H1031 0.949 . S
H1008 C1012 0.949 . S
C1009 C1010 1.349 . S
C1009 C1011 1.327 . S
C1009 H1032 0.950 . S
C1010 C1009 1.349 . S
C1010 C1022 1.349 . S
C1011 C1009 1.327 . S
C1011 C1027 1.429 . S
C1011 H1033 0.950 . S
C1012 H1008 0.949 . S
C1012 C1020 1.574 1_655 S
C1012 C1028 1.368 . S
H1013 C1021 0.950 . S
H1014 C1019 0.950 . S
H1015 C1020 0.949 . S
H1016 C1022 0.950 . S
H1017 C1023 0.950 . S
H1018 C1024 0.949 . S
C1019 H1014 0.950 . S
C1019 C1021 1.327 . S
C1019 C1025 1.429 . S
C1020 C1012 1.574 1_455 S
C1020 H1015 0.949 . S
C1020 C1026 1.368 . S
C1021 C1005 1.349 . S
C1021 H1013 0.950 . S
C1021 C1019 1.327 . S
C1022 C1010 1.349 . S
C1022 H1016 0.950 . S
C1022 C1023 1.327 . S
C1023 H1017 0.950 . S
C1023 C1022 1.327 . S
C1023 C1027 1.429 . S
C1024 C1007 1.574 1_655 S
C1024 H1018 0.949 . S
C1024 C1028 1.368 . S
C1025 C1006 1.429 . S
C1025 C1019 1.429 . S
C1025 C1026 1.523 . S
C1026 C1007 1.368 . S
C1026 C1020 1.368 . S
C1026 C1025 1.523 . S
C1027 C1011 1.429 . S
C1027 C1023 1.429 . S
C1027 C1028 1.523 . S
C1028 C1012 1.368 . S
C1028 C1024 1.368 . S
C1028 C1027 1.523 . S
H1029 C1004 0.950 . S
H1030 C1006 0.950 . S
H1031 C1007 0.949 . S
H1032 C1009 0.950 . S
H1033 C1011 0.950 . S
C1034 C1035 1.349 . S
C1034 C1036 1.327 . S
C1034 H1059 0.950 . S
C1035 C1034 1.349 . S
C1035 C1051 1.349 . S
C1036 C1034 1.327 . S
C1036 C1055 1.429 . S
C1036 H1060 0.950 . S
C1037 C1054 1.574 . S
C1037 C1056 1.368 . S
C1037 H1061 0.949 . S
H1038 C1042 0.949 . S
C1039 C1040 1.349 . S
C1039 C1041 1.327 . S
C1039 H1062 0.950 . S
C1040 C1039 1.349 . S
C1040 C1052 1.349 . S
C1041 C1039 1.327 . S
C1041 C1057 1.429 . S
C1041 H1063 0.950 . S
C1042 H1038 0.949 . S
C1042 C1050 1.574 . S
C1042 C1058 1.368 . S
H1043 C1051 0.950 . S
H1044 C1049 0.950 . S
H1045 C1050 0.949 . S
H1046 C1052 0.950 . S
H1047 C1053 0.950 . S
H1048 C1054 0.949 . S
C1049 H1044 0.950 . S
C1049 C1051 1.327 . S
C1049 C1055 1.429 . S
C1050 C1042 1.574 . S
C1050 H1045 0.949 . S
C1050 C1056 1.368 . S
C1051 C1035 1.349 . S
C1051 H1043 0.950 . S
C1051 C1049 1.327 . S
C1052 C1040 1.349 . S
C1052 H1046 0.950 . S
C1052 C1053 1.327 . S
C1053 H1047 0.950 . S
C1053 C1052 1.327 . S
C1053 C1057 1.429 . S
C1054 C1037 1.574 . S
C1054 H1048 0.949 . S
C1054 C1058 1.368 . S
C1055 C1036 1.429 . S
C1055 C1049 1.429 . S
C1055 C1056 1.523 . S
C1056 C1037 1.368 . S
C1056 C1050 1.368 . S
C1056 C1055 1.523 . S
C1057 C1041 1.429 . S
C1057 C1053 1.429 . S
C1057 C1058 1.523 . S
C1058 C1042 1.368 . S
C1058 C1054 1.368 . S
C1058 C1057 1.523 . S
H1059 C1034 0.950 . S
H1060 C1036 0.950 . S
H1061 C1037 0.949 . S
H1062 C1039 0.950 . S
H1063 C1041 0.950 . S
C1064 C1065 1.349 . S
C1064 C1066 1.327 . S
C1064 H1089 0.950 . S
C1065 C1064 1.349 . S
C1065 C1081 1.349 . S
C1066 C1064 1.327 . S
C1066 C1085 1.429 . S
C1066 H1090 0.950 . S
C1067 C1084 1.574 . S
C1067 C1086 1.368 . S
C1067 H1091 0.949 . S
H1068 C1072 0.949 . S
C1069 C1070 1.349 . S
C1069 C1071 1.327 . S
C1069 H1092 0.950 . S
C1070 C1069 1.349 . S
C1070 C1082 1.349 . S
C1071 C1069 1.327 . S
C1071 C1087 1.429 . S
C1071 H1093 0.950 . S
C1072 H1068 0.949 . S
C1072 C1080 1.574 . S
C1072 C1088 1.368 . S
H1073 C1081 0.950 . S
H1074 C1079 0.950 . S
H1075 C1080 0.949 . S
H1076 C1082 0.950 . S
H1077 C1083 0.950 . S
H1078 C1084 0.949 . S
C1079 H1074 0.950 . S
C1079 C1081 1.327 . S
C1079 C1085 1.429 . S
C1080 C1072 1.574 . S
C1080 H1075 0.949 . S
C1080 C1086 1.368 . S
C1081 C1065 1.349 . S
C1081 H1073 0.950 . S
C1081 C1079 1.327 . S
C1082 C1070 1.349 . S
C1082 H1076 0.950 . S
C1082 C1083 1.327 . S
C1083 H1077 0.950 . S
C1083 C1082 1.327 . S
C1083 C1087 1.429 . S
C1084 C1067 1.574 . S
C1084 H1078 0.949 . S
C1084 C1088 1.368 . S
C1085 C1066 1.429 . S
C1085 C1079 1.429 . S
C1085 C1086 1.523 . S
C1086 C1067 1.368 . S
C1086 C1080 1.368 . S
C1086 C1085 1.523 . S
C1087 C1071 1.429 . S
C1087 C1083 1.429 . S
C1087 C1088 1.523 . S
C1088 C1072 1.368 . S
C1088 C1084 1.368 . S
C1088 C1087 1.523 . S
H1089 C1064 0.950 . S
H1090 C1066 0.950 . S
H1091 C1067 0.949 . S
H1092 C1069 0.950 . S
H1093 C1071 0.950 . S
C1094 C1095 1.349 . S
C1094 C1096 1.327 . S
C1094 H1119 0.950 . S
C1095 C1094 1.349 . S
C1095 C1111 1.349 . S
C1096 C1094 1.327 . S
C1096 C1115 1.429 . S
C1096 H1120 0.950 . S
C1097 C1114 1.574 1_545 S
C1097 C1116 1.368 . S
C1097 H1121 0.949 . S
H1098 C1102 0.949 . S
C1099 C1100 1.349 . S
C1099 C1101 1.327 . S
C1099 H1122 0.950 . S
C1100 C1099 1.349 . S
C1100 C1112 1.349 . S
C1101 C1099 1.327 . S
C1101 C1117 1.429 . S
C1101 H1123 0.950 . S
C1102 H1098 0.949 . S
C1102 C1110 1.574 1_565 S
C1102 C1118 1.368 . S
H1103 C1111 0.950 . S
H1104 C1109 0.950 . S
H1105 C1110 0.949 . S
H1106 C1112 0.950 . S
H1107 C1113 0.950 . S
H1108 C1114 0.949 . S
C1109 H1104 0.950 . S
C1109 C1111 1.327 . S
C1109 C1115 1.429 . S
C1110 C1102 1.574 1_545 S
C1110 H1105 0.949 . S
C1110 C1116 1.368 . S
C1111 C1095 1.349 . S
C1111 H1103 0.950 . S
C1111 C1109 1.327 . S
C1112 C1100 1.349 . S
C1112 H1106 0.950 . S
C1112 C1113 1.327 . S
C1113 H1107 0.950 . S
C1113 C1112 1.327 . S
C1113 C1117 1.429 . S
C1114 C1097 1.574 1_565 S
C1114 H1108 0.949 . S
C1114 C1118 1.368 . S
C1115 C1096 1.429 . S
C1115 C1109 1.429 . S
C1115 C1116 1.523 . S
C1116 C1097 1.368 . S
C1116 C1110 1.368 . S
C1116 C1115 1.523 . S
C1117 C1101 1.429 . S
C1117 C1113 1.429 . S
C1117 C1118 1.523 . S
C1118 C1102 1.368 . S
C1118 C1114 1.368 . S
C1118 C1117 1.523 . S
H1119 C1094 0.950 . S
H1120 C1096 0.950 . S
H1121 C1097 0.949 . S
H1122 C1099 0.950 . S
H1123 C1101 0.950 . S
C1124 C1125 1.349 . S
C1124 C1126 1.327 . S
C1124 H1149 0.950 . S
C1125 C1124 1.349 . S
C1125 C1141 1.349 . S
C1126 C1124 1.327 . S
C1126 C1145 1.429 . S
C1126 H1150 0.950 . S
C1127 C1144 1.574 1_655 S
C1127 C1146 1.368 . S
C1127 H1151 0.949 . S
H1128 C1132 0.949 . S
C1129 C1130 1.349 . S
C1129 C1131 1.327 . S
C1129 H1152 0.950 . S
C1130 C1129 1.349 . S
C1130 C1142 1.349 . S
C1131 C1129 1.327 . S
C1131 C1147 1.429 . S
C1131 H1153 0.950 . S
C1132 H1128 0.949 . S
C1132 C1140 1.574 1_455 S
C1132 C1148 1.368 . S
H1133 C1141 0.950 . S
H1134 C1139 0.950 . S
H1135 C1140 0.949 . S
H1136 C1142 0.950 . S
H1137 C1143 0.950 . S
H1138 C1144 0.949 . S
C1139 H1134 0.950 . S
C1139 C1141 1.327 . S
C1139 C1145 1.429 . S
C1140 C1132 1.574 1_655 S
C1140 H1135 0.949 . S
C1140 C1146 1.368 1_545 S
C1141 C1125 1.349 . S
C1141 H1133 0.950 . S
C1141 C1139 1.327 . S
C1142 C1130 1.349 . S
C1142 H1136 0.950 . S
C1142 C1143 1.327 . S
C1143 H1137 0.950 . S
C1143 C1142 1.327 . S
C1143 C1147 1.429 . S
C1144 C1127 1.574 1_455 S
C1144 H1138 0.949 . S
C1144 C1148 1.368 1_565 S
C1145 C1126 1.429 . S
C1145 C1139 1.429 . S
C1145 C1146 1.523 . S
C1146 C1127 1.368 . S
C1146 C1140 1.368 1_565 S
C1146 C1145 1.523 . S
C1147 C1131 1.429 . S
C1147 C1143 1.429 . S
C1147 C1148 1.523 . S
C1148 C1132 1.368 . S
C1148 C1144 1.368 1_545 S
C1148 C1147 1.523 . S
H1149 C1124 0.950 . S
H1150 C1126 0.950 . S
H1151 C1127 0.949 . S
H1152 C1129 0.950 . S
H1153 C1131 0.950 . S
C1154 C1155 1.349 . S
C1154 C1156 1.327 . S
C1154 H1179 0.950 . S
C1155 C1154 1.349 . S
C1155 C1171 1.349 . S
C1156 C1154 1.327 . S
C1156 C1175 1.429 . S
C1156 H1180 0.950 . S
C1157 C1174 1.574 . S
C1157 C1176 1.368 1_455 S
C1157 H1181 0.949 . S
H1158 C1162 0.949 . S
C1159 C1160 1.349 . S
C1159 C1161 1.327 . S
C1159 H1182 0.950 . S
C1160 C1159 1.349 . S
C1160 C1172 1.349 . S
C1161 C1159 1.327 . S
C1161 C1177 1.429 . S
C1161 H1183 0.950 . S
C1162 H1158 0.949 . S
C1162 C1170 1.574 . S
C1162 C1178 1.368 1_655 S
H1163 C1171 0.950 . S
H1164 C1169 0.950 . S
H1165 C1170 0.949 . S
H1166 C1172 0.950 . S
H1167 C1173 0.950 . S
H1168 C1174 0.949 . S
C1169 H1164 0.950 . S
C1169 C1171 1.327 . S
C1169 C1175 1.429 . S
C1170 C1162 1.574 . S
C1170 H1165 0.949 . S
C1170 C1176 1.368 . S
C1171 C1155 1.349 . S
C1171 H1163 0.950 . S
C1171 C1169 1.327 . S
C1172 C1160 1.349 . S
C1172 H1166 0.950 . S
C1172 C1173 1.327 . S
C1173 H1167 0.950 . S
C1173 C1172 1.327 . S
C1173 C1177 1.429 . S
C1174 C1157 1.574 . S
C1174 H1168 0.949 . S
C1174 C1178 1.368 . S
C1175 C1156 1.429 . S
C1175 C1169 1.429 . S
C1175 C1176 1.523 . S
C1176 C1157 1.368 1_655 S
C1176 C1170 1.368 . S
C1176 C1175 1.523 . S
C1177 C1161 1.429 . S
C1177 C1173 1.429 . S
C1177 C1178 1.523 . S
C1178 C1162 1.368 1_455 S
C1178 C1174 1.368 . S
C1178 C1177 1.523 . S
H1179 C1154 0.950 . S
H1180 C1156 0.950 . S
H1181 C1157 0.949 . S
H1182 C1159 0.950 . S
H1183 C1161 0.950 . S
C225 C63 1.304 . S
C230 C7 1.304 . S
C255 C21 1.304 . S
C260 C77 1.304 . S
C285 C91 1.304 . S
C290 C35 1.304 . S
C315 C105 1.303 . S
C320 C49 1.304 . S
C345 C175 1.304 . S
C350 C119 1.304 . S
C375 C133 1.304 . S
C380 C189 1.304 . S
C405 C203 1.304 . S
C410 C147 1.304 . S
C435 C161 1.304 . S
C440 C217 1.303 . S
C465 C3 1.379 . S
C470 C213 1.379 . S
C495 C17 1.379 . S
C500 C171 1.379 . S
C525 C31 1.378 . S
C530 C185 1.378 . S
C555 C199 1.379 . S
C560 C45 1.379 . S
C585 C59 1.379 . S
C590 C129 1.379 . S
C615 C73 1.379 . S
C620 C143 1.379 . S
C645 C157 1.379 . S
C650 C87 1.379 . S
C675 C115 1.379 . S
C680 C101 1.379 . S
C705 C8 1.650 . S
C710 C148 1.650 . S
C735 C162 1.651 . S
C740 C22 1.651 . S
C765 C36 1.650 . S
C770 C120 1.650 . S
C795 C134 1.651 . S
C800 C50 1.651 . S
C825 C64 1.651 . S
C830 C204 1.651 . S
C855 C78 1.650 . S
C860 C218 1.650 . S
C885 C176 1.651 . S
C890 C92 1.651 . S
C915 C190 1.650 . S
C920 C106 1.650 . S
C945 C149 1.344 . S
C950 C9 1.344 . S
C975 C23 1.344 . S
C980 C163 1.344 . S
C1005 C37 1.344 . S
C1010 C121 1.344 . S
C1035 C135 1.344 . S
C1040 C51 1.344 . S
C1065 C205 1.344 . S
C1070 C65 1.344 . S
C1095 C219 1.344 . S
C1100 C79 1.344 . S
C1125 C177 1.344 . S
C1130 C93 1.344 . S
C1155 C107 1.344 . S
C1160 C191 1.344 . S
