# Generated by pormake.
# Topology rob, (6)-cn, num edge types: 1
# Building blocks:
#     Node 0, Type 0, BuildingBlock: UKALOJ_clean_sbu_0, # of connection points: 6
#     Node 1, Type 0, BuildingBlock: UKALOJ_clean_sbu_0, # of connection points: 6
#     Node 2, Type 0, BuildingBlock: UKALOJ_clean_sbu_0, # of connection points: 6
#     Node 3, Type 0, BuildingBlock: UKALOJ_clean_sbu_0, # of connection points: 6
#     Edge 4, Type (0, 0), BuildingBlock: EZIPEK_clean_linker_0, # of connection points: 2
#     Edge 5, Type (0, 0), BuildingBlock: EZIPEK_clean_linker_0, # of connection points: 2
#     Edge 6, Type (0, 0), BuildingBlock: EZIPEK_clean_linker_0, # of connection points: 2
#     Edge 7, Type (0, 0), BuildingBlock: EZIPEK_clean_linker_0, # of connection points: 2
#     Edge 8, Type (0, 0), BuildingBlock: EZIPEK_clean_linker_0, # of connection points: 2
#     Edge 9, Type (0, 0), BuildingBlock: EZIPEK_clean_linker_0, # of connection points: 2
#     Edge 10, Type (0, 0), BuildingBlock: EZIPEK_clean_linker_0, # of connection points: 2
#     Edge 11, Type (0, 0), BuildingBlock: EZIPEK_clean_linker_0, # of connection points: 2
#     Edge 12, Type (0, 0), BuildingBlock: EZIPEK_clean_linker_0, # of connection points: 2
#     Edge 13, Type (0, 0), BuildingBlock: EZIPEK_clean_linker_0, # of connection points: 2
#     Edge 14, Type (0, 0), BuildingBlock: EZIPEK_clean_linker_0, # of connection points: 2
#     Edge 15, Type (0, 0), BuildingBlock: EZIPEK_clean_linker_0, # of connection points: 2
# Relax obj value: 0.125
# Max RMSD: 0.181
# Mean RMSD: 0.181
data_MOF--net-rob--node1-UKALOJ_clean_sbu_0--edge1-EZIPEK_clean_linker_0
_symmetry_space_group_name_H-M    P1
_symmetry_Int_Tables_number       1
_symmetry_cell_setting            triclinic
loop_
_symmetry_equiv_pos_as_xyz
'x, y, z'
_cell_length_a     10.60164
_cell_length_b     30.469319
_cell_length_c     17.167064
_cell_angle_alpha  99.194363
_cell_angle_beta   89.800958
_cell_angle_gamma 90.192601
loop_
_atom_site_label
_atom_site_type_symbol
_atom_site_fract_x
_atom_site_fract_y
_atom_site_fract_z
_atom_type_partial_charge
Zn0 Zn 0.25897 0.31367 0.01107 0.0
O1 O 0.30449 0.29269 0.89038 0.0
C2 C 0.98762 0.30509 0.96131 0.0
Zn3 Zn 0.1808 0.24627 0.01064 0.0
C4 C 0.27815 0.25416 0.85315 0.0
O5 O 0.22657 0.22559 0.88975 0.0
C6 C 0.16251 0.30573 0.16855 0.0
O7 O 0.35888 0.22691 0.04808 0.0
O8 O 0.4362 0.29356 0.04771 0.0
N9 N 0.10111 0.18684 0.02186 0.0
C10 C 0.12992 0.14364 0.99886 0.0
C11 C 0.95802 0.14597 0.0645 0.0
N12 N -0.00571 0.18806 0.06246 0.0
N13 N 0.04172 0.11754 0.02527 0.0
C14 C 0.42257 0.39691 0.98327 0.0
C15 C 0.28771 0.44779 0.02106 0.0
N16 N 0.31796 0.37695 0.00625 0.0
N17 N 0.23486 0.40874 0.02958 0.0
N18 N 0.40518 0.44134 0.99182 0.0
H19 H 0.52476 0.33718 0.93702 0.0
H20 H 0.61239 0.37875 0.00262 0.0
H21 H 0.58165 0.38738 0.90409 0.0
C22 C 0.54163 0.37334 0.9546 0.0
C23 C 0.2416 0.12711 0.94951 0.0
H24 H 0.31299 0.15373 0.94985 0.0
H25 H 0.21005 0.11591 0.88795 0.0
H26 H 0.28391 0.09813 0.97135 0.0
O27 O 0.13385 0.26779 0.1307 0.0
O28 O 0.2153 0.33392 0.13217 0.0
C29 C 0.45103 0.25399 0.06115 0.0
O30 O 0.07799 0.33269 0.9747 0.0
O31 O 0.00595 0.26581 0.97381 0.0
Zn32 Zn 0.76571 0.81054 0.00894 0.0
O33 O 0.95011 0.78944 0.97366 0.0
C34 C 0.67902 0.79264 0.84785 0.0
Zn35 Zn 0.7108 0.74067 0.98241 0.0
C36 C 0.97196 0.75062 0.93661 0.0
O37 O 0.88318 0.72219 0.92997 0.0
C38 C 0.50512 0.80055 0.05764 0.0
O39 O 0.77728 0.72685 0.09377 0.0
O40 O 0.79353 0.79865 0.12315 0.0
N41 N 0.63927 0.67803 0.95336 0.0
C42 C 0.67546 0.63777 0.96815 0.0
C43 C 0.49353 0.62992 0.91499 0.0
N44 N 0.52677 0.67292 0.91976 0.0
N45 N 0.58489 0.60719 0.94529 0.0
C46 C 0.89205 0.9024 0.00321 0.0
C47 C 0.84249 0.93817 0.11628 0.0
N48 N 0.82711 0.87427 0.04176 0.0
N49 N 0.79709 0.89653 0.11208 0.0
N50 N 0.90196 0.94265 0.0486 0.0
H51 H 0.02641 0.91162 0.91267 0.0
H52 H 0.8681 0.89927 0.87884 0.0
H53 H 0.96429 0.85571 0.90526 0.0
C54 C 0.94136 0.8914 0.92045 0.0
C55 C 0.79695 0.62858 0.00672 0.0
H56 H 0.86949 0.6536 0.99831 0.0
H57 H 0.83104 0.59473 0.98242 0.0
H58 H 0.78156 0.63 0.07095 0.0
O59 O 0.53725 0.76026 0.03704 0.0
O60 O 0.58171 0.83068 0.04455 0.0
C61 C 0.79776 0.76101 0.14515 0.0
O62 O 0.73501 0.82224 0.89542 0.0
O63 O 0.64765 0.75623 0.87048 0.0
Zn64 Zn 0.20757 0.81274 0.51983 0.0
O65 O 0.25396 0.82513 0.40453 0.0
C66 C -0.00498 0.75953 0.444 0.0
Zn67 Zn 0.26381 0.74235 0.47974 0.0
C68 C 0.29724 0.79475 0.35163 0.0
O69 O 0.31531 0.7558 0.36738 0.0
C70 C 0.1763 0.75958 0.64732 0.0
O71 O 0.44792 0.75812 0.52457 0.0
O72 O 0.39084 0.82774 0.5595 0.0
N73 N 0.30032 0.67569 0.45136 0.0
C74 C 0.40295 0.64947 0.43688 0.0
C75 C 0.24714 0.60736 0.45306 0.0
N76 N 0.20386 0.64918 0.46029 0.0
N77 N 0.37198 0.60655 0.43902 0.0
C78 C 0.17677 0.91672 0.53413 0.0
C79 C 0.00917 0.92592 0.60371 0.0
N80 N 0.14628 0.87692 0.55416 0.0
N81 N 0.04281 0.88298 0.59799 0.0
N82 N 0.09114 0.94787 0.56375 0.0
H83 H 0.36799 0.90388 0.49651 0.0
H84 H 0.31489 0.9603 0.49438 0.0
H85 H 0.26199 0.91523 0.42078 0.0
C86 C 0.28737 0.92467 0.48385 0.0
C87 C 0.53284 0.66572 0.42253 0.0
H88 H 0.52915 0.69852 0.40234 0.0
H89 H 0.58185 0.64123 0.37787 0.0
H90 H 0.58777 0.66886 0.47787 0.0
O91 O 0.2149 0.72955 0.59292 0.0
O92 O 0.16119 0.79878 0.6328 0.0
C93 C 0.47458 0.7977 0.55711 0.0
O94 O 0.02638 0.79714 0.48142 0.0
O95 O 0.0767 0.72873 0.43551 0.0
Zn96 Zn 0.68629 0.31247 0.51044 0.0
O97 O 0.86732 0.33173 0.47606 0.0
C98 C 0.66249 0.25578 0.35316 0.0
Zn99 Zn 0.76216 0.24435 0.51036 0.0
C100 C 0.9573 0.30405 0.46092 0.0
O101 O 0.93963 0.26408 0.47186 0.0
C102 C 0.49054 0.25333 0.56038 0.0
O103 O 0.81267 0.26274 0.63049 0.0
O104 O 0.73216 0.3292 0.63129 0.0
N105 N 0.81701 0.17965 0.51057 0.0
C106 C 0.92197 0.15824 0.52846 0.0
C107 C 0.77964 0.10908 0.49637 0.0
N108 N 0.72933 0.14886 0.49073 0.0
N109 N 0.90033 0.11393 0.52018 0.0
C110 C 0.62672 0.40744 0.46781 0.0
C111 C 0.49284 0.43017 0.55819 0.0
N112 N 0.61384 0.37504 0.51265 0.0
N113 N 0.53053 0.3894 0.56857 0.0
N114 N 0.55139 0.44219 0.49519 0.0
H115 H 0.79217 0.42978 0.41516 0.0
H116 H 0.66446 0.41631 0.3482 0.0
H117 H 0.75296 0.37208 0.38076 0.0
C118 C 0.71416 0.40579 0.39882 0.0
C119 C 0.04534 0.1804 0.55182 0.0
H120 H 0.10667 0.17763 0.49883 0.0
H121 H 0.09448 0.16354 0.59564 0.0
H122 H 0.03136 0.21601 0.57616 0.0
O123 O 0.58168 0.22614 0.54878 0.0
O124 O 0.50828 0.2923 0.54552 0.0
C125 C 0.7846 0.30106 0.66772 0.0
O126 O 0.63917 0.29456 0.38992 0.0
O127 O 0.7116 0.22709 0.38988 0.0
C128 C 0.55404 0.55198 0.03516 0.0
C129 C 0.57355 0.56176 0.95797 0.0
C130 C 0.50674 0.48641 0.90149 0.0
C131 C 0.48868 0.47672 0.97872 0.0
N132 N 0.52923 0.4947 0.11732 0.0
N133 N 0.59981 0.53599 0.81936 0.0
C134 C 0.52601 0.50765 0.04488 0.0
C135 C 0.56143 0.52785 0.89166 0.0
N136 N 0.54998 0.5855 0.09826 0.0
N137 N 0.46277 0.4576 0.83824 0.0
H138 H 0.63995 0.56635 0.81163 0.0
H139 H 0.60247 0.51167 0.76928 0.0
H140 H 0.42003 0.42742 0.84403 0.0
H141 H 0.46117 0.46489 0.78101 0.0
H142 H 0.524 0.58064 0.15485 0.0
H143 H 0.56055 0.61886 0.09279 0.0
H144 H 0.56513 0.51465 0.16735 0.0
H145 H 0.50732 0.46221 0.12498 0.0
C146 C 0.52018 0.56474 0.51083 0.0
C147 C 0.44954 0.56812 0.44195 0.0
C148 C 0.46323 0.48749 0.40084 0.0
C149 C 0.53593 0.48438 0.46881 0.0
N150 N 0.66196 0.5201 0.5764 0.0
N151 N 0.37972 0.5354 0.31306 0.0
C152 C 0.57498 0.5233 0.51919 0.0
C153 C 0.43131 0.53022 0.3837 0.0
N154 N 0.52508 0.5997 0.57141 0.0
N155 N 0.41673 0.44978 0.3564 0.0
H156 H 0.35599 0.5667 0.3002 0.0
H157 H 0.37136 0.50962 0.26559 0.0
H158 H 0.43555 0.41811 0.36907 0.0
H159 H 0.35236 0.45002 0.31078 0.0
H160 H 0.56394 0.59747 0.62628 0.0
H161 H 0.48038 0.62988 0.56958 0.0
H162 H 0.70213 0.54767 0.61138 0.0
H163 H 0.70251 0.48977 0.58325 0.0
C164 C 0.0955 0.04663 0.06852 0.0
C165 C 0.03123 0.07003 0.01591 0.0
C166 C 0.89023 1.00683 0.97717 0.0
C167 C 0.95428 0.98329 0.02987 0.0
N168 N 0.13364 0.9756 0.11139 0.0
N169 N 0.89168 0.06983 0.90651 0.0
C170 C 0.06285 1.00157 0.07063 0.0
C171 C 0.9372 0.04888 0.96508 0.0
N172 N 0.18206 0.0684 0.11949 0.0
N173 N 0.77961 0.99053 0.94351 0.0
H174 H 0.92532 0.10092 0.89768 0.0
H175 H 0.83033 0.05486 0.86286 0.0
H176 H 0.73983 0.96067 0.95386 0.0
H177 H 0.7221 1.00821 0.91055 0.0
H178 H 0.22247 0.05478 0.16536 0.0
H179 H 0.20829 0.10132 0.11839 0.0
H180 H 0.21974 0.9856 0.13749 0.0
H181 H 0.11077 0.94241 0.11309 0.0
C182 C 0.01249 0.06886 0.60623 0.0
C183 C 0.98186 0.07739 0.52978 0.0
C184 C 0.03868 1.0011 0.47329 0.0
C185 C 0.07343 0.99284 0.54936 0.0
N186 N 0.12257 1.02132 0.68436 0.0
N187 N -0.00201 0.05647 0.38947 0.0
C188 C 0.07086 1.02785 0.61447 0.0
C189 C 0.0075 0.04508 0.46291 0.0
N190 N 0.97732 0.09834 0.67102 0.0
N191 N 0.02406 0.96656 0.41267 0.0
H192 H 0.97501 0.08871 0.38123 0.0
H193 H 0.0249 0.03545 0.33818 0.0
H194 H 0.03698 0.93348 0.41923 0.0
H195 H 0.98694 0.97031 0.35802 0.0
H196 H 0.98519 0.09182 0.72855 0.0
H197 H 0.93159 0.1281 0.66683 0.0
H198 H 0.13274 0.04654 0.73263 0.0
H199 H 0.16599 0.99143 0.691 0.0
C200 C 0.69508 0.27665 0.21955 0.0
C201 C 0.64485 0.24627 0.26638 0.0
C202 C 0.54791 0.20495 0.14806 0.0
C203 C 0.55818 0.24332 0.11163 0.0
N204 N 0.67862 0.30907 0.09976 0.0
N205 N 0.53123 0.17774 0.27242 0.0
C206 C 0.64545 0.27688 0.14283 0.0
C207 C 0.57648 0.20848 0.22953 0.0
N208 N 0.79248 0.30401 0.24781 0.0
N209 N 0.51041 0.16566 0.10473 0.0
H210 H 0.54633 0.17956 0.33275 0.0
H211 H 0.46984 0.15226 0.24904 0.0
H212 H 0.49746 0.16248 0.04381 0.0
H213 H 0.50814 0.13579 0.127 0.0
H214 H 0.83957 0.32481 0.21483 0.0
H215 H 0.83469 0.30239 0.30204 0.0
H216 H 0.72794 0.33785 0.12246 0.0
H217 H 0.65632 0.30638 0.04012 0.0
C218 C 0.41953 0.84685 0.17861 0.0
C219 C 0.40153 0.81073 0.11687 0.0
C220 C 0.26597 0.77565 0.20533 0.0
C221 C 0.3207 0.80383 0.27055 0.0
N222 N 0.45841 0.86587 0.31811 0.0
N223 N 0.28364 0.74468 0.06634 0.0
C224 C 0.39785 0.84005 0.25718 0.0
C225 C 0.31482 0.77672 0.12835 0.0
N226 N 0.45806 0.88715 0.16235 0.0
N227 N 0.16684 0.74864 0.21698 0.0
H228 H 0.31152 0.74677 0.00866 0.0
H229 H 0.23341 0.71597 0.07226 0.0
H230 H 0.12709 0.74821 0.27254 0.0
H231 H 0.11619 0.73018 0.17111 0.0
H232 H 0.46627 0.91516 0.20573 0.0
H233 H 0.46416 0.8936 0.10453 0.0
H234 H 0.52443 0.89007 0.30934 0.0
H235 H 0.45303 0.86006 0.37619 0.0
C236 C 0.69766 0.76592 0.70166 0.0
C237 C 0.65966 0.79949 0.76507 0.0
C238 C 0.58428 0.84441 0.66884 0.0
C239 C 0.58473 0.80588 0.61133 0.0
N240 N 0.70265 0.74138 0.55908 0.0
N241 N 0.57045 0.87291 0.80783 0.0
C242 C 0.6613 0.76992 0.62335 0.0
C243 C 0.6078 0.84011 0.74842 0.0
N244 N 0.76653 0.73036 0.71654 0.0
N245 N 0.56082 0.88463 0.64673 0.0
H246 H 0.57644 0.87045 0.86747 0.0
H247 H 0.52106 0.90095 0.79776 0.0
H248 H 0.54975 0.88768 0.58738 0.0
H249 H 0.56795 0.9147 0.68508 0.0
H250 H 0.78446 0.70238 0.67482 0.0
H251 H 0.8064 0.7288 0.77144 0.0
H252 H 0.76494 0.71531 0.56131 0.0
H253 H 0.68168 0.74689 0.50202 0.0
C254 C 0.38527 0.2045 0.645 0.0
C255 C 0.38151 0.24379 0.61096 0.0
C256 C 0.24987 0.27784 0.72139 0.0
C257 C 0.29422 0.2455 0.7659 0.0
N258 N 0.39759 0.17481 0.76702 0.0
N259 N 0.27314 0.31261 0.60441 0.0
C260 C 0.35672 0.20707 0.72647 0.0
C261 C 0.29992 0.27859 0.64466 0.0
N262 N 0.41741 0.16527 0.59947 0.0
N263 N 0.15785 0.30689 0.752 0.0
H264 H 0.29456 0.31109 0.54472 0.0
H265 H 0.23005 0.34214 0.6297 0.0
H266 H 0.11561 0.30549 0.80646 0.0
H267 H 0.11457 0.32912 0.72059 0.0
H268 H 0.41376 0.13483 0.61978 0.0
H269 H 0.43239 0.16309 0.53879 0.0
H270 H 0.45487 0.14859 0.74176 0.0
H271 H 0.3836 0.17612 0.82734 0.0
C272 C 0.80156 0.71898 0.26408 0.0
C273 C 0.8222 0.75862 0.23044 0.0
C274 C 0.85334 0.79731 0.36404 0.0
C275 C 0.88549 0.75725 0.38944 0.0
N276 N 0.86542 0.67769 0.36766 0.0
N277 N 0.90967 0.8343 0.25718 0.0
C278 C 0.85141 0.71707 0.34068 0.0
C279 C 0.85781 0.79802 0.28274 0.0
N280 N 0.72963 0.68479 0.22677 0.0
N281 N 0.83141 0.83498 0.41658 0.0
H282 H 0.94612 0.83356 0.2006 0.0
H283 H 0.93794 0.86233 0.29649 0.0
H284 H 0.82364 0.8342 0.47704 0.0
H285 H 0.80682 0.86489 0.3983 0.0
H286 H 0.70865 0.65663 0.25178 0.0
H287 H 0.67535 0.6872 0.1773 0.0
H288 H 0.85473 0.64695 0.33169 0.0
H289 H 0.89055 0.67651 0.42607 0.0
C290 C 0.14889 0.28093 0.37775 0.0
C291 C 0.06546 0.31493 0.41105 0.0
C292 C 0.08932 0.35244 0.29658 0.0
C293 C 0.14947 0.31377 0.25597 0.0
N294 N 0.2732 0.2483 0.26405 0.0
N295 N 0.03011 0.39342 0.42449 0.0
C296 C 0.19243 0.28041 0.29908 0.0
C297 C 0.06062 0.35439 0.37785 0.0
N298 N 0.18736 0.25028 0.42249 0.0
N299 N 0.05003 0.38543 0.25716 0.0
H300 H 0.01514 0.3951 0.48507 0.0
H301 H 0.03483 0.42411 0.40512 0.0
H302 H 0.06562 0.38508 0.19716 0.0
H303 H -0.00674 0.41163 0.28314 0.0
H304 H 0.24812 0.22401 0.40365 0.0
H305 H 0.16366 0.25337 0.48209 0.0
H306 H 0.30058 0.2208 0.28851 0.0
H307 H 0.31613 0.24991 0.20991 0.0
C308 C 0.75177 0.27868 0.80021 0.0
C309 C 0.79876 0.31032 0.75479 0.0
C310 C 0.88516 0.35315 0.87528 0.0
C311 C 0.87937 0.31447 0.91085 0.0
N312 N 0.76845 0.24628 0.92012 0.0
N313 N 0.90043 0.38145 0.7519 0.0
C314 C 0.79791 0.27936 0.878 0.0
C315 C 0.8592 0.34949 0.79344 0.0
N316 N 0.66121 0.24896 0.76939 0.0
N317 N 0.91682 0.39279 0.91973 0.0
H318 H 0.8877 0.37961 0.69136 0.0
H319 H 0.95656 0.40817 0.77669 0.0
H320 H 0.93007 0.39564 0.98062 0.0
H321 H 0.91457 0.42291 0.89831 0.0
H322 H 0.61617 0.22712 0.80119 0.0
H323 H 0.62202 0.24924 0.71387 0.0
H324 H 0.7242 0.21665 0.8963 0.0
H325 H 0.78943 0.2487 0.97996 0.0
C326 C 0.20714 0.78082 0.79329 0.0
C327 C 0.15921 0.75011 0.72878 0.0
C328 C 0.07782 0.70506 0.82299 0.0
C329 C 0.08253 0.74282 0.88226 0.0
N330 N 0.18963 0.81118 0.93272 0.0
N331 N 0.04805 0.68075 0.68387 0.0
C332 C 0.16149 0.7788 0.87061 0.0
C333 C 0.0974 0.71078 0.74372 0.0
N334 N 0.29829 0.8107 0.78071 0.0
N335 N 0.05026 0.66451 0.8427 0.0
H336 H 0.05011 0.68484 0.62486 0.0
H337 H 0.99289 0.65383 0.694 0.0
H338 H 0.04035 0.66037 0.90166 0.0
H339 H 0.0526 0.63515 0.80213 0.0
H340 H 0.34271 0.83192 0.82587 0.0
H341 H 0.33891 0.81105 0.72542 0.0
H342 H 0.23242 0.84129 0.92694 0.0
H343 H 0.16797 0.80771 0.99076 0.0
loop_
_geom_bond_atom_site_label_1
_geom_bond_atom_site_label_2
_geom_bond_distance
_geom_bond_site_symmetry_2
_ccdc_geom_bond_type
Zn0 O1 2.055 1_554 S
Zn0 O8 2.046 . S
Zn0 N16 2.036 . S
Zn0 O28 2.053 . S
Zn0 O30 2.066 1_554 S
O1 Zn0 2.055 1_556 S
O1 C4 1.259 . S
C2 O30 1.256 . S
C2 O31 1.244 . S
Zn3 O5 2.046 . S
Zn3 O7 2.055 1_556 S
Zn3 N9 2.036 . S
Zn3 O27 2.066 1_556 S
Zn3 O31 2.053 . S
C4 O1 1.259 . S
C4 O5 1.254 . S
O5 Zn3 2.046 . S
O5 C4 1.254 . S
C6 O27 1.256 . S
C6 O28 1.244 . S
O7 Zn3 2.055 1_554 S
O7 C29 1.259 . S
O8 Zn0 2.046 . S
O8 C29 1.254 . S
N9 Zn3 2.036 . S
N9 C10 1.298 1_556 S
N9 N12 1.398 . S
C10 N9 1.298 1_554 S
C10 N13 1.367 1_554 S
C10 C23 1.481 . S
C11 N12 1.299 . S
C11 N13 1.379 . S
N12 N9 1.398 . S
N12 C11 1.299 . S
N13 C10 1.367 1_556 S
N13 C11 1.379 . S
C14 N16 1.298 1_556 S
C14 N18 1.367 1_556 S
C14 C22 1.481 . S
C15 N17 1.299 . S
C15 N18 1.379 . S
N16 Zn0 2.036 . S
N16 C14 1.298 1_554 S
N16 N17 1.398 . S
N17 C15 1.299 . S
N17 N16 1.398 . S
N18 C14 1.367 1_554 S
N18 C15 1.379 . S
H19 C22 0.980 . S
H20 C22 0.981 . S
H21 C22 0.981 . S
C22 C14 1.481 . S
C22 H19 0.980 . S
C22 H20 0.981 . S
C22 H21 0.981 . S
C23 C10 1.481 . S
C23 H24 0.980 . S
C23 H25 0.981 . S
C23 H26 0.981 . S
H24 C23 0.980 . S
H25 C23 0.981 . S
H26 C23 0.981 . S
O27 Zn3 2.066 1_554 S
O27 C6 1.256 . S
O28 Zn0 2.053 . S
O28 C6 1.244 . S
C29 O7 1.259 . S
C29 O8 1.254 . S
O30 Zn0 2.066 1_556 S
O30 C2 1.256 . S
O31 C2 1.244 . S
O31 Zn3 2.053 . S
Zn32 O33 2.055 1_554 S
Zn32 O40 2.046 . S
Zn32 N48 2.036 . S
Zn32 O60 2.053 . S
Zn32 O62 2.066 1_554 S
O33 Zn32 2.055 1_556 S
O33 C36 1.259 . S
C34 O62 1.256 . S
C34 O63 1.244 . S
Zn35 O37 2.046 . S
Zn35 O39 2.055 1_556 S
Zn35 N41 2.036 . S
Zn35 O59 2.066 1_556 S
Zn35 O63 2.053 . S
C36 O33 1.259 . S
C36 O37 1.254 . S
O37 Zn35 2.046 . S
O37 C36 1.254 . S
C38 O59 1.256 . S
C38 O60 1.244 . S
O39 Zn35 2.055 1_554 S
O39 C61 1.259 . S
O40 Zn32 2.046 . S
O40 C61 1.254 . S
N41 Zn35 2.036 . S
N41 C42 1.298 1_556 S
N41 N44 1.398 . S
C42 N41 1.298 1_554 S
C42 N45 1.367 1_554 S
C42 C55 1.481 . S
C43 N44 1.299 . S
C43 N45 1.379 . S
N44 N41 1.398 . S
N44 C43 1.299 . S
N45 C42 1.367 1_556 S
N45 C43 1.379 . S
C46 N48 1.298 1_556 S
C46 N50 1.367 1_556 S
C46 C54 1.481 . S
C47 N49 1.299 . S
C47 N50 1.379 . S
N48 Zn32 2.036 . S
N48 C46 1.298 1_554 S
N48 N49 1.398 . S
N49 C47 1.299 . S
N49 N48 1.398 . S
N50 C46 1.367 1_554 S
N50 C47 1.379 . S
H51 C54 0.980 . S
H52 C54 0.981 . S
H53 C54 0.981 . S
C54 C46 1.481 . S
C54 H51 0.980 . S
C54 H52 0.981 . S
C54 H53 0.981 . S
C55 C42 1.481 . S
C55 H56 0.980 . S
C55 H57 0.981 . S
C55 H58 0.981 . S
H56 C55 0.980 . S
H57 C55 0.981 . S
H58 C55 0.981 . S
O59 Zn35 2.066 1_554 S
O59 C38 1.256 . S
O60 Zn32 2.053 . S
O60 C38 1.244 . S
C61 O39 1.259 . S
C61 O40 1.254 . S
O62 Zn32 2.066 1_556 S
O62 C34 1.256 . S
O63 C34 1.244 . S
O63 Zn35 2.053 . S
Zn64 O65 2.055 . S
Zn64 O72 2.046 . S
Zn64 N80 2.036 . S
Zn64 O92 2.053 . S
Zn64 O94 2.066 . S
O65 Zn64 2.055 . S
O65 C68 1.259 . S
C66 O94 1.256 . S
C66 O95 1.244 . S
Zn67 O69 2.046 . S
Zn67 O71 2.055 . S
Zn67 N73 2.036 . S
Zn67 O91 2.066 . S
Zn67 O95 2.053 . S
C68 O65 1.259 . S
C68 O69 1.254 . S
O69 Zn67 2.046 . S
O69 C68 1.254 . S
C70 O91 1.256 . S
C70 O92 1.244 . S
O71 Zn67 2.055 . S
O71 C93 1.259 . S
O72 Zn64 2.046 . S
O72 C93 1.254 . S
N73 Zn67 2.036 . S
N73 C74 1.298 . S
N73 N76 1.398 . S
C74 N73 1.298 . S
C74 N77 1.367 . S
C74 C87 1.481 . S
C75 N76 1.299 . S
C75 N77 1.379 . S
N76 N73 1.398 . S
N76 C75 1.299 . S
N77 C74 1.367 . S
N77 C75 1.379 . S
C78 N80 1.298 . S
C78 N82 1.367 . S
C78 C86 1.481 . S
C79 N81 1.299 . S
C79 N82 1.379 . S
N80 Zn64 2.036 . S
N80 C78 1.298 . S
N80 N81 1.398 . S
N81 C79 1.299 . S
N81 N80 1.398 . S
N82 C78 1.367 . S
N82 C79 1.379 . S
H83 C86 0.980 . S
H84 C86 0.981 . S
H85 C86 0.981 . S
C86 C78 1.481 . S
C86 H83 0.980 . S
C86 H84 0.981 . S
C86 H85 0.981 . S
C87 C74 1.481 . S
C87 H88 0.980 . S
C87 H89 0.981 . S
C87 H90 0.981 . S
H88 C87 0.980 . S
H89 C87 0.981 . S
H90 C87 0.981 . S
O91 Zn67 2.066 . S
O91 C70 1.256 . S
O92 Zn64 2.053 . S
O92 C70 1.244 . S
C93 O71 1.259 . S
C93 O72 1.254 . S
O94 Zn64 2.066 . S
O94 C66 1.256 . S
O95 C66 1.244 . S
O95 Zn67 2.053 . S
Zn96 O97 2.055 . S
Zn96 O104 2.046 . S
Zn96 N112 2.036 . S
Zn96 O124 2.053 . S
Zn96 O126 2.066 . S
O97 Zn96 2.055 . S
O97 C100 1.259 . S
C98 O126 1.256 . S
C98 O127 1.244 . S
Zn99 O101 2.046 . S
Zn99 O103 2.055 . S
Zn99 N105 2.036 . S
Zn99 O123 2.066 . S
Zn99 O127 2.053 . S
C100 O97 1.259 . S
C100 O101 1.254 . S
O101 Zn99 2.046 . S
O101 C100 1.254 . S
C102 O123 1.256 . S
C102 O124 1.244 . S
O103 Zn99 2.055 . S
O103 C125 1.259 . S
O104 Zn96 2.046 . S
O104 C125 1.254 . S
N105 Zn99 2.036 . S
N105 C106 1.298 . S
N105 N108 1.398 . S
C106 N105 1.298 . S
C106 N109 1.367 . S
C106 C119 1.481 . S
C107 N108 1.299 . S
C107 N109 1.379 . S
N108 N105 1.398 . S
N108 C107 1.299 . S
N109 C106 1.367 . S
N109 C107 1.379 . S
C110 N112 1.298 . S
C110 N114 1.367 . S
C110 C118 1.481 . S
C111 N113 1.299 . S
C111 N114 1.379 . S
N112 Zn96 2.036 . S
N112 C110 1.298 . S
N112 N113 1.398 . S
N113 C111 1.299 . S
N113 N112 1.398 . S
N114 C110 1.367 . S
N114 C111 1.379 . S
H115 C118 0.980 . S
H116 C118 0.981 . S
H117 C118 0.981 . S
C118 C110 1.481 . S
C118 H115 0.980 . S
C118 H116 0.981 . S
C118 H117 0.981 . S
C119 C106 1.481 . S
C119 H120 0.980 . S
C119 H121 0.981 . S
C119 H122 0.981 . S
H120 C119 0.980 . S
H121 C119 0.981 . S
H122 C119 0.981 . S
O123 Zn99 2.066 . S
O123 C102 1.256 . S
O124 Zn96 2.053 . S
O124 C102 1.244 . S
C125 O103 1.259 . S
C125 O104 1.254 . S
O126 Zn96 2.066 . S
O126 C98 1.256 . S
O127 C98 1.244 . S
O127 Zn99 2.053 . S
C128 C129 1.367 . S
C128 C134 1.379 . S
C128 N136 1.356 . S
C129 C128 1.367 . S
C129 C135 1.360 1_554 S
C130 C131 1.352 1_556 S
C130 C135 1.379 . S
C130 N137 1.356 . S
C131 C130 1.352 1_554 S
C131 C134 1.372 . S
N132 C134 1.356 . S
N132 H144 0.984 . S
N132 H145 0.985 . S
N133 C135 1.356 . S
N133 H138 0.984 . S
N133 H139 0.985 . S
C134 C128 1.379 . S
C134 C131 1.372 . S
C134 N132 1.356 . S
C135 C129 1.360 1_556 S
C135 C130 1.379 . S
C135 N133 1.356 . S
N136 C128 1.356 . S
N136 H142 0.984 . S
N136 H143 0.984 . S
N137 C130 1.356 . S
N137 H140 0.984 . S
N137 H141 0.985 . S
H138 N133 0.984 . S
H139 N133 0.985 . S
H140 N137 0.984 . S
H141 N137 0.985 . S
H142 N136 0.984 . S
H143 N136 0.984 . S
H144 N132 0.984 . S
H145 N132 0.985 . S
C146 C147 1.363 . S
C146 C152 1.379 . S
C146 N154 1.356 . S
C147 C146 1.363 . S
C147 C153 1.363 . S
C148 C149 1.363 . S
C148 C153 1.379 . S
C148 N155 1.356 . S
C149 C148 1.363 . S
C149 C152 1.363 . S
N150 C152 1.356 . S
N150 H162 0.984 . S
N150 H163 0.985 . S
N151 C153 1.356 . S
N151 H156 0.984 . S
N151 H157 0.985 . S
C152 C146 1.379 . S
C152 C149 1.363 . S
C152 N150 1.356 . S
C153 C147 1.363 . S
C153 C148 1.379 . S
C153 N151 1.356 . S
N154 C146 1.356 . S
N154 H160 0.984 . S
N154 H161 0.984 . S
N155 C148 1.356 . S
N155 H158 0.984 . S
N155 H159 0.985 . S
H156 N151 0.984 . S
H157 N151 0.985 . S
H158 N155 0.984 . S
H159 N155 0.985 . S
H160 N154 0.984 . S
H161 N154 0.984 . S
H162 N150 0.984 . S
H163 N150 0.985 . S
C164 C165 1.367 . S
C164 C170 1.379 1_445 S
C164 N172 1.356 . S
C165 C164 1.367 . S
C165 C171 1.360 1_454 S
C166 C167 1.351 1_556 S
C166 C171 1.379 1_565 S
C166 N173 1.356 . S
C167 C166 1.351 1_554 S
C167 C170 1.373 . S
N168 C170 1.356 . S
N168 H180 0.984 . S
N168 H181 0.985 . S
N169 C171 1.356 1_455 S
N169 H174 0.984 . S
N169 H175 0.985 1_455 S
C170 C164 1.379 1_665 S
C170 C167 1.373 . S
C170 N168 1.356 . S
C171 C165 1.360 1_656 S
C171 C166 1.379 1_545 S
C171 N169 1.356 1_655 S
N172 C164 1.356 . S
N172 H178 0.984 . S
N172 H179 0.984 . S
N173 C166 1.356 . S
N173 H176 0.984 . S
N173 H177 0.985 . S
H174 N169 0.984 . S
H175 N169 0.985 1_655 S
H176 N173 0.984 . S
H177 N173 0.985 . S
H178 N172 0.984 . S
H179 N172 0.984 . S
H180 N168 0.984 . S
H181 N168 0.985 . S
C182 C183 1.363 . S
C182 C188 1.401 1_655 S
C182 N190 1.356 . S
C183 C182 1.363 . S
C183 C189 1.363 1_545 S
C184 C185 1.363 1_655 S
C184 C189 1.379 . S
C184 N191 1.356 . S
C185 C184 1.363 1_455 S
C185 C188 1.341 1_565 S
N186 C188 1.349 1_565 S
N186 H198 0.984 1_565 S
N186 H199 0.985 . S
N187 C189 1.356 1_545 S
N187 H192 0.984 . S
N187 H193 0.985 1_545 S
C188 C182 1.401 1_455 S
C188 C185 1.341 1_545 S
C188 N186 1.349 1_545 S
C189 C183 1.363 1_565 S
C189 C184 1.379 . S
C189 N187 1.356 1_565 S
N190 C182 1.356 . S
N190 H196 0.984 1_655 S
N190 H197 0.984 . S
N191 C184 1.356 . S
N191 H194 0.984 1_655 S
N191 H195 0.985 . S
H192 N187 0.984 . S
H193 N187 0.985 1_565 S
H194 N191 0.984 1_455 S
H195 N191 0.985 . S
H196 N190 0.984 1_455 S
H197 N190 0.984 . S
H198 N186 0.984 1_545 S
H199 N186 0.985 . S
C200 C201 1.363 . S
C200 C206 1.379 . S
C200 N208 1.356 . S
C201 C200 1.363 . S
C201 C207 1.363 . S
C202 C203 1.363 . S
C202 C207 1.379 . S
C202 N209 1.356 . S
C203 C202 1.363 . S
C203 C206 1.363 . S
N204 C206 1.356 . S
N204 H216 0.984 . S
N204 H217 0.985 . S
N205 C207 1.356 . S
N205 H210 0.984 . S
N205 H211 0.985 . S
C206 C200 1.379 . S
C206 C203 1.363 . S
C206 N204 1.356 . S
C207 C201 1.363 . S
C207 C202 1.379 . S
C207 N205 1.356 . S
N208 C200 1.356 . S
N208 H214 0.984 . S
N208 H215 0.984 . S
N209 C202 1.356 . S
N209 H212 0.984 . S
N209 H213 0.985 . S
H210 N205 0.984 . S
H211 N205 0.985 . S
H212 N209 0.984 . S
H213 N209 0.985 . S
H214 N208 0.984 . S
H215 N208 0.984 . S
H216 N204 0.984 . S
H217 N204 0.985 . S
C218 C219 1.363 . S
C218 C224 1.379 . S
C218 N226 1.356 . S
C219 C218 1.363 . S
C219 C225 1.363 . S
C220 C221 1.363 . S
C220 C225 1.379 . S
C220 N227 1.356 . S
C221 C220 1.363 . S
C221 C224 1.363 . S
N222 C224 1.356 . S
N222 H234 0.984 . S
N222 H235 0.985 . S
N223 C225 1.356 . S
N223 H228 0.984 . S
N223 H229 0.985 . S
C224 C218 1.379 . S
C224 C221 1.363 . S
C224 N222 1.356 . S
C225 C219 1.363 . S
C225 C220 1.379 . S
C225 N223 1.356 . S
N226 C218 1.356 . S
N226 H232 0.984 . S
N226 H233 0.984 . S
N227 C220 1.356 . S
N227 H230 0.984 . S
N227 H231 0.985 . S
H228 N223 0.984 . S
H229 N223 0.985 . S
H230 N227 0.984 . S
H231 N227 0.985 . S
H232 N226 0.984 . S
H233 N226 0.984 . S
H234 N222 0.984 . S
H235 N222 0.985 . S
C236 C237 1.363 . S
C236 C242 1.379 . S
C236 N244 1.356 . S
C237 C236 1.363 . S
C237 C243 1.363 . S
C238 C239 1.363 . S
C238 C243 1.379 . S
C238 N245 1.356 . S
C239 C238 1.363 . S
C239 C242 1.363 . S
N240 C242 1.356 . S
N240 H252 0.984 . S
N240 H253 0.985 . S
N241 C243 1.356 . S
N241 H246 0.984 . S
N241 H247 0.985 . S
C242 C236 1.379 . S
C242 C239 1.363 . S
C242 N240 1.356 . S
C243 C237 1.363 . S
C243 C238 1.379 . S
C243 N241 1.356 . S
N244 C236 1.356 . S
N244 H250 0.984 . S
N244 H251 0.984 . S
N245 C238 1.356 . S
N245 H248 0.984 . S
N245 H249 0.985 . S
H246 N241 0.984 . S
H247 N241 0.985 . S
H248 N245 0.984 . S
H249 N245 0.985 . S
H250 N244 0.984 . S
H251 N244 0.984 . S
H252 N240 0.984 . S
H253 N240 0.985 . S
C254 C255 1.363 . S
C254 C260 1.379 . S
C254 N262 1.356 . S
C255 C254 1.363 . S
C255 C261 1.363 . S
C256 C257 1.363 . S
C256 C261 1.379 . S
C256 N263 1.356 . S
C257 C256 1.363 . S
C257 C260 1.363 . S
N258 C260 1.356 . S
N258 H270 0.984 . S
N258 H271 0.985 . S
N259 C261 1.356 . S
N259 H264 0.984 . S
N259 H265 0.985 . S
C260 C254 1.379 . S
C260 C257 1.363 . S
C260 N258 1.356 . S
C261 C255 1.363 . S
C261 C256 1.379 . S
C261 N259 1.356 . S
N262 C254 1.356 . S
N262 H268 0.984 . S
N262 H269 0.984 . S
N263 C256 1.356 . S
N263 H266 0.984 . S
N263 H267 0.985 . S
H264 N259 0.984 . S
H265 N259 0.985 . S
H266 N263 0.984 . S
H267 N263 0.985 . S
H268 N262 0.984 . S
H269 N262 0.984 . S
H270 N258 0.984 . S
H271 N258 0.985 . S
C272 C273 1.363 . S
C272 C278 1.379 . S
C272 N280 1.356 . S
C273 C272 1.363 . S
C273 C279 1.363 1_655 S
C274 C275 1.363 . S
C274 C279 1.379 . S
C274 N281 1.356 . S
C275 C274 1.363 . S
C275 C278 1.363 1_455 S
N276 C278 1.356 . S
N276 H288 0.984 . S
N276 H289 0.985 . S
N277 C279 1.356 . S
N277 H282 0.984 . S
N277 H283 0.985 . S
C278 C272 1.379 . S
C278 C275 1.363 1_655 S
C278 N276 1.356 . S
C279 C273 1.363 1_455 S
C279 C274 1.379 . S
C279 N277 1.356 . S
N280 C272 1.356 . S
N280 H286 0.984 . S
N280 H287 0.984 . S
N281 C274 1.356 . S
N281 H284 0.984 . S
N281 H285 0.985 . S
H282 N277 0.984 . S
H283 N277 0.985 . S
H284 N281 0.984 . S
H285 N281 0.985 . S
H286 N280 0.984 . S
H287 N280 0.984 . S
H288 N276 0.984 . S
H289 N276 0.985 . S
C290 C291 1.363 1_455 S
C290 C296 1.379 . S
C290 N298 1.356 . S
C291 C290 1.363 1_655 S
C291 C297 1.363 . S
C292 C293 1.363 1_655 S
C292 C297 1.379 . S
C292 N299 1.356 . S
C293 C292 1.363 1_455 S
C293 C296 1.363 . S
N294 C296 1.356 . S
N294 H306 0.984 . S
N294 H307 0.985 . S
N295 C297 1.356 . S
N295 H300 0.984 . S
N295 H301 0.985 . S
C296 C290 1.379 . S
C296 C293 1.363 . S
C296 N294 1.356 . S
C297 C291 1.363 . S
C297 C292 1.379 . S
C297 N295 1.356 . S
N298 C290 1.356 . S
N298 H304 0.984 . S
N298 H305 0.984 . S
N299 C292 1.356 . S
N299 H302 0.984 1_655 S
N299 H303 0.985 . S
H300 N295 0.984 . S
H301 N295 0.985 . S
H302 N299 0.984 1_455 S
H303 N299 0.985 . S
H304 N298 0.984 . S
H305 N298 0.984 . S
H306 N294 0.984 . S
H307 N294 0.985 . S
C308 C309 1.363 . S
C308 C314 1.379 . S
C308 N316 1.356 . S
C309 C308 1.363 . S
C309 C315 1.363 1_655 S
C310 C311 1.363 . S
C310 C315 1.379 . S
C310 N317 1.356 . S
C311 C310 1.363 . S
C311 C314 1.363 1_455 S
N312 C314 1.356 . S
N312 H324 0.984 . S
N312 H325 0.982 1_655 S
N313 C315 1.356 . S
N313 H318 0.984 . S
N313 H319 0.985 . S
C314 C308 1.379 . S
C314 C311 1.363 1_655 S
C314 N312 1.356 . S
C315 C309 1.363 1_455 S
C315 C310 1.379 . S
C315 N313 1.356 . S
N316 C308 1.356 . S
N316 H322 0.984 . S
N316 H323 0.984 . S
N317 C310 1.356 . S
N317 H320 0.984 . S
N317 H321 0.985 . S
H318 N313 0.984 . S
H319 N313 0.985 . S
H320 N317 0.984 . S
H321 N317 0.985 . S
H322 N316 0.984 . S
H323 N316 0.984 . S
H324 N312 0.984 . S
H325 N312 0.982 1_455 S
C326 C327 1.363 . S
C326 C332 1.379 . S
C326 N334 1.356 . S
C327 C326 1.363 . S
C327 C333 1.363 1_455 S
C328 C329 1.363 . S
C328 C333 1.379 . S
C328 N335 1.356 . S
C329 C328 1.363 . S
C329 C332 1.363 1_655 S
N330 C332 1.356 . S
N330 H342 0.984 . S
N330 H343 0.985 . S
N331 C333 1.356 . S
N331 H336 0.984 1_655 S
N331 H337 0.985 . S
C332 C326 1.379 . S
C332 C329 1.363 1_455 S
C332 N330 1.356 . S
C333 C327 1.363 1_655 S
C333 C328 1.379 . S
C333 N331 1.356 . S
N334 C326 1.356 . S
N334 H340 0.984 . S
N334 H341 0.984 . S
N335 C328 1.356 . S
N335 H338 0.984 . S
N335 H339 0.985 . S
H336 N331 0.984 1_455 S
H337 N331 0.985 . S
H338 N335 0.984 . S
H339 N335 0.985 . S
H340 N334 0.984 . S
H341 N334 0.984 . S
H342 N330 0.984 . S
H343 N330 0.985 . S
C129 N45 1.623 1_554 S
C131 N18 1.590 . S
C147 N77 1.585 . S
C149 N114 1.625 . S
C165 N13 1.623 1_554 S
C167 N50 1.590 . S
C183 N109 1.585 . S
C185 N82 1.625 . S
C201 C98 1.165 . S
C203 C29 1.175 . S
C219 C38 1.165 . S
C221 C68 1.175 . S
C237 C34 1.184 . S
C239 C93 1.191 . S
C255 C102 1.184 . S
C257 C4 1.191 . S
C273 C61 1.176 . S
C275 C66 1.164 . S
C291 C100 1.176 . S
C293 C6 1.164 . S
C309 C125 1.190 . S
C311 C2 1.186 . S
C327 C70 1.184 . S
C329 C36 1.191 . S
