# Generated by pormake.
# Topology whc, (6)-cn, num edge types: 1
# Building blocks:
#     Node 0, Type 0, BuildingBlock: IZENUY_clean_sbu_0, # of connection points: 6
#     Node 1, Type 0, BuildingBlock: IZENUY_clean_sbu_0, # of connection points: 6
#     Node 2, Type 0, BuildingBlock: IZENUY_clean_sbu_0, # of connection points: 6
#     Node 3, Type 0, BuildingBlock: IZENUY_clean_sbu_0, # of connection points: 6
#     Node 4, Type 0, BuildingBlock: IZENUY_clean_sbu_0, # of connection points: 6
#     Node 5, Type 0, BuildingBlock: IZENUY_clean_sbu_0, # of connection points: 6
#     Node 6, Type 0, BuildingBlock: IZENUY_clean_sbu_0, # of connection points: 6
#     Node 7, Type 0, BuildingBlock: IZENUY_clean_sbu_0, # of connection points: 6
#     Edge 8, Type (0, 0), BuildingBlock: ZUJKAS_clean_linker_0, # of connection points: 2
#     Edge 9, Type (0, 0), BuildingBlock: ZUJKAS_clean_linker_0, # of connection points: 2
#     Edge 10, Type (0, 0), BuildingBlock: ZUJKAS_clean_linker_0, # of connection points: 2
#     Edge 11, Type (0, 0), BuildingBlock: ZUJKAS_clean_linker_0, # of connection points: 2
#     Edge 12, Type (0, 0), BuildingBlock: ZUJKAS_clean_linker_0, # of connection points: 2
#     Edge 13, Type (0, 0), BuildingBlock: ZUJKAS_clean_linker_0, # of connection points: 2
#     Edge 14, Type (0, 0), BuildingBlock: ZUJKAS_clean_linker_0, # of connection points: 2
#     Edge 15, Type (0, 0), BuildingBlock: ZUJKAS_clean_linker_0, # of connection points: 2
#     Edge 16, Type (0, 0), BuildingBlock: ZUJKAS_clean_linker_0, # of connection points: 2
#     Edge 17, Type (0, 0), BuildingBlock: ZUJKAS_clean_linker_0, # of connection points: 2
#     Edge 18, Type (0, 0), BuildingBlock: ZUJKAS_clean_linker_0, # of connection points: 2
#     Edge 19, Type (0, 0), BuildingBlock: ZUJKAS_clean_linker_0, # of connection points: 2
#     Edge 20, Type (0, 0), BuildingBlock: ZUJKAS_clean_linker_0, # of connection points: 2
#     Edge 21, Type (0, 0), BuildingBlock: ZUJKAS_clean_linker_0, # of connection points: 2
#     Edge 22, Type (0, 0), BuildingBlock: ZUJKAS_clean_linker_0, # of connection points: 2
#     Edge 23, Type (0, 0), BuildingBlock: ZUJKAS_clean_linker_0, # of connection points: 2
#     Edge 24, Type (0, 0), BuildingBlock: ZUJKAS_clean_linker_0, # of connection points: 2
#     Edge 25, Type (0, 0), BuildingBlock: ZUJKAS_clean_linker_0, # of connection points: 2
#     Edge 26, Type (0, 0), BuildingBlock: ZUJKAS_clean_linker_0, # of connection points: 2
#     Edge 27, Type (0, 0), BuildingBlock: ZUJKAS_clean_linker_0, # of connection points: 2
#     Edge 28, Type (0, 0), BuildingBlock: ZUJKAS_clean_linker_0, # of connection points: 2
#     Edge 29, Type (0, 0), BuildingBlock: ZUJKAS_clean_linker_0, # of connection points: 2
#     Edge 30, Type (0, 0), BuildingBlock: ZUJKAS_clean_linker_0, # of connection points: 2
#     Edge 31, Type (0, 0), BuildingBlock: ZUJKAS_clean_linker_0, # of connection points: 2
# Relax obj value: 0.363
# Max RMSD: 0.283
# Mean RMSD: 0.283
data_MOF--net-whc--node1-IZENUY_clean_sbu_0--edge1-ZUJKAS_clean_linker_0
_symmetry_space_group_name_H-M    P1
_symmetry_Int_Tables_number       1
_symmetry_cell_setting            triclinic
loop_
_symmetry_equiv_pos_as_xyz
'x, y, z'
_cell_length_a     44.936244
_cell_length_b     44.872524
_cell_length_c     37.65581
_cell_angle_alpha  89.942584
_cell_angle_beta   90.158465
_cell_angle_gamma 89.681304
loop_
_atom_site_label
_atom_site_type_symbol
_atom_site_fract_x
_atom_site_fract_y
_atom_site_fract_z
_atom_type_partial_charge
Fe0 Fe 0.48905 0.19273 0.10059 0.0
Fe1 Fe 0.42113 0.19522 0.08997 0.0
O2 O 0.45479 0.21205 0.10419 0.0
Fe3 Fe 0.45408 0.24838 0.12231 0.0
O4 O 0.49147 0.25889 0.10707 0.0
O5 O 0.50507 0.22155 0.07333 0.0
O6 O 0.47919 0.17381 0.05861 0.0
C7 C 0.45855 0.17907 0.03632 0.0
C8 C 0.49145 0.21972 0.16837 0.0
O9 O 0.4347 0.19167 0.04545 0.0
C10 C 0.40183 0.22218 0.15013 0.0
O11 O 0.47575 0.16271 0.12772 0.0
O12 O 0.43276 0.15664 0.10105 0.0
O13 O 0.46808 0.23493 0.16414 0.0
O14 O 0.50473 0.20815 0.142 0.0
C15 C 0.41549 0.25557 0.06731 0.0
O16 O 0.40498 0.19784 0.13388 0.0
O17 O 0.41671 0.24488 0.14128 0.0
C18 C 0.45326 0.14713 0.12141 0.0
O19 O 0.40375 0.23079 0.07559 0.0
O20 O 0.43971 0.26356 0.08128 0.0
C21 C 0.50749 0.24836 0.08246 0.0
Fe22 Fe 0.19923 0.57964 0.89478 0.0
Fe23 Fe 0.19253 0.51224 0.88429 0.0
O24 O 0.21361 0.5451 0.87956 0.0
Fe25 Fe 0.24911 0.54344 0.85953 0.0
O26 O 0.2667 0.5569 0.89961 0.0
O27 O 0.23601 0.59477 0.9069 0.0
O28 O 0.19721 0.56584 0.9395 0.0
C29 C 0.18352 0.54288 0.94919 0.0
C30 C 0.22457 0.59764 0.83315 0.0
O31 O 0.17526 0.52351 0.92675 0.0
C32 C 0.21657 0.50799 0.81551 0.0
O33 O 0.1597 0.5704 0.88596 0.0
O34 O 0.16276 0.52765 0.85809 0.0
O35 O 0.24673 0.58109 0.84046 0.0
O36 O 0.20081 0.59585 0.85075 0.0
C37 C 0.24755 0.49033 0.90032 0.0
O38 O 0.20576 0.49535 0.84265 0.0
O39 O 0.2333 0.53026 0.81853 0.0
C40 C 0.1486 0.551 0.86539 0.0
O41 O 0.22125 0.49451 0.91061 0.0
O42 O 0.25798 0.50533 0.87473 0.0
C43 C 0.26036 0.58149 0.91402 0.0
Fe44 Fe 0.57734 0.80223 0.08188 0.0
Fe45 Fe 0.5413 0.75583 0.12321 0.0
O46 O 0.54289 0.78911 0.09831 0.0
Fe47 Fe 0.50989 0.8097 0.08964 0.0
O48 O 0.51451 0.80455 0.04229 0.0
O49 O 0.56103 0.81947 0.04208 0.0
O50 O 0.58276 0.76874 0.05555 0.0
C51 C 0.58184 0.74248 0.06771 0.0
C52 C 0.55169 0.85383 0.1047 0.0
O53 O 0.57073 0.73711 0.09794 0.0
C54 C 0.50327 0.79562 0.1597 0.0
O55 O 0.60004 0.78673 0.11801 0.0
O56 O 0.56751 0.76959 0.15599 0.0
O57 O 0.52842 0.8458 0.08859 0.0
O58 O 0.5738 0.83651 0.10765 0.0
C59 C 0.49043 0.75026 0.08381 0.0
O60 O 0.5116 0.76924 0.15259 0.0
O61 O 0.50394 0.81587 0.13648 0.0
C62 C 0.59369 0.77739 0.14874 0.0
O63 O 0.51523 0.73918 0.09234 0.0
O64 O 0.48499 0.7775 0.08931 0.0
C65 C 0.53741 0.81265 0.02558 0.0
Fe66 Fe 0.81582 0.4869 0.91441 0.0
Fe67 Fe 0.76375 0.45606 0.87718 0.0
O68 O 0.79609 0.45401 0.90383 0.0
Fe69 Fe 0.80923 0.41922 0.91992 0.0
O70 O 0.82446 0.43469 0.96134 0.0
O71 O 0.80908 0.48134 0.96121 0.0
O72 O 0.78334 0.51166 0.91354 0.0
C73 C 0.75602 0.50613 0.9174 0.0
C74 C 0.86119 0.44567 0.90107 0.0
O75 O 0.74558 0.48143 0.90782 0.0
C76 C 0.78764 0.40449 0.85118 0.0
O77 O 0.8236 0.49392 0.8681 0.0
O78 O 0.77769 0.48666 0.84944 0.0
O79 O 0.8443 0.42368 0.89612 0.0
O80 O 0.85209 0.46854 0.91726 0.0
C81 C 0.7492 0.41383 0.93063 0.0
O82 O 0.77917 0.43071 0.84439 0.0
O83 O 0.79568 0.39732 0.88224 0.0
C84 C 0.804 0.49577 0.84415 0.0
O85 O 0.74458 0.42587 0.9006 0.0
O86 O 0.77499 0.41279 0.94409 0.0
C87 C 0.81709 0.45822 0.97785 0.0
Fe88 Fe 0.54287 0.25081 0.62935 0.0
Fe89 Fe 0.57972 0.20105 0.59455 0.0
O90 O 0.54484 0.21551 0.60861 0.0
Fe91 Fe 0.51181 0.19506 0.6019 0.0
O92 O 0.49531 0.22465 0.57571 0.0
O93 O 0.50513 0.26014 0.61368 0.0
O94 O 0.55704 0.26877 0.58999 0.0
C95 C 0.58182 0.26244 0.57612 0.0
C96 C 0.50633 0.2181 0.67141 0.0
O97 O 0.59497 0.23797 0.58319 0.0
C98 C 0.54952 0.15013 0.62126 0.0
O99 O 0.58 0.24835 0.64922 0.0
O100 O 0.59517 0.20251 0.63913 0.0
O101 O 0.49424 0.2077 0.64356 0.0
O102 O 0.52897 0.23443 0.66953 0.0
C103 C 0.54429 0.18611 0.53821 0.0
O104 O 0.57009 0.16152 0.60271 0.0
O105 O 0.52597 0.16431 0.6275 0.0
C106 C 0.5965 0.22631 0.65684 0.0
O107 O 0.56727 0.19903 0.54926 0.0
O108 O 0.5237 0.17859 0.55931 0.0
C109 C 0.49116 0.25073 0.5868 0.0
Fe110 Fe 0.19688 0.41957 0.39527 0.0
Fe111 Fe 0.24633 0.45523 0.35884 0.0
O112 O 0.21106 0.45392 0.37953 0.0
Fe113 Fe 0.18993 0.487 0.38431 0.0
O114 O 0.17298 0.47606 0.42702 0.0
O115 O 0.19511 0.43361 0.43983 0.0
O116 O 0.23375 0.40431 0.40737 0.0
C117 C 0.25833 0.41725 0.4134 0.0
C118 C 0.14619 0.44837 0.36566 0.0
O119 O 0.26458 0.44159 0.39847 0.0
C120 C 0.21336 0.49099 0.31518 0.0
O121 O 0.19824 0.40299 0.35148 0.0
O122 O 0.24385 0.4176 0.34002 0.0
O123 O 0.16003 0.47181 0.35855 0.0
O124 O 0.15731 0.42903 0.3865 0.0
C125 C 0.245 0.50844 0.39942 0.0
O126 O 0.22999 0.46847 0.31807 0.0
O127 O 0.20274 0.50375 0.34241 0.0
C128 C 0.22174 0.40106 0.33343 0.0
O129 O 0.25524 0.4933 0.37376 0.0
O130 O 0.21884 0.50447 0.41015 0.0
C131 C 0.18152 0.45675 0.44953 0.0
Fe132 Fe 0.41554 0.80613 0.58251 0.0
Fe133 Fe 0.48368 0.80733 0.59106 0.0
O134 O 0.44934 0.78886 0.59621 0.0
Fe135 Fe 0.44888 0.75283 0.61515 0.0
O136 O 0.43373 0.73741 0.57482 0.0
O137 O 0.39784 0.77071 0.56895 0.0
O138 O 0.42837 0.80924 0.53751 0.0
C139 C 0.45216 0.82139 0.52783 0.0
C140 C 0.39714 0.77994 0.64364 0.0
O141 O 0.47307 0.82643 0.54962 0.0
C142 C 0.48792 0.78076 0.65893 0.0
O143 O 0.42774 0.84454 0.593 0.0
O144 O 0.47136 0.83775 0.61836 0.0
O145 O 0.41194 0.75703 0.63494 0.0
O146 O 0.39992 0.80406 0.62682 0.0
C147 C 0.50123 0.7513 0.57359 0.0
O148 O 0.50038 0.79171 0.63175 0.0
O149 O 0.4639 0.76658 0.65631 0.0
C150 C 0.44888 0.85378 0.61247 0.0
O151 O 0.49849 0.77788 0.56343 0.0
O152 O 0.4859 0.74167 0.59922 0.0
C153 C 0.40949 0.7457 0.56092 0.0
Fe154 Fe 0.80935 0.58205 0.41995 0.0
Fe155 Fe 0.76268 0.54412 0.38162 0.0
O156 O 0.79594 0.54683 0.40638 0.0
Fe157 Fe 0.81614 0.51421 0.41752 0.0
O158 O 0.81142 0.52152 0.46436 0.0
O159 O 0.82645 0.568 0.46124 0.0
O160 O 0.77588 0.58935 0.44565 0.0
C161 C 0.74987 0.58864 0.43282 0.0
C162 C 0.86072 0.55477 0.39957 0.0
O163 O 0.74464 0.57578 0.40354 0.0
C164 C 0.80114 0.50247 0.34892 0.0
O165 O 0.79416 0.60252 0.38172 0.0
O166 O 0.77715 0.56763 0.3465 0.0
O167 O 0.85244 0.5323 0.41705 0.0
O168 O 0.84349 0.57667 0.39459 0.0
C169 C 0.7564 0.49613 0.42529 0.0
O170 O 0.77511 0.51188 0.3555 0.0
O171 O 0.82197 0.50545 0.37111 0.0
C172 C 0.78522 0.59418 0.35143 0.0
O173 O 0.74568 0.52064 0.41497 0.0
O174 O 0.78353 0.48993 0.42011 0.0
C175 C 0.82031 0.54499 0.47935 0.0
H176 H 0.25797 0.39855 0.27615 0.0
H177 H 0.27307 0.35412 0.24341 0.0
H178 H 0.21191 0.30113 0.30454 0.0
H179 H 0.19634 0.34584 0.3373 0.0
H180 H 0.27282 0.28271 0.30785 0.0
H181 H 0.23609 0.29768 0.16879 0.0
H182 H 0.25165 0.33118 0.18685 0.0
H183 H 0.2181 0.31622 0.20565 0.0
C184 C 0.24712 0.3776 0.28192 0.0
C185 C 0.22611 0.37558 0.3093 0.0
C186 C 0.25559 0.35227 0.26304 0.0
C187 C 0.24338 0.32442 0.27135 0.0
C188 C 0.2213 0.32251 0.29751 0.0
H189 H 0.34761 0.19464 0.14891 0.0
H190 H 0.30315 0.20962 0.18246 0.0
C191 C 0.21242 0.34804 0.3161 0.0
C192 C 0.25736 0.29734 0.25642 0.0
H193 H 0.28249 0.27009 0.17755 0.0
C194 C 0.27418 0.2792 0.2794 0.0
C195 C 0.25881 0.29253 0.21941 0.0
C196 C 0.23993 0.31027 0.19377 0.0
C197 C 0.29491 0.25864 0.26604 0.0
C198 C 0.29884 0.25639 0.22895 0.0
C199 C 0.27964 0.27206 0.20606 0.0
C200 C 0.32599 0.24295 0.21361 0.0
C201 C 0.31387 0.24097 0.29169 0.0
C202 C 0.35349 0.25643 0.22051 0.0
C203 C 0.37862 0.24829 0.20118 0.0
C204 C 0.37676 0.22634 0.17477 0.0
C205 C 0.34966 0.21146 0.16938 0.0
C206 C 0.32429 0.22 0.18841 0.0
H207 H 0.30207 0.2374 0.31722 0.0
H208 H 0.32021 0.219 0.28036 0.0
H209 H 0.33452 0.25355 0.29745 0.0
H210 H 0.35514 0.27457 0.23937 0.0
H211 H 0.39926 0.26007 0.20582 0.0
H212 H 0.19718 0.65235 0.83431 0.0
H213 H 0.21176 0.69673 0.80049 0.0
H214 H 0.27698 0.6444 0.74398 0.0
H215 H 0.26284 0.60028 0.77774 0.0
H216 H 0.27184 0.71798 0.80428 0.0
H217 H 0.23786 0.69638 0.66551 0.0
H218 H 0.22043 0.67841 0.70304 0.0
H219 H 0.25512 0.66443 0.6858 0.0
C220 C 0.21404 0.65019 0.81395 0.0
C221 C 0.22901 0.62293 0.80869 0.0
C222 C 0.22236 0.67554 0.79477 0.0
C223 C 0.2452 0.67373 0.76953 0.0
C224 C 0.25893 0.64615 0.76289 0.0
H225 H 0.39729 0.74527 0.70224 0.0
H226 H 0.35419 0.72962 0.73662 0.0
C227 C 0.25098 0.621 0.78236 0.0
C228 C 0.25793 0.70087 0.75344 0.0
H229 H 0.28186 0.72707 0.67359 0.0
C230 C 0.27327 0.72065 0.7757 0.0
C231 C 0.25943 0.70457 0.71624 0.0
C232 C 0.24206 0.68498 0.69126 0.0
C233 C 0.29262 0.742 0.76158 0.0
C234 C 0.2967 0.74338 0.72444 0.0
C235 C 0.2789 0.72582 0.70213 0.0
C236 C 0.32289 0.75809 0.70867 0.0
C237 C 0.30999 0.76159 0.78657 0.0
C238 C 0.31968 0.77977 0.682 0.0
C239 C 0.34449 0.78902 0.6625 0.0
C240 C 0.37255 0.77608 0.66895 0.0
C241 C 0.37588 0.7556 0.69686 0.0
C242 C 0.35131 0.74679 0.71664 0.0
H243 H 0.29764 0.76531 0.81172 0.0
H244 H 0.33139 0.75045 0.79331 0.0
H245 H 0.31494 0.78349 0.77423 0.0
H246 H 0.29785 0.78845 0.67521 0.0
H247 H 0.34133 0.8046 0.6408 0.0
H248 H 0.76887 0.58615 0.28188 0.0
H249 H 0.74419 0.62267 0.24336 0.0
H250 H 0.75467 0.68991 0.3242 0.0
H251 H 0.78037 0.65414 0.36196 0.0
H252 H 0.69304 0.64598 0.25862 0.0
H253 H 0.77088 0.73922 0.23904 0.0
H254 H 0.7829 0.70361 0.25634 0.0
H255 H 0.76666 0.73116 0.28535 0.0
C256 C 0.76678 0.60897 0.29093 0.0
C257 C 0.77644 0.61715 0.32507 0.0
C258 C 0.75259 0.62982 0.26894 0.0
C259 C 0.74763 0.65915 0.28075 0.0
C260 C 0.75881 0.66772 0.31401 0.0
H261 H 0.59001 0.75857 0.21795 0.0
H262 H 0.62896 0.733 0.25204 0.0
C263 C 0.7734 0.64706 0.33574 0.0
C264 C 0.7273 0.67936 0.2608 0.0
H265 H 0.71875 0.7507 0.23045 0.0
C266 C 0.69887 0.66876 0.25209 0.0
C267 C 0.73484 0.70908 0.25206 0.0
C268 C 0.76561 0.7213 0.25837 0.0
C269 C 0.67763 0.68708 0.23552 0.0
C270 C 0.68455 0.71728 0.22868 0.0
C271 C 0.71321 0.72776 0.23654 0.0
C272 C 0.66272 0.73766 0.21152 0.0
C273 C 0.6482 0.67359 0.22489 0.0
C274 C 0.66948 0.75085 0.17878 0.0
C275 C 0.64749 0.76604 0.15962 0.0
C276 C 0.61823 0.76808 0.17272 0.0
C277 C 0.61219 0.75702 0.20689 0.0
C278 C 0.63436 0.74218 0.22626 0.0
H279 H 0.64968 0.64892 0.22289 0.0
H280 H 0.63126 0.67903 0.2453 0.0
H281 H 0.64039 0.68252 0.19896 0.0
H282 H 0.6913 0.74793 0.16707 0.0
H283 H 0.65302 0.77443 0.13349 0.0
H284 H 0.77862 0.34578 0.86529 0.0
H285 H 0.7564 0.30912 0.82622 0.0
H286 H 0.75962 0.37173 0.73922 0.0
H287 H 0.78039 0.40937 0.77909 0.0
H288 H 0.70725 0.35319 0.74481 0.0
H289 H 0.77724 0.25241 0.75083 0.0
H290 H 0.76842 0.26364 0.79517 0.0
H291 H 0.79016 0.28785 0.7672 0.0
C292 C 0.77545 0.35155 0.83759 0.0
C293 C 0.78103 0.38061 0.82534 0.0
C294 C 0.76293 0.33033 0.81508 0.0
C295 C 0.75655 0.33737 0.77952 0.0
C296 C 0.7643 0.3657 0.76654 0.0
H297 H 0.65502 0.21538 0.64306 0.0
H298 H 0.69719 0.23975 0.67253 0.0
C299 C 0.77621 0.38721 0.78931 0.0
C300 C 0.73739 0.31725 0.75808 0.0
H301 H 0.72423 0.24398 0.73896 0.0
C302 C 0.71143 0.32941 0.74297 0.0
C303 C 0.74274 0.28617 0.75509 0.0
C304 C 0.77136 0.2719 0.76763 0.0
C305 C 0.69008 0.31137 0.7267 0.0
C306 C 0.69408 0.28006 0.72682 0.0
C307 C 0.72077 0.2679 0.73994 0.0
C308 C 0.67036 0.26004 0.71368 0.0
C309 C 0.66331 0.32615 0.70971 0.0
C310 C 0.64175 0.26179 0.72844 0.0
C311 C 0.61773 0.24832 0.71145 0.0
C312 C 0.62213 0.23206 0.6801 0.0
C313 C 0.6512 0.22751 0.6675 0.0
C314 C 0.67523 0.24157 0.68415 0.0
H315 H 0.66813 0.34955 0.70203 0.0
H316 H 0.65592 0.31388 0.68569 0.0
H317 H 0.6447 0.32663 0.72902 0.0
H318 H 0.63766 0.2753 0.75177 0.0
H319 H 0.59547 0.25212 0.72155 0.0
H320 H 0.47148 0.1708 0.69028 0.0
H321 H 0.45739 0.15598 0.7508 0.0
H322 H 0.50126 0.23369 0.79263 0.0
H323 H 0.51537 0.24858 0.73276 0.0
H324 H 0.50085 0.14638 0.80957 0.0
H325 H 0.41635 0.23372 0.83798 0.0
H326 H 0.4268 0.22333 0.79335 0.0
H327 H 0.45017 0.24762 0.81895 0.0
C328 C 0.47754 0.185 0.71236 0.0
C329 C 0.49436 0.21093 0.70682 0.0
C330 C 0.46971 0.1764 0.74682 0.0
C331 C 0.47819 0.19388 0.77597 0.0
C332 C 0.49427 0.22011 0.77037 0.0
H333 H 0.50984 0.17524 -0.00251 0.0
H334 H 0.51333 0.17208 0.93261 0.0
C335 C 0.50232 0.22855 0.73615 0.0
C336 C 0.47159 0.18448 0.81265 0.0
H337 H 0.43749 0.2086 0.88802 0.0
C338 C 0.48659 0.15959 0.82671 0.0
C339 C 0.45286 0.20169 0.83467 0.0
C340 C 0.43538 0.22794 0.82047 0.0
C341 C 0.4844 0.1523 0.86289 0.0
C342 C 0.46704 0.17062 0.88536 0.0
C343 C 0.45096 0.19465 0.87081 0.0
C344 C 0.46596 0.16643 0.92433 0.0
C345 C 0.5009 0.12535 0.87679 0.0
C346 C 0.43832 0.16379 0.94114 0.0
C347 C 0.43628 0.16601 0.97793 0.0
C348 C 0.46187 0.17079 -0.00133 0.0
C349 C 0.48983 0.17131 0.98212 0.0
C350 C 0.49183 0.1694 0.94509 0.0
H351 H 0.50548 0.10903 0.85529 0.0
H352 H 0.52257 0.13248 0.88803 0.0
H353 H 0.48813 0.11411 0.89811 0.0
H354 H 0.41812 0.16151 0.92562 0.0
H355 H 0.41445 0.16529 0.99004 0.0
H356 H 0.14533 0.5032 0.98092 0.0
H357 H 0.13695 0.49655 0.04484 0.0
H358 H 0.19965 0.56667 0.06697 0.0
H359 H 0.20725 0.5741 0.00392 0.0
H360 H 0.17474 0.47894 0.09259 0.0
H361 H 0.13606 0.58979 0.13443 0.0
H362 H 0.1372 0.57906 0.08826 0.0
H363 H 0.16977 0.59408 0.1098 0.0
C364 C 0.1569 0.51749 -0.00051 0.0
C365 C 0.17681 0.53928 0.98735 0.0
C366 C 0.15204 0.51375 0.03595 0.0
C367 C 0.16708 0.53165 0.06074 0.0
C368 C 0.18687 0.55338 0.04849 0.0
H369 H 0.24574 0.48521 0.25483 0.0
H370 H 0.22933 0.49528 0.19418 0.0
C371 C 0.19144 0.55737 0.01228 0.0
C372 C 0.16511 0.52571 0.09939 0.0
H373 H 0.1643 0.56146 0.17935 0.0
C374 C 0.17172 0.49686 0.11157 0.0
C375 C 0.16039 0.54882 0.12439 0.0
C376 C 0.1501 0.57955 0.11344 0.0
C377 C 0.17627 0.4911 0.14775 0.0
C378 C 0.17522 0.51503 0.17219 0.0
C379 C 0.166 0.5433 0.16047 0.0
C380 C 0.18568 0.5115 0.20928 0.0
C381 C 0.18279 0.45949 0.15924 0.0
C382 C 0.16738 0.51928 0.23802 0.0
C383 C 0.17709 0.51431 0.27288 0.0
C384 C 0.20514 0.50134 0.27934 0.0
C385 C 0.22391 0.49498 0.25057 0.0
C386 C 0.21442 0.50038 0.21591 0.0
H387 H 0.17218 0.44322 0.141 0.0
H388 H 0.20717 0.45548 0.15841 0.0
H389 H 0.17482 0.45518 0.18664 0.0
H390 H 0.14527 0.52826 0.23347 0.0
H391 H 0.16209 0.51918 0.29462 0.0
H392 H 0.58425 0.82211 0.98119 0.0
H393 H 0.58374 0.82231 0.9163 0.0
H394 H 0.48887 0.80849 0.91675 0.0
H395 H 0.48904 0.80815 0.98169 0.0
H396 H 0.56185 0.77242 0.87471 0.0
H397 H 0.50313 0.8789 0.84546 0.0
H398 H 0.52159 0.87163 0.88733 0.0
H399 H 0.48556 0.85609 0.87852 0.0
C400 C 0.56318 0.81955 0.96753 0.0
C401 C 0.53664 0.81516 0.98655 0.0
C402 C 0.56299 0.81965 0.93051 0.0
C403 C 0.53625 0.81576 0.91198 0.0
C404 C 0.50964 0.81201 0.93077 0.0
H405 H 0.47701 0.74819 0.71843 0.0
H406 H 0.49543 0.7576 0.77837 0.0
C407 C 0.50981 0.81167 0.96781 0.0
C408 C 0.53633 0.8132 0.87303 0.0
H409 H 0.50596 0.84343 0.79814 0.0
C410 C 0.5501 0.78818 0.85781 0.0
C411 C 0.52128 0.83402 0.85124 0.0
C412 C 0.50725 0.86185 0.86635 0.0
C413 C 0.54761 0.78249 0.82137 0.0
C414 C 0.5309 0.80231 0.79996 0.0
C415 C 0.51868 0.82826 0.81481 0.0
C416 C 0.52294 0.79487 0.76312 0.0
C417 C 0.56202 0.7549 0.80617 0.0
C418 C 0.5325 0.81274 0.73487 0.0
C419 C 0.52214 0.80732 0.70048 0.0
C420 C 0.50169 0.7843 0.69416 0.0
C421 C 0.49275 0.76607 0.7225 0.0
C422 C 0.50336 0.77129 0.75668 0.0
H423 H 0.58021 0.74643 0.82357 0.0
H424 H 0.54506 0.73713 0.80367 0.0
H425 H 0.57116 0.75937 0.77933 0.0
H426 H 0.54741 0.83122 0.73958 0.0
H427 H 0.52918 0.82188 0.67916 0.0
H428 H 0.76234 0.46991 0.30984 0.0
H429 H 0.76878 0.45304 0.24872 0.0
H430 H 0.85824 0.4877 0.24867 0.0
H431 H 0.85236 0.5031 0.31053 0.0
H432 H 0.77514 0.49022 0.19725 0.0
H433 H 0.87129 0.41289 0.19388 0.0
H434 H 0.85324 0.42335 0.23482 0.0
H435 H 0.88071 0.4473 0.21514 0.0
C436 C 0.78365 0.47315 0.29705 0.0
C437 C 0.80681 0.48795 0.31464 0.0
C438 C 0.78732 0.46351 0.26218 0.0
C439 C 0.81402 0.46901 0.2441 0.0
C440 C 0.8377 0.48254 0.26227 0.0
H441 H 0.81971 0.50733 0.02038 0.0
H442 H 0.82072 0.50854 0.08521 0.0
C443 C 0.83426 0.49156 0.29752 0.0
C444 C 0.81535 0.46456 0.2052 0.0
H445 H 0.85749 0.43571 0.13812 0.0
C446 C 0.79296 0.47792 0.18443 0.0
C447 C 0.83847 0.44839 0.18843 0.0
C448 C 0.86209 0.43191 0.20929 0.0
C449 C 0.7933 0.47608 0.14739 0.0
C450 C 0.81735 0.46145 0.13053 0.0
C451 C 0.83937 0.44737 0.15118 0.0
C452 C 0.81976 0.46058 0.09145 0.0
C453 C 0.76768 0.48958 0.12677 0.0
C454 C 0.82038 0.43319 0.07359 0.0
C455 C 0.82033 0.43242 0.03653 0.0
C456 C 0.8195 0.45906 0.01685 0.0
C457 C 0.81994 0.48645 0.03485 0.0
C458 C 0.8204 0.48718 0.07186 0.0
H459 H 0.74736 0.49157 0.14338 0.0
H460 H 0.77381 0.51233 0.11793 0.0
H461 H 0.76225 0.47608 0.10295 0.0
H462 H 0.82003 0.41243 0.0883 0.0
H463 H 0.82 0.41098 0.02334 0.0
H464 H 0.53386 0.17972 0.19126 0.0
H465 H 0.54791 0.16881 0.25301 0.0
H466 H 0.48775 0.23742 0.28935 0.0
H467 H 0.47391 0.2487 0.22825 0.0
H468 H 0.54375 0.23825 0.32236 0.0
H469 H 0.49258 0.12554 0.32428 0.0
H470 H 0.51924 0.13255 0.28975 0.0
H471 H 0.48454 0.15253 0.28992 0.0
C472 C 0.52398 0.19275 0.21241 0.0
C473 C 0.50275 0.21505 0.20486 0.0
C474 C 0.53179 0.18627 0.24763 0.0
C475 C 0.51847 0.20201 0.27565 0.0
C476 C 0.49814 0.22493 0.26807 0.0
H477 H 0.49341 0.1772 0.49945 0.0
H478 H 0.48897 0.17727 0.43447 0.0
C479 C 0.49029 0.23135 0.23308 0.0
C480 C 0.52523 0.19482 0.31314 0.0
H481 H 0.51475 0.14222 0.3775 0.0
C482 C 0.53771 0.21715 0.33439 0.0
C483 C 0.51686 0.16741 0.3287 0.0
C484 C 0.50235 0.14312 0.30717 0.0
C485 C 0.54166 0.21305 0.37098 0.0
C486 C 0.5334 0.18562 0.38657 0.0
C487 C 0.52122 0.1631 0.36531 0.0
C488 C 0.53634 0.18065 0.42523 0.0
C489 C 0.55365 0.23853 0.39284 0.0
C490 C 0.56448 0.18126 0.44128 0.0
C491 C 0.56706 0.18144 0.47817 0.0
C492 C 0.54152 0.18064 0.49968 0.0
C493 C 0.51345 0.17779 0.48355 0.0
C494 C 0.51089 0.17787 0.4465 0.0
H495 H 0.55254 0.26004 0.37825 0.0
H496 H 0.5411 0.2409 0.41806 0.0
H497 H 0.57731 0.23401 0.39956 0.0
H498 H 0.5844 0.18287 0.42526 0.0
H499 H 0.58904 0.18327 0.48983 0.0
H500 H 0.20558 0.42501 0.5039 0.0
H501 H 0.19934 0.43292 0.56704 0.0
H502 H 0.13768 0.50491 0.54603 0.0
H503 H 0.14469 0.49775 0.48193 0.0
H504 H 0.17675 0.52139 0.59288 0.0
H505 H 0.13634 0.41185 0.63597 0.0
H506 H 0.16953 0.40647 0.61056 0.0
H507 H 0.13694 0.42255 0.58975 0.0
C508 C 0.19027 0.44226 0.51251 0.0
C509 C 0.17551 0.46069 0.48781 0.0
C510 C 0.18648 0.44654 0.54879 0.0
C511 C 0.16738 0.46893 0.5614 0.0
C512 C 0.15224 0.48721 0.53687 0.0
H513 H 0.16508 0.48088 0.7951 0.0
H514 H 0.14787 0.4725 0.73407 0.0
C515 C 0.1563 0.48316 0.50031 0.0
C516 C 0.16619 0.47496 0.60007 0.0
H517 H 0.16578 0.43928 0.68015 0.0
C518 C 0.17363 0.50358 0.61199 0.0
C519 C 0.16137 0.45202 0.62523 0.0
C520 C 0.15025 0.42163 0.61462 0.0
C521 C 0.1788 0.50922 0.64807 0.0
C522 C 0.17757 0.48535 0.67263 0.0
C523 C 0.16762 0.45738 0.66117 0.0
C524 C 0.18829 0.48861 0.70965 0.0
C525 C 0.18606 0.54064 0.6593 0.0
C526 C 0.21714 0.49915 0.71614 0.0
C527 C 0.22685 0.5042 0.75077 0.0
C528 C 0.20819 0.498 0.77963 0.0
C529 C 0.18001 0.4856 0.77329 0.0
C530 C 0.17008 0.48103 0.73849 0.0
H531 H 0.17554 0.55721 0.64118 0.0
H532 H 0.1785 0.54523 0.68682 0.0
H533 H 0.2105 0.54392 0.65802 0.0
H534 H 0.232 0.50406 0.69433 0.0
H535 H 0.24877 0.51355 0.75494 0.0
H536 H 0.4782 0.84774 0.1836 0.0
H537 H 0.46461 0.86005 0.2448 0.0
H538 H 0.49275 0.77242 0.27873 0.0
H539 H 0.50553 0.75964 0.21786 0.0
H540 H 0.44036 0.78856 0.30771 0.0
H541 H 0.52334 0.87913 0.3236 0.0
H542 H 0.4973 0.88406 0.28776 0.0
H543 H 0.52375 0.85391 0.28633 0.0
C544 C 0.48123 0.83101 0.20407 0.0
C545 C 0.49291 0.80268 0.19588 0.0
C546 C 0.47371 0.83819 0.23904 0.0
C547 C 0.47817 0.81732 0.26631 0.0
C548 C 0.4892 0.78887 0.25803 0.0
H549 H 0.50343 0.82346 0.48951 0.0
H550 H 0.50759 0.8277 0.42487 0.0
C551 C 0.49644 0.78159 0.22318 0.0
C552 C 0.47152 0.82462 0.3037 0.0
H553 H 0.49327 0.86833 0.37313 0.0
C554 C 0.4517 0.80617 0.32199 0.0
C555 C 0.48664 0.84746 0.32218 0.0
C556 C 0.50914 0.86716 0.30413 0.0
C557 C 0.44732 0.80914 0.35859 0.0
C558 C 0.46241 0.83198 0.37715 0.0
C559 C 0.48157 0.85106 0.35868 0.0
C560 C 0.46038 0.8346 0.41617 0.0
C561 C 0.42781 0.78674 0.37723 0.0
C562 C 0.4327 0.83843 0.43266 0.0
C563 C 0.43022 0.83543 0.46937 0.0
C564 C 0.45554 0.82938 0.4902 0.0
C565 C 0.4836 0.82813 0.474 0.0
C566 C 0.48598 0.83056 0.43714 0.0
H567 H 0.42394 0.76662 0.36071 0.0
H568 H 0.43789 0.77956 0.40282 0.0
H569 H 0.40584 0.79707 0.38286 0.0
H570 H 0.41282 0.84239 0.41698 0.0
H571 H 0.40837 0.83695 0.48136 0.0
H572 H 0.85877 0.51363 0.8206 0.0
H573 H 0.8712 0.53259 0.76149 0.0
H574 H 0.77889 0.5267 0.73063 0.0
H575 H 0.76619 0.50834 0.7894 0.0
H576 H 0.86357 0.50214 0.69997 0.0
H577 H 0.80082 0.60796 0.69249 0.0
H578 H 0.80861 0.58943 0.73414 0.0
H579 H 0.77724 0.57841 0.70737 0.0
C580 C 0.84104 0.51695 0.80143 0.0
C581 C 0.81146 0.50954 0.80971 0.0
C582 C 0.8482 0.52778 0.76772 0.0
C583 C 0.82588 0.53159 0.74196 0.0
C584 C 0.79633 0.52474 0.75043 0.0
H585 H 0.81006 0.49968 0.52605 0.0
H586 H 0.81799 0.49979 0.59005 0.0
C587 C 0.78915 0.51394 0.78399 0.0
C588 C 0.83345 0.53946 0.70499 0.0
H589 H 0.8096 0.58277 0.63606 0.0
C590 C 0.85237 0.52024 0.68613 0.0
C591 C 0.81933 0.5634 0.68711 0.0
C592 C 0.80064 0.58615 0.70649 0.0
C593 C 0.85549 0.52278 0.64925 0.0
C594 C 0.83879 0.54473 0.6309 0.0
C595 C 0.82196 0.56558 0.65013 0.0
C596 C 0.83592 0.54446 0.59182 0.0
C597 C 0.87584 0.50131 0.63018 0.0
C598 C 0.84265 0.56985 0.57173 0.0
C599 C 0.83785 0.56999 0.53505 0.0
C600 C 0.82607 0.54476 0.51797 0.0
C601 C 0.81939 0.51939 0.53828 0.0
C602 C 0.82415 0.51931 0.57486 0.0
H603 H 0.8942 0.4936 0.64782 0.0
H604 H 0.86296 0.48141 0.62203 0.0
H605 H 0.88559 0.51159 0.60607 0.0
H606 H 0.85142 0.5896 0.58446 0.0
H607 H 0.84314 0.58993 0.52018 0.0
H608 H 0.3023 0.46936 0.87964 0.0
H609 H 0.33057 0.42779 0.90541 0.0
H610 H 0.26105 0.41384 0.98223 0.0
H611 H 0.23273 0.45537 0.95697 0.0
H612 H 0.31887 0.41523 0.01131 0.0
H613 H 0.31135 0.33788 0.89651 0.0
H614 H 0.3248 0.37454 0.88622 0.0
H615 H 0.28723 0.36995 0.90134 0.0
C616 C 0.29299 0.45744 0.90199 0.0
C617 C 0.26516 0.46562 0.9161 0.0
C618 C 0.30909 0.43357 0.9165 0.0
C619 C 0.29764 0.41748 0.94533 0.0
C620 C 0.27013 0.42585 0.9598 0.0
H621 H 0.35881 0.25087 0.04037 0.0
H622 H 0.33003 0.28957 0.00934 0.0
C623 C 0.25399 0.44961 0.94528 0.0
C624 C 0.3147 0.39248 0.96126 0.0
H625 H 0.34301 0.32316 0.9441 0.0
C626 C 0.32411 0.39508 -0.00334 0.0
C627 C 0.32115 0.3661 0.94215 0.0
C628 C 0.31043 0.36169 0.90454 0.0
C629 C 0.34029 0.37219 0.01333 0.0
C630 C 0.34749 0.34617 0.99393 0.0
C631 C 0.33762 0.34328 0.95874 0.0
C632 C 0.36552 0.32193 0.00991 0.0
C633 C 0.34933 0.37587 0.0517 0.0
C634 C 0.39519 0.32711 0.01949 0.0
C635 C 0.41166 0.30516 0.03712 0.0
C636 C 0.39876 0.27752 0.0455 0.0
C637 C 0.36937 0.27194 0.03448 0.0
C638 C 0.3529 0.29399 0.01676 0.0
H639 H 0.33638 0.3938 0.06501 0.0
H640 H 0.34624 0.35476 0.06663 0.0
H641 H 0.37324 0.38182 0.05304 0.0
H642 H 0.40545 0.3484 0.01389 0.0
H643 H 0.43433 0.31015 0.04482 0.0
H644 H 0.25836 0.63794 0.94162 0.0
H645 H 0.29789 0.66401 0.97356 0.0
H646 H 0.35351 0.58556 0.96777 0.0
H647 H 0.31437 0.5594 0.93543 0.0
H648 H 0.32757 0.6501 0.03761 0.0
H649 H 0.40511 0.65055 0.92286 0.0
H650 H 0.36613 0.64181 0.91829 0.0
H651 H 0.39175 0.61438 0.93531 0.0
C652 C 0.27895 0.62617 0.94722 0.0
C653 C 0.28333 0.5967 0.93556 0.0
C654 C 0.30149 0.6411 0.9655 0.0
C655 C 0.32878 0.62687 0.9724 0.0
C656 C 0.33284 0.59714 0.96199 0.0
H657 H 0.49402 0.69095 0.06668 0.0
H658 H 0.45467 0.65961 0.04182 0.0
C659 C 0.31037 0.5822 0.94364 0.0
C660 C 0.35315 0.64334 0.99 0.0
H661 H 0.42361 0.66928 0.9772 0.0
C662 C 0.34858 0.65431 0.02445 0.0
C663 C 0.38052 0.64872 0.97271 0.0
C664 C 0.3862 0.63851 0.93514 0.0
C665 C 0.37077 0.67045 0.04218 0.0
C666 C 0.398 0.67608 0.02475 0.0
C667 C 0.40272 0.66479 0.99049 0.0
C668 C 0.42146 0.69469 0.04096 0.0
C669 C 0.365 0.68112 0.07953 0.0
C670 C 0.41584 0.72482 0.04829 0.0
C671 C 0.43821 0.74277 0.06238 0.0
C672 C 0.46671 0.73095 0.06933 0.0
C673 C 0.47229 0.70072 0.06183 0.0
C674 C 0.44987 0.68279 0.04762 0.0
H675 H 0.34682 0.66838 0.09237 0.0
H676 H 0.38537 0.67916 0.09616 0.0
H677 H 0.35825 0.70494 0.07876 0.0
H678 H 0.39424 0.73458 0.04262 0.0
H679 H 0.43316 0.76598 0.06762 0.0
H680 H 0.61597 0.74536 0.00728 0.0
H681 H 0.64254 0.7042 0.97838 0.0
H682 H 0.60687 0.64269 0.05514 0.0
H683 H 0.58066 0.68344 0.08436 0.0
H684 H 0.66787 0.63886 0.04834 0.0
H685 H 0.61221 0.63515 0.91653 0.0
H686 H 0.62576 0.67122 0.92922 0.0
H687 H 0.5963 0.65433 0.95419 0.0
C688 C 0.61355 0.72303 0.01777 0.0
C689 C 0.59639 0.71774 0.0483 0.0
C690 C 0.62859 0.69952 0.0011 0.0
C691 C 0.62644 0.67039 0.01449 0.0
C692 C 0.60878 0.66501 0.04439 0.0
H693 H 0.69531 0.50438 0.92558 0.0
H694 H 0.66293 0.54396 0.94883 0.0
C695 C 0.59386 0.68839 0.06108 0.0
C696 C 0.64421 0.64575 -0.00084 0.0
H697 H 0.65576 0.60526 0.92366 0.0
C698 C 0.66515 0.63144 0.02112 0.0
C699 C 0.64034 0.63595 0.96378 0.0
C700 C 0.61726 0.64974 0.93957 0.0
C701 C 0.6827 0.60787 0.00849 0.0
C702 C 0.67951 0.59868 0.97281 0.0
C703 C 0.65821 0.61256 0.95096 0.0
C704 C 0.69873 0.57514 0.95765 0.0
C705 C 0.70439 0.59282 0.0335 0.0
C706 C 0.7294 0.57985 0.95458 0.0
C707 C 0.74789 0.55742 0.94142 0.0
C708 C 0.73604 0.52984 0.9309 0.0
C709 C 0.70515 0.52533 0.93353 0.0
C710 C 0.68663 0.5479 0.94669 0.0
H711 H 0.69898 0.59746 0.06174 0.0
H712 H 0.70461 0.56832 0.02937 0.0
H713 H 0.72712 0.60127 0.02827 0.0
H714 H 0.73906 0.6009 0.9625 0.0
H715 H 0.77154 0.56173 0.93966 0.0
H716 H 0.75196 0.3731 0.98496 0.0
H717 H 0.7105 0.34582 0.01149 0.0
H718 H 0.64872 0.39354 0.94416 0.0
H719 H 0.68994 0.42021 0.91686 0.0
H720 H 0.66151 0.36362 0.04768 0.0
H721 H 0.62762 0.30823 0.92259 0.0
H722 H 0.66217 0.32819 0.92686 0.0
H723 H 0.62788 0.34809 0.91897 0.0
C724 C 0.72954 0.37778 0.97582 0.0
C725 C 0.72428 0.39849 0.94843 0.0
C726 C 0.70588 0.36219 0.99101 0.0
C727 C 0.6766 0.36716 0.97921 0.0
C728 C 0.67121 0.3887 0.95293 0.0
H729 H 0.51636 0.30847 0.08927 0.0
H730 H 0.55705 0.33792 0.06453 0.0
C731 C 0.69481 0.40403 0.93747 0.0
C732 C 0.65166 0.34973 0.99422 0.0
H733 H 0.59437 0.30392 0.97129 0.0
C734 C 0.64687 0.35046 0.03103 0.0
C735 C 0.63288 0.33222 0.9725 0.0
C736 C 0.63803 0.32883 0.9331 0.0
C737 C 0.62356 0.33444 0.04669 0.0
C738 C 0.60407 0.31787 0.02477 0.0
C739 C 0.60909 0.31692 0.98802 0.0
C740 C 0.57899 0.3004 0.03943 0.0
C741 C 0.62054 0.33483 0.08659 0.0
C742 C 0.57716 0.26976 0.03242 0.0
C743 C 0.55369 0.25301 0.04594 0.0
C744 C 0.5316 0.26653 0.06696 0.0
C745 C 0.5332 0.29733 0.07351 0.0
C746 C 0.55657 0.31416 0.05962 0.0
H747 H 0.64169 0.34132 0.09977 0.0
H748 H 0.60327 0.35139 0.09416 0.0
H749 H 0.61376 0.31269 0.09686 0.0
H750 H 0.59411 0.2587 0.01674 0.0
H751 H 0.55316 0.22935 0.04031 0.0
H752 H 0.56003 0.31655 0.55469 0.0
H753 H 0.58698 0.35641 0.52476 0.0
H754 H 0.66588 0.30131 0.52194 0.0
H755 H 0.63906 0.26112 0.55146 0.0
H756 H 0.63712 0.38443 0.55109 0.0
H757 H 0.66041 0.33274 0.42029 0.0
H758 H 0.63289 0.31823 0.45049 0.0
H759 H 0.67172 0.31009 0.45732 0.0
C760 C 0.58303 0.31274 0.54737 0.0
C761 C 0.59744 0.28566 0.55558 0.0
C762 C 0.59836 0.33555 0.53026 0.0
C763 C 0.62829 0.33167 0.52084 0.0
C764 C 0.6426 0.30451 0.52836 0.0
H765 H 0.77158 0.4398 0.44617 0.0
H766 H 0.73886 0.40111 0.46907 0.0
C767 C 0.62728 0.28163 0.54541 0.0
C768 C 0.64511 0.35673 0.50539 0.0
H769 H 0.68749 0.37684 0.43436 0.0
C770 C 0.64788 0.38295 0.5254 0.0
C771 C 0.65907 0.35462 0.47189 0.0
C772 C 0.65569 0.32751 0.44857 0.0
C773 C 0.6651 0.40683 0.51329 0.0
C774 C 0.67955 0.40446 0.48013 0.0
C775 C 0.67638 0.37846 0.45983 0.0
C776 C 0.69902 0.42829 0.46661 0.0
C777 C 0.66854 0.43398 0.53653 0.0
C778 C 0.68733 0.45635 0.45761 0.0
C779 C 0.70598 0.47861 0.44451 0.0
C780 C 0.73659 0.47305 0.44007 0.0
C781 C 0.74814 0.44486 0.44924 0.0
C782 C 0.72949 0.42268 0.46226 0.0
H783 H 0.66094 0.42981 0.56414 0.0
H784 H 0.69211 0.44125 0.53731 0.0
H785 H 0.65502 0.45254 0.52538 0.0
H786 H 0.66376 0.46093 0.4604 0.0
H787 H 0.69637 0.50005 0.43763 0.0
H788 H 0.4704 0.24746 0.51899 0.0
H789 H 0.43118 0.27768 0.49154 0.0
H790 H 0.41848 0.32459 0.59042 0.0
H791 H 0.45878 0.29546 0.61742 0.0
H792 H 0.37493 0.28159 0.5051 0.0
H793 H 0.42339 0.39353 0.52475 0.0
H794 H 0.4443 0.35981 0.53292 0.0
H795 H 0.41893 0.37398 0.5659 0.0
C796 C 0.4594 0.26442 0.53475 0.0
C797 C 0.46772 0.26927 0.57025 0.0
C798 C 0.43697 0.28165 0.51907 0.0
C799 C 0.42216 0.3038 0.5387 0.0
C800 C 0.43017 0.30833 0.57437 0.0
H801 H 0.25086 0.37531 0.46519 0.0
H802 H 0.28977 0.3484 0.49795 0.0
C803 C 0.45306 0.29153 0.58985 0.0
C804 C 0.39767 0.32128 0.52204 0.0
H805 H 0.37276 0.39206 0.50613 0.0
C806 C 0.37455 0.30576 0.50517 0.0
C807 C 0.39731 0.35284 0.52175 0.0
C808 C 0.42247 0.371 0.53697 0.0
C809 C 0.3512 0.32082 0.4879 0.0
C810 C 0.35023 0.35236 0.48883 0.0
C811 C 0.37329 0.36789 0.5058 0.0
C812 C 0.32638 0.36976 0.4708 0.0
C813 C 0.32849 0.30271 0.46782 0.0
C814 C 0.33395 0.39181 0.44598 0.0
C815 C 0.3118 0.40776 0.42803 0.0
C816 C 0.2816 0.4017 0.43419 0.0
C817 C 0.27398 0.3801 0.45956 0.0
C818 C 0.29619 0.36457 0.47808 0.0
H819 H 0.3373 0.28028 0.46084 0.0
H820 H 0.3086 0.29949 0.48474 0.0
H821 H 0.32147 0.31411 0.44297 0.0
H822 H 0.35705 0.39632 0.43998 0.0
H823 H 0.31837 0.42425 0.40859 0.0
H824 H 0.35134 0.74886 0.53826 0.0
H825 H 0.32305 0.70981 0.50779 0.0
H826 H 0.40169 0.65446 0.50401 0.0
H827 H 0.43004 0.693 0.5344 0.0
H828 H 0.33372 0.67839 0.4406 0.0
H829 H 0.33887 0.60467 0.55917 0.0
H830 H 0.34676 0.64404 0.56129 0.0
H831 H 0.37418 0.6185 0.54438 0.0
C832 C 0.36268 0.72851 0.5306 0.0
C833 C 0.39283 0.72388 0.53923 0.0
C834 C 0.3465 0.70626 0.51322 0.0
C835 C 0.36023 0.67913 0.50429 0.0
C836 C 0.39061 0.67506 0.51129 0.0
H837 H 0.29782 0.53126 0.37549 0.0
H838 H 0.32549 0.57344 0.40007 0.0
C839 C 0.40675 0.69716 0.52864 0.0
C840 C 0.3427 0.65444 0.48904 0.0
H841 H 0.31948 0.58362 0.50634 0.0
C842 C 0.33049 0.65768 0.45492 0.0
C843 C 0.33834 0.62763 0.50805 0.0
C844 C 0.34998 0.62346 0.54538 0.0
C845 C 0.31445 0.63444 0.43899 0.0
C846 C 0.31083 0.60733 0.45765 0.0
C847 C 0.32259 0.60435 0.49201 0.0
C848 C 0.2942 0.58199 0.44247 0.0
C849 C 0.30115 0.63913 0.40258 0.0
C850 C 0.26788 0.57249 0.4587 0.0
C851 C 0.25209 0.54845 0.44485 0.0
C852 C 0.26247 0.53326 0.4146 0.0
C853 C 0.28918 0.54252 0.39875 0.0
C854 C 0.3049 0.56672 0.41257 0.0
H855 H 0.30061 0.66307 0.39501 0.0
H856 H 0.31474 0.62696 0.38269 0.0
H857 H 0.27816 0.63023 0.40139 0.0
H858 H 0.25941 0.58387 0.48199 0.0
H859 H 0.2317 0.54181 0.45787 0.0
H860 H 0.69576 0.60203 0.40439 0.0
H861 H 0.65489 0.62913 0.43176 0.0
H862 H 0.70664 0.63962 0.52755 0.0
H863 H 0.74834 0.61285 0.49988 0.0
H864 H 0.62347 0.61488 0.49074 0.0
H865 H 0.67884 0.72454 0.50695 0.0
H866 H 0.69425 0.69515 0.47984 0.0
H867 H 0.69787 0.69362 0.52734 0.0
C868 C 0.69863 0.61012 0.43127 0.0
C869 C 0.72539 0.60534 0.44996 0.0
C870 C 0.67517 0.62561 0.44687 0.0
C871 C 0.67782 0.63662 0.48152 0.0
C872 C 0.70438 0.63178 0.5005 0.0
H873 H 0.52256 0.6985 0.59972 0.0
H874 H 0.56544 0.67001 0.57868 0.0
C875 C 0.7281 0.61639 0.48474 0.0
C876 C 0.65231 0.65264 0.49748 0.0
H877 H 0.62995 0.72032 0.52921 0.0
C878 C 0.62488 0.63791 0.49931 0.0
C879 C 0.65421 0.68277 0.50817 0.0
C880 C 0.68278 0.70011 0.50526 0.0
C881 C 0.59914 0.65259 0.5111 0.0
C882 C 0.6011 0.6826 0.52221 0.0
C883 C 0.6286 0.69725 0.52078 0.0
C884 C 0.57474 0.69948 0.5346 0.0
C885 C 0.56994 0.63612 0.51038 0.0
C886 C 0.56603 0.72575 0.5171 0.0
C887 C 0.54172 0.74229 0.52927 0.0
C888 C 0.52568 0.73282 0.5592 0.0
C889 C 0.53426 0.70627 0.5764 0.0
C890 C 0.55872 0.68989 0.56437 0.0
H891 H 0.5708 0.61652 0.49238 0.0
H892 H 0.56484 0.62792 0.53748 0.0
H893 H 0.55145 0.65096 0.50167 0.0
H894 H 0.57814 0.73351 0.49406 0.0
H895 H 0.53566 0.76261 0.51541 0.0
H896 H 0.43227 0.09841 0.08571 0.0
H897 H 0.44854 0.04676 0.09501 0.0
H898 H 0.49594 0.07315 0.18956 0.0
H899 H 0.48014 0.1247 0.18013 0.0
H900 H 0.53198 0.04668 0.14031 0.0
H901 H 0.4318 0.97779 0.16296 0.0
H902 H 0.4287 0.0017 0.12484 0.0
H903 H 0.43166 0.01779 0.16842 0.0
C904 C 0.44513 0.09295 0.10923 0.0
C905 C 0.45509 0.11553 0.13209 0.0
C906 C 0.45448 0.06344 0.11451 0.0
C907 C 0.47351 0.05613 0.14297 0.0
C908 C 0.48135 0.07831 0.1674 0.0
H909 H 0.53622 0.87273 0.16995 0.0
H910 H 0.52077 0.92367 0.18527 0.0
C911 C 0.47221 0.10772 0.16204 0.0
C912 C 0.48859 0.02669 0.14446 0.0
H913 H 0.47618 0.95178 0.14559 0.0
C914 C 0.51979 0.02592 0.14198 0.0
C915 C 0.47273 0.99968 0.14693 0.0
C916 C 0.43939 0.99919 0.15128 0.0
C917 C 0.53547 0.99884 0.1405 0.0
C918 C 0.51949 0.97184 0.14109 0.0
C919 C 0.4884 0.97256 0.14502 0.0
C920 C 0.53419 0.94267 0.13499 0.0
C921 C 0.56895 0.99936 0.13792 0.0
C922 C 0.54776 0.93674 0.10216 0.0
C923 C 0.55674 0.90779 0.09357 0.0
C924 C 0.55248 0.88448 0.11779 0.0
C925 C 0.54057 0.89066 0.15139 0.0
C926 C 0.53143 0.9196 0.15995 0.0
H927 H 0.57818 0.02055 0.14833 0.0
H928 H 0.57913 0.98046 0.15275 0.0
H929 H 0.57552 0.99739 0.10962 0.0
H930 H 0.54949 0.95406 0.08222 0.0
H931 H 0.56492 0.90321 0.06707 0.0
H932 H 0.90985 0.44692 0.94275 0.0
H933 H 0.95912 0.46429 0.92485 0.0
H934 H 0.93064 0.46569 0.81536 0.0
H935 H 0.8812 0.44796 0.83337 0.0
H936 H 0.00331 0.4446 0.87194 0.0
H937 H 0.95004 0.55465 0.84385 0.0
H938 H 0.93173 0.52617 0.86955 0.0
H939 H 0.93481 0.52232 0.82231 0.0
C940 C 0.91462 0.44962 0.91474 0.0
C941 C 0.89217 0.44561 0.8893 0.0
C942 C 0.94259 0.45979 0.90456 0.0
C943 C 0.94827 0.46664 0.86889 0.0
C944 C 0.92653 0.46066 0.84305 0.0
H945 H 0.12299 0.52886 0.80601 0.0
H946 H 0.07155 0.51198 0.80076 0.0
C947 C 0.89855 0.45012 0.85323 0.0
C948 C 0.97586 0.48269 0.85985 0.0
H949 H 0.00233 0.55218 0.84076 0.0
C950 C 0.00316 0.46797 0.86455 0.0
C951 C 0.9754 0.51333 0.85081 0.0
C952 C 0.9465 0.53027 0.84648 0.0
C953 C 0.03012 0.48323 0.861 0.0
C954 C 0.02969 0.51394 0.85241 0.0
C955 C 0.00244 0.52861 0.84713 0.0
C956 C 0.05763 0.53107 0.85073 0.0
C957 C 0.05895 0.46666 0.86768 0.0
C958 C 0.06611 0.54911 0.87945 0.0
C959 C 0.09551 0.55903 0.88242 0.0
C960 C 0.1166 0.55076 0.85676 0.0
C961 C 0.10713 0.53545 0.8262 0.0
C962 C 0.07782 0.5257 0.8232 0.0
H963 H 0.05524 0.44412 0.87901 0.0
H964 H 0.07114 0.46411 0.84227 0.0
H965 H 0.07334 0.47943 0.88616 0.0
H966 H 0.0507 0.55343 0.90094 0.0
H967 H 0.1023 0.57054 0.90636 0.0
H968 H 0.47608 0.87626 0.67066 0.0
H969 H 0.49272 0.92749 0.67905 0.0
H970 H 0.44669 0.95376 0.58322 0.0
H971 H 0.42943 0.90248 0.5751 0.0
H972 H 0.52954 0.9539 0.63132 0.0
H973 H 0.42774 0.02258 0.64973 0.0
H974 H 0.42783 0.98255 0.65467 0.0
H975 H 0.42655 0.99911 0.61118 0.0
C976 C 0.46864 0.8932 0.65206 0.0
C977 C 0.45144 0.88547 0.62225 0.0
C978 C 0.47833 0.92239 0.65676 0.0
C979 C 0.47105 0.94442 0.63173 0.0
C980 C 0.45221 0.93722 0.60316 0.0
H981 H 0.56901 0.10418 0.5797 0.0
H982 H 0.55319 0.05216 0.58486 0.0
C983 C 0.44225 0.90794 0.5986 0.0
C984 C 0.48582 0.97385 0.6336 0.0
H985 H 0.47259 0.04865 0.63749 0.0
C986 C 0.5171 0.97464 0.63296 0.0
C987 C 0.46959 0.00082 0.63591 0.0
C988 C 0.43608 0.00132 0.63825 0.0
C989 C 0.53258 0.00171 0.63414 0.0
C990 C 0.51632 0.02871 0.63539 0.0
C991 C 0.48506 0.0279 0.63645 0.0
C992 C 0.53099 0.05824 0.63535 0.0
C993 C 0.56615 0.00112 0.63447 0.0
C994 C 0.52459 0.07865 0.66249 0.0
C995 C 0.53344 0.10827 0.65945 0.0
C996 C 0.54896 0.11801 0.62928 0.0
C997 C 0.55756 0.0971 0.60351 0.0
C998 C 0.5484 0.0674 0.60639 0.0
H999 H 0.57495 0.9792 0.64354 0.0
H1000 H 0.57443 0.00507 0.60715 0.0
H1001 H 0.5752 0.0188 0.65199 0.0
H1002 H 0.5113 0.07204 0.6851 0.0
H1003 H 0.52642 0.12403 0.6796 0.0
H1004 H 0.91085 0.55497 0.43881 0.0
H1005 H 0.95987 0.53771 0.41904 0.0
H1006 H 0.92733 0.53234 0.3114 0.0
H1007 H 0.87832 0.55055 0.33112 0.0
H1008 H 0.95139 0.47567 0.3503 0.0
H1009 H 0.02698 0.57342 0.34919 0.0
H1010 H 0.00119 0.57108 0.38561 0.0
H1011 H 0.98737 0.57674 0.34135 0.0
C1012 C 0.91468 0.55152 0.4107 0.0
C1013 C 0.89126 0.55456 0.38628 0.0
C1014 C 0.94251 0.54145 0.39949 0.0
C1015 C 0.94706 0.53378 0.36383 0.0
C1016 C 0.92417 0.5384 0.33898 0.0
H1017 H 0.12199 0.46965 0.30497 0.0
H1018 H 0.07039 0.48564 0.29696 0.0
C1019 C 0.89641 0.54905 0.35014 0.0
C1020 C 0.97443 0.51754 0.35399 0.0
H1021 H 0.04963 0.52544 0.34968 0.0
C1022 C 0.97289 0.48652 0.34945 0.0
C1023 C 0.00224 0.53186 0.35306 0.0
C1024 C 0.00475 0.56516 0.35732 0.0
C1025 C 0.99881 0.46922 0.34555 0.0
C1026 C 0.02675 0.48341 0.34629 0.0
C1027 C 0.02812 0.5146 0.34917 0.0
C1028 C 0.05514 0.46659 0.34638 0.0
C1029 C 0.99622 0.43593 0.34139 0.0
C1030 C 0.06323 0.44917 0.37595 0.0
C1031 C 0.09278 0.43982 0.38054 0.0
C1032 C 0.11448 0.44816 0.35574 0.0
C1033 C 0.10564 0.46301 0.32451 0.0
C1034 C 0.07622 0.47223 0.31993 0.0
H1035 H 0.97358 0.42938 0.3325 0.0
H1036 H 0.0128 0.42738 0.32204 0.0
H1037 H 0.00069 0.42507 0.36737 0.0
H1038 H 0.04733 0.44494 0.3969 0.0
H1039 H 0.0991 0.42873 0.40501 0.0
loop_
_geom_bond_atom_site_label_1
_geom_bond_atom_site_label_2
_geom_bond_distance
_geom_bond_site_symmetry_2
_ccdc_geom_bond_type
Fe0 O2 1.918 . S
Fe0 O5 1.997 . S
Fe0 O6 2.002 . S
Fe0 O11 1.976 . S
Fe0 O14 1.996 . S
Fe1 O2 1.918 . S
Fe1 O9 1.997 . S
Fe1 O12 1.996 . S
Fe1 O16 1.976 . S
Fe1 O19 2.002 . S
O2 Fe0 1.918 . S
O2 Fe1 1.918 . S
O2 Fe3 1.918 . S
Fe3 O2 1.918 . S
Fe3 O4 2.002 . S
Fe3 O13 1.976 . S
Fe3 O17 1.996 . S
Fe3 O20 1.997 . S
O4 Fe3 2.002 . S
O4 C21 1.295 . S
O5 Fe0 1.997 . S
O5 C21 1.235 . S
O6 Fe0 2.002 . S
O6 C7 1.295 . S
C7 O6 1.295 . S
C7 O9 1.235 . S
C8 O13 1.287 . S
C8 O14 1.255 . S
O9 Fe1 1.997 . S
O9 C7 1.235 . S
C10 O16 1.287 . S
C10 O17 1.255 . S
O11 Fe0 1.976 . S
O11 C18 1.287 . S
O12 Fe1 1.996 . S
O12 C18 1.255 . S
O13 Fe3 1.976 . S
O13 C8 1.287 . S
O14 Fe0 1.996 . S
O14 C8 1.255 . S
C15 O19 1.295 . S
C15 O20 1.235 . S
O16 Fe1 1.976 . S
O16 C10 1.287 . S
O17 Fe3 1.996 . S
O17 C10 1.255 . S
C18 O11 1.287 . S
C18 O12 1.255 . S
O19 Fe1 2.002 . S
O19 C15 1.295 . S
O20 Fe3 1.997 . S
O20 C15 1.235 . S
C21 O4 1.295 . S
C21 O5 1.235 . S
Fe22 O24 1.918 . S
Fe22 O27 1.997 . S
Fe22 O28 2.002 . S
Fe22 O33 1.976 . S
Fe22 O36 1.996 . S
Fe23 O24 1.918 . S
Fe23 O31 1.997 . S
Fe23 O34 1.996 . S
Fe23 O38 1.976 . S
Fe23 O41 2.002 . S
O24 Fe22 1.918 . S
O24 Fe23 1.918 . S
O24 Fe25 1.918 . S
Fe25 O24 1.918 . S
Fe25 O26 2.002 . S
Fe25 O35 1.976 . S
Fe25 O39 1.996 . S
Fe25 O42 1.997 . S
O26 Fe25 2.002 . S
O26 C43 1.295 . S
O27 Fe22 1.997 . S
O27 C43 1.235 . S
O28 Fe22 2.002 . S
O28 C29 1.295 . S
C29 O28 1.295 . S
C29 O31 1.235 . S
C30 O35 1.287 . S
C30 O36 1.255 . S
O31 Fe23 1.997 . S
O31 C29 1.235 . S
C32 O38 1.287 . S
C32 O39 1.255 . S
O33 Fe22 1.976 . S
O33 C40 1.287 . S
O34 Fe23 1.996 . S
O34 C40 1.255 . S
O35 Fe25 1.976 . S
O35 C30 1.287 . S
O36 Fe22 1.996 . S
O36 C30 1.255 . S
C37 O41 1.295 . S
C37 O42 1.235 . S
O38 Fe23 1.976 . S
O38 C32 1.287 . S
O39 Fe25 1.996 . S
O39 C32 1.255 . S
C40 O33 1.287 . S
C40 O34 1.255 . S
O41 Fe23 2.002 . S
O41 C37 1.295 . S
O42 Fe25 1.997 . S
O42 C37 1.235 . S
C43 O26 1.295 . S
C43 O27 1.235 . S
Fe44 O46 1.918 . S
Fe44 O49 1.997 . S
Fe44 O50 2.002 . S
Fe44 O55 1.976 . S
Fe44 O58 1.996 . S
Fe45 O46 1.918 . S
Fe45 O53 1.997 . S
Fe45 O56 1.996 . S
Fe45 O60 1.976 . S
Fe45 O63 2.002 . S
O46 Fe44 1.918 . S
O46 Fe45 1.918 . S
O46 Fe47 1.918 . S
Fe47 O46 1.918 . S
Fe47 O48 2.002 . S
Fe47 O57 1.976 . S
Fe47 O61 1.996 . S
Fe47 O64 1.997 . S
O48 Fe47 2.002 . S
O48 C65 1.295 . S
O49 Fe44 1.997 . S
O49 C65 1.235 . S
O50 Fe44 2.002 . S
O50 C51 1.295 . S
C51 O50 1.295 . S
C51 O53 1.235 . S
C52 O57 1.287 . S
C52 O58 1.255 . S
O53 Fe45 1.997 . S
O53 C51 1.235 . S
C54 O60 1.287 . S
C54 O61 1.255 . S
O55 Fe44 1.976 . S
O55 C62 1.287 . S
O56 Fe45 1.996 . S
O56 C62 1.255 . S
O57 Fe47 1.976 . S
O57 C52 1.287 . S
O58 Fe44 1.996 . S
O58 C52 1.255 . S
C59 O63 1.295 . S
C59 O64 1.235 . S
O60 Fe45 1.976 . S
O60 C54 1.287 . S
O61 Fe47 1.996 . S
O61 C54 1.255 . S
C62 O55 1.287 . S
C62 O56 1.255 . S
O63 Fe45 2.002 . S
O63 C59 1.295 . S
O64 Fe47 1.997 . S
O64 C59 1.235 . S
C65 O48 1.295 . S
C65 O49 1.235 . S
Fe66 O68 1.918 . S
Fe66 O71 1.997 . S
Fe66 O72 2.002 . S
Fe66 O77 1.976 . S
Fe66 O80 1.996 . S
Fe67 O68 1.918 . S
Fe67 O75 1.997 . S
Fe67 O78 1.996 . S
Fe67 O82 1.976 . S
Fe67 O85 2.002 . S
O68 Fe66 1.918 . S
O68 Fe67 1.918 . S
O68 Fe69 1.918 . S
Fe69 O68 1.918 . S
Fe69 O70 2.002 . S
Fe69 O79 1.976 . S
Fe69 O83 1.996 . S
Fe69 O86 1.997 . S
O70 Fe69 2.002 . S
O70 C87 1.295 . S
O71 Fe66 1.997 . S
O71 C87 1.235 . S
O72 Fe66 2.002 . S
O72 C73 1.295 . S
C73 O72 1.295 . S
C73 O75 1.235 . S
C74 O79 1.287 . S
C74 O80 1.255 . S
O75 Fe67 1.997 . S
O75 C73 1.235 . S
C76 O82 1.287 . S
C76 O83 1.255 . S
O77 Fe66 1.976 . S
O77 C84 1.287 . S
O78 Fe67 1.996 . S
O78 C84 1.255 . S
O79 Fe69 1.976 . S
O79 C74 1.287 . S
O80 Fe66 1.996 . S
O80 C74 1.255 . S
C81 O85 1.295 . S
C81 O86 1.235 . S
O82 Fe67 1.976 . S
O82 C76 1.287 . S
O83 Fe69 1.996 . S
O83 C76 1.255 . S
C84 O77 1.287 . S
C84 O78 1.255 . S
O85 Fe67 2.002 . S
O85 C81 1.295 . S
O86 Fe69 1.997 . S
O86 C81 1.235 . S
C87 O70 1.295 . S
C87 O71 1.235 . S
Fe88 O90 1.918 . S
Fe88 O93 1.997 . S
Fe88 O94 2.002 . S
Fe88 O99 1.976 . S
Fe88 O102 1.996 . S
Fe89 O90 1.918 . S
Fe89 O97 1.997 . S
Fe89 O100 1.996 . S
Fe89 O104 1.976 . S
Fe89 O107 2.002 . S
O90 Fe88 1.918 . S
O90 Fe89 1.918 . S
O90 Fe91 1.918 . S
Fe91 O90 1.918 . S
Fe91 O92 2.002 . S
Fe91 O101 1.976 . S
Fe91 O105 1.996 . S
Fe91 O108 1.997 . S
O92 Fe91 2.002 . S
O92 C109 1.295 . S
O93 Fe88 1.997 . S
O93 C109 1.235 . S
O94 Fe88 2.002 . S
O94 C95 1.295 . S
C95 O94 1.295 . S
C95 O97 1.235 . S
C96 O101 1.287 . S
C96 O102 1.255 . S
O97 Fe89 1.997 . S
O97 C95 1.235 . S
C98 O104 1.287 . S
C98 O105 1.255 . S
O99 Fe88 1.976 . S
O99 C106 1.287 . S
O100 Fe89 1.996 . S
O100 C106 1.255 . S
O101 Fe91 1.976 . S
O101 C96 1.287 . S
O102 Fe88 1.996 . S
O102 C96 1.255 . S
C103 O107 1.295 . S
C103 O108 1.235 . S
O104 Fe89 1.976 . S
O104 C98 1.287 . S
O105 Fe91 1.996 . S
O105 C98 1.255 . S
C106 O99 1.287 . S
C106 O100 1.255 . S
O107 Fe89 2.002 . S
O107 C103 1.295 . S
O108 Fe91 1.997 . S
O108 C103 1.235 . S
C109 O92 1.295 . S
C109 O93 1.235 . S
Fe110 O112 1.918 . S
Fe110 O115 1.997 . S
Fe110 O116 2.002 . S
Fe110 O121 1.976 . S
Fe110 O124 1.996 . S
Fe111 O112 1.918 . S
Fe111 O119 1.997 . S
Fe111 O122 1.996 . S
Fe111 O126 1.976 . S
Fe111 O129 2.002 . S
O112 Fe110 1.918 . S
O112 Fe111 1.918 . S
O112 Fe113 1.918 . S
Fe113 O112 1.918 . S
Fe113 O114 2.002 . S
Fe113 O123 1.976 . S
Fe113 O127 1.996 . S
Fe113 O130 1.997 . S
O114 Fe113 2.002 . S
O114 C131 1.295 . S
O115 Fe110 1.997 . S
O115 C131 1.235 . S
O116 Fe110 2.002 . S
O116 C117 1.295 . S
C117 O116 1.295 . S
C117 O119 1.235 . S
C118 O123 1.287 . S
C118 O124 1.255 . S
O119 Fe111 1.997 . S
O119 C117 1.235 . S
C120 O126 1.287 . S
C120 O127 1.255 . S
O121 Fe110 1.976 . S
O121 C128 1.287 . S
O122 Fe111 1.996 . S
O122 C128 1.255 . S
O123 Fe113 1.976 . S
O123 C118 1.287 . S
O124 Fe110 1.996 . S
O124 C118 1.255 . S
C125 O129 1.295 . S
C125 O130 1.235 . S
O126 Fe111 1.976 . S
O126 C120 1.287 . S
O127 Fe113 1.996 . S
O127 C120 1.255 . S
C128 O121 1.287 . S
C128 O122 1.255 . S
O129 Fe111 2.002 . S
O129 C125 1.295 . S
O130 Fe113 1.997 . S
O130 C125 1.235 . S
C131 O114 1.295 . S
C131 O115 1.235 . S
Fe132 O134 1.918 . S
Fe132 O137 1.997 . S
Fe132 O138 2.002 . S
Fe132 O143 1.976 . S
Fe132 O146 1.996 . S
Fe133 O134 1.918 . S
Fe133 O141 1.997 . S
Fe133 O144 1.996 . S
Fe133 O148 1.976 . S
Fe133 O151 2.002 . S
O134 Fe132 1.918 . S
O134 Fe133 1.918 . S
O134 Fe135 1.918 . S
Fe135 O134 1.918 . S
Fe135 O136 2.002 . S
Fe135 O145 1.976 . S
Fe135 O149 1.996 . S
Fe135 O152 1.997 . S
O136 Fe135 2.002 . S
O136 C153 1.295 . S
O137 Fe132 1.997 . S
O137 C153 1.235 . S
O138 Fe132 2.002 . S
O138 C139 1.295 . S
C139 O138 1.295 . S
C139 O141 1.235 . S
C140 O145 1.287 . S
C140 O146 1.255 . S
O141 Fe133 1.997 . S
O141 C139 1.235 . S
C142 O148 1.287 . S
C142 O149 1.255 . S
O143 Fe132 1.976 . S
O143 C150 1.287 . S
O144 Fe133 1.996 . S
O144 C150 1.255 . S
O145 Fe135 1.976 . S
O145 C140 1.287 . S
O146 Fe132 1.996 . S
O146 C140 1.255 . S
C147 O151 1.295 . S
C147 O152 1.235 . S
O148 Fe133 1.976 . S
O148 C142 1.287 . S
O149 Fe135 1.996 . S
O149 C142 1.255 . S
C150 O143 1.287 . S
C150 O144 1.255 . S
O151 Fe133 2.002 . S
O151 C147 1.295 . S
O152 Fe135 1.997 . S
O152 C147 1.235 . S
C153 O136 1.295 . S
C153 O137 1.235 . S
Fe154 O156 1.918 . S
Fe154 O159 1.997 . S
Fe154 O160 2.002 . S
Fe154 O165 1.976 . S
Fe154 O168 1.996 . S
Fe155 O156 1.918 . S
Fe155 O163 1.997 . S
Fe155 O166 1.996 . S
Fe155 O170 1.976 . S
Fe155 O173 2.002 . S
O156 Fe154 1.918 . S
O156 Fe155 1.918 . S
O156 Fe157 1.918 . S
Fe157 O156 1.918 . S
Fe157 O158 2.002 . S
Fe157 O167 1.976 . S
Fe157 O171 1.996 . S
Fe157 O174 1.997 . S
O158 Fe157 2.002 . S
O158 C175 1.295 . S
O159 Fe154 1.997 . S
O159 C175 1.235 . S
O160 Fe154 2.002 . S
O160 C161 1.295 . S
C161 O160 1.295 . S
C161 O163 1.235 . S
C162 O167 1.287 . S
C162 O168 1.255 . S
O163 Fe155 1.997 . S
O163 C161 1.235 . S
C164 O170 1.287 . S
C164 O171 1.255 . S
O165 Fe154 1.976 . S
O165 C172 1.287 . S
O166 Fe155 1.996 . S
O166 C172 1.255 . S
O167 Fe157 1.976 . S
O167 C162 1.287 . S
O168 Fe154 1.996 . S
O168 C162 1.255 . S
C169 O173 1.295 . S
C169 O174 1.235 . S
O170 Fe155 1.976 . S
O170 C164 1.287 . S
O171 Fe157 1.996 . S
O171 C164 1.255 . S
C172 O165 1.287 . S
C172 O166 1.255 . S
O173 Fe155 2.002 . S
O173 C169 1.295 . S
O174 Fe157 1.997 . S
O174 C169 1.235 . S
C175 O158 1.295 . S
C175 O159 1.235 . S
H176 C184 0.929 . S
H177 C186 0.930 . S
H178 C188 0.930 . S
H179 C191 0.929 . S
H180 C194 0.930 . S
H181 C196 0.960 . S
H182 C196 0.960 . S
H183 C196 0.960 . S
C184 H176 0.929 . S
C184 C185 1.377 . S
C184 C186 1.384 . S
C185 C184 1.377 . S
C185 C191 1.390 . S
C186 H177 0.930 . S
C186 C184 1.384 . S
C186 C187 1.372 . S
C187 C186 1.372 . S
C187 C188 1.400 . S
C187 C192 1.490 . S
C188 H178 0.930 . S
C188 C187 1.400 . S
C188 C191 1.386 . S
H189 C205 0.930 . S
H190 C206 0.931 . S
C191 H179 0.929 . S
C191 C185 1.390 . S
C191 C188 1.386 . S
C192 C187 1.490 . S
C192 C194 1.395 . S
C192 C195 1.403 . S
H193 C199 0.930 . S
C194 H180 0.930 . S
C194 C192 1.395 . S
C194 C197 1.403 . S
C195 C192 1.403 . S
C195 C196 1.524 . S
C195 C199 1.400 . S
C196 H181 0.960 . S
C196 H182 0.960 . S
C196 H183 0.960 . S
C196 C195 1.524 . S
C197 C194 1.403 . S
C197 C198 1.392 . S
C197 C201 1.495 . S
C198 C197 1.392 . S
C198 C199 1.385 . S
C198 C200 1.478 . S
C199 H193 0.930 . S
C199 C195 1.400 . S
C199 C198 1.385 . S
C200 C198 1.478 . S
C200 C202 1.381 . S
C200 C206 1.383 . S
C201 C197 1.495 . S
C201 H207 0.959 . S
C201 H208 0.961 . S
C201 H209 0.960 . S
C202 C200 1.381 . S
C202 C203 1.394 . S
C202 H210 0.930 . S
C203 C202 1.394 . S
C203 C204 1.383 . S
C203 H211 0.929 . S
C204 C203 1.383 . S
C204 C205 1.377 . S
C205 H189 0.930 . S
C205 C204 1.377 . S
C205 C206 1.379 . S
C206 H190 0.931 . S
C206 C200 1.383 . S
C206 C205 1.379 . S
H207 C201 0.959 . S
H208 C201 0.961 . S
H209 C201 0.960 . S
H210 C202 0.930 . S
H211 C203 0.929 . S
H212 C220 0.929 . S
H213 C222 0.930 . S
H214 C224 0.930 . S
H215 C227 0.929 . S
H216 C230 0.930 . S
H217 C232 0.960 . S
H218 C232 0.960 . S
H219 C232 0.960 . S
C220 H212 0.929 . S
C220 C221 1.377 . S
C220 C222 1.384 . S
C221 C220 1.377 . S
C221 C227 1.390 . S
C222 H213 0.930 . S
C222 C220 1.384 . S
C222 C223 1.372 . S
C223 C222 1.372 . S
C223 C224 1.400 . S
C223 C228 1.490 . S
C224 H214 0.930 . S
C224 C223 1.400 . S
C224 C227 1.386 . S
H225 C241 0.930 . S
H226 C242 0.931 . S
C227 H215 0.929 . S
C227 C221 1.390 . S
C227 C224 1.386 . S
C228 C223 1.490 . S
C228 C230 1.395 . S
C228 C231 1.403 . S
H229 C235 0.930 . S
C230 H216 0.930 . S
C230 C228 1.395 . S
C230 C233 1.403 . S
C231 C228 1.403 . S
C231 C232 1.524 . S
C231 C235 1.400 . S
C232 H217 0.960 . S
C232 H218 0.960 . S
C232 H219 0.960 . S
C232 C231 1.524 . S
C233 C230 1.403 . S
C233 C234 1.392 . S
C233 C237 1.495 . S
C234 C233 1.392 . S
C234 C235 1.385 . S
C234 C236 1.478 . S
C235 H229 0.930 . S
C235 C231 1.400 . S
C235 C234 1.385 . S
C236 C234 1.478 . S
C236 C238 1.381 . S
C236 C242 1.383 . S
C237 C233 1.495 . S
C237 H243 0.959 . S
C237 H244 0.961 . S
C237 H245 0.960 . S
C238 C236 1.381 . S
C238 C239 1.394 . S
C238 H246 0.930 . S
C239 C238 1.394 . S
C239 C240 1.383 . S
C239 H247 0.929 . S
C240 C239 1.383 . S
C240 C241 1.377 . S
C241 H225 0.930 . S
C241 C240 1.377 . S
C241 C242 1.379 . S
C242 H226 0.931 . S
C242 C236 1.383 . S
C242 C241 1.379 . S
H243 C237 0.959 . S
H244 C237 0.961 . S
H245 C237 0.960 . S
H246 C238 0.930 . S
H247 C239 0.929 . S
H248 C256 0.929 . S
H249 C258 0.930 . S
H250 C260 0.930 . S
H251 C263 0.929 . S
H252 C266 0.930 . S
H253 C268 0.960 . S
H254 C268 0.960 . S
H255 C268 0.960 . S
C256 H248 0.929 . S
C256 C257 1.377 . S
C256 C258 1.384 . S
C257 C256 1.377 . S
C257 C263 1.390 . S
C258 H249 0.930 . S
C258 C256 1.384 . S
C258 C259 1.372 . S
C259 C258 1.372 . S
C259 C260 1.400 . S
C259 C264 1.490 . S
C260 H250 0.930 . S
C260 C259 1.400 . S
C260 C263 1.386 . S
H261 C277 0.930 . S
H262 C278 0.931 . S
C263 H251 0.929 . S
C263 C257 1.390 . S
C263 C260 1.386 . S
C264 C259 1.490 . S
C264 C266 1.395 . S
C264 C267 1.403 . S
H265 C271 0.930 . S
C266 H252 0.930 . S
C266 C264 1.395 . S
C266 C269 1.403 . S
C267 C264 1.403 . S
C267 C268 1.524 . S
C267 C271 1.400 . S
C268 H253 0.960 . S
C268 H254 0.960 . S
C268 H255 0.960 . S
C268 C267 1.524 . S
C269 C266 1.403 . S
C269 C270 1.392 . S
C269 C273 1.495 . S
C270 C269 1.392 . S
C270 C271 1.385 . S
C270 C272 1.478 . S
C271 H265 0.930 . S
C271 C267 1.400 . S
C271 C270 1.385 . S
C272 C270 1.478 . S
C272 C274 1.381 . S
C272 C278 1.383 . S
C273 C269 1.495 . S
C273 H279 0.959 . S
C273 H280 0.961 . S
C273 H281 0.960 . S
C274 C272 1.381 . S
C274 C275 1.394 . S
C274 H282 0.930 . S
C275 C274 1.394 . S
C275 C276 1.383 . S
C275 H283 0.929 . S
C276 C275 1.383 . S
C276 C277 1.377 . S
C277 H261 0.930 . S
C277 C276 1.377 . S
C277 C278 1.379 . S
C278 H262 0.931 . S
C278 C272 1.383 . S
C278 C277 1.379 . S
H279 C273 0.959 . S
H280 C273 0.961 . S
H281 C273 0.960 . S
H282 C274 0.930 . S
H283 C275 0.929 . S
H284 C292 0.929 . S
H285 C294 0.930 . S
H286 C296 0.930 . S
H287 C299 0.929 . S
H288 C302 0.930 . S
H289 C304 0.960 . S
H290 C304 0.960 . S
H291 C304 0.960 . S
C292 H284 0.929 . S
C292 C293 1.377 . S
C292 C294 1.384 . S
C293 C292 1.377 . S
C293 C299 1.390 . S
C294 H285 0.930 . S
C294 C292 1.384 . S
C294 C295 1.372 . S
C295 C294 1.372 . S
C295 C296 1.400 . S
C295 C300 1.490 . S
C296 H286 0.930 . S
C296 C295 1.400 . S
C296 C299 1.386 . S
H297 C313 0.930 . S
H298 C314 0.931 . S
C299 H287 0.929 . S
C299 C293 1.390 . S
C299 C296 1.386 . S
C300 C295 1.490 . S
C300 C302 1.395 . S
C300 C303 1.403 . S
H301 C307 0.930 . S
C302 H288 0.930 . S
C302 C300 1.395 . S
C302 C305 1.403 . S
C303 C300 1.403 . S
C303 C304 1.524 . S
C303 C307 1.400 . S
C304 H289 0.960 . S
C304 H290 0.960 . S
C304 H291 0.960 . S
C304 C303 1.524 . S
C305 C302 1.403 . S
C305 C306 1.392 . S
C305 C309 1.495 . S
C306 C305 1.392 . S
C306 C307 1.385 . S
C306 C308 1.478 . S
C307 H301 0.930 . S
C307 C303 1.400 . S
C307 C306 1.385 . S
C308 C306 1.478 . S
C308 C310 1.381 . S
C308 C314 1.383 . S
C309 C305 1.495 . S
C309 H315 0.959 . S
C309 H316 0.961 . S
C309 H317 0.960 . S
C310 C308 1.381 . S
C310 C311 1.394 . S
C310 H318 0.930 . S
C311 C310 1.394 . S
C311 C312 1.383 . S
C311 H319 0.929 . S
C312 C311 1.383 . S
C312 C313 1.377 . S
C313 H297 0.930 . S
C313 C312 1.377 . S
C313 C314 1.379 . S
C314 H298 0.931 . S
C314 C308 1.383 . S
C314 C313 1.379 . S
H315 C309 0.959 . S
H316 C309 0.961 . S
H317 C309 0.960 . S
H318 C310 0.930 . S
H319 C311 0.929 . S
H320 C328 0.929 . S
H321 C330 0.930 . S
H322 C332 0.930 . S
H323 C335 0.929 . S
H324 C338 0.930 . S
H325 C340 0.960 . S
H326 C340 0.960 . S
H327 C340 0.960 . S
C328 H320 0.929 . S
C328 C329 1.377 . S
C328 C330 1.384 . S
C329 C328 1.377 . S
C329 C335 1.390 . S
C330 H321 0.930 . S
C330 C328 1.384 . S
C330 C331 1.372 . S
C331 C330 1.372 . S
C331 C332 1.400 . S
C331 C336 1.490 . S
C332 H322 0.930 . S
C332 C331 1.400 . S
C332 C335 1.386 . S
H333 C349 0.930 . S
H334 C350 0.931 . S
C335 H323 0.929 . S
C335 C329 1.390 . S
C335 C332 1.386 . S
C336 C331 1.490 . S
C336 C338 1.395 . S
C336 C339 1.403 . S
H337 C343 0.930 . S
C338 H324 0.930 . S
C338 C336 1.395 . S
C338 C341 1.403 . S
C339 C336 1.403 . S
C339 C340 1.524 . S
C339 C343 1.400 . S
C340 H325 0.960 . S
C340 H326 0.960 . S
C340 H327 0.960 . S
C340 C339 1.524 . S
C341 C338 1.403 . S
C341 C342 1.392 . S
C341 C345 1.495 . S
C342 C341 1.392 . S
C342 C343 1.385 . S
C342 C344 1.478 . S
C343 H337 0.930 . S
C343 C339 1.400 . S
C343 C342 1.385 . S
C344 C342 1.478 . S
C344 C346 1.381 . S
C344 C350 1.383 . S
C345 C341 1.495 . S
C345 H351 0.959 . S
C345 H352 0.961 . S
C345 H353 0.960 . S
C346 C344 1.381 . S
C346 C347 1.394 . S
C346 H354 0.930 . S
C347 C346 1.394 . S
C347 C348 1.383 . S
C347 H355 0.929 . S
C348 C347 1.383 . S
C348 C349 1.377 . S
C349 H333 0.930 . S
C349 C348 1.377 . S
C349 C350 1.379 . S
C350 H334 0.931 . S
C350 C344 1.383 . S
C350 C349 1.379 . S
H351 C345 0.959 . S
H352 C345 0.961 . S
H353 C345 0.960 . S
H354 C346 0.930 . S
H355 C347 0.929 . S
H356 C364 0.929 . S
H357 C366 0.930 . S
H358 C368 0.930 . S
H359 C371 0.929 . S
H360 C374 0.930 . S
H361 C376 0.960 . S
H362 C376 0.960 . S
H363 C376 0.960 . S
C364 H356 0.929 . S
C364 C365 1.377 . S
C364 C366 1.384 . S
C365 C364 1.377 . S
C365 C371 1.390 . S
C366 H357 0.930 . S
C366 C364 1.384 . S
C366 C367 1.372 . S
C367 C366 1.372 . S
C367 C368 1.400 . S
C367 C372 1.490 . S
C368 H358 0.930 . S
C368 C367 1.400 . S
C368 C371 1.386 . S
H369 C385 0.930 . S
H370 C386 0.931 . S
C371 H359 0.929 . S
C371 C365 1.390 . S
C371 C368 1.386 . S
C372 C367 1.490 . S
C372 C374 1.395 . S
C372 C375 1.403 . S
H373 C379 0.930 . S
C374 H360 0.930 . S
C374 C372 1.395 . S
C374 C377 1.403 . S
C375 C372 1.403 . S
C375 C376 1.524 . S
C375 C379 1.400 . S
C376 H361 0.960 . S
C376 H362 0.960 . S
C376 H363 0.960 . S
C376 C375 1.524 . S
C377 C374 1.403 . S
C377 C378 1.392 . S
C377 C381 1.495 . S
C378 C377 1.392 . S
C378 C379 1.385 . S
C378 C380 1.478 . S
C379 H373 0.930 . S
C379 C375 1.400 . S
C379 C378 1.385 . S
C380 C378 1.478 . S
C380 C382 1.381 . S
C380 C386 1.383 . S
C381 C377 1.495 . S
C381 H387 0.959 . S
C381 H388 0.961 . S
C381 H389 0.960 . S
C382 C380 1.381 . S
C382 C383 1.394 . S
C382 H390 0.930 . S
C383 C382 1.394 . S
C383 C384 1.383 . S
C383 H391 0.929 . S
C384 C383 1.383 . S
C384 C385 1.377 . S
C385 H369 0.930 . S
C385 C384 1.377 . S
C385 C386 1.379 . S
C386 H370 0.931 . S
C386 C380 1.383 . S
C386 C385 1.379 . S
H387 C381 0.959 . S
H388 C381 0.961 . S
H389 C381 0.960 . S
H390 C382 0.930 . S
H391 C383 0.929 . S
H392 C400 0.929 . S
H393 C402 0.930 . S
H394 C404 0.930 . S
H395 C407 0.929 . S
H396 C410 0.930 . S
H397 C412 0.960 . S
H398 C412 0.960 . S
H399 C412 0.960 . S
C400 H392 0.929 . S
C400 C401 1.377 . S
C400 C402 1.384 . S
C401 C400 1.377 . S
C401 C407 1.390 . S
C402 H393 0.930 . S
C402 C400 1.384 . S
C402 C403 1.372 . S
C403 C402 1.372 . S
C403 C404 1.400 . S
C403 C408 1.490 . S
C404 H394 0.930 . S
C404 C403 1.400 . S
C404 C407 1.386 . S
H405 C421 0.930 . S
H406 C422 0.931 . S
C407 H395 0.929 . S
C407 C401 1.390 . S
C407 C404 1.386 . S
C408 C403 1.490 . S
C408 C410 1.395 . S
C408 C411 1.403 . S
H409 C415 0.930 . S
C410 H396 0.930 . S
C410 C408 1.395 . S
C410 C413 1.403 . S
C411 C408 1.403 . S
C411 C412 1.524 . S
C411 C415 1.400 . S
C412 H397 0.960 . S
C412 H398 0.960 . S
C412 H399 0.960 . S
C412 C411 1.524 . S
C413 C410 1.403 . S
C413 C414 1.392 . S
C413 C417 1.495 . S
C414 C413 1.392 . S
C414 C415 1.385 . S
C414 C416 1.478 . S
C415 H409 0.930 . S
C415 C411 1.400 . S
C415 C414 1.385 . S
C416 C414 1.478 . S
C416 C418 1.381 . S
C416 C422 1.383 . S
C417 C413 1.495 . S
C417 H423 0.959 . S
C417 H424 0.961 . S
C417 H425 0.960 . S
C418 C416 1.381 . S
C418 C419 1.394 . S
C418 H426 0.930 . S
C419 C418 1.394 . S
C419 C420 1.383 . S
C419 H427 0.929 . S
C420 C419 1.383 . S
C420 C421 1.377 . S
C421 H405 0.930 . S
C421 C420 1.377 . S
C421 C422 1.379 . S
C422 H406 0.931 . S
C422 C416 1.383 . S
C422 C421 1.379 . S
H423 C417 0.959 . S
H424 C417 0.961 . S
H425 C417 0.960 . S
H426 C418 0.930 . S
H427 C419 0.929 . S
H428 C436 0.929 . S
H429 C438 0.930 . S
H430 C440 0.930 . S
H431 C443 0.929 . S
H432 C446 0.930 . S
H433 C448 0.960 . S
H434 C448 0.960 . S
H435 C448 0.960 . S
C436 H428 0.929 . S
C436 C437 1.377 . S
C436 C438 1.384 . S
C437 C436 1.377 . S
C437 C443 1.390 . S
C438 H429 0.930 . S
C438 C436 1.384 . S
C438 C439 1.372 . S
C439 C438 1.372 . S
C439 C440 1.400 . S
C439 C444 1.490 . S
C440 H430 0.930 . S
C440 C439 1.400 . S
C440 C443 1.386 . S
H441 C457 0.930 . S
H442 C458 0.931 . S
C443 H431 0.929 . S
C443 C437 1.390 . S
C443 C440 1.386 . S
C444 C439 1.490 . S
C444 C446 1.395 . S
C444 C447 1.403 . S
H445 C451 0.930 . S
C446 H432 0.930 . S
C446 C444 1.395 . S
C446 C449 1.403 . S
C447 C444 1.403 . S
C447 C448 1.524 . S
C447 C451 1.400 . S
C448 H433 0.960 . S
C448 H434 0.960 . S
C448 H435 0.960 . S
C448 C447 1.524 . S
C449 C446 1.403 . S
C449 C450 1.392 . S
C449 C453 1.495 . S
C450 C449 1.392 . S
C450 C451 1.385 . S
C450 C452 1.478 . S
C451 H445 0.930 . S
C451 C447 1.400 . S
C451 C450 1.385 . S
C452 C450 1.478 . S
C452 C454 1.381 . S
C452 C458 1.383 . S
C453 C449 1.495 . S
C453 H459 0.959 . S
C453 H460 0.961 . S
C453 H461 0.960 . S
C454 C452 1.381 . S
C454 C455 1.394 . S
C454 H462 0.930 . S
C455 C454 1.394 . S
C455 C456 1.383 . S
C455 H463 0.929 . S
C456 C455 1.383 . S
C456 C457 1.377 . S
C457 H441 0.930 . S
C457 C456 1.377 . S
C457 C458 1.379 . S
C458 H442 0.931 . S
C458 C452 1.383 . S
C458 C457 1.379 . S
H459 C453 0.959 . S
H460 C453 0.961 . S
H461 C453 0.960 . S
H462 C454 0.930 . S
H463 C455 0.929 . S
H464 C472 0.929 . S
H465 C474 0.930 . S
H466 C476 0.930 . S
H467 C479 0.929 . S
H468 C482 0.930 . S
H469 C484 0.960 . S
H470 C484 0.960 . S
H471 C484 0.960 . S
C472 H464 0.929 . S
C472 C473 1.377 . S
C472 C474 1.384 . S
C473 C472 1.377 . S
C473 C479 1.390 . S
C474 H465 0.930 . S
C474 C472 1.384 . S
C474 C475 1.372 . S
C475 C474 1.372 . S
C475 C476 1.400 . S
C475 C480 1.490 . S
C476 H466 0.930 . S
C476 C475 1.400 . S
C476 C479 1.386 . S
H477 C493 0.930 . S
H478 C494 0.931 . S
C479 H467 0.929 . S
C479 C473 1.390 . S
C479 C476 1.386 . S
C480 C475 1.490 . S
C480 C482 1.395 . S
C480 C483 1.403 . S
H481 C487 0.930 . S
C482 H468 0.930 . S
C482 C480 1.395 . S
C482 C485 1.403 . S
C483 C480 1.403 . S
C483 C484 1.524 . S
C483 C487 1.400 . S
C484 H469 0.960 . S
C484 H470 0.960 . S
C484 H471 0.960 . S
C484 C483 1.524 . S
C485 C482 1.403 . S
C485 C486 1.392 . S
C485 C489 1.495 . S
C486 C485 1.392 . S
C486 C487 1.385 . S
C486 C488 1.478 . S
C487 H481 0.930 . S
C487 C483 1.400 . S
C487 C486 1.385 . S
C488 C486 1.478 . S
C488 C490 1.381 . S
C488 C494 1.383 . S
C489 C485 1.495 . S
C489 H495 0.959 . S
C489 H496 0.961 . S
C489 H497 0.960 . S
C490 C488 1.381 . S
C490 C491 1.394 . S
C490 H498 0.930 . S
C491 C490 1.394 . S
C491 C492 1.383 . S
C491 H499 0.929 . S
C492 C491 1.383 . S
C492 C493 1.377 . S
C493 H477 0.930 . S
C493 C492 1.377 . S
C493 C494 1.379 . S
C494 H478 0.931 . S
C494 C488 1.383 . S
C494 C493 1.379 . S
H495 C489 0.959 . S
H496 C489 0.961 . S
H497 C489 0.960 . S
H498 C490 0.930 . S
H499 C491 0.929 . S
H500 C508 0.929 . S
H501 C510 0.930 . S
H502 C512 0.930 . S
H503 C515 0.929 . S
H504 C518 0.930 . S
H505 C520 0.960 . S
H506 C520 0.960 . S
H507 C520 0.960 . S
C508 H500 0.929 . S
C508 C509 1.377 . S
C508 C510 1.384 . S
C509 C508 1.377 . S
C509 C515 1.390 . S
C510 H501 0.930 . S
C510 C508 1.384 . S
C510 C511 1.372 . S
C511 C510 1.372 . S
C511 C512 1.400 . S
C511 C516 1.490 . S
C512 H502 0.930 . S
C512 C511 1.400 . S
C512 C515 1.386 . S
H513 C529 0.930 . S
H514 C530 0.931 . S
C515 H503 0.929 . S
C515 C509 1.390 . S
C515 C512 1.386 . S
C516 C511 1.490 . S
C516 C518 1.395 . S
C516 C519 1.403 . S
H517 C523 0.930 . S
C518 H504 0.930 . S
C518 C516 1.395 . S
C518 C521 1.403 . S
C519 C516 1.403 . S
C519 C520 1.524 . S
C519 C523 1.400 . S
C520 H505 0.960 . S
C520 H506 0.960 . S
C520 H507 0.960 . S
C520 C519 1.524 . S
C521 C518 1.403 . S
C521 C522 1.392 . S
C521 C525 1.495 . S
C522 C521 1.392 . S
C522 C523 1.385 . S
C522 C524 1.478 . S
C523 H517 0.930 . S
C523 C519 1.400 . S
C523 C522 1.385 . S
C524 C522 1.478 . S
C524 C526 1.381 . S
C524 C530 1.383 . S
C525 C521 1.495 . S
C525 H531 0.959 . S
C525 H532 0.961 . S
C525 H533 0.960 . S
C526 C524 1.381 . S
C526 C527 1.394 . S
C526 H534 0.930 . S
C527 C526 1.394 . S
C527 C528 1.383 . S
C527 H535 0.929 . S
C528 C527 1.383 . S
C528 C529 1.377 . S
C529 H513 0.930 . S
C529 C528 1.377 . S
C529 C530 1.379 . S
C530 H514 0.931 . S
C530 C524 1.383 . S
C530 C529 1.379 . S
H531 C525 0.959 . S
H532 C525 0.961 . S
H533 C525 0.960 . S
H534 C526 0.930 . S
H535 C527 0.929 . S
H536 C544 0.929 . S
H537 C546 0.930 . S
H538 C548 0.930 . S
H539 C551 0.929 . S
H540 C554 0.930 . S
H541 C556 0.960 . S
H542 C556 0.960 . S
H543 C556 0.960 . S
C544 H536 0.929 . S
C544 C545 1.377 . S
C544 C546 1.384 . S
C545 C544 1.377 . S
C545 C551 1.390 . S
C546 H537 0.930 . S
C546 C544 1.384 . S
C546 C547 1.372 . S
C547 C546 1.372 . S
C547 C548 1.400 . S
C547 C552 1.490 . S
C548 H538 0.930 . S
C548 C547 1.400 . S
C548 C551 1.386 . S
H549 C565 0.930 . S
H550 C566 0.931 . S
C551 H539 0.929 . S
C551 C545 1.390 . S
C551 C548 1.386 . S
C552 C547 1.490 . S
C552 C554 1.395 . S
C552 C555 1.403 . S
H553 C559 0.930 . S
C554 H540 0.930 . S
C554 C552 1.395 . S
C554 C557 1.403 . S
C555 C552 1.403 . S
C555 C556 1.524 . S
C555 C559 1.400 . S
C556 H541 0.960 . S
C556 H542 0.960 . S
C556 H543 0.960 . S
C556 C555 1.524 . S
C557 C554 1.403 . S
C557 C558 1.392 . S
C557 C561 1.495 . S
C558 C557 1.392 . S
C558 C559 1.385 . S
C558 C560 1.478 . S
C559 H553 0.930 . S
C559 C555 1.400 . S
C559 C558 1.385 . S
C560 C558 1.478 . S
C560 C562 1.381 . S
C560 C566 1.383 . S
C561 C557 1.495 . S
C561 H567 0.959 . S
C561 H568 0.961 . S
C561 H569 0.960 . S
C562 C560 1.381 . S
C562 C563 1.394 . S
C562 H570 0.930 . S
C563 C562 1.394 . S
C563 C564 1.383 . S
C563 H571 0.929 . S
C564 C563 1.383 . S
C564 C565 1.377 . S
C565 H549 0.930 . S
C565 C564 1.377 . S
C565 C566 1.379 . S
C566 H550 0.931 . S
C566 C560 1.383 . S
C566 C565 1.379 . S
H567 C561 0.959 . S
H568 C561 0.961 . S
H569 C561 0.960 . S
H570 C562 0.930 . S
H571 C563 0.929 . S
H572 C580 0.929 . S
H573 C582 0.930 . S
H574 C584 0.930 . S
H575 C587 0.929 . S
H576 C590 0.930 . S
H577 C592 0.960 . S
H578 C592 0.960 . S
H579 C592 0.960 . S
C580 H572 0.929 . S
C580 C581 1.377 . S
C580 C582 1.384 . S
C581 C580 1.377 . S
C581 C587 1.390 . S
C582 H573 0.930 . S
C582 C580 1.384 . S
C582 C583 1.372 . S
C583 C582 1.372 . S
C583 C584 1.400 . S
C583 C588 1.490 . S
C584 H574 0.930 . S
C584 C583 1.400 . S
C584 C587 1.386 . S
H585 C601 0.930 . S
H586 C602 0.931 . S
C587 H575 0.929 . S
C587 C581 1.390 . S
C587 C584 1.386 . S
C588 C583 1.490 . S
C588 C590 1.395 . S
C588 C591 1.403 . S
H589 C595 0.930 . S
C590 H576 0.930 . S
C590 C588 1.395 . S
C590 C593 1.403 . S
C591 C588 1.403 . S
C591 C592 1.524 . S
C591 C595 1.400 . S
C592 H577 0.960 . S
C592 H578 0.960 . S
C592 H579 0.960 . S
C592 C591 1.524 . S
C593 C590 1.403 . S
C593 C594 1.392 . S
C593 C597 1.495 . S
C594 C593 1.392 . S
C594 C595 1.385 . S
C594 C596 1.478 . S
C595 H589 0.930 . S
C595 C591 1.400 . S
C595 C594 1.385 . S
C596 C594 1.478 . S
C596 C598 1.381 . S
C596 C602 1.383 . S
C597 C593 1.495 . S
C597 H603 0.959 . S
C597 H604 0.961 . S
C597 H605 0.960 . S
C598 C596 1.381 . S
C598 C599 1.394 . S
C598 H606 0.930 . S
C599 C598 1.394 . S
C599 C600 1.383 . S
C599 H607 0.929 . S
C600 C599 1.383 . S
C600 C601 1.377 . S
C601 H585 0.930 . S
C601 C600 1.377 . S
C601 C602 1.379 . S
C602 H586 0.931 . S
C602 C596 1.383 . S
C602 C601 1.379 . S
H603 C597 0.959 . S
H604 C597 0.961 . S
H605 C597 0.960 . S
H606 C598 0.930 . S
H607 C599 0.929 . S
H608 C616 0.929 . S
H609 C618 0.930 . S
H610 C620 0.930 1_554 S
H611 C623 0.929 . S
H612 C626 0.930 . S
H613 C628 0.960 . S
H614 C628 0.960 . S
H615 C628 0.960 . S
C616 H608 0.929 . S
C616 C617 1.377 . S
C616 C618 1.384 . S
C617 C616 1.377 . S
C617 C623 1.390 . S
C618 H609 0.930 . S
C618 C616 1.384 . S
C618 C619 1.372 . S
C619 C618 1.372 . S
C619 C620 1.400 . S
C619 C624 1.490 . S
C620 H610 0.930 1_556 S
C620 C619 1.400 . S
C620 C623 1.386 . S
H621 C637 0.930 . S
H622 C638 0.931 . S
C623 H611 0.929 . S
C623 C617 1.390 . S
C623 C620 1.386 . S
C624 C619 1.490 . S
C624 C626 1.395 . S
C624 C627 1.403 . S
H625 C631 0.930 1_554 S
C626 H612 0.930 . S
C626 C624 1.395 . S
C626 C629 1.403 . S
C627 C624 1.403 . S
C627 C628 1.524 . S
C627 C631 1.400 . S
C628 H613 0.960 . S
C628 H614 0.960 . S
C628 H615 0.960 . S
C628 C627 1.524 . S
C629 C626 1.403 . S
C629 C630 1.392 . S
C629 C633 1.495 . S
C630 C629 1.392 . S
C630 C631 1.385 . S
C630 C632 1.478 1_556 S
C631 H625 0.930 1_556 S
C631 C627 1.400 . S
C631 C630 1.385 . S
C632 C630 1.478 1_554 S
C632 C634 1.381 1_554 S
C632 C638 1.383 . S
C633 C629 1.495 . S
C633 H639 0.959 . S
C633 H640 0.961 1_556 S
C633 H641 0.960 . S
C634 C632 1.381 1_556 S
C634 C635 1.398 . S
C634 H642 0.930 . S
C635 C634 1.398 . S
C635 C636 1.373 1_556 S
C635 H643 0.936 . S
C636 C635 1.373 1_554 S
C636 C637 1.377 . S
C637 H621 0.930 . S
C637 C636 1.377 . S
C637 C638 1.379 . S
C638 H622 0.931 . S
C638 C632 1.383 . S
C638 C637 1.379 . S
H639 C633 0.959 . S
H640 C633 0.961 1_554 S
H641 C633 0.960 . S
H642 C634 0.930 . S
H643 C635 0.936 . S
H644 C652 0.929 . S
H645 C654 0.930 . S
H646 C656 0.930 1_554 S
H647 C659 0.929 . S
H648 C662 0.930 . S
H649 C664 0.960 . S
H650 C664 0.960 . S
H651 C664 0.960 . S
C652 H644 0.929 . S
C652 C653 1.377 . S
C652 C654 1.384 . S
C653 C652 1.377 . S
C653 C659 1.390 . S
C654 H645 0.930 . S
C654 C652 1.384 . S
C654 C655 1.372 . S
C655 C654 1.372 . S
C655 C656 1.400 . S
C655 C660 1.482 1_556 S
C656 H646 0.930 1_556 S
C656 C655 1.400 . S
C656 C659 1.386 . S
H657 C673 0.930 . S
H658 C674 0.931 . S
C659 H647 0.929 . S
C659 C653 1.390 . S
C659 C656 1.386 . S
C660 C655 1.482 1_554 S
C660 C662 1.411 . S
C660 C663 1.395 1_554 S
H661 C667 0.930 1_556 S
C662 H648 0.930 . S
C662 C660 1.411 . S
C662 C665 1.403 . S
C663 C660 1.395 1_556 S
C663 C664 1.524 . S
C663 C667 1.400 1_556 S
C664 H649 0.960 . S
C664 H650 0.960 . S
C664 H651 0.960 . S
C664 C663 1.524 . S
C665 C662 1.403 . S
C665 C666 1.392 . S
C665 C669 1.495 . S
C666 C665 1.392 . S
C666 C667 1.385 . S
C666 C668 1.478 . S
C667 H661 0.930 1_554 S
C667 C663 1.400 1_554 S
C667 C666 1.385 . S
C668 C666 1.478 . S
C668 C670 1.381 . S
C668 C674 1.383 . S
C669 C665 1.495 . S
C669 H675 0.959 . S
C669 H676 0.961 . S
C669 H677 0.960 . S
C670 C668 1.381 . S
C670 C671 1.394 . S
C670 H678 0.930 . S
C671 C670 1.394 . S
C671 C672 1.383 . S
C671 H679 0.929 . S
C672 C671 1.383 . S
C672 C673 1.377 . S
C673 H657 0.930 . S
C673 C672 1.377 . S
C673 C674 1.379 . S
C674 H658 0.931 . S
C674 C668 1.383 . S
C674 C673 1.379 . S
H675 C669 0.959 . S
H676 C669 0.961 . S
H677 C669 0.960 . S
H678 C670 0.930 . S
H679 C671 0.929 . S
H680 C688 0.929 1_556 S
H681 C690 0.930 . S
H682 C692 0.930 . S
H683 C695 0.929 . S
H684 C698 0.930 . S
H685 C700 0.960 . S
H686 C700 0.960 . S
H687 C700 0.960 . S
C688 H680 0.929 1_554 S
C688 C689 1.377 . S
C688 C690 1.384 1_554 S
C689 C688 1.377 . S
C689 C695 1.390 . S
C690 H681 0.930 . S
C690 C688 1.384 1_556 S
C690 C691 1.372 1_556 S
C691 C690 1.372 1_554 S
C691 C692 1.400 . S
C691 C696 1.490 1_554 S
C692 H682 0.930 . S
C692 C691 1.400 . S
C692 C695 1.386 . S
H693 C709 0.930 . S
H694 C710 0.931 1_554 S
C695 H683 0.929 . S
C695 C689 1.390 . S
C695 C692 1.386 . S
C696 C691 1.490 1_556 S
C696 C698 1.395 1_556 S
C696 C699 1.403 . S
H697 C703 0.930 . S
C698 H684 0.930 . S
C698 C696 1.395 1_554 S
C698 C701 1.403 1_554 S
C699 C696 1.403 . S
C699 C700 1.524 . S
C699 C703 1.400 . S
C700 H685 0.960 . S
C700 H686 0.960 . S
C700 H687 0.960 . S
C700 C699 1.524 . S
C701 C698 1.403 1_556 S
C701 C702 1.392 . S
C701 C705 1.495 . S
C702 C701 1.392 . S
C702 C703 1.385 . S
C702 C704 1.478 . S
C703 H697 0.930 . S
C703 C699 1.400 . S
C703 C702 1.385 . S
C704 C702 1.478 . S
C704 C706 1.381 . S
C704 C710 1.383 . S
C705 C701 1.495 . S
C705 H711 0.959 1_556 S
C705 H712 0.961 1_556 S
C705 H713 0.960 . S
C706 C704 1.381 . S
C706 C707 1.394 . S
C706 H714 0.930 . S
C707 C706 1.394 . S
C707 C708 1.383 . S
C707 H715 0.929 . S
C708 C707 1.383 . S
C708 C709 1.377 . S
C709 H693 0.930 . S
C709 C708 1.377 . S
C709 C710 1.379 . S
C710 H694 0.931 1_556 S
C710 C704 1.383 . S
C710 C709 1.379 . S
H711 C705 0.959 1_554 S
H712 C705 0.961 1_554 S
H713 C705 0.960 . S
H714 C706 0.930 . S
H715 C707 0.929 . S
H716 C724 0.929 . S
H717 C726 0.930 . S
H718 C728 0.930 . S
H719 C731 0.929 . S
H720 C734 0.930 . S
H721 C736 0.960 . S
H722 C736 0.960 . S
H723 C736 0.960 . S
C724 H716 0.929 . S
C724 C725 1.377 . S
C724 C726 1.384 . S
C725 C724 1.377 . S
C725 C731 1.390 . S
C726 H717 0.930 . S
C726 C724 1.384 . S
C726 C727 1.372 . S
C727 C726 1.372 . S
C727 C728 1.400 . S
C727 C732 1.490 1_556 S
C728 H718 0.930 . S
C728 C727 1.400 . S
C728 C731 1.386 . S
H729 C745 0.930 . S
H730 C746 0.931 . S
C731 H719 0.929 . S
C731 C725 1.390 . S
C731 C728 1.386 . S
C732 C727 1.490 1_554 S
C732 C734 1.395 . S
C732 C735 1.403 1_554 S
H733 C739 0.930 . S
C734 H720 0.930 . S
C734 C732 1.395 . S
C734 C737 1.403 . S
C735 C732 1.403 1_556 S
C735 C736 1.524 . S
C735 C739 1.400 . S
C736 H721 0.960 . S
C736 H722 0.960 . S
C736 H723 0.960 . S
C736 C735 1.524 . S
C737 C734 1.403 . S
C737 C738 1.392 . S
C737 C741 1.495 . S
C738 C737 1.392 . S
C738 C739 1.385 1_554 S
C738 C740 1.478 . S
C739 H733 0.930 . S
C739 C735 1.400 . S
C739 C738 1.385 1_556 S
C740 C738 1.478 . S
C740 C742 1.381 . S
C740 C746 1.383 . S
C741 C737 1.495 . S
C741 H747 0.959 . S
C741 H748 0.961 . S
C741 H749 0.960 . S
C742 C740 1.381 . S
C742 C743 1.394 . S
C742 H750 0.930 . S
C743 C742 1.394 . S
C743 C744 1.383 . S
C743 H751 0.929 . S
C744 C743 1.383 . S
C744 C745 1.377 . S
C745 H729 0.930 . S
C745 C744 1.377 . S
C745 C746 1.379 . S
C746 H730 0.931 . S
C746 C740 1.383 . S
C746 C745 1.379 . S
H747 C741 0.959 . S
H748 C741 0.961 . S
H749 C741 0.960 . S
H750 C742 0.930 . S
H751 C743 0.929 . S
H752 C760 0.929 . S
H753 C762 0.930 . S
H754 C764 0.930 . S
H755 C767 0.929 . S
H756 C770 0.930 . S
H757 C772 0.960 . S
H758 C772 0.960 . S
H759 C772 0.960 . S
C760 H752 0.929 . S
C760 C761 1.377 . S
C760 C762 1.384 . S
C761 C760 1.377 . S
C761 C767 1.390 . S
C762 H753 0.930 . S
C762 C760 1.384 . S
C762 C763 1.372 . S
C763 C762 1.372 . S
C763 C764 1.400 . S
C763 C768 1.490 . S
C764 H754 0.930 . S
C764 C763 1.400 . S
C764 C767 1.386 . S
H765 C781 0.930 . S
H766 C782 0.931 . S
C767 H755 0.929 . S
C767 C761 1.390 . S
C767 C764 1.386 . S
C768 C763 1.490 . S
C768 C770 1.395 . S
C768 C771 1.403 . S
H769 C775 0.930 . S
C770 H756 0.930 . S
C770 C768 1.395 . S
C770 C773 1.403 . S
C771 C768 1.403 . S
C771 C772 1.524 . S
C771 C775 1.400 . S
C772 H757 0.960 . S
C772 H758 0.960 . S
C772 H759 0.960 . S
C772 C771 1.524 . S
C773 C770 1.403 . S
C773 C774 1.392 . S
C773 C777 1.495 . S
C774 C773 1.392 . S
C774 C775 1.385 . S
C774 C776 1.478 . S
C775 H769 0.930 . S
C775 C771 1.400 . S
C775 C774 1.385 . S
C776 C774 1.478 . S
C776 C778 1.381 . S
C776 C782 1.383 . S
C777 C773 1.495 . S
C777 H783 0.959 . S
C777 H784 0.961 . S
C777 H785 0.960 . S
C778 C776 1.381 . S
C778 C779 1.394 . S
C778 H786 0.930 . S
C779 C778 1.394 . S
C779 C780 1.383 . S
C779 H787 0.929 . S
C780 C779 1.383 . S
C780 C781 1.377 . S
C781 H765 0.930 . S
C781 C780 1.377 . S
C781 C782 1.379 . S
C782 H766 0.931 . S
C782 C776 1.383 . S
C782 C781 1.379 . S
H783 C777 0.959 . S
H784 C777 0.961 . S
H785 C777 0.960 . S
H786 C778 0.930 . S
H787 C779 0.929 . S
H788 C796 0.929 . S
H789 C798 0.930 . S
H790 C800 0.930 . S
H791 C803 0.929 . S
H792 C806 0.930 . S
H793 C808 0.960 . S
H794 C808 0.960 . S
H795 C808 0.960 . S
C796 H788 0.929 . S
C796 C797 1.377 . S
C796 C798 1.384 . S
C797 C796 1.377 . S
C797 C803 1.390 . S
C798 H789 0.930 . S
C798 C796 1.384 . S
C798 C799 1.372 . S
C799 C798 1.372 . S
C799 C800 1.400 . S
C799 C804 1.490 . S
C800 H790 0.930 . S
C800 C799 1.400 . S
C800 C803 1.386 . S
H801 C817 0.930 . S
H802 C818 0.931 . S
C803 H791 0.929 . S
C803 C797 1.390 . S
C803 C800 1.386 . S
C804 C799 1.490 . S
C804 C806 1.395 . S
C804 C807 1.403 . S
H805 C811 0.930 . S
C806 H792 0.930 . S
C806 C804 1.395 . S
C806 C809 1.403 . S
C807 C804 1.403 . S
C807 C808 1.524 . S
C807 C811 1.400 . S
C808 H793 0.960 . S
C808 H794 0.960 . S
C808 H795 0.960 . S
C808 C807 1.524 . S
C809 C806 1.403 . S
C809 C810 1.392 . S
C809 C813 1.495 . S
C810 C809 1.392 . S
C810 C811 1.385 . S
C810 C812 1.478 . S
C811 H805 0.930 . S
C811 C807 1.400 . S
C811 C810 1.385 . S
C812 C810 1.478 . S
C812 C814 1.381 . S
C812 C818 1.383 . S
C813 C809 1.495 . S
C813 H819 0.959 . S
C813 H820 0.961 . S
C813 H821 0.960 . S
C814 C812 1.381 . S
C814 C815 1.394 . S
C814 H822 0.930 . S
C815 C814 1.394 . S
C815 C816 1.383 . S
C815 H823 0.929 . S
C816 C815 1.383 . S
C816 C817 1.377 . S
C817 H801 0.930 . S
C817 C816 1.377 . S
C817 C818 1.379 . S
C818 H802 0.931 . S
C818 C812 1.383 . S
C818 C817 1.379 . S
H819 C813 0.959 . S
H820 C813 0.961 . S
H821 C813 0.960 . S
H822 C814 0.930 . S
H823 C815 0.929 . S
H824 C832 0.929 . S
H825 C834 0.930 . S
H826 C836 0.930 . S
H827 C839 0.929 . S
H828 C842 0.930 . S
H829 C844 0.960 . S
H830 C844 0.960 . S
H831 C844 0.960 . S
C832 H824 0.929 . S
C832 C833 1.377 . S
C832 C834 1.384 . S
C833 C832 1.377 . S
C833 C839 1.390 . S
C834 H825 0.930 . S
C834 C832 1.384 . S
C834 C835 1.372 . S
C835 C834 1.372 . S
C835 C836 1.400 . S
C835 C840 1.490 . S
C836 H826 0.930 . S
C836 C835 1.400 . S
C836 C839 1.386 . S
H837 C853 0.930 . S
H838 C854 0.931 . S
C839 H827 0.929 . S
C839 C833 1.390 . S
C839 C836 1.386 . S
C840 C835 1.490 . S
C840 C842 1.395 . S
C840 C843 1.403 . S
H841 C847 0.930 . S
C842 H828 0.930 . S
C842 C840 1.395 . S
C842 C845 1.403 . S
C843 C840 1.403 . S
C843 C844 1.524 . S
C843 C847 1.400 . S
C844 H829 0.960 . S
C844 H830 0.960 . S
C844 H831 0.960 . S
C844 C843 1.524 . S
C845 C842 1.403 . S
C845 C846 1.392 . S
C845 C849 1.495 . S
C846 C845 1.392 . S
C846 C847 1.385 . S
C846 C848 1.478 . S
C847 H841 0.930 . S
C847 C843 1.400 . S
C847 C846 1.385 . S
C848 C846 1.478 . S
C848 C850 1.381 . S
C848 C854 1.383 . S
C849 C845 1.495 . S
C849 H855 0.959 . S
C849 H856 0.961 . S
C849 H857 0.960 . S
C850 C848 1.381 . S
C850 C851 1.394 . S
C850 H858 0.930 . S
C851 C850 1.394 . S
C851 C852 1.383 . S
C851 H859 0.929 . S
C852 C851 1.383 . S
C852 C853 1.377 . S
C853 H837 0.930 . S
C853 C852 1.377 . S
C853 C854 1.379 . S
C854 H838 0.931 . S
C854 C848 1.383 . S
C854 C853 1.379 . S
H855 C849 0.959 . S
H856 C849 0.961 . S
H857 C849 0.960 . S
H858 C850 0.930 . S
H859 C851 0.929 . S
H860 C868 0.929 . S
H861 C870 0.930 . S
H862 C872 0.930 . S
H863 C875 0.929 . S
H864 C878 0.930 . S
H865 C880 0.960 . S
H866 C880 0.960 . S
H867 C880 0.960 . S
C868 H860 0.929 . S
C868 C869 1.377 . S
C868 C870 1.384 . S
C869 C868 1.377 . S
C869 C875 1.390 . S
C870 H861 0.930 . S
C870 C868 1.384 . S
C870 C871 1.372 . S
C871 C870 1.372 . S
C871 C872 1.400 . S
C871 C876 1.490 . S
C872 H862 0.930 . S
C872 C871 1.400 . S
C872 C875 1.386 . S
H873 C889 0.930 . S
H874 C890 0.931 . S
C875 H863 0.929 . S
C875 C869 1.390 . S
C875 C872 1.386 . S
C876 C871 1.490 . S
C876 C878 1.395 . S
C876 C879 1.403 . S
H877 C883 0.930 . S
C878 H864 0.930 . S
C878 C876 1.395 . S
C878 C881 1.403 . S
C879 C876 1.403 . S
C879 C880 1.524 . S
C879 C883 1.400 . S
C880 H865 0.960 . S
C880 H866 0.960 . S
C880 H867 0.960 . S
C880 C879 1.524 . S
C881 C878 1.403 . S
C881 C882 1.392 . S
C881 C885 1.495 . S
C882 C881 1.392 . S
C882 C883 1.385 . S
C882 C884 1.478 . S
C883 H877 0.930 . S
C883 C879 1.400 . S
C883 C882 1.385 . S
C884 C882 1.478 . S
C884 C886 1.381 . S
C884 C890 1.383 . S
C885 C881 1.495 . S
C885 H891 0.959 . S
C885 H892 0.961 . S
C885 H893 0.960 . S
C886 C884 1.381 . S
C886 C887 1.394 . S
C886 H894 0.930 . S
C887 C886 1.394 . S
C887 C888 1.383 . S
C887 H895 0.929 . S
C888 C887 1.383 . S
C888 C889 1.377 . S
C889 H873 0.930 . S
C889 C888 1.377 . S
C889 C890 1.379 . S
C890 H874 0.931 . S
C890 C884 1.383 . S
C890 C889 1.379 . S
H891 C885 0.959 . S
H892 C885 0.961 . S
H893 C885 0.960 . S
H894 C886 0.930 . S
H895 C887 0.929 . S
H896 C904 0.929 . S
H897 C906 0.930 . S
H898 C908 0.930 . S
H899 C911 0.929 . S
H900 C914 0.930 . S
H901 C916 0.960 . S
H902 C916 0.960 1_545 S
H903 C916 0.960 1_545 S
C904 H896 0.929 . S
C904 C905 1.377 . S
C904 C906 1.384 . S
C905 C904 1.377 . S
C905 C911 1.390 . S
C906 H897 0.930 . S
C906 C904 1.384 . S
C906 C907 1.372 . S
C907 C906 1.372 . S
C907 C908 1.400 . S
C907 C912 1.490 . S
C908 H898 0.930 . S
C908 C907 1.400 . S
C908 C911 1.386 . S
H909 C925 0.930 . S
H910 C926 0.931 . S
C911 H899 0.929 . S
C911 C905 1.390 . S
C911 C908 1.386 . S
C912 C907 1.490 . S
C912 C914 1.395 . S
C912 C915 1.435 . S
H913 C919 0.930 . S
C914 H900 0.930 . S
C914 C912 1.395 . S
C914 C917 1.403 . S
C915 C912 1.435 . S
C915 C916 1.522 1_545 S
C915 C919 1.369 1_545 S
C916 H901 0.960 . S
C916 H902 0.960 1_565 S
C916 H903 0.960 1_565 S
C916 C915 1.522 1_565 S
C917 C914 1.403 . S
C917 C918 1.392 1_545 S
C917 C921 1.495 . S
C918 C917 1.392 1_565 S
C918 C919 1.385 . S
C918 C920 1.478 . S
C919 H913 0.930 . S
C919 C915 1.369 1_565 S
C919 C918 1.385 . S
C920 C918 1.478 . S
C920 C922 1.381 . S
C920 C926 1.383 . S
C921 C917 1.495 . S
C921 H927 0.959 . S
C921 H928 0.961 1_545 S
C921 H929 0.960 1_545 S
C922 C920 1.381 . S
C922 C923 1.394 . S
C922 H930 0.930 . S
C923 C922 1.394 . S
C923 C924 1.383 . S
C923 H931 0.929 . S
C924 C923 1.383 . S
C924 C925 1.377 . S
C925 H909 0.930 . S
C925 C924 1.377 . S
C925 C926 1.379 . S
C926 H910 0.931 . S
C926 C920 1.383 . S
C926 C925 1.379 . S
H927 C921 0.959 . S
H928 C921 0.961 1_565 S
H929 C921 0.960 1_565 S
H930 C922 0.930 . S
H931 C923 0.929 . S
H932 C940 0.929 . S
H933 C942 0.930 . S
H934 C944 0.930 . S
H935 C947 0.929 . S
H936 C950 0.930 . S
H937 C952 0.960 . S
H938 C952 0.960 . S
H939 C952 0.960 . S
C940 H932 0.929 . S
C940 C941 1.377 . S
C940 C942 1.384 . S
C941 C940 1.377 . S
C941 C947 1.390 . S
C942 H933 0.930 . S
C942 C940 1.384 . S
C942 C943 1.372 . S
C943 C942 1.372 . S
C943 C944 1.400 . S
C943 C948 1.490 . S
C944 H934 0.930 . S
C944 C943 1.400 . S
C944 C947 1.386 . S
H945 C961 0.930 . S
H946 C962 0.931 . S
C947 H935 0.929 . S
C947 C941 1.390 . S
C947 C944 1.386 . S
C948 C943 1.490 . S
C948 C950 1.395 1_655 S
C948 C951 1.403 . S
H949 C955 0.930 . S
C950 H936 0.930 . S
C950 C948 1.395 1_455 S
C950 C953 1.403 . S
C951 C948 1.403 . S
C951 C952 1.524 . S
C951 C955 1.400 1_655 S
C952 H937 0.960 . S
C952 H938 0.960 . S
C952 H939 0.960 . S
C952 C951 1.524 . S
C953 C950 1.403 . S
C953 C954 1.392 . S
C953 C957 1.495 . S
C954 C953 1.392 . S
C954 C955 1.385 . S
C954 C956 1.478 . S
C955 H949 0.930 . S
C955 C951 1.400 1_455 S
C955 C954 1.385 . S
C956 C954 1.478 . S
C956 C958 1.381 . S
C956 C962 1.383 . S
C957 C953 1.495 . S
C957 H963 0.959 . S
C957 H964 0.961 . S
C957 H965 0.960 . S
C958 C956 1.381 . S
C958 C959 1.394 . S
C958 H966 0.930 . S
C959 C958 1.394 . S
C959 C960 1.383 . S
C959 H967 0.929 . S
C960 C959 1.383 . S
C960 C961 1.377 . S
C961 H945 0.930 . S
C961 C960 1.377 . S
C961 C962 1.379 . S
C962 H946 0.931 . S
C962 C956 1.383 . S
C962 C961 1.379 . S
H963 C957 0.959 . S
H964 C957 0.961 . S
H965 C957 0.960 . S
H966 C958 0.930 . S
H967 C959 0.929 . S
H968 C976 0.929 . S
H969 C978 0.930 . S
H970 C980 0.930 . S
H971 C983 0.929 . S
H972 C986 0.930 . S
H973 C988 0.960 . S
H974 C988 0.952 1_565 S
H975 C988 0.960 1_565 S
C976 H968 0.929 . S
C976 C977 1.377 . S
C976 C978 1.384 . S
C977 C976 1.377 . S
C977 C983 1.390 . S
C978 H969 0.930 . S
C978 C976 1.384 . S
C978 C979 1.372 . S
C979 C978 1.372 . S
C979 C980 1.400 . S
C979 C984 1.490 . S
C980 H970 0.930 . S
C980 C979 1.400 . S
C980 C983 1.386 . S
H981 C997 0.930 . S
H982 C998 0.931 . S
C983 H971 0.929 . S
C983 C977 1.390 . S
C983 C980 1.386 . S
C984 C979 1.490 . S
C984 C986 1.395 . S
C984 C987 1.401 1_565 S
H985 C991 0.930 . S
C986 H972 0.930 . S
C986 C984 1.395 . S
C986 C989 1.403 . S
C987 C984 1.401 1_545 S
C987 C988 1.524 . S
C987 C991 1.402 . S
C988 H973 0.960 . S
C988 H974 0.952 1_545 S
C988 H975 0.960 1_545 S
C988 C987 1.524 . S
C989 C986 1.403 . S
C989 C990 1.392 1_565 S
C989 C993 1.495 . S
C990 C989 1.392 1_545 S
C990 C991 1.385 . S
C990 C992 1.478 . S
C991 H985 0.930 . S
C991 C987 1.402 . S
C991 C990 1.385 . S
C992 C990 1.478 . S
C992 C994 1.381 . S
C992 C998 1.383 . S
C993 C989 1.495 . S
C993 H999 0.959 . S
C993 H1000 0.961 1_565 S
C993 H1001 0.960 1_565 S
C994 C992 1.381 . S
C994 C995 1.394 . S
C994 H1002 0.930 . S
C995 C994 1.394 . S
C995 C996 1.383 . S
C995 H1003 0.929 . S
C996 C995 1.383 . S
C996 C997 1.377 . S
C997 H981 0.930 . S
C997 C996 1.377 . S
C997 C998 1.379 . S
C998 H982 0.931 . S
C998 C992 1.383 . S
C998 C997 1.379 . S
H999 C993 0.959 . S
H1000 C993 0.961 1_545 S
H1001 C993 0.960 1_545 S
H1002 C994 0.930 . S
H1003 C995 0.929 . S
H1004 C1012 0.929 . S
H1005 C1014 0.930 . S
H1006 C1016 0.930 . S
H1007 C1019 0.929 . S
H1008 C1022 0.930 . S
H1009 C1024 0.960 . S
H1010 C1024 0.960 . S
H1011 C1024 0.960 . S
C1012 H1004 0.929 . S
C1012 C1013 1.377 . S
C1012 C1014 1.384 . S
C1013 C1012 1.377 . S
C1013 C1019 1.390 . S
C1014 H1005 0.930 . S
C1014 C1012 1.384 . S
C1014 C1015 1.372 . S
C1015 C1014 1.372 . S
C1015 C1016 1.400 . S
C1015 C1020 1.490 . S
C1016 H1006 0.930 . S
C1016 C1015 1.400 . S
C1016 C1019 1.386 . S
H1017 C1033 0.930 . S
H1018 C1034 0.931 . S
C1019 H1007 0.929 . S
C1019 C1013 1.390 . S
C1019 C1016 1.386 . S
C1020 C1015 1.490 . S
C1020 C1022 1.395 . S
C1020 C1023 1.403 . S
H1021 C1027 0.930 . S
C1022 H1008 0.930 . S
C1022 C1020 1.395 . S
C1022 C1025 1.403 1_655 S
C1023 C1020 1.403 . S
C1023 C1024 1.524 . S
C1023 C1027 1.400 1_655 S
C1024 H1009 0.960 . S
C1024 H1010 0.960 . S
C1024 H1011 0.960 . S
C1024 C1023 1.524 . S
C1025 C1022 1.403 1_455 S
C1025 C1026 1.392 . S
C1025 C1029 1.495 . S
C1026 C1025 1.392 . S
C1026 C1027 1.385 . S
C1026 C1028 1.478 . S
C1027 H1021 0.930 . S
C1027 C1023 1.400 1_455 S
C1027 C1026 1.385 . S
C1028 C1026 1.478 . S
C1028 C1030 1.381 . S
C1028 C1034 1.383 . S
C1029 C1025 1.495 . S
C1029 H1035 0.959 . S
C1029 H1036 0.961 . S
C1029 H1037 0.960 . S
C1030 C1028 1.381 . S
C1030 C1031 1.394 . S
C1030 H1038 0.930 . S
C1031 C1030 1.394 . S
C1031 C1032 1.383 . S
C1031 H1039 0.929 . S
C1032 C1031 1.383 . S
C1032 C1033 1.377 . S
C1033 H1017 0.930 . S
C1033 C1032 1.377 . S
C1033 C1034 1.379 . S
C1034 H1018 0.931 . S
C1034 C1028 1.383 . S
C1034 C1033 1.379 . S
H1035 C1029 0.959 . S
H1036 C1029 0.961 . S
H1037 C1029 0.960 . S
H1038 C1030 0.930 . S
H1039 C1031 0.929 . S
C185 C128 1.153 . S
C204 C10 1.157 . S
C221 C30 1.191 . S
C240 C140 1.222 . S
C257 C172 1.164 . S
C276 C62 1.118 . S
C293 C76 1.190 . S
C312 C106 1.156 . S
C329 C96 1.086 . S
C348 C7 1.099 1_556 S
C365 C29 1.099 1_554 S
C384 C120 1.082 . S
C401 C65 1.091 1_556 S
C420 C142 1.098 . S
C437 C164 1.097 . S
C456 C87 1.084 1_554 S
C473 C8 1.098 . S
C492 C103 1.084 . S
C509 C131 1.090 . S
C528 C32 1.062 . S
C545 C54 1.096 . S
C564 C139 1.088 . S
C581 C84 1.086 . S
C600 C175 1.099 . S
C617 C37 1.061 . S
C636 C15 1.066 . S
C653 C43 1.047 . S
C672 C59 1.046 . S
C689 C51 1.063 . S
C708 C73 1.050 . S
C725 C81 1.047 . S
C744 C21 1.047 . S
C761 C95 1.054 . S
C780 C169 1.066 . S
C797 C109 1.066 . S
C816 C117 1.037 . S
C833 C153 1.049 . S
C852 C125 1.048 . S
C869 C161 1.055 . S
C888 C147 1.076 . S
C905 C18 1.391 . S
C924 C52 1.422 . S
C941 C74 1.390 . S
C960 C40 1.356 . S
C977 C150 1.401 . S
C996 C98 1.428 . S
C1013 C162 1.400 . S
C1032 C118 1.389 . S
