# Generated by pormake.
# Topology ukg, (4)-cn, num edge types: 1
# Building blocks:
#     Node 0, Type 0, BuildingBlock: ESEHIV_clean_sbu_0, # of connection points: 4
#     Node 1, Type 0, BuildingBlock: ESEHIV_clean_sbu_0, # of connection points: 4
#     Node 2, Type 0, BuildingBlock: ESEHIV_clean_sbu_0, # of connection points: 4
#     Node 3, Type 0, BuildingBlock: ESEHIV_clean_sbu_0, # of connection points: 4
#     Node 4, Type 0, BuildingBlock: ESEHIV_clean_sbu_0, # of connection points: 4
#     Node 5, Type 0, BuildingBlock: ESEHIV_clean_sbu_0, # of connection points: 4
#     Node 6, Type 0, BuildingBlock: ESEHIV_clean_sbu_0, # of connection points: 4
#     Node 7, Type 0, BuildingBlock: ESEHIV_clean_sbu_0, # of connection points: 4
#     Edge 8, Type (0, 0), BuildingBlock: XIVTED_clean_linker_0, # of connection points: 2
#     Edge 9, Type (0, 0), BuildingBlock: XIVTED_clean_linker_0, # of connection points: 2
#     Edge 10, Type (0, 0), BuildingBlock: XIVTED_clean_linker_0, # of connection points: 2
#     Edge 11, Type (0, 0), BuildingBlock: XIVTED_clean_linker_0, # of connection points: 2
#     Edge 12, Type (0, 0), BuildingBlock: XIVTED_clean_linker_0, # of connection points: 2
#     Edge 13, Type (0, 0), BuildingBlock: XIVTED_clean_linker_0, # of connection points: 2
#     Edge 14, Type (0, 0), BuildingBlock: XIVTED_clean_linker_0, # of connection points: 2
#     Edge 15, Type (0, 0), BuildingBlock: XIVTED_clean_linker_0, # of connection points: 2
#     Edge 16, Type (0, 0), BuildingBlock: XIVTED_clean_linker_0, # of connection points: 2
#     Edge 17, Type (0, 0), BuildingBlock: XIVTED_clean_linker_0, # of connection points: 2
#     Edge 18, Type (0, 0), BuildingBlock: XIVTED_clean_linker_0, # of connection points: 2
#     Edge 19, Type (0, 0), BuildingBlock: XIVTED_clean_linker_0, # of connection points: 2
#     Edge 20, Type (0, 0), BuildingBlock: XIVTED_clean_linker_0, # of connection points: 2
#     Edge 21, Type (0, 0), BuildingBlock: XIVTED_clean_linker_0, # of connection points: 2
#     Edge 22, Type (0, 0), BuildingBlock: XIVTED_clean_linker_0, # of connection points: 2
#     Edge 23, Type (0, 0), BuildingBlock: XIVTED_clean_linker_0, # of connection points: 2
# Relax obj value: 0.121
# Max RMSD: 0.193
# Mean RMSD: 0.176
data_MOF--net-ukg--node1-ESEHIV_clean_sbu_0--edge1-XIVTED_clean_linker_0
_symmetry_space_group_name_H-M    P1
_symmetry_Int_Tables_number       1
_symmetry_cell_setting            triclinic
loop_
_symmetry_equiv_pos_as_xyz
'x, y, z'
_cell_length_a     31.273072
_cell_length_b     31.302724
_cell_length_c     42.442822
_cell_angle_alpha  90.722438
_cell_angle_beta   89.217051
_cell_angle_gamma 89.729837
loop_
_atom_site_label
_atom_site_type_symbol
_atom_site_fract_x
_atom_site_fract_y
_atom_site_fract_z
_atom_type_partial_charge
Cu0 Cu 0.04 0.7113 0.16069 0.0
N1 N 1.00429 0.75728 0.17198 0.0
N2 N 0.95861 0.79581 0.20198 0.0
C3 C 0.98809 0.76413 0.20119 0.0
C4 C 0.95646 0.80958 0.172 0.0
C5 C 0.98456 0.78567 0.15354 0.0
O6 O 1.01615 0.66399 0.18499 0.0
C7 C 0.11378 0.76264 0.16217 0.0
O8 O 0.0876 0.78878 0.14794 0.0
H9 H 0.99619 0.74458 0.22112 0.0
H10 H 0.98909 0.78787 0.12832 0.0
N11 N 0.03653 0.69869 0.11728 0.0
N12 N 1.02943 0.66284 0.07152 0.0
C13 C 1.02746 0.66081 0.10338 0.0
C14 C 0.04453 0.72549 0.09337 0.0
C15 C 0.04021 0.70357 0.06523 0.0
C16 C 0.97651 0.65645 0.18068 0.0
O17 O 0.95676 0.67731 0.15843 0.0
H18 H 1.02045 0.63213 0.11641 0.0
H19 H 0.05312 0.7587 0.09613 0.0
O20 O 0.09961 0.72628 0.17077 0.0
H21 H 0.93563 0.83468 0.1638 0.0
H22 H 0.04435 0.71676 0.04195 0.0
Cu23 Cu 0.36019 0.56383 0.66666 0.0
N24 N 0.31278 0.53256 0.68073 0.0
N25 N 0.27338 0.49083 0.7121 0.0
C26 C 0.31078 0.51158 0.70825 0.0
C27 C 0.25079 0.49931 0.686 0.0
C28 C 0.27506 0.52529 0.66678 0.0
O29 O 0.40753 0.54133 0.6913 0.0
C30 C 0.31675 0.64147 0.68652 0.0
O31 O 0.29066 0.61553 0.7013 0.0
H32 H 0.3366 0.51105 0.72496 0.0
H33 H 0.26577 0.53812 0.64434 0.0
N34 N 0.37254 0.55209 0.62386 0.0
N35 N 0.40912 0.54796 0.57804 0.0
C36 C 0.40768 0.56453 0.60768 0.0
C37 C 0.351 0.52678 0.60377 0.0
C38 C 0.37338 0.52422 0.57557 0.0
C39 C 0.41706 0.50215 0.68585 0.0
O40 O 0.39756 0.4821 0.66282 0.0
H41 H 0.43246 0.58406 0.61795 0.0
H42 H 0.32171 0.51024 0.6094 0.0
O43 O 0.34937 0.62585 0.67186 0.0
H44 H 0.21877 0.4881 0.68136 0.0
H45 H 0.3641 0.506 0.55496 0.0
Cu46 Cu 0.4999 0.89283 0.16019 0.0
N47 N 0.52819 0.84326 0.17277 0.0
N48 N 0.56654 0.7999 0.20289 0.0
C49 C 0.55553 0.84063 0.19694 0.0
C50 C 0.54536 0.77583 0.18168 0.0
C51 C 0.5219 0.80275 0.16295 0.0
O52 O 0.52404 0.93899 0.18589 0.0
C53 C 0.42091 0.85785 0.18401 0.0
O54 O 0.44569 0.838 0.20389 0.0
H55 H 0.56519 0.86775 0.21117 0.0
H56 H 0.50029 0.7934 0.14444 0.0
N57 N 0.51253 0.90349 0.11768 0.0
N58 N 0.51788 0.93723 0.07156 0.0
C59 C 0.50085 0.93796 0.10106 0.0
C60 C 0.53768 0.88008 0.09805 0.0
C61 C 0.5411 0.90081 0.06963 0.0
C62 C 0.56327 0.94799 0.18054 0.0
O63 O 0.58312 0.92862 0.15687 0.0
H64 H 0.48134 0.96368 0.11079 0.0
H65 H 0.55314 0.85041 0.10418 0.0
O66 O 0.43759 0.88453 0.16494 0.0
H67 H 0.54595 0.74127 0.18038 0.0
H68 H 0.55926 0.88989 0.04916 0.0
Cu69 Cu 0.17306 1.02284 0.65872 0.0
N70 N 0.21758 0.06062 0.66729 0.0
N71 N 0.25488 0.10997 0.69388 0.0
C72 C 0.22527 0.07868 0.69562 0.0
C73 C 0.26634 0.11113 0.66303 0.0
C74 C 0.2432 0.08088 0.64675 0.0
O75 O 0.12473 0.04779 0.68205 0.0
C76 C 0.22648 0.95018 0.66346 0.0
O77 O 0.2534 0.97596 0.64932 0.0
H78 H 0.20833 0.06971 0.71685 0.0
H79 H 0.24365 0.07537 0.62155 0.0
N80 N 0.16073 1.0234 0.61555 0.0
N81 N 0.12586 1.03171 0.57018 0.0
C82 C 0.12441 0.03682 0.60193 0.0
C83 C 0.18603 1.0094 0.59166 0.0
C84 C 0.16469 1.01443 0.56373 0.0
C85 C 0.11825 0.04225 0.71136 0.0
O86 O 0.14054 1.01302 0.72594 0.0
H87 H 0.09717 0.04925 0.61517 0.0
H88 H 0.21781 0.99635 0.59433 0.0
O89 O 0.18917 0.96431 0.67077 0.0
H90 H 0.28854 0.13332 0.65248 0.0
H91 H 0.17705 1.00628 0.54047 0.0
Cu92 Cu 1.01869 0.33004 0.90341 0.0
N93 N 0.98065 0.30313 0.93123 0.0
N94 N 0.91519 0.2884 0.94991 0.0
C95 C 0.9384 0.30692 0.9269 0.0
C96 C 0.94427 0.27224 0.96985 0.0
C97 C 0.98487 0.28126 0.95815 0.0
O98 O 1.00781 0.3916 0.90948 0.0
C99 C 1.01214 0.26208 0.86355 0.0
O100 O 1.01843 0.24489 0.89119 0.0
H101 H 0.92507 0.32455 0.90756 0.0
H102 H 1.01506 0.2734 0.96884 0.0
N103 N 0.07738 0.3227 0.90914 0.0
N104 N 0.14317 0.33508 0.88975 0.0
C105 C 0.10303 0.32242 0.88343 0.0
C106 C 0.10247 0.33509 0.93307 0.0
C107 C 0.14315 0.34272 0.92115 0.0
C108 C 1.00642 0.40281 0.93858 0.0
O109 O 1.01233 0.37367 0.96005 0.0
H110 H 0.09075 0.31948 0.8598 0.0
H111 H 0.09111 0.34301 0.9566 0.0
O112 O 1.00914 0.30279 0.86209 0.0
H113 H 0.93683 0.25534 0.99131 0.0
H114 H 0.16935 0.35664 0.93407 0.0
Cu115 Cu 0.73442 0.55728 0.39828 0.0
N116 N 0.76191 0.52393 0.42814 0.0
N117 N 0.77515 0.46387 0.45424 0.0
C118 C 0.75019 0.48331 0.43311 0.0
C119 C 0.80397 0.49357 0.46306 0.0
C120 C 0.79541 0.53095 0.44709 0.0
O121 O 0.67349 0.55079 0.40874 0.0
C122 C 0.79585 0.5358 0.35285 0.0
O123 O 0.81854 0.53218 0.37846 0.0
H124 H 0.72467 0.46782 0.42039 0.0
H125 H 0.813 0.56056 0.44851 0.0
N126 N 0.74447 0.61589 0.40003 0.0
N127 N 0.73076 0.67932 0.37834 0.0
C128 C 0.71446 0.64217 0.38872 0.0
C129 C 0.78152 0.63728 0.39728 0.0
C130 C 0.77311 0.67661 0.38403 0.0
C131 C 0.66465 0.56762 0.43567 0.0
O132 O 0.69571 0.58587 0.45137 0.0
H133 H 0.68246 0.63129 0.38366 0.0
H134 H 0.8128 0.62337 0.40077 0.0
O135 O 0.75553 0.54203 0.35579 0.0
H136 H 0.82956 0.48852 0.47954 0.0
H137 H 0.79688 0.69943 0.37646 0.0
Cu138 Cu 0.5039 0.26078 0.89989 0.0
N139 N 0.53531 0.28746 0.93165 0.0
N140 N 0.59734 0.30381 0.95446 0.0
C141 C 0.57742 0.29388 0.92742 0.0
C142 C 0.56633 0.30364 0.97692 0.0
C143 C 0.52791 0.29354 0.96273 0.0
O144 O 0.50983 0.19933 0.90752 0.0
C145 C 0.52375 0.32426 0.85906 0.0
O146 O 0.51482 0.34525 0.88535 0.0
H147 H 0.59371 0.28766 0.90515 0.0
H148 H 0.49758 0.28818 0.97454 0.0
N149 N 0.44545 0.27291 0.89717 0.0
N150 N 0.38387 0.26868 0.87116 0.0
C151 C 0.42671 0.26569 0.86936 0.0
C152 C 0.41316 0.28161 0.91767 0.0
C153 C 0.37484 0.27844 0.90162 0.0
C154 C 0.48817 0.18708 0.93146 0.0
O155 O 0.46475 0.21539 0.94695 0.0
H156 H 0.44429 0.25506 0.84853 0.0
H157 H 0.41689 0.28722 0.94267 0.0
O158 O 0.52469 0.28343 0.8597 0.0
H159 H 0.57131 0.30859 1.00189 0.0
H160 H 0.34299 0.28143 0.91175 0.0
Cu161 Cu 0.8007 0.05199 0.39949 0.0
N162 N 0.77146 0.08801 0.42815 0.0
N163 N 0.75733 0.14988 0.45308 0.0
C164 C 0.78168 0.12949 0.43117 0.0
C165 C 0.73026 0.12002 0.46428 0.0
C166 C 0.73937 0.08157 0.44902 0.0
O167 O 0.86176 0.06126 0.40755 0.0
C168 C 0.73761 0.06272 0.35616 0.0
O169 O 0.71581 0.05826 0.38255 0.0
H170 H 0.80638 0.14454 0.41712 0.0
H171 H 0.72368 0.05129 0.45273 0.0
N172 N 0.79228 0.99332 0.4036 0.0
N173 N 0.8043 0.92766 0.38367 0.0
C174 C 0.79345 0.96839 0.37755 0.0
C175 C 0.80186 0.96719 0.42748 0.0
C176 C 0.80933 0.92658 0.41521 0.0
C177 C 0.87075 0.06141 0.43686 0.0
O178 O 0.83988 0.05544 0.45758 0.0
H179 H 0.79269 0.98128 0.35402 0.0
H180 H 0.80792 0.97763 0.45136 0.0
O181 O 0.77844 0.06383 0.35742 0.0
H182 H 0.706 0.12549 0.48234 0.0
H183 H 0.82133 0.89951 0.42809 0.0
H184 H 0.95075 0.42814 0.98387 0.0
H185 H 0.06327 0.65422 1.01223 0.0
H186 H 0.04774 0.47674 0.92105 0.0
H187 H 0.97849 0.59349 0.07879 0.0
H188 H 0.05101 0.59555 0.97469 0.0
H189 H 0.95176 0.49516 1.0137 0.0
C190 C 0.97145 0.45358 0.97585 0.0
C191 C 0.99899 0.44707 0.94987 0.0
C192 C 0.03493 0.59522 0.99744 0.0
C193 C 1.00164 0.52361 0.98473 0.0
C194 C 0.0418 0.62878 1.0189 0.0
C195 C 1.02205 0.62878 0.0489 0.0
C196 C 1.00784 0.56147 1.00587 0.0
C197 C 0.99493 0.59463 0.05623 0.0
C198 C 0.97239 0.49171 0.99311 0.0
C199 C 1.02558 0.4808 0.94069 0.0
N200 N 0.98869 0.56248 0.03494 0.0
N201 N 1.02671 0.51752 0.95841 0.0
H202 H 0.46495 0.61375 0.57283 0.0
H203 H 0.59912 0.50884 0.42845 0.0
H204 H 0.43026 0.49383 0.52921 0.0
H205 H 0.63244 0.62517 0.4776 0.0
H206 H 0.53299 0.50535 0.46076 0.0
H207 H 0.52304 0.62064 0.53447 0.0
C208 C 0.46956 0.58876 0.55526 0.0
C209 C 0.4427 0.553 0.55457 0.0
C210 C 0.55466 0.53183 0.46415 0.0
C211 C 0.50945 0.56081 0.51 0.0
C212 C 0.59217 0.53397 0.44557 0.0
C213 C 0.62145 0.56714 0.45053 0.0
C214 C 0.54652 0.56325 0.4876 0.0
C215 C 0.61106 0.59871 0.47319 0.0
C216 C 0.50269 0.59281 0.53313 0.0
C217 C 0.44991 0.52209 0.53064 0.0
N218 N 0.57478 0.59584 0.49089 0.0
N219 N 0.48272 0.52655 0.50946 0.0
H220 H 0.5744 0.95704 1.02454 0.0
H221 H 0.42533 0.14593 0.96259 0.0
H222 H 0.45046 0.99055 0.06348 0.0
H223 H 0.55595 0.12959 0.93072 0.0
H224 H 0.43134 0.08127 0.99333 0.0
H225 H 0.56607 1.01298 0.98503 0.0
C226 C 0.54529 0.97587 1.02465 0.0
C227 C 0.51314 0.9692 0.04755 0.0
C228 C 0.4587 0.09136 0.97944 0.0
C229 C 0.50345 0.03319 1.00235 0.0
C230 C 0.45521 0.12824 0.96169 0.0
C231 C 0.4903 0.14333 0.94423 0.0
C232 C 0.49778 0.06924 0.98015 0.0
C233 C 0.52809 0.11894 0.94378 0.0
C234 C 0.54067 1.0079 1.00214 0.0
C235 C 0.47634 0.9949 0.04668 0.0
N236 N 0.53106 0.08327 0.96188 0.0
N237 N 0.47256 1.02563 1.02454 0.0
H238 H 0.9464 1.024 0.41617 0.0
H239 H 0.06174 0.09012 0.57725 0.0
H240 H 0.89319 0.10977 0.48673 0.0
H241 H 0.11399 0.99633 0.51186 0.0
H242 H 1.00435 0.10433 0.54049 0.0
H243 H 1.01333 1.02126 0.4462 0.0
C244 C 0.94933 0.04325 0.43741 0.0
C245 C 0.91439 0.06715 0.44906 0.0
C246 C 1.02846 0.08075 0.53404 0.0
C247 C 0.98996 0.06355 0.48374 0.0
C248 C 0.06117 0.0724 0.55521 0.0
C249 C 0.09268 0.04164 0.54793 0.0
C250 C 1.02685 0.05809 0.50525 0.0
C251 C 0.0906 1.02044 0.51852 0.0
C252 C 0.98725 0.04131 0.45475 0.0
C253 C 0.91942 0.09084 0.47702 0.0
N254 N 0.0581 1.0288 0.4984 0.0
N255 N 0.95621 0.08819 0.49347 0.0
H256 H 0.17811 0.72168 0.19477 0.0
H257 H 0.35782 0.89355 0.14773 0.0
H258 H 0.15321 0.8342 0.14013 0.0
H259 H 0.37862 0.79434 0.21558 0.0
H260 H 0.28335 0.87048 0.14325 0.0
H261 H 0.25237 0.74557 0.20118 0.0
C262 C 0.18814 0.75133 0.18414 0.0
C263 C 0.15912 0.77588 0.16691 0.0
C264 C 0.30416 0.85384 0.15923 0.0
C265 C 0.24424 0.80338 0.174 0.0
C266 C 0.34676 0.86708 0.16182 0.0
C267 C 0.37476 0.84602 0.18212 0.0
C268 C 0.28926 0.81895 0.17684 0.0
C269 C 0.35836 0.81174 0.19968 0.0
C270 C 0.23055 0.76503 0.18785 0.0
C271 C 0.17416 0.81411 0.15369 0.0
N272 N 0.31693 0.79921 0.19653 0.0
N273 N 0.21545 0.8265 0.15741 0.0
H274 H 0.36149 0.70634 0.65752 0.0
H275 H 0.18111 0.88567 0.69274 0.0
H276 H 0.24658 0.68286 0.71189 0.0
H277 H 0.30215 0.91125 0.64691 0.0
H278 H 0.20402 0.81125 0.69987 0.0
H279 H 0.34012 0.78151 0.65334 0.0
C280 C 0.33192 0.71694 0.66874 0.0
C281 C 0.3059 0.68796 0.68508 0.0
C282 C 0.2256 0.83323 0.68834 0.0
C283 C 0.2809 0.77427 0.68016 0.0
C284 C 0.21249 0.87578 0.68426 0.0
C285 C 0.23962 0.905 0.66917 0.0
C286 C 0.26609 0.8196 0.67712 0.0
C287 C 0.27999 0.8901 0.65869 0.0
C288 C 0.31966 0.75994 0.66631 0.0
C289 C 0.2678 0.70382 0.69905 0.0
N290 N 0.29185 0.84865 0.66275 0.0
N291 N 0.25644 0.74565 0.69616 0.0
H292 H 0.64546 0.28131 1.00506 0.0
H293 H 0.85956 0.29233 0.90185 0.0
H294 H 0.65401 0.33283 0.91144 0.0
H295 H 0.86488 0.28385 1.00311 0.0
H296 H 0.78247 0.29941 0.90551 0.0
H297 H 0.72416 0.27728 1.00617 0.0
C298 C 0.66381 0.29238 0.98499 0.0
C299 C 0.64309 0.30688 0.9579 0.0
C300 C 0.80033 0.29619 0.92704 0.0
C301 C 0.7326 0.3015 0.95879 0.0
C302 C 0.84456 0.2922 0.92497 0.0
C303 C 0.86904 0.28832 0.95225 0.0
C304 C 0.77979 0.29593 0.95663 0.0
C305 C 0.84731 0.28683 0.98147 0.0
C306 C 0.70864 0.28979 0.98556 0.0
C307 C 0.66849 0.32055 0.93251 0.0
N308 N 0.80381 0.29075 0.98294 0.0
N309 N 0.71167 0.31712 0.93347 0.0
H310 H 0.84138 0.41071 0.46715 0.0
H311 H 0.69172 0.20314 0.46956 0.0
H312 H 0.70412 0.4154 0.45979 0.0
H313 H 0.82835 0.19875 0.45504 0.0
H314 H 0.69597 0.28095 0.47695 0.0
H315 H 0.83733 0.33307 0.47379 0.0
C316 C 0.81038 0.39549 0.46751 0.0
C317 C 0.77309 0.41939 0.46254 0.0
C318 C 0.72507 0.26286 0.47244 0.0
C319 C 0.76813 0.33073 0.46989 0.0
C320 C 0.72264 0.21849 0.46843 0.0
C321 C 0.75964 0.19463 0.46126 0.0
C322 C 0.76485 0.28337 0.46956 0.0
C323 C 0.79895 0.21611 0.4599 0.0
C324 C 0.80806 0.35118 0.47106 0.0
C325 C 0.73369 0.39801 0.46299 0.0
N326 N 0.8005 0.25922 0.46382 0.0
N327 N 0.73225 0.35492 0.46637 0.0
H328 H 0.76648 0.57058 0.29752 0.0
H329 H 1.00359 0.61073 0.23205 0.0
H330 H 0.87935 0.51722 0.33953 0.0
H331 H 0.89044 0.6419 0.1798 0.0
H332 H 0.95849 0.57356 0.27056 0.0
H333 H 0.81059 0.59349 0.25257 0.0
C334 C 0.80027 0.56282 0.297 0.0
C335 C 0.81918 0.54217 0.3225 0.0
C336 C 0.94359 0.58817 0.25047 0.0
C337 C 0.8701 0.56914 0.27149 0.0
C338 C 0.96941 0.60939 0.22846 0.0
C339 C 0.95091 0.62973 0.20267 0.0
C340 C 0.89887 0.58762 0.24689 0.0
C341 C 0.90627 0.6269 0.19933 0.0
C342 C 0.82556 0.57618 0.27143 0.0
C343 C 0.86333 0.53339 0.32059 0.0
N344 N 0.88184 0.60672 0.22128 0.0
N345 N 0.88726 0.54734 0.29584 0.0
H346 H 0.43981 0.41804 0.68023 0.0
H347 H 0.54149 0.40832 0.85168 0.0
H348 H 0.45531 0.52819 0.74114 0.0
H349 H 0.50278 0.29646 0.79922 0.0
H350 H 0.52422 0.45256 0.80666 0.0
H351 H 0.47575 0.37403 0.71889 0.0
C352 C 0.45122 0.43321 0.70158 0.0
C353 C 0.44407 0.47701 0.70751 0.0
C354 C 0.52008 0.4183 0.80473 0.0
C355 C 0.48546 0.42633 0.75203 0.0
C356 C 0.53019 0.3929 0.83038 0.0
C357 C 0.52331 0.34858 0.82931 0.0
C358 C 0.50276 0.39941 0.77767 0.0
C359 C 0.50877 0.33043 0.80104 0.0
C360 C 0.47172 0.40788 0.72368 0.0
C361 C 0.45991 0.49463 0.73556 0.0
N362 N 0.49843 0.35601 0.77647 0.0
N363 N 0.47956 0.46918 0.75686 0.0
H364 H 0.64855 0.96645 0.177 0.0
H365 H 0.65351 0.07915 0.34699 0.0
H366 H 0.5364 0.98899 0.23537 0.0
H367 H 0.76713 0.03525 0.29751 0.0
H368 H 0.61073 0.05847 0.30179 0.0
H369 H 0.69201 1.00255 0.21643 0.0
C370 C 0.63286 0.9794 0.19796 0.0
C371 C 0.58859 0.97431 0.2029 0.0
C372 C 0.64505 0.0538 0.30056 0.0
C373 C 0.63862 1.0159 0.24831 0.0
C374 C 0.66963 0.06581 0.32633 0.0
C375 C 0.71403 0.05867 0.32616 0.0
C376 C 0.66481 0.03427 0.27422 0.0
C377 C 0.73307 0.0415 0.29864 0.0
C378 C 0.65787 0.99996 0.22051 0.0
C379 C 0.57032 0.99196 0.23053 0.0
N380 N 0.70827 1.02941 0.27389 0.0
N381 N 0.59543 1.01173 0.25224 0.0
H382 H 0.04126 0.27907 0.80294 0.0
H383 H 0.08178 1.0319 0.7696 0.0
H384 H 0.99032 0.17881 0.86099 0.0
H385 H 0.09673 0.12459 0.69598 0.0
H386 H 0.04703 0.08648 0.80278 0.0
H387 H 0.05966 0.225 0.76208 0.0
C388 C 0.03286 0.24598 0.80671 0.0
C389 C 1.01451 0.23337 0.83548 0.0
C390 C 0.05736 0.09488 0.77922 0.0
C391 C 0.03627 0.17151 0.78945 0.0
C392 C 0.07725 0.06363 0.76027 0.0
C393 C 0.09212 0.07358 0.72995 0.0
C394 C 0.05304 0.13686 0.76815 0.0
C395 C 0.08546 0.11541 0.71914 0.0
C396 C 0.04366 0.21509 0.78354 0.0
C397 C 1.00488 0.18994 0.83932 0.0
N398 N 0.06698 0.14569 0.73838 0.0
N399 N 1.01635 0.16068 0.81688 0.0
H400 H 0.15612 0.30253 0.83103 0.0
H401 H 0.29629 0.5009 0.77327 0.0
H402 H 0.19747 0.40294 0.89391 0.0
H403 H 0.2212 0.42183 0.71143 0.0
H404 H 0.2726 0.45775 0.818 0.0
H405 H 0.19357 0.33746 0.78755 0.0
C406 C 0.17367 0.33158 0.83579 0.0
C407 C 0.17303 0.35012 0.86612 0.0
C408 C 0.26151 0.44975 0.79461 0.0
C409 C 0.21594 0.39044 0.81634 0.0
C410 C 0.27512 0.47425 0.76905 0.0
C411 C 0.26047 0.46513 0.73856 0.0
C412 C 0.23347 0.41549 0.78961 0.0
C413 C 0.23277 0.43039 0.73455 0.0
C414 C 0.19489 0.35159 0.81093 0.0
C415 C 0.19701 0.38744 0.87101 0.0
N416 N 0.22021 0.40687 0.75974 0.0
N417 N 0.21708 0.40665 0.8463 0.0
H418 H 0.76531 0.72787 0.33115 0.0
H419 H 0.5487 0.73342 0.24062 0.0
H420 H 0.64561 0.69512 0.37641 0.0
H421 H 0.64002 0.8338 0.22492 0.0
H422 H 0.5894 0.71076 0.28652 0.0
H423 H 0.72522 0.76235 0.28907 0.0
C424 C 0.73076 0.72857 0.33269 0.0
C425 C 0.70884 0.70759 0.35715 0.0
C426 C 0.60051 0.73778 0.27303 0.0
C427 C 0.66313 0.74572 0.30857 0.0
C428 C 0.57758 0.75037 0.24674 0.0
C429 C 0.59122 0.78533 0.22904 0.0
C430 C 0.63792 0.75967 0.28125 0.0
C431 C 0.62857 0.80671 0.23815 0.0
C432 C 0.70795 0.74802 0.30851 0.0
C433 C 0.66391 0.70965 0.35762 0.0
N434 N 0.65102 0.79325 0.26349 0.0
N435 N 0.64259 0.72745 0.33339 0.0
H436 H 0.31044 0.22261 0.87593 0.0
H437 H 0.32181 0.16574 0.69252 0.0
H438 H 0.3942 0.28425 0.80932 0.0
H439 H 0.22138 0.11888 0.7538 0.0
H440 H 0.34604 0.21149 0.73506 0.0
H441 H 0.27337 0.18794 0.83177 0.0
C442 C 0.32025 0.22969 0.852 0.0
C443 C 0.3557 0.2559 0.8462 0.0
C444 C 0.31851 0.19136 0.73918 0.0
C445 C 0.31439 0.21578 0.79578 0.0
C446 C 0.30449 0.16502 0.7147 0.0
C447 C 0.26937 0.13778 0.71915 0.0
C448 C 0.29774 0.19048 0.76871 0.0
C449 C 0.24891 0.13855 0.74899 0.0
C450 C 0.29942 0.20961 0.82683 0.0
C451 C 0.36743 0.26371 0.81477 0.0
N452 N 0.26357 0.16417 0.77261 0.0
N453 N 0.34726 0.24335 0.79084 0.0
H454 H 0.87985 0.83314 0.20149 0.0
H455 H 0.87205 0.8731 0.38806 0.0
H456 H 0.97825 0.7901 0.26409 0.0
H457 H 0.77404 0.91521 0.32495 0.0
H458 H 0.9071 0.83478 0.34412 0.0
H459 H 0.83766 0.85763 0.24706 0.0
C460 C 0.89274 0.82897 0.22477 0.0
C461 C 0.93296 0.80982 0.22881 0.0
C462 C 0.87758 0.85189 0.33995 0.0
C463 C 0.88436 0.83745 0.28139 0.0
C464 C 0.85729 0.8734 0.36515 0.0
C465 C 0.82021 0.89771 0.36011 0.0
C466 C 0.86074 0.85479 0.30949 0.0
C467 C 0.80287 0.89732 0.32976 0.0
C468 C 0.86841 0.84265 0.25088 0.0
C469 C 0.9474 0.80446 0.25975 0.0
N470 N 0.82349 0.8767 0.30558 0.0
N471 N 0.92329 0.81844 0.28479 0.0
loop_
_geom_bond_atom_site_label_1
_geom_bond_atom_site_label_2
_geom_bond_distance
_geom_bond_site_symmetry_2
_ccdc_geom_bond_type
Cu0 N1 1.999 . S
Cu0 O6 1.974 . S
Cu0 N11 1.983 1_655 S
Cu0 O20 1.959 1_655 S
N1 Cu0 1.999 . S
N1 C3 1.263 . S
N1 C5 1.389 . S
N2 C3 1.358 . S
N2 C4 1.400 . S
C3 N1 1.263 . S
C3 N2 1.358 . S
C3 H9 0.930 . S
C4 N2 1.400 . S
C4 C5 1.351 . S
C4 H21 0.930 . S
C5 N1 1.389 . S
C5 C4 1.351 . S
C5 H10 0.930 1_655 S
O6 Cu0 1.974 . S
O6 C16 1.282 . S
C7 O8 1.261 . S
C7 O20 1.251 . S
O8 C7 1.261 . S
H9 C3 0.930 . S
H10 C5 0.930 1_455 S
N11 Cu0 1.983 1_455 S
N11 C13 1.342 . S
N11 C14 1.385 1_455 S
N12 C13 1.345 . S
N12 C15 1.334 1_455 S
C13 N11 1.342 . S
C13 N12 1.345 . S
C13 H18 0.930 . S
C14 N11 1.385 1_655 S
C14 C15 1.348 . S
C14 H19 0.930 . S
C15 N12 1.334 1_655 S
C15 C14 1.348 . S
C15 H22 0.930 . S
C16 O6 1.282 . S
C16 O17 1.216 . S
O17 C16 1.216 . S
H18 C13 0.930 . S
H19 C14 0.930 . S
O20 Cu0 1.959 1_455 S
O20 C7 1.251 . S
H21 C4 0.930 . S
H22 C15 0.930 . S
Cu23 N24 1.999 . S
Cu23 O29 1.974 . S
Cu23 N34 1.985 . S
Cu23 O43 1.959 . S
N24 Cu23 1.999 . S
N24 C26 1.263 . S
N24 C28 1.389 . S
N25 C26 1.358 . S
N25 C27 1.400 . S
C26 N24 1.263 . S
C26 N25 1.358 . S
C26 H32 0.930 . S
C27 N25 1.400 . S
C27 C28 1.351 . S
C27 H44 0.930 . S
C28 N24 1.389 . S
C28 C27 1.351 . S
C28 H33 0.930 . S
O29 Cu23 1.974 . S
O29 C39 1.282 . S
C30 O31 1.261 . S
C30 O43 1.251 . S
O31 C30 1.261 . S
H32 C26 0.930 . S
H33 C28 0.930 . S
N34 Cu23 1.985 . S
N34 C36 1.335 . S
N34 C37 1.390 . S
N35 C36 1.345 . S
N35 C38 1.336 . S
C36 N34 1.335 . S
C36 N35 1.345 . S
C36 H41 0.930 . S
C37 N34 1.390 . S
C37 C38 1.346 . S
C37 H42 0.930 . S
C38 N35 1.336 . S
C38 C37 1.346 . S
C38 H45 0.929 . S
C39 O29 1.282 . S
C39 O40 1.216 . S
O40 C39 1.216 . S
H41 C36 0.930 . S
H42 C37 0.930 . S
O43 Cu23 1.959 . S
O43 C30 1.251 . S
H44 C27 0.930 . S
H45 C38 0.929 . S
Cu46 N47 1.999 . S
Cu46 O52 1.974 . S
Cu46 N57 1.985 . S
Cu46 O66 1.959 . S
N47 Cu46 1.999 . S
N47 C49 1.263 . S
N47 C51 1.389 . S
N48 C49 1.358 . S
N48 C50 1.400 . S
C49 N47 1.263 . S
C49 N48 1.358 . S
C49 H55 0.930 . S
C50 N48 1.400 . S
C50 C51 1.351 . S
C50 H67 0.930 . S
C51 N47 1.389 . S
C51 C50 1.351 . S
C51 H56 0.930 . S
O52 Cu46 1.974 . S
O52 C62 1.282 . S
C53 O54 1.261 . S
C53 O66 1.251 . S
O54 C53 1.261 . S
H55 C49 0.930 . S
H56 C51 0.930 . S
N57 Cu46 1.985 . S
N57 C59 1.335 . S
N57 C60 1.390 . S
N58 C59 1.345 . S
N58 C61 1.336 . S
C59 N57 1.335 . S
C59 N58 1.345 . S
C59 H64 0.930 . S
C60 N57 1.390 . S
C60 C61 1.346 . S
C60 H65 0.930 . S
C61 N58 1.336 . S
C61 C60 1.346 . S
C61 H68 0.929 . S
C62 O52 1.282 . S
C62 O63 1.216 . S
O63 C62 1.216 . S
H64 C59 0.930 . S
H65 C60 0.930 . S
O66 Cu46 1.959 . S
O66 C53 1.251 . S
H67 C50 0.930 . S
H68 C61 0.929 . S
Cu69 N70 1.999 . S
Cu69 O75 1.974 . S
Cu69 N80 1.982 1_545 S
Cu69 O89 1.959 1_545 S
N70 Cu69 1.999 . S
N70 C72 1.263 . S
N70 C74 1.389 . S
N71 C72 1.358 . S
N71 C73 1.400 . S
C72 N70 1.263 . S
C72 N71 1.358 . S
C72 H78 0.930 . S
C73 N71 1.400 . S
C73 C74 1.351 . S
C73 H90 0.930 . S
C74 N70 1.389 . S
C74 C73 1.351 . S
C74 H79 0.930 1_545 S
O75 Cu69 1.974 . S
O75 C85 1.282 . S
C76 O77 1.261 . S
C76 O89 1.251 . S
O77 C76 1.261 . S
H78 C72 0.930 . S
H79 C74 0.930 1_565 S
N80 Cu69 1.982 1_565 S
N80 C82 1.344 . S
N80 C83 1.384 1_565 S
N81 C82 1.345 . S
N81 C84 1.338 1_565 S
C82 N80 1.344 . S
C82 N81 1.345 . S
C82 H87 0.930 . S
C83 N80 1.384 1_545 S
C83 C84 1.346 . S
C83 H88 0.930 . S
C84 N81 1.338 1_545 S
C84 C83 1.346 . S
C84 H91 0.945 . S
C85 O75 1.282 . S
C85 O86 1.216 . S
O86 C85 1.216 . S
H87 C82 0.930 . S
H88 C83 0.930 . S
O89 Cu69 1.959 1_565 S
O89 C76 1.251 . S
H90 C73 0.930 . S
H91 C84 0.945 . S
Cu92 N93 1.999 . S
Cu92 O98 1.974 . S
Cu92 N103 1.985 1_655 S
Cu92 O112 1.959 1_655 S
N93 Cu92 1.999 . S
N93 C95 1.263 . S
N93 C97 1.389 . S
N94 C95 1.358 . S
N94 C96 1.400 . S
C95 N93 1.263 . S
C95 N94 1.358 . S
C95 H101 0.930 . S
C96 N94 1.400 . S
C96 C97 1.351 . S
C96 H113 0.930 . S
C97 N93 1.389 . S
C97 C96 1.351 . S
C97 H102 0.930 . S
O98 Cu92 1.974 . S
O98 C108 1.282 . S
C99 O100 1.261 . S
C99 O112 1.251 . S
O100 C99 1.261 . S
H101 C95 0.930 . S
H102 C97 0.930 . S
N103 Cu92 1.985 1_455 S
N103 C105 1.335 . S
N103 C106 1.390 . S
N104 C105 1.345 . S
N104 C107 1.336 . S
C105 N103 1.335 . S
C105 N104 1.345 . S
C105 H110 0.930 . S
C106 N103 1.390 . S
C106 C107 1.346 . S
C106 H111 0.930 . S
C107 N104 1.336 . S
C107 C106 1.346 . S
C107 H114 0.929 . S
C108 O98 1.282 . S
C108 O109 1.216 1_655 S
O109 C108 1.216 1_455 S
H110 C105 0.930 . S
H111 C106 0.930 . S
O112 Cu92 1.959 1_455 S
O112 C99 1.251 . S
H113 C96 0.930 . S
H114 C107 0.929 . S
Cu115 N116 1.999 . S
Cu115 O121 1.974 . S
Cu115 N126 1.985 . S
Cu115 O135 1.959 . S
N116 Cu115 1.999 . S
N116 C118 1.263 . S
N116 C120 1.389 . S
N117 C118 1.358 . S
N117 C119 1.400 . S
C118 N116 1.263 . S
C118 N117 1.358 . S
C118 H124 0.930 . S
C119 N117 1.400 . S
C119 C120 1.351 . S
C119 H136 0.930 . S
C120 N116 1.389 . S
C120 C119 1.351 . S
C120 H125 0.930 . S
O121 Cu115 1.974 . S
O121 C131 1.282 . S
C122 O123 1.261 . S
C122 O135 1.251 . S
O123 C122 1.261 . S
H124 C118 0.930 . S
H125 C120 0.930 . S
N126 Cu115 1.985 . S
N126 C128 1.335 . S
N126 C129 1.390 . S
N127 C128 1.345 . S
N127 C130 1.336 . S
C128 N126 1.335 . S
C128 N127 1.345 . S
C128 H133 0.930 . S
C129 N126 1.390 . S
C129 C130 1.346 . S
C129 H134 0.930 . S
C130 N127 1.336 . S
C130 C129 1.346 . S
C130 H137 0.929 . S
C131 O121 1.282 . S
C131 O132 1.216 . S
O132 C131 1.216 . S
H133 C128 0.930 . S
H134 C129 0.930 . S
O135 Cu115 1.959 . S
O135 C122 1.251 . S
H136 C119 0.930 . S
H137 C130 0.929 . S
Cu138 N139 1.999 . S
Cu138 O144 1.974 . S
Cu138 N149 1.985 . S
Cu138 O158 1.959 . S
N139 Cu138 1.999 . S
N139 C141 1.263 . S
N139 C143 1.389 . S
N140 C141 1.358 . S
N140 C142 1.400 . S
C141 N139 1.263 . S
C141 N140 1.358 . S
C141 H147 0.930 . S
C142 N140 1.400 . S
C142 C143 1.351 . S
C142 H159 0.930 . S
C143 N139 1.389 . S
C143 C142 1.351 . S
C143 H148 0.930 . S
O144 Cu138 1.974 . S
O144 C154 1.282 . S
C145 O146 1.261 . S
C145 O158 1.251 . S
O146 C145 1.261 . S
H147 C141 0.930 . S
H148 C143 0.930 . S
N149 Cu138 1.985 . S
N149 C151 1.335 . S
N149 C152 1.390 . S
N150 C151 1.345 . S
N150 C153 1.336 . S
C151 N149 1.335 . S
C151 N150 1.345 . S
C151 H156 0.930 . S
C152 N149 1.390 . S
C152 C153 1.346 . S
C152 H157 0.930 . S
C153 N150 1.336 . S
C153 C152 1.346 . S
C153 H160 0.929 . S
C154 O144 1.282 . S
C154 O155 1.216 . S
O155 C154 1.216 . S
H156 C151 0.930 . S
H157 C152 0.930 . S
O158 Cu138 1.959 . S
O158 C145 1.251 . S
H159 C142 0.930 . S
H160 C153 0.929 . S
Cu161 N162 1.999 . S
Cu161 O167 1.974 . S
Cu161 N172 1.985 1_545 S
Cu161 O181 1.958 1_545 S
N162 Cu161 1.999 . S
N162 C164 1.263 . S
N162 C166 1.389 . S
N163 C164 1.358 . S
N163 C165 1.400 . S
C164 N162 1.263 . S
C164 N163 1.358 . S
C164 H170 0.930 . S
C165 N163 1.400 . S
C165 C166 1.351 . S
C165 H182 0.930 . S
C166 N162 1.389 . S
C166 C165 1.351 . S
C166 H171 0.930 . S
O167 Cu161 1.974 . S
O167 C177 1.282 . S
C168 O169 1.261 . S
C168 O181 1.254 . S
O169 C168 1.261 . S
H170 C164 0.930 . S
H171 C166 0.930 . S
N172 Cu161 1.985 1_565 S
N172 C174 1.335 . S
N172 C175 1.390 . S
N173 C174 1.345 . S
N173 C176 1.336 . S
C174 N172 1.335 . S
C174 N173 1.345 . S
C174 H179 0.930 . S
C175 N172 1.390 . S
C175 C176 1.346 . S
C175 H180 0.930 . S
C176 N173 1.336 . S
C176 C175 1.346 . S
C176 H183 0.929 . S
C177 O167 1.282 . S
C177 O178 1.216 1_545 S
O178 C177 1.216 1_565 S
H179 C174 0.930 . S
H180 C175 0.930 . S
O181 Cu161 1.958 1_565 S
O181 C168 1.254 . S
H182 C165 0.930 . S
H183 C176 0.929 . S
H184 C190 0.930 . S
H185 C194 0.930 . S
H186 C199 0.929 . S
H187 C197 0.929 1_655 S
H188 C192 0.929 . S
H189 C198 0.929 1_554 S
C190 H184 0.930 . S
C190 C191 1.367 . S
C190 C198 1.378 . S
C191 C190 1.367 . S
C191 C199 1.433 1_655 S
C192 H188 0.929 . S
C192 C194 1.378 1_556 S
C192 C196 1.341 1_556 S
C193 C196 1.446 1_556 S
C193 C198 1.350 1_455 S
C193 N201 1.427 . S
C194 H185 0.930 . S
C194 C192 1.378 1_554 S
C194 C195 1.367 . S
C195 C194 1.367 . S
C195 C197 1.433 . S
C196 C192 1.341 1_554 S
C196 C193 1.446 1_554 S
C196 N200 1.453 1_455 S
C197 H187 0.929 1_455 S
C197 C195 1.433 . S
C197 N200 1.384 1_455 S
C198 H189 0.929 1_556 S
C198 C190 1.378 . S
C198 C193 1.350 1_655 S
C199 H186 0.929 . S
C199 C191 1.433 1_455 S
C199 N201 1.384 . S
N200 C196 1.453 1_655 S
N200 C197 1.384 1_655 S
N201 C193 1.427 . S
N201 C199 1.384 . S
H202 C208 0.930 . S
H203 C212 0.930 . S
H204 C217 0.929 . S
H205 C215 0.929 . S
H206 C210 0.929 . S
H207 C216 0.929 . S
C208 H202 0.930 . S
C208 C209 1.367 . S
C208 C216 1.378 . S
C209 C208 1.367 . S
C209 C217 1.433 . S
C210 H206 0.929 . S
C210 C212 1.378 . S
C210 C214 1.350 . S
C211 C214 1.463 . S
C211 C216 1.350 . S
C211 N219 1.427 . S
C212 H203 0.930 . S
C212 C210 1.378 . S
C212 C213 1.367 . S
C213 C212 1.367 . S
C213 C215 1.433 . S
C214 C210 1.350 . S
C214 C211 1.463 . S
C214 N218 1.427 . S
C215 H205 0.929 . S
C215 C213 1.433 . S
C215 N218 1.384 . S
C216 H207 0.929 . S
C216 C208 1.378 . S
C216 C211 1.350 . S
C217 H204 0.929 . S
C217 C209 1.433 . S
C217 N219 1.384 . S
N218 C214 1.427 . S
N218 C215 1.384 . S
N219 C211 1.427 . S
N219 C217 1.384 . S
H220 C226 0.930 . S
H221 C230 0.930 . S
H222 C235 0.929 . S
H223 C233 0.929 . S
H224 C228 0.929 . S
H225 C234 0.929 . S
C226 H220 0.930 . S
C226 C227 1.367 . S
C226 C234 1.378 1_565 S
C227 C226 1.367 . S
C227 C235 1.433 . S
C228 H224 0.929 . S
C228 C230 1.378 . S
C228 C232 1.350 . S
C229 C232 1.463 1_554 S
C229 C234 1.350 . S
C229 N237 1.427 . S
C230 H221 0.930 . S
C230 C228 1.378 . S
C230 C231 1.367 . S
C231 C230 1.367 . S
C231 C233 1.433 . S
C232 C228 1.350 . S
C232 C229 1.463 1_556 S
C232 N236 1.427 . S
C233 H223 0.929 . S
C233 C231 1.433 . S
C233 N236 1.384 . S
C234 H225 0.929 . S
C234 C226 1.378 1_545 S
C234 C229 1.350 . S
C235 H222 0.929 . S
C235 C227 1.433 . S
C235 N237 1.384 1_565 S
N236 C232 1.427 . S
N236 C233 1.384 . S
N237 C229 1.427 . S
N237 C235 1.384 1_545 S
H238 C244 0.930 . S
H239 C248 0.920 1_545 S
H240 C253 0.929 . S
H241 C251 0.929 . S
H242 C246 0.929 . S
H243 C252 0.929 . S
C244 H238 0.930 . S
C244 C245 1.367 1_565 S
C244 C252 1.378 . S
C245 C244 1.367 1_545 S
C245 C253 1.433 . S
C246 H242 0.929 . S
C246 C248 1.373 1_545 S
C246 C250 1.350 1_545 S
C247 C250 1.463 . S
C247 C252 1.350 . S
C247 N255 1.427 1_565 S
C248 H239 0.920 1_565 S
C248 C246 1.373 1_565 S
C248 C249 1.382 1_655 S
C249 C248 1.382 1_455 S
C249 C251 1.433 . S
C250 C246 1.350 1_565 S
C250 C247 1.463 . S
C250 N254 1.427 . S
C251 H241 0.929 . S
C251 C249 1.433 . S
C251 N254 1.384 1_455 S
C252 H243 0.929 . S
C252 C244 1.378 . S
C252 C247 1.350 . S
C253 H240 0.929 . S
C253 C245 1.433 . S
C253 N255 1.384 . S
N254 C250 1.427 . S
N254 C251 1.384 1_655 S
N255 C247 1.427 1_545 S
N255 C253 1.384 . S
H256 C262 0.930 . S
H257 C266 0.930 . S
H258 C271 0.929 . S
H259 C269 0.929 . S
H260 C264 0.929 . S
H261 C270 0.929 . S
C262 H256 0.930 . S
C262 C263 1.367 . S
C262 C270 1.378 . S
C263 C262 1.367 . S
C263 C271 1.433 . S
C264 H260 0.929 . S
C264 C266 1.378 . S
C264 C268 1.350 . S
C265 C268 1.463 . S
C265 C270 1.350 . S
C265 N273 1.427 . S
C266 H257 0.930 . S
C266 C264 1.378 . S
C266 C267 1.367 . S
C267 C266 1.367 . S
C267 C269 1.433 . S
C268 C264 1.350 . S
C268 C265 1.463 . S
C268 N272 1.427 . S
C269 H259 0.929 . S
C269 C267 1.433 . S
C269 N272 1.384 . S
C270 H261 0.929 . S
C270 C262 1.378 . S
C270 C265 1.350 . S
C271 H258 0.929 . S
C271 C263 1.433 . S
C271 N273 1.384 . S
N272 C268 1.427 . S
N272 C269 1.384 . S
N273 C265 1.427 . S
N273 C271 1.384 . S
H274 C280 0.930 . S
H275 C284 0.930 . S
H276 C289 0.929 . S
H277 C287 0.929 . S
H278 C282 0.929 . S
H279 C288 0.929 . S
C280 H274 0.930 . S
C280 C281 1.367 . S
C280 C288 1.378 . S
C281 C280 1.367 . S
C281 C289 1.433 . S
C282 H278 0.929 . S
C282 C284 1.378 . S
C282 C286 1.350 . S
C283 C286 1.463 . S
C283 C288 1.350 . S
C283 N291 1.427 . S
C284 H275 0.930 . S
C284 C282 1.378 . S
C284 C285 1.367 . S
C285 C284 1.367 . S
C285 C287 1.433 . S
C286 C282 1.350 . S
C286 C283 1.463 . S
C286 N290 1.427 . S
C287 H277 0.929 . S
C287 C285 1.433 . S
C287 N290 1.384 . S
C288 H279 0.929 . S
C288 C280 1.378 . S
C288 C283 1.350 . S
C289 H276 0.929 . S
C289 C281 1.433 . S
C289 N291 1.384 . S
N290 C286 1.427 . S
N290 C287 1.384 . S
N291 C283 1.427 . S
N291 C289 1.384 . S
H292 C298 0.930 . S
H293 C302 0.930 . S
H294 C307 0.929 . S
H295 C305 0.929 . S
H296 C300 0.929 . S
H297 C306 0.929 . S
C298 H292 0.930 . S
C298 C299 1.367 . S
C298 C306 1.378 . S
C299 C298 1.367 . S
C299 C307 1.433 . S
C300 H296 0.929 . S
C300 C302 1.378 . S
C300 C304 1.350 . S
C301 C304 1.463 . S
C301 C306 1.350 . S
C301 N309 1.427 . S
C302 H293 0.930 . S
C302 C300 1.378 . S
C302 C303 1.367 . S
C303 C302 1.367 . S
C303 C305 1.433 . S
C304 C300 1.350 . S
C304 C301 1.463 . S
C304 N308 1.427 . S
C305 H295 0.929 . S
C305 C303 1.433 . S
C305 N308 1.384 . S
C306 H297 0.929 . S
C306 C298 1.378 . S
C306 C301 1.350 . S
C307 H294 0.929 . S
C307 C299 1.433 . S
C307 N309 1.384 . S
N308 C304 1.427 . S
N308 C305 1.384 . S
N309 C301 1.427 . S
N309 C307 1.384 . S
H310 C316 0.930 . S
H311 C320 0.930 . S
H312 C325 0.929 . S
H313 C323 0.929 . S
H314 C318 0.929 . S
H315 C324 0.929 . S
C316 H310 0.930 . S
C316 C317 1.367 . S
C316 C324 1.378 . S
C317 C316 1.367 . S
C317 C325 1.433 . S
C318 H314 0.929 . S
C318 C320 1.378 . S
C318 C322 1.350 . S
C319 C322 1.463 . S
C319 C324 1.350 . S
C319 N327 1.427 . S
C320 H311 0.930 . S
C320 C318 1.378 . S
C320 C321 1.367 . S
C321 C320 1.367 . S
C321 C323 1.433 . S
C322 C318 1.350 . S
C322 C319 1.463 . S
C322 N326 1.427 . S
C323 H313 0.929 . S
C323 C321 1.433 . S
C323 N326 1.384 . S
C324 H315 0.929 . S
C324 C316 1.378 . S
C324 C319 1.350 . S
C325 H312 0.929 . S
C325 C317 1.433 . S
C325 N327 1.384 . S
N326 C322 1.427 . S
N326 C323 1.384 . S
N327 C319 1.427 . S
N327 C325 1.384 . S
H328 C334 0.930 . S
H329 C338 0.930 . S
H330 C343 0.929 . S
H331 C341 0.929 . S
H332 C336 0.929 . S
H333 C342 0.929 . S
C334 H328 0.930 . S
C334 C335 1.367 . S
C334 C342 1.378 . S
C335 C334 1.367 . S
C335 C343 1.433 . S
C336 H332 0.929 . S
C336 C338 1.378 . S
C336 C340 1.350 . S
C337 C340 1.463 . S
C337 C342 1.350 . S
C337 N345 1.427 . S
C338 H329 0.930 . S
C338 C336 1.378 . S
C338 C339 1.367 . S
C339 C338 1.367 . S
C339 C341 1.433 . S
C340 C336 1.350 . S
C340 C337 1.463 . S
C340 N344 1.427 . S
C341 H331 0.929 . S
C341 C339 1.433 . S
C341 N344 1.384 . S
C342 H333 0.929 . S
C342 C334 1.378 . S
C342 C337 1.350 . S
C343 H330 0.929 . S
C343 C335 1.433 . S
C343 N345 1.384 . S
N344 C340 1.427 . S
N344 C341 1.384 . S
N345 C337 1.427 . S
N345 C343 1.384 . S
H346 C352 0.930 . S
H347 C356 0.930 . S
H348 C361 0.929 . S
H349 C359 0.929 . S
H350 C354 0.929 . S
H351 C360 0.929 . S
C352 H346 0.930 . S
C352 C353 1.367 . S
C352 C360 1.378 . S
C353 C352 1.367 . S
C353 C361 1.433 . S
C354 H350 0.929 . S
C354 C356 1.378 . S
C354 C358 1.350 . S
C355 C358 1.463 . S
C355 C360 1.350 . S
C355 N363 1.427 . S
C356 H347 0.930 . S
C356 C354 1.378 . S
C356 C357 1.367 . S
C357 C356 1.367 . S
C357 C359 1.433 . S
C358 C354 1.350 . S
C358 C355 1.463 . S
C358 N362 1.427 . S
C359 H349 0.929 . S
C359 C357 1.433 . S
C359 N362 1.384 . S
C360 H351 0.929 . S
C360 C352 1.378 . S
C360 C355 1.350 . S
C361 H348 0.929 . S
C361 C353 1.433 . S
C361 N363 1.384 . S
N362 C358 1.427 . S
N362 C359 1.384 . S
N363 C355 1.427 . S
N363 C361 1.384 . S
H364 C370 0.930 . S
H365 C374 0.930 . S
H366 C379 0.929 . S
H367 C377 0.929 1_545 S
H368 C372 0.929 . S
H369 C378 0.929 . S
C370 H364 0.930 . S
C370 C371 1.367 . S
C370 C378 1.378 . S
C371 C370 1.367 . S
C371 C379 1.433 . S
C372 H368 0.929 . S
C372 C374 1.378 . S
C372 C376 1.350 . S
C373 C376 1.463 . S
C373 C378 1.350 . S
C373 N381 1.427 . S
C374 H365 0.930 . S
C374 C372 1.378 . S
C374 C375 1.367 . S
C375 C374 1.367 . S
C375 C377 1.433 . S
C376 C372 1.350 . S
C376 C373 1.463 . S
C376 N380 1.427 . S
C377 H367 0.929 1_565 S
C377 C375 1.433 . S
C377 N380 1.384 . S
C378 H369 0.929 . S
C378 C370 1.378 . S
C378 C373 1.350 . S
C379 H366 0.929 . S
C379 C371 1.433 . S
C379 N381 1.384 . S
N380 C376 1.427 . S
N380 C377 1.384 . S
N381 C373 1.427 . S
N381 C379 1.384 . S
H382 C388 0.930 . S
H383 C392 0.930 . S
H384 C397 0.929 . S
H385 C395 0.929 . S
H386 C390 0.929 . S
H387 C396 0.929 . S
C388 H382 0.930 . S
C388 C389 1.367 . S
C388 C396 1.378 . S
C389 C388 1.367 . S
C389 C397 1.433 . S
C390 H386 0.929 . S
C390 C392 1.378 . S
C390 C394 1.350 . S
C391 C394 1.463 . S
C391 C396 1.350 . S
C391 N399 1.427 . S
C392 H383 0.930 . S
C392 C390 1.378 . S
C392 C393 1.367 . S
C393 C392 1.367 . S
C393 C395 1.433 . S
C394 C390 1.350 . S
C394 C391 1.463 . S
C394 N398 1.427 . S
C395 H385 0.929 . S
C395 C393 1.433 . S
C395 N398 1.384 . S
C396 H387 0.929 . S
C396 C388 1.378 . S
C396 C391 1.350 . S
C397 H384 0.929 . S
C397 C389 1.433 . S
C397 N399 1.384 . S
N398 C394 1.427 . S
N398 C395 1.384 . S
N399 C391 1.427 . S
N399 C397 1.384 . S
H400 C406 0.930 . S
H401 C410 0.930 . S
H402 C415 0.929 . S
H403 C413 0.929 . S
H404 C408 0.929 . S
H405 C414 0.929 . S
C406 H400 0.930 . S
C406 C407 1.367 . S
C406 C414 1.378 . S
C407 C406 1.367 . S
C407 C415 1.433 . S
C408 H404 0.929 . S
C408 C410 1.378 . S
C408 C412 1.350 . S
C409 C412 1.463 . S
C409 C414 1.350 . S
C409 N417 1.427 . S
C410 H401 0.930 . S
C410 C408 1.378 . S
C410 C411 1.367 . S
C411 C410 1.367 . S
C411 C413 1.433 . S
C412 C408 1.350 . S
C412 C409 1.463 . S
C412 N416 1.427 . S
C413 H403 0.929 . S
C413 C411 1.433 . S
C413 N416 1.384 . S
C414 H405 0.929 . S
C414 C406 1.378 . S
C414 C409 1.350 . S
C415 H402 0.929 . S
C415 C407 1.433 . S
C415 N417 1.384 . S
N416 C412 1.427 . S
N416 C413 1.384 . S
N417 C409 1.427 . S
N417 C415 1.384 . S
H418 C424 0.930 . S
H419 C428 0.930 . S
H420 C433 0.929 . S
H421 C431 0.929 . S
H422 C426 0.929 . S
H423 C432 0.929 . S
C424 H418 0.930 . S
C424 C425 1.367 . S
C424 C432 1.378 . S
C425 C424 1.367 . S
C425 C433 1.433 . S
C426 H422 0.929 . S
C426 C428 1.378 . S
C426 C430 1.350 . S
C427 C430 1.463 . S
C427 C432 1.350 . S
C427 N435 1.427 . S
C428 H419 0.930 . S
C428 C426 1.378 . S
C428 C429 1.367 . S
C429 C428 1.367 . S
C429 C431 1.433 . S
C430 C426 1.350 . S
C430 C427 1.463 . S
C430 N434 1.427 . S
C431 H421 0.929 . S
C431 C429 1.433 . S
C431 N434 1.384 . S
C432 H423 0.929 . S
C432 C424 1.378 . S
C432 C427 1.350 . S
C433 H420 0.929 . S
C433 C425 1.433 . S
C433 N435 1.384 . S
N434 C430 1.427 . S
N434 C431 1.384 . S
N435 C427 1.427 . S
N435 C433 1.384 . S
H436 C442 0.930 . S
H437 C446 0.930 . S
H438 C451 0.929 . S
H439 C449 0.929 . S
H440 C444 0.929 . S
H441 C450 0.929 . S
C442 H436 0.930 . S
C442 C443 1.367 . S
C442 C450 1.378 . S
C443 C442 1.367 . S
C443 C451 1.433 . S
C444 H440 0.929 . S
C444 C446 1.378 . S
C444 C448 1.350 . S
C445 C448 1.463 . S
C445 C450 1.350 . S
C445 N453 1.427 . S
C446 H437 0.930 . S
C446 C444 1.378 . S
C446 C447 1.367 . S
C447 C446 1.367 . S
C447 C449 1.433 . S
C448 C444 1.350 . S
C448 C445 1.463 . S
C448 N452 1.427 . S
C449 H439 0.929 . S
C449 C447 1.433 . S
C449 N452 1.384 . S
C450 H441 0.929 . S
C450 C442 1.378 . S
C450 C445 1.350 . S
C451 H438 0.929 . S
C451 C443 1.433 . S
C451 N453 1.384 . S
N452 C448 1.427 . S
N452 C449 1.384 . S
N453 C445 1.427 . S
N453 C451 1.384 . S
H454 C460 0.930 . S
H455 C464 0.930 . S
H456 C469 0.929 . S
H457 C467 0.929 . S
H458 C462 0.929 . S
H459 C468 0.929 . S
C460 H454 0.930 . S
C460 C461 1.367 . S
C460 C468 1.378 . S
C461 C460 1.367 . S
C461 C469 1.433 . S
C462 H458 0.929 . S
C462 C464 1.378 . S
C462 C466 1.350 . S
C463 C466 1.463 . S
C463 C468 1.350 . S
C463 N471 1.427 . S
C464 H455 0.930 . S
C464 C462 1.378 . S
C464 C465 1.367 . S
C465 C464 1.367 . S
C465 C467 1.433 . S
C466 C462 1.350 . S
C466 C463 1.463 . S
C466 N470 1.427 . S
C467 H457 0.929 . S
C467 C465 1.433 . S
C467 N470 1.384 . S
C468 H459 0.929 . S
C468 C460 1.378 . S
C468 C463 1.350 . S
C469 H456 0.929 . S
C469 C461 1.433 . S
C469 N471 1.384 . S
N470 C466 1.427 . S
N470 C467 1.384 . S
N471 C463 1.427 . S
N471 C469 1.384 . S
C191 C108 1.864 . S
C195 N12 1.789 . S
C209 N35 1.760 . S
C213 C131 1.841 . S
C227 N58 1.692 . S
C231 C154 1.774 . S
C245 C177 1.804 . S
C249 N81 1.722 . S
C263 C7 2.691 . S
C267 C53 2.693 . S
C281 C30 2.696 . S
C285 C76 2.695 . S
C299 N140 1.903 . S
C303 N94 1.879 . S
C317 N117 1.888 . S
C321 N163 1.900 . S
C335 C122 1.700 . S
C339 C16 1.626 . S
C353 C39 1.656 . S
C357 C145 1.737 . S
C371 C62 1.618 . S
C375 C168 1.694 . S
C389 C99 1.658 . S
C393 C85 1.587 . S
C407 N104 1.180 . S
C411 N25 1.236 . S
C425 N127 1.241 . S
C429 N48 1.288 . S
C443 N150 1.229 . S
C447 N71 1.273 . S
C461 N2 1.213 . S
C465 N173 1.177 . S
