# Generated by pormake.
# Topology wiq, (6)-cn, num edge types: 1
# Building blocks:
#     Node 0, Type 0, BuildingBlock: IZENUY_clean_sbu_0, # of connection points: 6
#     Node 1, Type 0, BuildingBlock: IZENUY_clean_sbu_0, # of connection points: 6
#     Node 2, Type 0, BuildingBlock: IZENUY_clean_sbu_0, # of connection points: 6
#     Node 3, Type 0, BuildingBlock: IZENUY_clean_sbu_0, # of connection points: 6
#     Node 4, Type 0, BuildingBlock: IZENUY_clean_sbu_0, # of connection points: 6
#     Node 5, Type 0, BuildingBlock: IZENUY_clean_sbu_0, # of connection points: 6
#     Node 6, Type 0, BuildingBlock: IZENUY_clean_sbu_0, # of connection points: 6
#     Node 7, Type 0, BuildingBlock: IZENUY_clean_sbu_0, # of connection points: 6
#     Node 8, Type 0, BuildingBlock: IZENUY_clean_sbu_0, # of connection points: 6
#     Node 9, Type 0, BuildingBlock: IZENUY_clean_sbu_0, # of connection points: 6
#     Node 10, Type 0, BuildingBlock: IZENUY_clean_sbu_0, # of connection points: 6
#     Node 11, Type 0, BuildingBlock: IZENUY_clean_sbu_0, # of connection points: 6
#     Node 12, Type 0, BuildingBlock: IZENUY_clean_sbu_0, # of connection points: 6
#     Node 13, Type 0, BuildingBlock: IZENUY_clean_sbu_0, # of connection points: 6
#     Node 14, Type 0, BuildingBlock: IZENUY_clean_sbu_0, # of connection points: 6
#     Node 15, Type 0, BuildingBlock: IZENUY_clean_sbu_0, # of connection points: 6
#     Node 16, Type 0, BuildingBlock: IZENUY_clean_sbu_0, # of connection points: 6
#     Node 17, Type 0, BuildingBlock: IZENUY_clean_sbu_0, # of connection points: 6
#     Node 18, Type 0, BuildingBlock: IZENUY_clean_sbu_0, # of connection points: 6
#     Node 19, Type 0, BuildingBlock: IZENUY_clean_sbu_0, # of connection points: 6
#     Node 20, Type 0, BuildingBlock: IZENUY_clean_sbu_0, # of connection points: 6
#     Node 21, Type 0, BuildingBlock: IZENUY_clean_sbu_0, # of connection points: 6
#     Node 22, Type 0, BuildingBlock: IZENUY_clean_sbu_0, # of connection points: 6
#     Node 23, Type 0, BuildingBlock: IZENUY_clean_sbu_0, # of connection points: 6
#     Node 24, Type 0, BuildingBlock: IZENUY_clean_sbu_0, # of connection points: 6
#     Node 25, Type 0, BuildingBlock: IZENUY_clean_sbu_0, # of connection points: 6
#     Node 26, Type 0, BuildingBlock: IZENUY_clean_sbu_0, # of connection points: 6
#     Node 27, Type 0, BuildingBlock: IZENUY_clean_sbu_0, # of connection points: 6
#     Node 28, Type 0, BuildingBlock: IZENUY_clean_sbu_0, # of connection points: 6
#     Node 29, Type 0, BuildingBlock: IZENUY_clean_sbu_0, # of connection points: 6
#     Node 30, Type 0, BuildingBlock: IZENUY_clean_sbu_0, # of connection points: 6
#     Node 31, Type 0, BuildingBlock: IZENUY_clean_sbu_0, # of connection points: 6
#     Edge 32, Type (0, 0), None
#     Edge 33, Type (0, 0), None
#     Edge 34, Type (0, 0), None
#     Edge 35, Type (0, 0), None
#     Edge 36, Type (0, 0), None
#     Edge 37, Type (0, 0), None
#     Edge 38, Type (0, 0), None
#     Edge 39, Type (0, 0), None
#     Edge 40, Type (0, 0), None
#     Edge 41, Type (0, 0), None
#     Edge 42, Type (0, 0), None
#     Edge 43, Type (0, 0), None
#     Edge 44, Type (0, 0), None
#     Edge 45, Type (0, 0), None
#     Edge 46, Type (0, 0), None
#     Edge 47, Type (0, 0), None
#     Edge 48, Type (0, 0), None
#     Edge 49, Type (0, 0), None
#     Edge 50, Type (0, 0), None
#     Edge 51, Type (0, 0), None
#     Edge 52, Type (0, 0), None
#     Edge 53, Type (0, 0), None
#     Edge 54, Type (0, 0), None
#     Edge 55, Type (0, 0), None
#     Edge 56, Type (0, 0), None
#     Edge 57, Type (0, 0), None
#     Edge 58, Type (0, 0), None
#     Edge 59, Type (0, 0), None
#     Edge 60, Type (0, 0), None
#     Edge 61, Type (0, 0), None
#     Edge 62, Type (0, 0), None
#     Edge 63, Type (0, 0), None
#     Edge 64, Type (0, 0), None
#     Edge 65, Type (0, 0), None
#     Edge 66, Type (0, 0), None
#     Edge 67, Type (0, 0), None
#     Edge 68, Type (0, 0), None
#     Edge 69, Type (0, 0), None
#     Edge 70, Type (0, 0), None
#     Edge 71, Type (0, 0), None
#     Edge 72, Type (0, 0), None
#     Edge 73, Type (0, 0), None
#     Edge 74, Type (0, 0), None
#     Edge 75, Type (0, 0), None
#     Edge 76, Type (0, 0), None
#     Edge 77, Type (0, 0), None
#     Edge 78, Type (0, 0), None
#     Edge 79, Type (0, 0), None
#     Edge 80, Type (0, 0), None
#     Edge 81, Type (0, 0), None
#     Edge 82, Type (0, 0), None
#     Edge 83, Type (0, 0), None
#     Edge 84, Type (0, 0), None
#     Edge 85, Type (0, 0), None
#     Edge 86, Type (0, 0), None
#     Edge 87, Type (0, 0), None
#     Edge 88, Type (0, 0), None
#     Edge 89, Type (0, 0), None
#     Edge 90, Type (0, 0), None
#     Edge 91, Type (0, 0), None
#     Edge 92, Type (0, 0), None
#     Edge 93, Type (0, 0), None
#     Edge 94, Type (0, 0), None
#     Edge 95, Type (0, 0), None
#     Edge 96, Type (0, 0), None
#     Edge 97, Type (0, 0), None
#     Edge 98, Type (0, 0), None
#     Edge 99, Type (0, 0), None
#     Edge 100, Type (0, 0), None
#     Edge 101, Type (0, 0), None
#     Edge 102, Type (0, 0), None
#     Edge 103, Type (0, 0), None
#     Edge 104, Type (0, 0), None
#     Edge 105, Type (0, 0), None
#     Edge 106, Type (0, 0), None
#     Edge 107, Type (0, 0), None
#     Edge 108, Type (0, 0), None
#     Edge 109, Type (0, 0), None
#     Edge 110, Type (0, 0), None
#     Edge 111, Type (0, 0), None
#     Edge 112, Type (0, 0), None
#     Edge 113, Type (0, 0), None
#     Edge 114, Type (0, 0), None
#     Edge 115, Type (0, 0), None
#     Edge 116, Type (0, 0), None
#     Edge 117, Type (0, 0), None
#     Edge 118, Type (0, 0), None
#     Edge 119, Type (0, 0), None
#     Edge 120, Type (0, 0), None
#     Edge 121, Type (0, 0), None
#     Edge 122, Type (0, 0), None
#     Edge 123, Type (0, 0), None
#     Edge 124, Type (0, 0), None
#     Edge 125, Type (0, 0), None
#     Edge 126, Type (0, 0), None
#     Edge 127, Type (0, 0), None
# Relax obj value: 0.282
# Max RMSD: 0.211
# Mean RMSD: 0.210
data_MOF--net-wiq--node1-IZENUY_clean_sbu_0--edge1-none
_symmetry_space_group_name_H-M    P1
_symmetry_Int_Tables_number       1
_symmetry_cell_setting            triclinic
loop_
_symmetry_equiv_pos_as_xyz
'x, y, z'
_cell_length_a     22.636793
_cell_length_b     22.636555
_cell_length_c     24.766825
_cell_angle_alpha  89.999973
_cell_angle_beta   89.99996
_cell_angle_gamma 89.999996
loop_
_atom_site_label
_atom_site_type_symbol
_atom_site_fract_x
_atom_site_fract_y
_atom_site_fract_z
_atom_type_partial_charge
Fe0 Fe 0.20747 0.17553 0.34817 0.0
Fe1 Fe 0.17252 0.26728 0.2638 0.0
O2 O 0.15957 0.19986 0.29744 0.0
Fe3 Fe 0.10081 0.15439 0.27765 0.0
O4 O 0.06602 0.16411 0.34203 0.0
O5 O 0.14524 0.13639 0.38773 0.0
O6 O 0.18841 0.23971 0.3901 0.0
C7 C 0.18781 0.29422 0.37704 0.0
C8 C 0.18687 0.06843 0.29108 0.0
O9 O 0.19274 0.30913 0.32758 0.0
C10 C 0.14667 0.18493 0.1817 0.0
O11 O 0.27315 0.22179 0.32136 0.0
O12 O 0.2417 0.24254 0.24348 0.0
O13 O 0.13476 0.08571 0.29959 0.0
O14 O 0.22799 0.10496 0.30618 0.0
C15 C 0.06073 0.26942 0.26247 0.0
O16 O 0.15031 0.2379 0.19803 0.0
O17 O 0.13308 0.14311 0.21255 0.0
C18 C 0.27726 0.25384 0.27818 0.0
O19 O 0.10486 0.29343 0.28019 0.0
O20 O 0.05672 0.215 0.25263 0.0
C21 C 0.08867 0.14667 0.38566 0.0
Fe22 Fe 0.14731 0.95745 0.59817 0.0
Fe23 Fe 0.05556 0.92251 0.51381 0.0
O24 O 0.12299 0.90956 0.54744 0.0
Fe25 Fe 0.16845 0.85079 0.52765 0.0
O26 O 0.15873 0.81601 0.59203 0.0
O27 O 0.18645 0.89522 0.63774 0.0
O28 O 0.08314 0.9384 0.64011 0.0
C29 C 1.02862 0.9378 0.62704 0.0
C30 C 0.25441 0.93686 0.54108 0.0
O31 O 1.01371 0.94272 0.57758 0.0
C32 C 0.13791 0.89665 0.4317 0.0
O33 O 0.10105 1.02314 0.57136 0.0
O34 O 0.0803 0.99169 0.49349 0.0
O35 O 0.23713 0.88475 0.54959 0.0
O36 O 0.21788 0.97797 0.55618 0.0
C37 C 0.05342 0.81071 0.51247 0.0
O38 O 0.08494 0.9003 0.44803 0.0
O39 O 0.17973 0.88307 0.46255 0.0
C40 C 0.069 1.02725 0.52819 0.0
O41 O 1.02942 0.85485 0.5302 0.0
O42 O 0.10785 0.80671 0.50263 0.0
C43 C 0.17617 0.83865 0.63566 0.0
Fe44 Fe 0.40033 0.80554 0.7638 0.0
Fe45 Fe 0.47205 0.91843 0.77765 0.0
O46 O 0.41328 0.87297 0.79744 0.0
Fe47 Fe 0.36539 0.89729 0.84817 0.0
O48 O 0.38444 0.83312 0.8901 0.0
O49 O 0.38012 0.76369 0.82758 0.0
O50 O 0.46799 0.77939 0.78019 0.0
C51 C 0.51213 0.8034 0.76247 0.0
C52 C 0.2956 0.81898 0.77818 0.0
O53 O 0.51614 0.85782 0.75263 0.0
C54 C 0.38599 1.00439 0.79108 0.0
O55 O 0.42254 0.83492 0.69803 0.0
O56 O 0.43978 0.92972 0.71255 0.0
O57 O 0.2997 0.85103 0.82136 0.0
O58 O 0.33115 0.83028 0.74348 0.0
C59 C 0.48419 0.92615 0.88566 0.0
O60 O 0.43809 0.98711 0.79959 0.0
O61 O 0.34487 0.96786 0.80618 0.0
C62 C 0.42619 0.88789 0.6817 0.0
O63 O 0.50683 0.90871 0.84203 0.0
O64 O 0.42761 0.93643 0.88773 0.0
C65 C 0.38504 0.7786 0.87704 0.0
Fe66 Fe 0.40441 0.22203 1.02765 0.0
Fe67 Fe 0.42554 0.11537 0.09817 0.0
O68 O 0.44987 0.16326 0.04744 0.0
Fe69 Fe 0.51729 0.15031 1.01381 0.0
O70 O 0.54344 0.21798 0.0302 0.0
O71 O 0.46501 0.26612 1.00263 0.0
O72 O 0.41412 0.25681 0.09203 0.0
C73 C 0.39668 0.23417 0.13566 0.0
C74 C 0.43494 0.17617 0.9317 0.0
O75 O 0.38641 0.1776 0.13774 0.0
C76 C 0.50385 0.04558 1.02819 0.0
O77 O 0.33572 0.18807 0.04959 0.0
O78 O 0.35498 0.09485 0.05618 0.0
O79 O 0.48791 0.17252 0.94803 0.0
O80 O 0.39312 0.18975 0.96255 0.0
C81 C 0.54424 0.13502 0.12704 0.0
O82 O 0.4718 0.04968 0.07136 0.0
O83 O 0.49256 0.08113 0.99349 0.0
C84 C 0.31845 0.13596 0.04108 0.0
O85 O 0.48972 0.13442 0.14011 0.0
O86 O 0.55914 0.1301 0.07758 0.0
C87 C 0.51943 0.26211 1.01247 0.0
Fe88 Fe 0.1008 0.91843 0.27967 0.0
Fe89 Fe 0.20746 0.8973 0.20914 0.0
O90 O 0.15957 0.87297 0.25987 0.0
Fe91 Fe 0.17252 0.80553 0.29349 0.0
O92 O 0.10486 0.7794 0.27709 0.0
O93 O 0.05672 0.85782 0.30468 0.0
O94 O 0.06602 0.90872 0.21528 0.0
C95 C 0.08866 0.92616 0.17165 0.0
C96 C 0.14672 0.88788 0.37559 0.0
O97 O 0.14523 0.93643 0.16958 0.0
C98 C 0.27725 0.81898 0.27912 0.0
O99 O 0.13476 0.98712 0.25772 0.0
O100 O 0.22798 0.96786 0.25113 0.0
O101 O 0.15031 0.83491 0.35926 0.0
O102 O 0.13307 0.92971 0.34476 0.0
C103 C 0.18782 0.7786 0.18026 0.0
O104 O 0.27315 0.85103 0.23595 0.0
O105 O 0.2417 0.83027 0.31382 0.0
C106 C 0.18687 1.0044 0.26622 0.0
O107 O 0.18841 0.83312 0.1672 0.0
O108 O 0.19274 0.76369 0.22972 0.0
C109 C 0.06073 0.8034 0.29483 0.0
Fe110 Fe 0.4044 0.85079 0.52967 0.0
Fe111 Fe 0.42554 0.95745 0.45913 0.0
O112 O 0.44987 0.90956 0.50986 0.0
Fe113 Fe 0.5173 0.92251 0.54349 0.0
O114 O 0.54343 0.85484 0.52709 0.0
O115 O 0.46501 0.80671 0.55468 0.0
O116 O 0.41412 0.816 0.46528 0.0
C117 C 0.39667 0.83864 0.42165 0.0
C118 C 0.43495 0.89671 0.62559 0.0
O119 O 0.3864 0.89522 0.41958 0.0
C120 C 0.50386 1.02724 0.52911 0.0
O121 O 0.33572 0.88474 0.50772 0.0
O122 O 0.35498 0.97797 0.50113 0.0
O123 O 0.48793 0.9003 0.60926 0.0
O124 O 0.39312 0.88306 0.59476 0.0
C125 C 0.54423 0.9378 0.43025 0.0
O126 O 0.4718 1.02314 0.48594 0.0
O127 O 0.49257 0.99169 0.56381 0.0
C128 C 0.31844 0.93685 0.51622 0.0
O129 O 0.48971 0.93839 0.41719 0.0
O130 O 0.55914 0.94273 0.47971 0.0
C131 C 0.51943 0.81071 0.54483 0.0
Fe132 Fe 0.40033 0.26729 0.79349 0.0
Fe133 Fe 0.47205 0.15439 0.77967 0.0
O134 O 0.41328 0.19986 0.75987 0.0
Fe135 Fe 0.36539 0.17553 0.70914 0.0
O136 O 0.38445 0.2397 0.6672 0.0
O137 O 0.38011 0.30913 0.72972 0.0
O138 O 0.468 0.29343 0.77709 0.0
C139 C 0.51213 0.26943 0.79483 0.0
C140 C 0.2956 0.25384 0.77912 0.0
O141 O 0.51614 0.215 0.80468 0.0
C142 C 0.38599 0.06842 0.76622 0.0
O143 O 0.42255 0.23791 0.85926 0.0
O144 O 0.43978 0.14311 0.84476 0.0
O145 O 0.29971 0.22179 0.73595 0.0
O146 O 0.33116 0.24255 0.81382 0.0
C147 C 0.48419 0.14666 0.67165 0.0
O148 O 0.4381 0.08571 0.75772 0.0
O149 O 0.34487 0.10496 0.75113 0.0
C150 C 0.42614 0.18494 0.87559 0.0
O151 O 0.50684 0.1641 0.71528 0.0
O152 O 0.42762 0.13639 0.66958 0.0
C153 C 0.38504 0.29422 0.68026 0.0
Fe154 Fe 0.14732 0.11538 0.95914 0.0
Fe155 Fe 0.05555 0.15031 0.04349 0.0
O156 O 0.12299 0.16326 1.00986 0.0
Fe157 Fe 0.16845 0.22203 0.02967 0.0
O158 O 0.15874 0.25682 0.96528 0.0
O159 O 0.18645 0.1776 0.91958 0.0
O160 O 0.08314 0.13443 0.91719 0.0
C161 C 1.02863 0.13502 0.93025 0.0
C162 C 0.25442 0.13597 1.01622 0.0
O163 O 1.01371 0.13009 0.97971 0.0
C164 C 0.1379 0.17612 0.12559 0.0
O165 O 0.10105 0.04969 0.98594 0.0
O166 O 0.08029 0.08114 0.06382 0.0
O167 O 0.23714 0.18808 1.00772 0.0
O168 O 0.21788 0.09485 1.00113 0.0
C169 C 0.05342 0.26211 0.04483 0.0
O170 O 0.08493 0.17252 0.10926 0.0
O171 O 0.17973 0.18976 0.09476 0.0
C172 C 0.069 0.04558 0.02911 0.0
O173 O 1.02942 0.21798 1.02709 0.0
O174 O 0.10784 0.26612 0.05468 0.0
C175 C 0.17618 0.23418 0.92165 0.0
Fe176 Fe 0.86539 0.8973 0.70914 0.0
Fe177 Fe 0.97204 0.91842 0.77966 0.0
O178 O 0.91327 0.87296 0.75987 0.0
Fe179 Fe 0.90033 0.80552 0.79349 0.0
O180 O 0.88009 0.76369 0.72972 0.0
O181 O 0.88443 0.83312 0.6672 0.0
O182 O 0.92762 0.93642 0.66957 0.0
C183 C 0.98419 0.92616 0.67165 0.0
C184 C 0.79557 0.819 0.77914 0.0
O185 O 1.00683 0.9087 0.71527 0.0
C186 C 0.9262 0.88786 0.8756 0.0
O187 O 0.84488 0.96786 0.75114 0.0
O188 O 0.9381 0.98711 0.75772 0.0
O189 O 0.83115 0.83025 0.81383 0.0
O190 O 0.7997 0.85105 0.73597 0.0
C191 C 1.01213 0.80339 0.79477 0.0
O192 O 0.93977 0.92969 0.84475 0.0
O193 O 0.92256 0.8349 0.85927 0.0
C194 C 0.886 1.0044 0.76621 0.0
O195 O 1.01613 0.85781 0.80467 0.0
O196 O 0.96798 0.77938 0.77708 0.0
C197 C 0.88503 0.7786 0.68026 0.0
Fe198 Fe 1.01731 0.15031 0.54349 0.0
Fe199 Fe 0.92554 0.11536 0.45914 0.0
O200 O 0.94987 0.16325 0.50987 0.0
Fe201 Fe 0.90442 0.22202 0.52966 0.0
O202 O 0.96502 0.26611 0.55466 0.0
O203 O 0.04344 0.21797 0.52706 0.0
O204 O 0.05915 0.13006 0.47972 0.0
C205 C 0.04424 0.13501 0.43026 0.0
C206 C 0.93497 0.17619 0.6256 0.0
O207 O 0.98972 0.13441 0.4172 0.0
C208 C 0.81844 0.13597 0.51621 0.0
O209 O 0.99261 0.08114 0.56386 0.0
O210 O 0.97179 0.04968 0.48596 0.0
O211 O 0.89314 0.18975 0.59475 0.0
O212 O 0.98794 0.17255 0.60926 0.0
C213 C 0.89668 0.23417 0.42164 0.0
O214 O 0.85498 0.09485 0.50113 0.0
O215 O 0.83573 0.18807 0.50771 0.0
C216 C 1.00382 0.04556 0.52914 0.0
O217 O 0.88641 0.17759 0.41957 0.0
O218 O 0.91413 0.2568 0.46527 0.0
C219 C 1.01944 0.26211 0.54476 0.0
Fe220 Fe 0.67253 0.2673 0.29349 0.0
Fe221 Fe 0.70747 0.17553 0.20914 0.0
O222 O 0.65958 0.19986 0.25987 0.0
Fe223 Fe 0.60081 0.1544 0.27966 0.0
O224 O 0.55673 0.21501 0.30466 0.0
O225 O 0.60487 0.29344 0.27707 0.0
O226 O 0.69277 0.30913 0.22972 0.0
C227 C 0.68783 0.29422 0.18026 0.0
C228 C 0.64666 0.18496 0.3756 0.0
O229 O 0.68843 0.2397 0.1672 0.0
C230 C 0.68686 0.06842 0.26621 0.0
O231 O 0.7417 0.24257 0.31383 0.0
O232 O 0.77315 0.22177 0.23597 0.0
O233 O 0.63309 0.14313 0.34475 0.0
O234 O 0.65029 0.23793 0.35927 0.0
C235 C 0.58866 0.14666 0.17165 0.0
O236 O 0.72798 0.10496 0.25114 0.0
O237 O 0.63475 0.08571 0.25772 0.0
C238 C 0.77729 0.25382 0.27914 0.0
O239 O 0.64524 0.1364 0.16957 0.0
O240 O 0.56602 0.16412 0.21527 0.0
C241 C 0.56073 0.26943 0.29477 0.0
Fe242 Fe 0.55554 0.92251 0.04349 0.0
Fe243 Fe 0.64731 0.95746 0.95914 0.0
O244 O 0.62298 0.90958 1.00987 0.0
Fe245 Fe 0.66844 0.8508 0.02966 0.0
O246 O 0.60783 0.80672 0.05466 0.0
O247 O 0.52941 0.85485 1.02706 0.0
O248 O 0.51371 0.94276 0.97972 0.0
C249 C 0.52862 0.93782 0.93026 0.0
C250 C 0.63788 0.89664 0.1256 0.0
O251 O 0.58314 0.93841 0.9172 0.0
C252 C 0.75442 0.93686 1.01621 0.0
O253 O 0.58025 0.99169 0.06386 0.0
O254 O 0.60107 1.02315 0.98596 0.0
O255 O 0.67972 0.88308 0.09475 0.0
O256 O 0.58491 0.90027 0.10926 0.0
C257 C 0.67617 0.83866 0.92164 0.0
O258 O 0.71788 0.97797 1.00113 0.0
O259 O 0.73713 0.88475 1.00771 0.0
C260 C 0.56904 1.02726 0.02914 0.0
O261 O 0.68644 0.89523 0.91956 0.0
O262 O 0.65872 0.81602 0.96527 0.0
C263 C 0.55342 0.81071 0.04476 0.0
Fe264 Fe 0.97205 0.1544 0.77763 0.0
Fe265 Fe 0.90033 0.2673 0.76382 0.0
O266 O 0.91328 0.19986 0.79743 0.0
Fe267 Fe 0.86539 0.17552 0.84815 0.0
O268 O 0.92762 0.13639 0.88772 0.0
O269 O 1.00684 0.16411 0.84202 0.0
O270 O 1.01612 0.21502 0.75263 0.0
C271 C 1.01213 0.26943 0.76253 0.0
C272 C 0.886 0.06842 0.79109 0.0
O273 O 0.96799 0.29343 0.78024 0.0
C274 C 0.79557 0.25383 0.77816 0.0
O275 O 0.93977 0.14313 0.71253 0.0
O276 O 0.92257 0.23794 0.69804 0.0
O277 O 0.84488 0.10496 0.80616 0.0
O278 O 0.93811 0.08571 0.79957 0.0
C279 C 0.88502 0.29422 0.87705 0.0
O280 O 0.83116 0.24258 0.74347 0.0
O281 O 0.79971 0.22177 0.82133 0.0
C282 C 0.92615 0.18497 0.68171 0.0
O283 O 0.88008 0.30913 0.82759 0.0
O284 O 0.88443 0.23969 0.8901 0.0
C285 C 0.9842 0.14666 0.88564 0.0
Fe286 Fe 0.64732 0.11537 0.59816 0.0
Fe287 Fe 0.66844 0.22202 0.52763 0.0
O288 O 0.62298 0.16325 0.54743 0.0
Fe289 Fe 0.55554 0.15031 0.51382 0.0
O290 O 0.51371 0.13006 0.57759 0.0
O291 O 0.58314 0.13441 0.6401 0.0
O292 O 0.68645 0.1776 0.63773 0.0
C293 C 0.67618 0.23417 0.63565 0.0
C294 C 0.56904 0.04557 0.52816 0.0
O295 O 0.65873 0.25681 0.59202 0.0
C296 C 0.63787 0.17613 0.43171 0.0
O297 O 0.71788 0.09485 0.55616 0.0
O298 O 0.73713 0.18808 0.54957 0.0
O299 O 0.58024 0.08114 0.49344 0.0
O300 O 0.60107 0.04968 0.57134 0.0
C301 C 0.55342 0.26211 0.51254 0.0
O302 O 0.67971 0.18975 0.46254 0.0
O303 O 0.5849 0.17256 0.44805 0.0
C304 C 0.75442 0.13597 0.54109 0.0
O305 O 0.60783 0.26611 0.50263 0.0
O306 O 0.52942 0.21797 0.53026 0.0
C307 C 0.52862 0.135 0.62704 0.0
Fe308 Fe 0.60081 0.91842 0.27763 0.0
Fe309 Fe 0.67253 0.80552 0.26382 0.0
O310 O 0.65958 0.87296 0.29743 0.0
Fe311 Fe 0.70746 0.8973 0.34815 0.0
O312 O 0.64523 0.93643 0.38772 0.0
O313 O 0.56602 0.90871 0.34202 0.0
O314 O 0.55673 0.8578 0.25263 0.0
C315 C 0.56073 0.80339 0.26253 0.0
C316 C 0.68686 1.0044 0.29109 0.0
O317 O 0.60487 0.77939 0.28024 0.0
C318 C 0.77728 0.819 0.27816 0.0
O319 O 0.63308 0.92969 0.21253 0.0
O320 O 0.65029 0.83488 0.19804 0.0
O321 O 0.72797 0.96786 0.30616 0.0
O322 O 0.63475 0.98711 0.29957 0.0
C323 C 0.68783 0.77861 0.37704 0.0
O324 O 0.7417 0.83024 0.24347 0.0
O325 O 0.77315 0.85105 0.32133 0.0
C326 C 0.64671 0.88785 0.18171 0.0
O327 O 0.69277 0.76369 0.32759 0.0
O328 O 0.68842 0.83313 0.3901 0.0
C329 C 0.58866 0.92616 0.38564 0.0
Fe330 Fe 1.01732 0.92251 1.01382 0.0
Fe331 Fe 0.92554 0.95746 0.09816 0.0
O332 O 0.94987 0.90957 0.04743 0.0
Fe333 Fe 0.90441 0.8508 1.02763 0.0
O334 O 0.96503 0.80672 1.00263 0.0
O335 O 0.04344 0.85485 0.03026 0.0
O336 O 0.05915 0.94276 0.07759 0.0
C337 C 0.04423 0.93782 0.12704 0.0
C338 C 0.93498 0.89669 0.93171 0.0
O339 O 0.98971 0.93841 0.1401 0.0
C340 C 0.81843 0.93685 0.04109 0.0
O341 O 0.99262 0.99168 0.99344 0.0
O342 O 0.97179 1.02314 0.07134 0.0
O343 O 0.89314 0.88307 0.96254 0.0
O344 O 0.98796 0.90026 0.94805 0.0
C345 C 0.89667 0.83865 0.13565 0.0
O346 O 0.85498 0.97797 0.05616 0.0
O347 O 0.83572 0.88474 0.04957 0.0
C348 C 1.00382 1.02726 1.02816 0.0
O349 O 0.88641 0.89523 0.13773 0.0
O350 O 0.91412 0.81601 0.09202 0.0
C351 C 1.01944 0.81071 1.01254 0.0
Fe352 Fe 0.60081 0.6544 0.77765 0.0
Fe353 Fe 0.70747 0.67553 0.84818 0.0
O354 O 0.65959 0.69985 0.79744 0.0
Fe355 Fe 0.67254 0.76728 0.7638 0.0
O356 O 0.60488 0.79342 0.78019 0.0
O357 O 0.55671 0.715 0.75264 0.0
O358 O 0.56603 0.66412 0.84204 0.0
C359 C 0.58867 0.64667 0.88567 0.0
C360 C 0.64667 0.68492 0.6817 0.0
O361 O 0.64524 0.63639 0.88774 0.0
C362 C 0.77726 0.75381 0.77819 0.0
O363 O 0.63477 0.58571 0.79959 0.0
O364 O 0.72799 0.60496 0.80619 0.0
O365 O 0.65033 0.73789 0.69803 0.0
O366 O 0.63307 0.6431 0.71256 0.0
C367 C 0.68782 0.79422 0.87704 0.0
O368 O 0.77316 0.72179 0.82138 0.0
O369 O 0.74172 0.74254 0.74347 0.0
C370 C 0.68687 0.56843 0.79108 0.0
O371 O 0.68841 0.73971 0.89011 0.0
O372 O 0.69275 0.80913 0.82757 0.0
C373 C 0.56076 0.76944 0.76242 0.0
Fe374 Fe 0.64731 0.45745 0.09817 0.0
Fe375 Fe 0.55556 0.42253 1.0138 0.0
O376 O 0.62298 0.40956 0.04744 0.0
Fe377 Fe 0.66844 0.35078 1.02764 0.0
O378 O 0.65871 0.316 0.09203 0.0
O379 O 0.68645 0.39522 0.13773 0.0
O380 O 0.58314 0.43839 0.14011 0.0
C381 C 0.52862 0.4378 0.12704 0.0
C382 C 0.75441 0.43684 0.04108 0.0
O383 O 0.51371 0.44273 0.07758 0.0
C384 C 0.63791 0.39666 0.9317 0.0
O385 O 0.60105 0.52314 0.07137 0.0
O386 O 0.58032 0.49171 0.99349 0.0
O387 O 0.73712 0.38474 0.04959 0.0
O388 O 0.71788 0.47796 0.05618 0.0
C389 C 0.55339 0.31074 1.01241 0.0
O390 O 0.58495 0.40033 0.94802 0.0
O391 O 0.67973 0.38305 0.96255 0.0
C392 C 0.569 0.52725 1.02819 0.0
O393 O 0.52941 0.35487 0.03017 0.0
O394 O 0.60783 0.30669 1.00263 0.0
C395 C 0.67617 0.33865 0.13566 0.0
Fe396 Fe 0.86538 0.3973 0.34818 0.0
Fe397 Fe 0.90031 0.30555 0.2638 0.0
O398 O 0.91327 0.37297 0.29744 0.0
Fe399 Fe 0.97205 0.41842 0.27765 0.0
O400 O 1.00682 0.4087 0.34204 0.0
O401 O 0.92761 0.43643 0.38774 0.0
O402 O 0.88444 0.33312 0.39011 0.0
C403 C 0.88504 0.2786 0.37704 0.0
C404 C 0.88598 0.50439 0.29108 0.0
O405 O 0.8801 0.26369 0.32758 0.0
C406 C 0.92619 0.3879 0.1817 0.0
O407 O 0.79969 0.35103 0.32138 0.0
O408 O 0.83113 0.33028 0.24347 0.0
O409 O 0.93809 0.48711 0.29959 0.0
O410 O 0.84486 0.46786 0.30619 0.0
C411 C 1.01209 0.30338 0.26242 0.0
O412 O 0.92252 0.33493 0.19803 0.0
O413 O 0.93978 0.42972 0.21256 0.0
C414 C 0.7956 0.31901 0.27819 0.0
O415 O 0.96797 0.2794 0.28019 0.0
O416 O 1.01614 0.35782 0.25264 0.0
C417 C 0.98418 0.42615 0.38567 0.0
Fe418 Fe 0.90442 0.72204 0.52764 0.0
Fe419 Fe 0.92554 0.61538 0.59817 0.0
O420 O 0.94987 0.66326 0.54744 0.0
Fe421 Fe 1.01729 0.65029 0.5138 0.0
O422 O 0.04345 0.71795 0.53017 0.0
O423 O 0.96503 0.76613 0.50263 0.0
O424 O 0.91414 0.75682 0.59203 0.0
C425 C 0.89669 0.73418 0.63566 0.0
C426 C 0.93494 0.67617 0.4317 0.0
O427 O 0.88641 0.6776 0.63773 0.0
C428 C 1.00385 0.54557 0.52819 0.0
O429 O 0.83573 0.68809 0.54959 0.0
O430 O 0.85498 0.59486 0.55618 0.0
O431 O 0.98791 0.67249 0.44802 0.0
O432 O 0.89313 0.68977 0.46255 0.0
C433 C 0.04424 0.63502 0.62704 0.0
O434 O 0.97181 0.54968 0.57137 0.0
O435 O 0.99254 0.58112 0.49349 0.0
C436 C 0.81845 0.63598 0.54108 0.0
O437 O 0.98972 0.63443 0.64011 0.0
O438 O 0.05914 0.63009 0.57758 0.0
C439 C 1.01947 0.76208 0.51241 0.0
Fe440 Fe 0.6008 0.41843 0.77966 0.0
Fe441 Fe 0.70747 0.3973 0.70913 0.0
O442 O 0.65958 0.37297 0.75987 0.0
Fe443 Fe 0.67254 0.30554 0.7935 0.0
O444 O 0.60488 0.27941 0.77709 0.0
O445 O 0.55672 0.35781 0.80467 0.0
O446 O 0.56602 0.40871 0.71527 0.0
C447 C 0.58866 0.42616 0.67164 0.0
C448 C 0.64672 0.38789 0.87559 0.0
O449 O 0.64524 0.43644 0.66957 0.0
C450 C 0.77725 0.31901 0.77912 0.0
O451 O 0.63476 0.48712 0.75772 0.0
O452 O 0.72799 0.46786 0.75112 0.0
O453 O 0.65033 0.33492 0.85927 0.0
O454 O 0.63307 0.42971 0.84476 0.0
C455 C 0.68782 0.2786 0.68026 0.0
O456 O 0.77316 0.35103 0.73593 0.0
O457 O 0.74172 0.33027 0.81384 0.0
C458 C 0.68687 0.5044 0.76622 0.0
O459 O 0.68841 0.33312 0.66719 0.0
O460 O 0.69275 0.26369 0.72972 0.0
C461 C 0.56076 0.30338 0.79488 0.0
Fe462 Fe 0.90442 0.35078 0.02967 0.0
Fe463 Fe 0.92554 0.45744 0.95914 0.0
O464 O 0.94987 0.40956 1.00987 0.0
Fe465 Fe 1.0173 0.42253 0.0435 0.0
O466 O 0.04344 0.35487 1.02711 0.0
O467 O 0.96503 0.30669 0.05468 0.0
O468 O 0.91413 0.316 0.96528 0.0
C469 C 0.89668 0.33864 0.92165 0.0
C470 C 0.93495 0.39671 0.12559 0.0
O471 O 0.8864 0.39521 0.91958 0.0
C472 C 1.00385 0.52725 0.02911 0.0
O473 O 0.83573 0.38473 1.00773 0.0
O474 O 0.85498 0.47796 1.00113 0.0
O475 O 0.98792 0.40033 0.10927 0.0
O476 O 0.89313 0.38304 0.09477 0.0
C477 C 0.04423 0.4378 0.93026 0.0
O478 O 0.9718 0.52314 0.98594 0.0
O479 O 0.99255 0.4917 0.06381 0.0
C480 C 0.81844 0.43684 1.01622 0.0
O481 O 0.98971 0.43839 0.91719 0.0
O482 O 0.05914 0.44273 0.97972 0.0
C483 C 1.01947 0.31074 0.04489 0.0
Fe484 Fe 0.97205 0.6544 0.27966 0.0
Fe485 Fe 0.86539 0.67552 0.20913 0.0
O486 O 0.91327 0.69985 0.25987 0.0
Fe487 Fe 0.90032 0.76728 0.2935 0.0
O488 O 0.96797 0.79342 0.27709 0.0
O489 O 1.01614 0.71501 0.30467 0.0
O490 O 1.00683 0.66411 0.21527 0.0
C491 C 0.98419 0.64666 0.17164 0.0
C492 C 0.92613 0.68493 0.37559 0.0
O493 O 0.92762 0.63638 0.16957 0.0
C494 C 0.7956 0.75381 0.27912 0.0
O495 O 0.9381 0.58571 0.25772 0.0
O496 O 0.84487 0.60496 0.25112 0.0
O497 O 0.92253 0.7379 0.35927 0.0
O498 O 0.93979 0.64311 0.34476 0.0
C499 C 0.88503 0.79422 0.18026 0.0
O500 O 0.7997 0.72179 0.23593 0.0
O501 O 0.83114 0.74255 0.31384 0.0
C502 C 0.88599 0.56842 0.26622 0.0
O503 O 0.88445 0.7397 0.16719 0.0
O504 O 0.8801 0.80913 0.22972 0.0
C505 C 1.01209 0.76944 0.29488 0.0
Fe506 Fe 0.66844 0.72204 0.52967 0.0
Fe507 Fe 0.64732 0.61538 0.45914 0.0
O508 O 0.62298 0.66326 0.50987 0.0
Fe509 Fe 0.55556 0.6503 0.5435 0.0
O510 O 0.52941 0.71796 0.52711 0.0
O511 O 0.60782 0.76613 0.55468 0.0
O512 O 0.65872 0.75682 0.46528 0.0
C513 C 0.67618 0.73418 0.42165 0.0
C514 C 0.6379 0.67611 0.62559 0.0
O515 O 0.68645 0.67761 0.41958 0.0
C516 C 0.569 0.54557 0.52911 0.0
O517 O 0.73713 0.68809 0.50773 0.0
O518 O 0.71788 0.59486 0.50113 0.0
O519 O 0.58493 0.6725 0.60927 0.0
O520 O 0.67972 0.68978 0.59476 0.0
C521 C 0.52862 0.63502 0.43026 0.0
O522 O 0.60105 0.54969 0.48594 0.0
O523 O 0.5803 0.58112 0.56381 0.0
C524 C 0.75441 0.63598 0.51622 0.0
O525 O 0.58314 0.63443 0.41719 0.0
O526 O 0.51371 0.63009 0.47972 0.0
C527 C 0.55339 0.76208 0.54489 0.0
Fe528 Fe 0.40031 0.30553 0.29349 0.0
Fe529 Fe 0.36538 0.3973 0.20913 0.0
O530 O 0.41326 0.37296 0.25987 0.0
Fe531 Fe 0.47204 0.41841 0.27966 0.0
O532 O 0.51613 0.3578 0.30466 0.0
O533 O 0.46796 0.27939 0.27707 0.0
O534 O 0.38007 0.26369 0.22972 0.0
C535 C 0.38502 0.2786 0.18026 0.0
C536 C 0.42619 0.38787 0.3756 0.0
O537 O 0.38443 0.33312 0.1672 0.0
C538 C 0.38599 0.5044 0.26621 0.0
O539 O 0.33113 0.33025 0.31385 0.0
O540 O 0.29969 0.35105 0.23595 0.0
O541 O 0.43978 0.4297 0.34475 0.0
O542 O 0.42254 0.3349 0.35927 0.0
C543 C 0.48419 0.42616 0.17164 0.0
O544 O 0.34487 0.46786 0.25113 0.0
O545 O 0.4381 0.48711 0.25772 0.0
C546 C 0.29557 0.31903 0.27913 0.0
O547 O 0.42761 0.43643 0.16957 0.0
O548 O 0.50682 0.40869 0.21527 0.0
C549 C 0.51209 0.30338 0.29482 0.0
Fe550 Fe 0.51731 0.6503 0.0435 0.0
Fe551 Fe 0.42554 0.61537 0.95914 0.0
O552 O 0.44988 0.66325 1.00987 0.0
Fe553 Fe 0.40443 0.72203 0.02966 0.0
O554 O 0.46504 0.76612 0.05466 0.0
O555 O 0.54345 0.71795 1.02708 0.0
O556 O 0.55915 0.63006 0.97973 0.0
C557 C 0.54424 0.63501 0.93027 0.0
C558 C 0.43497 0.67618 0.1256 0.0
O559 O 0.48972 0.63441 0.9172 0.0
C560 C 0.31844 0.63598 1.01621 0.0
O561 O 0.49259 0.58112 0.06385 0.0
O562 O 0.47179 0.54968 0.98595 0.0
O563 O 0.39315 0.68977 0.09475 0.0
O564 O 0.48794 0.67253 0.10927 0.0
C565 C 0.39669 0.73417 0.92164 0.0
O566 O 0.35498 0.59486 1.00113 0.0
O567 O 0.33573 0.68809 1.00772 0.0
C568 C 0.50382 0.54556 0.02914 0.0
O569 O 0.38642 0.67759 0.91957 0.0
O570 O 0.41415 0.75681 0.96527 0.0
C571 C 0.51947 0.76208 0.04482 0.0
Fe572 Fe 0.20747 0.67552 0.70913 0.0
Fe573 Fe 0.10081 0.65441 0.77966 0.0
O574 O 0.15959 0.69986 0.75987 0.0
Fe575 Fe 0.17255 0.76729 0.79349 0.0
O576 O 0.19278 0.80913 0.72972 0.0
O577 O 0.18843 0.7397 0.6672 0.0
O578 O 0.14524 0.6364 0.66957 0.0
C579 C 0.08867 0.64667 0.67164 0.0
C580 C 0.27728 0.75379 0.77913 0.0
O581 O 0.06603 0.66413 0.71527 0.0
C582 C 0.14666 0.68495 0.8756 0.0
O583 O 0.22798 0.60496 0.75113 0.0
O584 O 0.13476 0.58571 0.75772 0.0
O585 O 0.24172 0.74258 0.81385 0.0
O586 O 0.27316 0.72177 0.73595 0.0
C587 C 0.06076 0.76945 0.79482 0.0
O588 O 0.13308 0.64313 0.84475 0.0
O589 O 0.15032 0.73792 0.85927 0.0
C590 C 0.18686 0.56842 0.76621 0.0
O591 O 0.05673 0.71502 0.80466 0.0
O592 O 0.10489 0.79343 0.77707 0.0
C593 C 0.18783 0.79422 0.68026 0.0
Fe594 Fe 0.14731 0.45746 0.45914 0.0
Fe595 Fe 0.16843 0.35079 0.52966 0.0
O596 O 0.12298 0.40958 0.50987 0.0
Fe597 Fe 0.05554 0.42253 0.5435 0.0
O598 O 1.01371 0.44276 0.47973 0.0
O599 O 0.08313 0.43841 0.4172 0.0
O600 O 0.18644 0.39523 0.41957 0.0
C601 C 0.17617 0.33865 0.42164 0.0
C602 C 0.06904 0.52727 0.52914 0.0
O603 O 0.15871 0.31601 0.46527 0.0
C604 C 0.13788 0.39664 0.6256 0.0
O605 O 0.21788 0.47796 0.50113 0.0
O606 O 0.23712 0.38474 0.50772 0.0
O607 O 0.08026 0.4917 0.56385 0.0
O608 O 0.10106 0.52315 0.48595 0.0
C609 C 0.05339 0.31074 0.54482 0.0
O610 O 0.17971 0.38305 0.59475 0.0
O611 O 0.08492 0.40029 0.60927 0.0
C612 C 0.25441 0.43684 0.51621 0.0
O613 O 0.10781 0.3067 0.55466 0.0
O614 O 1.02941 0.35488 0.52708 0.0
C615 C 1.02862 0.43782 0.43027 0.0
Fe616 Fe 0.47205 0.65441 0.27763 0.0
Fe617 Fe 0.40031 0.7673 0.26381 0.0
O618 O 0.41326 0.69986 0.29743 0.0
Fe619 Fe 0.36539 0.67552 0.34816 0.0
O620 O 0.42762 0.63639 0.38773 0.0
O621 O 0.50683 0.66412 0.34202 0.0
O622 O 0.51613 0.71502 0.25264 0.0
C623 C 0.5121 0.76945 0.26248 0.0
C624 C 0.386 0.56842 0.29109 0.0
O625 O 0.46797 0.79343 0.28024 0.0
C626 C 0.29557 0.7538 0.27817 0.0
O627 O 0.43978 0.64313 0.21254 0.0
O628 O 0.42254 0.73793 0.19804 0.0
O629 O 0.34488 0.60496 0.30617 0.0
O630 O 0.4381 0.58571 0.29957 0.0
C631 C 0.38502 0.79422 0.37704 0.0
O632 O 0.33114 0.74259 0.24345 0.0
O633 O 0.29969 0.72177 0.32135 0.0
C634 C 0.42614 0.68496 0.18171 0.0
O635 O 0.38007 0.80913 0.32759 0.0
O636 O 0.38443 0.73969 0.39011 0.0
C637 C 0.48419 0.64666 0.38565 0.0
Fe638 Fe 0.16843 0.72203 1.02763 0.0
Fe639 Fe 0.05554 0.6503 1.01381 0.0
O640 O 0.12298 0.66325 0.04743 0.0
Fe641 Fe 0.14732 0.61537 0.09816 0.0
O642 O 0.18645 0.6776 0.13772 0.0
O643 O 0.15871 0.75681 0.09202 0.0
O644 O 0.10781 0.76612 1.00264 0.0
C645 C 0.05338 0.76208 1.01248 0.0
C646 C 0.25442 0.63598 0.04109 0.0
O647 O 1.02941 0.71795 0.03024 0.0
C648 C 0.06904 0.54556 1.02816 0.0
O649 O 0.17971 0.68977 0.96253 0.0
O650 O 0.0849 0.67253 0.94804 0.0
O651 O 0.21788 0.59486 0.05616 0.0
O652 O 0.23713 0.68809 0.04956 0.0
C653 C 1.02862 0.635 0.12704 0.0
O654 O 0.08025 0.58113 0.99345 0.0
O655 O 0.10107 0.54968 0.07134 0.0
C656 C 0.13787 0.67613 0.93171 0.0
O657 O 1.01371 0.63006 0.07758 0.0
O658 O 0.08314 0.63442 0.1401 0.0
C659 C 0.17618 0.73418 0.13565 0.0
Fe660 Fe 0.20747 0.3973 0.84816 0.0
Fe661 Fe 0.10081 0.41841 0.77763 0.0
O662 O 0.15959 0.37296 0.79743 0.0
Fe663 Fe 0.17254 0.30552 0.76381 0.0
O664 O 0.19279 0.26369 0.82759 0.0
O665 O 0.18842 0.33313 0.89011 0.0
O666 O 0.14524 0.43643 0.88773 0.0
C667 C 0.08866 0.42616 0.88565 0.0
C668 C 0.27728 0.31903 0.77817 0.0
O669 O 0.06603 0.4087 0.84202 0.0
C670 C 0.14671 0.38786 0.68171 0.0
O671 O 0.22798 0.46786 0.80617 0.0
O672 O 0.13475 0.48711 0.79957 0.0
O673 O 0.24172 0.33024 0.74345 0.0
O674 O 0.27316 0.35106 0.82135 0.0
C675 C 0.06076 0.30337 0.76248 0.0
O676 O 0.13307 0.42969 0.71254 0.0
O677 O 0.15031 0.33489 0.69804 0.0
C678 C 0.18686 0.5044 0.79109 0.0
O679 O 0.05673 0.3578 0.75264 0.0
O680 O 0.10489 0.2794 0.78024 0.0
C681 C 0.18784 0.27861 0.87704 0.0
Fe682 Fe 0.51732 0.42252 0.51381 0.0
Fe683 Fe 0.42554 0.45745 0.59816 0.0
O684 O 0.44988 0.40957 0.54743 0.0
Fe685 Fe 0.40443 0.35079 0.52763 0.0
O686 O 0.46505 0.3067 0.50264 0.0
O687 O 0.54345 0.35487 0.53024 0.0
O688 O 0.55915 0.44277 0.57758 0.0
C689 C 0.54423 0.43782 0.62704 0.0
C690 C 0.43498 0.39669 0.43171 0.0
O691 O 0.48972 0.43841 0.6401 0.0
C692 C 0.31844 0.43684 0.54109 0.0
O693 O 0.4926 0.4917 0.49345 0.0
O694 O 0.47179 0.52314 0.57134 0.0
O695 O 0.39315 0.38305 0.46253 0.0
O696 O 0.48795 0.40029 0.44804 0.0
C697 C 0.39668 0.33865 0.63565 0.0
O698 O 0.35498 0.47796 0.55616 0.0
O699 O 0.33573 0.38473 0.54956 0.0
C700 C 0.50382 0.52726 0.52816 0.0
O701 O 0.38641 0.39522 0.63772 0.0
O702 O 0.41414 0.31601 0.59202 0.0
C703 C 0.51947 0.31074 0.51248 0.0
loop_
_geom_bond_atom_site_label_1
_geom_bond_atom_site_label_2
_geom_bond_distance
_geom_bond_site_symmetry_2
_ccdc_geom_bond_type
Fe0 O2 1.918 . S
Fe0 O5 1.997 . S
Fe0 O6 2.002 . S
Fe0 O11 1.976 . S
Fe0 O14 1.996 . S
Fe1 O2 1.918 . S
Fe1 O9 1.997 . S
Fe1 O12 1.996 . S
Fe1 O16 1.976 . S
Fe1 O19 2.002 . S
O2 Fe0 1.918 . S
O2 Fe1 1.918 . S
O2 Fe3 1.918 . S
Fe3 O2 1.918 . S
Fe3 O4 2.002 . S
Fe3 O13 1.976 . S
Fe3 O17 1.996 . S
Fe3 O20 1.997 . S
O4 Fe3 2.002 . S
O4 C21 1.295 . S
O5 Fe0 1.997 . S
O5 C21 1.235 . S
O6 Fe0 2.002 . S
O6 C7 1.295 . S
C7 O6 1.295 . S
C7 O9 1.235 . S
C8 O13 1.287 . S
C8 O14 1.255 . S
O9 Fe1 1.997 . S
O9 C7 1.235 . S
C10 O16 1.287 . S
C10 O17 1.255 . S
O11 Fe0 1.976 . S
O11 C18 1.287 . S
O12 Fe1 1.996 . S
O12 C18 1.255 . S
O13 Fe3 1.976 . S
O13 C8 1.287 . S
O14 Fe0 1.996 . S
O14 C8 1.255 . S
C15 O19 1.295 . S
C15 O20 1.235 . S
O16 Fe1 1.976 . S
O16 C10 1.287 . S
O17 Fe3 1.996 . S
O17 C10 1.255 . S
C18 O11 1.287 . S
C18 O12 1.255 . S
O19 Fe1 2.002 . S
O19 C15 1.295 . S
O20 Fe3 1.997 . S
O20 C15 1.235 . S
C21 O4 1.295 . S
C21 O5 1.235 . S
Fe22 O24 1.918 . S
Fe22 O27 1.997 . S
Fe22 O28 2.002 . S
Fe22 O33 1.976 . S
Fe22 O36 1.996 . S
Fe23 O24 1.918 . S
Fe23 O31 1.997 1_455 S
Fe23 O34 1.996 . S
Fe23 O38 1.976 . S
Fe23 O41 2.002 1_455 S
O24 Fe22 1.918 . S
O24 Fe23 1.918 . S
O24 Fe25 1.918 . S
Fe25 O24 1.918 . S
Fe25 O26 2.002 . S
Fe25 O35 1.976 . S
Fe25 O39 1.996 . S
Fe25 O42 1.997 . S
O26 Fe25 2.002 . S
O26 C43 1.295 . S
O27 Fe22 1.997 . S
O27 C43 1.235 . S
O28 Fe22 2.002 . S
O28 C29 1.295 1_455 S
C29 O28 1.295 1_655 S
C29 O31 1.235 . S
C30 O35 1.287 . S
C30 O36 1.255 . S
O31 Fe23 1.997 1_655 S
O31 C29 1.235 . S
C32 O38 1.287 . S
C32 O39 1.255 . S
O33 Fe22 1.976 . S
O33 C40 1.287 . S
O34 Fe23 1.996 . S
O34 C40 1.255 . S
O35 Fe25 1.976 . S
O35 C30 1.287 . S
O36 Fe22 1.996 . S
O36 C30 1.255 . S
C37 O41 1.295 1_455 S
C37 O42 1.235 . S
O38 Fe23 1.976 . S
O38 C32 1.287 . S
O39 Fe25 1.996 . S
O39 C32 1.255 . S
C40 O33 1.287 . S
C40 O34 1.255 . S
O41 Fe23 2.002 1_655 S
O41 C37 1.295 1_655 S
O42 Fe25 1.997 . S
O42 C37 1.235 . S
C43 O26 1.295 . S
C43 O27 1.235 . S
Fe44 O46 1.918 . S
Fe44 O49 1.997 . S
Fe44 O50 2.002 . S
Fe44 O55 1.976 . S
Fe44 O58 1.996 . S
Fe45 O46 1.918 . S
Fe45 O53 1.997 . S
Fe45 O56 1.996 . S
Fe45 O60 1.976 . S
Fe45 O63 2.002 . S
O46 Fe44 1.918 . S
O46 Fe45 1.918 . S
O46 Fe47 1.918 . S
Fe47 O46 1.918 . S
Fe47 O48 2.002 . S
Fe47 O57 1.976 . S
Fe47 O61 1.996 . S
Fe47 O64 1.997 . S
O48 Fe47 2.002 . S
O48 C65 1.295 . S
O49 Fe44 1.997 . S
O49 C65 1.235 . S
O50 Fe44 2.002 . S
O50 C51 1.295 . S
C51 O50 1.295 . S
C51 O53 1.235 . S
C52 O57 1.287 . S
C52 O58 1.255 . S
O53 Fe45 1.997 . S
O53 C51 1.235 . S
C54 O60 1.287 . S
C54 O61 1.255 . S
O55 Fe44 1.976 . S
O55 C62 1.287 . S
O56 Fe45 1.996 . S
O56 C62 1.255 . S
O57 Fe47 1.976 . S
O57 C52 1.287 . S
O58 Fe44 1.996 . S
O58 C52 1.255 . S
C59 O63 1.295 . S
C59 O64 1.235 . S
O60 Fe45 1.976 . S
O60 C54 1.287 . S
O61 Fe47 1.996 . S
O61 C54 1.255 . S
C62 O55 1.287 . S
C62 O56 1.255 . S
O63 Fe45 2.002 . S
O63 C59 1.295 . S
O64 Fe47 1.997 . S
O64 C59 1.235 . S
C65 O48 1.295 . S
C65 O49 1.235 . S
Fe66 O68 1.918 1_556 S
Fe66 O71 1.997 . S
Fe66 O72 2.002 1_556 S
Fe66 O77 1.976 . S
Fe66 O80 1.996 . S
Fe67 O68 1.918 . S
Fe67 O75 1.997 . S
Fe67 O78 1.996 . S
Fe67 O82 1.976 . S
Fe67 O85 2.002 . S
O68 Fe66 1.918 1_554 S
O68 Fe67 1.918 . S
O68 Fe69 1.918 1_554 S
Fe69 O68 1.918 1_556 S
Fe69 O70 2.002 . S
Fe69 O79 1.976 . S
Fe69 O83 1.996 . S
Fe69 O86 1.997 1_556 S
O70 Fe69 2.002 . S
O70 C87 1.295 . S
O71 Fe66 1.997 . S
O71 C87 1.235 . S
O72 Fe66 2.002 1_554 S
O72 C73 1.295 . S
C73 O72 1.295 . S
C73 O75 1.235 . S
C74 O79 1.287 . S
C74 O80 1.255 . S
O75 Fe67 1.997 . S
O75 C73 1.235 . S
C76 O82 1.287 . S
C76 O83 1.255 1_554 S
O77 Fe66 1.976 . S
O77 C84 1.287 1_556 S
O78 Fe67 1.996 . S
O78 C84 1.255 . S
O79 Fe69 1.976 . S
O79 C74 1.287 . S
O80 Fe66 1.996 . S
O80 C74 1.255 . S
C81 O85 1.295 . S
C81 O86 1.235 . S
O82 Fe67 1.976 . S
O82 C76 1.287 . S
O83 Fe69 1.996 . S
O83 C76 1.255 1_556 S
C84 O77 1.287 1_554 S
C84 O78 1.255 . S
O85 Fe67 2.002 . S
O85 C81 1.295 . S
O86 Fe69 1.997 1_554 S
O86 C81 1.235 . S
C87 O70 1.295 . S
C87 O71 1.235 . S
Fe88 O90 1.918 . S
Fe88 O93 1.997 . S
Fe88 O94 2.002 . S
Fe88 O99 1.976 . S
Fe88 O102 1.996 . S
Fe89 O90 1.918 . S
Fe89 O97 1.997 . S
Fe89 O100 1.996 . S
Fe89 O104 1.976 . S
Fe89 O107 2.002 . S
O90 Fe88 1.918 . S
O90 Fe89 1.918 . S
O90 Fe91 1.918 . S
Fe91 O90 1.918 . S
Fe91 O92 2.002 . S
Fe91 O101 1.976 . S
Fe91 O105 1.996 . S
Fe91 O108 1.997 . S
O92 Fe91 2.002 . S
O92 C109 1.295 . S
O93 Fe88 1.997 . S
O93 C109 1.235 . S
O94 Fe88 2.002 . S
O94 C95 1.295 . S
C95 O94 1.295 . S
C95 O97 1.235 . S
C96 O101 1.287 . S
C96 O102 1.255 . S
O97 Fe89 1.997 . S
O97 C95 1.235 . S
C98 O104 1.287 . S
C98 O105 1.255 . S
O99 Fe88 1.976 . S
O99 C106 1.287 . S
O100 Fe89 1.996 . S
O100 C106 1.255 . S
O101 Fe91 1.976 . S
O101 C96 1.287 . S
O102 Fe88 1.996 . S
O102 C96 1.255 . S
C103 O107 1.295 . S
C103 O108 1.235 . S
O104 Fe89 1.976 . S
O104 C98 1.287 . S
O105 Fe91 1.996 . S
O105 C98 1.255 . S
C106 O99 1.287 . S
C106 O100 1.255 . S
O107 Fe89 2.002 . S
O107 C103 1.295 . S
O108 Fe91 1.997 . S
O108 C103 1.235 . S
C109 O92 1.295 . S
C109 O93 1.235 . S
Fe110 O112 1.918 . S
Fe110 O115 1.997 . S
Fe110 O116 2.002 . S
Fe110 O121 1.976 . S
Fe110 O124 1.996 . S
Fe111 O112 1.918 . S
Fe111 O119 1.997 . S
Fe111 O122 1.996 . S
Fe111 O126 1.976 . S
Fe111 O129 2.002 . S
O112 Fe110 1.918 . S
O112 Fe111 1.918 . S
O112 Fe113 1.918 . S
Fe113 O112 1.918 . S
Fe113 O114 2.002 . S
Fe113 O123 1.976 . S
Fe113 O127 1.996 . S
Fe113 O130 1.997 . S
O114 Fe113 2.002 . S
O114 C131 1.295 . S
O115 Fe110 1.997 . S
O115 C131 1.235 . S
O116 Fe110 2.002 . S
O116 C117 1.295 . S
C117 O116 1.295 . S
C117 O119 1.235 . S
C118 O123 1.287 . S
C118 O124 1.255 . S
O119 Fe111 1.997 . S
O119 C117 1.235 . S
C120 O126 1.287 . S
C120 O127 1.255 . S
O121 Fe110 1.976 . S
O121 C128 1.287 . S
O122 Fe111 1.996 . S
O122 C128 1.255 . S
O123 Fe113 1.976 . S
O123 C118 1.287 . S
O124 Fe110 1.996 . S
O124 C118 1.255 . S
C125 O129 1.295 . S
C125 O130 1.235 . S
O126 Fe111 1.976 . S
O126 C120 1.287 . S
O127 Fe113 1.996 . S
O127 C120 1.255 . S
C128 O121 1.287 . S
C128 O122 1.255 . S
O129 Fe111 2.002 . S
O129 C125 1.295 . S
O130 Fe113 1.997 . S
O130 C125 1.235 . S
C131 O114 1.295 . S
C131 O115 1.235 . S
Fe132 O134 1.918 . S
Fe132 O137 1.997 . S
Fe132 O138 2.002 . S
Fe132 O143 1.976 . S
Fe132 O146 1.996 . S
Fe133 O134 1.918 . S
Fe133 O141 1.997 . S
Fe133 O144 1.996 . S
Fe133 O148 1.976 . S
Fe133 O151 2.002 . S
O134 Fe132 1.918 . S
O134 Fe133 1.918 . S
O134 Fe135 1.918 . S
Fe135 O134 1.918 . S
Fe135 O136 2.002 . S
Fe135 O145 1.976 . S
Fe135 O149 1.996 . S
Fe135 O152 1.997 . S
O136 Fe135 2.002 . S
O136 C153 1.295 . S
O137 Fe132 1.997 . S
O137 C153 1.235 . S
O138 Fe132 2.002 . S
O138 C139 1.295 . S
C139 O138 1.295 . S
C139 O141 1.235 . S
C140 O145 1.287 . S
C140 O146 1.255 . S
O141 Fe133 1.997 . S
O141 C139 1.235 . S
C142 O148 1.287 . S
C142 O149 1.255 . S
O143 Fe132 1.976 . S
O143 C150 1.287 . S
O144 Fe133 1.996 . S
O144 C150 1.255 . S
O145 Fe135 1.976 . S
O145 C140 1.287 . S
O146 Fe132 1.996 . S
O146 C140 1.255 . S
C147 O151 1.295 . S
C147 O152 1.235 . S
O148 Fe133 1.976 . S
O148 C142 1.287 . S
O149 Fe135 1.996 . S
O149 C142 1.255 . S
C150 O143 1.287 . S
C150 O144 1.255 . S
O151 Fe133 2.002 . S
O151 C147 1.295 . S
O152 Fe135 1.997 . S
O152 C147 1.235 . S
C153 O136 1.295 . S
C153 O137 1.235 . S
Fe154 O156 1.918 . S
Fe154 O159 1.997 . S
Fe154 O160 2.002 . S
Fe154 O165 1.976 . S
Fe154 O168 1.996 . S
Fe155 O156 1.918 1_554 S
Fe155 O163 1.997 1_454 S
Fe155 O166 1.996 . S
Fe155 O170 1.976 . S
Fe155 O173 2.002 1_455 S
O156 Fe154 1.918 . S
O156 Fe155 1.918 1_556 S
O156 Fe157 1.918 1_556 S
Fe157 O156 1.918 1_554 S
Fe157 O158 2.002 1_554 S
Fe157 O167 1.976 . S
Fe157 O171 1.996 . S
Fe157 O174 1.997 . S
O158 Fe157 2.002 1_556 S
O158 C175 1.295 . S
O159 Fe154 1.997 . S
O159 C175 1.235 . S
O160 Fe154 2.002 . S
O160 C161 1.295 1_455 S
C161 O160 1.295 1_655 S
C161 O163 1.235 . S
C162 O167 1.287 1_556 S
C162 O168 1.255 . S
O163 Fe155 1.997 1_656 S
O163 C161 1.235 . S
C164 O170 1.287 . S
C164 O171 1.255 . S
O165 Fe154 1.976 . S
O165 C172 1.287 . S
O166 Fe155 1.996 . S
O166 C172 1.255 1_554 S
O167 Fe157 1.976 . S
O167 C162 1.287 1_554 S
O168 Fe154 1.996 . S
O168 C162 1.255 . S
C169 O173 1.295 1_455 S
C169 O174 1.235 . S
O170 Fe155 1.976 . S
O170 C164 1.287 . S
O171 Fe157 1.996 . S
O171 C164 1.255 . S
C172 O165 1.287 . S
C172 O166 1.255 1_556 S
O173 Fe155 2.002 1_655 S
O173 C169 1.295 1_655 S
O174 Fe157 1.997 . S
O174 C169 1.235 . S
C175 O158 1.295 . S
C175 O159 1.235 . S
Fe176 O178 1.918 . S
Fe176 O181 1.997 . S
Fe176 O182 2.002 . S
Fe176 O187 1.976 . S
Fe176 O190 1.996 . S
Fe177 O178 1.918 . S
Fe177 O185 1.997 . S
Fe177 O188 1.996 . S
Fe177 O192 1.976 . S
Fe177 O195 2.012 . S
O178 Fe176 1.918 . S
O178 Fe177 1.918 . S
O178 Fe179 1.918 . S
Fe179 O178 1.918 . S
Fe179 O180 2.002 . S
Fe179 O189 1.976 . S
Fe179 O193 1.996 . S
Fe179 O196 1.997 . S
O180 Fe179 2.002 . S
O180 C197 1.295 . S
O181 Fe176 1.997 . S
O181 C197 1.235 . S
O182 Fe176 2.002 . S
O182 C183 1.295 . S
C183 O182 1.295 . S
C183 O185 1.235 . S
C184 O189 1.287 . S
C184 O190 1.255 . S
O185 Fe177 1.997 . S
O185 C183 1.235 . S
C186 O192 1.287 . S
C186 O193 1.255 . S
O187 Fe176 1.976 . S
O187 C194 1.287 . S
O188 Fe177 1.996 . S
O188 C194 1.255 . S
O189 Fe179 1.976 . S
O189 C184 1.287 . S
O190 Fe176 1.996 . S
O190 C184 1.255 . S
C191 O195 1.297 . S
C191 O196 1.235 . S
O192 Fe177 1.976 . S
O192 C186 1.287 . S
O193 Fe179 1.996 . S
O193 C186 1.255 . S
C194 O187 1.287 . S
C194 O188 1.255 . S
O195 Fe177 2.012 . S
O195 C191 1.297 . S
O196 Fe179 1.997 . S
O196 C191 1.235 . S
C197 O180 1.295 . S
C197 O181 1.235 . S
Fe198 O200 1.918 . S
Fe198 O203 1.997 1_655 S
Fe198 O204 2.002 1_655 S
Fe198 O209 1.976 . S
Fe198 O212 1.996 . S
Fe199 O200 1.918 . S
Fe199 O207 1.997 . S
Fe199 O210 1.996 . S
Fe199 O214 1.976 . S
Fe199 O217 2.002 . S
O200 Fe198 1.918 . S
O200 Fe199 1.918 . S
O200 Fe201 1.918 . S
Fe201 O200 1.918 . S
Fe201 O202 2.002 . S
Fe201 O211 1.976 . S
Fe201 O215 1.996 . S
Fe201 O218 1.997 . S
O202 Fe201 2.002 . S
O202 C219 1.295 . S
O203 Fe198 1.997 1_455 S
O203 C219 1.235 1_455 S
O204 Fe198 2.002 1_455 S
O204 C205 1.295 . S
C205 O204 1.295 . S
C205 O207 1.235 1_455 S
C206 O211 1.287 . S
C206 O212 1.255 . S
O207 Fe199 1.997 . S
O207 C205 1.235 1_655 S
C208 O214 1.287 . S
C208 O215 1.255 . S
O209 Fe198 1.976 . S
O209 C216 1.287 . S
O210 Fe199 1.996 . S
O210 C216 1.255 . S
O211 Fe201 1.976 . S
O211 C206 1.287 . S
O212 Fe198 1.996 . S
O212 C206 1.255 . S
C213 O217 1.295 . S
C213 O218 1.235 . S
O214 Fe199 1.976 . S
O214 C208 1.287 . S
O215 Fe201 1.996 . S
O215 C208 1.255 . S
C216 O209 1.287 . S
C216 O210 1.255 . S
O217 Fe199 2.002 . S
O217 C213 1.295 . S
O218 Fe201 1.997 . S
O218 C213 1.235 . S
C219 O202 1.295 . S
C219 O203 1.235 1_655 S
Fe220 O222 1.918 . S
Fe220 O225 1.997 . S
Fe220 O226 2.002 . S
Fe220 O231 1.976 . S
Fe220 O234 1.996 . S
Fe221 O222 1.918 . S
Fe221 O229 1.997 . S
Fe221 O232 1.996 . S
Fe221 O236 1.976 . S
Fe221 O239 2.002 . S
O222 Fe220 1.918 . S
O222 Fe221 1.918 . S
O222 Fe223 1.918 . S
Fe223 O222 1.918 . S
Fe223 O224 2.002 . S
Fe223 O233 1.976 . S
Fe223 O237 1.996 . S
Fe223 O240 1.997 . S
O224 Fe223 2.002 . S
O224 C241 1.295 . S
O225 Fe220 1.997 . S
O225 C241 1.235 . S
O226 Fe220 2.002 . S
O226 C227 1.295 . S
C227 O226 1.295 . S
C227 O229 1.235 . S
C228 O233 1.287 . S
C228 O234 1.255 . S
O229 Fe221 1.997 . S
O229 C227 1.235 . S
C230 O236 1.287 . S
C230 O237 1.255 . S
O231 Fe220 1.976 . S
O231 C238 1.287 . S
O232 Fe221 1.996 . S
O232 C238 1.255 . S
O233 Fe223 1.976 . S
O233 C228 1.287 . S
O234 Fe220 1.996 . S
O234 C228 1.255 . S
C235 O239 1.295 . S
C235 O240 1.235 . S
O236 Fe221 1.976 . S
O236 C230 1.287 . S
O237 Fe223 1.996 . S
O237 C230 1.255 . S
C238 O231 1.287 . S
C238 O232 1.255 . S
O239 Fe221 2.002 . S
O239 C235 1.295 . S
O240 Fe223 1.997 . S
O240 C235 1.235 . S
C241 O224 1.295 . S
C241 O225 1.235 . S
Fe242 O244 1.918 1_554 S
Fe242 O247 1.997 . S
Fe242 O248 2.002 1_554 S
Fe242 O253 1.976 . S
Fe242 O256 1.996 . S
Fe243 O244 1.918 . S
Fe243 O251 1.997 . S
Fe243 O254 1.996 . S
Fe243 O258 1.976 . S
Fe243 O261 2.002 . S
O244 Fe242 1.918 1_556 S
O244 Fe243 1.918 . S
O244 Fe245 1.918 1_556 S
Fe245 O244 1.918 1_554 S
Fe245 O246 2.002 . S
Fe245 O255 1.976 . S
Fe245 O259 1.996 . S
Fe245 O262 1.997 1_554 S
O246 Fe245 2.002 . S
O246 C263 1.295 . S
O247 Fe242 1.997 . S
O247 C263 1.235 . S
O248 Fe242 2.002 1_556 S
O248 C249 1.295 . S
C249 O248 1.295 . S
C249 O251 1.235 . S
C250 O255 1.287 . S
C250 O256 1.255 . S
O251 Fe243 1.997 . S
O251 C249 1.235 . S
C252 O258 1.287 . S
C252 O259 1.255 1_556 S
O253 Fe242 1.976 . S
O253 C260 1.287 1_554 S
O254 Fe243 1.996 . S
O254 C260 1.255 . S
O255 Fe245 1.976 . S
O255 C250 1.287 . S
O256 Fe242 1.996 . S
O256 C250 1.255 . S
C257 O261 1.295 . S
C257 O262 1.235 . S
O258 Fe243 1.976 . S
O258 C252 1.287 . S
O259 Fe245 1.996 . S
O259 C252 1.255 1_554 S
C260 O253 1.287 1_556 S
C260 O254 1.255 . S
O261 Fe243 2.002 . S
O261 C257 1.295 . S
O262 Fe245 1.997 1_556 S
O262 C257 1.235 . S
C263 O246 1.295 . S
C263 O247 1.235 . S
Fe264 O266 1.918 . S
Fe264 O269 1.997 . S
Fe264 O270 2.012 . S
Fe264 O275 1.976 . S
Fe264 O278 1.996 . S
Fe265 O266 1.918 . S
Fe265 O273 1.997 . S
Fe265 O276 1.996 . S
Fe265 O280 1.976 . S
Fe265 O283 2.002 . S
O266 Fe264 1.918 . S
O266 Fe265 1.918 . S
O266 Fe267 1.918 . S
Fe267 O266 1.918 . S
Fe267 O268 2.002 . S
Fe267 O277 1.976 . S
Fe267 O281 1.996 . S
Fe267 O284 1.997 . S
O268 Fe267 2.002 . S
O268 C285 1.295 . S
O269 Fe264 1.997 . S
O269 C285 1.235 . S
O270 Fe264 2.012 . S
O270 C271 1.297 . S
C271 O270 1.297 . S
C271 O273 1.235 . S
C272 O277 1.287 . S
C272 O278 1.255 . S
O273 Fe265 1.997 . S
O273 C271 1.235 . S
C274 O280 1.287 . S
C274 O281 1.255 . S
O275 Fe264 1.976 . S
O275 C282 1.287 . S
O276 Fe265 1.996 . S
O276 C282 1.255 . S
O277 Fe267 1.976 . S
O277 C272 1.287 . S
O278 Fe264 1.996 . S
O278 C272 1.255 . S
C279 O283 1.295 . S
C279 O284 1.235 . S
O280 Fe265 1.976 . S
O280 C274 1.287 . S
O281 Fe267 1.996 . S
O281 C274 1.255 . S
C282 O275 1.287 . S
C282 O276 1.255 . S
O283 Fe265 2.002 . S
O283 C279 1.295 . S
O284 Fe267 1.997 . S
O284 C279 1.235 . S
C285 O268 1.295 . S
C285 O269 1.235 . S
Fe286 O288 1.918 . S
Fe286 O291 1.997 . S
Fe286 O292 2.002 . S
Fe286 O297 1.976 . S
Fe286 O300 1.996 . S
Fe287 O288 1.918 . S
Fe287 O295 1.997 . S
Fe287 O298 1.996 . S
Fe287 O302 1.976 . S
Fe287 O305 2.002 . S
O288 Fe286 1.918 . S
O288 Fe287 1.918 . S
O288 Fe289 1.918 . S
Fe289 O288 1.918 . S
Fe289 O290 2.002 . S
Fe289 O299 1.976 . S
Fe289 O303 1.996 . S
Fe289 O306 1.997 . S
O290 Fe289 2.002 . S
O290 C307 1.295 . S
O291 Fe286 1.997 . S
O291 C307 1.235 . S
O292 Fe286 2.002 . S
O292 C293 1.295 . S
C293 O292 1.295 . S
C293 O295 1.235 . S
C294 O299 1.287 . S
C294 O300 1.255 . S
O295 Fe287 1.997 . S
O295 C293 1.235 . S
C296 O302 1.287 . S
C296 O303 1.255 . S
O297 Fe286 1.976 . S
O297 C304 1.287 . S
O298 Fe287 1.996 . S
O298 C304 1.255 . S
O299 Fe289 1.976 . S
O299 C294 1.287 . S
O300 Fe286 1.996 . S
O300 C294 1.255 . S
C301 O305 1.295 . S
C301 O306 1.235 . S
O302 Fe287 1.976 . S
O302 C296 1.287 . S
O303 Fe289 1.996 . S
O303 C296 1.255 . S
C304 O297 1.287 . S
C304 O298 1.255 . S
O305 Fe287 2.002 . S
O305 C301 1.295 . S
O306 Fe289 1.997 . S
O306 C301 1.235 . S
C307 O290 1.295 . S
C307 O291 1.235 . S
Fe308 O310 1.918 . S
Fe308 O313 1.997 . S
Fe308 O314 2.002 . S
Fe308 O319 1.976 . S
Fe308 O322 1.996 . S
Fe309 O310 1.918 . S
Fe309 O317 1.997 . S
Fe309 O320 1.996 . S
Fe309 O324 1.976 . S
Fe309 O327 2.002 . S
O310 Fe308 1.918 . S
O310 Fe309 1.918 . S
O310 Fe311 1.918 . S
Fe311 O310 1.918 . S
Fe311 O312 2.002 . S
Fe311 O321 1.976 . S
Fe311 O325 1.996 . S
Fe311 O328 1.997 . S
O312 Fe311 2.002 . S
O312 C329 1.295 . S
O313 Fe308 1.997 . S
O313 C329 1.235 . S
O314 Fe308 2.002 . S
O314 C315 1.295 . S
C315 O314 1.295 . S
C315 O317 1.235 . S
C316 O321 1.287 . S
C316 O322 1.255 . S
O317 Fe309 1.997 . S
O317 C315 1.235 . S
C318 O324 1.287 . S
C318 O325 1.255 . S
O319 Fe308 1.976 . S
O319 C326 1.287 . S
O320 Fe309 1.996 . S
O320 C326 1.255 . S
O321 Fe311 1.976 . S
O321 C316 1.287 . S
O322 Fe308 1.996 . S
O322 C316 1.255 . S
C323 O327 1.295 . S
C323 O328 1.235 . S
O324 Fe309 1.976 . S
O324 C318 1.287 . S
O325 Fe311 1.996 . S
O325 C318 1.255 . S
C326 O319 1.287 . S
C326 O320 1.255 . S
O327 Fe309 2.002 . S
O327 C323 1.295 . S
O328 Fe311 1.997 . S
O328 C323 1.235 . S
C329 O312 1.295 . S
C329 O313 1.235 . S
Fe330 O332 1.918 1_556 S
Fe330 O335 1.997 1_655 S
Fe330 O336 2.002 1_656 S
Fe330 O341 1.976 . S
Fe330 O344 1.996 . S
Fe331 O332 1.918 . S
Fe331 O339 1.997 . S
Fe331 O342 1.996 . S
Fe331 O346 1.976 . S
Fe331 O349 2.002 . S
O332 Fe330 1.918 1_554 S
O332 Fe331 1.918 . S
O332 Fe333 1.918 1_554 S
Fe333 O332 1.918 1_556 S
Fe333 O334 2.002 . S
Fe333 O343 1.976 . S
Fe333 O347 1.996 . S
Fe333 O350 1.997 1_556 S
O334 Fe333 2.002 . S
O334 C351 1.295 . S
O335 Fe330 1.997 1_455 S
O335 C351 1.235 1_455 S
O336 Fe330 2.002 1_454 S
O336 C337 1.295 . S
C337 O336 1.295 . S
C337 O339 1.235 1_455 S
C338 O343 1.287 . S
C338 O344 1.255 . S
O339 Fe331 1.997 . S
O339 C337 1.235 1_655 S
C340 O346 1.287 . S
C340 O347 1.255 1_554 S
O341 Fe330 1.976 . S
O341 C348 1.287 1_556 S
O342 Fe331 1.996 . S
O342 C348 1.255 . S
O343 Fe333 1.976 . S
O343 C338 1.287 . S
O344 Fe330 1.996 . S
O344 C338 1.255 . S
C345 O349 1.295 . S
C345 O350 1.235 . S
O346 Fe331 1.976 . S
O346 C340 1.287 . S
O347 Fe333 1.996 . S
O347 C340 1.255 1_556 S
C348 O341 1.287 1_554 S
C348 O342 1.255 . S
O349 Fe331 2.002 . S
O349 C345 1.295 . S
O350 Fe333 1.997 1_554 S
O350 C345 1.235 . S
C351 O334 1.295 . S
C351 O335 1.235 1_655 S
Fe352 O354 1.918 . S
Fe352 O357 1.997 . S
Fe352 O358 2.002 . S
Fe352 O363 1.976 . S
Fe352 O366 1.996 . S
Fe353 O354 1.918 . S
Fe353 O361 1.997 . S
Fe353 O364 1.996 . S
Fe353 O368 1.976 . S
Fe353 O371 2.002 . S
O354 Fe352 1.918 . S
O354 Fe353 1.918 . S
O354 Fe355 1.918 . S
Fe355 O354 1.918 . S
Fe355 O356 2.002 . S
Fe355 O365 1.976 . S
Fe355 O369 1.996 . S
Fe355 O372 1.997 . S
O356 Fe355 2.002 . S
O356 C373 1.295 . S
O357 Fe352 1.997 . S
O357 C373 1.235 . S
O358 Fe352 2.002 . S
O358 C359 1.295 . S
C359 O358 1.295 . S
C359 O361 1.235 . S
C360 O365 1.287 . S
C360 O366 1.255 . S
O361 Fe353 1.997 . S
O361 C359 1.235 . S
C362 O368 1.287 . S
C362 O369 1.255 . S
O363 Fe352 1.976 . S
O363 C370 1.287 . S
O364 Fe353 1.996 . S
O364 C370 1.255 . S
O365 Fe355 1.976 . S
O365 C360 1.287 . S
O366 Fe352 1.996 . S
O366 C360 1.255 . S
C367 O371 1.295 . S
C367 O372 1.235 . S
O368 Fe353 1.976 . S
O368 C362 1.287 . S
O369 Fe355 1.996 . S
O369 C362 1.255 . S
C370 O363 1.287 . S
C370 O364 1.255 . S
O371 Fe353 2.002 . S
O371 C367 1.295 . S
O372 Fe355 1.997 . S
O372 C367 1.235 . S
C373 O356 1.295 . S
C373 O357 1.235 . S
Fe374 O376 1.918 . S
Fe374 O379 1.997 . S
Fe374 O380 2.002 . S
Fe374 O385 1.976 . S
Fe374 O388 1.996 . S
Fe375 O376 1.918 1_556 S
Fe375 O383 1.997 1_556 S
Fe375 O386 1.996 . S
Fe375 O390 1.976 . S
Fe375 O393 2.002 . S
O376 Fe374 1.918 . S
O376 Fe375 1.918 1_554 S
O376 Fe377 1.918 1_554 S
Fe377 O376 1.918 1_556 S
Fe377 O378 2.002 1_556 S
Fe377 O387 1.976 . S
Fe377 O391 1.996 . S
Fe377 O394 1.997 . S
O378 Fe377 2.002 1_554 S
O378 C395 1.295 . S
O379 Fe374 1.997 . S
O379 C395 1.235 . S
O380 Fe374 2.002 . S
O380 C381 1.295 . S
C381 O380 1.295 . S
C381 O383 1.235 . S
C382 O387 1.287 1_554 S
C382 O388 1.255 . S
O383 Fe375 1.997 1_554 S
O383 C381 1.235 . S
C384 O390 1.287 . S
C384 O391 1.255 . S
O385 Fe374 1.976 . S
O385 C392 1.287 . S
O386 Fe375 1.996 . S
O386 C392 1.255 1_556 S
O387 Fe377 1.976 . S
O387 C382 1.287 1_556 S
O388 Fe374 1.996 . S
O388 C382 1.255 . S
C389 O393 1.295 . S
C389 O394 1.235 . S
O390 Fe375 1.976 . S
O390 C384 1.287 . S
O391 Fe377 1.996 . S
O391 C384 1.255 . S
C392 O385 1.287 . S
C392 O386 1.255 1_554 S
O393 Fe375 2.002 . S
O393 C389 1.295 . S
O394 Fe377 1.997 . S
O394 C389 1.235 . S
C395 O378 1.295 . S
C395 O379 1.235 . S
Fe396 O398 1.918 . S
Fe396 O401 1.997 . S
Fe396 O402 2.002 . S
Fe396 O407 1.976 . S
Fe396 O410 1.996 . S
Fe397 O398 1.918 . S
Fe397 O405 1.997 . S
Fe397 O408 1.996 . S
Fe397 O412 1.976 . S
Fe397 O415 2.002 . S
O398 Fe396 1.918 . S
O398 Fe397 1.918 . S
O398 Fe399 1.918 . S
Fe399 O398 1.918 . S
Fe399 O400 2.002 . S
Fe399 O409 1.976 . S
Fe399 O413 1.996 . S
Fe399 O416 1.997 . S
O400 Fe399 2.002 . S
O400 C417 1.295 . S
O401 Fe396 1.997 . S
O401 C417 1.235 . S
O402 Fe396 2.002 . S
O402 C403 1.295 . S
C403 O402 1.295 . S
C403 O405 1.235 . S
C404 O409 1.287 . S
C404 O410 1.255 . S
O405 Fe397 1.997 . S
O405 C403 1.235 . S
C406 O412 1.287 . S
C406 O413 1.255 . S
O407 Fe396 1.976 . S
O407 C414 1.287 . S
O408 Fe397 1.996 . S
O408 C414 1.255 . S
O409 Fe399 1.976 . S
O409 C404 1.287 . S
O410 Fe396 1.996 . S
O410 C404 1.255 . S
C411 O415 1.295 . S
C411 O416 1.235 . S
O412 Fe397 1.976 . S
O412 C406 1.287 . S
O413 Fe399 1.996 . S
O413 C406 1.255 . S
C414 O407 1.287 . S
C414 O408 1.255 . S
O415 Fe397 2.002 . S
O415 C411 1.295 . S
O416 Fe399 1.997 . S
O416 C411 1.235 . S
C417 O400 1.295 . S
C417 O401 1.235 . S
Fe418 O420 1.918 . S
Fe418 O423 1.997 . S
Fe418 O424 2.002 . S
Fe418 O429 1.976 . S
Fe418 O432 1.996 . S
Fe419 O420 1.918 . S
Fe419 O427 1.997 . S
Fe419 O430 1.996 . S
Fe419 O434 1.976 . S
Fe419 O437 2.002 . S
O420 Fe418 1.918 . S
O420 Fe419 1.918 . S
O420 Fe421 1.918 . S
Fe421 O420 1.918 . S
Fe421 O422 2.002 1_655 S
Fe421 O431 1.976 . S
Fe421 O435 1.996 . S
Fe421 O438 1.997 1_655 S
O422 Fe421 2.002 1_455 S
O422 C439 1.295 1_455 S
O423 Fe418 1.997 . S
O423 C439 1.235 . S
O424 Fe418 2.002 . S
O424 C425 1.295 . S
C425 O424 1.295 . S
C425 O427 1.235 . S
C426 O431 1.287 . S
C426 O432 1.255 . S
O427 Fe419 1.997 . S
O427 C425 1.235 . S
C428 O434 1.287 . S
C428 O435 1.255 . S
O429 Fe418 1.976 . S
O429 C436 1.287 . S
O430 Fe419 1.996 . S
O430 C436 1.255 . S
O431 Fe421 1.976 . S
O431 C426 1.287 . S
O432 Fe418 1.996 . S
O432 C426 1.255 . S
C433 O437 1.295 1_455 S
C433 O438 1.235 . S
O434 Fe419 1.976 . S
O434 C428 1.287 . S
O435 Fe421 1.996 . S
O435 C428 1.255 . S
C436 O429 1.287 . S
C436 O430 1.255 . S
O437 Fe419 2.002 . S
O437 C433 1.295 1_655 S
O438 Fe421 1.997 1_455 S
O438 C433 1.235 . S
C439 O422 1.295 1_655 S
C439 O423 1.235 . S
Fe440 O442 1.918 . S
Fe440 O445 1.997 . S
Fe440 O446 2.002 . S
Fe440 O451 1.976 . S
Fe440 O454 1.996 . S
Fe441 O442 1.918 . S
Fe441 O449 1.997 . S
Fe441 O452 1.996 . S
Fe441 O456 1.976 . S
Fe441 O459 2.002 . S
O442 Fe440 1.918 . S
O442 Fe441 1.918 . S
O442 Fe443 1.918 . S
Fe443 O442 1.918 . S
Fe443 O444 2.002 . S
Fe443 O453 1.976 . S
Fe443 O457 1.996 . S
Fe443 O460 1.997 . S
O444 Fe443 2.002 . S
O444 C461 1.295 . S
O445 Fe440 1.997 . S
O445 C461 1.235 . S
O446 Fe440 2.002 . S
O446 C447 1.295 . S
C447 O446 1.295 . S
C447 O449 1.235 . S
C448 O453 1.287 . S
C448 O454 1.255 . S
O449 Fe441 1.997 . S
O449 C447 1.235 . S
C450 O456 1.287 . S
C450 O457 1.255 . S
O451 Fe440 1.976 . S
O451 C458 1.287 . S
O452 Fe441 1.996 . S
O452 C458 1.255 . S
O453 Fe443 1.976 . S
O453 C448 1.287 . S
O454 Fe440 1.996 . S
O454 C448 1.255 . S
C455 O459 1.295 . S
C455 O460 1.235 . S
O456 Fe441 1.976 . S
O456 C450 1.287 . S
O457 Fe443 1.996 . S
O457 C450 1.255 . S
C458 O451 1.287 . S
C458 O452 1.255 . S
O459 Fe441 2.002 . S
O459 C455 1.295 . S
O460 Fe443 1.997 . S
O460 C455 1.235 . S
C461 O444 1.295 . S
C461 O445 1.235 . S
Fe462 O464 1.918 1_554 S
Fe462 O467 1.997 . S
Fe462 O468 2.002 1_554 S
Fe462 O473 1.976 . S
Fe462 O476 1.996 . S
Fe463 O464 1.918 . S
Fe463 O471 1.997 . S
Fe463 O474 1.996 . S
Fe463 O478 1.976 . S
Fe463 O481 2.002 . S
O464 Fe462 1.918 1_556 S
O464 Fe463 1.918 . S
O464 Fe465 1.918 1_556 S
Fe465 O464 1.918 1_554 S
Fe465 O466 2.002 1_655 S
Fe465 O475 1.976 . S
Fe465 O479 1.996 . S
Fe465 O482 1.997 1_654 S
O466 Fe465 2.002 1_455 S
O466 C483 1.295 1_455 S
O467 Fe462 1.997 . S
O467 C483 1.235 . S
O468 Fe462 2.002 1_556 S
O468 C469 1.295 . S
C469 O468 1.295 . S
C469 O471 1.235 . S
C470 O475 1.287 . S
C470 O476 1.255 . S
O471 Fe463 1.997 . S
O471 C469 1.235 . S
C472 O478 1.287 . S
C472 O479 1.255 1_556 S
O473 Fe462 1.976 . S
O473 C480 1.287 1_554 S
O474 Fe463 1.996 . S
O474 C480 1.255 . S
O475 Fe465 1.976 . S
O475 C470 1.287 . S
O476 Fe462 1.996 . S
O476 C470 1.255 . S
C477 O481 1.295 1_455 S
C477 O482 1.235 . S
O478 Fe463 1.976 . S
O478 C472 1.287 . S
O479 Fe465 1.996 . S
O479 C472 1.255 1_554 S
C480 O473 1.287 1_556 S
C480 O474 1.255 . S
O481 Fe463 2.002 . S
O481 C477 1.295 1_655 S
O482 Fe465 1.997 1_456 S
O482 C477 1.235 . S
C483 O466 1.295 1_655 S
C483 O467 1.235 . S
Fe484 O486 1.918 . S
Fe484 O489 1.997 . S
Fe484 O490 2.002 . S
Fe484 O495 1.976 . S
Fe484 O498 1.996 . S
Fe485 O486 1.918 . S
Fe485 O493 1.997 . S
Fe485 O496 1.996 . S
Fe485 O500 1.976 . S
Fe485 O503 2.002 . S
O486 Fe484 1.918 . S
O486 Fe485 1.918 . S
O486 Fe487 1.918 . S
Fe487 O486 1.918 . S
Fe487 O488 2.002 . S
Fe487 O497 1.976 . S
Fe487 O501 1.996 . S
Fe487 O504 1.997 . S
O488 Fe487 2.002 . S
O488 C505 1.295 . S
O489 Fe484 1.997 . S
O489 C505 1.235 . S
O490 Fe484 2.002 . S
O490 C491 1.295 . S
C491 O490 1.295 . S
C491 O493 1.235 . S
C492 O497 1.287 . S
C492 O498 1.255 . S
O493 Fe485 1.997 . S
O493 C491 1.235 . S
C494 O500 1.287 . S
C494 O501 1.255 . S
O495 Fe484 1.976 . S
O495 C502 1.287 . S
O496 Fe485 1.996 . S
O496 C502 1.255 . S
O497 Fe487 1.976 . S
O497 C492 1.287 . S
O498 Fe484 1.996 . S
O498 C492 1.255 . S
C499 O503 1.295 . S
C499 O504 1.235 . S
O500 Fe485 1.976 . S
O500 C494 1.287 . S
O501 Fe487 1.996 . S
O501 C494 1.255 . S
C502 O495 1.287 . S
C502 O496 1.255 . S
O503 Fe485 2.002 . S
O503 C499 1.295 . S
O504 Fe487 1.997 . S
O504 C499 1.235 . S
C505 O488 1.295 . S
C505 O489 1.235 . S
Fe506 O508 1.918 . S
Fe506 O511 1.997 . S
Fe506 O512 2.002 . S
Fe506 O517 1.976 . S
Fe506 O520 1.996 . S
Fe507 O508 1.918 . S
Fe507 O515 1.997 . S
Fe507 O518 1.996 . S
Fe507 O522 1.976 . S
Fe507 O525 2.002 . S
O508 Fe506 1.918 . S
O508 Fe507 1.918 . S
O508 Fe509 1.918 . S
Fe509 O508 1.918 . S
Fe509 O510 2.002 . S
Fe509 O519 1.976 . S
Fe509 O523 1.996 . S
Fe509 O526 1.997 . S
O510 Fe509 2.002 . S
O510 C527 1.295 . S
O511 Fe506 1.997 . S
O511 C527 1.235 . S
O512 Fe506 2.002 . S
O512 C513 1.295 . S
C513 O512 1.295 . S
C513 O515 1.235 . S
C514 O519 1.287 . S
C514 O520 1.255 . S
O515 Fe507 1.997 . S
O515 C513 1.235 . S
C516 O522 1.287 . S
C516 O523 1.255 . S
O517 Fe506 1.976 . S
O517 C524 1.287 . S
O518 Fe507 1.996 . S
O518 C524 1.255 . S
O519 Fe509 1.976 . S
O519 C514 1.287 . S
O520 Fe506 1.996 . S
O520 C514 1.255 . S
C521 O525 1.295 . S
C521 O526 1.235 . S
O522 Fe507 1.976 . S
O522 C516 1.287 . S
O523 Fe509 1.996 . S
O523 C516 1.255 . S
C524 O517 1.287 . S
C524 O518 1.255 . S
O525 Fe507 2.002 . S
O525 C521 1.295 . S
O526 Fe509 1.997 . S
O526 C521 1.235 . S
C527 O510 1.295 . S
C527 O511 1.235 . S
Fe528 O530 1.918 . S
Fe528 O533 1.997 . S
Fe528 O534 2.002 . S
Fe528 O539 1.976 . S
Fe528 O542 1.996 . S
Fe529 O530 1.918 . S
Fe529 O537 1.997 . S
Fe529 O540 1.996 . S
Fe529 O544 1.976 . S
Fe529 O547 2.002 . S
O530 Fe528 1.918 . S
O530 Fe529 1.918 . S
O530 Fe531 1.918 . S
Fe531 O530 1.918 . S
Fe531 O532 2.002 . S
Fe531 O541 1.976 . S
Fe531 O545 1.996 . S
Fe531 O548 1.997 . S
O532 Fe531 2.002 . S
O532 C549 1.295 . S
O533 Fe528 1.997 . S
O533 C549 1.235 . S
O534 Fe528 2.002 . S
O534 C535 1.295 . S
C535 O534 1.295 . S
C535 O537 1.235 . S
C536 O541 1.287 . S
C536 O542 1.255 . S
O537 Fe529 1.997 . S
O537 C535 1.235 . S
C538 O544 1.287 . S
C538 O545 1.255 . S
O539 Fe528 1.976 . S
O539 C546 1.287 . S
O540 Fe529 1.996 . S
O540 C546 1.255 . S
O541 Fe531 1.976 . S
O541 C536 1.287 . S
O542 Fe528 1.996 . S
O542 C536 1.255 . S
C543 O547 1.295 . S
C543 O548 1.235 . S
O544 Fe529 1.976 . S
O544 C538 1.287 . S
O545 Fe531 1.996 . S
O545 C538 1.255 . S
C546 O539 1.287 . S
C546 O540 1.255 . S
O547 Fe529 2.002 . S
O547 C543 1.295 . S
O548 Fe531 1.997 . S
O548 C543 1.235 . S
C549 O532 1.295 . S
C549 O533 1.235 . S
Fe550 O552 1.918 1_554 S
Fe550 O555 1.997 . S
Fe550 O556 2.002 1_554 S
Fe550 O561 1.976 . S
Fe550 O564 1.996 . S
Fe551 O552 1.918 . S
Fe551 O559 1.997 . S
Fe551 O562 1.996 . S
Fe551 O566 1.976 . S
Fe551 O569 2.002 . S
O552 Fe550 1.918 1_556 S
O552 Fe551 1.918 . S
O552 Fe553 1.918 1_556 S
Fe553 O552 1.918 1_554 S
Fe553 O554 2.002 . S
Fe553 O563 1.976 . S
Fe553 O567 1.996 . S
Fe553 O570 1.997 1_554 S
O554 Fe553 2.002 . S
O554 C571 1.295 . S
O555 Fe550 1.997 . S
O555 C571 1.235 . S
O556 Fe550 2.002 1_556 S
O556 C557 1.295 . S
C557 O556 1.295 . S
C557 O559 1.235 . S
C558 O563 1.287 . S
C558 O564 1.255 . S
O559 Fe551 1.997 . S
O559 C557 1.235 . S
C560 O566 1.287 . S
C560 O567 1.255 1_556 S
O561 Fe550 1.976 . S
O561 C568 1.287 1_554 S
O562 Fe551 1.996 . S
O562 C568 1.255 . S
O563 Fe553 1.976 . S
O563 C558 1.287 . S
O564 Fe550 1.996 . S
O564 C558 1.255 . S
C565 O569 1.295 . S
C565 O570 1.235 . S
O566 Fe551 1.976 . S
O566 C560 1.287 . S
O567 Fe553 1.996 . S
O567 C560 1.255 1_554 S
C568 O561 1.287 1_556 S
C568 O562 1.255 . S
O569 Fe551 2.002 . S
O569 C565 1.295 . S
O570 Fe553 1.997 1_556 S
O570 C565 1.235 . S
C571 O554 1.295 . S
C571 O555 1.235 . S
Fe572 O574 1.918 . S
Fe572 O577 1.997 . S
Fe572 O578 2.002 . S
Fe572 O583 1.976 . S
Fe572 O586 1.996 . S
Fe573 O574 1.918 . S
Fe573 O581 1.997 . S
Fe573 O584 1.996 . S
Fe573 O588 1.976 . S
Fe573 O591 2.012 . S
O574 Fe572 1.918 . S
O574 Fe573 1.918 . S
O574 Fe575 1.918 . S
Fe575 O574 1.918 . S
Fe575 O576 2.002 . S
Fe575 O585 1.976 . S
Fe575 O589 1.996 . S
Fe575 O592 1.997 . S
O576 Fe575 2.002 . S
O576 C593 1.295 . S
O577 Fe572 1.997 . S
O577 C593 1.235 . S
O578 Fe572 2.002 . S
O578 C579 1.295 . S
C579 O578 1.295 . S
C579 O581 1.235 . S
C580 O585 1.287 . S
C580 O586 1.255 . S
O581 Fe573 1.997 . S
O581 C579 1.235 . S
C582 O588 1.287 . S
C582 O589 1.255 . S
O583 Fe572 1.976 . S
O583 C590 1.287 . S
O584 Fe573 1.996 . S
O584 C590 1.255 . S
O585 Fe575 1.976 . S
O585 C580 1.287 . S
O586 Fe572 1.996 . S
O586 C580 1.255 . S
C587 O591 1.297 . S
C587 O592 1.235 . S
O588 Fe573 1.976 . S
O588 C582 1.287 . S
O589 Fe575 1.996 . S
O589 C582 1.255 . S
C590 O583 1.287 . S
C590 O584 1.255 . S
O591 Fe573 2.012 . S
O591 C587 1.297 . S
O592 Fe575 1.997 . S
O592 C587 1.235 . S
C593 O576 1.295 . S
C593 O577 1.235 . S
Fe594 O596 1.918 . S
Fe594 O599 1.997 . S
Fe594 O600 2.002 . S
Fe594 O605 1.976 . S
Fe594 O608 1.996 . S
Fe595 O596 1.918 . S
Fe595 O603 1.997 . S
Fe595 O606 1.996 . S
Fe595 O610 1.976 . S
Fe595 O613 2.002 . S
O596 Fe594 1.918 . S
O596 Fe595 1.918 . S
O596 Fe597 1.918 . S
Fe597 O596 1.918 . S
Fe597 O598 2.002 1_455 S
Fe597 O607 1.976 . S
Fe597 O611 1.996 . S
Fe597 O614 1.997 1_455 S
O598 Fe597 2.002 1_655 S
O598 C615 1.295 . S
O599 Fe594 1.997 . S
O599 C615 1.235 1_455 S
O600 Fe594 2.002 . S
O600 C601 1.295 . S
C601 O600 1.295 . S
C601 O603 1.235 . S
C602 O607 1.287 . S
C602 O608 1.255 . S
O603 Fe595 1.997 . S
O603 C601 1.235 . S
C604 O610 1.287 . S
C604 O611 1.255 . S
O605 Fe594 1.976 . S
O605 C612 1.287 . S
O606 Fe595 1.996 . S
O606 C612 1.255 . S
O607 Fe597 1.976 . S
O607 C602 1.287 . S
O608 Fe594 1.996 . S
O608 C602 1.255 . S
C609 O613 1.295 . S
C609 O614 1.235 1_455 S
O610 Fe595 1.976 . S
O610 C604 1.287 . S
O611 Fe597 1.996 . S
O611 C604 1.255 . S
C612 O605 1.287 . S
C612 O606 1.255 . S
O613 Fe595 2.002 . S
O613 C609 1.295 . S
O614 Fe597 1.997 1_655 S
O614 C609 1.235 1_655 S
C615 O598 1.295 . S
C615 O599 1.235 1_655 S
Fe616 O618 1.918 . S
Fe616 O621 1.997 . S
Fe616 O622 2.002 . S
Fe616 O627 1.976 . S
Fe616 O630 1.996 . S
Fe617 O618 1.918 . S
Fe617 O625 1.997 . S
Fe617 O628 1.996 . S
Fe617 O632 1.976 . S
Fe617 O635 2.002 . S
O618 Fe616 1.918 . S
O618 Fe617 1.918 . S
O618 Fe619 1.918 . S
Fe619 O618 1.918 . S
Fe619 O620 2.002 . S
Fe619 O629 1.976 . S
Fe619 O633 1.996 . S
Fe619 O636 1.997 . S
O620 Fe619 2.002 . S
O620 C637 1.295 . S
O621 Fe616 1.997 . S
O621 C637 1.235 . S
O622 Fe616 2.002 . S
O622 C623 1.295 . S
C623 O622 1.295 . S
C623 O625 1.235 . S
C624 O629 1.287 . S
C624 O630 1.255 . S
O625 Fe617 1.997 . S
O625 C623 1.235 . S
C626 O632 1.287 . S
C626 O633 1.255 . S
O627 Fe616 1.976 . S
O627 C634 1.287 . S
O628 Fe617 1.996 . S
O628 C634 1.255 . S
O629 Fe619 1.976 . S
O629 C624 1.287 . S
O630 Fe616 1.996 . S
O630 C624 1.255 . S
C631 O635 1.295 . S
C631 O636 1.235 . S
O632 Fe617 1.976 . S
O632 C626 1.287 . S
O633 Fe619 1.996 . S
O633 C626 1.255 . S
C634 O627 1.287 . S
C634 O628 1.255 . S
O635 Fe617 2.002 . S
O635 C631 1.295 . S
O636 Fe619 1.997 . S
O636 C631 1.235 . S
C637 O620 1.295 . S
C637 O621 1.235 . S
Fe638 O640 1.918 1_556 S
Fe638 O643 1.997 1_556 S
Fe638 O644 2.002 . S
Fe638 O649 1.976 . S
Fe638 O652 1.996 . S
Fe639 O640 1.918 1_556 S
Fe639 O647 1.997 1_455 S
Fe639 O650 1.996 . S
Fe639 O654 1.976 . S
Fe639 O657 2.002 1_456 S
O640 Fe638 1.918 1_554 S
O640 Fe639 1.918 1_554 S
O640 Fe641 1.918 . S
Fe641 O640 1.918 . S
Fe641 O642 2.002 . S
Fe641 O651 1.976 . S
Fe641 O655 1.996 . S
Fe641 O658 1.997 . S
O642 Fe641 2.002 . S
O642 C659 1.295 . S
O643 Fe638 1.997 1_554 S
O643 C659 1.235 . S
O644 Fe638 2.002 . S
O644 C645 1.295 . S
C645 O644 1.295 . S
C645 O647 1.235 1_455 S
C646 O651 1.287 . S
C646 O652 1.255 1_554 S
O647 Fe639 1.997 1_655 S
O647 C645 1.235 1_655 S
C648 O654 1.287 1_554 S
C648 O655 1.255 . S
O649 Fe638 1.976 . S
O649 C656 1.287 . S
O650 Fe639 1.996 . S
O650 C656 1.255 . S
O651 Fe641 1.976 . S
O651 C646 1.287 . S
O652 Fe638 1.996 . S
O652 C646 1.255 1_556 S
C653 O657 1.295 . S
C653 O658 1.235 1_655 S
O654 Fe639 1.976 . S
O654 C648 1.287 1_556 S
O655 Fe641 1.996 . S
O655 C648 1.255 . S
C656 O649 1.287 . S
C656 O650 1.255 . S
O657 Fe639 2.002 1_654 S
O657 C653 1.295 . S
O658 Fe641 1.997 . S
O658 C653 1.235 1_455 S
C659 O642 1.295 . S
C659 O643 1.235 . S
Fe660 O662 1.918 . S
Fe660 O665 1.997 . S
Fe660 O666 2.002 . S
Fe660 O671 1.976 . S
Fe660 O674 1.996 . S
Fe661 O662 1.918 . S
Fe661 O669 1.997 . S
Fe661 O672 1.996 . S
Fe661 O676 1.976 . S
Fe661 O679 2.012 . S
O662 Fe660 1.918 . S
O662 Fe661 1.918 . S
O662 Fe663 1.918 . S
Fe663 O662 1.918 . S
Fe663 O664 2.002 . S
Fe663 O673 1.976 . S
Fe663 O677 1.996 . S
Fe663 O680 1.997 . S
O664 Fe663 2.002 . S
O664 C681 1.295 . S
O665 Fe660 1.997 . S
O665 C681 1.235 . S
O666 Fe660 2.002 . S
O666 C667 1.295 . S
C667 O666 1.295 . S
C667 O669 1.235 . S
C668 O673 1.287 . S
C668 O674 1.255 . S
O669 Fe661 1.997 . S
O669 C667 1.235 . S
C670 O676 1.287 . S
C670 O677 1.255 . S
O671 Fe660 1.976 . S
O671 C678 1.287 . S
O672 Fe661 1.996 . S
O672 C678 1.255 . S
O673 Fe663 1.976 . S
O673 C668 1.287 . S
O674 Fe660 1.996 . S
O674 C668 1.255 . S
C675 O679 1.297 . S
C675 O680 1.235 . S
O676 Fe661 1.976 . S
O676 C670 1.287 . S
O677 Fe663 1.996 . S
O677 C670 1.255 . S
C678 O671 1.287 . S
C678 O672 1.255 . S
O679 Fe661 2.012 . S
O679 C675 1.297 . S
O680 Fe663 1.997 . S
O680 C675 1.235 . S
C681 O664 1.295 . S
C681 O665 1.235 . S
Fe682 O684 1.918 . S
Fe682 O687 1.997 . S
Fe682 O688 2.002 . S
Fe682 O693 1.976 . S
Fe682 O696 1.996 . S
Fe683 O684 1.918 . S
Fe683 O691 1.997 . S
Fe683 O694 1.996 . S
Fe683 O698 1.976 . S
Fe683 O701 2.002 . S
O684 Fe682 1.918 . S
O684 Fe683 1.918 . S
O684 Fe685 1.918 . S
Fe685 O684 1.918 . S
Fe685 O686 2.002 . S
Fe685 O695 1.976 . S
Fe685 O699 1.996 . S
Fe685 O702 1.997 . S
O686 Fe685 2.002 . S
O686 C703 1.295 . S
O687 Fe682 1.997 . S
O687 C703 1.235 . S
O688 Fe682 2.002 . S
O688 C689 1.295 . S
C689 O688 1.295 . S
C689 O691 1.235 . S
C690 O695 1.287 . S
C690 O696 1.255 . S
O691 Fe683 1.997 . S
O691 C689 1.235 . S
C692 O698 1.287 . S
C692 O699 1.255 . S
O693 Fe682 1.976 . S
O693 C700 1.287 . S
O694 Fe683 1.996 . S
O694 C700 1.255 . S
O695 Fe685 1.976 . S
O695 C690 1.287 . S
O696 Fe682 1.996 . S
O696 C690 1.255 . S
C697 O701 1.295 . S
C697 O702 1.235 . S
O698 Fe683 1.976 . S
O698 C692 1.287 . S
O699 Fe685 1.996 . S
O699 C692 1.255 . S
C700 O693 1.287 . S
C700 O694 1.255 . S
O701 Fe683 2.002 . S
O701 C697 1.295 . S
O702 Fe685 1.997 . S
O702 C697 1.235 . S
C703 O686 1.295 . S
C703 O687 1.235 . S
C8 C106 2.159 1_545 S
C128 C30 2.159 . S
C142 C54 2.159 1_545 S
C84 C162 2.159 1_554 S
C194 C272 2.097 1_565 S
C208 C304 2.097 . S
C230 C316 2.097 1_545 S
C340 C252 2.097 1_554 S
C370 C458 2.159 . S
C480 C382 2.159 1_556 S
C404 C502 2.159 . S
C524 C436 2.159 . S
C538 C624 2.097 . S
C560 C646 2.097 1_556 S
C590 C678 2.097 . S
C612 C692 2.097 . S
C546 C18 2.528 . S
C216 C40 2.528 1_645 S
C52 C580 2.528 . S
C76 C260 2.528 1_544 S
C98 C626 2.528 . S
C120 C294 2.528 1_565 S
C668 C140 2.528 . S
C348 C172 2.528 1_664 S
C362 C184 2.528 . S
C238 C414 2.528 . S
C274 C450 2.528 . S
C494 C318 2.528 . S
C392 C568 2.528 1_554 S
C602 C428 2.528 1_455 S
C648 C472 2.528 1_454 S
C516 C700 2.528 . S
C7 C601 1.333 . S
C29 C183 1.333 . S
C65 C565 1.333 . S
C235 C81 1.333 . S
C659 C103 1.333 . S
C125 C329 1.333 . S
C697 C153 1.333 . S
C285 C161 1.333 . S
C425 C197 1.344 . S
C205 C21 1.344 . S
C395 C227 1.344 . S
C59 C249 1.344 . S
C469 C279 1.344 . S
C307 C147 1.344 . S
C323 C513 1.344 . S
C95 C337 1.344 . S
C367 C257 1.333 . S
C381 C543 1.333 . S
C213 C403 1.333 . S
C433 C579 1.333 . S
C293 C455 1.333 . S
C477 C667 1.333 . S
C345 C499 1.333 . S
C521 C637 1.333 . S
C73 C535 1.344 . S
C557 C359 1.344 . S
C593 C43 1.344 . S
C417 C615 1.344 . S
C117 C631 1.344 . S
C491 C653 1.344 . S
C681 C175 1.344 . S
C447 C689 1.344 . S
C15 C411 0.694 1_455 S
C37 C439 0.694 1_455 S
C51 C373 0.693 . S
C87 C389 0.694 . S
C505 C109 0.693 1_655 S
C527 C131 0.694 . S
C139 C461 0.694 . S
C483 C169 0.694 1_655 S
C587 C191 0.764 1_455 S
C609 C219 0.764 1_455 S
C549 C241 0.764 . S
C263 C571 0.764 . S
C271 C675 0.764 1_655 S
C703 C301 0.764 . S
C623 C315 0.764 . S
C351 C645 0.764 1_655 S
C164 C10 1.398 . S
C32 C96 1.398 . S
C62 C118 1.398 . S
C150 C74 1.398 . S
C338 C186 1.478 . S
C206 C282 1.478 . S
C296 C228 1.478 . S
C326 C250 1.478 . S
C514 C360 1.398 . S
C448 C384 1.398 . S
C470 C406 1.398 . S
C426 C492 1.398 . S
C690 C536 1.478 . S
C634 C558 1.478 . S
C656 C582 1.478 . S
C604 C670 1.478 . S
