# Generated by pormake.
# Topology zfi, (5)-cn, num edge types: 1
# Building blocks:
#     Node 0, Type 0, BuildingBlock: XOMCOT_clean_sbu_0, # of connection points: 5
#     Node 1, Type 0, BuildingBlock: XOMCOT_clean_sbu_0, # of connection points: 5
#     Node 2, Type 0, BuildingBlock: XOMCOT_clean_sbu_0, # of connection points: 5
#     Node 3, Type 0, BuildingBlock: XOMCOT_clean_sbu_0, # of connection points: 5
#     Node 4, Type 0, BuildingBlock: XOMCOT_clean_sbu_0, # of connection points: 5
#     Node 5, Type 0, BuildingBlock: XOMCOT_clean_sbu_0, # of connection points: 5
#     Node 6, Type 0, BuildingBlock: XOMCOT_clean_sbu_0, # of connection points: 5
#     Node 7, Type 0, BuildingBlock: XOMCOT_clean_sbu_0, # of connection points: 5
#     Node 8, Type 0, BuildingBlock: XOMCOT_clean_sbu_0, # of connection points: 5
#     Node 9, Type 0, BuildingBlock: XOMCOT_clean_sbu_0, # of connection points: 5
#     Node 10, Type 0, BuildingBlock: XOMCOT_clean_sbu_0, # of connection points: 5
#     Node 11, Type 0, BuildingBlock: XOMCOT_clean_sbu_0, # of connection points: 5
#     Node 12, Type 0, BuildingBlock: XOMCOT_clean_sbu_0, # of connection points: 5
#     Node 13, Type 0, BuildingBlock: XOMCOT_clean_sbu_0, # of connection points: 5
#     Node 14, Type 0, BuildingBlock: XOMCOT_clean_sbu_0, # of connection points: 5
#     Node 15, Type 0, BuildingBlock: XOMCOT_clean_sbu_0, # of connection points: 5
#     Edge 16, Type (0, 0), BuildingBlock: UVAHIK_clean_linker_0, # of connection points: 2
#     Edge 17, Type (0, 0), BuildingBlock: UVAHIK_clean_linker_0, # of connection points: 2
#     Edge 18, Type (0, 0), BuildingBlock: UVAHIK_clean_linker_0, # of connection points: 2
#     Edge 19, Type (0, 0), BuildingBlock: UVAHIK_clean_linker_0, # of connection points: 2
#     Edge 20, Type (0, 0), BuildingBlock: UVAHIK_clean_linker_0, # of connection points: 2
#     Edge 21, Type (0, 0), BuildingBlock: UVAHIK_clean_linker_0, # of connection points: 2
#     Edge 22, Type (0, 0), BuildingBlock: UVAHIK_clean_linker_0, # of connection points: 2
#     Edge 23, Type (0, 0), BuildingBlock: UVAHIK_clean_linker_0, # of connection points: 2
#     Edge 24, Type (0, 0), BuildingBlock: UVAHIK_clean_linker_0, # of connection points: 2
#     Edge 25, Type (0, 0), BuildingBlock: UVAHIK_clean_linker_0, # of connection points: 2
#     Edge 26, Type (0, 0), BuildingBlock: UVAHIK_clean_linker_0, # of connection points: 2
#     Edge 27, Type (0, 0), BuildingBlock: UVAHIK_clean_linker_0, # of connection points: 2
#     Edge 28, Type (0, 0), BuildingBlock: UVAHIK_clean_linker_0, # of connection points: 2
#     Edge 29, Type (0, 0), BuildingBlock: UVAHIK_clean_linker_0, # of connection points: 2
#     Edge 30, Type (0, 0), BuildingBlock: UVAHIK_clean_linker_0, # of connection points: 2
#     Edge 31, Type (0, 0), BuildingBlock: UVAHIK_clean_linker_0, # of connection points: 2
#     Edge 32, Type (0, 0), BuildingBlock: UVAHIK_clean_linker_0, # of connection points: 2
#     Edge 33, Type (0, 0), BuildingBlock: UVAHIK_clean_linker_0, # of connection points: 2
#     Edge 34, Type (0, 0), BuildingBlock: UVAHIK_clean_linker_0, # of connection points: 2
#     Edge 35, Type (0, 0), BuildingBlock: UVAHIK_clean_linker_0, # of connection points: 2
#     Edge 36, Type (0, 0), BuildingBlock: UVAHIK_clean_linker_0, # of connection points: 2
#     Edge 37, Type (0, 0), BuildingBlock: UVAHIK_clean_linker_0, # of connection points: 2
#     Edge 38, Type (0, 0), BuildingBlock: UVAHIK_clean_linker_0, # of connection points: 2
#     Edge 39, Type (0, 0), BuildingBlock: UVAHIK_clean_linker_0, # of connection points: 2
#     Edge 40, Type (0, 0), BuildingBlock: UVAHIK_clean_linker_0, # of connection points: 2
#     Edge 41, Type (0, 0), BuildingBlock: UVAHIK_clean_linker_0, # of connection points: 2
#     Edge 42, Type (0, 0), BuildingBlock: UVAHIK_clean_linker_0, # of connection points: 2
#     Edge 43, Type (0, 0), BuildingBlock: UVAHIK_clean_linker_0, # of connection points: 2
#     Edge 44, Type (0, 0), BuildingBlock: UVAHIK_clean_linker_0, # of connection points: 2
#     Edge 45, Type (0, 0), BuildingBlock: UVAHIK_clean_linker_0, # of connection points: 2
#     Edge 46, Type (0, 0), BuildingBlock: UVAHIK_clean_linker_0, # of connection points: 2
#     Edge 47, Type (0, 0), BuildingBlock: UVAHIK_clean_linker_0, # of connection points: 2
#     Edge 48, Type (0, 0), BuildingBlock: UVAHIK_clean_linker_0, # of connection points: 2
#     Edge 49, Type (0, 0), BuildingBlock: UVAHIK_clean_linker_0, # of connection points: 2
#     Edge 50, Type (0, 0), BuildingBlock: UVAHIK_clean_linker_0, # of connection points: 2
#     Edge 51, Type (0, 0), BuildingBlock: UVAHIK_clean_linker_0, # of connection points: 2
#     Edge 52, Type (0, 0), BuildingBlock: UVAHIK_clean_linker_0, # of connection points: 2
#     Edge 53, Type (0, 0), BuildingBlock: UVAHIK_clean_linker_0, # of connection points: 2
#     Edge 54, Type (0, 0), BuildingBlock: UVAHIK_clean_linker_0, # of connection points: 2
#     Edge 55, Type (0, 0), BuildingBlock: UVAHIK_clean_linker_0, # of connection points: 2
# Relax obj value: 0.084
# Max RMSD: 0.116
# Mean RMSD: 0.116
data_MOF--net-zfi--node1-XOMCOT_clean_sbu_0--edge1-UVAHIK_clean_linker_0
_symmetry_space_group_name_H-M    P1
_symmetry_Int_Tables_number       1
_symmetry_cell_setting            triclinic
loop_
_symmetry_equiv_pos_as_xyz
'x, y, z'
_cell_length_a     48.99803
_cell_length_b     48.990714
_cell_length_c     62.116298
_cell_angle_alpha  90.014899
_cell_angle_beta   89.971138
_cell_angle_gamma 89.989869
loop_
_atom_site_label
_atom_site_type_symbol
_atom_site_fract_x
_atom_site_fract_y
_atom_site_fract_z
_atom_type_partial_charge
Co0 Co 0.64994 0.06437 0.11162 0.0
C1 C 0.67255 0.12042 0.10537 0.0
C2 C 0.63778 0.11365 0.08526 0.0
C3 C 0.64741 0.13963 0.0815 0.0
N4 N 0.65419 0.10105 0.09964 0.0
N5 N 0.66928 0.14379 0.09417 0.0
H6 H 0.68771 0.11793 0.11781 0.0
H7 H 0.61944 0.10516 0.07838 0.0
C8 C 0.62661 0.05393 0.0669 0.0
O9 O 0.64878 0.0632 0.05751 0.0
N10 N 0.64543 0.02823 0.12381 0.0
C11 C 0.66303 0.01548 0.13708 0.0
C12 C 0.65508 0.98866 0.13925 0.0
C13 C 0.62691 1.0091 0.11825 0.0
N14 N 0.63248 0.98461 0.12723 0.0
C15 C 0.70703 0.06235 0.10226 0.0
C16 C 0.70614 0.01384 0.07962 0.0
C17 C 0.73139 0.025 0.08558 0.0
C18 C 0.73156 0.04998 0.0965 0.0
C19 C 0.68194 0.02713 0.08549 0.0
N20 N 0.68251 0.05107 0.09686 0.0
H21 H 0.70805 0.07968 0.11275 0.0
H22 H 0.66281 0.01705 0.08221 0.0
H23 H 0.6812 0.02464 0.14382 0.0
H24 H 0.61069 0.01248 0.1068 0.0
O25 O 0.66674 0.07629 0.13812 0.0
O26 O 0.62242 0.07815 0.13102 0.0
O27 O 0.6247 0.05366 0.0874 0.0
C28 C 0.64223 0.08237 0.14459 0.0
H29 H 0.63855 0.15458 0.07074 0.0
H30 H 0.6657 0.97318 0.14842 0.0
H31 H 0.70503 0.9944 0.07137 0.0
H32 H 0.75047 0.05891 0.10215 0.0
Co33 Co 0.45563 0.65036 0.11118 0.0
C34 C 0.39988 0.67366 0.1048 0.0
C35 C 0.40634 0.63871 0.08479 0.0
C36 C 0.38043 0.64849 0.08106 0.0
N37 N 0.41909 0.65511 0.09909 0.0
N38 N 0.37644 0.67047 0.09367 0.0
H39 H 0.40249 0.68885 0.11721 0.0
H40 H 0.41466 0.62023 0.07798 0.0
C41 C 0.46598 0.62675 0.0665 0.0
O42 O 0.45706 0.64903 0.05705 0.0
N43 N 0.49163 0.64531 0.12346 0.0
C44 C 0.50477 0.6628 0.13659 0.0
C45 C 0.53144 0.65432 0.13875 0.0
C46 C 0.51035 0.62632 0.11801 0.0
N47 N 0.53498 0.63148 0.12689 0.0
C48 C 0.45862 0.70741 0.10192 0.0
C49 C 0.50736 0.70575 0.07963 0.0
C50 C 0.49677 0.73117 0.08585 0.0
C51 C 0.47163 0.73174 0.09654 0.0
C52 C 0.49348 0.68177 0.08519 0.0
N53 N 0.46948 0.68272 0.09645 0.0
H54 H 0.44114 0.70867 0.11226 0.0
H55 H 0.50321 0.66247 0.08183 0.0
H56 H 0.496 0.68126 0.1432 0.0
H57 H 0.50658 0.61005 0.10668 0.0
O58 O 0.44389 0.66741 0.13763 0.0
O59 O 0.44131 0.62311 0.13058 0.0
O60 O 0.46609 0.6249 0.087 0.0
C61 C 0.43736 0.64303 0.14412 0.0
H62 H 0.36536 0.63962 0.0704 0.0
H63 H 0.54716 0.66475 0.14779 0.0
H64 H 0.52684 0.70429 0.07148 0.0
H65 H 0.46306 0.75075 0.10235 0.0
Co66 Co 0.86912 0.45498 0.11163 0.0
C67 C 0.84555 0.39928 0.10559 0.0
C68 C 0.87979 0.40567 0.08482 0.0
C69 C 0.86956 0.37992 0.08106 0.0
N70 N 0.86407 0.41839 0.09962 0.0
N71 N 0.84803 0.376 0.09414 0.0
H72 H 0.83077 0.40193 0.1183 0.0
H73 H 0.89803 0.41391 0.07758 0.0
C74 C 0.89235 0.46542 0.06684 0.0
O75 O 0.86987 0.45682 0.05751 0.0
N76 N 0.87443 0.491 0.12385 0.0
C77 C 0.85715 0.50419 0.13714 0.0
C78 C 0.86567 0.53086 0.13919 0.0
C79 C 0.89334 0.5097 0.1182 0.0
N80 N 0.88831 0.53436 0.1271 0.0
C81 C 0.81211 0.45784 0.10225 0.0
C82 C 0.81358 0.5067 0.08012 0.0
C83 C 0.7882 0.49571 0.08593 0.0
C84 C 0.78773 0.47056 0.09659 0.0
C85 C 0.83762 0.49304 0.08586 0.0
N86 N 0.83676 0.46894 0.09699 0.0
H87 H 0.81086 0.44035 0.11254 0.0
H88 H 0.85688 0.50292 0.08264 0.0
H89 H 0.8388 0.49546 0.14393 0.0
H90 H 0.90941 0.50591 0.10669 0.0
O91 O 0.85214 0.44344 0.13815 0.0
O92 O 0.89638 0.44056 0.13098 0.0
O93 O 0.89448 0.46524 0.08732 0.0
C94 C 0.87651 0.4368 0.14459 0.0
H95 H 0.87775 0.36497 0.06996 0.0
H96 H 0.85538 0.54661 0.14831 0.0
H97 H 0.81491 0.52626 0.07206 0.0
H98 H 0.76871 0.46173 0.10212 0.0
Co99 Co 0.06345 0.86836 0.11097 0.0
C100 C 0.11916 0.84451 0.10532 0.0
C101 C 0.11301 0.87869 0.08447 0.0
C102 C 0.13879 0.86845 0.08088 0.0
N103 N 0.10012 0.86302 0.09919 0.0
N104 N 0.14256 0.84694 0.094 0.0
H105 H 0.11637 0.82976 0.11804 0.0
H106 H 0.1049 0.89695 0.07719 0.0
C107 C 0.05353 0.89168 0.06618 0.0
O108 O 0.06189 0.86908 0.05687 0.0
N109 N 0.02734 0.87403 0.12296 0.0
C110 C 0.01384 0.85685 0.13613 0.0
C111 C 0.98728 0.86571 0.13811 0.0
C112 C 1.00893 0.89322 0.11731 0.0
N113 N 0.98415 0.88847 0.1261 0.0
C114 C 0.06045 0.81146 0.10123 0.0
C115 C 0.01157 0.81321 0.07916 0.0
C116 C 0.02257 0.78775 0.08478 0.0
C117 C 0.04773 0.78716 0.09541 0.0
C118 C 0.02526 0.83718 0.08503 0.0
N119 N 0.04936 0.83617 0.09615 0.0
H120 H 0.07796 0.81009 0.11149 0.0
H121 H 0.01544 0.8565 0.08191 0.0
H122 H 0.0223 0.83836 0.1429 0.0
H123 H 0.013 0.90933 0.1059 0.0
O124 O 0.07433 0.85113 0.13754 0.0
O125 O 0.07803 0.89539 0.13046 0.0
O126 O 0.0537 0.89386 0.08666 0.0
C127 C 0.0812 0.87541 0.14406 0.0
H128 H 0.15386 0.87661 0.06988 0.0
H129 H 0.97134 0.8556 0.14715 0.0
H130 H 0.99201 0.81462 0.07113 0.0
H131 H 0.05655 0.76806 0.1008 0.0
Co132 Co 0.1498 0.95539 0.3979 0.0
C133 C 0.17415 0.8999 0.40359 0.0
C134 C 0.13921 0.90541 0.42378 0.0
C135 C 0.14963 0.87972 0.42738 0.0
N136 N 0.15521 0.91864 0.40946 0.0
N137 N 0.17161 0.87634 0.41466 0.0
H138 H 0.18925 0.90295 0.39117 0.0
H139 H 0.12064 0.91329 0.43076 0.0
C140 C 0.12633 0.96451 0.44284 0.0
O141 O 0.14875 0.95572 0.45215 0.0
N142 N 0.14415 0.99162 0.38617 0.0
C143 C 0.16117 1.00507 0.37285 0.0
C144 C 0.15252 0.03173 0.37112 0.0
C145 C 0.12528 0.01018 0.39221 0.0
N146 N 0.13007 0.03498 0.38347 0.0
C147 C 0.2068 0.95895 0.40654 0.0
C148 C 0.20516 1.00645 0.43043 0.0
C149 C 0.2306 0.99624 0.42381 0.0
C150 C 0.2311 0.97178 0.41216 0.0
C151 C 0.18117 0.99282 0.42448 0.0
N152 N 0.18213 0.96931 0.41258 0.0
H153 H 0.20806 0.94206 0.39563 0.0
H154 H 0.16185 1.00228 0.42823 0.0
H155 H 0.17944 0.99651 0.36577 0.0
H156 H 0.10939 1.00618 0.40382 0.0
O157 O 0.16682 0.94465 0.3712 0.0
O158 O 0.12262 0.94096 0.37841 0.0
O159 O 0.12439 0.96492 0.42235 0.0
C160 C 0.14253 0.93784 0.36473 0.0
H161 H 0.14128 0.86442 0.4381 0.0
H162 H 0.16258 0.04764 0.36202 0.0
H163 H 0.20369 0.02541 0.43931 0.0
H164 H 0.25003 0.96358 0.40588 0.0
Co165 Co 0.56469 0.14967 0.39903 0.0
C166 C 0.62017 0.17388 0.40491 0.0
C167 C 0.61388 0.14006 0.42611 0.0
C168 C 0.63953 0.15052 0.42981 0.0
N169 N 0.60115 0.15537 0.41106 0.0
N170 N 0.6434 0.17179 0.41646 0.0
H171 H 0.61751 0.18836 0.39199 0.0
H172 H 0.60573 0.12192 0.43354 0.0
C173 C 0.55414 0.12727 0.44412 0.0
O174 O 0.56224 0.15003 0.45331 0.0
N175 N 0.52877 0.14359 0.38684 0.0
C176 C 0.5157 0.15961 0.3725 0.0
C177 C 0.48909 0.15073 0.3706 0.0
C178 C 0.51002 0.12517 0.39333 0.0
N179 N 0.48558 0.12929 0.38392 0.0
C180 C 0.56131 0.20687 0.40755 0.0
C181 C 0.51248 0.20561 0.42975 0.0
C182 C 0.52339 0.23093 0.42367 0.0
C183 C 0.5485 0.2313 0.41295 0.0
C184 C 0.52625 0.18151 0.42427 0.0
N185 N 0.55036 0.18227 0.41313 0.0
H186 H 0.5788 0.20799 0.39723 0.0
H187 H 0.51649 0.16227 0.42778 0.0
H188 H 0.52441 0.17746 0.3649 0.0
H189 H 0.51366 0.1097 0.40537 0.0
O190 O 0.57623 0.16611 0.37229 0.0
O191 O 0.57945 0.12207 0.38013 0.0
O192 O 0.55464 0.1248 0.42366 0.0
C193 C 0.58313 0.14164 0.36625 0.0
H194 H 0.65447 0.14266 0.44105 0.0
H195 H 0.47313 0.16036 0.36124 0.0
H196 H 0.49295 0.20436 0.43786 0.0
H197 H 0.55725 0.25026 0.40721 0.0
Co198 Co 0.36908 0.56391 0.39823 0.0
C199 C 0.3462 0.61995 0.40422 0.0
C200 C 0.3809 0.61338 0.42444 0.0
C201 C 0.37123 0.63937 0.42807 0.0
N202 N 0.36456 0.60064 0.41009 0.0
N203 N 0.3494 0.64342 0.41533 0.0
H204 H 0.3311 0.61736 0.39174 0.0
H205 H 0.39925 0.60499 0.43139 0.0
C206 C 0.39239 0.55382 0.44297 0.0
O207 O 0.37009 0.56297 0.45228 0.0
N208 N 0.37392 0.52775 0.38616 0.0
C209 C 0.35636 0.51457 0.37311 0.0
C210 C 0.36475 0.48785 0.37103 0.0
C211 C 0.39285 0.509 0.39165 0.0
N212 N 0.3876 0.48431 0.38287 0.0
C213 C 0.31207 0.56167 0.40778 0.0
C214 C 0.31324 0.51302 0.4302 0.0
C215 C 0.28792 0.52411 0.42432 0.0
C216 C 0.28761 0.54917 0.41352 0.0
C217 C 0.33736 0.52646 0.42436 0.0
N218 N 0.33665 0.55044 0.41307 0.0
H219 H 0.31094 0.57908 0.39738 0.0
H220 H 0.35656 0.51646 0.42759 0.0
H221 H 0.33795 0.52336 0.36648 0.0
H222 H 0.40918 0.51281 0.40292 0.0
O223 O 0.35208 0.57548 0.37173 0.0
O224 O 0.3964 0.57787 0.37871 0.0
O225 O 0.39441 0.55354 0.42249 0.0
C226 C 0.37649 0.58181 0.36518 0.0
H227 H 0.38004 0.65442 0.43876 0.0
H228 H 0.35427 0.47211 0.36205 0.0
H229 H 0.31445 0.49354 0.43838 0.0
H230 H 0.26865 0.55805 0.40794 0.0
Co231 Co 0.95543 0.36947 0.3989 0.0
C232 C 0.89941 0.34665 0.40498 0.0
C233 C 0.90604 0.38139 0.42516 0.0
C234 C 0.88006 0.37174 0.42883 0.0
N235 N 0.91873 0.36501 0.4108 0.0
N236 N 0.87598 0.34988 0.41612 0.0
H237 H 0.90197 0.33152 0.3925 0.0
H238 H 0.91445 0.39975 0.43208 0.0
C239 C 0.96563 0.39287 0.44361 0.0
O240 O 0.95655 0.37058 0.45294 0.0
N241 N 0.99156 0.37428 0.38679 0.0
C242 C 1.00483 0.35663 0.37386 0.0
C243 C 0.03151 0.3651 0.37175 0.0
C244 C 0.01022 0.39336 0.39217 0.0
N245 N 0.03493 0.3881 0.38344 0.0
C246 C 0.95763 0.31249 0.40857 0.0
C247 C 1.00635 0.31366 0.43088 0.0
C248 C 0.99517 0.28834 0.42512 0.0
C249 C 0.97008 0.28803 0.41438 0.0
C250 C 0.99295 0.33779 0.42499 0.0
N251 N 0.96892 0.33707 0.41376 0.0
H252 H 0.9402 0.31133 0.39821 0.0
H253 H 1.00299 0.35698 0.42815 0.0
H254 H 0.99612 0.33811 0.36734 0.0
H255 H 1.00632 0.40979 0.40334 0.0
O256 O 0.94386 0.35239 0.37243 0.0
O257 O 0.94145 0.39674 0.37935 0.0
O258 O 0.96583 0.39488 0.42312 0.0
C259 C 0.93752 0.37678 0.36584 0.0
H260 H 0.86504 0.38059 0.43955 0.0
H261 H 0.04732 0.35458 0.36286 0.0
H262 H 0.02587 0.31486 0.439 0.0
H263 H 0.96113 0.26904 0.40889 0.0
Co264 Co 0.36952 0.95452 0.89923 0.0
C265 C 0.34597 0.89873 0.90516 0.0
C266 C 0.38004 0.90532 0.92605 0.0
C267 C 0.37004 0.87947 0.92969 0.0
N268 N 0.3643 0.91797 0.91124 0.0
N269 N 0.34861 0.87541 0.91654 0.0
H270 H 0.33129 0.90127 0.89237 0.0
H271 H 0.39822 0.91365 0.9333 0.0
C272 C 0.39212 0.96507 0.94422 0.0
O273 O 0.36951 0.95663 0.95346 0.0
N274 N 0.37517 0.99053 0.88706 0.0
C275 C 0.3588 1.00361 0.87299 0.0
C276 C 0.36758 0.03026 0.87103 0.0
C277 C 0.39369 1.00929 0.89334 0.0
N278 N 0.38931 0.03376 0.88405 0.0
C279 C 0.31237 0.95737 0.90807 0.0
C280 C 0.31342 1.00629 0.93015 0.0
C281 C 0.28815 0.99524 0.92412 0.0
C282 C 0.28789 0.97007 0.91348 0.0
C283 C 0.33757 0.99265 0.92465 0.0
N284 N 0.33692 0.96852 0.91354 0.0
H285 H 0.31133 0.93982 0.89781 0.0
H286 H 0.35677 1.00254 0.92807 0.0
H287 H 0.34082 0.99488 0.86561 0.0
H288 H 0.40946 1.00561 0.90513 0.0
O289 O 0.35296 0.94291 0.87257 0.0
O290 O 0.39709 0.94007 0.88017 0.0
O291 O 0.39447 0.96475 0.92376 0.0
C292 C 0.37744 0.93625 0.86639 0.0
H293 H 0.37838 0.86452 0.94071 0.0
H294 H 0.35772 0.04623 0.86184 0.0
H295 H 0.31459 0.02586 0.93821 0.0
H296 H 0.26897 0.96119 0.9078 0.0
Co297 Co 0.56494 0.36986 0.8985 0.0
C298 C 0.62018 0.34512 0.90446 0.0
C299 C 0.61475 0.38014 0.92459 0.0
C300 C 0.64037 0.36957 0.92829 0.0
N301 N 0.60153 0.3642 0.91023 0.0
N302 N 0.64369 0.34756 0.9156 0.0
H303 H 0.61713 0.33004 0.89204 0.0
H304 H 0.60689 0.39874 0.93154 0.0
C305 C 0.55562 0.3923 0.94381 0.0
O306 O 0.56461 0.36983 0.95293 0.0
N307 N 0.52882 0.37581 0.88666 0.0
C308 C 0.5158 0.36 0.87216 0.0
C309 C 0.48908 0.36866 0.87051 0.0
C310 C 0.50992 0.39385 0.89356 0.0
N311 N 0.48545 0.38973 0.88418 0.0
C312 C 0.56101 0.31253 0.90571 0.0
C313 C 0.51403 0.31356 0.93023 0.0
C314 C 0.52401 0.2883 0.923 0.0
C315 C 0.5482 0.2881 0.91099 0.0
C316 C 0.52763 0.33769 0.9246 0.0
N317 N 0.55094 0.33704 0.91245 0.0
H318 H 0.57767 0.31158 0.89455 0.0
H319 H 0.5183 0.3569 0.92885 0.0
H320 H 0.52463 0.34245 0.86421 0.0
H321 H 0.5135 0.40909 0.90579 0.0
O322 O 0.5763 0.35376 0.87158 0.0
O323 O 0.57935 0.39773 0.87966 0.0
O324 O 0.55511 0.3945 0.92334 0.0
C325 C 0.58303 0.3783 0.86564 0.0
H326 H 0.65565 0.37785 0.93904 0.0
H327 H 0.47318 0.35913 0.86104 0.0
H328 H 0.49527 0.31481 0.9394 0.0
H329 H 0.55618 0.26935 0.90422 0.0
Co330 Co 0.14965 0.56326 0.89829 0.0
C331 C 0.17394 0.61875 0.9041 0.0
C332 C 0.13855 0.61336 0.92384 0.0
C333 C 0.14883 0.63911 0.92744 0.0
N334 N 0.15491 0.60003 0.90981 0.0
N335 N 0.17108 0.64242 0.91501 0.0
H336 H 0.18927 0.61564 0.89189 0.0
H337 H 0.11985 0.60549 0.93059 0.0
C338 C 0.1263 0.55445 0.94328 0.0
O339 O 0.14864 0.56362 0.95247 0.0
N340 N 0.14413 0.527 0.88661 0.0
C341 C 0.16127 0.51348 0.87341 0.0
C342 C 0.15261 0.48683 0.87168 0.0
C343 C 0.12519 0.50848 0.89257 0.0
N344 N 0.13003 0.48365 0.8839 0.0
C345 C 0.20671 0.5597 0.9068 0.0
C346 C 0.20511 0.5125 0.93103 0.0
C347 C 0.23053 0.52261 0.92431 0.0
C348 C 0.23102 0.54692 0.91247 0.0
C349 C 0.1811 0.52608 0.92502 0.0
N350 N 0.18204 0.54945 0.91298 0.0
H351 H 0.20795 0.57644 0.89575 0.0
H352 H 0.16179 0.51665 0.92884 0.0
H353 H 0.17959 0.52201 0.86641 0.0
H354 H 0.10918 0.51255 0.90407 0.0
O355 O 0.1666 0.574 0.87157 0.0
O356 O 0.12239 0.57755 0.87882 0.0
O357 O 0.12434 0.55369 0.9228 0.0
C358 C 0.14228 0.58073 0.86512 0.0
H359 H 0.14019 0.6545 0.93794 0.0
H360 H 0.16273 0.47087 0.86265 0.0
H361 H 0.20364 0.49365 0.94004 0.0
H362 H 0.24993 0.55503 0.9061 0.0
Co363 Co 0.95514 0.149 0.898 0.0
C364 C 0.8991 0.17181 0.9041 0.0
C365 C 0.90572 0.13698 0.9242 0.0
C366 C 0.87975 0.14666 0.92791 0.0
N367 N 0.91841 0.1534 0.90987 0.0
N368 N 0.87568 0.16857 0.91525 0.0
H369 H 0.90165 0.18698 0.89167 0.0
H370 H 0.91414 0.11861 0.93108 0.0
C371 C 0.96525 0.1259 0.94283 0.0
O372 O 0.95593 0.14815 0.95209 0.0
N373 N 0.99131 0.14428 0.88595 0.0
C374 C 1.00448 0.16189 0.87293 0.0
C375 C 0.03121 0.15354 0.87086 0.0
C376 C 0.01008 0.12537 0.89143 0.0
N377 N 0.03476 0.13068 0.88268 0.0
C378 C 0.95722 0.20612 0.90729 0.0
C379 C 1.00558 0.20517 0.93009 0.0
C380 C 0.99443 0.23044 0.92415 0.0
C381 C 0.96954 0.23064 0.91313 0.0
C382 C 0.99233 0.18099 0.92415 0.0
N383 N 0.96845 0.18159 0.91272 0.0
H384 H 0.93996 0.20716 0.89674 0.0
H385 H 1.00239 0.16184 0.92744 0.0
H386 H 0.99566 0.1803 0.8663 0.0
H387 H 1.00627 0.10901 0.90268 0.0
O388 O 0.94344 0.16577 0.87143 0.0
O389 O 0.94136 0.12148 0.87861 0.0
O390 O 0.96564 0.12385 0.92234 0.0
C391 C 0.93728 0.14126 0.86499 0.0
H392 H 0.86473 0.13781 0.93863 0.0
H393 H 0.04695 0.16407 0.8619 0.0
H394 H 0.02497 0.20405 0.93841 0.0
H395 H 0.96064 0.24957 0.90748 0.0
Co396 Co 0.86891 0.06463 0.61057 0.0
C397 C 0.84523 0.12023 0.6044 0.0
C398 C 0.87947 0.1138 0.58363 0.0
C399 C 0.86923 0.13955 0.57985 0.0
N400 N 0.86376 0.10113 0.59845 0.0
N401 N 0.84771 0.1435 0.59294 0.0
H402 H 0.83046 0.11762 0.61712 0.0
H403 H 0.89771 0.10554 0.57641 0.0
C404 C 0.89181 0.05396 0.56564 0.0
O405 O 0.86935 0.06261 0.55631 0.0
N406 N 0.87429 0.02869 0.62288 0.0
C407 C 0.85708 0.01559 0.63627 0.0
C408 C 0.86561 0.98893 0.63839 0.0
C409 C 0.89316 0.00995 0.61722 0.0
N410 N 0.88819 0.98535 0.62624 0.0
C411 C 0.8117 0.06151 0.60199 0.0
C412 C 0.81303 0.01275 0.57972 0.0
C413 C 0.7877 0.02338 0.58611 0.0
C414 C 0.78729 0.04852 0.59681 0.0
C415 C 0.83708 0.02662 0.58506 0.0
N416 N 0.83631 0.05065 0.59628 0.0
H417 H 0.81059 0.07898 0.61234 0.0
H418 H 0.85633 0.01688 0.58152 0.0
H419 H 0.83877 0.02437 0.6431 0.0
H420 H 0.90918 0.01367 0.60566 0.0
O421 O 0.85238 0.07646 0.63723 0.0
O422 O 0.89652 0.07906 0.62957 0.0
O423 O 0.89395 0.05414 0.58611 0.0
C424 C 0.8769 0.08301 0.64338 0.0
H425 H 0.87742 0.15449 0.56875 0.0
H426 H 0.85539 0.97323 0.64761 0.0
H427 H 0.81435 0.99324 0.57158 0.0
H428 H 0.76836 0.05711 0.60277 0.0
Co429 Co 0.45475 0.86966 0.61184 0.0
C430 C 0.3989 0.84664 0.60562 0.0
C431 C 0.4057 0.88079 0.58487 0.0
C432 C 0.37984 0.87085 0.58109 0.0
N433 N 0.41821 0.86495 0.59968 0.0
N434 N 0.37566 0.84937 0.59418 0.0
H435 H 0.40135 0.83184 0.61834 0.0
H436 H 0.41415 0.89895 0.57766 0.0
C437 C 0.46568 0.89276 0.5671 0.0
O438 O 0.45695 0.87037 0.55771 0.0
N439 N 0.49071 0.87459 0.62423 0.0
C440 C 0.50342 0.85725 0.63774 0.0
C441 C 0.53015 0.86543 0.64004 0.0
C442 C 0.50978 0.89319 0.61867 0.0
N443 N 0.53419 0.88791 0.62788 0.0
C444 C 0.4572 0.81255 0.6026 0.0
C445 C 0.50616 0.81359 0.58059 0.0
C446 C 0.495 0.7883 0.58648 0.0
C447 C 0.4698 0.78806 0.59707 0.0
C448 C 0.49263 0.83774 0.58622 0.0
N449 N 0.46848 0.8371 0.5973 0.0
H450 H 0.43963 0.81148 0.61285 0.0
H451 H 0.50266 0.85692 0.58298 0.0
H452 H 0.49432 0.8391 0.64455 0.0
H453 H 0.50643 0.90924 0.60706 0.0
O454 O 0.44276 0.8529 0.63834 0.0
O455 O 0.44051 0.89716 0.63105 0.0
O456 O 0.46546 0.89485 0.58758 0.0
C457 C 0.43638 0.87739 0.64468 0.0
H458 H 0.365 0.87921 0.57 0.0
H459 H 0.54559 0.85503 0.64941 0.0
H460 H 0.52575 0.81475 0.57256 0.0
H461 H 0.46084 0.76912 0.60265 0.0
Co462 Co 0.64981 0.45551 0.61102 0.0
C463 C 0.6727 0.39953 0.60478 0.0
C464 C 0.63786 0.40618 0.58471 0.0
C465 C 0.64756 0.38022 0.58094 0.0
N466 N 0.65427 0.41884 0.59905 0.0
N467 N 0.66947 0.37613 0.59358 0.0
H468 H 0.68785 0.40205 0.61721 0.0
H469 H 0.61947 0.41461 0.57786 0.0
C470 C 0.62673 0.46578 0.56621 0.0
O471 O 0.64899 0.45651 0.55694 0.0
N472 N 0.64501 0.49162 0.62318 0.0
C473 C 0.66258 0.50477 0.63623 0.0
C474 C 0.6541 0.53144 0.63844 0.0
C475 C 0.62599 0.51033 0.61782 0.0
N476 N 0.63119 0.53497 0.62669 0.0
C477 C 0.70692 0.45775 0.6018 0.0
C478 C 0.70592 0.50635 0.5793 0.0
C479 C 0.73119 0.49527 0.5853 0.0
C480 C 0.73142 0.47024 0.59615 0.0
C481 C 0.68176 0.49293 0.58505 0.0
N482 N 0.68238 0.46895 0.59635 0.0
H483 H 0.70797 0.4404 0.61226 0.0
H484 H 0.66259 0.50294 0.58174 0.0
H485 H 0.68104 0.49598 0.64279 0.0
H486 H 0.60961 0.50652 0.6066 0.0
O487 O 0.66656 0.44373 0.63756 0.0
O488 O 0.62228 0.44162 0.63035 0.0
O489 O 0.62467 0.4661 0.5867 0.0
C490 C 0.64206 0.43755 0.64398 0.0
H491 H 0.63872 0.36524 0.5702 0.0
H492 H 0.66455 0.54716 0.64747 0.0
H493 H 0.70478 0.52583 0.57111 0.0
H494 H 0.75034 0.46137 0.60183 0.0
Co495 Co 0.06338 0.65097 0.61147 0.0
C496 C 0.11916 0.67461 0.60553 0.0
C497 C 0.11292 0.63994 0.58518 0.0
C498 C 0.13876 0.64995 0.58152 0.0
N499 N 0.10005 0.65605 0.59964 0.0
N500 N 0.1426 0.67177 0.59432 0.0
H501 H 0.11643 0.68961 0.61808 0.0
H502 H 0.10474 0.62153 0.57818 0.0
C503 C 0.05349 0.62756 0.5667 0.0
O504 O 0.06215 0.65004 0.55738 0.0
N505 N 0.02727 0.64556 0.6235 0.0
C506 C 0.01388 0.66284 0.63666 0.0
C507 C 0.98727 0.65414 0.63868 0.0
C508 C 1.00873 0.62647 0.61788 0.0
N509 N 0.984 0.63138 0.62669 0.0
C510 C 0.0605 0.7079 0.60181 0.0
C511 C 0.01179 0.70625 0.5795 0.0
C512 C 0.02277 0.73168 0.58521 0.0
C513 C 0.04784 0.73223 0.59597 0.0
C514 C 0.02541 0.68225 0.58542 0.0
N515 N 0.04943 0.68321 0.59664 0.0
H516 H 0.07792 0.70923 0.61217 0.0
H517 H 0.01557 0.66295 0.58225 0.0
H518 H 0.02244 0.6813 0.64341 0.0
H519 H 0.01271 0.61031 0.60649 0.0
O520 O 0.07443 0.66817 0.63802 0.0
O521 O 0.07784 0.62388 0.63095 0.0
O522 O 0.05345 0.62548 0.58718 0.0
C523 C 0.08116 0.64386 0.64454 0.0
H524 H 0.15385 0.64137 0.57072 0.0
H525 H 0.9714 0.66437 0.64772 0.0
H526 H 0.99228 0.70487 0.57138 0.0
H527 H 0.05664 0.7513 0.60142 0.0
C528 C 0.5922 0.95823 0.115 0.0
C529 C 0.61929 0.95893 0.12248 0.0
C530 C 0.57991 0.93348 0.10933 0.0
C531 C 0.5854 0.85903 0.11762 0.0
H532 H 0.54021 0.85481 0.06648 0.0
C533 C 0.54102 0.75652 0.08955 0.0
C534 C 0.51318 0.75664 0.08409 0.0
C535 C 0.55538 0.78102 0.09175 0.0
C536 C 0.55263 0.85568 0.08088 0.0
H537 H 0.65467 0.93386 0.12965 0.0
H538 H 0.63322 0.89086 0.11997 0.0
H539 H 0.56183 0.89802 0.07615 0.0
H540 H 0.47913 0.78255 0.07519 0.0
H541 H 0.50403 0.82529 0.07933 0.0
H542 H 0.57597 0.8169 0.12257 0.0
C543 C 0.62136 0.90945 0.11873 0.0
C544 C 0.56498 0.88046 0.08645 0.0
C545 C 0.63365 0.93417 0.12436 0.0
C546 C 0.50049 0.78177 0.07964 0.0
C547 C 0.51484 0.80628 0.08186 0.0
C548 C 0.57305 0.8343 0.11208 0.0
C549 C 0.59438 0.9088 0.11105 0.0
C550 C 0.58143 0.88244 0.10494 0.0
C551 C 0.54225 0.80624 0.08857 0.0
C552 C 0.55645 0.83231 0.09368 0.0
H553 H 0.58038 0.97681 0.11361 0.0
H554 H 0.55895 0.93366 0.10381 0.0
H555 H 0.59759 0.85993 0.13214 0.0
H556 H 0.55141 0.7376 0.0933 0.0
H557 H 0.57661 0.78024 0.09655 0.0
C558 C 0.73795 0.49837 0.07831 0.0
C559 C 0.76249 0.51158 0.08369 0.0
C560 C 0.713 0.51199 0.08016 0.0
C561 C 0.68078 0.57998 0.08721 0.0
H562 H 0.62508 0.53864 0.1173 0.0
C563 C 0.58546 0.63137 0.12401 0.0
C564 C 0.56033 0.61767 0.12211 0.0
C565 C 0.60983 0.61851 0.11815 0.0
C566 C 0.64022 0.55039 0.10862 0.0
H567 H 0.78012 0.54992 0.09422 0.0
H568 H 0.73662 0.57375 0.09731 0.0
H569 H 0.66781 0.51661 0.10745 0.0
H570 H 0.54145 0.5793 0.11301 0.0
H571 H 0.5838 0.55714 0.10239 0.0
H572 H 0.6532 0.61385 0.08852 0.0
C573 C 0.73667 0.55289 0.09153 0.0
C574 C 0.66474 0.53774 0.10293 0.0
C575 C 0.76164 0.53925 0.08968 0.0
C576 C 0.56031 0.59062 0.11449 0.0
C577 C 0.58468 0.57779 0.10859 0.0
C578 C 0.6562 0.59265 0.09285 0.0
C579 C 0.71201 0.53915 0.08743 0.0
C580 C 0.68538 0.5524 0.09226 0.0
C581 C 0.60974 0.59162 0.11022 0.0
C582 C 0.63568 0.57805 0.10376 0.0
H583 H 0.73797 0.47716 0.07336 0.0
H584 H 0.69441 0.50101 0.07644 0.0
H585 H 0.69616 0.59177 0.07881 0.0
H586 H 0.58635 0.65226 0.12957 0.0
H587 H 0.62879 0.62964 0.11993 0.0
C588 C 0.97911 0.76113 0.08863 0.0
C589 C 1.0067 0.76207 0.08243 0.0
C590 C 0.96557 0.73611 0.09051 0.0
C591 C 0.98123 0.66424 0.10167 0.0
H592 H 0.9049 0.65243 0.08821 0.0
C593 C 0.92887 0.55971 0.11412 0.0
C594 C 0.90199 0.55972 0.12209 0.0
C595 C 0.94152 0.58408 0.10798 0.0
C596 C 0.92617 0.6555 0.09227 0.0
H597 H 0.04103 0.7377 0.07169 0.0
H598 H 0.01735 0.69405 0.0748 0.0
H599 H 0.92664 0.69544 0.07819 0.0
H600 H 0.8675 0.58573 0.12992 0.0
H601 H 0.88982 0.62815 0.11989 0.0
H602 H 0.98074 0.62461 0.1161 0.0
C603 C 1.00637 0.7126 0.07869 0.0
C604 C 0.93863 0.68011 0.08645 0.0
C605 C 0.01989 0.7376 0.07681 0.0
C606 C 0.88828 0.58483 0.1241 0.0
C607 C 0.90096 0.6092 0.11801 0.0
C608 C 0.96877 0.63969 0.10754 0.0
C609 C 0.97933 0.7115 0.08622 0.0
C610 C 0.96629 0.68481 0.09117 0.0
C611 C 0.92767 0.60912 0.10973 0.0
C612 C 0.94104 0.63506 0.10303 0.0
H613 H 0.96846 0.77956 0.09335 0.0
H614 H 0.94481 0.73598 0.09649 0.0
H615 H 1.00242 0.66739 0.10594 0.0
H616 H 0.9402 0.54086 0.11254 0.0
H617 H 0.96204 0.5832 0.10152 0.0
C618 C 0.95938 0.92955 0.11345 0.0
C619 C 0.95901 0.90252 0.12111 0.0
C620 C 0.93519 0.94262 0.10743 0.0
C621 C 0.8637 0.92844 0.09136 0.0
H622 H 0.85223 1.00432 0.10658 0.0
C623 C 0.75825 0.9816 0.08886 0.0
C624 C 0.75724 1.00938 0.08323 0.0
C625 C 0.7833 0.96807 0.09051 0.0
C626 C 0.85527 0.98325 0.10187 0.0
H627 H 0.93257 0.8682 0.12845 0.0
H628 H 0.89046 0.89123 0.11858 0.0
H629 H 0.89493 0.98207 0.11622 0.0
H630 H 0.78157 0.04416 0.07338 0.0
H631 H 0.82528 0.02049 0.07611 0.0
H632 H 0.82376 0.92957 0.07734 0.0
C633 C 0.90955 0.90217 0.11689 0.0
C634 C 0.87976 0.97047 0.10745 0.0
C635 C 0.93373 0.88908 0.12288 0.0
C636 C 0.78171 0.02286 0.07805 0.0
C637 C 0.80674 1.00933 0.0797 0.0
C638 C 0.83915 0.94123 0.08582 0.0
C639 C 0.90998 0.92904 0.10895 0.0
C640 C 0.88421 0.94285 0.10242 0.0
C641 C 0.80789 0.98201 0.08657 0.0
C642 C 0.83458 0.96874 0.09113 0.0
H643 H 0.97837 0.94066 0.11205 0.0
H644 H 0.93631 0.96326 0.10124 0.0
H645 H 0.86664 0.90728 0.0869 0.0
H646 H 0.73984 0.97071 0.09325 0.0
H647 H 0.78345 0.94709 0.09601 0.0
C648 C 0.03851 0.26144 0.42155 0.0
C649 C 0.01083 0.26251 0.42748 0.0
C650 C 0.05199 0.23636 0.41983 0.0
C651 C 0.03642 0.16438 0.40878 0.0
H652 H 0.11262 0.15281 0.42284 0.0
C653 C 0.08941 0.06 0.3967 0.0
C654 C 0.11628 0.06021 0.3887 0.0
C655 C 0.07659 0.08428 0.40287 0.0
C656 C 0.09138 0.1558 0.41863 0.0
H657 H 0.97621 0.23828 0.43782 0.0
H658 H 0.99978 0.19453 0.43497 0.0
H659 H 0.09066 0.19581 0.43258 0.0
H660 H 0.15061 0.08645 0.38095 0.0
H661 H 0.12801 0.12871 0.39109 0.0
H662 H 0.03719 0.12465 0.3945 0.0
C663 C 0.0109 0.21303 0.4312 0.0
C664 C 0.07879 0.18042 0.42428 0.0
C665 C 0.99743 0.23809 0.43292 0.0
C666 C 0.12984 0.08541 0.38678 0.0
C667 C 0.117 0.10968 0.39292 0.0
C668 C 0.04901 0.13981 0.4031 0.0
C669 C 0.03808 0.21181 0.424 0.0
C670 C 0.05119 0.18506 0.4193 0.0
C671 C 0.09028 0.10942 0.40117 0.0
C672 C 0.0767 0.13528 0.40781 0.0
H673 H 0.04933 0.27982 0.41696 0.0
H674 H 0.07286 0.23615 0.41408 0.0
H675 H 0.01528 0.16746 0.40432 0.0
H676 H 0.07822 0.04107 0.39823 0.0
H677 H 0.05607 0.08327 0.4093 0.0
C678 C 0.25637 0.04067 0.42316 0.0
C679 C 0.25625 0.01226 0.4264 0.0
C680 C 0.28101 0.05498 0.42167 0.0
C681 C 0.35661 0.04817 0.42923 0.0
H682 H 0.35866 0.10387 0.38497 0.0
C683 C 0.45498 0.10884 0.41103 0.0
C684 C 0.46015 0.11645 0.38961 0.0
C685 C 0.42997 0.0973 0.41683 0.0
C686 C 0.3586 0.08816 0.39722 0.0
H687 H 0.28205 0.97706 0.43232 0.0
H688 H 0.32479 1.0016 0.4288 0.0
H689 H 0.3157 0.08194 0.39372 0.0
H690 H 0.44348 0.11761 0.35742 0.0
H691 H 0.40009 0.09643 0.36723 0.0
H692 H 0.39979 0.05322 0.43181 0.0
C693 C 0.30595 0.01306 0.42766 0.0
C694 C 0.33374 0.0759 0.40257 0.0
C695 C 0.28135 0.99885 0.42943 0.0
C696 C 0.43989 0.11208 0.37405 0.0
C697 C 0.41498 0.10011 0.37976 0.0
C698 C 0.38153 0.06015 0.42366 0.0
C699 C 0.30617 0.04121 0.42314 0.0
C700 C 0.3324 0.0556 0.41857 0.0
C701 C 0.4096 0.09269 0.40128 0.0
C702 C 0.38292 0.08023 0.40749 0.0
H703 H 0.2375 0.05172 0.42063 0.0
H704 H 0.28029 0.07675 0.41873 0.0
H705 H 0.35643 0.03291 0.44184 0.0
H706 H 0.47003 0.11248 0.42346 0.0
H707 H 0.42649 0.09246 0.43361 0.0
C708 C 0.47985 0.25748 0.41988 0.0
C709 C 0.50753 0.25667 0.42581 0.0
C710 C 0.4662 0.28245 0.41799 0.0
C711 C 0.48129 0.35443 0.40651 0.0
H712 H 0.40523 0.36596 0.4211 0.0
C713 C 0.42843 0.45893 0.39525 0.0
C714 C 0.40138 0.45894 0.38766 0.0
C715 C 0.44126 0.43454 0.4011 0.0
C716 C 0.42642 0.36297 0.41672 0.0
H717 H 0.54197 0.28126 0.43597 0.0
H718 H 0.51811 0.3248 0.43283 0.0
H719 H 0.42732 0.32297 0.43069 0.0
H720 H 0.36676 0.43295 0.38024 0.0
H721 H 0.38936 0.39048 0.38979 0.0
H722 H 0.48036 0.39412 0.39221 0.0
C723 C 0.50713 0.30619 0.42918 0.0
C724 C 0.43909 0.33836 0.42229 0.0
C725 C 0.52075 0.28125 0.43107 0.0
C726 C 0.38766 0.43382 0.38577 0.0
C727 C 0.40051 0.40943 0.39157 0.0
C728 C 0.46863 0.37897 0.40089 0.0
C729 C 0.47994 0.30715 0.42199 0.0
C730 C 0.46666 0.33377 0.41718 0.0
C731 C 0.42741 0.40948 0.39944 0.0
C732 C 0.44099 0.38352 0.40582 0.0
H733 H 0.46916 0.23897 0.41545 0.0
H734 H 0.44532 0.28246 0.41228 0.0
H735 H 0.50241 0.35137 0.40194 0.0
H736 H 0.43977 0.47778 0.39673 0.0
H737 H 0.46191 0.4354 0.40726 0.0
C738 C 0.06011 0.42913 0.39565 0.0
C739 C 0.06022 0.40199 0.38823 0.0
C740 C 0.08441 0.44205 0.40158 0.0
C741 C 0.15578 0.42741 0.4178 0.0
H742 H 0.16755 0.50324 0.40263 0.0
C743 C 0.26125 0.48062 0.42083 0.0
C744 C 0.26214 0.50836 0.4266 0.0
C745 C 0.23625 0.46703 0.41904 0.0
C746 C 0.16443 0.48217 0.40731 0.0
H747 H 0.08634 0.36733 0.38116 0.0
H748 H 0.12867 0.3901 0.39084 0.0
H749 H 0.12489 0.48112 0.39278 0.0
H750 H 0.23765 0.54298 0.43658 0.0
H751 H 0.19404 0.51922 0.43357 0.0
H752 H 0.19563 0.42843 0.43199 0.0
C753 C 0.10968 0.40124 0.39244 0.0
C754 C 0.13995 0.46946 0.40162 0.0
C755 C 0.08538 0.38829 0.38656 0.0
C756 C 0.23761 0.52172 0.4318 0.0
C757 C 0.21263 0.50814 0.42999 0.0
C758 C 0.18032 0.44012 0.42344 0.0
C759 C 0.1095 0.42821 0.40017 0.0
C760 C 0.13536 0.44187 0.40668 0.0
C761 C 0.21161 0.48088 0.42295 0.0
C762 C 0.18498 0.46763 0.41817 0.0
H763 H 0.04123 0.44046 0.39696 0.0
H764 H 0.08345 0.46277 0.40762 0.0
H765 H 0.15274 0.40626 0.42228 0.0
H766 H 0.27972 0.46982 0.41643 0.0
H767 H 0.23619 0.44609 0.41343 0.0
C768 C 0.41048 0.06425 0.91089 0.0
C769 C 0.40227 0.05918 0.88959 0.0
C770 C 0.42224 0.08921 0.91654 0.0
C771 C 0.43105 0.16067 0.897 0.0
H772 H 0.48766 0.16234 0.94053 0.0
C773 C 0.47956 0.26256 0.92272 0.0
C774 C 0.50805 0.26259 0.92545 0.0
C775 C 0.46517 0.23796 0.92124 0.0
C776 C 0.47202 0.16229 0.92823 0.0
H777 H 0.40022 0.07602 0.85747 0.0
H778 H 0.42175 0.11933 0.86702 0.0
H779 H 0.46689 0.11912 0.93074 0.0
H780 H 0.54338 0.23665 0.93043 0.0
H781 H 0.51867 0.194 0.92696 0.0
H782 H 0.43731 0.20358 0.89356 0.0
C783 C 0.41839 0.10439 0.87958 0.0
C784 C 0.45977 0.13745 0.9228 0.0
C785 C 0.40623 0.07953 0.87401 0.0
C786 C 0.52151 0.23743 0.92794 0.0
C787 C 0.50721 0.21287 0.9262 0.0
C788 C 0.44356 0.18544 0.90221 0.0
C789 C 0.42645 0.10965 0.90097 0.0
C790 C 0.4392 0.13624 0.90702 0.0
C791 C 0.47894 0.21276 0.92225 0.0
C792 C 0.46435 0.18661 0.91781 0.0
H793 H 0.40718 0.04914 0.92333 0.0
H794 H 0.42756 0.0926 0.93324 0.0
H795 H 0.41497 0.16073 0.88505 0.0
H796 H 0.46847 0.28149 0.9206 0.0
H797 H 0.44332 0.23875 0.91873 0.0
C798 C 0.45487 0.4099 0.91147 0.0
C799 C 0.45998 0.4024 0.89001 0.0
C800 C 0.42986 0.42138 0.91736 0.0
C801 C 0.3584 0.43045 0.89798 0.0
H802 H 0.35637 0.4859 0.94247 0.0
C803 C 0.25627 0.47816 0.92392 0.0
C804 C 0.25618 0.5066 0.92698 0.0
C805 C 0.2809 0.46381 0.92249 0.0
C806 C 0.35652 0.47058 0.92991 0.0
H807 H 0.44316 0.40137 0.85785 0.0
H808 H 0.39977 0.42238 0.86785 0.0
H809 H 0.3997 0.46551 0.93242 0.0
H810 H 0.282 0.54184 0.93265 0.0
H811 H 0.32473 0.51721 0.92926 0.0
H812 H 0.31549 0.43667 0.89456 0.0
C813 C 0.41472 0.41867 0.88033 0.0
C814 C 0.38142 0.45855 0.92432 0.0
C815 C 0.43963 0.40679 0.87452 0.0
C816 C 0.28129 0.52002 0.9299 0.0
C817 C 0.30588 0.50576 0.9282 0.0
C818 C 0.33356 0.44274 0.90336 0.0
C819 C 0.40941 0.426 0.90188 0.0
C820 C 0.38275 0.43843 0.90817 0.0
C821 C 0.30607 0.47757 0.92386 0.0
C822 C 0.33227 0.46312 0.91931 0.0
H823 H 0.46999 0.40625 0.92384 0.0
H824 H 0.42644 0.42616 0.93416 0.0
H825 H 0.35843 0.4147 0.88576 0.0
H826 H 0.23739 0.4671 0.92147 0.0
H827 H 0.28017 0.44201 0.91968 0.0
C828 C 0.99643 0.28071 0.93189 0.0
C829 C 0.00998 0.2563 0.92664 0.0
C830 C 0.00989 0.30578 0.93035 0.0
C831 C 0.0779 0.33842 0.92436 0.0
H832 H 0.03691 0.39419 0.89407 0.0
C833 C 0.12969 0.43324 0.8873 0.0
C834 C 0.11614 0.45847 0.88906 0.0
C835 C 0.11673 0.40901 0.89336 0.0
C836 C 0.04856 0.37903 0.90282 0.0
H837 H 0.04873 0.23903 0.91663 0.0
H838 H 0.07224 0.28272 0.91406 0.0
H839 H 0.0148 0.3514 0.90362 0.0
H840 H 0.07798 0.47772 0.89821 0.0
H841 H 0.05559 0.43558 0.90913 0.0
H842 H 0.11176 0.36601 0.92334 0.0
C843 C 0.05125 0.28249 0.91953 0.0
C844 C 0.03585 0.35448 0.90834 0.0
C845 C 0.03778 0.2574 0.92107 0.0
C846 C 0.08916 0.45876 0.89681 0.0
C847 C 0.07621 0.43453 0.9029 0.0
C848 C 0.09061 0.36302 0.91887 0.0
C849 C 0.03722 0.30703 0.92353 0.0
C850 C 0.05041 0.33378 0.91904 0.0
C851 C 0.08988 0.40936 0.90134 0.0
C852 C 0.07615 0.38354 0.90786 0.0
H853 H 0.97511 0.28049 0.93651 0.0
H854 H 0.99867 0.32427 0.93399 0.0
H855 H 0.0896 0.32303 0.93281 0.0
H856 H 0.15055 0.43215 0.88166 0.0
H857 H 0.12773 0.38996 0.89165 0.0
C858 C 0.26153 0.03873 0.92022 0.0
C859 C 0.26237 0.01105 0.92617 0.0
C860 C 0.23654 0.05233 0.91826 0.0
C861 C 0.16467 0.03713 0.90658 0.0
H862 H 0.15295 0.11317 0.92114 0.0
C863 C 0.06016 0.08984 0.89504 0.0
C864 C 0.06014 0.11691 0.88748 0.0
C865 C 0.08455 0.07704 0.90093 0.0
C866 C 0.156 0.09199 0.91677 0.0
H867 H 0.2378 0.97657 0.93631 0.0
H868 H 0.19423 1.00035 0.93303 0.0
H869 H 0.19591 0.09114 0.93087 0.0
H870 H 0.0861 0.1516 0.88015 0.0
H871 H 0.12856 0.12904 0.88977 0.0
H872 H 0.12506 0.03801 0.89216 0.0
C873 C 0.21284 0.01136 0.92942 0.0
C874 C 0.18059 0.07935 0.92242 0.0
C875 C 0.23779 0.99778 0.93138 0.0
C876 C 0.08524 0.13068 0.88565 0.0
C877 C 0.10963 0.11785 0.8915 0.0
C878 C 0.14015 0.04976 0.90089 0.0
C879 C 0.21186 0.03854 0.9222 0.0
C880 C 0.18525 0.05179 0.91732 0.0
C881 C 0.10958 0.09094 0.89935 0.0
C882 C 0.13554 0.07739 0.9058 0.0
H883 H 0.28003 0.04945 0.91581 0.0
H884 H 0.23652 0.0732 0.91252 0.0
H885 H 0.16779 0.01601 0.90202 0.0
H886 H 0.04133 0.07847 0.89647 0.0
H887 H 0.08369 0.05638 0.90707 0.0
C888 C 0.02022 0.78183 0.57721 0.0
C889 C 1.00695 0.75738 0.58277 0.0
C890 C 1.00669 0.80685 0.57897 0.0
C891 C 0.93886 0.83938 0.58624 0.0
H892 H 0.98069 0.89507 0.61592 0.0
C893 C 0.88819 0.93487 0.62338 0.0
C894 C 0.90189 0.95997 0.62133 0.0
C895 C 0.90091 0.91047 0.61742 0.0
C896 C 0.9688 0.87993 0.60736 0.0
H897 H 0.9686 0.73996 0.59348 0.0
H898 H 0.94494 0.78357 0.59642 0.0
H899 H 1.00247 0.85223 0.60604 0.0
H900 H 0.94012 0.9788 0.61181 0.0
H901 H 0.96206 0.93639 0.60103 0.0
H902 H 0.9051 0.86707 0.58774 0.0
C903 C 0.96577 0.78341 0.59057 0.0
C904 C 0.98131 0.85535 0.60164 0.0
C905 C 0.97931 0.75837 0.58881 0.0
C906 C 0.9288 0.95995 0.61343 0.0
C907 C 0.94151 0.93555 0.60743 0.0
C908 C 0.92634 0.86403 0.59192 0.0
C909 C 0.97957 0.80799 0.58633 0.0
C910 C 0.96647 0.83471 0.59113 0.0
C911 C 0.92767 0.91051 0.60923 0.0
C912 C 0.94111 0.88454 0.60268 0.0
H913 H 0.04141 0.7817 0.57222 0.0
H914 H 0.01772 0.82538 0.57513 0.0
H915 H 0.92694 0.824 0.57797 0.0
H916 H 0.86738 0.93402 0.62915 0.0
H917 H 0.88979 0.89152 0.61933 0.0
C918 C 0.73709 0.01981 0.58007 0.0
C919 C 0.76218 1.00705 0.58451 0.0
C920 C 0.71255 1.00554 0.58239 0.0
C921 C 0.68438 0.94769 0.61293 0.0
H922 H 0.6208 0.95846 0.57677 0.0
C923 C 0.58464 0.88697 0.62531 0.0
C924 C 0.55984 0.90119 0.62319 0.0
C925 C 0.60935 0.89932 0.61972 0.0
C926 C 0.63832 0.95546 0.58714 0.0
H927 H 0.78114 0.96883 0.59384 0.0
H928 H 0.73842 0.94378 0.59732 0.0
H929 H 0.66403 0.98003 0.56706 0.0
H930 H 0.54184 0.9399 0.61394 0.0
H931 H 0.58497 0.96145 0.60421 0.0
H932 H 0.6587 0.92337 0.63312 0.0
C933 C 0.7377 0.96498 0.59242 0.0
C934 C 0.6631 0.96776 0.58154 0.0
C935 C 0.76223 0.97924 0.5901 0.0
C936 C 0.56046 0.9282 0.61552 0.0
C937 C 0.5852 0.94055 0.60989 0.0
C938 C 0.65964 0.9354 0.61851 0.0
C939 C 0.71252 0.97818 0.58922 0.0
C940 C 0.68642 0.96408 0.59441 0.0
C941 C 0.60994 0.92621 0.61184 0.0
C942 C 0.63628 0.9392 0.60574 0.0
H943 H 0.73637 0.04114 0.57553 0.0
H944 H 0.69356 0.01639 0.57985 0.0
H945 H 0.70175 0.94489 0.62347 0.0
H946 H 0.58501 0.86601 0.63075 0.0
H947 H 0.62798 0.88755 0.62114 0.0
C948 C 0.63091 0.58546 0.62396 0.0
C949 C 0.61727 0.5603 0.62205 0.0
C950 C 0.61795 0.60983 0.61824 0.0
C951 C 0.54973 0.64013 0.60908 0.0
H952 H 0.59083 0.69617 0.57917 0.0
C953 C 0.49748 0.73795 0.5791 0.0
C954 C 0.51077 0.7625 0.58436 0.0
C955 C 0.51107 0.71298 0.58096 0.0
C956 C 0.57912 0.68077 0.5876 0.0
H957 H 0.57889 0.54136 0.61308 0.0
H958 H 0.55656 0.5837 0.6027 0.0
H959 H 0.61302 0.65322 0.5887 0.0
H960 H 0.5492 0.78009 0.59472 0.0
H961 H 0.57295 0.73657 0.59779 0.0
H962 H 0.51591 0.66769 0.60813 0.0
C963 C 0.57724 0.58461 0.6088 0.0
C964 C 0.59184 0.65618 0.59314 0.0
C965 C 0.59017 0.56025 0.61456 0.0
C966 C 0.53846 0.76162 0.59027 0.0
C967 C 0.55206 0.73662 0.59211 0.0
C968 C 0.53701 0.66465 0.6035 0.0
C969 C 0.59102 0.6097 0.61043 0.0
C970 C 0.57735 0.63563 0.60408 0.0
C971 C 0.53827 0.71197 0.58809 0.0
C972 C 0.55157 0.68533 0.5928 0.0
H973 H 0.65184 0.58639 0.62942 0.0
H974 H 0.62905 0.62881 0.62001 0.0
H975 H 0.53806 0.62495 0.6178 0.0
H976 H 0.47626 0.73799 0.57422 0.0
H977 H 0.50005 0.69439 0.5773 0.0
C978 C 0.93356 0.63098 0.62357 0.0
C979 C 0.95878 0.61743 0.62174 0.0
C980 C 0.90931 0.61801 0.6176 0.0
C981 C 0.87929 0.54982 0.60798 0.0
H982 H 0.82341 0.59098 0.57795 0.0
C983 C 0.78152 0.49762 0.57791 0.0
C984 C 0.75699 0.51099 0.5831 0.0
C985 C 0.8065 0.51118 0.57974 0.0
C986 C 0.83877 0.57925 0.58641 0.0
H987 H 0.97796 0.57922 0.61262 0.0
H988 H 0.9358 0.55683 0.60183 0.0
H989 H 0.86628 0.61316 0.58769 0.0
H990 H 0.73942 0.54951 0.5933 0.0
H991 H 0.78296 0.57321 0.59637 0.0
H992 H 0.85175 0.516 0.6069 0.0
C993 C 0.93476 0.57746 0.60805 0.0
C994 C 0.86331 0.59197 0.59206 0.0
C995 C 0.95902 0.59042 0.61406 0.0
C996 C 0.75789 0.53872 0.5889 0.0
C997 C 0.78289 0.55229 0.59073 0.0
C998 C 0.85481 0.5371 0.6023 0.0
C999 C 0.90961 0.59115 0.60962 0.0
C1000 C 0.88379 0.57746 0.60307 0.0
C1001 C 0.80754 0.53843 0.5868 0.0
C1002 C 0.83418 0.55169 0.59157 0.0
H1003 H 0.93249 0.65186 0.62917 0.0
H1004 H 0.89027 0.62903 0.61932 0.0
H1005 H 0.89442 0.53813 0.61673 0.0
H1006 H 0.78147 0.47636 0.57311 0.0
H1007 H 0.82509 0.5001 0.57615 0.0
C1008 C 0.69167 0.18282 0.07632 0.0
C1009 C 0.68614 0.16788 0.0951 0.0
C1010 C 0.70889 0.20557 0.07692 0.0
C1011 C 0.76159 0.23963 0.11126 0.0
H1012 H 0.74952 0.29955 0.07161 0.0
C1013 C 0.81929 0.34362 0.11472 0.0
C1014 C 0.83058 0.35233 0.09507 0.0
C1015 C 0.80175 0.32106 0.11541 0.0
C1016 C 0.75318 0.28289 0.08272 0.0
H1017 H 0.69368 0.16546 0.12936 0.0
H1018 H 0.72287 0.20579 0.13072 0.0
H1019 H 0.71798 0.26113 0.07196 0.0
H1020 H 0.83218 0.34447 0.0608 0.0
H1021 H 0.80111 0.30538 0.06194 0.0
H1022 H 0.79643 0.26214 0.12238 0.0
C1023 C 0.71472 0.1995 0.1153 0.0
C1024 C 0.7352 0.26073 0.08286 0.0
C1025 C 0.69786 0.17643 0.1146 0.0
C1026 C 0.82397 0.33805 0.07617 0.0
C1027 C 0.80604 0.31585 0.0768 0.0
C1028 C 0.77929 0.26207 0.11137 0.0
C1029 C 0.72068 0.21433 0.09643 0.0
C1030 C 0.73928 0.23856 0.09695 0.0
C1031 C 0.79473 0.30714 0.09642 0.0
C1032 C 0.77544 0.28377 0.09693 0.0
H1033 H 0.68325 0.17644 0.06102 0.0
H1034 H 0.71336 0.21592 0.06194 0.0
H1035 H 0.76581 0.22287 0.12212 0.0
H1036 H 0.82418 0.35416 0.12954 0.0
H1037 H 0.79324 0.31481 0.13074 0.0
C1038 C 0.33719 0.6927 0.07604 0.0
C1039 C 0.35233 0.68728 0.09473 0.0
C1040 C 0.31425 0.70964 0.07679 0.0
C1041 C 0.27962 0.76175 0.11136 0.0
H1042 H 0.21968 0.74871 0.07194 0.0
C1043 C 0.17488 0.81831 0.11473 0.0
C1044 C 0.16623 0.82951 0.09505 0.0
C1045 C 0.19757 0.80093 0.11553 0.0
C1046 C 0.23633 0.75263 0.08299 0.0
H1047 H 0.35496 0.69481 0.12899 0.0
H1048 H 0.31431 0.72355 0.1306 0.0
H1049 H 0.25854 0.71773 0.07218 0.0
H1050 H 0.17429 0.83108 0.0608 0.0
H1051 H 0.21358 0.80029 0.0621 0.0
H1052 H 0.25665 0.79631 0.12252 0.0
C1053 C 0.32058 0.7155 0.11514 0.0
C1054 C 0.25876 0.73498 0.08306 0.0
C1055 C 0.34384 0.69891 0.11429 0.0
C1056 C 0.18066 0.82294 0.0762 0.0
C1057 C 0.20298 0.80517 0.07692 0.0
C1058 C 0.25691 0.77913 0.11153 0.0
C1059 C 0.30549 0.72126 0.09636 0.0
C1060 C 0.28095 0.73945 0.09704 0.0
C1061 C 0.21166 0.79398 0.09658 0.0
C1062 C 0.23521 0.77492 0.09716 0.0
H1063 H 0.34354 0.68435 0.06069 0.0
H1064 H 0.30373 0.714 0.06186 0.0
H1065 H 0.29638 0.76625 0.12214 0.0
H1066 H 0.16421 0.82318 0.12951 0.0
H1067 H 0.20381 0.79251 0.13088 0.0
C1068 C 0.32107 0.67603 0.39466 0.0
C1069 C 0.33259 0.66753 0.41424 0.0
C1070 C 0.30439 0.69923 0.39379 0.0
C1071 C 0.28424 0.76083 0.42599 0.0
H1072 H 0.22333 0.76274 0.38619 0.0
C1073 C 0.19556 0.83826 0.43252 0.0
C1074 C 0.18924 0.85281 0.41369 0.0
C1075 C 0.21349 0.81607 0.43186 0.0
C1076 C 0.24039 0.76253 0.39727 0.0
H1077 H 0.33526 0.67626 0.44831 0.0
H1078 H 0.30545 0.71594 0.44712 0.0
H1079 H 0.25363 0.7232 0.3866 0.0
H1080 H 0.19619 0.85517 0.37931 0.0
H1081 H 0.22714 0.81578 0.37804 0.0
H1082 H 0.27012 0.79976 0.43719 0.0
C1083 C 0.30996 0.70549 0.43218 0.0
C1084 C 0.25791 0.73993 0.39746 0.0
C1085 C 0.327 0.68261 0.43294 0.0
C1086 C 0.20087 0.84441 0.39408 0.0
C1087 C 0.2184 0.82183 0.39334 0.0
C1088 C 0.26644 0.78314 0.42605 0.0
C1089 C 0.29842 0.71424 0.41259 0.0
C1090 C 0.28007 0.73867 0.4119 0.0
C1091 C 0.22509 0.80763 0.41228 0.0
C1092 C 0.2443 0.78418 0.41175 0.0
H1093 H 0.3253 0.66495 0.37995 0.0
H1094 H 0.29642 0.7055 0.37832 0.0
H1095 H 0.30138 0.76111 0.43698 0.0
H1096 H 0.18707 0.84445 0.44786 0.0
H1097 H 0.21818 0.80538 0.44667 0.0
C1098 C 0.83677 0.32765 0.43384 0.0
C1099 C 0.85188 0.33304 0.41511 0.0
C1100 C 0.81395 0.31055 0.43317 0.0
C1101 C 0.77987 0.25787 0.39888 0.0
H1102 H 0.71969 0.27075 0.43817 0.0
C1103 C 0.67577 0.20027 0.39565 0.0
C1104 C 0.66698 0.18932 0.41539 0.0
C1105 C 0.69833 0.21781 0.39481 0.0
C1106 C 0.73641 0.26686 0.42716 0.0
H1107 H 0.85456 0.32533 0.38088 0.0
H1108 H 0.81411 0.29631 0.37941 0.0
H1109 H 0.75826 0.30208 0.43778 0.0
H1110 H 0.67468 0.18836 0.4497 0.0
H1111 H 0.71376 0.21941 0.44832 0.0
H1112 H 0.75727 0.22298 0.38793 0.0
C1113 C 0.82032 0.3045 0.39483 0.0
C1114 C 0.75866 0.28472 0.427 0.0
C1115 C 0.84346 0.32126 0.3956 0.0
C1116 C 0.68117 0.1963 0.43426 0.0
C1117 C 0.70335 0.21422 0.43349 0.0
C1118 C 0.75734 0.24027 0.39881 0.0
C1119 C 0.80529 0.29875 0.41364 0.0
C1120 C 0.78093 0.28032 0.41306 0.0
C1121 C 0.71216 0.22517 0.41377 0.0
C1122 C 0.73555 0.24442 0.41313 0.0
H1123 H 0.84307 0.3361 0.44915 0.0
H1124 H 0.80345 0.30621 0.44811 0.0
H1125 H 0.79669 0.25343 0.38815 0.0
H1126 H 0.66531 0.19509 0.38085 0.0
H1127 H 0.70466 0.22603 0.37941 0.0
C1128 C 0.19442 0.68085 0.93289 0.0
C1129 C 0.18862 0.666 0.91409 0.0
C1130 C 0.21227 0.7031 0.9323 0.0
C1131 C 0.23994 0.75618 0.89764 0.0
H1132 H 0.29984 0.75829 0.93835 0.0
C1133 C 0.32071 0.84264 0.89566 0.0
C1134 C 0.33166 0.85141 0.91537 0.0
C1135 C 0.304 0.81947 0.8947 0.0
C1136 C 0.283 0.75837 0.92708 0.0
H1137 H 0.1964 0.66318 0.87984 0.0
H1138 H 0.22722 0.70266 0.8787 0.0
H1139 H 0.26865 0.7196 0.93839 0.0
H1140 H 0.33322 0.84326 0.94957 0.0
H1141 H 0.30337 0.80364 0.94819 0.0
H1142 H 0.25342 0.79536 0.88682 0.0
C1143 C 0.21814 0.69679 0.89391 0.0
C1144 C 0.26523 0.73604 0.92704 0.0
C1145 C 0.20067 0.67417 0.89458 0.0
C1146 C 0.32542 0.83668 0.93411 0.0
C1147 C 0.30836 0.81384 0.93324 0.0
C1148 C 0.25742 0.7788 0.89792 0.0
C1149 C 0.22432 0.71129 0.91282 0.0
C1150 C 0.24348 0.73475 0.91239 0.0
C1151 C 0.29745 0.80477 0.91351 0.0
C1152 C 0.27917 0.78031 0.91272 0.0
H1153 H 0.18559 0.67485 0.94815 0.0
H1154 H 0.21656 0.71402 0.94708 0.0
H1155 H 0.22318 0.75576 0.88627 0.0
H1156 H 0.32543 0.85347 0.88093 0.0
H1157 H 0.2965 0.81296 0.87914 0.0
C1158 C 0.67555 0.3183 0.89497 0.0
C1159 C 0.66717 0.32987 0.9146 0.0
C1160 C 0.69805 0.30068 0.8942 0.0
C1161 C 0.73654 0.25235 0.92677 0.0
H1162 H 0.79639 0.26498 0.88719 0.0
C1163 C 0.83668 0.19102 0.9331 0.0
C1164 C 0.85162 0.18546 0.91432 0.0
C1165 C 0.81391 0.20822 0.93249 0.0
C1166 C 0.77968 0.26075 0.89809 0.0
H1167 H 0.67551 0.33189 0.94878 0.0
H1168 H 0.71448 0.30063 0.94753 0.0
H1169 H 0.75706 0.29554 0.88698 0.0
H1170 H 0.85405 0.19296 0.88004 0.0
H1171 H 0.81367 0.2221 0.87867 0.0
H1172 H 0.75838 0.21719 0.93753 0.0
C1173 C 0.70381 0.30542 0.93273 0.0
C1174 C 0.75721 0.27842 0.89802 0.0
C1175 C 0.68168 0.32344 0.93343 0.0
C1176 C 0.84307 0.19715 0.89481 0.0
C1177 C 0.81998 0.21399 0.8941 0.0
C1178 C 0.75873 0.23439 0.9266 0.0
C1179 C 0.71222 0.29386 0.91312 0.0
C1180 C 0.73558 0.27457 0.91253 0.0
C1181 C 0.80513 0.21994 0.91297 0.0
C1182 C 0.78084 0.23848 0.91244 0.0
H1183 H 0.66482 0.32307 0.88021 0.0
H1184 H 0.70409 0.29199 0.87888 0.0
H1185 H 0.71994 0.2487 0.93794 0.0
H1186 H 0.84307 0.18263 0.94841 0.0
H1187 H 0.80357 0.2127 0.94748 0.0
C1188 C 0.82368 0.18154 0.57507 0.0
C1189 C 0.83034 0.16722 0.59394 0.0
C1190 C 0.80583 0.2038 0.57578 0.0
C1191 C 0.77946 0.25769 0.61045 0.0
H1192 H 0.71788 0.25875 0.5713 0.0
C1193 C 0.6982 0.34355 0.61394 0.0
C1194 C 0.68639 0.35207 0.59447 0.0
C1195 C 0.71505 0.32046 0.6146 0.0
C1196 C 0.73518 0.25912 0.58213 0.0
H1197 H 0.82415 0.16542 0.62843 0.0
H1198 H 0.79336 0.20489 0.62976 0.0
H1199 H 0.74931 0.22025 0.57084 0.0
H1200 H 0.68335 0.34348 0.5604 0.0
H1201 H 0.71342 0.30398 0.56125 0.0
H1202 H 0.76615 0.29694 0.62124 0.0
C1203 C 0.80175 0.19861 0.61441 0.0
C1204 C 0.7531 0.23691 0.58192 0.0
C1205 C 0.8192 0.17598 0.61363 0.0
C1206 C 0.69184 0.33711 0.57568 0.0
C1207 C 0.70903 0.31434 0.57624 0.0
C1208 C 0.76181 0.28018 0.61041 0.0
C1209 C 0.79467 0.21255 0.59544 0.0
C1210 C 0.77545 0.23598 0.59603 0.0
C1211 C 0.72088 0.30559 0.59572 0.0
C1212 C 0.73942 0.28129 0.5962 0.0
H1213 H 0.83178 0.17508 0.55967 0.0
H1214 H 0.80085 0.21429 0.56094 0.0
H1215 H 0.79667 0.25757 0.62139 0.0
H1216 H 0.69409 0.35454 0.62871 0.0
H1217 H 0.72327 0.31418 0.63 0.0
C1218 C 0.33736 0.82577 0.5763 0.0
C1219 C 0.35177 0.83225 0.59517 0.0
C1220 C 0.31497 0.80809 0.57698 0.0
C1221 C 0.26103 0.78178 0.61165 0.0
H1222 H 0.25968 0.72043 0.57223 0.0
C1223 C 0.17497 0.70061 0.6148 0.0
C1224 C 0.16648 0.68891 0.59528 0.0
C1225 C 0.19803 0.7175 0.61554 0.0
C1226 C 0.25938 0.73767 0.58313 0.0
H1227 H 0.35358 0.82591 0.62964 0.0
H1228 H 0.3139 0.7954 0.63093 0.0
H1229 H 0.29828 0.75172 0.57185 0.0
H1230 H 0.17503 0.6862 0.56118 0.0
H1231 H 0.21445 0.71633 0.56216 0.0
H1232 H 0.22176 0.76853 0.62244 0.0
C1233 C 0.32021 0.80381 0.61559 0.0
C1234 C 0.28166 0.75551 0.58297 0.0
C1235 C 0.34296 0.8211 0.61484 0.0
C1236 C 0.18138 0.69458 0.57651 0.0
C1237 C 0.20411 0.71181 0.57715 0.0
C1238 C 0.23847 0.76421 0.61157 0.0
C1239 C 0.30619 0.7969 0.59662 0.0
C1240 C 0.28268 0.77777 0.59717 0.0
C1241 C 0.21289 0.72348 0.59668 0.0
C1242 C 0.23725 0.74191 0.59724 0.0
H1243 H 0.34385 0.83388 0.56091 0.0
H1244 H 0.30443 0.80324 0.56214 0.0
H1245 H 0.26123 0.79892 0.62267 0.0
H1246 H 0.16401 0.69634 0.62956 0.0
H1247 H 0.20432 0.7256 0.63098 0.0
C1248 C 0.60379 0.04397 0.03137 0.0
C1249 C 0.60287 0.04458 0.05398 0.0
C1250 C 0.58105 0.03531 0.01948 0.0
C1251 C 0.50608 0.02605 0.02378 0.0
H1252 H 0.51549 0.97898 0.97418 0.0
C1253 C 0.41459 0.97518 0.97989 0.0
C1254 C 0.41581 0.97422 0.95729 0.0
C1255 C 0.43729 0.98371 0.9919 0.0
C1256 C 0.51249 0.99237 0.98786 0.0
H1257 H 0.57719 0.0364 0.08178 0.0
H1258 H 0.538 0.02116 0.06116 0.0
H1259 H 0.55541 0.99431 0.99424 0.0
H1260 H 0.44199 0.98163 0.92966 0.0
H1261 H 0.48102 0.99678 0.95044 0.0
H1262 H 0.46316 0.02417 0.01738 0.0
C1263 C 0.55608 0.02769 0.05254 0.0
C1264 C 0.53542 1.00118 0.99935 0.0
C1265 C 0.57873 0.03626 0.06439 0.0
C1266 C 0.4402 0.98207 0.94703 0.0
C1267 C 0.46277 0.99057 0.95898 0.0
C1268 C 0.48315 0.01727 0.01228 0.0
C1269 C 0.55687 0.02717 0.02994 0.0
C1270 C 0.53251 0.01812 0.01746 0.0
C1271 C 0.46171 0.99141 0.98156 0.0
C1272 C 0.48605 1.00034 0.99414 0.0
H1273 H 0.62201 0.05025 0.02283 0.0
H1274 H 0.58227 0.03538 1.00207 0.0
H1275 H 0.5031 0.03941 0.03748 0.0
H1276 H 0.39617 0.96926 0.98832 0.0
H1277 H 0.43583 0.98387 0.00929 0.0
C1278 C 0.47621 0.60383 0.03103 0.0
C1279 C 0.4753 0.60292 0.05364 0.0
C1280 C 0.48496 0.58106 0.0192 0.0
C1281 C 0.49432 0.50602 0.02357 0.0
H1282 H 0.54163 0.51558 0.97413 0.0
C1283 C 0.54571 0.41471 0.97958 0.0
C1284 C 0.54653 0.41595 0.95698 0.0
C1285 C 0.53714 0.43736 0.99165 0.0
C1286 C 0.52819 0.51254 0.98777 0.0
H1287 H 0.48297 0.57719 0.08148 0.0
H1288 H 0.49842 0.53796 0.06097 0.0
H1289 H 0.52607 0.55545 0.99416 0.0
H1290 H 0.53885 0.44216 0.92941 0.0
H1291 H 0.52369 0.48111 0.9503 0.0
H1292 H 0.49642 0.46309 0.01715 0.0
C1293 C 0.49206 0.55606 0.05231 0.0
C1294 C 0.51924 0.53544 0.99924 0.0
C1295 C 0.48337 0.57874 0.06409 0.0
C1296 C 0.53852 0.44033 0.94678 0.0
C1297 C 0.53001 0.46286 0.95879 0.0
C1298 C 0.50327 0.4831 0.01209 0.0
C1299 C 0.49292 0.55685 0.02971 0.0
C1300 C 0.50218 0.53249 0.01728 0.0
C1301 C 0.52928 0.46177 0.98138 0.0
C1302 C 0.52027 0.48607 0.994 0.0
H1303 H 0.47012 0.62208 0.02246 0.0
H1304 H 0.48513 0.58229 1.00179 0.0
H1305 H 0.48088 0.50299 0.0372 0.0
H1306 H 0.55174 0.39629 0.98796 0.0
H1307 H 0.53704 0.43588 0.00904 0.0
C1308 C 0.9403 0.48293 0.06412 0.0
C1309 C 0.91605 0.47475 0.05383 0.0
C1310 C 0.96281 0.4917 0.05218 0.0
C1311 C 0.99371 0.48814 0.99797 0.0
H1312 H 0.03665 0.54947 0.01828 0.0
C1313 C 0.07836 0.53705 0.9462 0.0
C1314 C 0.10262 0.54537 0.95641 0.0
C1315 C 0.05588 0.52838 0.95822 0.0
C1316 C 0.02511 0.53209 0.01252 0.0
H1317 H 0.89659 0.46949 0.02277 0.0
H1318 H 0.93597 0.48497 1.00186 0.0
H1319 H 0.99656 0.53494 0.03853 0.0
H1320 H 0.12211 0.55104 0.9874 0.0
H1321 H 0.0828 0.53569 0.00847 0.0
H1322 H 0.02226 0.48526 0.97198 0.0
C1323 C 0.93757 0.48432 0.01924 0.0
C1324 C 1.00206 0.52378 0.02411 0.0
C1325 C 0.91493 0.47557 0.03122 0.0
C1326 C 0.10376 0.54484 0.97902 0.0
C1327 C 0.08117 0.53616 0.99109 0.0
C1328 C 0.01676 0.49645 0.98638 0.0
C1329 C 0.96179 0.49252 0.02959 0.0
C1330 C 0.98605 0.50169 0.01699 0.0
C1331 C 0.05695 0.52776 0.98082 0.0
C1332 C 0.03275 0.51856 0.99348 0.0
H1333 H 0.94207 0.48242 0.08149 0.0
H1334 H 0.98122 0.49742 0.0607 0.0
H1335 H 0.98216 0.47077 0.9922 0.0
H1336 H 0.07655 0.53735 0.92883 0.0
H1337 H 0.03747 0.52254 0.94975 0.0
C1338 C 0.97512 0.1034 0.97851 0.0
C1339 C 0.97464 0.1023 0.9559 0.0
C1340 C 0.98387 0.08081 0.99054 0.0
C1341 C 0.02358 0.01638 0.9858 0.0
H1342 H 0.98473 0.99611 0.03776 0.0
C1343 C 0.04374 0.91433 0.03054 0.0
C1344 C 0.0445 0.91546 0.05315 0.0
C1345 C 0.03519 0.93702 0.01855 0.0
C1346 C 0.99599 1.00163 0.02339 0.0
H1347 H 0.98289 0.07636 0.92827 0.0
H1348 H 0.9978 0.03727 0.94912 0.0
H1349 H 0.9704 0.03629 0.01755 0.0
H1350 H 0.03697 0.94157 0.08081 0.0
H1351 H 0.02229 0.98081 0.06001 0.0
H1352 H 0.04914 0.98167 0.99163 0.0
C1353 C 0.99187 0.05564 0.95763 0.0
C1354 C 0.98779 0.02473 0.01182 0.0
C1355 C 0.98314 0.07812 0.94565 0.0
C1356 C 0.03649 0.93979 0.06344 0.0
C1357 C 0.02791 0.96235 0.05149 0.0
C1358 C 0.03176 0.99326 0.99736 0.0
C1359 C 0.99236 0.05664 0.98023 0.0
C1360 C 1.00146 0.0324 0.99286 0.0
C1361 C 0.02712 0.96131 0.0289 0.0
C1362 C 0.01809 0.9856 0.01632 0.0
H1363 H 0.96879 0.1217 0.98693 0.0
H1364 H 0.98426 0.0824 0.00793 0.0
H1365 H 0.03486 0.02189 0.97145 0.0
H1366 H 0.0497 0.89593 0.0221 0.0
H1367 H 0.03457 0.93543 1.00117 0.0
C1368 C 0.9144 0.04355 0.53004 0.0
C1369 C 0.91553 0.04463 0.55264 0.0
C1370 C 0.93709 0.03482 0.5181 0.0
C1371 C 0.01223 0.02583 0.52214 0.0
H1372 H 1.00265 0.97838 0.4728 0.0
C1373 C 0.10357 0.97434 0.47846 0.0
C1374 C 0.10249 0.97347 0.45586 0.0
C1375 C 0.08083 0.9829 0.49043 0.0
C1376 C 1.00569 0.99185 0.48641 0.0
H1377 H 0.94158 0.03724 0.58034 0.0
H1378 H 0.98063 0.0218 0.55965 0.0
H1379 H 0.96279 0.99389 0.4929 0.0
H1380 H 0.07647 0.981 0.42817 0.0
H1381 H 0.03731 0.99611 0.4489 0.0
H1382 H 0.05513 0.02379 0.51566 0.0
C1383 C 0.96243 0.02804 0.55107 0.0
C1384 C 0.9828 1.00078 0.49792 0.0
C1385 C 0.93985 0.03672 0.56297 0.0
C1386 C 0.07815 0.98137 0.44555 0.0
C1387 C 0.05551 0.98986 0.45746 0.0
C1388 C 0.03512 0.01689 0.51064 0.0
C1389 C 0.96144 0.02704 0.52849 0.0
C1390 C 0.98576 0.01788 0.51595 0.0
C1391 C 0.05648 0.9907 0.48005 0.0
C1392 C 0.03216 0.99981 0.49261 0.0
H1393 H 0.89604 0.04951 0.52156 0.0
H1394 H 0.93568 0.03454 0.5007 0.0
H1395 H 0.01527 0.03932 0.53575 0.0
H1396 H 0.12194 0.96839 0.48693 0.0
H1397 H 0.08221 0.98306 0.50783 0.0
C1398 C 0.54376 0.10496 0.47981 0.0
C1399 C 0.5451 0.10356 0.45723 0.0
C1400 C 0.53529 0.08227 0.49186 0.0
C1401 C 0.52753 1.00693 0.48818 0.0
H1402 H 0.4794 0.01624 0.53716 0.0
C1403 C 0.4761 0.91541 0.53157 0.0
C1404 C 0.47498 0.91652 0.55416 0.0
C1405 C 0.48474 0.93815 0.51966 0.0
C1406 C 0.49306 0.01329 0.52365 0.0
H1407 H 0.53845 0.07706 0.42967 0.0
H1408 H 0.52343 0.03802 0.45052 0.0
H1409 H 0.49461 0.05617 0.51702 0.0
H1410 H 0.48222 0.94255 0.58191 0.0
H1411 H 0.49743 0.98175 0.56127 0.0
H1412 H 0.52593 0.96404 0.49479 0.0
C1413 C 0.52928 0.05642 0.45902 0.0
C1414 C 0.50183 0.03622 0.51212 0.0
C1415 C 0.53771 0.07899 0.44703 0.0
C1416 C 0.48277 0.94086 0.56453 0.0
C1417 C 0.49132 0.96351 0.55267 0.0
C1418 C 0.51874 0.98401 0.4997 0.0
C1419 C 0.52804 0.05767 0.48159 0.0
C1420 C 0.51914 0.03334 0.49421 0.0
C1421 C 0.49236 0.96253 0.53009 0.0
C1422 C 0.5014 0.98688 0.51759 0.0
H1423 H 0.54931 0.12353 0.4882 0.0
H1424 H 0.5348 0.08387 0.50924 0.0
H1425 H 0.54121 1.00395 0.47469 0.0
H1426 H 0.47024 0.89703 0.52306 0.0
H1427 H 0.48507 0.93677 0.50226 0.0
C1428 C 0.44017 0.53591 0.44571 0.0
C1429 C 0.41606 0.54456 0.456 0.0
C1430 C 0.46271 0.5273 0.45765 0.0
C1431 C 0.49408 0.53211 0.5116 0.0
H1432 H 0.53657 0.4701 0.49195 0.0
C1433 C 0.579 0.48381 0.56344 0.0
C1434 C 0.6031 0.47512 0.55316 0.0
C1435 C 0.55648 0.49246 0.55147 0.0
C1436 C 0.52515 0.48767 0.49751 0.0
H1437 H 0.39689 0.55079 0.48708 0.0
H1438 H 0.43632 0.53555 0.50801 0.0
H1439 H 0.49631 0.48426 0.47179 0.0
H1440 H 0.6223 0.46886 0.5221 0.0
H1441 H 0.58291 0.48417 0.50113 0.0
H1442 H 0.52293 0.53552 0.53733 0.0
C1443 C 0.43778 0.53573 0.49062 0.0
C1444 C 0.50201 0.49577 0.48597 0.0
C1445 C 0.41512 0.54434 0.47862 0.0
C1446 C 0.60407 0.47535 0.53054 0.0
C1447 C 0.58144 0.484 0.51853 0.0
C1448 C 0.51723 0.52401 0.52314 0.0
C1449 C 0.46187 0.52709 0.48026 0.0
C1450 C 0.48618 0.51812 0.49285 0.0
C1451 C 0.55735 0.49267 0.52887 0.0
C1452 C 0.53306 0.50166 0.51626 0.0
H1453 H 0.44181 0.53596 0.42832 0.0
H1454 H 0.48101 0.52123 0.44912 0.0
H1455 H 0.48266 0.54968 0.51717 0.0
H1456 H 0.57733 0.48376 0.58082 0.0
H1457 H 0.53818 0.49855 0.55999 0.0
C1458 C 0.04381 0.60484 0.53106 0.0
C1459 C 0.04439 0.6038 0.55368 0.0
C1460 C 0.03524 0.58213 0.51908 0.0
C1461 C 0.99589 0.51759 0.5239 0.0
H1462 H 0.03495 0.49715 0.47208 0.0
C1463 C 0.9754 0.41557 0.47923 0.0
C1464 C 0.97492 0.41657 0.45662 0.0
C1465 C 0.98406 0.43824 0.49122 0.0
C1466 C 0.02362 0.50271 0.4864 0.0
H1467 H 0.03654 0.57783 0.58135 0.0
H1468 H 0.02187 0.53857 0.56057 0.0
H1469 H 0.04915 0.53742 0.49224 0.0
H1470 H 0.98311 0.44241 0.42894 0.0
H1471 H 0.99789 0.48164 0.44972 0.0
H1472 H 0.97034 0.4829 0.51807 0.0
C1473 C 0.02762 0.55697 0.55204 0.0
C1474 C 0.03176 0.52586 0.49794 0.0
C1475 C 0.0362 0.57955 0.56397 0.0
C1476 C 0.98335 0.44073 0.44632 0.0
C1477 C 0.992 0.46329 0.45825 0.0
C1478 C 0.98775 0.49445 0.51236 0.0
C1479 C 0.02701 0.55792 0.52944 0.0
C1480 C 0.01801 0.5336 0.51686 0.0
C1481 C 0.99248 0.46239 0.48086 0.0
C1482 C 1.00149 0.48671 0.49344 0.0
H1483 H 0.04991 0.62317 0.52261 0.0
H1484 H 0.03476 0.58367 0.50169 0.0
H1485 H 0.98457 0.52315 0.53823 0.0
H1486 H 0.96912 0.39729 0.4877 0.0
H1487 H 0.98444 0.43673 0.50861 0.0
C1488 C 0.59752 0.15794 0.32983 0.0
C1489 C 0.59292 0.13622 0.34416 0.0
C1490 C 0.60458 0.15285 0.3084 0.0
C1491 C 0.59782 0.10036 0.26664 0.0
H1492 H 0.65219 0.14313 0.23627 0.0
C1493 C 0.61022 0.09443 0.17452 0.0
C1494 C 0.63704 0.09184 0.1668 0.0
C1495 C 0.60537 0.10109 0.19607 0.0
C1496 C 0.63703 0.13096 0.24456 0.0
H1497 H 0.59288 0.09217 0.34745 0.0
H1498 H 0.60529 0.08327 0.31002 0.0
H1499 H 0.64409 0.15137 0.27457 0.0
H1500 H 0.67982 0.09503 0.1754 0.0
H1501 H 0.67134 0.10673 0.213 0.0
H1502 H 0.59087 0.07981 0.23674 0.0
C1503 C 0.60316 0.10423 0.31532 0.0
C1504 C 0.63226 0.13581 0.26644 0.0
C1505 C 0.59625 0.10932 0.33679 0.0
C1506 C 0.65891 0.09687 0.18088 0.0
C1507 C 0.65406 0.10369 0.2024 0.0
C1508 C 0.60246 0.09564 0.24477 0.0
C1509 C 0.60705 0.12593 0.30083 0.0
C1510 C 0.61262 0.12052 0.27771 0.0
C1511 C 0.62724 0.10545 0.21031 0.0
C1512 C 0.62211 0.11089 0.23348 0.0
H1513 H 0.59512 0.17891 0.33504 0.0
H1514 H 0.60724 0.16999 0.2976 0.0
H1515 H 0.58234 0.08846 0.27481 0.0
H1516 H 0.59294 0.09071 0.16405 0.0
H1517 H 0.58447 0.10268 0.20162 0.0
C1518 C 0.35949 0.59457 0.32861 0.0
C1519 C 0.3814 0.59151 0.34299 0.0
C1520 C 0.36417 0.60184 0.30718 0.0
C1521 C 0.41548 0.63217 0.27064 0.0
H1522 H 0.37555 0.59288 0.22651 0.0
C1523 C 0.42464 0.66 0.18073 0.0
C1524 C 0.42756 0.63812 0.16628 0.0
C1525 C 0.41739 0.65527 0.20216 0.0
C1526 C 0.38694 0.60396 0.23864 0.0
H1527 H 0.42536 0.59423 0.34634 0.0
H1528 H 0.43357 0.60679 0.30887 0.0
H1529 H 0.36668 0.58317 0.26438 0.0
H1530 H 0.42456 0.59419 0.16281 0.0
H1531 H 0.41202 0.5859 0.20027 0.0
H1532 H 0.43623 0.65245 0.24489 0.0
C1533 C 0.41274 0.6038 0.3142 0.0
C1534 C 0.38165 0.59862 0.26034 0.0
C1535 C 0.40805 0.5965 0.33565 0.0
C1536 C 0.4224 0.61147 0.17355 0.0
C1537 C 0.41511 0.60674 0.195 0.0
C1538 C 0.42072 0.63755 0.24893 0.0
C1539 C 0.39087 0.60623 0.29965 0.0
C1540 C 0.39595 0.61256 0.2766 0.0
C1541 C 0.41286 0.62856 0.20961 0.0
C1542 C 0.40661 0.62341 0.23268 0.0
H1543 H 0.3387 0.59096 0.33381 0.0
H1544 H 0.34686 0.60395 0.29648 0.0
H1545 H 0.42668 0.64343 0.28276 0.0
H1546 H 0.42839 0.68079 0.17559 0.0
H1547 H 0.41541 0.67255 0.21293 0.0
C1548 C 0.90808 0.42191 0.17403 0.0
C1549 C 0.88144 0.42709 0.16677 0.0
C1550 C 0.91283 0.41473 0.1955 0.0
C1551 C 0.88204 0.42066 0.24945 0.0
H1552 H 0.93635 0.36662 0.26503 0.0
C1553 C 0.92289 0.40825 0.33624 0.0
C1554 C 0.92786 0.38162 0.34363 0.0
C1555 C 0.91565 0.41288 0.31477 0.0
C1556 C 0.92093 0.38158 0.26095 0.0
H1557 H 0.83879 0.42804 0.17612 0.0
H1558 H 0.84704 0.41524 0.21348 0.0
H1559 H 0.92669 0.37533 0.22714 0.0
H1560 H 0.92842 0.33888 0.33451 0.0
H1561 H 0.91553 0.34693 0.29715 0.0
H1562 H 0.87613 0.42676 0.28326 0.0
C1563 C 0.86432 0.41714 0.2027 0.0
C1564 C 0.91561 0.38679 0.23923 0.0
C1565 C 0.85958 0.42429 0.18125 0.0
C1566 C 0.92483 0.35967 0.32928 0.0
C1567 C 0.91762 0.36428 0.30783 0.0
C1568 C 0.8874 0.4155 0.27117 0.0
C1569 C 0.89102 0.4126 0.21014 0.0
C1570 C 0.89618 0.40646 0.23322 0.0
C1571 C 0.91325 0.39096 0.30025 0.0
C1572 C 0.90697 0.39597 0.27718 0.0
H1573 H 0.92536 0.42398 0.16327 0.0
H1574 H 0.93367 0.41162 0.20076 0.0
H1575 H 0.86716 0.43617 0.24537 0.0
H1576 H 0.92514 0.4256 0.34691 0.0
H1577 H 0.91268 0.4337 0.30941 0.0
C1578 C 0.15637 0.93606 0.32617 0.0
C1579 C 0.13773 0.92886 0.3424 0.0
C1580 C 0.15118 0.92929 0.30472 0.0
C1581 C 0.1204 0.88132 0.26933 0.0
H1582 H 0.10836 0.9409 0.22937 0.0
C1583 C 0.08275 0.8619 0.18269 0.0
C1584 C 0.09027 0.88019 0.16636 0.0
C1585 C 0.08952 0.86721 0.20412 0.0
C1586 C 0.11222 0.92395 0.24011 0.0
H1587 H 0.0995 0.90832 0.34912 0.0
H1588 H 0.09095 0.89553 0.31145 0.0
H1589 H 0.11877 0.95075 0.26693 0.0
H1590 H 0.11157 0.91787 0.15939 0.0
H1591 H 0.12484 0.92649 0.19659 0.0
H1592 H 0.11515 0.85439 0.24263 0.0
C1593 C 0.1093 0.90677 0.31545 0.0
C1594 C 0.11791 0.92968 0.26168 0.0
C1595 C 0.11416 0.91412 0.33689 0.0
C1596 C 0.10536 0.90353 0.17173 0.0
C1597 C 0.11272 0.90855 0.19313 0.0
C1598 C 0.11535 0.87554 0.24765 0.0
C1599 C 0.12762 0.91466 0.29921 0.0
C1600 C 0.12183 0.90842 0.27644 0.0
C1601 C 0.10453 0.89068 0.20971 0.0
C1602 C 0.11096 0.89678 0.23272 0.0
H1603 H 0.17461 0.94759 0.32995 0.0
H1604 H 0.16555 0.93552 0.2924 0.0
H1605 H 0.12363 0.86464 0.2805 0.0
H1606 H 0.07081 0.84388 0.17901 0.0
H1607 H 0.08228 0.8532 0.21632 0.0
C1608 C 0.36096 0.92182 0.83004 0.0
C1609 C 0.38275 0.92657 0.84425 0.0
C1610 C 0.36593 0.91485 0.80858 0.0
C1611 C 0.41801 0.92211 0.76655 0.0
H1612 H 0.37555 0.86732 0.73639 0.0
C1613 C 0.42387 0.90945 0.67446 0.0
C1614 C 0.42673 0.88261 0.66684 0.0
C1615 C 0.41712 0.91435 0.69598 0.0
C1616 C 0.38763 0.88261 0.74462 0.0
H1617 H 0.42682 0.92697 0.84732 0.0
H1618 H 0.43551 0.91473 0.80982 0.0
H1619 H 0.36746 0.8754 0.77471 0.0
H1620 H 0.42388 0.83984 0.67557 0.0
H1621 H 0.41204 0.8484 0.71312 0.0
H1622 H 0.43834 0.9292 0.73657 0.0
C1623 C 0.41458 0.91667 0.81523 0.0
C1624 C 0.38287 0.88737 0.76651 0.0
C1625 C 0.40961 0.92349 0.83673 0.0
C1626 C 0.42184 0.86076 0.68097 0.0
C1627 C 0.41494 0.86566 0.70247 0.0
C1628 C 0.42264 0.91749 0.74466 0.0
C1629 C 0.3928 0.91263 0.80085 0.0
C1630 C 0.39806 0.90713 0.77771 0.0
C1631 C 0.41294 0.8925 0.71029 0.0
C1632 C 0.40752 0.89769 0.73345 0.0
H1633 H 0.34002 0.92403 0.83536 0.0
H1634 H 0.34872 0.91207 0.79786 0.0
H1635 H 0.42983 0.9377 0.77466 0.0
H1636 H 0.42746 0.92671 0.66394 0.0
H1637 H 0.41535 0.93526 0.70147 0.0
C1638 C 0.65871 0.42333 0.68033 0.0
C1639 C 0.63685 0.42817 0.66621 0.0
C1640 C 0.65384 0.41662 0.70186 0.0
C1641 C 0.60209 0.42453 0.74415 0.0
H1642 H 0.64408 0.3692 0.77408 0.0
C1643 C 0.59573 0.41083 0.83621 0.0
C1644 C 0.59269 0.38389 0.84355 0.0
C1645 C 0.60261 0.41602 0.81475 0.0
C1646 C 0.63215 0.38466 0.76592 0.0
H1647 H 0.59275 0.42907 0.66338 0.0
H1648 H 0.58425 0.41727 0.70099 0.0
H1649 H 0.65219 0.37737 0.73579 0.0
H1650 H 0.5953 0.34124 0.83437 0.0
H1651 H 0.60734 0.35031 0.79696 0.0
H1652 H 0.58184 0.43165 0.77416 0.0
C1653 C 0.60515 0.41894 0.69545 0.0
C1654 C 0.63692 0.38946 0.74405 0.0
C1655 C 0.61002 0.4255 0.67389 0.0
C1656 C 0.59748 0.36224 0.82919 0.0
C1657 C 0.60451 0.36742 0.80778 0.0
C1658 C 0.59744 0.41985 0.76603 0.0
C1659 C 0.62702 0.41477 0.70974 0.0
C1660 C 0.62187 0.40939 0.73291 0.0
C1661 C 0.60674 0.39437 0.80024 0.0
C1662 C 0.61236 0.39982 0.77715 0.0
H1663 H 0.67962 0.42524 0.67488 0.0
H1664 H 0.67111 0.41373 0.7125 0.0
H1665 H 0.59039 0.44025 0.73609 0.0
H1666 H 0.5922 0.42794 0.84691 0.0
H1667 H 0.60454 0.437 0.80947 0.0
C1668 C 0.10516 0.61557 0.67219 0.0
C1669 C 0.09022 0.63901 0.66684 0.0
C1670 C 0.11247 0.61047 0.69358 0.0
C1671 C 0.11523 0.64335 0.74816 0.0
H1672 H 0.11819 0.56807 0.76731 0.0
C1673 C 0.11382 0.60443 0.83732 0.0
C1674 C 0.13742 0.58971 0.8428 0.0
C1675 C 0.10895 0.61184 0.8159 0.0
C1676 C 0.11745 0.58917 0.76209 0.0
H1677 H 0.07099 0.67544 0.67952 0.0
H1678 H 0.08235 0.66599 0.71683 0.0
H1679 H 0.10786 0.57808 0.72976 0.0
H1680 H 0.17433 0.57107 0.83031 0.0
H1681 H 0.16524 0.58323 0.79278 0.0
H1682 H 0.12356 0.65412 0.78104 0.0
C1683 C 0.08952 0.65195 0.70462 0.0
C1684 C 0.11181 0.59498 0.74053 0.0
C1685 C 0.08281 0.65734 0.68318 0.0
C1686 C 0.15606 0.58258 0.82655 0.0
C1687 C 0.15087 0.5894 0.80512 0.0
C1688 C 0.12023 0.63749 0.76984 0.0
C1689 C 0.10437 0.62837 0.71018 0.0
C1690 C 0.11072 0.62218 0.73319 0.0
C1691 C 0.12728 0.60402 0.79965 0.0
C1692 C 0.1215 0.61036 0.77689 0.0
H1693 H 0.11128 0.60121 0.65983 0.0
H1694 H 0.12447 0.59245 0.69703 0.0
H1695 H 0.11516 0.66452 0.74318 0.0
H1696 H 0.09916 0.61019 0.84957 0.0
H1697 H 0.09059 0.62308 0.81193 0.0
C1698 C 0.92272 0.15796 0.82872 0.0
C1699 C 0.92775 0.13608 0.8428 0.0
C1700 C 0.91573 0.15311 0.80725 0.0
C1701 C 0.92317 0.10143 0.76487 0.0
H1702 H 0.86754 0.14346 0.73532 0.0
C1703 C 0.90925 0.09573 0.67288 0.0
C1704 C 0.88233 0.09264 0.6655 0.0
C1705 C 0.91439 0.10246 0.69437 0.0
C1706 C 0.88307 0.13151 0.74338 0.0
H1707 H 0.92871 0.09197 0.84559 0.0
H1708 H 0.91645 0.08351 0.80808 0.0
H1709 H 0.87604 0.15145 0.77359 0.0
H1710 H 0.83967 0.09507 0.67465 0.0
H1711 H 0.84866 0.10689 0.71214 0.0
H1712 H 0.93007 0.08131 0.73478 0.0
C1713 C 0.91817 0.10441 0.81361 0.0
C1714 C 0.88806 0.13621 0.76524 0.0
C1715 C 0.925 0.10926 0.83512 0.0
C1716 C 0.86065 0.09729 0.67986 0.0
C1717 C 0.86579 0.10418 0.70132 0.0
C1718 C 0.9183 0.09685 0.74301 0.0
C1719 C 0.91378 0.12629 0.79937 0.0
C1720 C 0.90813 0.12116 0.77623 0.0
C1721 C 0.89272 0.1064 0.70889 0.0
C1722 C 0.89819 0.11181 0.73202 0.0
H1723 H 0.92467 0.17887 0.83418 0.0
H1724 H 0.91268 0.1704 0.79664 0.0
H1725 H 0.93898 0.08972 0.77282 0.0
H1726 H 0.92639 0.09232 0.6622 0.0
H1727 H 0.93536 0.10441 0.69967 0.0
loop_
_geom_bond_atom_site_label_1
_geom_bond_atom_site_label_2
_geom_bond_distance
_geom_bond_site_symmetry_2
_ccdc_geom_bond_type
Co0 N4 2.148 . S
Co0 N10 2.128 1_545 S
Co0 N20 2.194 . S
Co0 O25 2.351 . S
Co0 O26 2.155 . S
Co0 O27 2.096 . S
C1 N4 1.301 . S
C1 N5 1.328 . S
C1 H6 0.930 . S
C2 C3 1.333 . S
C2 N4 1.317 . S
C2 H7 0.930 . S
C3 C2 1.333 . S
C3 N5 1.350 . S
C3 H29 0.931 . S
N4 Co0 2.148 . S
N4 C1 1.301 . S
N4 C2 1.317 . S
N5 C1 1.328 . S
N5 C3 1.350 . S
H6 C1 0.930 . S
H7 C2 0.930 . S
C8 O9 1.224 . S
C8 O27 1.247 . S
O9 C8 1.224 . S
N10 Co0 2.128 1_565 S
N10 C11 1.355 . S
N10 C13 1.311 . S
C11 N10 1.355 . S
C11 C12 1.363 . S
C11 H23 0.929 . S
C12 C11 1.363 . S
C12 N14 1.375 . S
C12 H30 0.931 . S
C13 N10 1.311 . S
C13 N14 1.347 . S
C13 H24 0.929 . S
N14 C12 1.375 . S
N14 C13 1.347 . S
C15 C18 1.365 . S
C15 N20 1.328 . S
C15 H21 0.929 . S
C16 C17 1.362 . S
C16 C19 1.378 . S
C16 H31 0.929 1_545 S
C17 C16 1.362 . S
C17 C18 1.366 . S
C18 C15 1.365 . S
C18 C17 1.366 . S
C18 H32 0.930 . S
C19 C16 1.378 . S
C19 N20 1.315 . S
C19 H22 0.930 . S
N20 Co0 2.194 . S
N20 C15 1.328 . S
N20 C19 1.315 . S
H21 C15 0.929 . S
H22 C19 0.930 . S
H23 C11 0.929 . S
H24 C13 0.929 . S
O25 Co0 2.351 . S
O25 C28 1.244 . S
O26 Co0 2.155 . S
O26 C28 1.240 . S
O27 Co0 2.096 . S
O27 C8 1.247 . S
C28 O25 1.244 . S
C28 O26 1.240 . S
H29 C3 0.931 . S
H30 C12 0.931 . S
H31 C16 0.929 1_565 S
H32 C18 0.930 . S
Co33 N37 2.148 . S
Co33 N43 2.128 . S
Co33 N53 2.194 . S
Co33 O58 2.351 . S
Co33 O59 2.155 . S
Co33 O60 2.096 . S
C34 N37 1.301 . S
C34 N38 1.328 . S
C34 H39 0.930 . S
C35 C36 1.333 . S
C35 N37 1.317 . S
C35 H40 0.930 . S
C36 C35 1.333 . S
C36 N38 1.350 . S
C36 H62 0.931 . S
N37 Co33 2.148 . S
N37 C34 1.301 . S
N37 C35 1.317 . S
N38 C34 1.328 . S
N38 C36 1.350 . S
H39 C34 0.930 . S
H40 C35 0.930 . S
C41 O42 1.224 . S
C41 O60 1.247 . S
O42 C41 1.224 . S
N43 Co33 2.128 . S
N43 C44 1.355 . S
N43 C46 1.311 . S
C44 N43 1.355 . S
C44 C45 1.363 . S
C44 H56 0.929 . S
C45 C44 1.363 . S
C45 N47 1.375 . S
C45 H63 0.931 . S
C46 N43 1.311 . S
C46 N47 1.347 . S
C46 H57 0.929 . S
N47 C45 1.375 . S
N47 C46 1.347 . S
C48 C51 1.365 . S
C48 N53 1.328 . S
C48 H54 0.929 . S
C49 C50 1.362 . S
C49 C52 1.378 . S
C49 H64 0.929 . S
C50 C49 1.362 . S
C50 C51 1.366 . S
C51 C48 1.365 . S
C51 C50 1.366 . S
C51 H65 0.930 . S
C52 C49 1.378 . S
C52 N53 1.315 . S
C52 H55 0.930 . S
N53 Co33 2.194 . S
N53 C48 1.328 . S
N53 C52 1.315 . S
H54 C48 0.929 . S
H55 C52 0.930 . S
H56 C44 0.929 . S
H57 C46 0.929 . S
O58 Co33 2.351 . S
O58 C61 1.244 . S
O59 Co33 2.155 . S
O59 C61 1.240 . S
O60 Co33 2.096 . S
O60 C41 1.247 . S
C61 O58 1.244 . S
C61 O59 1.240 . S
H62 C36 0.931 . S
H63 C45 0.931 . S
H64 C49 0.929 . S
H65 C51 0.930 . S
Co66 N70 2.148 . S
Co66 N76 2.128 . S
Co66 N86 2.194 . S
Co66 O91 2.351 . S
Co66 O92 2.155 . S
Co66 O93 2.096 . S
C67 N70 1.301 . S
C67 N71 1.328 . S
C67 H72 0.930 . S
C68 C69 1.333 . S
C68 N70 1.317 . S
C68 H73 0.930 . S
C69 C68 1.333 . S
C69 N71 1.350 . S
C69 H95 0.931 . S
N70 Co66 2.148 . S
N70 C67 1.301 . S
N70 C68 1.317 . S
N71 C67 1.328 . S
N71 C69 1.350 . S
H72 C67 0.930 . S
H73 C68 0.930 . S
C74 O75 1.224 . S
C74 O93 1.247 . S
O75 C74 1.224 . S
N76 Co66 2.128 . S
N76 C77 1.355 . S
N76 C79 1.311 . S
C77 N76 1.355 . S
C77 C78 1.363 . S
C77 H89 0.929 . S
C78 C77 1.363 . S
C78 N80 1.375 . S
C78 H96 0.931 . S
C79 N76 1.311 . S
C79 N80 1.347 . S
C79 H90 0.929 . S
N80 C78 1.375 . S
N80 C79 1.347 . S
C81 C84 1.365 . S
C81 N86 1.328 . S
C81 H87 0.929 . S
C82 C83 1.362 . S
C82 C85 1.378 . S
C82 H97 0.929 . S
C83 C82 1.362 . S
C83 C84 1.366 . S
C84 C81 1.365 . S
C84 C83 1.366 . S
C84 H98 0.930 . S
C85 C82 1.378 . S
C85 N86 1.315 . S
C85 H88 0.930 . S
N86 Co66 2.194 . S
N86 C81 1.328 . S
N86 C85 1.315 . S
H87 C81 0.929 . S
H88 C85 0.930 . S
H89 C77 0.929 . S
H90 C79 0.929 . S
O91 Co66 2.351 . S
O91 C94 1.244 . S
O92 Co66 2.155 . S
O92 C94 1.240 . S
O93 Co66 2.096 . S
O93 C74 1.247 . S
C94 O91 1.244 . S
C94 O92 1.240 . S
H95 C69 0.931 . S
H96 C78 0.931 . S
H97 C82 0.929 . S
H98 C84 0.930 . S
Co99 N103 2.148 . S
Co99 N109 2.128 1_455 S
Co99 N119 2.194 . S
Co99 O124 2.351 . S
Co99 O125 2.155 . S
Co99 O126 2.096 . S
C100 N103 1.301 . S
C100 N104 1.328 . S
C100 H105 0.930 . S
C101 C102 1.333 . S
C101 N103 1.317 . S
C101 H106 0.930 . S
C102 C101 1.333 . S
C102 N104 1.350 . S
C102 H128 0.931 . S
N103 Co99 2.148 . S
N103 C100 1.301 . S
N103 C101 1.317 . S
N104 C100 1.328 . S
N104 C102 1.350 . S
H105 C100 0.930 . S
H106 C101 0.930 . S
C107 O108 1.224 . S
C107 O126 1.247 . S
O108 C107 1.224 . S
N109 Co99 2.128 1_655 S
N109 C110 1.355 . S
N109 C112 1.311 . S
C110 N109 1.355 . S
C110 C111 1.363 . S
C110 H122 0.929 . S
C111 C110 1.363 . S
C111 N113 1.375 . S
C111 H129 0.931 . S
C112 N109 1.311 . S
C112 N113 1.347 . S
C112 H123 0.929 . S
N113 C111 1.375 . S
N113 C112 1.347 . S
C114 C117 1.365 . S
C114 N119 1.328 . S
C114 H120 0.929 . S
C115 C116 1.362 . S
C115 C118 1.378 . S
C115 H130 0.929 1_455 S
C116 C115 1.362 . S
C116 C117 1.366 . S
C117 C114 1.365 . S
C117 C116 1.366 . S
C117 H131 0.930 . S
C118 C115 1.378 . S
C118 N119 1.315 . S
C118 H121 0.930 . S
N119 Co99 2.194 . S
N119 C114 1.328 . S
N119 C118 1.315 . S
H120 C114 0.929 . S
H121 C118 0.930 . S
H122 C110 0.929 . S
H123 C112 0.929 . S
O124 Co99 2.351 . S
O124 C127 1.244 . S
O125 Co99 2.155 . S
O125 C127 1.240 . S
O126 Co99 2.096 . S
O126 C107 1.247 . S
C127 O124 1.244 . S
C127 O125 1.240 . S
H128 C102 0.931 . S
H129 C111 0.931 . S
H130 C115 0.929 1_655 S
H131 C117 0.930 . S
Co132 N136 2.148 . S
Co132 N142 2.128 1_565 S
Co132 N152 2.194 . S
Co132 O157 2.351 . S
Co132 O158 2.155 . S
Co132 O159 2.096 . S
C133 N136 1.301 . S
C133 N137 1.328 . S
C133 H138 0.930 . S
C134 C135 1.333 . S
C134 N136 1.317 . S
C134 H139 0.930 . S
C135 C134 1.333 . S
C135 N137 1.350 . S
C135 H161 0.931 . S
N136 Co132 2.148 . S
N136 C133 1.301 . S
N136 C134 1.317 . S
N137 C133 1.328 . S
N137 C135 1.350 . S
H138 C133 0.930 . S
H139 C134 0.930 . S
C140 O141 1.224 . S
C140 O159 1.247 . S
O141 C140 1.224 . S
N142 Co132 2.128 1_545 S
N142 C143 1.355 . S
N142 C145 1.311 . S
C143 N142 1.355 . S
C143 C144 1.363 . S
C143 H155 0.929 . S
C144 C143 1.363 . S
C144 N146 1.375 . S
C144 H162 0.931 . S
C145 N142 1.311 . S
C145 N146 1.347 . S
C145 H156 0.929 . S
N146 C144 1.375 . S
N146 C145 1.347 . S
C147 C150 1.365 . S
C147 N152 1.328 . S
C147 H153 0.929 . S
C148 C149 1.362 . S
C148 C151 1.378 . S
C148 H163 0.929 1_565 S
C149 C148 1.362 . S
C149 C150 1.366 . S
C150 C147 1.365 . S
C150 C149 1.366 . S
C150 H164 0.930 . S
C151 C148 1.378 . S
C151 N152 1.315 . S
C151 H154 0.930 . S
N152 Co132 2.194 . S
N152 C147 1.328 . S
N152 C151 1.315 . S
H153 C147 0.929 . S
H154 C151 0.930 . S
H155 C143 0.929 . S
H156 C145 0.929 . S
O157 Co132 2.351 . S
O157 C160 1.244 . S
O158 Co132 2.155 . S
O158 C160 1.240 . S
O159 Co132 2.096 . S
O159 C140 1.247 . S
C160 O157 1.244 . S
C160 O158 1.240 . S
H161 C135 0.931 . S
H162 C144 0.931 . S
H163 C148 0.929 1_545 S
H164 C150 0.930 . S
Co165 N169 2.148 . S
Co165 N175 2.128 . S
Co165 N185 2.194 . S
Co165 O190 2.351 . S
Co165 O191 2.155 . S
Co165 O192 2.096 . S
C166 N169 1.301 . S
C166 N170 1.328 . S
C166 H171 0.930 . S
C167 C168 1.333 . S
C167 N169 1.317 . S
C167 H172 0.930 . S
C168 C167 1.333 . S
C168 N170 1.350 . S
C168 H194 0.931 . S
N169 Co165 2.148 . S
N169 C166 1.301 . S
N169 C167 1.317 . S
N170 C166 1.328 . S
N170 C168 1.350 . S
H171 C166 0.930 . S
H172 C167 0.930 . S
C173 O174 1.224 . S
C173 O192 1.247 . S
O174 C173 1.224 . S
N175 Co165 2.128 . S
N175 C176 1.355 . S
N175 C178 1.311 . S
C176 N175 1.355 . S
C176 C177 1.363 . S
C176 H188 0.929 . S
C177 C176 1.363 . S
C177 N179 1.375 . S
C177 H195 0.931 . S
C178 N175 1.311 . S
C178 N179 1.347 . S
C178 H189 0.929 . S
N179 C177 1.375 . S
N179 C178 1.347 . S
C180 C183 1.365 . S
C180 N185 1.328 . S
C180 H186 0.929 . S
C181 C182 1.362 . S
C181 C184 1.378 . S
C181 H196 0.929 . S
C182 C181 1.362 . S
C182 C183 1.366 . S
C183 C180 1.365 . S
C183 C182 1.366 . S
C183 H197 0.930 . S
C184 C181 1.378 . S
C184 N185 1.315 . S
C184 H187 0.930 . S
N185 Co165 2.194 . S
N185 C180 1.328 . S
N185 C184 1.315 . S
H186 C180 0.929 . S
H187 C184 0.930 . S
H188 C176 0.929 . S
H189 C178 0.929 . S
O190 Co165 2.351 . S
O190 C193 1.244 . S
O191 Co165 2.155 . S
O191 C193 1.240 . S
O192 Co165 2.096 . S
O192 C173 1.247 . S
C193 O190 1.244 . S
C193 O191 1.240 . S
H194 C168 0.931 . S
H195 C177 0.931 . S
H196 C181 0.929 . S
H197 C183 0.930 . S
Co198 N202 2.148 . S
Co198 N208 2.128 . S
Co198 N218 2.194 . S
Co198 O223 2.351 . S
Co198 O224 2.155 . S
Co198 O225 2.096 . S
C199 N202 1.301 . S
C199 N203 1.328 . S
C199 H204 0.930 . S
C200 C201 1.333 . S
C200 N202 1.317 . S
C200 H205 0.930 . S
C201 C200 1.333 . S
C201 N203 1.350 . S
C201 H227 0.931 . S
N202 Co198 2.148 . S
N202 C199 1.301 . S
N202 C200 1.317 . S
N203 C199 1.328 . S
N203 C201 1.350 . S
H204 C199 0.930 . S
H205 C200 0.930 . S
C206 O207 1.224 . S
C206 O225 1.247 . S
O207 C206 1.224 . S
N208 Co198 2.128 . S
N208 C209 1.355 . S
N208 C211 1.311 . S
C209 N208 1.355 . S
C209 C210 1.363 . S
C209 H221 0.929 . S
C210 C209 1.363 . S
C210 N212 1.375 . S
C210 H228 0.931 . S
C211 N208 1.311 . S
C211 N212 1.347 . S
C211 H222 0.929 . S
N212 C210 1.375 . S
N212 C211 1.347 . S
C213 C216 1.365 . S
C213 N218 1.328 . S
C213 H219 0.929 . S
C214 C215 1.362 . S
C214 C217 1.378 . S
C214 H229 0.929 . S
C215 C214 1.362 . S
C215 C216 1.366 . S
C216 C213 1.365 . S
C216 C215 1.366 . S
C216 H230 0.930 . S
C217 C214 1.378 . S
C217 N218 1.315 . S
C217 H220 0.930 . S
N218 Co198 2.194 . S
N218 C213 1.328 . S
N218 C217 1.315 . S
H219 C213 0.929 . S
H220 C217 0.930 . S
H221 C209 0.929 . S
H222 C211 0.929 . S
O223 Co198 2.351 . S
O223 C226 1.244 . S
O224 Co198 2.155 . S
O224 C226 1.240 . S
O225 Co198 2.096 . S
O225 C206 1.247 . S
C226 O223 1.244 . S
C226 O224 1.240 . S
H227 C201 0.931 . S
H228 C210 0.931 . S
H229 C214 0.929 . S
H230 C216 0.930 . S
Co231 N235 2.148 . S
Co231 N241 2.128 1_655 S
Co231 N251 2.194 . S
Co231 O256 2.351 . S
Co231 O257 2.155 . S
Co231 O258 2.096 . S
C232 N235 1.301 . S
C232 N236 1.328 . S
C232 H237 0.930 . S
C233 C234 1.333 . S
C233 N235 1.317 . S
C233 H238 0.930 . S
C234 C233 1.333 . S
C234 N236 1.350 . S
C234 H260 0.931 . S
N235 Co231 2.148 . S
N235 C232 1.301 . S
N235 C233 1.317 . S
N236 C232 1.328 . S
N236 C234 1.350 . S
H237 C232 0.930 . S
H238 C233 0.930 . S
C239 O240 1.224 . S
C239 O258 1.247 . S
O240 C239 1.224 . S
N241 Co231 2.128 1_455 S
N241 C242 1.355 . S
N241 C244 1.311 . S
C242 N241 1.355 . S
C242 C243 1.363 . S
C242 H254 0.929 . S
C243 C242 1.363 . S
C243 N245 1.375 . S
C243 H261 0.931 . S
C244 N241 1.311 . S
C244 N245 1.347 . S
C244 H255 0.929 . S
N245 C243 1.375 . S
N245 C244 1.347 . S
C246 C249 1.365 . S
C246 N251 1.328 . S
C246 H252 0.929 . S
C247 C248 1.362 . S
C247 C250 1.378 . S
C247 H262 0.929 1_655 S
C248 C247 1.362 . S
C248 C249 1.366 . S
C249 C246 1.365 . S
C249 C248 1.366 . S
C249 H263 0.930 . S
C250 C247 1.378 . S
C250 N251 1.315 . S
C250 H253 0.930 . S
N251 Co231 2.194 . S
N251 C246 1.328 . S
N251 C250 1.315 . S
H252 C246 0.929 . S
H253 C250 0.930 . S
H254 C242 0.929 . S
H255 C244 0.929 . S
O256 Co231 2.351 . S
O256 C259 1.244 . S
O257 Co231 2.155 . S
O257 C259 1.240 . S
O258 Co231 2.096 . S
O258 C239 1.247 . S
C259 O256 1.244 . S
C259 O257 1.240 . S
H260 C234 0.931 . S
H261 C243 0.931 . S
H262 C247 0.929 1_455 S
H263 C249 0.930 . S
Co264 N268 2.148 . S
Co264 N274 2.128 1_565 S
Co264 N284 2.194 . S
Co264 O289 2.351 . S
Co264 O290 2.155 . S
Co264 O291 2.096 . S
C265 N268 1.301 . S
C265 N269 1.328 . S
C265 H270 0.930 . S
C266 C267 1.333 . S
C266 N268 1.317 . S
C266 H271 0.930 . S
C267 C266 1.333 . S
C267 N269 1.350 . S
C267 H293 0.931 . S
N268 Co264 2.148 . S
N268 C265 1.301 . S
N268 C266 1.317 . S
N269 C265 1.328 . S
N269 C267 1.350 . S
H270 C265 0.930 . S
H271 C266 0.930 . S
C272 O273 1.224 . S
C272 O291 1.247 . S
O273 C272 1.224 . S
N274 Co264 2.128 1_545 S
N274 C275 1.355 . S
N274 C277 1.311 . S
C275 N274 1.355 . S
C275 C276 1.363 . S
C275 H287 0.929 . S
C276 C275 1.363 . S
C276 N278 1.375 . S
C276 H294 0.931 . S
C277 N274 1.311 . S
C277 N278 1.347 . S
C277 H288 0.929 . S
N278 C276 1.375 . S
N278 C277 1.347 . S
C279 C282 1.365 . S
C279 N284 1.328 . S
C279 H285 0.929 . S
C280 C281 1.362 . S
C280 C283 1.378 . S
C280 H295 0.929 1_565 S
C281 C280 1.362 . S
C281 C282 1.366 . S
C282 C279 1.365 . S
C282 C281 1.366 . S
C282 H296 0.930 . S
C283 C280 1.378 . S
C283 N284 1.315 . S
C283 H286 0.930 . S
N284 Co264 2.194 . S
N284 C279 1.328 . S
N284 C283 1.315 . S
H285 C279 0.929 . S
H286 C283 0.930 . S
H287 C275 0.929 . S
H288 C277 0.929 . S
O289 Co264 2.351 . S
O289 C292 1.244 . S
O290 Co264 2.155 . S
O290 C292 1.240 . S
O291 Co264 2.096 . S
O291 C272 1.247 . S
C292 O289 1.244 . S
C292 O290 1.240 . S
H293 C267 0.931 . S
H294 C276 0.931 . S
H295 C280 0.929 1_545 S
H296 C282 0.930 . S
Co297 N301 2.148 . S
Co297 N307 2.128 . S
Co297 N317 2.194 . S
Co297 O322 2.351 . S
Co297 O323 2.155 . S
Co297 O324 2.096 . S
C298 N301 1.301 . S
C298 N302 1.328 . S
C298 H303 0.930 . S
C299 C300 1.333 . S
C299 N301 1.317 . S
C299 H304 0.930 . S
C300 C299 1.333 . S
C300 N302 1.350 . S
C300 H326 0.931 . S
N301 Co297 2.148 . S
N301 C298 1.301 . S
N301 C299 1.317 . S
N302 C298 1.328 . S
N302 C300 1.350 . S
H303 C298 0.930 . S
H304 C299 0.930 . S
C305 O306 1.224 . S
C305 O324 1.247 . S
O306 C305 1.224 . S
N307 Co297 2.128 . S
N307 C308 1.355 . S
N307 C310 1.311 . S
C308 N307 1.355 . S
C308 C309 1.363 . S
C308 H320 0.929 . S
C309 C308 1.363 . S
C309 N311 1.375 . S
C309 H327 0.931 . S
C310 N307 1.311 . S
C310 N311 1.347 . S
C310 H321 0.929 . S
N311 C309 1.375 . S
N311 C310 1.347 . S
C312 C315 1.365 . S
C312 N317 1.328 . S
C312 H318 0.929 . S
C313 C314 1.362 . S
C313 C316 1.378 . S
C313 H328 0.929 . S
C314 C313 1.362 . S
C314 C315 1.366 . S
C315 C312 1.365 . S
C315 C314 1.366 . S
C315 H329 0.930 . S
C316 C313 1.378 . S
C316 N317 1.315 . S
C316 H319 0.930 . S
N317 Co297 2.194 . S
N317 C312 1.328 . S
N317 C316 1.315 . S
H318 C312 0.929 . S
H319 C316 0.930 . S
H320 C308 0.929 . S
H321 C310 0.929 . S
O322 Co297 2.351 . S
O322 C325 1.244 . S
O323 Co297 2.155 . S
O323 C325 1.240 . S
O324 Co297 2.096 . S
O324 C305 1.247 . S
C325 O322 1.244 . S
C325 O323 1.240 . S
H326 C300 0.931 . S
H327 C309 0.931 . S
H328 C313 0.929 . S
H329 C315 0.930 . S
Co330 N334 2.148 . S
Co330 N340 2.128 . S
Co330 N350 2.194 . S
Co330 O355 2.351 . S
Co330 O356 2.155 . S
Co330 O357 2.096 . S
C331 N334 1.301 . S
C331 N335 1.328 . S
C331 H336 0.930 . S
C332 C333 1.333 . S
C332 N334 1.317 . S
C332 H337 0.930 . S
C333 C332 1.333 . S
C333 N335 1.350 . S
C333 H359 0.931 . S
N334 Co330 2.148 . S
N334 C331 1.301 . S
N334 C332 1.317 . S
N335 C331 1.328 . S
N335 C333 1.350 . S
H336 C331 0.930 . S
H337 C332 0.930 . S
C338 O339 1.224 . S
C338 O357 1.247 . S
O339 C338 1.224 . S
N340 Co330 2.128 . S
N340 C341 1.355 . S
N340 C343 1.311 . S
C341 N340 1.355 . S
C341 C342 1.363 . S
C341 H353 0.929 . S
C342 C341 1.363 . S
C342 N344 1.375 . S
C342 H360 0.931 . S
C343 N340 1.311 . S
C343 N344 1.347 . S
C343 H354 0.929 . S
N344 C342 1.375 . S
N344 C343 1.347 . S
C345 C348 1.365 . S
C345 N350 1.328 . S
C345 H351 0.929 . S
C346 C347 1.362 . S
C346 C349 1.378 . S
C346 H361 0.929 . S
C347 C346 1.362 . S
C347 C348 1.366 . S
C348 C345 1.365 . S
C348 C347 1.366 . S
C348 H362 0.930 . S
C349 C346 1.378 . S
C349 N350 1.315 . S
C349 H352 0.930 . S
N350 Co330 2.194 . S
N350 C345 1.328 . S
N350 C349 1.315 . S
H351 C345 0.929 . S
H352 C349 0.930 . S
H353 C341 0.929 . S
H354 C343 0.929 . S
O355 Co330 2.351 . S
O355 C358 1.244 . S
O356 Co330 2.155 . S
O356 C358 1.240 . S
O357 Co330 2.096 . S
O357 C338 1.247 . S
C358 O355 1.244 . S
C358 O356 1.240 . S
H359 C333 0.931 . S
H360 C342 0.931 . S
H361 C346 0.929 . S
H362 C348 0.930 . S
Co363 N367 2.148 . S
Co363 N373 2.128 1_655 S
Co363 N383 2.194 . S
Co363 O388 2.351 . S
Co363 O389 2.155 . S
Co363 O390 2.096 . S
C364 N367 1.301 . S
C364 N368 1.328 . S
C364 H369 0.930 . S
C365 C366 1.333 . S
C365 N367 1.317 . S
C365 H370 0.930 . S
C366 C365 1.333 . S
C366 N368 1.350 . S
C366 H392 0.931 . S
N367 Co363 2.148 . S
N367 C364 1.301 . S
N367 C365 1.317 . S
N368 C364 1.328 . S
N368 C366 1.350 . S
H369 C364 0.930 . S
H370 C365 0.930 . S
C371 O372 1.224 . S
C371 O390 1.247 . S
O372 C371 1.224 . S
N373 Co363 2.128 1_455 S
N373 C374 1.355 . S
N373 C376 1.311 . S
C374 N373 1.355 . S
C374 C375 1.363 . S
C374 H386 0.929 . S
C375 C374 1.363 . S
C375 N377 1.375 . S
C375 H393 0.931 . S
C376 N373 1.311 . S
C376 N377 1.347 . S
C376 H387 0.929 . S
N377 C375 1.375 . S
N377 C376 1.347 . S
C378 C381 1.365 . S
C378 N383 1.328 . S
C378 H384 0.929 . S
C379 C380 1.362 . S
C379 C382 1.378 . S
C379 H394 0.929 1_655 S
C380 C379 1.362 . S
C380 C381 1.366 . S
C381 C378 1.365 . S
C381 C380 1.366 . S
C381 H395 0.930 . S
C382 C379 1.378 . S
C382 N383 1.315 . S
C382 H385 0.930 . S
N383 Co363 2.194 . S
N383 C378 1.328 . S
N383 C382 1.315 . S
H384 C378 0.929 . S
H385 C382 0.930 . S
H386 C374 0.929 . S
H387 C376 0.929 . S
O388 Co363 2.351 . S
O388 C391 1.244 . S
O389 Co363 2.155 . S
O389 C391 1.240 . S
O390 Co363 2.096 . S
O390 C371 1.247 . S
C391 O388 1.244 . S
C391 O389 1.240 . S
H392 C366 0.931 . S
H393 C375 0.931 . S
H394 C379 0.929 1_455 S
H395 C381 0.930 . S
Co396 N400 2.148 . S
Co396 N406 2.128 1_545 S
Co396 N416 2.194 . S
Co396 O421 2.351 . S
Co396 O422 2.155 . S
Co396 O423 2.096 . S
C397 N400 1.301 . S
C397 N401 1.328 . S
C397 H402 0.930 . S
C398 C399 1.333 . S
C398 N400 1.317 . S
C398 H403 0.930 . S
C399 C398 1.333 . S
C399 N401 1.350 . S
C399 H425 0.931 . S
N400 Co396 2.148 . S
N400 C397 1.301 . S
N400 C398 1.317 . S
N401 C397 1.328 . S
N401 C399 1.350 . S
H402 C397 0.930 . S
H403 C398 0.930 . S
C404 O405 1.224 . S
C404 O423 1.247 . S
O405 C404 1.224 . S
N406 Co396 2.128 1_565 S
N406 C407 1.355 . S
N406 C409 1.311 . S
C407 N406 1.355 . S
C407 C408 1.363 . S
C407 H419 0.929 . S
C408 C407 1.363 . S
C408 N410 1.375 . S
C408 H426 0.931 . S
C409 N406 1.311 . S
C409 N410 1.347 . S
C409 H420 0.929 . S
N410 C408 1.375 . S
N410 C409 1.347 . S
C411 C414 1.365 . S
C411 N416 1.328 . S
C411 H417 0.929 . S
C412 C413 1.362 . S
C412 C415 1.378 . S
C412 H427 0.929 1_545 S
C413 C412 1.362 . S
C413 C414 1.366 . S
C414 C411 1.365 . S
C414 C413 1.366 . S
C414 H428 0.930 . S
C415 C412 1.378 . S
C415 N416 1.315 . S
C415 H418 0.930 . S
N416 Co396 2.194 . S
N416 C411 1.328 . S
N416 C415 1.315 . S
H417 C411 0.929 . S
H418 C415 0.930 . S
H419 C407 0.929 . S
H420 C409 0.929 . S
O421 Co396 2.351 . S
O421 C424 1.244 . S
O422 Co396 2.155 . S
O422 C424 1.240 . S
O423 Co396 2.096 . S
O423 C404 1.247 . S
C424 O421 1.244 . S
C424 O422 1.240 . S
H425 C399 0.931 . S
H426 C408 0.931 . S
H427 C412 0.929 1_565 S
H428 C414 0.930 . S
Co429 N433 2.148 . S
Co429 N439 2.128 . S
Co429 N449 2.194 . S
Co429 O454 2.351 . S
Co429 O455 2.155 . S
Co429 O456 2.096 . S
C430 N433 1.301 . S
C430 N434 1.328 . S
C430 H435 0.930 . S
C431 C432 1.333 . S
C431 N433 1.317 . S
C431 H436 0.930 . S
C432 C431 1.333 . S
C432 N434 1.350 . S
C432 H458 0.931 . S
N433 Co429 2.148 . S
N433 C430 1.301 . S
N433 C431 1.317 . S
N434 C430 1.328 . S
N434 C432 1.350 . S
H435 C430 0.930 . S
H436 C431 0.930 . S
C437 O438 1.224 . S
C437 O456 1.247 . S
O438 C437 1.224 . S
N439 Co429 2.128 . S
N439 C440 1.355 . S
N439 C442 1.311 . S
C440 N439 1.355 . S
C440 C441 1.363 . S
C440 H452 0.929 . S
C441 C440 1.363 . S
C441 N443 1.375 . S
C441 H459 0.931 . S
C442 N439 1.311 . S
C442 N443 1.347 . S
C442 H453 0.929 . S
N443 C441 1.375 . S
N443 C442 1.347 . S
C444 C447 1.365 . S
C444 N449 1.328 . S
C444 H450 0.929 . S
C445 C446 1.362 . S
C445 C448 1.378 . S
C445 H460 0.929 . S
C446 C445 1.362 . S
C446 C447 1.366 . S
C447 C444 1.365 . S
C447 C446 1.366 . S
C447 H461 0.930 . S
C448 C445 1.378 . S
C448 N449 1.315 . S
C448 H451 0.930 . S
N449 Co429 2.194 . S
N449 C444 1.328 . S
N449 C448 1.315 . S
H450 C444 0.929 . S
H451 C448 0.930 . S
H452 C440 0.929 . S
H453 C442 0.929 . S
O454 Co429 2.351 . S
O454 C457 1.244 . S
O455 Co429 2.155 . S
O455 C457 1.240 . S
O456 Co429 2.096 . S
O456 C437 1.247 . S
C457 O454 1.244 . S
C457 O455 1.240 . S
H458 C432 0.931 . S
H459 C441 0.931 . S
H460 C445 0.929 . S
H461 C447 0.930 . S
Co462 N466 2.148 . S
Co462 N472 2.128 . S
Co462 N482 2.194 . S
Co462 O487 2.351 . S
Co462 O488 2.155 . S
Co462 O489 2.096 . S
C463 N466 1.301 . S
C463 N467 1.328 . S
C463 H468 0.930 . S
C464 C465 1.333 . S
C464 N466 1.317 . S
C464 H469 0.930 . S
C465 C464 1.333 . S
C465 N467 1.350 . S
C465 H491 0.931 . S
N466 Co462 2.148 . S
N466 C463 1.301 . S
N466 C464 1.317 . S
N467 C463 1.328 . S
N467 C465 1.350 . S
H468 C463 0.930 . S
H469 C464 0.930 . S
C470 O471 1.224 . S
C470 O489 1.247 . S
O471 C470 1.224 . S
N472 Co462 2.128 . S
N472 C473 1.355 . S
N472 C475 1.311 . S
C473 N472 1.355 . S
C473 C474 1.363 . S
C473 H485 0.929 . S
C474 C473 1.363 . S
C474 N476 1.375 . S
C474 H492 0.931 . S
C475 N472 1.311 . S
C475 N476 1.347 . S
C475 H486 0.929 . S
N476 C474 1.375 . S
N476 C475 1.347 . S
C477 C480 1.365 . S
C477 N482 1.328 . S
C477 H483 0.929 . S
C478 C479 1.362 . S
C478 C481 1.378 . S
C478 H493 0.929 . S
C479 C478 1.362 . S
C479 C480 1.366 . S
C480 C477 1.365 . S
C480 C479 1.366 . S
C480 H494 0.930 . S
C481 C478 1.378 . S
C481 N482 1.315 . S
C481 H484 0.930 . S
N482 Co462 2.194 . S
N482 C477 1.328 . S
N482 C481 1.315 . S
H483 C477 0.929 . S
H484 C481 0.930 . S
H485 C473 0.929 . S
H486 C475 0.929 . S
O487 Co462 2.351 . S
O487 C490 1.244 . S
O488 Co462 2.155 . S
O488 C490 1.240 . S
O489 Co462 2.096 . S
O489 C470 1.247 . S
C490 O487 1.244 . S
C490 O488 1.240 . S
H491 C465 0.931 . S
H492 C474 0.931 . S
H493 C478 0.929 . S
H494 C480 0.930 . S
Co495 N499 2.148 . S
Co495 N505 2.128 1_455 S
Co495 N515 2.194 . S
Co495 O520 2.351 . S
Co495 O521 2.155 . S
Co495 O522 2.096 . S
C496 N499 1.301 . S
C496 N500 1.328 . S
C496 H501 0.930 . S
C497 C498 1.333 . S
C497 N499 1.317 . S
C497 H502 0.930 . S
C498 C497 1.333 . S
C498 N500 1.350 . S
C498 H524 0.931 . S
N499 Co495 2.148 . S
N499 C496 1.301 . S
N499 C497 1.317 . S
N500 C496 1.328 . S
N500 C498 1.350 . S
H501 C496 0.930 . S
H502 C497 0.930 . S
C503 O504 1.224 . S
C503 O522 1.247 . S
O504 C503 1.224 . S
N505 Co495 2.128 1_655 S
N505 C506 1.355 . S
N505 C508 1.311 . S
C506 N505 1.355 . S
C506 C507 1.363 . S
C506 H518 0.929 . S
C507 C506 1.363 . S
C507 N509 1.375 . S
C507 H525 0.931 . S
C508 N505 1.311 . S
C508 N509 1.347 . S
C508 H519 0.929 . S
N509 C507 1.375 . S
N509 C508 1.347 . S
C510 C513 1.365 . S
C510 N515 1.328 . S
C510 H516 0.929 . S
C511 C512 1.362 . S
C511 C514 1.378 . S
C511 H526 0.929 1_455 S
C512 C511 1.362 . S
C512 C513 1.366 . S
C513 C510 1.365 . S
C513 C512 1.366 . S
C513 H527 0.930 . S
C514 C511 1.378 . S
C514 N515 1.315 . S
C514 H517 0.930 . S
N515 Co495 2.194 . S
N515 C510 1.328 . S
N515 C514 1.315 . S
H516 C510 0.929 . S
H517 C514 0.930 . S
H518 C506 0.929 . S
H519 C508 0.929 . S
O520 Co495 2.351 . S
O520 C523 1.244 . S
O521 Co495 2.155 . S
O521 C523 1.240 . S
O522 Co495 2.096 . S
O522 C503 1.247 . S
C523 O520 1.244 . S
C523 O521 1.240 . S
H524 C498 0.931 . S
H525 C507 0.931 . S
H526 C511 0.929 1_655 S
H527 C513 0.930 . S
C528 C529 1.349 . S
C528 C530 1.327 . S
C528 H553 0.950 . S
C529 C528 1.349 . S
C529 C545 1.349 . S
C530 C528 1.327 . S
C530 C549 1.429 . S
C530 H554 0.950 . S
C531 C548 1.574 . S
C531 C550 1.368 . S
C531 H555 0.949 . S
H532 C536 0.949 . S
C533 C534 1.349 . S
C533 C535 1.327 . S
C533 H556 0.950 . S
C534 C533 1.349 . S
C534 C546 1.349 . S
C535 C533 1.327 . S
C535 C551 1.429 . S
C535 H557 0.950 . S
C536 H532 0.949 . S
C536 C544 1.574 . S
C536 C552 1.368 . S
H537 C545 0.950 . S
H538 C543 0.950 . S
H539 C544 0.949 . S
H540 C546 0.950 . S
H541 C547 0.950 . S
H542 C548 0.949 . S
C543 H538 0.950 . S
C543 C545 1.327 . S
C543 C549 1.429 . S
C544 C536 1.574 . S
C544 H539 0.949 . S
C544 C550 1.368 . S
C545 C529 1.349 . S
C545 H537 0.950 . S
C545 C543 1.327 . S
C546 C534 1.349 . S
C546 H540 0.950 . S
C546 C547 1.327 . S
C547 H541 0.950 . S
C547 C546 1.327 . S
C547 C551 1.429 . S
C548 C531 1.574 . S
C548 H542 0.949 . S
C548 C552 1.368 . S
C549 C530 1.429 . S
C549 C543 1.429 . S
C549 C550 1.523 . S
C550 C531 1.368 . S
C550 C544 1.368 . S
C550 C549 1.523 . S
C551 C535 1.429 . S
C551 C547 1.429 . S
C551 C552 1.523 . S
C552 C536 1.368 . S
C552 C548 1.368 . S
C552 C551 1.523 . S
H553 C528 0.950 . S
H554 C530 0.950 . S
H555 C531 0.949 . S
H556 C533 0.950 . S
H557 C535 0.950 . S
C558 C559 1.349 . S
C558 C560 1.327 . S
C558 H583 0.950 . S
C559 C558 1.349 . S
C559 C575 1.349 . S
C560 C558 1.327 . S
C560 C579 1.429 . S
C560 H584 0.950 . S
C561 C578 1.574 . S
C561 C580 1.368 . S
C561 H585 0.949 . S
H562 C566 0.949 . S
C563 C564 1.349 . S
C563 C565 1.327 . S
C563 H586 0.950 . S
C564 C563 1.349 . S
C564 C576 1.349 . S
C565 C563 1.327 . S
C565 C581 1.429 . S
C565 H587 0.950 . S
C566 H562 0.949 . S
C566 C574 1.574 . S
C566 C582 1.368 . S
H567 C575 0.950 . S
H568 C573 0.950 . S
H569 C574 0.949 . S
H570 C576 0.950 . S
H571 C577 0.950 . S
H572 C578 0.949 . S
C573 H568 0.950 . S
C573 C575 1.327 . S
C573 C579 1.429 . S
C574 C566 1.574 . S
C574 H569 0.949 . S
C574 C580 1.368 . S
C575 C559 1.349 . S
C575 H567 0.950 . S
C575 C573 1.327 . S
C576 C564 1.349 . S
C576 H570 0.950 . S
C576 C577 1.327 . S
C577 H571 0.950 . S
C577 C576 1.327 . S
C577 C581 1.429 . S
C578 C561 1.574 . S
C578 H572 0.949 . S
C578 C582 1.368 . S
C579 C560 1.429 . S
C579 C573 1.429 . S
C579 C580 1.523 . S
C580 C561 1.368 . S
C580 C574 1.368 . S
C580 C579 1.523 . S
C581 C565 1.429 . S
C581 C577 1.429 . S
C581 C582 1.523 . S
C582 C566 1.368 . S
C582 C578 1.368 . S
C582 C581 1.523 . S
H583 C558 0.950 . S
H584 C560 0.950 . S
H585 C561 0.949 . S
H586 C563 0.950 . S
H587 C565 0.950 . S
C588 C589 1.349 . S
C588 C590 1.327 . S
C588 H613 0.950 . S
C589 C588 1.349 . S
C589 C605 1.349 1_655 S
C590 C588 1.327 . S
C590 C609 1.429 . S
C590 H614 0.950 . S
C591 C608 1.574 . S
C591 C610 1.368 . S
C591 H615 0.949 . S
H592 C596 0.949 . S
C593 C594 1.349 . S
C593 C595 1.327 . S
C593 H616 0.950 . S
C594 C593 1.349 . S
C594 C606 1.349 . S
C595 C593 1.327 . S
C595 C611 1.429 . S
C595 H617 0.950 . S
C596 H592 0.949 . S
C596 C604 1.574 . S
C596 C612 1.368 . S
H597 C605 0.950 . S
H598 C603 0.950 . S
H599 C604 0.949 . S
H600 C606 0.950 . S
H601 C607 0.950 . S
H602 C608 0.949 . S
C603 H598 0.950 . S
C603 C605 1.327 1_655 S
C603 C609 1.429 . S
C604 C596 1.574 . S
C604 H599 0.949 . S
C604 C610 1.368 . S
C605 C589 1.349 1_455 S
C605 H597 0.950 . S
C605 C603 1.327 1_455 S
C606 C594 1.349 . S
C606 H600 0.950 . S
C606 C607 1.327 . S
C607 H601 0.950 . S
C607 C606 1.327 . S
C607 C611 1.429 . S
C608 C591 1.574 . S
C608 H602 0.949 . S
C608 C612 1.368 . S
C609 C590 1.429 . S
C609 C603 1.429 . S
C609 C610 1.523 . S
C610 C591 1.368 . S
C610 C604 1.368 . S
C610 C609 1.523 . S
C611 C595 1.429 . S
C611 C607 1.429 . S
C611 C612 1.523 . S
C612 C596 1.368 . S
C612 C608 1.368 . S
C612 C611 1.523 . S
H613 C588 0.950 . S
H614 C590 0.950 . S
H615 C591 0.949 . S
H616 C593 0.950 . S
H617 C595 0.950 . S
C618 C619 1.349 . S
C618 C620 1.327 . S
C618 H643 0.950 . S
C619 C618 1.349 . S
C619 C635 1.349 . S
C620 C618 1.327 . S
C620 C639 1.429 . S
C620 H644 0.950 . S
C621 C638 1.574 . S
C621 C640 1.368 . S
C621 H645 0.949 . S
H622 C626 0.949 . S
C623 C624 1.349 . S
C623 C625 1.327 . S
C623 H646 0.950 . S
C624 C623 1.349 . S
C624 C636 1.349 1_565 S
C625 C623 1.327 . S
C625 C641 1.429 . S
C625 H647 0.950 . S
C626 H622 0.949 . S
C626 C634 1.574 . S
C626 C642 1.368 . S
H627 C635 0.950 . S
H628 C633 0.950 . S
H629 C634 0.949 . S
H630 C636 0.950 . S
H631 C637 0.961 . S
H632 C638 0.949 . S
C633 H628 0.950 . S
C633 C635 1.327 . S
C633 C639 1.429 . S
C634 C626 1.574 . S
C634 H629 0.949 . S
C634 C640 1.368 . S
C635 C619 1.349 . S
C635 H627 0.950 . S
C635 C633 1.327 . S
C636 C624 1.349 1_545 S
C636 H630 0.950 . S
C636 C637 1.327 1_545 S
C637 H631 0.961 . S
C637 C636 1.327 1_565 S
C637 C641 1.429 . S
C638 C621 1.574 . S
C638 H632 0.949 . S
C638 C642 1.368 . S
C639 C620 1.429 . S
C639 C633 1.429 . S
C639 C640 1.523 . S
C640 C621 1.368 . S
C640 C634 1.368 . S
C640 C639 1.523 . S
C641 C625 1.429 . S
C641 C637 1.429 . S
C641 C642 1.523 . S
C642 C626 1.368 . S
C642 C638 1.368 . S
C642 C641 1.523 . S
H643 C618 0.950 . S
H644 C620 0.950 . S
H645 C621 0.949 . S
H646 C623 0.950 . S
H647 C625 0.950 . S
C648 C649 1.349 . S
C648 C650 1.327 . S
C648 H673 0.950 . S
C649 C648 1.349 . S
C649 C665 1.348 1_455 S
C650 C648 1.327 . S
C650 C669 1.429 . S
C650 H674 0.950 . S
C651 C668 1.574 . S
C651 C670 1.368 . S
C651 H675 0.949 . S
H652 C656 0.949 . S
C653 C654 1.349 . S
C653 C655 1.327 . S
C653 H676 0.950 . S
C654 C653 1.349 . S
C654 C666 1.349 . S
C655 C653 1.327 . S
C655 C671 1.429 . S
C655 H677 0.950 . S
C656 H652 0.949 . S
C656 C664 1.574 . S
C656 C672 1.368 . S
H657 C665 0.952 . S
H658 C663 0.950 . S
H659 C664 0.949 . S
H660 C666 0.950 . S
H661 C667 0.950 . S
H662 C668 0.949 . S
C663 H658 0.950 . S
C663 C665 1.326 1_455 S
C663 C669 1.429 . S
C664 C656 1.574 . S
C664 H659 0.949 . S
C664 C670 1.368 . S
C665 C649 1.348 1_655 S
C665 H657 0.952 . S
C665 C663 1.326 1_655 S
C666 C654 1.349 . S
C666 H660 0.950 . S
C666 C667 1.327 . S
C667 H661 0.950 . S
C667 C666 1.327 . S
C667 C671 1.429 . S
C668 C651 1.574 . S
C668 H662 0.949 . S
C668 C672 1.368 . S
C669 C650 1.429 . S
C669 C663 1.429 . S
C669 C670 1.523 . S
C670 C651 1.368 . S
C670 C664 1.368 . S
C670 C669 1.523 . S
C671 C655 1.429 . S
C671 C667 1.429 . S
C671 C672 1.523 . S
C672 C656 1.368 . S
C672 C668 1.368 . S
C672 C671 1.523 . S
H673 C648 0.950 . S
H674 C650 0.950 . S
H675 C651 0.949 . S
H676 C653 0.950 . S
H677 C655 0.950 . S
C678 C679 1.349 . S
C678 C680 1.327 . S
C678 H703 0.950 . S
C679 C678 1.349 . S
C679 C695 1.349 . S
C680 C678 1.327 . S
C680 C699 1.429 . S
C680 H704 0.950 . S
C681 C698 1.574 . S
C681 C700 1.368 . S
C681 H705 0.949 . S
H682 C686 0.949 . S
C683 C684 1.349 . S
C683 C685 1.327 . S
C683 H706 0.950 . S
C684 C683 1.349 . S
C684 C696 1.349 . S
C685 C683 1.327 . S
C685 C701 1.429 . S
C685 H707 0.950 . S
C686 H682 0.949 . S
C686 C694 1.574 . S
C686 C702 1.368 . S
H687 C695 0.950 1_565 S
H688 C693 0.950 . S
H689 C694 0.949 . S
H690 C696 0.950 . S
H691 C697 0.950 . S
H692 C698 0.949 . S
C693 H688 0.950 . S
C693 C695 1.327 . S
C693 C699 1.429 . S
C694 C686 1.574 . S
C694 H689 0.949 . S
C694 C700 1.368 . S
C695 C679 1.349 . S
C695 H687 0.950 1_545 S
C695 C693 1.327 . S
C696 C684 1.349 . S
C696 H690 0.950 . S
C696 C697 1.327 . S
C697 H691 0.950 . S
C697 C696 1.327 . S
C697 C701 1.429 . S
C698 C681 1.574 . S
C698 H692 0.949 . S
C698 C702 1.368 . S
C699 C680 1.429 . S
C699 C693 1.429 . S
C699 C700 1.523 . S
C700 C681 1.368 . S
C700 C694 1.368 . S
C700 C699 1.523 . S
C701 C685 1.429 . S
C701 C697 1.429 . S
C701 C702 1.523 . S
C702 C686 1.368 . S
C702 C698 1.368 . S
C702 C701 1.523 . S
H703 C678 0.950 . S
H704 C680 0.950 . S
H705 C681 0.949 . S
H706 C683 0.950 . S
H707 C685 0.950 . S
C708 C709 1.349 . S
C708 C710 1.327 . S
C708 H733 0.950 . S
C709 C708 1.349 . S
C709 C725 1.349 . S
C710 C708 1.327 . S
C710 C729 1.429 . S
C710 H734 0.950 . S
C711 C728 1.574 . S
C711 C730 1.368 . S
C711 H735 0.949 . S
H712 C716 0.949 . S
C713 C714 1.349 . S
C713 C715 1.327 . S
C713 H736 0.950 . S
C714 C713 1.349 . S
C714 C726 1.349 . S
C715 C713 1.327 . S
C715 C731 1.429 . S
C715 H737 0.950 . S
C716 H712 0.949 . S
C716 C724 1.574 . S
C716 C732 1.368 . S
H717 C725 0.950 . S
H718 C723 0.950 . S
H719 C724 0.949 . S
H720 C726 0.950 . S
H721 C727 0.950 . S
H722 C728 0.949 . S
C723 H718 0.950 . S
C723 C725 1.327 . S
C723 C729 1.429 . S
C724 C716 1.574 . S
C724 H719 0.949 . S
C724 C730 1.368 . S
C725 C709 1.349 . S
C725 H717 0.950 . S
C725 C723 1.327 . S
C726 C714 1.349 . S
C726 H720 0.950 . S
C726 C727 1.327 . S
C727 H721 0.950 . S
C727 C726 1.327 . S
C727 C731 1.429 . S
C728 C711 1.574 . S
C728 H722 0.949 . S
C728 C732 1.368 . S
C729 C710 1.429 . S
C729 C723 1.429 . S
C729 C730 1.523 . S
C730 C711 1.368 . S
C730 C724 1.368 . S
C730 C729 1.523 . S
C731 C715 1.429 . S
C731 C727 1.429 . S
C731 C732 1.523 . S
C732 C716 1.368 . S
C732 C728 1.368 . S
C732 C731 1.523 . S
H733 C708 0.950 . S
H734 C710 0.950 . S
H735 C711 0.949 . S
H736 C713 0.950 . S
H737 C715 0.950 . S
C738 C739 1.349 . S
C738 C740 1.327 . S
C738 H763 0.950 . S
C739 C738 1.349 . S
C739 C755 1.349 . S
C740 C738 1.327 . S
C740 C759 1.429 . S
C740 H764 0.950 . S
C741 C758 1.574 . S
C741 C760 1.368 . S
C741 H765 0.949 . S
H742 C746 0.949 . S
C743 C744 1.349 . S
C743 C745 1.327 . S
C743 H766 0.950 . S
C744 C743 1.349 . S
C744 C756 1.349 . S
C745 C743 1.327 . S
C745 C761 1.429 . S
C745 H767 0.950 . S
C746 H742 0.949 . S
C746 C754 1.574 . S
C746 C762 1.368 . S
H747 C755 0.950 . S
H748 C753 0.950 . S
H749 C754 0.949 . S
H750 C756 0.950 . S
H751 C757 0.950 . S
H752 C758 0.949 . S
C753 H748 0.950 . S
C753 C755 1.327 . S
C753 C759 1.429 . S
C754 C746 1.574 . S
C754 H749 0.949 . S
C754 C760 1.368 . S
C755 C739 1.349 . S
C755 H747 0.950 . S
C755 C753 1.327 . S
C756 C744 1.349 . S
C756 H750 0.950 . S
C756 C757 1.327 . S
C757 H751 0.950 . S
C757 C756 1.327 . S
C757 C761 1.429 . S
C758 C741 1.574 . S
C758 H752 0.949 . S
C758 C762 1.368 . S
C759 C740 1.429 . S
C759 C753 1.429 . S
C759 C760 1.523 . S
C760 C741 1.368 . S
C760 C754 1.368 . S
C760 C759 1.523 . S
C761 C745 1.429 . S
C761 C757 1.429 . S
C761 C762 1.523 . S
C762 C746 1.368 . S
C762 C758 1.368 . S
C762 C761 1.523 . S
H763 C738 0.950 . S
H764 C740 0.950 . S
H765 C741 0.949 . S
H766 C743 0.950 . S
H767 C745 0.950 . S
C768 C769 1.349 . S
C768 C770 1.327 . S
C768 H793 0.950 . S
C769 C768 1.349 . S
C769 C785 1.349 . S
C770 C768 1.327 . S
C770 C789 1.429 . S
C770 H794 0.950 . S
C771 C788 1.574 . S
C771 C790 1.368 . S
C771 H795 0.949 . S
H772 C776 0.949 . S
C773 C774 1.349 . S
C773 C775 1.327 . S
C773 H796 0.950 . S
C774 C773 1.349 . S
C774 C786 1.349 . S
C775 C773 1.327 . S
C775 C791 1.429 . S
C775 H797 0.950 . S
C776 H772 0.949 . S
C776 C784 1.574 . S
C776 C792 1.368 . S
H777 C785 0.950 . S
H778 C783 0.950 . S
H779 C784 0.949 . S
H780 C786 0.950 . S
H781 C787 0.950 . S
H782 C788 0.949 . S
C783 H778 0.950 . S
C783 C785 1.327 . S
C783 C789 1.429 . S
C784 C776 1.574 . S
C784 H779 0.949 . S
C784 C790 1.368 . S
C785 C769 1.349 . S
C785 H777 0.950 . S
C785 C783 1.327 . S
C786 C774 1.349 . S
C786 H780 0.950 . S
C786 C787 1.327 . S
C787 H781 0.950 . S
C787 C786 1.327 . S
C787 C791 1.429 . S
C788 C771 1.574 . S
C788 H782 0.949 . S
C788 C792 1.368 . S
C789 C770 1.429 . S
C789 C783 1.429 . S
C789 C790 1.523 . S
C790 C771 1.368 . S
C790 C784 1.368 . S
C790 C789 1.523 . S
C791 C775 1.429 . S
C791 C787 1.429 . S
C791 C792 1.523 . S
C792 C776 1.368 . S
C792 C788 1.368 . S
C792 C791 1.523 . S
H793 C768 0.950 . S
H794 C770 0.950 . S
H795 C771 0.949 . S
H796 C773 0.950 . S
H797 C775 0.950 . S
C798 C799 1.349 . S
C798 C800 1.327 . S
C798 H823 0.950 . S
C799 C798 1.349 . S
C799 C815 1.349 . S
C800 C798 1.327 . S
C800 C819 1.429 . S
C800 H824 0.950 . S
C801 C818 1.574 . S
C801 C820 1.368 . S
C801 H825 0.949 . S
H802 C806 0.949 . S
C803 C804 1.349 . S
C803 C805 1.327 . S
C803 H826 0.950 . S
C804 C803 1.349 . S
C804 C816 1.349 . S
C805 C803 1.327 . S
C805 C821 1.429 . S
C805 H827 0.950 . S
C806 H802 0.949 . S
C806 C814 1.574 . S
C806 C822 1.368 . S
H807 C815 0.950 . S
H808 C813 0.950 . S
H809 C814 0.949 . S
H810 C816 0.950 . S
H811 C817 0.950 . S
H812 C818 0.949 . S
C813 H808 0.950 . S
C813 C815 1.327 . S
C813 C819 1.429 . S
C814 C806 1.574 . S
C814 H809 0.949 . S
C814 C820 1.368 . S
C815 C799 1.349 . S
C815 H807 0.950 . S
C815 C813 1.327 . S
C816 C804 1.349 . S
C816 H810 0.950 . S
C816 C817 1.327 . S
C817 H811 0.950 . S
C817 C816 1.327 . S
C817 C821 1.429 . S
C818 C801 1.574 . S
C818 H812 0.949 . S
C818 C822 1.368 . S
C819 C800 1.429 . S
C819 C813 1.429 . S
C819 C820 1.523 . S
C820 C801 1.368 . S
C820 C814 1.368 . S
C820 C819 1.523 . S
C821 C805 1.429 . S
C821 C817 1.429 . S
C821 C822 1.523 . S
C822 C806 1.368 . S
C822 C818 1.368 . S
C822 C821 1.523 . S
H823 C798 0.950 . S
H824 C800 0.950 . S
H825 C801 0.949 . S
H826 C803 0.950 . S
H827 C805 0.950 . S
C828 C829 1.349 1_655 S
C828 C830 1.327 1_655 S
C828 H853 0.950 . S
C829 C828 1.349 1_455 S
C829 C845 1.349 . S
C830 C828 1.327 1_455 S
C830 C849 1.429 . S
C830 H854 0.950 1_455 S
C831 C848 1.574 . S
C831 C850 1.368 . S
C831 H855 0.949 . S
H832 C836 0.949 . S
C833 C834 1.349 . S
C833 C835 1.327 . S
C833 H856 0.950 . S
C834 C833 1.349 . S
C834 C846 1.349 . S
C835 C833 1.327 . S
C835 C851 1.429 . S
C835 H857 0.950 . S
C836 H832 0.949 . S
C836 C844 1.574 . S
C836 C852 1.368 . S
H837 C845 0.950 . S
H838 C843 0.950 . S
H839 C844 0.949 . S
H840 C846 0.950 . S
H841 C847 0.950 . S
H842 C848 0.949 . S
C843 H838 0.950 . S
C843 C845 1.327 . S
C843 C849 1.429 . S
C844 C836 1.574 . S
C844 H839 0.949 . S
C844 C850 1.368 . S
C845 C829 1.349 . S
C845 H837 0.950 . S
C845 C843 1.327 . S
C846 C834 1.349 . S
C846 H840 0.950 . S
C846 C847 1.327 . S
C847 H841 0.950 . S
C847 C846 1.327 . S
C847 C851 1.429 . S
C848 C831 1.574 . S
C848 H842 0.949 . S
C848 C852 1.368 . S
C849 C830 1.429 . S
C849 C843 1.429 . S
C849 C850 1.523 . S
C850 C831 1.368 . S
C850 C844 1.368 . S
C850 C849 1.523 . S
C851 C835 1.429 . S
C851 C847 1.429 . S
C851 C852 1.523 . S
C852 C836 1.368 . S
C852 C848 1.368 . S
C852 C851 1.523 . S
H853 C828 0.950 . S
H854 C830 0.950 1_655 S
H855 C831 0.949 . S
H856 C833 0.950 . S
H857 C835 0.950 . S
C858 C859 1.349 . S
C858 C860 1.327 . S
C858 H883 0.950 . S
C859 C858 1.349 . S
C859 C875 1.349 1_545 S
C860 C858 1.327 . S
C860 C879 1.429 . S
C860 H884 0.950 . S
C861 C878 1.574 . S
C861 C880 1.368 . S
C861 H885 0.949 . S
H862 C866 0.949 . S
C863 C864 1.349 . S
C863 C865 1.327 . S
C863 H886 0.950 . S
C864 C863 1.349 . S
C864 C876 1.349 . S
C865 C863 1.327 . S
C865 C881 1.429 . S
C865 H887 0.950 . S
C866 H862 0.949 . S
C866 C874 1.574 . S
C866 C882 1.368 . S
H867 C875 0.950 . S
H868 C873 0.950 1_565 S
H869 C874 0.949 . S
H870 C876 0.950 . S
H871 C877 0.950 . S
H872 C878 0.949 . S
C873 H868 0.950 1_545 S
C873 C875 1.327 1_545 S
C873 C879 1.429 . S
C874 C866 1.574 . S
C874 H869 0.949 . S
C874 C880 1.368 . S
C875 C859 1.349 1_565 S
C875 H867 0.950 . S
C875 C873 1.327 1_565 S
C876 C864 1.349 . S
C876 H870 0.950 . S
C876 C877 1.327 . S
C877 H871 0.950 . S
C877 C876 1.327 . S
C877 C881 1.429 . S
C878 C861 1.574 . S
C878 H872 0.949 . S
C878 C882 1.368 . S
C879 C860 1.429 . S
C879 C873 1.429 . S
C879 C880 1.523 . S
C880 C861 1.368 . S
C880 C874 1.368 . S
C880 C879 1.523 . S
C881 C865 1.429 . S
C881 C877 1.429 . S
C881 C882 1.523 . S
C882 C866 1.368 . S
C882 C878 1.368 . S
C882 C881 1.523 . S
H883 C858 0.950 . S
H884 C860 0.950 . S
H885 C861 0.949 . S
H886 C863 0.950 . S
H887 C865 0.950 . S
C888 C889 1.341 1_455 S
C888 C890 1.310 1_455 S
C888 H913 0.977 . S
C889 C888 1.341 1_655 S
C889 C905 1.349 . S
C890 C888 1.310 1_655 S
C890 C909 1.429 . S
C890 H914 0.950 . S
C891 C908 1.574 . S
C891 C910 1.368 . S
C891 H915 0.949 . S
H892 C896 0.949 . S
C893 C894 1.349 . S
C893 C895 1.327 . S
C893 H916 0.950 . S
C894 C893 1.349 . S
C894 C906 1.349 . S
C895 C893 1.327 . S
C895 C911 1.429 . S
C895 H917 0.950 . S
C896 H892 0.949 . S
C896 C904 1.574 . S
C896 C912 1.368 . S
H897 C905 0.950 . S
H898 C903 0.950 . S
H899 C904 0.949 . S
H900 C906 0.950 . S
H901 C907 0.950 . S
H902 C908 0.949 . S
C903 H898 0.950 . S
C903 C905 1.327 . S
C903 C909 1.429 . S
C904 C896 1.574 . S
C904 H899 0.949 . S
C904 C910 1.368 . S
C905 C889 1.349 . S
C905 H897 0.950 . S
C905 C903 1.327 . S
C906 C894 1.349 . S
C906 H900 0.950 . S
C906 C907 1.327 . S
C907 H901 0.950 . S
C907 C906 1.327 . S
C907 C911 1.429 . S
C908 C891 1.574 . S
C908 H902 0.949 . S
C908 C912 1.368 . S
C909 C890 1.429 . S
C909 C903 1.429 . S
C909 C910 1.523 . S
C910 C891 1.368 . S
C910 C904 1.368 . S
C910 C909 1.523 . S
C911 C895 1.429 . S
C911 C907 1.429 . S
C911 C912 1.523 . S
C912 C896 1.368 . S
C912 C908 1.368 . S
C912 C911 1.523 . S
H913 C888 0.977 . S
H914 C890 0.950 . S
H915 C891 0.949 . S
H916 C893 0.950 . S
H917 C895 0.950 . S
C918 C919 1.349 . S
C918 C920 1.327 . S
C918 H943 0.950 . S
C919 C918 1.349 . S
C919 C935 1.349 . S
C920 C918 1.327 . S
C920 C939 1.429 . S
C920 H944 0.950 . S
C921 C938 1.574 . S
C921 C940 1.368 . S
C921 H945 0.949 . S
H922 C926 0.949 . S
C923 C924 1.349 . S
C923 C925 1.327 . S
C923 H946 0.950 . S
C924 C923 1.349 . S
C924 C936 1.349 . S
C925 C923 1.327 . S
C925 C941 1.429 . S
C925 H947 0.950 . S
C926 H922 0.949 . S
C926 C934 1.574 . S
C926 C942 1.368 . S
H927 C935 0.950 . S
H928 C933 0.950 . S
H929 C934 0.949 . S
H930 C936 0.950 . S
H931 C937 0.950 . S
H932 C938 0.949 . S
C933 H928 0.950 . S
C933 C935 1.327 . S
C933 C939 1.429 . S
C934 C926 1.574 . S
C934 H929 0.949 . S
C934 C940 1.368 . S
C935 C919 1.349 . S
C935 H927 0.950 . S
C935 C933 1.327 . S
C936 C924 1.349 . S
C936 H930 0.950 . S
C936 C937 1.327 . S
C937 H931 0.950 . S
C937 C936 1.327 . S
C937 C941 1.429 . S
C938 C921 1.574 . S
C938 H932 0.949 . S
C938 C942 1.368 . S
C939 C920 1.429 . S
C939 C933 1.429 . S
C939 C940 1.523 . S
C940 C921 1.368 . S
C940 C934 1.368 . S
C940 C939 1.523 . S
C941 C925 1.429 . S
C941 C937 1.429 . S
C941 C942 1.523 . S
C942 C926 1.368 . S
C942 C938 1.368 . S
C942 C941 1.523 . S
H943 C918 0.950 . S
H944 C920 0.950 . S
H945 C921 0.949 . S
H946 C923 0.950 . S
H947 C925 0.950 . S
C948 C949 1.349 . S
C948 C950 1.327 . S
C948 H973 0.950 . S
C949 C948 1.349 . S
C949 C965 1.349 . S
C950 C948 1.327 . S
C950 C969 1.429 . S
C950 H974 0.950 . S
C951 C968 1.574 . S
C951 C970 1.368 . S
C951 H975 0.949 . S
H952 C956 0.949 . S
C953 C954 1.349 . S
C953 C955 1.327 . S
C953 H976 0.950 . S
C954 C953 1.349 . S
C954 C966 1.349 . S
C955 C953 1.327 . S
C955 C971 1.429 . S
C955 H977 0.950 . S
C956 H952 0.949 . S
C956 C964 1.574 . S
C956 C972 1.368 . S
H957 C965 0.950 . S
H958 C963 0.950 . S
H959 C964 0.949 . S
H960 C966 0.950 . S
H961 C967 0.950 . S
H962 C968 0.949 . S
C963 H958 0.950 . S
C963 C965 1.327 . S
C963 C969 1.429 . S
C964 C956 1.574 . S
C964 H959 0.949 . S
C964 C970 1.368 . S
C965 C949 1.349 . S
C965 H957 0.950 . S
C965 C963 1.327 . S
C966 C954 1.349 . S
C966 H960 0.950 . S
C966 C967 1.327 . S
C967 H961 0.950 . S
C967 C966 1.327 . S
C967 C971 1.429 . S
C968 C951 1.574 . S
C968 H962 0.949 . S
C968 C972 1.368 . S
C969 C950 1.429 . S
C969 C963 1.429 . S
C969 C970 1.523 . S
C970 C951 1.368 . S
C970 C964 1.368 . S
C970 C969 1.523 . S
C971 C955 1.429 . S
C971 C967 1.429 . S
C971 C972 1.523 . S
C972 C956 1.368 . S
C972 C968 1.368 . S
C972 C971 1.523 . S
H973 C948 0.950 . S
H974 C950 0.950 . S
H975 C951 0.949 . S
H976 C953 0.950 . S
H977 C955 0.950 . S
C978 C979 1.349 . S
C978 C980 1.327 . S
C978 H1003 0.950 . S
C979 C978 1.349 . S
C979 C995 1.349 . S
C980 C978 1.327 . S
C980 C999 1.429 . S
C980 H1004 0.950 . S
C981 C998 1.574 . S
C981 C1000 1.368 . S
C981 H1005 0.949 . S
H982 C986 0.949 . S
C983 C984 1.349 . S
C983 C985 1.327 . S
C983 H1006 0.950 . S
C984 C983 1.349 . S
C984 C996 1.349 . S
C985 C983 1.327 . S
C985 C1001 1.429 . S
C985 H1007 0.950 . S
C986 H982 0.949 . S
C986 C994 1.574 . S
C986 C1002 1.368 . S
H987 C995 0.950 . S
H988 C993 0.950 . S
H989 C994 0.949 . S
H990 C996 0.950 . S
H991 C997 0.950 . S
H992 C998 0.949 . S
C993 H988 0.950 . S
C993 C995 1.327 . S
C993 C999 1.429 . S
C994 C986 1.574 . S
C994 H989 0.949 . S
C994 C1000 1.368 . S
C995 C979 1.349 . S
C995 H987 0.950 . S
C995 C993 1.327 . S
C996 C984 1.349 . S
C996 H990 0.950 . S
C996 C997 1.327 . S
C997 H991 0.950 . S
C997 C996 1.327 . S
C997 C1001 1.429 . S
C998 C981 1.574 . S
C998 H992 0.949 . S
C998 C1002 1.368 . S
C999 C980 1.429 . S
C999 C993 1.429 . S
C999 C1000 1.523 . S
C1000 C981 1.368 . S
C1000 C994 1.368 . S
C1000 C999 1.523 . S
C1001 C985 1.429 . S
C1001 C997 1.429 . S
C1001 C1002 1.523 . S
C1002 C986 1.368 . S
C1002 C998 1.368 . S
C1002 C1001 1.523 . S
H1003 C978 0.950 . S
H1004 C980 0.950 . S
H1005 C981 0.949 . S
H1006 C983 0.950 . S
H1007 C985 0.950 . S
C1008 C1009 1.349 . S
C1008 C1010 1.327 . S
C1008 H1033 0.950 . S
C1009 C1008 1.349 . S
C1009 C1025 1.349 . S
C1010 C1008 1.327 . S
C1010 C1029 1.429 . S
C1010 H1034 0.950 . S
C1011 C1028 1.574 . S
C1011 C1030 1.368 . S
C1011 H1035 0.949 . S
H1012 C1016 0.949 . S
C1013 C1014 1.349 . S
C1013 C1015 1.327 . S
C1013 H1036 0.950 . S
C1014 C1013 1.349 . S
C1014 C1026 1.349 . S
C1015 C1013 1.327 . S
C1015 C1031 1.429 . S
C1015 H1037 0.950 . S
C1016 H1012 0.949 . S
C1016 C1024 1.574 . S
C1016 C1032 1.368 . S
H1017 C1025 0.950 . S
H1018 C1023 0.950 . S
H1019 C1024 0.949 . S
H1020 C1026 0.950 . S
H1021 C1027 0.950 . S
H1022 C1028 0.949 . S
C1023 H1018 0.950 . S
C1023 C1025 1.327 . S
C1023 C1029 1.429 . S
C1024 C1016 1.574 . S
C1024 H1019 0.949 . S
C1024 C1030 1.368 . S
C1025 C1009 1.349 . S
C1025 H1017 0.950 . S
C1025 C1023 1.327 . S
C1026 C1014 1.349 . S
C1026 H1020 0.950 . S
C1026 C1027 1.327 . S
C1027 H1021 0.950 . S
C1027 C1026 1.327 . S
C1027 C1031 1.429 . S
C1028 C1011 1.574 . S
C1028 H1022 0.949 . S
C1028 C1032 1.368 . S
C1029 C1010 1.429 . S
C1029 C1023 1.429 . S
C1029 C1030 1.523 . S
C1030 C1011 1.368 . S
C1030 C1024 1.368 . S
C1030 C1029 1.523 . S
C1031 C1015 1.429 . S
C1031 C1027 1.429 . S
C1031 C1032 1.523 . S
C1032 C1016 1.368 . S
C1032 C1028 1.368 . S
C1032 C1031 1.523 . S
H1033 C1008 0.950 . S
H1034 C1010 0.950 . S
H1035 C1011 0.949 . S
H1036 C1013 0.950 . S
H1037 C1015 0.950 . S
C1038 C1039 1.349 . S
C1038 C1040 1.327 . S
C1038 H1063 0.950 . S
C1039 C1038 1.349 . S
C1039 C1055 1.349 . S
C1040 C1038 1.327 . S
C1040 C1059 1.429 . S
C1040 H1064 0.950 . S
C1041 C1058 1.574 . S
C1041 C1060 1.368 . S
C1041 H1065 0.949 . S
H1042 C1046 0.949 . S
C1043 C1044 1.349 . S
C1043 C1045 1.327 . S
C1043 H1066 0.950 . S
C1044 C1043 1.349 . S
C1044 C1056 1.349 . S
C1045 C1043 1.327 . S
C1045 C1061 1.429 . S
C1045 H1067 0.950 . S
C1046 H1042 0.949 . S
C1046 C1054 1.574 . S
C1046 C1062 1.368 . S
H1047 C1055 0.950 . S
H1048 C1053 0.950 . S
H1049 C1054 0.949 . S
H1050 C1056 0.950 . S
H1051 C1057 0.950 . S
H1052 C1058 0.949 . S
C1053 H1048 0.950 . S
C1053 C1055 1.327 . S
C1053 C1059 1.429 . S
C1054 C1046 1.574 . S
C1054 H1049 0.949 . S
C1054 C1060 1.368 . S
C1055 C1039 1.349 . S
C1055 H1047 0.950 . S
C1055 C1053 1.327 . S
C1056 C1044 1.349 . S
C1056 H1050 0.950 . S
C1056 C1057 1.327 . S
C1057 H1051 0.950 . S
C1057 C1056 1.327 . S
C1057 C1061 1.429 . S
C1058 C1041 1.574 . S
C1058 H1052 0.949 . S
C1058 C1062 1.368 . S
C1059 C1040 1.429 . S
C1059 C1053 1.429 . S
C1059 C1060 1.523 . S
C1060 C1041 1.368 . S
C1060 C1054 1.368 . S
C1060 C1059 1.523 . S
C1061 C1045 1.429 . S
C1061 C1057 1.429 . S
C1061 C1062 1.523 . S
C1062 C1046 1.368 . S
C1062 C1058 1.368 . S
C1062 C1061 1.523 . S
H1063 C1038 0.950 . S
H1064 C1040 0.950 . S
H1065 C1041 0.949 . S
H1066 C1043 0.950 . S
H1067 C1045 0.950 . S
C1068 C1069 1.349 . S
C1068 C1070 1.327 . S
C1068 H1093 0.950 . S
C1069 C1068 1.349 . S
C1069 C1085 1.349 . S
C1070 C1068 1.327 . S
C1070 C1089 1.429 . S
C1070 H1094 0.950 . S
C1071 C1088 1.574 . S
C1071 C1090 1.368 . S
C1071 H1095 0.949 . S
H1072 C1076 0.949 . S
C1073 C1074 1.349 . S
C1073 C1075 1.327 . S
C1073 H1096 0.950 . S
C1074 C1073 1.349 . S
C1074 C1086 1.349 . S
C1075 C1073 1.327 . S
C1075 C1091 1.429 . S
C1075 H1097 0.950 . S
C1076 H1072 0.949 . S
C1076 C1084 1.574 . S
C1076 C1092 1.368 . S
H1077 C1085 0.950 . S
H1078 C1083 0.950 . S
H1079 C1084 0.949 . S
H1080 C1086 0.950 . S
H1081 C1087 0.950 . S
H1082 C1088 0.949 . S
C1083 H1078 0.950 . S
C1083 C1085 1.327 . S
C1083 C1089 1.429 . S
C1084 C1076 1.574 . S
C1084 H1079 0.949 . S
C1084 C1090 1.368 . S
C1085 C1069 1.349 . S
C1085 H1077 0.950 . S
C1085 C1083 1.327 . S
C1086 C1074 1.349 . S
C1086 H1080 0.950 . S
C1086 C1087 1.327 . S
C1087 H1081 0.950 . S
C1087 C1086 1.327 . S
C1087 C1091 1.429 . S
C1088 C1071 1.574 . S
C1088 H1082 0.949 . S
C1088 C1092 1.368 . S
C1089 C1070 1.429 . S
C1089 C1083 1.429 . S
C1089 C1090 1.523 . S
C1090 C1071 1.368 . S
C1090 C1084 1.368 . S
C1090 C1089 1.523 . S
C1091 C1075 1.429 . S
C1091 C1087 1.429 . S
C1091 C1092 1.523 . S
C1092 C1076 1.368 . S
C1092 C1088 1.368 . S
C1092 C1091 1.523 . S
H1093 C1068 0.950 . S
H1094 C1070 0.950 . S
H1095 C1071 0.949 . S
H1096 C1073 0.950 . S
H1097 C1075 0.950 . S
C1098 C1099 1.349 . S
C1098 C1100 1.327 . S
C1098 H1123 0.950 . S
C1099 C1098 1.349 . S
C1099 C1115 1.349 . S
C1100 C1098 1.327 . S
C1100 C1119 1.429 . S
C1100 H1124 0.950 . S
C1101 C1118 1.574 . S
C1101 C1120 1.368 . S
C1101 H1125 0.949 . S
H1102 C1106 0.949 . S
C1103 C1104 1.349 . S
C1103 C1105 1.327 . S
C1103 H1126 0.950 . S
C1104 C1103 1.349 . S
C1104 C1116 1.349 . S
C1105 C1103 1.327 . S
C1105 C1121 1.429 . S
C1105 H1127 0.950 . S
C1106 H1102 0.949 . S
C1106 C1114 1.574 . S
C1106 C1122 1.368 . S
H1107 C1115 0.950 . S
H1108 C1113 0.950 . S
H1109 C1114 0.949 . S
H1110 C1116 0.950 . S
H1111 C1117 0.950 . S
H1112 C1118 0.949 . S
C1113 H1108 0.950 . S
C1113 C1115 1.327 . S
C1113 C1119 1.429 . S
C1114 C1106 1.574 . S
C1114 H1109 0.949 . S
C1114 C1120 1.368 . S
C1115 C1099 1.349 . S
C1115 H1107 0.950 . S
C1115 C1113 1.327 . S
C1116 C1104 1.349 . S
C1116 H1110 0.950 . S
C1116 C1117 1.327 . S
C1117 H1111 0.950 . S
C1117 C1116 1.327 . S
C1117 C1121 1.429 . S
C1118 C1101 1.574 . S
C1118 H1112 0.949 . S
C1118 C1122 1.368 . S
C1119 C1100 1.429 . S
C1119 C1113 1.429 . S
C1119 C1120 1.523 . S
C1120 C1101 1.368 . S
C1120 C1114 1.368 . S
C1120 C1119 1.523 . S
C1121 C1105 1.429 . S
C1121 C1117 1.429 . S
C1121 C1122 1.523 . S
C1122 C1106 1.368 . S
C1122 C1118 1.368 . S
C1122 C1121 1.523 . S
H1123 C1098 0.950 . S
H1124 C1100 0.950 . S
H1125 C1101 0.949 . S
H1126 C1103 0.950 . S
H1127 C1105 0.950 . S
C1128 C1129 1.349 . S
C1128 C1130 1.327 . S
C1128 H1153 0.950 . S
C1129 C1128 1.349 . S
C1129 C1145 1.349 . S
C1130 C1128 1.327 . S
C1130 C1149 1.429 . S
C1130 H1154 0.950 . S
C1131 C1148 1.574 . S
C1131 C1150 1.368 . S
C1131 H1155 0.949 . S
H1132 C1136 0.949 . S
C1133 C1134 1.349 . S
C1133 C1135 1.327 . S
C1133 H1156 0.950 . S
C1134 C1133 1.349 . S
C1134 C1146 1.349 . S
C1135 C1133 1.327 . S
C1135 C1151 1.429 . S
C1135 H1157 0.950 . S
C1136 H1132 0.949 . S
C1136 C1144 1.574 . S
C1136 C1152 1.368 . S
H1137 C1145 0.950 . S
H1138 C1143 0.950 . S
H1139 C1144 0.949 . S
H1140 C1146 0.950 . S
H1141 C1147 0.950 . S
H1142 C1148 0.949 . S
C1143 H1138 0.950 . S
C1143 C1145 1.327 . S
C1143 C1149 1.429 . S
C1144 C1136 1.574 . S
C1144 H1139 0.949 . S
C1144 C1150 1.368 . S
C1145 C1129 1.349 . S
C1145 H1137 0.950 . S
C1145 C1143 1.327 . S
C1146 C1134 1.349 . S
C1146 H1140 0.950 . S
C1146 C1147 1.327 . S
C1147 H1141 0.950 . S
C1147 C1146 1.327 . S
C1147 C1151 1.429 . S
C1148 C1131 1.574 . S
C1148 H1142 0.949 . S
C1148 C1152 1.368 . S
C1149 C1130 1.429 . S
C1149 C1143 1.429 . S
C1149 C1150 1.523 . S
C1150 C1131 1.368 . S
C1150 C1144 1.368 . S
C1150 C1149 1.523 . S
C1151 C1135 1.429 . S
C1151 C1147 1.429 . S
C1151 C1152 1.523 . S
C1152 C1136 1.368 . S
C1152 C1148 1.368 . S
C1152 C1151 1.523 . S
H1153 C1128 0.950 . S
H1154 C1130 0.950 . S
H1155 C1131 0.949 . S
H1156 C1133 0.950 . S
H1157 C1135 0.950 . S
C1158 C1159 1.349 . S
C1158 C1160 1.327 . S
C1158 H1183 0.950 . S
C1159 C1158 1.349 . S
C1159 C1175 1.349 . S
C1160 C1158 1.327 . S
C1160 C1179 1.429 . S
C1160 H1184 0.950 . S
C1161 C1178 1.574 . S
C1161 C1180 1.368 . S
C1161 H1185 0.949 . S
H1162 C1166 0.949 . S
C1163 C1164 1.349 . S
C1163 C1165 1.327 . S
C1163 H1186 0.950 . S
C1164 C1163 1.349 . S
C1164 C1176 1.349 . S
C1165 C1163 1.327 . S
C1165 C1181 1.429 . S
C1165 H1187 0.950 . S
C1166 H1162 0.949 . S
C1166 C1174 1.574 . S
C1166 C1182 1.368 . S
H1167 C1175 0.950 . S
H1168 C1173 0.950 . S
H1169 C1174 0.949 . S
H1170 C1176 0.950 . S
H1171 C1177 0.950 . S
H1172 C1178 0.949 . S
C1173 H1168 0.950 . S
C1173 C1175 1.327 . S
C1173 C1179 1.429 . S
C1174 C1166 1.574 . S
C1174 H1169 0.949 . S
C1174 C1180 1.368 . S
C1175 C1159 1.349 . S
C1175 H1167 0.950 . S
C1175 C1173 1.327 . S
C1176 C1164 1.349 . S
C1176 H1170 0.950 . S
C1176 C1177 1.327 . S
C1177 H1171 0.950 . S
C1177 C1176 1.327 . S
C1177 C1181 1.429 . S
C1178 C1161 1.574 . S
C1178 H1172 0.949 . S
C1178 C1182 1.368 . S
C1179 C1160 1.429 . S
C1179 C1173 1.429 . S
C1179 C1180 1.523 . S
C1180 C1161 1.368 . S
C1180 C1174 1.368 . S
C1180 C1179 1.523 . S
C1181 C1165 1.429 . S
C1181 C1177 1.429 . S
C1181 C1182 1.523 . S
C1182 C1166 1.368 . S
C1182 C1178 1.368 . S
C1182 C1181 1.523 . S
H1183 C1158 0.950 . S
H1184 C1160 0.950 . S
H1185 C1161 0.949 . S
H1186 C1163 0.950 . S
H1187 C1165 0.950 . S
C1188 C1189 1.349 . S
C1188 C1190 1.327 . S
C1188 H1213 0.950 . S
C1189 C1188 1.349 . S
C1189 C1205 1.349 . S
C1190 C1188 1.327 . S
C1190 C1209 1.429 . S
C1190 H1214 0.950 . S
C1191 C1208 1.574 . S
C1191 C1210 1.368 . S
C1191 H1215 0.949 . S
H1192 C1196 0.949 . S
C1193 C1194 1.349 . S
C1193 C1195 1.327 . S
C1193 H1216 0.950 . S
C1194 C1193 1.349 . S
C1194 C1206 1.349 . S
C1195 C1193 1.327 . S
C1195 C1211 1.429 . S
C1195 H1217 0.950 . S
C1196 H1192 0.949 . S
C1196 C1204 1.574 . S
C1196 C1212 1.368 . S
H1197 C1205 0.950 . S
H1198 C1203 0.950 . S
H1199 C1204 0.949 . S
H1200 C1206 0.950 . S
H1201 C1207 0.950 . S
H1202 C1208 0.949 . S
C1203 H1198 0.950 . S
C1203 C1205 1.327 . S
C1203 C1209 1.429 . S
C1204 C1196 1.574 . S
C1204 H1199 0.949 . S
C1204 C1210 1.368 . S
C1205 C1189 1.349 . S
C1205 H1197 0.950 . S
C1205 C1203 1.327 . S
C1206 C1194 1.349 . S
C1206 H1200 0.950 . S
C1206 C1207 1.327 . S
C1207 H1201 0.950 . S
C1207 C1206 1.327 . S
C1207 C1211 1.429 . S
C1208 C1191 1.574 . S
C1208 H1202 0.949 . S
C1208 C1212 1.368 . S
C1209 C1190 1.429 . S
C1209 C1203 1.429 . S
C1209 C1210 1.523 . S
C1210 C1191 1.368 . S
C1210 C1204 1.368 . S
C1210 C1209 1.523 . S
C1211 C1195 1.429 . S
C1211 C1207 1.429 . S
C1211 C1212 1.523 . S
C1212 C1196 1.368 . S
C1212 C1208 1.368 . S
C1212 C1211 1.523 . S
H1213 C1188 0.950 . S
H1214 C1190 0.950 . S
H1215 C1191 0.949 . S
H1216 C1193 0.950 . S
H1217 C1195 0.950 . S
C1218 C1219 1.349 . S
C1218 C1220 1.327 . S
C1218 H1243 0.950 . S
C1219 C1218 1.349 . S
C1219 C1235 1.349 . S
C1220 C1218 1.327 . S
C1220 C1239 1.429 . S
C1220 H1244 0.950 . S
C1221 C1238 1.574 . S
C1221 C1240 1.368 . S
C1221 H1245 0.949 . S
H1222 C1226 0.949 . S
C1223 C1224 1.349 . S
C1223 C1225 1.327 . S
C1223 H1246 0.950 . S
C1224 C1223 1.349 . S
C1224 C1236 1.349 . S
C1225 C1223 1.327 . S
C1225 C1241 1.429 . S
C1225 H1247 0.950 . S
C1226 H1222 0.949 . S
C1226 C1234 1.574 . S
C1226 C1242 1.368 . S
H1227 C1235 0.950 . S
H1228 C1233 0.950 . S
H1229 C1234 0.949 . S
H1230 C1236 0.950 . S
H1231 C1237 0.950 . S
H1232 C1238 0.949 . S
C1233 H1228 0.950 . S
C1233 C1235 1.327 . S
C1233 C1239 1.429 . S
C1234 C1226 1.574 . S
C1234 H1229 0.949 . S
C1234 C1240 1.368 . S
C1235 C1219 1.349 . S
C1235 H1227 0.950 . S
C1235 C1233 1.327 . S
C1236 C1224 1.349 . S
C1236 H1230 0.950 . S
C1236 C1237 1.327 . S
C1237 H1231 0.950 . S
C1237 C1236 1.327 . S
C1237 C1241 1.429 . S
C1238 C1221 1.574 . S
C1238 H1232 0.949 . S
C1238 C1242 1.368 . S
C1239 C1220 1.429 . S
C1239 C1233 1.429 . S
C1239 C1240 1.523 . S
C1240 C1221 1.368 . S
C1240 C1234 1.368 . S
C1240 C1239 1.523 . S
C1241 C1225 1.429 . S
C1241 C1237 1.429 . S
C1241 C1242 1.523 . S
C1242 C1226 1.368 . S
C1242 C1238 1.368 . S
C1242 C1241 1.523 . S
H1243 C1218 0.950 . S
H1244 C1220 0.950 . S
H1245 C1221 0.949 . S
H1246 C1223 0.950 . S
H1247 C1225 0.950 . S
C1248 C1249 1.349 . S
C1248 C1250 1.327 . S
C1248 H1273 0.970 . S
C1249 C1248 1.349 . S
C1249 C1265 1.349 . S
C1250 C1248 1.327 . S
C1250 C1269 1.429 . S
C1250 H1274 0.950 1_545 S
C1251 C1268 1.574 . S
C1251 C1270 1.368 . S
C1251 H1275 0.949 . S
H1252 C1256 0.949 . S
C1253 C1254 1.349 . S
C1253 C1255 1.327 . S
C1253 H1276 0.970 . S
C1254 C1253 1.349 . S
C1254 C1266 1.349 . S
C1255 C1253 1.327 . S
C1255 C1271 1.429 . S
C1255 H1277 0.950 1_565 S
C1256 H1252 0.949 . S
C1256 C1264 1.574 . S
C1256 C1272 1.368 . S
H1257 C1265 0.950 . S
H1258 C1263 0.950 . S
H1259 C1264 0.949 . S
H1260 C1266 0.950 . S
H1261 C1267 0.950 . S
H1262 C1268 0.949 . S
C1263 H1258 0.950 . S
C1263 C1265 1.327 . S
C1263 C1269 1.429 . S
C1264 C1256 1.574 . S
C1264 H1259 0.949 . S
C1264 C1270 1.368 1_566 S
C1265 C1249 1.349 . S
C1265 H1257 0.950 . S
C1265 C1263 1.327 . S
C1266 C1254 1.349 . S
C1266 H1260 0.950 . S
C1266 C1267 1.327 . S
C1267 H1261 0.950 . S
C1267 C1266 1.327 . S
C1267 C1271 1.429 . S
C1268 C1251 1.574 . S
C1268 H1262 0.949 . S
C1268 C1272 1.368 1_544 S
C1269 C1250 1.429 . S
C1269 C1263 1.429 . S
C1269 C1270 1.523 . S
C1270 C1251 1.368 . S
C1270 C1264 1.368 1_544 S
C1270 C1269 1.523 . S
C1271 C1255 1.429 . S
C1271 C1267 1.429 . S
C1271 C1272 1.523 . S
C1272 C1256 1.368 . S
C1272 C1268 1.368 1_566 S
C1272 C1271 1.523 . S
H1273 C1248 0.970 . S
H1274 C1250 0.950 1_565 S
H1275 C1251 0.949 . S
H1276 C1253 0.970 . S
H1277 C1255 0.950 1_545 S
C1278 C1279 1.349 . S
C1278 C1280 1.327 . S
C1278 H1303 0.950 . S
C1279 C1278 1.349 . S
C1279 C1295 1.349 . S
C1280 C1278 1.327 . S
C1280 C1299 1.429 . S
C1280 H1304 0.950 . S
C1281 C1298 1.574 . S
C1281 C1300 1.368 . S
C1281 H1305 0.949 . S
H1282 C1286 0.949 . S
C1283 C1284 1.349 . S
C1283 C1285 1.327 . S
C1283 H1306 0.950 . S
C1284 C1283 1.349 . S
C1284 C1296 1.349 . S
C1285 C1283 1.327 . S
C1285 C1301 1.429 . S
C1285 H1307 0.950 . S
C1286 H1282 0.949 . S
C1286 C1294 1.574 . S
C1286 C1302 1.368 . S
H1287 C1295 0.950 . S
H1288 C1293 0.950 . S
H1289 C1294 0.949 . S
H1290 C1296 0.950 . S
H1291 C1297 0.950 . S
H1292 C1298 0.949 . S
C1293 H1288 0.950 . S
C1293 C1295 1.327 . S
C1293 C1299 1.429 . S
C1294 C1286 1.574 . S
C1294 H1289 0.949 . S
C1294 C1300 1.368 1_556 S
C1295 C1279 1.349 . S
C1295 H1287 0.950 . S
C1295 C1293 1.327 . S
C1296 C1284 1.349 . S
C1296 H1290 0.950 . S
C1296 C1297 1.327 . S
C1297 H1291 0.950 . S
C1297 C1296 1.327 . S
C1297 C1301 1.429 . S
C1298 C1281 1.574 . S
C1298 H1292 0.949 . S
C1298 C1302 1.368 1_554 S
C1299 C1280 1.429 . S
C1299 C1293 1.429 . S
C1299 C1300 1.523 . S
C1300 C1281 1.368 . S
C1300 C1294 1.368 1_554 S
C1300 C1299 1.523 . S
C1301 C1285 1.429 . S
C1301 C1297 1.429 . S
C1301 C1302 1.523 . S
C1302 C1286 1.368 . S
C1302 C1298 1.368 1_556 S
C1302 C1301 1.523 . S
H1303 C1278 0.950 . S
H1304 C1280 0.950 . S
H1305 C1281 0.949 . S
H1306 C1283 0.950 . S
H1307 C1285 0.950 . S
C1308 C1309 1.349 . S
C1308 C1310 1.327 . S
C1308 H1333 0.950 . S
C1309 C1308 1.349 . S
C1309 C1325 1.349 . S
C1310 C1308 1.327 . S
C1310 C1329 1.429 . S
C1310 H1334 0.950 . S
C1311 C1328 1.574 1_655 S
C1311 C1330 1.368 1_556 S
C1311 H1335 0.949 . S
H1312 C1316 0.949 . S
C1313 C1314 1.349 . S
C1313 C1315 1.327 . S
C1313 H1336 0.950 . S
C1314 C1313 1.349 . S
C1314 C1326 1.349 . S
C1315 C1313 1.327 . S
C1315 C1331 1.429 . S
C1315 H1337 0.950 . S
C1316 H1312 0.949 . S
C1316 C1324 1.574 1_455 S
C1316 C1332 1.368 1_554 S
H1317 C1325 0.950 . S
H1318 C1323 0.950 . S
H1319 C1324 0.949 . S
H1320 C1326 0.950 . S
H1321 C1327 0.950 . S
H1322 C1328 0.949 . S
C1323 H1318 0.950 . S
C1323 C1325 1.327 . S
C1323 C1329 1.429 . S
C1324 C1316 1.574 1_655 S
C1324 H1319 0.949 . S
C1324 C1330 1.368 . S
C1325 C1309 1.349 . S
C1325 H1317 0.950 . S
C1325 C1323 1.327 . S
C1326 C1314 1.349 . S
C1326 H1320 0.950 . S
C1326 C1327 1.327 . S
C1327 H1321 0.950 . S
C1327 C1326 1.327 . S
C1327 C1331 1.429 . S
C1328 C1311 1.574 1_455 S
C1328 H1322 0.949 . S
C1328 C1332 1.368 . S
C1329 C1310 1.429 . S
C1329 C1323 1.429 . S
C1329 C1330 1.523 . S
C1330 C1311 1.368 1_554 S
C1330 C1324 1.368 . S
C1330 C1329 1.523 . S
C1331 C1315 1.429 . S
C1331 C1327 1.429 . S
C1331 C1332 1.523 . S
C1332 C1316 1.368 1_556 S
C1332 C1328 1.368 . S
C1332 C1331 1.523 . S
H1333 C1308 0.950 . S
H1334 C1310 0.950 . S
H1335 C1311 0.949 . S
H1336 C1313 0.950 . S
H1337 C1315 0.950 . S
C1338 C1339 1.349 . S
C1338 C1340 1.327 . S
C1338 H1363 0.950 . S
C1339 C1338 1.349 . S
C1339 C1355 1.349 . S
C1340 C1338 1.327 . S
C1340 C1359 1.429 . S
C1340 H1364 0.950 . S
C1341 C1358 1.574 1_545 S
C1341 C1360 1.368 1_455 S
C1341 H1365 0.949 . S
H1342 C1346 0.949 . S
C1343 C1344 1.349 . S
C1343 C1345 1.327 . S
C1343 H1366 0.950 . S
C1344 C1343 1.349 . S
C1344 C1356 1.349 . S
C1345 C1343 1.327 . S
C1345 C1361 1.429 . S
C1345 H1367 0.950 . S
C1346 H1342 0.949 . S
C1346 C1354 1.574 1_565 S
C1346 C1362 1.368 1_655 S
H1347 C1355 0.950 1_455 S
H1348 C1353 0.931 1_455 S
H1349 C1354 0.949 . S
H1350 C1356 0.950 1_655 S
H1351 C1357 0.931 1_655 S
H1352 C1358 0.949 . S
C1353 H1348 0.931 1_655 S
C1353 C1355 1.334 . S
C1353 C1359 1.440 . S
C1354 C1346 1.574 1_545 S
C1354 H1349 0.949 . S
C1354 C1360 1.368 1_554 S
C1355 C1339 1.349 . S
C1355 H1347 0.950 1_655 S
C1355 C1353 1.334 . S
C1356 C1344 1.349 . S
C1356 H1350 0.950 1_455 S
C1356 C1357 1.334 . S
C1357 H1351 0.931 1_455 S
C1357 C1356 1.334 . S
C1357 C1361 1.440 . S
C1358 C1341 1.574 1_565 S
C1358 H1352 0.949 . S
C1358 C1362 1.368 1_556 S
C1359 C1340 1.429 . S
C1359 C1353 1.440 . S
C1359 C1360 1.523 . S
C1360 C1341 1.368 1_655 S
C1360 C1354 1.368 1_556 S
C1360 C1359 1.523 . S
C1361 C1345 1.429 . S
C1361 C1357 1.440 . S
C1361 C1362 1.523 . S
C1362 C1346 1.368 1_455 S
C1362 C1358 1.368 1_554 S
C1362 C1361 1.523 . S
H1363 C1338 0.950 . S
H1364 C1340 0.950 . S
H1365 C1341 0.949 . S
H1366 C1343 0.950 . S
H1367 C1345 0.950 . S
C1368 C1369 1.349 . S
C1368 C1370 1.327 1_545 S
C1368 H1393 0.950 1_545 S
C1369 C1368 1.349 . S
C1369 C1385 1.349 . S
C1370 C1368 1.327 1_565 S
C1370 C1389 1.429 1_565 S
C1370 H1394 0.950 . S
C1371 C1388 1.574 1_655 S
C1371 C1390 1.368 . S
C1371 H1395 0.949 . S
H1372 C1376 0.949 . S
C1373 C1374 1.349 . S
C1373 C1375 1.327 1_565 S
C1373 H1396 0.950 1_565 S
C1374 C1373 1.349 . S
C1374 C1386 1.349 . S
C1375 C1373 1.327 1_545 S
C1375 C1391 1.429 1_545 S
C1375 H1397 0.950 . S
C1376 H1372 0.949 . S
C1376 C1384 1.574 1_455 S
C1376 C1392 1.368 . S
H1377 C1385 0.950 . S
H1378 C1383 0.950 . S
H1379 C1384 0.949 . S
H1380 C1386 0.950 . S
H1381 C1387 0.950 . S
H1382 C1388 0.949 . S
C1383 H1378 0.950 . S
C1383 C1385 1.327 . S
C1383 C1389 1.429 . S
C1384 C1376 1.574 1_655 S
C1384 H1379 0.949 . S
C1384 C1390 1.368 1_565 S
C1385 C1369 1.349 . S
C1385 H1377 0.950 . S
C1385 C1383 1.327 . S
C1386 C1374 1.349 . S
C1386 H1380 0.950 . S
C1386 C1387 1.327 . S
C1387 H1381 0.950 . S
C1387 C1386 1.327 . S
C1387 C1391 1.429 . S
C1388 C1371 1.574 1_455 S
C1388 H1382 0.949 . S
C1388 C1392 1.368 1_545 S
C1389 C1370 1.429 1_545 S
C1389 C1383 1.429 . S
C1389 C1390 1.523 . S
C1390 C1371 1.368 . S
C1390 C1384 1.368 1_545 S
C1390 C1389 1.523 . S
C1391 C1375 1.429 1_565 S
C1391 C1387 1.429 . S
C1391 C1392 1.523 . S
C1392 C1376 1.368 . S
C1392 C1388 1.368 1_565 S
C1392 C1391 1.523 . S
H1393 C1368 0.950 1_565 S
H1394 C1370 0.950 . S
H1395 C1371 0.949 . S
H1396 C1373 0.950 1_545 S
H1397 C1375 0.950 . S
C1398 C1399 1.349 . S
C1398 C1400 1.327 . S
C1398 H1423 0.950 . S
C1399 C1398 1.349 . S
C1399 C1415 1.349 . S
C1400 C1398 1.327 . S
C1400 C1419 1.429 . S
C1400 H1424 0.950 . S
C1401 C1418 1.574 . S
C1401 C1420 1.368 1_565 S
C1401 H1425 0.949 . S
H1402 C1406 0.949 . S
C1403 C1404 1.349 . S
C1403 C1405 1.327 . S
C1403 H1426 0.950 . S
C1404 C1403 1.349 . S
C1404 C1416 1.349 . S
C1405 C1403 1.327 . S
C1405 C1421 1.429 . S
C1405 H1427 0.950 . S
C1406 H1402 0.949 . S
C1406 C1414 1.574 . S
C1406 C1422 1.368 1_545 S
H1407 C1415 0.950 . S
H1408 C1413 0.950 . S
H1409 C1414 0.949 . S
H1410 C1416 0.950 . S
H1411 C1417 0.950 . S
H1412 C1418 0.949 . S
C1413 H1408 0.950 . S
C1413 C1415 1.327 . S
C1413 C1419 1.429 . S
C1414 C1406 1.574 . S
C1414 H1409 0.949 . S
C1414 C1420 1.368 . S
C1415 C1399 1.349 . S
C1415 H1407 0.950 . S
C1415 C1413 1.327 . S
C1416 C1404 1.349 . S
C1416 H1410 0.950 . S
C1416 C1417 1.327 . S
C1417 H1411 0.950 . S
C1417 C1416 1.327 . S
C1417 C1421 1.429 . S
C1418 C1401 1.574 . S
C1418 H1412 0.949 . S
C1418 C1422 1.368 . S
C1419 C1400 1.429 . S
C1419 C1413 1.429 . S
C1419 C1420 1.523 . S
C1420 C1401 1.368 1_545 S
C1420 C1414 1.368 . S
C1420 C1419 1.523 . S
C1421 C1405 1.429 . S
C1421 C1417 1.429 . S
C1421 C1422 1.523 . S
C1422 C1406 1.368 1_565 S
C1422 C1418 1.368 . S
C1422 C1421 1.523 . S
H1423 C1398 0.950 . S
H1424 C1400 0.950 . S
H1425 C1401 0.949 . S
H1426 C1403 0.950 . S
H1427 C1405 0.950 . S
C1428 C1429 1.349 . S
C1428 C1430 1.327 . S
C1428 H1453 0.950 . S
C1429 C1428 1.349 . S
C1429 C1445 1.349 . S
C1430 C1428 1.327 . S
C1430 C1449 1.429 . S
C1430 H1454 0.950 . S
C1431 C1448 1.574 . S
C1431 C1450 1.368 . S
C1431 H1455 0.949 . S
H1432 C1436 0.949 . S
C1433 C1434 1.349 . S
C1433 C1435 1.327 . S
C1433 H1456 0.950 . S
C1434 C1433 1.349 . S
C1434 C1446 1.349 . S
C1435 C1433 1.327 . S
C1435 C1451 1.429 . S
C1435 H1457 0.950 . S
C1436 H1432 0.949 . S
C1436 C1444 1.574 . S
C1436 C1452 1.368 . S
H1437 C1445 0.950 . S
H1438 C1443 0.950 . S
H1439 C1444 0.949 . S
H1440 C1446 0.950 . S
H1441 C1447 0.950 . S
H1442 C1448 0.949 . S
C1443 H1438 0.950 . S
C1443 C1445 1.327 . S
C1443 C1449 1.429 . S
C1444 C1436 1.574 . S
C1444 H1439 0.949 . S
C1444 C1450 1.368 . S
C1445 C1429 1.349 . S
C1445 H1437 0.950 . S
C1445 C1443 1.327 . S
C1446 C1434 1.349 . S
C1446 H1440 0.950 . S
C1446 C1447 1.327 . S
C1447 H1441 0.950 . S
C1447 C1446 1.327 . S
C1447 C1451 1.429 . S
C1448 C1431 1.574 . S
C1448 H1442 0.949 . S
C1448 C1452 1.368 . S
C1449 C1430 1.429 . S
C1449 C1443 1.429 . S
C1449 C1450 1.523 . S
C1450 C1431 1.368 . S
C1450 C1444 1.368 . S
C1450 C1449 1.523 . S
C1451 C1435 1.429 . S
C1451 C1447 1.429 . S
C1451 C1452 1.523 . S
C1452 C1436 1.368 . S
C1452 C1448 1.368 . S
C1452 C1451 1.523 . S
H1453 C1428 0.950 . S
H1454 C1430 0.950 . S
H1455 C1431 0.949 . S
H1456 C1433 0.950 . S
H1457 C1435 0.950 . S
C1458 C1459 1.349 . S
C1458 C1460 1.327 . S
C1458 H1483 0.950 . S
C1459 C1458 1.349 . S
C1459 C1475 1.349 . S
C1460 C1458 1.327 . S
C1460 C1479 1.429 . S
C1460 H1484 0.950 . S
C1461 C1478 1.574 . S
C1461 C1480 1.368 1_655 S
C1461 H1485 0.949 . S
H1462 C1466 0.949 . S
C1463 C1464 1.349 . S
C1463 C1465 1.327 . S
C1463 H1486 0.950 . S
C1464 C1463 1.349 . S
C1464 C1476 1.349 . S
C1465 C1463 1.327 . S
C1465 C1481 1.429 . S
C1465 H1487 0.950 . S
C1466 H1462 0.949 . S
C1466 C1474 1.574 . S
C1466 C1482 1.368 1_455 S
H1467 C1475 0.950 . S
H1468 C1473 0.968 . S
H1469 C1474 0.949 . S
H1470 C1476 0.950 . S
H1471 C1477 0.968 . S
H1472 C1478 0.949 . S
C1473 H1468 0.968 . S
C1473 C1475 1.327 . S
C1473 C1479 1.429 . S
C1474 C1466 1.574 . S
C1474 H1469 0.949 . S
C1474 C1480 1.368 . S
C1475 C1459 1.349 . S
C1475 H1467 0.950 . S
C1475 C1473 1.327 . S
C1476 C1464 1.349 . S
C1476 H1470 0.950 . S
C1476 C1477 1.327 . S
C1477 H1471 0.968 . S
C1477 C1476 1.327 . S
C1477 C1481 1.429 . S
C1478 C1461 1.574 . S
C1478 H1472 0.949 . S
C1478 C1482 1.368 . S
C1479 C1460 1.429 . S
C1479 C1473 1.429 . S
C1479 C1480 1.523 . S
C1480 C1461 1.368 1_455 S
C1480 C1474 1.368 . S
C1480 C1479 1.523 . S
C1481 C1465 1.429 . S
C1481 C1477 1.429 . S
C1481 C1482 1.523 . S
C1482 C1466 1.368 1_655 S
C1482 C1478 1.368 . S
C1482 C1481 1.523 . S
H1483 C1458 0.950 . S
H1484 C1460 0.950 . S
H1485 C1461 0.949 . S
H1486 C1463 0.950 . S
H1487 C1465 0.950 . S
C1488 C1489 1.349 . S
C1488 C1490 1.327 . S
C1488 H1513 0.950 . S
C1489 C1488 1.349 . S
C1489 C1505 1.349 . S
C1490 C1488 1.327 . S
C1490 C1509 1.429 . S
C1490 H1514 0.950 . S
C1491 C1508 1.574 . S
C1491 C1510 1.368 . S
C1491 H1515 0.949 . S
H1492 C1496 0.949 . S
C1493 C1494 1.349 . S
C1493 C1495 1.327 . S
C1493 H1516 0.950 . S
C1494 C1493 1.349 . S
C1494 C1506 1.349 . S
C1495 C1493 1.327 . S
C1495 C1511 1.429 . S
C1495 H1517 0.950 . S
C1496 H1492 0.949 . S
C1496 C1504 1.574 . S
C1496 C1512 1.368 . S
H1497 C1505 0.950 . S
H1498 C1503 0.950 . S
H1499 C1504 0.949 . S
H1500 C1506 0.950 . S
H1501 C1507 0.950 . S
H1502 C1508 0.949 . S
C1503 H1498 0.950 . S
C1503 C1505 1.327 . S
C1503 C1509 1.429 . S
C1504 C1496 1.574 . S
C1504 H1499 0.949 . S
C1504 C1510 1.368 . S
C1505 C1489 1.349 . S
C1505 H1497 0.950 . S
C1505 C1503 1.327 . S
C1506 C1494 1.349 . S
C1506 H1500 0.950 . S
C1506 C1507 1.327 . S
C1507 H1501 0.950 . S
C1507 C1506 1.327 . S
C1507 C1511 1.429 . S
C1508 C1491 1.574 . S
C1508 H1502 0.949 . S
C1508 C1512 1.368 . S
C1509 C1490 1.429 . S
C1509 C1503 1.429 . S
C1509 C1510 1.523 . S
C1510 C1491 1.368 . S
C1510 C1504 1.368 . S
C1510 C1509 1.523 . S
C1511 C1495 1.429 . S
C1511 C1507 1.429 . S
C1511 C1512 1.523 . S
C1512 C1496 1.368 . S
C1512 C1508 1.368 . S
C1512 C1511 1.523 . S
H1513 C1488 0.950 . S
H1514 C1490 0.950 . S
H1515 C1491 0.949 . S
H1516 C1493 0.950 . S
H1517 C1495 0.950 . S
C1518 C1519 1.349 . S
C1518 C1520 1.327 . S
C1518 H1543 0.950 . S
C1519 C1518 1.349 . S
C1519 C1535 1.349 . S
C1520 C1518 1.327 . S
C1520 C1539 1.429 . S
C1520 H1544 0.950 . S
C1521 C1538 1.574 . S
C1521 C1540 1.368 . S
C1521 H1545 0.949 . S
H1522 C1526 0.949 . S
C1523 C1524 1.349 . S
C1523 C1525 1.327 . S
C1523 H1546 0.950 . S
C1524 C1523 1.349 . S
C1524 C1536 1.349 . S
C1525 C1523 1.327 . S
C1525 C1541 1.429 . S
C1525 H1547 0.950 . S
C1526 H1522 0.949 . S
C1526 C1534 1.574 . S
C1526 C1542 1.368 . S
H1527 C1535 0.950 . S
H1528 C1533 0.950 . S
H1529 C1534 0.949 . S
H1530 C1536 0.950 . S
H1531 C1537 0.950 . S
H1532 C1538 0.949 . S
C1533 H1528 0.950 . S
C1533 C1535 1.327 . S
C1533 C1539 1.429 . S
C1534 C1526 1.574 . S
C1534 H1529 0.949 . S
C1534 C1540 1.368 . S
C1535 C1519 1.349 . S
C1535 H1527 0.950 . S
C1535 C1533 1.327 . S
C1536 C1524 1.349 . S
C1536 H1530 0.950 . S
C1536 C1537 1.327 . S
C1537 H1531 0.950 . S
C1537 C1536 1.327 . S
C1537 C1541 1.429 . S
C1538 C1521 1.574 . S
C1538 H1532 0.949 . S
C1538 C1542 1.368 . S
C1539 C1520 1.429 . S
C1539 C1533 1.429 . S
C1539 C1540 1.523 . S
C1540 C1521 1.368 . S
C1540 C1534 1.368 . S
C1540 C1539 1.523 . S
C1541 C1525 1.429 . S
C1541 C1537 1.429 . S
C1541 C1542 1.523 . S
C1542 C1526 1.368 . S
C1542 C1538 1.368 . S
C1542 C1541 1.523 . S
H1543 C1518 0.950 . S
H1544 C1520 0.950 . S
H1545 C1521 0.949 . S
H1546 C1523 0.950 . S
H1547 C1525 0.950 . S
C1548 C1549 1.349 . S
C1548 C1550 1.327 . S
C1548 H1573 0.950 . S
C1549 C1548 1.349 . S
C1549 C1565 1.349 . S
C1550 C1548 1.327 . S
C1550 C1569 1.429 . S
C1550 H1574 0.950 . S
C1551 C1568 1.574 . S
C1551 C1570 1.368 . S
C1551 H1575 0.949 . S
H1552 C1556 0.949 . S
C1553 C1554 1.349 . S
C1553 C1555 1.327 . S
C1553 H1576 0.950 . S
C1554 C1553 1.349 . S
C1554 C1566 1.349 . S
C1555 C1553 1.327 . S
C1555 C1571 1.429 . S
C1555 H1577 0.950 . S
C1556 H1552 0.949 . S
C1556 C1564 1.574 . S
C1556 C1572 1.368 . S
H1557 C1565 0.950 . S
H1558 C1563 0.950 . S
H1559 C1564 0.949 . S
H1560 C1566 0.950 . S
H1561 C1567 0.950 . S
H1562 C1568 0.949 . S
C1563 H1558 0.950 . S
C1563 C1565 1.327 . S
C1563 C1569 1.429 . S
C1564 C1556 1.574 . S
C1564 H1559 0.949 . S
C1564 C1570 1.368 . S
C1565 C1549 1.349 . S
C1565 H1557 0.950 . S
C1565 C1563 1.327 . S
C1566 C1554 1.349 . S
C1566 H1560 0.950 . S
C1566 C1567 1.327 . S
C1567 H1561 0.950 . S
C1567 C1566 1.327 . S
C1567 C1571 1.429 . S
C1568 C1551 1.574 . S
C1568 H1562 0.949 . S
C1568 C1572 1.368 . S
C1569 C1550 1.429 . S
C1569 C1563 1.429 . S
C1569 C1570 1.523 . S
C1570 C1551 1.368 . S
C1570 C1564 1.368 . S
C1570 C1569 1.523 . S
C1571 C1555 1.429 . S
C1571 C1567 1.429 . S
C1571 C1572 1.523 . S
C1572 C1556 1.368 . S
C1572 C1568 1.368 . S
C1572 C1571 1.523 . S
H1573 C1548 0.950 . S
H1574 C1550 0.950 . S
H1575 C1551 0.949 . S
H1576 C1553 0.950 . S
H1577 C1555 0.950 . S
C1578 C1579 1.349 . S
C1578 C1580 1.327 . S
C1578 H1603 0.950 . S
C1579 C1578 1.349 . S
C1579 C1595 1.349 . S
C1580 C1578 1.327 . S
C1580 C1599 1.429 . S
C1580 H1604 0.950 . S
C1581 C1598 1.574 . S
C1581 C1600 1.368 . S
C1581 H1605 0.949 . S
H1582 C1586 0.949 . S
C1583 C1584 1.349 . S
C1583 C1585 1.327 . S
C1583 H1606 0.950 . S
C1584 C1583 1.349 . S
C1584 C1596 1.349 . S
C1585 C1583 1.327 . S
C1585 C1601 1.429 . S
C1585 H1607 0.950 . S
C1586 H1582 0.949 . S
C1586 C1594 1.574 . S
C1586 C1602 1.368 . S
H1587 C1595 0.950 . S
H1588 C1593 0.950 . S
H1589 C1594 0.949 . S
H1590 C1596 0.950 . S
H1591 C1597 0.950 . S
H1592 C1598 0.949 . S
C1593 H1588 0.950 . S
C1593 C1595 1.327 . S
C1593 C1599 1.429 . S
C1594 C1586 1.574 . S
C1594 H1589 0.949 . S
C1594 C1600 1.368 . S
C1595 C1579 1.349 . S
C1595 H1587 0.950 . S
C1595 C1593 1.327 . S
C1596 C1584 1.349 . S
C1596 H1590 0.950 . S
C1596 C1597 1.327 . S
C1597 H1591 0.950 . S
C1597 C1596 1.327 . S
C1597 C1601 1.429 . S
C1598 C1581 1.574 . S
C1598 H1592 0.949 . S
C1598 C1602 1.368 . S
C1599 C1580 1.429 . S
C1599 C1593 1.429 . S
C1599 C1600 1.523 . S
C1600 C1581 1.368 . S
C1600 C1594 1.368 . S
C1600 C1599 1.523 . S
C1601 C1585 1.429 . S
C1601 C1597 1.429 . S
C1601 C1602 1.523 . S
C1602 C1586 1.368 . S
C1602 C1598 1.368 . S
C1602 C1601 1.523 . S
H1603 C1578 0.950 . S
H1604 C1580 0.950 . S
H1605 C1581 0.949 . S
H1606 C1583 0.950 . S
H1607 C1585 0.950 . S
C1608 C1609 1.349 . S
C1608 C1610 1.327 . S
C1608 H1633 0.950 . S
C1609 C1608 1.349 . S
C1609 C1625 1.349 . S
C1610 C1608 1.327 . S
C1610 C1629 1.429 . S
C1610 H1634 0.950 . S
C1611 C1628 1.574 . S
C1611 C1630 1.368 . S
C1611 H1635 0.949 . S
H1612 C1616 0.949 . S
C1613 C1614 1.349 . S
C1613 C1615 1.327 . S
C1613 H1636 0.950 . S
C1614 C1613 1.349 . S
C1614 C1626 1.349 . S
C1615 C1613 1.327 . S
C1615 C1631 1.429 . S
C1615 H1637 0.950 . S
C1616 H1612 0.949 . S
C1616 C1624 1.574 . S
C1616 C1632 1.368 . S
H1617 C1625 0.950 . S
H1618 C1623 0.950 . S
H1619 C1624 0.949 . S
H1620 C1626 0.950 . S
H1621 C1627 0.950 . S
H1622 C1628 0.949 . S
C1623 H1618 0.950 . S
C1623 C1625 1.327 . S
C1623 C1629 1.429 . S
C1624 C1616 1.574 . S
C1624 H1619 0.949 . S
C1624 C1630 1.368 . S
C1625 C1609 1.349 . S
C1625 H1617 0.950 . S
C1625 C1623 1.327 . S
C1626 C1614 1.349 . S
C1626 H1620 0.950 . S
C1626 C1627 1.327 . S
C1627 H1621 0.950 . S
C1627 C1626 1.327 . S
C1627 C1631 1.429 . S
C1628 C1611 1.574 . S
C1628 H1622 0.949 . S
C1628 C1632 1.368 . S
C1629 C1610 1.429 . S
C1629 C1623 1.429 . S
C1629 C1630 1.523 . S
C1630 C1611 1.368 . S
C1630 C1624 1.368 . S
C1630 C1629 1.523 . S
C1631 C1615 1.429 . S
C1631 C1627 1.429 . S
C1631 C1632 1.523 . S
C1632 C1616 1.368 . S
C1632 C1628 1.368 . S
C1632 C1631 1.523 . S
H1633 C1608 0.950 . S
H1634 C1610 0.950 . S
H1635 C1611 0.949 . S
H1636 C1613 0.950 . S
H1637 C1615 0.950 . S
C1638 C1639 1.349 . S
C1638 C1640 1.327 . S
C1638 H1663 0.950 . S
C1639 C1638 1.349 . S
C1639 C1655 1.349 . S
C1640 C1638 1.327 . S
C1640 C1659 1.429 . S
C1640 H1664 0.950 . S
C1641 C1658 1.574 . S
C1641 C1660 1.368 . S
C1641 H1665 0.949 . S
H1642 C1646 0.949 . S
C1643 C1644 1.349 . S
C1643 C1645 1.327 . S
C1643 H1666 0.950 . S
C1644 C1643 1.349 . S
C1644 C1656 1.349 . S
C1645 C1643 1.327 . S
C1645 C1661 1.429 . S
C1645 H1667 0.950 . S
C1646 H1642 0.949 . S
C1646 C1654 1.574 . S
C1646 C1662 1.368 . S
H1647 C1655 0.950 . S
H1648 C1653 0.950 . S
H1649 C1654 0.949 . S
H1650 C1656 0.950 . S
H1651 C1657 0.950 . S
H1652 C1658 0.949 . S
C1653 H1648 0.950 . S
C1653 C1655 1.327 . S
C1653 C1659 1.429 . S
C1654 C1646 1.574 . S
C1654 H1649 0.949 . S
C1654 C1660 1.368 . S
C1655 C1639 1.349 . S
C1655 H1647 0.950 . S
C1655 C1653 1.327 . S
C1656 C1644 1.349 . S
C1656 H1650 0.950 . S
C1656 C1657 1.327 . S
C1657 H1651 0.950 . S
C1657 C1656 1.327 . S
C1657 C1661 1.429 . S
C1658 C1641 1.574 . S
C1658 H1652 0.949 . S
C1658 C1662 1.368 . S
C1659 C1640 1.429 . S
C1659 C1653 1.429 . S
C1659 C1660 1.523 . S
C1660 C1641 1.368 . S
C1660 C1654 1.368 . S
C1660 C1659 1.523 . S
C1661 C1645 1.429 . S
C1661 C1657 1.429 . S
C1661 C1662 1.523 . S
C1662 C1646 1.368 . S
C1662 C1658 1.368 . S
C1662 C1661 1.523 . S
H1663 C1638 0.950 . S
H1664 C1640 0.950 . S
H1665 C1641 0.949 . S
H1666 C1643 0.950 . S
H1667 C1645 0.950 . S
C1668 C1669 1.349 . S
C1668 C1670 1.327 . S
C1668 H1693 0.950 . S
C1669 C1668 1.349 . S
C1669 C1685 1.349 . S
C1670 C1668 1.327 . S
C1670 C1689 1.429 . S
C1670 H1694 0.950 . S
C1671 C1688 1.574 . S
C1671 C1690 1.368 . S
C1671 H1695 0.949 . S
H1672 C1676 0.949 . S
C1673 C1674 1.349 . S
C1673 C1675 1.327 . S
C1673 H1696 0.950 . S
C1674 C1673 1.349 . S
C1674 C1686 1.349 . S
C1675 C1673 1.327 . S
C1675 C1691 1.429 . S
C1675 H1697 0.950 . S
C1676 H1672 0.949 . S
C1676 C1684 1.574 . S
C1676 C1692 1.368 . S
H1677 C1685 0.950 . S
H1678 C1683 0.950 . S
H1679 C1684 0.949 . S
H1680 C1686 0.950 . S
H1681 C1687 0.950 . S
H1682 C1688 0.949 . S
C1683 H1678 0.950 . S
C1683 C1685 1.327 . S
C1683 C1689 1.429 . S
C1684 C1676 1.574 . S
C1684 H1679 0.949 . S
C1684 C1690 1.368 . S
C1685 C1669 1.349 . S
C1685 H1677 0.950 . S
C1685 C1683 1.327 . S
C1686 C1674 1.349 . S
C1686 H1680 0.950 . S
C1686 C1687 1.327 . S
C1687 H1681 0.950 . S
C1687 C1686 1.327 . S
C1687 C1691 1.429 . S
C1688 C1671 1.574 . S
C1688 H1682 0.949 . S
C1688 C1692 1.368 . S
C1689 C1670 1.429 . S
C1689 C1683 1.429 . S
C1689 C1690 1.523 . S
C1690 C1671 1.368 . S
C1690 C1684 1.368 . S
C1690 C1689 1.523 . S
C1691 C1675 1.429 . S
C1691 C1687 1.429 . S
C1691 C1692 1.523 . S
C1692 C1676 1.368 . S
C1692 C1688 1.368 . S
C1692 C1691 1.523 . S
H1693 C1668 0.950 . S
H1694 C1670 0.950 . S
H1695 C1671 0.949 . S
H1696 C1673 0.950 . S
H1697 C1675 0.950 . S
C1698 C1699 1.349 . S
C1698 C1700 1.327 . S
C1698 H1723 0.950 . S
C1699 C1698 1.349 . S
C1699 C1715 1.349 . S
C1700 C1698 1.327 . S
C1700 C1719 1.429 . S
C1700 H1724 0.950 . S
C1701 C1718 1.574 . S
C1701 C1720 1.368 . S
C1701 H1725 0.949 . S
H1702 C1706 0.949 . S
C1703 C1704 1.349 . S
C1703 C1705 1.327 . S
C1703 H1726 0.950 . S
C1704 C1703 1.349 . S
C1704 C1716 1.349 . S
C1705 C1703 1.327 . S
C1705 C1721 1.429 . S
C1705 H1727 0.950 . S
C1706 H1702 0.949 . S
C1706 C1714 1.574 . S
C1706 C1722 1.368 . S
H1707 C1715 0.950 . S
H1708 C1713 0.950 . S
H1709 C1714 0.949 . S
H1710 C1716 0.950 . S
H1711 C1717 0.950 . S
H1712 C1718 0.949 . S
C1713 H1708 0.950 . S
C1713 C1715 1.327 . S
C1713 C1719 1.429 . S
C1714 C1706 1.574 . S
C1714 H1709 0.949 . S
C1714 C1720 1.368 . S
C1715 C1699 1.349 . S
C1715 H1707 0.950 . S
C1715 C1713 1.327 . S
C1716 C1704 1.349 . S
C1716 H1710 0.950 . S
C1716 C1717 1.327 . S
C1717 H1711 0.950 . S
C1717 C1716 1.327 . S
C1717 C1721 1.429 . S
C1718 C1701 1.574 . S
C1718 H1712 0.949 . S
C1718 C1722 1.368 . S
C1719 C1700 1.429 . S
C1719 C1713 1.429 . S
C1719 C1720 1.523 . S
C1720 C1701 1.368 . S
C1720 C1714 1.368 . S
C1720 C1719 1.523 . S
C1721 C1705 1.429 . S
C1721 C1717 1.429 . S
C1721 C1722 1.523 . S
C1722 C1706 1.368 . S
C1722 C1718 1.368 . S
C1722 C1721 1.523 . S
H1723 C1698 0.950 . S
H1724 C1700 0.950 . S
H1725 C1701 0.949 . S
H1726 C1703 0.950 . S
H1727 C1705 0.950 . S
C529 N14 0.737 . S
C534 C50 0.737 . S
C559 C83 0.737 . S
C564 N47 0.737 . S
C589 C116 0.737 1_655 S
C594 N80 0.737 . S
C619 N113 0.737 . S
C624 C17 0.737 1_565 S
C649 C248 0.737 1_455 S
C654 N146 0.737 . S
C679 C149 0.737 1_545 S
C684 N179 0.737 . S
C709 C182 0.737 . S
C714 N212 0.737 . S
C739 N245 0.737 . S
C744 C215 0.737 . S
C769 N278 0.737 . S
C774 C314 0.737 . S
C799 N311 0.737 . S
C804 C347 0.737 . S
C829 C380 0.737 1_455 S
C834 N344 0.737 . S
C859 C281 0.737 1_545 S
C864 N377 0.737 . S
C889 C512 0.737 1_655 S
C894 N410 0.737 . S
C919 C413 0.737 1_565 S
C924 N443 0.737 . S
C949 N476 0.737 . S
C954 C446 0.737 . S
C979 N509 0.737 . S
C984 C479 0.737 . S
C1009 N5 1.959 . S
C1014 N71 1.959 . S
C1039 N38 1.959 . S
C1044 N104 1.959 . S
C1069 N203 1.959 . S
C1074 N137 1.959 . S
C1099 N236 1.959 . S
C1104 N170 1.959 . S
C1129 N335 1.959 . S
C1134 N269 1.959 . S
C1159 N302 1.959 . S
C1164 N368 1.959 . S
C1189 N401 1.959 . S
C1194 N467 1.959 . S
C1219 N434 1.959 . S
C1224 N500 1.959 . S
C1249 C8 1.774 . S
C1254 C272 1.774 . S
C1279 C41 1.774 . S
C1284 C305 1.774 . S
C1309 C74 1.774 . S
C1314 C338 1.774 . S
C1339 C371 1.774 . S
C1344 C107 1.774 . S
C1369 C404 1.774 . S
C1374 C140 1.774 . S
C1399 C173 1.774 . S
C1404 C437 1.774 . S
C1429 C206 1.774 . S
C1434 C470 1.774 . S
C1459 C503 1.774 . S
C1464 C239 1.774 . S
C1489 C193 1.590 . S
C1494 C28 1.590 . S
C1519 C226 1.590 . S
C1524 C61 1.590 . S
C1549 C94 1.590 . S
C1554 C259 1.590 . S
C1579 C160 1.590 . S
C1584 C127 1.590 . S
C1609 C292 1.590 . S
C1614 C457 1.590 . S
C1639 C490 1.590 . S
C1644 C325 1.590 . S
C1669 C523 1.590 . S
C1674 C358 1.590 . S
C1699 C391 1.590 . S
C1704 C424 1.590 . S
