# Generated by pormake.
# Topology uom, (4)-cn, num edge types: 1
# Building blocks:
#     Node 0, Type 0, BuildingBlock: MUDLON_clean_sbu_0, # of connection points: 4
#     Node 1, Type 0, BuildingBlock: MUDLON_clean_sbu_0, # of connection points: 4
#     Node 2, Type 0, BuildingBlock: MUDLON_clean_sbu_0, # of connection points: 4
#     Node 3, Type 0, BuildingBlock: MUDLON_clean_sbu_0, # of connection points: 4
#     Node 4, Type 0, BuildingBlock: MUDLON_clean_sbu_0, # of connection points: 4
#     Node 5, Type 0, BuildingBlock: MUDLON_clean_sbu_0, # of connection points: 4
#     Edge 6, Type (0, 0), BuildingBlock: TEMPAE_clean_linker_10, # of connection points: 2
#     Edge 7, Type (0, 0), BuildingBlock: TEMPAE_clean_linker_10, # of connection points: 2
#     Edge 8, Type (0, 0), BuildingBlock: TEMPAE_clean_linker_10, # of connection points: 2
#     Edge 9, Type (0, 0), BuildingBlock: TEMPAE_clean_linker_10, # of connection points: 2
#     Edge 10, Type (0, 0), BuildingBlock: TEMPAE_clean_linker_10, # of connection points: 2
#     Edge 11, Type (0, 0), BuildingBlock: TEMPAE_clean_linker_10, # of connection points: 2
#     Edge 12, Type (0, 0), BuildingBlock: TEMPAE_clean_linker_10, # of connection points: 2
#     Edge 13, Type (0, 0), BuildingBlock: TEMPAE_clean_linker_10, # of connection points: 2
#     Edge 14, Type (0, 0), BuildingBlock: TEMPAE_clean_linker_10, # of connection points: 2
#     Edge 15, Type (0, 0), BuildingBlock: TEMPAE_clean_linker_10, # of connection points: 2
#     Edge 16, Type (0, 0), BuildingBlock: TEMPAE_clean_linker_10, # of connection points: 2
#     Edge 17, Type (0, 0), BuildingBlock: TEMPAE_clean_linker_10, # of connection points: 2
# Relax obj value: 0.094
# Max RMSD: 0.085
# Mean RMSD: 0.085
data_MOF--net-uom--node1-MUDLON_clean_sbu_0--edge1-TEMPAE_clean_linker_10
_symmetry_space_group_name_H-M    P1
_symmetry_Int_Tables_number       1
_symmetry_cell_setting            triclinic
loop_
_symmetry_equiv_pos_as_xyz
'x, y, z'
_cell_length_a     29.977573
_cell_length_b     29.916097
_cell_length_c     39.458595
_cell_angle_alpha  90.28302
_cell_angle_beta   89.679625
_cell_angle_gamma 118.83299
loop_
_atom_site_label
_atom_site_type_symbol
_atom_site_fract_x
_atom_site_fract_y
_atom_site_fract_z
_atom_type_partial_charge
Mg0 Mg 0.25354 0.99517 0.08997 0.0
C1 C 0.28728 0.00665 0.16471 0.0
O2 O 0.32096 0.99485 0.15216 0.0
C3 C 0.20505 0.92497 1.0344 0.0
O4 O 0.24694 0.96295 1.02206 0.0
C5 C 0.3692 0.05291 0.08408 0.0
O6 O 0.36313 0.08459 0.10433 0.0
O7 O 0.32999 0.01352 0.07324 0.0
O8 O 0.25273 0.00515 0.14529 0.0
O9 O 0.22501 0.04194 0.06705 0.0
C10 C 0.20613 0.06349 0.08556 0.0
O11 O 0.21759 0.07003 0.11793 0.0
O12 O 0.19752 0.92376 0.0663 0.0
Mg13 Mg 0.32774 0.26381 0.43319 0.0
C14 C 0.34336 0.29984 0.50733 0.0
O15 O 0.37103 0.34431 0.49285 0.0
C16 C 0.35677 0.22824 0.37133 0.0
O17 O 0.35745 0.27065 0.36197 0.0
C18 C 0.42124 0.36256 0.42469 0.0
O19 O 0.43718 0.33301 0.43864 0.0
O20 O 0.37405 0.34361 0.41792 0.0
O21 O 0.32471 0.2596 0.48906 0.0
O22 O 0.247 0.224 0.42124 0.0
C23 C 0.23053 0.17742 0.42932 0.0
O24 O 0.26278 0.16456 0.4427 0.0
O25 O 0.35052 0.21653 0.40267 0.0
Mg26 Mg 0.09533 0.3263 0.75906 0.0
C27 C 0.087 0.27864 0.82939 0.0
O28 O 0.08883 0.24267 0.8112 0.0
C29 C 0.18303 0.31771 0.72819 0.0
O30 O 0.1624 0.27629 0.74688 0.0
C31 C 0.08763 0.41682 0.7298 0.0
O32 O 0.13174 0.42693 0.71644 0.0
O33 O 0.06344 0.37647 0.74735 0.0
O34 O 0.09361 0.31922 0.81466 0.0
O35 O 0.05241 0.25041 0.73795 0.0
C36 C 0.01493 0.21236 0.75151 0.0
O37 O 0.99239 0.21967 0.77797 0.0
O38 O 0.16674 0.3498 0.7314 0.0
Mg39 Mg 0.81491 0.09074 0.08803 0.0
C40 C 0.78563 0.08167 0.1628 0.0
O41 O 0.74536 0.0813 0.14953 0.0
C42 C 0.91289 0.16981 0.05689 0.0
O43 O 0.93002 0.14702 0.07733 0.0
C44 C 0.72334 0.09663 0.05992 0.0
O45 O 0.75949 0.13827 0.04601 0.0
O46 O 0.7356 0.06835 0.07711 0.0
O47 O 0.82277 0.08921 0.14339 0.0
O48 O 0.84106 0.04077 0.06637 0.0
C49 C 0.8589 0.01921 0.08547 0.0
O50 O 0.84743 0.01472 0.1179 0.0
O51 O 0.86643 0.15929 0.0596 0.0
Mg52 Mg 0.7543 0.84039 0.43475 0.0
C53 C 0.72902 0.80292 0.50843 0.0
O54 O 0.70478 0.75845 0.49324 0.0
C55 C 0.76193 0.93235 0.39582 0.0
O56 O 0.80015 0.95735 0.41662 0.0
C57 C 0.66123 0.74207 0.42343 0.0
O58 O 0.64408 0.77234 0.43479 0.0
O59 O 0.70909 0.76045 0.41939 0.0
O60 O 0.74838 0.84342 0.49054 0.0
O61 O 0.83624 0.87575 0.42573 0.0
C62 C 0.86253 0.91127 0.44666 0.0
O63 O 0.83909 0.91954 0.47214 0.0
O64 O 0.73293 0.88471 0.40049 0.0
Mg65 Mg 0.95979 0.77025 0.76389 0.0
C66 C 0.9744 0.75318 0.83817 0.0
O67 O 0.97824 0.715 0.82457 0.0
C68 C 0.87275 0.77907 0.73301 0.0
O69 O 0.89202 0.81955 0.75272 0.0
C70 C 0.97061 0.68243 0.73206 0.0
O71 O 0.92805 0.67364 0.71716 0.0
O72 O 0.99284 0.7211 0.75143 0.0
O73 O 0.96163 0.77956 0.81928 0.0
O74 O 1.00211 0.84672 0.7437 0.0
C75 C 0.02393 0.88495 0.76335 0.0
O76 O 0.03123 0.87748 0.79515 0.0
O77 O 0.88913 0.74705 0.73584 0.0
C78 C 0.33766 0.03881 0.21848 0.0
C79 C 0.29464 0.02948 0.19929 0.0
C80 C 0.3491 0.06665 0.24901 0.0
C81 C 0.31671 0.08559 0.26087 0.0
C82 C 0.27183 0.07402 0.24255 0.0
C83 C 0.26141 0.04627 0.21202 0.0
C84 C 0.3973 0.07802 0.26764 0.0
C85 C 0.23596 0.09304 0.25437 0.0
C86 C 0.32757 0.13856 0.3507 0.0
C87 C 0.35352 0.19135 0.34477 0.0
C88 C 0.31646 0.10346 0.32386 0.0
C89 C 0.33209 0.12159 0.2904 0.0
C90 C 0.3606 0.17484 0.28469 0.0
C91 C 0.37068 0.20892 0.31183 0.0
C92 C 0.28589 0.04708 0.33107 0.0
C93 C 0.37873 0.19601 0.24961 0.0
H94 H 0.36363 0.02603 0.20902 0.0
H95 H 0.22799 0.0392 0.19756 0.0
H96 H 0.42483 0.11934 0.2657 0.0
H97 H 0.38922 0.06898 0.29496 0.0
H98 H 0.41553 0.05617 0.25723 0.0
H99 H 0.20047 0.07689 0.23916 0.0
H100 H 0.22567 0.08314 0.28139 0.0
H101 H 0.25514 0.13525 0.25239 0.0
H102 H 0.31366 0.12464 0.37599 0.0
H103 H 0.39087 0.24963 0.30703 0.0
H104 H 0.3047 0.02643 0.31973 0.0
H105 H 0.24777 0.03163 0.31925 0.0
H106 H 0.28073 0.03894 0.35868 0.0
H107 H 0.40051 0.17849 0.23812 0.0
H108 H 0.40324 0.23813 0.24976 0.0
H109 H 0.34546 0.18636 0.23308 0.0
C110 C 0.3567 0.33824 0.56539 0.0
C111 C 0.32673 0.29841 0.54305 0.0
C112 C 0.3384 0.34201 0.59761 0.0
C113 C 0.28826 0.30594 0.60743 0.0
C114 C 0.25846 0.26463 0.58541 0.0
C115 C 0.27829 0.26101 0.55369 0.0
C116 C 0.3721 0.38568 0.62063 0.0
C117 C 0.20453 0.22575 0.59455 0.0
C118 C 0.24167 0.29187 0.699 0.0
C119 C 0.21609 0.32073 0.69907 0.0
C120 C 0.26709 0.28836 0.66983 0.0
C121 C 0.26576 0.31311 0.63964 0.0
C122 C 0.24109 0.34337 0.63984 0.0
C123 C 0.21716 0.34733 0.66963 0.0
C124 C 0.29417 0.25698 0.67108 0.0
C125 C 0.23794 0.36975 0.60813 0.0
H126 H 0.39424 0.3672 0.55737 0.0
H127 H 0.25467 0.23045 0.53644 0.0
H128 H 0.35673 0.41268 0.62295 0.0
H129 H 0.37261 0.37138 0.64645 0.0
H130 H 0.41183 0.40693 0.61101 0.0
H131 H 0.18713 0.19476 0.57539 0.0
H132 H 0.20355 0.20848 0.61953 0.0
H133 H 0.18079 0.24486 0.59673 0.0
H134 H 0.24104 0.2712 0.72164 0.0
H135 H 0.197 0.3692 0.66929 0.0
H136 H 0.33342 0.2792 0.66087 0.0
H137 H 0.2739 0.22255 0.65494 0.0
H138 H 0.29623 0.24457 0.69725 0.0
H139 H 0.27668 0.39545 0.59821 0.0
H140 H 0.21813 0.3925 0.61258 0.0
H141 H 0.21719 0.34093 0.58817 0.0
C142 C 0.92032 0.2056 0.99833 0.0
C143 C 0.94358 0.19714 1.02654 0.0
C144 C 0.94664 0.22295 0.96739 0.0
C145 C 0.99782 0.23295 0.9646 0.0
C146 C 0.02234 0.22713 0.99352 0.0
C147 C 0.99488 0.20898 1.02398 0.0
C148 C 0.91866 0.22772 0.93711 0.0
C149 C 0.07699 0.23802 0.99196 0.0
C150 C 0.04387 0.21786 0.87719 0.0
C151 C 0.06871 0.26822 0.86516 0.0
C152 C 0.02111 0.20604 0.90949 0.0
C153 C 0.02418 0.24565 0.93085 0.0
C154 C 0.05089 0.29684 0.91939 0.0
C155 C 0.07231 0.30746 0.88656 0.0
C156 C 0.99284 0.15089 0.92042 0.0
C157 C 0.05613 0.3403 0.94161 0.0
H158 H 0.88064 0.19622 0.99985 0.0
H159 H 0.01328 0.20254 0.04555 0.0
H160 H 0.94052 0.26605 0.92555 0.0
H161 H 0.91487 0.19929 0.91757 0.0
H162 H 0.88001 0.2214 0.94383 0.0
H163 H 0.09245 0.23808 1.0175 0.0
H164 H 0.07963 0.2085 0.97629 0.0
H165 H 0.10131 0.27548 0.97979 0.0
H166 H 0.04056 0.18716 0.86087 0.0
H167 H 0.09151 0.34649 0.87756 0.0
H168 H 0.95375 0.1407 0.92897 0.0
H169 H 0.01272 0.14507 0.94216 0.0
H170 H 0.99014 0.12432 0.89977 0.0
H171 H 0.01807 0.33674 0.94643 0.0
H172 H 0.08093 0.37812 0.92996 0.0
H173 H 0.07223 0.33869 0.96655 0.0
C174 C 0.74571 0.06339 0.22069 0.0
C175 C 0.78431 0.06654 0.19887 0.0
C176 C 0.74045 0.04418 0.25381 0.0
C177 C 0.77422 0.02705 0.26543 0.0
C178 C 0.81403 0.03125 0.24381 0.0
C179 C 0.81878 0.0512 0.21092 0.0
C180 C 0.69801 0.04118 0.27611 0.0
C181 C 0.85072 0.01319 0.25506 0.0
C182 C 0.7893 0.01021 0.35973 0.0
C183 C 0.75938 0.95721 0.36379 0.0
C184 C 0.79322 0.03364 0.32819 0.0
C185 C 0.76713 1.00338 0.29977 0.0
C186 C 0.73551 0.95008 0.30395 0.0
C187 C 0.73175 0.92772 0.3359 0.0
C188 C 0.82658 0.09064 0.32507 0.0
C189 C 0.70719 0.9163 0.27433 0.0
H190 H 0.71894 0.07525 0.21171 0.0
H191 H 0.84853 0.05314 0.19425 0.0
H192 H 0.67074 1.00069 0.28175 0.0
H193 H 0.71354 0.06055 0.30067 0.0
H194 H 0.67687 0.05885 0.2641 0.0
H195 H 0.88031 0.02017 0.23562 0.0
H196 H 0.86985 0.03283 0.27884 0.0
H197 H 0.82955 0.9717 0.26052 0.0
H198 H 0.81073 0.03341 0.38109 0.0
H199 H 0.70881 0.88675 0.33862 0.0
H200 H 0.80505 0.10799 0.31328 0.0
H201 H 0.85948 0.099 0.30828 0.0
H202 H 0.84127 0.10925 0.35 0.0
H203 H 0.68299 0.93029 0.26217 0.0
H204 H 0.6827 0.87594 0.28197 0.0
H205 H 0.73482 0.91774 0.25495 0.0
C206 C 0.81721 0.80727 0.70272 0.0
C207 C 0.84179 0.77747 0.70322 0.0
C208 C 0.79393 0.81204 0.67306 0.0
C209 C 0.79648 0.7876 0.64284 0.0
C210 C 0.8202 0.75648 0.64343 0.0
C211 C 0.84195 0.75129 0.67366 0.0
C212 C 0.76784 0.84438 0.67388 0.0
C213 C 0.82467 0.73045 0.61171 0.0
C214 C 0.71069 0.76458 0.56646 0.0
C215 C 0.74254 0.8044 0.54474 0.0
C216 C 0.72656 0.76036 0.59923 0.0
C217 C 0.77618 0.79585 0.61022 0.0
C218 C 0.80779 0.83726 0.58885 0.0
C219 C 0.79032 0.84141 0.55657 0.0
C220 C 0.69093 0.7167 0.62155 0.0
C221 C 0.86129 0.87548 0.5992 0.0
H222 H 0.81696 0.82771 0.72542 0.0
H223 H 0.86138 0.72871 0.67363 0.0
H224 H 0.78994 0.87931 0.65857 0.0
H225 H 0.72935 0.82327 0.66251 0.0
H226 H 0.7641 0.85601 0.70007 0.0
H227 H 0.84379 0.70719 0.61642 0.0
H228 H 0.78639 0.70528 0.60105 0.0
H229 H 0.84672 0.75951 0.5922 0.0
H230 H 0.67369 0.7359 0.55748 0.0
H231 H 0.81541 0.8719 0.53978 0.0
H232 H 0.68933 0.7308 0.64736 0.0
H233 H 0.7053 0.68896 0.62413 0.0
H234 H 0.65172 0.69634 0.61112 0.0
H235 H 0.86104 0.89232 0.62425 0.0
H236 H 0.88011 0.90684 0.5805 0.0
H237 H 0.88449 0.85589 0.60177 0.0
C238 C 0.11342 0.865 1.01926 0.0
C239 C 0.16525 0.89007 1.01041 0.0
C240 C 0.07557 0.83842 0.99469 0.0
C241 C 0.08995 0.83687 0.96056 0.0
C242 C 0.14232 0.86061 0.95192 0.0
C243 C 0.1791 0.8868 0.97684 0.0
C244 C 0.02026 0.81377 1.00502 0.0
C245 C 0.15964 0.85983 0.91598 0.0
C246 C 1.00765 0.74109 0.89364 0.0
C247 C 0.99467 0.77107 0.8729 0.0
C248 C 0.03539 0.76077 0.92373 0.0
C249 C 0.05105 0.81189 0.93329 0.0
C250 C 0.03501 0.84117 0.91372 0.0
C251 C 1.00688 0.82038 0.88386 0.0
C252 C 0.0508 0.72786 0.94408 0.0
C253 C 0.05061 0.89576 0.92301 0.0
H254 H 0.10233 0.86789 1.04503 0.0
H255 H 0.21903 0.90595 0.96976 0.0
H256 H 0.9991 0.77447 0.99463 0.0
H257 H 0.01544 0.81219 1.033 0.0
H258 H 1.00272 0.83591 0.99444 0.0
H259 H 0.20178 0.879 0.9136 0.0
H260 H 0.1439 0.8199 0.90695 0.0
H261 H 0.14507 0.87924 0.89896 0.0
H262 H 0.99799 0.70276 0.88566 0.0
H263 H 0.99697 0.84389 0.86816 0.0
H264 H 0.04391 0.73047 0.97149 0.0
H265 H 0.09218 0.7417 0.94068 0.0
H266 H 0.02985 0.68718 0.93616 0.0
H267 H 0.04283 0.89872 0.9502 0.0
H268 H 0.03048 0.91145 0.9076 0.0
H269 H 0.0922 0.91982 0.91893 0.0
C270 C 0.1421 0.0936 0.09174 0.0
C271 C 0.15974 0.06451 0.07403 0.0
C272 C 0.09262 0.08598 0.08669 0.0
C273 C 0.05966 0.04753 0.06392 0.0
C274 C 0.07847 0.02058 1.04417 0.0
C275 C 0.12853 0.02975 0.04924 0.0
C276 C 0.07447 0.11658 0.10758 0.0
C277 C 0.04464 0.97906 1.0198 0.0
C278 C 0.92295 0.98972 0.09392 0.0
C279 C 0.90463 0.01621 0.07429 0.0
C280 C 0.97227 0.99668 0.08893 0.0
C281 C 1.00438 0.0318 0.06416 0.0
C282 C 0.98482 0.05581 1.0426 0.0
C283 C 0.93485 0.04712 0.04759 0.0
C284 C 0.99123 0.96925 0.11189 0.0
C285 C 0.01783 0.0938 1.01611 0.0
H286 H 0.16617 0.12065 0.11076 0.0
H287 H 0.14173 0.00679 1.03555 0.0
H288 H 0.05481 0.13176 0.0913 0.0
H289 H 0.04662 0.09152 0.12683 0.0
H290 H 0.10628 0.14901 0.12088 0.0
H291 H 0.06696 0.96805 1.00235 0.0
H292 H 0.01796 0.94476 1.03435 0.0
H293 H 0.02142 0.99122 1.00455 0.0
H294 H 0.89965 0.96549 0.11437 0.0
H295 H 0.92102 0.06776 1.03221 0.0
H296 H 0.0197 0.99698 0.12976 0.0
H297 H 0.01039 0.9519 0.09687 0.0
H298 H 0.95993 0.9388 0.12687 0.0
H299 H 0.04713 0.12884 1.02876 0.0
H300 H 0.99535 0.10468 0.99902 0.0
H301 H 0.03811 0.07813 1.00065 0.0
C302 C 0.94011 0.95101 0.40914 0.0
C303 C 0.91707 0.94749 0.44077 0.0
C304 C 0.99073 0.98876 0.40304 0.0
C305 C 0.01879 0.02336 0.42926 0.0
C306 C 0.99575 0.01952 0.46127 0.0
C307 C 0.94529 0.98175 0.46659 0.0
C308 C 0.01414 0.99181 0.36859 0.0
C309 C 0.02449 0.05519 0.49008 0.0
C310 C 0.16236 0.08704 0.43346 0.0
C311 C 0.17656 0.13787 0.42543 0.0
C312 C 0.11133 0.04896 0.43313 0.0
C313 C 0.07326 0.06177 0.42436 0.0
C314 C 0.08736 0.11244 0.41455 0.0
C315 C 0.13899 0.15006 0.41527 0.0
C316 C 0.09803 0.99555 0.44394 0.0
C317 C 0.04774 0.12734 0.40475 0.0
H318 H 0.91833 0.92499 0.38898 0.0
H319 H 0.92782 0.97927 0.49114 0.0
H320 H 0.02783 0.0304 0.35772 0.0
H321 H 0.04771 0.98577 0.37098 0.0
H322 H 0.98682 0.96305 0.35063 0.0
H323 H 1.00062 0.04783 0.51318 0.0
H324 H 0.05821 0.05097 0.49664 0.0
H325 H 0.03861 0.09537 0.48225 0.0
H326 H 0.1911 0.07698 0.44097 0.0
H327 H 0.14971 0.18914 0.4088 0.0
H328 H 0.07261 0.96722 0.42508 0.0
H329 H 0.07713 0.98658 0.46842 0.0
H330 H 0.13233 0.99084 0.44711 0.0
H331 H 0.02104 0.09999 0.38592 0.0
H332 H 0.06508 0.16642 0.39398 0.0
H333 H 0.02501 0.12588 0.42742 0.0
C334 C 0.97353 0.1184 0.76271 0.0
C335 C 1.0077 0.16073 0.74371 0.0
C336 C 0.97456 0.072 0.76084 0.0
C337 C 0.01091 0.06808 0.73971 0.0
C338 C 0.04289 0.10943 0.71862 0.0
C339 C 0.04063 0.1551 0.72068 0.0
C340 C 0.93905 0.02833 0.78322 0.0
C341 C 0.08222 0.10689 0.69578 0.0
C342 C 0.05581 0.97791 0.77308 0.0
C343 C 0.02761 0.93423 0.75334 0.0
C344 C 0.05232 0.02247 0.76783 0.0
C345 C 0.01916 0.02304 0.74257 0.0
C346 C 0.99231 0.97982 0.72153 0.0
C347 C 0.99724 0.93606 0.72696 0.0
C348 C 0.08245 0.06821 0.79034 0.0
C349 C 0.95618 0.97868 0.69459 0.0
H350 H 0.94774 0.12221 0.78038 0.0
H351 H 0.06703 0.18742 0.70565 0.0
H352 H 0.92056 0.99222 0.76851 0.0
H353 H 0.96114 0.02315 0.80385 0.0
H354 H 0.90898 0.03509 0.79486 0.0
H355 H 0.09961 0.13963 0.67798 0.0
H356 H 0.11295 0.1072 0.7115 0.0
H357 H 0.0651 0.07093 0.68091 0.0
H358 H 0.0794 0.97675 0.79342 0.0
H359 H 0.97495 0.9023 0.71173 0.0
H360 H 0.05605 0.07517 0.80656 0.0
H361 H 0.10444 0.10286 0.77473 0.0
H362 H 0.10931 0.06294 0.80699 0.0
H363 H 0.92301 0.9792 0.70684 0.0
H364 H 0.94193 0.94413 0.6783 0.0
H365 H 0.97503 0.01302 0.6783 0.0
C366 C 0.633 0.04936 0.08054 0.0
C367 C 0.66962 0.08614 0.05903 0.0
C368 C 0.58337 0.04277 0.08257 0.0
C369 C 0.56978 0.07331 0.06236 0.0
C370 C 0.60595 0.10908 1.03962 0.0
C371 C 0.65548 0.11524 1.03835 0.0
C372 C 0.54604 0.0044 0.10729 0.0
C373 C 0.59279 0.14192 1.01735 0.0
C374 C 0.42827 0.02966 0.05271 0.0
C375 C 0.42094 0.0602 0.07682 0.0
C376 C 0.47669 0.03424 0.04716 0.0
C377 C 0.51867 0.06977 0.06646 0.0
C378 C 0.51161 0.10119 0.09047 0.0
C379 C 0.46296 0.09623 0.09521 0.0
C380 C 0.48277 1.00052 1.02103 0.0
C381 C 0.55527 0.13928 0.11175 0.0
H382 H 0.64353 0.02676 0.09668 0.0
H383 H 0.68341 0.14358 1.02153 0.0
H384 H 0.53573 0.02446 0.12699 0.0
H385 H 0.51044 0.97766 0.09405 0.0
H386 H 0.56172 0.98195 0.11999 0.0
H387 H 0.62386 0.16505 0.99921 0.0
H388 H 0.55757 0.1178 1.00284 0.0
H389 H 0.58522 0.16816 1.03333 0.0
H390 H 0.39606 1.00183 1.0383 0.0
H391 H 0.45769 0.11985 0.11399 0.0
H392 H 0.49479 0.97496 1.03356 0.0
H393 H 0.51305 0.02415 1.0026 0.0
H394 H 0.44696 0.97668 1.00695 0.0
H395 H 0.57069 0.11913 0.12734 0.0
H396 H 0.54367 0.16145 0.12891 0.0
H397 H 0.58661 0.16633 0.09518 0.0
C398 C 0.57896 0.66461 0.43698 0.0
C399 C 0.62565 0.68666 0.41957 0.0
C400 C 0.54553 0.61192 0.43553 0.0
C401 C 0.55837 0.58038 0.41548 0.0
C402 C 0.60471 0.6026 0.3969 0.0
C403 C 0.63818 0.65543 0.39955 0.0
C404 C 0.49727 0.58978 0.45648 0.0
C405 C 0.61923 0.57046 0.37463 0.0
C406 C 0.49983 0.44137 0.44185 0.0
C407 C 0.45698 0.41785 0.42082 0.0
C408 C 0.53336 0.49401 0.44003 0.0
C409 C 0.52473 0.52388 0.41592 0.0
C410 C 0.48236 0.5001 0.39386 0.0
C411 C 0.44849 0.44743 0.39692 0.0
C412 C 0.57711 0.51789 0.46471 0.0
C413 C 0.47257 0.53038 0.36727 0.0
H414 H 0.56912 0.6884 0.45272 0.0
H415 H 0.67405 0.6723 0.38588 0.0
H416 H 0.46363 0.56812 0.44006 0.0
H417 H 0.49783 0.5626 0.47529 0.0
H418 H 0.49237 0.61962 0.47025 0.0
H419 H 0.65416 0.59402 0.35952 0.0
H420 H 0.62595 0.54379 0.39049 0.0
H421 H 0.58762 0.547 0.35707 0.0
H422 H 0.50641 0.41881 0.46057 0.0
H423 H 0.41563 0.42933 0.38046 0.0
H424 H 0.57321 0.54653 0.48062 0.0
H425 H 0.61374 0.53826 0.45081 0.0
H426 H 0.5789 0.48924 0.48164 0.0
H427 H 0.46339 0.55833 0.37966 0.0
H428 H 0.4406 0.50563 0.35028 0.0
H429 H 0.50731 0.55237 0.35168 0.0
C430 C 0.0287 0.64842 0.75 0.0
C431 C 0.98994 0.64525 0.72869 0.0
C432 C 0.04472 0.61134 0.74881 0.0
C433 C 0.02182 0.57026 0.72553 0.0
C434 C 0.98361 0.56756 0.70335 0.0
C435 C 0.96798 0.60491 0.7053 0.0
C436 C 0.08538 0.6155 0.77304 0.0
C437 C 0.95863 0.52473 0.67792 0.0
C438 C 0.09351 0.49709 0.70587 0.0
C439 C 0.06859 0.45426 0.72694 0.0
C440 C 0.07805 0.53458 0.7046 0.0
C441 C 0.03692 0.52944 0.7251 0.0
C442 C 0.01102 0.48585 0.74596 0.0
C443 C 0.02699 0.44873 0.74651 0.0
C444 C 0.1063 0.58016 0.68174 0.0
C445 C 0.96714 0.47901 0.76834 0.0
H446 H 0.0458 0.67928 0.76825 0.0
H447 H 0.93814 0.60219 0.68865 0.0
H448 H 0.06974 0.58162 0.78983 0.0
H449 H 0.11763 0.61608 0.75876 0.0
H450 H 0.1002 0.65035 0.78907 0.0
H451 H 0.93125 0.52938 0.66141 0.0
H452 H 0.98797 0.52276 0.66168 0.0
H453 H 0.93801 0.48773 0.69136 0.0
H454 H 0.12556 0.50167 0.69055 0.0
H455 H 1.00753 0.41589 0.76294 0.0
H456 H 0.12499 0.61551 0.6972 0.0
H457 H 0.07923 0.58405 0.66454 0.0
H458 H 0.13584 0.57732 0.66618 0.0
H459 H 0.98036 0.51085 0.78687 0.0
H460 H 0.95022 0.44242 0.78248 0.0
H461 H 0.93696 0.48018 0.75285 0.0
loop_
_geom_bond_atom_site_label_1
_geom_bond_atom_site_label_2
_geom_bond_distance
_geom_bond_site_symmetry_2
_ccdc_geom_bond_type
Mg0 O7 2.141 . S
Mg0 O8 2.048 . S
Mg0 O9 2.048 . S
Mg0 O12 2.141 1_554 S
C1 O2 1.313 . S
C1 O8 1.195 . S
O2 C1 1.313 . S
C3 O4 1.245 1_556 S
C3 O12 1.289 1_565 S
O4 C3 1.245 1_554 S
C5 O6 1.245 1_545 S
C5 O7 1.289 . S
O6 C5 1.245 1_565 S
O7 Mg0 2.141 . S
O7 C5 1.289 . S
O8 Mg0 2.048 . S
O8 C1 1.195 . S
O9 Mg0 2.048 . S
O9 C10 1.195 . S
C10 O9 1.195 . S
C10 O11 1.313 1_545 S
O11 C10 1.313 1_565 S
O12 Mg0 2.141 1_556 S
O12 C3 1.289 1_545 S
Mg13 O20 2.141 . S
Mg13 O21 2.048 . S
Mg13 O22 2.048 . S
Mg13 O25 2.141 . S
C14 O15 1.313 . S
C14 O21 1.195 . S
O15 C14 1.313 . S
C16 O17 1.245 . S
C16 O25 1.289 . S
O17 C16 1.245 . S
C18 O19 1.245 . S
C18 O20 1.289 . S
O19 C18 1.245 . S
O20 Mg13 2.141 . S
O20 C18 1.289 . S
O21 Mg13 2.048 . S
O21 C14 1.195 . S
O22 Mg13 2.048 . S
O22 C23 1.195 . S
C23 O22 1.195 . S
C23 O24 1.313 . S
O24 C23 1.313 . S
O25 Mg13 2.141 . S
O25 C16 1.289 . S
Mg26 O33 2.141 . S
Mg26 O34 2.048 1_455 S
Mg26 O35 2.048 . S
Mg26 O38 2.141 . S
C27 O28 1.313 . S
C27 O34 1.195 1_455 S
O28 C27 1.313 . S
C29 O30 1.245 . S
C29 O38 1.289 . S
O30 C29 1.245 . S
C31 O32 1.245 . S
C31 O33 1.289 . S
O32 C31 1.245 . S
O33 Mg26 2.141 . S
O33 C31 1.289 . S
O34 Mg26 2.048 1_655 S
O34 C27 1.195 1_655 S
O35 Mg26 2.048 . S
O35 C36 1.195 . S
C36 O35 1.195 . S
C36 O37 1.313 . S
O37 C36 1.313 . S
O38 Mg26 2.141 . S
O38 C29 1.289 . S
Mg39 O46 2.141 . S
Mg39 O47 2.048 . S
Mg39 O48 2.048 . S
Mg39 O51 2.141 1_554 S
C40 O41 1.313 . S
C40 O47 1.195 . S
O41 C40 1.313 . S
C42 O43 1.245 1_556 S
C42 O51 1.289 . S
O43 C42 1.245 1_554 S
C44 O45 1.245 . S
C44 O46 1.289 . S
O45 C44 1.245 . S
O46 Mg39 2.141 . S
O46 C44 1.289 . S
O47 Mg39 2.048 . S
O47 C40 1.195 . S
O48 Mg39 2.048 . S
O48 C49 1.195 . S
C49 O48 1.195 . S
C49 O50 1.313 . S
O50 C49 1.313 . S
O51 Mg39 2.141 1_556 S
O51 C42 1.289 . S
Mg52 O59 2.141 . S
Mg52 O60 2.048 . S
Mg52 O61 2.048 . S
Mg52 O64 2.141 . S
C53 O54 1.313 . S
C53 O60 1.195 . S
O54 C53 1.313 . S
C55 O56 1.245 . S
C55 O64 1.289 . S
O56 C55 1.245 . S
C57 O58 1.245 . S
C57 O59 1.289 . S
O58 C57 1.245 . S
O59 Mg52 2.141 . S
O59 C57 1.289 . S
O60 Mg52 2.048 . S
O60 C53 1.195 . S
O61 Mg52 2.048 . S
O61 C62 1.195 . S
C62 O61 1.195 . S
C62 O63 1.313 . S
O63 C62 1.313 . S
O64 Mg52 2.141 . S
O64 C55 1.289 . S
Mg65 O72 2.141 . S
Mg65 O73 2.048 . S
Mg65 O74 2.048 . S
Mg65 O77 2.141 . S
C66 O67 1.313 . S
C66 O73 1.195 . S
O67 C66 1.313 . S
C68 O69 1.245 . S
C68 O77 1.289 1_655 S
O69 C68 1.245 . S
C70 O71 1.245 1_455 S
C70 O72 1.289 . S
O71 C70 1.245 1_655 S
O72 Mg65 2.141 . S
O72 C70 1.289 . S
O73 Mg65 2.048 . S
O73 C66 1.195 . S
O74 Mg65 2.048 . S
O74 C75 1.195 . S
C75 O74 1.195 . S
C75 O76 1.313 1_455 S
O76 C75 1.313 1_655 S
O77 Mg65 2.141 . S
O77 C68 1.289 1_455 S
C78 C79 1.391 . S
C78 C80 1.394 . S
C78 H94 0.931 . S
C79 C78 1.391 . S
C79 C83 1.376 . S
C80 C78 1.394 . S
C80 C81 1.369 . S
C80 C84 1.531 . S
C81 C80 1.369 . S
C81 C82 1.410 . S
C81 C89 1.503 . S
C82 C81 1.410 . S
C82 C83 1.392 . S
C82 C85 1.511 . S
C83 C79 1.376 . S
C83 C82 1.392 . S
C83 H95 0.929 . S
C84 C80 1.531 . S
C84 H96 0.960 . S
C84 H97 0.962 . S
C84 H98 0.960 . S
C85 C82 1.511 . S
C85 H99 0.961 . S
C85 H100 0.961 . S
C85 H101 0.961 . S
C86 C87 1.370 . S
C86 C88 1.363 . S
C86 H102 0.931 . S
C87 C86 1.370 . S
C87 C91 1.408 . S
C88 C86 1.363 . S
C88 C89 1.370 . S
C88 C92 1.524 . S
C89 C81 1.503 . S
C89 C88 1.370 . S
C89 C90 1.403 . S
C90 C89 1.403 . S
C90 C91 1.404 . S
C90 C93 1.539 . S
C91 C87 1.408 . S
C91 C90 1.404 . S
C91 H103 0.930 . S
C92 C88 1.524 . S
C92 H104 0.956 . S
C92 H105 0.961 . S
C92 H106 0.961 . S
C93 C90 1.539 . S
C93 H107 0.958 . S
C93 H108 0.961 . S
C93 H109 0.960 . S
H94 C78 0.931 . S
H95 C83 0.929 . S
H96 C84 0.960 . S
H97 C84 0.962 . S
H98 C84 0.960 . S
H99 C85 0.961 . S
H100 C85 0.961 . S
H101 C85 0.961 . S
H102 C86 0.931 . S
H103 C91 0.930 . S
H104 C92 0.956 . S
H105 C92 0.961 . S
H106 C92 0.961 . S
H107 C93 0.958 . S
H108 C93 0.961 . S
H109 C93 0.960 . S
C110 C111 1.391 . S
C110 C112 1.394 . S
C110 H126 0.931 . S
C111 C110 1.391 . S
C111 C115 1.376 . S
C112 C110 1.394 . S
C112 C113 1.369 . S
C112 C116 1.531 . S
C113 C112 1.369 . S
C113 C114 1.410 . S
C113 C121 1.503 . S
C114 C113 1.410 . S
C114 C115 1.392 . S
C114 C117 1.511 . S
C115 C111 1.376 . S
C115 C114 1.392 . S
C115 H127 0.929 . S
C116 C112 1.531 . S
C116 H128 0.960 . S
C116 H129 0.962 . S
C116 H130 0.960 . S
C117 C114 1.511 . S
C117 H131 0.961 . S
C117 H132 0.961 . S
C117 H133 0.961 . S
C118 C119 1.370 . S
C118 C120 1.363 . S
C118 H134 0.931 . S
C119 C118 1.370 . S
C119 C123 1.408 . S
C120 C118 1.363 . S
C120 C121 1.370 . S
C120 C124 1.524 . S
C121 C113 1.503 . S
C121 C120 1.370 . S
C121 C122 1.403 . S
C122 C121 1.403 . S
C122 C123 1.404 . S
C122 C125 1.539 . S
C123 C119 1.408 . S
C123 C122 1.404 . S
C123 H135 0.930 . S
C124 C120 1.524 . S
C124 H136 0.956 . S
C124 H137 0.961 . S
C124 H138 0.961 . S
C125 C122 1.539 . S
C125 H139 0.958 . S
C125 H140 0.961 . S
C125 H141 0.960 . S
H126 C110 0.931 . S
H127 C115 0.929 . S
H128 C116 0.960 . S
H129 C116 0.962 . S
H130 C116 0.960 . S
H131 C117 0.961 . S
H132 C117 0.961 . S
H133 C117 0.961 . S
H134 C118 0.931 . S
H135 C123 0.930 . S
H136 C124 0.956 . S
H137 C124 0.961 . S
H138 C124 0.961 . S
H139 C125 0.958 . S
H140 C125 0.961 . S
H141 C125 0.960 . S
C142 C143 1.391 . S
C142 C144 1.394 . S
C142 H158 0.931 . S
C143 C142 1.391 . S
C143 C147 1.376 . S
C144 C142 1.394 . S
C144 C145 1.369 . S
C144 C148 1.531 . S
C145 C144 1.369 . S
C145 C146 1.410 . S
C145 C153 1.503 . S
C146 C145 1.410 . S
C146 C147 1.392 . S
C146 C149 1.511 . S
C147 C143 1.376 . S
C147 C146 1.392 . S
C147 H159 0.929 . S
C148 C144 1.531 . S
C148 H160 0.960 . S
C148 H161 0.962 . S
C148 H162 0.960 . S
C149 C146 1.511 . S
C149 H163 0.961 . S
C149 H164 0.961 . S
C149 H165 0.961 . S
C150 C151 1.370 . S
C150 C152 1.363 . S
C150 H166 0.931 1_655 S
C151 C150 1.370 . S
C151 C155 1.408 . S
C152 C150 1.363 . S
C152 C153 1.370 . S
C152 C156 1.524 . S
C153 C145 1.503 . S
C153 C152 1.370 . S
C153 C154 1.403 . S
C154 C153 1.403 . S
C154 C155 1.404 . S
C154 C157 1.539 . S
C155 C151 1.408 . S
C155 C154 1.404 . S
C155 H167 0.930 . S
C156 C152 1.524 . S
C156 H168 0.956 . S
C156 H169 0.961 . S
C156 H170 0.961 1_655 S
C157 C154 1.539 . S
C157 H171 0.958 . S
C157 H172 0.961 . S
C157 H173 0.960 . S
H158 C142 0.931 . S
H159 C147 0.929 . S
H160 C148 0.960 . S
H161 C148 0.962 . S
H162 C148 0.960 . S
H163 C149 0.961 . S
H164 C149 0.961 . S
H165 C149 0.961 . S
H166 C150 0.931 1_455 S
H167 C155 0.930 . S
H168 C156 0.956 . S
H169 C156 0.961 . S
H170 C156 0.961 1_455 S
H171 C157 0.958 . S
H172 C157 0.961 . S
H173 C157 0.960 . S
C174 C175 1.391 . S
C174 C176 1.394 . S
C174 H190 0.923 1_565 S
C175 C174 1.391 . S
C175 C179 1.376 . S
C176 C174 1.394 . S
C176 C177 1.369 . S
C176 C180 1.531 . S
C177 C176 1.369 . S
C177 C178 1.410 . S
C177 C185 1.503 . S
C178 C177 1.410 . S
C178 C179 1.392 . S
C178 C181 1.511 . S
C179 C175 1.376 . S
C179 C178 1.392 . S
C179 H191 0.929 . S
C180 C176 1.531 . S
C180 H192 0.960 . S
C180 H193 0.962 . S
C180 H194 0.960 . S
C181 C178 1.511 . S
C181 H195 0.961 . S
C181 H196 0.961 . S
C181 H197 0.961 . S
C182 C183 1.370 . S
C182 C184 1.363 . S
C182 H198 0.931 . S
C183 C182 1.370 . S
C183 C187 1.408 . S
C184 C182 1.363 . S
C184 C185 1.370 . S
C184 C188 1.524 . S
C185 C177 1.503 . S
C185 C184 1.370 . S
C185 C186 1.403 . S
C186 C185 1.403 . S
C186 C187 1.404 . S
C186 C189 1.539 . S
C187 C183 1.408 . S
C187 C186 1.404 . S
C187 H199 0.930 . S
C188 C184 1.524 . S
C188 H200 0.956 1_565 S
C188 H201 0.961 . S
C188 H202 0.961 . S
C189 C186 1.539 . S
C189 H203 0.958 . S
C189 H204 0.961 . S
C189 H205 0.960 . S
H190 C174 0.923 1_545 S
H191 C179 0.929 . S
H192 C180 0.960 . S
H193 C180 0.962 . S
H194 C180 0.960 . S
H195 C181 0.961 . S
H196 C181 0.961 . S
H197 C181 0.961 . S
H198 C182 0.931 . S
H199 C187 0.930 . S
H200 C188 0.956 1_545 S
H201 C188 0.961 . S
H202 C188 0.961 . S
H203 C189 0.958 . S
H204 C189 0.961 . S
H205 C189 0.960 . S
C206 C207 1.391 . S
C206 C208 1.394 . S
C206 H222 0.931 . S
C207 C206 1.391 . S
C207 C211 1.376 . S
C208 C206 1.394 . S
C208 C209 1.369 . S
C208 C212 1.531 . S
C209 C208 1.369 . S
C209 C210 1.410 . S
C209 C217 1.503 . S
C210 C209 1.410 . S
C210 C211 1.392 . S
C210 C213 1.511 . S
C211 C207 1.376 . S
C211 C210 1.392 . S
C211 H223 0.929 . S
C212 C208 1.531 . S
C212 H224 0.960 . S
C212 H225 0.962 . S
C212 H226 0.960 . S
C213 C210 1.511 . S
C213 H227 0.961 . S
C213 H228 0.961 . S
C213 H229 0.961 . S
C214 C215 1.370 . S
C214 C216 1.363 . S
C214 H230 0.931 . S
C215 C214 1.370 . S
C215 C219 1.408 . S
C216 C214 1.363 . S
C216 C217 1.370 . S
C216 C220 1.524 . S
C217 C209 1.503 . S
C217 C216 1.370 . S
C217 C218 1.403 . S
C218 C217 1.403 . S
C218 C219 1.404 . S
C218 C221 1.539 . S
C219 C215 1.408 . S
C219 C218 1.404 . S
C219 H231 0.930 . S
C220 C216 1.524 . S
C220 H232 0.956 . S
C220 H233 0.961 . S
C220 H234 0.961 . S
C221 C218 1.539 . S
C221 H235 0.958 . S
C221 H236 0.961 . S
C221 H237 0.960 . S
H222 C206 0.931 . S
H223 C211 0.929 . S
H224 C212 0.960 . S
H225 C212 0.962 . S
H226 C212 0.960 . S
H227 C213 0.961 . S
H228 C213 0.961 . S
H229 C213 0.961 . S
H230 C214 0.931 . S
H231 C219 0.930 . S
H232 C220 0.956 . S
H233 C220 0.961 . S
H234 C220 0.961 . S
H235 C221 0.958 . S
H236 C221 0.961 . S
H237 C221 0.960 . S
C238 C239 1.391 . S
C238 C240 1.394 . S
C238 H254 0.931 . S
C239 C238 1.391 . S
C239 C243 1.376 . S
C240 C238 1.394 . S
C240 C241 1.369 . S
C240 C244 1.531 . S
C241 C240 1.369 . S
C241 C242 1.410 . S
C241 C249 1.503 . S
C242 C241 1.410 . S
C242 C243 1.392 . S
C242 C245 1.511 . S
C243 C239 1.376 . S
C243 C242 1.392 . S
C243 H255 0.929 . S
C244 C240 1.531 . S
C244 H256 0.960 . S
C244 H257 0.962 . S
C244 H258 0.960 1_565 S
C245 C242 1.511 . S
C245 H259 0.961 . S
C245 H260 0.961 . S
C245 H261 0.961 . S
C246 C247 1.370 . S
C246 C248 1.363 . S
C246 H262 0.931 . S
C247 C246 1.370 . S
C247 C251 1.408 . S
C248 C246 1.363 . S
C248 C249 1.370 . S
C248 C252 1.524 . S
C249 C241 1.503 . S
C249 C248 1.370 . S
C249 C250 1.403 . S
C250 C249 1.403 . S
C250 C251 1.404 . S
C250 C253 1.539 . S
C251 C247 1.408 . S
C251 C250 1.404 . S
C251 H263 0.930 . S
C252 C248 1.524 . S
C252 H264 0.956 . S
C252 H265 0.961 . S
C252 H266 0.961 . S
C253 C250 1.539 . S
C253 H267 0.958 . S
C253 H268 0.961 . S
C253 H269 0.960 . S
H254 C238 0.931 . S
H255 C243 0.929 . S
H256 C244 0.960 . S
H257 C244 0.962 . S
H258 C244 0.960 1_545 S
H259 C245 0.961 . S
H260 C245 0.961 . S
H261 C245 0.961 . S
H262 C246 0.931 . S
H263 C251 0.930 . S
H264 C252 0.956 . S
H265 C252 0.961 . S
H266 C252 0.961 . S
H267 C253 0.958 . S
H268 C253 0.961 . S
H269 C253 0.960 . S
C270 C271 1.391 . S
C270 C272 1.394 . S
C270 H286 0.931 . S
C271 C270 1.391 . S
C271 C275 1.376 . S
C272 C270 1.394 . S
C272 C273 1.369 . S
C272 C276 1.531 . S
C273 C272 1.369 . S
C273 C274 1.410 . S
C273 C281 1.503 . S
C274 C273 1.410 . S
C274 C275 1.392 . S
C274 C277 1.512 1_554 S
C275 C271 1.376 . S
C275 C274 1.392 . S
C275 H287 0.929 1_545 S
C276 C272 1.531 . S
C276 H288 0.960 . S
C276 H289 0.962 . S
C276 H290 0.960 . S
C277 C274 1.512 1_556 S
C277 H291 0.946 1_545 S
C277 H292 0.965 1_446 S
C277 H293 0.970 . S
C278 C279 1.370 . S
C278 C280 1.363 . S
C278 H294 0.931 1_545 S
C279 C278 1.370 . S
C279 C283 1.408 . S
C280 C278 1.363 . S
C280 C281 1.370 1_655 S
C280 C284 1.524 1_545 S
C281 C273 1.503 . S
C281 C280 1.370 1_455 S
C281 C282 1.403 . S
C282 C281 1.403 . S
C282 C283 1.404 1_455 S
C282 C285 1.539 . S
C283 C279 1.408 . S
C283 C282 1.404 1_655 S
C283 H295 0.930 . S
C284 C280 1.524 1_565 S
C284 H296 0.956 . S
C284 H297 0.961 . S
C284 H298 0.961 . S
C285 C282 1.539 . S
C285 H299 0.958 . S
C285 H300 0.961 1_554 S
C285 H301 0.960 . S
H286 C270 0.931 . S
H287 C275 0.929 1_565 S
H288 C276 0.960 . S
H289 C276 0.962 . S
H290 C276 0.960 . S
H291 C277 0.946 1_565 S
H292 C277 0.965 1_664 S
H293 C277 0.970 . S
H294 C278 0.931 1_565 S
H295 C283 0.930 . S
H296 C284 0.956 . S
H297 C284 0.961 . S
H298 C284 0.961 . S
H299 C285 0.958 . S
H300 C285 0.961 1_556 S
H301 C285 0.960 . S
C302 C303 1.391 . S
C302 C304 1.394 . S
C302 H318 0.931 . S
C303 C302 1.391 . S
C303 C307 1.376 . S
C304 C302 1.394 . S
C304 C305 1.369 1_565 S
C304 C308 1.531 1_655 S
C305 C304 1.369 1_545 S
C305 C306 1.410 . S
C305 C313 1.503 1_655 S
C306 C305 1.410 . S
C306 C307 1.392 1_545 S
C306 C309 1.511 . S
C307 C303 1.376 . S
C307 C306 1.392 1_565 S
C307 H319 0.929 . S
C308 C304 1.531 1_455 S
C308 H320 0.960 1_565 S
C308 H321 0.962 . S
C308 H322 0.960 . S
C309 C306 1.511 . S
C309 H323 0.961 . S
C309 H324 0.961 1_655 S
C309 H325 0.961 . S
C310 C311 1.370 . S
C310 C312 1.363 . S
C310 H326 0.931 . S
C311 C310 1.370 . S
C311 C315 1.408 . S
C312 C310 1.363 . S
C312 C313 1.370 . S
C312 C316 1.524 . S
C313 C305 1.503 1_455 S
C313 C312 1.370 . S
C313 C314 1.403 . S
C314 C313 1.403 . S
C314 C315 1.404 . S
C314 C317 1.539 . S
C315 C311 1.408 . S
C315 C314 1.404 . S
C315 H327 0.930 . S
C316 C312 1.524 . S
C316 H328 0.937 1_545 S
C316 H329 0.961 . S
C316 H330 0.961 . S
C317 C314 1.539 . S
C317 H331 0.958 . S
C317 H332 0.961 . S
C317 H333 0.960 1_455 S
H318 C302 0.931 . S
H319 C307 0.929 . S
H320 C308 0.960 1_545 S
H321 C308 0.962 . S
H322 C308 0.960 . S
H323 C309 0.961 . S
H324 C309 0.961 1_455 S
H325 C309 0.961 . S
H326 C310 0.931 . S
H327 C315 0.930 . S
H328 C316 0.937 1_565 S
H329 C316 0.961 . S
H330 C316 0.961 . S
H331 C317 0.958 . S
H332 C317 0.961 . S
H333 C317 0.960 1_655 S
C334 C335 1.391 1_655 S
C334 C336 1.394 . S
C334 H350 0.931 . S
C335 C334 1.391 1_455 S
C335 C339 1.376 . S
C336 C334 1.394 . S
C336 C337 1.369 1_655 S
C336 C340 1.531 . S
C337 C336 1.369 1_455 S
C337 C338 1.410 . S
C337 C345 1.503 . S
C338 C337 1.410 . S
C338 C339 1.392 . S
C338 C341 1.511 . S
C339 C335 1.376 . S
C339 C338 1.392 . S
C339 H351 0.929 . S
C340 C336 1.531 . S
C340 H352 0.960 . S
C340 H353 0.962 . S
C340 H354 0.960 . S
C341 C338 1.511 . S
C341 H355 0.961 . S
C341 H356 0.961 . S
C341 H357 0.961 . S
C342 C343 1.370 . S
C342 C344 1.363 1_565 S
C342 H358 0.931 . S
C343 C342 1.370 . S
C343 C347 1.408 1_455 S
C344 C342 1.363 1_545 S
C344 C345 1.370 . S
C344 C348 1.524 . S
C345 C337 1.503 . S
C345 C344 1.370 . S
C345 C346 1.403 1_445 S
C346 C345 1.403 1_665 S
C346 C347 1.404 . S
C346 C349 1.539 . S
C347 C343 1.408 1_655 S
C347 C346 1.404 . S
C347 H359 0.930 . S
C348 C344 1.524 . S
C348 H360 0.956 . S
C348 H361 0.961 . S
C348 H362 0.961 . S
C349 C346 1.539 . S
C349 H363 0.958 . S
C349 H364 0.961 . S
C349 H365 0.960 1_565 S
H350 C334 0.931 . S
H351 C339 0.929 . S
H352 C340 0.960 . S
H353 C340 0.962 . S
H354 C340 0.960 . S
H355 C341 0.961 . S
H356 C341 0.961 . S
H357 C341 0.961 . S
H358 C342 0.931 . S
H359 C347 0.930 . S
H360 C348 0.956 . S
H361 C348 0.961 . S
H362 C348 0.961 . S
H363 C349 0.958 . S
H364 C349 0.961 . S
H365 C349 0.960 1_545 S
C366 C367 1.391 . S
C366 C368 1.394 . S
C366 H382 0.931 1_545 S
C367 C366 1.391 . S
C367 C371 1.376 . S
C368 C366 1.394 . S
C368 C369 1.369 . S
C368 C372 1.531 1_545 S
C369 C368 1.369 . S
C369 C370 1.410 . S
C369 C377 1.503 . S
C370 C369 1.410 . S
C370 C371 1.392 . S
C370 C373 1.511 . S
C371 C367 1.376 . S
C371 C370 1.392 . S
C371 H383 0.929 . S
C372 C368 1.531 1_565 S
C372 H384 0.960 . S
C372 H385 0.962 . S
C372 H386 0.960 . S
C373 C370 1.511 . S
C373 H387 0.961 . S
C373 H388 0.961 . S
C373 H389 0.961 . S
C374 C375 1.370 . S
C374 C376 1.363 . S
C374 H390 0.931 . S
C375 C374 1.370 . S
C375 C379 1.408 . S
C376 C374 1.363 . S
C376 C377 1.370 . S
C376 C380 1.524 . S
C377 C369 1.503 . S
C377 C376 1.370 . S
C377 C378 1.403 . S
C378 C377 1.403 . S
C378 C379 1.404 . S
C378 C381 1.539 . S
C379 C375 1.408 . S
C379 C378 1.404 . S
C379 H391 0.930 . S
C380 C376 1.524 . S
C380 H392 0.956 1_545 S
C380 H393 0.961 1_554 S
C380 H394 0.961 1_554 S
C381 C378 1.539 . S
C381 H395 0.958 . S
C381 H396 0.961 . S
C381 H397 0.960 . S
H382 C366 0.931 1_565 S
H383 C371 0.929 . S
H384 C372 0.960 . S
H385 C372 0.962 . S
H386 C372 0.960 . S
H387 C373 0.961 . S
H388 C373 0.961 . S
H389 C373 0.961 . S
H390 C374 0.931 . S
H391 C379 0.930 . S
H392 C380 0.956 1_565 S
H393 C380 0.961 1_556 S
H394 C380 0.961 1_556 S
H395 C381 0.958 . S
H396 C381 0.961 . S
H397 C381 0.960 . S
C398 C399 1.391 . S
C398 C400 1.394 . S
C398 H414 0.931 . S
C399 C398 1.391 . S
C399 C403 1.376 . S
C400 C398 1.394 . S
C400 C401 1.369 . S
C400 C404 1.531 . S
C401 C400 1.369 . S
C401 C402 1.410 . S
C401 C409 1.503 . S
C402 C401 1.410 . S
C402 C403 1.392 . S
C402 C405 1.511 . S
C403 C399 1.376 . S
C403 C402 1.392 . S
C403 H415 0.929 . S
C404 C400 1.531 . S
C404 H416 0.960 . S
C404 H417 0.962 . S
C404 H418 0.960 . S
C405 C402 1.511 . S
C405 H419 0.961 . S
C405 H420 0.961 . S
C405 H421 0.961 . S
C406 C407 1.370 . S
C406 C408 1.363 . S
C406 H422 0.931 . S
C407 C406 1.370 . S
C407 C411 1.408 . S
C408 C406 1.363 . S
C408 C409 1.370 . S
C408 C412 1.524 . S
C409 C401 1.503 . S
C409 C408 1.370 . S
C409 C410 1.403 . S
C410 C409 1.403 . S
C410 C411 1.404 . S
C410 C413 1.539 . S
C411 C407 1.408 . S
C411 C410 1.404 . S
C411 H423 0.930 . S
C412 C408 1.524 . S
C412 H424 0.956 . S
C412 H425 0.961 . S
C412 H426 0.961 . S
C413 C410 1.539 . S
C413 H427 0.958 . S
C413 H428 0.961 . S
C413 H429 0.960 . S
H414 C398 0.931 . S
H415 C403 0.929 . S
H416 C404 0.960 . S
H417 C404 0.962 . S
H418 C404 0.960 . S
H419 C405 0.961 . S
H420 C405 0.961 . S
H421 C405 0.961 . S
H422 C406 0.931 . S
H423 C411 0.930 . S
H424 C412 0.956 . S
H425 C412 0.961 . S
H426 C412 0.961 . S
H427 C413 0.958 . S
H428 C413 0.961 . S
H429 C413 0.960 . S
C430 C431 1.391 . S
C430 C432 1.394 . S
C430 H446 0.931 . S
C431 C430 1.391 . S
C431 C435 1.376 1_455 S
C432 C430 1.394 . S
C432 C433 1.369 . S
C432 C436 1.531 . S
C433 C432 1.369 . S
C433 C434 1.410 1_455 S
C433 C441 1.503 . S
C434 C433 1.410 1_655 S
C434 C435 1.392 . S
C434 C437 1.511 . S
C435 C431 1.376 1_655 S
C435 C434 1.392 . S
C435 H447 0.929 . S
C436 C432 1.531 . S
C436 H448 0.960 . S
C436 H449 0.962 . S
C436 H450 0.960 . S
C437 C434 1.511 . S
C437 H451 0.961 . S
C437 H452 0.961 . S
C437 H453 0.961 . S
C438 C439 1.370 . S
C438 C440 1.363 . S
C438 H454 0.931 . S
C439 C438 1.370 . S
C439 C443 1.408 . S
C440 C438 1.363 . S
C440 C441 1.370 . S
C440 C444 1.524 . S
C441 C433 1.503 . S
C441 C440 1.370 . S
C441 C442 1.403 . S
C442 C441 1.403 . S
C442 C443 1.404 . S
C442 C445 1.539 1_455 S
C443 C439 1.408 . S
C443 C442 1.404 . S
C443 H455 0.930 1_455 S
C444 C440 1.524 . S
C444 H456 0.956 . S
C444 H457 0.961 . S
C444 H458 0.961 . S
C445 C442 1.539 1_655 S
C445 H459 0.958 . S
C445 H460 0.961 . S
C445 H461 0.960 . S
H446 C430 0.931 . S
H447 C435 0.929 . S
H448 C436 0.960 . S
H449 C436 0.962 . S
H450 C436 0.960 . S
H451 C437 0.961 . S
H452 C437 0.961 . S
H453 C437 0.961 . S
H454 C438 0.931 . S
H455 C443 0.930 1_655 S
H456 C444 0.956 . S
H457 C444 0.961 . S
H458 C444 0.961 . S
H459 C445 0.958 . S
H460 C445 0.961 . S
H461 C445 0.960 . S
C79 C1 1.724 . S
C87 C16 1.710 . S
C111 C14 1.718 . S
C119 C29 1.713 . S
C143 C42 1.714 . S
C151 C27 1.719 1_655 S
C175 C40 1.720 1_565 S
C183 C55 1.713 . S
C207 C68 1.709 . S
C215 C53 1.707 . S
C239 C3 1.721 . S
C247 C66 1.713 . S
C271 C10 1.000 . S
C279 C49 0.995 . S
C303 C62 0.997 . S
C311 C23 0.997 . S
C335 C36 1.002 . S
C343 C75 0.996 . S
C367 C44 1.438 . S
C375 C5 1.448 . S
C399 C57 1.450 . S
C407 C18 1.446 . S
C431 C70 1.436 . S
C439 C31 1.449 . S
