# Generated by pormake.
# Topology wme, (6)-cn, num edge types: 1
# Building blocks:
#     Node 0, Type 0, BuildingBlock: FUNLAD_clean_sbu_0, # of connection points: 6
#     Node 1, Type 0, BuildingBlock: FUNLAD_clean_sbu_0, # of connection points: 6
#     Node 2, Type 0, BuildingBlock: FUNLAD_clean_sbu_0, # of connection points: 6
#     Node 3, Type 0, BuildingBlock: FUNLAD_clean_sbu_0, # of connection points: 6
#     Node 4, Type 0, BuildingBlock: FUNLAD_clean_sbu_0, # of connection points: 6
#     Node 5, Type 0, BuildingBlock: FUNLAD_clean_sbu_0, # of connection points: 6
#     Node 6, Type 0, BuildingBlock: FUNLAD_clean_sbu_0, # of connection points: 6
#     Node 7, Type 0, BuildingBlock: FUNLAD_clean_sbu_0, # of connection points: 6
#     Node 8, Type 0, BuildingBlock: FUNLAD_clean_sbu_0, # of connection points: 6
#     Node 9, Type 0, BuildingBlock: FUNLAD_clean_sbu_0, # of connection points: 6
#     Node 10, Type 0, BuildingBlock: FUNLAD_clean_sbu_0, # of connection points: 6
#     Node 11, Type 0, BuildingBlock: FUNLAD_clean_sbu_0, # of connection points: 6
#     Edge 12, Type (0, 0), BuildingBlock: KIFKEQ_clean_linker_1, # of connection points: 2
#     Edge 13, Type (0, 0), BuildingBlock: KIFKEQ_clean_linker_1, # of connection points: 2
#     Edge 14, Type (0, 0), BuildingBlock: KIFKEQ_clean_linker_1, # of connection points: 2
#     Edge 15, Type (0, 0), BuildingBlock: KIFKEQ_clean_linker_1, # of connection points: 2
#     Edge 16, Type (0, 0), BuildingBlock: KIFKEQ_clean_linker_1, # of connection points: 2
#     Edge 17, Type (0, 0), BuildingBlock: KIFKEQ_clean_linker_1, # of connection points: 2
#     Edge 18, Type (0, 0), BuildingBlock: KIFKEQ_clean_linker_1, # of connection points: 2
#     Edge 19, Type (0, 0), BuildingBlock: KIFKEQ_clean_linker_1, # of connection points: 2
#     Edge 20, Type (0, 0), BuildingBlock: KIFKEQ_clean_linker_1, # of connection points: 2
#     Edge 21, Type (0, 0), BuildingBlock: KIFKEQ_clean_linker_1, # of connection points: 2
#     Edge 22, Type (0, 0), BuildingBlock: KIFKEQ_clean_linker_1, # of connection points: 2
#     Edge 23, Type (0, 0), BuildingBlock: KIFKEQ_clean_linker_1, # of connection points: 2
#     Edge 24, Type (0, 0), BuildingBlock: KIFKEQ_clean_linker_1, # of connection points: 2
#     Edge 25, Type (0, 0), BuildingBlock: KIFKEQ_clean_linker_1, # of connection points: 2
#     Edge 26, Type (0, 0), BuildingBlock: KIFKEQ_clean_linker_1, # of connection points: 2
#     Edge 27, Type (0, 0), BuildingBlock: KIFKEQ_clean_linker_1, # of connection points: 2
#     Edge 28, Type (0, 0), BuildingBlock: KIFKEQ_clean_linker_1, # of connection points: 2
#     Edge 29, Type (0, 0), BuildingBlock: KIFKEQ_clean_linker_1, # of connection points: 2
#     Edge 30, Type (0, 0), BuildingBlock: KIFKEQ_clean_linker_1, # of connection points: 2
#     Edge 31, Type (0, 0), BuildingBlock: KIFKEQ_clean_linker_1, # of connection points: 2
#     Edge 32, Type (0, 0), BuildingBlock: KIFKEQ_clean_linker_1, # of connection points: 2
#     Edge 33, Type (0, 0), BuildingBlock: KIFKEQ_clean_linker_1, # of connection points: 2
#     Edge 34, Type (0, 0), BuildingBlock: KIFKEQ_clean_linker_1, # of connection points: 2
#     Edge 35, Type (0, 0), BuildingBlock: KIFKEQ_clean_linker_1, # of connection points: 2
#     Edge 36, Type (0, 0), BuildingBlock: KIFKEQ_clean_linker_1, # of connection points: 2
#     Edge 37, Type (0, 0), BuildingBlock: KIFKEQ_clean_linker_1, # of connection points: 2
#     Edge 38, Type (0, 0), BuildingBlock: KIFKEQ_clean_linker_1, # of connection points: 2
#     Edge 39, Type (0, 0), BuildingBlock: KIFKEQ_clean_linker_1, # of connection points: 2
#     Edge 40, Type (0, 0), BuildingBlock: KIFKEQ_clean_linker_1, # of connection points: 2
#     Edge 41, Type (0, 0), BuildingBlock: KIFKEQ_clean_linker_1, # of connection points: 2
#     Edge 42, Type (0, 0), BuildingBlock: KIFKEQ_clean_linker_1, # of connection points: 2
#     Edge 43, Type (0, 0), BuildingBlock: KIFKEQ_clean_linker_1, # of connection points: 2
#     Edge 44, Type (0, 0), BuildingBlock: KIFKEQ_clean_linker_1, # of connection points: 2
#     Edge 45, Type (0, 0), BuildingBlock: KIFKEQ_clean_linker_1, # of connection points: 2
#     Edge 46, Type (0, 0), BuildingBlock: KIFKEQ_clean_linker_1, # of connection points: 2
#     Edge 47, Type (0, 0), BuildingBlock: KIFKEQ_clean_linker_1, # of connection points: 2
# Relax obj value: 0.158
# Max RMSD: 0.205
# Mean RMSD: 0.205
data_MOF--net-wme--node1-FUNLAD_clean_sbu_0--edge1-KIFKEQ_clean_linker_1
_symmetry_space_group_name_H-M    P1
_symmetry_Int_Tables_number       1
_symmetry_cell_setting            triclinic
loop_
_symmetry_equiv_pos_as_xyz
'x, y, z'
_cell_length_a     28.787472
_cell_length_b     28.872472
_cell_length_c     85.880269
_cell_angle_alpha  90.061347
_cell_angle_beta   89.960996
_cell_angle_gamma 120.16327
loop_
_atom_site_label
_atom_site_type_symbol
_atom_site_fract_x
_atom_site_fract_y
_atom_site_fract_z
_atom_type_partial_charge
C0 C 0.24014 0.2411 0.14705 0.0
N1 N 0.2285 0.30968 0.10565 0.0
C2 C 0.27127 0.30576 0.10067 0.0
C3 C 0.27769 0.29878 0.08491 0.0
C4 C 0.23985 0.29589 0.07407 0.0
C5 C 0.19592 0.29992 0.07952 0.0
C6 C 0.19101 0.30688 0.09544 0.0
Zn7 Zn 0.22246 0.31912 0.12905 0.0
C8 C 0.11425 0.25525 0.1415 0.0
N9 N 0.21605 0.33879 0.17817 0.0
C10 C 0.24533 0.32887 0.18869 0.0
C11 C 0.1787 0.35158 0.18291 0.0
C12 C 0.16937 0.35448 0.19871 0.0
C13 C 0.19787 0.34301 0.20979 0.0
C14 C 0.23648 0.3303 0.20466 0.0
Zn15 Zn 0.22298 0.32989 0.15472 0.0
O16 O 0.24015 0.25818 0.13344 0.0
C17 C 0.33006 0.39859 0.14242 0.0
O18 O 0.23341 0.2641 0.15872 0.0
H19 H 0.15496 0.35827 0.17443 0.0
H20 H 0.30051 0.30783 0.10896 0.0
H21 H 0.27477 0.31875 0.18471 0.0
O22 O 0.30482 0.3782 0.12981 0.0
O23 O 0.30562 0.38259 0.15535 0.0
H24 H 0.15732 0.3101 0.09965 0.0
O25 O 0.21132 0.3944 0.15021 0.0
O26 O 0.2026 0.37884 0.12504 0.0
O27 O 0.14 0.2786 0.15375 0.0
O28 O 0.1395 0.26188 0.12879 0.0
C29 C 0.20083 0.40478 0.13675 0.0
H30 H 0.31169 0.29499 0.0813 0.0
H31 H 0.16606 0.29842 0.07155 0.0
H32 H 0.13879 0.36373 0.20224 0.0
H33 H 0.25933 0.32137 0.21292 0.0
C34 C -0.00563 0.25505 0.64623 0.0
N35 N 0.90525 0.23333 0.60578 0.0
C36 C 0.9516 0.27597 0.60052 0.0
C37 C 0.96452 0.28115 0.58474 0.0
C38 C 0.92916 0.24242 0.57412 0.0
C39 C 0.88112 0.1991 0.57985 0.0
C40 C 0.86999 0.19522 0.59581 0.0
Zn41 Zn 0.89199 0.22777 0.62928 0.0
C42 C 0.85901 0.1218 0.64213 0.0
N43 N 0.87326 0.22096 0.67877 0.0
C44 C 0.91031 0.25599 0.68904 0.0
C45 C 0.82616 0.17864 0.68382 0.0
C46 C 0.81443 0.17058 0.69965 0.0
C47 C 0.85196 0.20566 0.71048 0.0
C48 C 0.9006 0.24873 0.70509 0.0
Zn49 Zn 0.88656 0.2277 0.65519 0.0
O50 O 0.97288 0.24965 0.63295 0.0
C51 C 0.91311 0.33218 0.64257 0.0
O52 O 0.96707 0.24953 0.65842 0.0
H53 H 0.79768 0.15042 0.67557 0.0
H54 H 0.97915 0.30585 0.60862 0.0
H55 H 0.94757 0.28924 0.68481 0.0
O56 O 0.9113 0.30849 0.62991 0.0
O57 O 0.90584 0.30774 0.65543 0.0
H58 H 0.83336 0.16163 0.60024 0.0
O59 O 0.80572 0.20345 0.65153 0.0
O60 O 0.81028 0.20361 0.62599 0.0
O61 O 0.86543 0.14776 0.65461 0.0
O62 O 0.87001 0.14597 0.62911 0.0
C63 C 0.78277 0.194 0.63836 0.0
H64 H 0.00243 0.31472 0.58098 0.0
H65 H 0.85227 0.16863 0.5721 0.0
H66 H 0.77688 0.13642 0.7034 0.0
H67 H 0.93049 0.27656 0.71318 0.0
C68 C 0.72477 0.00019 0.14533 0.0
N69 N 0.655 0.90816 0.10549 0.0
C70 C 0.65932 0.95467 0.10028 0.0
C71 C 0.6676 0.96785 0.08453 0.0
C72 C 0.67094 0.93264 0.07395 0.0
C73 C 0.6649 0.88416 0.07952 0.0
C74 C 0.65724 0.87278 0.09546 0.0
Zn75 Zn 0.64857 0.89571 0.12903 0.0
C76 C 0.7255 0.86686 0.14132 0.0
N77 N 0.64276 0.88126 0.17859 0.0
C78 C 0.6427 0.91688 0.18897 0.0
C79 C 0.64141 0.83583 0.18351 0.0
C80 C 0.63954 0.82447 0.19931 0.0
C81 C 0.64042 0.86074 0.21038 0.0
C82 C 0.64178 0.90748 0.205 0.0
Zn83 Zn 0.64719 0.89359 0.15497 0.0
O84 O 0.70873 0.97652 0.13231 0.0
C85 C 0.56602 0.91694 0.1426 0.0
O86 O 0.70345 0.97478 0.15781 0.0
H87 H 0.6422 0.80821 0.17517 0.0
H88 H 0.65706 0.98212 0.1084 0.0
H89 H 0.64407 0.95291 0.18482 0.0
O90 O 0.58822 0.9157 0.12995 0.0
O91 O 0.58318 0.90943 0.15546 0.0
H92 H 0.65389 0.83613 0.09985 0.0
O93 O 0.59254 0.81165 0.15165 0.0
O94 O 0.59009 0.81444 0.12612 0.0
O95 O 0.70983 0.87659 0.15407 0.0
O96 O 0.7071 0.87277 0.12851 0.0
C97 C 0.57591 0.78773 0.1387 0.0
H98 H 0.6712 0.00522 0.08066 0.0
H99 H 0.66741 0.85605 0.07169 0.0
H100 H 0.63723 0.78731 0.20275 0.0
H101 H 0.64312 0.937 0.21305 0.0
C102 C 0.71128 0.7317 0.64567 0.0
N103 N 0.73091 0.66073 0.60571 0.0
C104 C 0.68879 0.66544 0.60054 0.0
C105 C 0.68352 0.67316 0.58477 0.0
C106 C 0.72166 0.6756 0.57413 0.0
C107 C 0.76405 0.66926 0.57968 0.0
C108 C 0.76811 0.66212 0.59563 0.0
Zn109 Zn 0.73777 0.65492 0.62926 0.0
C110 C 0.84425 0.73089 0.64124 0.0
N111 N 0.74818 0.6499 0.67883 0.0
C112 C 0.71406 0.65197 0.68941 0.0
C113 C 0.79208 0.64754 0.68352 0.0
C114 C 0.80294 0.64674 0.69926 0.0
C115 C 0.76932 0.64998 0.71053 0.0
C116 C 0.72407 0.65234 0.7054 0.0
Zn117 Zn 0.73896 0.65349 0.65522 0.0
O118 O 0.71839 0.71565 0.63259 0.0
C119 C 0.63352 0.57401 0.64319 0.0
O120 O 0.71521 0.71013 0.65809 0.0
H121 H 0.81943 0.64689 0.67503 0.0
H122 H 0.65944 0.66391 0.6087 0.0
H123 H 0.67957 0.65423 0.68546 0.0
O124 O 0.65696 0.59586 0.6305 0.0
O125 O 0.65871 0.59071 0.65601 0.0
H126 H 0.80138 0.65849 0.59999 0.0
O127 O 0.76475 0.59802 0.65185 0.0
O128 O 0.75921 0.59553 0.62633 0.0
O129 O 0.81905 0.71524 0.65402 0.0
O130 O 0.81964 0.71251 0.62846 0.0
C131 C 0.77134 0.58094 0.6389 0.0
H132 H 0.64979 0.67703 0.58094 0.0
H133 H 0.7944 0.67113 0.57183 0.0
H134 H 0.83755 0.64353 0.70249 0.0
H135 H 0.69722 0.65553 0.71359 0.0
C136 C 0.96129 0.71355 0.14655 0.0
N137 N 0.05348 0.74226 0.10645 0.0
C138 C 0.00807 0.69874 0.10107 0.0
C139 C -0.00424 0.69309 0.08525 0.0
C140 C 0.03078 0.73221 0.07469 0.0
C141 C 0.07772 0.77668 0.08054 0.0
C142 C 0.08827 0.781 0.09655 0.0
Zn143 Zn 0.06579 0.74665 0.13004 0.0
C144 C 0.09401 0.849 0.14375 0.0
N145 N 0.0816 0.74599 0.1795 0.0
C146 C 0.04973 0.70595 0.18954 0.0
C147 C 0.12454 0.79224 0.18476 0.0
C148 C 0.1359 0.8004 0.2006 0.0
C149 C 0.10363 0.76017 0.21119 0.0
C150 C 0.06045 0.71207 0.20557 0.0
Zn151 Zn 0.06857 0.741 0.1559 0.0
O152 O -0.01523 0.72145 0.13349 0.0
C153 C 0.04512 0.64013 0.142 0.0
O154 O -0.01278 0.71825 0.15898 0.0
H155 H 0.15026 0.82322 0.17666 0.0
H156 H -0.01913 0.66828 0.10908 0.0
H157 H 0.01596 0.66943 0.18513 0.0
O158 O 0.04948 0.66729 0.12991 0.0
O159 O 0.04939 0.66078 0.15538 0.0
H160 H 0.12418 0.81526 0.10107 0.0
O161 O 0.14998 0.76499 0.15247 0.0
O162 O 0.14789 0.77391 0.12711 0.0
O163 O 0.08893 0.82166 0.15584 0.0
O164 O 0.08405 0.82671 0.13046 0.0
C165 C 0.17407 0.77813 0.13944 0.0
H166 H 0.9586 0.65866 0.08142 0.0
H167 H 0.10625 0.80757 0.07284 0.0
H168 H 0.16997 0.8377 0.20453 0.0
H169 H 0.0348 0.68019 0.21349 0.0
C170 C 0.23493 0.97467 0.64566 0.0
N171 N 0.304 0.0643 0.60566 0.0
C172 C 0.30041 0.01836 0.6002 0.0
C173 C 0.29326 0.00629 0.58436 0.0
C174 C 0.2903 0.04202 0.57388 0.0
C175 C 0.29464 0.08951 0.57981 0.0
C176 C 0.30138 0.09984 0.59583 0.0
Zn177 Zn 0.31172 0.0764 0.62926 0.0
C178 C 0.24234 0.11264 0.64254 0.0
N179 N 0.32629 0.09293 0.67879 0.0
C180 C 0.31946 0.05385 0.68897 0.0
C181 C 0.33649 0.14177 0.68398 0.0
C182 C 0.34087 0.15313 0.69985 0.0
C183 C 0.33352 0.11356 0.71059 0.0
C184 C 0.32242 0.06323 0.70505 0.0
Zn185 Zn 0.31899 0.08052 0.65513 0.0
O186 O 0.25289 -0.00331 0.63256 0.0
C187 C 0.39272 0.05002 0.64202 0.0
O188 O 0.25551 0.00118 0.65806 0.0
H189 H 0.34058 0.17204 0.67581 0.0
H190 H 0.30253 -0.00946 0.60817 0.0
H191 H 0.3112 0.01525 0.68464 0.0
O192 O 0.37265 0.05618 0.62955 0.0
O193 O 0.37525 0.05523 0.65511 0.0
H194 H 0.30433 0.13614 0.60041 0.0
O195 O 0.38139 0.15971 0.65163 0.0
O196 O 0.36941 0.157 0.62631 0.0
O197 O 0.26405 0.10767 0.65478 0.0
O198 O 0.25235 0.09886 0.62946 0.0
C199 C 0.39277 0.18311 0.63852 0.0
H200 H 0.28912 0.96873 0.58045 0.0
H201 H 0.29324 0.11858 0.57217 0.0
H202 H 0.34865 0.19213 0.70371 0.0
H203 H 0.3165 0.03175 0.71306 0.0
C204 C 0.72456 0.72291 0.38748 0.0
N205 N 0.65776 0.73902 0.42874 0.0
C206 C 0.66245 0.69684 0.43373 0.0
C207 C 0.66957 0.69068 0.44948 0.0
C208 C 0.67137 0.72791 0.46035 0.0
C209 C 0.66627 0.77109 0.45489 0.0
C210 C 0.65958 0.77596 0.43895 0.0
Zn211 Zn 0.64821 0.74436 0.40531 0.0
C212 C 0.71422 0.8513 0.39232 0.0
N213 N 0.62856 0.7486 0.35612 0.0
C214 C 0.6377 0.71837 0.34574 0.0
C215 C 0.61682 0.7864 0.35119 0.0
C216 C 0.61424 0.79523 0.33534 0.0
C217 C 0.62503 0.76579 0.32443 0.0
C218 C 0.63664 0.72674 0.32973 0.0
Zn219 Zn 0.63752 0.74267 0.37961 0.0
O220 O 0.70812 0.72501 0.40103 0.0
C221 C 0.56681 0.63699 0.39237 0.0
O222 O 0.7019 0.72938 0.37569 0.0
H223 H 0.61083 0.81094 0.35954 0.0
H224 H 0.66088 0.66785 0.42546 0.0
H225 H 0.647 0.68859 0.34987 0.0
O226 O 0.58791 0.66251 0.40488 0.0
O227 O 0.58278 0.66073 0.37935 0.0
H228 H 0.65571 0.80916 0.43474 0.0
O229 O 0.57444 0.75728 0.38404 0.0
O230 O 0.58957 0.76576 0.40923 0.0
O231 O 0.69085 0.82489 0.38016 0.0
O232 O 0.70671 0.82698 0.40523 0.0
C233 C 0.56437 0.76846 0.39747 0.0
H234 H 0.67432 0.65732 0.45304 0.0
H235 H 0.66679 0.80046 0.46285 0.0
H236 H 0.60585 0.82617 0.33166 0.0
H237 H 0.64507 0.70323 0.32159 0.0
C238 C -0.00428 0.7319 0.88936 0.0
N239 N 0.90361 0.66456 0.92939 0.0
C240 C 0.95029 0.66914 0.93469 0.0
C241 C 0.96338 0.67773 0.95044 0.0
C242 C 0.92785 0.68102 0.96095 0.0
C243 C 0.87923 0.67476 0.95529 0.0
C244 C 0.86799 0.66687 0.93934 0.0
Zn245 Zn 0.89108 0.65724 0.90582 0.0
C246 C 0.86295 0.73407 0.8931 0.0
N247 N 0.87621 0.64934 0.85623 0.0
C248 C 0.91312 0.65052 0.84606 0.0
C249 C 0.83009 0.64638 0.85103 0.0
C250 C 0.81917 0.64359 0.83516 0.0
C251 C 0.85666 0.64533 0.82446 0.0
C252 C 0.90433 0.64914 0.82998 0.0
Zn253 Zn 0.88844 0.65475 0.87987 0.0
O254 O 0.97224 0.71664 0.90244 0.0
C255 C 0.91113 0.5738 0.89265 0.0
O256 O 0.96989 0.71017 0.87697 0.0
H257 H 0.80181 0.64693 0.85919 0.0
H258 H 0.97791 0.66675 0.92664 0.0
H259 H 0.94962 0.65313 0.8504 0.0
O260 O 0.9105 0.59668 0.90522 0.0
O261 O 0.90361 0.59055 0.87973 0.0
H262 H 0.8312 0.66332 0.93487 0.0
O263 O 0.80629 0.6009 0.88326 0.0
O264 O 0.80934 0.59936 0.9088 0.0
O265 O 0.87207 0.71761 0.88041 0.0
O266 O 0.86879 0.71607 0.90599 0.0
C267 C 0.78243 0.58484 0.89624 0.0
H268 H 0.00087 0.68151 0.95439 0.0
H269 H 0.85087 0.67721 0.96306 0.0
H270 H 0.78235 0.64147 0.83126 0.0
H271 H 0.93415 0.6507 0.82197 0.0
C272 C 0.24669 -0.00281 0.38677 0.0
N273 N 0.22386 0.91433 0.42856 0.0
C274 C 0.26548 0.96174 0.43367 0.0
C275 C 0.26999 0.97562 0.44937 0.0
C276 C 0.23169 0.94017 0.46002 0.0
C277 C 0.18943 0.89116 0.45452 0.0
C278 C 0.18607 0.8791 0.43862 0.0
Zn279 Zn 0.2202 0.89848 0.4052 0.0
C280 C 0.11547 0.86149 0.39134 0.0
N281 N 0.21999 0.87315 0.35615 0.0
C282 C 0.25762 0.90631 0.34572 0.0
C283 C 0.17585 0.82702 0.35142 0.0
C284 C 0.16734 0.81336 0.33572 0.0
C285 C 0.205 0.84684 0.32459 0.0
C286 C 0.25103 0.89373 0.32981 0.0
Zn287 Zn 0.22481 0.89015 0.3795 0.0
O288 O 0.2416 0.97801 0.40037 0.0
C289 C 0.32835 0.92248 0.39348 0.0
O290 O 0.24202 0.96846 0.37501 0.0
H291 H 0.14639 0.80088 0.35984 0.0
H292 H 0.29543 -0.01099 0.42554 0.0
H293 H 0.29252 0.9427 0.34971 0.0
O294 O 0.30125 0.91886 0.40557 0.0
O295 O 0.30655 0.91466 0.38014 0.0
H296 H 0.15325 0.84169 0.43432 0.0
O297 O 0.20625 0.81161 0.3843 0.0
O298 O 0.19676 0.81779 0.40946 0.0
O299 O 0.14276 0.86467 0.37939 0.0
O300 O 0.13852 0.87605 0.4045 0.0
C301 C 0.19419 0.79002 0.39767 0.0
H302 H 0.30364 0.01342 0.45318 0.0
H303 H 0.15897 0.86285 0.46238 0.0
H304 H 0.13068 0.77745 0.33238 0.0
H305 H 0.28162 0.92051 0.32172 0.0
C306 C 0.23449 0.24963 0.88706 0.0
N307 N 0.30221 0.23416 0.92818 0.0
C308 C 0.29978 0.2775 0.9333 0.0
C309 C 0.29325 0.2839 0.94909 0.0
C310 C 0.28927 0.24543 0.95982 0.0
C311 C 0.29176 0.20092 0.95424 0.0
C312 C 0.29833 0.19607 0.93828 0.0
Zn313 Zn 0.31109 0.22831 0.90473 0.0
C314 C 0.24458 0.12121 0.89206 0.0
N315 N 0.32962 0.22247 0.85548 0.0
C316 C 0.32155 0.25297 0.84495 0.0
C317 C 0.3411 0.18429 0.85074 0.0
C318 C 0.34514 0.17574 0.83495 0.0
C319 C 0.33616 0.2059 0.82385 0.0
C320 C 0.32416 0.24494 0.82896 0.0
Zn321 Zn 0.32112 0.22925 0.879 0.0
O322 O 0.25157 0.24825 0.90057 0.0
C323 C 0.39254 0.33514 0.89156 0.0
O324 O 0.25656 0.24247 0.87521 0.0
H325 H 0.34622 0.15951 0.85919 0.0
H326 H 0.30268 0.30723 0.9251 0.0
H327 H 0.31234 0.28299 0.84893 0.0
O328 O 0.37176 0.3098 0.90411 0.0
O329 O 0.37607 0.3113 0.87856 0.0
H330 H 0.30038 0.16193 0.93396 0.0
O331 O 0.38431 0.21471 0.88333 0.0
O332 O 0.36936 0.20621 0.90853 0.0
O333 O 0.26776 0.14694 0.8798 0.0
O334 O 0.25225 0.14618 0.90486 0.0
C335 C 0.39438 0.20338 0.89672 0.0
H336 H 0.29063 0.31838 0.95281 0.0
H337 H 0.28937 0.17055 0.96212 0.0
H338 H 0.35371 0.14474 0.83143 0.0
H339 H 0.31707 0.26901 0.82069 0.0
C340 C 0.96421 0.2408 0.38833 0.0
N341 N 0.05489 0.30218 0.42884 0.0
C342 C 0.00878 0.29854 0.4343 0.0
C343 C -0.00409 0.28972 0.45006 0.0
C344 C 0.0311 0.28523 0.4604 0.0
C345 C 0.07898 0.29014 0.45457 0.0
C346 C 0.09 0.2983 0.43861 0.0
Zn347 Zn 0.06804 0.31223 0.40535 0.0
C348 C 0.09727 0.23847 0.39112 0.0
N349 N 0.08532 0.32911 0.35585 0.0
C350 C 0.0489 0.32834 0.3456 0.0
C351 C 0.13176 0.33263 0.35076 0.0
C352 C 0.14309 0.33537 0.33493 0.0
C353 C 0.10579 0.33308 0.32399 0.0
C354 C 0.05829 0.33011 0.32953 0.0
Zn355 Zn 0.07216 0.32061 0.37947 0.0
O356 O -0.01322 0.25507 0.40155 0.0
C357 C 0.04856 0.39855 0.39362 0.0
O358 O -0.00911 0.26343 0.37612 0.0
H359 H 0.15998 0.33229 0.35896 0.0
H360 H -0.01838 0.30225 0.4264 0.0
H361 H 0.01204 0.32517 0.34986 0.0
O362 O 0.05069 0.37467 0.40578 0.0
O363 O 0.05468 0.38297 0.38031 0.0
H364 H 0.12636 0.3012 0.43402 0.0
O365 O 0.15387 0.37572 0.3833 0.0
O366 O 0.15003 0.36817 0.40878 0.0
O367 O 0.09107 0.25996 0.37905 0.0
O368 O 0.08792 0.25112 0.40446 0.0
C369 C 0.17724 0.38737 0.39642 0.0
H370 H 0.95901 0.287 0.45415 0.0
H371 H 0.10704 0.28675 0.46221 0.0
H372 H 0.18084 0.33896 0.33136 0.0
H373 H 0.02804 0.32776 0.32156 0.0
C374 C 0.71279 0.97387 0.88839 0.0
N375 N 0.73366 0.06164 0.92879 0.0
C376 C 0.69085 0.01523 0.93395 0.0
C377 C 0.68494 0.00231 0.94971 0.0
C378 C 0.72305 0.03769 0.96045 0.0
C379 C 0.76681 0.08559 0.95484 0.0
C380 C 0.77142 0.09678 0.93887 0.0
Zn381 Zn 0.7386 0.07511 0.9053 0.0
C382 C 0.84342 0.11142 0.89189 0.0
N383 N 0.73974 0.09343 0.85596 0.0
C384 C 0.70918 0.05499 0.84536 0.0
C385 C 0.77925 0.14271 0.8513 0.0
C386 C 0.78959 0.1549 0.83557 0.0
C387 C 0.76014 0.1157 0.8243 0.0
C388 C 0.71889 0.06525 0.82938 0.0
Zn389 Zn 0.73346 0.07936 0.87952 0.0
O390 O 0.7176 -0.00432 0.90156 0.0
C391 C 0.62992 0.04835 0.89287 0.0
O392 O 0.71768 0.00036 0.87609 0.0
H393 H 0.80397 0.17264 0.85979 0.0
H394 H 0.6612 -0.01224 0.92578 0.0
H395 H 0.67823 0.01593 0.84928 0.0
O396 O 0.6575 0.05467 0.90506 0.0
O397 O 0.65133 0.05352 0.87955 0.0
H398 H 0.80512 0.13348 0.93453 0.0
O399 O 0.75023 0.15836 0.88352 0.0
O400 O 0.76167 0.15557 0.9087 0.0
O401 O 0.81593 0.10673 0.87985 0.0
O402 O 0.82039 0.09768 0.90508 0.0
C403 C 0.76317 0.18167 0.89665 0.0
H404 H 0.65112 0.96447 0.95338 0.0
H405 H 0.79689 0.11438 0.9627 0.0
H406 H 0.82088 0.19475 0.83232 0.0
H407 H 0.69537 0.03351 0.82117 0.0
H408 H 0.10332 0.91981 0.1212 0.0
H409 H 0.1402 0.90997 0.16947 0.0
H410 H 0.1497 0.0171 0.12325 0.0
H411 H 0.18838 0.00698 0.17132 0.0
H412 H 0.20277 0.17459 0.17208 0.0
H413 H 0.17131 0.07928 0.17189 0.0
H414 H 0.23805 0.0938 0.12582 0.0
H415 H 0.26769 0.18905 0.12579 0.0
C416 C 0.12128 0.93844 0.13223 0.0
C417 C 0.1178 0.90733 0.14518 0.0
C418 C 0.14854 -0.00585 0.13336 0.0
C419 C 0.17336 0.01976 0.14741 0.0
C420 C 0.1694 -0.01151 0.16038 0.0
C421 C 0.14164 0.93286 0.1593 0.0
C422 C 0.21215 0.15777 0.1621 0.0
C423 C 0.23675 0.1889 0.14883 0.0
C424 C 0.19402 0.10304 0.16197 0.0
C425 C 0.20094 0.07879 0.14866 0.0
C426 C 0.23061 0.11112 0.13605 0.0
C427 C 0.24816 0.16572 0.1361 0.0
H428 H 0.23794 0.17043 0.66686 0.0
H429 H 0.17716 0.11784 0.62029 0.0
H430 H 0.19082 0.2203 0.66823 0.0
H431 H 0.12786 0.16596 0.62191 0.0
H432 H 0.06819 0.27877 0.62321 0.0
H433 H 0.13671 0.25288 0.62265 0.0
H434 H 0.10164 0.20247 0.67071 0.0
H435 H 0.03498 0.23025 0.67142 0.0
C436 C 0.21385 0.16893 0.65698 0.0
C437 C 0.21068 0.13973 0.64351 0.0
C438 C 0.18696 0.19768 0.65776 0.0
C439 C 0.15572 0.19733 0.64518 0.0
C440 C 0.15255 0.16806 0.6317 0.0
C441 C 0.1801 0.13982 0.63083 0.0
C442 C 0.07649 0.26383 0.63379 0.0
C443 C 0.04567 0.25565 0.64728 0.0
C444 C 0.11522 0.24838 0.63341 0.0
C445 C 0.12344 0.22411 0.64648 0.0
C446 C 0.09637 0.221 0.66042 0.0
C447 C 0.05808 0.23702 0.66085 0.0
H448 H 0.77309 0.07 0.12136 0.0
H449 H 0.79004 0.04717 0.17032 0.0
H450 H 0.86674 0.14126 0.12039 0.0
H451 H 0.8838 0.11683 0.16925 0.0
H452 H 0.04518 0.18641 0.11955 0.0
H453 H 0.94733 0.13577 0.12082 0.0
H454 H 0.95256 0.20717 0.16556 0.0
H455 H 0.05005 0.25592 0.16456 0.0
C456 C 0.79648 0.08112 0.132 0.0
C457 C 0.77464 0.05246 0.14585 0.0
C458 C 0.85022 0.1215 0.1314 0.0
C459 C 0.88305 0.13361 0.14462 0.0
C460 C 0.85967 0.10855 0.15884 0.0
C461 C 0.80579 0.06853 0.15947 0.0
C462 C 0.02531 0.19112 0.12964 0.0
C463 C 0.05518 0.22436 0.14204 0.0
C464 C 0.96927 0.16273 0.1303 0.0
C465 C 0.94214 0.16761 0.14329 0.0
C466 C 0.9722 0.20196 0.1555 0.0
C467 C 0.0281 0.22978 0.15492 0.0
H468 H 0.69092 0.78169 0.62196 0.0
H469 H 0.73254 0.79664 0.67079 0.0
H470 H 0.71777 0.87625 0.62118 0.0
H471 H 0.76147 0.89109 0.66988 0.0
H472 H 0.79776 0.05936 0.66583 0.0
H473 H 0.74558 0.96249 0.66679 0.0
H474 H 0.80502 0.95429 0.62118 0.0
H475 H 0.85525 0.05199 0.6199 0.0
C476 C 0.70452 0.80489 0.63262 0.0
C477 C 0.71063 0.78219 0.64637 0.0
C478 C 0.72054 0.85914 0.63212 0.0
C479 C 0.7433 0.89151 0.64533 0.0
C480 C 0.74412 0.8674 0.65947 0.0
C481 C 0.72746 0.81307 0.66001 0.0
C482 C 0.80001 0.03691 0.65602 0.0
C483 C 0.83127 0.06309 0.64286 0.0
C484 C 0.76987 0.98132 0.65657 0.0
C485 C 0.77107 0.95058 0.64409 0.0
C486 C 0.80233 0.97682 0.63088 0.0
C487 C 0.8318 0.03268 0.63021 0.0
H488 H 0.89773 0.70294 0.12192 0.0
H489 H 0.90749 0.72052 0.172 0.0
H490 H 0.83387 0.73348 0.12105 0.0
H491 H 0.83986 0.74765 0.17129 0.0
H492 H 0.80324 0.88191 0.16198 0.0
H493 H 0.84739 0.82912 0.16433 0.0
H494 H 0.75458 0.73155 0.12526 0.0
H495 H 0.71393 0.78723 0.1223 0.0
C496 C 0.88452 0.71128 0.13285 0.0
C497 C 0.90904 0.71121 0.14698 0.0
C498 C 0.84743 0.72864 0.13236 0.0
C499 C 0.83303 0.74499 0.14607 0.0
C500 C 0.85186 0.73754 0.16045 0.0
C501 C 0.88992 0.72108 0.1609 0.0
C502 C 0.7933 0.84976 0.15375 0.0
C503 C 0.75649 0.83935 0.14173 0.0
C504 C 0.81759 0.81866 0.15528 0.0
C505 C 0.80425 0.77552 0.14508 0.0
C506 C 0.76666 0.76492 0.13316 0.0
C507 C 0.7436 0.797 0.13138 0.0
H508 H 0.90592 0.80902 0.66186 0.0
H509 H 0.91359 0.72191 0.62201 0.0
H510 H 0.00343 0.85627 0.66393 0.0
H511 H 0.01074 0.76585 0.62467 0.0
H512 H 0.18036 0.91272 0.62093 0.0
H513 H 0.08604 0.84729 0.62027 0.0
H514 H 0.07962 0.85165 0.67058 0.0
H515 H 0.17426 0.92075 0.67111 0.0
C516 C 0.92877 0.80018 0.65355 0.0
C517 C 0.90285 0.76307 0.64156 0.0
C518 C -0.0155 0.82629 0.65491 0.0
C519 C 0.01515 0.81458 0.64455 0.0
C520 C -0.01132 0.77665 0.63268 0.0
C521 C 0.9331 0.75169 0.63108 0.0
C522 C 0.15923 0.89898 0.63191 0.0
C523 C 0.18423 0.92315 0.64604 0.0
C524 C 0.10487 0.86094 0.63154 0.0
C525 C 0.07464 0.84531 0.64535 0.0
C526 C 0.10134 0.86445 0.65967 0.0
C527 C 0.15574 0.90344 0.66002 0.0
H528 H 0.05416 0.81005 0.36608 0.0
H529 H 0.04421 0.85412 0.4136 0.0
H530 H 0.95679 0.76235 0.36416 0.0
H531 H 0.94666 0.8079 0.41148 0.0
H532 H 0.7914 0.7557 0.3624 0.0
H533 H 0.88617 0.78313 0.36279 0.0
H534 H 0.86847 0.71957 0.40935 0.0
H535 H 0.77388 0.69373 0.40915 0.0
C536 C 0.03118 0.81007 0.37607 0.0
C537 C 0.05677 0.83611 0.38998 0.0
C538 C 0.97538 0.7826 0.37496 0.0
C539 C 0.94405 0.78097 0.38769 0.0
C540 C 0.96969 0.80737 0.40157 0.0
C541 C 0.02555 0.83448 0.40273 0.0
C542 C 0.80734 0.74606 0.37253 0.0
C543 C 0.77569 0.72361 0.38586 0.0
C544 C 0.86173 0.76186 0.37276 0.0
C545 C 0.88501 0.75478 0.38628 0.0
C546 C 0.8519 0.72701 0.39897 0.0
C547 C 0.79768 0.71171 0.39879 0.0
H548 H 0.06626 0.78193 0.91313 0.0
H549 H 0.04174 0.79549 0.86407 0.0
H550 H 0.13613 0.87599 0.91372 0.0
H551 H 0.1098 0.88956 0.86478 0.0
H552 H 0.17625 0.05211 0.91406 0.0
H553 H 0.12767 0.95449 0.91303 0.0
H554 H 0.19904 0.96044 0.8682 0.0
H555 H 0.24551 0.05758 0.86894 0.0
C556 C 0.07679 0.80467 0.90239 0.0
C557 C 0.04791 0.78177 0.88862 0.0
C558 C 0.11632 0.85864 0.90277 0.0
C559 C 0.1273 0.89059 0.88943 0.0
C560 C 0.10235 0.86617 0.87529 0.0
C561 C 0.06324 0.81208 0.87487 0.0
C562 C 0.18125 0.03242 0.90398 0.0
C563 C 0.21387 0.06235 0.89149 0.0
C564 C 0.15411 0.97655 0.90347 0.0
C565 C 0.15975 0.94968 0.89055 0.0
C566 C 0.19328 0.97985 0.87822 0.0
C567 C 0.21976 0.03555 0.87864 0.0
H568 H 0.1449 0.22667 0.36532 0.0
H569 H 0.10875 0.17746 0.41344 0.0
H570 H 0.19553 0.18058 0.36315 0.0
H571 H 0.1576 0.1291 0.41106 0.0
H572 H 0.27596 0.07684 0.40809 0.0
H573 H 0.24638 0.14245 0.40833 0.0
H574 H 0.18084 0.09235 0.36205 0.0
H575 H 0.21232 0.0286 0.3616 0.0
C576 C 0.14696 0.20517 0.37538 0.0
C577 C 0.1225 0.20529 0.38955 0.0
C578 C 0.17619 0.1789 0.37413 0.0
C579 C 0.18105 0.15159 0.38695 0.0
C580 C 0.15577 0.15093 0.40106 0.0
C581 C 0.12705 0.17786 0.40238 0.0
C582 C 0.25695 0.08134 0.39777 0.0
C583 C 0.24561 0.04717 0.38492 0.0
C584 C 0.23935 0.11831 0.39799 0.0
C585 C 0.20971 0.12128 0.38543 0.0
C586 C 0.20345 0.09102 0.37194 0.0
C587 C 0.22167 0.05452 0.37165 0.0
H588 H 0.16641 0.2157 0.86226 0.0
H589 H 0.18608 0.2797 0.90885 0.0
H590 H 0.07172 0.1885 0.86296 0.0
H591 H 0.09155 0.25408 0.90937 0.0
H592 H 0.91527 0.12049 0.91419 0.0
H593 H 0.01281 0.16649 0.91188 0.0
H594 H 0.00159 0.20972 0.86441 0.0
H595 H 0.9043 0.16224 0.86653 0.0
C596 C 0.15095 0.22582 0.87241 0.0
C597 C 0.18325 0.24886 0.88561 0.0
C598 C 0.09659 0.21015 0.87284 0.0
C599 C 0.07392 0.21791 0.8864 0.0
C600 C 0.10762 0.24611 0.89895 0.0
C601 C 0.16182 0.2613 0.89858 0.0
C602 C 0.93371 0.13962 0.90326 0.0
C603 C 0.90219 0.13727 0.89052 0.0
C604 C -0.01043 0.16659 0.90198 0.0
C605 C 0.01491 0.19216 0.88798 0.0
C606 C -0.01673 0.19004 0.87529 0.0
C607 C 0.9275 0.1627 0.87652 0.0
H608 H 0.92188 0.17552 0.36313 0.0
H609 H 0.89047 0.19228 0.41142 0.0
H610 H 0.854 0.08124 0.36398 0.0
H611 H 0.82098 0.09809 0.41214 0.0
H612 H 0.78047 0.92208 0.41442 0.0
H613 H 0.82984 0.01963 0.41275 0.0
H614 H 0.76398 0.01048 0.36686 0.0
H615 H 0.71661 0.91344 0.36828 0.0
C616 C 0.89887 0.15958 0.37374 0.0
C617 C 0.91212 0.19088 0.38729 0.0
C618 C 0.85994 0.10539 0.37425 0.0
C619 C 0.83317 0.08187 0.38827 0.0
C620 C 0.84219 0.11474 0.40131 0.0
C621 C 0.88148 0.16879 0.40084 0.0
C622 C 0.77682 0.94102 0.40398 0.0
C623 C 0.74538 0.91017 0.39142 0.0
C624 C 0.80444 -0.00313 0.40308 0.0
C625 C 0.80055 0.02283 0.38968 0.0
C626 C 0.76834 -0.00822 0.37725 0.0
C627 C 0.74131 0.93611 0.37807 0.0
H628 H 0.88072 0.81276 0.87257 0.0
H629 H 0.78297 0.72363 0.9118 0.0
H630 H 0.83016 0.85935 0.87027 0.0
H631 H 0.72941 0.76659 0.90885 0.0
H632 H 0.70377 0.91048 0.9128 0.0
H633 H 0.73415 0.84666 0.91344 0.0
H634 H 0.74993 0.85507 0.86323 0.0
H635 H 0.72295 0.92274 0.86278 0.0
C636 C 0.84834 0.80336 0.88069 0.0
C637 C 0.83646 0.76596 0.8926 0.0
C638 C 0.81855 0.82908 0.8792 0.0
C639 C 0.77526 0.81657 0.88931 0.0
C640 C 0.76304 0.77818 0.90106 0.0
C641 C 0.79386 0.75373 0.90282 0.0
C642 C 0.71258 0.89796 0.90183 0.0
C643 C 0.71265 0.92288 0.88778 0.0
C644 C 0.72979 0.86084 0.90218 0.0
C645 C 0.74616 0.84676 0.88842 0.0
C646 C 0.73962 0.86664 0.87412 0.0
C647 C 0.72332 0.90476 0.87381 0.0
H648 H 0.05391 0.59516 0.11509 0.0
H649 H 0.04236 0.57361 0.16506 0.0
H650 H 0.08784 0.53379 0.11286 0.0
H651 H 0.07407 0.51002 0.16271 0.0
H652 H 0.21498 0.4836 0.15666 0.0
H653 H 0.16426 0.53002 0.15741 0.0
H654 H 0.08029 0.44778 0.11542 0.0
H655 H 0.13277 0.40269 0.1144 0.0
C656 C 0.05673 0.5758 0.12556 0.0
C657 C 0.0471 0.59044 0.14032 0.0
C658 C 0.07613 0.54047 0.12425 0.0
C659 C 0.0854 0.5186 0.13767 0.0
C660 C 0.06919 0.52795 0.15222 0.0
C661 C 0.05039 0.56382 0.15356 0.0
C662 C 0.18636 0.47621 0.14745 0.0
C663 C 0.17787 0.43984 0.13545 0.0
C664 C 0.15658 0.50198 0.14802 0.0
C665 C 0.11718 0.49137 0.13671 0.0
C666 C 0.11025 0.45662 0.12432 0.0
C667 C 0.14059 0.43122 0.12366 0.0
H668 H 0.71608 0.19814 0.61634 0.0
H669 H 0.71741 0.11938 0.6589 0.0
H670 H 0.61772 0.14789 0.61653 0.0
H671 H 0.62021 0.0671 0.65867 0.0
H672 H 0.44218 0.0399 0.6161 0.0
H673 H 0.5362 0.06403 0.61421 0.0
H674 H 0.55162 0.08499 0.66419 0.0
H675 H 0.4579 0.05884 0.66611 0.0
C676 C 0.69522 0.16975 0.62562 0.0
C677 C 0.72392 0.16376 0.63785 0.0
C678 C 0.63905 0.14038 0.62565 0.0
C679 C 0.61102 0.10371 0.63772 0.0
C680 C 0.64033 0.09594 0.64945 0.0
C681 C 0.69606 0.12608 0.64961 0.0
C682 C 0.46533 0.04796 0.62672 0.0
C683 C 0.44301 0.0485 0.64123 0.0
C684 C 0.51933 0.06241 0.62561 0.0
C685 C 0.55181 0.0778 0.63898 0.0
C686 C 0.52792 0.07323 0.65362 0.0
C687 C 0.47395 0.05828 0.65474 0.0
H688 H 0.50537 0.71991 0.11675 0.0
H689 H 0.58435 0.72336 0.15983 0.0
H690 H 0.45794 0.62197 0.11713 0.0
H691 H 0.53999 0.62647 0.15979 0.0
H692 H 0.38597 0.46314 0.16672 0.0
H693 H 0.45355 0.55673 0.16497 0.0
H694 H 0.46172 0.54158 0.11506 0.0
H695 H 0.39178 0.44769 0.11677 0.0
C696 C 0.51281 0.69965 0.1262 0.0
C697 C 0.54718 0.72892 0.13847 0.0
C698 C 0.48639 0.64367 0.12633 0.0
C699 C 0.49495 0.61626 0.13856 0.0
C700 C 0.53141 0.64608 0.15041 0.0
C701 C 0.55671 0.70167 0.15045 0.0
C702 C 0.40321 0.47921 0.15541 0.0
C703 C 0.3826 0.44836 0.14185 0.0
C704 C 0.44224 0.53314 0.15439 0.0
C705 C 0.46216 0.55711 0.1398 0.0
C706 C 0.44593 0.52468 0.12642 0.0
C707 C 0.40638 0.47072 0.12743 0.0
H708 H 0.76743 0.51074 0.61668 0.0
H709 H 0.84149 0.58512 0.66042 0.0
H710 H 0.81509 0.46049 0.61716 0.0
H711 H 0.8911 0.5379 0.6605 0.0
H712 H 0.92444 0.39392 0.61711 0.0
H713 H 0.89916 0.46269 0.6155 0.0
H714 H 0.87079 0.45015 0.66519 0.0
H715 H 0.89805 0.38366 0.66687 0.0
C716 C 0.79418 0.51656 0.62629 0.0
C717 C 0.79974 0.55058 0.63869 0.0
C718 C 0.82205 0.48847 0.6265 0.0
C719 C 0.85673 0.49494 0.63895 0.0
C720 C 0.8638 0.53091 0.65095 0.0
C721 C 0.83521 0.55791 0.65091 0.0
C722 C 0.91439 0.40716 0.62775 0.0
C723 C 0.91244 0.38283 0.64209 0.0
C724 C 0.89926 0.44605 0.62679 0.0
C725 C 0.88178 0.46107 0.64014 0.0
C726 C 0.88428 0.43989 0.65465 0.0
C727 C 0.89986 0.40151 0.65563 0.0
H728 H 0.50871 0.91082 0.11674 0.0
H729 H 0.50649 0.92053 0.16696 0.0
H730 H 0.41444 0.88352 0.11582 0.0
H731 H 0.41225 0.89599 0.16598 0.0
H732 H 0.23696 0.76609 0.16062 0.0
H733 H 0.3344 0.81256 0.16144 0.0
H734 H 0.34128 0.89686 0.11909 0.0
H735 H 0.24334 0.84796 0.11791 0.0
C736 C 0.48855 0.90897 0.12758 0.0
C737 C 0.51466 0.9165 0.14197 0.0
C738 C 0.4343 0.89345 0.12703 0.0
C739 C 0.40531 0.88609 0.14086 0.0
C740 C 0.43303 0.89947 0.15514 0.0
C741 C 0.48718 0.91417 0.15571 0.0
C742 C 0.25939 0.79422 0.15142 0.0
C743 C 0.23281 0.80308 0.13911 0.0
C744 C 0.31527 0.82158 0.15201 0.0
C745 C 0.34584 0.85917 0.14046 0.0
C746 C 0.31904 0.86789 0.12811 0.0
C747 C 0.263 0.83975 0.12738 0.0
H748 H 0.57277 0.51232 0.66757 0.0
H749 H 0.57949 0.51943 0.61727 0.0
H750 H 0.50581 0.41738 0.66619 0.0
H751 H 0.5155 0.42465 0.6159 0.0
H752 H 0.38722 0.25068 0.61764 0.0
H753 H 0.43172 0.34793 0.61942 0.0
H754 H 0.51764 0.34405 0.66028 0.0
H755 H 0.47081 0.24683 0.65893 0.0
C756 C 0.55909 0.49394 0.65624 0.0
C757 C 0.58241 0.5229 0.64255 0.0
C758 C 0.5213 0.43943 0.65543 0.0
C759 C 0.5069 0.41304 0.64095 0.0
C760 C 0.52578 0.44347 0.62726 0.0
C761 C 0.56278 0.49803 0.62806 0.0
C762 C 0.41622 0.27087 0.62686 0.0
C763 C 0.42612 0.24158 0.63808 0.0
C764 C 0.44141 0.3265 0.62796 0.0
C765 C 0.47768 0.35381 0.64013 0.0
C766 C 0.48866 0.32428 0.65105 0.0
C767 C 0.46272 0.26869 0.65012 0.0
H768 H 0.39831 0.93157 0.37057 0.0
H769 H 0.37296 0.91284 0.42035 0.0
H770 H 0.46361 0.90179 0.37257 0.0
H771 H 0.43605 0.8808 0.42221 0.0
H772 H 0.56612 0.83476 0.42035 0.0
H773 H 0.52234 0.88846 0.41976 0.0
H774 H 0.44351 0.81139 0.37668 0.0
H775 H 0.48866 0.75948 0.37701 0.0
C776 C 0.40771 0.92248 0.38198 0.0
C777 C 0.37944 0.92301 0.39523 0.0
C778 C 0.44458 0.90481 0.3831 0.0
C779 C 0.45321 0.88689 0.39745 0.0
C780 C 0.42994 0.89382 0.41096 0.0
C781 C 0.39364 0.9122 0.40988 0.0
C782 C 0.53871 0.8288 0.41091 0.0
C783 C 0.53056 0.79295 0.39874 0.0
C784 C 0.51406 0.85985 0.4105 0.0
C785 C 0.48051 0.85511 0.39798 0.0
C786 C 0.47064 0.81741 0.3862 0.0
C787 C 0.49567 0.78692 0.38652 0.0
H788 H 0.71749 0.59239 0.87507 0.0
H789 H 0.7148 0.51418 0.91817 0.0
H790 H 0.62021 0.54623 0.87485 0.0
H791 H 0.61652 0.46509 0.91756 0.0
H792 H 0.44083 0.39647 0.91731 0.0
H793 H 0.53462 0.46699 0.91931 0.0
H794 H 0.55216 0.45887 0.86951 0.0
H795 H 0.45862 0.39053 0.86747 0.0
C796 C 0.6959 0.56462 0.88441 0.0
C797 C 0.72346 0.55575 0.89647 0.0
C798 C 0.64009 0.53828 0.88431 0.0
C799 C 0.61043 0.50148 0.89607 0.0
C800 C 0.63812 0.49372 0.90841 0.0
C801 C 0.69429 0.52115 0.90868 0.0
C802 C 0.46437 0.4111 0.90674 0.0
C803 C 0.44267 0.38728 0.89226 0.0
C804 C 0.51826 0.45102 0.90792 0.0
C805 C 0.55128 0.46761 0.89465 0.0
C806 C 0.52802 0.44732 0.88 0.0
C807 C 0.47417 0.40787 0.87881 0.0
H808 H 0.12777 0.72299 0.42031 0.0
H809 H 0.20687 0.72576 0.37725 0.0
H810 H 0.07829 0.62505 0.41968 0.0
H811 H 0.1592 0.62861 0.37686 0.0
H812 H 0.0603 0.45435 0.42034 0.0
H813 H 0.09077 0.54922 0.42218 0.0
H814 H 0.0704 0.55482 0.37248 0.0
H815 H 0.0421 0.4601 0.37052 0.0
C816 C 0.13537 0.70262 0.4109 0.0
C817 C 0.17107 0.73177 0.39882 0.0
C818 C 0.10681 0.64665 0.41048 0.0
C819 C 0.11391 0.6191 0.39803 0.0
C820 C 0.15137 0.64855 0.38633 0.0
C821 C 0.17937 0.70423 0.38668 0.0
C822 C 0.06095 0.47543 0.40984 0.0
C823 C 0.05018 0.45013 0.39521 0.0
C824 C 0.07838 0.52992 0.41092 0.0
C825 C 0.08459 0.55983 0.39742 0.0
C826 C 0.06777 0.53309 0.38303 0.0
C827 C 0.05099 0.47873 0.38192 0.0
H828 H 0.58295 0.05612 0.91952 0.0
H829 H 0.56198 0.0413 0.86955 0.0
H830 H 0.52012 0.08844 0.92121 0.0
H831 H 0.49676 0.07125 0.87135 0.0
H832 H 0.47059 0.2129 0.87633 0.0
H833 H 0.51554 0.16079 0.87584 0.0
H834 H 0.43477 0.08163 0.91849 0.0
H835 H 0.39135 0.13563 0.91927 0.0
C836 C 0.56332 0.05773 0.90894 0.0
C837 C 0.57874 0.04791 0.89432 0.0
C838 C 0.52711 0.07624 0.90993 0.0
C839 C 0.50504 0.0843 0.89634 0.0
C840 C 0.51485 0.0674 0.88197 0.0
C841 C 0.55166 0.04957 0.88095 0.0
C842 C 0.46314 0.18496 0.88572 0.0
C843 C 0.4279 0.17852 0.89789 0.0
C844 C 0.48804 0.15433 0.8853 0.0
C845 C 0.47764 0.11604 0.89692 0.0
C846 C 0.44357 0.11075 0.90936 0.0
C847 C 0.4191 0.14198 0.90988 0.0
H848 H 0.24419 0.45653 0.41873 0.0
H849 H 0.24241 0.38019 0.37532 0.0
H850 H 0.34249 0.50545 0.41836 0.0
H851 H 0.33971 0.42576 0.37536 0.0
H852 H 0.51829 0.57611 0.41818 0.0
H853 H 0.42465 0.50511 0.4201 0.0
H854 H 0.40798 0.51227 0.37023 0.0
H855 H 0.50133 0.58075 0.36828 0.0
C856 C 0.26496 0.44992 0.40923 0.0
C857 C 0.23613 0.41608 0.39683 0.0
C858 C 0.32115 0.47721 0.40909 0.0
C859 C 0.34913 0.46989 0.39673 0.0
C860 C 0.31968 0.43355 0.38482 0.0
C861 C 0.26389 0.40753 0.38477 0.0
C862 C 0.49497 0.56112 0.40759 0.0
C863 C 0.51685 0.5847 0.39311 0.0
C864 C 0.44115 0.52093 0.40871 0.0
C865 C 0.40834 0.50392 0.3954 0.0
C866 C 0.43186 0.52404 0.38077 0.0
C867 C 0.48565 0.56364 0.37963 0.0
H868 H 0.90527 0.5178 0.91875 0.0
H869 H 0.91089 0.51177 0.86851 0.0
H870 H 0.87396 0.42294 0.92009 0.0
H871 H 0.88218 0.41683 0.8699 0.0
H872 H 0.74852 0.24455 0.87612 0.0
H873 H 0.79659 0.34182 0.87519 0.0
H874 H 0.88396 0.34772 0.91683 0.0
H875 H 0.83367 0.2502 0.91814 0.0
C876 C 0.90168 0.49661 0.90799 0.0
C877 C 0.90919 0.52192 0.89348 0.0
C878 C 0.88379 0.44203 0.90878 0.0
C879 C 0.874 0.41193 0.89508 0.0
C880 C 0.88748 0.4386 0.88065 0.0
C881 C 0.90461 0.49312 0.87984 0.0
C882 C 0.77747 0.26676 0.88519 0.0
C883 C 0.78707 0.24006 0.89728 0.0
C884 C 0.80575 0.32247 0.88451 0.0
C885 C 0.84495 0.35264 0.89577 0.0
C886 C 0.85386 0.32576 0.90803 0.0
C887 C 0.82485 0.26995 0.90884 0.0
H888 H 0.15577 0.28553 0.3094 0.0
H889 H 0.07992 0.37924 0.29995 0.0
H890 H 0.17965 0.29008 0.28225 0.0
H891 H 0.09977 0.37975 0.27236 0.0
H892 H 0.19298 0.42045 0.2267 0.0
H893 H 0.1697 0.41756 0.25415 0.0
H894 H 0.14715 0.25801 0.25761 0.0
H895 H 0.17325 0.2626 0.23043 0.0
C896 C 0.14401 0.30711 0.30154 0.0
C897 C 0.11656 0.33276 0.30701 0.0
C898 C 0.15692 0.30885 0.28581 0.0
C899 C 0.14176 0.33529 0.27498 0.0
C900 C 0.11303 0.3598 0.28036 0.0
C901 C 0.10082 0.35878 0.29619 0.0
C902 C 0.18333 0.38502 0.23343 0.0
C903 C 0.18532 0.34194 0.22654 0.0
C904 C 0.16947 0.38304 0.24912 0.0
C905 C 0.15636 0.3375 0.25821 0.0
C906 C 0.15807 0.29427 0.25117 0.0
C907 C 0.17288 0.29671 0.23556 0.0
H908 H 0.91412 0.19655 0.73276 0.0
H909 H 0.76318 0.19136 0.72592 0.0
H910 H 0.89147 0.17229 0.76003 0.0
H911 H 0.74129 0.16992 0.75337 0.0
H912 H 0.69179 0.08064 0.79908 0.0
H913 H 0.71476 0.10157 0.77173 0.0
H914 H 0.88194 0.20211 0.78423 0.0
H915 H 0.8597 0.17747 0.81125 0.0
C916 C 0.87653 0.19121 0.73723 0.0
C917 C 0.8404 0.19582 0.72731 0.0
C918 C 0.86347 0.17742 0.75287 0.0
C919 C 0.81434 0.1689 0.759 0.0
C920 C 0.77886 0.17487 0.74905 0.0
C921 C 0.79156 0.1877 0.73336 0.0
C922 C 0.73356 0.10643 0.79597 0.0
C923 C 0.77371 0.12761 0.80748 0.0
C924 C 0.74671 0.11922 0.78027 0.0
C925 C 0.80027 0.15402 0.77568 0.0
C926 C 0.84036 0.17474 0.7872 0.0
C927 C 0.82736 0.1613 0.80282 0.0
H928 H 0.68884 0.81165 0.22501 0.0
H929 H 0.59193 0.88428 0.23434 0.0
H930 H 0.68282 0.78646 0.25208 0.0
H931 H 0.59013 0.86339 0.26183 0.0
H932 H 0.54777 0.76979 0.30716 0.0
H933 H 0.55193 0.79326 0.2797 0.0
H934 H 0.71262 0.81701 0.27696 0.0
H935 H 0.70665 0.7905 0.30413 0.0
C936 C 0.66629 0.82246 0.23283 0.0
C937 C 0.64018 0.8494 0.22733 0.0
C938 C 0.66368 0.8088 0.24851 0.0
C939 C 0.63592 0.8227 0.25928 0.0
C940 C 0.61104 0.851 0.25388 0.0
C941 C 0.61286 0.86388 0.2381 0.0
C942 C 0.58369 0.77966 0.30056 0.0
C943 C 0.62671 0.77796 0.30765 0.0
C944 C 0.58641 0.79366 0.28488 0.0
C945 C 0.63271 0.80733 0.276 0.0
C946 C 0.67582 0.80572 0.28323 0.0
C947 C 0.6726 0.79069 0.29883 0.0
H948 H 0.69931 0.60715 0.73526 0.0
H949 H 0.86881 0.69621 0.72428 0.0
H950 H 0.72104 0.60792 0.76262 0.0
H951 H 0.89033 0.69224 0.75124 0.0
H952 H 0.91674 0.72164 0.80312 0.0
H953 H 0.89489 0.72518 0.77589 0.0
H954 H 0.75135 0.56978 0.7807 0.0
H955 H 0.77202 0.56858 0.80818 0.0
C956 C 0.7412 0.62685 0.73862 0.0
C957 C 0.78215 0.65121 0.72741 0.0
C958 C 0.75374 0.62643 0.75434 0.0
C959 C 0.80757 0.64963 0.75926 0.0
C960 C 0.84843 0.67445 0.74806 0.0
C961 C 0.83594 0.6758 0.73243 0.0
C962 C 0.8808 0.68823 0.79823 0.0
C963 C 0.84611 0.6448 0.80762 0.0
C964 C 0.86821 0.69001 0.78261 0.0
C965 C 0.82114 0.64777 0.77595 0.0
C966 C 0.78722 0.60367 0.7854 0.0
C967 C 0.79929 0.60254 0.8011 0.0
H968 H 0.12613 0.7011 0.23133 0.0
H969 H 0.10916 0.84095 0.22867 0.0
H970 H 0.15503 0.72227 0.25844 0.0
H971 H 0.13484 0.86087 0.25592 0.0
H972 H 0.2304 0.91586 0.29985 0.0
H973 H 0.20799 0.89362 0.2726 0.0
H974 H 0.12925 0.72499 0.28389 0.0
H975 H 0.15598 0.74731 0.31085 0.0
C976 C 0.12763 0.73578 0.23671 0.0
C977 C 0.11557 0.76946 0.22801 0.0
C978 C 0.14407 0.748 0.25224 0.0
C979 C 0.14785 0.79368 0.25945 0.0
C980 C 0.134 0.82626 0.25074 0.0
C981 C 0.11861 0.81458 0.23517 0.0
C982 C 0.20948 0.87404 0.2965 0.0
C983 C 0.19468 0.83349 0.30769 0.0
C984 C 0.19562 0.86117 0.28085 0.0
C985 C 0.16583 0.80737 0.27596 0.0
C986 C 0.15239 0.76687 0.28709 0.0
C987 C 0.16705 0.77975 0.30268 0.0
H988 H 0.41581 0.20108 0.80812 0.0
H989 H 0.25968 0.18522 0.80192 0.0
H990 H 0.41623 0.17769 0.7807 0.0
H991 H 0.25974 0.16104 0.77453 0.0
H992 H 0.25851 0.05626 0.73276 0.0
H993 H 0.25976 0.07983 0.76029 0.0
H994 H 0.41565 0.22052 0.7538 0.0
H995 H 0.414 0.19741 0.72627 0.0
C996 C 0.38171 0.19273 0.80085 0.0
C997 C 0.33777 0.19506 0.80707 0.0
C998 C 0.382 0.17948 0.78521 0.0
C999 C 0.33788 0.16729 0.77558 0.0
C1000 C 0.29403 0.16984 0.78177 0.0
C1001 C 0.29419 0.18411 0.79735 0.0
C1002 C 0.29319 0.09186 0.7373 0.0
C1003 C 0.33618 0.12503 0.72747 0.0
C1004 C 0.29371 0.10556 0.75296 0.0
C1005 C 0.3377 0.15209 0.75909 0.0
C1006 C 0.38135 0.18438 0.74935 0.0
C1007 C 0.38037 0.17125 0.73364 0.0
H1008 H 0.2243 0.16846 0.98087 0.0
H1009 H 0.33905 0.33763 0.97699 0.0
H1010 H 0.21249 0.18028 1.00847 0.0
H1011 H 0.32556 0.3498 1.00431 0.0
H1012 H 0.33278 0.34311 0.05709 0.0
H1013 H 0.34484 0.32916 0.02979 0.0
H1014 H 0.17404 0.22035 0.02533 0.0
H1015 H 0.16225 0.23257 0.0529 0.0
C1016 C 0.24712 0.20811 0.98591 0.0
C1017 C 0.28257 0.25209 0.9767 0.0
C1018 C 0.23983 0.21501 1.00167 0.0
C1019 C 0.26795 0.26602 1.0086 0.0
C1020 C 0.30365 0.30987 0.99941 0.0
C1021 C 0.31093 0.30298 0.98368 0.0
C1022 C 0.29781 0.3158 0.05034 0.0
C1023 C 0.24656 0.28879 0.05722 0.0
C1024 C 0.30466 0.30827 0.03463 0.0
C1025 C 0.26041 0.27366 0.02535 0.0
C1026 C 0.20906 0.24683 0.03219 0.0
C1027 C 0.2022 0.25436 0.04794 0.0
H1028 H 0.93582 0.21156 0.47337 0.0
H1029 H 0.09561 0.33802 0.48519 0.0
H1030 H 0.91116 0.19984 0.50092 0.0
H1031 H 0.07098 0.32616 0.5128 0.0
H1032 H 0.97991 0.33375 0.55646 0.0
H1033 H 0.00652 0.342 0.52922 0.0
H1034 H 0.93531 0.17035 0.52608 0.0
H1035 H 0.91006 0.16187 0.55351 0.0
C1036 C 0.96569 0.23667 0.48189 0.0
C1037 C 0.01756 0.27583 0.47717 0.0
C1038 C 0.95169 0.22971 0.49764 0.0
C1039 C -0.01091 0.26223 0.50897 0.0
C1040 C 0.04124 0.30087 0.50428 0.0
C1041 C 0.05546 0.30735 0.48853 0.0
C1042 C 0.97047 0.29771 0.55007 0.0
C1043 C 0.94305 0.24712 0.55727 0.0
C1044 C -0.01432 0.30253 0.53444 0.0
C1045 C 0.97327 0.25686 0.52558 0.0
C1046 C 0.94509 0.2062 0.53263 0.0
C1047 C 0.93037 0.20138 0.54833 0.0
H1048 H 0.61845 0.87005 0.04879 0.0
H1049 H 0.74627 0.02794 0.06148 0.0
H1050 H 0.63261 0.89583 0.02129 0.0
H1051 H 0.76018 0.05379 0.03404 0.0
H1052 H 0.80206 0.05624 0.98165 0.0
H1053 H 0.79108 0.03051 1.00908 0.0
H1054 H 0.61938 0.96104 1.00476 0.0
H1055 H 0.63015 -0.01201 0.97754 0.0
C1056 C 0.64983 0.91005 0.04568 0.0
C1057 C 0.6811 0.94707 0.05724 0.0
C1058 C 0.65765 0.92494 0.02998 0.0
C1059 C 0.69736 0.97689 0.02556 0.0
C1060 C 0.7295 0.01343 0.03711 0.0
C1061 C 0.72125 -0.00124 0.0528 0.0
C1062 C 0.76203 0.0362 0.98658 0.0
C1063 C 0.71699 0.02398 0.97732 0.0
C1064 C 0.75576 0.02123 1.00227 0.0
C1065 C 0.70433 -0.00667 1.00899 0.0
C1066 C 0.65941 0.9816 0.99981 0.0
C1067 C 0.66567 -0.00298 0.9842 0.0
H1068 H 0.70106 0.75001 0.56146 0.0
H1069 H 0.73194 0.62297 0.54906 0.0
H1070 H 0.68956 0.7636 0.53398 0.0
H1071 H 0.72096 0.63694 0.52151 0.0
H1072 H 0.62893 0.63475 0.47716 0.0
H1073 H 0.64397 0.62361 0.50445 0.0
H1074 H 0.74421 0.79498 0.50931 0.0
H1075 H 0.73048 0.80635 0.48184 0.0
C1076 C 0.70544 0.72505 0.55284 0.0
C1077 C 0.71715 0.68525 0.55739 0.0
C1078 C 0.6993 0.73313 0.53712 0.0
C1079 C 0.70422 0.70124 0.52562 0.0
C1080 C 0.71647 0.66179 0.53015 0.0
C1081 C 0.72319 0.65408 0.54588 0.0
C1082 C 0.65475 0.67012 0.48395 0.0
C1083 C 0.67877 0.72148 0.47722 0.0
C1084 C 0.66326 0.66366 0.49961 0.0
C1085 C 0.6955 0.70838 0.50898 0.0
C1086 C 0.71883 0.7598 0.50238 0.0
C1087 C 0.71074 0.76628 0.48666 0.0
H1088 H 0.86503 0.62789 0.986 0.0
H1089 H 0.02281 0.7569 0.97358 0.0
H1090 H 0.8905 0.64185 1.01354 0.0
H1091 H 0.04829 0.77076 1.00107 0.0
H1092 H 0.04803 0.81105 0.05365 0.0
H1093 H 0.02299 0.80037 0.02615 0.0
H1094 H 0.95725 0.62962 0.03001 0.0
H1095 H -0.01629 0.64011 0.05727 0.0
C1096 C 0.90493 0.6595 0.98918 0.0
C1097 C 0.94201 0.69117 0.97768 0.0
C1098 C 0.91963 0.66722 1.0049 0.0
C1099 C 0.97144 0.70725 1.00941 0.0
C1100 C 0.00803 0.73981 0.99793 0.0
C1101 C -0.00642 0.73162 0.98221 0.0
C1102 C 0.02901 0.77131 0.0486 0.0
C1103 C 0.01766 0.72644 0.05776 0.0
C1104 C 0.01442 0.76522 0.03287 0.0
C1105 C -0.01231 0.71411 0.02601 0.0
C1106 C 0.97688 0.66938 0.03508 0.0
C1107 C -0.008 0.67548 0.05072 0.0
H1108 H 0.25246 0.03519 0.47289 0.0
H1109 H 0.22256 0.87734 0.48493 0.0
H1110 H 0.26604 0.06054 0.5004 0.0
H1111 H 0.23577 0.90258 0.51246 0.0
H1112 H 0.33258 -0.00692 0.55614 0.0
H1113 H 0.3152 0.96724 0.52884 0.0
H1114 H 0.21337 0.03684 0.52566 0.0
H1115 H 0.22931 0.06145 0.55316 0.0
C1116 C 0.24863 0.0059 0.48144 0.0
C1117 C 0.23663 0.95434 0.47678 0.0
C1118 C 0.25602 0.02028 0.49717 0.0
C1119 C 0.25218 0.98361 0.50855 0.0
C1120 C 0.23946 0.93182 0.50391 0.0
C1121 C 0.23144 0.91722 0.48819 0.0
C1122 C 0.30594 0.00239 0.54972 0.0
C1123 C 0.28204 0.02905 0.55695 0.0
C1124 C 0.2961 -0.01238 0.53406 0.0
C1125 C 0.26264 -0.00032 0.52516 0.0
C1126 C 0.23961 0.02732 0.53223 0.0
C1127 C 0.249 0.04165 0.54797 0.0
loop_
_geom_bond_atom_site_label_1
_geom_bond_atom_site_label_2
_geom_bond_distance
_geom_bond_site_symmetry_2
_ccdc_geom_bond_type
C0 O16 1.251 . S
C0 O18 1.254 . S
N1 C2 1.333 . S
N1 C6 1.307 . S
N1 Zn7 2.020 . S
C2 N1 1.333 . S
C2 C3 1.379 . S
C2 H20 0.952 . S
C3 C2 1.379 . S
C3 C4 1.390 . S
C3 H30 0.949 . S
C4 C3 1.390 . S
C4 C5 1.357 . S
C5 C4 1.357 . S
C5 C6 1.370 . S
C5 H31 0.950 . S
C6 N1 1.307 . S
C6 C5 1.370 . S
C6 H24 0.948 . S
Zn7 N1 2.020 . S
Zn7 O16 2.039 . S
Zn7 O22 2.034 . S
Zn7 O26 2.025 . S
Zn7 O28 2.024 . S
C8 O27 1.246 . S
C8 O28 1.249 . S
N9 C10 1.307 . S
N9 C11 1.333 . S
N9 Zn15 2.020 . S
C10 N9 1.307 . S
C10 C14 1.370 . S
C10 H21 0.948 . S
C11 N9 1.333 . S
C11 C12 1.379 . S
C11 H19 0.952 . S
C12 C11 1.379 . S
C12 C13 1.390 . S
C12 H32 0.949 . S
C13 C12 1.390 . S
C13 C14 1.357 . S
C14 C10 1.370 . S
C14 C13 1.357 . S
C14 H33 0.950 . S
Zn15 N9 2.020 . S
Zn15 O18 2.025 . S
Zn15 O23 2.024 . S
Zn15 O25 2.039 . S
Zn15 O27 2.034 . S
O16 C0 1.251 . S
O16 Zn7 2.039 . S
C17 O22 1.246 . S
C17 O23 1.249 . S
O18 C0 1.254 . S
O18 Zn15 2.025 . S
H19 C11 0.952 . S
H20 C2 0.952 . S
H21 C10 0.948 . S
O22 Zn7 2.034 . S
O22 C17 1.246 . S
O23 Zn15 2.024 . S
O23 C17 1.249 . S
H24 C6 0.948 . S
O25 Zn15 2.039 . S
O25 C29 1.251 . S
O26 Zn7 2.025 . S
O26 C29 1.254 . S
O27 C8 1.246 . S
O27 Zn15 2.034 . S
O28 Zn7 2.024 . S
O28 C8 1.249 . S
C29 O25 1.251 . S
C29 O26 1.254 . S
H30 C3 0.949 . S
H31 C5 0.950 . S
H32 C12 0.949 . S
H33 C14 0.950 . S
C34 O50 1.251 . S
C34 O52 1.254 . S
N35 C36 1.333 . S
N35 C40 1.307 . S
N35 Zn41 2.020 . S
C36 N35 1.333 . S
C36 C37 1.379 . S
C36 H54 0.952 . S
C37 C36 1.379 . S
C37 C38 1.390 . S
C37 H64 0.949 . S
C38 C37 1.390 . S
C38 C39 1.357 . S
C39 C38 1.357 . S
C39 C40 1.370 . S
C39 H65 0.950 . S
C40 N35 1.307 . S
C40 C39 1.370 . S
C40 H58 0.948 . S
Zn41 N35 2.020 . S
Zn41 O50 2.039 . S
Zn41 O56 2.034 . S
Zn41 O60 2.025 . S
Zn41 O62 2.024 . S
C42 O61 1.246 . S
C42 O62 1.249 . S
N43 C44 1.307 . S
N43 C45 1.333 . S
N43 Zn49 2.020 . S
C44 N43 1.307 . S
C44 C48 1.370 . S
C44 H55 0.948 . S
C45 N43 1.333 . S
C45 C46 1.379 . S
C45 H53 0.952 . S
C46 C45 1.379 . S
C46 C47 1.390 . S
C46 H66 0.949 . S
C47 C46 1.390 . S
C47 C48 1.357 . S
C48 C44 1.370 . S
C48 C47 1.357 . S
C48 H67 0.950 . S
Zn49 N43 2.020 . S
Zn49 O52 2.025 . S
Zn49 O57 2.024 . S
Zn49 O59 2.039 . S
Zn49 O61 2.034 . S
O50 C34 1.251 . S
O50 Zn41 2.039 . S
C51 O56 1.246 . S
C51 O57 1.249 . S
O52 C34 1.254 . S
O52 Zn49 2.025 . S
H53 C45 0.952 . S
H54 C36 0.952 . S
H55 C44 0.948 . S
O56 Zn41 2.034 . S
O56 C51 1.246 . S
O57 Zn49 2.024 . S
O57 C51 1.249 . S
H58 C40 0.948 . S
O59 Zn49 2.039 . S
O59 C63 1.251 . S
O60 Zn41 2.025 . S
O60 C63 1.254 . S
O61 C42 1.246 . S
O61 Zn49 2.034 . S
O62 Zn41 2.024 . S
O62 C42 1.249 . S
C63 O59 1.251 . S
C63 O60 1.254 . S
H64 C37 0.949 . S
H65 C39 0.950 . S
H66 C46 0.949 . S
H67 C48 0.950 . S
C68 O84 1.251 . S
C68 O86 1.254 . S
N69 C70 1.333 . S
N69 C74 1.307 . S
N69 Zn75 2.020 . S
C70 N69 1.333 . S
C70 C71 1.379 . S
C70 H88 0.952 . S
C71 C70 1.379 . S
C71 C72 1.390 . S
C71 H98 0.949 . S
C72 C71 1.390 . S
C72 C73 1.357 . S
C73 C72 1.357 . S
C73 C74 1.370 . S
C73 H99 0.950 . S
C74 N69 1.307 . S
C74 C73 1.370 . S
C74 H92 0.948 . S
Zn75 N69 2.020 . S
Zn75 O84 2.039 . S
Zn75 O90 2.034 . S
Zn75 O94 2.025 . S
Zn75 O96 2.024 . S
C76 O95 1.246 . S
C76 O96 1.249 . S
N77 C78 1.307 . S
N77 C79 1.333 . S
N77 Zn83 2.020 . S
C78 N77 1.307 . S
C78 C82 1.370 . S
C78 H89 0.948 . S
C79 N77 1.333 . S
C79 C80 1.379 . S
C79 H87 0.952 . S
C80 C79 1.379 . S
C80 C81 1.390 . S
C80 H100 0.949 . S
C81 C80 1.390 . S
C81 C82 1.357 . S
C82 C78 1.370 . S
C82 C81 1.357 . S
C82 H101 0.950 . S
Zn83 N77 2.020 . S
Zn83 O86 2.025 . S
Zn83 O91 2.024 . S
Zn83 O93 2.039 . S
Zn83 O95 2.034 . S
O84 C68 1.251 . S
O84 Zn75 2.039 . S
C85 O90 1.246 . S
C85 O91 1.249 . S
O86 C68 1.254 . S
O86 Zn83 2.025 . S
H87 C79 0.952 . S
H88 C70 0.952 . S
H89 C78 0.948 . S
O90 Zn75 2.034 . S
O90 C85 1.246 . S
O91 Zn83 2.024 . S
O91 C85 1.249 . S
H92 C74 0.948 . S
O93 Zn83 2.039 . S
O93 C97 1.251 . S
O94 Zn75 2.025 . S
O94 C97 1.254 . S
O95 C76 1.246 . S
O95 Zn83 2.034 . S
O96 Zn75 2.024 . S
O96 C76 1.249 . S
C97 O93 1.251 . S
C97 O94 1.254 . S
H98 C71 0.949 . S
H99 C73 0.950 . S
H100 C80 0.949 . S
H101 C82 0.950 . S
C102 O118 1.251 . S
C102 O120 1.254 . S
N103 C104 1.333 . S
N103 C108 1.307 . S
N103 Zn109 2.020 . S
C104 N103 1.333 . S
C104 C105 1.379 . S
C104 H122 0.952 . S
C105 C104 1.379 . S
C105 C106 1.390 . S
C105 H132 0.949 . S
C106 C105 1.390 . S
C106 C107 1.357 . S
C107 C106 1.357 . S
C107 C108 1.370 . S
C107 H133 0.950 . S
C108 N103 1.307 . S
C108 C107 1.370 . S
C108 H126 0.948 . S
Zn109 N103 2.020 . S
Zn109 O118 2.039 . S
Zn109 O124 2.034 . S
Zn109 O128 2.025 . S
Zn109 O130 2.024 . S
C110 O129 1.246 . S
C110 O130 1.249 . S
N111 C112 1.307 . S
N111 C113 1.333 . S
N111 Zn117 2.020 . S
C112 N111 1.307 . S
C112 C116 1.370 . S
C112 H123 0.948 . S
C113 N111 1.333 . S
C113 C114 1.379 . S
C113 H121 0.952 . S
C114 C113 1.379 . S
C114 C115 1.390 . S
C114 H134 0.949 . S
C115 C114 1.390 . S
C115 C116 1.357 . S
C116 C112 1.370 . S
C116 C115 1.357 . S
C116 H135 0.950 . S
Zn117 N111 2.020 . S
Zn117 O120 2.025 . S
Zn117 O125 2.024 . S
Zn117 O127 2.039 . S
Zn117 O129 2.034 . S
O118 C102 1.251 . S
O118 Zn109 2.039 . S
C119 O124 1.246 . S
C119 O125 1.249 . S
O120 C102 1.254 . S
O120 Zn117 2.025 . S
H121 C113 0.952 . S
H122 C104 0.952 . S
H123 C112 0.948 . S
O124 Zn109 2.034 . S
O124 C119 1.246 . S
O125 Zn117 2.024 . S
O125 C119 1.249 . S
H126 C108 0.948 . S
O127 Zn117 2.039 . S
O127 C131 1.251 . S
O128 Zn109 2.025 . S
O128 C131 1.254 . S
O129 C110 1.246 . S
O129 Zn117 2.034 . S
O130 Zn109 2.024 . S
O130 C110 1.249 . S
C131 O127 1.251 . S
C131 O128 1.254 . S
H132 C105 0.949 . S
H133 C107 0.950 . S
H134 C114 0.949 . S
H135 C116 0.950 . S
C136 O152 1.251 . S
C136 O154 1.254 . S
N137 C138 1.333 . S
N137 C142 1.307 . S
N137 Zn143 2.020 . S
C138 N137 1.333 . S
C138 C139 1.379 . S
C138 H156 0.952 . S
C139 C138 1.379 . S
C139 C140 1.390 . S
C139 H166 0.949 . S
C140 C139 1.390 . S
C140 C141 1.357 . S
C141 C140 1.357 . S
C141 C142 1.370 . S
C141 H167 0.950 . S
C142 N137 1.307 . S
C142 C141 1.370 . S
C142 H160 0.948 . S
Zn143 N137 2.020 . S
Zn143 O152 2.039 . S
Zn143 O158 2.034 . S
Zn143 O162 2.025 . S
Zn143 O164 2.024 . S
C144 O163 1.246 . S
C144 O164 1.249 . S
N145 C146 1.307 . S
N145 C147 1.333 . S
N145 Zn151 2.020 . S
C146 N145 1.307 . S
C146 C150 1.370 . S
C146 H157 0.948 . S
C147 N145 1.333 . S
C147 C148 1.379 . S
C147 H155 0.952 . S
C148 C147 1.379 . S
C148 C149 1.390 . S
C148 H168 0.949 . S
C149 C148 1.390 . S
C149 C150 1.357 . S
C150 C146 1.370 . S
C150 C149 1.357 . S
C150 H169 0.950 . S
Zn151 N145 2.020 . S
Zn151 O154 2.025 . S
Zn151 O159 2.024 . S
Zn151 O161 2.039 . S
Zn151 O163 2.034 . S
O152 C136 1.251 . S
O152 Zn143 2.039 . S
C153 O158 1.246 . S
C153 O159 1.249 . S
O154 C136 1.254 . S
O154 Zn151 2.025 . S
H155 C147 0.952 . S
H156 C138 0.952 . S
H157 C146 0.948 . S
O158 Zn143 2.034 . S
O158 C153 1.246 . S
O159 Zn151 2.024 . S
O159 C153 1.249 . S
H160 C142 0.948 . S
O161 Zn151 2.039 . S
O161 C165 1.251 . S
O162 Zn143 2.025 . S
O162 C165 1.254 . S
O163 C144 1.246 . S
O163 Zn151 2.034 . S
O164 Zn143 2.024 . S
O164 C144 1.249 . S
C165 O161 1.251 . S
C165 O162 1.254 . S
H166 C139 0.949 . S
H167 C141 0.950 . S
H168 C148 0.949 . S
H169 C150 0.950 . S
C170 O186 1.251 . S
C170 O188 1.254 . S
N171 C172 1.333 . S
N171 C176 1.307 . S
N171 Zn177 2.020 . S
C172 N171 1.333 . S
C172 C173 1.379 . S
C172 H190 0.952 . S
C173 C172 1.379 . S
C173 C174 1.390 . S
C173 H200 0.949 . S
C174 C173 1.390 . S
C174 C175 1.357 . S
C175 C174 1.357 . S
C175 C176 1.370 . S
C175 H201 0.950 . S
C176 N171 1.307 . S
C176 C175 1.370 . S
C176 H194 0.948 . S
Zn177 N171 2.020 . S
Zn177 O186 2.039 . S
Zn177 O192 2.034 . S
Zn177 O196 2.025 . S
Zn177 O198 2.024 . S
C178 O197 1.246 . S
C178 O198 1.249 . S
N179 C180 1.307 . S
N179 C181 1.333 . S
N179 Zn185 2.020 . S
C180 N179 1.307 . S
C180 C184 1.370 . S
C180 H191 0.948 . S
C181 N179 1.333 . S
C181 C182 1.379 . S
C181 H189 0.952 . S
C182 C181 1.379 . S
C182 C183 1.390 . S
C182 H202 0.949 . S
C183 C182 1.390 . S
C183 C184 1.357 . S
C184 C180 1.370 . S
C184 C183 1.357 . S
C184 H203 0.950 . S
Zn185 N179 2.020 . S
Zn185 O188 2.025 . S
Zn185 O193 2.024 . S
Zn185 O195 2.039 . S
Zn185 O197 2.034 . S
O186 C170 1.251 . S
O186 Zn177 2.039 . S
C187 O192 1.246 . S
C187 O193 1.249 . S
O188 C170 1.254 . S
O188 Zn185 2.025 . S
H189 C181 0.952 . S
H190 C172 0.952 . S
H191 C180 0.948 . S
O192 Zn177 2.034 . S
O192 C187 1.246 . S
O193 Zn185 2.024 . S
O193 C187 1.249 . S
H194 C176 0.948 . S
O195 Zn185 2.039 . S
O195 C199 1.251 . S
O196 Zn177 2.025 . S
O196 C199 1.254 . S
O197 C178 1.246 . S
O197 Zn185 2.034 . S
O198 Zn177 2.024 . S
O198 C178 1.249 . S
C199 O195 1.251 . S
C199 O196 1.254 . S
H200 C173 0.949 . S
H201 C175 0.950 . S
H202 C182 0.949 . S
H203 C184 0.950 . S
C204 O220 1.251 . S
C204 O222 1.254 . S
N205 C206 1.333 . S
N205 C210 1.307 . S
N205 Zn211 2.020 . S
C206 N205 1.333 . S
C206 C207 1.379 . S
C206 H224 0.952 . S
C207 C206 1.379 . S
C207 C208 1.390 . S
C207 H234 0.949 . S
C208 C207 1.390 . S
C208 C209 1.357 . S
C209 C208 1.357 . S
C209 C210 1.370 . S
C209 H235 0.950 . S
C210 N205 1.307 . S
C210 C209 1.370 . S
C210 H228 0.948 . S
Zn211 N205 2.020 . S
Zn211 O220 2.039 . S
Zn211 O226 2.034 . S
Zn211 O230 2.025 . S
Zn211 O232 2.024 . S
C212 O231 1.246 . S
C212 O232 1.249 . S
N213 C214 1.307 . S
N213 C215 1.333 . S
N213 Zn219 2.020 . S
C214 N213 1.307 . S
C214 C218 1.370 . S
C214 H225 0.948 . S
C215 N213 1.333 . S
C215 C216 1.379 . S
C215 H223 0.952 . S
C216 C215 1.379 . S
C216 C217 1.390 . S
C216 H236 0.949 . S
C217 C216 1.390 . S
C217 C218 1.357 . S
C218 C214 1.370 . S
C218 C217 1.357 . S
C218 H237 0.950 . S
Zn219 N213 2.020 . S
Zn219 O222 2.025 . S
Zn219 O227 2.024 . S
Zn219 O229 2.039 . S
Zn219 O231 2.034 . S
O220 C204 1.251 . S
O220 Zn211 2.039 . S
C221 O226 1.246 . S
C221 O227 1.249 . S
O222 C204 1.254 . S
O222 Zn219 2.025 . S
H223 C215 0.952 . S
H224 C206 0.952 . S
H225 C214 0.948 . S
O226 Zn211 2.034 . S
O226 C221 1.246 . S
O227 Zn219 2.024 . S
O227 C221 1.249 . S
H228 C210 0.948 . S
O229 Zn219 2.039 . S
O229 C233 1.251 . S
O230 Zn211 2.025 . S
O230 C233 1.254 . S
O231 C212 1.246 . S
O231 Zn219 2.034 . S
O232 Zn211 2.024 . S
O232 C212 1.249 . S
C233 O229 1.251 . S
C233 O230 1.254 . S
H234 C207 0.949 . S
H235 C209 0.950 . S
H236 C216 0.949 . S
H237 C218 0.950 . S
C238 O254 1.251 . S
C238 O256 1.254 . S
N239 C240 1.333 . S
N239 C244 1.307 . S
N239 Zn245 2.020 . S
C240 N239 1.333 . S
C240 C241 1.379 . S
C240 H258 0.952 . S
C241 C240 1.379 . S
C241 C242 1.390 . S
C241 H268 0.949 . S
C242 C241 1.390 . S
C242 C243 1.357 . S
C243 C242 1.357 . S
C243 C244 1.370 . S
C243 H269 0.950 . S
C244 N239 1.307 . S
C244 C243 1.370 . S
C244 H262 0.948 . S
Zn245 N239 2.020 . S
Zn245 O254 2.039 . S
Zn245 O260 2.034 . S
Zn245 O264 2.025 . S
Zn245 O266 2.024 . S
C246 O265 1.246 . S
C246 O266 1.249 . S
N247 C248 1.307 . S
N247 C249 1.333 . S
N247 Zn253 2.020 . S
C248 N247 1.307 . S
C248 C252 1.370 . S
C248 H259 0.948 . S
C249 N247 1.333 . S
C249 C250 1.379 . S
C249 H257 0.952 . S
C250 C249 1.379 . S
C250 C251 1.390 . S
C250 H270 0.949 . S
C251 C250 1.390 . S
C251 C252 1.357 . S
C252 C248 1.370 . S
C252 C251 1.357 . S
C252 H271 0.950 . S
Zn253 N247 2.020 . S
Zn253 O256 2.025 . S
Zn253 O261 2.024 . S
Zn253 O263 2.039 . S
Zn253 O265 2.034 . S
O254 C238 1.251 . S
O254 Zn245 2.039 . S
C255 O260 1.246 . S
C255 O261 1.249 . S
O256 C238 1.254 . S
O256 Zn253 2.025 . S
H257 C249 0.952 . S
H258 C240 0.952 . S
H259 C248 0.948 . S
O260 Zn245 2.034 . S
O260 C255 1.246 . S
O261 Zn253 2.024 . S
O261 C255 1.249 . S
H262 C244 0.948 . S
O263 Zn253 2.039 . S
O263 C267 1.251 . S
O264 Zn245 2.025 . S
O264 C267 1.254 . S
O265 C246 1.246 . S
O265 Zn253 2.034 . S
O266 Zn245 2.024 . S
O266 C246 1.249 . S
C267 O263 1.251 . S
C267 O264 1.254 . S
H268 C241 0.949 . S
H269 C243 0.950 . S
H270 C250 0.949 . S
H271 C252 0.950 . S
C272 O288 1.251 . S
C272 O290 1.254 . S
N273 C274 1.333 . S
N273 C278 1.307 . S
N273 Zn279 2.020 . S
C274 N273 1.333 . S
C274 C275 1.379 . S
C274 H292 0.952 . S
C275 C274 1.379 . S
C275 C276 1.390 . S
C275 H302 0.949 . S
C276 C275 1.390 . S
C276 C277 1.357 . S
C277 C276 1.357 . S
C277 C278 1.370 . S
C277 H303 0.950 . S
C278 N273 1.307 . S
C278 C277 1.370 . S
C278 H296 0.948 . S
Zn279 N273 2.020 . S
Zn279 O288 2.039 . S
Zn279 O294 2.034 . S
Zn279 O298 2.025 . S
Zn279 O300 2.024 . S
C280 O299 1.246 . S
C280 O300 1.249 . S
N281 C282 1.307 . S
N281 C283 1.333 . S
N281 Zn287 2.020 . S
C282 N281 1.307 . S
C282 C286 1.370 . S
C282 H293 0.948 . S
C283 N281 1.333 . S
C283 C284 1.379 . S
C283 H291 0.952 . S
C284 C283 1.379 . S
C284 C285 1.390 . S
C284 H304 0.949 . S
C285 C284 1.390 . S
C285 C286 1.357 . S
C286 C282 1.370 . S
C286 C285 1.357 . S
C286 H305 0.950 . S
Zn287 N281 2.020 . S
Zn287 O290 2.025 . S
Zn287 O295 2.024 . S
Zn287 O297 2.039 . S
Zn287 O299 2.034 . S
O288 C272 1.251 . S
O288 Zn279 2.039 . S
C289 O294 1.246 . S
C289 O295 1.249 . S
O290 C272 1.254 . S
O290 Zn287 2.025 . S
H291 C283 0.952 . S
H292 C274 0.952 . S
H293 C282 0.948 . S
O294 Zn279 2.034 . S
O294 C289 1.246 . S
O295 Zn287 2.024 . S
O295 C289 1.249 . S
H296 C278 0.948 . S
O297 Zn287 2.039 . S
O297 C301 1.251 . S
O298 Zn279 2.025 . S
O298 C301 1.254 . S
O299 C280 1.246 . S
O299 Zn287 2.034 . S
O300 Zn279 2.024 . S
O300 C280 1.249 . S
C301 O297 1.251 . S
C301 O298 1.254 . S
H302 C275 0.949 . S
H303 C277 0.950 . S
H304 C284 0.949 . S
H305 C286 0.950 . S
C306 O322 1.251 . S
C306 O324 1.254 . S
N307 C308 1.333 . S
N307 C312 1.307 . S
N307 Zn313 2.020 . S
C308 N307 1.333 . S
C308 C309 1.379 . S
C308 H326 0.952 . S
C309 C308 1.379 . S
C309 C310 1.390 . S
C309 H336 0.949 . S
C310 C309 1.390 . S
C310 C311 1.357 . S
C311 C310 1.357 . S
C311 C312 1.370 . S
C311 H337 0.950 . S
C312 N307 1.307 . S
C312 C311 1.370 . S
C312 H330 0.948 . S
Zn313 N307 2.020 . S
Zn313 O322 2.039 . S
Zn313 O328 2.034 . S
Zn313 O332 2.025 . S
Zn313 O334 2.024 . S
C314 O333 1.246 . S
C314 O334 1.249 . S
N315 C316 1.307 . S
N315 C317 1.333 . S
N315 Zn321 2.020 . S
C316 N315 1.307 . S
C316 C320 1.370 . S
C316 H327 0.948 . S
C317 N315 1.333 . S
C317 C318 1.379 . S
C317 H325 0.952 . S
C318 C317 1.379 . S
C318 C319 1.390 . S
C318 H338 0.949 . S
C319 C318 1.390 . S
C319 C320 1.357 . S
C320 C316 1.370 . S
C320 C319 1.357 . S
C320 H339 0.950 . S
Zn321 N315 2.020 . S
Zn321 O324 2.025 . S
Zn321 O329 2.024 . S
Zn321 O331 2.039 . S
Zn321 O333 2.034 . S
O322 C306 1.251 . S
O322 Zn313 2.039 . S
C323 O328 1.246 . S
C323 O329 1.249 . S
O324 C306 1.254 . S
O324 Zn321 2.025 . S
H325 C317 0.952 . S
H326 C308 0.952 . S
H327 C316 0.948 . S
O328 Zn313 2.034 . S
O328 C323 1.246 . S
O329 Zn321 2.024 . S
O329 C323 1.249 . S
H330 C312 0.948 . S
O331 Zn321 2.039 . S
O331 C335 1.251 . S
O332 Zn313 2.025 . S
O332 C335 1.254 . S
O333 C314 1.246 . S
O333 Zn321 2.034 . S
O334 Zn313 2.024 . S
O334 C314 1.249 . S
C335 O331 1.251 . S
C335 O332 1.254 . S
H336 C309 0.949 . S
H337 C311 0.950 . S
H338 C318 0.949 . S
H339 C320 0.950 . S
C340 O356 1.251 . S
C340 O358 1.254 . S
N341 C342 1.333 . S
N341 C346 1.307 . S
N341 Zn347 2.020 . S
C342 N341 1.333 . S
C342 C343 1.379 . S
C342 H360 0.952 . S
C343 C342 1.379 . S
C343 C344 1.390 . S
C343 H370 0.949 . S
C344 C343 1.390 . S
C344 C345 1.357 . S
C345 C344 1.357 . S
C345 C346 1.370 . S
C345 H371 0.950 . S
C346 N341 1.307 . S
C346 C345 1.370 . S
C346 H364 0.948 . S
Zn347 N341 2.020 . S
Zn347 O356 2.039 . S
Zn347 O362 2.034 . S
Zn347 O366 2.025 . S
Zn347 O368 2.024 . S
C348 O367 1.246 . S
C348 O368 1.249 . S
N349 C350 1.307 . S
N349 C351 1.333 . S
N349 Zn355 2.020 . S
C350 N349 1.307 . S
C350 C354 1.370 . S
C350 H361 0.948 . S
C351 N349 1.333 . S
C351 C352 1.379 . S
C351 H359 0.952 . S
C352 C351 1.379 . S
C352 C353 1.390 . S
C352 H372 0.949 . S
C353 C352 1.390 . S
C353 C354 1.357 . S
C354 C350 1.370 . S
C354 C353 1.357 . S
C354 H373 0.950 . S
Zn355 N349 2.020 . S
Zn355 O358 2.025 . S
Zn355 O363 2.024 . S
Zn355 O365 2.039 . S
Zn355 O367 2.034 . S
O356 C340 1.251 . S
O356 Zn347 2.039 . S
C357 O362 1.246 . S
C357 O363 1.249 . S
O358 C340 1.254 . S
O358 Zn355 2.025 . S
H359 C351 0.952 . S
H360 C342 0.952 . S
H361 C350 0.948 . S
O362 Zn347 2.034 . S
O362 C357 1.246 . S
O363 Zn355 2.024 . S
O363 C357 1.249 . S
H364 C346 0.948 . S
O365 Zn355 2.039 . S
O365 C369 1.251 . S
O366 Zn347 2.025 . S
O366 C369 1.254 . S
O367 C348 1.246 . S
O367 Zn355 2.034 . S
O368 Zn347 2.024 . S
O368 C348 1.249 . S
C369 O365 1.251 . S
C369 O366 1.254 . S
H370 C343 0.949 . S
H371 C345 0.950 . S
H372 C352 0.949 . S
H373 C354 0.950 . S
C374 O390 1.251 . S
C374 O392 1.254 . S
N375 C376 1.333 . S
N375 C380 1.307 . S
N375 Zn381 2.020 . S
C376 N375 1.333 . S
C376 C377 1.379 . S
C376 H394 0.952 . S
C377 C376 1.379 . S
C377 C378 1.390 . S
C377 H404 0.949 . S
C378 C377 1.390 . S
C378 C379 1.357 . S
C379 C378 1.357 . S
C379 C380 1.370 . S
C379 H405 0.950 . S
C380 N375 1.307 . S
C380 C379 1.370 . S
C380 H398 0.948 . S
Zn381 N375 2.020 . S
Zn381 O390 2.039 . S
Zn381 O396 2.034 . S
Zn381 O400 2.025 . S
Zn381 O402 2.024 . S
C382 O401 1.246 . S
C382 O402 1.249 . S
N383 C384 1.307 . S
N383 C385 1.333 . S
N383 Zn389 2.020 . S
C384 N383 1.307 . S
C384 C388 1.370 . S
C384 H395 0.948 . S
C385 N383 1.333 . S
C385 C386 1.379 . S
C385 H393 0.952 . S
C386 C385 1.379 . S
C386 C387 1.390 . S
C386 H406 0.949 . S
C387 C386 1.390 . S
C387 C388 1.357 . S
C388 C384 1.370 . S
C388 C387 1.357 . S
C388 H407 0.950 . S
Zn389 N383 2.020 . S
Zn389 O392 2.025 . S
Zn389 O397 2.024 . S
Zn389 O399 2.039 . S
Zn389 O401 2.034 . S
O390 C374 1.251 . S
O390 Zn381 2.039 . S
C391 O396 1.246 . S
C391 O397 1.249 . S
O392 C374 1.254 . S
O392 Zn389 2.025 . S
H393 C385 0.952 . S
H394 C376 0.952 . S
H395 C384 0.948 . S
O396 Zn381 2.034 . S
O396 C391 1.246 . S
O397 Zn389 2.024 . S
O397 C391 1.249 . S
H398 C380 0.948 . S
O399 Zn389 2.039 . S
O399 C403 1.251 . S
O400 Zn381 2.025 . S
O400 C403 1.254 . S
O401 C382 1.246 . S
O401 Zn389 2.034 . S
O402 Zn381 2.024 . S
O402 C382 1.249 . S
C403 O399 1.251 . S
C403 O400 1.254 . S
H404 C377 0.949 . S
H405 C379 0.950 . S
H406 C386 0.949 . S
H407 C388 0.950 . S
H408 C416 0.950 . S
H409 C421 0.950 . S
H410 C418 0.950 . S
H411 C420 0.950 . S
H412 C422 0.950 . S
H413 C424 0.950 . S
H414 C426 0.950 . S
H415 C427 0.950 . S
C416 H408 0.950 . S
C416 C417 1.386 . S
C416 C418 1.391 1_565 S
C417 C416 1.386 . S
C417 C421 1.393 . S
C418 H410 0.950 . S
C418 C416 1.391 1_545 S
C418 C419 1.400 . S
C419 C418 1.400 . S
C419 C420 1.398 . S
C419 C425 1.491 . S
C420 H411 0.950 . S
C420 C419 1.398 . S
C420 C421 1.391 1_545 S
C421 H409 0.950 . S
C421 C417 1.393 . S
C421 C420 1.391 1_565 S
C422 H412 0.950 . S
C422 C423 1.386 . S
C422 C424 1.391 . S
C423 C422 1.386 . S
C423 C427 1.393 . S
C424 H413 0.950 . S
C424 C422 1.391 . S
C424 C425 1.400 . S
C425 C419 1.491 . S
C425 C424 1.400 . S
C425 C426 1.398 . S
C426 H414 0.950 . S
C426 C425 1.398 . S
C426 C427 1.391 . S
C427 H415 0.950 . S
C427 C423 1.393 . S
C427 C426 1.391 . S
H428 C436 0.950 . S
H429 C441 0.950 . S
H430 C438 0.950 . S
H431 C440 0.950 . S
H432 C442 0.950 1_655 S
H433 C444 0.950 . S
H434 C446 0.950 . S
H435 C447 0.950 . S
C436 H428 0.950 . S
C436 C437 1.386 . S
C436 C438 1.391 . S
C437 C436 1.386 . S
C437 C441 1.393 . S
C438 H430 0.950 . S
C438 C436 1.391 . S
C438 C439 1.400 . S
C439 C438 1.400 . S
C439 C440 1.398 . S
C439 C445 1.491 . S
C440 H431 0.950 . S
C440 C439 1.398 . S
C440 C441 1.391 . S
C441 H429 0.950 . S
C441 C437 1.393 . S
C441 C440 1.391 . S
C442 H432 0.950 1_455 S
C442 C443 1.386 1_455 S
C442 C444 1.391 . S
C443 C442 1.386 1_655 S
C443 C447 1.393 1_655 S
C444 H433 0.950 . S
C444 C442 1.391 . S
C444 C445 1.400 . S
C445 C439 1.491 . S
C445 C444 1.400 . S
C445 C446 1.398 . S
C446 H434 0.950 . S
C446 C445 1.398 . S
C446 C447 1.391 . S
C447 H435 0.950 . S
C447 C443 1.393 1_455 S
C447 C446 1.391 . S
H448 C456 0.950 . S
H449 C461 0.950 . S
H450 C458 0.950 . S
H451 C460 0.950 . S
H452 C462 0.950 . S
H453 C464 0.950 . S
H454 C466 0.950 . S
H455 C467 0.950 . S
C456 H448 0.950 . S
C456 C457 1.386 1_545 S
C456 C458 1.391 . S
C457 C456 1.386 1_565 S
C457 C461 1.393 . S
C458 H450 0.950 . S
C458 C456 1.391 . S
C458 C459 1.400 . S
C459 C458 1.400 . S
C459 C460 1.398 . S
C459 C465 1.491 . S
C460 H451 0.950 . S
C460 C459 1.398 . S
C460 C461 1.391 1_545 S
C461 H449 0.950 . S
C461 C457 1.393 . S
C461 C460 1.391 1_565 S
C462 H452 0.950 . S
C462 C463 1.386 . S
C462 C464 1.391 1_455 S
C463 C462 1.386 . S
C463 C467 1.393 . S
C464 H453 0.950 . S
C464 C462 1.391 1_655 S
C464 C465 1.400 . S
C465 C459 1.491 . S
C465 C464 1.400 . S
C465 C466 1.398 . S
C466 H454 0.950 . S
C466 C465 1.398 . S
C466 C467 1.391 1_655 S
C467 H455 0.950 . S
C467 C463 1.393 . S
C467 C466 1.391 1_455 S
H468 C476 0.950 . S
H469 C481 0.950 . S
H470 C478 0.950 . S
H471 C480 0.950 . S
H472 C482 0.950 . S
H473 C484 0.950 . S
H474 C486 0.950 . S
H475 C487 0.950 . S
C476 H468 0.950 . S
C476 C477 1.386 . S
C476 C478 1.391 . S
C477 C476 1.386 . S
C477 C481 1.393 . S
C478 H470 0.950 . S
C478 C476 1.391 . S
C478 C479 1.400 . S
C479 C478 1.400 . S
C479 C480 1.398 . S
C479 C485 1.491 . S
C480 H471 0.950 . S
C480 C479 1.398 . S
C480 C481 1.391 . S
C481 H469 0.950 . S
C481 C477 1.393 . S
C481 C480 1.391 . S
C482 H472 0.950 . S
C482 C483 1.386 . S
C482 C484 1.391 1_545 S
C483 C482 1.386 . S
C483 C487 1.393 . S
C484 H473 0.950 . S
C484 C482 1.391 1_565 S
C484 C485 1.400 . S
C485 C479 1.491 . S
C485 C484 1.400 . S
C485 C486 1.398 . S
C486 H474 0.950 . S
C486 C485 1.398 . S
C486 C487 1.391 1_565 S
C487 H475 0.950 . S
C487 C483 1.393 . S
C487 C486 1.391 1_545 S
H488 C496 0.950 . S
H489 C501 0.950 1_455 S
H490 C498 0.950 . S
H491 C500 0.950 . S
H492 C502 0.950 . S
H493 C504 0.950 . S
H494 C506 0.950 . S
H495 C507 0.950 . S
C496 H488 0.950 . S
C496 C497 1.396 . S
C496 C498 1.391 . S
C497 C496 1.396 . S
C497 C501 1.403 . S
C498 H490 0.950 . S
C498 C496 1.391 . S
C498 C499 1.400 . S
C499 C498 1.400 . S
C499 C500 1.398 . S
C499 C505 1.491 . S
C500 H491 0.950 . S
C500 C499 1.398 . S
C500 C501 1.391 . S
C501 H489 0.950 1_655 S
C501 C497 1.403 . S
C501 C500 1.391 . S
C502 H492 0.950 . S
C502 C503 1.386 . S
C502 C504 1.391 . S
C503 C502 1.386 . S
C503 C507 1.393 . S
C504 H493 0.950 . S
C504 C502 1.391 . S
C504 C505 1.400 . S
C505 C499 1.491 . S
C505 C504 1.400 . S
C505 C506 1.398 . S
C506 H494 0.950 . S
C506 C505 1.398 . S
C506 C507 1.391 . S
C507 H495 0.950 . S
C507 C503 1.393 . S
C507 C506 1.391 . S
H508 C516 0.950 . S
H509 C521 0.950 . S
H510 C518 0.950 . S
H511 C520 0.950 . S
H512 C522 0.950 . S
H513 C524 0.950 . S
H514 C526 0.950 . S
H515 C527 0.957 . S
C516 H508 0.950 . S
C516 C517 1.386 . S
C516 C518 1.391 1_655 S
C517 C516 1.386 . S
C517 C521 1.393 . S
C518 H510 0.950 . S
C518 C516 1.391 1_455 S
C518 C519 1.400 . S
C519 C518 1.400 . S
C519 C520 1.398 . S
C519 C525 1.491 . S
C520 H511 0.950 . S
C520 C519 1.398 . S
C520 C521 1.391 1_455 S
C521 H509 0.950 . S
C521 C517 1.393 . S
C521 C520 1.391 1_655 S
C522 H512 0.950 . S
C522 C523 1.386 1_565 S
C522 C524 1.391 . S
C523 C522 1.386 1_545 S
C523 C527 1.389 . S
C524 H513 0.950 . S
C524 C522 1.391 . S
C524 C525 1.400 . S
C525 C519 1.491 . S
C525 C524 1.400 . S
C525 C526 1.398 . S
C526 H514 0.950 . S
C526 C525 1.398 . S
C526 C527 1.387 1_565 S
C527 H515 0.957 . S
C527 C523 1.389 . S
C527 C526 1.387 1_545 S
H528 C536 0.950 . S
H529 C541 0.950 . S
H530 C538 0.950 . S
H531 C540 0.950 . S
H532 C542 0.950 . S
H533 C544 0.950 . S
H534 C546 0.950 . S
H535 C547 0.950 . S
C536 H528 0.950 . S
C536 C537 1.386 . S
C536 C538 1.391 1_455 S
C537 C536 1.386 . S
C537 C541 1.393 . S
C538 H530 0.950 . S
C538 C536 1.391 1_655 S
C538 C539 1.400 . S
C539 C538 1.400 . S
C539 C540 1.398 . S
C539 C545 1.491 . S
C540 H531 0.950 . S
C540 C539 1.398 . S
C540 C541 1.391 1_655 S
C541 H529 0.950 . S
C541 C537 1.393 . S
C541 C540 1.391 1_455 S
C542 H532 0.950 . S
C542 C543 1.386 . S
C542 C544 1.391 . S
C543 C542 1.386 . S
C543 C547 1.393 . S
C544 H533 0.950 . S
C544 C542 1.391 . S
C544 C545 1.400 . S
C545 C539 1.491 . S
C545 C544 1.400 . S
C545 C546 1.398 . S
C546 H534 0.950 . S
C546 C545 1.398 . S
C546 C547 1.391 . S
C547 H535 0.950 . S
C547 C543 1.393 . S
C547 C546 1.391 . S
H548 C556 0.950 . S
H549 C561 0.950 . S
H550 C558 0.950 . S
H551 C560 0.950 . S
H552 C562 0.950 . S
H553 C564 0.950 . S
H554 C566 0.950 . S
H555 C567 0.950 . S
C556 H548 0.950 . S
C556 C557 1.386 1_455 S
C556 C558 1.391 . S
C557 C556 1.386 1_655 S
C557 C561 1.393 . S
C558 H550 0.950 . S
C558 C556 1.391 . S
C558 C559 1.400 . S
C559 C558 1.400 . S
C559 C560 1.398 . S
C559 C565 1.491 . S
C560 H551 0.950 . S
C560 C559 1.398 . S
C560 C561 1.391 1_455 S
C561 H549 0.950 . S
C561 C557 1.393 . S
C561 C560 1.391 1_655 S
C562 H552 0.950 . S
C562 C563 1.386 . S
C562 C564 1.391 1_545 S
C563 C562 1.386 . S
C563 C567 1.393 . S
C564 H553 0.950 . S
C564 C562 1.391 1_565 S
C564 C565 1.400 . S
C565 C559 1.491 . S
C565 C564 1.400 . S
C565 C566 1.398 . S
C566 H554 0.950 . S
C566 C565 1.398 . S
C566 C567 1.391 1_565 S
C567 H555 0.950 . S
C567 C563 1.393 . S
C567 C566 1.391 1_545 S
H568 C576 0.950 . S
H569 C581 0.950 . S
H570 C578 0.950 . S
H571 C580 0.950 . S
H572 C582 0.950 . S
H573 C584 0.950 . S
H574 C586 0.950 . S
H575 C587 0.950 1_565 S
C576 H568 0.950 . S
C576 C577 1.386 . S
C576 C578 1.391 . S
C577 C576 1.386 . S
C577 C581 1.393 . S
C578 H570 0.950 . S
C578 C576 1.391 . S
C578 C579 1.400 . S
C579 C578 1.400 . S
C579 C580 1.398 . S
C579 C585 1.491 . S
C580 H571 0.950 . S
C580 C579 1.398 . S
C580 C581 1.391 . S
C581 H569 0.950 . S
C581 C577 1.393 . S
C581 C580 1.391 . S
C582 H572 0.950 . S
C582 C583 1.386 1_545 S
C582 C584 1.391 . S
C583 C582 1.386 1_565 S
C583 C587 1.393 1_565 S
C584 H573 0.950 . S
C584 C582 1.391 . S
C584 C585 1.400 . S
C585 C579 1.491 . S
C585 C584 1.400 . S
C585 C586 1.398 . S
C586 H574 0.950 . S
C586 C585 1.398 . S
C586 C587 1.391 . S
C587 H575 0.950 1_545 S
C587 C583 1.393 1_545 S
C587 C586 1.391 . S
H588 C596 0.950 . S
H589 C601 0.950 . S
H590 C598 0.950 . S
H591 C600 0.950 . S
H592 C602 0.950 . S
H593 C604 0.950 . S
H594 C606 0.950 . S
H595 C607 0.950 . S
C596 H588 0.950 . S
C596 C597 1.386 . S
C596 C598 1.391 . S
C597 C596 1.386 . S
C597 C601 1.393 . S
C598 H590 0.950 . S
C598 C596 1.391 . S
C598 C599 1.400 . S
C599 C598 1.400 . S
C599 C600 1.398 . S
C599 C605 1.491 . S
C600 H591 0.950 . S
C600 C599 1.398 . S
C600 C601 1.391 . S
C601 H589 0.950 . S
C601 C597 1.393 . S
C601 C600 1.391 . S
C602 H592 0.950 . S
C602 C603 1.386 . S
C602 C604 1.391 1_655 S
C603 C602 1.386 . S
C603 C607 1.393 . S
C604 H593 0.950 . S
C604 C602 1.391 1_455 S
C604 C605 1.400 . S
C605 C599 1.491 . S
C605 C604 1.400 . S
C605 C606 1.398 . S
C606 H594 0.950 . S
C606 C605 1.398 . S
C606 C607 1.391 1_455 S
C607 H595 0.950 . S
C607 C603 1.393 . S
C607 C606 1.391 1_655 S
H608 C616 0.950 . S
H609 C621 0.950 . S
H610 C618 0.950 . S
H611 C620 0.950 . S
H612 C622 0.950 . S
H613 C624 0.950 . S
H614 C626 0.950 . S
H615 C627 0.950 . S
C616 H608 0.950 . S
C616 C617 1.386 . S
C616 C618 1.391 1_455 S
C617 C616 1.386 . S
C617 C621 1.393 1_455 S
C618 H610 0.950 . S
C618 C616 1.391 1_655 S
C618 C619 1.400 . S
C619 C618 1.400 . S
C619 C620 1.398 . S
C619 C625 1.491 . S
C620 H611 0.950 . S
C620 C619 1.398 . S
C620 C621 1.391 . S
C621 H609 0.950 . S
C621 C617 1.393 1_655 S
C621 C620 1.391 . S
C622 H612 0.950 . S
C622 C623 1.386 . S
C622 C624 1.391 1_565 S
C623 C622 1.386 . S
C623 C627 1.393 . S
C624 H613 0.950 . S
C624 C622 1.391 1_545 S
C624 C625 1.400 . S
C625 C619 1.491 . S
C625 C624 1.400 . S
C625 C626 1.398 . S
C626 H614 0.950 . S
C626 C625 1.398 . S
C626 C627 1.391 1_545 S
C627 H615 0.950 . S
C627 C623 1.393 . S
C627 C626 1.391 1_565 S
H628 C636 0.950 . S
H629 C641 0.950 . S
H630 C638 0.950 . S
H631 C640 0.950 . S
H632 C642 0.950 . S
H633 C644 0.950 . S
H634 C646 0.950 . S
H635 C647 0.950 . S
C636 H628 0.950 . S
C636 C637 1.386 . S
C636 C638 1.391 . S
C637 C636 1.386 . S
C637 C641 1.393 . S
C638 H630 0.950 . S
C638 C636 1.391 . S
C638 C639 1.400 . S
C639 C638 1.400 . S
C639 C640 1.398 . S
C639 C645 1.491 . S
C640 H631 0.950 . S
C640 C639 1.398 . S
C640 C641 1.391 . S
C641 H629 0.950 . S
C641 C637 1.393 . S
C641 C640 1.391 . S
C642 H632 0.950 . S
C642 C643 1.386 . S
C642 C644 1.391 1_545 S
C643 C642 1.386 . S
C643 C647 1.393 1_545 S
C644 H633 0.950 . S
C644 C642 1.391 1_565 S
C644 C645 1.400 . S
C645 C639 1.491 . S
C645 C644 1.400 . S
C645 C646 1.398 . S
C646 H634 0.950 . S
C646 C645 1.398 . S
C646 C647 1.391 . S
C647 H635 0.950 . S
C647 C643 1.393 1_565 S
C647 C646 1.391 . S
H648 C656 0.950 . S
H649 C661 0.950 . S
H650 C658 0.950 . S
H651 C660 0.950 . S
H652 C662 0.950 . S
H653 C664 0.950 . S
H654 C666 0.950 . S
H655 C667 0.950 . S
C656 H648 0.950 . S
C656 C657 1.386 . S
C656 C658 1.391 . S
C657 C656 1.386 . S
C657 C661 1.393 . S
C658 H650 0.950 . S
C658 C656 1.391 . S
C658 C659 1.400 . S
C659 C658 1.400 . S
C659 C660 1.398 . S
C659 C665 1.491 . S
C660 H651 0.950 . S
C660 C659 1.398 . S
C660 C661 1.391 . S
C661 H649 0.950 . S
C661 C657 1.393 . S
C661 C660 1.391 . S
C662 H652 0.950 . S
C662 C663 1.386 . S
C662 C664 1.391 . S
C663 C662 1.386 . S
C663 C667 1.393 . S
C664 H653 0.950 . S
C664 C662 1.391 . S
C664 C665 1.400 . S
C665 C659 1.491 . S
C665 C664 1.400 . S
C665 C666 1.398 . S
C666 H654 0.950 . S
C666 C665 1.398 . S
C666 C667 1.391 . S
C667 H655 0.950 . S
C667 C663 1.393 . S
C667 C666 1.391 . S
H668 C676 0.950 . S
H669 C681 0.950 . S
H670 C678 0.950 . S
H671 C680 0.950 . S
H672 C682 0.950 . S
H673 C684 0.950 . S
H674 C686 0.950 . S
H675 C687 0.950 . S
C676 H668 0.950 . S
C676 C677 1.386 . S
C676 C678 1.391 . S
C677 C676 1.386 . S
C677 C681 1.393 . S
C678 H670 0.950 . S
C678 C676 1.391 . S
C678 C679 1.400 . S
C679 C678 1.400 . S
C679 C680 1.398 . S
C679 C685 1.491 . S
C680 H671 0.950 . S
C680 C679 1.398 . S
C680 C681 1.391 . S
C681 H669 0.950 . S
C681 C677 1.393 . S
C681 C680 1.391 . S
C682 H672 0.950 . S
C682 C683 1.386 . S
C682 C684 1.391 . S
C683 C682 1.386 . S
C683 C687 1.393 . S
C684 H673 0.950 . S
C684 C682 1.391 . S
C684 C685 1.400 . S
C685 C679 1.491 . S
C685 C684 1.400 . S
C685 C686 1.398 . S
C686 H674 0.950 . S
C686 C685 1.398 . S
C686 C687 1.391 . S
C687 H675 0.950 . S
C687 C683 1.393 . S
C687 C686 1.391 . S
H688 C696 0.950 . S
H689 C701 0.950 . S
H690 C698 0.950 . S
H691 C700 0.950 . S
H692 C702 0.950 . S
H693 C704 0.950 . S
H694 C706 0.950 . S
H695 C707 0.950 . S
C696 H688 0.950 . S
C696 C697 1.386 . S
C696 C698 1.391 . S
C697 C696 1.386 . S
C697 C701 1.393 . S
C698 H690 0.950 . S
C698 C696 1.391 . S
C698 C699 1.400 . S
C699 C698 1.400 . S
C699 C700 1.398 . S
C699 C705 1.491 . S
C700 H691 0.950 . S
C700 C699 1.398 . S
C700 C701 1.391 . S
C701 H689 0.950 . S
C701 C697 1.393 . S
C701 C700 1.391 . S
C702 H692 0.950 . S
C702 C703 1.386 . S
C702 C704 1.391 . S
C703 C702 1.386 . S
C703 C707 1.393 . S
C704 H693 0.950 . S
C704 C702 1.391 . S
C704 C705 1.400 . S
C705 C699 1.491 . S
C705 C704 1.400 . S
C705 C706 1.398 . S
C706 H694 0.950 . S
C706 C705 1.398 . S
C706 C707 1.391 . S
C707 H695 0.950 . S
C707 C703 1.393 . S
C707 C706 1.391 . S
H708 C716 0.950 . S
H709 C721 0.950 . S
H710 C718 0.950 . S
H711 C720 0.950 . S
H712 C722 0.950 . S
H713 C724 0.950 . S
H714 C726 0.950 . S
H715 C727 0.950 . S
C716 H708 0.950 . S
C716 C717 1.386 . S
C716 C718 1.391 . S
C717 C716 1.386 . S
C717 C721 1.393 . S
C718 H710 0.950 . S
C718 C716 1.391 . S
C718 C719 1.400 . S
C719 C718 1.400 . S
C719 C720 1.398 . S
C719 C725 1.491 . S
C720 H711 0.950 . S
C720 C719 1.398 . S
C720 C721 1.391 . S
C721 H709 0.950 . S
C721 C717 1.393 . S
C721 C720 1.391 . S
C722 H712 0.950 . S
C722 C723 1.386 . S
C722 C724 1.391 . S
C723 C722 1.386 . S
C723 C727 1.393 . S
C724 H713 0.950 . S
C724 C722 1.391 . S
C724 C725 1.400 . S
C725 C719 1.491 . S
C725 C724 1.400 . S
C725 C726 1.398 . S
C726 H714 0.950 . S
C726 C725 1.398 . S
C726 C727 1.391 . S
C727 H715 0.950 . S
C727 C723 1.393 . S
C727 C726 1.391 . S
H728 C736 0.950 . S
H729 C741 0.950 . S
H730 C738 0.950 . S
H731 C740 0.950 . S
H732 C742 0.950 . S
H733 C744 0.950 . S
H734 C746 0.950 . S
H735 C747 0.950 . S
C736 H728 0.950 . S
C736 C737 1.386 . S
C736 C738 1.391 . S
C737 C736 1.386 . S
C737 C741 1.393 . S
C738 H730 0.950 . S
C738 C736 1.391 . S
C738 C739 1.400 . S
C739 C738 1.400 . S
C739 C740 1.398 . S
C739 C745 1.491 . S
C740 H731 0.950 . S
C740 C739 1.398 . S
C740 C741 1.391 . S
C741 H729 0.950 . S
C741 C737 1.393 . S
C741 C740 1.391 . S
C742 H732 0.950 . S
C742 C743 1.386 . S
C742 C744 1.391 . S
C743 C742 1.386 . S
C743 C747 1.393 . S
C744 H733 0.950 . S
C744 C742 1.391 . S
C744 C745 1.400 . S
C745 C739 1.491 . S
C745 C744 1.400 . S
C745 C746 1.398 . S
C746 H734 0.950 . S
C746 C745 1.398 . S
C746 C747 1.391 . S
C747 H735 0.950 . S
C747 C743 1.393 . S
C747 C746 1.391 . S
H748 C756 0.950 . S
H749 C761 0.950 . S
H750 C758 0.950 . S
H751 C760 0.950 . S
H752 C762 0.950 . S
H753 C764 0.950 . S
H754 C766 0.950 . S
H755 C767 0.950 . S
C756 H748 0.950 . S
C756 C757 1.386 . S
C756 C758 1.391 . S
C757 C756 1.386 . S
C757 C761 1.393 . S
C758 H750 0.950 . S
C758 C756 1.391 . S
C758 C759 1.400 . S
C759 C758 1.400 . S
C759 C760 1.398 . S
C759 C765 1.491 . S
C760 H751 0.950 . S
C760 C759 1.398 . S
C760 C761 1.391 . S
C761 H749 0.950 . S
C761 C757 1.393 . S
C761 C760 1.391 . S
C762 H752 0.950 . S
C762 C763 1.386 . S
C762 C764 1.391 . S
C763 C762 1.386 . S
C763 C767 1.393 . S
C764 H753 0.950 . S
C764 C762 1.391 . S
C764 C765 1.400 . S
C765 C759 1.491 . S
C765 C764 1.400 . S
C765 C766 1.398 . S
C766 H754 0.950 . S
C766 C765 1.398 . S
C766 C767 1.391 . S
C767 H755 0.950 . S
C767 C763 1.393 . S
C767 C766 1.391 . S
H768 C776 0.950 . S
H769 C781 0.950 . S
H770 C778 0.950 . S
H771 C780 0.950 . S
H772 C782 0.950 . S
H773 C784 0.950 . S
H774 C786 0.950 . S
H775 C787 0.950 . S
C776 H768 0.950 . S
C776 C777 1.386 . S
C776 C778 1.391 . S
C777 C776 1.386 . S
C777 C781 1.393 . S
C778 H770 0.950 . S
C778 C776 1.391 . S
C778 C779 1.400 . S
C779 C778 1.400 . S
C779 C780 1.398 . S
C779 C785 1.491 . S
C780 H771 0.950 . S
C780 C779 1.398 . S
C780 C781 1.391 . S
C781 H769 0.950 . S
C781 C777 1.393 . S
C781 C780 1.391 . S
C782 H772 0.950 . S
C782 C783 1.386 . S
C782 C784 1.391 . S
C783 C782 1.386 . S
C783 C787 1.393 . S
C784 H773 0.950 . S
C784 C782 1.391 . S
C784 C785 1.400 . S
C785 C779 1.491 . S
C785 C784 1.400 . S
C785 C786 1.398 . S
C786 H774 0.950 . S
C786 C785 1.398 . S
C786 C787 1.391 . S
C787 H775 0.950 . S
C787 C783 1.393 . S
C787 C786 1.391 . S
H788 C796 0.950 . S
H789 C801 0.950 . S
H790 C798 0.950 . S
H791 C800 0.950 . S
H792 C802 0.950 . S
H793 C804 0.950 . S
H794 C806 0.950 . S
H795 C807 0.950 . S
C796 H788 0.950 . S
C796 C797 1.386 . S
C796 C798 1.391 . S
C797 C796 1.386 . S
C797 C801 1.393 . S
C798 H790 0.950 . S
C798 C796 1.391 . S
C798 C799 1.400 . S
C799 C798 1.400 . S
C799 C800 1.398 . S
C799 C805 1.491 . S
C800 H791 0.950 . S
C800 C799 1.398 . S
C800 C801 1.391 . S
C801 H789 0.950 . S
C801 C797 1.393 . S
C801 C800 1.391 . S
C802 H792 0.950 . S
C802 C803 1.386 . S
C802 C804 1.391 . S
C803 C802 1.386 . S
C803 C807 1.393 . S
C804 H793 0.950 . S
C804 C802 1.391 . S
C804 C805 1.400 . S
C805 C799 1.491 . S
C805 C804 1.400 . S
C805 C806 1.398 . S
C806 H794 0.950 . S
C806 C805 1.398 . S
C806 C807 1.391 . S
C807 H795 0.950 . S
C807 C803 1.393 . S
C807 C806 1.391 . S
H808 C816 0.950 . S
H809 C821 0.950 . S
H810 C818 0.950 . S
H811 C820 0.950 . S
H812 C822 0.950 . S
H813 C824 0.950 . S
H814 C826 0.950 . S
H815 C827 0.950 . S
C816 H808 0.950 . S
C816 C817 1.386 . S
C816 C818 1.391 . S
C817 C816 1.386 . S
C817 C821 1.393 . S
C818 H810 0.950 . S
C818 C816 1.391 . S
C818 C819 1.400 . S
C819 C818 1.400 . S
C819 C820 1.398 . S
C819 C825 1.491 . S
C820 H811 0.950 . S
C820 C819 1.398 . S
C820 C821 1.391 . S
C821 H809 0.950 . S
C821 C817 1.393 . S
C821 C820 1.391 . S
C822 H812 0.950 . S
C822 C823 1.386 . S
C822 C824 1.391 . S
C823 C822 1.386 . S
C823 C827 1.393 . S
C824 H813 0.950 . S
C824 C822 1.391 . S
C824 C825 1.400 . S
C825 C819 1.491 . S
C825 C824 1.400 . S
C825 C826 1.398 . S
C826 H814 0.950 . S
C826 C825 1.398 . S
C826 C827 1.391 . S
C827 H815 0.950 . S
C827 C823 1.393 . S
C827 C826 1.391 . S
H828 C836 0.950 . S
H829 C841 0.950 . S
H830 C838 0.950 . S
H831 C840 0.950 . S
H832 C842 0.950 . S
H833 C844 0.950 . S
H834 C846 0.950 . S
H835 C847 0.950 . S
C836 H828 0.950 . S
C836 C837 1.386 . S
C836 C838 1.391 . S
C837 C836 1.386 . S
C837 C841 1.393 . S
C838 H830 0.950 . S
C838 C836 1.391 . S
C838 C839 1.400 . S
C839 C838 1.400 . S
C839 C840 1.398 . S
C839 C845 1.491 . S
C840 H831 0.950 . S
C840 C839 1.398 . S
C840 C841 1.391 . S
C841 H829 0.950 . S
C841 C837 1.393 . S
C841 C840 1.391 . S
C842 H832 0.950 . S
C842 C843 1.386 . S
C842 C844 1.391 . S
C843 C842 1.386 . S
C843 C847 1.393 . S
C844 H833 0.950 . S
C844 C842 1.391 . S
C844 C845 1.400 . S
C845 C839 1.491 . S
C845 C844 1.400 . S
C845 C846 1.398 . S
C846 H834 0.950 . S
C846 C845 1.398 . S
C846 C847 1.391 . S
C847 H835 0.950 . S
C847 C843 1.393 . S
C847 C846 1.391 . S
H848 C856 0.950 . S
H849 C861 0.950 . S
H850 C858 0.950 . S
H851 C860 0.950 . S
H852 C862 0.950 . S
H853 C864 0.950 . S
H854 C866 0.950 . S
H855 C867 0.950 . S
C856 H848 0.950 . S
C856 C857 1.386 . S
C856 C858 1.391 . S
C857 C856 1.386 . S
C857 C861 1.393 . S
C858 H850 0.950 . S
C858 C856 1.391 . S
C858 C859 1.400 . S
C859 C858 1.400 . S
C859 C860 1.398 . S
C859 C865 1.491 . S
C860 H851 0.950 . S
C860 C859 1.398 . S
C860 C861 1.391 . S
C861 H849 0.950 . S
C861 C857 1.393 . S
C861 C860 1.391 . S
C862 H852 0.950 . S
C862 C863 1.386 . S
C862 C864 1.391 . S
C863 C862 1.386 . S
C863 C867 1.393 . S
C864 H853 0.950 . S
C864 C862 1.391 . S
C864 C865 1.400 . S
C865 C859 1.491 . S
C865 C864 1.400 . S
C865 C866 1.398 . S
C866 H854 0.950 . S
C866 C865 1.398 . S
C866 C867 1.391 . S
C867 H855 0.950 . S
C867 C863 1.393 . S
C867 C866 1.391 . S
H868 C876 0.950 . S
H869 C881 0.950 . S
H870 C878 0.950 . S
H871 C880 0.950 . S
H872 C882 0.950 . S
H873 C884 0.950 . S
H874 C886 0.950 . S
H875 C887 0.950 . S
C876 H868 0.950 . S
C876 C877 1.386 . S
C876 C878 1.391 . S
C877 C876 1.386 . S
C877 C881 1.393 . S
C878 H870 0.950 . S
C878 C876 1.391 . S
C878 C879 1.400 . S
C879 C878 1.400 . S
C879 C880 1.398 . S
C879 C885 1.491 . S
C880 H871 0.950 . S
C880 C879 1.398 . S
C880 C881 1.391 . S
C881 H869 0.950 . S
C881 C877 1.393 . S
C881 C880 1.391 . S
C882 H872 0.950 . S
C882 C883 1.386 . S
C882 C884 1.391 . S
C883 C882 1.386 . S
C883 C887 1.393 . S
C884 H873 0.950 . S
C884 C882 1.391 . S
C884 C885 1.400 . S
C885 C879 1.491 . S
C885 C884 1.400 . S
C885 C886 1.398 . S
C886 H874 0.950 . S
C886 C885 1.398 . S
C886 C887 1.391 . S
C887 H875 0.950 . S
C887 C883 1.393 . S
C887 C886 1.391 . S
H888 C896 0.950 . S
H889 C901 0.950 . S
H890 C898 0.950 . S
H891 C900 0.950 . S
H892 C902 0.950 . S
H893 C904 0.950 . S
H894 C906 0.950 . S
H895 C907 0.950 . S
C896 H888 0.950 . S
C896 C897 1.386 . S
C896 C898 1.391 . S
C897 C896 1.386 . S
C897 C901 1.393 . S
C898 H890 0.950 . S
C898 C896 1.391 . S
C898 C899 1.400 . S
C899 C898 1.400 . S
C899 C900 1.398 . S
C899 C905 1.491 . S
C900 H891 0.950 . S
C900 C899 1.398 . S
C900 C901 1.391 . S
C901 H889 0.950 . S
C901 C897 1.393 . S
C901 C900 1.391 . S
C902 H892 0.950 . S
C902 C903 1.386 . S
C902 C904 1.391 . S
C903 C902 1.386 . S
C903 C907 1.393 . S
C904 H893 0.950 . S
C904 C902 1.391 . S
C904 C905 1.400 . S
C905 C899 1.491 . S
C905 C904 1.400 . S
C905 C906 1.398 . S
C906 H894 0.950 . S
C906 C905 1.398 . S
C906 C907 1.391 . S
C907 H895 0.950 . S
C907 C903 1.393 . S
C907 C906 1.391 . S
H908 C916 0.950 . S
H909 C921 0.950 . S
H910 C918 0.950 . S
H911 C920 0.950 . S
H912 C922 0.950 . S
H913 C924 0.950 . S
H914 C926 0.950 . S
H915 C927 0.950 . S
C916 H908 0.950 . S
C916 C917 1.386 . S
C916 C918 1.391 . S
C917 C916 1.386 . S
C917 C921 1.393 . S
C918 H910 0.950 . S
C918 C916 1.391 . S
C918 C919 1.400 . S
C919 C918 1.400 . S
C919 C920 1.398 . S
C919 C925 1.491 . S
C920 H911 0.950 . S
C920 C919 1.398 . S
C920 C921 1.391 . S
C921 H909 0.950 . S
C921 C917 1.393 . S
C921 C920 1.391 . S
C922 H912 0.950 . S
C922 C923 1.386 . S
C922 C924 1.391 . S
C923 C922 1.386 . S
C923 C927 1.393 . S
C924 H913 0.950 . S
C924 C922 1.391 . S
C924 C925 1.400 . S
C925 C919 1.491 . S
C925 C924 1.400 . S
C925 C926 1.398 . S
C926 H914 0.950 . S
C926 C925 1.398 . S
C926 C927 1.391 . S
C927 H915 0.950 . S
C927 C923 1.393 . S
C927 C926 1.391 . S
H928 C936 0.950 . S
H929 C941 0.950 . S
H930 C938 0.950 . S
H931 C940 0.950 . S
H932 C942 0.950 . S
H933 C944 0.950 . S
H934 C946 0.950 . S
H935 C947 0.950 . S
C936 H928 0.950 . S
C936 C937 1.386 . S
C936 C938 1.391 . S
C937 C936 1.386 . S
C937 C941 1.393 . S
C938 H930 0.950 . S
C938 C936 1.391 . S
C938 C939 1.400 . S
C939 C938 1.400 . S
C939 C940 1.398 . S
C939 C945 1.491 . S
C940 H931 0.950 . S
C940 C939 1.398 . S
C940 C941 1.391 . S
C941 H929 0.950 . S
C941 C937 1.393 . S
C941 C940 1.391 . S
C942 H932 0.950 . S
C942 C943 1.386 . S
C942 C944 1.391 . S
C943 C942 1.386 . S
C943 C947 1.393 . S
C944 H933 0.950 . S
C944 C942 1.391 . S
C944 C945 1.400 . S
C945 C939 1.491 . S
C945 C944 1.400 . S
C945 C946 1.398 . S
C946 H934 0.950 . S
C946 C945 1.398 . S
C946 C947 1.391 . S
C947 H935 0.950 . S
C947 C943 1.393 . S
C947 C946 1.391 . S
H948 C956 0.950 . S
H949 C961 0.950 . S
H950 C958 0.950 . S
H951 C960 0.950 . S
H952 C962 0.950 . S
H953 C964 0.950 . S
H954 C966 0.950 . S
H955 C967 0.950 . S
C956 H948 0.950 . S
C956 C957 1.386 . S
C956 C958 1.391 . S
C957 C956 1.386 . S
C957 C961 1.393 . S
C958 H950 0.950 . S
C958 C956 1.391 . S
C958 C959 1.400 . S
C959 C958 1.400 . S
C959 C960 1.398 . S
C959 C965 1.491 . S
C960 H951 0.950 . S
C960 C959 1.398 . S
C960 C961 1.391 . S
C961 H949 0.950 . S
C961 C957 1.393 . S
C961 C960 1.391 . S
C962 H952 0.950 . S
C962 C963 1.386 . S
C962 C964 1.391 . S
C963 C962 1.386 . S
C963 C967 1.393 . S
C964 H953 0.950 . S
C964 C962 1.391 . S
C964 C965 1.400 . S
C965 C959 1.491 . S
C965 C964 1.400 . S
C965 C966 1.398 . S
C966 H954 0.950 . S
C966 C965 1.398 . S
C966 C967 1.391 . S
C967 H955 0.950 . S
C967 C963 1.393 . S
C967 C966 1.391 . S
H968 C976 0.950 . S
H969 C981 0.950 . S
H970 C978 0.950 . S
H971 C980 0.950 . S
H972 C982 0.950 . S
H973 C984 0.950 . S
H974 C986 0.950 . S
H975 C987 0.950 . S
C976 H968 0.950 . S
C976 C977 1.386 . S
C976 C978 1.391 . S
C977 C976 1.386 . S
C977 C981 1.393 . S
C978 H970 0.950 . S
C978 C976 1.391 . S
C978 C979 1.400 . S
C979 C978 1.400 . S
C979 C980 1.398 . S
C979 C985 1.491 . S
C980 H971 0.950 . S
C980 C979 1.398 . S
C980 C981 1.391 . S
C981 H969 0.950 . S
C981 C977 1.393 . S
C981 C980 1.391 . S
C982 H972 0.950 . S
C982 C983 1.386 . S
C982 C984 1.391 . S
C983 C982 1.386 . S
C983 C987 1.393 . S
C984 H973 0.950 . S
C984 C982 1.391 . S
C984 C985 1.400 . S
C985 C979 1.491 . S
C985 C984 1.400 . S
C985 C986 1.398 . S
C986 H974 0.950 . S
C986 C985 1.398 . S
C986 C987 1.391 . S
C987 H975 0.950 . S
C987 C983 1.393 . S
C987 C986 1.391 . S
H988 C996 0.950 . S
H989 C1001 0.950 . S
H990 C998 0.950 . S
H991 C1000 0.950 . S
H992 C1002 0.950 . S
H993 C1004 0.950 . S
H994 C1006 0.950 . S
H995 C1007 0.950 . S
C996 H988 0.950 . S
C996 C997 1.386 . S
C996 C998 1.391 . S
C997 C996 1.386 . S
C997 C1001 1.393 . S
C998 H990 0.950 . S
C998 C996 1.391 . S
C998 C999 1.400 . S
C999 C998 1.400 . S
C999 C1000 1.398 . S
C999 C1005 1.491 . S
C1000 H991 0.950 . S
C1000 C999 1.398 . S
C1000 C1001 1.391 . S
C1001 H989 0.950 . S
C1001 C997 1.393 . S
C1001 C1000 1.391 . S
C1002 H992 0.950 . S
C1002 C1003 1.386 . S
C1002 C1004 1.391 . S
C1003 C1002 1.386 . S
C1003 C1007 1.393 . S
C1004 H993 0.950 . S
C1004 C1002 1.391 . S
C1004 C1005 1.400 . S
C1005 C999 1.491 . S
C1005 C1004 1.400 . S
C1005 C1006 1.398 . S
C1006 H994 0.950 . S
C1006 C1005 1.398 . S
C1006 C1007 1.391 . S
C1007 H995 0.950 . S
C1007 C1003 1.393 . S
C1007 C1006 1.391 . S
H1008 C1016 0.950 . S
H1009 C1021 0.950 . S
H1010 C1018 0.950 . S
H1011 C1020 0.950 . S
H1012 C1022 0.950 . S
H1013 C1024 0.950 . S
H1014 C1026 0.950 . S
H1015 C1027 0.950 . S
C1016 H1008 0.950 . S
C1016 C1017 1.386 . S
C1016 C1018 1.391 . S
C1017 C1016 1.386 . S
C1017 C1021 1.393 . S
C1018 H1010 0.950 . S
C1018 C1016 1.391 . S
C1018 C1019 1.400 . S
C1019 C1018 1.400 . S
C1019 C1020 1.398 . S
C1019 C1025 1.491 1_556 S
C1020 H1011 0.950 . S
C1020 C1019 1.398 . S
C1020 C1021 1.391 . S
C1021 H1009 0.950 . S
C1021 C1017 1.393 . S
C1021 C1020 1.391 . S
C1022 H1012 0.950 . S
C1022 C1023 1.386 . S
C1022 C1024 1.391 . S
C1023 C1022 1.386 . S
C1023 C1027 1.393 . S
C1024 H1013 0.950 . S
C1024 C1022 1.391 . S
C1024 C1025 1.400 . S
C1025 C1019 1.491 1_554 S
C1025 C1024 1.400 . S
C1025 C1026 1.398 . S
C1026 H1014 0.950 . S
C1026 C1025 1.398 . S
C1026 C1027 1.391 . S
C1027 H1015 0.950 . S
C1027 C1023 1.393 . S
C1027 C1026 1.391 . S
H1028 C1036 0.950 . S
H1029 C1041 0.950 . S
H1030 C1038 0.950 . S
H1031 C1040 0.950 . S
H1032 C1042 0.950 . S
H1033 C1044 0.950 . S
H1034 C1046 0.950 . S
H1035 C1047 0.950 . S
C1036 H1028 0.950 . S
C1036 C1037 1.386 . S
C1036 C1038 1.391 1_455 S
C1037 C1036 1.386 . S
C1037 C1041 1.393 . S
C1038 H1030 0.950 . S
C1038 C1036 1.391 1_655 S
C1038 C1039 1.400 1_655 S
C1039 C1038 1.400 1_455 S
C1039 C1040 1.398 . S
C1039 C1045 1.491 1_455 S
C1040 H1031 0.950 . S
C1040 C1039 1.398 . S
C1040 C1041 1.391 . S
C1041 H1029 0.950 . S
C1041 C1037 1.393 . S
C1041 C1040 1.391 . S
C1042 H1032 0.950 . S
C1042 C1043 1.386 . S
C1042 C1044 1.391 1_655 S
C1043 C1042 1.386 . S
C1043 C1047 1.393 . S
C1044 H1033 0.950 . S
C1044 C1042 1.391 1_455 S
C1044 C1045 1.400 1_455 S
C1045 C1039 1.491 1_655 S
C1045 C1044 1.400 1_655 S
C1045 C1046 1.398 . S
C1046 H1034 0.950 . S
C1046 C1045 1.398 . S
C1046 C1047 1.391 . S
C1047 H1035 0.950 . S
C1047 C1043 1.393 . S
C1047 C1046 1.391 . S
H1048 C1056 0.950 . S
H1049 C1061 0.950 . S
H1050 C1058 0.945 . S
H1051 C1060 0.950 . S
H1052 C1062 0.950 . S
H1053 C1064 0.945 . S
H1054 C1066 0.950 . S
H1055 C1067 0.950 . S
C1056 H1048 0.950 . S
C1056 C1057 1.386 . S
C1056 C1058 1.391 . S
C1057 C1056 1.386 . S
C1057 C1061 1.393 . S
C1058 H1050 0.945 . S
C1058 C1056 1.391 . S
C1058 C1059 1.400 . S
C1059 C1058 1.400 . S
C1059 C1060 1.398 1_565 S
C1059 C1065 1.491 1_564 S
C1060 H1051 0.950 . S
C1060 C1059 1.398 1_545 S
C1060 C1061 1.391 1_545 S
C1061 H1049 0.950 . S
C1061 C1057 1.393 . S
C1061 C1060 1.391 1_565 S
C1062 H1052 0.950 . S
C1062 C1063 1.386 . S
C1062 C1064 1.391 . S
C1063 C1062 1.386 . S
C1063 C1067 1.393 . S
C1064 H1053 0.945 . S
C1064 C1062 1.391 . S
C1064 C1065 1.400 . S
C1065 C1059 1.491 1_546 S
C1065 C1064 1.400 . S
C1065 C1066 1.398 1_545 S
C1066 H1054 0.950 . S
C1066 C1065 1.398 1_565 S
C1066 C1067 1.391 1_565 S
C1067 H1055 0.950 . S
C1067 C1063 1.393 . S
C1067 C1066 1.391 1_545 S
H1068 C1076 0.950 . S
H1069 C1081 0.950 . S
H1070 C1078 0.950 . S
H1071 C1080 0.950 . S
H1072 C1082 0.950 . S
H1073 C1084 0.950 . S
H1074 C1086 0.950 . S
H1075 C1087 0.950 . S
C1076 H1068 0.950 . S
C1076 C1077 1.386 . S
C1076 C1078 1.391 . S
C1077 C1076 1.386 . S
C1077 C1081 1.393 . S
C1078 H1070 0.950 . S
C1078 C1076 1.391 . S
C1078 C1079 1.400 . S
C1079 C1078 1.400 . S
C1079 C1080 1.398 . S
C1079 C1085 1.491 . S
C1080 H1071 0.950 . S
C1080 C1079 1.398 . S
C1080 C1081 1.391 . S
C1081 H1069 0.950 . S
C1081 C1077 1.393 . S
C1081 C1080 1.391 . S
C1082 H1072 0.950 . S
C1082 C1083 1.386 . S
C1082 C1084 1.391 . S
C1083 C1082 1.386 . S
C1083 C1087 1.393 . S
C1084 H1073 0.950 . S
C1084 C1082 1.391 . S
C1084 C1085 1.400 . S
C1085 C1079 1.491 . S
C1085 C1084 1.400 . S
C1085 C1086 1.398 . S
C1086 H1074 0.950 . S
C1086 C1085 1.398 . S
C1086 C1087 1.391 . S
C1087 H1075 0.950 . S
C1087 C1083 1.393 . S
C1087 C1086 1.391 . S
H1088 C1096 0.950 . S
H1089 C1101 0.950 . S
H1090 C1098 0.950 1_554 S
H1091 C1100 0.950 . S
H1092 C1102 0.950 . S
H1093 C1104 0.950 1_556 S
H1094 C1106 0.950 . S
H1095 C1107 0.950 . S
C1096 H1088 0.950 . S
C1096 C1097 1.386 . S
C1096 C1098 1.391 . S
C1097 C1096 1.386 . S
C1097 C1101 1.393 . S
C1098 H1090 0.950 1_556 S
C1098 C1096 1.391 . S
C1098 C1099 1.400 . S
C1099 C1098 1.400 . S
C1099 C1100 1.398 1_655 S
C1099 C1105 1.491 1_656 S
C1100 H1091 0.950 . S
C1100 C1099 1.398 1_455 S
C1100 C1101 1.391 1_455 S
C1101 H1089 0.950 . S
C1101 C1097 1.393 . S
C1101 C1100 1.391 1_655 S
C1102 H1092 0.950 . S
C1102 C1103 1.386 . S
C1102 C1104 1.391 . S
C1103 C1102 1.386 . S
C1103 C1107 1.393 . S
C1104 H1093 0.950 1_554 S
C1104 C1102 1.391 . S
C1104 C1105 1.400 . S
C1105 C1099 1.491 1_454 S
C1105 C1104 1.400 . S
C1105 C1106 1.398 1_455 S
C1106 H1094 0.950 . S
C1106 C1105 1.398 1_655 S
C1106 C1107 1.391 1_655 S
C1107 H1095 0.950 . S
C1107 C1103 1.393 . S
C1107 C1106 1.391 1_455 S
H1108 C1116 0.950 . S
H1109 C1121 0.950 . S
H1110 C1118 0.950 1_545 S
H1111 C1120 0.950 . S
H1112 C1122 0.950 . S
H1113 C1124 0.950 1_565 S
H1114 C1126 0.950 . S
H1115 C1127 0.950 . S
C1116 H1108 0.950 . S
C1116 C1117 1.386 . S
C1116 C1118 1.391 . S
C1117 C1116 1.386 . S
C1117 C1121 1.393 . S
C1118 H1110 0.950 1_565 S
C1118 C1116 1.391 . S
C1118 C1119 1.400 . S
C1119 C1118 1.400 . S
C1119 C1120 1.398 . S
C1119 C1125 1.491 1_565 S
C1120 H1111 0.950 . S
C1120 C1119 1.398 . S
C1120 C1121 1.391 . S
C1121 H1109 0.950 . S
C1121 C1117 1.393 . S
C1121 C1120 1.391 . S
C1122 H1112 0.950 . S
C1122 C1123 1.386 . S
C1122 C1124 1.391 . S
C1123 C1122 1.386 . S
C1123 C1127 1.393 . S
C1124 H1113 0.950 1_545 S
C1124 C1122 1.391 . S
C1124 C1125 1.400 . S
C1125 C1119 1.491 1_545 S
C1125 C1124 1.400 . S
C1125 C1126 1.398 . S
C1126 H1114 0.950 . S
C1126 C1125 1.398 . S
C1126 C1127 1.391 . S
C1127 H1115 0.950 . S
C1127 C1123 1.393 . S
C1127 C1126 1.391 . S
C417 C144 0.912 . S
C423 C0 0.909 . S
C437 C178 0.907 . S
C443 C34 0.887 . S
C457 C68 0.893 . S
C463 C8 0.908 . S
C477 C102 0.909 . S
C483 C42 0.912 . S
C497 C136 0.895 1_655 S
C503 C76 0.912 . S
C517 C110 0.907 . S
C523 C170 0.887 . S
C537 C280 0.911 . S
C543 C204 0.908 . S
C557 C238 0.894 . S
C563 C314 0.908 . S
C577 C348 0.907 . S
C583 C272 0.886 . S
C597 C306 0.886 . S
C603 C382 0.907 . S
C617 C340 0.893 . S
C623 C212 0.908 . S
C637 C246 0.908 . S
C643 C374 0.894 . S
C657 C153 1.121 . S
C663 C29 1.139 . S
C677 C63 1.143 . S
C683 C187 1.127 . S
C697 C97 1.141 . S
C703 C17 1.121 . S
C717 C131 1.142 . S
C723 C51 1.127 . S
C737 C85 1.121 . S
C743 C165 1.140 . S
C757 C119 1.140 . S
C763 C199 1.140 . S
C777 C289 1.138 . S
C783 C233 1.141 . S
C797 C267 1.139 . S
C803 C323 1.138 . S
C817 C301 1.138 . S
C823 C357 1.136 . S
C837 C391 1.123 . S
C843 C335 1.142 . S
C857 C369 1.143 . S
C863 C221 1.125 . S
C877 C255 1.121 . S
C883 C403 1.140 . S
C897 C353 1.566 . S
C903 C13 1.572 . S
C917 C47 1.570 . S
C923 C387 1.566 . S
C937 C81 1.566 . S
C943 C217 1.570 . S
C957 C115 1.577 . S
C963 C251 1.575 . S
C977 C149 1.576 . S
C983 C285 1.575 . S
C997 C319 1.575 . S
C1003 C183 1.577 . S
C1017 C310 1.775 . S
C1023 C4 1.775 . S
C1037 C344 1.772 . S
C1043 C38 1.771 . S
C1057 C72 1.764 . S
C1063 C378 1.765 . S
C1077 C106 1.772 . S
C1083 C208 1.772 . S
C1097 C242 1.765 . S
C1103 C140 1.766 . S
C1117 C276 1.775 . S
C1123 C174 1.774 . S
