# Generated by pormake.
# Topology ure, (4)-cn, num edge types: 1
# Building blocks:
#     Node 0, Type 0, BuildingBlock: ICAMEG_clean_sbu_1, # of connection points: 4
#     Node 1, Type 0, BuildingBlock: ICAMEG_clean_sbu_1, # of connection points: 4
#     Node 2, Type 0, BuildingBlock: ICAMEG_clean_sbu_1, # of connection points: 4
#     Node 3, Type 0, BuildingBlock: ICAMEG_clean_sbu_1, # of connection points: 4
#     Node 4, Type 0, BuildingBlock: ICAMEG_clean_sbu_1, # of connection points: 4
#     Node 5, Type 0, BuildingBlock: ICAMEG_clean_sbu_1, # of connection points: 4
#     Node 6, Type 0, BuildingBlock: ICAMEG_clean_sbu_1, # of connection points: 4
#     Node 7, Type 0, BuildingBlock: ICAMEG_clean_sbu_1, # of connection points: 4
#     Node 8, Type 0, BuildingBlock: ICAMEG_clean_sbu_1, # of connection points: 4
#     Node 9, Type 0, BuildingBlock: ICAMEG_clean_sbu_1, # of connection points: 4
#     Node 10, Type 0, BuildingBlock: ICAMEG_clean_sbu_1, # of connection points: 4
#     Node 11, Type 0, BuildingBlock: ICAMEG_clean_sbu_1, # of connection points: 4
#     Node 12, Type 0, BuildingBlock: ICAMEG_clean_sbu_1, # of connection points: 4
#     Node 13, Type 0, BuildingBlock: ICAMEG_clean_sbu_1, # of connection points: 4
#     Node 14, Type 0, BuildingBlock: ICAMEG_clean_sbu_1, # of connection points: 4
#     Node 15, Type 0, BuildingBlock: ICAMEG_clean_sbu_1, # of connection points: 4
#     Edge 16, Type (0, 0), BuildingBlock: UVAHIK_clean_linker_0, # of connection points: 2
#     Edge 17, Type (0, 0), BuildingBlock: UVAHIK_clean_linker_0, # of connection points: 2
#     Edge 18, Type (0, 0), BuildingBlock: UVAHIK_clean_linker_0, # of connection points: 2
#     Edge 19, Type (0, 0), BuildingBlock: UVAHIK_clean_linker_0, # of connection points: 2
#     Edge 20, Type (0, 0), BuildingBlock: UVAHIK_clean_linker_0, # of connection points: 2
#     Edge 21, Type (0, 0), BuildingBlock: UVAHIK_clean_linker_0, # of connection points: 2
#     Edge 22, Type (0, 0), BuildingBlock: UVAHIK_clean_linker_0, # of connection points: 2
#     Edge 23, Type (0, 0), BuildingBlock: UVAHIK_clean_linker_0, # of connection points: 2
#     Edge 24, Type (0, 0), BuildingBlock: UVAHIK_clean_linker_0, # of connection points: 2
#     Edge 25, Type (0, 0), BuildingBlock: UVAHIK_clean_linker_0, # of connection points: 2
#     Edge 26, Type (0, 0), BuildingBlock: UVAHIK_clean_linker_0, # of connection points: 2
#     Edge 27, Type (0, 0), BuildingBlock: UVAHIK_clean_linker_0, # of connection points: 2
#     Edge 28, Type (0, 0), BuildingBlock: UVAHIK_clean_linker_0, # of connection points: 2
#     Edge 29, Type (0, 0), BuildingBlock: UVAHIK_clean_linker_0, # of connection points: 2
#     Edge 30, Type (0, 0), BuildingBlock: UVAHIK_clean_linker_0, # of connection points: 2
#     Edge 31, Type (0, 0), BuildingBlock: UVAHIK_clean_linker_0, # of connection points: 2
#     Edge 32, Type (0, 0), BuildingBlock: UVAHIK_clean_linker_0, # of connection points: 2
#     Edge 33, Type (0, 0), BuildingBlock: UVAHIK_clean_linker_0, # of connection points: 2
#     Edge 34, Type (0, 0), BuildingBlock: UVAHIK_clean_linker_0, # of connection points: 2
#     Edge 35, Type (0, 0), BuildingBlock: UVAHIK_clean_linker_0, # of connection points: 2
#     Edge 36, Type (0, 0), BuildingBlock: UVAHIK_clean_linker_0, # of connection points: 2
#     Edge 37, Type (0, 0), BuildingBlock: UVAHIK_clean_linker_0, # of connection points: 2
#     Edge 38, Type (0, 0), BuildingBlock: UVAHIK_clean_linker_0, # of connection points: 2
#     Edge 39, Type (0, 0), BuildingBlock: UVAHIK_clean_linker_0, # of connection points: 2
#     Edge 40, Type (0, 0), BuildingBlock: UVAHIK_clean_linker_0, # of connection points: 2
#     Edge 41, Type (0, 0), BuildingBlock: UVAHIK_clean_linker_0, # of connection points: 2
#     Edge 42, Type (0, 0), BuildingBlock: UVAHIK_clean_linker_0, # of connection points: 2
#     Edge 43, Type (0, 0), BuildingBlock: UVAHIK_clean_linker_0, # of connection points: 2
#     Edge 44, Type (0, 0), BuildingBlock: UVAHIK_clean_linker_0, # of connection points: 2
#     Edge 45, Type (0, 0), BuildingBlock: UVAHIK_clean_linker_0, # of connection points: 2
#     Edge 46, Type (0, 0), BuildingBlock: UVAHIK_clean_linker_0, # of connection points: 2
#     Edge 47, Type (0, 0), BuildingBlock: UVAHIK_clean_linker_0, # of connection points: 2
# Relax obj value: 0.300
# Max RMSD: 0.316
# Mean RMSD: 0.229
data_MOF--net-ure--node1-ICAMEG_clean_sbu_1--edge1-UVAHIK_clean_linker_0
_symmetry_space_group_name_H-M    P1
_symmetry_Int_Tables_number       1
_symmetry_cell_setting            triclinic
loop_
_symmetry_equiv_pos_as_xyz
'x, y, z'
_cell_length_a     41.915859
_cell_length_b     42.728809
_cell_length_c     41.344971
_cell_angle_alpha  94.710733
_cell_angle_beta   95.500405
_cell_angle_gamma 101.00236
loop_
_atom_site_label
_atom_site_type_symbol
_atom_site_fract_x
_atom_site_fract_y
_atom_site_fract_z
_atom_type_partial_charge
Co0 Co 0.35796 0.3387 0.32442 0.0
Co1 Co 0.29038 0.27773 0.29885 0.0
O2 O 0.31571 0.32171 0.29634 0.0
C3 C 0.32292 0.39207 0.33581 0.0
O4 O 0.29603 0.37095 0.33736 0.0
C5 C 0.27634 0.24618 0.23076 0.0
O6 O 0.29538 0.22697 0.24073 0.0
O7 O 0.33006 0.25977 0.29075 0.0
O8 O 0.36927 0.29552 0.32201 0.0
H9 H 0.2756 0.16774 0.33697 0.0
H10 H 0.34598 0.37972 0.27181 0.0
O11 O 0.34909 0.38299 0.32965 0.0
H12 H 0.43314 0.32689 0.23647 0.0
H13 H 0.47992 0.41222 0.33564 0.0
H14 H 0.38498 0.31575 0.38689 0.0
H15 H 0.40862 0.3135 0.28591 0.0
H16 H 0.41567 0.39306 0.31752 0.0
O17 O 0.27445 0.271 0.2498 0.0
H18 H 0.30528 0.22247 0.33189 0.0
H19 H 0.22298 0.2408 0.27376 0.0
H20 H 0.44315 0.32107 0.42362 0.0
H21 H 0.37021 0.3939 0.22206 0.0
H22 H 0.51182 0.38713 0.38595 0.0
H23 H 0.41453 0.36783 0.20414 0.0
O24 O 0.33626 0.32947 0.36417 0.0
H25 H 0.211 0.34969 0.2765 0.0
H26 H 0.24197 0.27106 0.34808 0.0
H27 H 0.19538 0.29627 0.35908 0.0
H28 H 0.17955 0.33586 0.32307 0.0
H29 H 0.25779 0.32417 0.26673 0.0
H30 H 0.19251 0.18625 0.27805 0.0
H31 H 0.21882 0.14928 0.30987 0.0
O32 O 0.30347 0.28183 0.34729 0.0
C33 C 0.35906 0.26859 0.30517 0.0
C34 C 0.26389 0.1836 0.32299 0.0
C35 C 0.21726 0.19399 0.28994 0.0
N36 N 0.26599 0.23481 0.30242 0.0
C37 C 0.28058 0.21462 0.32001 0.0
C38 C 0.23467 0.22485 0.28755 0.0
C39 C 0.23203 0.17326 0.30779 0.0
C40 C 0.36589 0.36881 0.2651 0.0
N41 N 0.37743 0.34755 0.28394 0.0
C42 C 0.37923 0.37669 0.23643 0.0
C43 C 0.40398 0.36198 0.22631 0.0
C44 C 0.4145 0.33913 0.24451 0.0
C45 C 0.40062 0.3319 0.27307 0.0
C46 C 0.46605 0.39434 0.34866 0.0
C47 C 0.40459 0.33428 0.38191 0.0
C48 C 0.42518 0.3815 0.33748 0.0
N49 N 0.40033 0.3549 0.35223 0.0
C50 C 0.44146 0.33665 0.40406 0.0
C51 C 0.48539 0.37923 0.38008 0.0
C52 C 0.31774 0.30363 0.36981 0.0
C53 C 0.21762 0.33243 0.29233 0.0
C54 C 0.23543 0.28843 0.33249 0.0
C55 C 0.20891 0.30252 0.33872 0.0
C56 C 0.20001 0.3247 0.31849 0.0
N57 N 0.25259 0.29613 0.30678 0.0
C58 C 0.24399 0.31783 0.28684 0.0
Co59 Co 0.98193 0.02819 0.52626 0.0
Co60 Co 0.9588 0.95004 0.48954 0.0
O61 O 0.98579 0.99347 0.49398 0.0
C62 C 0.96567 0.06523 0.47035 0.0
O63 O 0.93743 0.04548 0.46228 0.0
C64 C 0.02756 0.94022 0.4983 0.0
O65 O 0.03532 0.96619 0.51898 0.0
O66 O 0.96444 0.94725 0.53796 0.0
O67 O 0.97839 0.99846 0.56051 0.0
H68 H 0.86732 0.86384 0.51414 0.0
H69 H 0.03746 0.03695 0.48634 0.0
O70 O 0.98635 0.0596 0.49268 0.0
H71 H 0.08774 0.04787 0.60058 0.0
H72 H 0.01045 0.14108 0.58148 0.0
H73 H 0.94035 0.03407 0.57966 0.0
H74 H 0.02779 0.03815 0.58774 0.0
H75 H 0.01554 0.0968 0.5414 0.0
O76 O 0.99827 0.93055 0.48497 0.0
H77 H 0.90294 0.91763 0.52151 0.0
H78 H 0.95732 0.89017 0.44622 0.0
H79 H 0.93469 0.07762 0.62039 0.0
H80 H 0.09758 0.04702 0.49811 0.0
H81 H 0.96989 0.1316 0.62144 0.0
H82 H 0.12308 0.05242 0.55558 0.0
O83 O 0.93321 0.01902 0.51655 0.0
H84 H 0.99908 0.97537 0.38232 0.0
H85 H 0.90238 0.93498 0.43728 0.0
H86 H 0.89579 0.93964 0.37779 0.0
H87 H 0.94441 0.96012 0.35015 0.0
H88 H 0.00447 0.97056 0.44146 0.0
H89 H 0.92246 0.83605 0.43821 0.0
H90 H 0.87692 0.82268 0.47213 0.0
O91 O 0.91855 0.96812 0.49353 0.0
C92 C 0.97201 0.96845 0.56254 0.0
C93 C 0.88704 0.86941 0.49915 0.0
C94 C 0.91803 0.85379 0.45658 0.0
N95 N 0.93204 0.90712 0.48419 0.0
C96 C 0.90726 0.89983 0.50319 0.0
C97 C 0.93777 0.88445 0.46133 0.0
C98 C 0.89245 0.84631 0.4756 0.0
C99 C 0.04841 0.03962 0.51143 0.0
N100 N 0.02915 0.03706 0.53632 0.0
C101 C 0.08245 0.04518 0.51794 0.0
C102 C 0.09674 0.04815 0.55018 0.0
C103 C 0.07693 0.04558 0.57544 0.0
C104 C 0.04298 0.03998 0.56801 0.0
C105 C 0.99501 0.11766 0.5813 0.0
C106 C 0.9559 0.05744 0.5801 0.0
C107 C 0.99772 0.0925 0.5586 0.0
N108 N 0.97837 0.06281 0.5583 0.0
C109 C 0.95252 0.08203 0.60316 0.0
C110 C 0.97225 0.11231 0.60372 0.0
C111 C 0.91161 0.99465 0.50412 0.0
C112 C 0.97768 0.96648 0.39413 0.0
C113 C 0.92349 0.94403 0.42525 0.0
C114 C 0.91968 0.94648 0.39165 0.0
C115 C 0.94698 0.9579 0.37609 0.0
N116 N 0.95365 0.95258 0.44277 0.0
C117 C 0.98057 0.96364 0.42762 0.0
Co118 Co 0.24116 0.69297 0.82599 0.0
Co119 Co 0.26194 0.77324 0.81481 0.0
O120 O 0.26907 0.72905 0.80959 0.0
C121 C 0.28868 0.66473 0.8658 0.0
O122 O 0.27434 0.67288 0.89114 0.0
C123 C 0.26385 0.76687 0.74181 0.0
O124 O 0.23819 0.74329 0.73793 0.0
O125 O 0.21493 0.75906 0.79642 0.0
O126 O 0.20128 0.71039 0.81393 0.0
H127 H 0.20205 0.85992 0.84782 0.0
H128 H 0.28669 0.68144 0.77797 0.0
O129 O 0.28057 0.67377 0.83799 0.0
H130 H 0.17733 0.6273 0.72533 0.0
H131 H 0.2019 0.57656 0.84153 0.0
H132 H 0.18652 0.68712 0.86701 0.0
H133 H 0.18421 0.65516 0.78092 0.0
H134 H 0.23646 0.62182 0.82015 0.0
O135 O 0.27564 0.78015 0.77028 0.0
H136 H 0.21148 0.80462 0.84173 0.0
H137 H 0.29789 0.8359 0.79763 0.0
H138 H 0.15117 0.64248 0.88865 0.0
H139 H 0.28105 0.65351 0.72246 0.0
H140 H 0.15884 0.58675 0.876 0.0
H141 H 0.22604 0.62626 0.69574 0.0
O142 O 0.24677 0.71726 0.87019 0.0
H143 H 0.38293 0.77706 0.81893 0.0
H144 H 0.29633 0.81569 0.87384 0.0
H145 H 0.35374 0.83258 0.89807 0.0
H146 H 0.39757 0.81339 0.87049 0.0
H147 H 0.32507 0.76038 0.79576 0.0
H148 H 0.28926 0.89148 0.80304 0.0
H149 H 0.24111 0.90382 0.8284 0.0
O150 O 0.24936 0.76831 0.8598 0.0
C151 C 0.19377 0.73449 0.80104 0.0
C152 C 0.22315 0.85486 0.83678 0.0
C153 C 0.27207 0.87257 0.81161 0.0
N154 N 0.25525 0.81702 0.81943 0.0
C155 C 0.22865 0.8236 0.83331 0.0
C156 C 0.27676 0.84101 0.80851 0.0
C157 C 0.24506 0.87947 0.82586 0.0
C158 C 0.26269 0.6695 0.76656 0.0
N159 N 0.23579 0.66999 0.78267 0.0
C160 C 0.25964 0.65378 0.7351 0.0
C161 C 0.22877 0.63853 0.72011 0.0
C162 C 0.20143 0.63914 0.73668 0.0
C163 C 0.20543 0.65512 0.7681 0.0
C164 C 0.19832 0.60074 0.84722 0.0
C165 C 0.18992 0.66292 0.8613 0.0
C166 C 0.21786 0.62649 0.83522 0.0
N167 N 0.21354 0.65713 0.84232 0.0
C168 C 0.16986 0.63775 0.87365 0.0
C169 C 0.17416 0.60648 0.86655 0.0
C170 C 0.24729 0.74662 0.87933 0.0
C171 C 0.36406 0.78564 0.83114 0.0
C172 C 0.31519 0.80701 0.8618 0.0
C173 C 0.3477 0.81678 0.87557 0.0
C174 C 0.37226 0.80601 0.86008 0.0
N175 N 0.30732 0.78709 0.83336 0.0
C176 C 0.33127 0.77634 0.8181 0.0
Co177 Co 0.52684 0.94561 0.03483 0.0
Co178 Co 0.50542 0.95487 0.95416 0.0
O179 O 0.5033 0.96522 1.00118 0.0
C180 C 0.47515 0.92097 0.07543 0.0
O181 O 0.47858 0.89213 0.06485 0.0
C182 C 0.51653 0.02688 0.96255 0.0
O183 O 0.53366 0.02776 0.99101 0.0
O184 O 0.55427 0.96522 0.96075 0.0
O185 O 0.56404 0.9451 0.00825 0.0
H186 H 0.54705 0.90395 0.85705 0.0
H187 H 0.50253 0.00403 0.05517 0.0
O188 O 0.49018 0.9454 0.0632 0.0
H189 H 0.62229 0.03296 0.08248 0.0
H190 H 0.56964 0.93187 0.14995 0.0
H191 H 0.56206 0.89162 0.03367 0.0
H192 H 0.59584 0.97868 0.05752 0.0
H193 H 0.5411 0.95726 0.10765 0.0
O194 O 0.50436 1.00021 0.94576 0.0
H195 H 0.54344 0.91659 0.91569 0.0
H196 H 0.4722 0.97248 0.89305 0.0
H197 H 0.591 0.86564 0.07517 0.0
H198 H 0.52794 0.05846 0.08059 0.0
H199 H 0.59491 0.88573 0.13381 0.0
H200 H 0.58826 0.07324 0.09432 0.0
O201 O 0.50586 0.90243 0.01335 0.0
H202 H 0.39283 0.97418 0.96871 0.0
H203 H 0.45566 0.90031 0.91875 0.0
H204 H 0.39542 0.88663 0.91103 0.0
H205 H 0.36355 0.92373 0.93604 0.0
H206 H 0.45319 0.98682 0.97602 0.0
H207 H 0.47526 0.96066 0.83418 0.0
H208 H 0.5128 0.92606 0.81583 0.0
O209 O 0.5058 0.90893 0.96016 0.0
C210 C 0.57322 0.95525 0.98183 0.0
C211 C 0.53054 0.919 0.86473 0.0
C212 C 0.49028 0.95086 0.8519 0.0
N213 N 0.50751 0.94511 0.90782 0.0
C214 C 0.52834 0.92618 0.89791 0.0
C215 C 0.48873 0.95754 0.88529 0.0
C216 C 0.51134 0.93143 0.84162 0.0
C217 C 0.52876 0.01019 0.06141 0.0
N218 N 0.54764 0.98816 0.055 0.0
C219 C 0.54302 0.04109 0.07565 0.0
C220 C 0.57687 0.04938 0.08329 0.0
C221 C 0.59598 0.0268 0.07661 0.0
C222 C 0.58087 0.99614 0.06233 0.0
C223 C 0.56815 0.92292 0.12448 0.0
C224 C 0.56375 0.9006 0.05911 0.0
C225 C 0.552 0.93719 0.1004 0.0
N226 N 0.54997 0.92602 0.06815 0.0
C227 C 0.58014 0.88575 0.08251 0.0
C228 C 0.58231 0.89703 0.11541 0.0
C229 C 0.50263 0.89124 0.98347 0.0
C230 C 0.40644 0.95784 0.95765 0.0
C231 C 0.44201 0.91651 0.92988 0.0
C232 C 0.40788 0.90867 0.92534 0.0
C233 C 0.39002 0.92951 0.93935 0.0
N234 N 0.45795 0.94442 0.94774 0.0
C235 C 0.44061 0.96491 0.96165 0.0
Co236 Co 0.32686 0.76797 0.26836 0.0
Co237 Co 0.34047 0.79577 0.34983 0.0
O238 O 0.31821 0.79525 0.30558 0.0
C239 C 0.33857 0.81237 0.21782 0.0
O240 O 0.36882 0.80799 0.22056 0.0
C241 C 0.2699 0.78878 0.35872 0.0
O242 O 0.26294 0.76819 0.33247 0.0
O243 O 0.32693 0.74819 0.34827 0.0
O244 O 0.33394 0.73365 0.29658 0.0
H245 H 0.41449 0.75963 0.43594 0.0
H246 H 0.26615 0.79399 0.26239 0.0
O247 O 0.31941 0.80134 0.23827 0.0
H248 H 0.22922 0.67651 0.24889 0.0
H249 H 0.307 0.71505 0.15258 0.0
H250 H 0.37771 0.7299 0.25734 0.0
H251 H 0.28802 0.70077 0.25787 0.0
H252 H 0.29515 0.74835 0.19972 0.0
O253 O 0.29952 0.80129 0.36916 0.0
H254 H 0.38614 0.75868 0.38062 0.0
H255 H 0.34049 0.83413 0.41357 0.0
H256 H 0.39035 0.69622 0.21085 0.0
H257 H 0.20709 0.77071 0.25288 0.0
H258 H 0.35489 0.68865 0.15797 0.0
H259 H 0.18828 0.71155 0.24619 0.0
O260 O 0.37417 0.78761 0.27728 0.0
H261 H 0.32233 0.90715 0.33664 0.0
H262 H 0.40323 0.84239 0.36948 0.0
H263 H 0.4199 0.90095 0.37378 0.0
H264 H 0.37936 0.93401 0.3573 0.0
H265 H 0.30644 0.8482 0.33332 0.0
H266 H 0.36807 0.83569 0.46925 0.0
H267 H 0.40561 0.79846 0.48069 0.0
O268 O 0.38251 0.79104 0.33198 0.0
C269 C 0.32988 0.72714 0.32562 0.0
C270 C 0.39828 0.77607 0.43124 0.0
C271 C 0.3722 0.81872 0.44995 0.0
N272 N 0.36188 0.79647 0.39377 0.0
C273 C 0.38222 0.77567 0.39994 0.0
C274 C 0.35654 0.81762 0.41838 0.0
C275 C 0.39327 0.79782 0.45635 0.0
C276 C 0.25818 0.76823 0.25909 0.0
N277 N 0.28055 0.7488 0.26058 0.0
C278 C 0.22469 0.75518 0.25389 0.0
C279 C 0.21416 0.722 0.25021 0.0
C280 C 0.23711 0.70232 0.25177 0.0
C281 C 0.27039 0.71621 0.25703 0.0
C282 C 0.32263 0.71814 0.17549 0.0
C283 C 0.36213 0.72669 0.23444 0.0
C284 C 0.31606 0.737 0.20229 0.0
N285 N 0.33573 0.74112 0.23131 0.0
C286 C 0.36941 0.70759 0.20819 0.0
C287 C 0.34951 0.70335 0.17853 0.0
C288 C 0.39306 0.79182 0.30399 0.0
C289 C 0.34023 0.8931 0.34389 0.0
C290 C 0.38543 0.85645 0.36209 0.0
C291 C 0.39505 0.88972 0.36455 0.0
C292 C 0.37227 0.90816 0.3554 0.0
N293 N 0.35381 0.84191 0.35139 0.0
C294 C 0.33137 0.85974 0.34207 0.0
Co295 Co 0.5045 0.02043 0.46885 0.0
Co296 Co 0.5085 0.94326 0.48452 0.0
O297 O 0.4949 0.98422 0.49514 0.0
C298 C 0.53375 0.07557 0.51758 0.0
O299 O 0.56084 0.0773 0.50369 0.0
C300 C 0.43845 0.92247 0.49764 0.0
O301 O 0.42985 0.94558 0.48194 0.0
O302 O 0.48584 0.9394 0.43932 0.0
O303 O 0.49719 0.99058 0.42746 0.0
H304 H 0.55424 0.86428 0.41493 0.0
H305 H 0.45359 0.01734 0.51405 0.0
O306 O 0.5103 0.0515 0.50941 0.0
H307 H 0.39736 0.02829 0.40647 0.0
H308 H 0.49865 0.13 0.4339 0.0
H309 H 0.54582 0.03364 0.41555 0.0
H310 H 0.45638 0.02779 0.41314 0.0
H311 H 0.4846 0.08428 0.46608 0.0
O312 O 0.46802 0.91892 0.50022 0.0
H313 H 0.53881 0.91603 0.42965 0.0
H314 H 0.50619 0.88318 0.5173 0.0
H315 H 0.56037 0.07876 0.38261 0.0
H316 H 0.39468 0.01834 0.50872 0.0
H317 H 0.53678 0.12741 0.39176 0.0
H318 H 0.36612 0.02364 0.45456 0.0
O319 O 0.55206 0.01851 0.47462 0.0
H320 H 0.51845 0.96524 0.6067 0.0
H321 H 0.57487 0.93636 0.51267 0.0
H322 H 0.60379 0.9424 0.56831 0.0
H323 H 0.57551 0.95682 0.61583 0.0
H324 H 0.49054 0.95929 0.55057 0.0
H325 H 0.5211 0.83102 0.50349 0.0
H326 H 0.54534 0.82129 0.45198 0.0
O327 O 0.5499 0.96558 0.46925 0.0
C328 C 0.48687 0.96059 0.41919 0.0
C329 C 0.54365 0.8682 0.43742 0.0
C330 C 0.52502 0.84953 0.4871 0.0
N331 N 0.5214 0.90261 0.47416 0.0
C332 C 0.53484 0.89746 0.44586 0.0
C333 C 0.51649 0.87909 0.49472 0.0
C334 C 0.53864 0.84409 0.45821 0.0
C335 C 0.44135 0.01975 0.49042 0.0
N336 N 0.45828 0.02196 0.46379 0.0
C337 C 0.40798 0.02027 0.48755 0.0
C338 C 0.39197 0.02321 0.45716 0.0
C339 C 0.40946 0.02575 0.43016 0.0
C340 C 0.4428 0.02514 0.43399 0.0
C341 C 0.50913 0.10895 0.4297 0.0
C342 C 0.53541 0.05471 0.41964 0.0
C343 C 0.50134 0.083 0.44793 0.0
N344 N 0.51452 0.05632 0.44286 0.0
C345 C 0.54374 0.08018 0.40092 0.0
C346 C 0.53051 0.10748 0.40606 0.0
C347 C 0.56566 0.99438 0.4709 0.0
C348 C 0.531 0.95888 0.5862 0.0
C349 C 0.56243 0.9428 0.53319 0.0
C350 C 0.57891 0.9461 0.56466 0.0
C351 C 0.56303 0.95418 0.5913 0.0
N352 N 0.53097 0.94734 0.52839 0.0
C353 C 0.51529 0.95539 0.55438 0.0
Co354 Co 0.28369 0.31007 0.76545 0.0
Co355 Co 0.27666 0.27239 0.83471 0.0
O356 O 0.29235 0.2759 0.7917 0.0
C357 C 0.25871 0.2737 0.70115 0.0
O358 O 0.2304 0.28161 0.70472 0.0
C359 C 0.34606 0.26394 0.84907 0.0
O360 O 0.35703 0.29064 0.83651 0.0
O361 O 0.30075 0.31692 0.84959 0.0
O362 O 0.28655 0.34069 0.80536 0.0
H363 H 0.22921 0.31082 0.93415 0.0
H364 H 0.33773 0.27666 0.75287 0.0
O365 O 0.28181 0.28058 0.72458 0.0
H366 H 0.38955 0.39112 0.77566 0.0
H367 H 0.29494 0.37714 0.67069 0.0
H368 H 0.2402 0.35703 0.76951 0.0
H369 H 0.33006 0.37346 0.77586 0.0
H370 H 0.30744 0.33528 0.70465 0.0
O371 O 0.31552 0.25438 0.84999 0.0
H372 H 0.24784 0.31423 0.87953 0.0
H373 H 0.27435 0.22331 0.88232 0.0
H374 H 0.22715 0.3993 0.73639 0.0
H375 H 0.39733 0.2933 0.75214 0.0
H376 H 0.25456 0.40956 0.68654 0.0
H377 H 0.42363 0.3509 0.76366 0.0
O378 O 0.23595 0.2956 0.76757 0.0
H379 H 0.26382 0.1612 0.77844 0.0
H380 H 0.20876 0.23625 0.83812 0.0
H381 H 0.17823 0.18182 0.8181 0.0
H382 H 0.20581 0.14382 0.78811 0.0
H383 H 0.29336 0.21599 0.79861 0.0
H384 H 0.25627 0.21903 0.93709 0.0
H385 H 0.23337 0.26294 0.96331 0.0
O386 O 0.23655 0.28922 0.82074 0.0
C387 C 0.29797 0.34173 0.83522 0.0
C388 C 0.23909 0.2915 0.92295 0.0
C389 C 0.25432 0.24001 0.92462 0.0
N390 N 0.26204 0.26895 0.87766 0.0
C391 C 0.24963 0.29328 0.892 0.0
C392 C 0.26462 0.24262 0.89364 0.0
C393 C 0.24145 0.26465 0.93931 0.0
C394 C 0.34898 0.30179 0.7577 0.0
N395 N 0.33041 0.32405 0.76431 0.0
C396 C 0.38274 0.31106 0.75733 0.0
C397 C 0.39749 0.34338 0.76382 0.0
C398 C 0.37839 0.36595 0.77056 0.0
C399 C 0.34471 0.35579 0.77072 0.0
C400 C 0.2828 0.37289 0.69234 0.0
C401 C 0.25228 0.36136 0.74789 0.0
C402 C 0.28971 0.34913 0.71162 0.0
N403 N 0.27449 0.34359 0.73901 0.0
C404 C 0.24477 0.38533 0.72922 0.0
C405 C 0.26015 0.39107 0.70125 0.0
C406 C 0.22154 0.29229 0.79321 0.0
C407 C 0.25156 0.17751 0.79153 0.0
C408 C 0.22091 0.21993 0.82495 0.0
C409 C 0.20351 0.1891 0.81375 0.0
C410 C 0.219 0.16779 0.79694 0.0
N411 N 0.25288 0.22927 0.81964 0.0
C412 C 0.26818 0.20854 0.80308 0.0
Co413 Co 0.97224 0.93567 0.94909 0.0
Co414 Co 0.95845 0.01056 0.97168 0.0
O415 O 0.97713 0.97335 0.98112 0.0
C416 C 0.95379 0.88135 0.98679 0.0
O417 O 0.92748 0.87376 0.96554 0.0
C418 C 0.02868 0.04192 0.99553 0.0
O419 O 0.03804 0.02121 0.97511 0.0
O420 O 0.9786 0.01348 0.92973 0.0
O421 O 0.96898 0.9613 0.91151 0.0
H422 H 0.89549 0.07322 0.9007 0.0
H423 H 0.02617 0.9443 0.00299 0.0
O424 O 0.97425 0.90746 0.9856 0.0
H425 H 0.08128 0.96377 0.90439 0.0
H426 H 0.03294 0.84478 0.90424 0.0
H427 H 0.92061 0.90218 0.88703 0.0
H428 H 0.0214 0.95005 0.90056 0.0
H429 H 0.01607 0.8874 0.94474 0.0
O430 O 0.99814 0.04104 0.99662 0.0
H431 H 0.9209 0.02756 0.91352 0.0
H432 H 0.95495 0.07232 0.00943 0.0
H433 H 0.9434 0.83381 0.82189 0.0
H434 H 0.08627 0.9575 0.00773 0.0
H435 H 1.00061 0.81804 0.84588 0.0
H436 H 0.11431 0.96737 0.95822 0.0
O437 O 0.92363 0.92951 0.94761 0.0
H438 H 0.95714 0.99866 0.09147 0.0
H439 H 0.8911 0.01041 0.98954 0.0
H440 H 0.86495 0.00524 0.04029 0.0
H441 H 0.89807 0.99944 0.09178 0.0
H442 H 0.98224 0.00351 0.04003 0.0
H443 H 0.93034 0.11874 0.99747 0.0
H444 H 0.90019 0.11929 0.94284 0.0
O445 O 0.91834 0.9812 0.94795 0.0
C446 C 0.97521 0.99075 0.90688 0.0
C447 C 0.90858 0.07328 0.9246 0.0
C448 C 0.92817 0.09883 0.9789 0.0
N449 N 0.93938 0.04724 0.9622 0.0
C450 C 0.92298 0.04745 0.93203 0.0
C451 C 0.9422 0.07255 0.98548 0.0
C452 C 0.91123 0.09911 0.94825 0.0
C453 C 0.03803 0.94774 0.98113 0.0
N454 N 0.01993 0.94515 0.95133 0.0
C455 C 0.07216 0.95556 0.98405 0.0
C456 C 0.08788 0.9612 0.95629 0.0
C457 C 0.06937 0.95917 0.9261 0.0
C458 C 0.03528 0.95132 0.9241 0.0
C459 C 0.01064 0.85263 0.89644 0.0
C460 C 0.94079 0.88931 0.88771 0.0
C461 C 0.99977 0.88095 0.92238 0.0
N462 N 0.969 0.89756 0.91769 0.0
C463 C 0.95505 0.84513 0.84548 0.0
C464 C 0.99052 0.8352 0.86018 0.0
C465 C 0.90638 0.95103 0.9442 0.0
C466 C 0.94248 1.00129 0.06922 0.0
C467 C 0.90567 0.00779 0.01181 0.0
C468 C 0.89073 0.00494 0.04049 0.0
C469 C 0.90933 1.00169 0.06937 0.0
N470 N 0.93823 0.00748 0.01189 0.0
C471 C 0.95659 0.00416 0.04006 0.0
Co472 Co 0.807 0.2443 0.76383 0.0
Co473 Co 0.82373 0.28233 0.84166 0.0
O474 O 0.80033 0.27672 0.79746 0.0
C475 C 0.8183 0.28167 0.70767 0.0
O476 O 0.8478 0.27528 0.71008 0.0
C477 C 0.75427 0.27786 0.85396 0.0
O478 O 0.74626 0.2522 0.83282 0.0
O479 O 0.80875 0.23603 0.84658 0.0
O480 O 0.81426 0.21398 0.79679 0.0
H481 H 0.89645 0.25241 0.93286 0.0
H482 H 0.74728 0.27171 0.75574 0.0
O483 O 0.79939 0.27354 0.7293 0.0
H484 H 0.70758 0.15565 0.75781 0.0
H485 H 0.78239 0.17818 0.65433 0.0
H486 H 0.85566 0.20271 0.75772 0.0
H487 H 0.76668 0.17828 0.76223 0.0
H488 H 0.77316 0.21779 0.69744 0.0
O489 O 0.784 0.29232 0.86019 0.0
H490 H 0.86858 0.24747 0.87687 0.0
H491 H 0.82678 0.32821 0.90101 0.0
H492 H 0.8657 0.16284 0.71529 0.0
H493 H 0.68791 0.25 0.75077 0.0
H494 H 0.82893 0.15037 0.66313 0.0
H495 H 0.66772 0.19158 0.75191 0.0
O496 O 0.85468 0.2628 0.76985 0.0
H497 H 0.8092 0.39091 0.81215 0.0
H498 H 0.8879 0.32815 0.85546 0.0
H499 H 0.90662 0.38565 0.85062 0.0
H500 H 0.86725 0.41745 0.82866 0.0
H501 H 0.79136 0.33333 0.81781 0.0
H502 H 0.8537 0.33366 0.95743 0.0
H503 H 0.88894 0.29554 0.97364 0.0
O504 O 0.86456 0.27332 0.82432 0.0
C505 C 0.81049 0.21214 0.82679 0.0
C506 C 0.88123 0.26918 0.92607 0.0
C507 C 0.85723 0.31476 0.93988 0.0
N508 N 0.8462 0.28762 0.88562 0.0
C509 C 0.86548 0.26658 0.89437 0.0
C510 C 0.84194 0.31148 0.90791 0.0
C511 C 0.87699 0.2934 0.94896 0.0
C512 C 0.73867 0.24621 0.75585 0.0
N513 N 0.76043 0.22629 0.75907 0.0
C514 C 0.70503 0.23408 0.75319 0.0
C515 C 0.69372 0.20131 0.7539 0.0
C516 C 0.71607 0.18114 0.75723 0.0
C517 C 0.74953 0.19412 0.75983 0.0
C518 C 0.79856 0.18337 0.67697 0.0
C519 C 0.83949 0.19735 0.73513 0.0
C520 C 0.79346 0.20579 0.70147 0.0
N521 N 0.81382 0.21254 0.73012 0.0
C522 C 0.84531 0.17477 0.71118 0.0
C523 C 0.82468 0.16779 0.68192 0.0
C524 C 0.87426 0.26984 0.79612 0.0
C525 C 0.82663 0.37731 0.82168 0.0
C526 C 0.87058 0.34177 0.84583 0.0
C527 C 0.88135 0.37434 0.84313 0.0
C528 C 0.8592 0.39218 0.83091 0.0
N529 N 0.83853 0.32743 0.83703 0.0
C530 C 0.81667 0.34472 0.82495 0.0
Co531 Co 0.02373 0.53338 0.97619 0.0
Co532 Co 0.01847 0.45914 1.00147 0.0
O533 O 0.00593 0.50105 0.00383 0.0
C534 C 0.04414 0.59132 0.02322 0.0
O535 O 0.07406 0.59171 0.01608 0.0
C536 C 0.9541 0.41472 1.00071 0.0
O537 O 0.96044 0.39911 0.97413 0.0
O538 O 1.00214 0.45195 0.95374 0.0
O539 O 0.02604 0.49988 0.94022 0.0
H540 H 0.06666 0.37045 0.95083 0.0
H541 H 0.96211 0.53755 0.0043 0.0
O542 O 0.02113 0.56794 0.01137 0.0
H543 H 0.93414 0.53101 0.885 0.0
H544 H 0.03208 0.6376 0.92533 0.0
H545 H 0.07855 0.54071 0.93535 0.0
H546 H 0.99044 0.53088 0.90844 0.0
H547 H 0.00838 0.59608 0.95909 0.0
O548 O 0.97385 0.44025 0.01339 0.0
H549 H 0.05181 0.42365 0.95509 0.0
H550 H 0.01001 0.40435 0.04275 0.0
H551 H 0.10292 0.58157 0.90126 0.0
H552 H 0.90554 0.53816 0.98187 0.0
H553 H 0.07971 0.63047 0.89611 0.0
H554 H 0.89126 0.53482 0.92181 0.0
O555 O 0.06851 0.53108 0.99514 0.0
H556 H 0.01237 0.49437 0.11937 0.0
H557 H 0.07985 0.45262 0.04136 0.0
H558 H 0.10095 0.46365 0.09972 0.0
H559 H 0.06706 0.48453 0.13922 0.0
H560 H 0.99235 0.4834 0.06071 0.0
H561 H 0.02436 0.35093 0.0394 0.0
H562 H 0.0529 0.33367 0.99318 0.0
O563 O 0.06378 0.47775 0.99077 0.0
C564 C 0.01228 0.47054 0.93258 0.0
C565 C 0.05422 0.3777 0.97108 0.0
C566 C 0.03049 0.36674 0.02079 0.0
N567 N 0.03002 0.41712 0.99909 0.0
C568 C 0.04574 0.40779 0.97362 0.0
C569 C 0.02241 0.39702 0.02254 0.0
C570 C 0.04649 0.35707 0.99485 0.0
C571 C 0.95613 0.53635 0.97815 0.0
N572 N 0.97961 0.53443 0.95775 0.0
C573 C 0.92404 0.5366 0.96559 0.0
C574 C 0.91603 0.53469 0.93188 0.0
C575 C 0.94008 0.53254 0.91121 0.0
C576 C 0.97191 0.53239 0.92465 0.0
C577 C 0.04241 0.61639 0.92736 0.0
C578 C 0.06823 0.56186 0.93318 0.0
C579 C 0.02909 0.59279 0.94645 0.0
N580 N 0.04202 0.56593 0.94916 0.0
C581 C 0.08217 0.58494 0.91385 0.0
C582 C 0.06913 0.61238 0.91097 0.0
C583 C 0.08108 0.50617 0.99477 0.0
C584 C 0.02732 0.48516 0.10241 0.0
C585 C 0.06499 0.46186 0.05833 0.0
C586 C 0.07705 0.46797 0.09138 0.0
C587 C 0.05802 0.47968 0.11353 0.0
N588 N 0.03475 0.46712 0.04761 0.0
C589 C 0.01606 0.47879 0.06917 0.0
Co590 Co 0.80174 0.84061 0.28586 0.0
Co591 Co 0.79635 0.79329 0.34837 0.0
O592 O 0.8158 0.80618 0.30883 0.0
C593 C 0.79643 0.7944 0.22564 0.0
O594 O 0.7731 0.77415 0.23638 0.0
C595 C 0.8679 0.78939 0.36233 0.0
O596 O 0.87657 0.80979 0.34121 0.0
O597 O 0.81079 0.83826 0.36959 0.0
O598 O 0.79338 0.86304 0.32757 0.0
H599 H 0.7294 0.80601 0.44136 0.0
H600 H 0.86597 0.8245 0.27531 0.0
O601 O 0.81045 0.8201 0.24317 0.0
H602 H 0.89011 0.93924 0.31594 0.0
H603 H 0.807 0.91979 0.20168 0.0
H604 H 0.74725 0.87559 0.29017 0.0
H605 H 0.8336 0.90829 0.30944 0.0
H606 H 0.8254 0.87768 0.23158 0.0
O607 O 0.83809 0.78184 0.3676 0.0
H608 H 0.75382 0.82081 0.39145 0.0
H609 H 0.79828 0.73936 0.38976 0.0
H610 H 0.72822 0.91788 0.26109 0.0
H611 H 0.92308 0.85447 0.28208 0.0
H612 H 0.75815 0.94028 0.21647 0.0
H613 H 0.93546 0.91228 0.30255 0.0
O614 O 0.75568 0.81646 0.28019 0.0
H615 H 0.81086 0.69428 0.28169 0.0
H616 H 0.73376 0.74475 0.3405 0.0
H617 H 0.7153 0.69021 0.31237 0.0
H618 H 0.754 0.66457 0.28276 0.0
H619 H 0.82822 0.7489 0.3099 0.0
H620 H 0.77458 0.72387 0.43982 0.0
H621 H 0.73973 0.75722 0.46589 0.0
O622 O 0.75323 0.80302 0.33116 0.0
C623 C 0.80243 0.86257 0.35779 0.0
C624 C 0.7445 0.79125 0.4302 0.0
C625 C 0.76989 0.74518 0.42936 0.0
N626 N 0.77737 0.78093 0.3876 0.0
C627 C 0.75837 0.79949 0.4019 0.0
C628 C 0.78333 0.75414 0.40107 0.0
C629 C 0.75033 0.76389 0.44396 0.0
C630 C 0.87121 0.84963 0.28433 0.0
N631 N 0.84649 0.86457 0.29206 0.0
C632 C 0.90358 0.86647 0.28813 0.0
C633 C 0.91051 0.89889 0.29967 0.0
C634 C 0.88513 0.914 0.30733 0.0
C635 C 0.85314 0.89632 0.30361 0.0
C636 C 0.79375 0.91022 0.22107 0.0
C637 C 0.76051 0.88526 0.27087 0.0
C638 C 0.80398 0.88626 0.23803 0.0
N639 N 0.78748 0.87417 0.26268 0.0
C640 C 0.74957 0.90918 0.25445 0.0
C641 C 0.76635 0.92172 0.2294 0.0
C642 C 0.73944 0.80728 0.30342 0.0
C643 C 0.79381 0.70514 0.29463 0.0
C644 C 0.75076 0.7338 0.32765 0.0
C645 C 0.74016 0.70288 0.3118 0.0
C646 C 0.76189 0.6885 0.2952 0.0
N647 N 0.78218 0.74991 0.32714 0.0
C648 C 0.80355 0.73602 0.31077 0.0
Co649 Co 0.05278 0.46336 0.54101 0.0
Co650 Co 0.00847 0.46758 0.46792 0.0
O651 O 0.02105 0.48176 0.51461 0.0
C652 C 1.00168 0.45241 0.5872 0.0
O653 O 0.98178 0.43288 0.56456 0.0
C654 C 0.02235 0.5393 0.46973 0.0
O655 O 0.04867 0.54073 0.49019 0.0
O656 O 0.05534 0.4764 0.4592 0.0
O657 O 0.078 0.45782 0.50319 0.0
H658 H 0.01622 0.40674 0.36059 0.0
H659 H 0.03803 0.52541 0.56585 0.0
O660 O 0.02888 0.46807 0.58042 0.0
H661 H 0.15619 0.54791 0.55519 0.0
H662 H 0.12589 0.45554 0.64285 0.0
H663 H 0.08547 0.40814 0.53013 0.0
H664 H 0.1233 0.49327 0.54126 0.0
H665 H 0.08685 0.47903 0.60886 0.0
O666 O 0.00431 0.51226 0.45893 0.0
H667 H 0.03158 0.42468 0.41919 0.0
H668 H 0.95854 0.4813 0.41743 0.0
H669 H 0.12472 0.38409 0.56318 0.0
H670 H 0.07008 0.58037 0.58044 0.0
H671 H 0.1452 0.4078 0.61999 0.0
H672 H 0.12959 0.5919 0.57503 0.0
O673 O 0.02651 0.41951 0.52813 0.0
H674 H 0.9098 0.49234 0.51688 0.0
H675 H 0.95253 0.41207 0.45015 0.0
H676 H 0.8952 0.39996 0.46207 0.0
H677 H 0.87346 0.44029 0.4956 0.0
H678 H 0.96709 0.50337 0.50458 0.0
H679 H 0.9426 0.4642 0.35874 0.0
H680 H 0.97143 0.42653 0.32996 0.0
O681 O 0.01139 0.42229 0.47509 0.0
C682 C 0.07861 0.46613 0.47437 0.0
C683 C 0.00344 0.42312 0.37287 0.0
C684 C 0.96215 0.4554 0.37182 0.0
N685 N 0.9959 0.45391 0.42177 0.0
C686 C 0.01199 0.43332 0.40607 0.0
C687 C 0.97136 0.46508 0.40504 0.0
C688 C 0.97832 0.43425 0.35569 0.0
C689 C 0.06398 0.53021 0.56376 0.0
N690 N 0.07879 0.50616 0.55285 0.0
C691 C 0.08197 0.56138 0.57192 0.0
C692 C 0.11535 0.56785 0.56882 0.0
C693 C 0.13028 0.54318 0.55766 0.0
C694 C 0.11151 0.51231 0.54971 0.0
C695 C 0.11717 0.44501 0.61812 0.0
C696 C 0.09436 0.41872 0.55477 0.0
C697 C 0.09498 0.45816 0.59877 0.0
N698 N 0.08396 0.44508 0.56746 0.0
C699 C 0.11654 0.40494 0.5734 0.0
C700 C 0.128 0.41823 0.60528 0.0
C701 C 0.01517 0.40634 0.49948 0.0
C702 C 0.91897 0.47461 0.50217 0.0
C703 C 0.94329 0.42972 0.46484 0.0
C704 C 0.91078 0.42274 0.47145 0.0
C705 C 0.8986 0.44539 0.49025 0.0
N706 N 0.96309 0.4585 0.47651 0.0
C707 C 0.95134 0.48077 0.49505 0.0
Co708 Co 0.497 0.53583 0.03327 0.0
Co709 Co 0.46156 0.45697 0.00757 0.0
O710 O 0.49156 0.4971 0.00358 0.0
C711 C 0.47719 0.56031 0.97093 0.0
O712 O 0.45117 0.53713 0.96635 0.0
C713 C 0.52585 0.43873 0.00505 0.0
O714 O 0.53756 0.46276 0.02755 0.0
O715 O 0.47782 0.45763 0.05474 0.0
O716 O 0.49599 0.5102 0.07138 0.0
H717 H 0.37715 0.38239 0.05818 0.0
H718 H 0.54324 0.5303 0.9842 0.0
O719 O 0.49844 0.56219 0.99556 0.0
H720 H 0.6111 0.55067 0.09087 0.0
H721 H 0.54448 0.6514 0.07334 0.0
H722 H 0.46781 0.55374 0.09285 0.0
H723 H 0.55161 0.54845 0.08745 0.0
H724 H 0.5378 0.60164 0.03644 0.0
O725 O 0.49552 0.43259 0.9945 0.0
H726 H 0.4153 0.43326 0.05432 0.0
H727 H 0.44429 0.39425 0.96662 0.0
H728 H 0.47401 0.60289 0.1306 0.0
H729 H 0.6027 0.53264 0.98639 0.0
H730 H 0.51255 0.65218 0.12091 0.0
H731 H 0.63701 0.54274 0.04004 0.0
O732 O 0.44864 0.53289 0.03074 0.0
H733 H 0.47449 0.47411 0.89071 0.0
H734 H 0.39544 0.44979 0.97062 0.0
H735 H 0.37592 0.46001 0.91541 0.0
H736 H 0.4157 0.47274 0.87488 0.0
H737 H 0.49329 0.46558 0.94698 0.0
H738 H 0.40653 0.34289 0.96955 0.0
H739 H 0.37256 0.33677 0.01554 0.0
O740 O 0.42706 0.48024 0.02061 0.0
C741 C 0.48943 0.48083 0.07682 0.0
C742 C 0.3918 0.38476 0.03801 0.0
C743 C 0.40832 0.36259 0.98828 0.0
N744 N 0.43195 0.4167 0.01028 0.0
C745 C 0.41344 0.41351 0.03571 0.0
C746 C 0.42971 0.39169 0.9868 0.0
C747 C 0.38925 0.35917 0.01409 0.0
C748 C 0.55806 0.53489 0.00761 0.0
N749 N 0.54397 0.53903 0.0357 0.0
C750 C 0.59169 0.53611 0.00871 0.0
C751 C 0.61093 0.54174 0.03882 0.0
C752 C 0.5964 0.54615 0.06735 0.0
C753 C 0.56269 0.54471 0.0653 0.0
C754 C 0.52765 0.63006 0.07785 0.0
C755 C 0.48481 0.57504 0.08864 0.0
C756 C 0.5237 0.60184 0.057 0.0
N757 N 0.50261 0.57476 0.06265 0.0
C758 C 0.48814 0.60282 0.11002 0.0
C759 C 0.50974 0.63048 0.10455 0.0
C760 C 0.42446 0.50922 0.02718 0.0
C761 C 0.45696 0.46857 0.90803 0.0
C762 C 0.41286 0.45492 0.95316 0.0
C763 C 0.40161 0.46053 0.92175 0.0
C764 C 0.42388 0.46764 0.89913 0.0
N765 N 0.4455 0.45712 0.96208 0.0
C766 C 0.46741 0.46334 0.93985 0.0
Co767 Co 0.85792 0.83032 0.82806 0.0
Co768 Co 0.795 0.76349 0.81668 0.0
O769 O 0.81424 0.80721 0.80625 0.0
C770 C 0.81858 0.88068 0.8369 0.0
O771 O 0.79474 0.85908 0.84498 0.0
C772 C 0.76904 0.75823 0.74261 0.0
O773 O 0.78043 0.78828 0.73843 0.0
O774 O 0.83514 0.74808 0.80561 0.0
O775 O 0.87382 0.78928 0.82952 0.0
H776 H 0.7991 0.66303 0.87081 0.0
H777 H 0.83458 0.8613 0.7711 0.0
O778 O 0.84461 0.8727 0.82871 0.0
H779 H 0.92286 0.81179 0.73298 0.0
H780 H 0.96874 0.91806 0.82178 0.0
H781 H 0.8969 0.81576 0.88794 0.0
H782 H 0.90657 0.80475 0.78737 0.0
H783 H 0.90548 0.88891 0.81123 0.0
O784 O 0.77416 0.74784 0.77034 0.0
H785 H 0.82076 0.71734 0.85657 0.0
H786 H 0.7307 0.71769 0.8 0.0
H787 H 0.95942 0.83038 0.91721 0.0
H788 H 0.85043 0.86901 0.71637 0.0
H789 H 0.01169 0.90148 0.86952 0.0
H790 H 0.89517 0.84453 0.69689 0.0
O791 O 0.84274 0.82547 0.87185 0.0
H792 H 0.70492 0.82549 0.79992 0.0
H793 H 0.75344 0.756 0.87138 0.0
H794 H 0.70514 0.77633 0.88635 0.0
H795 H 0.68039 0.81124 0.85041 0.0
H796 H 0.75347 0.80506 0.78622 0.0
H797 H 0.70826 0.66326 0.81333 0.0
H798 H 0.74248 0.6356 0.84911 0.0
O799 O 0.81381 0.77513 0.86359 0.0
C800 C 0.86464 0.76045 0.81677 0.0
C801 C 0.78393 0.67485 0.85525 0.0
C802 C 0.73296 0.67497 0.82296 0.0
N803 N 0.77701 0.72079 0.82761 0.0
C804 C 0.79603 0.70565 0.84716 0.0
C805 C 0.74587 0.70577 0.8154 0.0
C806 C 0.75217 0.65947 0.84305 0.0
C807 C 0.85484 0.85136 0.76364 0.0
N808 N 0.87128 0.83471 0.78419 0.0
C809 C 0.86337 0.85545 0.73219 0.0
C810 C 0.88835 0.84162 0.72122 0.0
C811 C 0.90396 0.82338 0.7415 0.0
C812 C 0.89479 0.81984 0.77281 0.0
C813 C 0.95974 0.89972 0.83705 0.0
C814 C 0.91318 0.83532 0.8795 0.0
C815 C 0.91964 0.88091 0.83096 0.0
N816 N 0.90148 0.85282 0.84962 0.0
C817 C 0.95251 0.8439 0.89721 0.0
C818 C 0.98593 0.88969 0.8668 0.0
C819 C 0.82805 0.80005 0.88243 0.0
C820 C 0.71526 0.81002 0.81561 0.0
C821 C 0.74283 0.77107 0.85551 0.0
C822 C 0.71544 0.78253 0.86414 0.0
C823 C 0.70156 0.8021 0.84398 0.0
N824 N 0.75597 0.77863 0.82743 0.0
C825 C 0.74265 0.79808 0.80776 0.0
Co826 Co 0.72912 0.18831 0.31117 0.0
Co827 Co 0.75077 0.26987 0.30674 0.0
O828 O 0.75836 0.22602 0.29905 0.0
C829 C 0.78792 0.17503 0.35061 0.0
O830 O 0.78982 0.20142 0.36994 0.0
C831 C 0.76057 0.26461 0.23569 0.0
O832 O 0.7413 0.23615 0.2316 0.0
O833 O 0.70473 0.25661 0.28539 0.0
O834 O 0.68985 0.20615 0.29783 0.0
H835 H 0.68776 0.35317 0.34198 0.0
H836 H 0.77871 0.17954 0.26664 0.0
O837 O 0.7676 0.16858 0.3248 0.0
H838 H 0.67237 0.12969 0.20427 0.0
H839 H 0.69192 0.07029 0.31971 0.0
H840 H 0.66997 0.17828 0.34612 0.0
H841 H 0.67516 0.15423 0.26082 0.0
H842 H 0.72726 0.11785 0.30298 0.0
O843 O 0.76645 0.28051 0.26379 0.0
H844 H 0.69803 0.29839 0.33262 0.0
H845 H 0.78784 0.33457 0.29641 0.0
H846 H 0.63381 0.13132 0.363 0.0
H847 H 0.77709 0.15501 0.21018 0.0
H848 H 0.64474 0.07686 0.34987 0.0
H849 H 0.72362 0.12993 0.17859 0.0
O850 O 0.73073 0.20898 0.35635 0.0
H851 H 0.872 0.27435 0.31593 0.0
H852 H 0.78211 0.30816 0.36934 0.0
H853 H 0.83853 0.32367 0.39669 0.0
H854 H 0.88398 0.30682 0.36991 0.0
H855 H 0.81513 0.2591 0.28956 0.0
H856 H 0.77842 0.38972 0.30514 0.0
H857 H 0.72813 0.39931 0.32819 0.0
O858 O 0.7358 0.26133 0.35025 0.0
C859 C 0.68314 0.23139 0.28677 0.0
C860 C 0.7098 0.34931 0.33199 0.0
C861 C 0.76065 0.36982 0.31126 0.0
N862 N 0.74356 0.31329 0.31411 0.0
C863 C 0.71578 0.31835 0.32669 0.0
C864 C 0.76581 0.33853 0.30628 0.0
C865 C 0.73244 0.37518 0.32421 0.0
C866 C 0.75538 0.16845 0.2531 0.0
N867 N 0.72708 0.16824 0.26701 0.0
C868 C 0.7546 0.1547 0.22112 0.0
C869 C 0.72459 0.14067 0.20339 0.0
C870 C 0.69582 0.14055 0.21777 0.0
C871 C 0.69754 0.15457 0.24978 0.0
C872 C 0.68686 0.0939 0.32551 0.0
C873 C 0.67472 0.15464 0.34005 0.0
C874 C 0.70682 0.12093 0.31615 0.0
N875 N 0.70055 0.15082 0.32334 0.0
C876 C 0.65422 0.12814 0.34978 0.0
C877 C 0.66039 0.09759 0.34243 0.0
C878 C 0.73156 0.23786 0.36759 0.0
C879 C 0.85242 0.28189 0.32781 0.0
C880 C 0.8017 0.30059 0.35759 0.0
C881 C 0.83363 0.30953 0.37316 0.0
C882 C 0.85912 0.30009 0.35812 0.0
N883 N 0.79534 0.28283 0.3278 0.0
C884 C 0.82019 0.27341 0.31295 0.0
Co885 Co 0.4692 0.4263 0.46041 0.0
Co886 Co 0.46304 0.50387 0.4842 0.0
O887 O 0.47693 0.46392 0.49337 0.0
C888 C 0.44462 0.37144 0.49596 0.0
O889 O 0.4185 0.36609 0.47447 0.0
C890 C 0.53334 0.5276 0.51509 0.0
O891 O 0.54119 0.50144 0.50218 0.0
O892 O 0.48481 0.50524 0.44319 0.0
O893 O 0.47072 0.45339 0.42376 0.0
H894 H 0.4109 0.57364 0.41215 0.0
H895 H 0.52041 0.42721 0.5157 0.0
O896 O 0.46637 0.3969 0.49613 0.0
H897 H 0.58081 0.44316 0.41991 0.0
H898 H 0.51803 0.3253 0.42005 0.0
H899 H 0.4217 0.40111 0.39321 0.0
H900 H 0.52117 0.43734 0.41433 0.0
H901 H 0.50407 0.37099 0.45905 0.0
O902 O 0.50397 0.53176 0.50989 0.0
H903 H 0.43067 0.52492 0.42528 0.0
H904 H 0.46379 0.56664 0.52244 0.0
H905 H 0.44075 0.32943 0.32938 0.0
H906 H 0.58012 0.43227 0.52209 0.0
H907 H 0.48991 0.30377 0.35881 0.0
H908 H 0.61085 0.44032 0.474 0.0
O909 O 0.42086 0.4248 0.45667 0.0
H910 H 0.45668 0.49143 0.60329 0.0
H911 H 0.39654 0.51019 0.50055 0.0
H912 H 0.36888 0.50747 0.55056 0.0
H913 H 0.39905 0.49816 0.60245 0.0
H914 H 0.48328 0.49398 0.55258 0.0
H915 H 0.44482 0.61604 0.51019 0.0
H916 H 0.41798 0.61969 0.45477 0.0
O917 O 0.42171 0.47794 0.45935 0.0
C918 C 0.47991 0.4828 0.4199 0.0
C919 C 0.42256 0.57236 0.43639 0.0
C920 C 0.44163 0.59615 0.49141 0.0
N921 N 0.44832 0.54287 0.47461 0.0
C922 C 0.43377 0.54479 0.444 0.0
C923 C 0.45245 0.56816 0.49816 0.0
C924 C 0.42655 0.59818 0.46031 0.0
C925 C 0.53328 0.42978 0.49437 0.0
N926 N 0.51672 0.4306 0.46436 0.0
C927 C 0.56726 0.43303 0.49827 0.0
C928 C 0.5845 0.43768 0.47132 0.0
C929 C 0.56767 0.43926 0.44099 0.0
C930 C 0.53368 0.43588 0.43799 0.0
C931 C 0.49896 0.33687 0.41024 0.0
C932 C 0.43904 0.38506 0.39545 0.0
C933 C 0.48975 0.3668 0.43545 0.0
N934 N 0.46346 0.38841 0.42815 0.0
C935 C 0.45113 0.33899 0.35393 0.0
C936 C 0.48159 0.32303 0.3719 0.0
C937 C 0.40669 0.44867 0.4534 0.0
C938 C 0.44332 0.49562 0.58086 0.0
C939 C 0.4098 0.50601 0.523 0.0
C940 C 0.39403 0.50457 0.55126 0.0
C941 C 0.41097 0.49936 0.58036 0.0
N942 N 0.44159 0.50248 0.52373 0.0
C943 C 0.4583 0.4972 0.55212 0.0
C944 C 0.25874 0.21072 0.17812 0.0
C945 C 0.25205 0.23396 0.20128 0.0
C946 C 0.23436 0.19383 0.15393 0.0
C947 C 0.14406 0.16753 0.13693 0.0
H948 H 0.16395 0.14041 0.05067 0.0
C949 C 0.04421 0.08943 0.03899 0.0
C950 C 0.05364 0.06608 0.01787 0.0
C951 C 0.06764 0.11183 0.06013 0.0
C952 C 0.1579 0.14732 0.07475 0.0
H953 H 0.21414 0.25826 0.21612 0.0
H954 H 0.17143 0.22881 0.17376 0.0
H955 H 0.20556 0.17683 0.08831 0.0
H956 H 0.09561 0.04824 0.00298 0.0
H957 H 0.13615 0.08664 0.0399 0.0
H958 H 0.09658 0.13756 0.12362 0.0
C959 C 0.19573 0.22353 0.1745 0.0
C960 C 0.1819 0.16846 0.09643 0.0
C961 C 0.22038 0.24079 0.19859 0.0
C962 C 0.08726 0.06589 0.01862 0.0
C963 C 0.11067 0.08821 0.0398 0.0
C964 C 0.12005 0.14626 0.11527 0.0
C965 C 0.20219 0.19931 0.15214 0.0
C966 C 0.17556 0.1787 0.12805 0.0
C967 C 0.10135 0.11165 0.06098 0.0
C968 C 0.12662 0.13546 0.08386 0.0
H969 H 0.28272 0.20459 0.17944 0.0
H970 H 0.24047 0.17532 0.13756 0.0
H971 H 0.1382 0.17438 0.16112 0.0
H972 H 0.01862 0.0905 0.03918 0.0
H973 H 0.05924 0.12957 0.07556 0.0
C974 C 0.08536 0.9394 0.48787 0.0
C975 C 0.05304 0.92303 0.48824 0.0
C976 C 0.1086 0.92357 0.47539 0.0
C977 C 0.11464 0.84876 0.42388 0.0
H978 H 0.20678 0.87689 0.45418 0.0
C979 C 0.21363 0.80094 0.35708 0.0
C980 C 0.24356 0.79996 0.37494 0.0
C981 C 0.1901 0.81463 0.37181 0.0
C982 C 0.18114 0.86818 0.44568 0.0
H983 H 0.01997 0.87699 0.47723 0.0
H984 H 0.06066 0.84889 0.45748 0.0
H985 H 0.16723 0.9021 0.47966 0.0
H986 H 0.27182 0.81114 0.42256 0.0
H987 H 0.23024 0.83303 0.44883 0.0
H988 H 0.12835 0.81355 0.39127 0.0
C989 C 0.06805 0.87426 0.46529 0.0
C990 C 0.15832 0.88323 0.45998 0.0
C991 C 0.04468 0.89029 0.47699 0.0
C992 C 0.24903 0.81181 0.40811 0.0
C993 C 0.22523 0.82474 0.42307 0.0
C994 C 0.13739 0.83322 0.41011 0.0
C995 C 0.10026 0.89075 0.46366 0.0
C996 C 0.12468 0.87398 0.44913 0.0
C997 C 0.19561 0.827 0.40503 0.0
C998 C 0.17108 0.84284 0.42055 0.0
H999 H 0.09239 0.96476 0.49606 0.0
H1000 H 0.13283 0.93743 0.47412 0.0
H1001 H 0.08915 0.84113 0.41423 0.0
H1002 H 0.20892 0.79232 0.33135 0.0
H1003 H 0.16804 0.81631 0.35675 0.0
C1004 C 0.38646 0.91111 0.52459 0.0
C1005 C 0.41483 0.9016 0.51518 0.0
C1006 C 0.36699 0.89315 0.54511 0.0
C1007 C 0.37542 0.83746 0.6077 0.0
H1008 H 0.28117 0.82634 0.60485 0.0
C1009 C 0.30893 0.80197 0.71832 0.0
C1010 C 0.27936 0.77923 0.71323 0.0
C1011 C 0.32359 0.81459 0.69201 0.0
C1012 C 0.30747 0.82899 0.60579 0.0
H1013 H 0.44339 0.86435 0.51771 0.0
H1014 H 0.40939 0.83303 0.5527 0.0
H1015 H 0.30902 0.85173 0.56133 0.0
H1016 H 0.24204 0.75206 0.67615 0.0
H1017 H 0.26785 0.77426 0.62991 0.0
H1018 H 0.37412 0.81491 0.65197 0.0
C1019 C 0.40264 0.85482 0.54525 0.0
C1020 C 0.32346 0.84382 0.58103 0.0
C1021 C 0.42211 0.87277 0.52504 0.0
C1022 C 0.26484 0.76945 0.68096 0.0
C1023 C 0.2795 0.78232 0.65449 0.0
C1024 C 0.35954 0.82284 0.63239 0.0
C1025 C 0.37543 0.86526 0.55647 0.0
C1026 C 0.3577 0.84839 0.58177 0.0
C1027 C 0.30916 0.80498 0.65974 0.0
C1028 C 0.32542 0.8187 0.63201 0.0
H1029 H 0.38017 0.93318 0.5174 0.0
H1030 H 0.34626 0.90197 0.5533 0.0
H1031 H 0.40183 0.8409 0.60943 0.0
H1032 H 0.32088 0.8102 0.74277 0.0
H1033 H 0.34614 0.83232 0.69705 0.0
C1034 C 0.50815 0.08371 0.97151 0.0
C1035 C 0.50858 0.05642 0.95023 0.0
C1036 C 0.49589 0.10956 0.95981 0.0
C1037 C 0.43791 0.12401 0.89256 0.0
H1038 H 0.46797 0.21392 0.92379 0.0
C1039 C 0.35549 0.21416 0.87284 0.0
C1040 C 0.36859 0.24355 0.86154 0.0
C1041 C 0.37574 0.19388 0.88359 0.0
C1042 C 0.45951 0.18892 0.91464 0.0
H1043 H 0.49908 0.03596 0.89965 0.0
H1044 H 0.47864 0.08096 0.87929 0.0
H1045 H 0.49933 0.17434 0.94222 0.0
H1046 H 0.41365 0.27493 0.85352 0.0
H1047 H 0.44936 0.23909 0.87248 0.0
H1048 H 0.39821 0.13822 0.86514 0.0
C1049 C 0.48667 0.08217 0.90513 0.0
C1050 C 0.47727 0.16624 0.92541 0.0
C1051 C 0.49854 0.05638 0.91681 0.0
C1052 C 0.40275 0.25244 0.86196 0.0
C1053 C 0.42319 0.23201 0.87295 0.0
C1054 C 0.42023 0.14651 0.88198 0.0
C1055 C 0.48409 0.10861 0.92659 0.0
C1056 C 0.46654 0.13344 0.91459 0.0
C1057 C 0.40977 0.20226 0.8834 0.0
C1058 C 0.4305 0.17917 0.89317 0.0
H1059 H 0.5157 0.08443 0.99741 0.0
H1060 H 0.49417 0.1295 0.97704 0.0
H1061 H 0.42855 0.09898 0.88403 0.0
H1062 H 0.32936 0.20644 0.87311 0.0
H1063 H 0.36463 0.17143 0.89202 0.0
C1064 C 0.69544 0.27855 0.86148 0.0
C1065 C 0.72898 0.29089 0.87046 0.0
C1066 C 0.67194 0.29189 0.87671 0.0
C1067 C 0.66154 0.34204 0.95106 0.0
H1068 H 0.58723 0.36039 0.89806 0.0
C1069 C 0.53541 0.39321 0.96731 0.0
C1070 C 0.54797 0.41944 0.99088 0.0
C1071 C 0.5563 0.37549 0.95327 0.0
C1072 C 0.60758 0.35503 0.91331 0.0
H1073 H 0.76404 0.32675 0.90275 0.0
H1074 H 0.72332 0.34985 0.92898 0.0
H1075 H 0.62536 0.33236 0.87248 0.0
H1076 H 0.59241 0.44756 0.01814 0.0
H1077 H 0.62885 0.41685 0.99344 0.0
H1078 H 0.64399 0.3649 0.99184 0.0
C1079 C 0.71506 0.32972 0.91046 0.0
C1080 C 0.62943 0.33894 0.89862 0.0
C1081 C 0.73845 0.31656 0.89519 0.0
C1082 C 0.58189 0.42739 1.00022 0.0
C1083 C 0.60278 0.40966 0.98616 0.0
C1084 C 0.63969 0.35807 0.96574 0.0
C1085 C 0.68152 0.31766 0.90138 0.0
C1086 C 0.65691 0.33262 0.91726 0.0
C1087 C 0.59027 0.38354 0.96243 0.0
C1088 C 0.61265 0.36512 0.947 0.0
H1089 H 0.68733 0.25882 0.84249 0.0
H1090 H 0.64627 0.28192 0.86933 0.0
H1091 H 0.68214 0.33704 0.96623 0.0
H1092 H 0.50939 0.38637 0.95958 0.0
H1093 H 0.54578 0.35529 0.93539 0.0
C1094 C 0.92172 0.41598 0.04873 0.0
C1095 C 0.92761 0.39989 0.0195 0.0
C1096 C 0.89964 0.40071 0.06858 0.0
C1097 C 0.86091 0.31969 0.08713 0.0
H1098 H 0.80895 0.36704 0.13745 0.0
C1099 C 0.7744 0.26088 0.17748 0.0
C1100 C 0.77606 0.27882 0.20791 0.0
C1101 C 0.78985 0.27462 0.15186 0.0
C1102 C 0.82343 0.35348 0.12371 0.0
H1103 H 0.91409 0.35534 0.98792 0.0
H1104 H 0.87501 0.32885 0.02227 0.0
H1105 H 0.84053 0.3931 0.09713 0.0
H1106 H 0.79517 0.32543 0.235 0.0
H1107 H 0.82186 0.34908 0.19072 0.0
H1108 H 0.84398 0.28015 0.11409 0.0
C1109 C 0.88789 0.35316 0.03005 0.0
C1110 C 0.8416 0.36846 0.10057 0.0
C1111 C 0.91003 0.36847 0.01016 0.0
C1112 C 0.79327 0.31082 0.21196 0.0
C1113 C 0.80844 0.32453 0.1864 0.0
C1114 C 0.84262 0.30465 0.11025 0.0
C1115 C 0.88276 0.36891 0.0598 0.0
C1116 C 0.86109 0.35199 0.08236 0.0
C1117 C 0.80703 0.30667 0.15601 0.0
C1118 C 0.82412 0.32155 0.12928 0.0
H1119 H 0.93488 0.44014 0.05685 0.0
H1120 H 0.89674 0.41354 0.09146 0.0
H1121 H 0.87588 0.3063 0.07389 0.0
H1122 H 0.76141 0.23617 0.17352 0.0
H1123 H 0.78813 0.26022 0.12871 0.0
C1124 C 0.9887 0.56707 0.43252 0.0
C1125 C 0.0127 0.569 0.45926 0.0
C1126 C 0.97851 0.59456 0.42295 0.0
C1127 C 0.97156 0.67564 0.45399 0.0
H1128 H 0.95441 0.68615 0.36205 0.0
C1129 C 0.88402 0.75452 0.40435 0.0
C1130 C 0.89159 0.77145 0.37738 0.0
C1131 C 0.90383 0.73411 0.41616 0.0
C1132 C 0.95944 0.68388 0.38785 0.0
H1133 H 0.04489 0.60164 0.4968 0.0
H1134 H 0.0267 0.64982 0.48022 0.0
H1135 H 0.97983 0.64216 0.37834 0.0
H1136 H 0.92682 0.78116 0.34257 0.0
H1137 H 0.96142 0.74529 0.36313 0.0
H1138 H 0.95049 0.717 0.46344 0.0
C1139 C 0.01589 0.62686 0.46667 0.0
C1140 C 0.97372 0.65844 0.39718 0.0
C1141 C 0.02643 0.59929 0.47606 0.0
C1142 C 0.92029 0.7685 0.36338 0.0
C1143 C 0.93997 0.74776 0.37501 0.0
C1144 C 0.95698 0.70094 0.44464 0.0
C1145 C 0.99176 0.6248 0.43999 0.0
C1146 C 0.97948 0.65367 0.43033 0.0
C1147 C 0.93164 0.72984 0.40117 0.0
C1148 C 0.95028 0.7051 0.41141 0.0
H1149 H 0.9776 0.5442 0.41894 0.0
H1150 H 0.95961 0.59199 0.40257 0.0
H1151 H 0.9755 0.67259 0.47972 0.0
H1152 H 0.8622 0.75634 0.41586 0.0
H1153 H 0.89649 0.72056 0.43616 0.0
C1154 C 0.5868 0.54405 0.55189 0.0
C1155 C 0.55845 0.55216 0.53665 0.0
C1156 C 0.60997 0.56685 0.57281 0.0
C1157 C 0.62224 0.64999 0.6184 0.0
H1158 H 0.71236 0.6398 0.6311 0.0
C1159 C 0.72849 0.74731 0.69129 0.0
C1160 C 0.7475 0.73591 0.71594 0.0
C1161 C 0.70606 0.72583 0.66825 0.0
C1162 C 0.68726 0.64299 0.62787 0.0
H1163 H 0.53283 0.5912 0.53113 0.0
H1164 H 0.57366 0.63122 0.56585 0.0
H1165 H 0.6728 0.60153 0.59318 0.0
H1166 H 0.75818 0.69274 0.73488 0.0
H1167 H 0.7202 0.65558 0.69412 0.0
H1168 H 0.63751 0.69232 0.65244 0.0
C1169 C 0.57773 0.60696 0.56294 0.0
C1170 C 0.66426 0.62075 0.60621 0.0
C1171 C 0.55421 0.58393 0.5426 0.0
C1172 C 0.74408 0.70248 0.71626 0.0
C1173 C 0.7223 0.6811 0.69283 0.0
C1174 C 0.64546 0.67262 0.6395 0.0
C1175 C 0.60605 0.59889 0.57872 0.0
C1176 C 0.63111 0.62351 0.60125 0.0
C1177 C 0.70263 0.6924 0.66874 0.0
C1178 C 0.67823 0.66927 0.64482 0.0
H1179 H 0.59081 0.51976 0.5482 0.0
H1180 H 0.63069 0.55895 0.58475 0.0
H1181 H 0.59715 0.6531 0.61623 0.0
H1182 H 0.73021 0.77283 0.69041 0.0
H1183 H 0.6914 0.73539 0.64997 0.0
C1184 C 0.3326 0.31778 0.43045 0.0
C1185 C 0.31327 0.29781 0.40413 0.0
C1186 C 0.32843 0.31173 0.4627 0.0
C1187 C 0.26801 0.28185 0.51335 0.0
H1188 H 0.33605 0.26021 0.57258 0.0
C1189 C 0.24154 0.25391 0.64228 0.0
C1190 C 0.26663 0.26563 0.66777 0.0
C1191 C 0.24828 0.25284 0.60979 0.0
C1192 C 0.31686 0.26665 0.55662 0.0
H1193 H 0.27471 0.25546 0.39142 0.0
H1194 H 0.26652 0.24607 0.44759 0.0
H1195 H 0.34673 0.27128 0.51712 0.0
H1196 H 0.31889 0.28347 0.6793 0.0
H1197 H 0.33036 0.28339 0.62303 0.0
H1198 H 0.23858 0.27922 0.55262 0.0
C1199 C 0.28509 0.26612 0.44306 0.0
C1200 C 0.32304 0.27284 0.52483 0.0
C1201 C 0.28974 0.27168 0.41091 0.0
C1202 C 0.29893 0.2743 0.66022 0.0
C1203 C 0.30554 0.27411 0.62773 0.0
C1204 C 0.26205 0.27647 0.54526 0.0
C1205 C 0.30441 0.28602 0.46915 0.0
C1206 C 0.29857 0.28034 0.503 0.0
C1207 C 0.28013 0.26438 0.60196 0.0
C1208 C 0.28631 0.26863 0.56742 0.0
H1209 H 0.35109 0.33793 0.42617 0.0
H1210 H 0.34351 0.32744 0.48259 0.0
H1211 H 0.24888 0.28782 0.49686 0.0
H1212 H 0.21647 0.24669 0.64739 0.0
H1213 H 0.22819 0.24397 0.59081 0.0
C1214 C 0.00377 0.00585 0.85868 0.0
C1215 C 0.97458 0.99721 0.87259 0.0
C1216 C 0.00363 0.00233 0.82465 0.0
C1217 C 0.95544 0.95385 0.75178 0.0
H1218 H 0.00939 0.01359 0.70404 0.0
C1219 C 0.9452 0.94807 0.60994 0.0
C1220 C 0.97389 0.95901 0.5959 0.0
C1221 C 0.9459 0.94909 0.644 0.0
C1222 C 0.99457 0.99634 0.71705 0.0
H1223 H 0.92247 0.97887 0.86257 0.0
H1224 H 0.92188 0.97381 0.80326 0.0
H1225 H 0.00886 0.02584 0.76249 0.0
H1226 H 0.02596 0.97762 0.60568 0.0
H1227 H 0.02759 0.97819 0.66486 0.0
H1228 H 0.94107 0.92439 0.70622 0.0
C1229 C 0.94492 0.98298 0.81829 0.0
C1230 C 0.99419 0.00349 0.75059 0.0
C1231 C 0.94513 0.98644 0.85216 0.0
C1232 C 0.0036 0.96874 0.61607 0.0
C1233 C 0.0044 0.96953 0.64994 0.0
C1234 C 0.95586 0.94667 0.71818 0.0
C1235 C 0.97432 0.98988 0.80414 0.0
C1236 C 0.97455 0.98242 0.76836 0.0
C1237 C 0.97535 0.96114 0.66442 0.0
C1238 C 0.97547 0.96783 0.70039 0.0
H1239 H 0.02686 0.01313 0.87408 0.0
H1240 H 0.02674 0.00758 0.81455 0.0
H1241 H 0.94047 0.93677 0.76485 0.0
H1242 H 0.9219 0.9412 0.59481 0.0
H1243 H 0.92305 0.94258 0.65431 0.0
C1244 C 0.2495 0.78936 0.92544 0.0
C1245 C 0.24778 0.75688 0.91466 0.0
C1246 C 0.25382 0.7999 0.95876 0.0
C1247 C 0.25033 0.77209 0.04152 0.0
H1248 H 0.31574 0.84961 0.06794 0.0
C1249 C 0.29021 0.81339 0.17741 0.0
C1250 C 0.32433 0.8199 0.18584 0.0
C1251 C 0.27697 0.81187 0.14481 0.0
C1252 C 0.29735 0.82797 0.061 0.0
H1253 H 0.24721 0.70978 0.93088 0.0
H1254 H 0.25533 0.72823 0.9889 0.0
H1255 H 0.29925 0.83263 0.01007 0.0
H1256 H 0.37107 0.8333 0.16704 0.0
H1257 H 0.34809 0.83063 0.11046 0.0
H1258 H 0.24965 0.76653 0.09238 0.0
C1259 C 0.25321 0.74557 0.97153 0.0
C1260 C 0.28763 0.81838 0.02778 0.0
C1261 C 0.24882 0.73499 0.93816 0.0
C1262 C 0.3447 0.82795 0.16142 0.0
C1263 C 0.33146 0.8265 0.12887 0.0
C1264 C 0.26007 0.78167 0.07473 0.0
C1265 C 0.25648 0.77828 0.98224 0.0
C1266 C 0.26444 0.78998 0.0176 0.0
C1267 C 0.29751 0.81706 0.11997 0.0
C1268 C 0.28417 0.80941 0.08489 0.0
H1269 H 0.2483 0.80694 0.90816 0.0
H1270 H 0.25553 0.82514 0.96612 0.0
H1271 H 0.2321 0.75034 0.03458 0.0
H1272 H 0.27374 0.80725 0.19559 0.0
H1273 H 0.25067 0.80525 0.13888 0.0
C1274 C 0.49039 0.92843 0.36657 0.0
C1275 C 0.47606 0.95048 0.38424 0.0
C1276 C 0.48284 0.92224 0.33258 0.0
C1277 C 0.4563 0.90537 0.2608 0.0
H1278 H 0.44337 0.97925 0.21643 0.0
C1279 C 0.44452 0.89879 0.12029 0.0
C1280 C 0.46222 0.92529 0.10728 0.0
C1281 C 0.43889 0.90075 0.15314 0.0
C1282 C 0.44712 0.95837 0.2283 0.0
H1283 H 0.44028 0.98073 0.38077 0.0
H1284 H 0.42648 0.96963 0.32218 0.0
H1285 H 0.44922 0.98334 0.27545 0.0
H1286 H 0.48598 0.97529 0.11809 0.0
H1287 H 0.47712 0.97855 0.17523 0.0
H1288 H 0.45655 0.88118 0.2135 0.0
C1289 C 0.44479 0.95824 0.33394 0.0
C1290 C 0.44994 0.96052 0.26237 0.0
C1291 C 0.45273 0.96473 0.36767 0.0
C1292 C 0.47214 0.95444 0.12723 0.0
C1293 C 0.46696 0.95628 0.16017 0.0
C1294 C 0.45397 0.90337 0.22664 0.0
C1295 C 0.46046 0.93769 0.31568 0.0
C1296 C 0.45501 0.93422 0.2792 0.0
C1297 C 0.45118 0.92917 0.17387 0.0
C1298 C 0.44992 0.93006 0.20993 0.0
H1299 H 0.50847 0.91708 0.37872 0.0
H1300 H 0.49566 0.90642 0.3195 0.0
H1301 H 0.45959 0.8844 0.27274 0.0
H1302 H 0.43628 0.87604 0.10546 0.0
H1303 H 0.42583 0.87965 0.1625 0.0
C1304 C 0.38901 0.23879 0.26766 0.0
C1305 C 0.38445 0.24977 0.29956 0.0
C1306 C 0.41935 0.23194 0.26101 0.0
C1307 C 0.48725 0.21013 0.26037 0.0
H1308 H 0.55572 0.28136 0.29934 0.0
C1309 C 0.62412 0.20376 0.2785 0.0
C1310 C 0.64801 0.23169 0.27766 0.0
C1311 C 0.59084 0.20459 0.2745 0.0
C1312 C 0.537 0.26147 0.2878 0.0
H1313 H 0.40657 0.25916 0.34984 0.0
H1314 H 0.45884 0.24649 0.33839 0.0
H1315 H 0.49892 0.2824 0.30583 0.0
H1316 H 0.65526 0.28204 0.26996 0.0
H1317 H 0.59703 0.2834 0.26258 0.0
H1318 H 0.52553 0.18915 0.24229 0.0
C1319 C 0.43946 0.24383 0.31844 0.0
C1320 C 0.50445 0.26185 0.29202 0.0
C1321 C 0.4094 0.25064 0.32505 0.0
C1322 C 0.63762 0.26011 0.27092 0.0
C1323 C 0.60422 0.26093 0.2669 0.0
C1324 C 0.52 0.20966 0.2562 0.0
C1325 C 0.44531 0.23605 0.28619 0.0
C1326 C 0.47933 0.23591 0.27906 0.0
C1327 C 0.58044 0.23335 0.26952 0.0
C1328 C 0.54534 0.23513 0.27036 0.0
H1329 H 0.37038 0.23847 0.24752 0.0
H1330 H 0.42326 0.22588 0.23594 0.0
H1331 H 0.4683 0.18995 0.2499 0.0
H1332 H 0.63104 0.18133 0.28353 0.0
H1333 H 0.57335 0.18298 0.27702 0.0
C1334 C 0.00952 0.35182 0.51953 0.0
C1335 C 0.00766 0.37087 0.49355 0.0
C1336 C 0.00399 0.31844 0.51353 0.0
C1337 C 0.96903 0.25042 0.45 0.0
H1338 H 0.02384 0.20607 0.50278 0.0
C1339 C 0.00253 0.11678 0.46363 0.0
C1340 C 0.97081 0.09795 0.46011 0.0
C1341 C 0.00725 0.14984 0.46222 0.0
C1342 C 0.00864 0.21803 0.48739 0.0
H1343 H 0.99802 0.36955 0.44081 0.0
H1344 H 0.98919 0.31163 0.43041 0.0
H1345 H 0.03113 0.26386 0.51227 0.0
H1346 H 0.91924 0.09857 0.44994 0.0
H1347 H 0.92737 0.15638 0.44816 0.0
H1348 H 0.94714 0.20447 0.42456 0.0
C1349 C 0.99432 0.32236 0.45548 0.0
C1350 C 0.01242 0.25123 0.49329 0.0
C1351 C 0.99961 0.35569 0.46148 0.0
C1352 C 0.94401 0.11245 0.45257 0.0
C1353 C 0.94871 0.14567 0.4516 0.0
C1354 C 0.96539 0.21714 0.44393 0.0
C1355 C 0.99671 0.30329 0.48139 0.0
C1356 C 0.99254 0.26787 0.47485 0.0
C1357 C 0.98033 0.16491 0.45777 0.0
C1358 C 0.98511 0.2005 0.46263 0.0
H1359 H 0.01547 0.36267 0.54453 0.0
H1360 H 0.00542 0.30449 0.53414 0.0
H1361 H 0.95307 0.26238 0.43549 0.0
H1362 H 0.02368 0.10619 0.46919 0.0
H1363 H 0.03201 0.16376 0.46603 0.0
C1364 C 0.9136 0.74244 0.84032 0.0
C1365 C 0.89103 0.74261 0.81305 0.0
C1366 C 0.94436 0.73568 0.83636 0.0
C1367 C 0.01366 0.75111 0.82105 0.0
H1368 H 0.03665 0.69526 0.75225 0.0
C1369 C 0.14666 0.76275 0.79163 0.0
C1370 C 0.15834 0.73414 0.79342 0.0
C1371 C 0.11299 0.76231 0.78976 0.0
C1372 C 0.03047 0.71115 0.77141 0.0
H1373 H 0.88204 0.73443 0.76039 0.0
H1374 H 0.93616 0.72319 0.75317 0.0
H1375 H 0.97891 0.69297 0.7596 0.0
H1376 H 0.14344 0.68249 0.79267 0.0
H1377 H 0.08517 0.68181 0.78846 0.0
H1378 H 0.06503 0.76928 0.8329 0.0
C1379 C 0.92994 0.72745 0.77774 0.0
C1380 C 0.99744 0.70987 0.77562 0.0
C1381 C 0.8988 0.73365 0.78181 0.0
C1382 C 0.13549 0.70501 0.79124 0.0
C1383 C 0.10196 0.70453 0.78874 0.0
C1384 C 0.04645 0.75281 0.81647 0.0
C1385 C 0.95362 0.72983 0.80493 0.0
C1386 C 0.9886 0.72982 0.80062 0.0
C1387 C 0.09039 0.73321 0.78895 0.0
C1388 C 0.05527 0.73283 0.79169 0.0
H1389 H 0.90822 0.74963 0.86463 0.0
H1390 H 0.9615 0.73679 0.85795 0.0
H1391 H 0.00804 0.76675 0.84062 0.0
H1392 H 0.16351 0.7856 0.7933 0.0
H1393 H 0.10465 0.78479 0.7898 0.0
C1394 C 0.45012 0.60066 0.94524 0.0
C1395 C 0.47861 0.58878 0.953 0.0
C1396 C 0.45245 0.63255 0.93855 0.0
C1397 C 0.51033 0.70738 0.96496 0.0
H1398 H 0.44821 0.7463 0.91479 0.0
C1399 C 0.49733 0.83575 1.00046 0.0
C1400 C 0.49666 0.85605 0.97544 0.0
C1401 C 0.49404 0.8028 0.99297 0.0
C1402 C 0.46588 0.73572 0.92871 0.0
H1403 H 0.53146 0.59903 0.95562 0.0
H1404 H 0.53553 0.65411 0.94254 0.0
H1405 H 0.44583 0.68842 0.90515 0.0
H1406 H 0.49088 0.85732 0.92278 0.0
H1407 H 0.48513 0.79961 0.90984 0.0
H1408 H 0.53023 0.75426 0.98874 0.0
C1409 C 0.51147 0.63942 0.94285 0.0
C1410 C 0.46443 0.70265 0.92331 0.0
C1411 C 0.50916 0.60783 0.95004 0.0
C1412 C 0.49157 0.84242 0.9427 0.0
C1413 C 0.48813 0.80935 0.93522 0.0
C1414 C 0.51169 0.7402 0.97039 0.0
C1415 C 0.48331 0.65274 0.93919 0.0
C1416 C 0.48649 0.68809 0.94164 0.0
C1417 C 0.48996 0.78932 0.96031 0.0
C1418 C 0.48918 0.75466 0.95278 0.0
H1419 H 0.42625 0.58644 0.94751 0.0
H1420 H 0.43027 0.64204 0.9358 0.0
H1421 H 0.52732 0.69699 0.98002 0.0
H1422 H 0.50112 0.8453 0.02592 0.0
H1423 H 0.49501 0.78784 0.01282 0.0
C1424 C 0.68617 0.81103 0.27117 0.0
C1425 C 0.7033 0.804 0.29974 0.0
C1426 C 0.65226 0.80939 0.26908 0.0
C1427 C 0.57899 0.77584 0.30911 0.0
H1428 H 0.54077 0.8414 0.26967 0.0
C1429 C 0.45006 0.79417 0.33039 0.0
C1430 C 0.42887 0.7961 0.30244 0.0
C1431 C 0.48346 0.79593 0.32851 0.0
C1432 C 0.55111 0.82282 0.28055 0.0
H1433 H 0.6979 0.78957 0.34846 0.0
H1434 H 0.63968 0.78737 0.34503 0.0
H1435 H 0.59906 0.84164 0.26816 0.0
H1436 H 0.42671 0.80287 0.25085 0.0
H1437 H 0.4851 0.80633 0.24778 0.0
H1438 H 0.53131 0.7575 0.32218 0.0
C1439 C 0.65204 0.79351 0.3239 0.0
C1440 C 0.58445 0.82283 0.27955 0.0
C1441 C 0.68568 0.79501 0.32594 0.0
C1442 C 0.44218 0.80106 0.27283 0.0
C1443 C 0.47569 0.80321 0.27105 0.0
C1444 C 0.54588 0.77604 0.31039 0.0
C1445 C 0.6348 0.80069 0.29552 0.0
C1446 C 0.5989 0.79955 0.29421 0.0
C1447 C 0.49656 0.80003 0.29873 0.0
C1448 C 0.53164 0.7997 0.29646 0.0
H1449 H 0.69895 0.81811 0.25055 0.0
H1450 H 0.63972 0.81481 0.24673 0.0
H1451 H 0.58901 0.75706 0.31995 0.0
H1452 H 0.44079 0.79054 0.35366 0.0
H1453 H 0.49906 0.79387 0.35036 0.0
C1454 C 0.55141 0.13294 0.54127 0.0
C1455 C 0.52647 0.10553 0.53343 0.0
C1456 C 0.54378 0.1631 0.54818 0.0
C1457 C 0.4743 0.20565 0.56054 0.0
H1458 H 0.52669 0.27072 0.51709 0.0
C1459 C 0.4298 0.31559 0.51214 0.0
C1460 C 0.45268 0.34459 0.5137 0.0
C1461 C 0.43926 0.28819 0.52308 0.0
C1462 C 0.51209 0.25307 0.52987 0.0
H1463 H 0.47396 0.0881 0.52955 0.0
H1464 H 0.46065 0.14046 0.54045 0.0
H1465 H 0.54293 0.21962 0.52146 0.0
H1466 H 0.50298 0.36793 0.53008 0.0
H1467 H 0.51938 0.32021 0.54904 0.0
H1468 H 0.4425 0.239 0.56721 0.0
C1469 C 0.4862 0.13888 0.54178 0.0
C1470 C 0.52149 0.22364 0.53254 0.0
C1471 C 0.49388 0.10866 0.53542 0.0
C1472 C 0.48469 0.34604 0.52841 0.0
C1473 C 0.4942 0.31861 0.53907 0.0
C1474 C 0.46468 0.23506 0.55752 0.0
C1475 C 0.51098 0.16672 0.54693 0.0
C1476 C 0.50255 0.19927 0.54753 0.0
C1477 C 0.47188 0.28912 0.53559 0.0
C1478 C 0.48329 0.25898 0.54181 0.0
H1479 H 0.57681 0.13137 0.54038 0.0
H1480 H 0.56364 0.18377 0.55312 0.0
H1481 H 0.4593 0.18777 0.5727 0.0
H1482 H 0.40492 0.31359 0.50101 0.0
H1483 H 0.42148 0.26585 0.51994 0.0
C1484 C 0.17086 0.29243 0.82057 0.0
C1485 C 0.18602 0.29225 0.79165 0.0
C1486 C 0.13725 0.29089 0.81954 0.0
C1487 C 0.06411 0.30192 0.76732 0.0
H1488 H 0.01846 0.24944 0.8274 0.0
C1489 C 0.92236 0.27103 0.7638 0.0
C1490 C 0.90993 0.27342 0.79416 0.0
C1491 C 0.956 0.274 0.76223 0.0
C1492 C 0.03089 0.2644 0.81066 0.0
H1493 H 0.17756 0.29103 0.73894 0.0
H1494 H 0.11856 0.28776 0.7371 0.0
H1495 H 0.077 0.25316 0.82653 0.0
H1496 H 0.92345 0.28113 0.8467 0.0
H1497 H 0.98186 0.28608 0.84383 0.0
H1498 H 0.01757 0.31277 0.75129 0.0
C1499 C 0.13289 0.28945 0.76063 0.0
C1500 C 0.06449 0.26661 0.81019 0.0
C1501 C 0.16671 0.29117 0.76166 0.0
C1502 C 0.93201 0.27903 0.82286 0.0
C1503 C 0.96554 0.28175 0.82127 0.0
C1504 C 0.03034 0.29953 0.76766 0.0
C1505 C 0.11772 0.2889 0.78957 0.0
C1506 C 0.08164 0.2857 0.78882 0.0
C1507 C 0.97789 0.2791 0.79097 0.0
C1508 C 0.01347 0.281 0.7896 0.0
H1509 H 0.18491 0.29359 0.84418 0.0
H1510 H 0.12658 0.29131 0.84237 0.0
H1511 H 0.07657 0.31707 0.75076 0.0
H1512 H 0.90614 0.26664 0.7412 0.0
H1513 H 0.9648 0.27162 0.73854 0.0
C1514 C 0.99456 0.85982 0.0227 0.0
C1515 C 0.96266 0.85657 0.00701 0.0
C1516 C 0.00451 0.83383 0.03635 0.0
C1517 C 0.9749 0.75118 0.05876 0.0
H1518 H 0.05554 0.73546 0.0282 0.0
C1519 C 0.00303 0.62508 0.03505 0.0
C1520 C 0.03577 0.62137 0.03733 0.0
C1521 C 0.99551 0.65533 0.04151 0.0
C1522 C 0.03337 0.73965 0.03771 0.0
H1523 H 0.9156 0.82416 0.99538 0.0
H1524 H 0.93283 0.7791 0.01908 0.0
H1525 H 0.03977 0.7865 0.02172 0.0
H1526 H 0.08606 0.64602 0.05116 0.0
H1527 H 0.07289 0.69859 0.06319 0.0
H1528 H 0.96802 0.70372 0.07369 0.0
C1529 C 0.95022 0.80164 0.02103 0.0
C1530 C 0.02429 0.76905 0.03396 0.0
C1531 C 0.94034 0.82752 0.00728 0.0
C1532 C 0.0606 0.64809 0.04881 0.0
C1533 C 0.05307 0.6783 0.05548 0.0
C1534 C 0.98405 0.72173 0.06261 0.0
C1535 C 0.98273 0.80412 0.03472 0.0
C1536 C 0.99455 0.7749 0.04365 0.0
C1537 C 0.02053 0.68253 0.05063 0.0
C1538 C 0.013 0.71529 0.05135 0.0
H1539 H 0.01237 0.88187 0.02297 0.0
H1540 H 0.02961 0.83665 0.04714 0.0
H1541 H 0.95203 0.7551 0.06689 0.0
H1542 H 0.98324 0.60504 0.02624 0.0
H1543 H 0.9702 0.65761 0.03728 0.0
C1544 C 0.35364 0.44803 0.35145 0.0
C1545 C 0.32367 0.42682 0.34149 0.0
C1546 C 0.35526 0.48106 0.35558 0.0
C1547 C 0.3046 0.54337 0.36378 0.0
H1548 H 0.37686 0.59573 0.32895 0.0
C1549 C 0.32299 0.6829 0.36312 0.0
C1550 C 0.32966 0.69356 0.33268 0.0
C1551 C 0.3232 0.65097 0.36888 0.0
C1552 C 0.35658 0.58147 0.33891 0.0
H1553 H 0.27177 0.42346 0.32846 0.0
H1554 H 0.27472 0.48145 0.33429 0.0
H1555 H 0.37484 0.53862 0.32988 0.0
H1556 H 0.34167 0.67866 0.28449 0.0
H1557 H 0.34207 0.62388 0.29459 0.0
H1558 H 0.28583 0.58646 0.3715 0.0
C1559 C 0.2969 0.47247 0.33975 0.0
C1560 C 0.35555 0.54872 0.33972 0.0
C1561 C 0.29518 0.43927 0.33623 0.0
C1562 C 0.3365 0.67159 0.3083 0.0
C1563 C 0.33696 0.64006 0.31413 0.0
C1564 C 0.30569 0.5763 0.363 0.0
C1565 C 0.32697 0.49377 0.34947 0.0
C1566 C 0.32921 0.52909 0.3515 0.0
C1567 C 0.33051 0.62935 0.34446 0.0
C1568 C 0.33129 0.59551 0.34976 0.0
H1569 H 0.3759 0.43903 0.35618 0.0
H1570 H 0.37875 0.49663 0.36363 0.0
H1571 H 0.28426 0.52902 0.37353 0.0
H1572 H 0.31762 0.69915 0.38243 0.0
H1573 H 0.31814 0.64332 0.39252 0.0
C1574 C 0.84073 0.17077 0.84324 0.0
C1575 C 0.81093 0.181 0.83896 0.0
C1576 C 0.8412 0.13881 0.84757 0.0
C1577 C 0.79186 0.06138 0.86433 0.0
H1578 H 0.84812 0.02618 0.80818 0.0
C1579 C 0.7863 0.92458 0.83912 0.0
C1580 C 0.81639 0.91488 0.83816 0.0
C1581 C 0.78488 0.95716 0.8403 0.0
C1582 C 0.83258 0.03561 0.82434 0.0
H1583 H 0.75836 0.16673 0.83649 0.0
H1584 H 0.75898 0.11046 0.84408 0.0
H1585 H 0.84782 0.08309 0.81142 0.0
H1586 H 0.86866 0.93173 0.838 0.0
H1587 H 0.86622 0.98811 0.84078 0.0
H1588 H 0.77662 0.01361 0.87715 0.0
C1589 C 0.78203 0.12718 0.84472 0.0
C1590 C 0.83245 0.06831 0.82625 0.0
C1591 C 0.78161 0.15929 0.84047 0.0
C1592 C 0.84498 0.93832 0.83841 0.0
C1593 C 0.84359 0.97073 0.83983 0.0
C1594 C 0.79208 0.02853 0.86252 0.0
C1595 C 0.8118 0.1164 0.84722 0.0
C1596 C 0.8122 0.08164 0.84632 0.0
C1597 C 0.81356 0.98061 0.84086 0.0
C1598 C 0.81252 0.0153 0.84252 0.0
H1599 H 0.86355 0.18719 0.84168 0.0
H1600 H 0.86454 0.13136 0.84994 0.0
H1601 H 0.77609 0.07098 0.8801 0.0
H1602 H 0.76386 0.90703 0.83872 0.0
H1603 H 0.7613 0.96396 0.84061 0.0
C1604 C 0.3678 0.49397 0.04227 0.0
C1605 C 0.39109 0.51532 0.02829 0.0
C1606 C 0.33519 0.49737 0.0402 0.0
C1607 C 0.273 0.51753 0.98704 0.0
H1608 H 0.22639 0.53006 0.06224 0.0
C1609 C 0.13192 0.48572 0.98514 0.0
C1610 C 0.11717 0.51021 0.99797 0.0
C1611 C 0.16599 0.48937 0.98834 0.0
C1612 C 0.23918 0.52675 0.04105 0.0
H1613 H 0.39868 0.55691 1.00118 0.0
H1614 H 0.34101 0.56202 0.99638 0.0
H1615 H 0.28555 0.53169 0.07008 0.0
H1616 H 0.12658 0.55757 0.02451 0.0
H1617 H 0.18621 0.56343 0.03101 0.0
H1618 H 0.22646 0.51108 0.95809 0.0
C1619 C 0.34837 0.54324 0.00963 0.0
C1620 C 0.27288 0.52763 0.04554 0.0
C1621 C 0.38126 0.54042 0.01254 0.0
C1622 C 0.13722 0.53836 0.01421 0.0
C1623 C 0.17129 0.54169 0.01806 0.0
C1624 C 0.23919 0.51594 0.98259 0.0
C1625 C 0.3251 0.52161 0.02333 0.0
C1626 C 0.29 0.52297 0.01857 0.0
C1627 C 0.18596 0.51726 0.00507 0.0
C1628 C 0.22197 0.52042 0.00958 0.0
H1629 H 0.37475 0.47434 0.05438 0.0
H1630 H 0.31757 0.48031 0.05073 0.0
H1631 H 0.28572 0.51347 0.96599 0.0
H1632 H 0.11714 0.46378 0.97241 0.0
H1633 H 0.17674 0.47011 0.97831 0.0
C1634 C 0.80605 0.14467 0.39578 0.0
C1635 C 0.803 0.14884 0.3623 0.0
C1636 C 0.81275 0.11602 0.40628 0.0
C1637 C 0.84386 0.04367 0.38542 0.0
H1638 H 0.76794 0.99645 0.41942 0.0
C1639 C 0.83144 0.90938 0.39663 0.0
C1640 C 0.80246 0.89214 0.37869 0.0
C1641 C 0.83453 0.94218 0.4063 0.0
C1642 C 0.78961 0.00948 0.41057 0.0
H1643 H 0.80687 0.12739 0.31388 0.0
H1644 H 0.82 0.07791 0.33241 0.0
H1645 H 0.77196 0.05341 0.41297 0.0
H1646 H 0.75302 0.89427 0.35982 0.0
H1647 H 0.75815 0.95091 0.3773 0.0
H1648 H 0.86093 0.99953 0.38166 0.0
C1649 C 0.8168 0.09663 0.35041 0.0
C1650 C 0.79196 0.04206 0.407 0.0
C1651 C 0.80927 0.12489 0.33982 0.0
C1652 C 0.77559 0.90712 0.3738 0.0
C1653 C 0.77858 0.93962 0.3838 0.0
C1654 C 0.84183 0.01121 0.3896 0.0
C1655 C 0.81742 0.09149 0.38357 0.0
C1656 C 0.81856 0.05915 0.39338 0.0
C1657 C 0.80867 0.9579 0.39856 0.0
C1658 C 0.8141 0.99348 0.40115 0.0
H1659 H 0.80092 0.16253 0.41363 0.0
H1660 H 0.81298 0.11248 0.43194 0.0
H1661 H 0.86454 0.05638 0.37474 0.0
H1662 H 0.85252 0.89834 0.40043 0.0
H1663 H 0.85767 0.95584 0.41811 0.0
C1664 C 0.85308 0.91575 0.95189 0.0
C1665 C 0.87034 0.94182 0.93798 0.0
C1666 C 0.81914 0.91182 0.95235 0.0
C1667 C 0.74418 0.93561 0.91769 0.0
H1668 H 0.72166 0.94035 0.00639 0.0
C1669 C 0.6213 0.96719 0.94915 0.0
C1670 C 0.60682 0.95277 0.97494 0.0
C1671 C 0.65275 0.96351 0.94275 0.0
C1672 C 0.72714 0.93838 0.98134 0.0
H1673 H 0.86545 0.98288 0.91174 0.0
H1674 H 0.80649 0.97576 0.91226 0.0
H1675 H 0.77623 0.93358 0.99618 0.0
H1676 H 0.61401 0.92257 0.01375 0.0
H1677 H 0.66742 0.91522 0.00191 0.0
H1678 H 0.69512 0.94008 0.90261 0.0
C1679 C 0.819 0.95835 0.92267 0.0
C1680 C 0.75852 0.93447 0.97556 0.0
C1681 C 0.8528 0.96248 0.92254 0.0
C1682 C 0.62438 0.93444 0.99391 0.0
C1683 C 0.65535 0.93035 0.98723 0.0
C1684 C 0.71256 0.93897 0.92335 0.0
C1685 C 0.80199 0.93365 0.93846 0.0
C1686 C 0.76747 0.93343 0.94374 0.0
C1687 C 0.67018 0.94495 0.96172 0.0
C1688 C 0.70368 0.94077 0.95533 0.0
H1689 H 0.86603 0.89982 0.96444 0.0
H1690 H 0.80651 0.89257 0.96473 0.0
H1691 H 0.75046 0.93487 0.89296 0.0
H1692 H 0.60846 0.98142 0.93403 0.0
H1693 H 0.66348 0.97553 0.92317 0.0
C1694 C 0.31539 0.62771 0.89803 0.0
C1695 C 0.30634 0.63787 0.86758 0.0
C1696 C 0.32449 0.59802 0.8999 0.0
C1697 C 0.34269 0.52782 0.84966 0.0
H1698 H 0.29918 0.47973 0.91405 0.0
C1699 C 0.33824 0.39226 0.84923 0.0
C1700 C 0.30774 0.37373 0.85296 0.0
C1701 C 0.34418 0.42552 0.85604 0.0
C1702 C 0.3114 0.49274 0.89583 0.0
H1703 H 0.30239 0.6259 0.81515 0.0
H1704 H 0.31749 0.57407 0.81834 0.0
H1705 H 0.30041 0.53692 0.91507 0.0
H1706 H 0.25983 0.37475 0.86769 0.0
H1707 H 0.27061 0.43276 0.88145 0.0
H1708 H 0.35174 0.48331 0.82902 0.0
C1709 C 0.318 0.58905 0.84089 0.0
C1710 C 0.31261 0.52574 0.89676 0.0
C1711 C 0.30924 0.61888 0.83902 0.0
C1712 C 0.28393 0.3886 0.86567 0.0
C1713 C 0.29012 0.42187 0.87325 0.0
C1714 C 0.34122 0.49477 0.84855 0.0
C1715 C 0.32448 0.57766 0.87137 0.0
C1716 C 0.32759 0.54361 0.8732 0.0
C1717 C 0.32 0.44092 0.86755 0.0
C1718 C 0.32483 0.47662 0.87113 0.0
H1719 H 0.31377 0.64194 0.92051 0.0
H1720 H 0.33019 0.59045 0.92378 0.0
H1721 H 0.35491 0.54083 0.83145 0.0
H1722 H 0.35673 0.38125 0.83892 0.0
H1723 H 0.36736 0.43917 0.85117 0.0
C1724 C 0.1293 0.48456 0.44794 0.0
C1725 C 0.10641 0.45969 0.45755 0.0
C1726 C 0.15928 0.47871 0.43903 0.0
C1727 C 0.2148 0.42219 0.45409 0.0
H1728 H 0.26438 0.46953 0.39337 0.0
C1729 C 0.34985 0.41372 0.44374 0.0
C1730 C 0.37087 0.44351 0.44335 0.0
C1731 C 0.31574 0.41091 0.43817 0.0
C1732 C 0.2509 0.45585 0.41023 0.0
H1733 H 0.09555 0.40909 0.46369 0.0
H1734 H 0.147 0.39853 0.44694 0.0
H1735 H 0.20783 0.47387 0.39645 0.0
H1736 H 0.37223 0.49328 0.43476 0.0
H1737 H 0.31395 0.48864 0.42612 0.0
H1738 H 0.25814 0.40487 0.46848 0.0
C1739 C 0.14258 0.42269 0.44706 0.0
C1740 C 0.21841 0.45857 0.41219 0.0
C1741 C 0.11295 0.42863 0.45627 0.0
C1742 C 0.35703 0.46992 0.43569 0.0
C1743 C 0.32328 0.46719 0.43029 0.0
C1744 C 0.24728 0.41935 0.45199 0.0
C1745 C 0.16667 0.44783 0.43946 0.0
C1746 C 0.20012 0.44236 0.43467 0.0
C1747 C 0.30204 0.43789 0.43213 0.0
C1748 C 0.26606 0.43675 0.43056 0.0
H1749 H 0.12493 0.50879 0.44934 0.0
H1750 H 0.17732 0.49875 0.43362 0.0
H1751 H 0.20175 0.40968 0.4721 0.0
H1752 H 0.35966 0.39296 0.44962 0.0
H1753 H 0.30013 0.38781 0.43935 0.0
C1754 C 0.81 0.7712 0.92994 0.0
C1755 C 0.82768 0.79855 0.9182 0.0
C1756 C 0.80865 0.76957 0.96334 0.0
C1757 C 0.85056 0.8017 0.04451 0.0
H1758 H 0.76547 0.77248 0.07322 0.0
C1759 C 0.82833 0.81304 0.18026 0.0
C1760 C 0.80416 0.79014 0.19143 0.0
C1761 C 0.83315 0.81197 0.14728 0.0
C1762 C 0.78953 0.7801 0.06568 0.0
H1763 H 0.85873 0.84527 0.93279 0.0
H1764 H 0.85641 0.84233 0.99153 0.0
H1765 H 0.77015 0.77592 0.01535 0.0
H1766 H 0.76734 0.74703 0.17671 0.0
H1767 H 0.77638 0.74455 0.1191 0.0
H1768 H 0.87008 0.80552 0.09475 0.0
C1769 C 0.84348 0.82223 0.97456 0.0
C1770 C 0.79217 0.78228 0.03246 0.0
C1771 C 0.84464 0.824 0.94095 0.0
C1772 C 0.78602 0.76515 0.16895 0.0
C1773 C 0.79102 0.76394 0.13585 0.0
C1774 C 0.84799 0.79923 0.07776 0.0
C1775 C 0.82517 0.79508 0.98605 0.0
C1776 C 0.82267 0.79322 0.0215 0.0
C1777 C 0.81416 0.78777 0.12446 0.0
C1778 C 0.81739 0.78856 0.08885 0.0
H1779 H 0.79699 0.75087 0.91335 0.0
H1780 H 0.79478 0.74813 0.97144 0.0
H1781 H 0.87444 0.80979 0.03675 0.0
H1782 H 0.84296 0.8326 0.19683 0.0
H1783 H 0.85093 0.83095 0.13957 0.0
C1784 C 0.50987 0.50631 0.37514 0.0
C1785 C 0.4812 0.48998 0.38592 0.0
C1786 C 0.51258 0.50591 0.34155 0.0
C1787 C 0.47947 0.45485 0.26529 0.0
H1788 H 0.51627 0.52816 0.22202 0.0
C1789 C 0.46903 0.45453 0.12469 0.0
C1790 C 0.49389 0.47437 0.11122 0.0
C1791 C 0.47004 0.45433 0.15862 0.0
C1792 C 0.50652 0.50725 0.23378 0.0
H1793 H 0.43239 0.46239 0.37094 0.0
H1794 H 0.43665 0.46234 0.31265 0.0
H1795 H 0.51263 0.53466 0.28055 0.0
H1796 H 0.54069 0.50707 0.12205 0.0
H1797 H 0.54321 0.50583 0.18093 0.0
H1798 H 0.47343 0.42733 0.21871 0.0
C1799 C 0.45728 0.47481 0.3297 0.0
C1800 C 0.50431 0.5111 0.26732 0.0
C1801 C 0.45468 0.47514 0.36298 0.0
C1802 C 0.52094 0.492 0.13191 0.0
C1803 C 0.52222 0.49146 0.16567 0.0
C1804 C 0.48192 0.45093 0.23181 0.0
C1805 C 0.48664 0.48916 0.31861 0.0
C1806 C 0.4904 0.48504 0.28333 0.0
C1807 C 0.49617 0.47367 0.17955 0.0
C1808 C 0.49523 0.47714 0.21555 0.0
H1809 H 0.53073 0.51749 0.39253 0.0
H1810 H 0.53549 0.51721 0.3336 0.0
H1811 H 0.46909 0.43417 0.27711 0.0
H1812 H 0.44777 0.44091 0.10924 0.0
H1813 H 0.44945 0.44042 0.1684 0.0
C1814 C 0.73227 0.22165 0.42471 0.0
C1815 C 0.73062 0.24526 0.40317 0.0
C1816 C 0.73581 0.22974 0.45852 0.0
C1817 C 0.76826 0.2988 0.51953 0.0
H1818 H 0.73016 0.24146 0.57974 0.0
C1819 C 0.77028 0.2839 0.66737 0.0
C1820 C 0.80436 0.28967 0.67582 0.0
C1821 C 0.7572 0.28412 0.63497 0.0
C1822 C 0.7406 0.25805 0.56332 0.0
H1823 H 0.72945 0.29562 0.4005 0.0
H1824 H 0.73536 0.30951 0.45932 0.0
H1825 H 0.71302 0.22931 0.52128 0.0
H1826 H 0.85131 0.30294 0.65745 0.0
H1827 H 0.82858 0.30347 0.60119 0.0
H1828 H 0.79621 0.32728 0.56153 0.0
C1829 C 0.73454 0.28487 0.45006 0.0
C1830 C 0.73107 0.25086 0.52977 0.0
C1831 C 0.73098 0.27682 0.41629 0.0
C1832 C 0.82496 0.29825 0.65175 0.0
C1833 C 0.81189 0.29866 0.61945 0.0
C1834 C 0.77786 0.30596 0.55307 0.0
C1835 C 0.73774 0.26159 0.4716 0.0
C1836 C 0.74525 0.27082 0.50742 0.0
C1837 C 0.77791 0.29042 0.61045 0.0
C1838 C 0.76462 0.28534 0.57532 0.0
H1839 H 0.73213 0.19713 0.41554 0.0
H1840 H 0.7385 0.21125 0.47441 0.0
H1841 H 0.7799 0.31458 0.503 0.0
H1842 H 0.75368 0.27723 0.68531 0.0
H1843 H 0.73089 0.2782 0.6289 0.0
C1844 C 0.97039 0.42997 0.63215 0.0
C1845 C 0.99595 0.4522 0.6221 0.0
C1846 C 0.96862 0.42652 0.66547 0.0
C1847 C 0.02313 0.43747 0.74197 0.0
H1848 H 0.94647 0.43836 0.78735 0.0
C1849 C 0.03294 0.47341 0.87841 0.0
C1850 C 0.00983 0.45842 0.89763 0.0
C1851 C 0.02947 0.46572 0.84474 0.0
C1852 C 0.96789 0.43735 0.77489 0.0
H1853 H 0.03836 0.48966 0.63946 0.0
H1854 H 0.0353 0.48348 0.697 0.0
H1855 H 0.94221 0.43978 0.72785 0.0
H1856 H 0.96537 0.42269 0.89662 0.0
H1857 H 0.95929 0.40907 0.83687 0.0
H1858 H 0.04906 0.43571 0.78867 0.0
C1859 C 0.01696 0.46836 0.6792 0.0
C1860 C 0.96547 0.43832 0.74089 0.0
C1861 C 0.01856 0.47201 0.64615 0.0
C1862 C 0.98363 0.43453 0.88242 0.0
C1863 C 0.97997 0.42699 0.84832 0.0
C1864 C 0.0255 0.43633 0.77572 0.0
C1865 C 0.99255 0.44502 0.68922 0.0
C1866 C 0.99339 0.43956 0.72432 0.0
C1867 C 0.0027 0.44284 0.82912 0.0
C1868 C 0.99825 0.43747 0.79279 0.0
H1869 H 0.95255 0.41433 0.6143 0.0
H1870 H 0.94944 0.40845 0.67254 0.0
H1871 H 0.04488 0.43759 0.72974 0.0
H1872 H 0.05353 0.4918 0.88934 0.0
H1873 H 0.04723 0.47872 0.83077 0.0
C1874 C 0.86718 0.0264 0.51054 0.0
C1875 C 0.87657 0.99733 0.50116 0.0
C1876 C 0.83409 0.02861 0.5077 0.0
C1877 C 0.75059 0.97709 0.49855 0.0
H1878 H 0.72217 0.05268 0.4703 0.0
C1879 C 0.61543 0.9732 0.45912 0.0
C1880 C 0.60166 0.99911 0.47018 0.0
C1881 C 0.64925 0.97552 0.46233 0.0
C1882 C 0.72972 0.03154 0.47857 0.0
H1883 H 0.85815 0.94791 0.48105 0.0
H1884 H 0.80106 0.95198 0.47532 0.0
H1885 H 0.78057 0.05202 0.47855 0.0
H1886 H 0.61307 0.04843 0.49191 0.0
H1887 H 0.67247 0.05242 0.49782 0.0
H1888 H 0.70001 0.95661 0.49881 0.0
C1889 C 0.81906 0.97294 0.48569 0.0
C1890 C 0.76325 0.03115 0.48337 0.0
C1891 C 0.85201 0.97068 0.48869 0.0
C1892 C 0.62281 0.02803 0.48309 0.0
C1893 C 0.65688 0.03031 0.48648 0.0
C1894 C 0.71726 0.97753 0.49393 0.0
C1895 C 0.80954 1.00183 0.49541 0.0
C1896 C 0.7741 0.00361 0.49272 0.0
C1897 C 0.67045 0.00373 0.47692 0.0
C1898 C 0.70628 0.00448 0.48328 0.0
H1899 H 0.88538 0.04747 0.52023 0.0
H1900 H 0.82775 0.05119 0.51566 0.0
H1901 H 0.7579 0.95583 0.5068 0.0
H1902 H 0.60001 0.95067 0.44861 0.0
H1903 H 0.65879 0.95487 0.45382 0.0
loop_
_geom_bond_atom_site_label_1
_geom_bond_atom_site_label_2
_geom_bond_distance
_geom_bond_site_symmetry_2
_ccdc_geom_bond_type
Co0 O2 2.143 . S
Co0 O8 2.074 . S
Co0 O11 2.093 . S
Co0 O24 2.097 . S
Co0 N41 2.151 . S
Co0 N49 2.214 . S
Co1 O2 2.160 . S
Co1 O7 2.058 . S
Co1 O17 2.057 . S
Co1 O32 2.037 . S
Co1 N36 2.145 . S
Co1 N57 2.257 . S
O2 Co0 2.143 . S
O2 Co1 2.160 . S
C3 O4 1.278 . S
C3 O11 1.224 . S
O4 C3 1.278 . S
C5 O6 1.245 . S
C5 O17 1.232 . S
O6 C5 1.245 . S
O7 Co1 2.058 . S
O7 C33 1.269 . S
O8 Co0 2.074 . S
O8 C33 1.257 . S
H9 C34 0.930 . S
H10 C40 0.930 . S
O11 Co0 2.093 . S
O11 C3 1.224 . S
H12 C44 0.929 . S
H13 C46 0.930 . S
H14 C47 0.930 . S
H15 C45 0.929 . S
H16 C48 0.928 . S
O17 Co1 2.057 . S
O17 C5 1.232 . S
H18 C37 0.929 . S
H19 C38 0.929 . S
H20 C50 0.931 . S
H21 C42 0.929 . S
H22 C51 0.930 . S
H23 C43 0.931 . S
O24 Co0 2.097 . S
O24 C52 1.214 . S
H25 C53 0.929 . S
H26 C54 0.929 . S
H27 C55 0.930 . S
H28 C56 0.929 . S
H29 C58 0.930 . S
H30 C35 0.930 . S
H31 C39 0.930 . S
O32 Co1 2.037 . S
O32 C52 1.234 . S
C33 O7 1.269 . S
C33 O8 1.257 . S
C34 H9 0.930 . S
C34 C37 1.388 . S
C34 C39 1.418 . S
C35 H30 0.930 . S
C35 C38 1.404 . S
C35 C39 1.353 . S
N36 Co1 2.145 . S
N36 C37 1.397 . S
N36 C38 1.334 . S
C37 H18 0.929 . S
C37 C34 1.388 . S
C37 N36 1.397 . S
C38 H19 0.929 . S
C38 C35 1.404 . S
C38 N36 1.334 . S
C39 H31 0.930 . S
C39 C34 1.418 . S
C39 C35 1.353 . S
C40 H10 0.930 . S
C40 N41 1.330 . S
C40 C42 1.446 . S
N41 Co0 2.151 . S
N41 C40 1.330 . S
N41 C45 1.418 . S
C42 H21 0.929 . S
C42 C40 1.446 . S
C42 C43 1.332 . S
C43 H23 0.931 . S
C43 C42 1.332 . S
C43 C44 1.267 . S
C44 H12 0.929 . S
C44 C43 1.267 . S
C44 C45 1.251 . S
C45 H15 0.929 . S
C45 N41 1.418 . S
C45 C44 1.251 . S
C46 H13 0.930 . S
C46 C48 1.406 . S
C46 C51 1.261 . S
C47 H14 0.930 . S
C47 N49 1.325 . S
C47 C50 1.357 . S
C48 H16 0.928 . S
C48 C46 1.406 . S
C48 N49 1.261 . S
N49 Co0 2.214 . S
N49 C47 1.325 . S
N49 C48 1.261 . S
C50 H20 0.931 . S
C50 C47 1.357 . S
C50 C51 1.312 . S
C51 H22 0.930 . S
C51 C46 1.261 . S
C51 C50 1.312 . S
C52 O24 1.214 . S
C52 O32 1.234 . S
C53 H25 0.929 . S
C53 C56 1.391 . S
C53 C58 1.391 . S
C54 H26 0.929 . S
C54 C55 1.390 . S
C54 N57 1.391 . S
C55 H27 0.930 . S
C55 C54 1.390 . S
C55 C56 1.392 . S
C56 H28 0.929 . S
C56 C53 1.391 . S
C56 C55 1.392 . S
N57 Co1 2.257 . S
N57 C54 1.391 . S
N57 C58 1.388 . S
C58 H29 0.930 . S
C58 C53 1.391 . S
C58 N57 1.388 . S
Co59 O61 2.143 . S
Co59 O67 2.074 . S
Co59 O70 2.093 . S
Co59 O83 2.097 . S
Co59 N100 2.151 1_655 S
Co59 N108 2.214 . S
Co60 O61 2.160 1_565 S
Co60 O66 2.058 . S
Co60 O76 2.057 1_655 S
Co60 O91 2.037 . S
Co60 N95 2.145 . S
Co60 N116 2.257 . S
O61 Co59 2.143 . S
O61 Co60 2.160 1_545 S
C62 O63 1.278 . S
C62 O70 1.224 . S
O63 C62 1.278 . S
C64 O65 1.245 1_565 S
C64 O76 1.232 . S
O65 C64 1.245 1_545 S
O66 Co60 2.058 . S
O66 C92 1.269 . S
O67 Co59 2.074 . S
O67 C92 1.257 1_545 S
H68 C93 0.930 . S
H69 C99 0.930 . S
O70 Co59 2.093 . S
O70 C62 1.224 . S
H71 C103 0.929 . S
H72 C105 0.930 . S
H73 C106 0.930 . S
H74 C104 0.929 . S
H75 C107 0.928 . S
O76 Co60 2.057 1_455 S
O76 C64 1.232 . S
H77 C96 0.929 . S
H78 C97 0.929 . S
H79 C109 0.931 . S
H80 C101 0.929 . S
H81 C110 0.930 . S
H82 C102 0.931 . S
O83 Co59 2.097 . S
O83 C111 1.214 . S
H84 C112 0.929 . S
H85 C113 0.929 . S
H86 C114 0.930 . S
H87 C115 0.929 . S
H88 C117 0.930 . S
H89 C94 0.930 . S
H90 C98 0.930 . S
O91 Co60 2.037 . S
O91 C111 1.234 1_565 S
C92 O66 1.269 . S
C92 O67 1.257 1_565 S
C93 H68 0.930 . S
C93 C96 1.388 . S
C93 C98 1.418 . S
C94 H89 0.930 . S
C94 C97 1.404 . S
C94 C98 1.353 . S
N95 Co60 2.145 . S
N95 C96 1.397 . S
N95 C97 1.334 . S
C96 H77 0.929 . S
C96 C93 1.388 . S
C96 N95 1.397 . S
C97 H78 0.929 . S
C97 C94 1.404 . S
C97 N95 1.334 . S
C98 H90 0.930 . S
C98 C93 1.418 . S
C98 C94 1.353 . S
C99 H69 0.930 . S
C99 N100 1.330 . S
C99 C101 1.446 . S
N100 Co59 2.151 1_455 S
N100 C99 1.330 . S
N100 C104 1.418 . S
C101 H80 0.929 . S
C101 C99 1.446 . S
C101 C102 1.332 . S
C102 H82 0.931 . S
C102 C101 1.332 . S
C102 C103 1.267 . S
C103 H71 0.929 . S
C103 C102 1.267 . S
C103 C104 1.251 . S
C104 H74 0.929 . S
C104 N100 1.418 . S
C104 C103 1.251 . S
C105 H72 0.930 . S
C105 C107 1.406 . S
C105 C110 1.261 . S
C106 H73 0.930 . S
C106 N108 1.325 . S
C106 C109 1.357 . S
C107 H75 0.928 . S
C107 C105 1.406 . S
C107 N108 1.261 . S
N108 Co59 2.214 . S
N108 C106 1.325 . S
N108 C107 1.261 . S
C109 H79 0.931 . S
C109 C106 1.357 . S
C109 C110 1.312 . S
C110 H81 0.930 . S
C110 C105 1.261 . S
C110 C109 1.312 . S
C111 O83 1.214 . S
C111 O91 1.234 1_545 S
C112 H84 0.929 . S
C112 C115 1.391 . S
C112 C117 1.391 . S
C113 H85 0.929 . S
C113 C114 1.390 . S
C113 N116 1.391 . S
C114 H86 0.930 . S
C114 C113 1.390 . S
C114 C115 1.392 1_565 S
C115 H87 0.929 . S
C115 C112 1.391 . S
C115 C114 1.392 1_545 S
N116 Co60 2.257 . S
N116 C113 1.391 . S
N116 C117 1.388 1_565 S
C117 H88 0.930 . S
C117 C112 1.391 . S
C117 N116 1.388 1_545 S
Co118 O120 2.143 . S
Co118 O126 2.074 . S
Co118 O129 2.093 . S
Co118 O142 2.097 . S
Co118 N159 2.151 . S
Co118 N167 2.214 . S
Co119 O120 2.160 . S
Co119 O125 2.058 . S
Co119 O135 2.057 . S
Co119 O150 2.037 . S
Co119 N154 2.145 . S
Co119 N175 2.257 . S
O120 Co118 2.143 . S
O120 Co119 2.160 . S
C121 O122 1.278 . S
C121 O129 1.224 . S
O122 C121 1.278 . S
C123 O124 1.245 . S
C123 O135 1.232 . S
O124 C123 1.245 . S
O125 Co119 2.058 . S
O125 C151 1.269 . S
O126 Co118 2.074 . S
O126 C151 1.257 . S
H127 C152 0.930 . S
H128 C158 0.930 . S
O129 Co118 2.093 . S
O129 C121 1.224 . S
H130 C162 0.929 . S
H131 C164 0.930 . S
H132 C165 0.930 . S
H133 C163 0.929 . S
H134 C166 0.928 . S
O135 Co119 2.057 . S
O135 C123 1.232 . S
H136 C155 0.929 . S
H137 C156 0.929 . S
H138 C168 0.931 . S
H139 C160 0.929 . S
H140 C169 0.930 . S
H141 C161 0.931 . S
O142 Co118 2.097 . S
O142 C170 1.214 . S
H143 C171 0.929 . S
H144 C172 0.929 . S
H145 C173 0.930 . S
H146 C174 0.929 . S
H147 C176 0.930 . S
H148 C153 0.930 . S
H149 C157 0.930 . S
O150 Co119 2.037 . S
O150 C170 1.234 . S
C151 O125 1.269 . S
C151 O126 1.257 . S
C152 H127 0.930 . S
C152 C155 1.388 . S
C152 C157 1.418 . S
C153 H148 0.930 . S
C153 C156 1.404 . S
C153 C157 1.353 . S
N154 Co119 2.145 . S
N154 C155 1.397 . S
N154 C156 1.334 . S
C155 H136 0.929 . S
C155 C152 1.388 . S
C155 N154 1.397 . S
C156 H137 0.929 . S
C156 C153 1.404 . S
C156 N154 1.334 . S
C157 H149 0.930 . S
C157 C152 1.418 . S
C157 C153 1.353 . S
C158 H128 0.930 . S
C158 N159 1.330 . S
C158 C160 1.446 . S
N159 Co118 2.151 . S
N159 C158 1.330 . S
N159 C163 1.418 . S
C160 H139 0.929 . S
C160 C158 1.446 . S
C160 C161 1.332 . S
C161 H141 0.931 . S
C161 C160 1.332 . S
C161 C162 1.267 . S
C162 H130 0.929 . S
C162 C161 1.267 . S
C162 C163 1.251 . S
C163 H133 0.929 . S
C163 N159 1.418 . S
C163 C162 1.251 . S
C164 H131 0.930 . S
C164 C166 1.406 . S
C164 C169 1.261 . S
C165 H132 0.930 . S
C165 N167 1.325 . S
C165 C168 1.357 . S
C166 H134 0.928 . S
C166 C164 1.406 . S
C166 N167 1.261 . S
N167 Co118 2.214 . S
N167 C165 1.325 . S
N167 C166 1.261 . S
C168 H138 0.931 . S
C168 C165 1.357 . S
C168 C169 1.312 . S
C169 H140 0.930 . S
C169 C164 1.261 . S
C169 C168 1.312 . S
C170 O142 1.214 . S
C170 O150 1.234 . S
C171 H143 0.929 . S
C171 C174 1.391 . S
C171 C176 1.391 . S
C172 H144 0.929 . S
C172 C173 1.390 . S
C172 N175 1.391 . S
C173 H145 0.930 . S
C173 C172 1.390 . S
C173 C174 1.392 . S
C174 H146 0.929 . S
C174 C171 1.391 . S
C174 C173 1.392 . S
N175 Co119 2.257 . S
N175 C172 1.391 . S
N175 C176 1.388 . S
C176 H147 0.930 . S
C176 C171 1.391 . S
C176 N175 1.388 . S
Co177 O179 2.143 . S
Co177 O185 2.056 1_554 S
Co177 O188 2.093 . S
Co177 O201 2.097 . S
Co177 N218 2.151 . S
Co177 N226 2.214 . S
Co178 O179 2.160 1_556 S
Co178 O184 2.058 . S
Co178 O194 2.057 . S
Co178 O209 2.037 . S
Co178 N213 2.145 . S
Co178 N234 2.257 . S
O179 Co177 2.143 . S
O179 Co178 2.160 1_554 S
C180 O181 1.278 . S
C180 O188 1.224 . S
O181 C180 1.278 . S
C182 O183 1.245 . S
C182 O194 1.232 1_545 S
O183 C182 1.245 . S
O184 Co178 2.058 . S
O184 C210 1.269 . S
O185 Co177 2.056 1_556 S
O185 C210 1.278 . S
H186 C211 0.930 . S
H187 C217 0.930 . S
O188 Co177 2.093 . S
O188 C180 1.224 . S
H189 C221 0.929 . S
H190 C223 0.930 . S
H191 C224 0.930 . S
H192 C222 0.929 . S
H193 C225 0.928 . S
O194 Co178 2.057 . S
O194 C182 1.232 1_565 S
H195 C214 0.929 . S
H196 C215 0.929 . S
H197 C227 0.931 . S
H198 C219 0.929 . S
H199 C228 0.930 . S
H200 C220 0.931 . S
O201 Co177 2.097 . S
O201 C229 1.214 1_554 S
H202 C230 0.929 . S
H203 C231 0.929 . S
H204 C232 0.930 . S
H205 C233 0.929 . S
H206 C235 0.930 . S
H207 C212 0.930 . S
H208 C216 0.930 . S
O209 Co178 2.037 . S
O209 C229 1.234 . S
C210 O184 1.269 . S
C210 O185 1.278 . S
C211 H186 0.930 . S
C211 C214 1.388 . S
C211 C216 1.418 . S
C212 H207 0.930 . S
C212 C215 1.404 . S
C212 C216 1.353 . S
N213 Co178 2.145 . S
N213 C214 1.397 . S
N213 C215 1.334 . S
C214 H195 0.929 . S
C214 C211 1.388 . S
C214 N213 1.397 . S
C215 H196 0.929 . S
C215 C212 1.404 . S
C215 N213 1.334 . S
C216 H208 0.930 . S
C216 C211 1.418 . S
C216 C212 1.353 . S
C217 H187 0.930 . S
C217 N218 1.330 1_545 S
C217 C219 1.446 . S
N218 Co177 2.151 . S
N218 C217 1.330 1_565 S
N218 C222 1.418 . S
C219 H198 0.929 . S
C219 C217 1.446 . S
C219 C220 1.332 . S
C220 H200 0.931 . S
C220 C219 1.332 . S
C220 C221 1.267 . S
C221 H189 0.929 . S
C221 C220 1.267 . S
C221 C222 1.251 1_545 S
C222 H192 0.929 . S
C222 N218 1.418 . S
C222 C221 1.251 1_565 S
C223 H190 0.930 . S
C223 C225 1.406 . S
C223 C228 1.261 . S
C224 H191 0.930 . S
C224 N226 1.325 . S
C224 C227 1.357 . S
C225 H193 0.928 . S
C225 C223 1.406 . S
C225 N226 1.261 . S
N226 Co177 2.214 . S
N226 C224 1.325 . S
N226 C225 1.261 . S
C227 H197 0.931 . S
C227 C224 1.357 . S
C227 C228 1.312 . S
C228 H199 0.930 . S
C228 C223 1.261 . S
C228 C227 1.312 . S
C229 O201 1.214 1_556 S
C229 O209 1.234 . S
C230 H202 0.929 . S
C230 C233 1.391 . S
C230 C235 1.391 . S
C231 H203 0.929 . S
C231 C232 1.390 . S
C231 N234 1.391 . S
C232 H204 0.930 . S
C232 C231 1.390 . S
C232 C233 1.392 . S
C233 H205 0.929 . S
C233 C230 1.391 . S
C233 C232 1.392 . S
N234 Co178 2.257 . S
N234 C231 1.391 . S
N234 C235 1.388 . S
C235 H206 0.930 . S
C235 C230 1.391 . S
C235 N234 1.388 . S
Co236 O238 2.143 . S
Co236 O244 2.074 . S
Co236 O247 2.093 . S
Co236 O260 2.097 . S
Co236 N277 2.151 . S
Co236 N285 2.214 . S
Co237 O238 2.160 . S
Co237 O243 2.058 . S
Co237 O253 2.057 . S
Co237 O268 2.037 . S
Co237 N272 2.145 . S
Co237 N293 2.257 . S
O238 Co236 2.143 . S
O238 Co237 2.160 . S
C239 O240 1.278 . S
C239 O247 1.224 . S
O240 C239 1.278 . S
C241 O242 1.245 . S
C241 O253 1.232 . S
O242 C241 1.245 . S
O243 Co237 2.058 . S
O243 C269 1.269 . S
O244 Co236 2.074 . S
O244 C269 1.257 . S
H245 C270 0.930 . S
H246 C276 0.930 . S
O247 Co236 2.093 . S
O247 C239 1.224 . S
H248 C280 0.929 . S
H249 C282 0.930 . S
H250 C283 0.930 . S
H251 C281 0.929 . S
H252 C284 0.928 . S
O253 Co237 2.057 . S
O253 C241 1.232 . S
H254 C273 0.929 . S
H255 C274 0.929 . S
H256 C286 0.931 . S
H257 C278 0.929 . S
H258 C287 0.930 . S
H259 C279 0.931 . S
O260 Co236 2.097 . S
O260 C288 1.214 . S
H261 C289 0.929 . S
H262 C290 0.929 . S
H263 C291 0.930 . S
H264 C292 0.929 . S
H265 C294 0.930 . S
H266 C271 0.930 . S
H267 C275 0.930 . S
O268 Co237 2.037 . S
O268 C288 1.234 . S
C269 O243 1.269 . S
C269 O244 1.257 . S
C270 H245 0.930 . S
C270 C273 1.388 . S
C270 C275 1.418 . S
C271 H266 0.930 . S
C271 C274 1.404 . S
C271 C275 1.353 . S
N272 Co237 2.145 . S
N272 C273 1.397 . S
N272 C274 1.334 . S
C273 H254 0.929 . S
C273 C270 1.388 . S
C273 N272 1.397 . S
C274 H255 0.929 . S
C274 C271 1.404 . S
C274 N272 1.334 . S
C275 H267 0.930 . S
C275 C270 1.418 . S
C275 C271 1.353 . S
C276 H246 0.930 . S
C276 N277 1.330 . S
C276 C278 1.446 . S
N277 Co236 2.151 . S
N277 C276 1.330 . S
N277 C281 1.418 . S
C278 H257 0.929 . S
C278 C276 1.446 . S
C278 C279 1.332 . S
C279 H259 0.931 . S
C279 C278 1.332 . S
C279 C280 1.267 . S
C280 H248 0.929 . S
C280 C279 1.267 . S
C280 C281 1.251 . S
C281 H251 0.929 . S
C281 N277 1.418 . S
C281 C280 1.251 . S
C282 H249 0.930 . S
C282 C284 1.406 . S
C282 C287 1.261 . S
C283 H250 0.930 . S
C283 N285 1.325 . S
C283 C286 1.357 . S
C284 H252 0.928 . S
C284 C282 1.406 . S
C284 N285 1.261 . S
N285 Co236 2.214 . S
N285 C283 1.325 . S
N285 C284 1.261 . S
C286 H256 0.931 . S
C286 C283 1.357 . S
C286 C287 1.312 . S
C287 H258 0.930 . S
C287 C282 1.261 . S
C287 C286 1.312 . S
C288 O260 1.214 . S
C288 O268 1.234 . S
C289 H261 0.929 . S
C289 C292 1.391 . S
C289 C294 1.391 . S
C290 H262 0.929 . S
C290 C291 1.390 . S
C290 N293 1.391 . S
C291 H263 0.930 . S
C291 C290 1.390 . S
C291 C292 1.392 . S
C292 H264 0.929 . S
C292 C289 1.391 . S
C292 C291 1.392 . S
N293 Co237 2.257 . S
N293 C290 1.391 . S
N293 C294 1.388 . S
C294 H265 0.930 . S
C294 C289 1.391 . S
C294 N293 1.388 . S
Co295 O297 2.143 . S
Co295 O303 2.062 1_545 S
Co295 O306 2.093 . S
Co295 O319 2.097 . S
Co295 N336 2.151 . S
Co295 N344 2.214 . S
Co296 O297 2.160 1_565 S
Co296 O302 2.058 . S
Co296 O312 2.057 . S
Co296 O327 2.037 . S
Co296 N331 2.145 . S
Co296 N352 2.257 . S
O297 Co295 2.143 . S
O297 Co296 2.160 1_545 S
C298 O299 1.278 . S
C298 O306 1.224 . S
O299 C298 1.278 . S
C300 O301 1.245 . S
C300 O312 1.232 . S
O301 C300 1.245 . S
O302 Co296 2.058 . S
O302 C328 1.269 . S
O303 Co295 2.062 1_565 S
O303 C328 1.271 . S
H304 C329 0.930 . S
H305 C335 0.930 . S
O306 Co295 2.093 . S
O306 C298 1.224 . S
H307 C339 0.929 . S
H308 C341 0.930 . S
H309 C342 0.930 . S
H310 C340 0.929 . S
H311 C343 0.928 . S
O312 Co296 2.057 . S
O312 C300 1.232 . S
H313 C332 0.929 . S
H314 C333 0.929 . S
H315 C345 0.931 . S
H316 C337 0.929 . S
H317 C346 0.930 . S
H318 C338 0.931 . S
O319 Co295 2.097 . S
O319 C347 1.214 . S
H320 C348 0.929 . S
H321 C349 0.929 . S
H322 C350 0.930 . S
H323 C351 0.929 . S
H324 C353 0.930 . S
H325 C330 0.930 . S
H326 C334 0.930 . S
O327 Co296 2.037 . S
O327 C347 1.234 1_565 S
C328 O302 1.269 . S
C328 O303 1.271 . S
C329 H304 0.930 . S
C329 C332 1.388 . S
C329 C334 1.418 . S
C330 H325 0.930 . S
C330 C333 1.404 . S
C330 C334 1.353 . S
N331 Co296 2.145 . S
N331 C332 1.397 . S
N331 C333 1.334 . S
C332 H313 0.929 . S
C332 C329 1.388 . S
C332 N331 1.397 . S
C333 H314 0.929 . S
C333 C330 1.404 . S
C333 N331 1.334 . S
C334 H326 0.930 . S
C334 C329 1.418 . S
C334 C330 1.353 . S
C335 H305 0.930 . S
C335 N336 1.330 . S
C335 C337 1.446 . S
N336 Co295 2.151 . S
N336 C335 1.330 . S
N336 C340 1.418 . S
C337 H316 0.929 . S
C337 C335 1.446 . S
C337 C338 1.332 . S
C338 H318 0.931 . S
C338 C337 1.332 . S
C338 C339 1.267 . S
C339 H307 0.929 . S
C339 C338 1.267 . S
C339 C340 1.251 . S
C340 H310 0.929 . S
C340 N336 1.418 . S
C340 C339 1.251 . S
C341 H308 0.930 . S
C341 C343 1.406 . S
C341 C346 1.261 . S
C342 H309 0.930 . S
C342 N344 1.325 . S
C342 C345 1.357 . S
C343 H311 0.928 . S
C343 C341 1.406 . S
C343 N344 1.261 . S
N344 Co295 2.214 . S
N344 C342 1.325 . S
N344 C343 1.261 . S
C345 H315 0.931 . S
C345 C342 1.357 . S
C345 C346 1.312 . S
C346 H317 0.930 . S
C346 C341 1.261 . S
C346 C345 1.312 . S
C347 O319 1.214 . S
C347 O327 1.234 1_545 S
C348 H320 0.929 . S
C348 C351 1.391 . S
C348 C353 1.391 . S
C349 H321 0.929 . S
C349 C350 1.390 1_565 S
C349 N352 1.391 . S
C350 H322 0.930 . S
C350 C349 1.390 1_545 S
C350 C351 1.392 . S
C351 H323 0.929 . S
C351 C348 1.391 . S
C351 C350 1.392 . S
N352 Co296 2.257 . S
N352 C349 1.391 . S
N352 C353 1.388 1_565 S
C353 H324 0.930 . S
C353 C348 1.391 . S
C353 N352 1.388 1_545 S
Co354 O356 2.143 . S
Co354 O362 2.074 . S
Co354 O365 2.093 . S
Co354 O378 2.097 . S
Co354 N395 2.151 . S
Co354 N403 2.214 . S
Co355 O356 2.160 . S
Co355 O361 2.058 . S
Co355 O371 2.057 . S
Co355 O386 2.037 . S
Co355 N390 2.145 . S
Co355 N411 2.257 . S
O356 Co354 2.143 . S
O356 Co355 2.160 . S
C357 O358 1.278 . S
C357 O365 1.224 . S
O358 C357 1.278 . S
C359 O360 1.245 . S
C359 O371 1.232 . S
O360 C359 1.245 . S
O361 Co355 2.058 . S
O361 C387 1.269 . S
O362 Co354 2.074 . S
O362 C387 1.257 . S
H363 C388 0.930 . S
H364 C394 0.930 . S
O365 Co354 2.093 . S
O365 C357 1.224 . S
H366 C398 0.929 . S
H367 C400 0.930 . S
H368 C401 0.930 . S
H369 C399 0.929 . S
H370 C402 0.928 . S
O371 Co355 2.057 . S
O371 C359 1.232 . S
H372 C391 0.929 . S
H373 C392 0.929 . S
H374 C404 0.931 . S
H375 C396 0.929 . S
H376 C405 0.930 . S
H377 C397 0.931 . S
O378 Co354 2.097 . S
O378 C406 1.214 . S
H379 C407 0.929 . S
H380 C408 0.929 . S
H381 C409 0.930 . S
H382 C410 0.929 . S
H383 C412 0.930 . S
H384 C389 0.930 . S
H385 C393 0.930 . S
O386 Co355 2.037 . S
O386 C406 1.234 . S
C387 O361 1.269 . S
C387 O362 1.257 . S
C388 H363 0.930 . S
C388 C391 1.388 . S
C388 C393 1.418 . S
C389 H384 0.930 . S
C389 C392 1.404 . S
C389 C393 1.353 . S
N390 Co355 2.145 . S
N390 C391 1.397 . S
N390 C392 1.334 . S
C391 H372 0.929 . S
C391 C388 1.388 . S
C391 N390 1.397 . S
C392 H373 0.929 . S
C392 C389 1.404 . S
C392 N390 1.334 . S
C393 H385 0.930 . S
C393 C388 1.418 . S
C393 C389 1.353 . S
C394 H364 0.930 . S
C394 N395 1.330 . S
C394 C396 1.446 . S
N395 Co354 2.151 . S
N395 C394 1.330 . S
N395 C399 1.418 . S
C396 H375 0.929 . S
C396 C394 1.446 . S
C396 C397 1.332 . S
C397 H377 0.931 . S
C397 C396 1.332 . S
C397 C398 1.267 . S
C398 H366 0.929 . S
C398 C397 1.267 . S
C398 C399 1.251 . S
C399 H369 0.929 . S
C399 N395 1.418 . S
C399 C398 1.251 . S
C400 H367 0.930 . S
C400 C402 1.406 . S
C400 C405 1.261 . S
C401 H368 0.930 . S
C401 N403 1.325 . S
C401 C404 1.357 . S
C402 H370 0.928 . S
C402 C400 1.406 . S
C402 N403 1.261 . S
N403 Co354 2.214 . S
N403 C401 1.325 . S
N403 C402 1.261 . S
C404 H374 0.931 . S
C404 C401 1.357 . S
C404 C405 1.312 . S
C405 H376 0.930 . S
C405 C400 1.261 . S
C405 C404 1.312 . S
C406 O378 1.214 . S
C406 O386 1.234 . S
C407 H379 0.929 . S
C407 C410 1.391 . S
C407 C412 1.391 . S
C408 H380 0.929 . S
C408 C409 1.390 . S
C408 N411 1.391 . S
C409 H381 0.930 . S
C409 C408 1.390 . S
C409 C410 1.392 . S
C410 H382 0.929 . S
C410 C407 1.391 . S
C410 C409 1.392 . S
N411 Co355 2.257 . S
N411 C408 1.391 . S
N411 C412 1.388 . S
C412 H383 0.930 . S
C412 C407 1.391 . S
C412 N411 1.388 . S
Co413 O415 2.143 . S
Co413 O421 2.074 . S
Co413 O424 2.093 . S
Co413 O437 2.097 . S
Co413 N454 2.151 1_655 S
Co413 N462 2.214 . S
Co414 O415 2.160 . S
Co414 O420 2.058 1_565 S
Co414 O430 2.057 1_666 S
Co414 O445 2.037 . S
Co414 N449 2.145 1_566 S
Co414 N470 2.257 1_556 S
O415 Co413 2.143 . S
O415 Co414 2.160 . S
C416 O417 1.278 1_556 S
C416 O424 1.224 . S
O417 C416 1.278 1_554 S
C418 O419 1.250 1_545 S
C418 O430 1.232 . S
O419 C418 1.250 1_565 S
O420 Co414 2.058 1_545 S
O420 C446 1.269 1_545 S
O421 Co413 2.074 . S
O421 C446 1.257 . S
H422 C447 0.930 . S
H423 C453 0.930 . S
O424 Co413 2.093 . S
O424 C416 1.224 . S
H425 C457 0.929 . S
H426 C459 0.930 . S
H427 C460 0.930 . S
H428 C458 0.929 . S
H429 C461 0.928 . S
O430 Co414 2.057 1_444 S
O430 C418 1.232 . S
H431 C450 0.929 . S
H432 C451 0.921 1_455 S
H433 C463 0.931 . S
H434 C455 0.929 . S
H435 C464 0.930 . S
H436 C456 0.931 . S
O437 Co413 2.097 . S
O437 C465 1.214 . S
H438 C466 0.929 . S
H439 C467 0.929 . S
H440 C468 0.930 . S
H441 C469 0.929 . S
H442 C471 0.930 1_455 S
H443 C448 0.930 . S
H444 C452 0.930 . S
O445 Co414 2.037 . S
O445 C465 1.234 . S
C446 O420 1.269 1_565 S
C446 O421 1.257 . S
C447 H422 0.930 . S
C447 C450 1.388 . S
C447 C452 1.418 1_556 S
C448 H443 0.930 . S
C448 C451 1.404 . S
C448 C452 1.353 . S
N449 Co414 2.145 1_544 S
N449 C450 1.397 1_554 S
N449 C451 1.334 . S
C450 H431 0.929 . S
C450 C447 1.388 . S
C450 N449 1.397 1_556 S
C451 H432 0.921 1_655 S
C451 C448 1.404 . S
C451 N449 1.334 . S
C452 H444 0.930 . S
C452 C447 1.418 1_554 S
C452 C448 1.353 . S
C453 H423 0.930 . S
C453 N454 1.330 . S
C453 C455 1.446 . S
N454 Co413 2.151 1_455 S
N454 C453 1.330 . S
N454 C458 1.418 . S
C455 H434 0.929 . S
C455 C453 1.446 . S
C455 C456 1.332 . S
C456 H436 0.931 . S
C456 C455 1.332 . S
C456 C457 1.267 . S
C457 H425 0.929 . S
C457 C456 1.267 . S
C457 C458 1.251 . S
C458 H428 0.929 . S
C458 N454 1.418 . S
C458 C457 1.251 . S
C459 H426 0.930 . S
C459 C461 1.406 . S
C459 C464 1.261 . S
C460 H427 0.930 . S
C460 N462 1.325 . S
C460 C463 1.357 . S
C461 H429 0.928 . S
C461 C459 1.406 . S
C461 N462 1.261 . S
N462 Co413 2.214 . S
N462 C460 1.325 . S
N462 C461 1.261 . S
C463 H433 0.931 . S
C463 C460 1.357 . S
C463 C464 1.312 . S
C464 H435 0.930 . S
C464 C459 1.261 . S
C464 C463 1.312 . S
C465 O437 1.214 . S
C465 O445 1.234 . S
C466 H438 0.929 . S
C466 C469 1.391 . S
C466 C471 1.391 . S
C467 H439 0.929 . S
C467 C468 1.390 . S
C467 N470 1.391 . S
C468 H440 0.930 . S
C468 C467 1.390 . S
C468 C469 1.392 . S
C469 H441 0.929 . S
C469 C466 1.391 . S
C469 C468 1.392 . S
N470 Co414 2.257 1_554 S
N470 C467 1.391 . S
N470 C471 1.388 . S
C471 H442 0.930 1_655 S
C471 C466 1.391 . S
C471 N470 1.388 . S
Co472 O474 2.143 . S
Co472 O480 2.074 . S
Co472 O483 2.093 . S
Co472 O496 2.097 . S
Co472 N513 2.151 . S
Co472 N521 2.214 . S
Co473 O474 2.160 . S
Co473 O479 2.058 . S
Co473 O489 2.057 . S
Co473 O504 2.037 . S
Co473 N508 2.145 . S
Co473 N529 2.257 . S
O474 Co472 2.143 . S
O474 Co473 2.160 . S
C475 O476 1.278 . S
C475 O483 1.224 . S
O476 C475 1.278 . S
C477 O478 1.245 . S
C477 O489 1.232 . S
O478 C477 1.245 . S
O479 Co473 2.058 . S
O479 C505 1.269 . S
O480 Co472 2.074 . S
O480 C505 1.257 . S
H481 C506 0.930 . S
H482 C512 0.930 . S
O483 Co472 2.093 . S
O483 C475 1.224 . S
H484 C516 0.929 . S
H485 C518 0.930 . S
H486 C519 0.930 . S
H487 C517 0.929 . S
H488 C520 0.928 . S
O489 Co473 2.057 . S
O489 C477 1.232 . S
H490 C509 0.929 . S
H491 C510 0.929 . S
H492 C522 0.931 . S
H493 C514 0.929 . S
H494 C523 0.930 . S
H495 C515 0.931 . S
O496 Co472 2.097 . S
O496 C524 1.214 . S
H497 C525 0.929 . S
H498 C526 0.929 . S
H499 C527 0.930 . S
H500 C528 0.929 . S
H501 C530 0.930 . S
H502 C507 0.930 . S
H503 C511 0.930 . S
O504 Co473 2.037 . S
O504 C524 1.234 . S
C505 O479 1.269 . S
C505 O480 1.257 . S
C506 H481 0.930 . S
C506 C509 1.388 . S
C506 C511 1.418 . S
C507 H502 0.930 . S
C507 C510 1.404 . S
C507 C511 1.353 . S
N508 Co473 2.145 . S
N508 C509 1.397 . S
N508 C510 1.334 . S
C509 H490 0.929 . S
C509 C506 1.388 . S
C509 N508 1.397 . S
C510 H491 0.929 . S
C510 C507 1.404 . S
C510 N508 1.334 . S
C511 H503 0.930 . S
C511 C506 1.418 . S
C511 C507 1.353 . S
C512 H482 0.930 . S
C512 N513 1.330 . S
C512 C514 1.446 . S
N513 Co472 2.151 . S
N513 C512 1.330 . S
N513 C517 1.418 . S
C514 H493 0.929 . S
C514 C512 1.446 . S
C514 C515 1.332 . S
C515 H495 0.931 . S
C515 C514 1.332 . S
C515 C516 1.267 . S
C516 H484 0.929 . S
C516 C515 1.267 . S
C516 C517 1.251 . S
C517 H487 0.929 . S
C517 N513 1.418 . S
C517 C516 1.251 . S
C518 H485 0.930 . S
C518 C520 1.406 . S
C518 C523 1.261 . S
C519 H486 0.930 . S
C519 N521 1.325 . S
C519 C522 1.357 . S
C520 H488 0.928 . S
C520 C518 1.406 . S
C520 N521 1.261 . S
N521 Co472 2.214 . S
N521 C519 1.325 . S
N521 C520 1.261 . S
C522 H492 0.931 . S
C522 C519 1.357 . S
C522 C523 1.312 . S
C523 H494 0.930 . S
C523 C518 1.261 . S
C523 C522 1.312 . S
C524 O496 1.214 . S
C524 O504 1.234 . S
C525 H497 0.929 . S
C525 C528 1.391 . S
C525 C530 1.391 . S
C526 H498 0.929 . S
C526 C527 1.390 . S
C526 N529 1.391 . S
C527 H499 0.930 . S
C527 C526 1.390 . S
C527 C528 1.392 . S
C528 H500 0.929 . S
C528 C525 1.391 . S
C528 C527 1.392 . S
N529 Co473 2.257 . S
N529 C526 1.391 . S
N529 C530 1.388 . S
C530 H501 0.930 . S
C530 C525 1.391 . S
C530 N529 1.388 . S
Co531 O533 2.131 1_456 S
Co531 O539 2.074 . S
Co531 O542 2.093 . S
Co531 O555 2.097 . S
Co531 N572 2.151 1_455 S
Co531 N580 2.214 . S
Co532 O533 2.162 1_455 S
Co532 O538 2.058 1_454 S
Co532 O548 2.057 1_455 S
Co532 O563 2.037 1_554 S
Co532 N567 2.145 . S
Co532 N588 2.257 . S
O533 Co531 2.131 1_654 S
O533 Co532 2.162 1_655 S
C534 O535 1.279 . S
C534 O542 1.225 1_654 S
O535 C534 1.279 . S
C536 O537 1.245 . S
C536 O548 1.232 . S
O537 C536 1.245 . S
O538 Co532 2.058 1_656 S
O538 C564 1.269 . S
O539 Co531 2.074 . S
O539 C564 1.257 1_455 S
H540 C565 0.930 1_556 S
H541 C571 0.930 . S
O542 Co531 2.093 . S
O542 C534 1.225 1_456 S
H543 C575 0.929 . S
H544 C577 0.930 . S
H545 C578 0.930 . S
H546 C576 0.929 . S
H547 C579 0.928 . S
O548 Co532 2.057 1_655 S
O548 C536 1.232 . S
H549 C568 0.929 1_556 S
H550 C569 0.929 1_655 S
H551 C581 0.931 . S
H552 C573 0.929 . S
H553 C582 0.930 . S
H554 C574 0.931 . S
O555 Co531 2.097 . S
O555 C583 1.214 . S
H556 C584 0.929 . S
H557 C585 0.929 . S
H558 C586 0.930 . S
H559 C587 0.929 . S
H560 C589 0.930 1_655 S
H561 C566 0.930 . S
H562 C570 0.930 . S
O563 Co532 2.037 1_556 S
O563 C583 1.234 . S
C564 O538 1.269 . S
C564 O539 1.257 1_655 S
C565 H540 0.930 1_554 S
C565 C568 1.388 . S
C565 C570 1.418 . S
C566 H561 0.930 . S
C566 C569 1.404 . S
C566 C570 1.353 . S
N567 Co532 2.145 . S
N567 C568 1.397 . S
N567 C569 1.334 . S
C568 H549 0.929 1_554 S
C568 C565 1.388 . S
C568 N567 1.397 . S
C569 H550 0.929 1_455 S
C569 C566 1.404 . S
C569 N567 1.334 . S
C570 H562 0.930 . S
C570 C565 1.418 . S
C570 C566 1.353 . S
C571 H541 0.930 . S
C571 N572 1.330 . S
C571 C573 1.446 . S
N572 Co531 2.151 1_655 S
N572 C571 1.330 . S
N572 C576 1.418 . S
C573 H552 0.929 . S
C573 C571 1.446 . S
C573 C574 1.332 . S
C574 H554 0.931 . S
C574 C573 1.332 . S
C574 C575 1.267 . S
C575 H543 0.929 . S
C575 C574 1.267 . S
C575 C576 1.251 . S
C576 H546 0.929 . S
C576 N572 1.418 . S
C576 C575 1.251 . S
C577 H544 0.930 . S
C577 C579 1.406 . S
C577 C582 1.261 . S
C578 H545 0.930 . S
C578 N580 1.325 . S
C578 C581 1.357 . S
C579 H547 0.928 . S
C579 C577 1.406 . S
C579 N580 1.261 . S
N580 Co531 2.214 . S
N580 C578 1.325 . S
N580 C579 1.261 . S
C581 H551 0.931 . S
C581 C578 1.357 . S
C581 C582 1.312 . S
C582 H553 0.930 . S
C582 C577 1.261 . S
C582 C581 1.312 . S
C583 O555 1.214 . S
C583 O563 1.234 . S
C584 H556 0.929 . S
C584 C587 1.391 . S
C584 C589 1.391 . S
C585 H557 0.929 . S
C585 C586 1.390 . S
C585 N588 1.391 . S
C586 H558 0.930 . S
C586 C585 1.390 . S
C586 C587 1.392 . S
C587 H559 0.929 . S
C587 C584 1.391 . S
C587 C586 1.392 . S
N588 Co532 2.257 . S
N588 C585 1.391 . S
N588 C589 1.388 . S
C589 H560 0.930 1_455 S
C589 C584 1.391 . S
C589 N588 1.388 . S
Co590 O592 2.143 . S
Co590 O598 2.074 . S
Co590 O601 2.093 . S
Co590 O614 2.097 . S
Co590 N631 2.151 . S
Co590 N639 2.214 . S
Co591 O592 2.160 . S
Co591 O597 2.058 . S
Co591 O607 2.057 . S
Co591 O622 2.037 . S
Co591 N626 2.145 . S
Co591 N647 2.257 . S
O592 Co590 2.143 . S
O592 Co591 2.160 . S
C593 O594 1.278 . S
C593 O601 1.224 . S
O594 C593 1.278 . S
C595 O596 1.245 . S
C595 O607 1.232 . S
O596 C595 1.245 . S
O597 Co591 2.058 . S
O597 C623 1.269 . S
O598 Co590 2.074 . S
O598 C623 1.257 . S
H599 C624 0.930 . S
H600 C630 0.930 . S
O601 Co590 2.093 . S
O601 C593 1.224 . S
H602 C634 0.929 . S
H603 C636 0.930 . S
H604 C637 0.930 . S
H605 C635 0.929 . S
H606 C638 0.928 . S
O607 Co591 2.057 . S
O607 C595 1.232 . S
H608 C627 0.929 . S
H609 C628 0.929 . S
H610 C640 0.931 . S
H611 C632 0.929 . S
H612 C641 0.930 . S
H613 C633 0.931 . S
O614 Co590 2.097 . S
O614 C642 1.214 . S
H615 C643 0.929 . S
H616 C644 0.929 . S
H617 C645 0.930 . S
H618 C646 0.929 . S
H619 C648 0.930 . S
H620 C625 0.930 . S
H621 C629 0.930 . S
O622 Co591 2.037 . S
O622 C642 1.234 . S
C623 O597 1.269 . S
C623 O598 1.257 . S
C624 H599 0.930 . S
C624 C627 1.388 . S
C624 C629 1.418 . S
C625 H620 0.930 . S
C625 C628 1.404 . S
C625 C629 1.353 . S
N626 Co591 2.145 . S
N626 C627 1.397 . S
N626 C628 1.334 . S
C627 H608 0.929 . S
C627 C624 1.388 . S
C627 N626 1.397 . S
C628 H609 0.929 . S
C628 C625 1.404 . S
C628 N626 1.334 . S
C629 H621 0.930 . S
C629 C624 1.418 . S
C629 C625 1.353 . S
C630 H600 0.930 . S
C630 N631 1.330 . S
C630 C632 1.446 . S
N631 Co590 2.151 . S
N631 C630 1.330 . S
N631 C635 1.418 . S
C632 H611 0.929 . S
C632 C630 1.446 . S
C632 C633 1.332 . S
C633 H613 0.931 . S
C633 C632 1.332 . S
C633 C634 1.267 . S
C634 H602 0.929 . S
C634 C633 1.267 . S
C634 C635 1.251 . S
C635 H605 0.929 . S
C635 N631 1.418 . S
C635 C634 1.251 . S
C636 H603 0.930 . S
C636 C638 1.406 . S
C636 C641 1.261 . S
C637 H604 0.930 . S
C637 N639 1.325 . S
C637 C640 1.357 . S
C638 H606 0.928 . S
C638 C636 1.406 . S
C638 N639 1.261 . S
N639 Co590 2.214 . S
N639 C637 1.325 . S
N639 C638 1.261 . S
C640 H610 0.931 . S
C640 C637 1.357 . S
C640 C641 1.312 . S
C641 H612 0.930 . S
C641 C636 1.261 . S
C641 C640 1.312 . S
C642 O614 1.214 . S
C642 O622 1.234 . S
C643 H615 0.929 . S
C643 C646 1.391 . S
C643 C648 1.391 . S
C644 H616 0.929 . S
C644 C645 1.390 . S
C644 N647 1.391 . S
C645 H617 0.930 . S
C645 C644 1.390 . S
C645 C646 1.392 . S
C646 H618 0.929 . S
C646 C643 1.391 . S
C646 C645 1.392 . S
N647 Co591 2.257 . S
N647 C644 1.391 . S
N647 C648 1.388 . S
C648 H619 0.930 . S
C648 C643 1.391 . S
C648 N647 1.388 . S
Co649 O651 2.143 . S
Co649 O657 2.074 . S
Co649 O660 2.093 . S
Co649 O673 2.097 . S
Co649 N690 2.151 . S
Co649 N698 2.214 . S
Co650 O651 2.160 . S
Co650 O656 2.058 . S
Co650 O666 2.057 1_455 S
Co650 O681 2.037 . S
Co650 N685 2.145 1_455 S
Co650 N706 2.257 1_455 S
O651 Co649 2.143 . S
O651 Co650 2.160 . S
C652 O653 1.278 1_455 S
C652 O660 1.224 . S
O653 C652 1.278 1_655 S
C654 O655 1.245 . S
C654 O666 1.232 1_455 S
O655 C654 1.245 . S
O656 Co650 2.058 . S
O656 C682 1.269 . S
O657 Co649 2.074 . S
O657 C682 1.257 . S
H658 C683 0.930 . S
H659 C689 0.930 . S
O660 Co649 2.093 . S
O660 C652 1.224 . S
H661 C693 0.929 . S
H662 C695 0.930 . S
H663 C696 0.930 . S
H664 C694 0.929 . S
H665 C697 0.928 . S
O666 Co650 2.057 1_655 S
O666 C654 1.232 1_655 S
H667 C686 0.929 . S
H668 C687 0.929 . S
H669 C699 0.931 . S
H670 C691 0.929 . S
H671 C700 0.930 . S
H672 C692 0.931 . S
O673 Co649 2.097 . S
O673 C701 1.214 . S
H674 C702 0.929 . S
H675 C703 0.929 . S
H676 C704 0.930 . S
H677 C705 0.929 . S
H678 C707 0.930 . S
H679 C684 0.930 . S
H680 C688 0.930 . S
O681 Co650 2.037 . S
O681 C701 1.234 . S
C682 O656 1.269 . S
C682 O657 1.257 . S
C683 H658 0.930 . S
C683 C686 1.388 . S
C683 C688 1.418 1_455 S
C684 H679 0.930 . S
C684 C687 1.404 . S
C684 C688 1.353 . S
N685 Co650 2.145 1_655 S
N685 C686 1.397 1_655 S
N685 C687 1.334 . S
C686 H667 0.929 . S
C686 C683 1.388 . S
C686 N685 1.397 1_455 S
C687 H668 0.929 . S
C687 C684 1.404 . S
C687 N685 1.334 . S
C688 H680 0.930 . S
C688 C683 1.418 1_655 S
C688 C684 1.353 . S
C689 H659 0.930 . S
C689 N690 1.330 . S
C689 C691 1.446 . S
N690 Co649 2.151 . S
N690 C689 1.330 . S
N690 C694 1.418 . S
C691 H670 0.929 . S
C691 C689 1.446 . S
C691 C692 1.332 . S
C692 H672 0.931 . S
C692 C691 1.332 . S
C692 C693 1.267 . S
C693 H661 0.929 . S
C693 C692 1.267 . S
C693 C694 1.251 . S
C694 H664 0.929 . S
C694 N690 1.418 . S
C694 C693 1.251 . S
C695 H662 0.930 . S
C695 C697 1.406 . S
C695 C700 1.261 . S
C696 H663 0.930 . S
C696 N698 1.325 . S
C696 C699 1.357 . S
C697 H665 0.928 . S
C697 C695 1.406 . S
C697 N698 1.261 . S
N698 Co649 2.214 . S
N698 C696 1.325 . S
N698 C697 1.261 . S
C699 H669 0.931 . S
C699 C696 1.357 . S
C699 C700 1.312 . S
C700 H671 0.930 . S
C700 C695 1.261 . S
C700 C699 1.312 . S
C701 O673 1.214 . S
C701 O681 1.234 . S
C702 H674 0.929 . S
C702 C705 1.391 . S
C702 C707 1.391 . S
C703 H675 0.929 . S
C703 C704 1.390 . S
C703 N706 1.391 . S
C704 H676 0.930 . S
C704 C703 1.390 . S
C704 C705 1.392 . S
C705 H677 0.929 . S
C705 C702 1.391 . S
C705 C704 1.392 . S
N706 Co650 2.257 1_655 S
N706 C703 1.391 . S
N706 C707 1.388 . S
C707 H678 0.930 . S
C707 C702 1.391 . S
C707 N706 1.388 . S
Co708 O710 2.143 . S
Co708 O716 2.074 . S
Co708 O719 2.093 . S
Co708 O732 2.097 . S
Co708 N749 2.151 . S
Co708 N757 2.214 . S
Co709 O710 2.160 1_556 S
Co709 O715 2.059 1_556 S
Co709 O725 2.057 . S
Co709 O740 2.037 1_556 S
Co709 N744 2.144 . S
Co709 N765 2.256 . S
O710 Co708 2.143 . S
O710 Co709 2.160 1_554 S
C711 O712 1.278 . S
C711 O719 1.224 1_556 S
O712 C711 1.278 . S
C713 O714 1.255 . S
C713 O725 1.232 . S
O714 C713 1.255 . S
O715 Co709 2.059 1_554 S
O715 C741 1.269 . S
O716 Co708 2.074 . S
O716 C741 1.257 . S
H717 C742 0.930 1_554 S
H718 C748 0.930 . S
O719 Co708 2.093 . S
O719 C711 1.224 1_554 S
H720 C752 0.929 . S
H721 C754 0.930 . S
H722 C755 0.930 . S
H723 C753 0.929 . S
H724 C756 0.928 . S
O725 Co709 2.057 . S
O725 C713 1.232 . S
H726 C745 0.929 . S
H727 C746 0.929 . S
H728 C758 0.931 . S
H729 C750 0.929 . S
H730 C759 0.930 . S
H731 C751 0.931 . S
O732 Co708 2.097 . S
O732 C760 1.214 . S
H733 C761 0.929 . S
H734 C762 0.929 . S
H735 C763 0.930 . S
H736 C764 0.929 . S
H737 C766 0.930 . S
H738 C743 0.930 . S
H739 C747 0.930 . S
O740 Co709 2.037 1_554 S
O740 C760 1.234 . S
C741 O715 1.269 . S
C741 O716 1.257 . S
C742 H717 0.930 1_556 S
C742 C745 1.388 1_556 S
C742 C747 1.418 . S
C743 H738 0.930 . S
C743 C746 1.404 . S
C743 C747 1.353 . S
N744 Co709 2.144 . S
N744 C745 1.397 1_556 S
N744 C746 1.334 . S
C745 H726 0.929 . S
C745 C742 1.388 1_554 S
C745 N744 1.397 1_554 S
C746 H727 0.929 . S
C746 C743 1.404 . S
C746 N744 1.334 . S
C747 H739 0.930 . S
C747 C742 1.418 . S
C747 C743 1.353 . S
C748 H718 0.930 . S
C748 N749 1.330 . S
C748 C750 1.446 . S
N749 Co708 2.151 . S
N749 C748 1.330 . S
N749 C753 1.418 . S
C750 H729 0.929 . S
C750 C748 1.446 . S
C750 C751 1.332 . S
C751 H731 0.931 . S
C751 C750 1.332 . S
C751 C752 1.267 . S
C752 H720 0.929 . S
C752 C751 1.267 . S
C752 C753 1.251 . S
C753 H723 0.929 . S
C753 N749 1.418 . S
C753 C752 1.251 . S
C754 H721 0.930 . S
C754 C756 1.406 . S
C754 C759 1.261 . S
C755 H722 0.930 . S
C755 N757 1.325 . S
C755 C758 1.357 . S
C756 H724 0.928 . S
C756 C754 1.406 . S
C756 N757 1.261 . S
N757 Co708 2.214 . S
N757 C755 1.325 . S
N757 C756 1.261 . S
C758 H728 0.931 . S
C758 C755 1.357 . S
C758 C759 1.312 . S
C759 H730 0.930 . S
C759 C754 1.261 . S
C759 C758 1.312 . S
C760 O732 1.214 . S
C760 O740 1.234 . S
C761 H733 0.929 . S
C761 C764 1.391 . S
C761 C766 1.391 . S
C762 H734 0.929 . S
C762 C763 1.390 . S
C762 N765 1.391 . S
C763 H735 0.930 . S
C763 C762 1.390 . S
C763 C764 1.392 . S
C764 H736 0.929 . S
C764 C761 1.391 . S
C764 C763 1.392 . S
N765 Co709 2.256 . S
N765 C762 1.391 . S
N765 C766 1.388 . S
C766 H737 0.930 . S
C766 C761 1.391 . S
C766 N765 1.388 . S
Co767 O769 2.143 . S
Co767 O775 2.074 . S
Co767 O778 2.093 . S
Co767 O791 2.097 . S
Co767 N808 2.151 . S
Co767 N816 2.214 . S
Co768 O769 2.160 . S
Co768 O774 2.058 . S
Co768 O784 2.057 . S
Co768 O799 2.037 . S
Co768 N803 2.145 . S
Co768 N824 2.257 . S
O769 Co767 2.143 . S
O769 Co768 2.160 . S
C770 O771 1.278 . S
C770 O778 1.224 . S
O771 C770 1.278 . S
C772 O773 1.245 . S
C772 O784 1.232 . S
O773 C772 1.245 . S
O774 Co768 2.058 . S
O774 C800 1.269 . S
O775 Co767 2.074 . S
O775 C800 1.257 . S
H776 C801 0.930 . S
H777 C807 0.930 . S
O778 Co767 2.093 . S
O778 C770 1.224 . S
H779 C811 0.929 . S
H780 C813 0.930 . S
H781 C814 0.930 . S
H782 C812 0.929 . S
H783 C815 0.928 . S
O784 Co768 2.057 . S
O784 C772 1.232 . S
H785 C804 0.929 . S
H786 C805 0.929 . S
H787 C817 0.931 . S
H788 C809 0.929 . S
H789 C818 0.930 . S
H790 C810 0.931 . S
O791 Co767 2.097 . S
O791 C819 1.214 . S
H792 C820 0.929 . S
H793 C821 0.929 . S
H794 C822 0.930 . S
H795 C823 0.929 . S
H796 C825 0.930 . S
H797 C802 0.930 . S
H798 C806 0.930 . S
O799 Co768 2.037 . S
O799 C819 1.234 . S
C800 O774 1.269 . S
C800 O775 1.257 . S
C801 H776 0.930 . S
C801 C804 1.388 . S
C801 C806 1.418 . S
C802 H797 0.930 . S
C802 C805 1.404 . S
C802 C806 1.353 . S
N803 Co768 2.145 . S
N803 C804 1.397 . S
N803 C805 1.334 . S
C804 H785 0.929 . S
C804 C801 1.388 . S
C804 N803 1.397 . S
C805 H786 0.929 . S
C805 C802 1.404 . S
C805 N803 1.334 . S
C806 H798 0.930 . S
C806 C801 1.418 . S
C806 C802 1.353 . S
C807 H777 0.930 . S
C807 N808 1.330 . S
C807 C809 1.446 . S
N808 Co767 2.151 . S
N808 C807 1.330 . S
N808 C812 1.418 . S
C809 H788 0.929 . S
C809 C807 1.446 . S
C809 C810 1.332 . S
C810 H790 0.931 . S
C810 C809 1.332 . S
C810 C811 1.267 . S
C811 H779 0.929 . S
C811 C810 1.267 . S
C811 C812 1.251 . S
C812 H782 0.929 . S
C812 N808 1.418 . S
C812 C811 1.251 . S
C813 H780 0.930 . S
C813 C815 1.406 . S
C813 C818 1.261 . S
C814 H781 0.930 . S
C814 N816 1.325 . S
C814 C817 1.357 . S
C815 H783 0.928 . S
C815 C813 1.406 . S
C815 N816 1.261 . S
N816 Co767 2.214 . S
N816 C814 1.325 . S
N816 C815 1.261 . S
C817 H787 0.931 . S
C817 C814 1.357 . S
C817 C818 1.312 . S
C818 H789 0.930 . S
C818 C813 1.261 . S
C818 C817 1.312 . S
C819 O791 1.214 . S
C819 O799 1.234 . S
C820 H792 0.929 . S
C820 C823 1.391 . S
C820 C825 1.391 . S
C821 H793 0.929 . S
C821 C822 1.390 . S
C821 N824 1.391 . S
C822 H794 0.930 . S
C822 C821 1.390 . S
C822 C823 1.392 . S
C823 H795 0.929 . S
C823 C820 1.391 . S
C823 C822 1.392 . S
N824 Co768 2.257 . S
N824 C821 1.391 . S
N824 C825 1.388 . S
C825 H796 0.930 . S
C825 C820 1.391 . S
C825 N824 1.388 . S
Co826 O828 2.143 . S
Co826 O834 2.074 . S
Co826 O837 2.093 . S
Co826 O850 2.097 . S
Co826 N867 2.151 . S
Co826 N875 2.214 . S
Co827 O828 2.160 . S
Co827 O833 2.058 . S
Co827 O843 2.057 . S
Co827 O858 2.037 . S
Co827 N862 2.145 . S
Co827 N883 2.257 . S
O828 Co826 2.143 . S
O828 Co827 2.160 . S
C829 O830 1.278 . S
C829 O837 1.224 . S
O830 C829 1.278 . S
C831 O832 1.245 . S
C831 O843 1.232 . S
O832 C831 1.245 . S
O833 Co827 2.058 . S
O833 C859 1.269 . S
O834 Co826 2.074 . S
O834 C859 1.257 . S
H835 C860 0.930 . S
H836 C866 0.930 . S
O837 Co826 2.093 . S
O837 C829 1.224 . S
H838 C870 0.929 . S
H839 C872 0.930 . S
H840 C873 0.930 . S
H841 C871 0.929 . S
H842 C874 0.928 . S
O843 Co827 2.057 . S
O843 C831 1.232 . S
H844 C863 0.929 . S
H845 C864 0.929 . S
H846 C876 0.931 . S
H847 C868 0.929 . S
H848 C877 0.930 . S
H849 C869 0.931 . S
O850 Co826 2.097 . S
O850 C878 1.214 . S
H851 C879 0.929 . S
H852 C880 0.929 . S
H853 C881 0.930 . S
H854 C882 0.929 . S
H855 C884 0.930 . S
H856 C861 0.930 . S
H857 C865 0.930 . S
O858 Co827 2.037 . S
O858 C878 1.234 . S
C859 O833 1.269 . S
C859 O834 1.257 . S
C860 H835 0.930 . S
C860 C863 1.388 . S
C860 C865 1.418 . S
C861 H856 0.930 . S
C861 C864 1.404 . S
C861 C865 1.353 . S
N862 Co827 2.145 . S
N862 C863 1.397 . S
N862 C864 1.334 . S
C863 H844 0.929 . S
C863 C860 1.388 . S
C863 N862 1.397 . S
C864 H845 0.929 . S
C864 C861 1.404 . S
C864 N862 1.334 . S
C865 H857 0.930 . S
C865 C860 1.418 . S
C865 C861 1.353 . S
C866 H836 0.930 . S
C866 N867 1.330 . S
C866 C868 1.446 . S
N867 Co826 2.151 . S
N867 C866 1.330 . S
N867 C871 1.418 . S
C868 H847 0.929 . S
C868 C866 1.446 . S
C868 C869 1.332 . S
C869 H849 0.931 . S
C869 C868 1.332 . S
C869 C870 1.267 . S
C870 H838 0.929 . S
C870 C869 1.267 . S
C870 C871 1.251 . S
C871 H841 0.929 . S
C871 N867 1.418 . S
C871 C870 1.251 . S
C872 H839 0.930 . S
C872 C874 1.406 . S
C872 C877 1.261 . S
C873 H840 0.930 . S
C873 N875 1.325 . S
C873 C876 1.357 . S
C874 H842 0.928 . S
C874 C872 1.406 . S
C874 N875 1.261 . S
N875 Co826 2.214 . S
N875 C873 1.325 . S
N875 C874 1.261 . S
C876 H846 0.931 . S
C876 C873 1.357 . S
C876 C877 1.312 . S
C877 H848 0.930 . S
C877 C872 1.261 . S
C877 C876 1.312 . S
C878 O850 1.214 . S
C878 O858 1.234 . S
C879 H851 0.929 . S
C879 C882 1.391 . S
C879 C884 1.391 . S
C880 H852 0.929 . S
C880 C881 1.390 . S
C880 N883 1.391 . S
C881 H853 0.930 . S
C881 C880 1.390 . S
C881 C882 1.392 . S
C882 H854 0.929 . S
C882 C879 1.391 . S
C882 C881 1.392 . S
N883 Co827 2.257 . S
N883 C880 1.391 . S
N883 C884 1.388 . S
C884 H855 0.930 . S
C884 C879 1.391 . S
C884 N883 1.388 . S
Co885 O887 2.143 . S
Co885 O893 2.074 . S
Co885 O896 2.093 . S
Co885 O909 2.097 . S
Co885 N926 2.151 . S
Co885 N934 2.214 . S
Co886 O887 2.160 . S
Co886 O892 2.058 . S
Co886 O902 2.057 . S
Co886 O917 2.037 . S
Co886 N921 2.145 . S
Co886 N942 2.257 . S
O887 Co885 2.143 . S
O887 Co886 2.160 . S
C888 O889 1.278 . S
C888 O896 1.224 . S
O889 C888 1.278 . S
C890 O891 1.245 . S
C890 O902 1.232 . S
O891 C890 1.245 . S
O892 Co886 2.058 . S
O892 C918 1.269 . S
O893 Co885 2.074 . S
O893 C918 1.257 . S
H894 C919 0.930 . S
H895 C925 0.930 . S
O896 Co885 2.093 . S
O896 C888 1.224 . S
H897 C929 0.929 . S
H898 C931 0.930 . S
H899 C932 0.930 . S
H900 C930 0.929 . S
H901 C933 0.928 . S
O902 Co886 2.057 . S
O902 C890 1.232 . S
H903 C922 0.929 . S
H904 C923 0.929 . S
H905 C935 0.931 . S
H906 C927 0.929 . S
H907 C936 0.930 . S
H908 C928 0.931 . S
O909 Co885 2.097 . S
O909 C937 1.214 . S
H910 C938 0.929 . S
H911 C939 0.929 . S
H912 C940 0.930 . S
H913 C941 0.929 . S
H914 C943 0.930 . S
H915 C920 0.930 . S
H916 C924 0.930 . S
O917 Co886 2.037 . S
O917 C937 1.234 . S
C918 O892 1.269 . S
C918 O893 1.257 . S
C919 H894 0.930 . S
C919 C922 1.388 . S
C919 C924 1.418 . S
C920 H915 0.930 . S
C920 C923 1.404 . S
C920 C924 1.353 . S
N921 Co886 2.145 . S
N921 C922 1.397 . S
N921 C923 1.334 . S
C922 H903 0.929 . S
C922 C919 1.388 . S
C922 N921 1.397 . S
C923 H904 0.929 . S
C923 C920 1.404 . S
C923 N921 1.334 . S
C924 H916 0.930 . S
C924 C919 1.418 . S
C924 C920 1.353 . S
C925 H895 0.930 . S
C925 N926 1.330 . S
C925 C927 1.446 . S
N926 Co885 2.151 . S
N926 C925 1.330 . S
N926 C930 1.418 . S
C927 H906 0.929 . S
C927 C925 1.446 . S
C927 C928 1.332 . S
C928 H908 0.931 . S
C928 C927 1.332 . S
C928 C929 1.267 . S
C929 H897 0.929 . S
C929 C928 1.267 . S
C929 C930 1.251 . S
C930 H900 0.929 . S
C930 N926 1.418 . S
C930 C929 1.251 . S
C931 H898 0.930 . S
C931 C933 1.406 . S
C931 C936 1.261 . S
C932 H899 0.930 . S
C932 N934 1.325 . S
C932 C935 1.357 . S
C933 H901 0.928 . S
C933 C931 1.406 . S
C933 N934 1.261 . S
N934 Co885 2.214 . S
N934 C932 1.325 . S
N934 C933 1.261 . S
C935 H905 0.931 . S
C935 C932 1.357 . S
C935 C936 1.312 . S
C936 H907 0.930 . S
C936 C931 1.261 . S
C936 C935 1.312 . S
C937 O909 1.214 . S
C937 O917 1.234 . S
C938 H910 0.929 . S
C938 C941 1.391 . S
C938 C943 1.391 . S
C939 H911 0.929 . S
C939 C940 1.390 . S
C939 N942 1.391 . S
C940 H912 0.930 . S
C940 C939 1.390 . S
C940 C941 1.392 . S
C941 H913 0.929 . S
C941 C938 1.391 . S
C941 C940 1.392 . S
N942 Co886 2.257 . S
N942 C939 1.391 . S
N942 C943 1.388 . S
C943 H914 0.930 . S
C943 C938 1.391 . S
C943 N942 1.388 . S
C944 C945 1.349 . S
C944 C946 1.327 . S
C944 H969 0.950 . S
C945 C944 1.349 . S
C945 C961 1.349 . S
C946 C944 1.327 . S
C946 C965 1.429 . S
C946 H970 0.950 . S
C947 C964 1.574 . S
C947 C966 1.368 . S
C947 H971 0.949 . S
H948 C952 0.949 . S
C949 C950 1.349 . S
C949 C951 1.327 . S
C949 H972 0.950 . S
C950 C949 1.349 . S
C950 C962 1.349 . S
C951 C949 1.327 . S
C951 C967 1.429 . S
C951 H973 0.950 . S
C952 H948 0.949 . S
C952 C960 1.574 . S
C952 C968 1.368 . S
H953 C961 0.950 . S
H954 C959 0.950 . S
H955 C960 0.949 . S
H956 C962 0.950 . S
H957 C963 0.950 . S
H958 C964 0.949 . S
C959 H954 0.950 . S
C959 C961 1.327 . S
C959 C965 1.429 . S
C960 C952 1.574 . S
C960 H955 0.949 . S
C960 C966 1.368 . S
C961 C945 1.349 . S
C961 H953 0.950 . S
C961 C959 1.327 . S
C962 C950 1.349 . S
C962 H956 0.950 . S
C962 C963 1.327 . S
C963 H957 0.950 . S
C963 C962 1.327 . S
C963 C967 1.429 . S
C964 C947 1.574 . S
C964 H958 0.949 . S
C964 C968 1.368 . S
C965 C946 1.429 . S
C965 C959 1.429 . S
C965 C966 1.523 . S
C966 C947 1.368 . S
C966 C960 1.368 . S
C966 C965 1.523 . S
C967 C951 1.429 . S
C967 C963 1.429 . S
C967 C968 1.523 . S
C968 C952 1.368 . S
C968 C964 1.368 . S
C968 C967 1.523 . S
H969 C944 0.950 . S
H970 C946 0.950 . S
H971 C947 0.949 . S
H972 C949 0.950 . S
H973 C951 0.950 . S
C974 C975 1.349 . S
C974 C976 1.327 . S
C974 H999 0.950 . S
C975 C974 1.349 . S
C975 C991 1.349 . S
C976 C974 1.327 . S
C976 C995 1.429 . S
C976 H1000 0.950 . S
C977 C994 1.574 . S
C977 C996 1.368 . S
C977 H1001 0.949 . S
H978 C982 0.949 . S
C979 C980 1.349 . S
C979 C981 1.327 . S
C979 H1002 0.950 . S
C980 C979 1.349 . S
C980 C992 1.349 . S
C981 C979 1.327 . S
C981 C997 1.429 . S
C981 H1003 0.950 . S
C982 H978 0.949 . S
C982 C990 1.574 . S
C982 C998 1.368 . S
H983 C991 0.950 . S
H984 C989 0.950 . S
H985 C990 0.949 . S
H986 C992 0.950 . S
H987 C993 0.950 . S
H988 C994 0.949 . S
C989 H984 0.950 . S
C989 C991 1.327 . S
C989 C995 1.429 . S
C990 C982 1.574 . S
C990 H985 0.949 . S
C990 C996 1.368 . S
C991 C975 1.349 . S
C991 H983 0.950 . S
C991 C989 1.327 . S
C992 C980 1.349 . S
C992 H986 0.950 . S
C992 C993 1.327 . S
C993 H987 0.950 . S
C993 C992 1.327 . S
C993 C997 1.429 . S
C994 C977 1.574 . S
C994 H988 0.949 . S
C994 C998 1.368 . S
C995 C976 1.429 . S
C995 C989 1.429 . S
C995 C996 1.523 . S
C996 C977 1.368 . S
C996 C990 1.368 . S
C996 C995 1.523 . S
C997 C981 1.429 . S
C997 C993 1.429 . S
C997 C998 1.523 . S
C998 C982 1.368 . S
C998 C994 1.368 . S
C998 C997 1.523 . S
H999 C974 0.950 . S
H1000 C976 0.950 . S
H1001 C977 0.949 . S
H1002 C979 0.950 . S
H1003 C981 0.950 . S
C1004 C1005 1.349 . S
C1004 C1006 1.327 . S
C1004 H1029 0.950 . S
C1005 C1004 1.349 . S
C1005 C1021 1.349 . S
C1006 C1004 1.327 . S
C1006 C1025 1.429 . S
C1006 H1030 0.950 . S
C1007 C1024 1.574 . S
C1007 C1026 1.368 . S
C1007 H1031 0.949 . S
H1008 C1012 0.949 . S
C1009 C1010 1.349 . S
C1009 C1011 1.327 . S
C1009 H1032 0.950 . S
C1010 C1009 1.349 . S
C1010 C1022 1.349 . S
C1011 C1009 1.327 . S
C1011 C1027 1.429 . S
C1011 H1033 0.950 . S
C1012 H1008 0.949 . S
C1012 C1020 1.574 . S
C1012 C1028 1.368 . S
H1013 C1021 0.950 . S
H1014 C1019 0.950 . S
H1015 C1020 0.949 . S
H1016 C1022 0.950 . S
H1017 C1023 0.950 . S
H1018 C1024 0.949 . S
C1019 H1014 0.950 . S
C1019 C1021 1.327 . S
C1019 C1025 1.429 . S
C1020 C1012 1.574 . S
C1020 H1015 0.949 . S
C1020 C1026 1.368 . S
C1021 C1005 1.349 . S
C1021 H1013 0.950 . S
C1021 C1019 1.327 . S
C1022 C1010 1.349 . S
C1022 H1016 0.950 . S
C1022 C1023 1.327 . S
C1023 H1017 0.950 . S
C1023 C1022 1.327 . S
C1023 C1027 1.429 . S
C1024 C1007 1.574 . S
C1024 H1018 0.949 . S
C1024 C1028 1.368 . S
C1025 C1006 1.429 . S
C1025 C1019 1.429 . S
C1025 C1026 1.523 . S
C1026 C1007 1.368 . S
C1026 C1020 1.368 . S
C1026 C1025 1.523 . S
C1027 C1011 1.429 . S
C1027 C1023 1.429 . S
C1027 C1028 1.523 . S
C1028 C1012 1.368 . S
C1028 C1024 1.368 . S
C1028 C1027 1.523 . S
H1029 C1004 0.950 . S
H1030 C1006 0.950 . S
H1031 C1007 0.949 . S
H1032 C1009 0.950 . S
H1033 C1011 0.950 . S
C1034 C1035 1.349 . S
C1034 C1036 1.327 . S
C1034 H1059 0.950 . S
C1035 C1034 1.349 . S
C1035 C1051 1.349 . S
C1036 C1034 1.327 . S
C1036 C1055 1.429 . S
C1036 H1060 0.950 . S
C1037 C1054 1.574 . S
C1037 C1056 1.368 . S
C1037 H1061 0.949 . S
H1038 C1042 0.949 . S
C1039 C1040 1.349 . S
C1039 C1041 1.327 . S
C1039 H1062 0.950 . S
C1040 C1039 1.349 . S
C1040 C1052 1.349 . S
C1041 C1039 1.327 . S
C1041 C1057 1.429 . S
C1041 H1063 0.950 . S
C1042 H1038 0.949 . S
C1042 C1050 1.574 . S
C1042 C1058 1.368 . S
H1043 C1051 0.950 . S
H1044 C1049 0.950 . S
H1045 C1050 0.949 . S
H1046 C1052 0.950 . S
H1047 C1053 0.950 . S
H1048 C1054 0.949 . S
C1049 H1044 0.950 . S
C1049 C1051 1.327 . S
C1049 C1055 1.429 . S
C1050 C1042 1.574 . S
C1050 H1045 0.949 . S
C1050 C1056 1.368 . S
C1051 C1035 1.349 . S
C1051 H1043 0.950 . S
C1051 C1049 1.327 . S
C1052 C1040 1.349 . S
C1052 H1046 0.950 . S
C1052 C1053 1.327 . S
C1053 H1047 0.950 . S
C1053 C1052 1.327 . S
C1053 C1057 1.429 . S
C1054 C1037 1.574 . S
C1054 H1048 0.949 . S
C1054 C1058 1.368 . S
C1055 C1036 1.429 . S
C1055 C1049 1.429 . S
C1055 C1056 1.523 . S
C1056 C1037 1.368 . S
C1056 C1050 1.368 . S
C1056 C1055 1.523 . S
C1057 C1041 1.429 . S
C1057 C1053 1.429 . S
C1057 C1058 1.523 . S
C1058 C1042 1.368 . S
C1058 C1054 1.368 . S
C1058 C1057 1.523 . S
H1059 C1034 0.950 . S
H1060 C1036 0.950 . S
H1061 C1037 0.949 . S
H1062 C1039 0.950 . S
H1063 C1041 0.950 . S
C1064 C1065 1.349 . S
C1064 C1066 1.327 . S
C1064 H1089 0.950 . S
C1065 C1064 1.349 . S
C1065 C1081 1.349 . S
C1066 C1064 1.327 . S
C1066 C1085 1.429 . S
C1066 H1090 0.950 . S
C1067 C1084 1.574 . S
C1067 C1086 1.368 . S
C1067 H1091 0.949 . S
H1068 C1072 0.949 . S
C1069 C1070 1.349 . S
C1069 C1071 1.327 . S
C1069 H1092 0.950 . S
C1070 C1069 1.349 . S
C1070 C1082 1.349 . S
C1071 C1069 1.327 . S
C1071 C1087 1.429 . S
C1071 H1093 0.950 . S
C1072 H1068 0.949 . S
C1072 C1080 1.574 . S
C1072 C1088 1.368 . S
H1073 C1081 0.950 . S
H1074 C1079 0.950 . S
H1075 C1080 0.949 . S
H1076 C1082 0.950 . S
H1077 C1083 0.950 . S
H1078 C1084 0.949 . S
C1079 H1074 0.950 . S
C1079 C1081 1.327 . S
C1079 C1085 1.429 . S
C1080 C1072 1.574 . S
C1080 H1075 0.949 . S
C1080 C1086 1.368 . S
C1081 C1065 1.349 . S
C1081 H1073 0.950 . S
C1081 C1079 1.327 . S
C1082 C1070 1.349 . S
C1082 H1076 0.950 . S
C1082 C1083 1.327 . S
C1083 H1077 0.950 . S
C1083 C1082 1.327 . S
C1083 C1087 1.429 . S
C1084 C1067 1.574 . S
C1084 H1078 0.949 . S
C1084 C1088 1.368 . S
C1085 C1066 1.429 . S
C1085 C1079 1.429 . S
C1085 C1086 1.523 . S
C1086 C1067 1.368 . S
C1086 C1080 1.368 . S
C1086 C1085 1.523 . S
C1087 C1071 1.429 . S
C1087 C1083 1.429 . S
C1087 C1088 1.523 . S
C1088 C1072 1.368 . S
C1088 C1084 1.368 . S
C1088 C1087 1.523 . S
H1089 C1064 0.950 . S
H1090 C1066 0.950 . S
H1091 C1067 0.949 . S
H1092 C1069 0.950 . S
H1093 C1071 0.950 . S
C1094 C1095 1.349 . S
C1094 C1096 1.327 . S
C1094 H1119 0.950 . S
C1095 C1094 1.349 . S
C1095 C1111 1.349 . S
C1096 C1094 1.327 . S
C1096 C1115 1.429 . S
C1096 H1120 0.950 . S
C1097 C1114 1.574 . S
C1097 C1116 1.368 . S
C1097 H1121 0.949 . S
H1098 C1102 0.949 . S
C1099 C1100 1.349 . S
C1099 C1101 1.327 . S
C1099 H1122 0.950 . S
C1100 C1099 1.349 . S
C1100 C1112 1.349 . S
C1101 C1099 1.327 . S
C1101 C1117 1.429 . S
C1101 H1123 0.950 . S
C1102 H1098 0.949 . S
C1102 C1110 1.574 . S
C1102 C1118 1.368 . S
H1103 C1111 0.950 . S
H1104 C1109 0.950 . S
H1105 C1110 0.949 . S
H1106 C1112 0.950 . S
H1107 C1113 0.950 . S
H1108 C1114 0.949 . S
C1109 H1104 0.950 . S
C1109 C1111 1.327 . S
C1109 C1115 1.429 . S
C1110 C1102 1.574 . S
C1110 H1105 0.949 . S
C1110 C1116 1.368 . S
C1111 C1095 1.349 . S
C1111 H1103 0.950 . S
C1111 C1109 1.327 . S
C1112 C1100 1.349 . S
C1112 H1106 0.950 . S
C1112 C1113 1.327 . S
C1113 H1107 0.950 . S
C1113 C1112 1.327 . S
C1113 C1117 1.429 . S
C1114 C1097 1.574 . S
C1114 H1108 0.949 . S
C1114 C1118 1.368 . S
C1115 C1096 1.429 . S
C1115 C1109 1.429 . S
C1115 C1116 1.523 . S
C1116 C1097 1.368 . S
C1116 C1110 1.368 . S
C1116 C1115 1.523 . S
C1117 C1101 1.429 . S
C1117 C1113 1.429 . S
C1117 C1118 1.523 . S
C1118 C1102 1.368 . S
C1118 C1114 1.368 . S
C1118 C1117 1.523 . S
H1119 C1094 0.950 . S
H1120 C1096 0.950 . S
H1121 C1097 0.949 . S
H1122 C1099 0.950 . S
H1123 C1101 0.950 . S
C1124 C1125 1.349 . S
C1124 C1126 1.327 . S
C1124 H1149 0.950 . S
C1125 C1124 1.349 . S
C1125 C1141 1.349 . S
C1126 C1124 1.327 . S
C1126 C1145 1.429 . S
C1126 H1150 0.950 . S
C1127 C1144 1.574 . S
C1127 C1146 1.368 . S
C1127 H1151 0.949 . S
H1128 C1132 0.949 . S
C1129 C1130 1.349 . S
C1129 C1131 1.327 . S
C1129 H1152 0.950 . S
C1130 C1129 1.349 . S
C1130 C1142 1.349 . S
C1131 C1129 1.327 . S
C1131 C1147 1.429 . S
C1131 H1153 0.950 . S
C1132 H1128 0.949 . S
C1132 C1140 1.574 . S
C1132 C1148 1.368 . S
H1133 C1141 0.950 . S
H1134 C1139 0.950 . S
H1135 C1140 0.949 . S
H1136 C1142 0.950 . S
H1137 C1143 0.950 . S
H1138 C1144 0.949 . S
C1139 H1134 0.950 . S
C1139 C1141 1.327 . S
C1139 C1145 1.429 . S
C1140 C1132 1.574 . S
C1140 H1135 0.949 . S
C1140 C1146 1.368 . S
C1141 C1125 1.349 . S
C1141 H1133 0.950 . S
C1141 C1139 1.327 . S
C1142 C1130 1.349 . S
C1142 H1136 0.950 . S
C1142 C1143 1.327 . S
C1143 H1137 0.950 . S
C1143 C1142 1.327 . S
C1143 C1147 1.429 . S
C1144 C1127 1.574 . S
C1144 H1138 0.949 . S
C1144 C1148 1.368 . S
C1145 C1126 1.429 . S
C1145 C1139 1.429 . S
C1145 C1146 1.523 . S
C1146 C1127 1.368 . S
C1146 C1140 1.368 . S
C1146 C1145 1.523 . S
C1147 C1131 1.429 . S
C1147 C1143 1.429 . S
C1147 C1148 1.523 . S
C1148 C1132 1.368 . S
C1148 C1144 1.368 . S
C1148 C1147 1.523 . S
H1149 C1124 0.950 . S
H1150 C1126 0.950 . S
H1151 C1127 0.949 . S
H1152 C1129 0.950 . S
H1153 C1131 0.950 . S
C1154 C1155 1.349 . S
C1154 C1156 1.327 . S
C1154 H1179 0.950 . S
C1155 C1154 1.349 . S
C1155 C1171 1.349 . S
C1156 C1154 1.327 . S
C1156 C1175 1.429 . S
C1156 H1180 0.950 . S
C1157 C1174 1.574 . S
C1157 C1176 1.368 . S
C1157 H1181 0.949 . S
H1158 C1162 0.949 . S
C1159 C1160 1.349 . S
C1159 C1161 1.327 . S
C1159 H1182 0.950 . S
C1160 C1159 1.349 . S
C1160 C1172 1.349 . S
C1161 C1159 1.327 . S
C1161 C1177 1.429 . S
C1161 H1183 0.950 . S
C1162 H1158 0.949 . S
C1162 C1170 1.574 . S
C1162 C1178 1.368 . S
H1163 C1171 0.950 . S
H1164 C1169 0.950 . S
H1165 C1170 0.949 . S
H1166 C1172 0.950 . S
H1167 C1173 0.950 . S
H1168 C1174 0.949 . S
C1169 H1164 0.950 . S
C1169 C1171 1.327 . S
C1169 C1175 1.429 . S
C1170 C1162 1.574 . S
C1170 H1165 0.949 . S
C1170 C1176 1.368 . S
C1171 C1155 1.349 . S
C1171 H1163 0.950 . S
C1171 C1169 1.327 . S
C1172 C1160 1.349 . S
C1172 H1166 0.950 . S
C1172 C1173 1.327 . S
C1173 H1167 0.950 . S
C1173 C1172 1.327 . S
C1173 C1177 1.429 . S
C1174 C1157 1.574 . S
C1174 H1168 0.949 . S
C1174 C1178 1.368 . S
C1175 C1156 1.429 . S
C1175 C1169 1.429 . S
C1175 C1176 1.523 . S
C1176 C1157 1.368 . S
C1176 C1170 1.368 . S
C1176 C1175 1.523 . S
C1177 C1161 1.429 . S
C1177 C1173 1.429 . S
C1177 C1178 1.523 . S
C1178 C1162 1.368 . S
C1178 C1174 1.368 . S
C1178 C1177 1.523 . S
H1179 C1154 0.950 . S
H1180 C1156 0.950 . S
H1181 C1157 0.949 . S
H1182 C1159 0.950 . S
H1183 C1161 0.950 . S
C1184 C1185 1.349 . S
C1184 C1186 1.327 . S
C1184 H1209 0.950 . S
C1185 C1184 1.349 . S
C1185 C1201 1.349 . S
C1186 C1184 1.327 . S
C1186 C1205 1.429 . S
C1186 H1210 0.950 . S
C1187 C1204 1.574 . S
C1187 C1206 1.368 . S
C1187 H1211 0.949 . S
H1188 C1192 0.949 . S
C1189 C1190 1.349 . S
C1189 C1191 1.327 . S
C1189 H1212 0.950 . S
C1190 C1189 1.349 . S
C1190 C1202 1.349 . S
C1191 C1189 1.327 . S
C1191 C1207 1.429 . S
C1191 H1213 0.950 . S
C1192 H1188 0.949 . S
C1192 C1200 1.574 . S
C1192 C1208 1.368 . S
H1193 C1201 0.950 . S
H1194 C1199 0.950 . S
H1195 C1200 0.949 . S
H1196 C1202 0.950 . S
H1197 C1203 0.950 . S
H1198 C1204 0.949 . S
C1199 H1194 0.950 . S
C1199 C1201 1.327 . S
C1199 C1205 1.429 . S
C1200 C1192 1.574 . S
C1200 H1195 0.949 . S
C1200 C1206 1.368 . S
C1201 C1185 1.349 . S
C1201 H1193 0.950 . S
C1201 C1199 1.327 . S
C1202 C1190 1.349 . S
C1202 H1196 0.950 . S
C1202 C1203 1.327 . S
C1203 H1197 0.950 . S
C1203 C1202 1.327 . S
C1203 C1207 1.429 . S
C1204 C1187 1.574 . S
C1204 H1198 0.949 . S
C1204 C1208 1.368 . S
C1205 C1186 1.429 . S
C1205 C1199 1.429 . S
C1205 C1206 1.523 . S
C1206 C1187 1.368 . S
C1206 C1200 1.368 . S
C1206 C1205 1.523 . S
C1207 C1191 1.429 . S
C1207 C1203 1.429 . S
C1207 C1208 1.523 . S
C1208 C1192 1.368 . S
C1208 C1204 1.368 . S
C1208 C1207 1.523 . S
H1209 C1184 0.950 . S
H1210 C1186 0.950 . S
H1211 C1187 0.949 . S
H1212 C1189 0.950 . S
H1213 C1191 0.950 . S
C1214 C1215 1.349 1_545 S
C1214 C1216 1.327 . S
C1214 H1239 0.950 1_655 S
C1215 C1214 1.349 1_565 S
C1215 C1231 1.349 . S
C1216 C1214 1.327 . S
C1216 C1235 1.429 1_545 S
C1216 H1240 0.950 1_655 S
C1217 C1234 1.574 . S
C1217 C1236 1.368 . S
C1217 H1241 0.949 . S
H1218 C1222 0.949 1_455 S
C1219 C1220 1.349 . S
C1219 C1221 1.327 . S
C1219 H1242 0.950 . S
C1220 C1219 1.349 . S
C1220 C1232 1.349 1_565 S
C1221 C1219 1.327 . S
C1221 C1237 1.429 . S
C1221 H1243 0.950 . S
C1222 H1218 0.949 1_655 S
C1222 C1230 1.574 . S
C1222 C1238 1.368 1_545 S
H1223 C1231 0.950 . S
H1224 C1229 0.950 . S
H1225 C1230 0.949 1_455 S
H1226 C1232 0.950 1_455 S
H1227 C1233 0.950 1_455 S
H1228 C1234 0.949 . S
C1229 H1224 0.950 . S
C1229 C1231 1.327 . S
C1229 C1235 1.429 . S
C1230 C1222 1.574 . S
C1230 H1225 0.949 1_655 S
C1230 C1236 1.368 1_545 S
C1231 C1215 1.349 . S
C1231 H1223 0.950 . S
C1231 C1229 1.327 . S
C1232 C1220 1.349 1_545 S
C1232 H1226 0.950 1_655 S
C1232 C1233 1.327 . S
C1233 H1227 0.950 1_655 S
C1233 C1232 1.327 . S
C1233 C1237 1.429 1_545 S
C1234 C1217 1.574 . S
C1234 H1228 0.949 . S
C1234 C1238 1.368 . S
C1235 C1216 1.429 1_565 S
C1235 C1229 1.429 . S
C1235 C1236 1.523 . S
C1236 C1217 1.368 . S
C1236 C1230 1.368 1_565 S
C1236 C1235 1.523 . S
C1237 C1221 1.429 . S
C1237 C1233 1.429 1_565 S
C1237 C1238 1.523 . S
C1238 C1222 1.368 1_565 S
C1238 C1234 1.368 . S
C1238 C1237 1.523 . S
H1239 C1214 0.950 1_455 S
H1240 C1216 0.950 1_455 S
H1241 C1217 0.949 . S
H1242 C1219 0.950 . S
H1243 C1221 0.950 . S
C1244 C1245 1.349 . S
C1244 C1246 1.327 . S
C1244 H1269 0.950 . S
C1245 C1244 1.349 . S
C1245 C1261 1.349 . S
C1246 C1244 1.327 . S
C1246 C1265 1.429 . S
C1246 H1270 0.950 . S
C1247 C1264 1.574 . S
C1247 C1266 1.368 . S
C1247 H1271 0.949 . S
H1248 C1252 0.949 . S
C1249 C1250 1.349 . S
C1249 C1251 1.327 . S
C1249 H1272 0.950 . S
C1250 C1249 1.349 . S
C1250 C1262 1.349 . S
C1251 C1249 1.327 . S
C1251 C1267 1.429 . S
C1251 H1273 0.950 . S
C1252 H1248 0.949 . S
C1252 C1260 1.574 . S
C1252 C1268 1.368 . S
H1253 C1261 0.950 . S
H1254 C1259 0.950 . S
H1255 C1260 0.949 . S
H1256 C1262 0.950 . S
H1257 C1263 0.950 . S
H1258 C1264 0.949 . S
C1259 H1254 0.950 . S
C1259 C1261 1.327 . S
C1259 C1265 1.429 . S
C1260 C1252 1.574 . S
C1260 H1255 0.949 . S
C1260 C1266 1.368 . S
C1261 C1245 1.349 . S
C1261 H1253 0.950 . S
C1261 C1259 1.327 . S
C1262 C1250 1.349 . S
C1262 H1256 0.950 . S
C1262 C1263 1.327 . S
C1263 H1257 0.950 . S
C1263 C1262 1.327 . S
C1263 C1267 1.429 . S
C1264 C1247 1.574 . S
C1264 H1258 0.949 . S
C1264 C1268 1.368 . S
C1265 C1246 1.429 . S
C1265 C1259 1.429 . S
C1265 C1266 1.523 1_556 S
C1266 C1247 1.368 . S
C1266 C1260 1.368 . S
C1266 C1265 1.523 1_554 S
C1267 C1251 1.429 . S
C1267 C1263 1.429 . S
C1267 C1268 1.523 . S
C1268 C1252 1.368 . S
C1268 C1264 1.368 . S
C1268 C1267 1.523 . S
H1269 C1244 0.950 . S
H1270 C1246 0.950 . S
H1271 C1247 0.949 . S
H1272 C1249 0.950 . S
H1273 C1251 0.950 . S
C1274 C1275 1.349 . S
C1274 C1276 1.327 . S
C1274 H1299 0.927 1_565 S
C1275 C1274 1.349 . S
C1275 C1291 1.349 . S
C1276 C1274 1.327 . S
C1276 C1295 1.429 . S
C1276 H1300 0.950 1_565 S
C1277 C1294 1.574 . S
C1277 C1296 1.368 . S
C1277 H1301 0.949 . S
H1278 C1282 0.946 1_545 S
C1279 C1280 1.349 . S
C1279 C1281 1.327 . S
C1279 H1302 0.950 . S
C1280 C1279 1.349 . S
C1280 C1292 1.349 . S
C1281 C1279 1.327 . S
C1281 C1297 1.429 . S
C1281 H1303 0.950 . S
C1282 H1278 0.946 1_565 S
C1282 C1290 1.574 . S
C1282 C1298 1.368 . S
H1283 C1291 0.950 . S
H1284 C1289 0.950 . S
H1285 C1290 0.949 1_545 S
H1286 C1292 0.950 . S
H1287 C1293 0.965 . S
H1288 C1294 0.949 . S
C1289 H1284 0.950 . S
C1289 C1291 1.327 . S
C1289 C1295 1.429 . S
C1290 C1282 1.574 . S
C1290 H1285 0.949 1_565 S
C1290 C1296 1.368 . S
C1291 C1275 1.349 . S
C1291 H1283 0.950 . S
C1291 C1289 1.327 . S
C1292 C1280 1.349 . S
C1292 H1286 0.950 . S
C1292 C1293 1.327 . S
C1293 H1287 0.965 . S
C1293 C1292 1.327 . S
C1293 C1297 1.429 . S
C1294 C1277 1.574 . S
C1294 H1288 0.949 . S
C1294 C1298 1.368 . S
C1295 C1276 1.429 . S
C1295 C1289 1.429 . S
C1295 C1296 1.523 . S
C1296 C1277 1.368 . S
C1296 C1290 1.368 . S
C1296 C1295 1.523 . S
C1297 C1281 1.429 . S
C1297 C1293 1.429 . S
C1297 C1298 1.523 . S
C1298 C1282 1.368 . S
C1298 C1294 1.368 . S
C1298 C1297 1.523 . S
H1299 C1274 0.927 1_545 S
H1300 C1276 0.950 1_545 S
H1301 C1277 0.949 . S
H1302 C1279 0.950 . S
H1303 C1281 0.950 . S
C1304 C1305 1.349 . S
C1304 C1306 1.327 . S
C1304 H1329 0.950 . S
C1305 C1304 1.349 . S
C1305 C1321 1.349 . S
C1306 C1304 1.327 . S
C1306 C1325 1.429 . S
C1306 H1330 0.950 . S
C1307 C1324 1.574 . S
C1307 C1326 1.368 . S
C1307 H1331 0.949 . S
H1308 C1312 0.949 . S
C1309 C1310 1.349 . S
C1309 C1311 1.327 . S
C1309 H1332 0.950 . S
C1310 C1309 1.349 . S
C1310 C1322 1.349 . S
C1311 C1309 1.327 . S
C1311 C1327 1.429 . S
C1311 H1333 0.950 . S
C1312 H1308 0.949 . S
C1312 C1320 1.574 . S
C1312 C1328 1.368 . S
H1313 C1321 0.950 . S
H1314 C1319 0.950 . S
H1315 C1320 0.949 . S
H1316 C1322 0.950 . S
H1317 C1323 0.950 . S
H1318 C1324 0.949 . S
C1319 H1314 0.950 . S
C1319 C1321 1.327 . S
C1319 C1325 1.429 . S
C1320 C1312 1.574 . S
C1320 H1315 0.949 . S
C1320 C1326 1.368 . S
C1321 C1305 1.349 . S
C1321 H1313 0.950 . S
C1321 C1319 1.327 . S
C1322 C1310 1.349 . S
C1322 H1316 0.950 . S
C1322 C1323 1.327 . S
C1323 H1317 0.950 . S
C1323 C1322 1.327 . S
C1323 C1327 1.429 . S
C1324 C1307 1.574 . S
C1324 H1318 0.949 . S
C1324 C1328 1.368 . S
C1325 C1306 1.429 . S
C1325 C1319 1.429 . S
C1325 C1326 1.523 . S
C1326 C1307 1.368 . S
C1326 C1320 1.368 . S
C1326 C1325 1.523 . S
C1327 C1311 1.429 . S
C1327 C1323 1.429 . S
C1327 C1328 1.523 . S
C1328 C1312 1.368 . S
C1328 C1324 1.368 . S
C1328 C1327 1.523 . S
H1329 C1304 0.950 . S
H1330 C1306 0.950 . S
H1331 C1307 0.949 . S
H1332 C1309 0.950 . S
H1333 C1311 0.950 . S
C1334 C1335 1.349 . S
C1334 C1336 1.327 . S
C1334 H1359 0.950 1_455 S
C1335 C1334 1.349 . S
C1335 C1351 1.349 . S
C1336 C1334 1.327 . S
C1336 C1355 1.429 . S
C1336 H1360 0.950 1_455 S
C1337 C1354 1.574 . S
C1337 C1356 1.368 . S
C1337 H1361 0.949 . S
H1338 C1342 0.949 . S
C1339 C1340 1.349 1_455 S
C1339 C1341 1.327 . S
C1339 H1362 0.950 . S
C1340 C1339 1.349 1_655 S
C1340 C1352 1.349 . S
C1341 C1339 1.327 . S
C1341 C1357 1.429 . S
C1341 H1363 0.950 . S
C1342 H1338 0.949 . S
C1342 C1350 1.574 . S
C1342 C1358 1.368 1_655 S
H1343 C1351 0.950 . S
H1344 C1349 0.950 . S
H1345 C1350 0.949 . S
H1346 C1352 0.950 . S
H1347 C1353 0.950 . S
H1348 C1354 0.949 . S
C1349 H1344 0.950 . S
C1349 C1351 1.327 . S
C1349 C1355 1.429 . S
C1350 C1342 1.574 . S
C1350 H1345 0.949 . S
C1350 C1356 1.368 1_655 S
C1351 C1335 1.349 . S
C1351 H1343 0.950 . S
C1351 C1349 1.327 . S
C1352 C1340 1.349 . S
C1352 H1346 0.950 . S
C1352 C1353 1.327 . S
C1353 H1347 0.950 . S
C1353 C1352 1.327 . S
C1353 C1357 1.429 1_655 S
C1354 C1337 1.574 . S
C1354 H1348 0.949 . S
C1354 C1358 1.368 . S
C1355 C1336 1.429 . S
C1355 C1349 1.429 . S
C1355 C1356 1.523 . S
C1356 C1337 1.368 . S
C1356 C1350 1.368 1_455 S
C1356 C1355 1.523 . S
C1357 C1341 1.429 . S
C1357 C1353 1.429 1_455 S
C1357 C1358 1.523 . S
C1358 C1342 1.368 1_455 S
C1358 C1354 1.368 . S
C1358 C1357 1.523 . S
H1359 C1334 0.950 1_655 S
H1360 C1336 0.950 1_655 S
H1361 C1337 0.949 . S
H1362 C1339 0.950 . S
H1363 C1341 0.950 . S
C1364 C1365 1.349 . S
C1364 C1366 1.327 . S
C1364 H1389 0.950 . S
C1365 C1364 1.349 . S
C1365 C1381 1.349 . S
C1366 C1364 1.327 . S
C1366 C1385 1.429 . S
C1366 H1390 0.950 . S
C1367 C1384 1.574 . S
C1367 C1386 1.368 1_455 S
C1367 H1391 0.949 . S
H1368 C1372 0.949 . S
C1369 C1370 1.349 . S
C1369 C1371 1.327 . S
C1369 H1392 0.950 . S
C1370 C1369 1.349 . S
C1370 C1382 1.349 . S
C1371 C1369 1.327 . S
C1371 C1387 1.429 . S
C1371 H1393 0.950 . S
C1372 H1368 0.949 . S
C1372 C1380 1.574 . S
C1372 C1388 1.368 . S
H1373 C1381 0.950 . S
H1374 C1379 0.950 . S
H1375 C1380 0.949 1_655 S
H1376 C1382 0.950 . S
H1377 C1383 0.950 . S
H1378 C1384 0.949 . S
C1379 H1374 0.950 . S
C1379 C1381 1.327 . S
C1379 C1385 1.429 . S
C1380 C1372 1.574 . S
C1380 H1375 0.949 1_455 S
C1380 C1386 1.368 1_455 S
C1381 C1365 1.349 . S
C1381 H1373 0.950 . S
C1381 C1379 1.327 . S
C1382 C1370 1.349 . S
C1382 H1376 0.950 . S
C1382 C1383 1.327 . S
C1383 H1377 0.950 . S
C1383 C1382 1.327 . S
C1383 C1387 1.429 . S
C1384 C1367 1.574 . S
C1384 H1378 0.949 . S
C1384 C1388 1.368 . S
C1385 C1366 1.429 . S
C1385 C1379 1.429 . S
C1385 C1386 1.523 . S
C1386 C1367 1.368 1_655 S
C1386 C1380 1.368 1_655 S
C1386 C1385 1.523 . S
C1387 C1371 1.429 . S
C1387 C1383 1.429 . S
C1387 C1388 1.523 . S
C1388 C1372 1.368 . S
C1388 C1384 1.368 . S
C1388 C1387 1.523 . S
H1389 C1364 0.950 . S
H1390 C1366 0.950 . S
H1391 C1367 0.949 . S
H1392 C1369 0.950 . S
H1393 C1371 0.950 . S
C1394 C1395 1.349 . S
C1394 C1396 1.327 . S
C1394 H1419 0.950 . S
C1395 C1394 1.349 . S
C1395 C1411 1.349 1_556 S
C1396 C1394 1.327 . S
C1396 C1415 1.429 . S
C1396 H1420 0.950 . S
C1397 C1414 1.574 . S
C1397 C1416 1.368 1_554 S
C1397 H1421 0.949 . S
H1398 C1402 0.949 . S
C1399 C1400 1.349 1_554 S
C1399 C1401 1.327 . S
C1399 H1422 0.950 . S
C1400 C1399 1.349 1_556 S
C1400 C1412 1.349 . S
C1401 C1399 1.327 . S
C1401 C1417 1.429 1_554 S
C1401 H1423 0.950 . S
C1402 H1398 0.949 . S
C1402 C1410 1.574 . S
C1402 C1418 1.368 . S
H1403 C1411 0.950 . S
H1404 C1409 0.950 . S
H1405 C1410 0.949 . S
H1406 C1412 0.950 . S
H1407 C1413 0.950 . S
H1408 C1414 0.949 . S
C1409 H1404 0.950 . S
C1409 C1411 1.327 . S
C1409 C1415 1.429 1_554 S
C1410 C1402 1.574 . S
C1410 H1405 0.949 . S
C1410 C1416 1.368 . S
C1411 C1395 1.349 1_554 S
C1411 H1403 0.950 . S
C1411 C1409 1.327 . S
C1412 C1400 1.349 . S
C1412 H1406 0.950 . S
C1412 C1413 1.327 . S
C1413 H1407 0.950 . S
C1413 C1412 1.327 . S
C1413 C1417 1.429 . S
C1414 C1397 1.574 . S
C1414 H1408 0.949 . S
C1414 C1418 1.368 1_554 S
C1415 C1396 1.429 . S
C1415 C1409 1.429 1_556 S
C1415 C1416 1.523 . S
C1416 C1397 1.368 1_556 S
C1416 C1410 1.368 . S
C1416 C1415 1.523 . S
C1417 C1401 1.429 1_556 S
C1417 C1413 1.429 . S
C1417 C1418 1.523 . S
C1418 C1402 1.368 . S
C1418 C1414 1.368 1_556 S
C1418 C1417 1.523 . S
H1419 C1394 0.950 . S
H1420 C1396 0.950 . S
H1421 C1397 0.949 . S
H1422 C1399 0.950 . S
H1423 C1401 0.950 . S
C1424 C1425 1.349 . S
C1424 C1426 1.327 . S
C1424 H1449 0.950 . S
C1425 C1424 1.349 . S
C1425 C1441 1.349 . S
C1426 C1424 1.327 . S
C1426 C1445 1.429 . S
C1426 H1450 0.950 . S
C1427 C1444 1.574 . S
C1427 C1446 1.368 . S
C1427 H1451 0.949 . S
H1428 C1432 0.949 . S
C1429 C1430 1.349 . S
C1429 C1431 1.327 . S
C1429 H1452 0.950 . S
C1430 C1429 1.349 . S
C1430 C1442 1.349 . S
C1431 C1429 1.327 . S
C1431 C1447 1.429 . S
C1431 H1453 0.950 . S
C1432 H1428 0.949 . S
C1432 C1440 1.574 . S
C1432 C1448 1.368 . S
H1433 C1441 0.950 . S
H1434 C1439 0.950 . S
H1435 C1440 0.949 . S
H1436 C1442 0.950 . S
H1437 C1443 0.950 . S
H1438 C1444 0.949 . S
C1439 H1434 0.950 . S
C1439 C1441 1.327 . S
C1439 C1445 1.429 . S
C1440 C1432 1.574 . S
C1440 H1435 0.949 . S
C1440 C1446 1.368 . S
C1441 C1425 1.349 . S
C1441 H1433 0.950 . S
C1441 C1439 1.327 . S
C1442 C1430 1.349 . S
C1442 H1436 0.950 . S
C1442 C1443 1.327 . S
C1443 H1437 0.950 . S
C1443 C1442 1.327 . S
C1443 C1447 1.429 . S
C1444 C1427 1.574 . S
C1444 H1438 0.949 . S
C1444 C1448 1.368 . S
C1445 C1426 1.429 . S
C1445 C1439 1.429 . S
C1445 C1446 1.523 . S
C1446 C1427 1.368 . S
C1446 C1440 1.368 . S
C1446 C1445 1.523 . S
C1447 C1431 1.429 . S
C1447 C1443 1.429 . S
C1447 C1448 1.523 . S
C1448 C1432 1.368 . S
C1448 C1444 1.368 . S
C1448 C1447 1.523 . S
H1449 C1424 0.950 . S
H1450 C1426 0.950 . S
H1451 C1427 0.949 . S
H1452 C1429 0.950 . S
H1453 C1431 0.950 . S
C1454 C1455 1.349 . S
C1454 C1456 1.327 . S
C1454 H1479 0.950 . S
C1455 C1454 1.349 . S
C1455 C1471 1.349 . S
C1456 C1454 1.327 . S
C1456 C1475 1.429 . S
C1456 H1480 0.950 . S
C1457 C1474 1.574 . S
C1457 C1476 1.368 . S
C1457 H1481 0.949 . S
H1458 C1462 0.949 . S
C1459 C1460 1.349 . S
C1459 C1461 1.327 . S
C1459 H1482 0.950 . S
C1460 C1459 1.349 . S
C1460 C1472 1.349 . S
C1461 C1459 1.327 . S
C1461 C1477 1.429 . S
C1461 H1483 0.950 . S
C1462 H1458 0.949 . S
C1462 C1470 1.574 . S
C1462 C1478 1.368 . S
H1463 C1471 0.950 . S
H1464 C1469 0.950 . S
H1465 C1470 0.949 . S
H1466 C1472 0.950 . S
H1467 C1473 0.950 . S
H1468 C1474 0.949 . S
C1469 H1464 0.950 . S
C1469 C1471 1.327 . S
C1469 C1475 1.429 . S
C1470 C1462 1.574 . S
C1470 H1465 0.949 . S
C1470 C1476 1.368 . S
C1471 C1455 1.349 . S
C1471 H1463 0.950 . S
C1471 C1469 1.327 . S
C1472 C1460 1.349 . S
C1472 H1466 0.950 . S
C1472 C1473 1.327 . S
C1473 H1467 0.950 . S
C1473 C1472 1.327 . S
C1473 C1477 1.429 . S
C1474 C1457 1.574 . S
C1474 H1468 0.949 . S
C1474 C1478 1.368 . S
C1475 C1456 1.429 . S
C1475 C1469 1.429 . S
C1475 C1476 1.523 . S
C1476 C1457 1.368 . S
C1476 C1470 1.368 . S
C1476 C1475 1.523 . S
C1477 C1461 1.429 . S
C1477 C1473 1.429 . S
C1477 C1478 1.523 . S
C1478 C1462 1.368 . S
C1478 C1474 1.368 . S
C1478 C1477 1.523 . S
H1479 C1454 0.950 . S
H1480 C1456 0.950 . S
H1481 C1457 0.949 . S
H1482 C1459 0.950 . S
H1483 C1461 0.950 . S
C1484 C1485 1.349 . S
C1484 C1486 1.327 . S
C1484 H1509 0.950 . S
C1485 C1484 1.349 . S
C1485 C1501 1.349 . S
C1486 C1484 1.327 . S
C1486 C1505 1.429 . S
C1486 H1510 0.950 . S
C1487 C1504 1.574 . S
C1487 C1506 1.368 . S
C1487 H1511 0.949 . S
H1488 C1492 0.949 . S
C1489 C1490 1.349 . S
C1489 C1491 1.327 . S
C1489 H1512 0.950 . S
C1490 C1489 1.349 . S
C1490 C1502 1.349 . S
C1491 C1489 1.327 . S
C1491 C1507 1.429 . S
C1491 H1513 0.950 . S
C1492 H1488 0.949 . S
C1492 C1500 1.574 . S
C1492 C1508 1.368 . S
H1493 C1501 0.950 . S
H1494 C1499 0.950 . S
H1495 C1500 0.949 . S
H1496 C1502 0.950 . S
H1497 C1503 0.950 . S
H1498 C1504 0.949 . S
C1499 H1494 0.950 . S
C1499 C1501 1.327 . S
C1499 C1505 1.429 . S
C1500 C1492 1.574 . S
C1500 H1495 0.949 . S
C1500 C1506 1.368 . S
C1501 C1485 1.349 . S
C1501 H1493 0.950 . S
C1501 C1499 1.327 . S
C1502 C1490 1.349 . S
C1502 H1496 0.950 . S
C1502 C1503 1.327 . S
C1503 H1497 0.950 . S
C1503 C1502 1.327 . S
C1503 C1507 1.429 . S
C1504 C1487 1.574 . S
C1504 H1498 0.949 . S
C1504 C1508 1.368 . S
C1505 C1486 1.429 . S
C1505 C1499 1.429 . S
C1505 C1506 1.523 . S
C1506 C1487 1.368 . S
C1506 C1500 1.368 . S
C1506 C1505 1.523 . S
C1507 C1491 1.429 . S
C1507 C1503 1.429 . S
C1507 C1508 1.523 1_655 S
C1508 C1492 1.368 . S
C1508 C1504 1.368 . S
C1508 C1507 1.523 1_455 S
H1509 C1484 0.950 . S
H1510 C1486 0.950 . S
H1511 C1487 0.949 . S
H1512 C1489 0.950 . S
H1513 C1491 0.950 . S
C1514 C1515 1.349 1_456 S
C1514 C1516 1.327 . S
C1514 H1539 0.950 . S
C1515 C1514 1.349 1_654 S
C1515 C1531 1.349 . S
C1516 C1514 1.327 . S
C1516 C1535 1.429 1_456 S
C1516 H1540 0.950 . S
C1517 C1534 1.574 . S
C1517 C1536 1.368 . S
C1517 H1541 0.949 . S
H1518 C1522 0.949 . S
C1519 C1520 1.349 . S
C1519 C1521 1.327 . S
C1519 H1542 0.950 . S
C1520 C1519 1.349 . S
C1520 C1532 1.349 1_655 S
C1521 C1519 1.327 . S
C1521 C1537 1.429 . S
C1521 H1543 0.950 . S
C1522 H1518 0.949 . S
C1522 C1530 1.574 . S
C1522 C1538 1.368 1_456 S
H1523 C1531 0.950 . S
H1524 C1529 0.950 . S
H1525 C1530 0.949 . S
H1526 C1532 0.950 1_556 S
H1527 C1533 0.965 . S
H1528 C1534 0.949 . S
C1529 H1524 0.950 . S
C1529 C1531 1.327 . S
C1529 C1535 1.429 . S
C1530 C1522 1.574 . S
C1530 H1525 0.949 . S
C1530 C1536 1.368 1_456 S
C1531 C1515 1.349 . S
C1531 H1523 0.950 . S
C1531 C1529 1.327 . S
C1532 C1520 1.349 1_455 S
C1532 H1526 0.950 1_554 S
C1532 C1533 1.324 1_554 S
C1533 H1527 0.965 . S
C1533 C1532 1.324 1_556 S
C1533 C1537 1.417 1_456 S
C1534 C1517 1.574 . S
C1534 H1528 0.949 . S
C1534 C1538 1.368 . S
C1535 C1516 1.429 1_654 S
C1535 C1529 1.429 . S
C1535 C1536 1.523 . S
C1536 C1517 1.368 . S
C1536 C1530 1.368 1_654 S
C1536 C1535 1.523 . S
C1537 C1521 1.429 . S
C1537 C1533 1.417 1_654 S
C1537 C1538 1.523 . S
C1538 C1522 1.368 1_654 S
C1538 C1534 1.368 . S
C1538 C1537 1.523 . S
H1539 C1514 0.950 . S
H1540 C1516 0.950 . S
H1541 C1517 0.949 . S
H1542 C1519 0.950 . S
H1543 C1521 0.950 . S
C1544 C1545 1.349 . S
C1544 C1546 1.327 . S
C1544 H1569 0.950 . S
C1545 C1544 1.349 . S
C1545 C1561 1.349 . S
C1546 C1544 1.327 . S
C1546 C1565 1.429 . S
C1546 H1570 0.950 . S
C1547 C1564 1.574 . S
C1547 C1566 1.368 . S
C1547 H1571 0.949 . S
H1548 C1552 0.949 . S
C1549 C1550 1.349 . S
C1549 C1551 1.327 . S
C1549 H1572 0.950 . S
C1550 C1549 1.349 . S
C1550 C1562 1.349 . S
C1551 C1549 1.327 . S
C1551 C1567 1.429 . S
C1551 H1573 0.950 . S
C1552 H1548 0.949 . S
C1552 C1560 1.574 . S
C1552 C1568 1.368 . S
H1553 C1561 0.950 . S
H1554 C1559 0.950 . S
H1555 C1560 0.949 . S
H1556 C1562 0.950 . S
H1557 C1563 0.950 . S
H1558 C1564 0.949 . S
C1559 H1554 0.950 . S
C1559 C1561 1.327 . S
C1559 C1565 1.429 . S
C1560 C1552 1.574 . S
C1560 H1555 0.949 . S
C1560 C1566 1.368 . S
C1561 C1545 1.349 . S
C1561 H1553 0.950 . S
C1561 C1559 1.327 . S
C1562 C1550 1.349 . S
C1562 H1556 0.950 . S
C1562 C1563 1.327 . S
C1563 H1557 0.950 . S
C1563 C1562 1.327 . S
C1563 C1567 1.429 . S
C1564 C1547 1.574 . S
C1564 H1558 0.949 . S
C1564 C1568 1.368 . S
C1565 C1546 1.429 . S
C1565 C1559 1.429 . S
C1565 C1566 1.523 . S
C1566 C1547 1.368 . S
C1566 C1560 1.368 . S
C1566 C1565 1.523 . S
C1567 C1551 1.429 . S
C1567 C1563 1.429 . S
C1567 C1568 1.523 . S
C1568 C1552 1.368 . S
C1568 C1564 1.368 . S
C1568 C1567 1.523 . S
H1569 C1544 0.950 . S
H1570 C1546 0.950 . S
H1571 C1547 0.949 . S
H1572 C1549 0.950 . S
H1573 C1551 0.950 . S
C1574 C1575 1.349 . S
C1574 C1576 1.327 . S
C1574 H1599 0.950 . S
C1575 C1574 1.349 . S
C1575 C1591 1.349 . S
C1576 C1574 1.327 . S
C1576 C1595 1.429 . S
C1576 H1600 0.950 . S
C1577 C1594 1.574 . S
C1577 C1596 1.368 . S
C1577 H1601 0.949 . S
H1578 C1582 0.949 . S
C1579 C1580 1.349 . S
C1579 C1581 1.327 . S
C1579 H1602 0.950 . S
C1580 C1579 1.349 . S
C1580 C1592 1.349 . S
C1581 C1579 1.327 . S
C1581 C1597 1.429 . S
C1581 H1603 0.950 . S
C1582 H1578 0.949 . S
C1582 C1590 1.574 . S
C1582 C1598 1.374 . S
H1583 C1591 0.950 . S
H1584 C1589 0.950 . S
H1585 C1590 0.949 . S
H1586 C1592 0.950 . S
H1587 C1593 0.950 . S
H1588 C1594 0.933 1_565 S
C1589 H1584 0.950 . S
C1589 C1591 1.327 . S
C1589 C1595 1.429 . S
C1590 C1582 1.574 . S
C1590 H1585 0.949 . S
C1590 C1596 1.368 . S
C1591 C1575 1.349 . S
C1591 H1583 0.950 . S
C1591 C1589 1.327 . S
C1592 C1580 1.349 . S
C1592 H1586 0.950 . S
C1592 C1593 1.327 . S
C1593 H1587 0.950 . S
C1593 C1592 1.327 . S
C1593 C1597 1.429 . S
C1594 C1577 1.574 . S
C1594 H1588 0.933 1_545 S
C1594 C1598 1.374 . S
C1595 C1576 1.429 . S
C1595 C1589 1.429 . S
C1595 C1596 1.523 . S
C1596 C1577 1.368 . S
C1596 C1590 1.368 . S
C1596 C1595 1.523 . S
C1597 C1581 1.429 . S
C1597 C1593 1.429 . S
C1597 C1598 1.508 1_565 S
C1598 C1582 1.374 . S
C1598 C1594 1.374 . S
C1598 C1597 1.508 1_545 S
H1599 C1574 0.950 . S
H1600 C1576 0.950 . S
H1601 C1577 0.949 . S
H1602 C1579 0.950 . S
H1603 C1581 0.950 . S
C1604 C1605 1.349 . S
C1604 C1606 1.327 . S
C1604 H1629 0.950 . S
C1605 C1604 1.349 . S
C1605 C1621 1.349 1_554 S
C1606 C1604 1.327 . S
C1606 C1625 1.429 . S
C1606 H1630 0.950 . S
C1607 C1624 1.574 . S
C1607 C1626 1.368 1_556 S
C1607 H1631 0.949 . S
H1608 C1612 0.949 . S
C1609 C1610 1.349 . S
C1609 C1611 1.327 . S
C1609 H1632 0.950 . S
C1610 C1609 1.349 . S
C1610 C1622 1.349 1_556 S
C1611 C1609 1.327 . S
C1611 C1627 1.429 . S
C1611 H1633 0.950 . S
C1612 H1608 0.949 . S
C1612 C1620 1.574 . S
C1612 C1628 1.371 1_554 S
H1613 C1621 0.950 . S
H1614 C1619 0.950 . S
H1615 C1620 0.949 . S
H1616 C1622 0.950 . S
H1617 C1623 0.950 . S
H1618 C1624 0.949 . S
C1619 H1614 0.950 . S
C1619 C1621 1.327 . S
C1619 C1625 1.429 1_556 S
C1620 C1612 1.574 . S
C1620 H1615 0.949 . S
C1620 C1626 1.368 . S
C1621 C1605 1.349 1_556 S
C1621 H1613 0.950 . S
C1621 C1619 1.327 . S
C1622 C1610 1.349 1_554 S
C1622 H1616 0.950 . S
C1622 C1623 1.327 . S
C1623 H1617 0.950 . S
C1623 C1622 1.327 . S
C1623 C1627 1.429 1_554 S
C1624 C1607 1.574 . S
C1624 H1618 0.949 . S
C1624 C1628 1.366 . S
C1625 C1606 1.429 . S
C1625 C1619 1.429 1_554 S
C1625 C1626 1.523 . S
C1626 C1607 1.368 1_554 S
C1626 C1620 1.368 . S
C1626 C1625 1.523 . S
C1627 C1611 1.429 . S
C1627 C1623 1.429 1_556 S
C1627 C1628 1.523 . S
C1628 C1612 1.371 1_556 S
C1628 C1624 1.366 . S
C1628 C1627 1.523 . S
H1629 C1604 0.950 . S
H1630 C1606 0.950 . S
H1631 C1607 0.949 . S
H1632 C1609 0.950 . S
H1633 C1611 0.950 . S
C1634 C1635 1.349 . S
C1634 C1636 1.327 . S
C1634 H1659 0.950 . S
C1635 C1634 1.349 . S
C1635 C1651 1.349 . S
C1636 C1634 1.327 . S
C1636 C1655 1.429 . S
C1636 H1660 0.950 . S
C1637 C1654 1.574 1_545 S
C1637 C1656 1.368 . S
C1637 H1661 0.949 . S
H1638 C1642 0.949 . S
C1639 C1640 1.349 . S
C1639 C1641 1.327 . S
C1639 H1662 0.950 . S
C1640 C1639 1.349 . S
C1640 C1652 1.349 . S
C1641 C1639 1.327 . S
C1641 C1657 1.429 . S
C1641 H1663 0.950 . S
C1642 H1638 0.949 . S
C1642 C1650 1.574 1_565 S
C1642 C1658 1.368 . S
H1643 C1651 0.950 . S
H1644 C1649 0.950 . S
H1645 C1650 0.949 . S
H1646 C1652 0.950 . S
H1647 C1653 0.950 . S
H1648 C1654 0.949 . S
C1649 H1644 0.950 . S
C1649 C1651 1.327 . S
C1649 C1655 1.429 . S
C1650 C1642 1.574 1_545 S
C1650 H1645 0.949 . S
C1650 C1656 1.368 . S
C1651 C1635 1.349 . S
C1651 H1643 0.950 . S
C1651 C1649 1.327 . S
C1652 C1640 1.349 . S
C1652 H1646 0.950 . S
C1652 C1653 1.327 . S
C1653 H1647 0.950 . S
C1653 C1652 1.327 . S
C1653 C1657 1.429 . S
C1654 C1637 1.574 1_565 S
C1654 H1648 0.949 . S
C1654 C1658 1.368 . S
C1655 C1636 1.429 . S
C1655 C1649 1.429 . S
C1655 C1656 1.523 . S
C1656 C1637 1.368 . S
C1656 C1650 1.368 . S
C1656 C1655 1.523 . S
C1657 C1641 1.429 . S
C1657 C1653 1.429 . S
C1657 C1658 1.523 . S
C1658 C1642 1.368 . S
C1658 C1654 1.368 . S
C1658 C1657 1.523 . S
H1659 C1634 0.950 . S
H1660 C1636 0.950 . S
H1661 C1637 0.949 . S
H1662 C1639 0.950 . S
H1663 C1641 0.950 . S
C1664 C1665 1.349 . S
C1664 C1666 1.327 . S
C1664 H1689 0.950 1_556 S
C1665 C1664 1.349 . S
C1665 C1681 1.349 . S
C1666 C1664 1.327 . S
C1666 C1685 1.429 . S
C1666 H1690 0.950 1_556 S
C1667 C1684 1.574 . S
C1667 C1686 1.368 . S
C1667 H1691 0.949 . S
H1668 C1672 0.949 1_554 S
C1669 C1670 1.349 . S
C1669 C1671 1.327 . S
C1669 H1692 0.950 . S
C1670 C1669 1.349 . S
C1670 C1682 1.349 . S
C1671 C1669 1.327 . S
C1671 C1687 1.429 . S
C1671 H1693 0.950 . S
C1672 H1668 0.949 1_556 S
C1672 C1680 1.574 . S
C1672 C1688 1.368 . S
H1673 C1681 0.950 . S
H1674 C1679 0.950 . S
H1675 C1680 0.949 1_554 S
H1676 C1682 0.950 1_554 S
H1677 C1683 0.950 1_554 S
H1678 C1684 0.949 . S
C1679 H1674 0.950 . S
C1679 C1681 1.327 . S
C1679 C1685 1.429 . S
C1680 C1672 1.574 . S
C1680 H1675 0.949 1_556 S
C1680 C1686 1.368 . S
C1681 C1665 1.349 . S
C1681 H1673 0.950 . S
C1681 C1679 1.327 . S
C1682 C1670 1.349 . S
C1682 H1676 0.950 1_556 S
C1682 C1683 1.327 . S
C1683 H1677 0.950 1_556 S
C1683 C1682 1.327 . S
C1683 C1687 1.429 . S
C1684 C1667 1.574 . S
C1684 H1678 0.949 . S
C1684 C1688 1.368 . S
C1685 C1666 1.429 . S
C1685 C1679 1.429 . S
C1685 C1686 1.523 . S
C1686 C1667 1.368 . S
C1686 C1680 1.368 . S
C1686 C1685 1.523 . S
C1687 C1671 1.429 . S
C1687 C1683 1.429 . S
C1687 C1688 1.523 . S
C1688 C1672 1.368 . S
C1688 C1684 1.368 . S
C1688 C1687 1.523 . S
H1689 C1664 0.950 1_554 S
H1690 C1666 0.950 1_554 S
H1691 C1667 0.949 . S
H1692 C1669 0.950 . S
H1693 C1671 0.950 . S
C1694 C1695 1.349 . S
C1694 C1696 1.327 . S
C1694 H1719 0.950 . S
C1695 C1694 1.349 . S
C1695 C1711 1.349 . S
C1696 C1694 1.327 . S
C1696 C1715 1.429 . S
C1696 H1720 0.950 . S
C1697 C1714 1.574 . S
C1697 C1716 1.368 . S
C1697 H1721 0.949 . S
H1698 C1702 0.949 . S
C1699 C1700 1.349 . S
C1699 C1701 1.327 . S
C1699 H1722 0.950 . S
C1700 C1699 1.349 . S
C1700 C1712 1.349 . S
C1701 C1699 1.327 . S
C1701 C1717 1.429 . S
C1701 H1723 0.950 . S
C1702 H1698 0.949 . S
C1702 C1710 1.574 . S
C1702 C1718 1.368 . S
H1703 C1711 0.950 . S
H1704 C1709 0.950 . S
H1705 C1710 0.949 . S
H1706 C1712 0.950 . S
H1707 C1713 0.950 . S
H1708 C1714 0.949 . S
C1709 H1704 0.950 . S
C1709 C1711 1.327 . S
C1709 C1715 1.429 . S
C1710 C1702 1.574 . S
C1710 H1705 0.949 . S
C1710 C1716 1.368 . S
C1711 C1695 1.349 . S
C1711 H1703 0.950 . S
C1711 C1709 1.327 . S
C1712 C1700 1.349 . S
C1712 H1706 0.950 . S
C1712 C1713 1.327 . S
C1713 H1707 0.950 . S
C1713 C1712 1.327 . S
C1713 C1717 1.429 . S
C1714 C1697 1.574 . S
C1714 H1708 0.949 . S
C1714 C1718 1.368 . S
C1715 C1696 1.429 . S
C1715 C1709 1.429 . S
C1715 C1716 1.523 . S
C1716 C1697 1.368 . S
C1716 C1710 1.368 . S
C1716 C1715 1.523 . S
C1717 C1701 1.429 . S
C1717 C1713 1.429 . S
C1717 C1718 1.523 . S
C1718 C1702 1.368 . S
C1718 C1714 1.368 . S
C1718 C1717 1.523 . S
H1719 C1694 0.950 . S
H1720 C1696 0.950 . S
H1721 C1697 0.949 . S
H1722 C1699 0.950 . S
H1723 C1701 0.950 . S
C1724 C1725 1.349 . S
C1724 C1726 1.327 . S
C1724 H1749 0.950 . S
C1725 C1724 1.349 . S
C1725 C1741 1.349 . S
C1726 C1724 1.327 . S
C1726 C1745 1.429 . S
C1726 H1750 0.950 . S
C1727 C1744 1.574 . S
C1727 C1746 1.368 . S
C1727 H1751 0.949 . S
H1728 C1732 0.949 . S
C1729 C1730 1.349 . S
C1729 C1731 1.327 . S
C1729 H1752 0.950 . S
C1730 C1729 1.349 . S
C1730 C1742 1.349 . S
C1731 C1729 1.327 . S
C1731 C1747 1.429 . S
C1731 H1753 0.950 . S
C1732 H1728 0.949 . S
C1732 C1740 1.574 . S
C1732 C1748 1.368 . S
H1733 C1741 0.950 . S
H1734 C1739 0.950 . S
H1735 C1740 0.949 . S
H1736 C1742 0.950 . S
H1737 C1743 0.950 . S
H1738 C1744 0.949 . S
C1739 H1734 0.950 . S
C1739 C1741 1.327 . S
C1739 C1745 1.429 . S
C1740 C1732 1.574 . S
C1740 H1735 0.949 . S
C1740 C1746 1.368 . S
C1741 C1725 1.349 . S
C1741 H1733 0.950 . S
C1741 C1739 1.327 . S
C1742 C1730 1.349 . S
C1742 H1736 0.950 . S
C1742 C1743 1.327 . S
C1743 H1737 0.950 . S
C1743 C1742 1.327 . S
C1743 C1747 1.429 . S
C1744 C1727 1.574 . S
C1744 H1738 0.949 . S
C1744 C1748 1.368 . S
C1745 C1726 1.429 . S
C1745 C1739 1.429 . S
C1745 C1746 1.523 . S
C1746 C1727 1.368 . S
C1746 C1740 1.368 . S
C1746 C1745 1.523 . S
C1747 C1731 1.429 . S
C1747 C1743 1.429 . S
C1747 C1748 1.523 . S
C1748 C1732 1.368 . S
C1748 C1744 1.368 . S
C1748 C1747 1.523 . S
H1749 C1724 0.950 . S
H1750 C1726 0.950 . S
H1751 C1727 0.949 . S
H1752 C1729 0.950 . S
H1753 C1731 0.950 . S
C1754 C1755 1.349 . S
C1754 C1756 1.327 . S
C1754 H1779 0.950 . S
C1755 C1754 1.349 . S
C1755 C1771 1.349 . S
C1756 C1754 1.327 . S
C1756 C1775 1.429 . S
C1756 H1780 0.950 . S
C1757 C1774 1.574 . S
C1757 C1776 1.368 . S
C1757 H1781 0.949 . S
H1758 C1762 0.949 . S
C1759 C1760 1.349 . S
C1759 C1761 1.327 . S
C1759 H1782 0.950 . S
C1760 C1759 1.349 . S
C1760 C1772 1.349 . S
C1761 C1759 1.327 . S
C1761 C1777 1.429 . S
C1761 H1783 0.950 . S
C1762 H1758 0.949 . S
C1762 C1770 1.574 . S
C1762 C1778 1.368 . S
H1763 C1771 0.950 . S
H1764 C1769 0.950 . S
H1765 C1770 0.949 . S
H1766 C1772 0.950 . S
H1767 C1773 0.950 . S
H1768 C1774 0.949 . S
C1769 H1764 0.950 . S
C1769 C1771 1.327 . S
C1769 C1775 1.429 . S
C1770 C1762 1.574 . S
C1770 H1765 0.949 . S
C1770 C1776 1.368 . S
C1771 C1755 1.349 . S
C1771 H1763 0.950 . S
C1771 C1769 1.327 . S
C1772 C1760 1.349 . S
C1772 H1766 0.950 . S
C1772 C1773 1.327 . S
C1773 H1767 0.950 . S
C1773 C1772 1.327 . S
C1773 C1777 1.429 . S
C1774 C1757 1.574 . S
C1774 H1768 0.949 . S
C1774 C1778 1.368 . S
C1775 C1756 1.429 . S
C1775 C1769 1.429 . S
C1775 C1776 1.523 1_556 S
C1776 C1757 1.368 . S
C1776 C1770 1.368 . S
C1776 C1775 1.523 1_554 S
C1777 C1761 1.429 . S
C1777 C1773 1.429 . S
C1777 C1778 1.523 . S
C1778 C1762 1.368 . S
C1778 C1774 1.368 . S
C1778 C1777 1.523 . S
H1779 C1754 0.950 . S
H1780 C1756 0.950 . S
H1781 C1757 0.949 . S
H1782 C1759 0.950 . S
H1783 C1761 0.950 . S
C1784 C1785 1.349 . S
C1784 C1786 1.327 . S
C1784 H1809 0.950 . S
C1785 C1784 1.349 . S
C1785 C1801 1.349 . S
C1786 C1784 1.327 . S
C1786 C1805 1.429 . S
C1786 H1810 0.950 . S
C1787 C1804 1.574 . S
C1787 C1806 1.368 . S
C1787 H1811 0.949 . S
H1788 C1792 0.949 . S
C1789 C1790 1.349 . S
C1789 C1791 1.327 . S
C1789 H1812 0.950 . S
C1790 C1789 1.349 . S
C1790 C1802 1.349 . S
C1791 C1789 1.327 . S
C1791 C1807 1.429 . S
C1791 H1813 0.950 . S
C1792 H1788 0.949 . S
C1792 C1800 1.574 . S
C1792 C1808 1.368 . S
H1793 C1801 0.950 . S
H1794 C1799 0.950 . S
H1795 C1800 0.949 . S
H1796 C1802 0.950 . S
H1797 C1803 0.950 . S
H1798 C1804 0.949 . S
C1799 H1794 0.950 . S
C1799 C1801 1.327 . S
C1799 C1805 1.429 . S
C1800 C1792 1.574 . S
C1800 H1795 0.949 . S
C1800 C1806 1.368 . S
C1801 C1785 1.349 . S
C1801 H1793 0.950 . S
C1801 C1799 1.327 . S
C1802 C1790 1.349 . S
C1802 H1796 0.950 . S
C1802 C1803 1.327 . S
C1803 H1797 0.950 . S
C1803 C1802 1.327 . S
C1803 C1807 1.429 . S
C1804 C1787 1.574 . S
C1804 H1798 0.949 . S
C1804 C1808 1.368 . S
C1805 C1786 1.429 . S
C1805 C1799 1.429 . S
C1805 C1806 1.523 . S
C1806 C1787 1.368 . S
C1806 C1800 1.368 . S
C1806 C1805 1.523 . S
C1807 C1791 1.429 . S
C1807 C1803 1.429 . S
C1807 C1808 1.523 . S
C1808 C1792 1.368 . S
C1808 C1804 1.368 . S
C1808 C1807 1.523 . S
H1809 C1784 0.950 . S
H1810 C1786 0.950 . S
H1811 C1787 0.949 . S
H1812 C1789 0.950 . S
H1813 C1791 0.950 . S
C1814 C1815 1.349 . S
C1814 C1816 1.327 . S
C1814 H1839 0.950 . S
C1815 C1814 1.349 . S
C1815 C1831 1.349 . S
C1816 C1814 1.327 . S
C1816 C1835 1.429 . S
C1816 H1840 0.950 . S
C1817 C1834 1.574 . S
C1817 C1836 1.368 . S
C1817 H1841 0.949 . S
H1818 C1822 0.949 . S
C1819 C1820 1.349 . S
C1819 C1821 1.327 . S
C1819 H1842 0.950 . S
C1820 C1819 1.349 . S
C1820 C1832 1.349 . S
C1821 C1819 1.327 . S
C1821 C1837 1.429 . S
C1821 H1843 0.950 . S
C1822 H1818 0.949 . S
C1822 C1830 1.574 . S
C1822 C1838 1.368 . S
H1823 C1831 0.950 . S
H1824 C1829 0.950 . S
H1825 C1830 0.949 . S
H1826 C1832 0.950 . S
H1827 C1833 0.950 . S
H1828 C1834 0.949 . S
C1829 H1824 0.950 . S
C1829 C1831 1.327 . S
C1829 C1835 1.429 . S
C1830 C1822 1.574 . S
C1830 H1825 0.949 . S
C1830 C1836 1.368 . S
C1831 C1815 1.349 . S
C1831 H1823 0.950 . S
C1831 C1829 1.327 . S
C1832 C1820 1.349 . S
C1832 H1826 0.950 . S
C1832 C1833 1.327 . S
C1833 H1827 0.950 . S
C1833 C1832 1.327 . S
C1833 C1837 1.429 . S
C1834 C1817 1.574 . S
C1834 H1828 0.949 . S
C1834 C1838 1.368 . S
C1835 C1816 1.429 . S
C1835 C1829 1.429 . S
C1835 C1836 1.523 . S
C1836 C1817 1.368 . S
C1836 C1830 1.368 . S
C1836 C1835 1.523 . S
C1837 C1821 1.429 . S
C1837 C1833 1.429 . S
C1837 C1838 1.523 . S
C1838 C1822 1.368 . S
C1838 C1834 1.368 . S
C1838 C1837 1.523 . S
H1839 C1814 0.950 . S
H1840 C1816 0.950 . S
H1841 C1817 0.949 . S
H1842 C1819 0.950 . S
H1843 C1821 0.950 . S
C1844 C1845 1.349 . S
C1844 C1846 1.327 . S
C1844 H1869 0.950 . S
C1845 C1844 1.349 . S
C1845 C1861 1.349 1_655 S
C1846 C1844 1.327 . S
C1846 C1865 1.429 . S
C1846 H1870 0.950 . S
C1847 C1864 1.574 . S
C1847 C1866 1.368 1_455 S
C1847 H1871 0.949 . S
H1848 C1852 0.949 . S
C1849 C1850 1.349 1_455 S
C1849 C1851 1.327 . S
C1849 H1872 0.950 . S
C1850 C1849 1.349 1_655 S
C1850 C1862 1.349 . S
C1851 C1849 1.327 . S
C1851 C1867 1.429 1_455 S
C1851 H1873 0.950 . S
C1852 H1848 0.949 . S
C1852 C1860 1.574 . S
C1852 C1868 1.368 . S
H1853 C1861 0.950 . S
H1854 C1859 0.950 . S
H1855 C1860 0.949 . S
H1856 C1862 0.950 . S
H1857 C1863 0.950 . S
H1858 C1864 0.949 . S
C1859 H1854 0.950 . S
C1859 C1861 1.327 . S
C1859 C1865 1.429 1_455 S
C1860 C1852 1.574 . S
C1860 H1855 0.949 . S
C1860 C1866 1.368 . S
C1861 C1845 1.349 1_455 S
C1861 H1853 0.950 . S
C1861 C1859 1.327 . S
C1862 C1850 1.349 . S
C1862 H1856 0.950 . S
C1862 C1863 1.327 . S
C1863 H1857 0.950 . S
C1863 C1862 1.327 . S
C1863 C1867 1.429 . S
C1864 C1847 1.574 . S
C1864 H1858 0.949 . S
C1864 C1868 1.368 1_455 S
C1865 C1846 1.429 . S
C1865 C1859 1.429 1_655 S
C1865 C1866 1.523 . S
C1866 C1847 1.368 1_655 S
C1866 C1860 1.368 . S
C1866 C1865 1.523 . S
C1867 C1851 1.429 1_655 S
C1867 C1863 1.429 . S
C1867 C1868 1.523 . S
C1868 C1852 1.368 . S
C1868 C1864 1.368 1_655 S
C1868 C1867 1.523 . S
H1869 C1844 0.950 . S
H1870 C1846 0.950 . S
H1871 C1847 0.949 . S
H1872 C1849 0.950 . S
H1873 C1851 0.950 . S
C1874 C1875 1.349 . S
C1874 C1876 1.327 . S
C1874 H1899 0.950 . S
C1875 C1874 1.349 . S
C1875 C1891 1.349 1_545 S
C1876 C1874 1.327 . S
C1876 C1895 1.429 . S
C1876 H1900 0.950 . S
C1877 C1894 1.574 . S
C1877 C1896 1.368 1_565 S
C1877 H1901 0.949 . S
H1878 C1882 0.949 . S
C1879 C1880 1.349 1_565 S
C1879 C1881 1.327 . S
C1879 H1902 0.950 . S
C1880 C1879 1.349 1_545 S
C1880 C1892 1.349 . S
C1881 C1879 1.327 . S
C1881 C1897 1.429 1_565 S
C1881 H1903 0.950 . S
C1882 H1878 0.949 . S
C1882 C1890 1.574 . S
C1882 C1898 1.368 . S
H1883 C1891 0.950 . S
H1884 C1889 0.950 . S
H1885 C1890 0.949 . S
H1886 C1892 0.950 . S
H1887 C1893 0.950 . S
H1888 C1894 0.949 . S
C1889 H1884 0.950 . S
C1889 C1891 1.327 . S
C1889 C1895 1.429 1_565 S
C1890 C1882 1.574 . S
C1890 H1885 0.949 . S
C1890 C1896 1.368 . S
C1891 C1875 1.349 1_565 S
C1891 H1883 0.950 . S
C1891 C1889 1.327 . S
C1892 C1880 1.349 . S
C1892 H1886 0.950 . S
C1892 C1893 1.327 . S
C1893 H1887 0.950 . S
C1893 C1892 1.327 . S
C1893 C1897 1.429 . S
C1894 C1877 1.574 . S
C1894 H1888 0.949 . S
C1894 C1898 1.368 1_565 S
C1895 C1876 1.429 . S
C1895 C1889 1.429 1_545 S
C1895 C1896 1.523 . S
C1896 C1877 1.368 1_545 S
C1896 C1890 1.368 . S
C1896 C1895 1.523 . S
C1897 C1881 1.429 1_545 S
C1897 C1893 1.429 . S
C1897 C1898 1.523 . S
C1898 C1882 1.368 . S
C1898 C1894 1.368 1_545 S
C1898 C1897 1.523 . S
H1899 C1874 0.950 . S
H1900 C1876 0.950 . S
H1901 C1877 0.949 . S
H1902 C1879 0.950 . S
H1903 C1881 0.950 . S
C945 C5 1.842 . S
C950 C418 1.833 . S
C975 C64 1.980 . S
C980 C241 1.981 . S
C1005 C300 1.761 . S
C1010 C123 1.780 . S
C1035 C182 1.994 . S
C1040 C359 1.964 . S
C1065 C477 1.981 . S
C1070 C713 1.980 . S
C1095 C536 1.761 . S
C1100 C831 1.780 . S
C1125 C654 1.994 1_655 S
C1130 C595 1.962 . S
C1155 C890 1.833 . S
C1160 C772 1.841 . S
C1185 C52 0.900 . S
C1190 C357 0.884 . S
C1215 C446 1.577 . S
C1220 C92 1.584 . S
C1245 C170 0.786 . S
C1250 C239 0.781 . S
C1275 C328 1.835 . S
C1280 C180 1.839 . S
C1305 C33 1.124 . S
C1310 C859 1.129 . S
C1335 C701 0.337 . S
C1340 C62 0.461 . S
C1365 C800 1.124 . S
C1370 C151 1.129 . S
C1395 C711 0.461 . S
C1400 C229 0.338 . S
C1425 C642 2.098 . S
C1430 C288 2.100 . S
C1455 C298 0.855 . S
C1460 C888 0.863 . S
C1485 C406 2.098 . S
C1490 C524 2.100 . S
C1515 C416 0.863 1_554 S
C1520 C534 0.854 . S
C1545 C3 1.578 . S
C1550 C269 1.581 . S
C1575 C505 1.580 . S
C1580 C770 1.578 . S
C1605 C760 1.617 . S
C1610 C583 1.617 . S
C1635 C829 1.043 . S
C1640 C623 1.017 . S
C1665 C465 1.386 . S
C1670 C210 1.365 . S
C1695 C121 1.042 . S
C1700 C387 1.017 . S
C1725 C682 1.364 . S
C1730 C937 1.386 . S
C1755 C819 0.900 . S
C1760 C593 0.884 . S
C1785 C918 1.578 . S
C1790 C741 1.584 . S
C1815 C878 0.787 . S
C1820 C475 0.782 . S
C1845 C652 1.843 1_655 S
C1850 C564 1.834 . S
C1875 C111 1.617 . S
C1880 C347 1.617 . S
