# Generated by pormake.
# Topology zfc, (5)-cn, num edge types: 1
# Building blocks:
#     Node 0, Type 0, BuildingBlock: BEQFEK_clean_sbu_0, # of connection points: 5
#     Node 1, Type 0, BuildingBlock: BEQFEK_clean_sbu_0, # of connection points: 5
#     Node 2, Type 0, BuildingBlock: BEQFEK_clean_sbu_0, # of connection points: 5
#     Node 3, Type 0, BuildingBlock: BEQFEK_clean_sbu_0, # of connection points: 5
#     Node 4, Type 0, BuildingBlock: BEQFEK_clean_sbu_0, # of connection points: 5
#     Node 5, Type 0, BuildingBlock: BEQFEK_clean_sbu_0, # of connection points: 5
#     Node 6, Type 0, BuildingBlock: BEQFEK_clean_sbu_0, # of connection points: 5
#     Node 7, Type 0, BuildingBlock: BEQFEK_clean_sbu_0, # of connection points: 5
#     Node 8, Type 0, BuildingBlock: BEQFEK_clean_sbu_0, # of connection points: 5
#     Node 9, Type 0, BuildingBlock: BEQFEK_clean_sbu_0, # of connection points: 5
#     Node 10, Type 0, BuildingBlock: BEQFEK_clean_sbu_0, # of connection points: 5
#     Node 11, Type 0, BuildingBlock: BEQFEK_clean_sbu_0, # of connection points: 5
#     Node 12, Type 0, BuildingBlock: BEQFEK_clean_sbu_0, # of connection points: 5
#     Node 13, Type 0, BuildingBlock: BEQFEK_clean_sbu_0, # of connection points: 5
#     Node 14, Type 0, BuildingBlock: BEQFEK_clean_sbu_0, # of connection points: 5
#     Node 15, Type 0, BuildingBlock: BEQFEK_clean_sbu_0, # of connection points: 5
#     Edge 16, Type (0, 0), BuildingBlock: TEMPAE_clean_linker_10, # of connection points: 2
#     Edge 17, Type (0, 0), BuildingBlock: TEMPAE_clean_linker_10, # of connection points: 2
#     Edge 18, Type (0, 0), BuildingBlock: TEMPAE_clean_linker_10, # of connection points: 2
#     Edge 19, Type (0, 0), BuildingBlock: TEMPAE_clean_linker_10, # of connection points: 2
#     Edge 20, Type (0, 0), BuildingBlock: TEMPAE_clean_linker_10, # of connection points: 2
#     Edge 21, Type (0, 0), BuildingBlock: TEMPAE_clean_linker_10, # of connection points: 2
#     Edge 22, Type (0, 0), BuildingBlock: TEMPAE_clean_linker_10, # of connection points: 2
#     Edge 23, Type (0, 0), BuildingBlock: TEMPAE_clean_linker_10, # of connection points: 2
#     Edge 24, Type (0, 0), BuildingBlock: TEMPAE_clean_linker_10, # of connection points: 2
#     Edge 25, Type (0, 0), BuildingBlock: TEMPAE_clean_linker_10, # of connection points: 2
#     Edge 26, Type (0, 0), BuildingBlock: TEMPAE_clean_linker_10, # of connection points: 2
#     Edge 27, Type (0, 0), BuildingBlock: TEMPAE_clean_linker_10, # of connection points: 2
#     Edge 28, Type (0, 0), BuildingBlock: TEMPAE_clean_linker_10, # of connection points: 2
#     Edge 29, Type (0, 0), BuildingBlock: TEMPAE_clean_linker_10, # of connection points: 2
#     Edge 30, Type (0, 0), BuildingBlock: TEMPAE_clean_linker_10, # of connection points: 2
#     Edge 31, Type (0, 0), BuildingBlock: TEMPAE_clean_linker_10, # of connection points: 2
#     Edge 32, Type (0, 0), BuildingBlock: TEMPAE_clean_linker_10, # of connection points: 2
#     Edge 33, Type (0, 0), BuildingBlock: TEMPAE_clean_linker_10, # of connection points: 2
#     Edge 34, Type (0, 0), BuildingBlock: TEMPAE_clean_linker_10, # of connection points: 2
#     Edge 35, Type (0, 0), BuildingBlock: TEMPAE_clean_linker_10, # of connection points: 2
#     Edge 36, Type (0, 0), BuildingBlock: TEMPAE_clean_linker_10, # of connection points: 2
#     Edge 37, Type (0, 0), BuildingBlock: TEMPAE_clean_linker_10, # of connection points: 2
#     Edge 38, Type (0, 0), BuildingBlock: TEMPAE_clean_linker_10, # of connection points: 2
#     Edge 39, Type (0, 0), BuildingBlock: TEMPAE_clean_linker_10, # of connection points: 2
#     Edge 40, Type (0, 0), BuildingBlock: TEMPAE_clean_linker_10, # of connection points: 2
#     Edge 41, Type (0, 0), BuildingBlock: TEMPAE_clean_linker_10, # of connection points: 2
#     Edge 42, Type (0, 0), BuildingBlock: TEMPAE_clean_linker_10, # of connection points: 2
#     Edge 43, Type (0, 0), BuildingBlock: TEMPAE_clean_linker_10, # of connection points: 2
#     Edge 44, Type (0, 0), BuildingBlock: TEMPAE_clean_linker_10, # of connection points: 2
#     Edge 45, Type (0, 0), BuildingBlock: TEMPAE_clean_linker_10, # of connection points: 2
#     Edge 46, Type (0, 0), BuildingBlock: TEMPAE_clean_linker_10, # of connection points: 2
#     Edge 47, Type (0, 0), BuildingBlock: TEMPAE_clean_linker_10, # of connection points: 2
#     Edge 48, Type (0, 0), BuildingBlock: TEMPAE_clean_linker_10, # of connection points: 2
#     Edge 49, Type (0, 0), BuildingBlock: TEMPAE_clean_linker_10, # of connection points: 2
#     Edge 50, Type (0, 0), BuildingBlock: TEMPAE_clean_linker_10, # of connection points: 2
#     Edge 51, Type (0, 0), BuildingBlock: TEMPAE_clean_linker_10, # of connection points: 2
#     Edge 52, Type (0, 0), BuildingBlock: TEMPAE_clean_linker_10, # of connection points: 2
#     Edge 53, Type (0, 0), BuildingBlock: TEMPAE_clean_linker_10, # of connection points: 2
#     Edge 54, Type (0, 0), BuildingBlock: TEMPAE_clean_linker_10, # of connection points: 2
#     Edge 55, Type (0, 0), BuildingBlock: TEMPAE_clean_linker_10, # of connection points: 2
# Relax obj value: 0.172
# Max RMSD: 0.198
# Mean RMSD: 0.198
data_MOF--net-zfc--node1-BEQFEK_clean_sbu_0--edge1-TEMPAE_clean_linker_10
_symmetry_space_group_name_H-M    P1
_symmetry_Int_Tables_number       1
_symmetry_cell_setting            triclinic
loop_
_symmetry_equiv_pos_as_xyz
'x, y, z'
_cell_length_a     74.584777
_cell_length_b     74.58155
_cell_length_c     19.02451
_cell_angle_alpha  89.997138
_cell_angle_beta   90.015079
_cell_angle_gamma 89.998478
loop_
_atom_site_label
_atom_site_type_symbol
_atom_site_fract_x
_atom_site_fract_y
_atom_site_fract_z
_atom_type_partial_charge
Co0 Co 0.24508 0.115 0.15831 0.0
Co1 Co 0.2608 0.11608 0.00774 0.0
C2 C 0.22491 0.13296 0.04894 0.0
O3 O 0.22485 0.12695 0.11149 0.0
O4 O 0.2381 0.13009 0.00801 0.0
C5 C 0.22678 0.10699 0.29398 0.0
O6 O 0.21222 0.10134 0.26203 0.0
C7 C 0.25407 0.10918 0.86206 0.0
C8 C 0.28067 0.11126 0.81181 0.0
C9 C 0.26267 0.10819 0.79784 0.0
N10 N 0.26632 0.11278 0.91165 0.0
N11 N 0.28224 0.11401 0.88159 0.0
C12 C 0.23471 0.10558 0.87744 0.0
H13 H 0.23319 0.09997 0.93115 0.0
H14 H 0.22895 0.09611 0.83849 0.0
H15 H 0.22712 0.11836 0.87488 0.0
C16 C 0.24922 0.0756 0.13471 0.0
N17 N 0.25075 0.09289 0.11485 0.0
N18 N 0.25793 0.09352 0.0517 0.0
C19 C 0.26147 0.07671 0.02993 0.0
C20 C 0.25599 0.06489 0.08159 0.0
C21 C 0.24144 0.06944 0.20293 0.0
H22 H 0.24785 0.07679 0.24691 0.0
H23 H 0.22689 0.07246 0.20351 0.0
H24 H 0.24336 0.05481 0.21055 0.0
O25 O 0.26622 0.13115 0.15827 0.0
O26 O 0.27978 0.13003 0.0546 0.0
H27 H 0.28104 0.08084 0.94916 0.0
H28 H 0.27387 0.0578 0.9585 0.0
C29 C 0.26944 0.07199 0.96017 0.0
H30 H 0.25925 0.07405 0.91851 0.0
H31 H 0.2941 0.11678 0.90856 0.0
O32 O 0.24026 0.11216 0.25875 0.0
C33 C 0.279 0.13566 0.11762 0.0
Co34 Co 0.88825 0.24416 0.16869 0.0
Co35 Co 0.87897 0.25969 0.02064 0.0
C36 C 0.86339 0.22486 0.07512 0.0
O37 O 0.87233 0.225 0.13213 0.0
O38 O 0.86468 0.23756 0.03076 0.0
C39 C 0.88702 0.22995 0.30513 0.0
O40 O 0.87181 0.22338 0.28164 0.0
C41 C 0.87893 0.25573 0.86959 0.0
C42 C 0.87754 0.28366 0.83109 0.0
C43 C 0.87936 0.26604 0.80901 0.0
N44 N 0.87744 0.26677 0.92496 0.0
N45 N 0.87637 0.28344 0.90178 0.0
C46 C 0.87917 0.23569 0.87586 0.0
H47 H 0.8664 0.23119 0.8998 0.0
H48 H 0.89021 0.23154 0.91145 0.0
H49 H 0.88048 0.22887 0.82445 0.0
C50 C 0.92495 0.24615 0.11202 0.0
N51 N 0.90715 0.24861 0.10617 0.0
N52 N 0.90345 0.25536 0.04391 0.0
C53 C 0.91891 0.25736 0.00799 0.0
C54 C 0.93294 0.25154 0.04989 0.0
C55 C 0.93392 0.23825 0.17517 0.0
H56 H 0.93304 0.24792 0.21936 0.0
H57 H 0.92676 0.22587 0.19125 0.0
H58 H 0.94822 0.23512 0.16472 0.0
O59 O 0.87466 0.26651 0.18527 0.0
O60 O 0.86828 0.27842 0.08122 0.0
H61 H 0.91177 0.27722 0.93149 0.0
H62 H 0.93449 0.26911 0.92381 0.0
C63 C 0.92046 0.26523 0.93588 0.0
H64 H 0.91607 0.25516 0.89661 0.0
H65 H 0.87538 0.29467 0.93425 0.0
O66 O 0.89732 0.23807 0.26265 0.0
C67 C 0.86771 0.27885 0.14807 0.0
Co68 Co 0.74809 0.88687 0.12683 0.0
Co69 Co 0.73362 0.87757 0.97755 0.0
C70 C 0.76826 0.86221 0.03637 0.0
O71 O 0.76768 0.87117 0.09322 0.0
O72 O 0.75584 0.86343 0.99077 0.0
C73 C 0.76465 0.88903 0.26207 0.0
O74 O 0.77507 0.87622 0.23803 0.0
C75 C 0.73879 0.88063 0.82731 0.0
C76 C 0.71245 0.87279 0.78394 0.0
C77 C 0.72935 0.87885 0.76498 0.0
N78 N 0.72787 0.87619 0.88067 0.0
N79 N 0.71216 0.87143 0.85455 0.0
C80 C 0.75808 0.88585 0.83622 0.0
H81 H 0.76348 0.88097 0.88676 0.0
H82 H 0.75929 0.90066 0.83622 0.0
H83 H 0.76629 0.88047 0.79237 0.0
C84 C 0.74566 0.92362 0.07089 0.0
N85 N 0.74388 0.90577 0.06402 0.0
N86 N 0.73689 0.90208 0.00222 0.0
C87 C 0.73364 0.91762 0.9682 0.0
C88 C 0.73928 0.9317 0.01028 0.0
C89 C 0.75363 0.9326 0.1339 0.0
H90 H 0.74354 0.93282 0.17675 0.0
H91 H 0.7654 0.92486 0.15262 0.0
H92 H 0.75776 0.94656 0.12192 0.0
O93 O 0.72574 0.87286 0.14019 0.0
O94 O 0.71463 0.86634 0.03478 0.0
H95 H 0.71377 0.90828 0.89484 0.0
H96 H 0.71666 0.93232 0.89668 0.0
C97 C 0.72371 0.91924 0.90006 0.0
H98 H 0.73332 0.91851 0.85577 0.0
H99 H 0.70121 0.86744 0.88491 0.0
O100 O 0.75328 0.89619 0.22114 0.0
C101 C 0.71379 0.8657 0.10155 0.0
Co102 Co 0.11047 0.75437 0.16965 0.0
Co103 Co 0.11813 0.73619 0.02479 0.0
C104 C 0.13484 0.77176 0.07171 0.0
O105 O 0.12604 0.77293 0.12882 0.0
O106 O 0.1331 0.75828 0.03112 0.0
C107 C 0.11402 0.76612 0.30783 0.0
O108 O 0.1301 0.77012 0.2844 0.0
C109 C 0.11755 0.73931 0.87303 0.0
C110 C 0.11822 0.71118 0.83662 0.0
C111 C 0.11687 0.72873 0.81311 0.0
N112 N 0.11879 0.7285 0.92929 0.0
N113 N 0.11935 0.7117 0.90732 0.0
C114 C 0.11807 0.75936 0.87789 0.0
H115 H 0.13121 0.76348 0.89969 0.0
H116 H 0.10752 0.76405 0.91469 0.0
H117 H 0.11657 0.76606 0.82635 0.0
C118 C 0.07332 0.75239 0.11736 0.0
N119 N 0.091 0.74941 0.11026 0.0
N120 N 0.09401 0.74113 0.05035 0.0
C121 C 0.07819 0.73824 0.018 0.0
C122 C 0.06465 0.74536 0.05926 0.0
C123 C 0.06498 0.76138 0.17955 0.0
H124 H 0.06628 0.75248 0.22602 0.0
H125 H 0.07232 0.77398 0.1913 0.0
H126 H 0.05059 0.76434 0.17047 0.0
O127 O 0.12468 0.73248 0.18678 0.0
O128 O 0.12856 0.71762 0.08703 0.0
H129 H 0.08418 0.71669 0.9474 0.0
H130 H 0.0618 0.7257 0.93783 0.0
C131 C 0.07602 0.7291 0.94849 0.0
H132 H 0.08081 0.73816 0.90628 0.0
H133 H 0.12014 0.70061 0.94059 0.0
O134 O 0.10224 0.76074 0.26452 0.0
C135 C 0.13063 0.71899 0.15326 0.0
Co136 Co 0.24715 0.8883 0.85804 0.0
Co137 Co 0.265 0.87949 0.00207 0.0
C138 C 0.22928 0.86346 0.95214 0.0
O139 O 0.22827 0.87278 0.89626 0.0
O140 O 0.24278 0.86466 0.99302 0.0
C141 C 0.23451 0.88612 0.7199 0.0
O142 O 0.22889 0.87049 0.74286 0.0
C143 C 0.26148 0.88251 0.15332 0.0
C144 C 0.2882 0.87462 0.19266 0.0
C145 C 0.27146 0.88054 0.21446 0.0
N146 N 0.27192 0.87827 0.09823 0.0
N147 N 0.28788 0.87352 0.12196 0.0
C148 C 0.24213 0.88771 0.14686 0.0
H149 H 0.23652 0.88346 0.09578 0.0
H150 H 0.24088 0.9025 0.14969 0.0
H151 H 0.23416 0.88174 0.19021 0.0
C152 C 0.24901 0.92509 0.91543 0.0
N153 N 0.25205 0.90735 0.91974 0.0
N154 N 0.26068 0.90381 0.97836 0.0
C155 C 0.26407 0.91933 0.01211 0.0
C156 C 0.25652 0.93331 0.97401 0.0
C157 C 0.23839 0.93368 0.85785 0.0
H158 H 0.22811 0.92421 0.83786 0.0
H159 H 0.23176 0.94612 0.87654 0.0
H160 H 0.24752 0.93712 0.81385 0.0
O161 O 0.26901 0.87386 0.84094 0.0
O162 O 0.28369 0.86921 0.94067 0.0
H163 H 0.28279 0.93417 0.0761 0.0
H164 H 0.2677 0.91989 0.12376 0.0
C165 C 0.27591 0.92098 0.0754 0.0
H166 H 0.28613 0.91019 0.07555 0.0
H167 H 0.29855 0.86961 0.08995 0.0
O168 O 0.24129 0.89712 0.76336 0.0
C169 C 0.28239 0.86754 0.87426 0.0
Co170 Co 0.10903 0.2424 0.8068 0.0
Co171 Co 0.11653 0.2595 0.95316 0.0
C172 C 0.13256 0.2239 0.90523 0.0
O173 O 0.12384 0.22311 0.8478 0.0
O174 O 0.13111 0.23732 0.94625 0.0
C175 C 0.11189 0.22951 0.66909 0.0
O176 O 0.12764 0.2243 0.69244 0.0
C177 C 0.11599 0.25599 0.10438 0.0
C178 C 0.11662 0.28403 0.14188 0.0
C179 C 0.11528 0.26642 0.1646 0.0
N180 N 0.11723 0.26694 0.04862 0.0
N181 N 0.11778 0.28369 0.0712 0.0
C182 C 0.11657 0.23594 0.09879 0.0
H183 H 0.12985 0.2319 0.07807 0.0
H184 H 0.10624 0.23133 0.06083 0.0
H185 H 0.11476 0.22912 0.1499 0.0
C186 C 0.07166 0.24518 0.85673 0.0
N187 N 0.08939 0.24773 0.86504 0.0
N188 N 0.09242 0.25491 0.92707 0.0
C189 C 0.07663 0.2571 0.96042 0.0
C190 C 0.06305 0.25098 0.91701 0.0
C191 C 0.06335 0.23669 0.7934 0.0
H192 H 0.07062 0.22413 0.78044 0.0
H193 H 0.04893 0.23371 0.80193 0.0
H194 H 0.06476 0.2459 0.74794 0.0
O195 O 0.12402 0.26391 0.791 0.0
O196 O 0.12729 0.27814 0.89256 0.0
H197 H 0.08273 0.27749 0.03603 0.0
H198 H 0.06024 0.26871 0.04256 0.0
C199 C 0.07444 0.26522 0.03184 0.0
H200 H 0.07899 0.25549 0.07212 0.0
H201 H 0.11857 0.29486 0.03834 0.0
O202 O 0.10075 0.23623 0.71204 0.0
C203 C 0.12988 0.27712 0.82655 0.0
Co204 Co 0.75053 0.11404 0.84335 0.0
Co205 Co 0.73523 0.1156 0.99429 0.0
C206 C 0.77105 0.13215 0.95172 0.0
O207 O 0.77095 0.12585 0.88962 0.0
O208 O 0.75791 0.1296 0.99318 0.0
C209 C 0.76878 0.10569 0.70819 0.0
O210 O 0.78324 0.0999 0.74042 0.0
C211 C 0.74197 0.10902 0.14013 0.0
C212 C 0.71535 0.11106 0.19023 0.0
C213 C 0.73335 0.10802 0.20428 0.0
N214 N 0.72973 0.11259 0.09048 0.0
N215 N 0.7138 0.11381 0.12045 0.0
C216 C 0.76134 0.1054 0.1248 0.0
H217 H 0.76287 0.0998 0.07109 0.0
H218 H 0.76707 0.09591 0.16372 0.0
H219 H 0.76894 0.11817 0.12742 0.0
C220 C 0.74568 0.07478 0.86723 0.0
N221 N 0.74459 0.09209 0.88725 0.0
N222 N 0.73814 0.09285 0.95157 0.0
C223 C 0.73501 0.07606 0.97459 0.0
C224 C 0.73974 0.06416 0.92211 0.0
C225 C 0.75279 0.06852 0.79801 0.0
H226 H 0.7674 0.07114 0.79585 0.0
H227 H 0.75044 0.05395 0.79033 0.0
H228 H 0.74626 0.0761 0.75491 0.0
O229 O 0.72968 0.13043 0.84318 0.0
O230 O 0.71615 0.12948 0.94692 0.0
H231 H 0.72305 0.05721 0.0472 0.0
H232 H 0.73796 0.07345 0.08579 0.0
C233 C 0.7275 0.0714 0.04518 0.0
H234 H 0.71597 0.08025 0.0573 0.0
H235 H 0.70194 0.11651 0.09338 0.0
O236 O 0.75532 0.11103 0.74312 0.0
C237 C 0.71697 0.13507 0.88382 0.0
Co238 Co 0.88765 0.75358 0.82879 0.0
Co239 Co 0.87983 0.73514 0.97292 0.0
C240 C 0.86403 0.77137 0.92788 0.0
O241 O 0.87272 0.77254 0.87048 0.0
O242 O 0.86548 0.75766 0.96749 0.0
C243 C 0.88449 0.76547 0.68987 0.0
O244 O 0.86856 0.77022 0.71279 0.0
C245 C 0.88128 0.73834 0.12443 0.0
C246 C 0.87841 0.71043 0.16174 0.0
C247 C 0.88117 0.72786 0.18471 0.0
N248 N 0.8791 0.72756 0.06855 0.0
N249 N 0.87727 0.71089 0.09104 0.0
C250 C 0.88213 0.75838 0.11883 0.0
H251 H 0.86915 0.76337 0.09829 0.0
H252 H 0.8927 0.76224 0.08067 0.0
H253 H 0.88446 0.76508 0.16984 0.0
C254 C 0.92479 0.75128 0.88169 0.0
N255 N 0.90711 0.74811 0.88776 0.0
N256 N 0.904 0.73957 0.94696 0.0
C257 C 0.91972 0.7366 0.97981 0.0
C258 C 0.93343 0.74408 0.93992 0.0
C259 C 0.93292 0.762 0.82336 0.0
H260 H 0.92337 0.77246 0.80545 0.0
H261 H 0.94562 0.76845 0.84033 0.0
H262 H 0.93578 0.75298 0.77836 0.0
O263 O 0.87272 0.73211 0.81173 0.0
O264 O 0.86883 0.71694 0.91075 0.0
H265 H 0.93543 0.72037 0.05116 0.0
H266 H 0.9189 0.73463 0.09184 0.0
C267 C 0.92168 0.7259 0.04594 0.0
H268 H 0.91199 0.71465 0.04604 0.0
H269 H 0.8755 0.69984 0.05815 0.0
O270 O 0.89595 0.75962 0.73354 0.0
C271 C 0.86653 0.71864 0.84476 0.0
Co272 Co 0.74737 0.61368 0.63561 0.0
Co273 Co 0.76286 0.61743 0.48564 0.0
C274 C 0.72695 0.63333 0.53128 0.0
O275 O 0.72702 0.62615 0.59193 0.0
O276 O 0.74012 0.63139 0.48945 0.0
C277 C 0.72949 0.60428 0.77149 0.0
O278 O 0.71461 0.59906 0.74078 0.0
C279 C 0.75628 0.61222 0.33889 0.0
C280 C 0.783 0.61451 0.28969 0.0
C281 C 0.76505 0.61141 0.27501 0.0
N282 N 0.76842 0.61567 0.38907 0.0
N283 N 0.78439 0.61712 0.3596 0.0
C284 C 0.73695 0.60826 0.35351 0.0
H285 H 0.73539 0.60254 0.407 0.0
H286 H 0.73144 0.59875 0.31418 0.0
H287 H 0.72916 0.62092 0.35094 0.0
C288 C 0.75172 0.57485 0.60277 0.0
N289 N 0.75321 0.5924 0.587 0.0
N290 N 0.75987 0.59407 0.5233 0.0
C291 C 0.76282 0.57762 0.49648 0.0
C292 C 0.75765 0.56497 0.54563 0.0
C293 C 0.74386 0.56778 0.66953 0.0
H294 H 0.72951 0.57161 0.6721 0.0
H295 H 0.74493 0.55297 0.67287 0.0
H296 H 0.75081 0.57394 0.71506 0.0
O297 O 0.76823 0.63002 0.63936 0.0
O298 O 0.78193 0.63063 0.53602 0.0
H299 H 0.77582 0.55996 0.42206 0.0
H300 H 0.76054 0.57603 0.38471 0.0
C301 C 0.77086 0.57395 0.42585 0.0
H302 H 0.78216 0.58327 0.41611 0.0
H303 H 0.79621 0.61966 0.38721 0.0
O304 O 0.74276 0.60953 0.73532 0.0
C305 C 0.78101 0.63528 0.60025 0.0
Co306 Co 0.3862 0.74812 0.6549 0.0
Co307 Co 0.37906 0.76284 0.50515 0.0
C308 C 0.36351 0.72785 0.55658 0.0
O309 O 0.3722 0.72819 0.61409 0.0
O310 O 0.36455 0.74067 0.51265 0.0
C311 C 0.38229 0.73488 0.79053 0.0
O312 O 0.36649 0.73051 0.76521 0.0
C313 C 0.37683 0.76039 0.35311 0.0
C314 C 0.38405 0.7878 0.31919 0.0
C315 C 0.38043 0.77072 0.29442 0.0
N316 N 0.37878 0.77072 0.41031 0.0
N317 N 0.38278 0.78718 0.38979 0.0
C318 C 0.37151 0.74102 0.35547 0.0
H319 H 0.35836 0.73986 0.38214 0.0
H320 H 0.3815 0.73334 0.38652 0.0
H321 H 0.37009 0.73507 0.30243 0.0
C322 C 0.42385 0.75333 0.61067 0.0
N323 N 0.40609 0.75397 0.59864 0.0
N324 N 0.40318 0.7585 0.53294 0.0
C325 C 0.41907 0.7599 0.4996 0.0
C326 C 0.43279 0.75693 0.548 0.0
C327 C 0.43184 0.75053 0.68205 0.0
H328 H 0.42343 0.75716 0.72241 0.0
H329 H 0.43223 0.73595 0.69375 0.0
H330 H 0.44561 0.75609 0.68532 0.0
O331 O 0.37051 0.76901 0.66846 0.0
O332 O 0.36792 0.78189 0.56378 0.0
H333 H 0.41887 0.77632 0.40738 0.0
H334 H 0.43425 0.75761 0.40266 0.0
C335 C 0.42092 0.76205 0.42165 0.0
H336 H 0.41068 0.75383 0.39468 0.0
H337 H 0.38537 0.79779 0.42409 0.0
O338 O 0.39388 0.7416 0.74953 0.0
C339 C 0.3648 0.78162 0.62954 0.0
Co340 Co 0.25059 0.38441 0.64535 0.0
Co341 Co 0.23589 0.38105 0.49411 0.0
C342 C 0.27139 0.36479 0.54189 0.0
O343 O 0.27101 0.37179 0.6028 0.0
O344 O 0.25849 0.36695 0.49893 0.0
C345 C 0.2687 0.39355 0.77996 0.0
O346 O 0.28349 0.39845 0.74783 0.0
C347 C 0.24295 0.38642 0.34782 0.0
C348 C 0.21632 0.38451 0.29753 0.0
C349 C 0.23434 0.38747 0.28366 0.0
N350 N 0.23066 0.38298 0.39739 0.0
N351 N 0.21474 0.38175 0.36728 0.0
C352 C 0.26228 0.39017 0.36334 0.0
H353 H 0.26377 0.39576 0.41707 0.0
H354 H 0.26799 0.39971 0.32454 0.0
H355 H 0.26995 0.37744 0.3607 0.0
C356 C 0.24684 0.42337 0.61282 0.0
N357 N 0.2452 0.40584 0.59677 0.0
N358 N 0.23887 0.40431 0.53248 0.0
C359 C 0.23628 0.42081 0.5056 0.0
C360 C 0.24136 0.43335 0.55526 0.0
C361 C 0.2544 0.43033 0.68028 0.0
H362 H 0.24745 0.4239 0.72521 0.0
H363 H 0.26881 0.42678 0.68322 0.0
H364 H 0.25303 0.44511 0.68427 0.0
O365 O 0.22951 0.36828 0.64763 0.0
O366 O 0.21656 0.36791 0.54274 0.0
H367 H 0.21737 0.41553 0.42326 0.0
H368 H 0.22402 0.43873 0.4302 0.0
C369 C 0.22874 0.42466 0.43425 0.0
H370 H 0.23929 0.42249 0.39411 0.0
H371 H 0.20283 0.37928 0.39436 0.0
O372 O 0.25513 0.38848 0.74507 0.0
C373 C 0.21696 0.36319 0.60696 0.0
Co374 Co 0.6109 0.2553 0.66492 0.0
Co375 Co 0.61899 0.2369 0.52137 0.0
C376 C 0.63551 0.27263 0.56871 0.0
O377 O 0.62634 0.27402 0.62482 0.0
O378 O 0.63409 0.25896 0.52889 0.0
C379 C 0.61375 0.26767 0.80323 0.0
O380 O 0.62957 0.2727 0.78014 0.0
C381 C 0.61559 0.24029 0.37022 0.0
C382 C 0.62355 0.2136 0.33081 0.0
C383 C 0.61763 0.23035 0.30899 0.0
N384 N 0.61983 0.22983 0.42528 0.0
N385 N 0.62459 0.21388 0.40153 0.0
C386 C 0.6104 0.25963 0.37687 0.0
H387 H 0.61428 0.2651 0.42865 0.0
H388 H 0.59563 0.26093 0.37248 0.0
H389 H 0.61669 0.26769 0.33449 0.0
C390 C 0.57386 0.2534 0.61015 0.0
N391 N 0.59157 0.25031 0.60476 0.0
N392 N 0.59481 0.2415 0.54633 0.0
C393 C 0.57915 0.23806 0.51379 0.0
C394 C 0.56535 0.24575 0.55249 0.0
C395 C 0.56555 0.26421 0.66783 0.0
H396 H 0.57511 0.27455 0.6866 0.0
H397 H 0.55302 0.27078 0.64974 0.0
H398 H 0.56232 0.25521 0.71252 0.0
O399 O 0.62532 0.2334 0.68214 0.0
O400 O 0.62932 0.2183 0.58296 0.0
H401 H 0.56398 0.21927 0.45122 0.0
H402 H 0.57821 0.23417 0.40233 0.0
C403 C 0.57722 0.22608 0.45102 0.0
H404 H 0.58795 0.2158 0.45072 0.0
H405 H 0.62857 0.20323 0.4335 0.0
O406 O 0.60244 0.26142 0.7598 0.0
C407 C 0.63135 0.21984 0.64914 0.0
Co408 Co 0.75364 0.38398 0.3609 0.0
Co409 Co 0.76604 0.37955 0.51498 0.0
C410 C 0.73214 0.36249 0.4592 0.0
O411 O 0.73364 0.36949 0.39855 0.0
O412 O 0.74391 0.36513 0.50642 0.0
C413 C 0.73487 0.39293 0.22907 0.0
O414 O 0.71991 0.39614 0.26319 0.0
C415 C 0.75818 0.38416 0.66101 0.0
C416 C 0.78474 0.38319 0.71237 0.0
C417 C 0.7666 0.38564 0.72537 0.0
N418 N 0.7707 0.38103 0.61206 0.0
N419 N 0.78657 0.38029 0.64284 0.0
C420 C 0.73881 0.38743 0.64459 0.0
H421 H 0.73734 0.39296 0.59074 0.0
H422 H 0.73275 0.39686 0.683 0.0
H423 H 0.73145 0.37452 0.64706 0.0
C424 C 0.75543 0.42259 0.3987 0.0
N425 N 0.75725 0.40502 0.41345 0.0
N426 N 0.76283 0.40316 0.47867 0.0
C427 C 0.76469 0.41955 0.50759 0.0
C428 C 0.75995 0.43231 0.45815 0.0
C429 C 0.74882 0.42979 0.33006 0.0
H430 H 0.75682 0.42398 0.28653 0.0
H431 H 0.73467 0.42566 0.32261 0.0
H432 H 0.7496 0.44463 0.328 0.0
O433 O 0.77606 0.36988 0.35805 0.0
O434 O 0.78581 0.36667 0.46765 0.0
H435 H 0.78298 0.41424 0.59203 0.0
H436 H 0.77581 0.43729 0.58634 0.0
C437 C 0.77148 0.42314 0.58029 0.0
H438 H 0.76063 0.42047 0.61871 0.0
H439 H 0.79863 0.37825 0.61624 0.0
O440 O 0.74907 0.38881 0.26199 0.0
C441 C 0.7875 0.36406 0.40195 0.0
Co442 Co 0.6113 0.74907 0.33361 0.0
Co443 Co 0.61965 0.76222 0.48521 0.0
C444 C 0.63525 0.72823 0.42921 0.0
O445 O 0.62676 0.72951 0.37137 0.0
O446 O 0.63389 0.7402 0.47642 0.0
C447 C 0.61407 0.73451 0.19908 0.0
O448 O 0.62959 0.72922 0.22442 0.0
C449 C 0.62227 0.7596 0.63704 0.0
C450 C 0.61535 0.78705 0.67147 0.0
C451 C 0.6188 0.76991 0.69591 0.0
N452 N 0.62037 0.77001 0.58004 0.0
N453 N 0.61659 0.78649 0.60085 0.0
C454 C 0.6272 0.74013 0.63432 0.0
H455 H 0.64029 0.73872 0.60741 0.0
H456 H 0.61703 0.73268 0.60328 0.0
H457 H 0.62851 0.73412 0.68732 0.0
C458 C 0.57404 0.75316 0.38319 0.0
N459 N 0.59187 0.7538 0.39331 0.0
N460 N 0.59527 0.75796 0.45906 0.0
C461 C 0.57961 0.75906 0.49425 0.0
C462 C 0.56555 0.75632 0.44713 0.0
C463 C 0.56555 0.75096 0.31236 0.0
H464 H 0.57378 0.75778 0.27186 0.0
H465 H 0.56491 0.73648 0.29914 0.0
H466 H 0.55184 0.75669 0.31111 0.0
O467 O 0.62509 0.77119 0.31898 0.0
O468 O 0.63104 0.78113 0.42655 0.0
H469 H 0.5806 0.77493 0.58788 0.0
H470 H 0.56503 0.75637 0.59246 0.0
C471 C 0.57828 0.76078 0.57252 0.0
H472 H 0.58858 0.75227 0.59766 0.0
H473 H 0.61405 0.79716 0.56675 0.0
O474 O 0.60308 0.74233 0.23964 0.0
C475 C 0.63201 0.78269 0.36004 0.0
Co476 Co 0.24935 0.61346 0.35914 0.0
Co477 Co 0.23469 0.61818 0.5098 0.0
C478 C 0.2702 0.63399 0.45946 0.0
O479 O 0.26976 0.62638 0.39969 0.0
O480 O 0.25733 0.63229 0.50291 0.0
C481 C 0.26717 0.6038 0.22423 0.0
O482 O 0.28225 0.59946 0.25549 0.0
C483 C 0.24167 0.61379 0.65673 0.0
C484 C 0.21493 0.61568 0.70617 0.0
C485 C 0.23294 0.61284 0.72065 0.0
N486 N 0.22944 0.61703 0.60667 0.0
N487 N 0.21347 0.61829 0.6363 0.0
C488 C 0.26102 0.60997 0.6419 0.0
H489 H 0.26259 0.60427 0.58839 0.0
H490 H 0.26664 0.6005 0.68115 0.0
H491 H 0.2687 0.6227 0.64442 0.0
C492 C 0.24579 0.57487 0.39679 0.0
N493 N 0.24402 0.59251 0.41053 0.0
N494 N 0.23768 0.59456 0.47456 0.0
C495 C 0.23518 0.57828 0.50356 0.0
C496 C 0.24036 0.56535 0.45558 0.0
C497 C 0.25357 0.56745 0.33045 0.0
H498 H 0.26779 0.57164 0.32639 0.0
H499 H 0.25286 0.5526 0.32909 0.0
H500 H 0.24627 0.57306 0.28464 0.0
O501 O 0.22838 0.62962 0.35508 0.0
O502 O 0.21526 0.63084 0.45954 0.0
H503 H 0.22284 0.56096 0.58086 0.0
H504 H 0.23815 0.57741 0.61522 0.0
C505 C 0.2276 0.57498 0.57526 0.0
H506 H 0.21625 0.58421 0.58513 0.0
H507 H 0.20159 0.62055 0.60874 0.0
O508 O 0.25365 0.60868 0.25983 0.0
C509 C 0.21579 0.63504 0.3948 0.0
Co510 Co 0.38856 0.2551 0.31873 0.0
Co511 Co 0.38093 0.23763 0.46451 0.0
C512 C 0.36541 0.27369 0.41752 0.0
O513 O 0.37401 0.27444 0.35984 0.0
O514 O 0.36677 0.2602 0.45829 0.0
C515 C 0.38565 0.26762 0.18067 0.0
O516 O 0.36985 0.27269 0.20385 0.0
C517 C 0.38174 0.24098 0.61589 0.0
C518 C 0.38065 0.21292 0.65303 0.0
C519 C 0.3823 0.23049 0.67601 0.0
N520 N 0.38029 0.23011 0.55998 0.0
N521 N 0.37948 0.21335 0.58235 0.0
C522 C 0.38149 0.26104 0.61055 0.0
H523 H 0.36824 0.26532 0.59021 0.0
H524 H 0.39182 0.26551 0.57239 0.0
H525 H 0.38348 0.2678 0.66168 0.0
C526 C 0.42584 0.25213 0.36913 0.0
N527 N 0.40811 0.24955 0.37701 0.0
N528 N 0.40508 0.2416 0.43755 0.0
C529 C 0.4209 0.2385 0.46958 0.0
C530 C 0.43449 0.24514 0.42736 0.0
C531 C 0.4342 0.26095 0.30659 0.0
H532 H 0.43229 0.25224 0.25989 0.0
H533 H 0.42731 0.27385 0.29595 0.0
H534 H 0.44875 0.26331 0.31453 0.0
O535 O 0.37331 0.23374 0.30275 0.0
O536 O 0.36965 0.21938 0.40383 0.0
H537 H 0.41469 0.21763 0.54291 0.0
H538 H 0.43718 0.22642 0.55118 0.0
C539 C 0.423 0.22992 0.5402 0.0
H540 H 0.41835 0.23938 0.58128 0.0
H541 H 0.37847 0.20222 0.54935 0.0
O542 O 0.39689 0.26117 0.22389 0.0
C543 C 0.36715 0.22058 0.33782 0.0
C544 C 0.26322 0.09529 0.67727 0.0
C545 C 0.25454 0.10574 0.7279 0.0
C546 C 0.25635 0.09393 0.60889 0.0
C547 C 0.24062 0.10352 0.59081 0.0
C548 C 0.23146 0.1136 0.64253 0.0
C549 C 0.2386 0.11466 0.71049 0.0
C550 C 0.26644 0.08299 0.55509 0.0
C551 C 0.2148 0.1242 0.62505 0.0
C552 C 0.23981 0.11947 0.40283 0.0
C553 C 0.22828 0.10706 0.37106 0.0
C554 C 0.24339 0.11878 0.47478 0.0
C555 C 0.23539 0.10518 0.51596 0.0
C556 C 0.22318 0.09297 0.48483 0.0
C557 C 0.21965 0.09413 0.41235 0.0
C558 C 0.25625 0.13226 0.50615 0.0
C559 C 0.21448 0.0783 0.52742 0.0
H560 H 0.27554 0.08839 0.69091 0.0
H561 H 0.23213 0.12317 0.74895 0.0
H562 H 0.25712 0.07411 0.52591 0.0
H563 H 0.27279 0.0921 0.51624 0.0
H564 H 0.2771 0.07464 0.57945 0.0
H565 H 0.20792 0.12921 0.67299 0.0
H566 H 0.21849 0.13589 0.59199 0.0
H567 H 0.20524 0.11592 0.59442 0.0
H568 H 0.24633 0.12961 0.37095 0.0
H569 H 0.21081 0.08448 0.38759 0.0
H570 H 0.26839 0.12527 0.52578 0.0
H571 H 0.24996 0.13912 0.55164 0.0
H572 H 0.26049 0.14259 0.4675 0.0
H573 H 0.22486 0.06866 0.54527 0.0
H574 H 0.20421 0.07086 0.49677 0.0
H575 H 0.20808 0.08396 0.57513 0.0
C576 C 0.87233 0.26734 0.68132 0.0
C577 C 0.88248 0.26008 0.73618 0.0
C578 C 0.87481 0.26149 0.61198 0.0
C579 C 0.88775 0.24806 0.59761 0.0
C580 C 0.89842 0.2411 0.65265 0.0
C581 C 0.89584 0.24742 0.72125 0.0
C582 C 0.86343 0.26949 0.55425 0.0
C583 C 0.91237 0.22682 0.63924 0.0
C584 C 0.87877 0.22275 0.42897 0.0
C585 C 0.88983 0.23194 0.38156 0.0
C586 C 0.87873 0.22717 0.50059 0.0
C587 C 0.88986 0.24123 0.5249 0.0
C588 C 0.9019 0.24975 0.47814 0.0
C589 C 0.90184 0.24488 0.407 0.0
C590 C 0.86602 0.21752 0.54939 0.0
C591 C 0.9139 0.26487 0.50206 0.0
H592 H 0.86223 0.27737 0.69288 0.0
H593 H 0.90428 0.24244 0.76331 0.0
H594 H 0.87213 0.27515 0.51246 0.0
H595 H 0.85509 0.25888 0.52972 0.0
H596 H 0.85444 0.28025 0.57391 0.0
H597 H 0.9196 0.2229 0.68791 0.0
H598 H 0.90588 0.21473 0.61669 0.0
H599 H 0.92228 0.23165 0.60016 0.0
H600 H 0.86957 0.21263 0.40967 0.0
H601 H 0.91045 0.25205 0.37068 0.0
H602 H 0.8552 0.22681 0.56599 0.0
H603 H 0.87315 0.21309 0.59756 0.0
H604 H 0.85977 0.20563 0.52407 0.0
H605 H 0.9056 0.27684 0.51394 0.0
H606 H 0.92393 0.26861 0.46143 0.0
H607 H 0.92109 0.26118 0.55099 0.0
C608 C 0.77379 0.88247 0.38576 0.0
C609 C 0.76298 0.89203 0.33854 0.0
C610 C 0.76979 0.8822 0.45777 0.0
C611 C 0.75457 0.8916 0.48264 0.0
C612 C 0.74448 0.9024 0.43612 0.0
C613 C 0.74889 0.90259 0.36461 0.0
C614 C 0.78111 0.87087 0.50634 0.0
C615 C 0.72815 0.91262 0.46068 0.0
C616 C 0.73004 0.87134 0.63768 0.0
C617 C 0.73562 0.88245 0.69276 0.0
C618 C 0.73611 0.87423 0.56894 0.0
C619 C 0.74807 0.88857 0.55524 0.0
C620 C 0.7535 0.90003 0.61044 0.0
C621 C 0.747 0.89697 0.67847 0.0
C622 C 0.72979 0.86189 0.51102 0.0
C623 C 0.76617 0.91549 0.59763 0.0
H624 H 0.78483 0.87446 0.36612 0.0
H625 H 0.74056 0.91018 0.32859 0.0
H626 H 0.78451 0.87845 0.55473 0.0
H627 H 0.77339 0.85884 0.52256 0.0
H628 H 0.79373 0.86637 0.48087 0.0
H629 H 0.72318 0.92213 0.42018 0.0
H630 H 0.71724 0.90301 0.47308 0.0
H631 H 0.73113 0.92021 0.50942 0.0
H632 H 0.72109 0.86022 0.64855 0.0
H633 H 0.75066 0.90613 0.72013 0.0
H634 H 0.74145 0.85508 0.48661 0.0
H635 H 0.72305 0.86978 0.46922 0.0
H636 H 0.72032 0.85152 0.5304 0.0
H637 H 0.77877 0.91053 0.5735 0.0
H638 H 0.76954 0.92278 0.64681 0.0
H639 H 0.76008 0.9251 0.56006 0.0
C640 C 0.09837 0.75115 0.40765 0.0
C641 C 0.11121 0.76349 0.38395 0.0
C642 C 0.09786 0.7458 0.47828 0.0
C643 C 0.11022 0.75329 0.52645 0.0
C644 C 0.12242 0.76663 0.50371 0.0
C645 C 0.12289 0.77144 0.43247 0.0
C646 C 0.08485 0.73133 0.50027 0.0
C647 C 0.13549 0.77525 0.55403 0.0
C648 C 0.10199 0.74773 0.72196 0.0
C649 C 0.11454 0.73446 0.73937 0.0
C650 C 0.10045 0.75406 0.65285 0.0
C651 C 0.11121 0.74639 0.59954 0.0
C652 C 0.12318 0.73225 0.61619 0.0
C653 C 0.12473 0.72648 0.68613 0.0
C654 C 0.08758 0.76917 0.63715 0.0
C655 C 0.13454 0.72342 0.56032 0.0
H656 H 0.08939 0.74484 0.37028 0.0
H657 H 0.13278 0.78104 0.41436 0.0
H658 H 0.09239 0.71898 0.51393 0.0
H659 H 0.07732 0.73547 0.54782 0.0
H660 H 0.0751 0.72803 0.45804 0.0
H661 H 0.14286 0.78659 0.52956 0.0
H662 H 0.12836 0.78024 0.60131 0.0
H663 H 0.1454 0.76513 0.57195 0.0
H664 H 0.09342 0.75325 0.76255 0.0
H665 H 0.13418 0.71597 0.69945 0.0
H666 H 0.07773 0.76492 0.59676 0.0
H667 H 0.09503 0.78078 0.61535 0.0
H668 H 0.08016 0.77364 0.68466 0.0
H669 H 0.12592 0.71846 0.51692 0.0
H670 H 0.14246 0.712 0.58132 0.0
H671 H 0.14394 0.73336 0.53745 0.0
C672 C 0.27254 0.87239 0.34152 0.0
C673 C 0.26573 0.8834 0.28816 0.0
C674 C 0.2668 0.87436 0.4113 0.0
C675 C 0.25383 0.88757 0.42785 0.0
C676 C 0.24726 0.89904 0.37459 0.0
C677 C 0.25355 0.89703 0.30561 0.0
C678 C 0.27444 0.86214 0.46714 0.0
C679 C 0.23343 0.91328 0.39026 0.0
C680 C 0.22798 0.87815 0.59518 0.0
C681 C 0.23714 0.88889 0.64376 0.0
C682 C 0.23266 0.87831 0.52378 0.0
C683 C 0.24707 0.8892 0.50095 0.0
C684 C 0.2558 0.90072 0.54915 0.0
C685 C 0.25059 0.90056 0.61994 0.0
C686 C 0.22274 0.86621 0.47343 0.0
C687 C 0.2714 0.91233 0.52702 0.0
H688 H 0.28214 0.86199 0.3285 0.0
H689 H 0.24899 0.90626 0.26569 0.0
H690 H 0.28023 0.87021 0.51058 0.0
H691 H 0.2636 0.85378 0.48995 0.0
H692 H 0.28502 0.85312 0.44616 0.0
H693 H 0.22955 0.92098 0.34264 0.0
H694 H 0.22122 0.90698 0.4127 0.0
H695 H 0.23866 0.92277 0.43016 0.0
H696 H 0.21752 0.86918 0.61335 0.0
H697 H 0.25782 0.90882 0.65731 0.0
H698 H 0.23179 0.85534 0.45536 0.0
H699 H 0.21846 0.87384 0.42624 0.0
H700 H 0.21073 0.86001 0.49795 0.0
H701 H 0.28299 0.90367 0.51338 0.0
H702 H 0.2756 0.92174 0.5692 0.0
H703 H 0.26796 0.9202 0.47945 0.0
C704 C 0.09625 0.24412 0.56852 0.0
C705 C 0.10897 0.23172 0.59286 0.0
C706 C 0.09573 0.24917 0.49763 0.0
C707 C 0.10797 0.24134 0.44989 0.0
C708 C 0.11993 0.22785 0.47316 0.0
C709 C 0.12041 0.22331 0.54466 0.0
C710 C 0.08293 0.26376 0.47496 0.0
C711 C 0.13285 0.21887 0.42322 0.0
C712 C 0.10013 0.24732 0.25447 0.0
C713 C 0.11285 0.26049 0.23789 0.0
C714 C 0.09843 0.24083 0.32325 0.0
C715 C 0.10925 0.24823 0.37697 0.0
C716 C 0.12145 0.26222 0.36111 0.0
C717 C 0.12313 0.26816 0.2915 0.0
C718 C 0.08531 0.22589 0.3382 0.0
C719 C 0.13289 0.27075 0.41748 0.0
H720 H 0.08739 0.25073 0.60554 0.0
H721 H 0.13016 0.21362 0.56318 0.0
H722 H 0.09063 0.27603 0.46156 0.0
H723 H 0.07547 0.25968 0.42713 0.0
H724 H 0.07311 0.26719 0.51676 0.0
H725 H 0.13986 0.20734 0.44794 0.0
H726 H 0.12568 0.21407 0.3757 0.0
H727 H 0.14307 0.22871 0.40565 0.0
H728 H 0.09153 0.24203 0.21348 0.0
H729 H 0.13273 0.27858 0.27873 0.0
H730 H 0.07543 0.23024 0.37826 0.0
H731 H 0.09255 0.21415 0.36012 0.0
H732 H 0.07795 0.22157 0.29032 0.0
H733 H 0.12428 0.27589 0.46056 0.0
H734 H 0.14113 0.28199 0.3969 0.0
H735 H 0.14199 0.26056 0.44062 0.0
C736 C 0.77598 0.09291 0.58976 0.0
C737 C 0.7674 0.10585 0.63111 0.0
C738 C 0.77255 0.09189 0.51718 0.0
C739 C 0.76049 0.10425 0.48607 0.0
C740 C 0.75255 0.11786 0.52734 0.0
C741 C 0.75604 0.11843 0.59935 0.0
C742 C 0.78119 0.0772 0.47446 0.0
C743 C 0.73984 0.13149 0.496 0.0
C744 C 0.75744 0.11412 0.29191 0.0
C745 C 0.74144 0.10538 0.27416 0.0
C746 C 0.76457 0.11284 0.35982 0.0
C747 C 0.75532 0.10272 0.41115 0.0
C748 C 0.73952 0.09329 0.39272 0.0
C749 C 0.73267 0.09486 0.32438 0.0
C750 C 0.78131 0.12326 0.3777 0.0
C751 C 0.72931 0.08234 0.44614 0.0
H752 H 0.7847 0.08314 0.61452 0.0
H753 H 0.74957 0.12859 0.63128 0.0
H754 H 0.77076 0.06765 0.45636 0.0
H755 H 0.78765 0.08288 0.42689 0.0
H756 H 0.7914 0.06967 0.5051 0.0
H757 H 0.73562 0.1418 0.53479 0.0
H758 H 0.74624 0.13836 0.45079 0.0
H759 H 0.72767 0.12463 0.47598 0.0
H760 H 0.76399 0.12268 0.25376 0.0
H761 H 0.72031 0.08809 0.31047 0.0
H762 H 0.79078 0.11485 0.40831 0.0
H763 H 0.77771 0.13495 0.41092 0.0
H764 H 0.78828 0.12827 0.32994 0.0
H765 H 0.73856 0.07334 0.47517 0.0
H766 H 0.71862 0.0741 0.42146 0.0
H767 H 0.72301 0.09142 0.48516 0.0
C768 C 0.8995 0.74959 0.59078 0.0
C769 C 0.88733 0.76267 0.61385 0.0
C770 C 0.89994 0.74421 0.52019 0.0
C771 C 0.88823 0.75243 0.47134 0.0
C772 C 0.87677 0.76647 0.49347 0.0
C773 C 0.87631 0.77129 0.56474 0.0
C774 C 0.91212 0.72896 0.49892 0.0
C775 C 0.86444 0.77587 0.44244 0.0
C776 C 0.89688 0.74606 0.27639 0.0
C777 C 0.88359 0.73358 0.25846 0.0
C778 C 0.89851 0.75243 0.34544 0.0
C779 C 0.88707 0.74554 0.39823 0.0
C780 C 0.87431 0.73216 0.38113 0.0
C781 C 0.87268 0.72638 0.31123 0.0
C782 C 0.91222 0.76674 0.3616 0.0
C783 C 0.86221 0.72413 0.43646 0.0
H784 H 0.90797 0.74276 0.62861 0.0
H785 H 0.86694 0.78145 0.58237 0.0
H786 H 0.90389 0.7171 0.48482 0.0
H787 H 0.92007 0.73263 0.45181 0.0
H788 H 0.92149 0.72508 0.5417 0.0
H789 H 0.85773 0.78768 0.46648 0.0
H790 H 0.87204 0.78037 0.3955 0.0
H791 H 0.85396 0.7664 0.42408 0.0
H792 H 0.90598 0.75091 0.23629 0.0
H793 H 0.86263 0.71647 0.29757 0.0
H794 H 0.92167 0.76193 0.40249 0.0
H795 H 0.90542 0.7788 0.38295 0.0
H796 H 0.92004 0.77072 0.3144 0.0
H797 H 0.87034 0.7187 0.48045 0.0
H798 H 0.85367 0.71319 0.41519 0.0
H799 H 0.85336 0.73467 0.45859 0.0
C800 C 0.76602 0.59725 0.15678 0.0
C801 C 0.75716 0.60823 0.20517 0.0
C802 C 0.75921 0.59489 0.08876 0.0
C803 C 0.74336 0.60403 0.06868 0.0
C804 C 0.73405 0.61467 0.11822 0.0
C805 C 0.74112 0.61669 0.18596 0.0
C806 C 0.76946 0.58338 0.03734 0.0
C807 C 0.71728 0.62483 0.09847 0.0
C808 C 0.74265 0.61773 0.87814 0.0
C809 C 0.7312 0.60491 0.84844 0.0
C810 C 0.74618 0.61789 0.95013 0.0
C811 C 0.73823 0.60472 0.99354 0.0
C812 C 0.72617 0.59205 0.96442 0.0
C813 C 0.72266 0.59237 0.89178 0.0
C814 C 0.75888 0.63184 0.97924 0.0
C815 C 0.71755 0.5778 0.00945 0.0
H816 H 0.77839 0.59066 0.17194 0.0
H817 H 0.73447 0.62553 0.22286 0.0
H818 H 0.76025 0.57405 0.00976 0.0
H819 H 0.77578 0.59204 -0.00312 0.0
H820 H 0.78016 0.57544 0.06349 0.0
H821 H 0.71032 0.6304 0.14526 0.0
H822 H 0.72086 0.63611 0.06308 0.0
H823 H 0.70783 0.61604 0.0695 0.0
H824 H 0.74907 0.6276 0.84469 0.0
H825 H 0.71386 0.58243 0.8686 0.0
H826 H 0.77104 0.6252 0.00049 0.0
H827 H 0.75246 0.6392 0.02321 0.0
H828 H 0.76312 0.64172 0.93881 0.0
H829 H 0.72802 0.56855 0.0295 0.0
H830 H 0.70745 0.56986 0.97992 0.0
H831 H 0.71097 0.58397 0.0558 0.0
C832 C 0.37497 0.7743 0.16638 0.0
C833 C 0.38259 0.76457 0.22154 0.0
C834 C 0.37636 0.76816 0.097 0.0
C835 C 0.38566 0.75196 0.08313 0.0
C836 C 0.3939 0.74243 0.13858 0.0
C837 C 0.39246 0.749 0.2072 0.0
C838 C 0.36765 0.77881 0.03874 0.0
C839 C 0.40396 0.72517 0.1256 0.0
C840 C 0.37178 0.72977 0.9132 0.0
C841 C 0.385 0.73609 0.86713 0.0
C842 C 0.37238 0.73402 0.98486 0.0
C843 C 0.38644 0.74494 0.0105 0.0
C844 C 0.40048 0.75031 0.96523 0.0
C845 C 0.39965 0.74571 0.894 0.0
C846 C 0.35739 0.72774 0.03221 0.0
C847 C 0.4157 0.76197 0.99084 0.0
H848 H 0.3676 0.7865 0.17773 0.0
H849 H 0.39897 0.7419 0.24987 0.0
H850 H 0.37772 0.78221 -0.00208 0.0
H851 H 0.35709 0.77063 0.01307 0.0
H852 H 0.36148 0.79143 0.05816 0.0
H853 H 0.40986 0.71957 0.17453 0.0
H854 H 0.39477 0.71504 0.10263 0.0
H855 H 0.41488 0.7274 0.08702 0.0
H856 H 0.36053 0.72217 0.89282 0.0
H857 H 0.40998 0.75056 0.85874 0.0
H858 H 0.3491 0.73939 0.04828 0.0
H859 H 0.36292 0.72164 0.08078 0.0
H860 H 0.34856 0.71779 0.00591 0.0
H861 H 0.41053 0.77557 0.00296 0.0
H862 H 0.42654 0.76324 0.95111 0.0
H863 H 0.42152 0.75648 0.03999 0.0
C864 C 0.23362 0.4018 0.16578 0.0
C865 C 0.24239 0.39075 0.21422 0.0
C866 C 0.24045 0.40408 0.09777 0.0
C867 C 0.25621 0.3948 0.07779 0.0
C868 C 0.2655 0.38419 0.12751 0.0
C869 C 0.25842 0.38224 0.19522 0.0
C870 C 0.23022 0.41557 0.04616 0.0
C871 C 0.28221 0.37392 0.10791 0.0
C872 C 0.25608 0.38042 0.8881 0.0
C873 C 0.26743 0.39311 0.85701 0.0
C874 C 0.2529 0.3805 0.96032 0.0
C875 C 0.26112 0.39376 0.00251 0.0
C876 C 0.27313 0.40626 0.97199 0.0
C877 C 0.27628 0.4057 0.89913 0.0
C878 C 0.24024 0.36673 0.99096 0.0
C879 C 0.28204 0.42059 0.01571 0.0
H880 H 0.22127 0.40844 0.18078 0.0
H881 H 0.265 0.37336 0.23216 0.0
H882 H 0.23948 0.42469 0.01779 0.0
H883 H 0.22369 0.40686 0.00639 0.0
H884 H 0.2197 0.42372 0.07233 0.0
H885 H 0.2893 0.36862 0.15489 0.0
H886 H 0.27852 0.36244 0.07371 0.0
H887 H 0.29158 0.38253 0.07776 0.0
H888 H 0.24943 0.37051 0.85555 0.0
H889 H 0.28501 0.41553 0.87484 0.0
H890 H 0.22818 0.37351 0.01242 0.0
H891 H 0.24678 0.35951 0.03502 0.0
H892 H 0.2358 0.35672 0.95135 0.0
H893 H 0.27176 0.43013 0.03512 0.0
H894 H 0.29224 0.4282 0.98535 0.0
H895 H 0.28858 0.41457 0.06248 0.0
C896 C 0.60179 0.24865 0.21706 0.0
C897 C 0.61509 0.23618 0.23515 0.0
C898 C 0.60015 0.25504 0.14805 0.0
C899 C 0.61164 0.24825 0.0953 0.0
C900 C 0.62452 0.235 0.11242 0.0
C901 C 0.62615 0.22919 0.18227 0.0
C902 C 0.58628 0.2692 0.13177 0.0
C903 C 0.63672 0.2271 0.05711 0.0
C904 C 0.59898 0.25181 0.90291 0.0
C905 C 0.61096 0.26501 0.87933 0.0
C906 C 0.59867 0.24656 0.97365 0.0
C907 C 0.61032 0.25501 0.02209 0.0
C908 C 0.62156 0.26918 -0.00054 0.0
C909 C 0.6219 0.27388 0.92807 0.0
C910 C 0.58671 0.23119 -0.00451 0.0
C911 C 0.63382 0.27882 0.05007 0.0
H912 H 0.5925 0.25337 0.25645 0.0
H913 H 0.63631 0.21937 0.1957 0.0
H914 H 0.59291 0.28123 0.10926 0.0
H915 H 0.57672 0.26416 0.09175 0.0
H916 H 0.57861 0.27332 0.17913 0.0
H917 H 0.64545 0.21633 0.07847 0.0
H918 H 0.62866 0.22149 0.0133 0.0
H919 H 0.64538 0.23776 0.0347 0.0
H920 H 0.59058 0.2448 0.86539 0.0
H921 H 0.63111 0.28414 0.91005 0.0
H922 H 0.57876 0.23484 0.04261 0.0
H923 H 0.59511 0.21946 0.00979 0.0
H924 H 0.57735 0.22711 0.95296 0.0
H925 H 0.62621 0.28329 0.09703 0.0
H926 H 0.64033 0.29068 0.02565 0.0
H927 H 0.64444 0.26953 0.06848 0.0
C928 C 0.72556 0.40439 0.1108 0.0
C929 C 0.73543 0.39238 0.15201 0.0
C930 C 0.72793 0.40483 0.03748 0.0
C931 C 0.74019 0.39278 0.00573 0.0
C932 C 0.74941 0.38003 0.04718 0.0
C933 C 0.74699 0.38009 0.11979 0.0
C934 C 0.71797 0.41861 0.99455 0.0
C935 C 0.76236 0.36672 0.01529 0.0
C936 C 0.7426 0.38047 0.81404 0.0
C937 C 0.75835 0.38932 0.79403 0.0
C938 C 0.73552 0.38267 0.88165 0.0
C939 C 0.74452 0.39391 0.93001 0.0
C940 C 0.75984 0.4037 0.90853 0.0
C941 C 0.76669 0.40113 0.84079 0.0
C942 C 0.71927 0.37187 0.90285 0.0
C943 C 0.76971 0.41593 0.95857 0.0
H944 H 0.71663 0.41388 0.13603 0.0
H945 H 0.7544 0.37058 0.15174 0.0
H946 H 0.72757 0.4288 0.9748 0.0
H947 H 0.71162 0.41227 0.94804 0.0
H948 H 0.70746 0.42555 0.02573 0.0
H949 H 0.76752 0.35697 0.05456 0.0
H950 H 0.75577 0.35915 0.97226 0.0
H951 H 0.77395 0.37395 0.99219 0.0
H952 H 0.73631 0.3711 0.77818 0.0
H953 H 0.77879 0.40809 0.82482 0.0
H954 H 0.70982 0.38015 0.93403 0.0
H955 H 0.72356 0.3605 0.93647 0.0
H956 H 0.71207 0.36637 0.8565 0.0
H957 H 0.76015 0.42464 0.98736 0.0
H958 H 0.77962 0.42454 0.93096 0.0
H959 H 0.77696 0.40773 -0.00189 0.0
C960 C 0.59714 0.74556 0.09481 0.0
C961 C 0.61135 0.73543 0.12242 0.0
C962 C 0.59662 0.74999 0.02334 0.0
C963 C 0.61052 0.74398 0.97871 0.0
C964 C 0.62404 0.73249 0.00507 0.0
C965 C 0.62431 0.72836 0.07685 0.0
C966 C 0.58193 0.76219 -0.00313 0.0
C967 C 0.63889 0.72555 0.95848 0.0
C968 C 0.60575 0.74841 0.7816 0.0
C969 C 0.61621 0.76364 0.76839 0.0
C970 C 0.60365 0.74186 0.85001 0.0
C971 C 0.61193 0.75103 0.90628 0.0
C972 C 0.62191 0.76687 0.89344 0.0
C973 C 0.62389 0.77304 0.82432 0.0
C974 C 0.59282 0.72501 0.86191 0.0
C975 C 0.63075 0.77711 0.95255 0.0
H976 H 0.58699 0.75095 0.12964 0.0
H977 H 0.6352 0.72035 0.09777 0.0
H978 H 0.58761 0.77564 0.98567 0.0
H979 H 0.57619 0.75701 0.94708 0.0
H980 H 0.57093 0.76375 0.03579 0.0
H981 H 0.64716 0.71519 0.98517 0.0
H982 H 0.63328 0.71974 0.90952 0.0
H983 H 0.64776 0.73683 0.94307 0.0
H984 H 0.59923 0.74158 0.73826 0.0
H985 H 0.63172 0.78498 0.81378 0.0
H986 H 0.58182 0.72767 0.89974 0.0
H987 H 0.60146 0.71448 0.88534 0.0
H988 H 0.58692 0.71973 0.81244 0.0
H989 H 0.62061 0.78094 0.99248 0.0
H990 H 0.63759 0.78945 0.9338 0.0
H991 H 0.64078 0.76846 0.97909 0.0
C992 C 0.25418 0.61733 0.11754 0.0
C993 C 0.2657 0.60458 0.14728 0.0
C994 C 0.25101 0.61774 0.04534 0.0
C995 C 0.2594 0.6049 0.00174 0.0
C996 C 0.27153 0.59231 0.03094 0.0
C997 C 0.27469 0.59239 0.10385 0.0
C998 C 0.23821 0.63161 0.01617 0.0
C999 C 0.2806 0.5784 0.98569 0.0
C1000 C 0.2321 0.59787 0.83723 0.0
C1001 C 0.24084 0.6093 0.79014 0.0
C1002 C 0.23888 0.59515 0.90505 0.0
C1003 C 0.25455 0.6044 0.92631 0.0
C1004 C 0.2638 0.61544 0.87795 0.0
C1005 C 0.25678 0.61779 0.81029 0.0
C1006 C 0.22871 0.58319 0.95517 0.0
C1007 C 0.28039 0.62572 0.89901 0.0
H1008 H 0.24743 0.62696 0.15109 0.0
H1009 H 0.28357 0.58253 0.12709 0.0
H1010 H 0.24471 0.63922 0.97303 0.0
H1011 H 0.22624 0.62487 0.99381 0.0
H1012 H 0.23366 0.64127 0.05687 0.0
H1013 H 0.29079 0.5706 0.01535 0.0
H1014 H 0.2704 0.56896 0.96478 0.0
H1015 H 0.28718 0.58484 0.9399 0.0
H1016 H 0.21982 0.59122 0.82124 0.0
H1017 H 0.26336 0.62692 0.77426 0.0
H1018 H 0.22206 0.59153 -0.00418 0.0
H1019 H 0.23802 0.57394 0.98263 0.0
H1020 H 0.21828 0.57514 0.9279 0.0
H1021 H 0.27656 0.63686 0.93465 0.0
H1022 H 0.28744 0.63149 0.85281 0.0
H1023 H 0.28984 0.61696 0.92811 0.0
C1024 C 0.40111 0.25261 0.08061 0.0
C1025 C 0.38854 0.26521 0.10451 0.0
C1026 C 0.40161 0.24744 0.00984 0.0
C1027 C 0.38951 0.25536 0.96174 0.0
C1028 C 0.37767 0.269 0.98461 0.0
C1029 C 0.3772 0.27365 0.05601 0.0
C1030 C 0.41426 0.23267 0.98763 0.0
C1031 C 0.3649 0.27807 0.93431 0.0
C1032 C 0.3976 0.24931 0.76648 0.0
C1033 C 0.38473 0.23632 0.74946 0.0
C1034 C 0.39927 0.25575 0.83536 0.0
C1035 C 0.38828 0.24847 0.88877 0.0
C1036 C 0.37594 0.23463 0.8725 0.0
C1037 C 0.37428 0.22875 0.80279 0.0
C1038 C 0.41254 0.27053 0.85071 0.0
C1039 C 0.36431 0.22622 0.92854 0.0
H1040 H 0.40987 0.24596 0.11789 0.0
H1041 H 0.36755 0.28347 0.07423 0.0
H1042 H 0.40641 0.22051 0.97399 0.0
H1043 H 0.42186 0.23664 0.94004 0.0
H1044 H 0.42394 0.22912 0.02977 0.0
H1045 H 0.35795 0.28967 0.95879 0.0
H1046 H 0.37219 0.2828 0.88697 0.0
H1047 H 0.35463 0.26831 0.91648 0.0
H1048 H 0.40633 0.25451 0.72576 0.0
H1049 H 0.36457 0.21846 0.78971 0.0
H1050 H 0.4223 0.26606 0.89106 0.0
H1051 H 0.40541 0.28236 0.87244 0.0
H1052 H 0.42004 0.27477 0.80306 0.0
H1053 H 0.37279 0.22101 0.97191 0.0
H1054 H 0.35601 0.21505 0.90772 0.0
H1055 H 0.35526 0.23649 0.95135 0.0
C1056 C 0.31065 0.14684 0.12065 0.0
C1057 C 0.29297 0.14777 0.14521 0.0
C1058 C 0.32407 0.15781 0.1497 0.0
C1059 C 0.31949 0.17027 0.20296 0.0
C1060 C 0.30156 0.17148 0.22674 0.0
C1061 C 0.28857 0.16005 0.19822 0.0
C1062 C 0.34314 0.1559 0.12426 0.0
C1063 C 0.29604 0.18492 0.2821 0.0
C1064 C 0.35315 0.1901 0.33066 0.0
C1065 C 0.35617 0.20702 0.30094 0.0
C1066 C 0.34196 0.17758 0.29727 0.0
C1067 C 0.33328 0.18231 0.23368 0.0
C1068 C 0.33662 0.19922 0.20264 0.0
C1069 C 0.34816 0.21129 0.2363 0.0
C1070 C 0.33904 0.15949 0.33101 0.0
C1071 C 0.32734 0.20492 0.13567 0.0
H1072 H 0.31408 0.13723 0.08006 0.0
H1073 H 0.27486 0.16088 0.21689 0.0
H1074 H 0.34795 0.16881 0.1023 0.0
H1075 H 0.35203 0.15249 0.1691 0.0
H1076 H 0.34453 0.14537 0.08334 0.0
H1077 H 0.28141 0.18451 0.29312 0.0
H1078 H 0.30335 0.18226 0.33178 0.0
H1079 H 0.29963 0.19867 0.26486 0.0
H1080 H 0.35946 0.18666 0.38021 0.0
H1081 H 0.35039 0.22438 0.21308 0.0
H1082 H 0.34103 0.14865 0.29183 0.0
H1083 H 0.32504 0.15848 0.35025 0.0
H1084 H 0.34824 0.15717 0.37603 0.0
H1085 H 0.32928 0.19471 0.09399 0.0
H1086 H 0.3323 0.21803 0.11594 0.0
H1087 H 0.3127 0.20602 0.1452 0.0
C1088 C 0.81402 0.36029 0.32491 0.0
C1089 C 0.80231 0.35313 0.37504 0.0
C1090 C 0.82653 0.34933 0.29058 0.0
C1091 C 0.82669 0.33069 0.30466 0.0
C1092 C 0.81513 0.32351 0.35671 0.0
C1093 C 0.80324 0.33494 0.3922 0.0
C1094 C 0.83912 0.35757 0.23752 0.0
C1095 C 0.81454 0.30364 0.37185 0.0
C1096 C 0.84168 0.29956 0.15822 0.0
C1097 C 0.85812 0.29341 0.18421 0.0
C1098 C 0.83134 0.3118 0.19686 0.0
C1099 C 0.83797 0.31849 0.26162 0.0
C1100 C 0.855 0.31297 0.28623 0.0
C1101 C 0.86472 0.30019 0.24785 0.0
C1102 C 0.81302 0.31699 0.16984 0.0
C1103 C 0.86281 0.32029 0.3536 0.0
H1104 H 0.81314 0.37441 0.31173 0.0
H1105 H 0.79391 0.32947 0.43029 0.0
H1106 H 0.85304 0.35287 0.24669 0.0
H1107 H 0.83523 0.35332 0.18378 0.0
H1108 H 0.83893 0.37246 0.23961 0.0
H1109 H 0.80518 0.30032 0.41538 0.0
H1110 H 0.8102 0.29633 0.32397 0.0
H1111 H 0.82808 0.29865 0.3858 0.0
H1112 H 0.83652 0.29414 0.10936 0.0
H1113 H 0.87751 0.29545 0.26766 0.0
H1114 H 0.81217 0.33172 0.16297 0.0
H1115 H 0.80264 0.31311 0.2088 0.0
H1116 H 0.8098 0.31048 0.11884 0.0
H1117 H 0.86217 0.33516 0.35363 0.0
H1118 H 0.87696 0.3161 0.36137 0.0
H1119 H 0.85483 0.31551 0.39908 0.0
C1120 C 0.66003 0.80039 0.34863 0.0
C1121 C 0.64221 0.79751 0.32878 0.0
C1122 C 0.67081 0.81256 0.31153 0.0
C1123 C 0.66331 0.8225 0.25521 0.0
C1124 C 0.64497 0.82035 0.23791 0.0
C1125 C 0.63473 0.80754 0.27393 0.0
C1126 C 0.69044 0.81405 0.33015 0.0
C1127 C 0.6363 0.83123 0.18024 0.0
C1128 C 0.6911 0.86235 0.19636 0.0
C1129 C 0.69936 0.85553 0.13589 0.0
C1130 C 0.67859 0.85206 0.23385 0.0
C1131 C 0.67494 0.8343 0.21192 0.0
C1132 C 0.6831 0.82747 0.15018 0.0
C1133 C 0.69498 0.83834 0.11207 0.0
C1134 C 0.66959 0.86007 0.29762 0.0
C1135 C 0.67996 0.80842 0.12625 0.0
H1136 H 0.66579 0.79239 0.39054 0.0
H1137 H 0.6209 0.80523 0.25889 0.0
H1138 H 0.69873 0.80998 0.28439 0.0
H1139 H 0.69393 0.82815 0.34262 0.0
H1140 H 0.69412 0.80552 0.3758 0.0
H1141 H 0.62149 0.82965 0.17965 0.0
H1142 H 0.63956 0.84566 0.18666 0.0
H1143 H 0.64161 0.82695 0.12845 0.0
H1144 H 0.6945 0.87571 0.21445 0.0
H1145 H 0.70158 0.83306 0.0657 0.0
H1146 H 0.67447 0.8533 0.34586 0.0
H1147 H 0.65487 0.85795 0.29489 0.0
H1148 H 0.67227 0.87467 0.30266 0.0
H1149 H 0.68427 0.79897 0.16806 0.0
H1150 H 0.68739 0.80518 0.07725 0.0
H1151 H 0.66548 0.80609 0.11695 0.0
C1152 C 0.2069 0.65903 0.31175 0.0
C1153 C 0.20198 0.64679 0.36412 0.0
C1154 C 0.19415 0.67013 0.27991 0.0
C1155 C 0.17591 0.66856 0.29942 0.0
C1156 C 0.17079 0.65607 0.35186 0.0
C1157 C 0.18399 0.64549 0.38457 0.0
C1158 C 0.20025 0.68366 0.22582 0.0
C1159 C 0.1514 0.65373 0.37256 0.0
C1160 C 0.14763 0.70941 0.25961 0.0
C1161 C 0.14086 0.70527 0.19266 0.0
C1162 C 0.15849 0.69728 0.29622 0.0
C1163 C 0.16243 0.68044 0.26576 0.0
C1164 C 0.15491 0.67579 0.19982 0.0
C1165 C 0.14436 0.68837 0.16357 0.0
C1166 C 0.16652 0.70291 0.36574 0.0
C1167 C 0.15847 0.65776 0.16658 0.0
H1168 H 0.22086 0.66011 0.29631 0.0
H1169 H 0.18019 0.63587 0.42461 0.0
H1170 H 0.19375 0.68087 0.17454 0.0
H1171 H 0.19615 0.69735 0.24211 0.0
H1172 H 0.21502 0.68352 0.21822 0.0
H1173 H 0.1496 0.64311 0.41292 0.0
H1174 H 0.14598 0.6665 0.39351 0.0
H1175 H 0.14331 0.6502 0.3256 0.0
H1176 H 0.145 0.72245 0.28256 0.0
H1177 H 0.13899 0.68502 0.11226 0.0
H1178 H 0.18126 0.70433 0.35999 0.0
H1179 H 0.16409 0.69254 0.40639 0.0
H1180 H 0.16098 0.71586 0.38479 0.0
H1181 H 0.17271 0.65694 0.15012 0.0
H1182 H 0.14989 0.65539 0.11974 0.0
H1183 H 0.15611 0.64686 0.20519 0.0
C1184 C 0.34134 0.79079 0.71427 0.0
C1185 C 0.35361 0.79561 0.6619 0.0
C1186 C 0.33047 0.80367 0.74651 0.0
C1187 C 0.33237 0.82192 0.7276 0.0
C1188 C 0.34499 0.82694 0.67552 0.0
C1189 C 0.35527 0.81363 0.6422 0.0
C1190 C 0.31677 0.79768 0.80012 0.0
C1191 C 0.34774 0.84634 0.65568 0.0
C1192 C 0.29194 0.85083 0.76715 0.0
C1193 C 0.29604 0.85731 0.83455 0.0
C1194 C 0.30396 0.83986 0.73049 0.0
C1195 C 0.32066 0.83553 0.76136 0.0
C1196 C 0.3253 0.84279 0.82773 0.0
C1197 C 0.31283 0.85345 0.86401 0.0
C1198 C 0.29833 0.83211 0.66049 0.0
C1199 C 0.3432 0.83883 0.86141 0.0
H1200 H 0.33999 0.77681 0.72905 0.0
H1201 H 0.36492 0.81732 0.6021 0.0
H1202 H 0.3196 0.80401 0.85168 0.0
H1203 H 0.30318 0.80205 0.78366 0.0
H1204 H 0.31665 0.78289 0.80719 0.0
H1205 H 0.35857 0.84806 0.61616 0.0
H1206 H 0.33515 0.852 0.63397 0.0
H1207 H 0.35118 0.85428 0.70315 0.0
H1208 H 0.27899 0.85375 0.74393 0.0
H1209 H 0.31616 0.85859 0.91568 0.0
H1210 H 0.29663 0.81738 0.66564 0.0
H1211 H 0.30882 0.83445 0.62027 0.0
H1212 H 0.28552 0.83793 0.64123 0.0
H1213 H 0.3437 0.82456 0.87772 0.0
H1214 H 0.34566 0.84732 0.90844 0.0
H1215 H 0.35422 0.84101 0.82315 0.0
C1216 C 0.14281 0.30808 0.81923 0.0
C1217 C 0.14065 0.29094 0.79025 0.0
C1218 C 0.15374 0.32089 0.78623 0.0
C1219 C 0.16307 0.31624 0.72399 0.0
C1220 C 0.16062 0.29908 0.69378 0.0
C1221 C 0.14928 0.28672 0.72685 0.0
C1222 C 0.15569 0.33923 0.81894 0.0
C1223 C 0.17065 0.29344 0.6284 0.0
C1224 C 0.18545 0.35155 0.60944 0.0
C1225 C 0.203 0.35125 0.63569 0.0
C1226 C 0.17211 0.34053 0.63878 0.0
C1227 C 0.17666 0.32863 0.69403 0.0
C1228 C 0.19444 0.32813 0.71986 0.0
C1229 C 0.20732 0.33962 0.69102 0.0
C1230 C 0.15317 0.34172 0.61119 0.0
C1231 C 0.19996 0.31528 0.77738 0.0
H1232 H 0.136 0.31145 0.8678 0.0
H1233 H 0.14772 0.27346 0.70429 0.0
H1234 H 0.16946 0.34085 0.84001 0.0
H1235 H 0.15366 0.3498 0.77868 0.0
H1236 H 0.14601 0.3414 0.86249 0.0
H1237 H 0.16643 0.28 0.60932 0.0
H1238 H 0.16854 0.30331 0.58561 0.0
H1239 H 0.18525 0.29307 0.63964 0.0
H1240 H 0.18207 0.36066 0.56705 0.0
H1241 H 0.22093 0.33926 0.71104 0.0
H1242 H 0.14382 0.34481 0.65491 0.0
H1243 H 0.14904 0.32862 0.58885 0.0
H1244 H 0.1517 0.35216 0.56995 0.0
H1245 H 0.19208 0.31795 0.82571 0.0
H1246 H 0.21444 0.31634 0.79043 0.0
H1247 H 0.19706 0.3013 0.76103 0.0
C1248 C 0.70798 0.15991 0.8046 0.0
C1249 C 0.70317 0.14732 0.85591 0.0
C1250 C 0.69517 0.17128 0.77458 0.0
C1251 C 0.677 0.1697 0.79501 0.0
C1252 C 0.67203 0.15701 0.84689 0.0
C1253 C 0.68526 0.14609 0.87759 0.0
C1254 C 0.70112 0.18497 0.72087 0.0
C1255 C 0.65271 0.15472 0.86877 0.0
C1256 C 0.64848 0.21044 0.75557 0.0
C1257 C 0.64161 0.20621 0.68888 0.0
C1258 C 0.65945 0.19838 0.7921 0.0
C1259 C 0.6634 0.18152 0.76179 0.0
C1260 C 0.65576 0.17678 0.69617 0.0
C1261 C 0.6451 0.18927 0.66005 0.0
C1262 C 0.66759 0.20409 0.8613 0.0
C1263 C 0.65935 0.15874 0.66302 0.0
H1264 H 0.72186 0.16096 0.78822 0.0
H1265 H 0.68154 0.13624 0.91686 0.0
H1266 H 0.69458 0.18224 0.66962 0.0
H1267 H 0.69696 0.1986 0.73767 0.0
H1268 H 0.71588 0.18494 0.71299 0.0
H1269 H 0.65107 0.14427 0.90991 0.0
H1270 H 0.64731 0.16757 0.88906 0.0
H1271 H 0.64449 0.15095 0.82244 0.0
H1272 H 0.64585 0.22351 0.77829 0.0
H1273 H 0.63966 0.18584 0.60895 0.0
H1274 H 0.68228 0.20577 0.85487 0.0
H1275 H 0.66546 0.19366 0.90196 0.0
H1276 H 0.66189 0.21694 0.88069 0.0
H1277 H 0.67358 0.15796 0.64632 0.0
H1278 H 0.65073 0.1563 0.61635 0.0
H1279 H 0.65707 0.14785 0.70175 0.0
C1280 C 0.78975 0.65886 0.68563 0.0
C1281 C 0.79468 0.64719 0.63126 0.0
C1282 C 0.80239 0.67 0.71797 0.0
C1283 C 0.82055 0.6691 0.69672 0.0
C1284 C 0.82568 0.65724 0.64208 0.0
C1285 C 0.81259 0.64657 0.60915 0.0
C1286 C 0.79627 0.68282 0.77461 0.0
C1287 C 0.84499 0.65566 0.61925 0.0
C1288 C 0.84844 0.71005 0.73991 0.0
C1289 C 0.85588 0.7053 0.80511 0.0
C1290 C 0.83738 0.69816 0.70293 0.0
C1291 C 0.83394 0.68095 0.73111 0.0
C1292 C 0.84204 0.67577 0.79537 0.0
C1293 C 0.85276 0.68811 0.83213 0.0
C1294 C 0.82869 0.70437 0.6354 0.0
C1295 C 0.83901 0.65736 0.82614 0.0
H1296 H 0.77587 0.65945 0.70244 0.0
H1297 H 0.81642 0.63742 0.56754 0.0
H1298 H 0.80315 0.67971 0.82484 0.0
H1299 H 0.79991 0.69676 0.76005 0.0
H1300 H 0.78156 0.6822 0.7835 0.0
H1301 H 0.84683 0.64551 0.57712 0.0
H1302 H 0.84992 0.66878 0.5998 0.0
H1303 H 0.85347 0.65189 0.66486 0.0
H1304 H 0.85075 0.72334 0.71869 0.0
H1305 H 0.85864 0.68431 0.88208 0.0
H1306 H 0.81396 0.70522 0.64281 0.0
H1307 H 0.83119 0.69458 0.59265 0.0
H1308 H 0.83369 0.71771 0.61827 0.0
H1309 H 0.82485 0.65604 0.84321 0.0
H1310 H 0.84782 0.65473 0.8721 0.0
H1311 H 0.84148 0.6469 0.78579 0.0
C1312 C 0.23959 0.03662 0.05901 0.0
C1313 C 0.2556 0.04527 0.07644 0.0
C1314 C 0.23936 0.01816 0.04533 0.0
C1315 C 0.25552 0.00826 0.05013 0.0
C1316 C 0.2716 0.01694 0.07045 0.0
C1317 C 0.27147 0.03546 0.08279 0.0
C1318 C 0.22202 0.00941 0.02307 0.0
C1319 C 0.28902 0.00675 0.07716 0.0
C1320 C 0.25226 0.95764 0.06232 0.0
C1321 C 0.2562 0.95251 0.99316 0.0
C1322 C 0.25217 0.97575 0.08192 0.0
C1323 C 0.25577 0.98901 0.03068 0.0
C1324 C 0.25957 0.98391 0.96054 0.0
C1325 C 0.25988 0.96567 0.94276 0.0
C1326 C 0.24826 0.98069 0.15735 0.0
C1327 C 0.2633 0.99771 0.90432 0.0
H1328 H 0.22741 0.04444 0.05367 0.0
H1329 H 0.28381 0.04238 0.09604 0.0
H1330 H 0.22334 0.00423 0.96864 0.0
H1331 H 0.219 0.99779 0.05748 0.0
H1332 H 0.21051 0.01885 0.02489 0.0
H1333 H 0.3 0.01524 0.09841 0.0
H1334 H 0.28723 0.99498 0.11213 0.0
H1335 H 0.29315 0.00162 0.0249 0.0
H1336 H 0.24911 0.94747 0.10109 0.0
H1337 H 0.26319 0.96169 0.88953 0.0
H1338 H 0.23606 0.98917 0.15998 0.0
H1339 H 0.2595 0.98868 0.17922 0.0
H1340 H 0.2462 0.96871 0.1911 0.0
H1341 H 0.25186 0.00716 0.90021 0.0
H1342 H 0.2656 0.99152 0.85198 0.0
H1343 H 0.27531 0.00569 0.91866 0.0
C1344 C 0.0317 0.26097 0.89709 0.0
C1345 C 0.04383 0.25011 0.93341 0.0
C1346 C 0.0135 0.26112 0.91555 0.0
C1347 C 0.00741 0.24983 0.97046 0.0
C1348 C 0.01965 0.23849 0.00599 0.0
C1349 C 0.03783 0.23895 0.98752 0.0
C1350 C 0.00089 0.27365 0.87753 0.0
C1351 C 0.01358 0.22599 0.06369 0.0
C1352 C 0.9644 0.26161 0.06613 0.0
C1353 C 0.95201 0.25077 0.03107 0.0
C1354 C 0.98251 0.26157 0.04642 0.0
C1355 C 0.98827 0.25008 0.99159 0.0
C1356 C 0.97576 0.23886 0.95697 0.0
C1357 C 0.95767 0.23952 0.97664 0.0
C1358 C 0.99541 0.27399 0.08349 0.0
C1359 C 0.98149 0.22615 0.89942 0.0
H1360 H 0.03657 0.26966 0.85556 0.0
H1361 H 0.04739 0.23059 0.01526 0.0
H1362 H 0.98987 0.26592 0.85276 0.0
H1363 H 0.99468 0.28305 0.91563 0.0
H1364 H 0.0078 0.28157 0.83617 0.0
H1365 H 0.02467 0.21745 0.08368 0.0
H1366 H 0.00805 0.23385 0.1082 0.0
H1367 H 0.00268 0.21718 0.04412 0.0
H1368 H 0.95981 0.27037 0.10792 0.0
H1369 H 0.94792 0.23116 0.94991 0.0
H1370 H 0.00192 0.28299 0.04469 0.0
H1371 H 0.00618 0.26611 0.10919 0.0
H1372 H 0.98867 0.28234 0.12399 0.0
H1373 H 0.98733 0.23379 0.85496 0.0
H1374 H 0.97016 0.21796 0.87931 0.0
H1375 H 0.99208 0.217 0.91931 0.0
C1376 C 0.73017 0.96299 0.03825 0.0
C1377 C 0.73883 0.95094 0.99336 0.0
C1378 C 0.72988 0.98137 0.023 0.0
C1379 C 0.73877 0.98776 0.96214 0.0
C1380 C 0.74744 0.97555 0.91644 0.0
C1381 C 0.74721 0.9572 0.93235 0.0
C1382 C 0.72022 0.99397 0.07226 0.0
C1383 C 0.75732 0.98191 0.85181 0.0
C1384 C 0.7268 0.03422 0.89573 0.0
C1385 C 0.74017 0.04455 0.92746 0.0
C1386 C 0.72626 0.0156 0.90587 0.0
C1387 C 0.73956 0.00729 0.94793 0.0
C1388 C 0.75337 0.01775 0.97844 0.0
C1389 C 0.75339 0.03634 0.96833 0.0
C1390 C 0.7112 0.0049 0.8734 0.0
C1391 C 0.76792 0.00934 0.02275 0.0
H1392 H 0.72355 0.95798 0.08504 0.0
H1393 H 0.75395 0.94776 0.89799 0.0
H1394 H 0.72993 0.00347 0.09606 0.0
H1395 H 0.71026 0.00205 0.04269 0.0
H1396 H 0.7132 0.98673 0.11521 0.0
H1397 H 0.76299 0.97062 0.82087 0.0
H1398 H 0.74818 0.98972 0.81747 0.0
H1399 H 0.76842 0.99097 0.86746 0.0
H1400 H 0.71654 0.0408 0.86465 0.0
H1401 H 0.76364 0.04455 0.99288 0.0
H1402 H 0.70308 0.99855 0.91547 0.0
H1403 H 0.71671 0.99394 0.84043 0.0
H1404 H 0.70224 0.01332 0.84045 0.0
H1405 H 0.76195 0.00324 0.07049 0.0
H1406 H 0.77821 0.01924 0.03934 0.0
H1407 H 0.77462 0.99843 0.99302 0.0
C1408 C 0.9656 0.74071 0.90609 0.0
C1409 C 0.95273 0.74479 0.95719 0.0
C1410 C 0.98394 0.74118 0.92219 0.0
C1411 C 0.98944 0.74555 0.99134 0.0
C1412 C 0.97647 0.74969 0.04312 0.0
C1413 C 0.95825 0.74944 0.02516 0.0
C1414 C 0.99742 0.7369 0.86541 0.0
C1415 C 0.98183 0.75424 0.11758 0.0
C1416 C 0.03542 0.72974 0.04941 0.0
C1417 C 0.04538 0.74554 0.04392 0.0
C1418 C 0.0171 0.72958 0.03308 0.0
C1419 C 0.00876 0.74558 0.00979 0.0
C1420 C 0.01888 0.76159 0.00412 0.0
C1421 C 0.03713 0.76139 0.02184 0.0
C1422 C 0.00667 0.71234 0.04068 0.0
C1423 C 0.0105 0.77882 0.97859 0.0
H1424 H 0.96131 0.73694 0.8537 0.0
H1425 H 0.9483 0.75291 0.06436 0.0
H1426 H 0.00706 0.74813 0.85968 0.0
H1427 H 0.00525 0.72483 0.88028 0.0
H1428 H 0.99095 0.73441 0.81371 0.0
H1429 H 0.97005 0.75691 0.15174 0.0
H1430 H 0.98964 0.74302 0.14063 0.0
H1431 H 0.99061 0.76624 0.11786 0.0
H1432 H 0.04201 0.71753 0.06655 0.0
H1433 H 0.04505 0.77353 0.01745 0.0
H1434 H 0.00103 0.70832 0.98909 0.0
H1435 H 0.99523 0.71435 0.07708 0.0
H1436 H 0.0151 0.70119 0.06092 0.0
H1437 H 0.00482 0.77685 0.92523 0.0
H1438 H 0.02029 0.79004 0.97664 0.0
H1439 H -0.00073 0.78271 0.01363 0.0
C1440 C 0.77015 0.46334 0.43176 0.0
C1441 C 0.75887 0.45179 0.46901 0.0
C1442 C 0.7699 0.48184 0.44491 0.0
C1443 C 0.75788 0.48881 0.49566 0.0
C1444 C 0.74625 0.47713 0.53255 0.0
C1445 C 0.74703 0.45867 0.51919 0.0
C1446 C 0.78267 0.49388 0.40536 0.0
C1447 C 0.73304 0.48411 0.58609 0.0
C1448 C 0.76784 0.53422 0.57675 0.0
C1449 C 0.7571 0.54543 0.53566 0.0
C1450 C 0.76826 0.51568 0.56426 0.0
C1451 C 0.75745 0.50835 0.51017 0.0
C1452 C 0.74631 0.51969 0.46951 0.0
C1453 C 0.74641 0.53818 0.48239 0.0
C1454 C 0.78049 0.50401 0.60792 0.0
C1455 C 0.73438 0.51232 0.41225 0.0
H1456 H 0.7794 0.45782 0.39349 0.0
H1457 H 0.73836 0.44957 0.54784 0.0
H1458 H 0.77506 0.50413 0.37547 0.0
H1459 H 0.79143 0.50112 0.44301 0.0
H1460 H 0.79127 0.48629 0.36809 0.0
H1461 H 0.72464 0.47327 0.6088 0.0
H1462 H 0.7403 0.49091 0.62946 0.0
H1463 H 0.72412 0.49422 0.56145 0.0
H1464 H 0.7762 0.54002 0.61745 0.0
H1465 H 0.73814 0.54703 0.45082 0.0
H1466 H 0.79024 0.49708 0.57329 0.0
H1467 H 0.77259 0.4935 0.63514 0.0
H1468 H 0.78802 0.51183 0.64793 0.0
H1469 H 0.74266 0.50579 0.37114 0.0
H1470 H 0.72608 0.5229 0.38713 0.0
H1471 H 0.72534 0.50191 0.43418 0.0
C1472 C 0.46369 0.74471 0.56737 0.0
C1473 C 0.4524 0.75728 0.53511 0.0
C1474 C 0.48226 0.74501 0.5559 0.0
C1475 C 0.48952 0.7574 0.50727 0.0
C1476 C 0.47815 0.76985 0.47324 0.0
C1477 C 0.45983 0.77006 0.48962 0.0
C1478 C 0.49407 0.73212 0.59601 0.0
C1479 C 0.48522 0.78269 0.41845 0.0
C1480 C 0.53892 0.76931 0.50896 0.0
C1481 C 0.54602 0.75671 0.46189 0.0
C1482 C 0.52065 0.76927 0.52616 0.0
C1483 C 0.50899 0.75721 0.49147 0.0
C1484 C 0.51594 0.74496 0.44162 0.0
C1485 C 0.53446 0.74445 0.42928 0.0
C1486 C 0.51392 0.78193 0.58222 0.0
C1487 C 0.50383 0.73249 0.40087 0.0
H1488 H 0.45805 0.73454 0.60144 0.0
H1489 H 0.45128 0.78013 0.46594 0.0
H1490 H 0.49976 0.72202 0.55963 0.0
H1491 H 0.50547 0.73941 0.62028 0.0
H1492 H 0.4866 0.72497 0.63804 0.0
H1493 H 0.4743 0.79028 0.39211 0.0
H1494 H 0.49453 0.79242 0.443 0.0
H1495 H 0.49289 0.77524 0.37787 0.0
H1496 H 0.54767 0.77915 0.53297 0.0
H1497 H 0.53986 0.73443 0.39397 0.0
H1498 H 0.506 0.77445 0.62196 0.0
H1499 H 0.50492 0.7921 0.55856 0.0
H1500 H 0.52504 0.78902 0.60939 0.0
H1501 H 0.49785 0.72243 0.43676 0.0
H1502 H 0.51112 0.72527 0.35856 0.0
H1503 H 0.49263 0.74015 0.37687 0.0
C1504 C 0.25395 0.45974 0.49367 0.0
C1505 C 0.24244 0.45283 0.54498 0.0
C1506 C 0.25434 0.47815 0.47925 0.0
C1507 C 0.24266 0.48975 0.51622 0.0
C1508 C 0.2311 0.48278 0.56862 0.0
C1509 C 0.23123 0.46432 0.58279 0.0
C1510 C 0.26708 0.48513 0.42396 0.0
C1511 C 0.2183 0.49474 0.60837 0.0
C1512 C 0.25274 0.53951 0.52153 0.0
C1513 C 0.24154 0.54595 0.46824 0.0
C1514 C 0.25343 0.52117 0.53714 0.0
C1515 C 0.24238 0.50915 0.49927 0.0
C1516 C 0.23104 0.51567 0.44521 0.0
C1517 C 0.23087 0.53406 0.42992 0.0
C1518 C 0.26592 0.51468 0.59422 0.0
C1519 C 0.21888 0.50325 0.40444 0.0
H1520 H 0.26256 0.45067 0.46458 0.0
H1521 H 0.22224 0.45878 0.62194 0.0
H1522 H 0.25939 0.49121 0.3801 0.0
H1523 H 0.27569 0.49581 0.44652 0.0
H1524 H 0.27582 0.47441 0.40229 0.0
H1525 H 0.21033 0.48722 0.64793 0.0
H1526 H 0.22581 0.50554 0.63562 0.0
H1527 H 0.20894 0.50131 0.57102 0.0
H1528 H 0.26095 0.54888 0.55096 0.0
H1529 H 0.2221 0.53924 0.38921 0.0
H1530 H 0.27518 0.5044 0.57278 0.0
H1531 H 0.2581 0.50823 0.63687 0.0
H1532 H 0.274 0.52574 0.61723 0.0
H1533 H 0.22694 0.4928 0.37759 0.0
H1534 H 0.21081 0.51049 0.3644 0.0
H1535 H 0.20962 0.49628 0.44101 0.0
C1536 C 0.54073 0.2498 0.46545 0.0
C1537 C 0.54608 0.24609 0.53451 0.0
C1538 C 0.52258 0.2497 0.44662 0.0
C1539 C 0.50948 0.24617 0.49856 0.0
C1540 C 0.51479 0.24271 0.56873 0.0
C1541 C 0.53309 0.24256 0.58576 0.0
C1542 C 0.51743 0.25327 0.37111 0.0
C1543 C 0.50115 0.23909 0.62565 0.0
C1544 C 0.46192 0.26161 0.4626 0.0
C1545 C 0.45374 0.24551 0.44321 0.0
C1546 C 0.4801 0.26202 0.48125 0.0
C1547 C 0.49022 0.24596 0.47927 0.0
C1548 C 0.48195 0.22969 0.45866 0.0
C1549 C 0.46369 0.22965 0.44135 0.0
C1550 C 0.48842 0.27956 0.50384 0.0
C1551 C 0.49239 0.21237 0.45494 0.0
H1552 H 0.55077 0.25286 0.42605 0.0
H1553 H 0.53723 0.23945 0.63897 0.0
H1554 H 0.50966 0.24177 0.35004 0.0
H1555 H 0.50867 0.26526 0.36802 0.0
H1556 H 0.5293 0.25547 0.33692 0.0
H1557 H 0.50748 0.23726 0.67804 0.0
H1558 H 0.49148 0.25037 0.62884 0.0
H1559 H 0.49339 0.22685 0.61273 0.0
H1560 H 0.454 0.2738 0.46426 0.0
H1561 H 0.45714 0.21724 0.42632 0.0
H1562 H 0.49976 0.28301 0.46864 0.0
H1563 H 0.49393 0.27825 0.55779 0.0
H1564 H 0.47863 0.29079 0.50316 0.0
H1565 H 0.50395 0.21391 0.41874 0.0
H1566 H 0.48402 0.20098 0.43651 0.0
H1567 H 0.49787 0.20901 0.50752 0.0
C1568 C 0.21182 0.15444 0.96238 0.0
C1569 C 0.20985 0.14416 0.02369 0.0
C1570 C 0.19836 0.16629 0.94053 0.0
C1571 C 0.1824 0.16769 0.98029 0.0
C1572 C 0.17993 0.15673 0.04029 0.0
C1573 C 0.19377 0.14519 0.06169 0.0
C1574 C 0.20161 0.17793 0.8768 0.0
C1575 C 0.16292 0.15762 0.08315 0.0
C1576 C 0.15839 0.21239 0.97491 0.0
C1577 C 0.14492 0.20924 0.92494 0.0
C1578 C 0.17056 0.19892 0.99362 0.0
C1579 C 0.16905 0.18175 0.96252 0.0
C1580 C 0.15528 0.17834 0.91305 0.0
C1581 C 0.14346 0.19221 0.89425 0.0
C1582 C 0.18525 0.20319 0.04569 0.0
C1583 C 0.1531 0.16009 0.87986 0.0
H1584 H 0.22419 0.15371 0.93259 0.0
H1585 H 0.19207 0.13715 0.10867 0.0
H1586 H 0.19031 0.17673 0.83922 0.0
H1587 H 0.20238 0.1922 0.89314 0.0
H1588 H 0.21423 0.17438 0.84911 0.0
H1589 H 0.1623 0.1469 0.12362 0.0
H1590 H 0.16206 0.1708 0.10995 0.0
H1591 H 0.15102 0.15644 0.04843 0.0
H1592 H 0.15967 0.22555 -0.00144 0.0
H1593 H 0.13299 0.18967 0.85599 0.0
H1594 H 0.19855 0.20113 0.02077 0.0
H1595 H 0.18444 0.19399 0.09137 0.0
H1596 H 0.18451 0.21721 0.06521 0.0
H1597 H 0.16517 0.15675 0.84848 0.0
H1598 H 0.14116 0.15937 0.84502 0.0
H1599 H 0.15181 0.1497 0.92131 0.0
C1600 C 0.85262 0.19336 0.09413 0.0
C1601 C 0.85097 0.20992 0.05976 0.0
C1602 C 0.84082 0.17918 0.07896 0.0
C1603 C 0.82689 0.18181 0.02945 0.0
C1604 C 0.82516 0.19852 0.99485 0.0
C1605 C 0.83731 0.21229 0.00995 0.0
C1606 C 0.84325 0.16142 0.11581 0.0
C1607 C 0.81028 0.20197 0.94265 0.0
C1608 C 0.80226 0.14406 0.93729 0.0
C1609 C 0.7862 0.14343 0.97552 0.0
C1610 C 0.81611 0.1558 0.95671 0.0
C1611 C 0.81367 0.1674 0.01484 0.0
C1612 C 0.79775 0.16637 0.05508 0.0
C1613 C 0.78428 0.15429 0.0353 0.0
C1614 C 0.83308 0.15627 0.91347 0.0
C1615 C 0.79452 0.1787 0.11679 0.0
H1616 H 0.86324 0.19143 0.1323 0.0
H1617 H 0.83589 0.22508 0.98346 0.0
H1618 H 0.83122 0.15833 0.14786 0.0
H1619 H 0.84466 0.15052 0.07649 0.0
H1620 H 0.8552 0.16132 0.15069 0.0
H1621 H 0.81077 0.21575 0.92061 0.0
H1622 H 0.81113 0.19226 0.89862 0.0
H1623 H 0.79707 0.2 0.96837 0.0
H1624 H 0.80392 0.13556 0.89153 0.0
H1625 H 0.77193 0.15388 0.06527 0.0
H1626 H 0.84502 0.1557 0.94817 0.0
H1627 H 0.83376 0.16907 0.88384 0.0
H1628 H 0.83376 0.14501 0.87534 0.0
H1629 H 0.80595 0.17813 0.154 0.0
H1630 H 0.78203 0.17529 0.1457 0.0
H1631 H 0.79347 0.19274 0.09788 0.0
C1632 C 0.83884 0.78288 0.00163 0.0
C1633 C 0.85156 0.78588 0.94856 0.0
C1634 C 0.82617 0.79601 0.01915 0.0
C1635 C 0.82636 0.81264 0.98339 0.0
C1636 C 0.83959 0.81604 0.93171 0.0
C1637 C 0.85196 0.80255 0.91448 0.0
C1638 C 0.81213 0.79179 0.07392 0.0
C1639 C 0.84036 0.83374 0.89329 0.0
C1640 C 0.78211 0.83721 0.96834 0.0
C1641 C 0.78341 0.84988 0.02262 0.0
C1642 C 0.79605 0.82512 0.95494 0.0
C1643 C 0.81182 0.82585 -0.00388 0.0
C1644 C 0.8134 0.83878 0.05027 0.0
C1645 C 0.79909 0.85058 0.06328 0.0
C1646 C 0.79375 0.81135 0.89737 0.0
C1647 C 0.83015 0.84009 0.09455 0.0
H1648 H 0.83841 0.77003 0.02821 0.0
H1649 H 0.86186 0.80503 0.87391 0.0
H1650 H 0.81189 0.80237 0.11488 0.0
H1651 H 0.79868 0.79155 0.04898 0.0
H1652 H 0.81448 0.77864 0.09978 0.0
H1653 H 0.85243 0.83486 0.85936 0.0
H1654 H 0.82827 0.83526 0.85983 0.0
H1655 H 0.84037 0.845 0.93137 0.0
H1656 H 0.77002 0.83652 0.9368 0.0
H1657 H 0.80023 0.86041 0.10503 0.0
H1658 H 0.79474 0.79765 0.91982 0.0
H1659 H 0.80461 0.81274 0.85797 0.0
H1660 H 0.78065 0.81262 0.86999 0.0
H1661 H 0.83217 0.82742 0.12405 0.0
H1662 H 0.82954 0.85135 0.1327 0.0
H1663 H 0.84204 0.84196 0.06029 0.0
C1664 C 0.16034 0.78308 -0.00093 0.0
C1665 C 0.14771 0.78606 0.05246 0.0
C1666 C 0.17311 0.79613 0.98183 0.0
C1667 C 0.17315 0.81266 0.01835 0.0
C1668 C 0.16021 0.81593 0.07122 0.0
C1669 C 0.1477 0.80254 0.08799 0.0
C1670 C 0.18684 0.79207 0.92565 0.0
C1671 C 0.15972 0.8335 0.11063 0.0
C1672 C 0.21701 0.83829 0.02425 0.0
C1673 C 0.21466 0.85084 0.97009 0.0
C1674 C 0.20354 0.8259 0.04084 0.0
C1675 C 0.18721 0.8262 0.00295 0.0
C1676 C 0.18459 0.83903 0.9491 0.0
C1677 C 0.1984 0.85114 0.93298 0.0
C1678 C 0.20691 0.81226 0.09808 0.0
C1679 C 0.16726 0.83985 0.90815 0.0
H1680 H 0.16052 0.77035 0.97156 0.0
H1681 H 0.13792 0.80498 0.12902 0.0
H1682 H 0.18638 0.80246 0.88399 0.0
H1683 H 0.2005 0.79237 0.94876 0.0
H1684 H 0.18469 0.77874 0.90097 0.0
H1685 H 0.14825 0.83428 0.14771 0.0
H1686 H 0.17233 0.83525 0.14081 0.0
H1687 H 0.15879 0.84484 0.07306 0.0
H1688 H 0.22953 0.83793 0.05315 0.0
H1689 H 0.19642 0.86086 0.89134 0.0
H1690 H 0.20613 0.79853 0.07589 0.0
H1691 H 0.19642 0.81332 0.13921 0.0
H1692 H 0.22024 0.814 0.12323 0.0
H1693 H 0.16524 0.82713 0.87899 0.0
H1694 H 0.16706 0.85112 0.86997 0.0
H1695 H 0.15577 0.84139 0.94467 0.0
C1696 C 0.66124 0.71451 0.49116 0.0
C1697 C 0.64741 0.71292 0.4416 0.0
C1698 C 0.67325 0.70042 0.50309 0.0
C1699 C 0.67125 0.6842 0.4653 0.0
C1700 C 0.65715 0.68236 0.41596 0.0
C1701 C 0.64547 0.69684 0.40412 0.0
C1702 C 0.68831 0.70304 0.55527 0.0
C1703 C 0.65445 0.66513 0.37567 0.0
C1704 C 0.71364 0.65652 0.45232 0.0
C1705 C 0.71179 0.64493 0.50997 0.0
C1706 C 0.70019 0.6689 0.43539 0.0
C1707 C 0.68438 0.6695 0.47636 0.0
C1708 C 0.68198 0.65718 0.53217 0.0
C1709 C 0.69581 0.64513 0.54876 0.0
C1710 C 0.70336 0.68199 0.37607 0.0
C1711 C 0.66513 0.6572 0.57611 0.0
H1712 H 0.66295 0.72697 0.5197 0.0
H1713 H 0.63474 0.69553 0.36602 0.0
H1714 H 0.68754 0.69272 0.59713 0.0
H1715 H 0.70143 0.70138 0.52851 0.0
H1716 H 0.68796 0.71649 0.58033 0.0
H1717 H 0.64238 0.66559 0.34149 0.0
H1718 H 0.66634 0.66239 0.34236 0.0
H1719 H 0.65308 0.65373 0.41277 0.0
H1720 H 0.72593 0.65643 0.42191 0.0
H1721 H 0.69419 0.63606 0.59285 0.0
H1722 H 0.7046 0.69575 0.39771 0.0
H1723 H 0.69181 0.68201 0.33934 0.0
H1724 H 0.71572 0.67885 0.34594 0.0
H1725 H 0.66463 0.66958 0.60839 0.0
H1726 H 0.66444 0.64544 0.61187 0.0
H1727 H 0.65309 0.6572 0.54183 0.0
C1728 C 0.35316 0.69633 0.57719 0.0
C1729 C 0.35134 0.71269 0.54154 0.0
C1730 C 0.34118 0.68215 0.56485 0.0
C1731 C 0.32691 0.68455 0.51671 0.0
C1732 C 0.32512 0.70098 0.48011 0.0
C1733 C 0.33742 0.71479 0.49266 0.0
C1734 C 0.34364 0.6647 0.60393 0.0
C1735 C 0.30992 0.70415 0.42909 0.0
C1736 C 0.3011 0.64579 0.43671 0.0
C1737 C 0.28548 0.64574 0.47777 0.0
C1738 C 0.31511 0.65782 0.45078 0.0
C1739 C 0.3133 0.67027 0.50648 0.0
C1740 C 0.29781 0.66993 0.5494 0.0
C1741 C 0.28415 0.65757 0.53487 0.0
C1742 C 0.33159 0.6576 0.40473 0.0
C1743 C 0.29529 0.68314 0.60878 0.0
H1744 H 0.36395 0.69461 0.61477 0.0
H1745 H 0.33579 0.72747 0.46555 0.0
H1746 H 0.332 0.66233 0.63901 0.0
H1747 H 0.34419 0.65336 0.56625 0.0
H1748 H 0.35605 0.66461 0.63623 0.0
H1749 H 0.31067 0.71756 0.40383 0.0
H1750 H 0.31004 0.69377 0.38734 0.0
H1751 H 0.2969 0.70303 0.45698 0.0
H1752 H 0.3023 0.63656 0.39293 0.0
H1753 H 0.27214 0.65762 0.56695 0.0
H1754 H 0.34389 0.65712 0.43753 0.0
H1755 H 0.33219 0.67011 0.37326 0.0
H1756 H 0.3317 0.64599 0.36813 0.0
H1757 H 0.30695 0.68272 0.64492 0.0
H1758 H 0.28292 0.68046 0.63956 0.0
H1759 H 0.2945 0.69694 0.58722 0.0
C1760 C 0.33978 0.28547 0.48782 0.0
C1761 C 0.35311 0.28841 0.43712 0.0
C1762 C 0.32739 0.29889 0.50489 0.0
C1763 C 0.32854 0.31578 0.47132 0.0
C1764 C 0.34229 0.31905 0.42166 0.0
C1765 C 0.35433 0.30524 0.40459 0.0
C1766 C 0.31274 0.29478 0.55733 0.0
C1767 C 0.3441 0.33702 0.38587 0.0
C1768 C 0.28517 0.34206 0.46229 0.0
C1769 C 0.28667 0.35331 0.52109 0.0
C1770 C 0.29892 0.3301 0.44448 0.0
C1771 C 0.3147 0.3296 0.48576 0.0
C1772 C 0.31664 0.34144 0.54342 0.0
C1773 C 0.30252 0.35307 0.56083 0.0
C1774 C 0.29625 0.31751 0.38316 0.0
C1775 C 0.33343 0.34149 0.58775 0.0
H1776 H 0.3387 0.27247 0.51296 0.0
H1777 H 0.3647 0.30764 0.3658 0.0
H1778 H 0.31305 0.30465 0.60094 0.0
H1779 H 0.29945 0.29595 0.53148 0.0
H1780 H 0.31399 0.2811 0.57991 0.0
H1781 H 0.35627 0.33781 0.3524 0.0
H1782 H 0.33217 0.33957 0.35246 0.0
H1783 H 0.34466 0.34789 0.42566 0.0
H1784 H 0.27298 0.34217 0.43124 0.0
H1785 H 0.30384 0.36185 0.60592 0.0
H1786 H 0.29606 0.30346 0.40228 0.0
H1787 H 0.30755 0.31872 0.34559 0.0
H1788 H 0.28353 0.32016 0.35455 0.0
H1789 H 0.33456 0.32862 0.61663 0.0
H1790 H 0.33352 0.35263 0.62655 0.0
H1791 H 0.34546 0.3427 0.55379 0.0
C1792 C 0.70162 0.35027 0.43161 0.0
C1793 C 0.7168 0.3506 0.47514 0.0
C1794 C 0.68728 0.33861 0.44571 0.0
C1795 C 0.68834 0.32682 0.50388 0.0
C1796 C 0.70354 0.32723 0.54834 0.0
C1797 C 0.7175 0.33922 0.5338 0.0
C1798 C 0.67111 0.33876 0.39797 0.0
C1799 C 0.70529 0.31466 0.61026 0.0
C1800 C 0.6473 0.30393 0.58052 0.0
C1801 C 0.6484 0.28689 0.54966 0.0
C1802 C 0.65984 0.31733 0.56409 0.0
C1803 C 0.67397 0.31344 0.51683 0.0
C1804 C 0.675 0.29634 0.48484 0.0
C1805 C 0.6621 0.28333 0.50114 0.0
C1806 C 0.65815 0.33554 0.59815 0.0
C1807 C 0.69005 0.29158 0.43508 0.0
H1808 H 0.70093 0.35914 0.38654 0.0
H1809 H 0.7292 0.33935 0.56763 0.0
H1810 H 0.66992 0.32567 0.37069 0.0
H1811 H 0.65871 0.34064 0.42933 0.0
H1812 H 0.67186 0.34953 0.35774 0.0
H1813 H 0.71786 0.3169 0.64035 0.0
H1814 H 0.69375 0.31637 0.64638 0.0
H1815 H 0.7051 0.30056 0.59162 0.0
H1816 H 0.63664 0.30681 0.61755 0.0
H1817 H 0.66306 0.27018 0.4772 0.0
H1818 H 0.65834 0.3462 0.55749 0.0
H1819 H 0.66976 0.33792 0.63339 0.0
H1820 H 0.64564 0.33684 0.62944 0.0
H1821 H 0.69054 0.30129 0.39096 0.0
H1822 H 0.68861 0.27786 0.41306 0.0
H1823 H 0.70308 0.29243 0.46307 0.0
loop_
_geom_bond_atom_site_label_1
_geom_bond_atom_site_label_2
_geom_bond_distance
_geom_bond_site_symmetry_2
_ccdc_geom_bond_type
Co0 O3 1.970 . S
Co0 N17 1.989 . S
Co0 O25 1.967 . S
Co0 O32 1.920 . S
Co1 O4 1.966 . S
Co1 N10 2.022 . S
Co1 N18 1.993 1_556 S
Co1 O26 1.941 1_556 S
C2 O3 1.258 . S
C2 O4 1.263 1_554 S
O3 Co0 1.970 . S
O3 C2 1.258 . S
O4 Co1 1.966 . S
O4 C2 1.263 1_556 S
C5 O6 1.235 . S
C5 O32 1.289 . S
O6 C5 1.235 . S
C7 C9 1.400 . S
C7 N10 1.351 . S
C7 C12 1.501 . S
C8 C9 1.387 . S
C8 N11 1.341 . S
C9 C7 1.400 . S
C9 C8 1.387 . S
N10 Co1 2.022 . S
N10 C7 1.351 . S
N10 N11 1.365 . S
N11 C8 1.341 . S
N11 N10 1.365 . S
N11 H31 0.862 . S
C12 C7 1.501 . S
C12 H13 0.961 . S
C12 H14 0.961 . S
C12 H15 0.960 . S
H13 C12 0.961 . S
H14 C12 0.961 . S
H15 C12 0.960 . S
C16 N17 1.342 . S
C16 C20 1.401 . S
C16 C21 1.499 . S
N17 Co0 1.989 . S
N17 C16 1.342 . S
N17 N18 1.388 . S
N18 Co1 1.993 1_554 S
N18 N17 1.388 . S
N18 C19 1.346 1_554 S
C19 N18 1.346 1_556 S
C19 C20 1.396 1_556 S
C19 C29 1.510 . S
C20 C16 1.401 . S
C20 C19 1.396 1_554 S
C21 C16 1.499 . S
C21 H22 0.959 . S
C21 H23 0.960 . S
C21 H24 0.961 . S
H22 C21 0.959 . S
H23 C21 0.960 . S
H24 C21 0.961 . S
O25 Co0 1.967 . S
O25 C33 1.258 . S
O26 Co1 1.941 1_554 S
O26 C33 1.266 . S
H27 C29 0.959 . S
H28 C29 0.961 . S
C29 C19 1.510 . S
C29 H27 0.959 . S
C29 H28 0.961 . S
C29 H30 0.960 . S
H30 C29 0.960 . S
H31 N11 0.862 . S
O32 Co0 1.920 . S
O32 C5 1.289 . S
C33 O25 1.258 . S
C33 O26 1.266 . S
Co34 O37 1.970 . S
Co34 N51 1.989 . S
Co34 O59 1.967 . S
Co34 O66 1.920 . S
Co35 O38 1.966 . S
Co35 N44 2.022 . S
Co35 N52 1.993 1_556 S
Co35 O60 1.941 1_556 S
C36 O37 1.258 . S
C36 O38 1.263 1_554 S
O37 Co34 1.970 . S
O37 C36 1.258 . S
O38 Co35 1.966 . S
O38 C36 1.263 1_556 S
C39 O40 1.235 . S
C39 O66 1.289 . S
O40 C39 1.235 . S
C41 C43 1.400 . S
C41 N44 1.351 . S
C41 C46 1.501 . S
C42 C43 1.387 . S
C42 N45 1.341 . S
C43 C41 1.400 . S
C43 C42 1.387 . S
N44 Co35 2.022 . S
N44 C41 1.351 . S
N44 N45 1.365 . S
N45 C42 1.341 . S
N45 N44 1.365 . S
N45 H65 0.862 . S
C46 C41 1.501 . S
C46 H47 0.961 . S
C46 H48 0.961 . S
C46 H49 0.960 . S
H47 C46 0.961 . S
H48 C46 0.961 . S
H49 C46 0.960 . S
C50 N51 1.342 . S
C50 C54 1.401 . S
C50 C55 1.499 . S
N51 Co34 1.989 . S
N51 C50 1.342 . S
N51 N52 1.388 . S
N52 Co35 1.993 1_554 S
N52 N51 1.388 . S
N52 C53 1.346 1_554 S
C53 N52 1.346 1_556 S
C53 C54 1.396 1_556 S
C53 C63 1.510 . S
C54 C50 1.401 . S
C54 C53 1.396 1_554 S
C55 C50 1.499 . S
C55 H56 0.959 . S
C55 H57 0.960 . S
C55 H58 0.961 . S
H56 C55 0.959 . S
H57 C55 0.960 . S
H58 C55 0.961 . S
O59 Co34 1.967 . S
O59 C67 1.258 . S
O60 Co35 1.941 1_554 S
O60 C67 1.266 . S
H61 C63 0.959 . S
H62 C63 0.961 . S
C63 C53 1.510 . S
C63 H61 0.959 . S
C63 H62 0.961 . S
C63 H64 0.960 . S
H64 C63 0.960 . S
H65 N45 0.862 . S
O66 Co34 1.920 . S
O66 C39 1.289 . S
C67 O59 1.258 . S
C67 O60 1.266 . S
Co68 O71 1.970 . S
Co68 N85 1.989 . S
Co68 O93 1.967 . S
Co68 O100 1.920 . S
Co69 O72 1.966 . S
Co69 N78 2.022 . S
Co69 N86 1.993 1_556 S
Co69 O94 1.941 1_556 S
C70 O71 1.258 . S
C70 O72 1.263 1_554 S
O71 Co68 1.970 . S
O71 C70 1.258 . S
O72 Co69 1.966 . S
O72 C70 1.263 1_556 S
C73 O74 1.235 . S
C73 O100 1.289 . S
O74 C73 1.235 . S
C75 C77 1.400 . S
C75 N78 1.351 . S
C75 C80 1.501 . S
C76 C77 1.387 . S
C76 N79 1.341 . S
C77 C75 1.400 . S
C77 C76 1.387 . S
N78 Co69 2.022 . S
N78 C75 1.351 . S
N78 N79 1.365 . S
N79 C76 1.341 . S
N79 N78 1.365 . S
N79 H99 0.862 . S
C80 C75 1.501 . S
C80 H81 0.961 . S
C80 H82 0.961 . S
C80 H83 0.960 . S
H81 C80 0.961 . S
H82 C80 0.961 . S
H83 C80 0.960 . S
C84 N85 1.342 . S
C84 C88 1.401 . S
C84 C89 1.499 . S
N85 Co68 1.989 . S
N85 C84 1.342 . S
N85 N86 1.388 . S
N86 Co69 1.993 1_554 S
N86 N85 1.388 . S
N86 C87 1.346 1_554 S
C87 N86 1.346 1_556 S
C87 C88 1.396 1_556 S
C87 C97 1.510 . S
C88 C84 1.401 . S
C88 C87 1.396 1_554 S
C89 C84 1.499 . S
C89 H90 0.959 . S
C89 H91 0.960 . S
C89 H92 0.961 . S
H90 C89 0.959 . S
H91 C89 0.960 . S
H92 C89 0.961 . S
O93 Co68 1.967 . S
O93 C101 1.258 . S
O94 Co69 1.941 1_554 S
O94 C101 1.266 . S
H95 C97 0.959 . S
H96 C97 0.961 . S
C97 C87 1.510 . S
C97 H95 0.959 . S
C97 H96 0.961 . S
C97 H98 0.960 . S
H98 C97 0.960 . S
H99 N79 0.862 . S
O100 Co68 1.920 . S
O100 C73 1.289 . S
C101 O93 1.258 . S
C101 O94 1.266 . S
Co102 O105 1.970 . S
Co102 N119 1.989 . S
Co102 O127 1.967 . S
Co102 O134 1.920 . S
Co103 O106 1.966 . S
Co103 N112 2.022 . S
Co103 N120 1.993 1_556 S
Co103 O128 1.941 1_556 S
C104 O105 1.258 . S
C104 O106 1.263 1_554 S
O105 Co102 1.970 . S
O105 C104 1.258 . S
O106 Co103 1.966 . S
O106 C104 1.263 1_556 S
C107 O108 1.235 . S
C107 O134 1.289 . S
O108 C107 1.235 . S
C109 C111 1.400 . S
C109 N112 1.351 . S
C109 C114 1.501 . S
C110 C111 1.387 . S
C110 N113 1.341 . S
C111 C109 1.400 . S
C111 C110 1.387 . S
N112 Co103 2.022 . S
N112 C109 1.351 . S
N112 N113 1.365 . S
N113 C110 1.341 . S
N113 N112 1.365 . S
N113 H133 0.862 . S
C114 C109 1.501 . S
C114 H115 0.961 . S
C114 H116 0.961 . S
C114 H117 0.960 . S
H115 C114 0.961 . S
H116 C114 0.961 . S
H117 C114 0.960 . S
C118 N119 1.342 . S
C118 C122 1.401 . S
C118 C123 1.499 . S
N119 Co102 1.989 . S
N119 C118 1.342 . S
N119 N120 1.388 . S
N120 Co103 1.993 1_554 S
N120 N119 1.388 . S
N120 C121 1.346 1_554 S
C121 N120 1.346 1_556 S
C121 C122 1.396 1_556 S
C121 C131 1.510 . S
C122 C118 1.401 . S
C122 C121 1.396 1_554 S
C123 C118 1.499 . S
C123 H124 0.959 . S
C123 H125 0.960 . S
C123 H126 0.961 . S
H124 C123 0.959 . S
H125 C123 0.960 . S
H126 C123 0.961 . S
O127 Co102 1.967 . S
O127 C135 1.258 . S
O128 Co103 1.941 1_554 S
O128 C135 1.266 . S
H129 C131 0.959 . S
H130 C131 0.961 . S
C131 C121 1.510 . S
C131 H129 0.959 . S
C131 H130 0.961 . S
C131 H132 0.960 . S
H132 C131 0.960 . S
H133 N113 0.862 . S
O134 Co102 1.920 . S
O134 C107 1.289 . S
C135 O127 1.258 . S
C135 O128 1.266 . S
Co136 O139 1.970 . S
Co136 N153 1.989 . S
Co136 O161 1.967 . S
Co136 O168 1.920 . S
Co137 O140 1.966 . S
Co137 N146 2.022 . S
Co137 N154 1.993 1_554 S
Co137 O162 1.941 1_554 S
C138 O139 1.258 . S
C138 O140 1.263 1_556 S
O139 Co136 1.970 . S
O139 C138 1.258 . S
O140 Co137 1.966 . S
O140 C138 1.263 1_554 S
C141 O142 1.235 . S
C141 O168 1.289 . S
O142 C141 1.235 . S
C143 C145 1.400 . S
C143 N146 1.351 . S
C143 C148 1.501 . S
C144 C145 1.387 . S
C144 N147 1.341 . S
C145 C143 1.400 . S
C145 C144 1.387 . S
N146 Co137 2.022 . S
N146 C143 1.351 . S
N146 N147 1.365 . S
N147 C144 1.341 . S
N147 N146 1.365 . S
N147 H167 0.862 . S
C148 C143 1.501 . S
C148 H149 0.961 . S
C148 H150 0.961 . S
C148 H151 0.960 . S
H149 C148 0.961 . S
H150 C148 0.961 . S
H151 C148 0.960 . S
C152 N153 1.342 . S
C152 C156 1.401 . S
C152 C157 1.499 . S
N153 Co136 1.989 . S
N153 C152 1.342 . S
N153 N154 1.388 . S
N154 Co137 1.993 1_556 S
N154 N153 1.388 . S
N154 C155 1.346 1_556 S
C155 N154 1.346 1_554 S
C155 C156 1.396 1_554 S
C155 C165 1.510 . S
C156 C152 1.401 . S
C156 C155 1.396 1_556 S
C157 C152 1.499 . S
C157 H158 0.959 . S
C157 H159 0.960 . S
C157 H160 0.961 . S
H158 C157 0.959 . S
H159 C157 0.960 . S
H160 C157 0.961 . S
O161 Co136 1.967 . S
O161 C169 1.258 . S
O162 Co137 1.941 1_556 S
O162 C169 1.266 . S
H163 C165 0.959 . S
H164 C165 0.961 . S
C165 C155 1.510 . S
C165 H163 0.959 . S
C165 H164 0.961 . S
C165 H166 0.960 . S
H166 C165 0.960 . S
H167 N147 0.862 . S
O168 Co136 1.920 . S
O168 C141 1.289 . S
C169 O161 1.258 . S
C169 O162 1.266 . S
Co170 O173 1.970 . S
Co170 N187 1.989 . S
Co170 O195 1.967 . S
Co170 O202 1.920 . S
Co171 O174 1.966 . S
Co171 N180 2.022 . S
Co171 N188 1.993 1_554 S
Co171 O196 1.941 1_554 S
C172 O173 1.258 . S
C172 O174 1.263 1_556 S
O173 Co170 1.970 . S
O173 C172 1.258 . S
O174 Co171 1.966 . S
O174 C172 1.263 1_554 S
C175 O176 1.235 . S
C175 O202 1.289 . S
O176 C175 1.235 . S
C177 C179 1.400 . S
C177 N180 1.351 . S
C177 C182 1.501 . S
C178 C179 1.387 . S
C178 N181 1.341 . S
C179 C177 1.400 . S
C179 C178 1.387 . S
N180 Co171 2.022 . S
N180 C177 1.351 . S
N180 N181 1.365 . S
N181 C178 1.341 . S
N181 N180 1.365 . S
N181 H201 0.862 . S
C182 C177 1.501 . S
C182 H183 0.961 . S
C182 H184 0.961 . S
C182 H185 0.960 . S
H183 C182 0.961 . S
H184 C182 0.961 . S
H185 C182 0.960 . S
C186 N187 1.342 . S
C186 C190 1.401 . S
C186 C191 1.499 . S
N187 Co170 1.989 . S
N187 C186 1.342 . S
N187 N188 1.388 . S
N188 Co171 1.993 1_556 S
N188 N187 1.388 . S
N188 C189 1.346 1_556 S
C189 N188 1.346 1_554 S
C189 C190 1.396 1_554 S
C189 C199 1.510 . S
C190 C186 1.401 . S
C190 C189 1.396 1_556 S
C191 C186 1.499 . S
C191 H192 0.959 . S
C191 H193 0.960 . S
C191 H194 0.961 . S
H192 C191 0.959 . S
H193 C191 0.960 . S
H194 C191 0.961 . S
O195 Co170 1.967 . S
O195 C203 1.258 . S
O196 Co171 1.941 1_556 S
O196 C203 1.266 . S
H197 C199 0.959 . S
H198 C199 0.961 . S
C199 C189 1.510 . S
C199 H197 0.959 . S
C199 H198 0.961 . S
C199 H200 0.960 . S
H200 C199 0.960 . S
H201 N181 0.862 . S
O202 Co170 1.920 . S
O202 C175 1.289 . S
C203 O195 1.258 . S
C203 O196 1.266 . S
Co204 O207 1.970 . S
Co204 N221 1.989 . S
Co204 O229 1.967 . S
Co204 O236 1.920 . S
Co205 O208 1.966 . S
Co205 N214 2.022 . S
Co205 N222 1.993 1_554 S
Co205 O230 1.941 1_554 S
C206 O207 1.258 . S
C206 O208 1.263 1_556 S
O207 Co204 1.970 . S
O207 C206 1.258 . S
O208 Co205 1.966 . S
O208 C206 1.263 1_554 S
C209 O210 1.235 . S
C209 O236 1.289 . S
O210 C209 1.235 . S
C211 C213 1.400 . S
C211 N214 1.351 . S
C211 C216 1.501 . S
C212 C213 1.387 . S
C212 N215 1.341 . S
C213 C211 1.400 . S
C213 C212 1.387 . S
N214 Co205 2.022 . S
N214 C211 1.351 . S
N214 N215 1.365 . S
N215 C212 1.341 . S
N215 N214 1.365 . S
N215 H235 0.862 . S
C216 C211 1.501 . S
C216 H217 0.961 . S
C216 H218 0.961 . S
C216 H219 0.960 . S
H217 C216 0.961 . S
H218 C216 0.961 . S
H219 C216 0.960 . S
C220 N221 1.342 . S
C220 C224 1.401 . S
C220 C225 1.499 . S
N221 Co204 1.989 . S
N221 C220 1.342 . S
N221 N222 1.388 . S
N222 Co205 1.993 1_556 S
N222 N221 1.388 . S
N222 C223 1.346 1_556 S
C223 N222 1.346 1_554 S
C223 C224 1.396 1_554 S
C223 C233 1.510 . S
C224 C220 1.401 . S
C224 C223 1.396 1_556 S
C225 C220 1.499 . S
C225 H226 0.959 . S
C225 H227 0.960 . S
C225 H228 0.961 . S
H226 C225 0.959 . S
H227 C225 0.960 . S
H228 C225 0.961 . S
O229 Co204 1.967 . S
O229 C237 1.258 . S
O230 Co205 1.941 1_556 S
O230 C237 1.266 . S
H231 C233 0.959 . S
H232 C233 0.961 . S
C233 C223 1.510 . S
C233 H231 0.959 . S
C233 H232 0.961 . S
C233 H234 0.960 . S
H234 C233 0.960 . S
H235 N215 0.862 . S
O236 Co204 1.920 . S
O236 C209 1.289 . S
C237 O229 1.258 . S
C237 O230 1.266 . S
Co238 O241 1.970 . S
Co238 N255 1.989 . S
Co238 O263 1.967 . S
Co238 O270 1.920 . S
Co239 O242 1.966 . S
Co239 N248 2.022 . S
Co239 N256 1.993 1_554 S
Co239 O264 1.941 1_554 S
C240 O241 1.258 . S
C240 O242 1.263 1_556 S
O241 Co238 1.970 . S
O241 C240 1.258 . S
O242 Co239 1.966 . S
O242 C240 1.263 1_554 S
C243 O244 1.235 . S
C243 O270 1.289 . S
O244 C243 1.235 . S
C245 C247 1.400 . S
C245 N248 1.351 . S
C245 C250 1.501 . S
C246 C247 1.387 . S
C246 N249 1.341 . S
C247 C245 1.400 . S
C247 C246 1.387 . S
N248 Co239 2.022 . S
N248 C245 1.351 . S
N248 N249 1.365 . S
N249 C246 1.341 . S
N249 N248 1.365 . S
N249 H269 0.862 . S
C250 C245 1.501 . S
C250 H251 0.961 . S
C250 H252 0.961 . S
C250 H253 0.960 . S
H251 C250 0.961 . S
H252 C250 0.961 . S
H253 C250 0.960 . S
C254 N255 1.342 . S
C254 C258 1.401 . S
C254 C259 1.499 . S
N255 Co238 1.989 . S
N255 C254 1.342 . S
N255 N256 1.388 . S
N256 Co239 1.993 1_556 S
N256 N255 1.388 . S
N256 C257 1.346 1_556 S
C257 N256 1.346 1_554 S
C257 C258 1.396 1_554 S
C257 C267 1.510 . S
C258 C254 1.401 . S
C258 C257 1.396 1_556 S
C259 C254 1.499 . S
C259 H260 0.959 . S
C259 H261 0.960 . S
C259 H262 0.961 . S
H260 C259 0.959 . S
H261 C259 0.960 . S
H262 C259 0.961 . S
O263 Co238 1.967 . S
O263 C271 1.258 . S
O264 Co239 1.941 1_556 S
O264 C271 1.266 . S
H265 C267 0.959 . S
H266 C267 0.961 . S
C267 C257 1.510 . S
C267 H265 0.959 . S
C267 H266 0.961 . S
C267 H268 0.960 . S
H268 C267 0.960 . S
H269 N249 0.862 . S
O270 Co238 1.920 . S
O270 C243 1.289 . S
C271 O263 1.258 . S
C271 O264 1.266 . S
Co272 O275 1.970 . S
Co272 N289 1.989 . S
Co272 O297 1.967 . S
Co272 O304 1.920 . S
Co273 O276 1.966 . S
Co273 N282 2.022 . S
Co273 N290 1.993 . S
Co273 O298 1.941 . S
C274 O275 1.258 . S
C274 O276 1.263 . S
O275 Co272 1.970 . S
O275 C274 1.258 . S
O276 Co273 1.966 . S
O276 C274 1.263 . S
C277 O278 1.235 . S
C277 O304 1.289 . S
O278 C277 1.235 . S
C279 C281 1.400 . S
C279 N282 1.351 . S
C279 C284 1.501 . S
C280 C281 1.387 . S
C280 N283 1.341 . S
C281 C279 1.400 . S
C281 C280 1.387 . S
N282 Co273 2.022 . S
N282 C279 1.351 . S
N282 N283 1.365 . S
N283 C280 1.341 . S
N283 N282 1.365 . S
N283 H303 0.862 . S
C284 C279 1.501 . S
C284 H285 0.961 . S
C284 H286 0.961 . S
C284 H287 0.960 . S
H285 C284 0.961 . S
H286 C284 0.961 . S
H287 C284 0.960 . S
C288 N289 1.342 . S
C288 C292 1.401 . S
C288 C293 1.499 . S
N289 Co272 1.989 . S
N289 C288 1.342 . S
N289 N290 1.388 . S
N290 Co273 1.993 . S
N290 N289 1.388 . S
N290 C291 1.346 . S
C291 N290 1.346 . S
C291 C292 1.396 . S
C291 C301 1.510 . S
C292 C288 1.401 . S
C292 C291 1.396 . S
C293 C288 1.499 . S
C293 H294 0.959 . S
C293 H295 0.960 . S
C293 H296 0.961 . S
H294 C293 0.959 . S
H295 C293 0.960 . S
H296 C293 0.961 . S
O297 Co272 1.967 . S
O297 C305 1.258 . S
O298 Co273 1.941 . S
O298 C305 1.266 . S
H299 C301 0.959 . S
H300 C301 0.961 . S
C301 C291 1.510 . S
C301 H299 0.959 . S
C301 H300 0.961 . S
C301 H302 0.960 . S
H302 C301 0.960 . S
H303 N283 0.862 . S
O304 Co272 1.920 . S
O304 C277 1.289 . S
C305 O297 1.258 . S
C305 O298 1.266 . S
Co306 O309 1.970 . S
Co306 N323 1.989 . S
Co306 O331 1.967 . S
Co306 O338 1.920 . S
Co307 O310 1.966 . S
Co307 N316 2.022 . S
Co307 N324 1.993 . S
Co307 O332 1.941 . S
C308 O309 1.258 . S
C308 O310 1.263 . S
O309 Co306 1.970 . S
O309 C308 1.258 . S
O310 Co307 1.966 . S
O310 C308 1.263 . S
C311 O312 1.235 . S
C311 O338 1.289 . S
O312 C311 1.235 . S
C313 C315 1.400 . S
C313 N316 1.351 . S
C313 C318 1.501 . S
C314 C315 1.387 . S
C314 N317 1.341 . S
C315 C313 1.400 . S
C315 C314 1.387 . S
N316 Co307 2.022 . S
N316 C313 1.351 . S
N316 N317 1.365 . S
N317 C314 1.341 . S
N317 N316 1.365 . S
N317 H337 0.862 . S
C318 C313 1.501 . S
C318 H319 0.961 . S
C318 H320 0.961 . S
C318 H321 0.960 . S
H319 C318 0.961 . S
H320 C318 0.961 . S
H321 C318 0.960 . S
C322 N323 1.342 . S
C322 C326 1.401 . S
C322 C327 1.499 . S
N323 Co306 1.989 . S
N323 C322 1.342 . S
N323 N324 1.388 . S
N324 Co307 1.993 . S
N324 N323 1.388 . S
N324 C325 1.346 . S
C325 N324 1.346 . S
C325 C326 1.396 . S
C325 C335 1.510 . S
C326 C322 1.401 . S
C326 C325 1.396 . S
C327 C322 1.499 . S
C327 H328 0.959 . S
C327 H329 0.960 . S
C327 H330 0.961 . S
H328 C327 0.959 . S
H329 C327 0.960 . S
H330 C327 0.961 . S
O331 Co306 1.967 . S
O331 C339 1.258 . S
O332 Co307 1.941 . S
O332 C339 1.266 . S
H333 C335 0.959 . S
H334 C335 0.961 . S
C335 C325 1.510 . S
C335 H333 0.959 . S
C335 H334 0.961 . S
C335 H336 0.960 . S
H336 C335 0.960 . S
H337 N317 0.862 . S
O338 Co306 1.920 . S
O338 C311 1.289 . S
C339 O331 1.258 . S
C339 O332 1.266 . S
Co340 O343 1.970 . S
Co340 N357 1.989 . S
Co340 O365 1.967 . S
Co340 O372 1.920 . S
Co341 O344 1.966 . S
Co341 N350 2.022 . S
Co341 N358 1.993 . S
Co341 O366 1.941 . S
C342 O343 1.258 . S
C342 O344 1.263 . S
O343 Co340 1.970 . S
O343 C342 1.258 . S
O344 Co341 1.966 . S
O344 C342 1.263 . S
C345 O346 1.235 . S
C345 O372 1.289 . S
O346 C345 1.235 . S
C347 C349 1.400 . S
C347 N350 1.351 . S
C347 C352 1.501 . S
C348 C349 1.387 . S
C348 N351 1.341 . S
C349 C347 1.400 . S
C349 C348 1.387 . S
N350 Co341 2.022 . S
N350 C347 1.351 . S
N350 N351 1.365 . S
N351 C348 1.341 . S
N351 N350 1.365 . S
N351 H371 0.862 . S
C352 C347 1.501 . S
C352 H353 0.961 . S
C352 H354 0.961 . S
C352 H355 0.960 . S
H353 C352 0.961 . S
H354 C352 0.961 . S
H355 C352 0.960 . S
C356 N357 1.342 . S
C356 C360 1.401 . S
C356 C361 1.499 . S
N357 Co340 1.989 . S
N357 C356 1.342 . S
N357 N358 1.388 . S
N358 Co341 1.993 . S
N358 N357 1.388 . S
N358 C359 1.346 . S
C359 N358 1.346 . S
C359 C360 1.396 . S
C359 C369 1.510 . S
C360 C356 1.401 . S
C360 C359 1.396 . S
C361 C356 1.499 . S
C361 H362 0.959 . S
C361 H363 0.960 . S
C361 H364 0.961 . S
H362 C361 0.959 . S
H363 C361 0.960 . S
H364 C361 0.961 . S
O365 Co340 1.967 . S
O365 C373 1.258 . S
O366 Co341 1.941 . S
O366 C373 1.266 . S
H367 C369 0.959 . S
H368 C369 0.961 . S
C369 C359 1.510 . S
C369 H367 0.959 . S
C369 H368 0.961 . S
C369 H370 0.960 . S
H370 C369 0.960 . S
H371 N351 0.862 . S
O372 Co340 1.920 . S
O372 C345 1.289 . S
C373 O365 1.258 . S
C373 O366 1.266 . S
Co374 O377 1.970 . S
Co374 N391 1.989 . S
Co374 O399 1.967 . S
Co374 O406 1.920 . S
Co375 O378 1.966 . S
Co375 N384 2.022 . S
Co375 N392 1.993 . S
Co375 O400 1.941 . S
C376 O377 1.258 . S
C376 O378 1.263 . S
O377 Co374 1.970 . S
O377 C376 1.258 . S
O378 Co375 1.966 . S
O378 C376 1.263 . S
C379 O380 1.235 . S
C379 O406 1.289 . S
O380 C379 1.235 . S
C381 C383 1.400 . S
C381 N384 1.351 . S
C381 C386 1.501 . S
C382 C383 1.387 . S
C382 N385 1.341 . S
C383 C381 1.400 . S
C383 C382 1.387 . S
N384 Co375 2.022 . S
N384 C381 1.351 . S
N384 N385 1.365 . S
N385 C382 1.341 . S
N385 N384 1.365 . S
N385 H405 0.862 . S
C386 C381 1.501 . S
C386 H387 0.961 . S
C386 H388 0.961 . S
C386 H389 0.960 . S
H387 C386 0.961 . S
H388 C386 0.961 . S
H389 C386 0.960 . S
C390 N391 1.342 . S
C390 C394 1.401 . S
C390 C395 1.499 . S
N391 Co374 1.989 . S
N391 C390 1.342 . S
N391 N392 1.388 . S
N392 Co375 1.993 . S
N392 N391 1.388 . S
N392 C393 1.346 . S
C393 N392 1.346 . S
C393 C394 1.396 . S
C393 C403 1.510 . S
C394 C390 1.401 . S
C394 C393 1.396 . S
C395 C390 1.499 . S
C395 H396 0.959 . S
C395 H397 0.960 . S
C395 H398 0.961 . S
H396 C395 0.959 . S
H397 C395 0.960 . S
H398 C395 0.961 . S
O399 Co374 1.967 . S
O399 C407 1.258 . S
O400 Co375 1.941 . S
O400 C407 1.266 . S
H401 C403 0.959 . S
H402 C403 0.961 . S
C403 C393 1.510 . S
C403 H401 0.959 . S
C403 H402 0.961 . S
C403 H404 0.960 . S
H404 C403 0.960 . S
H405 N385 0.862 . S
O406 Co374 1.920 . S
O406 C379 1.289 . S
C407 O399 1.258 . S
C407 O400 1.266 . S
Co408 O411 1.970 . S
Co408 N425 1.989 . S
Co408 O433 1.967 . S
Co408 O440 1.920 . S
Co409 O412 1.966 . S
Co409 N418 2.022 . S
Co409 N426 1.993 . S
Co409 O434 1.941 . S
C410 O411 1.258 . S
C410 O412 1.263 . S
O411 Co408 1.970 . S
O411 C410 1.258 . S
O412 Co409 1.966 . S
O412 C410 1.263 . S
C413 O414 1.235 . S
C413 O440 1.289 . S
O414 C413 1.235 . S
C415 C417 1.400 . S
C415 N418 1.351 . S
C415 C420 1.501 . S
C416 C417 1.387 . S
C416 N419 1.341 . S
C417 C415 1.400 . S
C417 C416 1.387 . S
N418 Co409 2.022 . S
N418 C415 1.351 . S
N418 N419 1.365 . S
N419 C416 1.341 . S
N419 N418 1.365 . S
N419 H439 0.862 . S
C420 C415 1.501 . S
C420 H421 0.961 . S
C420 H422 0.961 . S
C420 H423 0.960 . S
H421 C420 0.961 . S
H422 C420 0.961 . S
H423 C420 0.960 . S
C424 N425 1.342 . S
C424 C428 1.401 . S
C424 C429 1.499 . S
N425 Co408 1.989 . S
N425 C424 1.342 . S
N425 N426 1.388 . S
N426 Co409 1.993 . S
N426 N425 1.388 . S
N426 C427 1.346 . S
C427 N426 1.346 . S
C427 C428 1.396 . S
C427 C437 1.510 . S
C428 C424 1.401 . S
C428 C427 1.396 . S
C429 C424 1.499 . S
C429 H430 0.959 . S
C429 H431 0.960 . S
C429 H432 0.961 . S
H430 C429 0.959 . S
H431 C429 0.960 . S
H432 C429 0.961 . S
O433 Co408 1.967 . S
O433 C441 1.258 . S
O434 Co409 1.941 . S
O434 C441 1.266 . S
H435 C437 0.959 . S
H436 C437 0.961 . S
C437 C427 1.510 . S
C437 H435 0.959 . S
C437 H436 0.961 . S
C437 H438 0.960 . S
H438 C437 0.960 . S
H439 N419 0.862 . S
O440 Co408 1.920 . S
O440 C413 1.289 . S
C441 O433 1.258 . S
C441 O434 1.266 . S
Co442 O445 1.970 . S
Co442 N459 1.989 . S
Co442 O467 1.967 . S
Co442 O474 1.920 . S
Co443 O446 1.966 . S
Co443 N452 2.022 . S
Co443 N460 1.993 . S
Co443 O468 1.941 . S
C444 O445 1.258 . S
C444 O446 1.263 . S
O445 Co442 1.970 . S
O445 C444 1.258 . S
O446 Co443 1.966 . S
O446 C444 1.263 . S
C447 O448 1.235 . S
C447 O474 1.289 . S
O448 C447 1.235 . S
C449 C451 1.400 . S
C449 N452 1.351 . S
C449 C454 1.501 . S
C450 C451 1.387 . S
C450 N453 1.341 . S
C451 C449 1.400 . S
C451 C450 1.387 . S
N452 Co443 2.022 . S
N452 C449 1.351 . S
N452 N453 1.365 . S
N453 C450 1.341 . S
N453 N452 1.365 . S
N453 H473 0.862 . S
C454 C449 1.501 . S
C454 H455 0.961 . S
C454 H456 0.961 . S
C454 H457 0.960 . S
H455 C454 0.961 . S
H456 C454 0.961 . S
H457 C454 0.960 . S
C458 N459 1.342 . S
C458 C462 1.401 . S
C458 C463 1.499 . S
N459 Co442 1.989 . S
N459 C458 1.342 . S
N459 N460 1.388 . S
N460 Co443 1.993 . S
N460 N459 1.388 . S
N460 C461 1.346 . S
C461 N460 1.346 . S
C461 C462 1.396 . S
C461 C471 1.510 . S
C462 C458 1.401 . S
C462 C461 1.396 . S
C463 C458 1.499 . S
C463 H464 0.959 . S
C463 H465 0.960 . S
C463 H466 0.961 . S
H464 C463 0.959 . S
H465 C463 0.960 . S
H466 C463 0.961 . S
O467 Co442 1.967 . S
O467 C475 1.258 . S
O468 Co443 1.941 . S
O468 C475 1.266 . S
H469 C471 0.959 . S
H470 C471 0.961 . S
C471 C461 1.510 . S
C471 H469 0.959 . S
C471 H470 0.961 . S
C471 H472 0.960 . S
H472 C471 0.960 . S
H473 N453 0.862 . S
O474 Co442 1.920 . S
O474 C447 1.289 . S
C475 O467 1.258 . S
C475 O468 1.266 . S
Co476 O479 1.970 . S
Co476 N493 1.989 . S
Co476 O501 1.967 . S
Co476 O508 1.920 . S
Co477 O480 1.966 . S
Co477 N486 2.022 . S
Co477 N494 1.993 . S
Co477 O502 1.941 . S
C478 O479 1.258 . S
C478 O480 1.263 . S
O479 Co476 1.970 . S
O479 C478 1.258 . S
O480 Co477 1.966 . S
O480 C478 1.263 . S
C481 O482 1.235 . S
C481 O508 1.289 . S
O482 C481 1.235 . S
C483 C485 1.400 . S
C483 N486 1.351 . S
C483 C488 1.501 . S
C484 C485 1.387 . S
C484 N487 1.341 . S
C485 C483 1.400 . S
C485 C484 1.387 . S
N486 Co477 2.022 . S
N486 C483 1.351 . S
N486 N487 1.365 . S
N487 C484 1.341 . S
N487 N486 1.365 . S
N487 H507 0.862 . S
C488 C483 1.501 . S
C488 H489 0.961 . S
C488 H490 0.961 . S
C488 H491 0.960 . S
H489 C488 0.961 . S
H490 C488 0.961 . S
H491 C488 0.960 . S
C492 N493 1.342 . S
C492 C496 1.401 . S
C492 C497 1.499 . S
N493 Co476 1.989 . S
N493 C492 1.342 . S
N493 N494 1.388 . S
N494 Co477 1.993 . S
N494 N493 1.388 . S
N494 C495 1.346 . S
C495 N494 1.346 . S
C495 C496 1.396 . S
C495 C505 1.510 . S
C496 C492 1.401 . S
C496 C495 1.396 . S
C497 C492 1.499 . S
C497 H498 0.959 . S
C497 H499 0.960 . S
C497 H500 0.961 . S
H498 C497 0.959 . S
H499 C497 0.960 . S
H500 C497 0.961 . S
O501 Co476 1.967 . S
O501 C509 1.258 . S
O502 Co477 1.941 . S
O502 C509 1.266 . S
H503 C505 0.959 . S
H504 C505 0.961 . S
C505 C495 1.510 . S
C505 H503 0.959 . S
C505 H504 0.961 . S
C505 H506 0.960 . S
H506 C505 0.960 . S
H507 N487 0.862 . S
O508 Co476 1.920 . S
O508 C481 1.289 . S
C509 O501 1.258 . S
C509 O502 1.266 . S
Co510 O513 1.970 . S
Co510 N527 1.989 . S
Co510 O535 1.967 . S
Co510 O542 1.920 . S
Co511 O514 1.966 . S
Co511 N520 2.022 . S
Co511 N528 1.993 . S
Co511 O536 1.941 . S
C512 O513 1.258 . S
C512 O514 1.263 . S
O513 Co510 1.970 . S
O513 C512 1.258 . S
O514 Co511 1.966 . S
O514 C512 1.263 . S
C515 O516 1.235 . S
C515 O542 1.289 . S
O516 C515 1.235 . S
C517 C519 1.400 . S
C517 N520 1.351 . S
C517 C522 1.501 . S
C518 C519 1.387 . S
C518 N521 1.341 . S
C519 C517 1.400 . S
C519 C518 1.387 . S
N520 Co511 2.022 . S
N520 C517 1.351 . S
N520 N521 1.365 . S
N521 C518 1.341 . S
N521 N520 1.365 . S
N521 H541 0.862 . S
C522 C517 1.501 . S
C522 H523 0.961 . S
C522 H524 0.961 . S
C522 H525 0.960 . S
H523 C522 0.961 . S
H524 C522 0.961 . S
H525 C522 0.960 . S
C526 N527 1.342 . S
C526 C530 1.401 . S
C526 C531 1.499 . S
N527 Co510 1.989 . S
N527 C526 1.342 . S
N527 N528 1.388 . S
N528 Co511 1.993 . S
N528 N527 1.388 . S
N528 C529 1.346 . S
C529 N528 1.346 . S
C529 C530 1.396 . S
C529 C539 1.510 . S
C530 C526 1.401 . S
C530 C529 1.396 . S
C531 C526 1.499 . S
C531 H532 0.959 . S
C531 H533 0.960 . S
C531 H534 0.961 . S
H532 C531 0.959 . S
H533 C531 0.960 . S
H534 C531 0.961 . S
O535 Co510 1.967 . S
O535 C543 1.258 . S
O536 Co511 1.941 . S
O536 C543 1.266 . S
H537 C539 0.959 . S
H538 C539 0.961 . S
C539 C529 1.510 . S
C539 H537 0.959 . S
C539 H538 0.961 . S
C539 H540 0.960 . S
H540 C539 0.960 . S
H541 N521 0.862 . S
O542 Co510 1.920 . S
O542 C515 1.289 . S
C543 O535 1.258 . S
C543 O536 1.266 . S
C544 C545 1.391 . S
C544 C546 1.394 . S
C544 H560 0.931 . S
C545 C544 1.391 . S
C545 C549 1.376 . S
C546 C544 1.394 . S
C546 C547 1.369 . S
C546 C550 1.531 . S
C547 C546 1.369 . S
C547 C548 1.410 . S
C547 C555 1.503 . S
C548 C547 1.410 . S
C548 C549 1.392 . S
C548 C551 1.511 . S
C549 C545 1.376 . S
C549 C548 1.392 . S
C549 H561 0.929 . S
C550 C546 1.531 . S
C550 H562 0.960 . S
C550 H563 0.962 . S
C550 H564 0.960 . S
C551 C548 1.511 . S
C551 H565 0.961 . S
C551 H566 0.961 . S
C551 H567 0.961 . S
C552 C553 1.370 . S
C552 C554 1.363 . S
C552 H568 0.931 . S
C553 C552 1.370 . S
C553 C557 1.408 . S
C554 C552 1.363 . S
C554 C555 1.370 . S
C554 C558 1.524 . S
C555 C547 1.503 . S
C555 C554 1.370 . S
C555 C556 1.403 . S
C556 C555 1.403 . S
C556 C557 1.404 . S
C556 C559 1.539 . S
C557 C553 1.408 . S
C557 C556 1.404 . S
C557 H569 0.930 . S
C558 C554 1.524 . S
C558 H570 0.956 . S
C558 H571 0.961 . S
C558 H572 0.961 . S
C559 C556 1.539 . S
C559 H573 0.958 . S
C559 H574 0.961 . S
C559 H575 0.960 . S
H560 C544 0.931 . S
H561 C549 0.929 . S
H562 C550 0.960 . S
H563 C550 0.962 . S
H564 C550 0.960 . S
H565 C551 0.961 . S
H566 C551 0.961 . S
H567 C551 0.961 . S
H568 C552 0.931 . S
H569 C557 0.930 . S
H570 C558 0.956 . S
H571 C558 0.961 . S
H572 C558 0.961 . S
H573 C559 0.958 . S
H574 C559 0.961 . S
H575 C559 0.960 . S
C576 C577 1.391 . S
C576 C578 1.394 . S
C576 H592 0.931 . S
C577 C576 1.391 . S
C577 C581 1.376 . S
C578 C576 1.394 . S
C578 C579 1.369 . S
C578 C582 1.531 . S
C579 C578 1.369 . S
C579 C580 1.410 . S
C579 C587 1.503 . S
C580 C579 1.410 . S
C580 C581 1.392 . S
C580 C583 1.511 . S
C581 C577 1.376 . S
C581 C580 1.392 . S
C581 H593 0.929 . S
C582 C578 1.531 . S
C582 H594 0.960 . S
C582 H595 0.962 . S
C582 H596 0.960 . S
C583 C580 1.511 . S
C583 H597 0.961 . S
C583 H598 0.961 . S
C583 H599 0.961 . S
C584 C585 1.370 . S
C584 C586 1.363 . S
C584 H600 0.931 . S
C585 C584 1.370 . S
C585 C589 1.408 . S
C586 C584 1.363 . S
C586 C587 1.370 . S
C586 C590 1.524 . S
C587 C579 1.503 . S
C587 C586 1.370 . S
C587 C588 1.403 . S
C588 C587 1.403 . S
C588 C589 1.404 . S
C588 C591 1.539 . S
C589 C585 1.408 . S
C589 C588 1.404 . S
C589 H601 0.930 . S
C590 C586 1.524 . S
C590 H602 0.956 . S
C590 H603 0.961 . S
C590 H604 0.961 . S
C591 C588 1.539 . S
C591 H605 0.958 . S
C591 H606 0.961 . S
C591 H607 0.960 . S
H592 C576 0.931 . S
H593 C581 0.929 . S
H594 C582 0.960 . S
H595 C582 0.962 . S
H596 C582 0.960 . S
H597 C583 0.961 . S
H598 C583 0.961 . S
H599 C583 0.961 . S
H600 C584 0.931 . S
H601 C589 0.930 . S
H602 C590 0.956 . S
H603 C590 0.961 . S
H604 C590 0.961 . S
H605 C591 0.958 . S
H606 C591 0.961 . S
H607 C591 0.960 . S
C608 C609 1.391 . S
C608 C610 1.394 . S
C608 H624 0.931 . S
C609 C608 1.391 . S
C609 C613 1.376 . S
C610 C608 1.394 . S
C610 C611 1.369 . S
C610 C614 1.531 . S
C611 C610 1.369 . S
C611 C612 1.410 . S
C611 C619 1.503 . S
C612 C611 1.410 . S
C612 C613 1.392 . S
C612 C615 1.511 . S
C613 C609 1.376 . S
C613 C612 1.392 . S
C613 H625 0.929 . S
C614 C610 1.531 . S
C614 H626 0.960 . S
C614 H627 0.962 . S
C614 H628 0.960 . S
C615 C612 1.511 . S
C615 H629 0.961 . S
C615 H630 0.961 . S
C615 H631 0.961 . S
C616 C617 1.370 . S
C616 C618 1.363 . S
C616 H632 0.931 . S
C617 C616 1.370 . S
C617 C621 1.408 . S
C618 C616 1.363 . S
C618 C619 1.370 . S
C618 C622 1.524 . S
C619 C611 1.503 . S
C619 C618 1.370 . S
C619 C620 1.403 . S
C620 C619 1.403 . S
C620 C621 1.404 . S
C620 C623 1.539 . S
C621 C617 1.408 . S
C621 C620 1.404 . S
C621 H633 0.930 . S
C622 C618 1.524 . S
C622 H634 0.956 . S
C622 H635 0.961 . S
C622 H636 0.961 . S
C623 C620 1.539 . S
C623 H637 0.958 . S
C623 H638 0.961 . S
C623 H639 0.960 . S
H624 C608 0.931 . S
H625 C613 0.929 . S
H626 C614 0.960 . S
H627 C614 0.962 . S
H628 C614 0.960 . S
H629 C615 0.961 . S
H630 C615 0.961 . S
H631 C615 0.961 . S
H632 C616 0.931 . S
H633 C621 0.930 . S
H634 C622 0.956 . S
H635 C622 0.961 . S
H636 C622 0.961 . S
H637 C623 0.958 . S
H638 C623 0.961 . S
H639 C623 0.960 . S
C640 C641 1.391 . S
C640 C642 1.394 . S
C640 H656 0.931 . S
C641 C640 1.391 . S
C641 C645 1.376 . S
C642 C640 1.394 . S
C642 C643 1.369 . S
C642 C646 1.531 . S
C643 C642 1.369 . S
C643 C644 1.410 . S
C643 C651 1.503 . S
C644 C643 1.410 . S
C644 C645 1.392 . S
C644 C647 1.511 . S
C645 C641 1.376 . S
C645 C644 1.392 . S
C645 H657 0.929 . S
C646 C642 1.531 . S
C646 H658 0.960 . S
C646 H659 0.962 . S
C646 H660 0.960 . S
C647 C644 1.511 . S
C647 H661 0.961 . S
C647 H662 0.961 . S
C647 H663 0.961 . S
C648 C649 1.370 . S
C648 C650 1.363 . S
C648 H664 0.931 . S
C649 C648 1.370 . S
C649 C653 1.408 . S
C650 C648 1.363 . S
C650 C651 1.370 . S
C650 C654 1.524 . S
C651 C643 1.503 . S
C651 C650 1.370 . S
C651 C652 1.403 . S
C652 C651 1.403 . S
C652 C653 1.404 . S
C652 C655 1.539 . S
C653 C649 1.408 . S
C653 C652 1.404 . S
C653 H665 0.930 . S
C654 C650 1.524 . S
C654 H666 0.956 . S
C654 H667 0.961 . S
C654 H668 0.961 . S
C655 C652 1.539 . S
C655 H669 0.958 . S
C655 H670 0.961 . S
C655 H671 0.960 . S
H656 C640 0.931 . S
H657 C645 0.929 . S
H658 C646 0.960 . S
H659 C646 0.962 . S
H660 C646 0.960 . S
H661 C647 0.961 . S
H662 C647 0.961 . S
H663 C647 0.961 . S
H664 C648 0.931 . S
H665 C653 0.930 . S
H666 C654 0.956 . S
H667 C654 0.961 . S
H668 C654 0.961 . S
H669 C655 0.958 . S
H670 C655 0.961 . S
H671 C655 0.960 . S
C672 C673 1.391 . S
C672 C674 1.394 . S
C672 H688 0.931 . S
C673 C672 1.391 . S
C673 C677 1.376 . S
C674 C672 1.394 . S
C674 C675 1.369 . S
C674 C678 1.531 . S
C675 C674 1.369 . S
C675 C676 1.410 . S
C675 C683 1.503 . S
C676 C675 1.410 . S
C676 C677 1.392 . S
C676 C679 1.511 . S
C677 C673 1.376 . S
C677 C676 1.392 . S
C677 H689 0.929 . S
C678 C674 1.531 . S
C678 H690 0.960 . S
C678 H691 0.962 . S
C678 H692 0.960 . S
C679 C676 1.511 . S
C679 H693 0.961 . S
C679 H694 0.961 . S
C679 H695 0.961 . S
C680 C681 1.370 . S
C680 C682 1.363 . S
C680 H696 0.931 . S
C681 C680 1.370 . S
C681 C685 1.408 . S
C682 C680 1.363 . S
C682 C683 1.370 . S
C682 C686 1.524 . S
C683 C675 1.503 . S
C683 C682 1.370 . S
C683 C684 1.403 . S
C684 C683 1.403 . S
C684 C685 1.404 . S
C684 C687 1.539 . S
C685 C681 1.408 . S
C685 C684 1.404 . S
C685 H697 0.930 . S
C686 C682 1.524 . S
C686 H698 0.956 . S
C686 H699 0.961 . S
C686 H700 0.961 . S
C687 C684 1.539 . S
C687 H701 0.958 . S
C687 H702 0.961 . S
C687 H703 0.960 . S
H688 C672 0.931 . S
H689 C677 0.929 . S
H690 C678 0.960 . S
H691 C678 0.962 . S
H692 C678 0.960 . S
H693 C679 0.961 . S
H694 C679 0.961 . S
H695 C679 0.961 . S
H696 C680 0.931 . S
H697 C685 0.930 . S
H698 C686 0.956 . S
H699 C686 0.961 . S
H700 C686 0.961 . S
H701 C687 0.958 . S
H702 C687 0.961 . S
H703 C687 0.960 . S
C704 C705 1.391 . S
C704 C706 1.394 . S
C704 H720 0.931 . S
C705 C704 1.391 . S
C705 C709 1.376 . S
C706 C704 1.394 . S
C706 C707 1.369 . S
C706 C710 1.531 . S
C707 C706 1.369 . S
C707 C708 1.410 . S
C707 C715 1.503 . S
C708 C707 1.410 . S
C708 C709 1.392 . S
C708 C711 1.511 . S
C709 C705 1.376 . S
C709 C708 1.392 . S
C709 H721 0.929 . S
C710 C706 1.531 . S
C710 H722 0.960 . S
C710 H723 0.962 . S
C710 H724 0.960 . S
C711 C708 1.511 . S
C711 H725 0.961 . S
C711 H726 0.961 . S
C711 H727 0.961 . S
C712 C713 1.370 . S
C712 C714 1.363 . S
C712 H728 0.931 . S
C713 C712 1.370 . S
C713 C717 1.408 . S
C714 C712 1.363 . S
C714 C715 1.370 . S
C714 C718 1.524 . S
C715 C707 1.503 . S
C715 C714 1.370 . S
C715 C716 1.403 . S
C716 C715 1.403 . S
C716 C717 1.404 . S
C716 C719 1.539 . S
C717 C713 1.408 . S
C717 C716 1.404 . S
C717 H729 0.930 . S
C718 C714 1.524 . S
C718 H730 0.956 . S
C718 H731 0.961 . S
C718 H732 0.961 . S
C719 C716 1.539 . S
C719 H733 0.958 . S
C719 H734 0.961 . S
C719 H735 0.960 . S
H720 C704 0.931 . S
H721 C709 0.929 . S
H722 C710 0.960 . S
H723 C710 0.962 . S
H724 C710 0.960 . S
H725 C711 0.961 . S
H726 C711 0.961 . S
H727 C711 0.961 . S
H728 C712 0.931 . S
H729 C717 0.930 . S
H730 C718 0.956 . S
H731 C718 0.961 . S
H732 C718 0.961 . S
H733 C719 0.958 . S
H734 C719 0.961 . S
H735 C719 0.960 . S
C736 C737 1.391 . S
C736 C738 1.394 . S
C736 H752 0.931 . S
C737 C736 1.391 . S
C737 C741 1.376 . S
C738 C736 1.394 . S
C738 C739 1.369 . S
C738 C742 1.531 . S
C739 C738 1.369 . S
C739 C740 1.410 . S
C739 C747 1.503 . S
C740 C739 1.410 . S
C740 C741 1.392 . S
C740 C743 1.511 . S
C741 C737 1.376 . S
C741 C740 1.392 . S
C741 H753 0.929 . S
C742 C738 1.531 . S
C742 H754 0.960 . S
C742 H755 0.962 . S
C742 H756 0.960 . S
C743 C740 1.511 . S
C743 H757 0.961 . S
C743 H758 0.961 . S
C743 H759 0.961 . S
C744 C745 1.370 . S
C744 C746 1.363 . S
C744 H760 0.931 . S
C745 C744 1.370 . S
C745 C749 1.408 . S
C746 C744 1.363 . S
C746 C747 1.370 . S
C746 C750 1.524 . S
C747 C739 1.503 . S
C747 C746 1.370 . S
C747 C748 1.403 . S
C748 C747 1.403 . S
C748 C749 1.404 . S
C748 C751 1.539 . S
C749 C745 1.408 . S
C749 C748 1.404 . S
C749 H761 0.930 . S
C750 C746 1.524 . S
C750 H762 0.956 . S
C750 H763 0.961 . S
C750 H764 0.961 . S
C751 C748 1.539 . S
C751 H765 0.958 . S
C751 H766 0.961 . S
C751 H767 0.960 . S
H752 C736 0.931 . S
H753 C741 0.929 . S
H754 C742 0.960 . S
H755 C742 0.962 . S
H756 C742 0.960 . S
H757 C743 0.961 . S
H758 C743 0.961 . S
H759 C743 0.961 . S
H760 C744 0.931 . S
H761 C749 0.930 . S
H762 C750 0.956 . S
H763 C750 0.961 . S
H764 C750 0.961 . S
H765 C751 0.958 . S
H766 C751 0.961 . S
H767 C751 0.960 . S
C768 C769 1.391 . S
C768 C770 1.394 . S
C768 H784 0.931 . S
C769 C768 1.391 . S
C769 C773 1.376 . S
C770 C768 1.394 . S
C770 C771 1.369 . S
C770 C774 1.531 . S
C771 C770 1.369 . S
C771 C772 1.410 . S
C771 C779 1.503 . S
C772 C771 1.410 . S
C772 C773 1.392 . S
C772 C775 1.511 . S
C773 C769 1.376 . S
C773 C772 1.392 . S
C773 H785 0.929 . S
C774 C770 1.531 . S
C774 H786 0.960 . S
C774 H787 0.962 . S
C774 H788 0.960 . S
C775 C772 1.511 . S
C775 H789 0.961 . S
C775 H790 0.961 . S
C775 H791 0.961 . S
C776 C777 1.370 . S
C776 C778 1.363 . S
C776 H792 0.931 . S
C777 C776 1.370 . S
C777 C781 1.408 . S
C778 C776 1.363 . S
C778 C779 1.370 . S
C778 C782 1.524 . S
C779 C771 1.503 . S
C779 C778 1.370 . S
C779 C780 1.403 . S
C780 C779 1.403 . S
C780 C781 1.404 . S
C780 C783 1.539 . S
C781 C777 1.408 . S
C781 C780 1.404 . S
C781 H793 0.930 . S
C782 C778 1.524 . S
C782 H794 0.956 . S
C782 H795 0.961 . S
C782 H796 0.961 . S
C783 C780 1.539 . S
C783 H797 0.958 . S
C783 H798 0.961 . S
C783 H799 0.960 . S
H784 C768 0.931 . S
H785 C773 0.929 . S
H786 C774 0.960 . S
H787 C774 0.962 . S
H788 C774 0.960 . S
H789 C775 0.961 . S
H790 C775 0.961 . S
H791 C775 0.961 . S
H792 C776 0.931 . S
H793 C781 0.930 . S
H794 C782 0.956 . S
H795 C782 0.961 . S
H796 C782 0.961 . S
H797 C783 0.958 . S
H798 C783 0.961 . S
H799 C783 0.960 . S
C800 C801 1.391 . S
C800 C802 1.394 . S
C800 H816 0.931 . S
C801 C800 1.391 . S
C801 C805 1.376 . S
C802 C800 1.394 . S
C802 C803 1.369 . S
C802 C806 1.531 . S
C803 C802 1.369 . S
C803 C804 1.410 . S
C803 C811 1.503 1_554 S
C804 C803 1.410 . S
C804 C805 1.392 . S
C804 C807 1.511 . S
C805 C801 1.376 . S
C805 C804 1.392 . S
C805 H817 0.929 . S
C806 C802 1.531 . S
C806 H818 0.960 . S
C806 H819 0.962 . S
C806 H820 0.960 . S
C807 C804 1.511 . S
C807 H821 0.961 . S
C807 H822 0.961 . S
C807 H823 0.961 . S
C808 C809 1.370 . S
C808 C810 1.363 . S
C808 H824 0.931 . S
C809 C808 1.370 . S
C809 C813 1.408 . S
C810 C808 1.363 . S
C810 C811 1.370 . S
C810 C814 1.524 . S
C811 C803 1.503 1_556 S
C811 C810 1.370 . S
C811 C812 1.403 . S
C812 C811 1.403 . S
C812 C813 1.404 . S
C812 C815 1.533 1_556 S
C813 C809 1.408 . S
C813 C812 1.404 . S
C813 H825 0.930 . S
C814 C810 1.524 . S
C814 H826 0.956 . S
C814 H827 0.961 1_556 S
C814 H828 0.961 . S
C815 C812 1.533 1_554 S
C815 H829 0.960 . S
C815 H830 0.956 1_554 S
C815 H831 0.970 . S
H816 C800 0.931 . S
H817 C805 0.929 . S
H818 C806 0.960 . S
H819 C806 0.962 . S
H820 C806 0.960 . S
H821 C807 0.961 . S
H822 C807 0.961 . S
H823 C807 0.961 . S
H824 C808 0.931 . S
H825 C813 0.930 . S
H826 C814 0.956 . S
H827 C814 0.961 1_554 S
H828 C814 0.961 . S
H829 C815 0.960 . S
H830 C815 0.956 1_556 S
H831 C815 0.970 . S
C832 C833 1.391 . S
C832 C834 1.394 . S
C832 H848 0.931 . S
C833 C832 1.391 . S
C833 C837 1.376 . S
C834 C832 1.394 . S
C834 C835 1.369 . S
C834 C838 1.531 . S
C835 C834 1.369 . S
C835 C836 1.410 . S
C835 C843 1.503 1_554 S
C836 C835 1.410 . S
C836 C837 1.392 . S
C836 C839 1.511 . S
C837 C833 1.376 . S
C837 C836 1.392 . S
C837 H849 0.929 . S
C838 C834 1.531 . S
C838 H850 0.960 1_554 S
C838 H851 0.962 . S
C838 H852 0.960 . S
C839 C836 1.511 . S
C839 H853 0.961 . S
C839 H854 0.961 . S
C839 H855 0.961 . S
C840 C841 1.370 . S
C840 C842 1.363 . S
C840 H856 0.931 . S
C841 C840 1.370 . S
C841 C845 1.408 . S
C842 C840 1.363 . S
C842 C843 1.370 . S
C842 C846 1.524 . S
C843 C835 1.503 1_556 S
C843 C842 1.370 . S
C843 C844 1.403 . S
C844 C843 1.403 . S
C844 C845 1.404 . S
C844 C847 1.539 . S
C845 C841 1.408 . S
C845 C844 1.404 . S
C845 H857 0.930 . S
C846 C842 1.524 . S
C846 H858 0.956 1_556 S
C846 H859 0.961 1_556 S
C846 H860 0.961 . S
C847 C844 1.539 . S
C847 H861 0.958 . S
C847 H862 0.961 . S
C847 H863 0.960 1_556 S
H848 C832 0.931 . S
H849 C837 0.929 . S
H850 C838 0.960 1_556 S
H851 C838 0.962 . S
H852 C838 0.960 . S
H853 C839 0.961 . S
H854 C839 0.961 . S
H855 C839 0.961 . S
H856 C840 0.931 . S
H857 C845 0.930 . S
H858 C846 0.956 1_554 S
H859 C846 0.961 1_554 S
H860 C846 0.961 . S
H861 C847 0.958 . S
H862 C847 0.961 . S
H863 C847 0.960 1_554 S
C864 C865 1.391 . S
C864 C866 1.394 . S
C864 H880 0.931 . S
C865 C864 1.391 . S
C865 C869 1.376 . S
C866 C864 1.394 . S
C866 C867 1.369 . S
C866 C870 1.531 . S
C867 C866 1.369 . S
C867 C868 1.410 . S
C867 C875 1.503 1_554 S
C868 C867 1.410 . S
C868 C869 1.392 . S
C868 C871 1.511 . S
C869 C865 1.376 . S
C869 C868 1.392 . S
C869 H881 0.929 . S
C870 C866 1.531 . S
C870 H882 0.955 1_554 S
C870 H883 0.962 . S
C870 H884 0.960 . S
C871 C868 1.511 . S
C871 H885 0.961 . S
C871 H886 0.961 . S
C871 H887 0.961 . S
C872 C873 1.370 . S
C872 C874 1.363 . S
C872 H888 0.931 . S
C873 C872 1.370 . S
C873 C877 1.408 . S
C874 C872 1.363 . S
C874 C875 1.370 . S
C874 C878 1.524 . S
C875 C867 1.503 1_556 S
C875 C874 1.370 . S
C875 C876 1.403 . S
C876 C875 1.403 . S
C876 C877 1.404 . S
C876 C879 1.539 . S
C877 C873 1.408 . S
C877 C876 1.404 . S
C877 H889 0.930 . S
C878 C874 1.524 . S
C878 H890 0.956 . S
C878 H891 0.961 1_556 S
C878 H892 0.961 . S
C879 C876 1.539 . S
C879 H893 0.958 . S
C879 H894 0.961 . S
C879 H895 0.960 1_556 S
H880 C864 0.931 . S
H881 C869 0.929 . S
H882 C870 0.955 1_556 S
H883 C870 0.962 . S
H884 C870 0.960 . S
H885 C871 0.961 . S
H886 C871 0.961 . S
H887 C871 0.961 . S
H888 C872 0.931 . S
H889 C877 0.930 . S
H890 C878 0.956 . S
H891 C878 0.961 1_554 S
H892 C878 0.961 . S
H893 C879 0.958 . S
H894 C879 0.961 . S
H895 C879 0.960 1_554 S
C896 C897 1.391 . S
C896 C898 1.394 . S
C896 H912 0.931 . S
C897 C896 1.391 . S
C897 C901 1.376 . S
C898 C896 1.394 . S
C898 C899 1.369 . S
C898 C902 1.531 . S
C899 C898 1.369 . S
C899 C900 1.410 . S
C899 C907 1.503 1_554 S
C900 C899 1.410 . S
C900 C901 1.392 . S
C900 C903 1.511 . S
C901 C897 1.376 . S
C901 C900 1.392 . S
C901 H913 0.929 . S
C902 C898 1.531 . S
C902 H914 0.960 . S
C902 H915 0.962 . S
C902 H916 0.960 . S
C903 C900 1.511 . S
C903 H917 0.961 . S
C903 H918 0.961 1_554 S
C903 H919 0.961 . S
C904 C905 1.370 . S
C904 C906 1.363 . S
C904 H920 0.931 . S
C905 C904 1.370 . S
C905 C909 1.408 . S
C906 C904 1.363 . S
C906 C907 1.370 . S
C906 C910 1.524 . S
C907 C899 1.503 1_556 S
C907 C906 1.370 . S
C907 C908 1.403 . S
C908 C907 1.403 . S
C908 C909 1.404 . S
C908 C911 1.539 . S
C909 C905 1.408 . S
C909 C908 1.404 . S
C909 H921 0.930 . S
C910 C906 1.524 . S
C910 H922 0.956 1_556 S
C910 H923 0.961 1_556 S
C910 H924 0.961 . S
C911 C908 1.539 . S
C911 H925 0.958 1_556 S
C911 H926 0.961 . S
C911 H927 0.960 1_556 S
H912 C896 0.931 . S
H913 C901 0.929 . S
H914 C902 0.960 . S
H915 C902 0.962 . S
H916 C902 0.960 . S
H917 C903 0.961 . S
H918 C903 0.961 1_556 S
H919 C903 0.961 . S
H920 C904 0.931 . S
H921 C909 0.930 . S
H922 C910 0.956 1_554 S
H923 C910 0.961 1_554 S
H924 C910 0.961 . S
H925 C911 0.958 1_554 S
H926 C911 0.961 . S
H927 C911 0.960 1_554 S
C928 C929 1.391 . S
C928 C930 1.394 . S
C928 H944 0.931 . S
C929 C928 1.391 . S
C929 C933 1.376 . S
C930 C928 1.394 . S
C930 C931 1.369 . S
C930 C934 1.531 . S
C931 C930 1.369 . S
C931 C932 1.410 . S
C931 C939 1.503 1_554 S
C932 C931 1.410 . S
C932 C933 1.392 . S
C932 C935 1.511 . S
C933 C929 1.376 . S
C933 C932 1.392 . S
C933 H945 0.929 . S
C934 C930 1.531 . S
C934 H946 0.960 1_554 S
C934 H947 0.962 1_554 S
C934 H948 0.960 . S
C935 C932 1.511 . S
C935 H949 0.961 . S
C935 H950 0.961 1_554 S
C935 H951 0.961 . S
C936 C937 1.370 . S
C936 C938 1.363 . S
C936 H952 0.931 . S
C937 C936 1.370 . S
C937 C941 1.408 . S
C938 C936 1.363 . S
C938 C939 1.370 . S
C938 C942 1.524 . S
C939 C931 1.503 1_556 S
C939 C938 1.370 . S
C939 C940 1.403 . S
C940 C939 1.403 . S
C940 C941 1.404 . S
C940 C943 1.539 . S
C941 C937 1.408 . S
C941 C940 1.404 . S
C941 H953 0.930 . S
C942 C938 1.524 . S
C942 H954 0.956 . S
C942 H955 0.961 . S
C942 H956 0.961 . S
C943 C940 1.539 . S
C943 H957 0.958 . S
C943 H958 0.961 . S
C943 H959 0.960 1_556 S
H944 C928 0.931 . S
H945 C933 0.929 . S
H946 C934 0.960 1_556 S
H947 C934 0.962 1_556 S
H948 C934 0.960 . S
H949 C935 0.961 . S
H950 C935 0.961 1_556 S
H951 C935 0.961 . S
H952 C936 0.931 . S
H953 C941 0.930 . S
H954 C942 0.956 . S
H955 C942 0.961 . S
H956 C942 0.961 . S
H957 C943 0.958 . S
H958 C943 0.961 . S
H959 C943 0.960 1_554 S
C960 C961 1.391 . S
C960 C962 1.394 . S
C960 H976 0.931 . S
C961 C960 1.391 . S
C961 C965 1.376 . S
C962 C960 1.394 . S
C962 C963 1.369 . S
C962 C966 1.531 . S
C963 C962 1.369 . S
C963 C964 1.410 . S
C963 C971 1.503 1_554 S
C964 C963 1.410 . S
C964 C965 1.392 . S
C964 C967 1.511 . S
C965 C961 1.376 . S
C965 C964 1.392 . S
C965 H977 0.929 . S
C966 C962 1.531 . S
C966 H978 0.960 1_554 S
C966 H979 0.962 . S
C966 H980 0.960 . S
C967 C964 1.511 . S
C967 H981 0.961 . S
C967 H982 0.961 1_554 S
C967 H983 0.961 . S
C968 C969 1.370 . S
C968 C970 1.363 . S
C968 H984 0.931 . S
C969 C968 1.370 . S
C969 C973 1.408 . S
C970 C968 1.363 . S
C970 C971 1.370 . S
C970 C974 1.524 . S
C971 C963 1.503 1_556 S
C971 C970 1.370 . S
C971 C972 1.403 . S
C972 C971 1.403 . S
C972 C973 1.404 . S
C972 C975 1.539 . S
C973 C969 1.408 . S
C973 C972 1.404 . S
C973 H985 0.930 . S
C974 C970 1.524 . S
C974 H986 0.956 . S
C974 H987 0.961 . S
C974 H988 0.961 . S
C975 C972 1.539 . S
C975 H989 0.958 . S
C975 H990 0.961 . S
C975 H991 0.960 1_556 S
H976 C960 0.931 . S
H977 C965 0.929 . S
H978 C966 0.960 1_556 S
H979 C966 0.962 . S
H980 C966 0.960 . S
H981 C967 0.961 . S
H982 C967 0.961 1_556 S
H983 C967 0.961 . S
H984 C968 0.931 . S
H985 C973 0.930 . S
H986 C974 0.956 . S
H987 C974 0.961 . S
H988 C974 0.961 . S
H989 C975 0.958 . S
H990 C975 0.961 . S
H991 C975 0.960 1_554 S
C992 C993 1.391 . S
C992 C994 1.394 . S
C992 H1008 0.931 . S
C993 C992 1.391 . S
C993 C997 1.376 . S
C994 C992 1.394 . S
C994 C995 1.369 . S
C994 C998 1.531 . S
C995 C994 1.369 . S
C995 C996 1.410 . S
C995 C1003 1.503 1_554 S
C996 C995 1.410 . S
C996 C997 1.392 . S
C996 C999 1.511 1_554 S
C997 C993 1.376 . S
C997 C996 1.392 . S
C997 H1009 0.929 . S
C998 C994 1.531 . S
C998 H1010 0.948 1_554 S
C998 H1011 0.962 . S
C998 H1012 0.960 . S
C999 C996 1.511 1_556 S
C999 H1013 0.961 1_556 S
C999 H1014 0.961 . S
C999 H1015 0.961 . S
C1000 C1001 1.370 . S
C1000 C1002 1.363 . S
C1000 H1016 0.931 . S
C1001 C1000 1.370 . S
C1001 C1005 1.408 . S
C1002 C1000 1.363 . S
C1002 C1003 1.370 . S
C1002 C1006 1.524 . S
C1003 C995 1.503 1_556 S
C1003 C1002 1.370 . S
C1003 C1004 1.403 . S
C1004 C1003 1.403 . S
C1004 C1005 1.404 . S
C1004 C1007 1.539 . S
C1005 C1001 1.408 . S
C1005 C1004 1.404 . S
C1005 H1017 0.930 . S
C1006 C1002 1.524 . S
C1006 H1018 0.956 . S
C1006 H1019 0.961 . S
C1006 H1020 0.961 . S
C1007 C1004 1.539 . S
C1007 H1021 0.958 . S
C1007 H1022 0.961 . S
C1007 H1023 0.960 . S
H1008 C992 0.931 . S
H1009 C997 0.929 . S
H1010 C998 0.948 1_556 S
H1011 C998 0.962 . S
H1012 C998 0.960 . S
H1013 C999 0.961 1_554 S
H1014 C999 0.961 . S
H1015 C999 0.961 . S
H1016 C1000 0.931 . S
H1017 C1005 0.930 . S
H1018 C1006 0.956 . S
H1019 C1006 0.961 . S
H1020 C1006 0.961 . S
H1021 C1007 0.958 . S
H1022 C1007 0.961 . S
H1023 C1007 0.960 . S
C1024 C1025 1.391 . S
C1024 C1026 1.394 . S
C1024 H1040 0.931 . S
C1025 C1024 1.391 . S
C1025 C1029 1.376 . S
C1026 C1024 1.394 . S
C1026 C1027 1.369 . S
C1026 C1030 1.531 . S
C1027 C1026 1.369 . S
C1027 C1028 1.410 . S
C1027 C1035 1.503 1_554 S
C1028 C1027 1.410 . S
C1028 C1029 1.392 . S
C1028 C1031 1.511 . S
C1029 C1025 1.376 . S
C1029 C1028 1.392 . S
C1029 H1041 0.929 . S
C1030 C1026 1.531 . S
C1030 H1042 0.960 1_554 S
C1030 H1043 0.962 . S
C1030 H1044 0.960 . S
C1031 C1028 1.511 . S
C1031 H1045 0.961 . S
C1031 H1046 0.961 1_554 S
C1031 H1047 0.961 . S
C1032 C1033 1.370 . S
C1032 C1034 1.363 . S
C1032 H1048 0.931 . S
C1033 C1032 1.370 . S
C1033 C1037 1.408 . S
C1034 C1032 1.363 . S
C1034 C1035 1.370 . S
C1034 C1038 1.524 . S
C1035 C1027 1.503 1_556 S
C1035 C1034 1.370 . S
C1035 C1036 1.403 . S
C1036 C1035 1.403 . S
C1036 C1037 1.404 . S
C1036 C1039 1.539 . S
C1037 C1033 1.408 . S
C1037 C1036 1.404 . S
C1037 H1049 0.930 . S
C1038 C1034 1.524 . S
C1038 H1050 0.956 . S
C1038 H1051 0.961 . S
C1038 H1052 0.961 . S
C1039 C1036 1.539 . S
C1039 H1053 0.958 . S
C1039 H1054 0.961 . S
C1039 H1055 0.960 1_556 S
H1040 C1024 0.931 . S
H1041 C1029 0.929 . S
H1042 C1030 0.960 1_556 S
H1043 C1030 0.962 . S
H1044 C1030 0.960 . S
H1045 C1031 0.961 . S
H1046 C1031 0.961 1_556 S
H1047 C1031 0.961 . S
H1048 C1032 0.931 . S
H1049 C1037 0.930 . S
H1050 C1038 0.956 . S
H1051 C1038 0.961 . S
H1052 C1038 0.961 . S
H1053 C1039 0.958 . S
H1054 C1039 0.961 . S
H1055 C1039 0.960 1_554 S
C1056 C1057 1.391 . S
C1056 C1058 1.394 . S
C1056 H1072 0.931 . S
C1057 C1056 1.391 . S
C1057 C1061 1.376 . S
C1058 C1056 1.394 . S
C1058 C1059 1.369 . S
C1058 C1062 1.531 . S
C1059 C1058 1.369 . S
C1059 C1060 1.410 . S
C1059 C1067 1.503 . S
C1060 C1059 1.410 . S
C1060 C1061 1.392 . S
C1060 C1063 1.511 . S
C1061 C1057 1.376 . S
C1061 C1060 1.392 . S
C1061 H1073 0.929 . S
C1062 C1058 1.531 . S
C1062 H1074 0.960 . S
C1062 H1075 0.962 . S
C1062 H1076 0.960 . S
C1063 C1060 1.511 . S
C1063 H1077 0.961 . S
C1063 H1078 0.961 . S
C1063 H1079 0.961 . S
C1064 C1065 1.370 . S
C1064 C1066 1.363 . S
C1064 H1080 0.931 . S
C1065 C1064 1.370 . S
C1065 C1069 1.408 . S
C1066 C1064 1.363 . S
C1066 C1067 1.370 . S
C1066 C1070 1.524 . S
C1067 C1059 1.503 . S
C1067 C1066 1.370 . S
C1067 C1068 1.403 . S
C1068 C1067 1.403 . S
C1068 C1069 1.404 . S
C1068 C1071 1.539 . S
C1069 C1065 1.408 . S
C1069 C1068 1.404 . S
C1069 H1081 0.930 . S
C1070 C1066 1.524 . S
C1070 H1082 0.956 . S
C1070 H1083 0.961 . S
C1070 H1084 0.961 . S
C1071 C1068 1.539 . S
C1071 H1085 0.958 . S
C1071 H1086 0.961 . S
C1071 H1087 0.960 . S
H1072 C1056 0.931 . S
H1073 C1061 0.929 . S
H1074 C1062 0.960 . S
H1075 C1062 0.962 . S
H1076 C1062 0.960 . S
H1077 C1063 0.961 . S
H1078 C1063 0.961 . S
H1079 C1063 0.961 . S
H1080 C1064 0.931 . S
H1081 C1069 0.930 . S
H1082 C1070 0.956 . S
H1083 C1070 0.961 . S
H1084 C1070 0.961 . S
H1085 C1071 0.958 . S
H1086 C1071 0.961 . S
H1087 C1071 0.960 . S
C1088 C1089 1.391 . S
C1088 C1090 1.394 . S
C1088 H1104 0.931 . S
C1089 C1088 1.391 . S
C1089 C1093 1.376 . S
C1090 C1088 1.394 . S
C1090 C1091 1.369 . S
C1090 C1094 1.531 . S
C1091 C1090 1.369 . S
C1091 C1092 1.410 . S
C1091 C1099 1.503 . S
C1092 C1091 1.410 . S
C1092 C1093 1.392 . S
C1092 C1095 1.511 . S
C1093 C1089 1.376 . S
C1093 C1092 1.392 . S
C1093 H1105 0.929 . S
C1094 C1090 1.531 . S
C1094 H1106 0.960 . S
C1094 H1107 0.962 . S
C1094 H1108 0.960 . S
C1095 C1092 1.511 . S
C1095 H1109 0.961 . S
C1095 H1110 0.961 . S
C1095 H1111 0.961 . S
C1096 C1097 1.370 . S
C1096 C1098 1.363 . S
C1096 H1112 0.931 . S
C1097 C1096 1.370 . S
C1097 C1101 1.408 . S
C1098 C1096 1.363 . S
C1098 C1099 1.370 . S
C1098 C1102 1.524 . S
C1099 C1091 1.503 . S
C1099 C1098 1.370 . S
C1099 C1100 1.403 . S
C1100 C1099 1.403 . S
C1100 C1101 1.404 . S
C1100 C1103 1.539 . S
C1101 C1097 1.408 . S
C1101 C1100 1.404 . S
C1101 H1113 0.930 . S
C1102 C1098 1.524 . S
C1102 H1114 0.956 . S
C1102 H1115 0.961 . S
C1102 H1116 0.961 . S
C1103 C1100 1.539 . S
C1103 H1117 0.958 . S
C1103 H1118 0.961 . S
C1103 H1119 0.960 . S
H1104 C1088 0.931 . S
H1105 C1093 0.929 . S
H1106 C1094 0.960 . S
H1107 C1094 0.962 . S
H1108 C1094 0.960 . S
H1109 C1095 0.961 . S
H1110 C1095 0.961 . S
H1111 C1095 0.961 . S
H1112 C1096 0.931 . S
H1113 C1101 0.930 . S
H1114 C1102 0.956 . S
H1115 C1102 0.961 . S
H1116 C1102 0.961 . S
H1117 C1103 0.958 . S
H1118 C1103 0.961 . S
H1119 C1103 0.960 . S
C1120 C1121 1.391 . S
C1120 C1122 1.394 . S
C1120 H1136 0.931 . S
C1121 C1120 1.391 . S
C1121 C1125 1.376 . S
C1122 C1120 1.394 . S
C1122 C1123 1.369 . S
C1122 C1126 1.531 . S
C1123 C1122 1.369 . S
C1123 C1124 1.410 . S
C1123 C1131 1.503 . S
C1124 C1123 1.410 . S
C1124 C1125 1.392 . S
C1124 C1127 1.511 . S
C1125 C1121 1.376 . S
C1125 C1124 1.392 . S
C1125 H1137 0.929 . S
C1126 C1122 1.531 . S
C1126 H1138 0.960 . S
C1126 H1139 0.962 . S
C1126 H1140 0.960 . S
C1127 C1124 1.511 . S
C1127 H1141 0.961 . S
C1127 H1142 0.961 . S
C1127 H1143 0.961 . S
C1128 C1129 1.370 . S
C1128 C1130 1.363 . S
C1128 H1144 0.931 . S
C1129 C1128 1.370 . S
C1129 C1133 1.408 . S
C1130 C1128 1.363 . S
C1130 C1131 1.370 . S
C1130 C1134 1.524 . S
C1131 C1123 1.503 . S
C1131 C1130 1.370 . S
C1131 C1132 1.403 . S
C1132 C1131 1.403 . S
C1132 C1133 1.404 . S
C1132 C1135 1.539 . S
C1133 C1129 1.408 . S
C1133 C1132 1.404 . S
C1133 H1145 0.930 . S
C1134 C1130 1.524 . S
C1134 H1146 0.956 . S
C1134 H1147 0.961 . S
C1134 H1148 0.961 . S
C1135 C1132 1.539 . S
C1135 H1149 0.958 . S
C1135 H1150 0.961 . S
C1135 H1151 0.960 . S
H1136 C1120 0.931 . S
H1137 C1125 0.929 . S
H1138 C1126 0.960 . S
H1139 C1126 0.962 . S
H1140 C1126 0.960 . S
H1141 C1127 0.961 . S
H1142 C1127 0.961 . S
H1143 C1127 0.961 . S
H1144 C1128 0.931 . S
H1145 C1133 0.930 . S
H1146 C1134 0.956 . S
H1147 C1134 0.961 . S
H1148 C1134 0.961 . S
H1149 C1135 0.958 . S
H1150 C1135 0.961 . S
H1151 C1135 0.960 . S
C1152 C1153 1.391 . S
C1152 C1154 1.394 . S
C1152 H1168 0.931 . S
C1153 C1152 1.391 . S
C1153 C1157 1.376 . S
C1154 C1152 1.394 . S
C1154 C1155 1.369 . S
C1154 C1158 1.531 . S
C1155 C1154 1.369 . S
C1155 C1156 1.410 . S
C1155 C1163 1.503 . S
C1156 C1155 1.410 . S
C1156 C1157 1.392 . S
C1156 C1159 1.511 . S
C1157 C1153 1.376 . S
C1157 C1156 1.392 . S
C1157 H1169 0.929 . S
C1158 C1154 1.531 . S
C1158 H1170 0.960 . S
C1158 H1171 0.962 . S
C1158 H1172 0.960 . S
C1159 C1156 1.511 . S
C1159 H1173 0.961 . S
C1159 H1174 0.961 . S
C1159 H1175 0.961 . S
C1160 C1161 1.370 . S
C1160 C1162 1.363 . S
C1160 H1176 0.931 . S
C1161 C1160 1.370 . S
C1161 C1165 1.408 . S
C1162 C1160 1.363 . S
C1162 C1163 1.370 . S
C1162 C1166 1.524 . S
C1163 C1155 1.503 . S
C1163 C1162 1.370 . S
C1163 C1164 1.403 . S
C1164 C1163 1.403 . S
C1164 C1165 1.404 . S
C1164 C1167 1.539 . S
C1165 C1161 1.408 . S
C1165 C1164 1.404 . S
C1165 H1177 0.930 . S
C1166 C1162 1.524 . S
C1166 H1178 0.956 . S
C1166 H1179 0.961 . S
C1166 H1180 0.961 . S
C1167 C1164 1.539 . S
C1167 H1181 0.958 . S
C1167 H1182 0.961 . S
C1167 H1183 0.960 . S
H1168 C1152 0.931 . S
H1169 C1157 0.929 . S
H1170 C1158 0.960 . S
H1171 C1158 0.962 . S
H1172 C1158 0.960 . S
H1173 C1159 0.961 . S
H1174 C1159 0.961 . S
H1175 C1159 0.961 . S
H1176 C1160 0.931 . S
H1177 C1165 0.930 . S
H1178 C1166 0.956 . S
H1179 C1166 0.961 . S
H1180 C1166 0.961 . S
H1181 C1167 0.958 . S
H1182 C1167 0.961 . S
H1183 C1167 0.960 . S
C1184 C1185 1.391 . S
C1184 C1186 1.394 . S
C1184 H1200 0.931 . S
C1185 C1184 1.391 . S
C1185 C1189 1.376 . S
C1186 C1184 1.394 . S
C1186 C1187 1.369 . S
C1186 C1190 1.531 . S
C1187 C1186 1.369 . S
C1187 C1188 1.410 . S
C1187 C1195 1.503 . S
C1188 C1187 1.410 . S
C1188 C1189 1.392 . S
C1188 C1191 1.511 . S
C1189 C1185 1.376 . S
C1189 C1188 1.392 . S
C1189 H1201 0.929 . S
C1190 C1186 1.531 . S
C1190 H1202 0.960 . S
C1190 H1203 0.962 . S
C1190 H1204 0.960 . S
C1191 C1188 1.511 . S
C1191 H1205 0.961 . S
C1191 H1206 0.961 . S
C1191 H1207 0.961 . S
C1192 C1193 1.370 . S
C1192 C1194 1.363 . S
C1192 H1208 0.931 . S
C1193 C1192 1.370 . S
C1193 C1197 1.408 . S
C1194 C1192 1.363 . S
C1194 C1195 1.370 . S
C1194 C1198 1.524 . S
C1195 C1187 1.503 . S
C1195 C1194 1.370 . S
C1195 C1196 1.403 . S
C1196 C1195 1.403 . S
C1196 C1197 1.404 . S
C1196 C1199 1.539 . S
C1197 C1193 1.408 . S
C1197 C1196 1.404 . S
C1197 H1209 0.930 . S
C1198 C1194 1.524 . S
C1198 H1210 0.956 . S
C1198 H1211 0.961 . S
C1198 H1212 0.961 . S
C1199 C1196 1.539 . S
C1199 H1213 0.958 . S
C1199 H1214 0.961 . S
C1199 H1215 0.960 . S
H1200 C1184 0.931 . S
H1201 C1189 0.929 . S
H1202 C1190 0.960 . S
H1203 C1190 0.962 . S
H1204 C1190 0.960 . S
H1205 C1191 0.961 . S
H1206 C1191 0.961 . S
H1207 C1191 0.961 . S
H1208 C1192 0.931 . S
H1209 C1197 0.930 . S
H1210 C1198 0.956 . S
H1211 C1198 0.961 . S
H1212 C1198 0.961 . S
H1213 C1199 0.958 . S
H1214 C1199 0.961 . S
H1215 C1199 0.960 . S
C1216 C1217 1.391 . S
C1216 C1218 1.394 . S
C1216 H1232 0.931 . S
C1217 C1216 1.391 . S
C1217 C1221 1.376 . S
C1218 C1216 1.394 . S
C1218 C1219 1.369 . S
C1218 C1222 1.531 . S
C1219 C1218 1.369 . S
C1219 C1220 1.410 . S
C1219 C1227 1.503 . S
C1220 C1219 1.410 . S
C1220 C1221 1.392 . S
C1220 C1223 1.511 . S
C1221 C1217 1.376 . S
C1221 C1220 1.392 . S
C1221 H1233 0.929 . S
C1222 C1218 1.531 . S
C1222 H1234 0.960 . S
C1222 H1235 0.962 . S
C1222 H1236 0.960 . S
C1223 C1220 1.511 . S
C1223 H1237 0.961 . S
C1223 H1238 0.961 . S
C1223 H1239 0.961 . S
C1224 C1225 1.370 . S
C1224 C1226 1.363 . S
C1224 H1240 0.931 . S
C1225 C1224 1.370 . S
C1225 C1229 1.408 . S
C1226 C1224 1.363 . S
C1226 C1227 1.370 . S
C1226 C1230 1.524 . S
C1227 C1219 1.503 . S
C1227 C1226 1.370 . S
C1227 C1228 1.403 . S
C1228 C1227 1.403 . S
C1228 C1229 1.404 . S
C1228 C1231 1.539 . S
C1229 C1225 1.408 . S
C1229 C1228 1.404 . S
C1229 H1241 0.930 . S
C1230 C1226 1.524 . S
C1230 H1242 0.956 . S
C1230 H1243 0.961 . S
C1230 H1244 0.961 . S
C1231 C1228 1.539 . S
C1231 H1245 0.958 . S
C1231 H1246 0.961 . S
C1231 H1247 0.960 . S
H1232 C1216 0.931 . S
H1233 C1221 0.929 . S
H1234 C1222 0.960 . S
H1235 C1222 0.962 . S
H1236 C1222 0.960 . S
H1237 C1223 0.961 . S
H1238 C1223 0.961 . S
H1239 C1223 0.961 . S
H1240 C1224 0.931 . S
H1241 C1229 0.930 . S
H1242 C1230 0.956 . S
H1243 C1230 0.961 . S
H1244 C1230 0.961 . S
H1245 C1231 0.958 . S
H1246 C1231 0.961 . S
H1247 C1231 0.960 . S
C1248 C1249 1.391 . S
C1248 C1250 1.394 . S
C1248 H1264 0.931 . S
C1249 C1248 1.391 . S
C1249 C1253 1.376 . S
C1250 C1248 1.394 . S
C1250 C1251 1.369 . S
C1250 C1254 1.531 . S
C1251 C1250 1.369 . S
C1251 C1252 1.410 . S
C1251 C1259 1.503 . S
C1252 C1251 1.410 . S
C1252 C1253 1.392 . S
C1252 C1255 1.511 . S
C1253 C1249 1.376 . S
C1253 C1252 1.392 . S
C1253 H1265 0.929 . S
C1254 C1250 1.531 . S
C1254 H1266 0.960 . S
C1254 H1267 0.962 . S
C1254 H1268 0.960 . S
C1255 C1252 1.511 . S
C1255 H1269 0.961 . S
C1255 H1270 0.961 . S
C1255 H1271 0.961 . S
C1256 C1257 1.370 . S
C1256 C1258 1.363 . S
C1256 H1272 0.931 . S
C1257 C1256 1.370 . S
C1257 C1261 1.408 . S
C1258 C1256 1.363 . S
C1258 C1259 1.370 . S
C1258 C1262 1.524 . S
C1259 C1251 1.503 . S
C1259 C1258 1.370 . S
C1259 C1260 1.403 . S
C1260 C1259 1.403 . S
C1260 C1261 1.404 . S
C1260 C1263 1.539 . S
C1261 C1257 1.408 . S
C1261 C1260 1.404 . S
C1261 H1273 0.930 . S
C1262 C1258 1.524 . S
C1262 H1274 0.956 . S
C1262 H1275 0.961 . S
C1262 H1276 0.961 . S
C1263 C1260 1.539 . S
C1263 H1277 0.958 . S
C1263 H1278 0.961 . S
C1263 H1279 0.960 . S
H1264 C1248 0.931 . S
H1265 C1253 0.929 . S
H1266 C1254 0.960 . S
H1267 C1254 0.962 . S
H1268 C1254 0.960 . S
H1269 C1255 0.961 . S
H1270 C1255 0.961 . S
H1271 C1255 0.961 . S
H1272 C1256 0.931 . S
H1273 C1261 0.930 . S
H1274 C1262 0.956 . S
H1275 C1262 0.961 . S
H1276 C1262 0.961 . S
H1277 C1263 0.958 . S
H1278 C1263 0.961 . S
H1279 C1263 0.960 . S
C1280 C1281 1.391 . S
C1280 C1282 1.394 . S
C1280 H1296 0.931 . S
C1281 C1280 1.391 . S
C1281 C1285 1.376 . S
C1282 C1280 1.394 . S
C1282 C1283 1.369 . S
C1282 C1286 1.531 . S
C1283 C1282 1.369 . S
C1283 C1284 1.410 . S
C1283 C1291 1.503 . S
C1284 C1283 1.410 . S
C1284 C1285 1.392 . S
C1284 C1287 1.511 . S
C1285 C1281 1.376 . S
C1285 C1284 1.392 . S
C1285 H1297 0.929 . S
C1286 C1282 1.531 . S
C1286 H1298 0.960 . S
C1286 H1299 0.962 . S
C1286 H1300 0.960 . S
C1287 C1284 1.511 . S
C1287 H1301 0.961 . S
C1287 H1302 0.961 . S
C1287 H1303 0.961 . S
C1288 C1289 1.370 . S
C1288 C1290 1.363 . S
C1288 H1304 0.931 . S
C1289 C1288 1.370 . S
C1289 C1293 1.408 . S
C1290 C1288 1.363 . S
C1290 C1291 1.370 . S
C1290 C1294 1.524 . S
C1291 C1283 1.503 . S
C1291 C1290 1.370 . S
C1291 C1292 1.403 . S
C1292 C1291 1.403 . S
C1292 C1293 1.404 . S
C1292 C1295 1.539 . S
C1293 C1289 1.408 . S
C1293 C1292 1.404 . S
C1293 H1305 0.930 . S
C1294 C1290 1.524 . S
C1294 H1306 0.956 . S
C1294 H1307 0.961 . S
C1294 H1308 0.961 . S
C1295 C1292 1.539 . S
C1295 H1309 0.958 . S
C1295 H1310 0.961 . S
C1295 H1311 0.960 . S
H1296 C1280 0.931 . S
H1297 C1285 0.929 . S
H1298 C1286 0.960 . S
H1299 C1286 0.962 . S
H1300 C1286 0.960 . S
H1301 C1287 0.961 . S
H1302 C1287 0.961 . S
H1303 C1287 0.961 . S
H1304 C1288 0.931 . S
H1305 C1293 0.930 . S
H1306 C1294 0.956 . S
H1307 C1294 0.961 . S
H1308 C1294 0.961 . S
H1309 C1295 0.958 . S
H1310 C1295 0.961 . S
H1311 C1295 0.960 . S
C1312 C1313 1.391 . S
C1312 C1314 1.394 1_554 S
C1312 H1328 0.931 . S
C1313 C1312 1.391 . S
C1313 C1317 1.376 . S
C1314 C1312 1.394 1_556 S
C1314 C1315 1.369 . S
C1314 C1318 1.531 . S
C1315 C1314 1.369 . S
C1315 C1316 1.410 1_556 S
C1315 C1323 1.503 1_545 S
C1316 C1315 1.410 1_554 S
C1316 C1317 1.392 . S
C1316 C1319 1.511 . S
C1317 C1313 1.376 . S
C1317 C1316 1.392 . S
C1317 H1329 0.929 . S
C1318 C1314 1.531 . S
C1318 H1330 0.960 . S
C1318 H1331 0.962 1_556 S
C1318 H1332 0.960 . S
C1319 C1316 1.511 . S
C1319 H1333 0.961 . S
C1319 H1334 0.961 1_545 S
C1319 H1335 0.961 1_554 S
C1320 C1321 1.370 1_554 S
C1320 C1322 1.363 . S
C1320 H1336 0.931 . S
C1321 C1320 1.370 1_556 S
C1321 C1325 1.408 . S
C1322 C1320 1.363 . S
C1322 C1323 1.370 1_554 S
C1322 C1326 1.524 . S
C1323 C1315 1.503 1_565 S
C1323 C1322 1.370 1_556 S
C1323 C1324 1.403 . S
C1324 C1323 1.403 . S
C1324 C1325 1.404 . S
C1324 C1327 1.539 . S
C1325 C1321 1.408 . S
C1325 C1324 1.404 . S
C1325 H1337 0.930 . S
C1326 C1322 1.524 . S
C1326 H1338 0.956 . S
C1326 H1339 0.961 . S
C1326 H1340 0.961 . S
C1327 C1324 1.539 . S
C1327 H1341 0.958 . S
C1327 H1342 0.961 . S
C1327 H1343 0.960 1_565 S
H1328 C1312 0.931 . S
H1329 C1317 0.929 . S
H1330 C1318 0.960 . S
H1331 C1318 0.962 1_554 S
H1332 C1318 0.960 . S
H1333 C1319 0.961 . S
H1334 C1319 0.961 1_565 S
H1335 C1319 0.961 1_556 S
H1336 C1320 0.931 . S
H1337 C1325 0.930 . S
H1338 C1326 0.956 . S
H1339 C1326 0.961 . S
H1340 C1326 0.961 . S
H1341 C1327 0.958 . S
H1342 C1327 0.961 . S
H1343 C1327 0.960 1_545 S
C1344 C1345 1.391 . S
C1344 C1346 1.394 . S
C1344 H1360 0.931 . S
C1345 C1344 1.391 . S
C1345 C1349 1.376 1_556 S
C1346 C1344 1.394 . S
C1346 C1347 1.369 . S
C1346 C1350 1.531 . S
C1347 C1346 1.369 . S
C1347 C1348 1.410 1_556 S
C1347 C1355 1.504 1_455 S
C1348 C1347 1.410 1_554 S
C1348 C1349 1.392 . S
C1348 C1351 1.511 . S
C1349 C1345 1.376 1_554 S
C1349 C1348 1.392 . S
C1349 H1361 0.929 . S
C1350 C1346 1.531 . S
C1350 H1362 0.960 1_455 S
C1350 H1363 0.962 . S
C1350 H1364 0.960 . S
C1351 C1348 1.511 . S
C1351 H1365 0.961 . S
C1351 H1366 0.961 . S
C1351 H1367 0.961 . S
C1352 C1353 1.370 . S
C1352 C1354 1.363 . S
C1352 H1368 0.931 . S
C1353 C1352 1.370 . S
C1353 C1357 1.408 1_554 S
C1354 C1352 1.363 . S
C1354 C1355 1.369 1_554 S
C1354 C1358 1.524 . S
C1355 C1347 1.504 1_655 S
C1355 C1354 1.369 1_556 S
C1355 C1356 1.404 . S
C1356 C1355 1.404 . S
C1356 C1357 1.404 . S
C1356 C1359 1.539 . S
C1357 C1353 1.408 1_556 S
C1357 C1356 1.404 . S
C1357 H1369 0.930 . S
C1358 C1354 1.524 . S
C1358 H1370 0.942 1_655 S
C1358 H1371 0.961 1_655 S
C1358 H1372 0.961 . S
C1359 C1356 1.539 . S
C1359 H1373 0.958 . S
C1359 H1374 0.961 . S
C1359 H1375 0.960 . S
H1360 C1344 0.931 . S
H1361 C1349 0.929 . S
H1362 C1350 0.960 1_655 S
H1363 C1350 0.962 . S
H1364 C1350 0.960 . S
H1365 C1351 0.961 . S
H1366 C1351 0.961 . S
H1367 C1351 0.961 . S
H1368 C1352 0.931 . S
H1369 C1357 0.930 . S
H1370 C1358 0.942 1_455 S
H1371 C1358 0.961 1_455 S
H1372 C1358 0.961 . S
H1373 C1359 0.958 . S
H1374 C1359 0.961 . S
H1375 C1359 0.960 . S
C1376 C1377 1.391 . S
C1376 C1378 1.394 . S
C1376 H1392 0.931 . S
C1377 C1376 1.391 . S
C1377 C1381 1.376 . S
C1378 C1376 1.394 . S
C1378 C1379 1.369 . S
C1378 C1382 1.531 . S
C1379 C1378 1.369 . S
C1379 C1380 1.410 . S
C1379 C1387 1.503 1_565 S
C1380 C1379 1.410 . S
C1380 C1381 1.392 . S
C1380 C1383 1.511 1_554 S
C1381 C1377 1.376 . S
C1381 C1380 1.392 . S
C1381 H1393 0.929 . S
C1382 C1378 1.531 . S
C1382 H1394 0.960 1_565 S
C1382 H1395 0.962 . S
C1382 H1396 0.960 . S
C1383 C1380 1.511 1_556 S
C1383 H1397 0.961 . S
C1383 H1398 0.934 1_565 S
C1383 H1399 0.961 1_556 S
C1384 C1385 1.370 . S
C1384 C1386 1.363 . S
C1384 H1400 0.931 . S
C1385 C1384 1.370 . S
C1385 C1389 1.408 1_556 S
C1386 C1384 1.363 . S
C1386 C1387 1.370 1_556 S
C1386 C1390 1.524 . S
C1387 C1379 1.503 1_545 S
C1387 C1386 1.370 1_554 S
C1387 C1388 1.403 . S
C1388 C1387 1.403 . S
C1388 C1389 1.404 . S
C1388 C1391 1.539 . S
C1389 C1385 1.408 1_554 S
C1389 C1388 1.404 . S
C1389 H1401 0.930 . S
C1390 C1386 1.524 . S
C1390 H1402 0.956 1_545 S
C1390 H1403 0.961 1_545 S
C1390 H1404 0.961 . S
C1391 C1388 1.539 . S
C1391 H1405 0.958 . S
C1391 H1406 0.961 . S
C1391 H1407 0.960 . S
H1392 C1376 0.931 . S
H1393 C1381 0.929 . S
H1394 C1382 0.960 1_545 S
H1395 C1382 0.962 . S
H1396 C1382 0.960 . S
H1397 C1383 0.961 . S
H1398 C1383 0.934 1_545 S
H1399 C1383 0.961 1_554 S
H1400 C1384 0.931 . S
H1401 C1389 0.930 . S
H1402 C1390 0.956 1_565 S
H1403 C1390 0.961 1_565 S
H1404 C1390 0.961 . S
H1405 C1391 0.958 . S
H1406 C1391 0.961 . S
H1407 C1391 0.960 . S
C1408 C1409 1.391 . S
C1408 C1410 1.394 . S
C1408 H1424 0.931 . S
C1409 C1408 1.391 . S
C1409 C1413 1.376 1_556 S
C1410 C1408 1.394 . S
C1410 C1411 1.369 . S
C1410 C1414 1.531 . S
C1411 C1410 1.369 . S
C1411 C1412 1.410 1_556 S
C1411 C1419 1.503 1_656 S
C1412 C1411 1.410 1_554 S
C1412 C1413 1.392 . S
C1412 C1415 1.511 . S
C1413 C1409 1.376 1_554 S
C1413 C1412 1.392 . S
C1413 H1425 0.929 . S
C1414 C1410 1.531 . S
C1414 H1426 0.960 1_655 S
C1414 H1427 0.967 . S
C1414 H1428 0.960 . S
C1415 C1412 1.511 . S
C1415 H1429 0.961 . S
C1415 H1430 0.961 . S
C1415 H1431 0.961 . S
C1416 C1417 1.370 . S
C1416 C1418 1.363 . S
C1416 H1432 0.931 . S
C1417 C1416 1.370 . S
C1417 C1421 1.408 . S
C1418 C1416 1.363 . S
C1418 C1419 1.370 . S
C1418 C1422 1.524 . S
C1419 C1411 1.503 1_454 S
C1419 C1418 1.370 . S
C1419 C1420 1.403 1_554 S
C1420 C1419 1.403 1_556 S
C1420 C1421 1.404 1_556 S
C1420 C1423 1.539 . S
C1421 C1417 1.408 . S
C1421 C1420 1.404 1_554 S
C1421 H1433 0.930 . S
C1422 C1418 1.524 . S
C1422 H1434 0.956 1_554 S
C1422 H1435 0.961 1_455 S
C1422 H1436 0.961 . S
C1423 C1420 1.539 . S
C1423 H1437 0.958 . S
C1423 H1438 0.961 1_556 S
C1423 H1439 0.982 . S
H1424 C1408 0.931 . S
H1425 C1413 0.929 . S
H1426 C1414 0.960 1_455 S
H1427 C1414 0.967 . S
H1428 C1414 0.960 . S
H1429 C1415 0.961 . S
H1430 C1415 0.961 . S
H1431 C1415 0.961 . S
H1432 C1416 0.931 . S
H1433 C1421 0.930 . S
H1434 C1422 0.956 1_556 S
H1435 C1422 0.961 1_655 S
H1436 C1422 0.961 . S
H1437 C1423 0.958 . S
H1438 C1423 0.961 1_554 S
H1439 C1423 0.982 . S
C1440 C1441 1.391 . S
C1440 C1442 1.394 . S
C1440 H1456 0.931 . S
C1441 C1440 1.391 . S
C1441 C1445 1.376 . S
C1442 C1440 1.394 . S
C1442 C1443 1.369 . S
C1442 C1446 1.531 . S
C1443 C1442 1.369 . S
C1443 C1444 1.410 . S
C1443 C1451 1.503 . S
C1444 C1443 1.410 . S
C1444 C1445 1.392 . S
C1444 C1447 1.511 . S
C1445 C1441 1.376 . S
C1445 C1444 1.392 . S
C1445 H1457 0.929 . S
C1446 C1442 1.531 . S
C1446 H1458 0.960 . S
C1446 H1459 0.962 . S
C1446 H1460 0.960 . S
C1447 C1444 1.511 . S
C1447 H1461 0.961 . S
C1447 H1462 0.961 . S
C1447 H1463 0.961 . S
C1448 C1449 1.370 . S
C1448 C1450 1.363 . S
C1448 H1464 0.931 . S
C1449 C1448 1.370 . S
C1449 C1453 1.408 . S
C1450 C1448 1.363 . S
C1450 C1451 1.370 . S
C1450 C1454 1.524 . S
C1451 C1443 1.503 . S
C1451 C1450 1.370 . S
C1451 C1452 1.403 . S
C1452 C1451 1.403 . S
C1452 C1453 1.404 . S
C1452 C1455 1.539 . S
C1453 C1449 1.408 . S
C1453 C1452 1.404 . S
C1453 H1465 0.930 . S
C1454 C1450 1.524 . S
C1454 H1466 0.956 . S
C1454 H1467 0.961 . S
C1454 H1468 0.961 . S
C1455 C1452 1.539 . S
C1455 H1469 0.958 . S
C1455 H1470 0.961 . S
C1455 H1471 0.960 . S
H1456 C1440 0.931 . S
H1457 C1445 0.929 . S
H1458 C1446 0.960 . S
H1459 C1446 0.962 . S
H1460 C1446 0.960 . S
H1461 C1447 0.961 . S
H1462 C1447 0.961 . S
H1463 C1447 0.961 . S
H1464 C1448 0.931 . S
H1465 C1453 0.930 . S
H1466 C1454 0.956 . S
H1467 C1454 0.961 . S
H1468 C1454 0.961 . S
H1469 C1455 0.958 . S
H1470 C1455 0.961 . S
H1471 C1455 0.960 . S
C1472 C1473 1.391 . S
C1472 C1474 1.394 . S
C1472 H1488 0.931 . S
C1473 C1472 1.391 . S
C1473 C1477 1.376 . S
C1474 C1472 1.394 . S
C1474 C1475 1.369 . S
C1474 C1478 1.531 . S
C1475 C1474 1.369 . S
C1475 C1476 1.410 . S
C1475 C1483 1.503 . S
C1476 C1475 1.410 . S
C1476 C1477 1.392 . S
C1476 C1479 1.511 . S
C1477 C1473 1.376 . S
C1477 C1476 1.392 . S
C1477 H1489 0.929 . S
C1478 C1474 1.531 . S
C1478 H1490 0.960 . S
C1478 H1491 0.962 . S
C1478 H1492 0.960 . S
C1479 C1476 1.511 . S
C1479 H1493 0.961 . S
C1479 H1494 0.961 . S
C1479 H1495 0.961 . S
C1480 C1481 1.370 . S
C1480 C1482 1.363 . S
C1480 H1496 0.931 . S
C1481 C1480 1.370 . S
C1481 C1485 1.408 . S
C1482 C1480 1.363 . S
C1482 C1483 1.370 . S
C1482 C1486 1.524 . S
C1483 C1475 1.503 . S
C1483 C1482 1.370 . S
C1483 C1484 1.403 . S
C1484 C1483 1.403 . S
C1484 C1485 1.404 . S
C1484 C1487 1.539 . S
C1485 C1481 1.408 . S
C1485 C1484 1.404 . S
C1485 H1497 0.930 . S
C1486 C1482 1.524 . S
C1486 H1498 0.956 . S
C1486 H1499 0.961 . S
C1486 H1500 0.961 . S
C1487 C1484 1.539 . S
C1487 H1501 0.958 . S
C1487 H1502 0.961 . S
C1487 H1503 0.960 . S
H1488 C1472 0.931 . S
H1489 C1477 0.929 . S
H1490 C1478 0.960 . S
H1491 C1478 0.962 . S
H1492 C1478 0.960 . S
H1493 C1479 0.961 . S
H1494 C1479 0.961 . S
H1495 C1479 0.961 . S
H1496 C1480 0.931 . S
H1497 C1485 0.930 . S
H1498 C1486 0.956 . S
H1499 C1486 0.961 . S
H1500 C1486 0.961 . S
H1501 C1487 0.958 . S
H1502 C1487 0.961 . S
H1503 C1487 0.960 . S
C1504 C1505 1.391 . S
C1504 C1506 1.394 . S
C1504 H1520 0.931 . S
C1505 C1504 1.391 . S
C1505 C1509 1.376 . S
C1506 C1504 1.394 . S
C1506 C1507 1.369 . S
C1506 C1510 1.531 . S
C1507 C1506 1.369 . S
C1507 C1508 1.410 . S
C1507 C1515 1.503 . S
C1508 C1507 1.410 . S
C1508 C1509 1.392 . S
C1508 C1511 1.511 . S
C1509 C1505 1.376 . S
C1509 C1508 1.392 . S
C1509 H1521 0.929 . S
C1510 C1506 1.531 . S
C1510 H1522 0.960 . S
C1510 H1523 0.962 . S
C1510 H1524 0.960 . S
C1511 C1508 1.511 . S
C1511 H1525 0.961 . S
C1511 H1526 0.961 . S
C1511 H1527 0.961 . S
C1512 C1513 1.370 . S
C1512 C1514 1.363 . S
C1512 H1528 0.931 . S
C1513 C1512 1.370 . S
C1513 C1517 1.408 . S
C1514 C1512 1.363 . S
C1514 C1515 1.370 . S
C1514 C1518 1.524 . S
C1515 C1507 1.503 . S
C1515 C1514 1.370 . S
C1515 C1516 1.403 . S
C1516 C1515 1.403 . S
C1516 C1517 1.404 . S
C1516 C1519 1.539 . S
C1517 C1513 1.408 . S
C1517 C1516 1.404 . S
C1517 H1529 0.930 . S
C1518 C1514 1.524 . S
C1518 H1530 0.956 . S
C1518 H1531 0.961 . S
C1518 H1532 0.961 . S
C1519 C1516 1.539 . S
C1519 H1533 0.958 . S
C1519 H1534 0.961 . S
C1519 H1535 0.960 . S
H1520 C1504 0.931 . S
H1521 C1509 0.929 . S
H1522 C1510 0.960 . S
H1523 C1510 0.962 . S
H1524 C1510 0.960 . S
H1525 C1511 0.961 . S
H1526 C1511 0.961 . S
H1527 C1511 0.961 . S
H1528 C1512 0.931 . S
H1529 C1517 0.930 . S
H1530 C1518 0.956 . S
H1531 C1518 0.961 . S
H1532 C1518 0.961 . S
H1533 C1519 0.958 . S
H1534 C1519 0.961 . S
H1535 C1519 0.960 . S
C1536 C1537 1.391 . S
C1536 C1538 1.394 . S
C1536 H1552 0.931 . S
C1537 C1536 1.391 . S
C1537 C1541 1.376 . S
C1538 C1536 1.394 . S
C1538 C1539 1.369 . S
C1538 C1542 1.531 . S
C1539 C1538 1.369 . S
C1539 C1540 1.410 . S
C1539 C1547 1.503 . S
C1540 C1539 1.410 . S
C1540 C1541 1.392 . S
C1540 C1543 1.511 . S
C1541 C1537 1.376 . S
C1541 C1540 1.392 . S
C1541 H1553 0.929 . S
C1542 C1538 1.531 . S
C1542 H1554 0.960 . S
C1542 H1555 0.962 . S
C1542 H1556 0.960 . S
C1543 C1540 1.511 . S
C1543 H1557 0.961 . S
C1543 H1558 0.961 . S
C1543 H1559 0.961 . S
C1544 C1545 1.370 . S
C1544 C1546 1.363 . S
C1544 H1560 0.931 . S
C1545 C1544 1.370 . S
C1545 C1549 1.408 . S
C1546 C1544 1.363 . S
C1546 C1547 1.370 . S
C1546 C1550 1.524 . S
C1547 C1539 1.503 . S
C1547 C1546 1.370 . S
C1547 C1548 1.403 . S
C1548 C1547 1.403 . S
C1548 C1549 1.404 . S
C1548 C1551 1.539 . S
C1549 C1545 1.408 . S
C1549 C1548 1.404 . S
C1549 H1561 0.930 . S
C1550 C1546 1.524 . S
C1550 H1562 0.956 . S
C1550 H1563 0.961 . S
C1550 H1564 0.961 . S
C1551 C1548 1.539 . S
C1551 H1565 0.958 . S
C1551 H1566 0.961 . S
C1551 H1567 0.960 . S
H1552 C1536 0.931 . S
H1553 C1541 0.929 . S
H1554 C1542 0.960 . S
H1555 C1542 0.962 . S
H1556 C1542 0.960 . S
H1557 C1543 0.961 . S
H1558 C1543 0.961 . S
H1559 C1543 0.961 . S
H1560 C1544 0.931 . S
H1561 C1549 0.930 . S
H1562 C1550 0.956 . S
H1563 C1550 0.961 . S
H1564 C1550 0.961 . S
H1565 C1551 0.958 . S
H1566 C1551 0.961 . S
H1567 C1551 0.960 . S
C1568 C1569 1.391 1_556 S
C1568 C1570 1.394 . S
C1568 H1584 0.931 . S
C1569 C1568 1.391 1_554 S
C1569 C1573 1.376 . S
C1570 C1568 1.394 . S
C1570 C1571 1.368 1_556 S
C1570 C1574 1.531 . S
C1571 C1570 1.368 1_554 S
C1571 C1572 1.410 . S
C1571 C1579 1.503 1_554 S
C1572 C1571 1.410 . S
C1572 C1573 1.392 . S
C1572 C1575 1.511 . S
C1573 C1569 1.376 . S
C1573 C1572 1.392 . S
C1573 H1585 0.929 . S
C1574 C1570 1.531 . S
C1574 H1586 0.960 . S
C1574 H1587 0.962 . S
C1574 H1588 0.960 . S
C1575 C1572 1.511 . S
C1575 H1589 0.961 . S
C1575 H1590 0.961 . S
C1575 H1591 0.961 . S
C1576 C1577 1.370 . S
C1576 C1578 1.363 1_556 S
C1576 H1592 0.931 1_556 S
C1577 C1576 1.370 . S
C1577 C1581 1.408 . S
C1578 C1576 1.363 1_554 S
C1578 C1579 1.370 1_554 S
C1578 C1582 1.524 . S
C1579 C1571 1.503 1_556 S
C1579 C1578 1.370 1_556 S
C1579 C1580 1.403 . S
C1580 C1579 1.403 . S
C1580 C1581 1.404 . S
C1580 C1583 1.539 . S
C1581 C1577 1.408 . S
C1581 C1580 1.404 . S
C1581 H1593 0.930 . S
C1582 C1578 1.524 . S
C1582 H1594 0.956 . S
C1582 H1595 0.961 . S
C1582 H1596 0.961 . S
C1583 C1580 1.539 . S
C1583 H1597 0.958 . S
C1583 H1598 0.961 . S
C1583 H1599 0.960 . S
H1584 C1568 0.931 . S
H1585 C1573 0.929 . S
H1586 C1574 0.960 . S
H1587 C1574 0.962 . S
H1588 C1574 0.960 . S
H1589 C1575 0.961 . S
H1590 C1575 0.961 . S
H1591 C1575 0.961 . S
H1592 C1576 0.931 1_554 S
H1593 C1581 0.930 . S
H1594 C1582 0.956 . S
H1595 C1582 0.961 . S
H1596 C1582 0.961 . S
H1597 C1583 0.958 . S
H1598 C1583 0.961 . S
H1599 C1583 0.960 . S
C1600 C1601 1.391 . S
C1600 C1602 1.394 . S
C1600 H1616 0.931 . S
C1601 C1600 1.391 . S
C1601 C1605 1.376 . S
C1602 C1600 1.394 . S
C1602 C1603 1.369 . S
C1602 C1606 1.531 1_554 S
C1603 C1602 1.369 . S
C1603 C1604 1.410 . S
C1603 C1611 1.503 . S
C1604 C1603 1.410 . S
C1604 C1605 1.392 . S
C1604 C1607 1.511 . S
C1605 C1601 1.376 . S
C1605 C1604 1.392 . S
C1605 H1617 0.929 . S
C1606 C1602 1.531 1_556 S
C1606 H1618 0.960 . S
C1606 H1619 0.962 . S
C1606 H1620 0.960 . S
C1607 C1604 1.511 . S
C1607 H1621 0.961 . S
C1607 H1622 0.961 . S
C1607 H1623 0.961 . S
C1608 C1609 1.370 . S
C1608 C1610 1.363 . S
C1608 H1624 0.931 . S
C1609 C1608 1.370 . S
C1609 C1613 1.408 1_556 S
C1610 C1608 1.363 . S
C1610 C1611 1.370 1_556 S
C1610 C1614 1.524 . S
C1611 C1603 1.503 . S
C1611 C1610 1.370 1_554 S
C1611 C1612 1.403 . S
C1612 C1611 1.403 . S
C1612 C1613 1.404 . S
C1612 C1615 1.539 . S
C1613 C1609 1.408 1_554 S
C1613 C1612 1.404 . S
C1613 H1625 0.930 . S
C1614 C1610 1.524 . S
C1614 H1626 0.956 . S
C1614 H1627 0.961 . S
C1614 H1628 0.961 . S
C1615 C1612 1.539 . S
C1615 H1629 0.958 . S
C1615 H1630 0.961 . S
C1615 H1631 0.960 . S
H1616 C1600 0.931 . S
H1617 C1605 0.929 . S
H1618 C1606 0.960 . S
H1619 C1606 0.962 . S
H1620 C1606 0.960 . S
H1621 C1607 0.961 . S
H1622 C1607 0.961 . S
H1623 C1607 0.961 . S
H1624 C1608 0.931 . S
H1625 C1613 0.930 . S
H1626 C1614 0.956 . S
H1627 C1614 0.961 . S
H1628 C1614 0.961 . S
H1629 C1615 0.958 . S
H1630 C1615 0.961 . S
H1631 C1615 0.960 . S
C1632 C1633 1.391 . S
C1632 C1634 1.394 . S
C1632 H1648 0.931 . S
C1633 C1632 1.391 . S
C1633 C1637 1.376 1_556 S
C1634 C1632 1.394 . S
C1634 C1635 1.369 1_556 S
C1634 C1638 1.531 . S
C1635 C1634 1.369 1_554 S
C1635 C1636 1.410 . S
C1635 C1643 1.503 . S
C1636 C1635 1.410 . S
C1636 C1637 1.392 . S
C1636 C1639 1.511 . S
C1637 C1633 1.376 1_554 S
C1637 C1636 1.392 . S
C1637 H1649 0.929 . S
C1638 C1634 1.531 . S
C1638 H1650 0.960 . S
C1638 H1651 0.962 . S
C1638 H1652 0.960 . S
C1639 C1636 1.511 . S
C1639 H1653 0.961 . S
C1639 H1654 0.961 . S
C1639 H1655 0.961 . S
C1640 C1641 1.370 1_556 S
C1640 C1642 1.363 . S
C1640 H1656 0.931 . S
C1641 C1640 1.370 1_554 S
C1641 C1645 1.408 . S
C1642 C1640 1.363 . S
C1642 C1643 1.370 1_556 S
C1642 C1646 1.524 . S
C1643 C1635 1.503 . S
C1643 C1642 1.370 1_554 S
C1643 C1644 1.403 . S
C1644 C1643 1.403 . S
C1644 C1645 1.404 . S
C1644 C1647 1.539 . S
C1645 C1641 1.408 . S
C1645 C1644 1.404 . S
C1645 H1657 0.930 . S
C1646 C1642 1.524 . S
C1646 H1658 0.956 . S
C1646 H1659 0.961 . S
C1646 H1660 0.961 . S
C1647 C1644 1.539 . S
C1647 H1661 0.958 . S
C1647 H1662 0.961 . S
C1647 H1663 0.960 . S
H1648 C1632 0.931 . S
H1649 C1637 0.929 . S
H1650 C1638 0.960 . S
H1651 C1638 0.962 . S
H1652 C1638 0.960 . S
H1653 C1639 0.961 . S
H1654 C1639 0.961 . S
H1655 C1639 0.961 . S
H1656 C1640 0.931 . S
H1657 C1645 0.930 . S
H1658 C1646 0.956 . S
H1659 C1646 0.961 . S
H1660 C1646 0.961 . S
H1661 C1647 0.958 . S
H1662 C1647 0.961 . S
H1663 C1647 0.960 . S
C1664 C1665 1.391 1_556 S
C1664 C1666 1.394 . S
C1664 H1680 0.931 . S
C1665 C1664 1.391 1_554 S
C1665 C1669 1.376 . S
C1666 C1664 1.394 . S
C1666 C1667 1.369 1_556 S
C1666 C1670 1.531 . S
C1667 C1666 1.369 1_554 S
C1667 C1668 1.410 . S
C1667 C1675 1.503 1_554 S
C1668 C1667 1.410 . S
C1668 C1669 1.392 . S
C1668 C1671 1.511 . S
C1669 C1665 1.376 . S
C1669 C1668 1.392 . S
C1669 H1681 0.929 . S
C1670 C1666 1.531 . S
C1670 H1682 0.960 . S
C1670 H1683 0.962 . S
C1670 H1684 0.960 . S
C1671 C1668 1.511 . S
C1671 H1685 0.961 . S
C1671 H1686 0.961 . S
C1671 H1687 0.961 . S
C1672 C1673 1.370 . S
C1672 C1674 1.363 . S
C1672 H1688 0.931 . S
C1673 C1672 1.370 . S
C1673 C1677 1.408 . S
C1674 C1672 1.363 . S
C1674 C1675 1.370 . S
C1674 C1678 1.524 1_556 S
C1675 C1667 1.503 1_556 S
C1675 C1674 1.370 . S
C1675 C1676 1.403 . S
C1676 C1675 1.403 . S
C1676 C1677 1.404 . S
C1676 C1679 1.539 . S
C1677 C1673 1.408 . S
C1677 C1676 1.404 . S
C1677 H1689 0.930 . S
C1678 C1674 1.524 1_554 S
C1678 H1690 0.956 1_554 S
C1678 H1691 0.961 . S
C1678 H1692 0.961 . S
C1679 C1676 1.539 . S
C1679 H1693 0.958 . S
C1679 H1694 0.961 . S
C1679 H1695 0.960 1_556 S
H1680 C1664 0.931 . S
H1681 C1669 0.929 . S
H1682 C1670 0.960 . S
H1683 C1670 0.962 . S
H1684 C1670 0.960 . S
H1685 C1671 0.961 . S
H1686 C1671 0.961 . S
H1687 C1671 0.961 . S
H1688 C1672 0.931 . S
H1689 C1677 0.930 . S
H1690 C1678 0.956 1_556 S
H1691 C1678 0.961 . S
H1692 C1678 0.961 . S
H1693 C1679 0.958 . S
H1694 C1679 0.961 . S
H1695 C1679 0.960 1_554 S
C1696 C1697 1.391 . S
C1696 C1698 1.394 . S
C1696 H1712 0.931 . S
C1697 C1696 1.391 . S
C1697 C1701 1.376 . S
C1698 C1696 1.394 . S
C1698 C1699 1.369 . S
C1698 C1702 1.531 . S
C1699 C1698 1.369 . S
C1699 C1700 1.410 . S
C1699 C1707 1.503 . S
C1700 C1699 1.410 . S
C1700 C1701 1.392 . S
C1700 C1703 1.511 . S
C1701 C1697 1.376 . S
C1701 C1700 1.392 . S
C1701 H1713 0.929 . S
C1702 C1698 1.531 . S
C1702 H1714 0.960 . S
C1702 H1715 0.962 . S
C1702 H1716 0.960 . S
C1703 C1700 1.511 . S
C1703 H1717 0.961 . S
C1703 H1718 0.961 . S
C1703 H1719 0.961 . S
C1704 C1705 1.370 . S
C1704 C1706 1.363 . S
C1704 H1720 0.931 . S
C1705 C1704 1.370 . S
C1705 C1709 1.408 . S
C1706 C1704 1.363 . S
C1706 C1707 1.370 . S
C1706 C1710 1.524 . S
C1707 C1699 1.503 . S
C1707 C1706 1.370 . S
C1707 C1708 1.403 . S
C1708 C1707 1.403 . S
C1708 C1709 1.404 . S
C1708 C1711 1.539 . S
C1709 C1705 1.408 . S
C1709 C1708 1.404 . S
C1709 H1721 0.930 . S
C1710 C1706 1.524 . S
C1710 H1722 0.956 . S
C1710 H1723 0.961 . S
C1710 H1724 0.961 . S
C1711 C1708 1.539 . S
C1711 H1725 0.958 . S
C1711 H1726 0.961 . S
C1711 H1727 0.960 . S
H1712 C1696 0.931 . S
H1713 C1701 0.929 . S
H1714 C1702 0.960 . S
H1715 C1702 0.962 . S
H1716 C1702 0.960 . S
H1717 C1703 0.961 . S
H1718 C1703 0.961 . S
H1719 C1703 0.961 . S
H1720 C1704 0.931 . S
H1721 C1709 0.930 . S
H1722 C1710 0.956 . S
H1723 C1710 0.961 . S
H1724 C1710 0.961 . S
H1725 C1711 0.958 . S
H1726 C1711 0.961 . S
H1727 C1711 0.960 . S
C1728 C1729 1.391 . S
C1728 C1730 1.394 . S
C1728 H1744 0.931 . S
C1729 C1728 1.391 . S
C1729 C1733 1.376 . S
C1730 C1728 1.394 . S
C1730 C1731 1.369 . S
C1730 C1734 1.531 . S
C1731 C1730 1.369 . S
C1731 C1732 1.410 . S
C1731 C1739 1.503 . S
C1732 C1731 1.410 . S
C1732 C1733 1.392 . S
C1732 C1735 1.511 . S
C1733 C1729 1.376 . S
C1733 C1732 1.392 . S
C1733 H1745 0.929 . S
C1734 C1730 1.531 . S
C1734 H1746 0.960 . S
C1734 H1747 0.962 . S
C1734 H1748 0.960 . S
C1735 C1732 1.511 . S
C1735 H1749 0.961 . S
C1735 H1750 0.961 . S
C1735 H1751 0.961 . S
C1736 C1737 1.370 . S
C1736 C1738 1.363 . S
C1736 H1752 0.931 . S
C1737 C1736 1.370 . S
C1737 C1741 1.408 . S
C1738 C1736 1.363 . S
C1738 C1739 1.370 . S
C1738 C1742 1.524 . S
C1739 C1731 1.503 . S
C1739 C1738 1.370 . S
C1739 C1740 1.403 . S
C1740 C1739 1.403 . S
C1740 C1741 1.404 . S
C1740 C1743 1.539 . S
C1741 C1737 1.408 . S
C1741 C1740 1.404 . S
C1741 H1753 0.930 . S
C1742 C1738 1.524 . S
C1742 H1754 0.956 . S
C1742 H1755 0.961 . S
C1742 H1756 0.961 . S
C1743 C1740 1.539 . S
C1743 H1757 0.958 . S
C1743 H1758 0.961 . S
C1743 H1759 0.960 . S
H1744 C1728 0.931 . S
H1745 C1733 0.929 . S
H1746 C1734 0.960 . S
H1747 C1734 0.962 . S
H1748 C1734 0.960 . S
H1749 C1735 0.961 . S
H1750 C1735 0.961 . S
H1751 C1735 0.961 . S
H1752 C1736 0.931 . S
H1753 C1741 0.930 . S
H1754 C1742 0.956 . S
H1755 C1742 0.961 . S
H1756 C1742 0.961 . S
H1757 C1743 0.958 . S
H1758 C1743 0.961 . S
H1759 C1743 0.960 . S
C1760 C1761 1.391 . S
C1760 C1762 1.394 . S
C1760 H1776 0.931 . S
C1761 C1760 1.391 . S
C1761 C1765 1.376 . S
C1762 C1760 1.394 . S
C1762 C1763 1.369 . S
C1762 C1766 1.531 . S
C1763 C1762 1.369 . S
C1763 C1764 1.410 . S
C1763 C1771 1.503 . S
C1764 C1763 1.410 . S
C1764 C1765 1.392 . S
C1764 C1767 1.511 . S
C1765 C1761 1.376 . S
C1765 C1764 1.392 . S
C1765 H1777 0.929 . S
C1766 C1762 1.531 . S
C1766 H1778 0.960 . S
C1766 H1779 0.962 . S
C1766 H1780 0.960 . S
C1767 C1764 1.511 . S
C1767 H1781 0.961 . S
C1767 H1782 0.961 . S
C1767 H1783 0.961 . S
C1768 C1769 1.370 . S
C1768 C1770 1.363 . S
C1768 H1784 0.931 . S
C1769 C1768 1.370 . S
C1769 C1773 1.408 . S
C1770 C1768 1.363 . S
C1770 C1771 1.370 . S
C1770 C1774 1.524 . S
C1771 C1763 1.503 . S
C1771 C1770 1.370 . S
C1771 C1772 1.403 . S
C1772 C1771 1.403 . S
C1772 C1773 1.404 . S
C1772 C1775 1.539 . S
C1773 C1769 1.408 . S
C1773 C1772 1.404 . S
C1773 H1785 0.930 . S
C1774 C1770 1.524 . S
C1774 H1786 0.956 . S
C1774 H1787 0.961 . S
C1774 H1788 0.961 . S
C1775 C1772 1.539 . S
C1775 H1789 0.958 . S
C1775 H1790 0.961 . S
C1775 H1791 0.960 . S
H1776 C1760 0.931 . S
H1777 C1765 0.929 . S
H1778 C1766 0.960 . S
H1779 C1766 0.962 . S
H1780 C1766 0.960 . S
H1781 C1767 0.961 . S
H1782 C1767 0.961 . S
H1783 C1767 0.961 . S
H1784 C1768 0.931 . S
H1785 C1773 0.930 . S
H1786 C1774 0.956 . S
H1787 C1774 0.961 . S
H1788 C1774 0.961 . S
H1789 C1775 0.958 . S
H1790 C1775 0.961 . S
H1791 C1775 0.960 . S
C1792 C1793 1.391 . S
C1792 C1794 1.394 . S
C1792 H1808 0.931 . S
C1793 C1792 1.391 . S
C1793 C1797 1.376 . S
C1794 C1792 1.394 . S
C1794 C1795 1.369 . S
C1794 C1798 1.531 . S
C1795 C1794 1.369 . S
C1795 C1796 1.410 . S
C1795 C1803 1.503 . S
C1796 C1795 1.410 . S
C1796 C1797 1.392 . S
C1796 C1799 1.511 . S
C1797 C1793 1.376 . S
C1797 C1796 1.392 . S
C1797 H1809 0.929 . S
C1798 C1794 1.531 . S
C1798 H1810 0.960 . S
C1798 H1811 0.962 . S
C1798 H1812 0.960 . S
C1799 C1796 1.511 . S
C1799 H1813 0.961 . S
C1799 H1814 0.961 . S
C1799 H1815 0.961 . S
C1800 C1801 1.370 . S
C1800 C1802 1.363 . S
C1800 H1816 0.931 . S
C1801 C1800 1.370 . S
C1801 C1805 1.408 . S
C1802 C1800 1.363 . S
C1802 C1803 1.370 . S
C1802 C1806 1.524 . S
C1803 C1795 1.503 . S
C1803 C1802 1.370 . S
C1803 C1804 1.403 . S
C1804 C1803 1.403 . S
C1804 C1805 1.404 . S
C1804 C1807 1.539 . S
C1805 C1801 1.408 . S
C1805 C1804 1.404 . S
C1805 H1817 0.930 . S
C1806 C1802 1.524 . S
C1806 H1818 0.956 . S
C1806 H1819 0.961 . S
C1806 H1820 0.961 . S
C1807 C1804 1.539 . S
C1807 H1821 0.958 . S
C1807 H1822 0.961 . S
C1807 H1823 0.960 . S
H1808 C1792 0.931 . S
H1809 C1797 0.929 . S
H1810 C1798 0.960 . S
H1811 C1798 0.962 . S
H1812 C1798 0.960 . S
H1813 C1799 0.961 . S
H1814 C1799 0.961 . S
H1815 C1799 0.961 . S
H1816 C1800 0.931 . S
H1817 C1805 0.930 . S
H1818 C1806 0.956 . S
H1819 C1806 0.961 . S
H1820 C1806 0.961 . S
H1821 C1807 0.958 . S
H1822 C1807 0.961 . S
H1823 C1807 0.960 . S
C545 C9 1.190 . S
C553 C5 1.195 . S
C577 C43 1.173 . S
C585 C39 1.192 . S
C609 C73 1.190 . S
C617 C77 1.173 . S
C641 C107 1.172 . S
C649 C111 1.167 . S
C673 C145 1.161 . S
C681 C141 1.190 . S
C705 C175 1.173 . S
C713 C179 1.167 . S
C737 C209 1.181 . S
C745 C213 1.168 . S
C769 C243 1.171 . S
C777 C247 1.168 . S
C801 C281 1.197 . S
C809 C277 1.195 . S
C833 C315 1.168 . S
C841 C311 1.191 . S
C865 C349 1.185 . S
C873 C345 1.194 . S
C897 C383 1.195 . S
C905 C379 1.190 . S
C929 C413 1.177 . S
C937 C417 1.167 . S
C961 C447 1.171 . S
C969 C451 1.169 . S
C993 C481 1.184 . S
C1001 C485 1.184 . S
C1025 C515 1.171 . S
C1033 C519 1.170 . S
C1057 C33 1.396 . S
C1065 C543 1.397 . S
C1089 C441 1.426 . S
C1097 C67 1.396 . S
C1121 C475 1.371 . S
C1129 C101 1.413 . S
C1153 C509 1.371 . S
C1161 C135 1.414 . S
C1185 C339 1.371 . S
C1193 C169 1.412 . S
C1217 C203 1.422 . S
C1225 C373 1.391 . S
C1249 C237 1.385 . S
C1257 C407 1.414 . S
C1281 C305 1.385 . S
C1289 C271 1.414 . S
C1313 C20 1.559 . S
C1321 C156 1.569 . S
C1345 C190 1.554 . S
C1353 C54 1.560 . S
C1377 C88 1.563 . S
C1385 C224 1.562 . S
C1409 C258 1.550 . S
C1417 C122 1.561 . S
C1441 C428 1.561 . S
C1449 C292 1.561 . S
C1473 C326 1.549 . S
C1481 C462 1.561 . S
C1505 C360 1.564 . S
C1513 C496 1.570 . S
C1537 C394 1.571 . S
C1545 C530 1.571 . S
C1569 C2 1.752 . S
C1577 C172 1.759 . S
C1601 C36 1.759 . S
C1609 C206 1.758 . S
C1633 C240 1.752 . S
C1641 C70 1.761 . S
C1665 C104 1.753 . S
C1673 C138 1.759 . S
C1697 C444 1.751 . S
C1705 C274 1.760 . S
C1729 C308 1.758 . S
C1737 C478 1.758 . S
C1761 C512 1.751 . S
C1769 C342 1.761 . S
C1793 C410 1.757 . S
C1801 C376 1.760 . S
