# Generated by pormake.
# Topology snl, (6)-cn, num edge types: 1
# Building blocks:
#     Node 0, Type 0, BuildingBlock: PAMTOO_clean_sbu_0, # of connection points: 6
#     Node 1, Type 0, BuildingBlock: PAMTOO_clean_sbu_0, # of connection points: 6
#     Node 2, Type 0, BuildingBlock: PAMTOO_clean_sbu_0, # of connection points: 6
#     Node 3, Type 0, BuildingBlock: PAMTOO_clean_sbu_0, # of connection points: 6
#     Node 4, Type 0, BuildingBlock: PAMTOO_clean_sbu_0, # of connection points: 6
#     Node 5, Type 0, BuildingBlock: PAMTOO_clean_sbu_0, # of connection points: 6
#     Node 6, Type 0, BuildingBlock: PAMTOO_clean_sbu_0, # of connection points: 6
#     Node 7, Type 0, BuildingBlock: PAMTOO_clean_sbu_0, # of connection points: 6
#     Node 8, Type 0, BuildingBlock: PAMTOO_clean_sbu_0, # of connection points: 6
#     Node 9, Type 0, BuildingBlock: PAMTOO_clean_sbu_0, # of connection points: 6
#     Node 10, Type 0, BuildingBlock: PAMTOO_clean_sbu_0, # of connection points: 6
#     Node 11, Type 0, BuildingBlock: PAMTOO_clean_sbu_0, # of connection points: 6
#     Node 12, Type 0, BuildingBlock: PAMTOO_clean_sbu_0, # of connection points: 6
#     Node 13, Type 0, BuildingBlock: PAMTOO_clean_sbu_0, # of connection points: 6
#     Node 14, Type 0, BuildingBlock: PAMTOO_clean_sbu_0, # of connection points: 6
#     Node 15, Type 0, BuildingBlock: PAMTOO_clean_sbu_0, # of connection points: 6
#     Edge 16, Type (0, 0), None
#     Edge 17, Type (0, 0), None
#     Edge 18, Type (0, 0), None
#     Edge 19, Type (0, 0), None
#     Edge 20, Type (0, 0), None
#     Edge 21, Type (0, 0), None
#     Edge 22, Type (0, 0), None
#     Edge 23, Type (0, 0), None
#     Edge 24, Type (0, 0), None
#     Edge 25, Type (0, 0), None
#     Edge 26, Type (0, 0), None
#     Edge 27, Type (0, 0), None
#     Edge 28, Type (0, 0), None
#     Edge 29, Type (0, 0), None
#     Edge 30, Type (0, 0), None
#     Edge 31, Type (0, 0), None
#     Edge 32, Type (0, 0), None
#     Edge 33, Type (0, 0), None
#     Edge 34, Type (0, 0), None
#     Edge 35, Type (0, 0), None
#     Edge 36, Type (0, 0), None
#     Edge 37, Type (0, 0), None
#     Edge 38, Type (0, 0), None
#     Edge 39, Type (0, 0), None
#     Edge 40, Type (0, 0), None
#     Edge 41, Type (0, 0), None
#     Edge 42, Type (0, 0), None
#     Edge 43, Type (0, 0), None
#     Edge 44, Type (0, 0), None
#     Edge 45, Type (0, 0), None
#     Edge 46, Type (0, 0), None
#     Edge 47, Type (0, 0), None
#     Edge 48, Type (0, 0), None
#     Edge 49, Type (0, 0), None
#     Edge 50, Type (0, 0), None
#     Edge 51, Type (0, 0), None
#     Edge 52, Type (0, 0), None
#     Edge 53, Type (0, 0), None
#     Edge 54, Type (0, 0), None
#     Edge 55, Type (0, 0), None
#     Edge 56, Type (0, 0), None
#     Edge 57, Type (0, 0), None
#     Edge 58, Type (0, 0), None
#     Edge 59, Type (0, 0), None
#     Edge 60, Type (0, 0), None
#     Edge 61, Type (0, 0), None
#     Edge 62, Type (0, 0), None
#     Edge 63, Type (0, 0), None
# Relax obj value: 0.209
# Max RMSD: 0.315
# Mean RMSD: 0.293
data_MOF--net-snl--node1-PAMTOO_clean_sbu_0--edge1-none
_symmetry_space_group_name_H-M    P1
_symmetry_Int_Tables_number       1
_symmetry_cell_setting            triclinic
loop_
_symmetry_equiv_pos_as_xyz
'x, y, z'
_cell_length_a     24.70932
_cell_length_b     24.980863
_cell_length_c     16.085097
_cell_angle_alpha  88.389154
_cell_angle_beta   92.535775
_cell_angle_gamma 89.817562
loop_
_atom_site_label
_atom_site_type_symbol
_atom_site_fract_x
_atom_site_fract_y
_atom_site_fract_z
_atom_type_partial_charge
Dy0 Dy 0.16071 0.6317 0.15241 0.0
Dy1 Dy 0.11958 0.59902 0.29859 0.0
C2 C 0.03312 0.61065 0.15091 0.0
O3 O 0.10741 0.70017 0.17603 0.0
O4 O 0.12092 0.68941 0.31284 0.0
O5 O 0.18349 0.69692 1.06984 0.0
O6 O 0.23066 0.62411 0.07772 0.0
O7 O 0.20768 0.61445 0.27846 0.0
O8 O 0.20931 0.61261 0.27733 0.0
O9 O 0.10561 0.52373 0.2201 0.0
O10 O 0.14913 0.55043 0.10451 0.0
O11 O 0.15008 0.54963 0.40188 0.0
O12 O 0.07748 0.59769 0.41341 0.0
C13 C 0.10798 0.72106 0.24887 0.0
O14 O 0.07509 0.61387 0.10295 0.0
O15 O 0.04019 0.61001 0.23205 0.0
C16 C 0.20756 0.65924 0.94493 0.0
C17 C 0.18546 0.6372 0.77648 0.0
C18 C 0.15659 0.61129 0.83867 0.0
C19 C 0.16703 0.62271 0.92179 0.0
C20 C 0.23585 0.68636 0.88303 0.0
C21 C 0.22403 0.67612 0.79874 0.0
C22 C 0.2189 0.66765 1.03402 0.0
C23 C 0.22739 0.64551 0.33643 0.0
C24 C 0.1224 0.51398 0.14453 0.0
C25 C 0.13794 0.58791 0.53174 0.0
C26 C 0.17494 0.62184 0.68938 0.0
C27 C 0.17841 0.56766 0.66904 0.0
C28 C 0.16072 0.55099 0.59049 0.0
C29 C 0.13718 0.64264 0.55028 0.0
C30 C 0.15587 0.65954 0.62867 0.0
C31 C 0.11512 0.56837 0.45215 0.0
H32 H 0.12566 0.58221 0.82281 0.0
H33 H 0.14364 0.60241 0.96817 0.0
H34 H 0.26714 0.71475 0.89987 0.0
H35 H 0.24594 0.69726 0.75129 0.0
H36 H 0.19358 0.53799 0.71479 0.0
H37 H 0.16355 0.50895 0.57647 0.0
H38 H 0.12104 0.67213 0.50504 0.0
H39 H 0.15308 0.70152 0.64313 0.0
Dy40 Dy 0.60568 0.90354 0.38422 0.0
Dy41 Dy 0.64676 0.86096 0.53209 0.0
C42 C 0.62315 0.77531 0.39685 0.0
O43 O 0.53137 0.8628 0.41526 0.0
O44 O 0.55493 0.86179 0.55207 0.0
O45 O 0.54639 0.93344 0.29085 0.0
O46 O 0.62353 0.9737 0.30921 0.0
O47 O 0.62729 0.94821 0.50875 0.0
O48 O 0.62916 0.94956 0.50692 0.0
O49 O 0.71914 0.85354 0.44527 0.0
O50 O 0.6767 0.87693 0.32166 0.0
O51 O 0.70085 0.88924 0.63054 0.0
O52 O 0.65554 0.81619 0.64907 0.0
C53 C 0.51732 0.85812 0.4917 0.0
O54 O 0.61351 0.81662 0.3452 0.0
O55 O 0.63399 0.78259 0.47593 0.0
C56 C 0.5956 0.95531 0.16985 0.0
C57 C 0.62672 0.92413 1.00974 0.0
C58 C 0.66197 0.95404 1.06155 0.0
C59 C 0.64649 0.96972 0.14011 0.0
C60 C 0.55993 0.9267 0.11743 0.0
C61 C 0.5749 0.91194 1.03825 0.0
C62 C 0.58223 0.9651 0.25773 0.0
C63 C 0.59739 0.96375 0.56859 0.0
C64 C 0.71956 0.86008 0.36264 0.0
C65 C 0.67245 0.86991 0.76803 0.0
C66 C 0.64392 0.90487 0.92724 0.0
C67 C 0.67962 0.93491 0.87847 0.0
C68 C 0.69356 0.91774 0.79999 0.0
C69 C 0.63884 0.83861 0.81804 0.0
C70 C 0.62471 0.85586 0.89631 0.0
C71 C 0.68652 0.8522 0.68403 0.0
H72 H 0.70233 0.96408 1.04287 0.0
H73 H 0.67521 -0.00819 0.17858 0.0
H74 H 0.52092 0.91427 0.1387 0.0
H75 H 0.54578 0.89035 0.99987 0.0
H76 H 0.69619 0.9724 0.8998 0.0
H77 H 0.72063 0.94226 0.76406 0.0
H78 H 0.62316 0.80072 0.79666 0.0
H79 H 0.599 0.83028 0.93282 0.0
Dy80 Dy 0.31497 0.35788 0.66185 0.0
Dy81 Dy 0.37281 0.38318 0.80454 0.0
C82 C 0.44691 0.3629 0.65941 0.0
O83 O 0.30473 0.28406 0.73665 0.0
O84 O 0.38778 0.29362 0.79174 0.0
O85 O 0.288 0.30029 0.57211 0.0
O86 O 0.24627 0.37687 0.57753 0.0
O87 O 0.28128 0.38232 0.78791 0.0
O88 O 0.27838 0.38525 0.78565 0.0
O89 O 0.39131 0.45843 0.72617 0.0
O90 O 0.33497 0.43974 0.615 0.0
O91 O 0.36739 0.43274 0.91225 0.0
O92 O 0.4157 0.36019 0.91993 0.0
C93 C 0.34788 0.2618 0.77035 0.0
O94 O 0.40225 0.34503 0.62134 0.0
O95 O 0.44481 0.38459 0.73195 0.0
C96 C 0.26601 0.3435 0.44393 0.0
C97 C 0.30479 0.35708 0.28143 0.0
C98 C 0.2965 0.40149 0.33135 0.0
C99 C 0.27797 0.39481 0.41187 0.0
C100 C 0.27227 0.29927 0.39297 0.0
C101 C 0.29145 0.30594 0.31259 0.0
C102 C 0.25517 0.33464 0.53322 0.0
C103 C 0.2639 0.3536 0.8499 0.0
C104 C 0.36998 0.47143 0.65112 0.0
C105 C 0.37371 0.38532 1.04213 0.0
C106 C 0.3296 0.36449 0.19904 0.0
C107 C 0.31069 0.33667 0.12861 0.0
C108 C 0.33289 0.34682 1.05084 0.0
C109 C 0.39438 0.41069 0.11285 0.0
C110 C 0.37298 0.40015 0.19051 0.0
C111 C 0.39585 0.39948 0.96071 0.0
H112 H 0.30473 0.44156 0.30823 0.0
H113 H 0.27405 0.42984 0.44938 0.0
H114 H 0.26448 0.25916 0.41675 0.0
H115 H 0.29772 0.27087 0.27608 0.0
H116 H 0.27818 0.30792 0.1332 0.0
H117 H 0.3181 0.3248 0.99766 0.0
H118 H 0.42695 0.43901 0.10773 0.0
H119 H 0.3904 0.41999 0.24418 0.0
Dy120 Dy 0.88382 0.05862 0.91803 0.0
Dy121 Dy 0.83903 0.11736 0.07525 0.0
C122 C 0.86082 0.18796 0.91723 0.0
O123 O 0.9473 0.05472 1.02047 0.0
O124 O 0.92859 0.13667 1.0619 0.0
O125 O 0.94978 0.0488 0.83607 0.0
O126 O 0.87846 -0.00111 0.82361 0.0
O127 O 0.86249 0.03802 0.13212 0.0
O128 O 0.85673 -0.00655 1.01035 0.0
O129 O 0.7655 0.10951 0.98101 0.0
O130 O 0.80223 0.07957 0.86194 0.0
O131 O 0.77879 0.12328 0.16682 0.0
O132 O 0.8486 0.17589 0.17158 0.0
C133 C 0.96531 0.09983 1.049 0.0
O134 O 0.89244 0.14947 0.89142 0.0
O135 O 0.82946 0.17992 0.97933 0.0
C136 C 0.91022 0.0383 0.70207 0.0
C137 C 0.87578 0.07782 0.54231 0.0
C138 C 0.87662 0.1114 0.61079 0.0
C139 C 0.89354 0.09183 0.68958 0.0
C140 C 0.91007 0.00451 0.63411 0.0
C141 C 0.89298 0.02413 0.5547 0.0
C142 C 0.92111 0.01752 0.78763 0.0
C143 C 0.85983 -0.00669 0.09324 0.0
C144 C 0.76114 0.09855 0.89995 0.0
C145 C 0.8209 0.13782 0.29896 0.0
C146 C 0.85628 0.09883 0.45885 0.0
C147 C 0.82438 0.06676 0.4059 0.0
C148 C 0.80697 0.08594 0.32689 0.0
C149 C 0.85113 0.17065 0.35278 0.0
C150 C 0.86885 0.15132 0.43181 0.0
C151 C 0.8082 0.15587 0.21194 0.0
H152 H 0.86269 0.15251 0.60417 0.0
H153 H 0.89219 0.11841 0.74131 0.0
H154 H 0.9222 0.96296 0.64272 0.0
H155 H 0.89351 -0.00257 0.50302 0.0
H156 H 0.81285 0.0267 0.4254 0.0
H157 H 0.78347 0.05952 0.28723 0.0
H158 H 0.86235 0.21074 0.33282 0.0
H159 H 0.89358 0.17709 0.47081 0.0
Dy160 Dy 0.0958 0.40852 0.91314 0.0
Dy161 Dy 0.13663 0.35653 1.0522 0.0
C162 C 0.11391 0.27999 0.91114 0.0
O163 O 0.02845 0.41579 0.99871 0.0
O164 O 0.04696 0.33319 1.04032 0.0
O165 O 0.03116 0.42533 0.82129 0.0
O166 O 0.10379 0.47364 0.82241 0.0
O167 O 0.12883 0.44683 1.03508 0.0
O168 O 0.13142 0.45043 1.03197 0.0
O169 O 0.21056 0.3465 0.9742 0.0
O170 O 0.17695 0.39545 0.86225 0.0
O171 O 0.18647 0.37173 0.16334 0.0
O172 O 0.12662 0.30866 0.16442 0.0
C173 C 0.00991 0.37023 1.02544 0.0
O174 O 0.0819 0.32004 0.8855 0.0
O175 O 0.14899 0.28787 0.97257 0.0
C176 C 0.07095 0.44036 0.69309 0.0
C177 C 0.09159 0.40427 0.53198 0.0
C178 C 0.10668 0.37286 0.60286 0.0
C179 C 0.0966 0.39077 0.68242 0.0
C180 C 0.05435 0.4712 0.62225 0.0
C181 C 0.0646 0.45325 0.54228 0.0
C182 C 0.06112 0.45795 0.77848 0.0
C183 C 0.10563 0.46467 0.10009 0.0
C184 C 0.21601 0.36713 0.89827 0.0
C185 C 0.14055 0.35567 0.29019 0.0
C186 C 0.10709 0.38748 0.44815 0.0
C187 C 0.1415 0.41982 0.40162 0.0
C188 C 0.15731 0.40476 0.32305 0.0
C189 C 0.10659 0.3227 0.33754 0.0
C190 C 0.09005 0.33841 0.4157 0.0
C191 C 0.16004 0.33753 0.20913 0.0
H192 H 0.12755 0.33505 0.5968 0.0
H193 H 0.10923 0.36583 0.73592 0.0
H194 H 0.03416 0.5093 0.6287 0.0
H195 H 0.0518 0.47775 0.48836 0.0
H196 H 0.15809 0.45562 0.42808 0.0
H197 H 0.18389 0.43102 0.28921 0.0
H198 H 0.09299 0.28452 0.31435 0.0
H199 H 0.06408 0.31221 0.45084 0.0
Dy200 Dy 0.89145 0.85948 0.30644 0.0
Dy201 Dy 0.82848 0.8214 0.14229 0.0
C202 C 0.86893 0.73818 0.26553 0.0
O203 O 0.94998 0.87971 0.21563 0.0
O204 O 0.92085 0.81876 0.12008 0.0
O205 O 0.95004 0.84023 0.40725 0.0
O206 O 0.90478 0.91483 0.40542 0.0
O207 O 0.85173 0.90004 0.0967 0.0
O208 O 0.86744 0.93603 0.22487 0.0
O209 O 0.76661 0.85524 0.23073 0.0
O210 O 0.8125 0.83711 0.35407 0.0
O211 O 0.76463 0.8277 1.0461 0.0
O212 O 0.81956 0.75964 1.0514 0.0
C213 C 0.95838 0.85188 0.1506 0.0
O214 O 0.90944 0.77133 0.27919 0.0
O215 O 0.82319 0.76085 0.24371 0.0
C216 C 0.91288 0.86571 0.5325 0.0
C217 C 0.87024 0.83235 0.6847 0.0
C218 C 0.83582 0.85024 0.61853 0.0
C219 C 0.85682 0.86761 0.54368 0.0
C220 C 0.94745 0.8461 0.59803 0.0
C221 C 0.92638 0.83057 0.67451 0.0
C222 C 0.93395 0.88027 0.45059 0.0
C223 C 0.85958 0.94135 0.14186 0.0
C224 C 0.76778 0.84953 0.31352 0.0
C225 C 0.80105 0.80065 0.92062 0.0
C226 C 0.84731 0.82022 0.76595 0.0
C227 C 0.85199 0.85808 0.82812 0.0
C228 C 0.82857 0.84871 0.90432 0.0
C229 C 0.7959 0.7629 0.85797 0.0
C230 C 0.81803 0.77304 0.7803 0.0
C231 C 0.78428 0.78778 1.00575 0.0
H232 H 0.79271 0.85162 0.62538 0.0
H233 H 0.82895 0.88237 0.49452 0.0
H234 H 0.99044 0.84248 0.58985 0.0
H235 H 0.95368 0.81691 0.72534 0.0
H236 H 0.87374 0.89498 0.81746 0.0
H237 H 0.83307 0.87875 0.9509 0.0
H238 H 0.776 0.72527 0.86999 0.0
H239 H 0.81344 0.74368 0.73223 0.0
Dy240 Dy 0.39115 0.582 0.41779 0.0
Dy241 Dy 0.36249 0.63163 0.54966 0.0
C242 C 0.37549 0.71417 0.41188 0.0
O243 O 0.46372 0.56796 0.50014 0.0
O244 O 0.45295 0.65103 0.53167 0.0
O245 O 0.44932 0.56288 0.32761 0.0
O246 O 0.37826 0.51278 0.34221 0.0
O247 O 0.36195 0.54144 0.53949 0.0
O248 O 0.35925 0.53927 0.53723 0.0
O249 O 0.28708 0.65096 0.46391 0.0
O250 O 0.3087 0.59448 0.36289 0.0
O251 O 0.30888 0.62446 0.65198 0.0
O252 O 0.38433 0.66823 0.66582 0.0
C253 C 0.48717 0.6119 0.52008 0.0
O254 O 0.39568 0.67233 0.37365 0.0
O255 O 0.35527 0.70689 0.48406 0.0
C256 C 0.40625 0.533 0.20507 0.0
C257 C 0.38497 0.56088 1.03566 0.0
C258 C 0.34238 0.54631 0.08671 0.0
C259 C 0.35279 0.53325 0.17105 0.0
C260 C 0.44881 0.54461 0.15292 0.0
C261 C 0.43843 0.55858 1.06927 0.0
C262 C 0.41844 0.5258 0.29531 0.0
C263 C 0.38834 0.52013 0.60427 0.0
C264 C 0.27556 0.62932 0.39085 0.0
C265 C 0.35336 0.62454 0.7868 0.0
C266 C 0.37383 0.58212 0.94956 0.0
C267 C 0.33428 0.55902 0.89635 0.0
C268 C 0.32443 0.57976 0.81537 0.0
C269 C 0.39179 0.64833 0.84075 0.0
C270 C 0.40219 0.62718 0.9209 0.0
C271 C 0.34252 0.64883 0.70299 0.0
H272 H 0.30086 0.54713 1.0624 0.0
H273 H 0.31894 0.52455 0.20968 0.0
H274 H 0.49012 0.54399 0.17772 0.0
H275 H 0.47228 0.56845 1.0312 0.0
H276 H 0.31124 0.52474 0.91702 0.0
H277 H 0.29391 0.56102 0.77565 0.0
H278 H 0.41371 0.68365 0.8211 0.0
H279 H 0.43178 0.6469 0.96108 0.0
Dy280 Dy 0.64844 0.12708 0.65552 0.0
Dy281 Dy 0.60156 0.08794 0.78249 0.0
C282 C 0.51841 0.10544 0.64616 0.0
O283 O 0.66541 0.19365 0.74046 0.0
O284 O 0.58193 0.17942 0.77309 0.0
O285 O 0.65621 0.19023 0.56262 0.0
O286 O 0.71288 0.12375 0.56842 0.0
O287 O 0.6935 0.0934 0.77875 0.0
O288 O 0.69657 0.0909 0.77568 0.0
O289 O 0.59066 0.01451 0.69845 0.0
O290 O 0.64317 0.04697 0.59804 0.0
O291 O 0.61578 0.04118 0.89664 0.0
O292 O 0.54765 0.09596 0.88386 0.0
C293 C 0.62103 0.21471 0.76448 0.0
O294 O 0.55533 0.14211 0.63008 0.0
O295 O 0.53558 0.06629 0.69469 0.0
C296 C 0.67571 0.15225 0.43601 0.0
C297 C 0.6377 0.13233 0.26961 0.0
C298 C 0.61603 0.10507 0.3386 0.0
C299 C 0.63394 0.11568 0.41993 0.0
C300 C 0.69783 0.17979 0.36883 0.0
C301 C 0.67864 0.17063 0.28689 0.0
C302 C 0.69232 0.16389 0.52318 0.0
C303 C 0.71018 0.11402 0.84886 0.0
C304 C 0.61288 0.0087 0.62536 0.0
C305 C 0.58995 0.08507 1.01788 0.0
C306 C 0.61888 0.11941 0.1814 0.0
C307 C 0.64909 0.1351 0.11229 0.0
C308 C 0.63427 0.11884 1.03196 0.0
C309 C 0.55773 0.07165 0.08454 0.0
C310 C 0.57118 0.08946 0.16466 0.0
C311 C 0.57655 0.06431 0.93425 0.0
H312 H 0.58518 0.07494 0.33155 0.0
H313 H 0.6143 0.09546 0.47042 0.0
H314 H 0.72965 0.20867 0.37979 0.0
H315 H 0.69623 0.19418 0.23796 0.0
H316 H 0.68485 0.15944 0.11866 0.0
H317 H 0.65783 0.13255 0.98096 0.0
H318 H 0.52255 0.04648 0.07514 0.0
H319 H 0.54384 0.07867 0.21276 0.0
Dy320 Dy 0.87557 0.36441 0.84258 0.0
Dy321 Dy 0.82523 0.33624 0.975 0.0
C322 C 0.76377 0.33971 0.78573 0.0
O323 O 0.89047 0.44099 0.91788 0.0
O324 O 0.83616 0.41803 1.02276 0.0
O325 O 0.86745 0.41241 0.7301 0.0
O326 O 0.91762 0.3411 0.73409 0.0
O327 O 0.91615 0.33181 1.02131 0.0
O328 O 0.94883 0.37945 0.91302 0.0
O329 O 0.81126 0.26625 0.89649 0.0
O330 O 0.89609 0.27528 0.86987 0.0
O331 O 0.80638 0.27462 1.06512 0.0
O332 O 0.75803 0.34753 1.05418 0.0
C333 C 0.86911 0.45216 0.98992 0.0
O334 O 0.78415 0.36538 0.84909 0.0
O335 O 0.78175 0.36821 0.85106 0.0
C336 C 0.87388 0.36536 0.60459 0.0
C337 C 0.83704 0.3426 0.44146 0.0
C338 C 0.80617 0.37521 0.49097 0.0
C339 C 0.82427 0.38643 0.57202 0.0
C340 C 0.90473 0.33272 0.55491 0.0
C341 C 0.8864 0.32131 0.47408 0.0
C342 C 0.89585 0.37969 0.68761 0.0
C343 C 0.95676 0.35723 0.98603 0.0
C344 C 0.85549 0.24249 0.87942 0.0
C345 C 0.78645 0.31582 0.1879 0.0
C346 C 0.81934 0.33313 0.35436 0.0
C347 C 0.85461 0.34446 0.29047 0.0
C348 C 0.83819 0.33612 0.20801 0.0
C349 C 0.75082 0.30488 0.25136 0.0
C350 C 0.76732 0.31344 0.33434 0.0
C351 C 0.77178 0.30535 0.10055 0.0
H352 H 0.76901 0.39354 0.46599 0.0
H353 H 0.8 0.41251 0.60823 0.0
H354 H 0.94347 0.31668 0.5782 0.0
H355 H 0.911 0.29621 0.43673 0.0
H356 H 0.8947 0.36025 0.3043 0.0
H357 H 0.86616 0.34528 0.15978 0.0
H358 H 0.71056 0.28986 0.23686 0.0
H359 H 0.73984 0.30421 0.38307 0.0
Dy360 Dy 0.32745 0.11712 0.61961 0.0
Dy361 Dy 0.36856 0.0788 0.76413 0.0
C362 C 0.38 0.01769 0.57875 0.0
O363 O 0.25481 0.11498 0.7076 0.0
O364 O 0.30399 0.12041 0.82696 0.0
O365 O 0.27054 0.08954 0.52393 0.0
O366 O 0.31677 0.16172 0.5031 0.0
O367 O 0.37281 0.16716 0.7963 0.0
O368 O 0.33483 0.1963 0.67189 0.0
O369 O 0.44799 0.10676 0.73483 0.0
O370 O 0.42091 0.12019 0.59947 0.0
O371 O 0.42101 0.0429 0.86151 0.0
O372 O 0.33862 0.0137 0.83974 0.0
C373 C 0.25712 0.12285 0.78919 0.0
O374 O 0.35024 0.03082 0.63986 0.0
O375 O 0.34831 0.02968 0.64219 0.0
C376 C 0.29558 0.10946 0.38481 0.0
C377 C 0.3203 0.07683 0.2233 0.0
C378 C 0.29002 0.04355 0.27586 0.0
C379 C 0.27799 0.05959 0.35572 0.0
C380 C 0.32328 0.14382 0.33087 0.0
C381 C 0.33554 0.12773 0.25135 0.0
C382 C 0.2841 0.12653 0.46991 0.0
C383 C 0.35585 0.2065 0.74527 0.0
C384 C 0.46034 0.1175 0.65871 0.0
C385 C 0.36688 0.02855 0.97972 0.0
C386 C 0.33667 0.05874 0.14014 0.0
C387 C 0.30245 0.02643 0.09057 0.0
C388 C 0.3175 0.01132 1.01159 0.0
C389 C 0.40149 0.05987 1.02985 0.0
C390 C 0.38691 0.07424 0.1092 0.0
C391 C 0.38018 0.01695 0.89273 0.0
H392 H 0.27652 0.00452 0.25637 0.0
H393 H 0.2553 0.03265 0.39486 0.0
H394 H 0.33595 0.18318 0.35031 0.0
H395 H 0.35688 0.1555 0.21175 0.0
H396 H 0.26336 0.01385 0.11167 0.0
H397 H 0.28989 -0.013 0.97468 0.0
H398 H 0.4396 0.07412 1.00728 0.0
H399 H 0.41515 0.09783 0.14611 0.0
Dy400 Dy 0.61366 0.59841 0.33336 0.0
Dy401 Dy 0.6714 0.62422 0.47369 0.0
C402 C 0.72407 0.62444 0.28511 0.0
O403 O 0.59342 0.52416 0.41205 0.0
O404 O 0.64979 0.54326 0.52256 0.0
O405 O 0.61582 0.54471 0.23036 0.0
O406 O 0.57507 0.62145 0.21452 0.0
O407 O 0.58447 0.63638 0.51726 0.0
O408 O 0.5409 0.59954 0.4053 0.0
O409 O 0.67904 0.70004 0.40195 0.0
O410 O 0.59657 0.68772 0.3461 0.0
O411 O 0.70096 0.67993 0.56468 0.0
O412 O 0.74011 0.60234 0.55618 0.0
C413 C 0.61462 0.51153 0.48708 0.0
O414 O 0.70536 0.598 0.34863 0.0
O415 O 0.70821 0.59495 0.35098 0.0
C416 C 0.61656 0.58825 0.09585 0.0
C417 C 0.65904 0.60444 0.93635 0.0
C418 C 0.61396 0.63401 0.95998 0.0
C419 C 0.59263 0.62555 1.03835 0.0
C420 C 0.66168 0.55872 1.07248 0.0
C421 C 0.68195 0.56593 0.99303 0.0
C422 C 0.5924 0.57921 0.17781 0.0
C423 C 0.53922 0.62009 0.47886 0.0
C424 C 0.63497 0.72103 0.36881 0.0
C425 C 0.72053 0.63313 0.69137 0.0
C426 C 0.68183 0.61411 0.85296 0.0
C427 C 0.69745 0.57124 0.80439 0.0
C428 C 0.7157 0.58056 0.72399 0.0
C429 C 0.7067 0.67597 0.74121 0.0
C430 C 0.68702 0.66658 0.82049 0.0
C431 C 0.73223 0.64376 0.60258 0.0
H432 H 0.59449 0.66313 0.91726 0.0
H433 H 0.55722 0.64824 1.05396 0.0
H434 H 0.6811 0.5296 0.11512 0.0
H435 H 0.71589 0.54157 0.97644 0.0
H436 H 0.6943 0.53036 0.82765 0.0
H437 H 0.72512 0.54644 0.68707 0.0
H438 H 0.70933 0.7169 0.71769 0.0
H439 H 0.67596 0.7006 0.85653 0.0
Dy440 Dy 0.13557 0.84526 0.0886 0.0
Dy441 Dy 0.09384 0.90573 0.24394 0.0
C442 C 0.11527 0.96992 1.06818 0.0
O443 O 0.21209 0.86316 0.17154 0.0
O444 O 0.17709 0.88864 0.29447 0.0
O445 O 0.1928 0.83429 0.99475 0.0
O446 O 0.12075 0.78492 0.99581 0.0
O447 O 0.08354 0.81497 0.26424 0.0
O448 O 0.15656 0.79091 0.19463 0.0
O449 O 0.03273 0.9081 0.13819 0.0
O450 O 0.04688 0.8238 0.1059 0.0
O451 O 0.02817 0.9119 0.32719 0.0
O452 O 0.09698 0.96467 0.33966 0.0
C453 C 0.21831 0.87499 0.25196 0.0
O454 O 0.11194 0.92454 1.03084 0.0
O455 O 0.1192 0.97113 0.15087 0.0
C456 C 0.14522 0.82252 0.86664 0.0
C457 C 0.11097 0.86183 0.70678 0.0
C458 C 0.13231 0.89678 0.76634 0.0
C459 C 0.14933 0.87738 0.84527 0.0
C460 C 0.12364 0.78745 0.80738 0.0
C461 C 0.10689 0.80691 0.72783 0.0
C462 C 0.16039 0.8031 0.95202 0.0
C463 C 0.11997 0.77854 0.24728 0.0
C464 C 0.01197 0.8624 0.11635 0.0
C465 C 0.06676 0.92307 0.46078 0.0
C466 C 0.09468 0.88265 0.62219 0.0
C467 C 0.11114 0.85569 0.55223 0.0
C468 C 0.09749 0.87584 0.47238 0.0
C469 C 0.0492 0.94961 0.53015 0.0
C470 C 0.06351 0.92988 0.61056 0.0
C471 C 0.05521 0.9442 0.3757 0.0
H472 H 0.13656 0.9391 0.75154 0.0
H473 H 0.16557 0.90563 0.88961 0.0
H474 H 0.11954 0.74519 0.82273 0.0
H475 H 0.0901 0.77918 0.68309 0.0
H476 H 0.13557 0.81961 0.55923 0.0
H477 H 0.1114 0.85471 0.41945 0.0
H478 H 0.02447 0.98525 0.522 0.0
H479 H 0.04954 0.95099 0.66352 0.0
Dy480 Dy 0.85257 0.60898 0.08354 0.0
Dy481 Dy 0.8887 0.55606 0.22544 0.0
C482 C 0.88612 0.50024 1.03839 0.0
O483 O 0.77865 0.62559 0.16036 0.0
O484 O 0.80736 0.57474 0.27307 0.0
O485 O 0.80068 0.59871 0.97362 0.0
O486 O 0.86793 0.65392 0.97029 0.0
O487 O 0.90092 0.64386 0.26306 0.0
O488 O 0.84755 0.68003 0.15747 0.0
O489 O 0.96246 0.54995 0.15397 0.0
O490 O 0.94205 0.62998 0.09841 0.0
O491 O 0.94961 0.53278 0.31984 0.0
O492 O 0.87371 0.48936 0.31038 0.0
C493 C 0.77109 0.60647 0.23672 0.0
O494 O 0.85973 0.51874 0.10002 0.0
O495 O 0.85715 0.51572 0.1026 0.0
C496 C 0.8465 0.60832 0.84616 0.0
C497 C 0.87406 0.57195 0.68843 0.0
C498 C 0.84448 0.53933 0.74225 0.0
C499 C 0.8315 0.55687 0.8208 0.0
C500 C 0.87603 0.64108 0.79215 0.0
C501 C 0.88962 0.62315 0.71404 0.0
C502 C 0.83045 0.62916 0.92691 0.0
C503 C 0.87578 0.68572 0.22686 0.0
C504 C 0.9792 0.59413 0.12011 0.0
C505 C 0.90508 0.5173 0.44317 0.0
C506 C 0.88619 0.55355 0.60424 0.0
C507 C 0.8708 0.58507 0.5337 0.0
C508 C 0.88013 0.56714 0.45419 0.0
C509 C 0.92164 0.4861 0.5135 0.0
C510 C 0.91246 0.50432 0.59354 0.0
C511 C 0.91621 0.50106 0.35798 0.0
H512 H 0.82905 0.50133 0.72191 0.0
H513 H 0.80824 0.53073 0.86034 0.0
H514 H 0.88846 0.68077 0.81025 0.0
H515 H 0.91217 0.64934 0.67353 0.0
H516 H 0.85113 0.62347 0.54002 0.0
H517 H 0.86831 0.59271 0.40117 0.0
H518 H 0.94218 0.44823 0.50659 0.0
H519 H 0.92704 0.48077 0.64729 0.0
Dy520 Dy 0.14754 0.14192 1.02004 0.0
Dy521 Dy 0.08532 0.1039 0.85537 0.0
C522 C 0.11893 0.02025 1.01681 0.0
O523 O 0.20677 0.14979 0.91186 0.0
O524 O 0.169 0.09132 0.81972 0.0
O525 O 0.21252 0.13743 0.1145 0.0
O526 O 0.15668 0.20418 0.11022 0.0
O527 O 0.11082 0.19201 0.84727 0.0
O528 O 0.08704 0.20209 0.97621 0.0
O529 O 0.01739 0.12173 0.93525 0.0
O530 O 0.0641 0.1139 1.06153 0.0
O531 O 0.02761 0.1276 0.75639 0.0
O532 O 0.06885 0.05106 0.75322 0.0
C533 C 0.20841 0.12283 0.84148 0.0
O534 O 0.15122 0.05605 1.04798 0.0
O535 O 0.08874 0.02984 0.94669 0.0
C536 C 0.17711 0.16337 0.24034 0.0
C537 C 0.13291 0.14195 0.39623 0.0
C538 C 0.12962 0.10385 0.33383 0.0
C539 C 0.15146 0.11438 0.25678 0.0
C540 C 0.18152 0.20115 0.30279 0.0
C541 C 0.16003 0.19043 0.3806 0.0
C542 C 0.19273 0.17685 0.15521 0.0
C543 C 0.09561 0.22435 0.90487 0.0
C544 C 0.01785 0.11624 1.01629 0.0
C545 C 0.06249 0.10362 0.63 0.0
C546 C 0.10764 0.13079 0.4768 0.0
C547 C 0.13511 0.1432 0.55197 0.0
C548 C 0.11264 0.12981 0.6278 0.0
C549 C 0.03392 0.09315 0.55541 0.0
C550 C 0.05638 0.1063 0.47924 0.0
C551 C 0.04091 0.08778 0.71062 0.0
H552 H 0.10964 0.06603 0.34435 0.0
H553 H 0.14686 0.08471 0.20924 0.0
H554 H 0.1998 0.23953 0.29023 0.0
H555 H 0.16287 0.22081 0.42731 0.0
H556 H 0.17452 0.16208 0.55231 0.0
H557 H 0.13467 0.13969 0.68482 0.0
H558 H -0.00529 0.07425 0.55603 0.0
H559 H 0.03364 0.09726 0.42227 0.0
Dy560 Dy 0.62172 0.35134 0.58615 0.0
Dy561 Dy 0.5955 0.40183 0.72105 0.0
C562 C 0.59607 0.46331 0.53448 0.0
O563 O 0.69979 0.33468 0.66517 0.0
O564 O 0.67929 0.3879 0.7716 0.0
O565 O 0.67292 0.35644 0.48116 0.0
O566 O 0.59452 0.31835 0.46905 0.0
O567 O 0.59042 0.31154 0.76514 0.0
O568 O 0.63115 0.27646 0.65489 0.0
O569 O 0.52257 0.41447 0.63861 0.0
O570 O 0.53253 0.33106 0.60782 0.0
O571 O 0.53891 0.42172 0.81363 0.0
O572 O 0.60829 0.47289 0.79252 0.0
C573 C 0.7129 0.3556 0.73816 0.0
O574 O 0.62328 0.44136 0.59792 0.0
O575 O 0.62604 0.44353 0.6001 0.0
C576 C 0.62523 0.36514 0.34949 0.0
C577 C 0.60782 0.41241 0.18899 0.0
C578 C 0.65519 0.42345 0.23685 0.0
C579 C 0.66348 0.4006 0.31671 0.0
C580 C 0.57757 0.35472 0.30189 0.0
C581 C 0.56872 0.3785 0.22288 0.0
C582 C 0.63626 0.33642 0.43028 0.0
C583 C 0.61098 0.26954 0.72754 0.0
C584 C 0.49891 0.37053 0.61902 0.0
C585 C 0.58186 0.45811 0.93119 0.0
C586 C 0.60039 0.43295 0.10187 0.0
C587 C 0.64246 0.4286 1.04661 0.0
C588 C 0.63326 0.44073 0.96188 0.0
C589 C 0.54064 0.46537 0.98697 0.0
C590 C 0.5499 0.45288 1.07164 0.0
C591 C 0.56864 0.46118 0.84112 0.0
H592 H 0.686 0.44947 0.21239 0.0
H593 H 0.70056 0.40969 0.35171 0.0
H594 H 0.54747 0.32727 0.32489 0.0
H595 H 0.53216 0.36863 0.18697 0.0
H596 H 0.68184 0.41387 1.06845 0.0
H597 H 0.6658 0.43462 0.9202 0.0
H598 H 0.50059 0.47829 0.96448 0.0
H599 H 0.51734 0.4573 0.11347 0.0
Dy600 Dy 0.37831 0.89532 0.36188 0.0
Dy601 Dy 0.33144 0.85197 0.49096 0.0
C602 C 0.27168 0.86533 0.2979 0.0
O603 O 0.38528 0.96875 0.44651 0.0
O604 O 0.34282 0.92978 0.55418 0.0
O605 O 0.36059 0.94124 0.24731 0.0
O606 O 0.43179 0.89066 0.2594 0.0
O607 O 0.42297 0.83643 0.51607 0.0
O608 O 0.44518 0.91231 0.45088 0.0
O609 O 0.31804 0.78709 0.40132 0.0
O610 O 0.40078 0.8049 0.36722 0.0
O611 O 0.3209 0.78659 0.57895 0.0
O612 O 0.26803 0.85608 0.57985 0.0
C613 C 0.36738 0.97117 0.52332 0.0
O614 O 0.28715 0.88578 0.36851 0.0
O615 O 0.28353 0.88822 0.37177 0.0
C616 C 0.38821 0.89818 0.12548 0.0
C617 C 0.36289 0.86 0.96268 0.0
C618 C 0.33829 0.83778 1.03349 0.0
C619 C 0.35087 0.85657 0.1136 0.0
C620 C 0.41506 0.91826 1.05652 0.0
C621 C 0.40303 0.89926 0.97662 0.0
C622 C 0.40068 0.92017 0.20902 0.0
C623 C 0.46015 0.87255 0.50025 0.0
C624 C 0.36302 0.76831 0.37538 0.0
C625 C 0.30736 0.82364 0.70898 0.0
C626 C 0.34514 0.84467 0.87514 0.0
C627 C 0.37895 0.85252 0.80739 0.0
C628 C 0.36018 0.84255 0.7257 0.0
C629 C 0.27414 0.81407 0.77559 0.0
C630 C 0.2928 0.82433 0.85723 0.0
C631 C 0.2878 0.81429 0.6221 0.0
H632 H 0.30932 0.8056 1.0279 0.0
H633 H 0.33132 0.83852 0.16616 0.0
H634 H 0.4445 0.94996 1.0639 0.0
H635 H 0.42414 0.91736 0.92574 0.0
H636 H 0.42017 0.86622 0.81657 0.0
H637 H 0.3871 0.84983 0.67531 0.0
H638 H 0.23365 0.7989 0.76429 0.0
H639 H 0.26558 0.81677 0.90597 0.0
loop_
_geom_bond_atom_site_label_1
_geom_bond_atom_site_label_2
_geom_bond_distance
_geom_bond_site_symmetry_2
_ccdc_geom_bond_type
Dy0 O3 2.307 1_556 S
Dy0 O5 2.395 . S
Dy0 O6 2.379 . S
Dy0 O8 2.339 1_556 S
Dy0 O10 2.298 . S
Dy0 O14 2.275 1_556 S
Dy0 C22 2.738 . S
Dy1 O4 2.298 . S
Dy1 O7 2.275 . S
Dy1 O9 2.307 . S
Dy1 O11 2.395 . S
Dy1 O12 2.379 . S
Dy1 O15 2.339 . S
Dy1 C31 2.738 . S
C2 O14 1.254 . S
C2 O15 1.257 . S
O3 Dy0 2.307 1_554 S
O3 C13 1.266 . S
O4 Dy1 2.298 . S
O4 C13 1.236 . S
O5 Dy0 2.395 . S
O5 C22 1.255 . S
O6 Dy0 2.379 . S
O6 C22 1.249 . S
O7 Dy1 2.275 . S
O7 C23 1.254 . S
O8 Dy0 2.339 1_554 S
O8 C23 1.257 . S
O9 Dy1 2.307 . S
O9 C24 1.266 . S
O10 Dy0 2.298 . S
O10 C24 1.236 1_556 S
O11 Dy1 2.395 . S
O11 C31 1.255 . S
O12 Dy1 2.379 . S
O12 C31 1.249 . S
C13 O3 1.266 . S
C13 O4 1.236 . S
O14 Dy0 2.275 1_554 S
O14 C2 1.254 . S
O15 Dy1 2.339 . S
O15 C2 1.257 . S
C16 C19 1.344 . S
C16 C20 1.328 . S
C16 C22 1.516 . S
C17 C18 1.304 . S
C17 C21 1.323 . S
C18 C17 1.304 . S
C18 C19 1.371 . S
C18 H32 0.930 . S
C19 C16 1.344 . S
C19 C18 1.371 . S
C19 H33 0.931 . S
C20 C16 1.328 . S
C20 C21 1.433 . S
C20 H34 0.931 . S
C21 C17 1.323 . S
C21 C20 1.433 . S
C21 H35 0.933 . S
C22 Dy0 2.738 . S
C22 O5 1.255 . S
C22 O6 1.249 . S
C22 C16 1.516 . S
C23 O7 1.254 . S
C23 O8 1.257 . S
C24 O9 1.266 . S
C24 O10 1.236 1_554 S
C25 C28 1.344 . S
C25 C29 1.328 . S
C25 C31 1.516 . S
C26 C27 1.304 . S
C26 C30 1.323 . S
C27 C26 1.304 . S
C27 C28 1.371 . S
C27 H36 0.930 . S
C28 C25 1.344 . S
C28 C27 1.371 . S
C28 H37 0.931 . S
C29 C25 1.328 . S
C29 C30 1.433 . S
C29 H38 0.931 . S
C30 C26 1.323 . S
C30 C29 1.433 . S
C30 H39 0.933 . S
C31 Dy1 2.738 . S
C31 O11 1.255 . S
C31 O12 1.249 . S
C31 C25 1.516 . S
H32 C18 0.930 . S
H33 C19 0.931 . S
H34 C20 0.931 . S
H35 C21 0.933 . S
H36 C27 0.930 . S
H37 C28 0.931 . S
H38 C29 0.931 . S
H39 C30 0.933 . S
Dy40 O43 2.307 . S
Dy40 O45 2.395 . S
Dy40 O46 2.379 . S
Dy40 O48 2.339 1_565 S
Dy40 O50 2.298 . S
Dy40 O54 2.275 . S
Dy40 C62 2.738 . S
Dy41 O44 2.298 . S
Dy41 O47 2.275 . S
Dy41 O49 2.307 . S
Dy41 O51 2.395 . S
Dy41 O52 2.379 . S
Dy41 O55 2.339 . S
Dy41 C71 2.738 . S
C42 O54 1.254 . S
C42 O55 1.257 . S
O43 Dy40 2.307 . S
O43 C53 1.266 . S
O44 Dy41 2.298 . S
O44 C53 1.236 . S
O45 Dy40 2.395 . S
O45 C62 1.255 . S
O46 Dy40 2.379 . S
O46 C62 1.249 . S
O47 Dy41 2.275 . S
O47 C63 1.254 1_565 S
O48 Dy40 2.339 1_545 S
O48 C63 1.257 . S
O49 Dy41 2.307 . S
O49 C64 1.266 . S
O50 Dy40 2.298 . S
O50 C64 1.236 . S
O51 Dy41 2.395 . S
O51 C71 1.255 . S
O52 Dy41 2.379 . S
O52 C71 1.249 . S
C53 O43 1.266 . S
C53 O44 1.236 . S
O54 Dy40 2.275 . S
O54 C42 1.254 . S
O55 Dy41 2.339 . S
O55 C42 1.257 . S
C56 C59 1.344 . S
C56 C60 1.328 1_554 S
C56 C62 1.516 . S
C57 C58 1.304 . S
C57 C61 1.323 . S
C58 C57 1.304 . S
C58 C59 1.371 1_556 S
C58 H72 0.930 . S
C59 C56 1.344 . S
C59 C58 1.371 1_554 S
C59 H73 0.931 . S
C60 C56 1.328 1_556 S
C60 C61 1.433 . S
C60 H74 0.937 1_556 S
C61 C57 1.323 . S
C61 C60 1.433 . S
C61 H75 0.933 . S
C62 Dy40 2.738 . S
C62 O45 1.255 . S
C62 O46 1.249 . S
C62 C56 1.516 . S
C63 O47 1.254 1_545 S
C63 O48 1.257 . S
C64 O49 1.266 . S
C64 O50 1.236 . S
C65 C68 1.344 . S
C65 C69 1.328 . S
C65 C71 1.516 . S
C66 C67 1.304 . S
C66 C70 1.323 . S
C67 C66 1.304 . S
C67 C68 1.371 . S
C67 H76 0.930 . S
C68 C65 1.344 . S
C68 C67 1.371 . S
C68 H77 0.931 . S
C69 C65 1.328 . S
C69 C70 1.433 . S
C69 H78 0.931 . S
C70 C66 1.323 . S
C70 C69 1.433 . S
C70 H79 0.933 . S
C71 Dy41 2.738 . S
C71 O51 1.255 . S
C71 O52 1.249 . S
C71 C65 1.516 . S
H72 C58 0.930 . S
H73 C59 0.931 . S
H74 C60 0.937 1_554 S
H75 C61 0.933 . S
H76 C67 0.930 . S
H77 C68 0.931 . S
H78 C69 0.931 . S
H79 C70 0.933 . S
Dy80 O83 2.307 . S
Dy80 O85 2.395 . S
Dy80 O86 2.379 . S
Dy80 O88 2.339 . S
Dy80 O90 2.298 . S
Dy80 O94 2.275 . S
Dy80 C102 2.738 . S
Dy81 O84 2.298 . S
Dy81 O87 2.275 . S
Dy81 O89 2.307 . S
Dy81 O91 2.395 . S
Dy81 O92 2.379 . S
Dy81 O95 2.339 . S
Dy81 C111 2.738 . S
C82 O94 1.254 . S
C82 O95 1.257 . S
O83 Dy80 2.307 . S
O83 C93 1.266 . S
O84 Dy81 2.298 . S
O84 C93 1.236 . S
O85 Dy80 2.395 . S
O85 C102 1.255 . S
O86 Dy80 2.379 . S
O86 C102 1.249 . S
O87 Dy81 2.275 . S
O87 C103 1.254 . S
O88 Dy80 2.339 . S
O88 C103 1.257 . S
O89 Dy81 2.307 . S
O89 C104 1.266 . S
O90 Dy80 2.298 . S
O90 C104 1.236 . S
O91 Dy81 2.395 . S
O91 C111 1.255 . S
O92 Dy81 2.379 . S
O92 C111 1.249 . S
C93 O83 1.266 . S
C93 O84 1.236 . S
O94 Dy80 2.275 . S
O94 C82 1.254 . S
O95 Dy81 2.339 . S
O95 C82 1.257 . S
C96 C99 1.344 . S
C96 C100 1.328 . S
C96 C102 1.516 . S
C97 C98 1.304 . S
C97 C101 1.323 . S
C98 C97 1.304 . S
C98 C99 1.371 . S
C98 H112 0.930 . S
C99 C96 1.344 . S
C99 C98 1.371 . S
C99 H113 0.931 . S
C100 C96 1.328 . S
C100 C101 1.433 . S
C100 H114 0.931 . S
C101 C97 1.323 . S
C101 C100 1.433 . S
C101 H115 0.933 . S
C102 Dy80 2.738 . S
C102 O85 1.255 . S
C102 O86 1.249 . S
C102 C96 1.516 . S
C103 O87 1.254 . S
C103 O88 1.257 . S
C104 O89 1.266 . S
C104 O90 1.236 . S
C105 C108 1.344 . S
C105 C109 1.328 . S
C105 C111 1.516 . S
C106 C107 1.304 . S
C106 C110 1.323 . S
C107 C106 1.304 . S
C107 C108 1.371 1_554 S
C107 H116 0.930 . S
C108 C105 1.344 . S
C108 C107 1.371 1_556 S
C108 H117 0.931 . S
C109 C105 1.328 . S
C109 C110 1.433 1_556 S
C109 H118 0.931 . S
C110 C106 1.323 . S
C110 C109 1.433 1_554 S
C110 H119 0.933 . S
C111 Dy81 2.738 . S
C111 O91 1.255 . S
C111 O92 1.249 . S
C111 C105 1.516 . S
H112 C98 0.930 . S
H113 C99 0.931 . S
H114 C100 0.931 . S
H115 C101 0.933 . S
H116 C107 0.930 . S
H117 C108 0.931 . S
H118 C109 0.931 . S
H119 C110 0.933 . S
Dy120 O123 2.307 . S
Dy120 O125 2.395 . S
Dy120 O126 2.379 . S
Dy120 O128 2.328 1_545 S
Dy120 O130 2.298 . S
Dy120 O134 2.275 . S
Dy120 C142 2.738 . S
Dy121 O124 2.298 . S
Dy121 O127 2.275 . S
Dy121 O129 2.307 . S
Dy121 O131 2.395 1_556 S
Dy121 O132 2.379 1_556 S
Dy121 O135 2.339 . S
Dy121 C151 2.738 1_556 S
C122 O134 1.254 . S
C122 O135 1.257 . S
O123 Dy120 2.307 . S
O123 C133 1.266 . S
O124 Dy121 2.298 . S
O124 C133 1.236 . S
O125 Dy120 2.395 . S
O125 C142 1.255 . S
O126 Dy120 2.379 . S
O126 C142 1.249 . S
O127 Dy121 2.275 . S
O127 C143 1.254 . S
O128 Dy120 2.328 1_565 S
O128 C143 1.256 1_565 S
O129 Dy121 2.307 . S
O129 C144 1.266 . S
O130 Dy120 2.298 . S
O130 C144 1.236 . S
O131 Dy121 2.395 1_554 S
O131 C151 1.255 . S
O132 Dy121 2.379 1_554 S
O132 C151 1.249 . S
C133 O123 1.266 . S
C133 O124 1.236 . S
O134 Dy120 2.275 . S
O134 C122 1.254 . S
O135 Dy121 2.339 . S
O135 C122 1.257 . S
C136 C139 1.344 . S
C136 C140 1.328 . S
C136 C142 1.516 . S
C137 C138 1.304 . S
C137 C141 1.323 . S
C138 C137 1.304 . S
C138 C139 1.371 . S
C138 H152 0.930 . S
C139 C136 1.344 . S
C139 C138 1.371 . S
C139 H153 0.931 . S
C140 C136 1.328 . S
C140 C141 1.433 . S
C140 H154 0.931 . S
C141 C137 1.323 . S
C141 C140 1.433 . S
C141 H155 0.933 . S
C142 Dy120 2.738 . S
C142 O125 1.255 . S
C142 O126 1.249 . S
C142 C136 1.516 . S
C143 O127 1.254 . S
C143 O128 1.256 1_545 S
C144 O129 1.266 . S
C144 O130 1.236 . S
C145 C148 1.344 . S
C145 C149 1.328 . S
C145 C151 1.516 . S
C146 C147 1.304 . S
C146 C150 1.323 . S
C147 C146 1.304 . S
C147 C148 1.371 . S
C147 H156 0.930 . S
C148 C145 1.344 . S
C148 C147 1.371 . S
C148 H157 0.931 . S
C149 C145 1.328 . S
C149 C150 1.433 . S
C149 H158 0.931 . S
C150 C146 1.323 . S
C150 C149 1.433 . S
C150 H159 0.933 . S
C151 Dy121 2.738 1_554 S
C151 O131 1.255 . S
C151 O132 1.249 . S
C151 C145 1.516 . S
H152 C138 0.930 . S
H153 C139 0.931 . S
H154 C140 0.931 . S
H155 C141 0.933 . S
H156 C147 0.930 . S
H157 C148 0.931 . S
H158 C149 0.931 . S
H159 C150 0.933 . S
Dy160 O163 2.307 . S
Dy160 O165 2.395 . S
Dy160 O166 2.379 . S
Dy160 O168 2.339 . S
Dy160 O170 2.298 . S
Dy160 O174 2.275 . S
Dy160 C182 2.738 . S
Dy161 O164 2.298 . S
Dy161 O167 2.275 . S
Dy161 O169 2.307 . S
Dy161 O171 2.395 1_556 S
Dy161 O172 2.379 1_556 S
Dy161 O175 2.339 . S
Dy161 C191 2.738 1_556 S
C162 O174 1.254 . S
C162 O175 1.257 . S
O163 Dy160 2.307 . S
O163 C173 1.266 . S
O164 Dy161 2.298 . S
O164 C173 1.236 . S
O165 Dy160 2.395 . S
O165 C182 1.255 . S
O166 Dy160 2.379 . S
O166 C182 1.249 . S
O167 Dy161 2.275 . S
O167 C183 1.254 . S
O168 Dy160 2.339 . S
O168 C183 1.257 . S
O169 Dy161 2.307 . S
O169 C184 1.266 . S
O170 Dy160 2.298 . S
O170 C184 1.236 . S
O171 Dy161 2.395 1_554 S
O171 C191 1.255 . S
O172 Dy161 2.379 1_554 S
O172 C191 1.249 . S
C173 O163 1.266 . S
C173 O164 1.236 . S
O174 Dy160 2.275 . S
O174 C162 1.254 . S
O175 Dy161 2.339 . S
O175 C162 1.257 . S
C176 C179 1.344 . S
C176 C180 1.328 . S
C176 C182 1.516 . S
C177 C178 1.304 . S
C177 C181 1.323 . S
C178 C177 1.304 . S
C178 C179 1.371 . S
C178 H192 0.930 . S
C179 C176 1.344 . S
C179 C178 1.371 . S
C179 H193 0.931 . S
C180 C176 1.328 . S
C180 C181 1.433 . S
C180 H194 0.931 . S
C181 C177 1.323 . S
C181 C180 1.433 . S
C181 H195 0.933 . S
C182 Dy160 2.738 . S
C182 O165 1.255 . S
C182 O166 1.249 . S
C182 C176 1.516 . S
C183 O167 1.254 . S
C183 O168 1.257 . S
C184 O169 1.266 . S
C184 O170 1.236 . S
C185 C188 1.344 . S
C185 C189 1.328 . S
C185 C191 1.516 . S
C186 C187 1.304 . S
C186 C190 1.323 . S
C187 C186 1.304 . S
C187 C188 1.371 . S
C187 H196 0.930 . S
C188 C185 1.344 . S
C188 C187 1.371 . S
C188 H197 0.931 . S
C189 C185 1.328 . S
C189 C190 1.433 . S
C189 H198 0.931 . S
C190 C186 1.323 . S
C190 C189 1.433 . S
C190 H199 0.933 . S
C191 Dy161 2.738 1_554 S
C191 O171 1.255 . S
C191 O172 1.249 . S
C191 C185 1.516 . S
H192 C178 0.930 . S
H193 C179 0.931 . S
H194 C180 0.931 . S
H195 C181 0.933 . S
H196 C187 0.930 . S
H197 C188 0.931 . S
H198 C189 0.931 . S
H199 C190 0.933 . S
Dy200 O203 2.307 . S
Dy200 O205 2.395 . S
Dy200 O206 2.379 . S
Dy200 O208 2.339 . S
Dy200 O210 2.298 . S
Dy200 O214 2.275 . S
Dy200 C222 2.738 . S
Dy201 O204 2.298 1_556 S
Dy201 O207 2.275 1_556 S
Dy201 O209 2.307 1_556 S
Dy201 O211 2.395 . S
Dy201 O212 2.379 . S
Dy201 O215 2.339 1_556 S
Dy201 C231 2.738 . S
C202 O214 1.254 . S
C202 O215 1.257 . S
O203 Dy200 2.307 . S
O203 C213 1.266 . S
O204 Dy201 2.298 1_554 S
O204 C213 1.236 . S
O205 Dy200 2.395 . S
O205 C222 1.255 . S
O206 Dy200 2.379 . S
O206 C222 1.249 . S
O207 Dy201 2.275 1_554 S
O207 C223 1.254 . S
O208 Dy200 2.339 . S
O208 C223 1.257 . S
O209 Dy201 2.307 1_554 S
O209 C224 1.266 . S
O210 Dy200 2.298 . S
O210 C224 1.236 . S
O211 Dy201 2.395 . S
O211 C231 1.255 . S
O212 Dy201 2.379 . S
O212 C231 1.249 . S
C213 O203 1.266 . S
C213 O204 1.236 . S
O214 Dy200 2.275 . S
O214 C202 1.254 . S
O215 Dy201 2.339 1_554 S
O215 C202 1.257 . S
C216 C219 1.344 . S
C216 C220 1.328 . S
C216 C222 1.516 . S
C217 C218 1.304 . S
C217 C221 1.323 . S
C218 C217 1.304 . S
C218 C219 1.371 . S
C218 H232 0.930 . S
C219 C216 1.344 . S
C219 C218 1.371 . S
C219 H233 0.931 . S
C220 C216 1.328 . S
C220 C221 1.433 . S
C220 H234 0.931 . S
C221 C217 1.323 . S
C221 C220 1.433 . S
C221 H235 0.933 . S
C222 Dy200 2.738 . S
C222 O205 1.255 . S
C222 O206 1.249 . S
C222 C216 1.516 . S
C223 O207 1.254 . S
C223 O208 1.257 . S
C224 O209 1.266 . S
C224 O210 1.236 . S
C225 C228 1.344 . S
C225 C229 1.328 . S
C225 C231 1.516 . S
C226 C227 1.304 . S
C226 C230 1.323 . S
C227 C226 1.304 . S
C227 C228 1.371 . S
C227 H236 0.930 . S
C228 C225 1.344 . S
C228 C227 1.371 . S
C228 H237 0.931 . S
C229 C225 1.328 . S
C229 C230 1.433 . S
C229 H238 0.931 . S
C230 C226 1.323 . S
C230 C229 1.433 . S
C230 H239 0.933 . S
C231 Dy201 2.738 . S
C231 O211 1.255 . S
C231 O212 1.249 . S
C231 C225 1.516 . S
H232 C218 0.930 . S
H233 C219 0.931 . S
H234 C220 0.931 . S
H235 C221 0.933 . S
H236 C227 0.930 . S
H237 C228 0.931 . S
H238 C229 0.931 . S
H239 C230 0.933 . S
Dy240 O243 2.307 . S
Dy240 O245 2.395 . S
Dy240 O246 2.379 . S
Dy240 O248 2.339 . S
Dy240 O250 2.298 . S
Dy240 O254 2.275 . S
Dy240 C262 2.738 . S
Dy241 O244 2.298 . S
Dy241 O247 2.275 . S
Dy241 O249 2.307 . S
Dy241 O251 2.395 . S
Dy241 O252 2.379 . S
Dy241 O255 2.339 . S
Dy241 C271 2.738 . S
C242 O254 1.254 . S
C242 O255 1.257 . S
O243 Dy240 2.307 . S
O243 C253 1.266 . S
O244 Dy241 2.298 . S
O244 C253 1.236 . S
O245 Dy240 2.395 . S
O245 C262 1.255 . S
O246 Dy240 2.379 . S
O246 C262 1.249 . S
O247 Dy241 2.275 . S
O247 C263 1.254 . S
O248 Dy240 2.339 . S
O248 C263 1.257 . S
O249 Dy241 2.307 . S
O249 C264 1.266 . S
O250 Dy240 2.298 . S
O250 C264 1.236 . S
O251 Dy241 2.395 . S
O251 C271 1.255 . S
O252 Dy241 2.379 . S
O252 C271 1.249 . S
C253 O243 1.266 . S
C253 O244 1.236 . S
O254 Dy240 2.275 . S
O254 C242 1.254 . S
O255 Dy241 2.339 . S
O255 C242 1.257 . S
C256 C259 1.344 1_554 S
C256 C260 1.328 1_554 S
C256 C262 1.516 . S
C257 C258 1.304 . S
C257 C261 1.323 . S
C258 C257 1.304 . S
C258 C259 1.371 . S
C258 H272 0.930 . S
C259 C256 1.344 1_556 S
C259 C258 1.371 . S
C259 H273 0.931 1_556 S
C260 C256 1.328 1_556 S
C260 C261 1.433 . S
C260 H274 0.931 1_556 S
C261 C257 1.323 . S
C261 C260 1.433 . S
C261 H275 0.933 . S
C262 Dy240 2.738 . S
C262 O245 1.255 . S
C262 O246 1.249 . S
C262 C256 1.516 . S
C263 O247 1.254 . S
C263 O248 1.257 . S
C264 O249 1.266 . S
C264 O250 1.236 . S
C265 C268 1.344 . S
C265 C269 1.328 . S
C265 C271 1.516 . S
C266 C267 1.304 . S
C266 C270 1.323 . S
C267 C266 1.304 . S
C267 C268 1.371 . S
C267 H276 0.930 . S
C268 C265 1.344 . S
C268 C267 1.371 . S
C268 H277 0.931 . S
C269 C265 1.328 . S
C269 C270 1.433 . S
C269 H278 0.931 . S
C270 C266 1.323 . S
C270 C269 1.433 . S
C270 H279 0.933 . S
C271 Dy241 2.738 . S
C271 O251 1.255 . S
C271 O252 1.249 . S
C271 C265 1.516 . S
H272 C258 0.930 . S
H273 C259 0.931 1_554 S
H274 C260 0.931 1_554 S
H275 C261 0.933 . S
H276 C267 0.930 . S
H277 C268 0.931 . S
H278 C269 0.931 . S
H279 C270 0.933 . S
Dy280 O283 2.307 . S
Dy280 O285 2.395 . S
Dy280 O286 2.379 . S
Dy280 O288 2.339 . S
Dy280 O290 2.298 . S
Dy280 O294 2.275 . S
Dy280 C302 2.738 . S
Dy281 O284 2.298 . S
Dy281 O287 2.275 . S
Dy281 O289 2.307 . S
Dy281 O291 2.395 . S
Dy281 O292 2.379 . S
Dy281 O295 2.339 . S
Dy281 C311 2.738 . S
C282 O294 1.254 . S
C282 O295 1.257 . S
O283 Dy280 2.307 . S
O283 C293 1.266 . S
O284 Dy281 2.298 . S
O284 C293 1.236 . S
O285 Dy280 2.395 . S
O285 C302 1.255 . S
O286 Dy280 2.379 . S
O286 C302 1.249 . S
O287 Dy281 2.275 . S
O287 C303 1.254 . S
O288 Dy280 2.339 . S
O288 C303 1.257 . S
O289 Dy281 2.307 . S
O289 C304 1.266 . S
O290 Dy280 2.298 . S
O290 C304 1.236 . S
O291 Dy281 2.395 . S
O291 C311 1.255 . S
O292 Dy281 2.379 . S
O292 C311 1.249 . S
C293 O283 1.266 . S
C293 O284 1.236 . S
O294 Dy280 2.275 . S
O294 C282 1.254 . S
O295 Dy281 2.339 . S
O295 C282 1.257 . S
C296 C299 1.344 . S
C296 C300 1.328 . S
C296 C302 1.516 . S
C297 C298 1.304 . S
C297 C301 1.323 . S
C298 C297 1.304 . S
C298 C299 1.371 . S
C298 H312 0.930 . S
C299 C296 1.344 . S
C299 C298 1.371 . S
C299 H313 0.931 . S
C300 C296 1.328 . S
C300 C301 1.433 . S
C300 H314 0.931 . S
C301 C297 1.323 . S
C301 C300 1.433 . S
C301 H315 0.933 . S
C302 Dy280 2.738 . S
C302 O285 1.255 . S
C302 O286 1.249 . S
C302 C296 1.516 . S
C303 O287 1.254 . S
C303 O288 1.257 . S
C304 O289 1.266 . S
C304 O290 1.236 . S
C305 C308 1.344 . S
C305 C309 1.328 . S
C305 C311 1.516 . S
C306 C307 1.304 . S
C306 C310 1.323 . S
C307 C306 1.304 . S
C307 C308 1.371 1_554 S
C307 H316 0.930 . S
C308 C305 1.344 . S
C308 C307 1.371 1_556 S
C308 H317 0.931 . S
C309 C305 1.328 . S
C309 C310 1.433 1_556 S
C309 H318 0.931 . S
C310 C306 1.323 . S
C310 C309 1.433 1_554 S
C310 H319 0.933 . S
C311 Dy281 2.738 . S
C311 O291 1.255 . S
C311 O292 1.249 . S
C311 C305 1.516 . S
H312 C298 0.930 . S
H313 C299 0.931 . S
H314 C300 0.931 . S
H315 C301 0.933 . S
H316 C307 0.930 . S
H317 C308 0.931 . S
H318 C309 0.931 . S
H319 C310 0.933 . S
Dy320 O323 2.307 . S
Dy320 O325 2.395 . S
Dy320 O326 2.379 . S
Dy320 O328 2.339 . S
Dy320 O330 2.298 . S
Dy320 O334 2.275 . S
Dy320 C342 2.738 . S
Dy321 O324 2.298 . S
Dy321 O327 2.275 1_554 S
Dy321 O329 2.307 1_554 S
Dy321 O331 2.395 . S
Dy321 O332 2.379 . S
Dy321 O335 2.339 1_554 S
Dy321 C351 2.738 . S
C322 O334 1.254 . S
C322 O335 1.257 . S
O323 Dy320 2.307 . S
O323 C333 1.266 . S
O324 Dy321 2.298 . S
O324 C333 1.236 1_554 S
O325 Dy320 2.395 . S
O325 C342 1.255 . S
O326 Dy320 2.379 . S
O326 C342 1.249 . S
O327 Dy321 2.275 1_556 S
O327 C343 1.254 . S
O328 Dy320 2.339 . S
O328 C343 1.257 . S
O329 Dy321 2.307 1_556 S
O329 C344 1.266 . S
O330 Dy320 2.298 . S
O330 C344 1.236 . S
O331 Dy321 2.395 . S
O331 C351 1.255 . S
O332 Dy321 2.379 . S
O332 C351 1.249 . S
C333 O323 1.266 . S
C333 O324 1.236 1_556 S
O334 Dy320 2.275 . S
O334 C322 1.254 . S
O335 Dy321 2.339 1_556 S
O335 C322 1.257 . S
C336 C339 1.344 . S
C336 C340 1.328 . S
C336 C342 1.516 . S
C337 C338 1.304 . S
C337 C341 1.323 . S
C338 C337 1.304 . S
C338 C339 1.371 . S
C338 H352 0.930 . S
C339 C336 1.344 . S
C339 C338 1.371 . S
C339 H353 0.931 . S
C340 C336 1.328 . S
C340 C341 1.433 . S
C340 H354 0.931 . S
C341 C337 1.323 . S
C341 C340 1.433 . S
C341 H355 0.933 . S
C342 Dy320 2.738 . S
C342 O325 1.255 . S
C342 O326 1.249 . S
C342 C336 1.516 . S
C343 O327 1.254 . S
C343 O328 1.257 . S
C344 O329 1.266 . S
C344 O330 1.236 . S
C345 C348 1.344 . S
C345 C349 1.328 . S
C345 C351 1.516 . S
C346 C347 1.304 . S
C346 C350 1.323 . S
C347 C346 1.304 . S
C347 C348 1.371 . S
C347 H356 0.930 . S
C348 C345 1.344 . S
C348 C347 1.371 . S
C348 H357 0.931 . S
C349 C345 1.328 . S
C349 C350 1.433 . S
C349 H358 0.931 . S
C350 C346 1.323 . S
C350 C349 1.433 . S
C350 H359 0.933 . S
C351 Dy321 2.738 . S
C351 O331 1.255 . S
C351 O332 1.249 . S
C351 C345 1.516 . S
H352 C338 0.930 . S
H353 C339 0.931 . S
H354 C340 0.931 . S
H355 C341 0.933 . S
H356 C347 0.930 . S
H357 C348 0.931 . S
H358 C349 0.931 . S
H359 C350 0.933 . S
Dy360 O363 2.307 . S
Dy360 O365 2.395 . S
Dy360 O366 2.379 . S
Dy360 O368 2.339 . S
Dy360 O370 2.298 . S
Dy360 O374 2.275 . S
Dy360 C382 2.738 . S
Dy361 O364 2.298 . S
Dy361 O367 2.275 . S
Dy361 O369 2.307 . S
Dy361 O371 2.395 . S
Dy361 O372 2.379 . S
Dy361 O375 2.339 1_545 S
Dy361 C391 2.738 . S
C362 O374 1.254 1_565 S
C362 O375 1.257 . S
O363 Dy360 2.307 . S
O363 C373 1.266 . S
O364 Dy361 2.298 . S
O364 C373 1.236 . S
O365 Dy360 2.395 . S
O365 C382 1.255 . S
O366 Dy360 2.379 . S
O366 C382 1.249 . S
O367 Dy361 2.275 . S
O367 C383 1.254 . S
O368 Dy360 2.339 . S
O368 C383 1.257 . S
O369 Dy361 2.307 . S
O369 C384 1.266 . S
O370 Dy360 2.298 . S
O370 C384 1.236 . S
O371 Dy361 2.395 . S
O371 C391 1.255 . S
O372 Dy361 2.379 . S
O372 C391 1.249 . S
C373 O363 1.266 . S
C373 O364 1.236 . S
O374 Dy360 2.275 . S
O374 C362 1.254 1_545 S
O375 Dy361 2.339 1_565 S
O375 C362 1.257 . S
C376 C379 1.344 . S
C376 C380 1.328 . S
C376 C382 1.516 . S
C377 C378 1.304 . S
C377 C381 1.323 . S
C378 C377 1.304 . S
C378 C379 1.371 . S
C378 H392 0.930 . S
C379 C376 1.344 . S
C379 C378 1.371 . S
C379 H393 0.931 . S
C380 C376 1.328 . S
C380 C381 1.433 . S
C380 H394 0.931 . S
C381 C377 1.323 . S
C381 C380 1.433 . S
C381 H395 0.933 . S
C382 Dy360 2.738 . S
C382 O365 1.255 . S
C382 O366 1.249 . S
C382 C376 1.516 . S
C383 O367 1.254 . S
C383 O368 1.257 . S
C384 O369 1.266 . S
C384 O370 1.236 . S
C385 C388 1.344 . S
C385 C389 1.328 1_556 S
C385 C391 1.516 . S
C386 C387 1.304 . S
C386 C390 1.323 . S
C387 C386 1.304 . S
C387 C388 1.371 1_554 S
C387 H396 0.930 . S
C388 C385 1.344 . S
C388 C387 1.371 1_556 S
C388 H397 0.931 . S
C389 C385 1.328 1_554 S
C389 C390 1.433 . S
C389 H398 0.937 1_554 S
C390 C386 1.323 . S
C390 C389 1.433 . S
C390 H399 0.933 . S
C391 Dy361 2.738 . S
C391 O371 1.255 . S
C391 O372 1.249 . S
C391 C385 1.516 . S
H392 C378 0.930 . S
H393 C379 0.931 . S
H394 C380 0.931 . S
H395 C381 0.933 . S
H396 C387 0.930 . S
H397 C388 0.931 . S
H398 C389 0.937 1_556 S
H399 C390 0.933 . S
Dy400 O403 2.307 . S
Dy400 O405 2.395 . S
Dy400 O406 2.379 . S
Dy400 O408 2.339 . S
Dy400 O410 2.298 . S
Dy400 O414 2.275 . S
Dy400 C422 2.738 . S
Dy401 O404 2.298 . S
Dy401 O407 2.275 . S
Dy401 O409 2.307 . S
Dy401 O411 2.395 . S
Dy401 O412 2.379 . S
Dy401 O415 2.339 . S
Dy401 C431 2.738 . S
C402 O414 1.254 . S
C402 O415 1.257 . S
O403 Dy400 2.307 . S
O403 C413 1.266 . S
O404 Dy401 2.298 . S
O404 C413 1.236 . S
O405 Dy400 2.395 . S
O405 C422 1.255 . S
O406 Dy400 2.379 . S
O406 C422 1.249 . S
O407 Dy401 2.275 . S
O407 C423 1.254 . S
O408 Dy400 2.339 . S
O408 C423 1.257 . S
O409 Dy401 2.307 . S
O409 C424 1.266 . S
O410 Dy400 2.298 . S
O410 C424 1.236 . S
O411 Dy401 2.395 . S
O411 C431 1.255 . S
O412 Dy401 2.379 . S
O412 C431 1.249 . S
C413 O403 1.266 . S
C413 O404 1.236 . S
O414 Dy400 2.275 . S
O414 C402 1.254 . S
O415 Dy401 2.339 . S
O415 C402 1.257 . S
C416 C419 1.344 . S
C416 C420 1.328 . S
C416 C422 1.516 . S
C417 C418 1.304 . S
C417 C421 1.323 . S
C418 C417 1.304 . S
C418 C419 1.371 1_556 S
C418 H432 0.930 . S
C419 C416 1.344 . S
C419 C418 1.371 1_554 S
C419 H433 0.931 . S
C420 C416 1.328 . S
C420 C421 1.433 1_554 S
C420 H434 0.931 . S
C421 C417 1.323 . S
C421 C420 1.433 1_556 S
C421 H435 0.933 . S
C422 Dy400 2.738 . S
C422 O405 1.255 . S
C422 O406 1.249 . S
C422 C416 1.516 . S
C423 O407 1.254 . S
C423 O408 1.257 . S
C424 O409 1.266 . S
C424 O410 1.236 . S
C425 C428 1.344 . S
C425 C429 1.328 . S
C425 C431 1.516 . S
C426 C427 1.304 . S
C426 C430 1.323 . S
C427 C426 1.304 . S
C427 C428 1.371 . S
C427 H436 0.930 . S
C428 C425 1.344 . S
C428 C427 1.371 . S
C428 H437 0.931 . S
C429 C425 1.328 . S
C429 C430 1.433 . S
C429 H438 0.931 . S
C430 C426 1.323 . S
C430 C429 1.433 . S
C430 H439 0.933 . S
C431 Dy401 2.738 . S
C431 O411 1.255 . S
C431 O412 1.249 . S
C431 C425 1.516 . S
H432 C418 0.930 . S
H433 C419 0.931 . S
H434 C420 0.931 . S
H435 C421 0.933 . S
H436 C427 0.930 . S
H437 C428 0.931 . S
H438 C429 0.931 . S
H439 C430 0.933 . S
Dy440 O443 2.307 . S
Dy440 O445 2.395 1_554 S
Dy440 O446 2.379 1_554 S
Dy440 O448 2.339 . S
Dy440 O450 2.298 . S
Dy440 O454 2.275 . S
Dy440 C462 2.738 1_554 S
Dy441 O444 2.298 . S
Dy441 O447 2.275 . S
Dy441 O449 2.307 . S
Dy441 O451 2.395 . S
Dy441 O452 2.379 . S
Dy441 O455 2.328 1_565 S
Dy441 C471 2.738 . S
C442 O454 1.254 . S
C442 O455 1.256 1_565 S
O443 Dy440 2.307 . S
O443 C453 1.266 . S
O444 Dy441 2.298 . S
O444 C453 1.236 . S
O445 Dy440 2.395 1_556 S
O445 C462 1.255 . S
O446 Dy440 2.379 1_556 S
O446 C462 1.249 . S
O447 Dy441 2.275 . S
O447 C463 1.254 . S
O448 Dy440 2.339 . S
O448 C463 1.257 . S
O449 Dy441 2.307 . S
O449 C464 1.266 . S
O450 Dy440 2.298 . S
O450 C464 1.236 . S
O451 Dy441 2.395 . S
O451 C471 1.255 . S
O452 Dy441 2.379 . S
O452 C471 1.249 . S
C453 O443 1.266 . S
C453 O444 1.236 . S
O454 Dy440 2.275 . S
O454 C442 1.254 . S
O455 Dy441 2.328 1_545 S
O455 C442 1.256 1_545 S
C456 C459 1.344 . S
C456 C460 1.328 . S
C456 C462 1.516 . S
C457 C458 1.304 . S
C457 C461 1.323 . S
C458 C457 1.304 . S
C458 C459 1.371 . S
C458 H472 0.930 . S
C459 C456 1.344 . S
C459 C458 1.371 . S
C459 H473 0.931 . S
C460 C456 1.328 . S
C460 C461 1.433 . S
C460 H474 0.931 . S
C461 C457 1.323 . S
C461 C460 1.433 . S
C461 H475 0.933 . S
C462 Dy440 2.738 1_556 S
C462 O445 1.255 . S
C462 O446 1.249 . S
C462 C456 1.516 . S
C463 O447 1.254 . S
C463 O448 1.257 . S
C464 O449 1.266 . S
C464 O450 1.236 . S
C465 C468 1.344 . S
C465 C469 1.328 . S
C465 C471 1.516 . S
C466 C467 1.304 . S
C466 C470 1.323 . S
C467 C466 1.304 . S
C467 C468 1.371 . S
C467 H476 0.930 . S
C468 C465 1.344 . S
C468 C467 1.371 . S
C468 H477 0.931 . S
C469 C465 1.328 . S
C469 C470 1.433 . S
C469 H478 0.931 . S
C470 C466 1.323 . S
C470 C469 1.433 . S
C470 H479 0.933 . S
C471 Dy441 2.738 . S
C471 O451 1.255 . S
C471 O452 1.249 . S
C471 C465 1.516 . S
H472 C458 0.930 . S
H473 C459 0.931 . S
H474 C460 0.931 . S
H475 C461 0.933 . S
H476 C467 0.930 . S
H477 C468 0.931 . S
H478 C469 0.931 . S
H479 C470 0.933 . S
Dy480 O483 2.307 . S
Dy480 O485 2.395 1_554 S
Dy480 O486 2.379 1_554 S
Dy480 O488 2.339 . S
Dy480 O490 2.298 . S
Dy480 O494 2.275 . S
Dy480 C502 2.738 1_554 S
Dy481 O484 2.298 . S
Dy481 O487 2.275 . S
Dy481 O489 2.307 . S
Dy481 O491 2.395 . S
Dy481 O492 2.379 . S
Dy481 O495 2.339 . S
Dy481 C511 2.738 . S
C482 O494 1.254 . S
C482 O495 1.257 . S
O483 Dy480 2.307 . S
O483 C493 1.266 . S
O484 Dy481 2.298 . S
O484 C493 1.236 . S
O485 Dy480 2.395 1_556 S
O485 C502 1.255 . S
O486 Dy480 2.379 1_556 S
O486 C502 1.249 . S
O487 Dy481 2.275 . S
O487 C503 1.254 . S
O488 Dy480 2.339 . S
O488 C503 1.257 . S
O489 Dy481 2.307 . S
O489 C504 1.266 . S
O490 Dy480 2.298 . S
O490 C504 1.236 . S
O491 Dy481 2.395 . S
O491 C511 1.255 . S
O492 Dy481 2.379 . S
O492 C511 1.249 . S
C493 O483 1.266 . S
C493 O484 1.236 . S
O494 Dy480 2.275 . S
O494 C482 1.254 . S
O495 Dy481 2.339 . S
O495 C482 1.257 . S
C496 C499 1.344 . S
C496 C500 1.328 . S
C496 C502 1.516 . S
C497 C498 1.304 . S
C497 C501 1.323 . S
C498 C497 1.304 . S
C498 C499 1.371 . S
C498 H512 0.930 . S
C499 C496 1.344 . S
C499 C498 1.371 . S
C499 H513 0.931 . S
C500 C496 1.328 . S
C500 C501 1.433 . S
C500 H514 0.931 . S
C501 C497 1.323 . S
C501 C500 1.433 . S
C501 H515 0.933 . S
C502 Dy480 2.738 1_556 S
C502 O485 1.255 . S
C502 O486 1.249 . S
C502 C496 1.516 . S
C503 O487 1.254 . S
C503 O488 1.257 . S
C504 O489 1.266 . S
C504 O490 1.236 . S
C505 C508 1.344 . S
C505 C509 1.328 . S
C505 C511 1.516 . S
C506 C507 1.304 . S
C506 C510 1.323 . S
C507 C506 1.304 . S
C507 C508 1.371 . S
C507 H516 0.930 . S
C508 C505 1.344 . S
C508 C507 1.371 . S
C508 H517 0.931 . S
C509 C505 1.328 . S
C509 C510 1.433 . S
C509 H518 0.931 . S
C510 C506 1.323 . S
C510 C509 1.433 . S
C510 H519 0.933 . S
C511 Dy481 2.738 . S
C511 O491 1.255 . S
C511 O492 1.249 . S
C511 C505 1.516 . S
H512 C498 0.930 . S
H513 C499 0.931 . S
H514 C500 0.931 . S
H515 C501 0.933 . S
H516 C507 0.930 . S
H517 C508 0.931 . S
H518 C509 0.931 . S
H519 C510 0.933 . S
Dy520 O523 2.307 1_554 S
Dy520 O525 2.395 . S
Dy520 O526 2.379 . S
Dy520 O528 2.339 1_554 S
Dy520 O530 2.298 1_554 S
Dy520 O534 2.275 1_554 S
Dy520 C542 2.738 . S
Dy521 O524 2.298 . S
Dy521 O527 2.275 . S
Dy521 O529 2.307 . S
Dy521 O531 2.395 . S
Dy521 O532 2.379 . S
Dy521 O535 2.339 . S
Dy521 C551 2.738 . S
C522 O534 1.254 . S
C522 O535 1.257 . S
O523 Dy520 2.307 1_556 S
O523 C533 1.266 . S
O524 Dy521 2.298 . S
O524 C533 1.236 . S
O525 Dy520 2.395 . S
O525 C542 1.255 . S
O526 Dy520 2.379 . S
O526 C542 1.249 . S
O527 Dy521 2.275 . S
O527 C543 1.254 . S
O528 Dy520 2.339 1_556 S
O528 C543 1.257 . S
O529 Dy521 2.307 . S
O529 C544 1.266 . S
O530 Dy520 2.298 1_556 S
O530 C544 1.236 . S
O531 Dy521 2.395 . S
O531 C551 1.255 . S
O532 Dy521 2.379 . S
O532 C551 1.249 . S
C533 O523 1.266 . S
C533 O524 1.236 . S
O534 Dy520 2.275 1_556 S
O534 C522 1.254 . S
O535 Dy521 2.339 . S
O535 C522 1.257 . S
C536 C539 1.344 . S
C536 C540 1.328 . S
C536 C542 1.516 . S
C537 C538 1.304 . S
C537 C541 1.323 . S
C538 C537 1.304 . S
C538 C539 1.371 . S
C538 H552 0.930 . S
C539 C536 1.344 . S
C539 C538 1.371 . S
C539 H553 0.931 . S
C540 C536 1.328 . S
C540 C541 1.433 . S
C540 H554 0.931 . S
C541 C537 1.323 . S
C541 C540 1.433 . S
C541 H555 0.933 . S
C542 Dy520 2.738 . S
C542 O525 1.255 . S
C542 O526 1.249 . S
C542 C536 1.516 . S
C543 O527 1.254 . S
C543 O528 1.257 . S
C544 O529 1.266 . S
C544 O530 1.236 . S
C545 C548 1.344 . S
C545 C549 1.328 . S
C545 C551 1.516 . S
C546 C547 1.304 . S
C546 C550 1.323 . S
C547 C546 1.304 . S
C547 C548 1.371 . S
C547 H556 0.930 . S
C548 C545 1.344 . S
C548 C547 1.371 . S
C548 H557 0.931 . S
C549 C545 1.328 . S
C549 C550 1.433 . S
C549 H558 0.931 . S
C550 C546 1.323 . S
C550 C549 1.433 . S
C550 H559 0.933 . S
C551 Dy521 2.738 . S
C551 O531 1.255 . S
C551 O532 1.249 . S
C551 C545 1.516 . S
H552 C538 0.930 . S
H553 C539 0.931 . S
H554 C540 0.931 . S
H555 C541 0.933 . S
H556 C547 0.930 . S
H557 C548 0.931 . S
H558 C549 0.931 . S
H559 C550 0.933 . S
Dy560 O563 2.307 . S
Dy560 O565 2.395 . S
Dy560 O566 2.379 . S
Dy560 O568 2.339 . S
Dy560 O570 2.298 . S
Dy560 O574 2.275 . S
Dy560 C582 2.738 . S
Dy561 O564 2.298 . S
Dy561 O567 2.275 . S
Dy561 O569 2.307 . S
Dy561 O571 2.395 . S
Dy561 O572 2.379 . S
Dy561 O575 2.339 . S
Dy561 C591 2.738 . S
C562 O574 1.254 . S
C562 O575 1.257 . S
O563 Dy560 2.307 . S
O563 C573 1.266 . S
O564 Dy561 2.298 . S
O564 C573 1.236 . S
O565 Dy560 2.395 . S
O565 C582 1.255 . S
O566 Dy560 2.379 . S
O566 C582 1.249 . S
O567 Dy561 2.275 . S
O567 C583 1.254 . S
O568 Dy560 2.339 . S
O568 C583 1.257 . S
O569 Dy561 2.307 . S
O569 C584 1.266 . S
O570 Dy560 2.298 . S
O570 C584 1.236 . S
O571 Dy561 2.395 . S
O571 C591 1.255 . S
O572 Dy561 2.379 . S
O572 C591 1.249 . S
C573 O563 1.266 . S
C573 O564 1.236 . S
O574 Dy560 2.275 . S
O574 C562 1.254 . S
O575 Dy561 2.339 . S
O575 C562 1.257 . S
C576 C579 1.344 . S
C576 C580 1.328 . S
C576 C582 1.516 . S
C577 C578 1.304 . S
C577 C581 1.323 . S
C578 C577 1.304 . S
C578 C579 1.371 . S
C578 H592 0.930 . S
C579 C576 1.344 . S
C579 C578 1.371 . S
C579 H593 0.931 . S
C580 C576 1.328 . S
C580 C581 1.433 . S
C580 H594 0.931 . S
C581 C577 1.323 . S
C581 C580 1.433 . S
C581 H595 0.933 . S
C582 Dy560 2.738 . S
C582 O565 1.255 . S
C582 O566 1.249 . S
C582 C576 1.516 . S
C583 O567 1.254 . S
C583 O568 1.257 . S
C584 O569 1.266 . S
C584 O570 1.236 . S
C585 C588 1.344 1_556 S
C585 C589 1.328 1_556 S
C585 C591 1.516 . S
C586 C587 1.304 . S
C586 C590 1.323 . S
C587 C586 1.304 . S
C587 C588 1.371 . S
C587 H596 0.930 . S
C588 C585 1.344 1_554 S
C588 C587 1.371 . S
C588 H597 0.931 1_554 S
C589 C585 1.328 1_554 S
C589 C590 1.433 . S
C589 H598 0.931 1_554 S
C590 C586 1.323 . S
C590 C589 1.433 . S
C590 H599 0.933 . S
C591 Dy561 2.738 . S
C591 O571 1.255 . S
C591 O572 1.249 . S
C591 C585 1.516 . S
H592 C578 0.930 . S
H593 C579 0.931 . S
H594 C580 0.931 . S
H595 C581 0.933 . S
H596 C587 0.930 . S
H597 C588 0.931 1_556 S
H598 C589 0.931 1_556 S
H599 C590 0.933 . S
Dy600 O603 2.307 . S
Dy600 O605 2.395 . S
Dy600 O606 2.379 . S
Dy600 O608 2.339 . S
Dy600 O610 2.298 . S
Dy600 O614 2.275 . S
Dy600 C622 2.738 . S
Dy601 O604 2.298 . S
Dy601 O607 2.275 . S
Dy601 O609 2.307 . S
Dy601 O611 2.395 . S
Dy601 O612 2.379 . S
Dy601 O615 2.339 . S
Dy601 C631 2.738 . S
C602 O614 1.254 . S
C602 O615 1.257 . S
O603 Dy600 2.307 . S
O603 C613 1.266 . S
O604 Dy601 2.298 . S
O604 C613 1.236 . S
O605 Dy600 2.395 . S
O605 C622 1.255 . S
O606 Dy600 2.379 . S
O606 C622 1.249 . S
O607 Dy601 2.275 . S
O607 C623 1.254 . S
O608 Dy600 2.339 . S
O608 C623 1.257 . S
O609 Dy601 2.307 . S
O609 C624 1.266 . S
O610 Dy600 2.298 . S
O610 C624 1.236 . S
O611 Dy601 2.395 . S
O611 C631 1.255 . S
O612 Dy601 2.379 . S
O612 C631 1.249 . S
C613 O603 1.266 . S
C613 O604 1.236 . S
O614 Dy600 2.275 . S
O614 C602 1.254 . S
O615 Dy601 2.339 . S
O615 C602 1.257 . S
C616 C619 1.344 . S
C616 C620 1.328 . S
C616 C622 1.516 . S
C617 C618 1.304 . S
C617 C621 1.323 . S
C618 C617 1.304 . S
C618 C619 1.371 1_556 S
C618 H632 0.930 . S
C619 C616 1.344 . S
C619 C618 1.371 1_554 S
C619 H633 0.931 . S
C620 C616 1.328 . S
C620 C621 1.433 1_554 S
C620 H634 0.931 . S
C621 C617 1.323 . S
C621 C620 1.433 1_556 S
C621 H635 0.933 . S
C622 Dy600 2.738 . S
C622 O605 1.255 . S
C622 O606 1.249 . S
C622 C616 1.516 . S
C623 O607 1.254 . S
C623 O608 1.257 . S
C624 O609 1.266 . S
C624 O610 1.236 . S
C625 C628 1.344 . S
C625 C629 1.328 . S
C625 C631 1.516 . S
C626 C627 1.304 . S
C626 C630 1.323 . S
C627 C626 1.304 . S
C627 C628 1.371 . S
C627 H636 0.930 . S
C628 C625 1.344 . S
C628 C627 1.371 . S
C628 H637 0.931 . S
C629 C625 1.328 . S
C629 C630 1.433 . S
C629 H638 0.931 . S
C630 C626 1.323 . S
C630 C629 1.433 . S
C630 H639 0.933 . S
C631 Dy601 2.738 . S
C631 O611 1.255 . S
C631 O612 1.249 . S
C631 C625 1.516 . S
H632 C618 0.930 . S
H633 C619 0.931 . S
H634 C620 0.931 . S
H635 C621 0.933 . S
H636 C627 0.930 . S
H637 C628 0.931 . S
H638 C629 0.931 . S
H639 C630 0.933 . S
C17 C26 1.644 . S
C57 C66 1.723 . S
C97 C106 2.096 . S
C137 C146 1.671 . S
C186 C177 1.539 . S
C226 C217 2.156 . S
C266 C257 1.609 . S
C306 C297 1.684 . S
C346 C337 1.644 . S
C377 C386 1.723 . S
C417 C426 2.096 . S
C466 C457 1.671 . S
C497 C506 1.539 . S
C546 C537 2.156 . S
C577 C586 1.609 . S
C617 C626 1.684 . S
C13 C463 1.750 . S
C53 C623 1.935 . S
C93 C383 1.908 . S
C133 C544 2.193 1_655 S
C162 C543 1.719 . S
C464 C213 2.193 1_455 S
C242 C624 1.846 . S
C282 C384 1.935 . S
C122 C344 1.750 . S
C42 C424 1.908 . S
C503 C202 1.719 . S
C293 C583 1.846 . S
C343 C173 1.944 1_655 S
C253 C423 1.883 . S
C82 C584 1.883 . S
C2 C504 1.944 1_455 S
C24 C183 3.045 1_554 S
C64 C224 2.883 . S
C104 C263 3.164 . S
C144 C303 3.387 . S
C482 C333 3.045 1_554 S
C533 C373 2.883 . S
C413 C562 3.164 . S
C602 C453 3.387 . S
C63 C304 3.267 . S
C184 C103 3.610 . S
C223 C143 3.209 1_564 S
C23 C264 3.101 . S
C613 C362 3.267 . S
C493 C402 3.610 . S
C522 C442 3.209 1_546 S
C573 C322 3.101 . S
