# Generated by pormake.
# Topology tzs, (4)-cn, num edge types: 1
# Building blocks:
#     Node 0, Type 0, BuildingBlock: UXUYUI_clean_sbu_0, # of connection points: 4
#     Node 1, Type 0, BuildingBlock: UXUYUI_clean_sbu_0, # of connection points: 4
#     Node 2, Type 0, BuildingBlock: UXUYUI_clean_sbu_0, # of connection points: 4
#     Node 3, Type 0, BuildingBlock: UXUYUI_clean_sbu_0, # of connection points: 4
#     Node 4, Type 0, BuildingBlock: UXUYUI_clean_sbu_0, # of connection points: 4
#     Node 5, Type 0, BuildingBlock: UXUYUI_clean_sbu_0, # of connection points: 4
#     Node 6, Type 0, BuildingBlock: UXUYUI_clean_sbu_0, # of connection points: 4
#     Node 7, Type 0, BuildingBlock: UXUYUI_clean_sbu_0, # of connection points: 4
#     Node 8, Type 0, BuildingBlock: UXUYUI_clean_sbu_0, # of connection points: 4
#     Node 9, Type 0, BuildingBlock: UXUYUI_clean_sbu_0, # of connection points: 4
#     Node 10, Type 0, BuildingBlock: UXUYUI_clean_sbu_0, # of connection points: 4
#     Node 11, Type 0, BuildingBlock: UXUYUI_clean_sbu_0, # of connection points: 4
#     Node 12, Type 0, BuildingBlock: UXUYUI_clean_sbu_0, # of connection points: 4
#     Node 13, Type 0, BuildingBlock: UXUYUI_clean_sbu_0, # of connection points: 4
#     Node 14, Type 0, BuildingBlock: UXUYUI_clean_sbu_0, # of connection points: 4
#     Node 15, Type 0, BuildingBlock: UXUYUI_clean_sbu_0, # of connection points: 4
#     Edge 16, Type (0, 0), BuildingBlock: EZIPEK_clean_linker_0, # of connection points: 2
#     Edge 17, Type (0, 0), BuildingBlock: EZIPEK_clean_linker_0, # of connection points: 2
#     Edge 18, Type (0, 0), BuildingBlock: EZIPEK_clean_linker_0, # of connection points: 2
#     Edge 19, Type (0, 0), BuildingBlock: EZIPEK_clean_linker_0, # of connection points: 2
#     Edge 20, Type (0, 0), BuildingBlock: EZIPEK_clean_linker_0, # of connection points: 2
#     Edge 21, Type (0, 0), BuildingBlock: EZIPEK_clean_linker_0, # of connection points: 2
#     Edge 22, Type (0, 0), BuildingBlock: EZIPEK_clean_linker_0, # of connection points: 2
#     Edge 23, Type (0, 0), BuildingBlock: EZIPEK_clean_linker_0, # of connection points: 2
#     Edge 24, Type (0, 0), BuildingBlock: EZIPEK_clean_linker_0, # of connection points: 2
#     Edge 25, Type (0, 0), BuildingBlock: EZIPEK_clean_linker_0, # of connection points: 2
#     Edge 26, Type (0, 0), BuildingBlock: EZIPEK_clean_linker_0, # of connection points: 2
#     Edge 27, Type (0, 0), BuildingBlock: EZIPEK_clean_linker_0, # of connection points: 2
#     Edge 28, Type (0, 0), BuildingBlock: EZIPEK_clean_linker_0, # of connection points: 2
#     Edge 29, Type (0, 0), BuildingBlock: EZIPEK_clean_linker_0, # of connection points: 2
#     Edge 30, Type (0, 0), BuildingBlock: EZIPEK_clean_linker_0, # of connection points: 2
#     Edge 31, Type (0, 0), BuildingBlock: EZIPEK_clean_linker_0, # of connection points: 2
#     Edge 32, Type (0, 0), BuildingBlock: EZIPEK_clean_linker_0, # of connection points: 2
#     Edge 33, Type (0, 0), BuildingBlock: EZIPEK_clean_linker_0, # of connection points: 2
#     Edge 34, Type (0, 0), BuildingBlock: EZIPEK_clean_linker_0, # of connection points: 2
#     Edge 35, Type (0, 0), BuildingBlock: EZIPEK_clean_linker_0, # of connection points: 2
#     Edge 36, Type (0, 0), BuildingBlock: EZIPEK_clean_linker_0, # of connection points: 2
#     Edge 37, Type (0, 0), BuildingBlock: EZIPEK_clean_linker_0, # of connection points: 2
#     Edge 38, Type (0, 0), BuildingBlock: EZIPEK_clean_linker_0, # of connection points: 2
#     Edge 39, Type (0, 0), BuildingBlock: EZIPEK_clean_linker_0, # of connection points: 2
#     Edge 40, Type (0, 0), BuildingBlock: EZIPEK_clean_linker_0, # of connection points: 2
#     Edge 41, Type (0, 0), BuildingBlock: EZIPEK_clean_linker_0, # of connection points: 2
#     Edge 42, Type (0, 0), BuildingBlock: EZIPEK_clean_linker_0, # of connection points: 2
#     Edge 43, Type (0, 0), BuildingBlock: EZIPEK_clean_linker_0, # of connection points: 2
#     Edge 44, Type (0, 0), BuildingBlock: EZIPEK_clean_linker_0, # of connection points: 2
#     Edge 45, Type (0, 0), BuildingBlock: EZIPEK_clean_linker_0, # of connection points: 2
#     Edge 46, Type (0, 0), BuildingBlock: EZIPEK_clean_linker_0, # of connection points: 2
#     Edge 47, Type (0, 0), BuildingBlock: EZIPEK_clean_linker_0, # of connection points: 2
# Relax obj value: 0.120
# Max RMSD: 0.120
# Mean RMSD: 0.120
data_MOF--net-tzs--node1-UXUYUI_clean_sbu_0--edge1-EZIPEK_clean_linker_0
_symmetry_space_group_name_H-M    P1
_symmetry_Int_Tables_number       1
_symmetry_cell_setting            triclinic
loop_
_symmetry_equiv_pos_as_xyz
'x, y, z'
_cell_length_a     57.460481
_cell_length_b     57.508197
_cell_length_c     49.366128
_cell_angle_alpha  89.98838
_cell_angle_beta   90.000286
_cell_angle_gamma 89.996509
loop_
_atom_site_label
_atom_site_type_symbol
_atom_site_fract_x
_atom_site_fract_y
_atom_site_fract_z
_atom_type_partial_charge
Li0 Li 0.16588 0.33956 0.20412 0.0
Li1 Li 0.15362 0.38029 0.20125 0.0
Li2 Li 0.12473 0.34753 0.20348 0.0
Li3 Li 0.14684 0.3545 0.1615 0.0
C4 C 0.15764 0.35191 0.25505 0.0
N5 N 0.17909 0.33945 0.30302 0.0
C6 C 0.17154 0.36793 0.26889 0.0
C7 C 0.15439 0.32965 0.26581 0.0
C8 C 0.18227 0.36128 0.29308 0.0
C9 C 0.16548 0.32365 0.29001 0.0
C10 C 0.19369 0.37817 0.16743 0.0
C11 C 0.20593 0.40577 0.13344 0.0
N12 N 0.22746 0.40646 0.14484 0.0
C13 C 0.21607 0.37889 0.17852 0.0
C14 C 0.18869 0.39151 0.14447 0.0
C15 C 0.23284 0.39341 0.16694 0.0
C16 C 0.18933 0.29658 0.21538 0.0
N17 N 0.18992 0.32009 0.21847 0.0
C18 C 0.22512 0.31752 0.24408 0.0
C19 C 0.20738 0.33066 0.2324 0.0
C20 C 0.22489 0.29329 0.24129 0.0
C21 C 0.20682 0.2827 0.22674 0.0
H22 H 0.17524 0.28861 0.2042 0.0
H23 H 0.20733 0.34933 0.23478 0.0
C24 C 0.13994 0.42462 0.21812 0.0
N25 N 0.15911 0.4113 0.2136 0.0
C26 C 0.14222 0.44716 0.2282 0.0
C27 C 0.18392 0.44168 0.22983 0.0
C28 C 0.18085 0.4193 0.21931 0.0
C29 C 0.1644 0.45583 0.23429 0.0
H30 H 0.12282 0.41763 0.21416 0.0
H31 H 0.19575 0.40814 0.21644 0.0
C32 C 0.12533 0.30739 0.17867 0.0
N33 N 0.09084 0.27409 0.1748 0.0
C34 C 0.11199 0.3056 0.15509 0.0
C35 C 0.12131 0.29209 0.20017 0.0
C36 C 0.09461 0.28867 0.15354 0.0
C37 C 0.10373 0.27543 0.19786 0.0
C38 C 0.11435 0.39249 0.16436 0.0
C39 C 0.0905 0.3917 0.15881 0.0
C40 C 0.12765 0.41094 0.15436 0.0
C41 C 0.08048 0.40908 0.14282 0.0
C42 C 0.117 0.428 0.13847 0.0
N43 N 0.09384 0.4267 0.13303 0.0
C44 C 0.09171 0.33946 0.24495 0.0
C45 C 0.07641 0.3369 0.20044 0.0
C46 C 0.06949 0.33681 0.25602 0.0
N47 N 0.0947 0.33978 0.21762 0.0
C48 C 0.05386 0.33439 0.21064 0.0
C49 C 0.05025 0.33479 0.23872 0.0
H50 H 0.10642 0.34216 0.25818 0.0
H51 H 0.07921 0.33741 0.17881 0.0
C52 C 0.16616 0.34479 0.11018 0.0
N53 N 0.14663 0.35279 0.12268 0.0
C54 C 0.16735 0.34389 0.08191 0.0
C55 C 0.12817 0.35911 0.07986 0.0
C56 C 0.12768 0.35955 0.10815 0.0
C57 C 0.14824 0.35134 0.0665 0.0
H58 H 0.18092 0.33935 0.12222 0.0
H59 H 0.11213 0.36523 0.11842 0.0
O60 O 0.1474 0.35794 0.23103 0.0
O61 O 0.17712 0.36383 0.17842 0.0
O62 O 0.14212 0.32414 0.18077 0.0
O63 O 0.12441 0.37557 0.18001 0.0
H64 H 0.17414 0.38526 0.26097 0.0
H65 H 0.14366 0.31707 0.25541 0.0
H66 H 0.19319 0.37346 0.30392 0.0
H67 H 0.1633 0.30641 0.29842 0.0
H68 H 0.20222 0.41621 0.11572 0.0
H69 H 0.22049 0.36845 0.19595 0.0
H70 H 0.17178 0.39072 0.13499 0.0
H71 H 0.25015 0.39425 0.17548 0.0
H72 H 0.23885 0.32613 0.25528 0.0
H73 H 0.20626 0.264 0.2243 0.0
H74 H 0.12681 0.45759 0.2317 0.0
H75 H 0.20124 0.44782 0.23468 0.0
H76 H 0.11489 0.31728 0.13825 0.0
H77 H 0.13154 0.29317 0.2185 0.0
H78 H 0.08406 0.28717 0.13548 0.0
H79 H 0.10031 0.26358 0.2144 0.0
H80 H 0.07981 0.37779 0.16664 0.0
H81 H 0.14589 0.41238 0.15922 0.0
H82 H 0.06208 0.40857 0.13823 0.0
H83 H 0.12713 0.44235 0.13061 0.0
H84 H 0.0672 0.33731 0.27779 0.0
H85 H 0.0393 0.33296 0.19679 0.0
H86 H 0.18305 0.33769 0.07214 0.0
H87 H 0.11308 0.36479 0.06849 0.0
Li88 Li 0.62538 0.15251 0.19521 0.0
Li89 Li 0.66771 0.16448 0.19866 0.0
Li90 Li 0.64996 0.14695 0.15633 0.0
Li91 Li 0.65606 0.1237 0.19548 0.0
C92 C 0.62812 0.19593 0.17728 0.0
N93 N 0.5987 0.23352 0.18404 0.0
C94 C 0.63483 0.21466 0.19356 0.0
C95 C 0.60653 0.19645 0.16423 0.0
C96 C 0.6197 0.23348 0.19675 0.0
C97 C 0.59187 0.21556 0.16798 0.0
C98 C 0.64845 0.13424 0.24747 0.0
C99 C 0.66802 0.12005 0.28738 0.0
N100 N 0.6488 0.10742 0.29387 0.0
C101 C 0.62887 0.12116 0.25453 0.0
C102 C 0.66818 0.13375 0.26401 0.0
C103 C 0.6294 0.10769 0.27807 0.0
C104 C 0.57788 0.14306 0.20319 0.0
N105 N 0.59495 0.15863 0.20907 0.0
C106 C 0.56902 0.18019 0.23749 0.0
C107 C 0.59104 0.17685 0.22607 0.0
C108 C 0.5512 0.16423 0.23186 0.0
C109 C 0.55574 0.14556 0.21441 0.0
H110 H 0.58161 0.12833 0.19033 0.0
H111 H 0.6051 0.18858 0.23107 0.0
C112 C 0.70633 0.19487 0.19719 0.0
N113 N 0.68897 0.18655 0.21322 0.0
C114 C 0.72224 0.21101 0.20741 0.0
C115 C 0.70178 0.21011 0.25024 0.0
C116 C 0.68636 0.19385 0.23925 0.0
C117 C 0.71997 0.21874 0.23421 0.0
H118 H 0.70786 0.18883 0.17651 0.0
H119 H 0.67222 0.18713 0.25141 0.0
C120 C 0.61937 0.11514 0.14926 0.0
N121 N 0.60319 0.0974 0.10076 0.0
C122 C 0.62915 0.0949 0.13844 0.0
C123 C 0.60127 0.12626 0.13547 0.0
C124 C 0.62073 0.08622 0.11389 0.0
C125 C 0.59337 0.11705 0.11095 0.0
C126 C 0.69907 0.12526 0.17623 0.0
C127 C 0.69882 0.10384 0.16286 0.0
C128 C 0.71836 0.13141 0.19195 0.0
C129 C 0.71783 0.08886 0.16553 0.0
C130 C 0.73706 0.11598 0.19404 0.0
N131 N 0.7364 0.09519 0.18093 0.0
C132 C 0.63949 0.16652 0.10489 0.0
C133 C 0.66191 0.13197 0.10282 0.0
C134 C 0.63892 0.16789 0.07663 0.0
N135 N 0.65071 0.14865 0.11739 0.0
C136 C 0.6617 0.13261 0.07453 0.0
C137 C 0.65005 0.15071 0.06124 0.0
H138 H 0.63088 0.17967 0.11683 0.0
H139 H 0.67075 0.11799 0.11311 0.0
C140 C 0.64538 0.07712 0.20731 0.0
N141 N 0.66246 0.0933 0.21021 0.0
C142 C 0.64774 0.05512 0.2189 0.0
C143 C 0.68513 0.06679 0.23675 0.0
C144 C 0.682 0.08863 0.22487 0.0
C145 C 0.66779 0.04985 0.23379 0.0
H146 H 0.62961 0.08146 0.19651 0.0
H147 H 0.69492 0.102 0.22793 0.0
O148 O 0.64264 0.17725 0.17409 0.0
O149 O 0.6484 0.14724 0.2243 0.0
O150 O 0.62777 0.12426 0.17294 0.0
O151 O 0.68064 0.14021 0.17386 0.0
H152 H 0.65151 0.21469 0.20366 0.0
H153 H 0.60099 0.18212 0.15162 0.0
H154 H 0.62465 0.24804 0.20936 0.0
H155 H 0.57504 0.21608 0.15819 0.0
H156 H 0.6832 0.11939 0.30031 0.0
H157 H 0.61352 0.12125 0.24184 0.0
H158 H 0.68356 0.14361 0.25866 0.0
H159 H 0.61442 0.09738 0.28373 0.0
H160 H 0.56604 0.1947 0.25104 0.0
H161 H 0.54236 0.13287 0.20987 0.0
H162 H 0.7361 0.21748 0.19459 0.0
H163 H 0.6996 0.21588 0.27097 0.0
H164 H 0.64326 0.08612 0.14869 0.0
H165 H 0.59353 0.14194 0.14349 0.0
H166 H 0.62822 0.07065 0.10522 0.0
H167 H 0.57948 0.12558 0.09998 0.0
H168 H 0.68394 0.09859 0.15099 0.0
H169 H 0.71885 0.14779 0.20263 0.0
H170 H 0.71776 0.07215 0.15546 0.0
H171 H 0.75206 0.12049 0.2062 0.0
H172 H 0.62984 0.18211 0.06686 0.0
H173 H 0.67048 0.11912 0.06311 0.0
H174 H 0.63393 0.04244 0.21664 0.0
H175 H 0.70064 0.06327 0.24853 0.0
Li176 Li 0.84108 0.66726 0.19998 0.0
Li177 Li 0.85088 0.62734 0.19754 0.0
Li178 Li 0.88194 0.65583 0.20162 0.0
Li179 Li 0.8575 0.65171 0.15787 0.0
C180 C 0.84311 0.6458 0.24995 0.0
N181 N 0.81419 0.63998 0.29415 0.0
C182 C 0.82049 0.63743 0.24643 0.0
C183 C 0.85104 0.65121 0.27596 0.0
C184 C 0.80613 0.6346 0.26901 0.0
C185 C 0.83615 0.64815 0.29805 0.0
C186 C 0.81024 0.63104 0.16407 0.0
C187 C 0.79625 0.60501 0.12936 0.0
N188 N 0.77488 0.60502 0.1412 0.0
C189 C 0.78806 0.63098 0.17571 0.0
C190 C 0.81433 0.6181 0.14057 0.0
C191 C 0.77045 0.61763 0.16393 0.0
C192 C 0.79984 0.69406 0.1987 0.0
N193 N 0.81926 0.68946 0.21351 0.0
C194 C 0.80736 0.71635 0.24774 0.0
C195 C 0.82336 0.70031 0.23753 0.0
C196 C 0.78716 0.72128 0.23291 0.0
C197 C 0.78344 0.71009 0.20808 0.0
H198 H 0.79715 0.6853 0.17957 0.0
H199 H 0.83909 0.69654 0.24872 0.0
C200 C 0.85596 0.59017 0.23322 0.0
N201 N 0.84428 0.59629 0.21031 0.0
C202 C 0.85368 0.56787 0.24401 0.0
C203 C 0.8273 0.55834 0.20755 0.0
C204 C 0.8301 0.58088 0.19742 0.0
C205 C 0.83931 0.55171 0.23102 0.0
H206 H 0.86748 0.60253 0.24284 0.0
H207 H 0.82127 0.58577 0.17907 0.0
C208 C 0.8633 0.7034 0.18197 0.0
N209 N 0.85271 0.74956 0.19119 0.0
C210 C 0.84804 0.71513 0.16468 0.0
C211 C 0.87332 0.71514 0.20383 0.0
C212 C 0.84285 0.73846 0.16973 0.0
C213 C 0.86773 0.73849 0.20816 0.0
C214 C 0.88702 0.60701 0.17461 0.0
C215 C 0.90254 0.59879 0.1942 0.0
C216 C 0.87863 0.59187 0.15474 0.0
C217 C 0.90922 0.57544 0.19376 0.0
C218 C 0.88573 0.56863 0.15499 0.0
N219 N 0.90074 0.56097 0.17433 0.0
C220 C 0.91688 0.6521 0.24091 0.0
C221 C 0.92847 0.67271 0.20151 0.0
C222 C 0.93925 0.65392 0.25174 0.0
N223 N 0.91203 0.66123 0.21614 0.0
C224 C 0.95111 0.67497 0.21161 0.0
C225 C 0.95664 0.66525 0.23686 0.0
H226 H 0.9035 0.64283 0.25191 0.0
H227 H 0.92411 0.67967 0.18179 0.0
C228 C 0.84033 0.66462 0.10629 0.0
N229 N 0.85819 0.65388 0.11936 0.0
C230 C 0.83997 0.66564 0.078 0.0
C231 C 0.87646 0.64467 0.07719 0.0
C232 C 0.87613 0.64407 0.10549 0.0
C233 C 0.85816 0.65547 0.06322 0.0
H234 H 0.82621 0.67211 0.11787 0.0
H235 H 0.89006 0.6356 0.11644 0.0
O236 O 0.85744 0.64897 0.22811 0.0
O237 O 0.82751 0.64445 0.17505 0.0
O238 O 0.86791 0.68034 0.17801 0.0
O239 O 0.87992 0.62971 0.17506 0.0
H240 H 0.81413 0.6331 0.2265 0.0
H241 H 0.86848 0.65783 0.27902 0.0
H242 H 0.78859 0.62812 0.26656 0.0
H243 H 0.84204 0.6523 0.31829 0.0
H244 H 0.79923 0.59482 0.11127 0.0
H245 H 0.78441 0.64125 0.19358 0.0
H246 H 0.83128 0.61794 0.13117 0.0
H247 H 0.75324 0.61736 0.1728 0.0
H248 H 0.81068 0.72485 0.26694 0.0
H249 H 0.76799 0.71365 0.19621 0.0
H250 H 0.86332 0.56315 0.26205 0.0
H251 H 0.81621 0.5461 0.197 0.0
H252 H 0.84005 0.70621 0.14777 0.0
H253 H 0.88506 0.70623 0.21749 0.0
H254 H 0.83092 0.74773 0.15666 0.0
H255 H 0.87523 0.74778 0.22509 0.0
H256 H 0.90917 0.61026 0.20974 0.0
H257 H 0.86672 0.59795 0.13935 0.0
H258 H 0.9211 0.5688 0.2089 0.0
H259 H 0.87928 0.55669 0.13982 0.0
H260 H 0.9431 0.64613 0.27121 0.0
H261 H 0.96428 0.6837 0.19965 0.0
H262 H 0.82561 0.67406 0.06772 0.0
H263 H 0.89072 0.63665 0.06627 0.0
Li264 Li 0.38108 0.85593 0.20206 0.0
Li265 Li 0.33919 0.84619 0.20154 0.0
Li266 Li 0.35845 0.86131 0.16099 0.0
Li267 Li 0.35222 0.88595 0.19909 0.0
C268 C 0.36885 0.80964 0.18955 0.0
N269 N 0.37626 0.76518 0.20894 0.0
C270 C 0.37052 0.80566 0.21744 0.0
C271 C 0.37093 0.79101 0.17155 0.0
C272 C 0.37426 0.78305 0.22683 0.0
C273 C 0.3747 0.76866 0.18175 0.0
C274 C 0.34764 0.87556 0.25054 0.0
C275 C 0.3144 0.8925 0.27297 0.0
N276 N 0.32871 0.90136 0.29232 0.0
C277 C 0.36201 0.88478 0.27071 0.0
C278 C 0.32363 0.8794 0.2517 0.0
C279 C 0.35211 0.89781 0.29163 0.0
C280 C 0.42043 0.86525 0.23304 0.0
N281 N 0.41132 0.84906 0.21603 0.0
C282 C 0.44647 0.82679 0.21795 0.0
C283 C 0.42387 0.83013 0.20818 0.0
C284 C 0.45608 0.84317 0.23576 0.0
C285 C 0.44287 0.86255 0.24339 0.0
H286 H 0.41043 0.88056 0.23805 0.0
H287 H 0.4166 0.81789 0.1939 0.0
C288 C 0.30406 0.81215 0.19611 0.0
N289 N 0.31664 0.8245 0.21448 0.0
C290 C 0.28816 0.79533 0.20482 0.0
C291 C 0.2982 0.80455 0.25116 0.0
C292 C 0.3142 0.82086 0.24156 0.0
C293 C 0.28507 0.79149 0.23267 0.0
H294 H 0.30664 0.81518 0.17469 0.0
H295 H 0.32487 0.83038 0.25575 0.0
C296 C 0.40149 0.88334 0.16347 0.0
N297 N 0.44314 0.8836 0.13549 0.0
C298 C 0.41436 0.90387 0.1612 0.0
C299 C 0.40983 0.86293 0.15152 0.0
C300 C 0.43537 0.90365 0.14696 0.0
C301 C 0.43091 0.86342 0.13746 0.0
C302 C 0.31739 0.8862 0.15936 0.0
C303 C 0.32974 0.90535 0.14947 0.0
C304 C 0.29438 0.88266 0.1512 0.0
C305 C 0.31883 0.92066 0.13155 0.0
C306 C 0.28408 0.89837 0.13324 0.0
N307 N 0.29642 0.91689 0.12387 0.0
C308 C 0.35035 0.8401 0.11015 0.0
C309 C 0.36691 0.8778 0.10736 0.0
C310 C 0.34996 0.83831 0.0819 0.0
N311 N 0.35876 0.85962 0.12225 0.0
C312 C 0.36693 0.87672 0.0791 0.0
C313 C 0.35835 0.8568 0.06614 0.0
H314 H 0.34386 0.82597 0.12249 0.0
H315 H 0.37334 0.89322 0.1174 0.0
C316 C 0.36557 0.92919 0.21921 0.0
N317 N 0.34648 0.91698 0.2113 0.0
C318 C 0.36316 0.95146 0.23004 0.0
C319 C 0.32147 0.94831 0.22425 0.0
C320 C 0.32468 0.92606 0.21346 0.0
C321 C 0.34091 0.96114 0.23273 0.0
H322 H 0.38264 0.92138 0.21753 0.0
H323 H 0.30978 0.91584 0.20735 0.0
O324 O 0.36474 0.83152 0.17978 0.0
O325 O 0.357 0.86324 0.22946 0.0
O326 O 0.3811 0.88334 0.17779 0.0
O327 O 0.3277 0.87073 0.17667 0.0
H328 H 0.36895 0.81982 0.23171 0.0
H329 H 0.3696 0.79381 0.14992 0.0
H330 H 0.37557 0.77972 0.24834 0.0
H331 H 0.37634 0.75408 0.16805 0.0
H332 H 0.29588 0.89572 0.274 0.0
H333 H 0.38058 0.88191 0.27028 0.0
H334 H 0.31228 0.87265 0.23607 0.0
H335 H 0.36303 0.90511 0.30732 0.0
H336 H 0.45646 0.81183 0.21146 0.0
H337 H 0.45003 0.87564 0.25679 0.0
H338 H 0.2784 0.78538 0.19005 0.0
H339 H 0.29635 0.80184 0.27277 0.0
H340 H 0.40817 0.91979 0.17042 0.0
H341 H 0.4002 0.84684 0.15307 0.0
H342 H 0.44551 0.91941 0.14505 0.0
H343 H 0.43756 0.84775 0.12813 0.0
H344 H 0.34757 0.90838 0.1555 0.0
H345 H 0.28461 0.86787 0.15862 0.0
H346 H 0.3282 0.93553 0.12373 0.0
H347 H 0.26628 0.89584 0.12673 0.0
H348 H 0.34318 0.82274 0.07241 0.0
H349 H 0.37345 0.89128 0.06744 0.0
H350 H 0.37845 0.96095 0.23656 0.0
H351 H 0.30407 0.95535 0.22627 0.0
Li352 Li 0.12752 0.65549 0.3083 0.0
Li353 Li 0.1518 0.64916 0.35028 0.0
Li354 Li 0.16795 0.66622 0.30647 0.0
Li355 Li 0.15754 0.62592 0.30921 0.0
C356 C 0.12598 0.69457 0.33516 0.0
N357 N 0.08887 0.72451 0.34209 0.0
C358 C 0.1131 0.6941 0.35917 0.0
C359 C 0.12014 0.71039 0.31478 0.0
C360 C 0.09437 0.70937 0.36227 0.0
C361 C 0.10126 0.72533 0.31863 0.0
C362 C 0.12084 0.6062 0.3322 0.0
C363 C 0.12027 0.56698 0.34941 0.0
N364 N 0.10473 0.56101 0.32982 0.0
C365 C 0.10486 0.59971 0.31225 0.0
C366 C 0.12862 0.58975 0.35096 0.0
C367 C 0.09693 0.57676 0.31137 0.0
C368 C 0.0925 0.66423 0.26921 0.0
N369 N 0.09654 0.66163 0.29618 0.0
C370 C 0.05573 0.66333 0.30556 0.0
C371 C 0.07875 0.6612 0.31437 0.0
C372 C 0.05115 0.66567 0.2778 0.0
C373 C 0.06978 0.66637 0.25952 0.0
H374 H 0.10683 0.66385 0.25509 0.0
H375 H 0.08242 0.65851 0.33563 0.0
C376 C 0.16938 0.66226 0.40163 0.0
N377 N 0.15247 0.64988 0.38883 0.0
C378 C 0.17016 0.66303 0.42993 0.0
C379 C 0.13608 0.63837 0.43129 0.0
C380 C 0.1359 0.63814 0.40299 0.0
C381 C 0.15339 0.65091 0.445 0.0
H382 H 0.18227 0.67149 0.38981 0.0
H383 H 0.1225 0.62868 0.39228 0.0
C384 C 0.15929 0.65541 0.25585 0.0
N385 N 0.17883 0.67156 0.20826 0.0
C386 C 0.17479 0.64145 0.24128 0.0
C387 C 0.15366 0.67755 0.24612 0.0
C388 C 0.18447 0.64993 0.21726 0.0
C389 C 0.16376 0.68542 0.22207 0.0
C390 C 0.20007 0.62779 0.33366 0.0
C391 C 0.21317 0.62173 0.31088 0.0
C392 C 0.2061 0.61882 0.35903 0.0
C393 C 0.23209 0.60669 0.31384 0.0
C394 C 0.22518 0.60386 0.36116 0.0
N395 N 0.23766 0.59815 0.33871 0.0
C396 C 0.18734 0.7113 0.30091 0.0
C397 C 0.20737 0.68219 0.2762 0.0
C398 C 0.2027 0.72831 0.29143 0.0
N399 N 0.18984 0.68875 0.29309 0.0
C400 C 0.22282 0.69867 0.26583 0.0
C401 C 0.22058 0.72203 0.27351 0.0
H402 H 0.17343 0.71607 0.31456 0.0
H403 H 0.20929 0.6642 0.27051 0.0
C404 C 0.15274 0.58889 0.27305 0.0
N405 N 0.1632 0.59466 0.29684 0.0
C406 C 0.15421 0.56625 0.26302 0.0
C407 C 0.1773 0.55574 0.30208 0.0
C408 C 0.17504 0.57852 0.3116 0.0
C409 C 0.1666 0.54942 0.27762 0.0
H410 H 0.14277 0.6018 0.26214 0.0
H411 H 0.18223 0.58306 0.33107 0.0
O412 O 0.144 0.67936 0.33147 0.0
O413 O 0.12914 0.62846 0.33306 0.0
O414 O 0.14977 0.64752 0.27955 0.0
O415 O 0.18153 0.64254 0.33127 0.0
H416 H 0.11736 0.68194 0.37513 0.0
H417 H 0.12997 0.71101 0.29611 0.0
H418 H 0.08417 0.70912 0.38068 0.0
H419 H 0.09643 0.73756 0.30295 0.0
H420 H 0.12623 0.55401 0.36369 0.0
H421 H 0.09881 0.6122 0.29744 0.0
H422 H 0.14121 0.59446 0.36634 0.0
H423 H 0.08463 0.57146 0.29598 0.0
H424 H 0.04163 0.66247 0.32008 0.0
H425 H 0.0667 0.66789 0.23794 0.0
H426 H 0.18369 0.6729 0.43999 0.0
H427 H 0.12285 0.62893 0.4424 0.0
H428 H 0.17959 0.6244 0.2486 0.0
H429 H 0.14182 0.68865 0.25719 0.0
H430 H 0.19657 0.63935 0.20587 0.0
H431 H 0.15969 0.70257 0.21443 0.0
H432 H 0.20848 0.62815 0.29105 0.0
H433 H 0.19611 0.6233 0.37686 0.0
H434 H 0.24228 0.60172 0.29636 0.0
H435 H 0.23003 0.59676 0.38065 0.0
H436 H 0.2006 0.7462 0.29785 0.0
H437 H 0.23648 0.69326 0.25209 0.0
H438 H 0.14555 0.56183 0.24423 0.0
H439 H 0.18672 0.54303 0.31398 0.0
Li440 Li 0.35172 0.12756 0.31508 0.0
Li441 Li 0.35937 0.15164 0.35454 0.0
Li442 Li 0.34272 0.17002 0.31368 0.0
Li443 Li 0.384 0.15753 0.31553 0.0
C444 C 0.30634 0.13986 0.32873 0.0
N445 N 0.26185 0.12933 0.31138 0.0
C446 C 0.28933 0.13316 0.34741 0.0
C447 C 0.30067 0.14132 0.30126 0.0
C448 C 0.26695 0.12787 0.33823 0.0
C449 C 0.2781 0.1359 0.29288 0.0
C450 C 0.38819 0.11736 0.35965 0.0
C451 C 0.41513 0.11376 0.39683 0.0
N452 N 0.40251 0.0956 0.40663 0.0
C453 C 0.37554 0.09859 0.36996 0.0
C454 C 0.4082 0.12497 0.37305 0.0
C455 C 0.38305 0.08784 0.3938 0.0
C456 C 0.36177 0.08877 0.28444 0.0
N457 N 0.34515 0.09736 0.30128 0.0
C458 C 0.32297 0.06233 0.29725 0.0
C459 C 0.32601 0.08465 0.30798 0.0
C460 C 0.33991 0.05316 0.27979 0.0
C461 C 0.35945 0.0666 0.27332 0.0
H462 H 0.37689 0.09922 0.27971 0.0
H463 H 0.31325 0.09166 0.32181 0.0
C464 C 0.37457 0.16389 0.40768 0.0
N465 N 0.35875 0.15127 0.3934 0.0
C466 C 0.37472 0.16315 0.43596 0.0
C467 C 0.342 0.13676 0.43445 0.0
C468 C 0.34263 0.13783 0.40616 0.0
C469 C 0.35825 0.1495 0.44959 0.0
H470 H 0.38722 0.17437 0.39716 0.0
H471 H 0.33041 0.12778 0.39432 0.0
C472 C 0.36005 0.15239 0.25979 0.0
N473 N 0.36018 0.15469 0.20384 0.0
C474 C 0.37359 0.16903 0.24648 0.0
C475 C 0.34659 0.13688 0.2446 0.0
C476 C 0.37341 0.16994 0.2182 0.0
C477 C 0.34688 0.13833 0.21635 0.0
C478 C 0.38238 0.20056 0.33756 0.0
C479 C 0.37559 0.22107 0.32457 0.0
C480 C 0.40407 0.19945 0.35034 0.0
C481 C 0.39066 0.24013 0.32452 0.0
C482 C 0.41865 0.21888 0.34982 0.0
N483 N 0.4117 0.23864 0.33702 0.0
C484 C 0.30478 0.20089 0.31757 0.0
C485 C 0.32424 0.20286 0.2756 0.0
C486 C 0.29021 0.21928 0.31008 0.0
N487 N 0.32188 0.19354 0.30068 0.0
C488 C 0.31011 0.22132 0.26741 0.0
C489 C 0.29401 0.23156 0.28559 0.0
H490 H 0.30244 0.19245 0.33696 0.0
H491 H 0.33721 0.19615 0.26192 0.0
C492 C 0.42889 0.1434 0.30169 0.0
N493 N 0.41484 0.16243 0.30172 0.0
C494 C 0.45131 0.14466 0.29088 0.0
C495 C 0.44461 0.1852 0.28056 0.0
C496 C 0.42221 0.18309 0.29129 0.0
C497 C 0.4593 0.16574 0.28009 0.0
H498 H 0.42254 0.1271 0.30972 0.0
H499 H 0.41064 0.19788 0.29089 0.0
O500 O 0.32836 0.14496 0.33747 0.0
O501 O 0.38063 0.12863 0.33693 0.0
O502 O 0.36034 0.15094 0.2875 0.0
O503 O 0.36775 0.1818 0.33798 0.0
H504 H 0.29338 0.13202 0.36877 0.0
H505 H 0.31348 0.14671 0.28658 0.0
H506 H 0.25363 0.12261 0.35245 0.0
H507 H 0.2735 0.13696 0.27166 0.0
H508 H 0.4305 0.11955 0.40754 0.0
H509 H 0.35993 0.0926 0.35986 0.0
H510 H 0.4181 0.13955 0.36533 0.0
H511 H 0.37336 0.0734 0.40215 0.0
H512 H 0.30775 0.05224 0.30267 0.0
H513 H 0.37283 0.05992 0.25996 0.0
H514 H 0.38749 0.17316 0.44711 0.0
H515 H 0.32909 0.12603 0.44443 0.0
H516 H 0.38382 0.18137 0.25784 0.0
H517 H 0.336 0.12383 0.25444 0.0
H518 H 0.38375 0.1828 0.20768 0.0
H519 H 0.33654 0.12644 0.20437 0.0
H520 H 0.35884 0.2223 0.31469 0.0
H521 H 0.40985 0.18358 0.35998 0.0
H522 H 0.38563 0.2561 0.31453 0.0
H523 H 0.43556 0.21819 0.35943 0.0
H524 H 0.276 0.22313 0.32358 0.0
H525 H 0.31194 0.22708 0.24672 0.0
H526 H 0.46225 0.12932 0.29072 0.0
H527 H 0.4503 0.20169 0.27227 0.0
Li528 Li 0.87983 0.35358 0.30874 0.0
Li529 Li 0.85549 0.35955 0.34894 0.0
Li530 Li 0.83751 0.34282 0.30767 0.0
Li531 Li 0.84916 0.38333 0.31064 0.0
C532 C 0.86825 0.30755 0.32273 0.0
N533 N 0.87754 0.26258 0.30633 0.0
C534 C 0.86813 0.28943 0.34158 0.0
C535 C 0.8731 0.30282 0.29554 0.0
C536 C 0.87287 0.2668 0.33289 0.0
C537 C 0.87775 0.27996 0.28765 0.0
C538 C 0.88821 0.39012 0.35478 0.0
C539 C 0.88745 0.41586 0.39335 0.0
N540 N 0.90786 0.40656 0.40214 0.0
C541 C 0.90926 0.38094 0.36409 0.0
C542 C 0.87728 0.40784 0.36939 0.0
C543 C 0.91889 0.38944 0.38812 0.0
C544 C 0.91683 0.3534 0.27111 0.0
N545 N 0.91027 0.34571 0.296 0.0
C546 C 0.94811 0.32956 0.30362 0.0
C547 C 0.9252 0.33355 0.31206 0.0
C548 C 0.95547 0.33816 0.27845 0.0
C549 C 0.93952 0.34987 0.26191 0.0
H550 H 0.90459 0.36262 0.25857 0.0
H551 H 0.91946 0.32744 0.33169 0.0
C552 C 0.83908 0.36894 0.40216 0.0
N553 N 0.85586 0.35783 0.38767 0.0
C554 C 0.8395 0.36849 0.43045 0.0
C555 C 0.87428 0.34486 0.42844 0.0
C556 C 0.87318 0.34576 0.40015 0.0
C557 C 0.85731 0.35641 0.4438 0.0
H558 H 0.82541 0.37822 0.39178 0.0
H559 H 0.88625 0.33701 0.3881 0.0
C560 C 0.84706 0.37235 0.25859 0.0
N561 N 0.82967 0.39652 0.21455 0.0
C562 C 0.82397 0.36924 0.25041 0.0
C563 C 0.86117 0.38812 0.24459 0.0
C564 C 0.81553 0.38154 0.22808 0.0
C565 C 0.85211 0.40002 0.22227 0.0
C566 C 0.8061 0.38134 0.33077 0.0
C567 C 0.78699 0.37524 0.31475 0.0
C568 C 0.80579 0.40229 0.34515 0.0
C569 C 0.76795 0.39031 0.31322 0.0
C570 C 0.78646 0.4169 0.34303 0.0
N571 N 0.7681 0.41066 0.32724 0.0
C572 C 0.79951 0.31172 0.31165 0.0
C573 C 0.81885 0.31108 0.26919 0.0
C574 C 0.7837 0.2949 0.30275 0.0
N575 N 0.81644 0.31964 0.29474 0.0
C576 C 0.80333 0.29438 0.25941 0.0
C577 C 0.78548 0.28627 0.27628 0.0
H578 H 0.7982 0.31864 0.33196 0.0
H579 H 0.83269 0.31741 0.25631 0.0
C580 C 0.86086 0.43004 0.30126 0.0
N581 N 0.84311 0.41462 0.29811 0.0
C582 C 0.8591 0.45253 0.29084 0.0
C583 C 0.82073 0.4431 0.2741 0.0
C584 C 0.82323 0.42075 0.28485 0.0
C585 C 0.83892 0.45914 0.27693 0.0
H586 H 0.8767 0.4247 0.31126 0.0
H587 H 0.80954 0.40818 0.2819 0.0
O588 O 0.86338 0.32973 0.33095 0.0
O589 O 0.87815 0.38156 0.33172 0.0
O590 O 0.85565 0.36037 0.28043 0.0
O591 O 0.82483 0.36672 0.33268 0.0
H592 H 0.86436 0.29283 0.36271 0.0
H593 H 0.87319 0.31661 0.28064 0.0
H594 H 0.87281 0.25259 0.34725 0.0
H595 H 0.8815 0.27605 0.26667 0.0
H596 H 0.87909 0.42944 0.40497 0.0
H597 H 0.91797 0.36727 0.35304 0.0
H598 H 0.86105 0.41521 0.36241 0.0
H599 H 0.93509 0.38239 0.39565 0.0
H600 H 0.96011 0.32046 0.31681 0.0
H601 H 0.94474 0.35667 0.24237 0.0
H602 H 0.82614 0.37749 0.44182 0.0
H603 H 0.8882 0.33535 0.43824 0.0
H604 H 0.81248 0.3578 0.26143 0.0
H605 H 0.87879 0.39152 0.25109 0.0
H606 H 0.79768 0.37929 0.22162 0.0
H607 H 0.8629 0.41214 0.21117 0.0
H608 H 0.78686 0.35913 0.30349 0.0
H609 H 0.82043 0.40736 0.35756 0.0
H610 H 0.75309 0.38584 0.30082 0.0
H611 H 0.78607 0.43323 0.35389 0.0
H612 H 0.7701 0.28884 0.31621 0.0
H613 H 0.80517 0.28789 0.23893 0.0
H614 H 0.87351 0.46452 0.29309 0.0
H615 H 0.80503 0.44768 0.26317 0.0
Li616 Li 0.65619 0.88244 0.31327 0.0
Li617 Li 0.64922 0.85734 0.35268 0.0
Li618 Li 0.66611 0.84048 0.31014 0.0
Li619 Li 0.62477 0.85171 0.31336 0.0
C620 C 0.70133 0.87403 0.33196 0.0
N621 N 0.74524 0.89297 0.32593 0.0
C622 C 0.7124 0.8846 0.35396 0.0
C623 C 0.71272 0.87286 0.307 0.0
C624 C 0.73456 0.89415 0.35048 0.0
C625 C 0.73488 0.88258 0.30432 0.0
C626 C 0.61936 0.8917 0.35803 0.0
C627 C 0.59397 0.89352 0.39687 0.0
N628 N 0.60368 0.9142 0.40398 0.0
C629 C 0.62896 0.91306 0.36558 0.0
C630 C 0.60157 0.88193 0.37363 0.0
C631 C 0.62083 0.92414 0.38892 0.0
C632 C 0.64987 0.91993 0.27863 0.0
N633 N 0.66273 0.913 0.3003 0.0
C634 C 0.68129 0.9502 0.30254 0.0
C635 C 0.67822 0.92759 0.3124 0.0
C636 C 0.66819 0.95766 0.28022 0.0
C637 C 0.65244 0.94229 0.26809 0.0
H638 H 0.6374 0.90811 0.26971 0.0
H639 H 0.68779 0.92193 0.33002 0.0
C640 C 0.64115 0.83792 0.40483 0.0
N641 N 0.65006 0.85659 0.39147 0.0
C642 C 0.64096 0.83738 0.43313 0.0
C643 C 0.65943 0.87516 0.43345 0.0
C644 C 0.65923 0.87498 0.40515 0.0
C645 C 0.65014 0.8562 0.44766 0.0
H646 H 0.63415 0.82344 0.39354 0.0
H647 H 0.66616 0.88962 0.39406 0.0
C648 C 0.65292 0.85783 0.25782 0.0
N649 N 0.66335 0.85438 0.20329 0.0
C650 C 0.63974 0.84338 0.241 0.0
C651 C 0.67112 0.87088 0.24675 0.0
C652 C 0.64537 0.84176 0.21353 0.0
C653 C 0.67619 0.86881 0.21919 0.0
C654 C 0.6266 0.80897 0.334 0.0
C655 C 0.63198 0.78904 0.31905 0.0
C656 C 0.60564 0.81005 0.34834 0.0
C657 C 0.61614 0.77062 0.31842 0.0
C658 C 0.59024 0.79128 0.34715 0.0
N659 N 0.59576 0.77212 0.33232 0.0
C660 C 0.70823 0.81496 0.30892 0.0
C661 C 0.68257 0.80627 0.27271 0.0
C662 C 0.72469 0.7993 0.29885 0.0
N663 N 0.68779 0.8184 0.29558 0.0
C664 C 0.69845 0.79032 0.26203 0.0
C665 C 0.7198 0.78687 0.27512 0.0
H666 H 0.71179 0.82441 0.32739 0.0
H667 H 0.66595 0.80869 0.26296 0.0
C668 C 0.57815 0.86332 0.30422 0.0
N669 N 0.59394 0.84604 0.3002 0.0
C670 C 0.55566 0.86139 0.29381 0.0
C671 C 0.56587 0.82375 0.27551 0.0
C672 C 0.58826 0.82648 0.28614 0.0
C673 C 0.54944 0.8415 0.27916 0.0
H674 H 0.58317 0.87884 0.31509 0.0
H675 H 0.60119 0.81315 0.28276 0.0
O676 O 0.67954 0.86477 0.33499 0.0
O677 O 0.62751 0.88029 0.33565 0.0
O678 O 0.64748 0.85977 0.28474 0.0
O679 O 0.64184 0.82724 0.33472 0.0
H680 H 0.70397 0.88549 0.37351 0.0
H681 H 0.70469 0.86426 0.28997 0.0
H682 H 0.74328 0.90248 0.3673 0.0
H683 H 0.74386 0.88178 0.28509 0.0
H684 H 0.58035 0.88606 0.40926 0.0
H685 H 0.64273 0.92087 0.35374 0.0
H686 H 0.59385 0.86549 0.36796 0.0
H687 H 0.62822 0.9406 0.39512 0.0
H688 H 0.69344 0.96183 0.31243 0.0
H689 H 0.64198 0.94769 0.25095 0.0
H690 H 0.63373 0.82249 0.4436 0.0
H691 H 0.66665 0.88992 0.44416 0.0
H692 H 0.62547 0.83333 0.24909 0.0
H693 H 0.68107 0.88273 0.25918 0.0
H694 H 0.63544 0.83047 0.20036 0.0
H695 H 0.69027 0.87877 0.21041 0.0
H696 H 0.6482 0.7878 0.30807 0.0
H697 H 0.60122 0.8253 0.36003 0.0
H698 H 0.62005 0.75512 0.30686 0.0
H699 H 0.57389 0.79196 0.35797 0.0
H700 H 0.74098 0.79679 0.30949 0.0
H701 H 0.69415 0.78075 0.24381 0.0
H702 H 0.54331 0.8754 0.29682 0.0
H703 H 0.56153 0.80825 0.26413 0.0
Li704 Li 0.85533 0.62629 0.81151 0.0
Li705 Li 0.86077 0.65204 0.85095 0.0
Li706 Li 0.84303 0.6666 0.80936 0.0
Li707 Li 0.88345 0.65726 0.81033 0.0
C708 C 0.81966 0.62693 0.85083 0.0
N709 N 0.79738 0.59678 0.88584 0.0
C710 C 0.83153 0.60775 0.86141 0.0
C711 C 0.79648 0.63079 0.85806 0.0
C712 C 0.81996 0.59271 0.87908 0.0
C713 C 0.78551 0.61534 0.87579 0.0
C714 C 0.90578 0.62853 0.84313 0.0
C715 C 0.93836 0.64454 0.86768 0.0
N716 N 0.9521 0.62711 0.85814 0.0
C717 C 0.92022 0.61077 0.83359 0.0
C718 C 0.91491 0.64556 0.86031 0.0
C719 C 0.94359 0.61036 0.8414 0.0
C720 C 0.8681 0.58448 0.78741 0.0
N721 N 0.8495 0.59556 0.79848 0.0
C722 C 0.82466 0.5635 0.78757 0.0
C723 C 0.82797 0.58568 0.79855 0.0
C724 C 0.84371 0.5516 0.77644 0.0
C725 C 0.86562 0.56229 0.77637 0.0
H726 H 0.88479 0.5931 0.78676 0.0
H727 H 0.8133 0.59511 0.80675 0.0
C728 C 0.85073 0.67221 0.90203 0.0
N729 N 0.86019 0.65334 0.8896 0.0
C730 C 0.84992 0.67341 0.93032 0.0
C731 C 0.86856 0.63574 0.9324 0.0
C732 C 0.869 0.63526 0.90412 0.0
C733 C 0.85893 0.65499 0.94572 0.0
H734 H 0.84379 0.68629 0.88995 0.0
H735 H 0.87635 0.62043 0.89372 0.0
C736 C 0.84713 0.6428 0.76037 0.0
N737 N 0.81949 0.6302 0.71698 0.0
C738 C 0.8566 0.64155 0.73435 0.0
C739 C 0.82359 0.63761 0.76435 0.0
C740 C 0.84234 0.63516 0.71267 0.0
C741 C 0.80992 0.63129 0.74215 0.0
C742 C 0.87188 0.70343 0.82194 0.0
C743 C 0.8759 0.70665 0.79425 0.0
C744 C 0.87196 0.72262 0.83929 0.0
C745 C 0.87993 0.72906 0.7844 0.0
C746 C 0.87607 0.74476 0.82865 0.0
N747 N 0.87992 0.74749 0.80165 0.0
C748 C 0.80293 0.69486 0.81248 0.0
C749 C 0.82196 0.6961 0.76987 0.0
C750 C 0.78625 0.71081 0.80352 0.0
N751 N 0.8203 0.68786 0.79564 0.0
C752 C 0.80558 0.71192 0.76003 0.0
C753 C 0.78754 0.71946 0.77699 0.0
H754 H 0.80215 0.68816 0.83294 0.0
H755 H 0.83608 0.69052 0.75696 0.0
C756 C 0.92114 0.65036 0.77588 0.0
N757 N 0.91372 0.66405 0.79659 0.0
C758 C 0.9436 0.6529 0.76557 0.0
C759 C 0.95029 0.68385 0.79783 0.0
C760 C 0.92768 0.68065 0.80763 0.0
C761 C 0.95844 0.66968 0.77674 0.0
H762 H 0.90971 0.63714 0.76776 0.0
H763 H 0.92144 0.69106 0.82435 0.0
O764 O 0.83066 0.64217 0.83382 0.0
O765 O 0.88303 0.62973 0.83501 0.0
O766 O 0.86106 0.6487 0.78178 0.0
O767 O 0.86756 0.68173 0.83213 0.0
H768 H 0.84947 0.60445 0.85606 0.0
H769 H 0.78708 0.6456 0.85009 0.0
H770 H 0.82893 0.5778 0.88742 0.0
H771 H 0.76756 0.61811 0.88157 0.0
H772 H 0.94567 0.65768 0.88084 0.0
H773 H 0.91352 0.59745 0.82027 0.0
H774 H 0.90412 0.65969 0.86749 0.0
H775 H 0.95498 0.59675 0.83411 0.0
H776 H 0.80748 0.55576 0.78759 0.0
H777 H 0.88057 0.55363 0.7676 0.0
H778 H 0.84235 0.68847 0.9401 0.0
H779 H 0.87561 0.62126 0.94379 0.0
H780 H 0.8748 0.64544 0.73097 0.0
H781 H 0.81592 0.63842 0.78431 0.0
H782 H 0.84945 0.63412 0.69241 0.0
H783 H 0.79169 0.62723 0.74493 0.0
H784 H 0.87589 0.69205 0.78048 0.0
H785 H 0.86882 0.72041 0.86077 0.0
H786 H 0.88304 0.73179 0.76302 0.0
H787 H 0.87616 0.75977 0.84185 0.0
H788 H 0.77254 0.71641 0.8171 0.0
H789 H 0.80706 0.71838 0.73948 0.0
H790 H 0.94949 0.64167 0.74934 0.0
H791 H 0.96145 0.69688 0.8069 0.0
Li792 Li 0.38029 0.84795 0.81144 0.0
Li793 Li 0.35818 0.85448 0.85365 0.0
Li794 Li 0.33998 0.83667 0.8121 0.0
Li795 Li 0.34902 0.87836 0.81303 0.0
C796 C 0.38329 0.80873 0.83775 0.0
N797 N 0.42036 0.77834 0.84177 0.0
C798 C 0.39634 0.80766 0.86161 0.0
C799 C 0.38894 0.7942 0.81603 0.0
C800 C 0.41504 0.7922 0.86323 0.0
C801 C 0.40781 0.77901 0.81843 0.0
C802 C 0.38797 0.89508 0.84724 0.0
C803 C 0.38368 0.93228 0.8693 0.0
N804 N 0.40703 0.93294 0.8737 0.0
C805 C 0.41197 0.89627 0.85173 0.0
C806 C 0.37374 0.91334 0.8559 0.0
C807 C 0.42125 0.91549 0.86526 0.0
C808 C 0.41322 0.84101 0.76965 0.0
N809 N 0.41061 0.84202 0.79701 0.0
C810 C 0.45172 0.83834 0.80336 0.0
C811 C 0.42925 0.84046 0.81391 0.0
C812 C 0.45488 0.83781 0.77521 0.0
C813 C 0.43534 0.83875 0.75824 0.0
H814 H 0.39819 0.8426 0.75665 0.0
H815 H 0.42672 0.84142 0.83558 0.0
C816 C 0.34057 0.84471 0.90569 0.0
N817 N 0.35912 0.85401 0.89242 0.0
C818 C 0.33996 0.84443 0.93399 0.0
C819 C 0.37774 0.86293 0.93451 0.0
C820 C 0.37766 0.86279 0.9062 0.0
C821 C 0.35866 0.85377 0.94863 0.0
H822 H 0.32613 0.83773 0.89423 0.0
H823 H 0.3924 0.86965 0.89527 0.0
C824 C 0.34511 0.849 0.76092 0.0
N825 N 0.32159 0.83526 0.71481 0.0
C826 C 0.32852 0.86366 0.7492 0.0
C827 C 0.3499 0.82745 0.74906 0.0
C828 C 0.31679 0.85637 0.72591 0.0
C829 C 0.33777 0.82079 0.7258 0.0
C830 C 0.30972 0.87396 0.84822 0.0
C831 C 0.28693 0.8722 0.83851 0.0
C832 C 0.31449 0.88875 0.87 0.0
C833 C 0.26941 0.88561 0.85038 0.0
C834 C 0.2965 0.90186 0.88133 0.0
N835 N 0.27452 0.90006 0.87135 0.0
C836 C 0.32227 0.79118 0.8028 0.0
C837 C 0.29849 0.82168 0.78611 0.0
C838 C 0.30689 0.77453 0.7925 0.0
N839 N 0.3179 0.81424 0.79928 0.0
C840 C 0.28266 0.80566 0.7755 0.0
C841 C 0.2869 0.78181 0.7786 0.0
H842 H 0.33777 0.7857 0.81342 0.0
H843 H 0.2955 0.84008 0.78339 0.0
C844 C 0.36043 0.91943 0.78754 0.0
N845 N 0.3421 0.90881 0.79981 0.0
C846 C 0.35817 0.94191 0.77727 0.0
C847 C 0.31806 0.94213 0.79209 0.0
C848 C 0.32108 0.91956 0.80208 0.0
C849 C 0.33683 0.95347 0.77964 0.0
H850 H 0.37689 0.91041 0.78593 0.0
H851 H 0.30668 0.91075 0.8116 0.0
O852 O 0.36519 0.82406 0.8356 0.0
O853 O 0.37866 0.87641 0.83383 0.0
O854 O 0.35648 0.85565 0.78399 0.0
O855 O 0.32704 0.86081 0.83688 0.0
H856 H 0.39218 0.81876 0.87862 0.0
H857 H 0.37905 0.79486 0.7974 0.0
H858 H 0.42537 0.79126 0.88152 0.0
H859 H 0.41251 0.76781 0.8017 0.0
H860 H 0.37283 0.94651 0.87608 0.0
H861 H 0.42333 0.8825 0.84493 0.0
H862 H 0.35527 0.91312 0.852 0.0
H863 H 0.43977 0.91655 0.86899 0.0
H864 H 0.46651 0.83772 0.81695 0.0
H865 H 0.43729 0.83849 0.73641 0.0
H866 H 0.32503 0.83717 0.94438 0.0
H867 H 0.39249 0.87013 0.9453 0.0
H868 H 0.32459 0.88038 0.75813 0.0
H869 H 0.36265 0.81588 0.75791 0.0
H870 H 0.30382 0.86748 0.7167 0.0
H871 H 0.34116 0.80409 0.71652 0.0
H872 H 0.28279 0.86067 0.82193 0.0
H873 H 0.33183 0.88999 0.87828 0.0
H874 H 0.25173 0.8845 0.84294 0.0
H875 H 0.3 0.91341 0.89815 0.0
H876 H 0.31059 0.75621 0.79518 0.0
H877 H 0.26738 0.81177 0.76479 0.0
H878 H 0.37294 0.95026 0.7677 0.0
H879 H 0.30135 0.95068 0.79408 0.0
Li880 Li 0.15471 0.37958 0.81139 0.0
Li881 Li 0.14857 0.35335 0.8541 0.0
Li882 Li 0.16475 0.33861 0.81128 0.0
Li883 Li 0.12529 0.34814 0.81313 0.0
C884 C 0.20092 0.35815 0.83562 0.0
N885 N 0.24731 0.34559 0.8353 0.0
C886 C 0.20858 0.33944 0.85133 0.0
C887 C 0.21686 0.37062 0.81993 0.0
C888 C 0.2321 0.3333 0.85081 0.0
C889 C 0.24026 0.36398 0.82003 0.0
C890 C 0.10484 0.38306 0.83975 0.0
C891 C 0.06851 0.3818 0.86417 0.0
N892 N 0.05878 0.396 0.84527 0.0
C893 C 0.0945 0.39766 0.82059 0.0
C894 C 0.09179 0.37508 0.86176 0.0
C895 C 0.07119 0.404 0.82373 0.0
C896 C 0.14795 0.41741 0.77702 0.0
N897 N 0.16064 0.41018 0.79868 0.0
C898 C 0.17985 0.44701 0.80123 0.0
C899 C 0.17642 0.42437 0.81087 0.0
C900 C 0.16667 0.45497 0.77916 0.0
C901 C 0.15065 0.43989 0.76691 0.0
H902 H 0.13559 0.40568 0.76771 0.0
H903 H 0.18618 0.41817 0.82816 0.0
C904 C 0.15772 0.33373 0.90571 0.0
N905 N 0.14968 0.35299 0.89271 0.0
C906 C 0.15823 0.33296 0.93401 0.0
C907 C 0.14226 0.37187 0.935 0.0
C908 C 0.14223 0.37196 0.90668 0.0
C909 C 0.15027 0.35216 0.9489 0.0
H910 H 0.16348 0.31887 0.89407 0.0
H911 H 0.13607 0.38708 0.89581 0.0
C912 C 0.15592 0.34913 0.75977 0.0
N913 N 0.17474 0.33404 0.71138 0.0
C914 C 0.14988 0.32735 0.74937 0.0
C915 C 0.17124 0.3634 0.74537 0.0
C916 C 0.15969 0.31997 0.72495 0.0
C917 C 0.18062 0.35542 0.72097 0.0
C918 C 0.12477 0.3074 0.83868 0.0
C919 C 0.11967 0.29194 0.81767 0.0
C920 C 0.11278 0.30567 0.86324 0.0
C921 C 0.10239 0.27516 0.82145 0.0
C922 C 0.09567 0.2886 0.86626 0.0
N923 N 0.09084 0.27386 0.84546 0.0
C924 C 0.18566 0.29428 0.80506 0.0
C925 C 0.20464 0.32418 0.78046 0.0
C926 C 0.20161 0.27786 0.79552 0.0
N927 N 0.18734 0.31693 0.79732 0.0
C928 C 0.22088 0.30835 0.77035 0.0
C929 C 0.21935 0.28493 0.77789 0.0
H930 H 0.17197 0.28896 0.81874 0.0
H931 H 0.20592 0.34228 0.7749 0.0
C932 C 0.09057 0.34677 0.7731 0.0
N933 N 0.09435 0.34192 0.79972 0.0
C934 C 0.06828 0.34493 0.76206 0.0
C935 C 0.05402 0.33282 0.80588 0.0
C936 C 0.0766 0.33495 0.81612 0.0
C937 C 0.04972 0.33813 0.77863 0.0
H938 H 0.10476 0.35275 0.76054 0.0
H939 H 0.07973 0.33177 0.83733 0.0
O940 O 0.17787 0.36405 0.83532 0.0
O941 O 0.12759 0.37654 0.83694 0.0
O942 O 0.14669 0.35655 0.7838 0.0
O943 O 0.14166 0.3239 0.83537 0.0
H944 H 0.19641 0.32954 0.86344 0.0
H945 H 0.21118 0.38505 0.80751 0.0
H946 H 0.23824 0.31871 0.86265 0.0
H947 H 0.25278 0.37337 0.80786 0.0
H948 H 0.05816 0.37564 0.88102 0.0
H949 H 0.10433 0.40391 0.80339 0.0
H950 H 0.09944 0.36354 0.87661 0.0
H951 H 0.06293 0.41522 0.809 0.0
H952 H 0.19236 0.45828 0.81106 0.0
H953 H 0.14027 0.44555 0.74982 0.0
H954 H 0.16453 0.31751 0.9442 0.0
H955 H 0.13605 0.38695 0.94596 0.0
H956 H 0.13785 0.31623 0.76012 0.0
H957 H 0.17612 0.38029 0.75314 0.0
H958 H 0.15534 0.30307 0.71678 0.0
H959 H 0.19265 0.36619 0.70971 0.0
H960 H 0.12894 0.29289 0.79865 0.0
H961 H 0.1164 0.31754 0.87968 0.0
H962 H 0.09817 0.26316 0.80531 0.0
H963 H 0.08615 0.28715 0.88509 0.0
H964 H 0.20011 0.25986 0.80173 0.0
H965 H 0.2345 0.31428 0.75685 0.0
H966 H 0.06542 0.34934 0.74098 0.0
H967 H 0.03994 0.32774 0.81923 0.0
Li968 Li 0.62665 0.15463 0.80898 0.0
Li969 Li 0.6514 0.14948 0.849 0.0
Li970 Li 0.66874 0.16629 0.80737 0.0
Li971 Li 0.658 0.12568 0.81052 0.0
C972 C 0.63761 0.20112 0.82218 0.0
N973 N 0.62783 0.24577 0.80495 0.0
C974 C 0.63733 0.21945 0.84074 0.0
C975 C 0.63294 0.20547 0.79486 0.0
C976 C 0.63233 0.24191 0.83163 0.0
C977 C 0.62802 0.22817 0.78655 0.0
C978 C 0.61809 0.11912 0.85469 0.0
C979 C 0.61633 0.0939 0.89366 0.0
N980 N 0.59602 0.10416 0.90124 0.0
C981 C 0.59712 0.12931 0.86274 0.0
C982 C 0.62771 0.10116 0.87012 0.0
C983 C 0.58625 0.12153 0.88638 0.0
C984 C 0.58712 0.14553 0.77784 0.0
N985 N 0.59558 0.16046 0.79675 0.0
C986 C 0.55893 0.18019 0.79892 0.0
C987 C 0.58202 0.17757 0.80746 0.0
C988 C 0.54992 0.16507 0.77923 0.0
C989 C 0.5643 0.14767 0.76854 0.0
H990 H 0.59792 0.13159 0.77049 0.0
H991 H 0.58892 0.18883 0.82304 0.0
C992 C 0.6685 0.14072 0.90205 0.0
N993 N 0.6512 0.15117 0.88772 0.0
C994 C 0.6682 0.14103 0.93033 0.0
C995 C 0.63249 0.16323 0.92868 0.0
C996 C 0.63351 0.16254 0.90039 0.0
C997 C 0.64997 0.15228 0.94385 0.0
H998 H 0.68251 0.13207 0.89156 0.0
H999 H 0.62006 0.17085 0.88849 0.0
C1000 C 0.66057 0.13721 0.75853 0.0
N1001 N 0.6807 0.11403 0.71536 0.0
C1002 C 0.68444 0.13926 0.75353 0.0
C1003 C 0.64699 0.12324 0.74156 0.0
C1004 C 0.69427 0.12749 0.73158 0.0
C1005 C 0.65748 0.11168 0.71987 0.0
C1006 C 0.70068 0.12803 0.83211 0.0
C1007 C 0.72084 0.13404 0.81786 0.0
C1008 C 0.69989 0.10705 0.84639 0.0
C1009 C 0.73979 0.11881 0.81793 0.0
C1010 C 0.7192 0.09229 0.84594 0.0
N1011 N 0.73857 0.09842 0.83182 0.0
C1012 C 0.70634 0.19773 0.81124 0.0
C1013 C 0.68769 0.19751 0.76836 0.0
C1014 C 0.72231 0.21434 0.80222 0.0
N1015 N 0.68967 0.1895 0.7942 0.0
C1016 C 0.70336 0.21403 0.75847 0.0
C1017 C 0.72095 0.22246 0.7755 0.0
H1018 H 0.70735 0.19117 0.83174 0.0
H1019 H 0.67409 0.19086 0.75534 0.0
C1020 C 0.64589 0.0797 0.7994 0.0
N1021 N 0.66423 0.09459 0.79788 0.0
C1022 C 0.64769 0.05717 0.78913 0.0
C1023 C 0.68735 0.06547 0.776 0.0
C1024 C 0.68472 0.08794 0.78635 0.0
C1025 C 0.66857 0.04994 0.77717 0.0
H1026 H 0.62964 0.08546 0.80813 0.0
H1027 H 0.69893 0.10011 0.7847 0.0
O1028 O 0.64281 0.17912 0.83079 0.0
O1029 O 0.62934 0.12694 0.83204 0.0
O1030 O 0.65074 0.14828 0.78033 0.0
O1031 O 0.68202 0.14281 0.83243 0.0
H1032 H 0.64099 0.21635 0.86195 0.0
H1033 H 0.63312 0.1915 0.78019 0.0
H1034 H 0.63206 0.25628 0.84576 0.0
H1035 H 0.62439 0.23179 0.76547 0.0
H1036 H 0.62366 0.08014 0.90592 0.0
H1037 H 0.58947 0.14326 0.85106 0.0
H1038 H 0.64386 0.09302 0.86407 0.0
H1039 H 0.5701 0.12936 0.89297 0.0
H1040 H 0.54811 0.19359 0.80782 0.0
H1041 H 0.55774 0.13552 0.75361 0.0
H1042 H 0.68198 0.13253 0.94157 0.0
H1043 H 0.61824 0.17212 0.93864 0.0
H1044 H 0.69541 0.14942 0.76674 0.0
H1045 H 0.6286 0.12113 0.74512 0.0
H1046 H 0.71273 0.12888 0.72761 0.0
H1047 H 0.64716 0.10077 0.70667 0.0
H1048 H 0.72185 0.15024 0.80681 0.0
H1049 H 0.68442 0.10206 0.85742 0.0
H1050 H 0.75545 0.12321 0.8069 0.0
H1051 H 0.71874 0.07593 0.85674 0.0
H1052 H 0.73572 0.22062 0.81579 0.0
H1053 H 0.70188 0.22009 0.73776 0.0
H1054 H 0.63286 0.04557 0.79021 0.0
H1055 H 0.70366 0.06037 0.76676 0.0
Li1056 Li 0.88297 0.35328 0.69576 0.0
Li1057 Li 0.84169 0.34231 0.69909 0.0
Li1058 Li 0.85888 0.35871 0.65628 0.0
Li1059 Li 0.85199 0.38418 0.6955 0.0
C1060 C 0.88154 0.31084 0.67653 0.0
N1061 N 0.91345 0.27509 0.68093 0.0
C1062 C 0.87683 0.29174 0.69315 0.0
C1063 C 0.90236 0.31164 0.66191 0.0
C1064 C 0.8932 0.27385 0.69514 0.0
C1065 C 0.91832 0.29345 0.6645 0.0
C1066 C 0.85335 0.36238 0.75087 0.0
C1067 C 0.82766 0.3768 0.7857 0.0
N1068 N 0.83973 0.36446 0.80454 0.0
C1069 C 0.86569 0.3501 0.77066 0.0
C1070 C 0.83433 0.37605 0.75851 0.0
C1071 C 0.85845 0.35126 0.79764 0.0
C1072 C 0.93097 0.36166 0.70185 0.0
N1073 N 0.91354 0.34697 0.70923 0.0
C1074 C 0.9394 0.32596 0.73832 0.0
C1075 C 0.91735 0.32923 0.72696 0.0
C1076 C 0.95751 0.34114 0.73133 0.0
C1077 C 0.95325 0.35901 0.71268 0.0
H1078 H 0.92743 0.3758 0.68803 0.0
H1079 H 0.90317 0.31791 0.73268 0.0
C1080 C 0.80056 0.31536 0.69913 0.0
N1081 N 0.81999 0.32039 0.71376 0.0
C1082 C 0.78415 0.29959 0.70908 0.0
C1083 C 0.80834 0.29391 0.74861 0.0
C1084 C 0.82423 0.30988 0.73797 0.0
C1085 C 0.78803 0.28877 0.7341 0.0
H1086 H 0.7978 0.32365 0.67973 0.0
H1087 H 0.84007 0.31365 0.74886 0.0
C1088 C 0.88829 0.3936 0.65091 0.0
N1089 N 0.90294 0.41732 0.60532 0.0
C1090 C 0.87898 0.41544 0.64481 0.0
C1091 C 0.90524 0.38394 0.634 0.0
C1092 C 0.88659 0.42714 0.62164 0.0
C1093 C 0.91234 0.39616 0.61098 0.0
C1094 C 0.80652 0.37531 0.67541 0.0
C1095 C 0.79666 0.38626 0.65288 0.0
C1096 C 0.79357 0.37322 0.69925 0.0
C1097 C 0.77413 0.39527 0.65474 0.0
C1098 C 0.7711 0.38244 0.70031 0.0
N1099 N 0.76194 0.39322 0.67823 0.0
C1100 C 0.866 0.33824 0.60448 0.0
C1101 C 0.85006 0.37626 0.60342 0.0
C1102 C 0.86624 0.33734 0.57617 0.0
N1103 N 0.85811 0.35756 0.61747 0.0
C1104 C 0.84999 0.37611 0.57512 0.0
C1105 C 0.8582 0.35649 0.56128 0.0
H1106 H 0.87216 0.32354 0.61607 0.0
H1107 H 0.84394 0.39142 0.6142 0.0
C1108 C 0.86281 0.4231 0.72546 0.0
N1109 N 0.84611 0.41494 0.70843 0.0
C1110 C 0.86106 0.44538 0.73643 0.0
C1111 C 0.82484 0.45057 0.71223 0.0
C1112 C 0.82736 0.42816 0.70156 0.0
C1113 C 0.84192 0.45934 0.72978 0.0
H1114 H 0.87755 0.41221 0.73047 0.0
H1115 H 0.81444 0.42152 0.68776 0.0
O1116 O 0.86588 0.32868 0.67464 0.0
O1117 O 0.86039 0.36158 0.72437 0.0
O1118 O 0.88071 0.38166 0.67319 0.0
O1119 O 0.82858 0.36639 0.67388 0.0
H1120 H 0.86075 0.29077 0.70448 0.0
H1121 H 0.90628 0.3263 0.64896 0.0
H1122 H 0.88983 0.25901 0.70802 0.0
H1123 H 0.93459 0.29394 0.65349 0.0
H1124 H 0.81294 0.38728 0.79184 0.0
H1125 H 0.8806 0.33966 0.76525 0.0
H1126 H 0.82494 0.38621 0.74373 0.0
H1127 H 0.86775 0.3417 0.8131 0.0
H1128 H 0.94219 0.31208 0.7528 0.0
H1129 H 0.96691 0.37107 0.70706 0.0
H1130 H 0.76867 0.29579 0.69738 0.0
H1131 H 0.81185 0.28561 0.76788 0.0
H1132 H 0.86583 0.42317 0.65766 0.0
H1133 H 0.91265 0.36708 0.63846 0.0
H1134 H 0.87944 0.44399 0.61658 0.0
H1135 H 0.92529 0.38881 0.59758 0.0
H1136 H 0.80627 0.38783 0.63416 0.0
H1137 H 0.80064 0.36435 0.71668 0.0
H1138 H 0.76634 0.40389 0.6375 0.0
H1139 H 0.76092 0.38095 0.71867 0.0
H1140 H 0.87263 0.32193 0.56599 0.0
H1141 H 0.84368 0.39115 0.56413 0.0
H1142 H 0.87451 0.45171 0.74992 0.0
H1143 H 0.80989 0.46101 0.70671 0.0
Li1144 Li 0.65545 0.88168 0.69894 0.0
Li1145 Li 0.66636 0.84019 0.70274 0.0
Li1146 Li 0.6494 0.8568 0.66014 0.0
Li1147 Li 0.62441 0.8505 0.69966 0.0
C1148 C 0.69856 0.8785 0.67892 0.0
N1149 N 0.73677 0.9076 0.6814 0.0
C1150 C 0.71785 0.87239 0.69464 0.0
C1151 C 0.69879 0.8993 0.66427 0.0
C1152 C 0.73699 0.88736 0.69566 0.0
C1153 C 0.71824 0.91382 0.66586 0.0
C1154 C 0.6483 0.85468 0.75508 0.0
C1155 C 0.63676 0.83184 0.79383 0.0
N1156 N 0.64985 0.84574 0.81009 0.0
C1157 C 0.66141 0.8689 0.77224 0.0
C1158 C 0.63568 0.83612 0.76601 0.0
C1159 C 0.66207 0.86404 0.79996 0.0
C1160 C 0.64477 0.92865 0.70734 0.0
N1161 N 0.66169 0.91251 0.71157 0.0
C1162 C 0.68476 0.94031 0.73567 0.0
C1163 C 0.68144 0.91788 0.72547 0.0
C1164 C 0.66738 0.95712 0.73188 0.0
C1165 C 0.64727 0.95119 0.71738 0.0
H1166 H 0.62909 0.92387 0.6966 0.0
H1167 H 0.69443 0.90467 0.72911 0.0
C1168 C 0.69466 0.80021 0.70136 0.0
N1169 N 0.68844 0.81853 0.71722 0.0
C1170 C 0.71071 0.78381 0.71073 0.0
C1171 C 0.71381 0.80549 0.75253 0.0
C1172 C 0.69782 0.82154 0.74229 0.0
C1173 C 0.72038 0.78639 0.73664 0.0
H1174 H 0.68711 0.79835 0.68141 0.0
H1175 H 0.69316 0.83649 0.75426 0.0
C1176 C 0.61588 0.88735 0.65431 0.0
N1177 N 0.59452 0.90353 0.60785 0.0
C1178 C 0.59428 0.87845 0.64644 0.0
C1179 C 0.62649 0.90467 0.63875 0.0
C1180 C 0.58379 0.88683 0.62285 0.0
C1181 C 0.61546 0.91255 0.61526 0.0
C1182 C 0.63291 0.8049 0.68201 0.0
C1183 C 0.62144 0.79363 0.66078 0.0
C1184 C 0.63549 0.79359 0.70688 0.0
C1185 C 0.61237 0.77137 0.66495 0.0
C1186 C 0.62622 0.77133 0.71026 0.0
N1187 N 0.61491 0.76078 0.68941 0.0
C1188 C 0.66856 0.86449 0.60781 0.0
C1189 C 0.63149 0.84639 0.60789 0.0
C1190 C 0.66889 0.86463 0.5795 0.0
N1191 N 0.64997 0.85561 0.62137 0.0
C1192 C 0.6311 0.84614 0.57959 0.0
C1193 C 0.64995 0.85543 0.56517 0.0
H1194 H 0.6831 0.87157 0.61894 0.0
H1195 H 0.6169 0.83951 0.61915 0.0
C1196 C 0.58702 0.85687 0.73473 0.0
N1197 N 0.59376 0.84433 0.71273 0.0
C1198 C 0.56454 0.8546 0.74506 0.0
C1199 C 0.55609 0.82679 0.70967 0.0
C1200 C 0.57885 0.82947 0.7001 0.0
C1201 C 0.54879 0.83955 0.73235 0.0
H1202 H 0.59905 0.86893 0.744 0.0
H1203 H 0.58439 0.82019 0.68222 0.0
O1204 O 0.67965 0.86409 0.67774 0.0
O1205 O 0.64738 0.85932 0.72789 0.0
O1206 O 0.62671 0.87894 0.67694 0.0
O1207 O 0.64184 0.82673 0.67823 0.0
H1208 H 0.71805 0.85631 0.70597 0.0
H1209 H 0.68402 0.90431 0.65202 0.0
H1210 H 0.75201 0.88289 0.7078 0.0
H1211 H 0.71858 0.93004 0.65478 0.0
H1212 H 0.6271 0.81751 0.80252 0.0
H1213 H 0.67113 0.88343 0.76424 0.0
H1214 H 0.62489 0.82531 0.75326 0.0
H1215 H 0.67228 0.87481 0.81341 0.0
H1216 H 0.70044 0.94439 0.74688 0.0
H1217 H 0.63352 0.9638 0.71423 0.0
H1218 H 0.71555 0.76928 0.69796 0.0
H1219 H 0.72113 0.80801 0.77253 0.0
H1220 H 0.58584 0.86505 0.65826 0.0
H1221 H 0.64315 0.9118 0.64465 0.0
H1222 H 0.56715 0.87999 0.6164 0.0
H1223 H 0.62356 0.9258 0.60289 0.0
H1224 H 0.61946 0.80201 0.6413 0.0
H1225 H 0.64473 0.80178 0.72334 0.0
H1226 H 0.60334 0.76251 0.64873 0.0
H1227 H 0.62807 0.7624 0.72943 0.0
H1228 H 0.68371 0.87187 0.56887 0.0
H1229 H 0.61625 0.83891 0.56904 0.0
H1230 H 0.55931 0.86485 0.76243 0.0
H1231 H 0.54418 0.81525 0.69925 0.0
Li1232 Li 0.12572 0.6546 0.69743 0.0
Li1233 Li 0.16723 0.66366 0.69704 0.0
Li1234 Li 0.15001 0.6471 0.65798 0.0
Li1235 Li 0.15603 0.6218 0.6973 0.0
C1236 C 0.12665 0.69131 0.66145 0.0
N1237 N 0.09416 0.71854 0.63506 0.0
C1238 C 0.12689 0.71545 0.66467 0.0
C1239 C 0.10992 0.68104 0.64478 0.0
C1240 C 0.1103 0.72892 0.65118 0.0
C1241 C 0.09365 0.69509 0.63159 0.0
C1242 C 0.15872 0.65459 0.7483 0.0
C1243 C 0.18964 0.65476 0.7813 0.0
N1244 N 0.17944 0.67316 0.79389 0.0
C1245 C 0.14848 0.67345 0.76159 0.0
C1246 C 0.1794 0.64508 0.75824 0.0
C1247 C 0.15925 0.68261 0.78461 0.0
C1248 C 0.08191 0.64271 0.71641 0.0
N1249 N 0.09565 0.66144 0.7113 0.0
C1250 C 0.06625 0.68726 0.72778 0.0
C1251 C 0.08839 0.68346 0.7168 0.0
C1252 C 0.05171 0.66817 0.73302 0.0
C1253 C 0.0597 0.64571 0.72722 0.0
H1254 H 0.08832 0.6254 0.71226 0.0
H1255 H 0.09984 0.69801 0.71296 0.0
C1256 C 0.21239 0.67875 0.71222 0.0
N1257 N 0.1896 0.68502 0.71091 0.0
C1258 C 0.22886 0.69404 0.72305 0.0
C1259 C 0.19805 0.72192 0.73093 0.0
C1260 C 0.1822 0.70613 0.71988 0.0
C1261 C 0.22164 0.71585 0.73257 0.0
H1262 H 0.21773 0.6618 0.70503 0.0
H1263 H 0.16394 0.71055 0.71873 0.0
C1264 C 0.11481 0.61068 0.65995 0.0
N1265 N 0.08889 0.57959 0.62971 0.0
C1266 C 0.12389 0.58881 0.6535 0.0
C1267 C 0.09234 0.61653 0.65145 0.0
C1268 C 0.11057 0.5734 0.63807 0.0
C1269 C 0.07958 0.60064 0.63605 0.0
C1270 C 0.1925 0.63173 0.65308 0.0
C1271 C 0.19244 0.60881 0.64372 0.0
C1272 C 0.20463 0.64882 0.63874 0.0
C1273 C 0.20434 0.60338 0.61986 0.0
C1274 C 0.21629 0.6427 0.61494 0.0
N1275 N 0.21589 0.6203 0.60607 0.0
C1276 C 0.15603 0.66834 0.60641 0.0
C1277 C 0.14735 0.62814 0.60391 0.0
C1278 C 0.15704 0.66983 0.57816 0.0
N1279 N 0.15094 0.64777 0.61872 0.0
C1280 C 0.14808 0.62885 0.57565 0.0
C1281 C 0.15285 0.64993 0.56254 0.0
H1282 H 0.15945 0.68361 0.61855 0.0
H1283 H 0.14429 0.6118 0.6139 0.0
C1284 C 0.14226 0.57927 0.71895 0.0
N1285 N 0.16141 0.59168 0.7117 0.0
C1286 C 0.14463 0.55713 0.73013 0.0
C1287 C 0.18646 0.56113 0.7269 0.0
C1288 C 0.18327 0.58318 0.71546 0.0
C1289 C 0.16693 0.54788 0.73422 0.0
H1290 H 0.12512 0.58664 0.71604 0.0
H1291 H 0.19816 0.59359 0.70977 0.0
O1292 O 0.14259 0.67793 0.6749 0.0
O1293 O 0.14886 0.64586 0.72527 0.0
O1294 O 0.12741 0.62581 0.67555 0.0
O1295 O 0.18037 0.63751 0.67591 0.0
H1296 H 0.13972 0.72368 0.67755 0.0
H1297 H 0.10966 0.66246 0.64186 0.0
H1298 H 0.11025 0.74762 0.65355 0.0
H1299 H 0.08065 0.68734 0.61857 0.0
H1300 H 0.20574 0.64769 0.78913 0.0
H1301 H 0.13252 0.68106 0.75402 0.0
H1302 H 0.18759 0.63056 0.74803 0.0
H1303 H 0.1516 0.69728 0.79504 0.0
H1304 H 0.06056 0.70479 0.73228 0.0
H1305 H 0.0489 0.63065 0.73123 0.0
H1306 H 0.24697 0.68892 0.72413 0.0
H1307 H 0.19201 0.73863 0.73819 0.0
H1308 H 0.14117 0.58389 0.66001 0.0
H1309 H 0.0847 0.63308 0.65686 0.0
H1310 H 0.11749 0.55651 0.63273 0.0
H1311 H 0.06222 0.605 0.62925 0.0
H1312 H 0.1831 0.5954 0.6546 0.0
H1313 H 0.20476 0.66666 0.64574 0.0
H1314 H 0.20432 0.58574 0.61226 0.0
H1315 H 0.22558 0.65576 0.60348 0.0
H1316 H 0.16101 0.68631 0.56859 0.0
H1317 H 0.14507 0.61312 0.56411 0.0
H1318 H 0.12925 0.54735 0.73572 0.0
H1319 H 0.20389 0.55447 0.73 0.0
Li1320 Li 0.34971 0.12209 0.7032 0.0
Li1321 Li 0.33983 0.16372 0.70394 0.0
Li1322 Li 0.35807 0.14594 0.66233 0.0
Li1323 Li 0.38037 0.15316 0.70391 0.0
C1324 C 0.30961 0.12545 0.66969 0.0
N1325 N 0.27394 0.09808 0.64973 0.0
C1326 C 0.28704 0.1278 0.6799 0.0
C1327 C 0.31391 0.10945 0.64896 0.0
C1328 C 0.26928 0.11373 0.66965 0.0
C1329 C 0.2957 0.09571 0.63924 0.0
C1330 C 0.34566 0.15155 0.75518 0.0
C1331 C 0.33767 0.17961 0.79029 0.0
N1332 N 0.32217 0.16461 0.8016 0.0
C1333 C 0.32976 0.13635 0.76724 0.0
C1334 C 0.3498 0.1733 0.76689 0.0
C1335 C 0.31804 0.14329 0.79069 0.0
C1336 C 0.36193 0.07988 0.72614 0.0
N1337 N 0.34305 0.09165 0.71677 0.0
C1338 C 0.31816 0.05967 0.72789 0.0
C1339 C 0.32136 0.08213 0.71765 0.0
C1340 C 0.33746 0.04716 0.73736 0.0
C1341 C 0.35953 0.05745 0.73654 0.0
H1342 H 0.37892 0.08796 0.72542 0.0
H1343 H 0.30654 0.09193 0.71065 0.0
C1344 C 0.32093 0.20886 0.71184 0.0
N1345 N 0.31739 0.18583 0.71666 0.0
C1346 C 0.30518 0.22538 0.72159 0.0
C1347 C 0.28222 0.1942 0.74072 0.0
C1348 C 0.29846 0.1783 0.73071 0.0
C1349 C 0.28562 0.218 0.73621 0.0
H1350 H 0.336 0.21441 0.70047 0.0
H1351 H 0.2961 0.15994 0.73444 0.0
C1352 C 0.38807 0.10688 0.66597 0.0
N1353 N 0.40623 0.07166 0.6342 0.0
C1354 C 0.41131 0.10764 0.65762 0.0
C1355 C 0.37424 0.08792 0.65857 0.0
C1356 C 0.42012 0.08977 0.64144 0.0
C1357 C 0.38368 0.07036 0.64241 0.0
C1358 C 0.38204 0.19277 0.67862 0.0
C1359 C 0.39544 0.19488 0.65513 0.0
C1360 C 0.38671 0.20709 0.70084 0.0
C1361 C 0.41353 0.2111 0.65439 0.0
C1362 C 0.40498 0.22306 0.69934 0.0
N1363 N 0.41792 0.2247 0.67634 0.0
C1364 C 0.33836 0.15053 0.61005 0.0
C1365 C 0.37888 0.1428 0.6098 0.0
C1366 C 0.33785 0.15074 0.58175 0.0
N1367 N 0.35861 0.14626 0.62347 0.0
C1368 C 0.37922 0.14315 0.58149 0.0
C1369 C 0.35848 0.14703 0.56721 0.0
H1370 H 0.32257 0.15375 0.62135 0.0
H1371 H 0.39487 0.14014 0.62086 0.0
C1372 C 0.41346 0.16188 0.7452 0.0
N1373 N 0.41068 0.16 0.71793 0.0
C1374 C 0.43563 0.16486 0.7563 0.0
C1375 C 0.45168 0.16411 0.71103 0.0
C1376 C 0.42917 0.16145 0.70079 0.0
C1377 C 0.45506 0.16547 0.73912 0.0
H1378 H 0.39855 0.16046 0.75841 0.0
H1379 H 0.42647 0.16008 0.67919 0.0
O1380 O 0.32721 0.13913 0.67954 0.0
O1381 O 0.35701 0.14523 0.73194 0.0
O1382 O 0.3792 0.12426 0.68194 0.0
O1383 O 0.36457 0.17664 0.67994 0.0
H1384 H 0.28323 0.14028 0.69561 0.0
H1385 H 0.33102 0.10788 0.64014 0.0
H1386 H 0.25177 0.11527 0.67752 0.0
H1387 H 0.29883 0.08323 0.62325 0.0
H1388 H 0.34055 0.19647 0.79943 0.0
H1389 H 0.32635 0.11946 0.75851 0.0
H1390 H 0.36204 0.18528 0.75785 0.0
H1391 H 0.3056 0.13174 0.80016 0.0
H1392 H 0.30089 0.05216 0.72848 0.0
H1393 H 0.37471 0.04819 0.74381 0.0
H1394 H 0.30817 0.24369 0.71778 0.0
H1395 H 0.26728 0.18805 0.752 0.0
H1396 H 0.42243 0.12194 0.6634 0.0
H1397 H 0.35648 0.08654 0.66545 0.0
H1398 H 0.43802 0.09027 0.63467 0.0
H1399 H 0.37311 0.05565 0.6365 0.0
H1400 H 0.392 0.18405 0.6377 0.0
H1401 H 0.3765 0.20571 0.71917 0.0
H1402 H 0.42412 0.21283 0.63639 0.0
H1403 H 0.40892 0.23411 0.71647 0.0
H1404 H 0.32159 0.15396 0.57129 0.0
H1405 H 0.39547 0.14048 0.57081 0.0
H1406 H 0.43771 0.16585 0.77807 0.0
H1407 H 0.46635 0.16457 0.69726 0.0
C1408 C 0.26137 0.26162 0.29393 0.0
C1409 C 0.27981 0.25299 0.27764 0.0
C1410 C 0.26495 0.27596 0.23956 0.0
C1411 C 0.24378 0.27934 0.25378 0.0
N1412 N 0.22186 0.27601 0.29536 0.0
N1413 N 0.30613 0.26911 0.24469 0.0
C1414 C 0.24198 0.27238 0.28126 0.0
C1415 C 0.28385 0.26496 0.25292 0.0
N1416 N 0.26435 0.26364 0.32122 0.0
N1417 N 0.26704 0.283 0.21325 0.0
H1418 H 0.32035 0.26474 0.25685 0.0
H1419 H 0.31026 0.27961 0.22817 0.0
H1420 H 0.25373 0.29154 0.20286 0.0
H1421 H 0.28139 0.27877 0.2013 0.0
H1422 H 0.25227 0.2717 0.33388 0.0
H1423 H 0.2805 0.26061 0.33025 0.0
H1424 H 0.21912 0.26919 0.31467 0.0
H1425 H 0.20741 0.28433 0.287 0.0
C1426 C 0.74741 0.27666 0.25403 0.0
C1427 C 0.76849 0.26891 0.26602 0.0
C1428 C 0.75691 0.22826 0.25903 0.0
C1429 C 0.73658 0.23603 0.24542 0.0
N1430 N 0.71322 0.26716 0.22729 0.0
N1431 N 0.7948 0.23788 0.27779 0.0
C1432 C 0.73201 0.26013 0.24221 0.0
C1433 C 0.77365 0.24483 0.26795 0.0
N1434 N 0.74196 0.29982 0.25442 0.0
N1435 N 0.75994 0.20503 0.26385 0.0
H1436 H 0.80712 0.24948 0.28542 0.0
H1437 H 0.80084 0.22084 0.27693 0.0
H1438 H 0.74843 0.19235 0.25686 0.0
H1439 H 0.77295 0.1983 0.27624 0.0
H1440 H 0.72579 0.30644 0.24887 0.0
H1441 H 0.75315 0.31251 0.26204 0.0
H1442 H 0.71029 0.2843 0.22146 0.0
H1443 H 0.70112 0.25559 0.21915 0.0
C1444 C 0.77166 0.76197 0.23665 0.0
C1445 C 0.7698 0.73808 0.24354 0.0
C1446 C 0.73599 0.7464 0.27234 0.0
C1447 C 0.73698 0.77003 0.26414 0.0
N1448 N 0.75361 0.80016 0.23627 0.0
N1449 N 0.74901 0.70671 0.26505 0.0
C1450 C 0.75424 0.77779 0.24565 0.0
C1451 C 0.75161 0.73005 0.26059 0.0
N1452 N 0.7904 0.76956 0.22202 0.0
N1453 N 0.72044 0.73974 0.29184 0.0
H1454 H 0.76052 0.69429 0.25745 0.0
H1455 H 0.73466 0.69941 0.2747 0.0
H1456 H 0.70828 0.75107 0.30032 0.0
H1457 H 0.72052 0.72345 0.30102 0.0
H1458 H 0.79428 0.78703 0.21886 0.0
H1459 H 0.80311 0.75838 0.21441 0.0
H1460 H 0.764 0.80629 0.22055 0.0
H1461 H 0.74151 0.8124 0.24298 0.0
C1462 C 0.24422 0.77613 0.23818 0.0
C1463 C 0.2685 0.77348 0.24259 0.0
C1464 C 0.26103 0.73858 0.26976 0.0
C1465 C 0.23707 0.73982 0.2629 0.0
N1466 N 0.20668 0.75711 0.23577 0.0
N1467 N 0.30038 0.74933 0.25756 0.0
C1468 C 0.22887 0.75785 0.24571 0.0
C1469 C 0.27703 0.75386 0.25694 0.0
N1470 N 0.23569 0.79643 0.22775 0.0
N1471 N 0.26843 0.72341 0.28927 0.0
H1472 H 0.31265 0.75975 0.24782 0.0
H1473 H 0.30733 0.734 0.2654 0.0
H1474 H 0.25719 0.71231 0.29966 0.0
H1475 H 0.2853 0.72348 0.29701 0.0
H1476 H 0.21797 0.80019 0.22676 0.0
H1477 H 0.24628 0.81043 0.22246 0.0
H1478 H 0.20059 0.76851 0.22097 0.0
H1479 H 0.19504 0.74375 0.24031 0.0
C1480 C 0.76126 0.7757 0.74992 0.0
C1481 C 0.73755 0.76921 0.74706 0.0
C1482 C 0.74699 0.72955 0.7617 0.0
C1483 C 0.7702 0.73665 0.767 0.0
N1484 N 0.7985 0.76747 0.77088 0.0
N1485 N 0.70692 0.74128 0.75471 0.0
C1486 C 0.77709 0.76003 0.76245 0.0
C1487 C 0.73013 0.74648 0.75421 0.0
N1488 N 0.76884 0.79651 0.73982 0.0
N1489 N 0.74122 0.70651 0.76291 0.0
H1490 H 0.69403 0.75325 0.74949 0.0
H1491 H 0.70032 0.72582 0.76255 0.0
H1492 H 0.75309 0.69356 0.7682 0.0
H1493 H 0.72526 0.69999 0.7564 0.0
H1494 H 0.78634 0.80109 0.73868 0.0
H1495 H 0.75782 0.80839 0.7303 0.0
H1496 H 0.80353 0.78487 0.77075 0.0
H1497 H 0.81053 0.75657 0.78033 0.0
C1498 C 0.25314 0.74581 0.72705 0.0
C1499 C 0.23875 0.73236 0.74439 0.0
C1500 C 0.25494 0.75229 0.78409 0.0
C1501 C 0.27053 0.76449 0.7669 0.0
N1502 N 0.28732 0.77026 0.72264 0.0
N1503 N 0.22832 0.71985 0.78939 0.0
C1504 C 0.27044 0.76051 0.73852 0.0
C1505 C 0.24034 0.73475 0.77294 0.0
N1506 N 0.24978 0.74504 0.69964 0.0
N1507 N 0.25354 0.75803 0.81092 0.0
H1508 H 0.2173 0.70693 0.78193 0.0
H1509 H 0.23067 0.71899 0.81027 0.0
H1510 H 0.26404 0.77069 0.81986 0.0
H1511 H 0.24076 0.75164 0.82389 0.0
H1512 H 0.25785 0.75634 0.68611 0.0
H1513 H 0.23748 0.73427 0.69048 0.0
H1514 H 0.28975 0.76607 0.70232 0.0
H1515 H 0.30025 0.78117 0.7303 0.0
C1516 C 0.25659 0.26244 0.78248 0.0
C1517 C 0.23635 0.26778 0.76723 0.0
C1518 C 0.24926 0.24176 0.73081 0.0
C1519 C 0.26867 0.23522 0.74687 0.0
N1520 N 0.28973 0.23685 0.78905 0.0
N1521 N 0.21164 0.26092 0.7286 0.0
C1522 C 0.27204 0.24488 0.77303 0.0
C1523 C 0.23219 0.257 0.74183 0.0
N1524 N 0.26129 0.27461 0.80565 0.0
N1525 N 0.24745 0.23376 0.70479 0.0
H1526 H 0.19899 0.27242 0.73572 0.0
H1527 H 0.20631 0.25169 0.71157 0.0
H1528 H 0.25925 0.22206 0.69632 0.0
H1529 H 0.23523 0.23985 0.69094 0.0
H1530 H 0.27696 0.27347 0.81614 0.0
H1531 H 0.25011 0.28722 0.8135 0.0
H1532 H 0.29162 0.24117 0.8094 0.0
H1533 H 0.30179 0.22449 0.78252 0.0
C1534 C 0.75858 0.23136 0.75187 0.0
C1535 C 0.73823 0.23948 0.76514 0.0
C1536 C 0.75144 0.27982 0.75992 0.0
C1537 C 0.77092 0.27177 0.74494 0.0
N1538 N 0.7919 0.24046 0.72356 0.0
N1539 N 0.71355 0.27113 0.77922 0.0
C1540 C 0.7742 0.24767 0.74008 0.0
C1541 C 0.73417 0.26366 0.76847 0.0
N1542 N 0.7632 0.20803 0.75111 0.0
N1543 N 0.74978 0.30287 0.76651 0.0
H1544 H 0.70077 0.25977 0.78634 0.0
H1545 H 0.70832 0.28845 0.77945 0.0
H1546 H 0.76184 0.31527 0.7601 0.0
H1547 H 0.73746 0.30953 0.77986 0.0
H1548 H 0.77892 0.20106 0.74452 0.0
H1549 H 0.75187 0.19552 0.75891 0.0
H1550 H 0.79372 0.22346 0.71666 0.0
H1551 H 0.804 0.25186 0.71507 0.0
C1552 C 0.16582 0.36578 0.99384 0.0
C1553 C 0.15012 0.35157 0.97905 0.0
C1554 C 0.13535 0.33514 0.02159 0.0
C1555 C 0.14923 0.35114 0.03636 0.0
N1556 N 0.17476 0.38447 0.03659 0.0
N1557 N 0.11713 0.32559 0.97875 0.0
C1558 C 0.1637 0.36723 0.0225 0.0
C1559 C 0.13411 0.337 0.9929 0.0
N1560 N 0.18321 0.37735 0.98059 0.0
N1561 N 0.12392 0.3177 0.03491 0.0
H1562 H 0.11549 0.32666 0.95774 0.0
H1563 H 0.10345 0.31677 0.988 0.0
H1564 H 0.12457 0.31564 0.05589 0.0
H1565 H 0.11555 0.30406 0.02502 0.0
H1566 H 0.19666 0.38597 0.99055 0.0
H1567 H 0.18544 0.37658 0.95964 0.0
H1568 H 0.18347 0.39819 0.02728 0.0
H1569 H 0.17351 0.38627 0.05756 0.0
C1570 C 0.63463 0.13667 0.98795 0.0
C1571 C 0.64928 0.15251 0.97395 0.0
C1572 C 0.66521 0.16641 0.01713 0.0
C1573 C 0.64951 0.15164 0.03116 0.0
N1574 N 0.61677 0.12546 0.03055 0.0
N1575 N 0.67571 0.18504 0.97475 0.0
C1576 C 0.63347 0.13755 0.01672 0.0
C1577 C 0.66378 0.16815 0.98843 0.0
N1578 N 0.62243 0.12029 0.97375 0.0
N1579 N 0.68197 0.1782 0.0312 0.0
H1580 H 0.67522 0.18671 0.95371 0.0
H1581 H 0.68458 0.19855 0.98426 0.0
H1582 H 0.68334 0.17764 0.05227 0.0
H1583 H 0.69559 0.18715 0.022 0.0
H1584 H 0.61352 0.1066 0.98283 0.0
H1585 H 0.62259 0.11932 0.95265 0.0
H1586 H 0.603 0.11688 0.02118 0.0
H1587 H 0.61557 0.12549 0.05163 0.0
C1588 C 0.84174 0.64198 0.99 0.0
C1589 C 0.85825 0.65572 0.97583 0.0
C1590 C 0.87288 0.67123 0.0189 0.0
C1591 C 0.85792 0.65582 0.03309 0.0
N1592 N 0.83046 0.6241 0.03252 0.0
N1593 N 0.89177 0.68094 0.97644 0.0
C1594 C 0.84294 0.64054 0.01874 0.0
C1595 C 0.87443 0.66972 0.99019 0.0
N1596 N 0.82451 0.6308 0.976 0.0
N1597 N 0.88511 0.68773 0.03284 0.0
H1598 H 0.89338 0.6804 0.95541 0.0
H1599 H 0.90563 0.68927 0.98595 0.0
H1600 H 0.88449 0.68929 0.05388 0.0
H1601 H 0.89434 0.70109 0.02349 0.0
H1602 H 0.81048 0.62259 0.9853 0.0
H1603 H 0.82313 0.63137 0.95494 0.0
H1604 H 0.82126 0.61079 0.02306 0.0
H1605 H 0.83078 0.62256 0.05357 0.0
C1606 C 0.34175 0.86903 0.02123 0.0
C1607 C 0.35801 0.85548 0.03604 0.0
C1608 C 0.37283 0.83886 0.99363 0.0
C1609 C 0.35822 0.85414 0.97877 0.0
N1610 N 0.33138 0.88641 0.97814 0.0
N1611 N 0.39149 0.83018 0.0365 0.0
C1612 C 0.34335 0.86995 0.9925 0.0
C1613 C 0.37423 0.84108 0.02228 0.0
N1614 N 0.32434 0.88049 0.0346 0.0
N1615 N 0.38484 0.82176 0.98041 0.0
H1616 H 0.3931 0.83137 0.05751 0.0
H1617 H 0.40535 0.82156 0.02734 0.0
H1618 H 0.38423 0.81957 0.95944 0.0
H1619 H 0.3938 0.80853 0.99035 0.0
H1620 H 0.3105 0.88859 0.02478 0.0
H1621 H 0.32257 0.88019 0.05563 0.0
H1622 H 0.32231 0.90002 0.98719 0.0
H1623 H 0.33212 0.88769 0.95708 0.0
C1624 C 0.17212 0.64037 0.51818 0.0
C1625 C 0.15349 0.65101 0.53243 0.0
C1626 C 0.13661 0.66419 0.48942 0.0
C1627 C 0.1538 0.65138 0.47514 0.0
N1628 N 0.18593 0.62438 0.47569 0.0
N1629 N 0.11607 0.67004 0.53176 0.0
C1630 C 0.17107 0.6387 0.48945 0.0
C1631 C 0.13521 0.66216 0.51809 0.0
N1632 N 0.19112 0.63245 0.53207 0.0
N1633 N 0.12204 0.67879 0.47564 0.0
H1634 H 0.11433 0.66885 0.55274 0.0
H1635 H 0.10106 0.67596 0.52215 0.0
H1636 H 0.12259 0.68079 0.45465 0.0
H1637 H 0.11083 0.69045 0.48516 0.0
H1638 H 0.2063 0.62676 0.52265 0.0
H1639 H 0.19256 0.6335 0.5531 0.0
H1640 H 0.19716 0.61275 0.48521 0.0
H1641 H 0.18571 0.62265 0.45466 0.0
C1642 C 0.3625 0.12687 0.52213 0.0
C1643 C 0.3584 0.14759 0.53704 0.0
C1644 C 0.35151 0.16877 0.49466 0.0
C1645 C 0.35802 0.1487 0.47974 0.0
N1646 N 0.37379 0.10981 0.47921 0.0
N1647 N 0.35335 0.18925 0.53746 0.0
C1648 C 0.36465 0.12804 0.49346 0.0
C1649 C 0.35411 0.16884 0.52329 0.0
N1650 N 0.36356 0.10597 0.53526 0.0
N1651 N 0.34212 0.18751 0.48158 0.0
H1652 H 0.35553 0.19011 0.55842 0.0
H1653 H 0.35276 0.20552 0.52821 0.0
H1654 H 0.33966 0.18802 0.46065 0.0
H1655 H 0.33479 0.20162 0.49168 0.0
H1656 H 0.36405 0.09006 0.5252 0.0
H1657 H 0.36182 0.10435 0.55621 0.0
H1658 H 0.38124 0.0953 0.4884 0.0
H1659 H 0.37585 0.11006 0.45822 0.0
C1660 C 0.8424 0.34138 0.48832 0.0
C1661 C 0.85808 0.35588 0.4739 0.0
C1662 C 0.87548 0.3688 0.51674 0.0
C1663 C 0.85835 0.35601 0.53116 0.0
N1664 N 0.8234 0.33281 0.53103 0.0
N1665 N 0.88741 0.38587 0.474 0.0
C1666 C 0.84124 0.34298 0.51704 0.0
C1667 C 0.87409 0.37026 0.48801 0.0
N1668 N 0.82906 0.32562 0.47457 0.0
N1669 N 0.89344 0.37901 0.5305 0.0
H1670 H 0.88701 0.38731 0.45294 0.0
H1671 H 0.89749 0.39863 0.48327 0.0
H1672 H 0.89497 0.3784 0.55154 0.0
H1673 H 0.90782 0.38643 0.52102 0.0
H1674 H 0.81917 0.31282 0.48406 0.0
H1675 H 0.82936 0.32402 0.45352 0.0
H1676 H 0.80898 0.3253 0.52173 0.0
H1677 H 0.82201 0.33349 0.55209 0.0
C1678 C 0.66428 0.83976 0.52066 0.0
C1679 C 0.64988 0.85556 0.53505 0.0
C1680 C 0.63415 0.87032 0.49214 0.0
C1681 C 0.65007 0.85603 0.47779 0.0
N1682 N 0.68294 0.82995 0.47813 0.0
N1683 N 0.62382 0.88844 0.53485 0.0
C1684 C 0.66589 0.8415 0.49199 0.0
C1685 C 0.63554 0.87157 0.52088 0.0
N1686 N 0.67586 0.82263 0.53434 0.0
N1687 N 0.61723 0.88215 0.47835 0.0
H1688 H 0.62437 0.88989 0.5559 0.0
H1689 H 0.61513 0.90216 0.52552 0.0
H1690 H 0.61568 0.88169 0.45731 0.0
H1691 H 0.60357 0.89082 0.48783 0.0
H1692 H 0.68457 0.80904 0.52477 0.0
H1693 H 0.67512 0.8208 0.55535 0.0
H1694 H 0.69655 0.82115 0.48757 0.0
H1695 H 0.68469 0.83078 0.45712 0.0
C1696 C 0.15596 0.50709 0.28183 0.0
C1697 C 0.16766 0.52506 0.26756 0.0
C1698 C 0.17706 0.49772 0.23102 0.0
C1699 C 0.16686 0.47944 0.24625 0.0
N1700 N 0.15162 0.46565 0.28887 0.0
N1701 N 0.19373 0.53643 0.23162 0.0
C1702 C 0.15786 0.4838 0.27253 0.0
C1703 C 0.17957 0.52004 0.24305 0.0
N1704 N 0.14213 0.51234 0.30352 0.0
N1705 N 0.18342 0.49408 0.20467 0.0
H1706 H 0.19624 0.55287 0.24009 0.0
H1707 H 0.20466 0.533 0.21527 0.0
H1708 H 0.18169 0.47806 0.19501 0.0
H1709 H 0.18855 0.50742 0.19171 0.0
H1710 H 0.1312 0.50027 0.31278 0.0
H1711 H 0.1399 0.52921 0.31076 0.0
H1712 H 0.14717 0.46768 0.30918 0.0
H1713 H 0.15313 0.4483 0.28291 0.0
C1714 C 0.50827 0.17184 0.22834 0.0
C1715 C 0.52789 0.16653 0.24466 0.0
C1716 C 0.50282 0.16498 0.28482 0.0
C1717 C 0.48295 0.16717 0.26795 0.0
N1718 N 0.46647 0.16914 0.22301 0.0
N1719 N 0.54353 0.15445 0.28784 0.0
C1720 C 0.48557 0.16975 0.23951 0.0
C1721 C 0.52512 0.16222 0.27281 0.0
N1722 N 0.51137 0.17937 0.20232 0.0
N1723 N 0.50044 0.16609 0.31235 0.0
H1724 H 0.56011 0.15189 0.2798 0.0
H1725 H 0.5419 0.14858 0.30772 0.0
H1726 H 0.48439 0.16835 0.32186 0.0
H1727 H 0.51453 0.16699 0.32558 0.0
H1728 H 0.49789 0.18575 0.19034 0.0
H1729 H 0.52778 0.18134 0.19356 0.0
H1730 H 0.46754 0.16837 0.20196 0.0
H1731 H 0.44953 0.16733 0.2303 0.0
C1732 C 0.85097 0.50967 0.22926 0.0
C1733 C 0.83769 0.52758 0.24158 0.0
C1734 C 0.82506 0.50063 0.27722 0.0
C1735 C 0.83748 0.48249 0.26418 0.0
N1736 N 0.85868 0.46835 0.2254 0.0
N1737 N 0.80897 0.5396 0.27426 0.0
C1738 C 0.84936 0.48661 0.23943 0.0
C1739 C 0.82376 0.52289 0.26469 0.0
N1740 N 0.86584 0.51489 0.20849 0.0
N1741 N 0.8152 0.49678 0.30204 0.0
H1742 H 0.80773 0.55613 0.26564 0.0
H1743 H 0.7966 0.53659 0.28926 0.0
H1744 H 0.81545 0.4806 0.31159 0.0
H1745 H 0.80819 0.5099 0.31405 0.0
H1746 H 0.87803 0.50325 0.20078 0.0
H1747 H 0.86724 0.53149 0.20014 0.0
H1748 H 0.86529 0.46977 0.20583 0.0
H1749 H 0.8581 0.45127 0.23244 0.0
C1750 C 0.50731 0.83014 0.28221 0.0
C1751 C 0.52589 0.83978 0.26696 0.0
C1752 C 0.49884 0.85079 0.23071 0.0
C1753 C 0.48034 0.84069 0.24568 0.0
N1754 N 0.46698 0.81748 0.2832 0.0
N1755 N 0.54054 0.85572 0.22515 0.0
C1756 C 0.48461 0.82931 0.2707 0.0
C1757 C 0.522 0.84899 0.24067 0.0
N1758 N 0.51131 0.82243 0.30801 0.0
N1759 N 0.49411 0.86278 0.2074 0.0
H1760 H 0.55769 0.85517 0.23204 0.0
H1761 H 0.53923 0.86023 0.20479 0.0
H1762 H 0.4775 0.86377 0.19895 0.0
H1763 H 0.50627 0.87293 0.1972 0.0
H1764 H 0.49818 0.81771 0.32145 0.0
H1765 H 0.52785 0.82198 0.3167 0.0
H1766 H 0.46935 0.8068 0.3 0.0
H1767 H 0.45005 0.81693 0.27557 0.0
C1768 C 0.83781 0.50841 0.78119 0.0
C1769 C 0.84085 0.52813 0.76427 0.0
C1770 C 0.84432 0.50281 0.7245 0.0
C1771 C 0.84005 0.48318 0.74122 0.0
N1772 N 0.8278 0.46752 0.78421 0.0
N1773 N 0.84183 0.54468 0.71941 0.0
C1774 C 0.83525 0.48607 0.76921 0.0
C1775 C 0.84249 0.52549 0.73576 0.0
N1776 N 0.83838 0.51087 0.80873 0.0
N1777 N 0.85115 0.49979 0.69821 0.0
H1778 H 0.84037 0.56156 0.72697 0.0
H1779 H 0.84056 0.54378 0.69839 0.0
H1780 H 0.85275 0.48348 0.68917 0.0
H1781 H 0.85707 0.51331 0.68598 0.0
H1782 H 0.83894 0.49685 0.82208 0.0
H1783 H 0.84017 0.52693 0.81832 0.0
H1784 H 0.82175 0.46898 0.80402 0.0
H1785 H 0.82563 0.45092 0.77604 0.0
C1786 C 0.50938 0.85762 0.73783 0.0
C1787 C 0.52432 0.83831 0.74204 0.0
C1788 C 0.4927 0.81746 0.76501 0.0
C1789 C 0.47872 0.83777 0.76347 0.0
N1790 N 0.47511 0.87855 0.75259 0.0
N1791 N 0.53151 0.80097 0.76265 0.0
C1792 C 0.48741 0.85824 0.75097 0.0
C1793 C 0.51633 0.81847 0.75639 0.0
N1794 N 0.51594 0.87511 0.72069 0.0
N1795 N 0.48321 0.79709 0.77404 0.0
H1796 H 0.5489 0.80104 0.75657 0.0
H1797 H 0.5274 0.78729 0.77561 0.0
H1798 H 0.46598 0.79574 0.78052 0.0
H1799 H 0.49175 0.78115 0.77298 0.0
H1800 H 0.50479 0.88839 0.71459 0.0
H1801 H 0.53184 0.87519 0.71048 0.0
H1802 H 0.48177 0.89456 0.74649 0.0
H1803 H 0.45904 0.87987 0.7623 0.0
C1804 C 0.17893 0.48298 0.74282 0.0
C1805 C 0.16919 0.47915 0.76886 0.0
C1806 C 0.16297 0.52109 0.77406 0.0
C1807 C 0.1695 0.52444 0.74662 0.0
N1808 N 0.18105 0.50819 0.70358 0.0
N1809 N 0.149 0.49414 0.80805 0.0
C1810 C 0.17694 0.5053 0.73065 0.0
C1811 C 0.16055 0.49811 0.78428 0.0
N1812 N 0.19045 0.46536 0.72996 0.0
N1813 N 0.15951 0.5399 0.7905 0.0
H1814 H 0.14664 0.47758 0.81619 0.0
H1815 H 0.14004 0.50705 0.81855 0.0
H1816 H 0.16138 0.557 0.78374 0.0
H1817 H 0.15701 0.53857 0.81134 0.0
H1818 H 0.19992 0.46771 0.71218 0.0
H1819 H 0.19238 0.44884 0.73841 0.0
H1820 H 0.18394 0.49439 0.69035 0.0
H1821 H 0.17968 0.52421 0.69382 0.0
C1822 C 0.48763 0.14665 0.76515 0.0
C1823 C 0.47902 0.16613 0.75058 0.0
C1824 C 0.51716 0.18508 0.75431 0.0
C1825 C 0.52511 0.16639 0.77068 0.0
N1826 N 0.51622 0.13215 0.79695 0.0
N1827 N 0.48398 0.20581 0.73585 0.0
C1828 C 0.50979 0.14801 0.77772 0.0
C1829 C 0.49332 0.18596 0.74652 0.0
N1830 N 0.47514 0.12642 0.76594 0.0
N1831 N 0.53254 0.20147 0.7453 0.0
H1832 H 0.46655 0.20712 0.73012 0.0
H1833 H 0.49291 0.22155 0.73496 0.0
H1834 H 0.55013 0.20141 0.75051 0.0
H1835 H 0.5283 0.21402 0.73091 0.0
H1836 H 0.48174 0.11094 0.77376 0.0
H1837 H 0.45904 0.12441 0.75647 0.0
H1838 H 0.50485 0.11979 0.80488 0.0
H1839 H 0.5322 0.13279 0.80695 0.0
C1840 C 0.6705 0.00666 0.78313 0.0
C1841 C 0.67042 0.02617 0.76555 0.0
C1842 C 0.6728 1.00018 0.72627 0.0
C1843 C 0.66975 0.98079 0.74367 0.0
N1844 N 0.6623 0.96562 0.78847 0.0
N1845 N 0.66829 0.04174 0.72019 0.0
C1846 C 0.6678 0.984 0.7721 0.0
C1847 C 0.67083 0.02303 0.73703 0.0
N1848 N 0.67365 0.00978 0.81034 0.0
N1849 N 0.67808 0.99675 0.69957 0.0
H1850 H 0.66667 0.05876 0.72723 0.0
H1851 H 0.66584 0.04024 0.69937 0.0
H1852 H 0.67982 0.98023 0.69105 0.0
H1853 H 0.68285 0.01014 0.68649 0.0
H1854 H 0.67626 0.9961 0.82384 0.0
H1855 H 0.67585 0.02614 0.8191 0.0
H1856 H 0.6581 0.96742 0.80888 0.0
H1857 H 0.65996 0.94875 0.78122 0.0
C1858 C 1.00136 0.66268 0.78239 0.0
C1859 C 0.98274 0.67174 0.76672 0.0
C1860 C 0.00949 0.67942 0.72904 0.0
C1861 C 0.02826 0.67132 0.74518 0.0
N1862 N 0.0431 0.66018 0.78896 0.0
N1863 N 0.96957 0.69315 0.72766 0.0
C1864 C 0.02449 0.66451 0.77245 0.0
C1865 C 0.98698 0.68152 0.7408 0.0
N1866 N 0.99685 0.65135 0.80619 0.0
N1867 N 0.01294 0.68412 0.70219 0.0
H1868 H 0.95289 0.695 0.73573 0.0
H1869 H 0.97216 0.70269 0.70998 0.0
H1870 H 0.02918 0.68297 0.69287 0.0
H1871 H 0.99944 0.68748 0.68866 0.0
H1872 H 0.00937 0.64204 0.8169 0.0
H1873 H 0.98016 0.64964 0.81423 0.0
H1874 H 0.0416 0.65745 0.80974 0.0
H1875 H 0.0603 0.66146 0.78235 0.0
C1876 C 0.33351 0.00407 0.73022 0.0
C1877 C 0.33478 0.02324 0.74827 0.0
C1878 C 0.33656 0.99669 0.7871 0.0
C1879 C 0.33444 0.97755 0.76913 0.0
N1880 N 0.32645 0.96275 0.72444 0.0
N1881 N 0.33298 0.03836 0.79373 0.0
C1882 C 0.33151 0.98118 0.74091 0.0
C1883 C 0.33488 0.0197 0.77671 0.0
N1884 N 0.33516 0.00769 0.70291 0.0
N1885 N 0.3411 0.99286 0.81393 0.0
H1886 H 0.33188 0.05545 0.78677 0.0
H1887 H 0.33052 0.03685 0.81455 0.0
H1888 H 0.34203 0.97627 0.8224 0.0
H1889 H 0.34555 0.00599 0.82748 0.0
H1890 H 0.3371 0.99435 0.68885 0.0
H1891 H 0.33623 0.02422 0.69429 0.0
H1892 H 0.32173 0.96448 0.70417 0.0
H1893 H 0.32504 0.94574 0.7316 0.0
C1894 C 0.01852 0.32007 0.74974 0.0
C1895 C 0.0256 0.33798 0.76771 0.0
C1896 C 0.98683 0.35563 0.7649 0.0
C1897 C 0.98064 0.33928 0.74462 0.0
N1898 N 0.99115 0.30745 0.71529 0.0
N1899 N 0.01786 0.37475 0.78949 0.0
C1900 C 0.99661 0.32182 0.73642 0.0
C1901 C 0.0101 0.35626 0.7746 0.0
N1902 N 0.03253 0.30113 0.74592 0.0
N1903 N 0.9703 0.37019 0.77536 0.0
H1904 H 0.03478 0.37591 0.79697 0.0
H1905 H 0.00819 0.38983 0.79253 0.0
H1906 H 0.95305 0.37024 0.76877 0.0
H1907 H 0.97312 0.38073 0.79219 0.0
H1908 H 0.02738 0.28636 0.73531 0.0
H1909 H 0.04869 0.29934 0.75533 0.0
H1910 H 1.003 0.29612 0.70636 0.0
H1911 H 0.97517 0.30806 0.70527 0.0
C1912 C 0.33174 0.02649 0.24072 0.0
C1913 C 0.33762 0.02934 0.26843 0.0
C1914 C 0.34106 0.98706 0.27355 0.0
C1915 C 0.33815 0.9845 0.24517 0.0
N1916 N 0.33295 1.00169 0.20101 0.0
N1917 N 0.35038 0.01283 0.31085 0.0
C1918 C 0.33392 0.00419 0.22853 0.0
C1919 C 0.3428 0.00974 0.28484 0.0
N1920 N 0.32368 0.04508 0.22621 0.0
N1921 N 0.34174 0.96778 0.28974 0.0
H1922 H 0.35171 0.02914 0.31996 0.0
H1923 H 0.35702 0.99945 0.32277 0.0
H1924 H 0.34053 0.95091 0.28212 0.0
H1925 H 0.34141 0.96849 0.31081 0.0
H1926 H 0.31685 0.04371 0.20674 0.0
H1927 H 0.32191 0.06167 0.23453 0.0
H1928 H 0.33262 0.01565 0.1876 0.0
H1929 H 0.33421 0.9856 0.19136 0.0
C1930 C 0.99484 0.35613 0.273 0.0
C1931 C 0.98021 0.33644 0.26998 0.0
C1932 C 0.01245 0.31462 0.24954 0.0
C1933 C 0.02623 0.33511 0.24992 0.0
N1934 N 0.02939 0.37642 0.25791 0.0
N1935 N 0.97383 0.29771 0.25292 0.0
C1936 C 0.01715 0.35615 0.26064 0.0
C1937 C 0.98868 0.31583 0.25763 0.0
N1938 N 0.98754 0.37466 0.28814 0.0
N1939 N 0.02227 0.29393 0.2421 0.0
H1940 H 0.95647 0.29782 0.25913 0.0
H1941 H 0.9782 0.28326 0.24128 0.0
H1942 H 0.03959 0.29247 0.23601 0.0
H1943 H 0.01389 0.27797 0.24401 0.0
H1944 H 0.99838 0.3884 0.2936 0.0
H1945 H 0.97122 0.37536 0.29736 0.0
H1946 H 0.02254 0.3927 0.26258 0.0
H1947 H 0.04569 0.37732 0.24869 0.0
C1948 C 0.65732 0.99989 0.28266 0.0
C1949 C 0.67015 0.98185 0.26994 0.0
C1950 C 0.68229 0.00863 0.23392 0.0
C1951 C 0.67003 0.02681 0.24709 0.0
N1952 N 0.64964 0.04127 0.28627 0.0
N1953 N 0.69814 0.96953 0.23658 0.0
C1954 C 0.65872 0.02289 0.27223 0.0
C1955 C 0.68369 0.9864 0.2465 0.0
N1956 N 0.64308 0.99483 0.30407 0.0
N1957 N 0.69188 0.01242 0.20895 0.0
H1958 H 0.69938 0.95301 0.2452 0.0
H1959 H 0.71024 0.97239 0.22125 0.0
H1960 H 0.69173 0.02864 0.19946 0.0
H1961 H 0.69871 0.99928 0.19683 0.0
H1962 H 0.63118 0.00656 0.3122 0.0
H1963 H 0.64195 0.9783 0.31268 0.0
H1964 H 0.64336 0.04003 0.306 0.0
H1965 H 0.6501 0.05829 0.27902 0.0
C1966 C 0.0135 0.68647 0.26831 0.0
C1967 C 0.02683 0.66571 0.2676 0.0
C1968 C 0.99496 0.64546 0.24449 0.0
C1969 C 0.98095 0.66566 0.24711 0.0
N1970 N 0.97538 0.70442 0.26449 0.0
N1971 N 0.02934 0.62449 0.25911 0.0
C1972 C 0.98982 0.68594 0.25984 0.0
C1973 C 0.0173 0.64492 0.25682 0.0
N1974 N 0.0237 0.7068 0.27642 0.0
N1975 N 0.98715 0.62703 0.22952 0.0
H1976 H 0.04585 0.62339 0.26781 0.0
H1977 H 0.02226 0.60831 0.25444 0.0
H1978 H 0.9708 0.62667 0.22034 0.0
H1979 H 0.99753 0.61288 0.22428 0.0
H1980 H 0.01578 0.723 0.27462 0.0
H1981 H 0.04088 0.70772 0.28319 0.0
H1982 H 0.97999 0.7187 0.27626 0.0
H1983 H 0.95806 0.70474 0.25818 0.0
loop_
_geom_bond_atom_site_label_1
_geom_bond_atom_site_label_2
_geom_bond_distance
_geom_bond_site_symmetry_2
_ccdc_geom_bond_type
Li0 N17 1.990 . S
Li0 O60 1.956 . S
Li0 O61 1.970 . S
Li0 O62 1.961 . S
Li1 N25 1.990 . S
Li1 O60 1.970 . S
Li1 O61 1.956 . S
Li1 O63 1.961 . S
Li2 N47 1.990 . S
Li2 O60 1.961 . S
Li2 O62 1.956 . S
Li2 O63 1.970 . S
Li3 N53 1.990 . S
Li3 O61 1.961 . S
Li3 O62 1.970 . S
Li3 O63 1.956 . S
C4 C6 1.348 . S
C4 C7 1.356 . S
C4 O60 1.325 . S
N5 C8 1.314 . S
N5 C9 1.279 . S
C6 C4 1.348 . S
C6 C8 1.353 . S
C6 H64 0.929 . S
C7 C4 1.356 . S
C7 C9 1.358 . S
C7 H65 0.930 . S
C8 N5 1.314 . S
C8 C6 1.353 . S
C8 H66 0.930 . S
C9 N5 1.279 . S
C9 C7 1.358 . S
C9 H67 0.930 . S
C10 C13 1.348 . S
C10 C14 1.356 . S
C10 O61 1.325 . S
C11 N12 1.279 . S
C11 C14 1.358 . S
C11 H68 0.930 . S
N12 C11 1.279 . S
N12 C15 1.314 . S
C13 C10 1.348 . S
C13 C15 1.353 . S
C13 H69 0.929 . S
C14 C10 1.356 . S
C14 C11 1.358 . S
C14 H70 0.930 . S
C15 N12 1.314 . S
C15 C13 1.353 . S
C15 H71 0.930 . S
C16 N17 1.314 . S
C16 C21 1.353 . S
C16 H22 0.930 . S
N17 Li0 1.990 . S
N17 C16 1.314 . S
N17 C19 1.279 . S
C18 C19 1.358 . S
C18 C20 1.356 . S
C18 H72 0.930 . S
C19 N17 1.279 . S
C19 C18 1.358 . S
C19 H23 0.930 . S
C20 C18 1.356 . S
C20 C21 1.348 . S
C21 C16 1.353 . S
C21 C20 1.348 . S
C21 H73 0.929 . S
H22 C16 0.930 . S
H23 C19 0.930 . S
C24 N25 1.314 . S
C24 C26 1.353 . S
C24 H30 0.930 . S
N25 Li1 1.990 . S
N25 C24 1.314 . S
N25 C28 1.279 . S
C26 C24 1.353 . S
C26 C29 1.348 . S
C26 H74 0.929 . S
C27 C28 1.358 . S
C27 C29 1.356 . S
C27 H75 0.930 . S
C28 N25 1.279 . S
C28 C27 1.358 . S
C28 H31 0.930 . S
C29 C26 1.348 . S
C29 C27 1.356 . S
H30 C24 0.930 . S
H31 C28 0.930 . S
C32 C34 1.348 . S
C32 C35 1.356 . S
C32 O62 1.325 . S
N33 C36 1.314 . S
N33 C37 1.279 . S
C34 C32 1.348 . S
C34 C36 1.353 . S
C34 H76 0.929 . S
C35 C32 1.356 . S
C35 C37 1.358 . S
C35 H77 0.930 . S
C36 N33 1.314 . S
C36 C34 1.353 . S
C36 H78 0.930 . S
C37 N33 1.279 . S
C37 C35 1.358 . S
C37 H79 0.930 . S
C38 C39 1.348 . S
C38 C40 1.356 . S
C38 O63 1.325 . S
C39 C38 1.348 . S
C39 C41 1.353 . S
C39 H80 0.929 . S
C40 C38 1.356 . S
C40 C42 1.358 . S
C40 H81 0.930 . S
C41 C39 1.353 . S
C41 N43 1.314 . S
C41 H82 0.930 . S
C42 C40 1.358 . S
C42 N43 1.279 . S
C42 H83 0.930 . S
N43 C41 1.314 . S
N43 C42 1.279 . S
C44 C46 1.353 . S
C44 N47 1.314 . S
C44 H50 0.930 . S
C45 N47 1.279 . S
C45 C48 1.358 . S
C45 H51 0.930 . S
C46 C44 1.353 . S
C46 C49 1.348 . S
C46 H84 0.929 . S
N47 Li2 1.990 . S
N47 C44 1.314 . S
N47 C45 1.279 . S
C48 C45 1.358 . S
C48 C49 1.356 . S
C48 H85 0.930 . S
C49 C46 1.348 . S
C49 C48 1.356 . S
H50 C44 0.930 . S
H51 C45 0.930 . S
C52 N53 1.314 . S
C52 C54 1.353 . S
C52 H58 0.930 . S
N53 Li3 1.990 . S
N53 C52 1.314 . S
N53 C56 1.279 . S
C54 C52 1.353 . S
C54 C57 1.348 . S
C54 H86 0.929 . S
C55 C56 1.358 . S
C55 C57 1.356 . S
C55 H87 0.930 . S
C56 N53 1.279 . S
C56 C55 1.358 . S
C56 H59 0.930 . S
C57 C54 1.348 . S
C57 C55 1.356 . S
H58 C52 0.930 . S
H59 C56 0.930 . S
O60 Li0 1.956 . S
O60 Li1 1.970 . S
O60 Li2 1.961 . S
O60 C4 1.325 . S
O61 Li0 1.970 . S
O61 Li1 1.956 . S
O61 Li3 1.961 . S
O61 C10 1.325 . S
O62 Li0 1.961 . S
O62 Li2 1.956 . S
O62 Li3 1.970 . S
O62 C32 1.325 . S
O63 Li1 1.961 . S
O63 Li2 1.970 . S
O63 Li3 1.956 . S
O63 C38 1.325 . S
H64 C6 0.929 . S
H65 C7 0.930 . S
H66 C8 0.930 . S
H67 C9 0.930 . S
H68 C11 0.930 . S
H69 C13 0.929 . S
H70 C14 0.930 . S
H71 C15 0.930 . S
H72 C18 0.930 . S
H73 C21 0.929 . S
H74 C26 0.929 . S
H75 C27 0.930 . S
H76 C34 0.929 . S
H77 C35 0.930 . S
H78 C36 0.930 . S
H79 C37 0.930 . S
H80 C39 0.929 . S
H81 C40 0.930 . S
H82 C41 0.930 . S
H83 C42 0.930 . S
H84 C46 0.929 . S
H85 C48 0.930 . S
H86 C54 0.929 . S
H87 C55 0.930 . S
Li88 N105 1.990 . S
Li88 O148 1.956 . S
Li88 O149 1.970 . S
Li88 O150 1.961 . S
Li89 N113 1.990 . S
Li89 O148 1.970 . S
Li89 O149 1.956 . S
Li89 O151 1.961 . S
Li90 N135 1.990 . S
Li90 O148 1.961 . S
Li90 O150 1.956 . S
Li90 O151 1.970 . S
Li91 N141 1.990 . S
Li91 O149 1.961 . S
Li91 O150 1.970 . S
Li91 O151 1.956 . S
C92 C94 1.348 . S
C92 C95 1.356 . S
C92 O148 1.325 . S
N93 C96 1.314 . S
N93 C97 1.279 . S
C94 C92 1.348 . S
C94 C96 1.353 . S
C94 H152 0.929 . S
C95 C92 1.356 . S
C95 C97 1.358 . S
C95 H153 0.930 . S
C96 N93 1.314 . S
C96 C94 1.353 . S
C96 H154 0.930 . S
C97 N93 1.279 . S
C97 C95 1.358 . S
C97 H155 0.930 . S
C98 C101 1.348 . S
C98 C102 1.356 . S
C98 O149 1.325 . S
C99 N100 1.279 . S
C99 C102 1.358 . S
C99 H156 0.930 . S
N100 C99 1.279 . S
N100 C103 1.314 . S
C101 C98 1.348 . S
C101 C103 1.353 . S
C101 H157 0.929 . S
C102 C98 1.356 . S
C102 C99 1.358 . S
C102 H158 0.930 . S
C103 N100 1.314 . S
C103 C101 1.353 . S
C103 H159 0.930 . S
C104 N105 1.314 . S
C104 C109 1.353 . S
C104 H110 0.930 . S
N105 Li88 1.990 . S
N105 C104 1.314 . S
N105 C107 1.279 . S
C106 C107 1.358 . S
C106 C108 1.356 . S
C106 H160 0.930 . S
C107 N105 1.279 . S
C107 C106 1.358 . S
C107 H111 0.930 . S
C108 C106 1.356 . S
C108 C109 1.348 . S
C109 C104 1.353 . S
C109 C108 1.348 . S
C109 H161 0.929 . S
H110 C104 0.930 . S
H111 C107 0.930 . S
C112 N113 1.314 . S
C112 C114 1.353 . S
C112 H118 0.930 . S
N113 Li89 1.990 . S
N113 C112 1.314 . S
N113 C116 1.279 . S
C114 C112 1.353 . S
C114 C117 1.348 . S
C114 H162 0.929 . S
C115 C116 1.358 . S
C115 C117 1.356 . S
C115 H163 0.930 . S
C116 N113 1.279 . S
C116 C115 1.358 . S
C116 H119 0.930 . S
C117 C114 1.348 . S
C117 C115 1.356 . S
H118 C112 0.930 . S
H119 C116 0.930 . S
C120 C122 1.348 . S
C120 C123 1.356 . S
C120 O150 1.325 . S
N121 C124 1.314 . S
N121 C125 1.279 . S
C122 C120 1.348 . S
C122 C124 1.353 . S
C122 H164 0.929 . S
C123 C120 1.356 . S
C123 C125 1.358 . S
C123 H165 0.930 . S
C124 N121 1.314 . S
C124 C122 1.353 . S
C124 H166 0.930 . S
C125 N121 1.279 . S
C125 C123 1.358 . S
C125 H167 0.930 . S
C126 C127 1.348 . S
C126 C128 1.356 . S
C126 O151 1.325 . S
C127 C126 1.348 . S
C127 C129 1.353 . S
C127 H168 0.929 . S
C128 C126 1.356 . S
C128 C130 1.358 . S
C128 H169 0.930 . S
C129 C127 1.353 . S
C129 N131 1.314 . S
C129 H170 0.930 . S
C130 C128 1.358 . S
C130 N131 1.279 . S
C130 H171 0.930 . S
N131 C129 1.314 . S
N131 C130 1.279 . S
C132 C134 1.353 . S
C132 N135 1.314 . S
C132 H138 0.930 . S
C133 N135 1.279 . S
C133 C136 1.358 . S
C133 H139 0.930 . S
C134 C132 1.353 . S
C134 C137 1.348 . S
C134 H172 0.929 . S
N135 Li90 1.990 . S
N135 C132 1.314 . S
N135 C133 1.279 . S
C136 C133 1.358 . S
C136 C137 1.356 . S
C136 H173 0.930 . S
C137 C134 1.348 . S
C137 C136 1.356 . S
H138 C132 0.930 . S
H139 C133 0.930 . S
C140 N141 1.314 . S
C140 C142 1.353 . S
C140 H146 0.930 . S
N141 Li91 1.990 . S
N141 C140 1.314 . S
N141 C144 1.279 . S
C142 C140 1.353 . S
C142 C145 1.348 . S
C142 H174 0.929 . S
C143 C144 1.358 . S
C143 C145 1.356 . S
C143 H175 0.930 . S
C144 N141 1.279 . S
C144 C143 1.358 . S
C144 H147 0.930 . S
C145 C142 1.348 . S
C145 C143 1.356 . S
H146 C140 0.930 . S
H147 C144 0.930 . S
O148 Li88 1.956 . S
O148 Li89 1.970 . S
O148 Li90 1.961 . S
O148 C92 1.325 . S
O149 Li88 1.970 . S
O149 Li89 1.956 . S
O149 Li91 1.961 . S
O149 C98 1.325 . S
O150 Li88 1.961 . S
O150 Li90 1.956 . S
O150 Li91 1.970 . S
O150 C120 1.325 . S
O151 Li89 1.961 . S
O151 Li90 1.970 . S
O151 Li91 1.956 . S
O151 C126 1.325 . S
H152 C94 0.929 . S
H153 C95 0.930 . S
H154 C96 0.930 . S
H155 C97 0.930 . S
H156 C99 0.930 . S
H157 C101 0.929 . S
H158 C102 0.930 . S
H159 C103 0.930 . S
H160 C106 0.930 . S
H161 C109 0.929 . S
H162 C114 0.929 . S
H163 C115 0.930 . S
H164 C122 0.929 . S
H165 C123 0.930 . S
H166 C124 0.930 . S
H167 C125 0.930 . S
H168 C127 0.929 . S
H169 C128 0.930 . S
H170 C129 0.930 . S
H171 C130 0.930 . S
H172 C134 0.929 . S
H173 C136 0.930 . S
H174 C142 0.929 . S
H175 C143 0.930 . S
Li176 N193 1.990 . S
Li176 O236 1.956 . S
Li176 O237 1.970 . S
Li176 O238 1.961 . S
Li177 N201 1.990 . S
Li177 O236 1.970 . S
Li177 O237 1.956 . S
Li177 O239 1.961 . S
Li178 N223 1.990 . S
Li178 O236 1.961 . S
Li178 O238 1.956 . S
Li178 O239 1.970 . S
Li179 N229 1.990 . S
Li179 O237 1.961 . S
Li179 O238 1.970 . S
Li179 O239 1.956 . S
C180 C182 1.348 . S
C180 C183 1.356 . S
C180 O236 1.325 . S
N181 C184 1.314 . S
N181 C185 1.279 . S
C182 C180 1.348 . S
C182 C184 1.353 . S
C182 H240 0.929 . S
C183 C180 1.356 . S
C183 C185 1.358 . S
C183 H241 0.930 . S
C184 N181 1.314 . S
C184 C182 1.353 . S
C184 H242 0.930 . S
C185 N181 1.279 . S
C185 C183 1.358 . S
C185 H243 0.930 . S
C186 C189 1.348 . S
C186 C190 1.356 . S
C186 O237 1.325 . S
C187 N188 1.279 . S
C187 C190 1.358 . S
C187 H244 0.930 . S
N188 C187 1.279 . S
N188 C191 1.314 . S
C189 C186 1.348 . S
C189 C191 1.353 . S
C189 H245 0.929 . S
C190 C186 1.356 . S
C190 C187 1.358 . S
C190 H246 0.930 . S
C191 N188 1.314 . S
C191 C189 1.353 . S
C191 H247 0.930 . S
C192 N193 1.314 . S
C192 C197 1.353 . S
C192 H198 0.930 . S
N193 Li176 1.990 . S
N193 C192 1.314 . S
N193 C195 1.279 . S
C194 C195 1.358 . S
C194 C196 1.356 . S
C194 H248 0.930 . S
C195 N193 1.279 . S
C195 C194 1.358 . S
C195 H199 0.930 . S
C196 C194 1.356 . S
C196 C197 1.348 . S
C197 C192 1.353 . S
C197 C196 1.348 . S
C197 H249 0.929 . S
H198 C192 0.930 . S
H199 C195 0.930 . S
C200 N201 1.314 . S
C200 C202 1.353 . S
C200 H206 0.930 . S
N201 Li177 1.990 . S
N201 C200 1.314 . S
N201 C204 1.279 . S
C202 C200 1.353 . S
C202 C205 1.348 . S
C202 H250 0.929 . S
C203 C204 1.358 . S
C203 C205 1.356 . S
C203 H251 0.930 . S
C204 N201 1.279 . S
C204 C203 1.358 . S
C204 H207 0.930 . S
C205 C202 1.348 . S
C205 C203 1.356 . S
H206 C200 0.930 . S
H207 C204 0.930 . S
C208 C210 1.348 . S
C208 C211 1.356 . S
C208 O238 1.325 . S
N209 C212 1.314 . S
N209 C213 1.279 . S
C210 C208 1.348 . S
C210 C212 1.353 . S
C210 H252 0.929 . S
C211 C208 1.356 . S
C211 C213 1.358 . S
C211 H253 0.930 . S
C212 N209 1.314 . S
C212 C210 1.353 . S
C212 H254 0.930 . S
C213 N209 1.279 . S
C213 C211 1.358 . S
C213 H255 0.930 . S
C214 C215 1.348 . S
C214 C216 1.356 . S
C214 O239 1.325 . S
C215 C214 1.348 . S
C215 C217 1.353 . S
C215 H256 0.929 . S
C216 C214 1.356 . S
C216 C218 1.358 . S
C216 H257 0.930 . S
C217 C215 1.353 . S
C217 N219 1.314 . S
C217 H258 0.930 . S
C218 C216 1.358 . S
C218 N219 1.279 . S
C218 H259 0.930 . S
N219 C217 1.314 . S
N219 C218 1.279 . S
C220 C222 1.353 . S
C220 N223 1.314 . S
C220 H226 0.930 . S
C221 N223 1.279 . S
C221 C224 1.358 . S
C221 H227 0.930 . S
C222 C220 1.353 . S
C222 C225 1.348 . S
C222 H260 0.929 . S
N223 Li178 1.990 . S
N223 C220 1.314 . S
N223 C221 1.279 . S
C224 C221 1.358 . S
C224 C225 1.356 . S
C224 H261 0.930 . S
C225 C222 1.348 . S
C225 C224 1.356 . S
H226 C220 0.930 . S
H227 C221 0.930 . S
C228 N229 1.314 . S
C228 C230 1.353 . S
C228 H234 0.930 . S
N229 Li179 1.990 . S
N229 C228 1.314 . S
N229 C232 1.279 . S
C230 C228 1.353 . S
C230 C233 1.348 . S
C230 H262 0.929 . S
C231 C232 1.358 . S
C231 C233 1.356 . S
C231 H263 0.930 . S
C232 N229 1.279 . S
C232 C231 1.358 . S
C232 H235 0.930 . S
C233 C230 1.348 . S
C233 C231 1.356 . S
H234 C228 0.930 . S
H235 C232 0.930 . S
O236 Li176 1.956 . S
O236 Li177 1.970 . S
O236 Li178 1.961 . S
O236 C180 1.325 . S
O237 Li176 1.970 . S
O237 Li177 1.956 . S
O237 Li179 1.961 . S
O237 C186 1.325 . S
O238 Li176 1.961 . S
O238 Li178 1.956 . S
O238 Li179 1.970 . S
O238 C208 1.325 . S
O239 Li177 1.961 . S
O239 Li178 1.970 . S
O239 Li179 1.956 . S
O239 C214 1.325 . S
H240 C182 0.929 . S
H241 C183 0.930 . S
H242 C184 0.930 . S
H243 C185 0.930 . S
H244 C187 0.930 . S
H245 C189 0.929 . S
H246 C190 0.930 . S
H247 C191 0.930 . S
H248 C194 0.930 . S
H249 C197 0.929 . S
H250 C202 0.929 . S
H251 C203 0.930 . S
H252 C210 0.929 . S
H253 C211 0.930 . S
H254 C212 0.930 . S
H255 C213 0.930 . S
H256 C215 0.929 . S
H257 C216 0.930 . S
H258 C217 0.930 . S
H259 C218 0.930 . S
H260 C222 0.929 . S
H261 C224 0.930 . S
H262 C230 0.929 . S
H263 C231 0.930 . S
Li264 N281 1.990 . S
Li264 O324 1.956 . S
Li264 O325 1.970 . S
Li264 O326 1.961 . S
Li265 N289 1.990 . S
Li265 O324 1.970 . S
Li265 O325 1.956 . S
Li265 O327 1.961 . S
Li266 N311 1.990 . S
Li266 O324 1.961 . S
Li266 O326 1.956 . S
Li266 O327 1.970 . S
Li267 N317 1.990 . S
Li267 O325 1.961 . S
Li267 O326 1.970 . S
Li267 O327 1.956 . S
C268 C270 1.348 . S
C268 C271 1.356 . S
C268 O324 1.325 . S
N269 C272 1.314 . S
N269 C273 1.279 . S
C270 C268 1.348 . S
C270 C272 1.353 . S
C270 H328 0.929 . S
C271 C268 1.356 . S
C271 C273 1.358 . S
C271 H329 0.930 . S
C272 N269 1.314 . S
C272 C270 1.353 . S
C272 H330 0.930 . S
C273 N269 1.279 . S
C273 C271 1.358 . S
C273 H331 0.930 . S
C274 C277 1.348 . S
C274 C278 1.356 . S
C274 O325 1.325 . S
C275 N276 1.279 . S
C275 C278 1.358 . S
C275 H332 0.930 . S
N276 C275 1.279 . S
N276 C279 1.314 . S
C277 C274 1.348 . S
C277 C279 1.353 . S
C277 H333 0.929 . S
C278 C274 1.356 . S
C278 C275 1.358 . S
C278 H334 0.930 . S
C279 N276 1.314 . S
C279 C277 1.353 . S
C279 H335 0.930 . S
C280 N281 1.314 . S
C280 C285 1.353 . S
C280 H286 0.930 . S
N281 Li264 1.990 . S
N281 C280 1.314 . S
N281 C283 1.279 . S
C282 C283 1.358 . S
C282 C284 1.356 . S
C282 H336 0.930 . S
C283 N281 1.279 . S
C283 C282 1.358 . S
C283 H287 0.930 . S
C284 C282 1.356 . S
C284 C285 1.348 . S
C285 C280 1.353 . S
C285 C284 1.348 . S
C285 H337 0.929 . S
H286 C280 0.930 . S
H287 C283 0.930 . S
C288 N289 1.314 . S
C288 C290 1.353 . S
C288 H294 0.930 . S
N289 Li265 1.990 . S
N289 C288 1.314 . S
N289 C292 1.279 . S
C290 C288 1.353 . S
C290 C293 1.348 . S
C290 H338 0.929 . S
C291 C292 1.358 . S
C291 C293 1.356 . S
C291 H339 0.930 . S
C292 N289 1.279 . S
C292 C291 1.358 . S
C292 H295 0.930 . S
C293 C290 1.348 . S
C293 C291 1.356 . S
H294 C288 0.930 . S
H295 C292 0.930 . S
C296 C298 1.348 . S
C296 C299 1.356 . S
C296 O326 1.325 . S
N297 C300 1.314 . S
N297 C301 1.279 . S
C298 C296 1.348 . S
C298 C300 1.353 . S
C298 H340 0.929 . S
C299 C296 1.356 . S
C299 C301 1.358 . S
C299 H341 0.930 . S
C300 N297 1.314 . S
C300 C298 1.353 . S
C300 H342 0.930 . S
C301 N297 1.279 . S
C301 C299 1.358 . S
C301 H343 0.930 . S
C302 C303 1.348 . S
C302 C304 1.356 . S
C302 O327 1.325 . S
C303 C302 1.348 . S
C303 C305 1.353 . S
C303 H344 0.929 . S
C304 C302 1.356 . S
C304 C306 1.358 . S
C304 H345 0.930 . S
C305 C303 1.353 . S
C305 N307 1.314 . S
C305 H346 0.930 . S
C306 C304 1.358 . S
C306 N307 1.279 . S
C306 H347 0.930 . S
N307 C305 1.314 . S
N307 C306 1.279 . S
C308 C310 1.353 . S
C308 N311 1.314 . S
C308 H314 0.930 . S
C309 N311 1.279 . S
C309 C312 1.358 . S
C309 H315 0.930 . S
C310 C308 1.353 . S
C310 C313 1.348 . S
C310 H348 0.929 . S
N311 Li266 1.990 . S
N311 C308 1.314 . S
N311 C309 1.279 . S
C312 C309 1.358 . S
C312 C313 1.356 . S
C312 H349 0.930 . S
C313 C310 1.348 . S
C313 C312 1.356 . S
H314 C308 0.930 . S
H315 C309 0.930 . S
C316 N317 1.314 . S
C316 C318 1.353 . S
C316 H322 0.930 . S
N317 Li267 1.990 . S
N317 C316 1.314 . S
N317 C320 1.279 . S
C318 C316 1.353 . S
C318 C321 1.348 . S
C318 H350 0.929 . S
C319 C320 1.358 . S
C319 C321 1.356 . S
C319 H351 0.930 . S
C320 N317 1.279 . S
C320 C319 1.358 . S
C320 H323 0.930 . S
C321 C318 1.348 . S
C321 C319 1.356 . S
H322 C316 0.930 . S
H323 C320 0.930 . S
O324 Li264 1.956 . S
O324 Li265 1.970 . S
O324 Li266 1.961 . S
O324 C268 1.325 . S
O325 Li264 1.970 . S
O325 Li265 1.956 . S
O325 Li267 1.961 . S
O325 C274 1.325 . S
O326 Li264 1.961 . S
O326 Li266 1.956 . S
O326 Li267 1.970 . S
O326 C296 1.325 . S
O327 Li265 1.961 . S
O327 Li266 1.970 . S
O327 Li267 1.956 . S
O327 C302 1.325 . S
H328 C270 0.929 . S
H329 C271 0.930 . S
H330 C272 0.930 . S
H331 C273 0.930 . S
H332 C275 0.930 . S
H333 C277 0.929 . S
H334 C278 0.930 . S
H335 C279 0.930 . S
H336 C282 0.930 . S
H337 C285 0.929 . S
H338 C290 0.929 . S
H339 C291 0.930 . S
H340 C298 0.929 . S
H341 C299 0.930 . S
H342 C300 0.930 . S
H343 C301 0.930 . S
H344 C303 0.929 . S
H345 C304 0.930 . S
H346 C305 0.930 . S
H347 C306 0.930 . S
H348 C310 0.929 . S
H349 C312 0.930 . S
H350 C318 0.929 . S
H351 C319 0.930 . S
Li352 N369 1.990 . S
Li352 O412 1.956 . S
Li352 O413 1.970 . S
Li352 O414 1.961 . S
Li353 N377 1.990 . S
Li353 O412 1.970 . S
Li353 O413 1.956 . S
Li353 O415 1.961 . S
Li354 N399 1.990 . S
Li354 O412 1.961 . S
Li354 O414 1.956 . S
Li354 O415 1.970 . S
Li355 N405 1.990 . S
Li355 O413 1.961 . S
Li355 O414 1.970 . S
Li355 O415 1.956 . S
C356 C358 1.348 . S
C356 C359 1.356 . S
C356 O412 1.325 . S
N357 C360 1.314 . S
N357 C361 1.279 . S
C358 C356 1.348 . S
C358 C360 1.353 . S
C358 H416 0.929 . S
C359 C356 1.356 . S
C359 C361 1.358 . S
C359 H417 0.930 . S
C360 N357 1.314 . S
C360 C358 1.353 . S
C360 H418 0.930 . S
C361 N357 1.279 . S
C361 C359 1.358 . S
C361 H419 0.930 . S
C362 C365 1.348 . S
C362 C366 1.356 . S
C362 O413 1.325 . S
C363 N364 1.279 . S
C363 C366 1.358 . S
C363 H420 0.930 . S
N364 C363 1.279 . S
N364 C367 1.314 . S
C365 C362 1.348 . S
C365 C367 1.353 . S
C365 H421 0.929 . S
C366 C362 1.356 . S
C366 C363 1.358 . S
C366 H422 0.930 . S
C367 N364 1.314 . S
C367 C365 1.353 . S
C367 H423 0.930 . S
C368 N369 1.314 . S
C368 C373 1.353 . S
C368 H374 0.930 . S
N369 Li352 1.990 . S
N369 C368 1.314 . S
N369 C371 1.279 . S
C370 C371 1.358 . S
C370 C372 1.356 . S
C370 H424 0.930 . S
C371 N369 1.279 . S
C371 C370 1.358 . S
C371 H375 0.930 . S
C372 C370 1.356 . S
C372 C373 1.348 . S
C373 C368 1.353 . S
C373 C372 1.348 . S
C373 H425 0.929 . S
H374 C368 0.930 . S
H375 C371 0.930 . S
C376 N377 1.314 . S
C376 C378 1.353 . S
C376 H382 0.930 . S
N377 Li353 1.990 . S
N377 C376 1.314 . S
N377 C380 1.279 . S
C378 C376 1.353 . S
C378 C381 1.348 . S
C378 H426 0.929 . S
C379 C380 1.358 . S
C379 C381 1.356 . S
C379 H427 0.930 . S
C380 N377 1.279 . S
C380 C379 1.358 . S
C380 H383 0.930 . S
C381 C378 1.348 . S
C381 C379 1.356 . S
H382 C376 0.930 . S
H383 C380 0.930 . S
C384 C386 1.348 . S
C384 C387 1.356 . S
C384 O414 1.325 . S
N385 C388 1.314 . S
N385 C389 1.279 . S
C386 C384 1.348 . S
C386 C388 1.353 . S
C386 H428 0.929 . S
C387 C384 1.356 . S
C387 C389 1.358 . S
C387 H429 0.930 . S
C388 N385 1.314 . S
C388 C386 1.353 . S
C388 H430 0.930 . S
C389 N385 1.279 . S
C389 C387 1.358 . S
C389 H431 0.930 . S
C390 C391 1.348 . S
C390 C392 1.356 . S
C390 O415 1.325 . S
C391 C390 1.348 . S
C391 C393 1.353 . S
C391 H432 0.929 . S
C392 C390 1.356 . S
C392 C394 1.358 . S
C392 H433 0.930 . S
C393 C391 1.353 . S
C393 N395 1.314 . S
C393 H434 0.930 . S
C394 C392 1.358 . S
C394 N395 1.279 . S
C394 H435 0.930 . S
N395 C393 1.314 . S
N395 C394 1.279 . S
C396 C398 1.353 . S
C396 N399 1.314 . S
C396 H402 0.930 . S
C397 N399 1.279 . S
C397 C400 1.358 . S
C397 H403 0.930 . S
C398 C396 1.353 . S
C398 C401 1.348 . S
C398 H436 0.929 . S
N399 Li354 1.990 . S
N399 C396 1.314 . S
N399 C397 1.279 . S
C400 C397 1.358 . S
C400 C401 1.356 . S
C400 H437 0.930 . S
C401 C398 1.348 . S
C401 C400 1.356 . S
H402 C396 0.930 . S
H403 C397 0.930 . S
C404 N405 1.314 . S
C404 C406 1.353 . S
C404 H410 0.930 . S
N405 Li355 1.990 . S
N405 C404 1.314 . S
N405 C408 1.279 . S
C406 C404 1.353 . S
C406 C409 1.348 . S
C406 H438 0.929 . S
C407 C408 1.358 . S
C407 C409 1.356 . S
C407 H439 0.930 . S
C408 N405 1.279 . S
C408 C407 1.358 . S
C408 H411 0.930 . S
C409 C406 1.348 . S
C409 C407 1.356 . S
H410 C404 0.930 . S
H411 C408 0.930 . S
O412 Li352 1.956 . S
O412 Li353 1.970 . S
O412 Li354 1.961 . S
O412 C356 1.325 . S
O413 Li352 1.970 . S
O413 Li353 1.956 . S
O413 Li355 1.961 . S
O413 C362 1.325 . S
O414 Li352 1.961 . S
O414 Li354 1.956 . S
O414 Li355 1.970 . S
O414 C384 1.325 . S
O415 Li353 1.961 . S
O415 Li354 1.970 . S
O415 Li355 1.956 . S
O415 C390 1.325 . S
H416 C358 0.929 . S
H417 C359 0.930 . S
H418 C360 0.930 . S
H419 C361 0.930 . S
H420 C363 0.930 . S
H421 C365 0.929 . S
H422 C366 0.930 . S
H423 C367 0.930 . S
H424 C370 0.930 . S
H425 C373 0.929 . S
H426 C378 0.929 . S
H427 C379 0.930 . S
H428 C386 0.929 . S
H429 C387 0.930 . S
H430 C388 0.930 . S
H431 C389 0.930 . S
H432 C391 0.929 . S
H433 C392 0.930 . S
H434 C393 0.930 . S
H435 C394 0.930 . S
H436 C398 0.929 . S
H437 C400 0.930 . S
H438 C406 0.929 . S
H439 C407 0.930 . S
Li440 N457 1.990 . S
Li440 O500 1.956 . S
Li440 O501 1.970 . S
Li440 O502 1.961 . S
Li441 N465 1.990 . S
Li441 O500 1.970 . S
Li441 O501 1.956 . S
Li441 O503 1.961 . S
Li442 N487 1.990 . S
Li442 O500 1.961 . S
Li442 O502 1.956 . S
Li442 O503 1.970 . S
Li443 N493 1.990 . S
Li443 O501 1.961 . S
Li443 O502 1.970 . S
Li443 O503 1.956 . S
C444 C446 1.348 . S
C444 C447 1.356 . S
C444 O500 1.325 . S
N445 C448 1.314 . S
N445 C449 1.279 . S
C446 C444 1.348 . S
C446 C448 1.353 . S
C446 H504 0.929 . S
C447 C444 1.356 . S
C447 C449 1.358 . S
C447 H505 0.930 . S
C448 N445 1.314 . S
C448 C446 1.353 . S
C448 H506 0.930 . S
C449 N445 1.279 . S
C449 C447 1.358 . S
C449 H507 0.930 . S
C450 C453 1.348 . S
C450 C454 1.356 . S
C450 O501 1.325 . S
C451 N452 1.279 . S
C451 C454 1.358 . S
C451 H508 0.930 . S
N452 C451 1.279 . S
N452 C455 1.314 . S
C453 C450 1.348 . S
C453 C455 1.353 . S
C453 H509 0.929 . S
C454 C450 1.356 . S
C454 C451 1.358 . S
C454 H510 0.930 . S
C455 N452 1.314 . S
C455 C453 1.353 . S
C455 H511 0.930 . S
C456 N457 1.314 . S
C456 C461 1.353 . S
C456 H462 0.930 . S
N457 Li440 1.990 . S
N457 C456 1.314 . S
N457 C459 1.279 . S
C458 C459 1.358 . S
C458 C460 1.356 . S
C458 H512 0.930 . S
C459 N457 1.279 . S
C459 C458 1.358 . S
C459 H463 0.930 . S
C460 C458 1.356 . S
C460 C461 1.348 . S
C461 C456 1.353 . S
C461 C460 1.348 . S
C461 H513 0.929 . S
H462 C456 0.930 . S
H463 C459 0.930 . S
C464 N465 1.314 . S
C464 C466 1.353 . S
C464 H470 0.930 . S
N465 Li441 1.990 . S
N465 C464 1.314 . S
N465 C468 1.279 . S
C466 C464 1.353 . S
C466 C469 1.348 . S
C466 H514 0.929 . S
C467 C468 1.358 . S
C467 C469 1.356 . S
C467 H515 0.930 . S
C468 N465 1.279 . S
C468 C467 1.358 . S
C468 H471 0.930 . S
C469 C466 1.348 . S
C469 C467 1.356 . S
H470 C464 0.930 . S
H471 C468 0.930 . S
C472 C474 1.348 . S
C472 C475 1.356 . S
C472 O502 1.325 . S
N473 C476 1.314 . S
N473 C477 1.279 . S
C474 C472 1.348 . S
C474 C476 1.353 . S
C474 H516 0.929 . S
C475 C472 1.356 . S
C475 C477 1.358 . S
C475 H517 0.930 . S
C476 N473 1.314 . S
C476 C474 1.353 . S
C476 H518 0.930 . S
C477 N473 1.279 . S
C477 C475 1.358 . S
C477 H519 0.930 . S
C478 C479 1.348 . S
C478 C480 1.356 . S
C478 O503 1.325 . S
C479 C478 1.348 . S
C479 C481 1.353 . S
C479 H520 0.929 . S
C480 C478 1.356 . S
C480 C482 1.358 . S
C480 H521 0.930 . S
C481 C479 1.353 . S
C481 N483 1.314 . S
C481 H522 0.930 . S
C482 C480 1.358 . S
C482 N483 1.279 . S
C482 H523 0.930 . S
N483 C481 1.314 . S
N483 C482 1.279 . S
C484 C486 1.353 . S
C484 N487 1.314 . S
C484 H490 0.930 . S
C485 N487 1.279 . S
C485 C488 1.358 . S
C485 H491 0.930 . S
C486 C484 1.353 . S
C486 C489 1.348 . S
C486 H524 0.929 . S
N487 Li442 1.990 . S
N487 C484 1.314 . S
N487 C485 1.279 . S
C488 C485 1.358 . S
C488 C489 1.356 . S
C488 H525 0.930 . S
C489 C486 1.348 . S
C489 C488 1.356 . S
H490 C484 0.930 . S
H491 C485 0.930 . S
C492 N493 1.314 . S
C492 C494 1.353 . S
C492 H498 0.930 . S
N493 Li443 1.990 . S
N493 C492 1.314 . S
N493 C496 1.279 . S
C494 C492 1.353 . S
C494 C497 1.348 . S
C494 H526 0.929 . S
C495 C496 1.358 . S
C495 C497 1.356 . S
C495 H527 0.930 . S
C496 N493 1.279 . S
C496 C495 1.358 . S
C496 H499 0.930 . S
C497 C494 1.348 . S
C497 C495 1.356 . S
H498 C492 0.930 . S
H499 C496 0.930 . S
O500 Li440 1.956 . S
O500 Li441 1.970 . S
O500 Li442 1.961 . S
O500 C444 1.325 . S
O501 Li440 1.970 . S
O501 Li441 1.956 . S
O501 Li443 1.961 . S
O501 C450 1.325 . S
O502 Li440 1.961 . S
O502 Li442 1.956 . S
O502 Li443 1.970 . S
O502 C472 1.325 . S
O503 Li441 1.961 . S
O503 Li442 1.970 . S
O503 Li443 1.956 . S
O503 C478 1.325 . S
H504 C446 0.929 . S
H505 C447 0.930 . S
H506 C448 0.930 . S
H507 C449 0.930 . S
H508 C451 0.930 . S
H509 C453 0.929 . S
H510 C454 0.930 . S
H511 C455 0.930 . S
H512 C458 0.930 . S
H513 C461 0.929 . S
H514 C466 0.929 . S
H515 C467 0.930 . S
H516 C474 0.929 . S
H517 C475 0.930 . S
H518 C476 0.930 . S
H519 C477 0.930 . S
H520 C479 0.929 . S
H521 C480 0.930 . S
H522 C481 0.930 . S
H523 C482 0.930 . S
H524 C486 0.929 . S
H525 C488 0.930 . S
H526 C494 0.929 . S
H527 C495 0.930 . S
Li528 N545 1.990 . S
Li528 O588 1.956 . S
Li528 O589 1.970 . S
Li528 O590 1.961 . S
Li529 N553 1.990 . S
Li529 O588 1.970 . S
Li529 O589 1.956 . S
Li529 O591 1.961 . S
Li530 N575 1.990 . S
Li530 O588 1.961 . S
Li530 O590 1.956 . S
Li530 O591 1.970 . S
Li531 N581 1.990 . S
Li531 O589 1.961 . S
Li531 O590 1.970 . S
Li531 O591 1.956 . S
C532 C534 1.348 . S
C532 C535 1.356 . S
C532 O588 1.325 . S
N533 C536 1.314 . S
N533 C537 1.279 . S
C534 C532 1.348 . S
C534 C536 1.353 . S
C534 H592 0.929 . S
C535 C532 1.356 . S
C535 C537 1.358 . S
C535 H593 0.930 . S
C536 N533 1.314 . S
C536 C534 1.353 . S
C536 H594 0.930 . S
C537 N533 1.279 . S
C537 C535 1.358 . S
C537 H595 0.930 . S
C538 C541 1.348 . S
C538 C542 1.356 . S
C538 O589 1.325 . S
C539 N540 1.279 . S
C539 C542 1.358 . S
C539 H596 0.930 . S
N540 C539 1.279 . S
N540 C543 1.314 . S
C541 C538 1.348 . S
C541 C543 1.353 . S
C541 H597 0.929 . S
C542 C538 1.356 . S
C542 C539 1.358 . S
C542 H598 0.930 . S
C543 N540 1.314 . S
C543 C541 1.353 . S
C543 H599 0.930 . S
C544 N545 1.314 . S
C544 C549 1.353 . S
C544 H550 0.930 . S
N545 Li528 1.990 . S
N545 C544 1.314 . S
N545 C547 1.279 . S
C546 C547 1.358 . S
C546 C548 1.356 . S
C546 H600 0.930 . S
C547 N545 1.279 . S
C547 C546 1.358 . S
C547 H551 0.930 . S
C548 C546 1.356 . S
C548 C549 1.348 . S
C549 C544 1.353 . S
C549 C548 1.348 . S
C549 H601 0.929 . S
H550 C544 0.930 . S
H551 C547 0.930 . S
C552 N553 1.314 . S
C552 C554 1.353 . S
C552 H558 0.930 . S
N553 Li529 1.990 . S
N553 C552 1.314 . S
N553 C556 1.279 . S
C554 C552 1.353 . S
C554 C557 1.348 . S
C554 H602 0.929 . S
C555 C556 1.358 . S
C555 C557 1.356 . S
C555 H603 0.930 . S
C556 N553 1.279 . S
C556 C555 1.358 . S
C556 H559 0.930 . S
C557 C554 1.348 . S
C557 C555 1.356 . S
H558 C552 0.930 . S
H559 C556 0.930 . S
C560 C562 1.348 . S
C560 C563 1.356 . S
C560 O590 1.325 . S
N561 C564 1.314 . S
N561 C565 1.279 . S
C562 C560 1.348 . S
C562 C564 1.353 . S
C562 H604 0.929 . S
C563 C560 1.356 . S
C563 C565 1.358 . S
C563 H605 0.930 . S
C564 N561 1.314 . S
C564 C562 1.353 . S
C564 H606 0.930 . S
C565 N561 1.279 . S
C565 C563 1.358 . S
C565 H607 0.930 . S
C566 C567 1.348 . S
C566 C568 1.356 . S
C566 O591 1.325 . S
C567 C566 1.348 . S
C567 C569 1.353 . S
C567 H608 0.929 . S
C568 C566 1.356 . S
C568 C570 1.358 . S
C568 H609 0.930 . S
C569 C567 1.353 . S
C569 N571 1.314 . S
C569 H610 0.930 . S
C570 C568 1.358 . S
C570 N571 1.279 . S
C570 H611 0.930 . S
N571 C569 1.314 . S
N571 C570 1.279 . S
C572 C574 1.353 . S
C572 N575 1.314 . S
C572 H578 0.930 . S
C573 N575 1.279 . S
C573 C576 1.358 . S
C573 H579 0.930 . S
C574 C572 1.353 . S
C574 C577 1.348 . S
C574 H612 0.929 . S
N575 Li530 1.990 . S
N575 C572 1.314 . S
N575 C573 1.279 . S
C576 C573 1.358 . S
C576 C577 1.356 . S
C576 H613 0.930 . S
C577 C574 1.348 . S
C577 C576 1.356 . S
H578 C572 0.930 . S
H579 C573 0.930 . S
C580 N581 1.314 . S
C580 C582 1.353 . S
C580 H586 0.930 . S
N581 Li531 1.990 . S
N581 C580 1.314 . S
N581 C584 1.279 . S
C582 C580 1.353 . S
C582 C585 1.348 . S
C582 H614 0.929 . S
C583 C584 1.358 . S
C583 C585 1.356 . S
C583 H615 0.930 . S
C584 N581 1.279 . S
C584 C583 1.358 . S
C584 H587 0.930 . S
C585 C582 1.348 . S
C585 C583 1.356 . S
H586 C580 0.930 . S
H587 C584 0.930 . S
O588 Li528 1.956 . S
O588 Li529 1.970 . S
O588 Li530 1.961 . S
O588 C532 1.325 . S
O589 Li528 1.970 . S
O589 Li529 1.956 . S
O589 Li531 1.961 . S
O589 C538 1.325 . S
O590 Li528 1.961 . S
O590 Li530 1.956 . S
O590 Li531 1.970 . S
O590 C560 1.325 . S
O591 Li529 1.961 . S
O591 Li530 1.970 . S
O591 Li531 1.956 . S
O591 C566 1.325 . S
H592 C534 0.929 . S
H593 C535 0.930 . S
H594 C536 0.930 . S
H595 C537 0.930 . S
H596 C539 0.930 . S
H597 C541 0.929 . S
H598 C542 0.930 . S
H599 C543 0.930 . S
H600 C546 0.930 . S
H601 C549 0.929 . S
H602 C554 0.929 . S
H603 C555 0.930 . S
H604 C562 0.929 . S
H605 C563 0.930 . S
H606 C564 0.930 . S
H607 C565 0.930 . S
H608 C567 0.929 . S
H609 C568 0.930 . S
H610 C569 0.930 . S
H611 C570 0.930 . S
H612 C574 0.929 . S
H613 C576 0.930 . S
H614 C582 0.929 . S
H615 C583 0.930 . S
Li616 N633 1.990 . S
Li616 O676 1.956 . S
Li616 O677 1.970 . S
Li616 O678 1.961 . S
Li617 N641 1.990 . S
Li617 O676 1.970 . S
Li617 O677 1.956 . S
Li617 O679 1.961 . S
Li618 N663 1.990 . S
Li618 O676 1.961 . S
Li618 O678 1.956 . S
Li618 O679 1.970 . S
Li619 N669 1.990 . S
Li619 O677 1.961 . S
Li619 O678 1.970 . S
Li619 O679 1.956 . S
C620 C622 1.348 . S
C620 C623 1.356 . S
C620 O676 1.325 . S
N621 C624 1.314 . S
N621 C625 1.279 . S
C622 C620 1.348 . S
C622 C624 1.353 . S
C622 H680 0.929 . S
C623 C620 1.356 . S
C623 C625 1.358 . S
C623 H681 0.930 . S
C624 N621 1.314 . S
C624 C622 1.353 . S
C624 H682 0.930 . S
C625 N621 1.279 . S
C625 C623 1.358 . S
C625 H683 0.930 . S
C626 C629 1.348 . S
C626 C630 1.356 . S
C626 O677 1.325 . S
C627 N628 1.279 . S
C627 C630 1.358 . S
C627 H684 0.930 . S
N628 C627 1.279 . S
N628 C631 1.314 . S
C629 C626 1.348 . S
C629 C631 1.353 . S
C629 H685 0.929 . S
C630 C626 1.356 . S
C630 C627 1.358 . S
C630 H686 0.930 . S
C631 N628 1.314 . S
C631 C629 1.353 . S
C631 H687 0.930 . S
C632 N633 1.314 . S
C632 C637 1.353 . S
C632 H638 0.930 . S
N633 Li616 1.990 . S
N633 C632 1.314 . S
N633 C635 1.279 . S
C634 C635 1.358 . S
C634 C636 1.356 . S
C634 H688 0.930 . S
C635 N633 1.279 . S
C635 C634 1.358 . S
C635 H639 0.930 . S
C636 C634 1.356 . S
C636 C637 1.348 . S
C637 C632 1.353 . S
C637 C636 1.348 . S
C637 H689 0.929 . S
H638 C632 0.930 . S
H639 C635 0.930 . S
C640 N641 1.314 . S
C640 C642 1.353 . S
C640 H646 0.930 . S
N641 Li617 1.990 . S
N641 C640 1.314 . S
N641 C644 1.279 . S
C642 C640 1.353 . S
C642 C645 1.348 . S
C642 H690 0.929 . S
C643 C644 1.358 . S
C643 C645 1.356 . S
C643 H691 0.930 . S
C644 N641 1.279 . S
C644 C643 1.358 . S
C644 H647 0.930 . S
C645 C642 1.348 . S
C645 C643 1.356 . S
H646 C640 0.930 . S
H647 C644 0.930 . S
C648 C650 1.348 . S
C648 C651 1.356 . S
C648 O678 1.325 . S
N649 C652 1.314 . S
N649 C653 1.279 . S
C650 C648 1.348 . S
C650 C652 1.353 . S
C650 H692 0.929 . S
C651 C648 1.356 . S
C651 C653 1.358 . S
C651 H693 0.930 . S
C652 N649 1.314 . S
C652 C650 1.353 . S
C652 H694 0.930 . S
C653 N649 1.279 . S
C653 C651 1.358 . S
C653 H695 0.930 . S
C654 C655 1.348 . S
C654 C656 1.356 . S
C654 O679 1.325 . S
C655 C654 1.348 . S
C655 C657 1.353 . S
C655 H696 0.929 . S
C656 C654 1.356 . S
C656 C658 1.358 . S
C656 H697 0.930 . S
C657 C655 1.353 . S
C657 N659 1.314 . S
C657 H698 0.930 . S
C658 C656 1.358 . S
C658 N659 1.279 . S
C658 H699 0.930 . S
N659 C657 1.314 . S
N659 C658 1.279 . S
C660 C662 1.353 . S
C660 N663 1.314 . S
C660 H666 0.930 . S
C661 N663 1.279 . S
C661 C664 1.358 . S
C661 H667 0.930 . S
C662 C660 1.353 . S
C662 C665 1.348 . S
C662 H700 0.929 . S
N663 Li618 1.990 . S
N663 C660 1.314 . S
N663 C661 1.279 . S
C664 C661 1.358 . S
C664 C665 1.356 . S
C664 H701 0.930 . S
C665 C662 1.348 . S
C665 C664 1.356 . S
H666 C660 0.930 . S
H667 C661 0.930 . S
C668 N669 1.314 . S
C668 C670 1.353 . S
C668 H674 0.930 . S
N669 Li619 1.990 . S
N669 C668 1.314 . S
N669 C672 1.279 . S
C670 C668 1.353 . S
C670 C673 1.348 . S
C670 H702 0.929 . S
C671 C672 1.358 . S
C671 C673 1.356 . S
C671 H703 0.930 . S
C672 N669 1.279 . S
C672 C671 1.358 . S
C672 H675 0.930 . S
C673 C670 1.348 . S
C673 C671 1.356 . S
H674 C668 0.930 . S
H675 C672 0.930 . S
O676 Li616 1.956 . S
O676 Li617 1.970 . S
O676 Li618 1.961 . S
O676 C620 1.325 . S
O677 Li616 1.970 . S
O677 Li617 1.956 . S
O677 Li619 1.961 . S
O677 C626 1.325 . S
O678 Li616 1.961 . S
O678 Li618 1.956 . S
O678 Li619 1.970 . S
O678 C648 1.325 . S
O679 Li617 1.961 . S
O679 Li618 1.970 . S
O679 Li619 1.956 . S
O679 C654 1.325 . S
H680 C622 0.929 . S
H681 C623 0.930 . S
H682 C624 0.930 . S
H683 C625 0.930 . S
H684 C627 0.930 . S
H685 C629 0.929 . S
H686 C630 0.930 . S
H687 C631 0.930 . S
H688 C634 0.930 . S
H689 C637 0.929 . S
H690 C642 0.929 . S
H691 C643 0.930 . S
H692 C650 0.929 . S
H693 C651 0.930 . S
H694 C652 0.930 . S
H695 C653 0.930 . S
H696 C655 0.929 . S
H697 C656 0.930 . S
H698 C657 0.930 . S
H699 C658 0.930 . S
H700 C662 0.929 . S
H701 C664 0.930 . S
H702 C670 0.929 . S
H703 C671 0.930 . S
Li704 N721 1.990 . S
Li704 O764 1.956 . S
Li704 O765 1.970 . S
Li704 O766 1.961 . S
Li705 N729 1.990 . S
Li705 O764 1.970 . S
Li705 O765 1.956 . S
Li705 O767 1.961 . S
Li706 N751 1.990 . S
Li706 O764 1.961 . S
Li706 O766 1.956 . S
Li706 O767 1.970 . S
Li707 N757 1.990 . S
Li707 O765 1.961 . S
Li707 O766 1.970 . S
Li707 O767 1.956 . S
C708 C710 1.348 . S
C708 C711 1.356 . S
C708 O764 1.325 . S
N709 C712 1.314 . S
N709 C713 1.279 . S
C710 C708 1.348 . S
C710 C712 1.353 . S
C710 H768 0.929 . S
C711 C708 1.356 . S
C711 C713 1.358 . S
C711 H769 0.930 . S
C712 N709 1.314 . S
C712 C710 1.353 . S
C712 H770 0.930 . S
C713 N709 1.279 . S
C713 C711 1.358 . S
C713 H771 0.930 . S
C714 C717 1.348 . S
C714 C718 1.356 . S
C714 O765 1.325 . S
C715 N716 1.279 . S
C715 C718 1.358 . S
C715 H772 0.930 . S
N716 C715 1.279 . S
N716 C719 1.314 . S
C717 C714 1.348 . S
C717 C719 1.353 . S
C717 H773 0.929 . S
C718 C714 1.356 . S
C718 C715 1.358 . S
C718 H774 0.930 . S
C719 N716 1.314 . S
C719 C717 1.353 . S
C719 H775 0.930 . S
C720 N721 1.314 . S
C720 C725 1.353 . S
C720 H726 0.930 . S
N721 Li704 1.990 . S
N721 C720 1.314 . S
N721 C723 1.279 . S
C722 C723 1.358 . S
C722 C724 1.356 . S
C722 H776 0.930 . S
C723 N721 1.279 . S
C723 C722 1.358 . S
C723 H727 0.930 . S
C724 C722 1.356 . S
C724 C725 1.348 . S
C725 C720 1.353 . S
C725 C724 1.348 . S
C725 H777 0.929 . S
H726 C720 0.930 . S
H727 C723 0.930 . S
C728 N729 1.314 . S
C728 C730 1.353 . S
C728 H734 0.930 . S
N729 Li705 1.990 . S
N729 C728 1.314 . S
N729 C732 1.279 . S
C730 C728 1.353 . S
C730 C733 1.348 . S
C730 H778 0.929 . S
C731 C732 1.358 . S
C731 C733 1.356 . S
C731 H779 0.930 . S
C732 N729 1.279 . S
C732 C731 1.358 . S
C732 H735 0.930 . S
C733 C730 1.348 . S
C733 C731 1.356 . S
H734 C728 0.930 . S
H735 C732 0.930 . S
C736 C738 1.348 . S
C736 C739 1.356 . S
C736 O766 1.325 . S
N737 C740 1.314 . S
N737 C741 1.279 . S
C738 C736 1.348 . S
C738 C740 1.353 . S
C738 H780 0.929 . S
C739 C736 1.356 . S
C739 C741 1.358 . S
C739 H781 0.930 . S
C740 N737 1.314 . S
C740 C738 1.353 . S
C740 H782 0.930 . S
C741 N737 1.279 . S
C741 C739 1.358 . S
C741 H783 0.930 . S
C742 C743 1.348 . S
C742 C744 1.356 . S
C742 O767 1.325 . S
C743 C742 1.348 . S
C743 C745 1.353 . S
C743 H784 0.929 . S
C744 C742 1.356 . S
C744 C746 1.358 . S
C744 H785 0.930 . S
C745 C743 1.353 . S
C745 N747 1.314 . S
C745 H786 0.930 . S
C746 C744 1.358 . S
C746 N747 1.279 . S
C746 H787 0.930 . S
N747 C745 1.314 . S
N747 C746 1.279 . S
C748 C750 1.353 . S
C748 N751 1.314 . S
C748 H754 0.930 . S
C749 N751 1.279 . S
C749 C752 1.358 . S
C749 H755 0.930 . S
C750 C748 1.353 . S
C750 C753 1.348 . S
C750 H788 0.929 . S
N751 Li706 1.990 . S
N751 C748 1.314 . S
N751 C749 1.279 . S
C752 C749 1.358 . S
C752 C753 1.356 . S
C752 H789 0.930 . S
C753 C750 1.348 . S
C753 C752 1.356 . S
H754 C748 0.930 . S
H755 C749 0.930 . S
C756 N757 1.314 . S
C756 C758 1.353 . S
C756 H762 0.930 . S
N757 Li707 1.990 . S
N757 C756 1.314 . S
N757 C760 1.279 . S
C758 C756 1.353 . S
C758 C761 1.348 . S
C758 H790 0.929 . S
C759 C760 1.358 . S
C759 C761 1.356 . S
C759 H791 0.930 . S
C760 N757 1.279 . S
C760 C759 1.358 . S
C760 H763 0.930 . S
C761 C758 1.348 . S
C761 C759 1.356 . S
H762 C756 0.930 . S
H763 C760 0.930 . S
O764 Li704 1.956 . S
O764 Li705 1.970 . S
O764 Li706 1.961 . S
O764 C708 1.325 . S
O765 Li704 1.970 . S
O765 Li705 1.956 . S
O765 Li707 1.961 . S
O765 C714 1.325 . S
O766 Li704 1.961 . S
O766 Li706 1.956 . S
O766 Li707 1.970 . S
O766 C736 1.325 . S
O767 Li705 1.961 . S
O767 Li706 1.970 . S
O767 Li707 1.956 . S
O767 C742 1.325 . S
H768 C710 0.929 . S
H769 C711 0.930 . S
H770 C712 0.930 . S
H771 C713 0.930 . S
H772 C715 0.930 . S
H773 C717 0.929 . S
H774 C718 0.930 . S
H775 C719 0.930 . S
H776 C722 0.930 . S
H777 C725 0.929 . S
H778 C730 0.929 . S
H779 C731 0.930 . S
H780 C738 0.929 . S
H781 C739 0.930 . S
H782 C740 0.930 . S
H783 C741 0.930 . S
H784 C743 0.929 . S
H785 C744 0.930 . S
H786 C745 0.930 . S
H787 C746 0.930 . S
H788 C750 0.929 . S
H789 C752 0.930 . S
H790 C758 0.929 . S
H791 C759 0.930 . S
Li792 N809 1.990 . S
Li792 O852 1.956 . S
Li792 O853 1.970 . S
Li792 O854 1.961 . S
Li793 N817 1.990 . S
Li793 O852 1.970 . S
Li793 O853 1.956 . S
Li793 O855 1.961 . S
Li794 N839 1.990 . S
Li794 O852 1.961 . S
Li794 O854 1.956 . S
Li794 O855 1.970 . S
Li795 N845 1.990 . S
Li795 O853 1.961 . S
Li795 O854 1.970 . S
Li795 O855 1.956 . S
C796 C798 1.348 . S
C796 C799 1.356 . S
C796 O852 1.325 . S
N797 C800 1.314 . S
N797 C801 1.279 . S
C798 C796 1.348 . S
C798 C800 1.353 . S
C798 H856 0.929 . S
C799 C796 1.356 . S
C799 C801 1.358 . S
C799 H857 0.930 . S
C800 N797 1.314 . S
C800 C798 1.353 . S
C800 H858 0.930 . S
C801 N797 1.279 . S
C801 C799 1.358 . S
C801 H859 0.930 . S
C802 C805 1.348 . S
C802 C806 1.356 . S
C802 O853 1.325 . S
C803 N804 1.279 . S
C803 C806 1.358 . S
C803 H860 0.930 . S
N804 C803 1.279 . S
N804 C807 1.314 . S
C805 C802 1.348 . S
C805 C807 1.353 . S
C805 H861 0.929 . S
C806 C802 1.356 . S
C806 C803 1.358 . S
C806 H862 0.930 . S
C807 N804 1.314 . S
C807 C805 1.353 . S
C807 H863 0.930 . S
C808 N809 1.314 . S
C808 C813 1.353 . S
C808 H814 0.930 . S
N809 Li792 1.990 . S
N809 C808 1.314 . S
N809 C811 1.279 . S
C810 C811 1.358 . S
C810 C812 1.356 . S
C810 H864 0.930 . S
C811 N809 1.279 . S
C811 C810 1.358 . S
C811 H815 0.930 . S
C812 C810 1.356 . S
C812 C813 1.348 . S
C813 C808 1.353 . S
C813 C812 1.348 . S
C813 H865 0.929 . S
H814 C808 0.930 . S
H815 C811 0.930 . S
C816 N817 1.314 . S
C816 C818 1.353 . S
C816 H822 0.930 . S
N817 Li793 1.990 . S
N817 C816 1.314 . S
N817 C820 1.279 . S
C818 C816 1.353 . S
C818 C821 1.348 . S
C818 H866 0.929 . S
C819 C820 1.358 . S
C819 C821 1.356 . S
C819 H867 0.930 . S
C820 N817 1.279 . S
C820 C819 1.358 . S
C820 H823 0.930 . S
C821 C818 1.348 . S
C821 C819 1.356 . S
H822 C816 0.930 . S
H823 C820 0.930 . S
C824 C826 1.348 . S
C824 C827 1.356 . S
C824 O854 1.325 . S
N825 C828 1.314 . S
N825 C829 1.279 . S
C826 C824 1.348 . S
C826 C828 1.353 . S
C826 H868 0.929 . S
C827 C824 1.356 . S
C827 C829 1.358 . S
C827 H869 0.930 . S
C828 N825 1.314 . S
C828 C826 1.353 . S
C828 H870 0.930 . S
C829 N825 1.279 . S
C829 C827 1.358 . S
C829 H871 0.930 . S
C830 C831 1.348 . S
C830 C832 1.356 . S
C830 O855 1.325 . S
C831 C830 1.348 . S
C831 C833 1.353 . S
C831 H872 0.929 . S
C832 C830 1.356 . S
C832 C834 1.358 . S
C832 H873 0.930 . S
C833 C831 1.353 . S
C833 N835 1.314 . S
C833 H874 0.930 . S
C834 C832 1.358 . S
C834 N835 1.279 . S
C834 H875 0.930 . S
N835 C833 1.314 . S
N835 C834 1.279 . S
C836 C838 1.353 . S
C836 N839 1.314 . S
C836 H842 0.930 . S
C837 N839 1.279 . S
C837 C840 1.358 . S
C837 H843 0.930 . S
C838 C836 1.353 . S
C838 C841 1.348 . S
C838 H876 0.929 . S
N839 Li794 1.990 . S
N839 C836 1.314 . S
N839 C837 1.279 . S
C840 C837 1.358 . S
C840 C841 1.356 . S
C840 H877 0.930 . S
C841 C838 1.348 . S
C841 C840 1.356 . S
H842 C836 0.930 . S
H843 C837 0.930 . S
C844 N845 1.314 . S
C844 C846 1.353 . S
C844 H850 0.930 . S
N845 Li795 1.990 . S
N845 C844 1.314 . S
N845 C848 1.279 . S
C846 C844 1.353 . S
C846 C849 1.348 . S
C846 H878 0.929 . S
C847 C848 1.358 . S
C847 C849 1.356 . S
C847 H879 0.930 . S
C848 N845 1.279 . S
C848 C847 1.358 . S
C848 H851 0.930 . S
C849 C846 1.348 . S
C849 C847 1.356 . S
H850 C844 0.930 . S
H851 C848 0.930 . S
O852 Li792 1.956 . S
O852 Li793 1.970 . S
O852 Li794 1.961 . S
O852 C796 1.325 . S
O853 Li792 1.970 . S
O853 Li793 1.956 . S
O853 Li795 1.961 . S
O853 C802 1.325 . S
O854 Li792 1.961 . S
O854 Li794 1.956 . S
O854 Li795 1.970 . S
O854 C824 1.325 . S
O855 Li793 1.961 . S
O855 Li794 1.970 . S
O855 Li795 1.956 . S
O855 C830 1.325 . S
H856 C798 0.929 . S
H857 C799 0.930 . S
H858 C800 0.930 . S
H859 C801 0.930 . S
H860 C803 0.930 . S
H861 C805 0.929 . S
H862 C806 0.930 . S
H863 C807 0.930 . S
H864 C810 0.930 . S
H865 C813 0.929 . S
H866 C818 0.929 . S
H867 C819 0.930 . S
H868 C826 0.929 . S
H869 C827 0.930 . S
H870 C828 0.930 . S
H871 C829 0.930 . S
H872 C831 0.929 . S
H873 C832 0.930 . S
H874 C833 0.930 . S
H875 C834 0.930 . S
H876 C838 0.929 . S
H877 C840 0.930 . S
H878 C846 0.929 . S
H879 C847 0.930 . S
Li880 N897 1.990 . S
Li880 O940 1.956 . S
Li880 O941 1.970 . S
Li880 O942 1.961 . S
Li881 N905 1.990 . S
Li881 O940 1.970 . S
Li881 O941 1.956 . S
Li881 O943 1.961 . S
Li882 N927 1.990 . S
Li882 O940 1.961 . S
Li882 O942 1.956 . S
Li882 O943 1.970 . S
Li883 N933 1.990 . S
Li883 O941 1.961 . S
Li883 O942 1.970 . S
Li883 O943 1.956 . S
C884 C886 1.348 . S
C884 C887 1.356 . S
C884 O940 1.325 . S
N885 C888 1.314 . S
N885 C889 1.279 . S
C886 C884 1.348 . S
C886 C888 1.353 . S
C886 H944 0.929 . S
C887 C884 1.356 . S
C887 C889 1.358 . S
C887 H945 0.930 . S
C888 N885 1.314 . S
C888 C886 1.353 . S
C888 H946 0.930 . S
C889 N885 1.279 . S
C889 C887 1.358 . S
C889 H947 0.930 . S
C890 C893 1.348 . S
C890 C894 1.356 . S
C890 O941 1.325 . S
C891 N892 1.279 . S
C891 C894 1.358 . S
C891 H948 0.930 . S
N892 C891 1.279 . S
N892 C895 1.314 . S
C893 C890 1.348 . S
C893 C895 1.353 . S
C893 H949 0.929 . S
C894 C890 1.356 . S
C894 C891 1.358 . S
C894 H950 0.930 . S
C895 N892 1.314 . S
C895 C893 1.353 . S
C895 H951 0.930 . S
C896 N897 1.314 . S
C896 C901 1.353 . S
C896 H902 0.930 . S
N897 Li880 1.990 . S
N897 C896 1.314 . S
N897 C899 1.279 . S
C898 C899 1.358 . S
C898 C900 1.356 . S
C898 H952 0.930 . S
C899 N897 1.279 . S
C899 C898 1.358 . S
C899 H903 0.930 . S
C900 C898 1.356 . S
C900 C901 1.348 . S
C901 C896 1.353 . S
C901 C900 1.348 . S
C901 H953 0.929 . S
H902 C896 0.930 . S
H903 C899 0.930 . S
C904 N905 1.314 . S
C904 C906 1.353 . S
C904 H910 0.930 . S
N905 Li881 1.990 . S
N905 C904 1.314 . S
N905 C908 1.279 . S
C906 C904 1.353 . S
C906 C909 1.348 . S
C906 H954 0.929 . S
C907 C908 1.358 . S
C907 C909 1.356 . S
C907 H955 0.930 . S
C908 N905 1.279 . S
C908 C907 1.358 . S
C908 H911 0.930 . S
C909 C906 1.348 . S
C909 C907 1.356 . S
H910 C904 0.930 . S
H911 C908 0.930 . S
C912 C914 1.348 . S
C912 C915 1.356 . S
C912 O942 1.325 . S
N913 C916 1.314 . S
N913 C917 1.279 . S
C914 C912 1.348 . S
C914 C916 1.353 . S
C914 H956 0.929 . S
C915 C912 1.356 . S
C915 C917 1.358 . S
C915 H957 0.930 . S
C916 N913 1.314 . S
C916 C914 1.353 . S
C916 H958 0.930 . S
C917 N913 1.279 . S
C917 C915 1.358 . S
C917 H959 0.930 . S
C918 C919 1.348 . S
C918 C920 1.356 . S
C918 O943 1.325 . S
C919 C918 1.348 . S
C919 C921 1.353 . S
C919 H960 0.929 . S
C920 C918 1.356 . S
C920 C922 1.358 . S
C920 H961 0.930 . S
C921 C919 1.353 . S
C921 N923 1.314 . S
C921 H962 0.930 . S
C922 C920 1.358 . S
C922 N923 1.279 . S
C922 H963 0.930 . S
N923 C921 1.314 . S
N923 C922 1.279 . S
C924 C926 1.353 . S
C924 N927 1.314 . S
C924 H930 0.930 . S
C925 N927 1.279 . S
C925 C928 1.358 . S
C925 H931 0.930 . S
C926 C924 1.353 . S
C926 C929 1.348 . S
C926 H964 0.929 . S
N927 Li882 1.990 . S
N927 C924 1.314 . S
N927 C925 1.279 . S
C928 C925 1.358 . S
C928 C929 1.356 . S
C928 H965 0.930 . S
C929 C926 1.348 . S
C929 C928 1.356 . S
H930 C924 0.930 . S
H931 C925 0.930 . S
C932 N933 1.314 . S
C932 C934 1.353 . S
C932 H938 0.930 . S
N933 Li883 1.990 . S
N933 C932 1.314 . S
N933 C936 1.279 . S
C934 C932 1.353 . S
C934 C937 1.348 . S
C934 H966 0.929 . S
C935 C936 1.358 . S
C935 C937 1.356 . S
C935 H967 0.930 . S
C936 N933 1.279 . S
C936 C935 1.358 . S
C936 H939 0.930 . S
C937 C934 1.348 . S
C937 C935 1.356 . S
H938 C932 0.930 . S
H939 C936 0.930 . S
O940 Li880 1.956 . S
O940 Li881 1.970 . S
O940 Li882 1.961 . S
O940 C884 1.325 . S
O941 Li880 1.970 . S
O941 Li881 1.956 . S
O941 Li883 1.961 . S
O941 C890 1.325 . S
O942 Li880 1.961 . S
O942 Li882 1.956 . S
O942 Li883 1.970 . S
O942 C912 1.325 . S
O943 Li881 1.961 . S
O943 Li882 1.970 . S
O943 Li883 1.956 . S
O943 C918 1.325 . S
H944 C886 0.929 . S
H945 C887 0.930 . S
H946 C888 0.930 . S
H947 C889 0.930 . S
H948 C891 0.930 . S
H949 C893 0.929 . S
H950 C894 0.930 . S
H951 C895 0.930 . S
H952 C898 0.930 . S
H953 C901 0.929 . S
H954 C906 0.929 . S
H955 C907 0.930 . S
H956 C914 0.929 . S
H957 C915 0.930 . S
H958 C916 0.930 . S
H959 C917 0.930 . S
H960 C919 0.929 . S
H961 C920 0.930 . S
H962 C921 0.930 . S
H963 C922 0.930 . S
H964 C926 0.929 . S
H965 C928 0.930 . S
H966 C934 0.929 . S
H967 C935 0.930 . S
Li968 N985 1.990 . S
Li968 O1028 1.956 . S
Li968 O1029 1.970 . S
Li968 O1030 1.961 . S
Li969 N993 1.990 . S
Li969 O1028 1.970 . S
Li969 O1029 1.956 . S
Li969 O1031 1.961 . S
Li970 N1015 1.990 . S
Li970 O1028 1.961 . S
Li970 O1030 1.956 . S
Li970 O1031 1.970 . S
Li971 N1021 1.990 . S
Li971 O1029 1.961 . S
Li971 O1030 1.970 . S
Li971 O1031 1.956 . S
C972 C974 1.348 . S
C972 C975 1.356 . S
C972 O1028 1.325 . S
N973 C976 1.314 . S
N973 C977 1.279 . S
C974 C972 1.348 . S
C974 C976 1.353 . S
C974 H1032 0.929 . S
C975 C972 1.356 . S
C975 C977 1.358 . S
C975 H1033 0.930 . S
C976 N973 1.314 . S
C976 C974 1.353 . S
C976 H1034 0.930 . S
C977 N973 1.279 . S
C977 C975 1.358 . S
C977 H1035 0.930 . S
C978 C981 1.348 . S
C978 C982 1.356 . S
C978 O1029 1.325 . S
C979 N980 1.279 . S
C979 C982 1.358 . S
C979 H1036 0.930 . S
N980 C979 1.279 . S
N980 C983 1.314 . S
C981 C978 1.348 . S
C981 C983 1.353 . S
C981 H1037 0.929 . S
C982 C978 1.356 . S
C982 C979 1.358 . S
C982 H1038 0.930 . S
C983 N980 1.314 . S
C983 C981 1.353 . S
C983 H1039 0.930 . S
C984 N985 1.314 . S
C984 C989 1.353 . S
C984 H990 0.930 . S
N985 Li968 1.990 . S
N985 C984 1.314 . S
N985 C987 1.279 . S
C986 C987 1.358 . S
C986 C988 1.356 . S
C986 H1040 0.930 . S
C987 N985 1.279 . S
C987 C986 1.358 . S
C987 H991 0.930 . S
C988 C986 1.356 . S
C988 C989 1.348 . S
C989 C984 1.353 . S
C989 C988 1.348 . S
C989 H1041 0.929 . S
H990 C984 0.930 . S
H991 C987 0.930 . S
C992 N993 1.314 . S
C992 C994 1.353 . S
C992 H998 0.930 . S
N993 Li969 1.990 . S
N993 C992 1.314 . S
N993 C996 1.279 . S
C994 C992 1.353 . S
C994 C997 1.348 . S
C994 H1042 0.929 . S
C995 C996 1.358 . S
C995 C997 1.356 . S
C995 H1043 0.930 . S
C996 N993 1.279 . S
C996 C995 1.358 . S
C996 H999 0.930 . S
C997 C994 1.348 . S
C997 C995 1.356 . S
H998 C992 0.930 . S
H999 C996 0.930 . S
C1000 C1002 1.348 . S
C1000 C1003 1.356 . S
C1000 O1030 1.325 . S
N1001 C1004 1.314 . S
N1001 C1005 1.279 . S
C1002 C1000 1.348 . S
C1002 C1004 1.353 . S
C1002 H1044 0.929 . S
C1003 C1000 1.356 . S
C1003 C1005 1.358 . S
C1003 H1045 0.930 . S
C1004 N1001 1.314 . S
C1004 C1002 1.353 . S
C1004 H1046 0.930 . S
C1005 N1001 1.279 . S
C1005 C1003 1.358 . S
C1005 H1047 0.930 . S
C1006 C1007 1.348 . S
C1006 C1008 1.356 . S
C1006 O1031 1.325 . S
C1007 C1006 1.348 . S
C1007 C1009 1.353 . S
C1007 H1048 0.929 . S
C1008 C1006 1.356 . S
C1008 C1010 1.358 . S
C1008 H1049 0.930 . S
C1009 C1007 1.353 . S
C1009 N1011 1.314 . S
C1009 H1050 0.930 . S
C1010 C1008 1.358 . S
C1010 N1011 1.279 . S
C1010 H1051 0.930 . S
N1011 C1009 1.314 . S
N1011 C1010 1.279 . S
C1012 C1014 1.353 . S
C1012 N1015 1.314 . S
C1012 H1018 0.930 . S
C1013 N1015 1.279 . S
C1013 C1016 1.358 . S
C1013 H1019 0.930 . S
C1014 C1012 1.353 . S
C1014 C1017 1.348 . S
C1014 H1052 0.929 . S
N1015 Li970 1.990 . S
N1015 C1012 1.314 . S
N1015 C1013 1.279 . S
C1016 C1013 1.358 . S
C1016 C1017 1.356 . S
C1016 H1053 0.930 . S
C1017 C1014 1.348 . S
C1017 C1016 1.356 . S
H1018 C1012 0.930 . S
H1019 C1013 0.930 . S
C1020 N1021 1.314 . S
C1020 C1022 1.353 . S
C1020 H1026 0.930 . S
N1021 Li971 1.990 . S
N1021 C1020 1.314 . S
N1021 C1024 1.279 . S
C1022 C1020 1.353 . S
C1022 C1025 1.348 . S
C1022 H1054 0.929 . S
C1023 C1024 1.358 . S
C1023 C1025 1.356 . S
C1023 H1055 0.930 . S
C1024 N1021 1.279 . S
C1024 C1023 1.358 . S
C1024 H1027 0.930 . S
C1025 C1022 1.348 . S
C1025 C1023 1.356 . S
H1026 C1020 0.930 . S
H1027 C1024 0.930 . S
O1028 Li968 1.956 . S
O1028 Li969 1.970 . S
O1028 Li970 1.961 . S
O1028 C972 1.325 . S
O1029 Li968 1.970 . S
O1029 Li969 1.956 . S
O1029 Li971 1.961 . S
O1029 C978 1.325 . S
O1030 Li968 1.961 . S
O1030 Li970 1.956 . S
O1030 Li971 1.970 . S
O1030 C1000 1.325 . S
O1031 Li969 1.961 . S
O1031 Li970 1.970 . S
O1031 Li971 1.956 . S
O1031 C1006 1.325 . S
H1032 C974 0.929 . S
H1033 C975 0.930 . S
H1034 C976 0.930 . S
H1035 C977 0.930 . S
H1036 C979 0.930 . S
H1037 C981 0.929 . S
H1038 C982 0.930 . S
H1039 C983 0.930 . S
H1040 C986 0.930 . S
H1041 C989 0.929 . S
H1042 C994 0.929 . S
H1043 C995 0.930 . S
H1044 C1002 0.929 . S
H1045 C1003 0.930 . S
H1046 C1004 0.930 . S
H1047 C1005 0.930 . S
H1048 C1007 0.929 . S
H1049 C1008 0.930 . S
H1050 C1009 0.930 . S
H1051 C1010 0.930 . S
H1052 C1014 0.929 . S
H1053 C1016 0.930 . S
H1054 C1022 0.929 . S
H1055 C1023 0.930 . S
Li1056 N1073 1.990 . S
Li1056 O1116 1.956 . S
Li1056 O1117 1.970 . S
Li1056 O1118 1.961 . S
Li1057 N1081 1.990 . S
Li1057 O1116 1.970 . S
Li1057 O1117 1.956 . S
Li1057 O1119 1.961 . S
Li1058 N1103 1.990 . S
Li1058 O1116 1.961 . S
Li1058 O1118 1.956 . S
Li1058 O1119 1.970 . S
Li1059 N1109 1.990 . S
Li1059 O1117 1.961 . S
Li1059 O1118 1.970 . S
Li1059 O1119 1.956 . S
C1060 C1062 1.348 . S
C1060 C1063 1.356 . S
C1060 O1116 1.325 . S
N1061 C1064 1.314 . S
N1061 C1065 1.279 . S
C1062 C1060 1.348 . S
C1062 C1064 1.353 . S
C1062 H1120 0.929 . S
C1063 C1060 1.356 . S
C1063 C1065 1.358 . S
C1063 H1121 0.930 . S
C1064 N1061 1.314 . S
C1064 C1062 1.353 . S
C1064 H1122 0.930 . S
C1065 N1061 1.279 . S
C1065 C1063 1.358 . S
C1065 H1123 0.930 . S
C1066 C1069 1.348 . S
C1066 C1070 1.356 . S
C1066 O1117 1.325 . S
C1067 N1068 1.279 . S
C1067 C1070 1.358 . S
C1067 H1124 0.930 . S
N1068 C1067 1.279 . S
N1068 C1071 1.314 . S
C1069 C1066 1.348 . S
C1069 C1071 1.353 . S
C1069 H1125 0.929 . S
C1070 C1066 1.356 . S
C1070 C1067 1.358 . S
C1070 H1126 0.930 . S
C1071 N1068 1.314 . S
C1071 C1069 1.353 . S
C1071 H1127 0.930 . S
C1072 N1073 1.314 . S
C1072 C1077 1.353 . S
C1072 H1078 0.930 . S
N1073 Li1056 1.990 . S
N1073 C1072 1.314 . S
N1073 C1075 1.279 . S
C1074 C1075 1.358 . S
C1074 C1076 1.356 . S
C1074 H1128 0.930 . S
C1075 N1073 1.279 . S
C1075 C1074 1.358 . S
C1075 H1079 0.930 . S
C1076 C1074 1.356 . S
C1076 C1077 1.348 . S
C1077 C1072 1.353 . S
C1077 C1076 1.348 . S
C1077 H1129 0.929 . S
H1078 C1072 0.930 . S
H1079 C1075 0.930 . S
C1080 N1081 1.314 . S
C1080 C1082 1.353 . S
C1080 H1086 0.930 . S
N1081 Li1057 1.990 . S
N1081 C1080 1.314 . S
N1081 C1084 1.279 . S
C1082 C1080 1.353 . S
C1082 C1085 1.348 . S
C1082 H1130 0.929 . S
C1083 C1084 1.358 . S
C1083 C1085 1.356 . S
C1083 H1131 0.930 . S
C1084 N1081 1.279 . S
C1084 C1083 1.358 . S
C1084 H1087 0.930 . S
C1085 C1082 1.348 . S
C1085 C1083 1.356 . S
H1086 C1080 0.930 . S
H1087 C1084 0.930 . S
C1088 C1090 1.348 . S
C1088 C1091 1.356 . S
C1088 O1118 1.325 . S
N1089 C1092 1.314 . S
N1089 C1093 1.279 . S
C1090 C1088 1.348 . S
C1090 C1092 1.353 . S
C1090 H1132 0.929 . S
C1091 C1088 1.356 . S
C1091 C1093 1.358 . S
C1091 H1133 0.930 . S
C1092 N1089 1.314 . S
C1092 C1090 1.353 . S
C1092 H1134 0.930 . S
C1093 N1089 1.279 . S
C1093 C1091 1.358 . S
C1093 H1135 0.930 . S
C1094 C1095 1.348 . S
C1094 C1096 1.356 . S
C1094 O1119 1.325 . S
C1095 C1094 1.348 . S
C1095 C1097 1.353 . S
C1095 H1136 0.929 . S
C1096 C1094 1.356 . S
C1096 C1098 1.358 . S
C1096 H1137 0.930 . S
C1097 C1095 1.353 . S
C1097 N1099 1.314 . S
C1097 H1138 0.930 . S
C1098 C1096 1.358 . S
C1098 N1099 1.279 . S
C1098 H1139 0.930 . S
N1099 C1097 1.314 . S
N1099 C1098 1.279 . S
C1100 C1102 1.353 . S
C1100 N1103 1.314 . S
C1100 H1106 0.930 . S
C1101 N1103 1.279 . S
C1101 C1104 1.358 . S
C1101 H1107 0.930 . S
C1102 C1100 1.353 . S
C1102 C1105 1.348 . S
C1102 H1140 0.929 . S
N1103 Li1058 1.990 . S
N1103 C1100 1.314 . S
N1103 C1101 1.279 . S
C1104 C1101 1.358 . S
C1104 C1105 1.356 . S
C1104 H1141 0.930 . S
C1105 C1102 1.348 . S
C1105 C1104 1.356 . S
H1106 C1100 0.930 . S
H1107 C1101 0.930 . S
C1108 N1109 1.314 . S
C1108 C1110 1.353 . S
C1108 H1114 0.930 . S
N1109 Li1059 1.990 . S
N1109 C1108 1.314 . S
N1109 C1112 1.279 . S
C1110 C1108 1.353 . S
C1110 C1113 1.348 . S
C1110 H1142 0.929 . S
C1111 C1112 1.358 . S
C1111 C1113 1.356 . S
C1111 H1143 0.930 . S
C1112 N1109 1.279 . S
C1112 C1111 1.358 . S
C1112 H1115 0.930 . S
C1113 C1110 1.348 . S
C1113 C1111 1.356 . S
H1114 C1108 0.930 . S
H1115 C1112 0.930 . S
O1116 Li1056 1.956 . S
O1116 Li1057 1.970 . S
O1116 Li1058 1.961 . S
O1116 C1060 1.325 . S
O1117 Li1056 1.970 . S
O1117 Li1057 1.956 . S
O1117 Li1059 1.961 . S
O1117 C1066 1.325 . S
O1118 Li1056 1.961 . S
O1118 Li1058 1.956 . S
O1118 Li1059 1.970 . S
O1118 C1088 1.325 . S
O1119 Li1057 1.961 . S
O1119 Li1058 1.970 . S
O1119 Li1059 1.956 . S
O1119 C1094 1.325 . S
H1120 C1062 0.929 . S
H1121 C1063 0.930 . S
H1122 C1064 0.930 . S
H1123 C1065 0.930 . S
H1124 C1067 0.930 . S
H1125 C1069 0.929 . S
H1126 C1070 0.930 . S
H1127 C1071 0.930 . S
H1128 C1074 0.930 . S
H1129 C1077 0.929 . S
H1130 C1082 0.929 . S
H1131 C1083 0.930 . S
H1132 C1090 0.929 . S
H1133 C1091 0.930 . S
H1134 C1092 0.930 . S
H1135 C1093 0.930 . S
H1136 C1095 0.929 . S
H1137 C1096 0.930 . S
H1138 C1097 0.930 . S
H1139 C1098 0.930 . S
H1140 C1102 0.929 . S
H1141 C1104 0.930 . S
H1142 C1110 0.929 . S
H1143 C1111 0.930 . S
Li1144 N1161 1.990 . S
Li1144 O1204 1.956 . S
Li1144 O1205 1.970 . S
Li1144 O1206 1.961 . S
Li1145 N1169 1.990 . S
Li1145 O1204 1.970 . S
Li1145 O1205 1.956 . S
Li1145 O1207 1.961 . S
Li1146 N1191 1.990 . S
Li1146 O1204 1.961 . S
Li1146 O1206 1.956 . S
Li1146 O1207 1.970 . S
Li1147 N1197 1.990 . S
Li1147 O1205 1.961 . S
Li1147 O1206 1.970 . S
Li1147 O1207 1.956 . S
C1148 C1150 1.348 . S
C1148 C1151 1.356 . S
C1148 O1204 1.325 . S
N1149 C1152 1.314 . S
N1149 C1153 1.279 . S
C1150 C1148 1.348 . S
C1150 C1152 1.353 . S
C1150 H1208 0.929 . S
C1151 C1148 1.356 . S
C1151 C1153 1.358 . S
C1151 H1209 0.930 . S
C1152 N1149 1.314 . S
C1152 C1150 1.353 . S
C1152 H1210 0.930 . S
C1153 N1149 1.279 . S
C1153 C1151 1.358 . S
C1153 H1211 0.930 . S
C1154 C1157 1.348 . S
C1154 C1158 1.356 . S
C1154 O1205 1.325 . S
C1155 N1156 1.279 . S
C1155 C1158 1.358 . S
C1155 H1212 0.930 . S
N1156 C1155 1.279 . S
N1156 C1159 1.314 . S
C1157 C1154 1.348 . S
C1157 C1159 1.353 . S
C1157 H1213 0.929 . S
C1158 C1154 1.356 . S
C1158 C1155 1.358 . S
C1158 H1214 0.930 . S
C1159 N1156 1.314 . S
C1159 C1157 1.353 . S
C1159 H1215 0.930 . S
C1160 N1161 1.314 . S
C1160 C1165 1.353 . S
C1160 H1166 0.930 . S
N1161 Li1144 1.990 . S
N1161 C1160 1.314 . S
N1161 C1163 1.279 . S
C1162 C1163 1.358 . S
C1162 C1164 1.356 . S
C1162 H1216 0.930 . S
C1163 N1161 1.279 . S
C1163 C1162 1.358 . S
C1163 H1167 0.930 . S
C1164 C1162 1.356 . S
C1164 C1165 1.348 . S
C1165 C1160 1.353 . S
C1165 C1164 1.348 . S
C1165 H1217 0.929 . S
H1166 C1160 0.930 . S
H1167 C1163 0.930 . S
C1168 N1169 1.314 . S
C1168 C1170 1.353 . S
C1168 H1174 0.930 . S
N1169 Li1145 1.990 . S
N1169 C1168 1.314 . S
N1169 C1172 1.279 . S
C1170 C1168 1.353 . S
C1170 C1173 1.348 . S
C1170 H1218 0.929 . S
C1171 C1172 1.358 . S
C1171 C1173 1.356 . S
C1171 H1219 0.930 . S
C1172 N1169 1.279 . S
C1172 C1171 1.358 . S
C1172 H1175 0.930 . S
C1173 C1170 1.348 . S
C1173 C1171 1.356 . S
H1174 C1168 0.930 . S
H1175 C1172 0.930 . S
C1176 C1178 1.348 . S
C1176 C1179 1.356 . S
C1176 O1206 1.325 . S
N1177 C1180 1.314 . S
N1177 C1181 1.279 . S
C1178 C1176 1.348 . S
C1178 C1180 1.353 . S
C1178 H1220 0.929 . S
C1179 C1176 1.356 . S
C1179 C1181 1.358 . S
C1179 H1221 0.930 . S
C1180 N1177 1.314 . S
C1180 C1178 1.353 . S
C1180 H1222 0.930 . S
C1181 N1177 1.279 . S
C1181 C1179 1.358 . S
C1181 H1223 0.930 . S
C1182 C1183 1.348 . S
C1182 C1184 1.356 . S
C1182 O1207 1.325 . S
C1183 C1182 1.348 . S
C1183 C1185 1.353 . S
C1183 H1224 0.929 . S
C1184 C1182 1.356 . S
C1184 C1186 1.358 . S
C1184 H1225 0.930 . S
C1185 C1183 1.353 . S
C1185 N1187 1.314 . S
C1185 H1226 0.930 . S
C1186 C1184 1.358 . S
C1186 N1187 1.279 . S
C1186 H1227 0.930 . S
N1187 C1185 1.314 . S
N1187 C1186 1.279 . S
C1188 C1190 1.353 . S
C1188 N1191 1.314 . S
C1188 H1194 0.930 . S
C1189 N1191 1.279 . S
C1189 C1192 1.358 . S
C1189 H1195 0.930 . S
C1190 C1188 1.353 . S
C1190 C1193 1.348 . S
C1190 H1228 0.929 . S
N1191 Li1146 1.990 . S
N1191 C1188 1.314 . S
N1191 C1189 1.279 . S
C1192 C1189 1.358 . S
C1192 C1193 1.356 . S
C1192 H1229 0.930 . S
C1193 C1190 1.348 . S
C1193 C1192 1.356 . S
H1194 C1188 0.930 . S
H1195 C1189 0.930 . S
C1196 N1197 1.314 . S
C1196 C1198 1.353 . S
C1196 H1202 0.930 . S
N1197 Li1147 1.990 . S
N1197 C1196 1.314 . S
N1197 C1200 1.279 . S
C1198 C1196 1.353 . S
C1198 C1201 1.348 . S
C1198 H1230 0.929 . S
C1199 C1200 1.358 . S
C1199 C1201 1.356 . S
C1199 H1231 0.930 . S
C1200 N1197 1.279 . S
C1200 C1199 1.358 . S
C1200 H1203 0.930 . S
C1201 C1198 1.348 . S
C1201 C1199 1.356 . S
H1202 C1196 0.930 . S
H1203 C1200 0.930 . S
O1204 Li1144 1.956 . S
O1204 Li1145 1.970 . S
O1204 Li1146 1.961 . S
O1204 C1148 1.325 . S
O1205 Li1144 1.970 . S
O1205 Li1145 1.956 . S
O1205 Li1147 1.961 . S
O1205 C1154 1.325 . S
O1206 Li1144 1.961 . S
O1206 Li1146 1.956 . S
O1206 Li1147 1.970 . S
O1206 C1176 1.325 . S
O1207 Li1145 1.961 . S
O1207 Li1146 1.970 . S
O1207 Li1147 1.956 . S
O1207 C1182 1.325 . S
H1208 C1150 0.929 . S
H1209 C1151 0.930 . S
H1210 C1152 0.930 . S
H1211 C1153 0.930 . S
H1212 C1155 0.930 . S
H1213 C1157 0.929 . S
H1214 C1158 0.930 . S
H1215 C1159 0.930 . S
H1216 C1162 0.930 . S
H1217 C1165 0.929 . S
H1218 C1170 0.929 . S
H1219 C1171 0.930 . S
H1220 C1178 0.929 . S
H1221 C1179 0.930 . S
H1222 C1180 0.930 . S
H1223 C1181 0.930 . S
H1224 C1183 0.929 . S
H1225 C1184 0.930 . S
H1226 C1185 0.930 . S
H1227 C1186 0.930 . S
H1228 C1190 0.929 . S
H1229 C1192 0.930 . S
H1230 C1198 0.929 . S
H1231 C1199 0.930 . S
Li1232 N1249 1.990 . S
Li1232 O1292 1.956 . S
Li1232 O1293 1.970 . S
Li1232 O1294 1.961 . S
Li1233 N1257 1.990 . S
Li1233 O1292 1.970 . S
Li1233 O1293 1.956 . S
Li1233 O1295 1.961 . S
Li1234 N1279 1.990 . S
Li1234 O1292 1.961 . S
Li1234 O1294 1.956 . S
Li1234 O1295 1.970 . S
Li1235 N1285 1.990 . S
Li1235 O1293 1.961 . S
Li1235 O1294 1.970 . S
Li1235 O1295 1.956 . S
C1236 C1238 1.348 . S
C1236 C1239 1.356 . S
C1236 O1292 1.325 . S
N1237 C1240 1.314 . S
N1237 C1241 1.279 . S
C1238 C1236 1.348 . S
C1238 C1240 1.353 . S
C1238 H1296 0.929 . S
C1239 C1236 1.356 . S
C1239 C1241 1.358 . S
C1239 H1297 0.930 . S
C1240 N1237 1.314 . S
C1240 C1238 1.353 . S
C1240 H1298 0.930 . S
C1241 N1237 1.279 . S
C1241 C1239 1.358 . S
C1241 H1299 0.930 . S
C1242 C1245 1.348 . S
C1242 C1246 1.356 . S
C1242 O1293 1.325 . S
C1243 N1244 1.279 . S
C1243 C1246 1.358 . S
C1243 H1300 0.930 . S
N1244 C1243 1.279 . S
N1244 C1247 1.314 . S
C1245 C1242 1.348 . S
C1245 C1247 1.353 . S
C1245 H1301 0.929 . S
C1246 C1242 1.356 . S
C1246 C1243 1.358 . S
C1246 H1302 0.930 . S
C1247 N1244 1.314 . S
C1247 C1245 1.353 . S
C1247 H1303 0.930 . S
C1248 N1249 1.314 . S
C1248 C1253 1.353 . S
C1248 H1254 0.930 . S
N1249 Li1232 1.990 . S
N1249 C1248 1.314 . S
N1249 C1251 1.279 . S
C1250 C1251 1.358 . S
C1250 C1252 1.356 . S
C1250 H1304 0.930 . S
C1251 N1249 1.279 . S
C1251 C1250 1.358 . S
C1251 H1255 0.930 . S
C1252 C1250 1.356 . S
C1252 C1253 1.348 . S
C1253 C1248 1.353 . S
C1253 C1252 1.348 . S
C1253 H1305 0.929 . S
H1254 C1248 0.930 . S
H1255 C1251 0.930 . S
C1256 N1257 1.314 . S
C1256 C1258 1.353 . S
C1256 H1262 0.930 . S
N1257 Li1233 1.990 . S
N1257 C1256 1.314 . S
N1257 C1260 1.279 . S
C1258 C1256 1.353 . S
C1258 C1261 1.348 . S
C1258 H1306 0.929 . S
C1259 C1260 1.358 . S
C1259 C1261 1.356 . S
C1259 H1307 0.930 . S
C1260 N1257 1.279 . S
C1260 C1259 1.358 . S
C1260 H1263 0.930 . S
C1261 C1258 1.348 . S
C1261 C1259 1.356 . S
H1262 C1256 0.930 . S
H1263 C1260 0.930 . S
C1264 C1266 1.348 . S
C1264 C1267 1.356 . S
C1264 O1294 1.325 . S
N1265 C1268 1.314 . S
N1265 C1269 1.279 . S
C1266 C1264 1.348 . S
C1266 C1268 1.353 . S
C1266 H1308 0.929 . S
C1267 C1264 1.356 . S
C1267 C1269 1.358 . S
C1267 H1309 0.930 . S
C1268 N1265 1.314 . S
C1268 C1266 1.353 . S
C1268 H1310 0.930 . S
C1269 N1265 1.279 . S
C1269 C1267 1.358 . S
C1269 H1311 0.930 . S
C1270 C1271 1.348 . S
C1270 C1272 1.356 . S
C1270 O1295 1.325 . S
C1271 C1270 1.348 . S
C1271 C1273 1.353 . S
C1271 H1312 0.929 . S
C1272 C1270 1.356 . S
C1272 C1274 1.358 . S
C1272 H1313 0.930 . S
C1273 C1271 1.353 . S
C1273 N1275 1.314 . S
C1273 H1314 0.930 . S
C1274 C1272 1.358 . S
C1274 N1275 1.279 . S
C1274 H1315 0.930 . S
N1275 C1273 1.314 . S
N1275 C1274 1.279 . S
C1276 C1278 1.353 . S
C1276 N1279 1.314 . S
C1276 H1282 0.930 . S
C1277 N1279 1.279 . S
C1277 C1280 1.358 . S
C1277 H1283 0.930 . S
C1278 C1276 1.353 . S
C1278 C1281 1.348 . S
C1278 H1316 0.929 . S
N1279 Li1234 1.990 . S
N1279 C1276 1.314 . S
N1279 C1277 1.279 . S
C1280 C1277 1.358 . S
C1280 C1281 1.356 . S
C1280 H1317 0.930 . S
C1281 C1278 1.348 . S
C1281 C1280 1.356 . S
H1282 C1276 0.930 . S
H1283 C1277 0.930 . S
C1284 N1285 1.314 . S
C1284 C1286 1.353 . S
C1284 H1290 0.930 . S
N1285 Li1235 1.990 . S
N1285 C1284 1.314 . S
N1285 C1288 1.279 . S
C1286 C1284 1.353 . S
C1286 C1289 1.348 . S
C1286 H1318 0.929 . S
C1287 C1288 1.358 . S
C1287 C1289 1.356 . S
C1287 H1319 0.930 . S
C1288 N1285 1.279 . S
C1288 C1287 1.358 . S
C1288 H1291 0.930 . S
C1289 C1286 1.348 . S
C1289 C1287 1.356 . S
H1290 C1284 0.930 . S
H1291 C1288 0.930 . S
O1292 Li1232 1.956 . S
O1292 Li1233 1.970 . S
O1292 Li1234 1.961 . S
O1292 C1236 1.325 . S
O1293 Li1232 1.970 . S
O1293 Li1233 1.956 . S
O1293 Li1235 1.961 . S
O1293 C1242 1.325 . S
O1294 Li1232 1.961 . S
O1294 Li1234 1.956 . S
O1294 Li1235 1.970 . S
O1294 C1264 1.325 . S
O1295 Li1233 1.961 . S
O1295 Li1234 1.970 . S
O1295 Li1235 1.956 . S
O1295 C1270 1.325 . S
H1296 C1238 0.929 . S
H1297 C1239 0.930 . S
H1298 C1240 0.930 . S
H1299 C1241 0.930 . S
H1300 C1243 0.930 . S
H1301 C1245 0.929 . S
H1302 C1246 0.930 . S
H1303 C1247 0.930 . S
H1304 C1250 0.930 . S
H1305 C1253 0.929 . S
H1306 C1258 0.929 . S
H1307 C1259 0.930 . S
H1308 C1266 0.929 . S
H1309 C1267 0.930 . S
H1310 C1268 0.930 . S
H1311 C1269 0.930 . S
H1312 C1271 0.929 . S
H1313 C1272 0.930 . S
H1314 C1273 0.930 . S
H1315 C1274 0.930 . S
H1316 C1278 0.929 . S
H1317 C1280 0.930 . S
H1318 C1286 0.929 . S
H1319 C1287 0.930 . S
Li1320 N1337 1.990 . S
Li1320 O1380 1.956 . S
Li1320 O1381 1.970 . S
Li1320 O1382 1.961 . S
Li1321 N1345 1.990 . S
Li1321 O1380 1.970 . S
Li1321 O1381 1.956 . S
Li1321 O1383 1.961 . S
Li1322 N1367 1.990 . S
Li1322 O1380 1.961 . S
Li1322 O1382 1.956 . S
Li1322 O1383 1.970 . S
Li1323 N1373 1.990 . S
Li1323 O1381 1.961 . S
Li1323 O1382 1.970 . S
Li1323 O1383 1.956 . S
C1324 C1326 1.348 . S
C1324 C1327 1.356 . S
C1324 O1380 1.325 . S
N1325 C1328 1.314 . S
N1325 C1329 1.279 . S
C1326 C1324 1.348 . S
C1326 C1328 1.353 . S
C1326 H1384 0.929 . S
C1327 C1324 1.356 . S
C1327 C1329 1.358 . S
C1327 H1385 0.930 . S
C1328 N1325 1.314 . S
C1328 C1326 1.353 . S
C1328 H1386 0.930 . S
C1329 N1325 1.279 . S
C1329 C1327 1.358 . S
C1329 H1387 0.930 . S
C1330 C1333 1.348 . S
C1330 C1334 1.356 . S
C1330 O1381 1.325 . S
C1331 N1332 1.279 . S
C1331 C1334 1.358 . S
C1331 H1388 0.930 . S
N1332 C1331 1.279 . S
N1332 C1335 1.314 . S
C1333 C1330 1.348 . S
C1333 C1335 1.353 . S
C1333 H1389 0.929 . S
C1334 C1330 1.356 . S
C1334 C1331 1.358 . S
C1334 H1390 0.930 . S
C1335 N1332 1.314 . S
C1335 C1333 1.353 . S
C1335 H1391 0.930 . S
C1336 N1337 1.314 . S
C1336 C1341 1.353 . S
C1336 H1342 0.930 . S
N1337 Li1320 1.990 . S
N1337 C1336 1.314 . S
N1337 C1339 1.279 . S
C1338 C1339 1.358 . S
C1338 C1340 1.356 . S
C1338 H1392 0.930 . S
C1339 N1337 1.279 . S
C1339 C1338 1.358 . S
C1339 H1343 0.930 . S
C1340 C1338 1.356 . S
C1340 C1341 1.348 . S
C1341 C1336 1.353 . S
C1341 C1340 1.348 . S
C1341 H1393 0.929 . S
H1342 C1336 0.930 . S
H1343 C1339 0.930 . S
C1344 N1345 1.314 . S
C1344 C1346 1.353 . S
C1344 H1350 0.930 . S
N1345 Li1321 1.990 . S
N1345 C1344 1.314 . S
N1345 C1348 1.279 . S
C1346 C1344 1.353 . S
C1346 C1349 1.348 . S
C1346 H1394 0.929 . S
C1347 C1348 1.358 . S
C1347 C1349 1.356 . S
C1347 H1395 0.930 . S
C1348 N1345 1.279 . S
C1348 C1347 1.358 . S
C1348 H1351 0.930 . S
C1349 C1346 1.348 . S
C1349 C1347 1.356 . S
H1350 C1344 0.930 . S
H1351 C1348 0.930 . S
C1352 C1354 1.348 . S
C1352 C1355 1.356 . S
C1352 O1382 1.325 . S
N1353 C1356 1.314 . S
N1353 C1357 1.279 . S
C1354 C1352 1.348 . S
C1354 C1356 1.353 . S
C1354 H1396 0.929 . S
C1355 C1352 1.356 . S
C1355 C1357 1.358 . S
C1355 H1397 0.930 . S
C1356 N1353 1.314 . S
C1356 C1354 1.353 . S
C1356 H1398 0.930 . S
C1357 N1353 1.279 . S
C1357 C1355 1.358 . S
C1357 H1399 0.930 . S
C1358 C1359 1.348 . S
C1358 C1360 1.356 . S
C1358 O1383 1.325 . S
C1359 C1358 1.348 . S
C1359 C1361 1.353 . S
C1359 H1400 0.929 . S
C1360 C1358 1.356 . S
C1360 C1362 1.358 . S
C1360 H1401 0.930 . S
C1361 C1359 1.353 . S
C1361 N1363 1.314 . S
C1361 H1402 0.930 . S
C1362 C1360 1.358 . S
C1362 N1363 1.279 . S
C1362 H1403 0.930 . S
N1363 C1361 1.314 . S
N1363 C1362 1.279 . S
C1364 C1366 1.353 . S
C1364 N1367 1.314 . S
C1364 H1370 0.930 . S
C1365 N1367 1.279 . S
C1365 C1368 1.358 . S
C1365 H1371 0.930 . S
C1366 C1364 1.353 . S
C1366 C1369 1.348 . S
C1366 H1404 0.929 . S
N1367 Li1322 1.990 . S
N1367 C1364 1.314 . S
N1367 C1365 1.279 . S
C1368 C1365 1.358 . S
C1368 C1369 1.356 . S
C1368 H1405 0.930 . S
C1369 C1366 1.348 . S
C1369 C1368 1.356 . S
H1370 C1364 0.930 . S
H1371 C1365 0.930 . S
C1372 N1373 1.314 . S
C1372 C1374 1.353 . S
C1372 H1378 0.930 . S
N1373 Li1323 1.990 . S
N1373 C1372 1.314 . S
N1373 C1376 1.279 . S
C1374 C1372 1.353 . S
C1374 C1377 1.348 . S
C1374 H1406 0.929 . S
C1375 C1376 1.358 . S
C1375 C1377 1.356 . S
C1375 H1407 0.930 . S
C1376 N1373 1.279 . S
C1376 C1375 1.358 . S
C1376 H1379 0.930 . S
C1377 C1374 1.348 . S
C1377 C1375 1.356 . S
H1378 C1372 0.930 . S
H1379 C1376 0.930 . S
O1380 Li1320 1.956 . S
O1380 Li1321 1.970 . S
O1380 Li1322 1.961 . S
O1380 C1324 1.325 . S
O1381 Li1320 1.970 . S
O1381 Li1321 1.956 . S
O1381 Li1323 1.961 . S
O1381 C1330 1.325 . S
O1382 Li1320 1.961 . S
O1382 Li1322 1.956 . S
O1382 Li1323 1.970 . S
O1382 C1352 1.325 . S
O1383 Li1321 1.961 . S
O1383 Li1322 1.970 . S
O1383 Li1323 1.956 . S
O1383 C1358 1.325 . S
H1384 C1326 0.929 . S
H1385 C1327 0.930 . S
H1386 C1328 0.930 . S
H1387 C1329 0.930 . S
H1388 C1331 0.930 . S
H1389 C1333 0.929 . S
H1390 C1334 0.930 . S
H1391 C1335 0.930 . S
H1392 C1338 0.930 . S
H1393 C1341 0.929 . S
H1394 C1346 0.929 . S
H1395 C1347 0.930 . S
H1396 C1354 0.929 . S
H1397 C1355 0.930 . S
H1398 C1356 0.930 . S
H1399 C1357 0.930 . S
H1400 C1359 0.929 . S
H1401 C1360 0.930 . S
H1402 C1361 0.930 . S
H1403 C1362 0.930 . S
H1404 C1366 0.929 . S
H1405 C1368 0.930 . S
H1406 C1374 0.929 . S
H1407 C1375 0.930 . S
C1408 C1409 1.363 . S
C1408 C1414 1.379 . S
C1408 N1416 1.356 . S
C1409 C1408 1.363 . S
C1409 C1415 1.363 . S
C1410 C1411 1.363 . S
C1410 C1415 1.379 . S
C1410 N1417 1.356 . S
C1411 C1410 1.363 . S
C1411 C1414 1.363 . S
N1412 C1414 1.356 . S
N1412 H1424 0.984 . S
N1412 H1425 0.985 . S
N1413 C1415 1.356 . S
N1413 H1418 0.984 . S
N1413 H1419 0.985 . S
C1414 C1408 1.379 . S
C1414 C1411 1.363 . S
C1414 N1412 1.356 . S
C1415 C1409 1.363 . S
C1415 C1410 1.379 . S
C1415 N1413 1.356 . S
N1416 C1408 1.356 . S
N1416 H1422 0.984 . S
N1416 H1423 0.984 . S
N1417 C1410 1.356 . S
N1417 H1420 0.984 . S
N1417 H1421 0.985 . S
H1418 N1413 0.984 . S
H1419 N1413 0.985 . S
H1420 N1417 0.984 . S
H1421 N1417 0.985 . S
H1422 N1416 0.984 . S
H1423 N1416 0.984 . S
H1424 N1412 0.984 . S
H1425 N1412 0.985 . S
C1426 C1427 1.363 . S
C1426 C1432 1.379 . S
C1426 N1434 1.356 . S
C1427 C1426 1.363 . S
C1427 C1433 1.363 . S
C1428 C1429 1.363 . S
C1428 C1433 1.379 . S
C1428 N1435 1.356 . S
C1429 C1428 1.363 . S
C1429 C1432 1.363 . S
N1430 C1432 1.356 . S
N1430 H1442 0.984 . S
N1430 H1443 0.985 . S
N1431 C1433 1.356 . S
N1431 H1436 0.984 . S
N1431 H1437 0.985 . S
C1432 C1426 1.379 . S
C1432 C1429 1.363 . S
C1432 N1430 1.356 . S
C1433 C1427 1.363 . S
C1433 C1428 1.379 . S
C1433 N1431 1.356 . S
N1434 C1426 1.356 . S
N1434 H1440 0.984 . S
N1434 H1441 0.984 . S
N1435 C1428 1.356 . S
N1435 H1438 0.984 . S
N1435 H1439 0.985 . S
H1436 N1431 0.984 . S
H1437 N1431 0.985 . S
H1438 N1435 0.984 . S
H1439 N1435 0.985 . S
H1440 N1434 0.984 . S
H1441 N1434 0.984 . S
H1442 N1430 0.984 . S
H1443 N1430 0.985 . S
C1444 C1445 1.363 . S
C1444 C1450 1.379 . S
C1444 N1452 1.356 . S
C1445 C1444 1.363 . S
C1445 C1451 1.363 . S
C1446 C1447 1.363 . S
C1446 C1451 1.379 . S
C1446 N1453 1.356 . S
C1447 C1446 1.363 . S
C1447 C1450 1.363 . S
N1448 C1450 1.356 . S
N1448 H1460 0.984 . S
N1448 H1461 0.985 . S
N1449 C1451 1.356 . S
N1449 H1454 0.984 . S
N1449 H1455 0.985 . S
C1450 C1444 1.379 . S
C1450 C1447 1.363 . S
C1450 N1448 1.356 . S
C1451 C1445 1.363 . S
C1451 C1446 1.379 . S
C1451 N1449 1.356 . S
N1452 C1444 1.356 . S
N1452 H1458 0.984 . S
N1452 H1459 0.984 . S
N1453 C1446 1.356 . S
N1453 H1456 0.984 . S
N1453 H1457 0.985 . S
H1454 N1449 0.984 . S
H1455 N1449 0.985 . S
H1456 N1453 0.984 . S
H1457 N1453 0.985 . S
H1458 N1452 0.984 . S
H1459 N1452 0.984 . S
H1460 N1448 0.984 . S
H1461 N1448 0.985 . S
C1462 C1463 1.363 . S
C1462 C1468 1.379 . S
C1462 N1470 1.356 . S
C1463 C1462 1.363 . S
C1463 C1469 1.363 . S
C1464 C1465 1.363 . S
C1464 C1469 1.379 . S
C1464 N1471 1.356 . S
C1465 C1464 1.363 . S
C1465 C1468 1.363 . S
N1466 C1468 1.356 . S
N1466 H1478 0.984 . S
N1466 H1479 0.985 . S
N1467 C1469 1.356 . S
N1467 H1472 0.984 . S
N1467 H1473 0.985 . S
C1468 C1462 1.379 . S
C1468 C1465 1.363 . S
C1468 N1466 1.356 . S
C1469 C1463 1.363 . S
C1469 C1464 1.379 . S
C1469 N1467 1.356 . S
N1470 C1462 1.356 . S
N1470 H1476 0.984 . S
N1470 H1477 0.984 . S
N1471 C1464 1.356 . S
N1471 H1474 0.984 . S
N1471 H1475 0.985 . S
H1472 N1467 0.984 . S
H1473 N1467 0.985 . S
H1474 N1471 0.984 . S
H1475 N1471 0.985 . S
H1476 N1470 0.984 . S
H1477 N1470 0.984 . S
H1478 N1466 0.984 . S
H1479 N1466 0.985 . S
C1480 C1481 1.363 . S
C1480 C1486 1.379 . S
C1480 N1488 1.356 . S
C1481 C1480 1.363 . S
C1481 C1487 1.363 . S
C1482 C1483 1.363 . S
C1482 C1487 1.379 . S
C1482 N1489 1.356 . S
C1483 C1482 1.363 . S
C1483 C1486 1.363 . S
N1484 C1486 1.356 . S
N1484 H1496 0.984 . S
N1484 H1497 0.985 . S
N1485 C1487 1.356 . S
N1485 H1490 0.984 . S
N1485 H1491 0.985 . S
C1486 C1480 1.379 . S
C1486 C1483 1.363 . S
C1486 N1484 1.356 . S
C1487 C1481 1.363 . S
C1487 C1482 1.379 . S
C1487 N1485 1.356 . S
N1488 C1480 1.356 . S
N1488 H1494 0.984 . S
N1488 H1495 0.984 . S
N1489 C1482 1.356 . S
N1489 H1492 0.984 . S
N1489 H1493 0.985 . S
H1490 N1485 0.984 . S
H1491 N1485 0.985 . S
H1492 N1489 0.984 . S
H1493 N1489 0.985 . S
H1494 N1488 0.984 . S
H1495 N1488 0.984 . S
H1496 N1484 0.984 . S
H1497 N1484 0.985 . S
C1498 C1499 1.363 . S
C1498 C1504 1.379 . S
C1498 N1506 1.356 . S
C1499 C1498 1.363 . S
C1499 C1505 1.363 . S
C1500 C1501 1.363 . S
C1500 C1505 1.379 . S
C1500 N1507 1.356 . S
C1501 C1500 1.363 . S
C1501 C1504 1.363 . S
N1502 C1504 1.356 . S
N1502 H1514 0.984 . S
N1502 H1515 0.985 . S
N1503 C1505 1.356 . S
N1503 H1508 0.984 . S
N1503 H1509 0.985 . S
C1504 C1498 1.379 . S
C1504 C1501 1.363 . S
C1504 N1502 1.356 . S
C1505 C1499 1.363 . S
C1505 C1500 1.379 . S
C1505 N1503 1.356 . S
N1506 C1498 1.356 . S
N1506 H1512 0.984 . S
N1506 H1513 0.984 . S
N1507 C1500 1.356 . S
N1507 H1510 0.984 . S
N1507 H1511 0.985 . S
H1508 N1503 0.984 . S
H1509 N1503 0.985 . S
H1510 N1507 0.984 . S
H1511 N1507 0.985 . S
H1512 N1506 0.984 . S
H1513 N1506 0.984 . S
H1514 N1502 0.984 . S
H1515 N1502 0.985 . S
C1516 C1517 1.363 . S
C1516 C1522 1.379 . S
C1516 N1524 1.356 . S
C1517 C1516 1.363 . S
C1517 C1523 1.363 . S
C1518 C1519 1.363 . S
C1518 C1523 1.379 . S
C1518 N1525 1.356 . S
C1519 C1518 1.363 . S
C1519 C1522 1.363 . S
N1520 C1522 1.356 . S
N1520 H1532 0.984 . S
N1520 H1533 0.985 . S
N1521 C1523 1.356 . S
N1521 H1526 0.984 . S
N1521 H1527 0.985 . S
C1522 C1516 1.379 . S
C1522 C1519 1.363 . S
C1522 N1520 1.356 . S
C1523 C1517 1.363 . S
C1523 C1518 1.379 . S
C1523 N1521 1.356 . S
N1524 C1516 1.356 . S
N1524 H1530 0.984 . S
N1524 H1531 0.984 . S
N1525 C1518 1.356 . S
N1525 H1528 0.984 . S
N1525 H1529 0.985 . S
H1526 N1521 0.984 . S
H1527 N1521 0.985 . S
H1528 N1525 0.984 . S
H1529 N1525 0.985 . S
H1530 N1524 0.984 . S
H1531 N1524 0.984 . S
H1532 N1520 0.984 . S
H1533 N1520 0.985 . S
C1534 C1535 1.363 . S
C1534 C1540 1.379 . S
C1534 N1542 1.356 . S
C1535 C1534 1.363 . S
C1535 C1541 1.363 . S
C1536 C1537 1.363 . S
C1536 C1541 1.379 . S
C1536 N1543 1.356 . S
C1537 C1536 1.363 . S
C1537 C1540 1.363 . S
N1538 C1540 1.356 . S
N1538 H1550 0.984 . S
N1538 H1551 0.985 . S
N1539 C1541 1.356 . S
N1539 H1544 0.984 . S
N1539 H1545 0.985 . S
C1540 C1534 1.379 . S
C1540 C1537 1.363 . S
C1540 N1538 1.356 . S
C1541 C1535 1.363 . S
C1541 C1536 1.379 . S
C1541 N1539 1.356 . S
N1542 C1534 1.356 . S
N1542 H1548 0.984 . S
N1542 H1549 0.984 . S
N1543 C1536 1.356 . S
N1543 H1546 0.984 . S
N1543 H1547 0.985 . S
H1544 N1539 0.984 . S
H1545 N1539 0.985 . S
H1546 N1543 0.984 . S
H1547 N1543 0.985 . S
H1548 N1542 0.984 . S
H1549 N1542 0.984 . S
H1550 N1538 0.984 . S
H1551 N1538 0.985 . S
C1552 C1553 1.363 . S
C1552 C1558 1.379 1_556 S
C1552 N1560 1.356 . S
C1553 C1552 1.363 . S
C1553 C1559 1.363 . S
C1554 C1555 1.363 . S
C1554 C1559 1.379 1_554 S
C1554 N1561 1.356 . S
C1555 C1554 1.363 . S
C1555 C1558 1.363 . S
N1556 C1558 1.356 . S
N1556 H1568 0.984 . S
N1556 H1569 0.985 . S
N1557 C1559 1.356 . S
N1557 H1562 0.984 . S
N1557 H1563 0.985 . S
C1558 C1552 1.379 1_554 S
C1558 C1555 1.363 . S
C1558 N1556 1.356 . S
C1559 C1553 1.363 . S
C1559 C1554 1.379 1_556 S
C1559 N1557 1.356 . S
N1560 C1552 1.356 . S
N1560 H1566 0.984 . S
N1560 H1567 0.984 . S
N1561 C1554 1.356 . S
N1561 H1564 0.984 . S
N1561 H1565 0.985 . S
H1562 N1557 0.984 . S
H1563 N1557 0.985 . S
H1564 N1561 0.984 . S
H1565 N1561 0.985 . S
H1566 N1560 0.984 . S
H1567 N1560 0.984 . S
H1568 N1556 0.984 . S
H1569 N1556 0.985 . S
C1570 C1571 1.363 . S
C1570 C1576 1.379 1_556 S
C1570 N1578 1.356 . S
C1571 C1570 1.363 . S
C1571 C1577 1.363 . S
C1572 C1573 1.363 . S
C1572 C1577 1.379 1_554 S
C1572 N1579 1.356 . S
C1573 C1572 1.363 . S
C1573 C1576 1.363 . S
N1574 C1576 1.356 . S
N1574 H1586 0.984 . S
N1574 H1587 0.985 . S
N1575 C1577 1.356 . S
N1575 H1580 0.984 . S
N1575 H1581 0.985 . S
C1576 C1570 1.379 1_554 S
C1576 C1573 1.363 . S
C1576 N1574 1.356 . S
C1577 C1571 1.363 . S
C1577 C1572 1.379 1_556 S
C1577 N1575 1.356 . S
N1578 C1570 1.356 . S
N1578 H1584 0.984 . S
N1578 H1585 0.984 . S
N1579 C1572 1.356 . S
N1579 H1582 0.984 . S
N1579 H1583 0.985 . S
H1580 N1575 0.984 . S
H1581 N1575 0.985 . S
H1582 N1579 0.984 . S
H1583 N1579 0.985 . S
H1584 N1578 0.984 . S
H1585 N1578 0.984 . S
H1586 N1574 0.984 . S
H1587 N1574 0.985 . S
C1588 C1589 1.363 . S
C1588 C1594 1.379 1_556 S
C1588 N1596 1.356 . S
C1589 C1588 1.363 . S
C1589 C1595 1.363 . S
C1590 C1591 1.363 . S
C1590 C1595 1.379 1_554 S
C1590 N1597 1.356 . S
C1591 C1590 1.363 . S
C1591 C1594 1.363 . S
N1592 C1594 1.356 . S
N1592 H1604 0.984 . S
N1592 H1605 0.985 . S
N1593 C1595 1.356 . S
N1593 H1598 0.984 . S
N1593 H1599 0.985 . S
C1594 C1588 1.379 1_554 S
C1594 C1591 1.363 . S
C1594 N1592 1.356 . S
C1595 C1589 1.363 . S
C1595 C1590 1.379 1_556 S
C1595 N1593 1.356 . S
N1596 C1588 1.356 . S
N1596 H1602 0.984 . S
N1596 H1603 0.984 . S
N1597 C1590 1.356 . S
N1597 H1600 0.984 . S
N1597 H1601 0.985 . S
H1598 N1593 0.984 . S
H1599 N1593 0.985 . S
H1600 N1597 0.984 . S
H1601 N1597 0.985 . S
H1602 N1596 0.984 . S
H1603 N1596 0.984 . S
H1604 N1592 0.984 . S
H1605 N1592 0.985 . S
C1606 C1607 1.363 . S
C1606 C1612 1.379 1_554 S
C1606 N1614 1.356 . S
C1607 C1606 1.363 . S
C1607 C1613 1.363 . S
C1608 C1609 1.363 . S
C1608 C1613 1.379 1_556 S
C1608 N1615 1.356 . S
C1609 C1608 1.363 . S
C1609 C1612 1.363 . S
N1610 C1612 1.356 . S
N1610 H1622 0.984 . S
N1610 H1623 0.985 . S
N1611 C1613 1.356 . S
N1611 H1616 0.984 . S
N1611 H1617 0.985 . S
C1612 C1606 1.379 1_556 S
C1612 C1609 1.363 . S
C1612 N1610 1.356 . S
C1613 C1607 1.363 . S
C1613 C1608 1.379 1_554 S
C1613 N1611 1.356 . S
N1614 C1606 1.356 . S
N1614 H1620 0.984 . S
N1614 H1621 0.984 . S
N1615 C1608 1.356 . S
N1615 H1618 0.984 . S
N1615 H1619 0.985 . S
H1616 N1611 0.984 . S
H1617 N1611 0.985 . S
H1618 N1615 0.984 . S
H1619 N1615 0.985 . S
H1620 N1614 0.984 . S
H1621 N1614 0.984 . S
H1622 N1610 0.984 . S
H1623 N1610 0.985 . S
C1624 C1625 1.363 . S
C1624 C1630 1.379 . S
C1624 N1632 1.356 . S
C1625 C1624 1.363 . S
C1625 C1631 1.363 . S
C1626 C1627 1.363 . S
C1626 C1631 1.379 . S
C1626 N1633 1.356 . S
C1627 C1626 1.363 . S
C1627 C1630 1.363 . S
N1628 C1630 1.356 . S
N1628 H1640 0.984 . S
N1628 H1641 0.985 . S
N1629 C1631 1.356 . S
N1629 H1634 0.984 . S
N1629 H1635 0.985 . S
C1630 C1624 1.379 . S
C1630 C1627 1.363 . S
C1630 N1628 1.356 . S
C1631 C1625 1.363 . S
C1631 C1626 1.379 . S
C1631 N1629 1.356 . S
N1632 C1624 1.356 . S
N1632 H1638 0.984 . S
N1632 H1639 0.984 . S
N1633 C1626 1.356 . S
N1633 H1636 0.984 . S
N1633 H1637 0.985 . S
H1634 N1629 0.984 . S
H1635 N1629 0.985 . S
H1636 N1633 0.984 . S
H1637 N1633 0.985 . S
H1638 N1632 0.984 . S
H1639 N1632 0.984 . S
H1640 N1628 0.984 . S
H1641 N1628 0.985 . S
C1642 C1643 1.363 . S
C1642 C1648 1.379 . S
C1642 N1650 1.356 . S
C1643 C1642 1.363 . S
C1643 C1649 1.363 . S
C1644 C1645 1.363 . S
C1644 C1649 1.379 . S
C1644 N1651 1.356 . S
C1645 C1644 1.363 . S
C1645 C1648 1.363 . S
N1646 C1648 1.356 . S
N1646 H1658 0.984 . S
N1646 H1659 0.985 . S
N1647 C1649 1.356 . S
N1647 H1652 0.984 . S
N1647 H1653 0.985 . S
C1648 C1642 1.379 . S
C1648 C1645 1.363 . S
C1648 N1646 1.356 . S
C1649 C1643 1.363 . S
C1649 C1644 1.379 . S
C1649 N1647 1.356 . S
N1650 C1642 1.356 . S
N1650 H1656 0.984 . S
N1650 H1657 0.984 . S
N1651 C1644 1.356 . S
N1651 H1654 0.984 . S
N1651 H1655 0.985 . S
H1652 N1647 0.984 . S
H1653 N1647 0.985 . S
H1654 N1651 0.984 . S
H1655 N1651 0.985 . S
H1656 N1650 0.984 . S
H1657 N1650 0.984 . S
H1658 N1646 0.984 . S
H1659 N1646 0.985 . S
C1660 C1661 1.363 . S
C1660 C1666 1.379 . S
C1660 N1668 1.356 . S
C1661 C1660 1.363 . S
C1661 C1667 1.363 . S
C1662 C1663 1.363 . S
C1662 C1667 1.379 . S
C1662 N1669 1.356 . S
C1663 C1662 1.363 . S
C1663 C1666 1.363 . S
N1664 C1666 1.356 . S
N1664 H1676 0.984 . S
N1664 H1677 0.985 . S
N1665 C1667 1.356 . S
N1665 H1670 0.984 . S
N1665 H1671 0.985 . S
C1666 C1660 1.379 . S
C1666 C1663 1.363 . S
C1666 N1664 1.356 . S
C1667 C1661 1.363 . S
C1667 C1662 1.379 . S
C1667 N1665 1.356 . S
N1668 C1660 1.356 . S
N1668 H1674 0.984 . S
N1668 H1675 0.984 . S
N1669 C1662 1.356 . S
N1669 H1672 0.984 . S
N1669 H1673 0.985 . S
H1670 N1665 0.984 . S
H1671 N1665 0.985 . S
H1672 N1669 0.984 . S
H1673 N1669 0.985 . S
H1674 N1668 0.984 . S
H1675 N1668 0.984 . S
H1676 N1664 0.984 . S
H1677 N1664 0.985 . S
C1678 C1679 1.363 . S
C1678 C1684 1.379 . S
C1678 N1686 1.356 . S
C1679 C1678 1.363 . S
C1679 C1685 1.363 . S
C1680 C1681 1.363 . S
C1680 C1685 1.379 . S
C1680 N1687 1.356 . S
C1681 C1680 1.363 . S
C1681 C1684 1.363 . S
N1682 C1684 1.356 . S
N1682 H1694 0.984 . S
N1682 H1695 0.985 . S
N1683 C1685 1.356 . S
N1683 H1688 0.984 . S
N1683 H1689 0.985 . S
C1684 C1678 1.379 . S
C1684 C1681 1.363 . S
C1684 N1682 1.356 . S
C1685 C1679 1.363 . S
C1685 C1680 1.379 . S
C1685 N1683 1.356 . S
N1686 C1678 1.356 . S
N1686 H1692 0.984 . S
N1686 H1693 0.984 . S
N1687 C1680 1.356 . S
N1687 H1690 0.984 . S
N1687 H1691 0.985 . S
H1688 N1683 0.984 . S
H1689 N1683 0.985 . S
H1690 N1687 0.984 . S
H1691 N1687 0.985 . S
H1692 N1686 0.984 . S
H1693 N1686 0.984 . S
H1694 N1682 0.984 . S
H1695 N1682 0.985 . S
C1696 C1697 1.363 . S
C1696 C1702 1.379 . S
C1696 N1704 1.356 . S
C1697 C1696 1.363 . S
C1697 C1703 1.363 . S
C1698 C1699 1.363 . S
C1698 C1703 1.379 . S
C1698 N1705 1.356 . S
C1699 C1698 1.363 . S
C1699 C1702 1.363 . S
N1700 C1702 1.356 . S
N1700 H1712 0.984 . S
N1700 H1713 0.985 . S
N1701 C1703 1.356 . S
N1701 H1706 0.984 . S
N1701 H1707 0.985 . S
C1702 C1696 1.379 . S
C1702 C1699 1.363 . S
C1702 N1700 1.356 . S
C1703 C1697 1.363 . S
C1703 C1698 1.379 . S
C1703 N1701 1.356 . S
N1704 C1696 1.356 . S
N1704 H1710 0.984 . S
N1704 H1711 0.984 . S
N1705 C1698 1.356 . S
N1705 H1708 0.984 . S
N1705 H1709 0.985 . S
H1706 N1701 0.984 . S
H1707 N1701 0.985 . S
H1708 N1705 0.984 . S
H1709 N1705 0.985 . S
H1710 N1704 0.984 . S
H1711 N1704 0.984 . S
H1712 N1700 0.984 . S
H1713 N1700 0.985 . S
C1714 C1715 1.363 . S
C1714 C1720 1.379 . S
C1714 N1722 1.356 . S
C1715 C1714 1.363 . S
C1715 C1721 1.363 . S
C1716 C1717 1.363 . S
C1716 C1721 1.379 . S
C1716 N1723 1.356 . S
C1717 C1716 1.363 . S
C1717 C1720 1.363 . S
N1718 C1720 1.356 . S
N1718 H1730 0.984 . S
N1718 H1731 0.985 . S
N1719 C1721 1.356 . S
N1719 H1724 0.984 . S
N1719 H1725 0.985 . S
C1720 C1714 1.379 . S
C1720 C1717 1.363 . S
C1720 N1718 1.356 . S
C1721 C1715 1.363 . S
C1721 C1716 1.379 . S
C1721 N1719 1.356 . S
N1722 C1714 1.356 . S
N1722 H1728 0.984 . S
N1722 H1729 0.984 . S
N1723 C1716 1.356 . S
N1723 H1726 0.984 . S
N1723 H1727 0.985 . S
H1724 N1719 0.984 . S
H1725 N1719 0.985 . S
H1726 N1723 0.984 . S
H1727 N1723 0.985 . S
H1728 N1722 0.984 . S
H1729 N1722 0.984 . S
H1730 N1718 0.984 . S
H1731 N1718 0.985 . S
C1732 C1733 1.363 . S
C1732 C1738 1.379 . S
C1732 N1740 1.356 . S
C1733 C1732 1.363 . S
C1733 C1739 1.363 . S
C1734 C1735 1.363 . S
C1734 C1739 1.379 . S
C1734 N1741 1.356 . S
C1735 C1734 1.363 . S
C1735 C1738 1.363 . S
N1736 C1738 1.356 . S
N1736 H1748 0.984 . S
N1736 H1749 0.985 . S
N1737 C1739 1.356 . S
N1737 H1742 0.984 . S
N1737 H1743 0.985 . S
C1738 C1732 1.379 . S
C1738 C1735 1.363 . S
C1738 N1736 1.356 . S
C1739 C1733 1.363 . S
C1739 C1734 1.379 . S
C1739 N1737 1.356 . S
N1740 C1732 1.356 . S
N1740 H1746 0.984 . S
N1740 H1747 0.984 . S
N1741 C1734 1.356 . S
N1741 H1744 0.984 . S
N1741 H1745 0.985 . S
H1742 N1737 0.984 . S
H1743 N1737 0.985 . S
H1744 N1741 0.984 . S
H1745 N1741 0.985 . S
H1746 N1740 0.984 . S
H1747 N1740 0.984 . S
H1748 N1736 0.984 . S
H1749 N1736 0.985 . S
C1750 C1751 1.363 . S
C1750 C1756 1.379 . S
C1750 N1758 1.356 . S
C1751 C1750 1.363 . S
C1751 C1757 1.363 . S
C1752 C1753 1.363 . S
C1752 C1757 1.379 . S
C1752 N1759 1.356 . S
C1753 C1752 1.363 . S
C1753 C1756 1.363 . S
N1754 C1756 1.356 . S
N1754 H1766 0.984 . S
N1754 H1767 0.985 . S
N1755 C1757 1.356 . S
N1755 H1760 0.984 . S
N1755 H1761 0.985 . S
C1756 C1750 1.379 . S
C1756 C1753 1.363 . S
C1756 N1754 1.356 . S
C1757 C1751 1.363 . S
C1757 C1752 1.379 . S
C1757 N1755 1.356 . S
N1758 C1750 1.356 . S
N1758 H1764 0.984 . S
N1758 H1765 0.984 . S
N1759 C1752 1.356 . S
N1759 H1762 0.984 . S
N1759 H1763 0.985 . S
H1760 N1755 0.984 . S
H1761 N1755 0.985 . S
H1762 N1759 0.984 . S
H1763 N1759 0.985 . S
H1764 N1758 0.984 . S
H1765 N1758 0.984 . S
H1766 N1754 0.984 . S
H1767 N1754 0.985 . S
C1768 C1769 1.363 . S
C1768 C1774 1.379 . S
C1768 N1776 1.356 . S
C1769 C1768 1.363 . S
C1769 C1775 1.363 . S
C1770 C1771 1.363 . S
C1770 C1775 1.379 . S
C1770 N1777 1.356 . S
C1771 C1770 1.363 . S
C1771 C1774 1.363 . S
N1772 C1774 1.356 . S
N1772 H1784 0.984 . S
N1772 H1785 0.985 . S
N1773 C1775 1.356 . S
N1773 H1778 0.984 . S
N1773 H1779 0.985 . S
C1774 C1768 1.379 . S
C1774 C1771 1.363 . S
C1774 N1772 1.356 . S
C1775 C1769 1.363 . S
C1775 C1770 1.379 . S
C1775 N1773 1.356 . S
N1776 C1768 1.356 . S
N1776 H1782 0.984 . S
N1776 H1783 0.984 . S
N1777 C1770 1.356 . S
N1777 H1780 0.984 . S
N1777 H1781 0.985 . S
H1778 N1773 0.984 . S
H1779 N1773 0.985 . S
H1780 N1777 0.984 . S
H1781 N1777 0.985 . S
H1782 N1776 0.984 . S
H1783 N1776 0.984 . S
H1784 N1772 0.984 . S
H1785 N1772 0.985 . S
C1786 C1787 1.363 . S
C1786 C1792 1.379 . S
C1786 N1794 1.356 . S
C1787 C1786 1.363 . S
C1787 C1793 1.363 . S
C1788 C1789 1.363 . S
C1788 C1793 1.379 . S
C1788 N1795 1.356 . S
C1789 C1788 1.363 . S
C1789 C1792 1.363 . S
N1790 C1792 1.356 . S
N1790 H1802 0.984 . S
N1790 H1803 0.985 . S
N1791 C1793 1.356 . S
N1791 H1796 0.984 . S
N1791 H1797 0.985 . S
C1792 C1786 1.379 . S
C1792 C1789 1.363 . S
C1792 N1790 1.356 . S
C1793 C1787 1.363 . S
C1793 C1788 1.379 . S
C1793 N1791 1.356 . S
N1794 C1786 1.356 . S
N1794 H1800 0.984 . S
N1794 H1801 0.984 . S
N1795 C1788 1.356 . S
N1795 H1798 0.984 . S
N1795 H1799 0.985 . S
H1796 N1791 0.984 . S
H1797 N1791 0.985 . S
H1798 N1795 0.984 . S
H1799 N1795 0.985 . S
H1800 N1794 0.984 . S
H1801 N1794 0.984 . S
H1802 N1790 0.984 . S
H1803 N1790 0.985 . S
C1804 C1805 1.363 . S
C1804 C1810 1.379 . S
C1804 N1812 1.356 . S
C1805 C1804 1.363 . S
C1805 C1811 1.363 . S
C1806 C1807 1.363 . S
C1806 C1811 1.379 . S
C1806 N1813 1.356 . S
C1807 C1806 1.363 . S
C1807 C1810 1.363 . S
N1808 C1810 1.356 . S
N1808 H1820 0.984 . S
N1808 H1821 0.985 . S
N1809 C1811 1.356 . S
N1809 H1814 0.984 . S
N1809 H1815 0.985 . S
C1810 C1804 1.379 . S
C1810 C1807 1.363 . S
C1810 N1808 1.356 . S
C1811 C1805 1.363 . S
C1811 C1806 1.379 . S
C1811 N1809 1.356 . S
N1812 C1804 1.356 . S
N1812 H1818 0.984 . S
N1812 H1819 0.984 . S
N1813 C1806 1.356 . S
N1813 H1816 0.984 . S
N1813 H1817 0.985 . S
H1814 N1809 0.984 . S
H1815 N1809 0.985 . S
H1816 N1813 0.984 . S
H1817 N1813 0.985 . S
H1818 N1812 0.984 . S
H1819 N1812 0.984 . S
H1820 N1808 0.984 . S
H1821 N1808 0.985 . S
C1822 C1823 1.363 . S
C1822 C1828 1.379 . S
C1822 N1830 1.356 . S
C1823 C1822 1.363 . S
C1823 C1829 1.363 . S
C1824 C1825 1.363 . S
C1824 C1829 1.379 . S
C1824 N1831 1.356 . S
C1825 C1824 1.363 . S
C1825 C1828 1.363 . S
N1826 C1828 1.356 . S
N1826 H1838 0.984 . S
N1826 H1839 0.985 . S
N1827 C1829 1.356 . S
N1827 H1832 0.984 . S
N1827 H1833 0.985 . S
C1828 C1822 1.379 . S
C1828 C1825 1.363 . S
C1828 N1826 1.356 . S
C1829 C1823 1.363 . S
C1829 C1824 1.379 . S
C1829 N1827 1.356 . S
N1830 C1822 1.356 . S
N1830 H1836 0.984 . S
N1830 H1837 0.984 . S
N1831 C1824 1.356 . S
N1831 H1834 0.984 . S
N1831 H1835 0.985 . S
H1832 N1827 0.984 . S
H1833 N1827 0.985 . S
H1834 N1831 0.984 . S
H1835 N1831 0.985 . S
H1836 N1830 0.984 . S
H1837 N1830 0.984 . S
H1838 N1826 0.984 . S
H1839 N1826 0.985 . S
C1840 C1841 1.363 . S
C1840 C1846 1.379 1_545 S
C1840 N1848 1.356 . S
C1841 C1840 1.363 . S
C1841 C1847 1.363 . S
C1842 C1843 1.363 . S
C1842 C1847 1.379 1_565 S
C1842 N1849 1.356 . S
C1843 C1842 1.363 . S
C1843 C1846 1.363 . S
N1844 C1846 1.356 . S
N1844 H1856 0.984 . S
N1844 H1857 0.985 . S
N1845 C1847 1.356 . S
N1845 H1850 0.984 . S
N1845 H1851 0.985 . S
C1846 C1840 1.379 1_565 S
C1846 C1843 1.363 . S
C1846 N1844 1.356 . S
C1847 C1841 1.363 . S
C1847 C1842 1.379 1_545 S
C1847 N1845 1.356 . S
N1848 C1840 1.356 . S
N1848 H1854 0.984 . S
N1848 H1855 0.984 . S
N1849 C1842 1.356 . S
N1849 H1852 0.984 . S
N1849 H1853 0.985 . S
H1850 N1845 0.984 . S
H1851 N1845 0.985 . S
H1852 N1849 0.984 . S
H1853 N1849 0.985 . S
H1854 N1848 0.984 . S
H1855 N1848 0.984 . S
H1856 N1844 0.984 . S
H1857 N1844 0.985 . S
C1858 C1859 1.363 . S
C1858 C1864 1.379 1_655 S
C1858 N1866 1.356 . S
C1859 C1858 1.363 . S
C1859 C1865 1.363 . S
C1860 C1861 1.363 . S
C1860 C1865 1.379 1_455 S
C1860 N1867 1.356 . S
C1861 C1860 1.363 . S
C1861 C1864 1.363 . S
N1862 C1864 1.356 . S
N1862 H1874 0.984 . S
N1862 H1875 0.985 . S
N1863 C1865 1.356 . S
N1863 H1868 0.984 . S
N1863 H1869 0.985 . S
C1864 C1858 1.379 1_455 S
C1864 C1861 1.363 . S
C1864 N1862 1.356 . S
C1865 C1859 1.363 . S
C1865 C1860 1.379 1_655 S
C1865 N1863 1.356 . S
N1866 C1858 1.356 . S
N1866 H1872 0.984 . S
N1866 H1873 0.984 . S
N1867 C1860 1.356 . S
N1867 H1870 0.984 . S
N1867 H1871 0.985 . S
H1868 N1863 0.984 . S
H1869 N1863 0.985 . S
H1870 N1867 0.984 . S
H1871 N1867 0.985 . S
H1872 N1866 0.984 . S
H1873 N1866 0.984 . S
H1874 N1862 0.984 . S
H1875 N1862 0.985 . S
C1876 C1877 1.363 . S
C1876 C1882 1.379 1_545 S
C1876 N1884 1.356 . S
C1877 C1876 1.363 . S
C1877 C1883 1.363 . S
C1878 C1879 1.363 . S
C1878 C1883 1.379 1_565 S
C1878 N1885 1.356 . S
C1879 C1878 1.363 . S
C1879 C1882 1.363 . S
N1880 C1882 1.356 . S
N1880 H1892 0.984 . S
N1880 H1893 0.985 . S
N1881 C1883 1.356 . S
N1881 H1886 0.984 . S
N1881 H1887 0.985 . S
C1882 C1876 1.379 1_565 S
C1882 C1879 1.363 . S
C1882 N1880 1.356 . S
C1883 C1877 1.363 . S
C1883 C1878 1.379 1_545 S
C1883 N1881 1.356 . S
N1884 C1876 1.356 . S
N1884 H1890 0.984 . S
N1884 H1891 0.984 . S
N1885 C1878 1.356 . S
N1885 H1888 0.984 . S
N1885 H1889 0.985 . S
H1886 N1881 0.984 . S
H1887 N1881 0.985 . S
H1888 N1885 0.984 . S
H1889 N1885 0.985 . S
H1890 N1884 0.984 . S
H1891 N1884 0.984 . S
H1892 N1880 0.984 . S
H1893 N1880 0.985 . S
C1894 C1895 1.363 . S
C1894 C1900 1.379 1_455 S
C1894 N1902 1.356 . S
C1895 C1894 1.363 . S
C1895 C1901 1.363 . S
C1896 C1897 1.363 . S
C1896 C1901 1.379 1_655 S
C1896 N1903 1.356 . S
C1897 C1896 1.363 . S
C1897 C1900 1.363 . S
N1898 C1900 1.356 . S
N1898 H1910 0.984 . S
N1898 H1911 0.985 . S
N1899 C1901 1.356 . S
N1899 H1904 0.984 . S
N1899 H1905 0.985 . S
C1900 C1894 1.379 1_655 S
C1900 C1897 1.363 . S
C1900 N1898 1.356 . S
C1901 C1895 1.363 . S
C1901 C1896 1.379 1_455 S
C1901 N1899 1.356 . S
N1902 C1894 1.356 . S
N1902 H1908 0.984 . S
N1902 H1909 0.984 . S
N1903 C1896 1.356 . S
N1903 H1906 0.984 . S
N1903 H1907 0.985 . S
H1904 N1899 0.984 . S
H1905 N1899 0.985 . S
H1906 N1903 0.984 . S
H1907 N1903 0.985 . S
H1908 N1902 0.984 . S
H1909 N1902 0.984 . S
H1910 N1898 0.984 . S
H1911 N1898 0.985 . S
C1912 C1913 1.363 . S
C1912 C1918 1.379 1_545 S
C1912 N1920 1.356 . S
C1913 C1912 1.363 . S
C1913 C1919 1.363 . S
C1914 C1915 1.363 . S
C1914 C1919 1.379 1_565 S
C1914 N1921 1.356 . S
C1915 C1914 1.363 . S
C1915 C1918 1.363 . S
N1916 C1918 1.356 . S
N1916 H1928 0.984 . S
N1916 H1929 0.985 . S
N1917 C1919 1.356 . S
N1917 H1922 0.984 . S
N1917 H1923 0.985 . S
C1918 C1912 1.379 1_565 S
C1918 C1915 1.363 . S
C1918 N1916 1.356 . S
C1919 C1913 1.363 . S
C1919 C1914 1.379 1_545 S
C1919 N1917 1.356 . S
N1920 C1912 1.356 . S
N1920 H1926 0.984 . S
N1920 H1927 0.984 . S
N1921 C1914 1.356 . S
N1921 H1924 0.984 . S
N1921 H1925 0.985 . S
H1922 N1917 0.984 . S
H1923 N1917 0.985 . S
H1924 N1921 0.984 . S
H1925 N1921 0.985 . S
H1926 N1920 0.984 . S
H1927 N1920 0.984 . S
H1928 N1916 0.984 . S
H1929 N1916 0.985 . S
C1930 C1931 1.363 . S
C1930 C1936 1.379 1_655 S
C1930 N1938 1.356 . S
C1931 C1930 1.363 . S
C1931 C1937 1.363 . S
C1932 C1933 1.363 . S
C1932 C1937 1.379 1_455 S
C1932 N1939 1.356 . S
C1933 C1932 1.363 . S
C1933 C1936 1.363 . S
N1934 C1936 1.356 . S
N1934 H1946 0.984 . S
N1934 H1947 0.985 . S
N1935 C1937 1.356 . S
N1935 H1940 0.984 . S
N1935 H1941 0.985 . S
C1936 C1930 1.379 1_455 S
C1936 C1933 1.363 . S
C1936 N1934 1.356 . S
C1937 C1931 1.363 . S
C1937 C1932 1.379 1_655 S
C1937 N1935 1.356 . S
N1938 C1930 1.356 . S
N1938 H1944 0.984 . S
N1938 H1945 0.984 . S
N1939 C1932 1.356 . S
N1939 H1942 0.984 . S
N1939 H1943 0.985 . S
H1940 N1935 0.984 . S
H1941 N1935 0.985 . S
H1942 N1939 0.984 . S
H1943 N1939 0.985 . S
H1944 N1938 0.984 . S
H1945 N1938 0.984 . S
H1946 N1934 0.984 . S
H1947 N1934 0.985 . S
C1948 C1949 1.363 . S
C1948 C1954 1.379 1_565 S
C1948 N1956 1.356 . S
C1949 C1948 1.363 . S
C1949 C1955 1.363 . S
C1950 C1951 1.363 . S
C1950 C1955 1.379 1_545 S
C1950 N1957 1.356 . S
C1951 C1950 1.363 . S
C1951 C1954 1.363 . S
N1952 C1954 1.356 . S
N1952 H1964 0.984 . S
N1952 H1965 0.985 . S
N1953 C1955 1.356 . S
N1953 H1958 0.984 . S
N1953 H1959 0.985 . S
C1954 C1948 1.379 1_545 S
C1954 C1951 1.363 . S
C1954 N1952 1.356 . S
C1955 C1949 1.363 . S
C1955 C1950 1.379 1_565 S
C1955 N1953 1.356 . S
N1956 C1948 1.356 . S
N1956 H1962 0.984 . S
N1956 H1963 0.984 . S
N1957 C1950 1.356 . S
N1957 H1960 0.984 . S
N1957 H1961 0.985 . S
H1958 N1953 0.984 . S
H1959 N1953 0.985 . S
H1960 N1957 0.984 . S
H1961 N1957 0.985 . S
H1962 N1956 0.984 . S
H1963 N1956 0.984 . S
H1964 N1952 0.984 . S
H1965 N1952 0.985 . S
C1966 C1967 1.363 . S
C1966 C1972 1.379 1_455 S
C1966 N1974 1.356 . S
C1967 C1966 1.363 . S
C1967 C1973 1.363 . S
C1968 C1969 1.363 . S
C1968 C1973 1.379 1_655 S
C1968 N1975 1.356 . S
C1969 C1968 1.363 . S
C1969 C1972 1.363 . S
N1970 C1972 1.356 . S
N1970 H1982 0.984 . S
N1970 H1983 0.985 . S
N1971 C1973 1.356 . S
N1971 H1976 0.984 . S
N1971 H1977 0.985 . S
C1972 C1966 1.379 1_655 S
C1972 C1969 1.363 . S
C1972 N1970 1.356 . S
C1973 C1967 1.363 . S
C1973 C1968 1.379 1_455 S
C1973 N1971 1.356 . S
N1974 C1966 1.356 . S
N1974 H1980 0.984 . S
N1974 H1981 0.984 . S
N1975 C1968 1.356 . S
N1975 H1978 0.984 . S
N1975 H1979 0.985 . S
H1976 N1971 0.984 . S
H1977 N1971 0.985 . S
H1978 N1975 0.984 . S
H1979 N1975 0.985 . S
H1980 N1974 0.984 . S
H1981 N1974 0.984 . S
H1982 N1970 0.984 . S
H1983 N1970 0.985 . S
C1409 C489 1.058 . S
C1411 C20 1.058 . S
C1427 C577 1.058 . S
C1429 C117 1.058 . S
C1445 C196 1.058 . S
C1447 C665 1.058 . S
C1463 C293 1.058 . S
C1465 C401 1.058 . S
C1481 C1173 1.058 . S
C1483 C753 1.058 . S
C1499 C1261 1.058 . S
C1501 C841 1.058 . S
C1517 C929 1.058 . S
C1519 C1349 1.058 . S
C1535 C1017 1.058 . S
C1537 C1085 1.058 . S
C1553 C909 1.506 . S
C1555 C57 1.506 . S
C1571 C997 1.506 . S
C1573 C137 1.506 . S
C1589 C733 1.506 . S
C1591 C233 1.506 . S
C1607 C313 1.506 . S
C1609 C821 1.506 . S
C1625 C1281 1.506 . S
C1627 C381 1.506 . S
C1643 C1369 1.506 . S
C1645 C469 1.506 . S
C1661 C557 1.506 . S
C1663 C1105 1.506 . S
C1679 C1193 1.506 . S
C1681 C645 1.506 . S
C1697 C409 1.467 . S
C1699 C29 1.467 . S
C1715 C108 1.467 . S
C1717 C497 1.467 . S
C1733 C205 1.467 . S
C1735 C585 1.467 . S
C1751 C673 1.467 . S
C1753 C284 1.467 . S
C1769 C724 1.495 . S
C1771 C1113 1.495 . S
C1787 C1201 1.495 . S
C1789 C812 1.495 . S
C1805 C900 1.495 . S
C1807 C1289 1.495 . S
C1823 C1377 1.495 . S
C1825 C988 1.495 . S
C1841 C1025 1.467 . S
C1843 C1164 1.467 . S
C1859 C761 1.467 . S
C1861 C1252 1.467 . S
C1877 C1340 1.467 . S
C1879 C849 1.467 . S
C1895 C937 1.467 . S
C1897 C1076 1.467 . S
C1913 C460 1.495 . S
C1915 C321 1.495 . S
C1931 C548 1.495 . S
C1933 C49 1.495 . S
C1949 C636 1.495 . S
C1951 C145 1.495 . S
C1967 C372 1.495 . S
C1969 C225 1.495 . S
