# Generated by pormake.
# Topology pcb, (4)-cn, num edge types: 1
# Building blocks:
#     Node 0, Type 0, BuildingBlock: QUQFOY_clean_sbu_1, # of connection points: 4
#     Node 1, Type 0, BuildingBlock: QUQFOY_clean_sbu_1, # of connection points: 4
#     Node 2, Type 0, BuildingBlock: QUQFOY_clean_sbu_1, # of connection points: 4
#     Node 3, Type 0, BuildingBlock: QUQFOY_clean_sbu_1, # of connection points: 4
#     Node 4, Type 0, BuildingBlock: QUQFOY_clean_sbu_1, # of connection points: 4
#     Node 5, Type 0, BuildingBlock: QUQFOY_clean_sbu_1, # of connection points: 4
#     Node 6, Type 0, BuildingBlock: QUQFOY_clean_sbu_1, # of connection points: 4
#     Node 7, Type 0, BuildingBlock: QUQFOY_clean_sbu_1, # of connection points: 4
#     Node 8, Type 0, BuildingBlock: QUQFOY_clean_sbu_1, # of connection points: 4
#     Node 9, Type 0, BuildingBlock: QUQFOY_clean_sbu_1, # of connection points: 4
#     Node 10, Type 0, BuildingBlock: QUQFOY_clean_sbu_1, # of connection points: 4
#     Node 11, Type 0, BuildingBlock: QUQFOY_clean_sbu_1, # of connection points: 4
#     Node 12, Type 0, BuildingBlock: QUQFOY_clean_sbu_1, # of connection points: 4
#     Node 13, Type 0, BuildingBlock: QUQFOY_clean_sbu_1, # of connection points: 4
#     Node 14, Type 0, BuildingBlock: QUQFOY_clean_sbu_1, # of connection points: 4
#     Node 15, Type 0, BuildingBlock: QUQFOY_clean_sbu_1, # of connection points: 4
#     Edge 16, Type (0, 0), BuildingBlock: ZUJKAS_clean_linker_0, # of connection points: 2
#     Edge 17, Type (0, 0), BuildingBlock: ZUJKAS_clean_linker_0, # of connection points: 2
#     Edge 18, Type (0, 0), BuildingBlock: ZUJKAS_clean_linker_0, # of connection points: 2
#     Edge 19, Type (0, 0), BuildingBlock: ZUJKAS_clean_linker_0, # of connection points: 2
#     Edge 20, Type (0, 0), BuildingBlock: ZUJKAS_clean_linker_0, # of connection points: 2
#     Edge 21, Type (0, 0), BuildingBlock: ZUJKAS_clean_linker_0, # of connection points: 2
#     Edge 22, Type (0, 0), BuildingBlock: ZUJKAS_clean_linker_0, # of connection points: 2
#     Edge 23, Type (0, 0), BuildingBlock: ZUJKAS_clean_linker_0, # of connection points: 2
#     Edge 24, Type (0, 0), BuildingBlock: ZUJKAS_clean_linker_0, # of connection points: 2
#     Edge 25, Type (0, 0), BuildingBlock: ZUJKAS_clean_linker_0, # of connection points: 2
#     Edge 26, Type (0, 0), BuildingBlock: ZUJKAS_clean_linker_0, # of connection points: 2
#     Edge 27, Type (0, 0), BuildingBlock: ZUJKAS_clean_linker_0, # of connection points: 2
#     Edge 28, Type (0, 0), BuildingBlock: ZUJKAS_clean_linker_0, # of connection points: 2
#     Edge 29, Type (0, 0), BuildingBlock: ZUJKAS_clean_linker_0, # of connection points: 2
#     Edge 30, Type (0, 0), BuildingBlock: ZUJKAS_clean_linker_0, # of connection points: 2
#     Edge 31, Type (0, 0), BuildingBlock: ZUJKAS_clean_linker_0, # of connection points: 2
#     Edge 32, Type (0, 0), BuildingBlock: ZUJKAS_clean_linker_0, # of connection points: 2
#     Edge 33, Type (0, 0), BuildingBlock: ZUJKAS_clean_linker_0, # of connection points: 2
#     Edge 34, Type (0, 0), BuildingBlock: ZUJKAS_clean_linker_0, # of connection points: 2
#     Edge 35, Type (0, 0), BuildingBlock: ZUJKAS_clean_linker_0, # of connection points: 2
#     Edge 36, Type (0, 0), BuildingBlock: ZUJKAS_clean_linker_0, # of connection points: 2
#     Edge 37, Type (0, 0), BuildingBlock: ZUJKAS_clean_linker_0, # of connection points: 2
#     Edge 38, Type (0, 0), BuildingBlock: ZUJKAS_clean_linker_0, # of connection points: 2
#     Edge 39, Type (0, 0), BuildingBlock: ZUJKAS_clean_linker_0, # of connection points: 2
#     Edge 40, Type (0, 0), BuildingBlock: ZUJKAS_clean_linker_0, # of connection points: 2
#     Edge 41, Type (0, 0), BuildingBlock: ZUJKAS_clean_linker_0, # of connection points: 2
#     Edge 42, Type (0, 0), BuildingBlock: ZUJKAS_clean_linker_0, # of connection points: 2
#     Edge 43, Type (0, 0), BuildingBlock: ZUJKAS_clean_linker_0, # of connection points: 2
#     Edge 44, Type (0, 0), BuildingBlock: ZUJKAS_clean_linker_0, # of connection points: 2
#     Edge 45, Type (0, 0), BuildingBlock: ZUJKAS_clean_linker_0, # of connection points: 2
#     Edge 46, Type (0, 0), BuildingBlock: ZUJKAS_clean_linker_0, # of connection points: 2
#     Edge 47, Type (0, 0), BuildingBlock: ZUJKAS_clean_linker_0, # of connection points: 2
# Relax obj value: 0.298
# Max RMSD: 0.245
# Mean RMSD: 0.193
data_MOF--net-pcb--node1-QUQFOY_clean_sbu_1--edge1-ZUJKAS_clean_linker_0
_symmetry_space_group_name_H-M    P1
_symmetry_Int_Tables_number       1
_symmetry_cell_setting            triclinic
loop_
_symmetry_equiv_pos_as_xyz
'x, y, z'
_cell_length_a     58.464134
_cell_length_b     62.46273
_cell_length_c     62.78641
_cell_angle_alpha  94.413569
_cell_angle_beta   93.741152
_cell_angle_gamma 97.702892
loop_
_atom_site_label
_atom_site_type_symbol
_atom_site_fract_x
_atom_site_fract_y
_atom_site_fract_z
_atom_type_partial_charge
O0 O 0.1548 0.15158 0.16214 0.0
Cd1 Cd 0.18738 0.14731 0.15306 0.0
Cd2 Cd 0.16595 0.13771 0.11572 0.0
O3 O 0.14142 0.1541 0.12902 0.0
O4 O 0.2099 0.16485 0.17463 0.0
O5 O 0.2047 0.17295 0.14102 0.0
C6 C 0.21455 0.17799 0.16011 0.0
C7 C 0.17734 0.14473 0.08187 0.0
C8 C 0.13906 0.15612 0.14901 0.0
C9 C 0.18294 0.10156 0.13743 0.0
O10 O 0.16786 0.10667 0.12399 0.0
O11 O 0.19569 0.1162 0.14961 0.0
O12 O 0.15723 0.13442 0.08446 0.0
O13 O 0.19097 0.15163 0.09872 0.0
O14 O 0.84955 0.14565 0.20786 0.0
Cd15 Cd 0.86201 0.17715 0.2029 0.0
Cd16 Cd 0.85723 0.16337 0.16173 0.0
O17 O 0.83917 0.13673 0.17365 0.0
O18 O 0.85289 0.19677 0.22619 0.0
O19 O 0.83869 0.1952 0.19234 0.0
C20 C 0.83878 0.20303 0.21202 0.0
C21 C 0.84325 0.17424 0.1291 0.0
C22 C 0.83962 0.13197 0.19298 0.0
C23 C 0.90574 0.17728 0.18225 0.0
O24 O 0.89291 0.16754 0.16634 0.0
O25 O 0.89674 0.1843 0.19881 0.0
O26 O 0.8512 0.15609 0.13027 0.0
O27 O 0.84265 0.18629 0.14664 0.0
O28 O 0.85339 0.85847 0.1954 0.0
Cd29 Cd 0.81912 0.86268 0.19397 0.0
Cd30 Cd 0.82506 0.87352 0.15386 0.0
O31 O 0.85669 0.86339 0.1613 0.0
O32 O 0.80255 0.84234 0.21227 0.0
O33 O 0.7976 0.83916 0.17672 0.0
C34 C 0.793 0.83162 0.19481 0.0
C35 C 0.81018 0.86602 0.11822 0.0
C36 C 0.86523 0.85856 0.17916 0.0
C37 C 0.81172 0.90729 0.18673 0.0
O38 O 0.81733 0.90239 0.16795 0.0
O39 O 0.81077 0.89336 0.20045 0.0
O40 O 0.82749 0.88082 0.12383 0.0
O41 O 0.80129 0.85496 0.13294 0.0
O42 O 0.15868 0.86789 0.18086 0.0
Cd43 Cd 0.14795 0.83625 0.18623 0.0
Cd44 Cd 0.1387 0.83086 0.14167 0.0
O45 O 0.15462 0.86269 0.14556 0.0
O46 O 0.16237 0.8319 0.21473 0.0
O47 O 0.16993 0.81432 0.18453 0.0
C48 C 0.17348 0.81798 0.20512 0.0
C49 C 0.14465 0.81315 0.10858 0.0
C50 C 0.16072 0.87501 0.1626 0.0
C51 C 0.09879 0.82287 0.17065 0.0
O52 O 0.10575 0.82356 0.15191 0.0
O53 O 0.11312 0.82697 0.18699 0.0
O54 O 0.13081 0.82741 0.11023 0.0
O55 O 0.15522 0.80846 0.12595 0.0
O56 O 0.14226 0.7755 0.87551 0.0
Cd57 Cd 0.1314 0.77972 0.8443 0.0
Cd58 Cd 0.1394 0.82157 0.85817 0.0
O59 O 0.15733 0.80976 0.8831 0.0
O60 O 0.14192 0.75794 0.8236 0.0
O61 O 0.15499 0.79315 0.8262 0.0
C62 C 0.15553 0.77391 0.8173 0.0
C63 C 0.15437 0.85433 0.84511 0.0
C64 C 0.15415 0.79033 0.8882 0.0
C65 C 0.08982 0.80066 0.84671 0.0
O66 O 0.10364 0.81614 0.85678 0.0
O67 O 0.09747 0.78428 0.83804 0.0
O68 O 0.14641 0.85376 0.86373 0.0
O69 O 0.15464 0.83612 0.83403 0.0
O70 O 0.15095 0.154 0.81846 0.0
Cd71 Cd 0.18284 0.14346 0.8189 0.0
Cd72 Cd 0.15759 0.10526 0.82295 0.0
O73 O 0.13032 0.12158 0.81463 0.0
O74 O 0.20326 0.16819 0.80942 0.0
O75 O 0.1955 0.13636 0.79047 0.0
C76 C 0.20556 0.1562 0.7923 0.0
C77 C 0.15775 0.06963 0.80878 0.0
C78 C 0.13145 0.14209 0.81539 0.0
C79 C 0.18959 0.12559 0.86074 0.0
O80 O 0.17244 0.11148 0.85394 0.0
O81 O 0.19812 0.13922 0.84842 0.0
O82 O 0.14317 0.07457 0.82221 0.0
O83 O 0.17188 0.08522 0.80253 0.0
O84 O 0.89617 0.19582 0.83318 0.0
Cd85 Cd 0.86164 0.18716 0.83731 0.0
Cd86 Cd 0.87775 0.18776 0.87932 0.0
O87 O 0.90815 0.2008 0.86742 0.0
O88 O 0.84563 0.19254 0.80985 0.0
O89 O 0.84007 0.20946 0.84097 0.0
C90 C 0.83533 0.20639 0.82048 0.0
C91 C 0.86953 0.20141 0.91329 0.0
C92 C 0.91234 0.20135 0.84785 0.0
C93 C 0.85614 0.14476 0.85641 0.0
O94 O 0.86765 0.15472 0.87295 0.0
O95 O 0.85078 0.15504 0.84057 0.0
O96 O 0.88667 0.19082 0.91061 0.0
O97 O 0.85705 0.20487 0.8965 0.0
O98 O 0.83867 0.82904 0.85344 0.0
Cd99 Cd 0.80584 0.83747 0.85293 0.0
Cd100 Cd 0.82733 0.87776 0.86297 0.0
O101 O 0.85437 0.86292 0.85189 0.0
O102 O 0.78573 0.81545 0.83341 0.0
O103 O 0.7946 0.84968 0.82617 0.0
C104 C 0.78447 0.83023 0.82026 0.0
C105 C 0.82821 0.9142 0.85649 0.0
C106 C 0.85605 0.84281 0.85081 0.0
C107 C 0.79879 0.85537 0.89591 0.0
O108 O 0.81418 0.8706 0.89188 0.0
O109 O 0.79097 0.84039 0.88147 0.0
O110 O 0.84253 0.908 0.87038 0.0
O111 O 0.81329 0.89952 0.84579 0.0
O112 O 0.65366 0.64669 0.66412 0.0
Cd113 Cd 0.68742 0.64449 0.65783 0.0
Cd114 Cd 0.66915 0.62951 0.61842 0.0
O115 O 0.63991 0.63936 0.63048 0.0
O116 O 0.70651 0.66381 0.68054 0.0
O117 O 0.70496 0.67052 0.64634 0.0
C118 C 0.7125 0.6765 0.666 0.0
C119 C 0.67569 0.63613 0.58313 0.0
C120 C 0.63692 0.64495 0.64988 0.0
C121 C 0.69272 0.59899 0.64446 0.0
O122 O 0.68008 0.60145 0.62785 0.0
O123 O 0.69892 0.61478 0.65852 0.0
O124 O 0.65932 0.62167 0.58769 0.0
O125 O 0.68837 0.64733 0.59881 0.0
O126 O 0.34603 0.64444 0.7013 0.0
Cd127 Cd 0.36003 0.67623 0.69982 0.0
Cd128 Cd 0.35537 0.66679 0.65741 0.0
O129 O 0.33719 0.63867 0.66651 0.0
O130 O 0.35066 0.69366 0.72461 0.0
O131 O 0.33869 0.69682 0.69084 0.0
C132 C 0.33797 0.70238 0.71104 0.0
C133 C 0.34236 0.67911 0.62503 0.0
C134 C 0.33667 0.63212 0.68517 0.0
C135 C 0.40395 0.67779 0.6796 0.0
O136 O 0.39101 0.67098 0.66272 0.0
O137 O 0.39509 0.68232 0.69703 0.0
O138 O 0.35131 0.66144 0.62567 0.0
O139 O 0.34024 0.68989 0.64299 0.0
O140 O 0.35306 0.35691 0.68824 0.0
Cd141 Cd 0.31859 0.36035 0.68679 0.0
Cd142 Cd 0.32308 0.36692 0.64553 0.0
O143 O 0.35486 0.35729 0.65333 0.0
O144 O 0.30313 0.34142 0.70694 0.0
O145 O 0.2972 0.33547 0.67154 0.0
C146 C 0.2934 0.32928 0.69034 0.0
C147 C 0.30728 0.35698 0.61041 0.0
C148 C 0.36423 0.35493 0.67169 0.0
C149 C 0.31075 0.40364 0.67569 0.0
O150 O 0.3162 0.39698 0.65732 0.0
O151 O 0.30974 0.39111 0.69068 0.0
O152 O 0.32501 0.3716 0.61478 0.0
O153 O 0.29851 0.34742 0.62611 0.0
O154 O 0.66717 0.3672 0.68001 0.0
Cd155 Cd 0.65176 0.33629 0.68368 0.0
Cd156 Cd 0.64206 0.33485 0.63902 0.0
O157 O 0.66052 0.36554 0.64491 0.0
O158 O 0.66392 0.32991 0.71237 0.0
O159 O 0.67073 0.31183 0.68222 0.0
C160 C 0.67374 0.31495 0.70287 0.0
C161 C 0.6467 0.31778 0.60527 0.0
C162 C 0.66902 0.37589 0.66247 0.0
C163 C 0.60192 0.32856 0.66758 0.0
O164 O 0.60891 0.32952 0.64888 0.0
O165 O 0.61633 0.33073 0.68388 0.0
O166 O 0.63513 0.3338 0.60755 0.0
O167 O 0.65579 0.31108 0.62237 0.0
O168 O 0.63811 0.27676 0.3719 0.0
Cd169 Cd 0.62692 0.28125 0.34099 0.0
Cd170 Cd 0.636 0.32378 0.35362 0.0
O171 O 0.6506 0.31149 0.38016 0.0
O172 O 0.63642 0.25923 0.31994 0.0
O173 O 0.65092 0.29413 0.323 0.0
C174 C 0.65079 0.27482 0.31396 0.0
C175 C 0.65417 0.35613 0.34204 0.0
C176 C 0.6483 0.292 0.38516 0.0
C177 C 0.58602 0.30411 0.34139 0.0
O178 O 0.60033 0.32024 0.34955 0.0
O179 O 0.59306 0.28636 0.33547 0.0
O180 O 0.64496 0.35571 0.36009 0.0
O181 O 0.65377 0.33802 0.33061 0.0
O182 O 0.65064 0.6572 0.31647 0.0
Cd183 Cd 0.68224 0.64604 0.31734 0.0
Cd184 Cd 0.65691 0.60848 0.31725 0.0
O185 O 0.63079 0.62513 0.30662 0.0
O186 O 0.70423 0.66968 0.30793 0.0
O187 O 0.69438 0.63789 0.28905 0.0
C188 C 0.70562 0.6573 0.29078 0.0
C189 C 0.65939 0.57354 0.30251 0.0
C190 C 0.63158 0.64554 0.3101 0.0
C191 C 0.68465 0.62644 0.35812 0.0
O192 O 0.66732 0.61346 0.34955 0.0
O193 O 0.69563 0.63988 0.34698 0.0
O194 O 0.64237 0.57769 0.31342 0.0
O195 O 0.67476 0.5895 0.29905 0.0
O196 O 0.39337 0.69289 0.33461 0.0
Cd197 Cd 0.35846 0.68489 0.33697 0.0
Cd198 Cd 0.37188 0.68213 0.37945 0.0
O199 O 0.40405 0.692 0.36882 0.0
O200 O 0.34409 0.69251 0.30963 0.0
O201 O 0.33752 0.70765 0.34127 0.0
C202 C 0.33367 0.70595 0.32066 0.0
C203 C 0.3643 0.69689 0.41327 0.0
C204 C 0.40915 0.69497 0.3498 0.0
C205 C 0.34761 0.64148 0.35382 0.0
O206 O 0.35724 0.65021 0.3717 0.0
O207 O 0.3461 0.65264 0.33786 0.0
O208 O 0.37887 0.68332 0.41096 0.0
O209 O 0.35401 0.7025 0.39617 0.0
O210 O 0.33374 0.33007 0.34943 0.0
Cd211 Cd 0.30058 0.33775 0.3488 0.0
Cd212 Cd 0.32089 0.37769 0.36307 0.0
O213 O 0.35014 0.36392 0.3566 0.0
O214 O 0.28152 0.3157 0.32842 0.0
O215 O 0.28944 0.3503 0.32217 0.0
C216 C 0.28004 0.33077 0.31565 0.0
C217 C 0.32043 0.41324 0.35421 0.0
C218 C 0.3518 0.34404 0.35208 0.0
C219 C 0.28957 0.3533 0.3922 0.0
O220 O 0.30414 0.36982 0.38991 0.0
O221 O 0.2845 0.33843 0.37703 0.0
O222 O 0.33359 0.40871 0.37 0.0
O223 O 0.30737 0.3974 0.34313 0.0
H224 H 0.29099 0.35099 0.27982 0.0
H225 H 0.28074 0.33615 0.2425 0.0
H226 H 0.23696 0.28239 0.2645 0.0
H227 H 0.24729 0.29689 0.30153 0.0
H228 H 0.29189 0.29467 0.22922 0.0
H229 H 0.19863 0.29736 0.21181 0.0
H230 H 0.21608 0.31541 0.23237 0.0
H231 H 0.20436 0.28839 0.23785 0.0
C232 C 0.27857 0.33641 0.27659 0.0
C233 C 0.26997 0.32501 0.2935 0.0
C234 C 0.2728 0.32794 0.25531 0.0
C235 C 0.25793 0.30831 0.25075 0.0
C236 C 0.24811 0.29778 0.26762 0.0
H237 H 0.24589 0.18919 0.19431 0.0
H238 H 0.26092 0.22582 0.20948 0.0
C239 C 0.25414 0.30601 0.28879 0.0
C240 C 0.25534 0.29667 0.22912 0.0
H241 H 0.21384 0.26611 0.1949 0.0
C242 C 0.27491 0.28899 0.2212 0.0
C243 C 0.23331 0.28954 0.21845 0.0
C244 C 0.21194 0.29831 0.22545 0.0
C245 C 0.27264 0.27243 0.20447 0.0
C246 C 0.25027 0.26335 0.19567 0.0
C247 C 0.23101 0.27287 0.20184 0.0
C248 C 0.24591 0.24171 0.18361 0.0
C249 C 0.29404 0.26382 0.19735 0.0
C250 C 0.23293 0.23843 0.16374 0.0
C251 C 0.22439 0.21737 0.15493 0.0
C252 C 0.22832 0.19941 0.16617 0.0
C253 C 0.2426 0.20273 0.18531 0.0
C254 C 0.25135 0.22368 0.19393 0.0
H255 H 0.30921 0.27678 0.19924 0.0
H256 H 0.29803 0.25082 0.2075 0.0
H257 H 0.29157 0.25697 0.18037 0.0
H258 H 0.22836 0.25214 0.15565 0.0
H259 H 0.21328 0.21527 0.14021 0.0
H260 H 0.65321 0.23681 0.29011 0.0
H261 H 0.6846 0.22831 0.26841 0.0
H262 H 0.7187 0.29408 0.28154 0.0
H263 H 0.68714 0.30288 0.30286 0.0
H264 H 0.72247 0.27673 0.23939 0.0
H265 H 0.74644 0.22167 0.29992 0.0
H266 H 0.7172 0.21514 0.28835 0.0
H267 H 0.72591 0.24035 0.30446 0.0
C268 C 0.6672 0.24955 0.28811 0.0
C269 C 0.66788 0.27042 0.29845 0.0
C270 C 0.68514 0.24466 0.27577 0.0
C271 C 0.70417 0.26045 0.27379 0.0
C272 C 0.70421 0.28164 0.28298 0.0
H273 H 0.83927 0.22741 0.24997 0.0
H274 H 0.80762 0.24498 0.26355 0.0
C275 C 0.68618 0.28661 0.2952 0.0
C276 C 0.72487 0.25447 0.26372 0.0
H277 H 0.76688 0.22186 0.2687 0.0
C278 C 0.73226 0.26477 0.24577 0.0
C279 C 0.73783 0.23919 0.27239 0.0
C280 C 0.73162 0.22859 0.29246 0.0
C281 C 0.7521 0.25985 0.23598 0.0
C282 C 0.76457 0.24402 0.24425 0.0
C283 C 0.75728 0.23397 0.26236 0.0
C284 C 0.7851 0.23719 0.23445 0.0
C285 C 0.75972 0.27187 0.21716 0.0
C286 C 0.78324 0.22761 0.21332 0.0
C287 C 0.80146 0.21776 0.20543 0.0
C288 C 0.82161 0.21701 0.21869 0.0
C289 C 0.8239 0.22763 0.23942 0.0
C290 C 0.80583 0.23767 0.2472 0.0
H291 H 0.75271 0.28754 0.21688 0.0
H292 H 0.77889 0.27511 0.21749 0.0
H293 H 0.75316 0.26185 0.2021 0.0
H294 H 0.76726 0.22665 0.20334 0.0
H295 H 0.79915 0.20959 0.18942 0.0
H296 H 0.78529 0.79762 0.16389 0.0
H297 H 0.76738 0.76043 0.16816 0.0
H298 H 0.75132 0.78065 0.23203 0.0
H299 H 0.76949 0.81753 0.22809 0.0
H300 H 0.78498 0.73725 0.2051 0.0
H301 H 0.6908 0.74177 0.20224 0.0
H302 H 0.71085 0.76 0.18903 0.0
H303 H 0.70836 0.76441 0.21736 0.0
C304 C 0.77742 0.7942 0.17863 0.0
C305 C 0.7788 0.81039 0.1957 0.0
C306 C 0.76729 0.77299 0.18104 0.0
C307 C 0.75792 0.76793 0.20033 0.0
C308 C 0.75822 0.78435 0.21693 0.0
H309 H 0.74281 0.68855 0.29367 0.0
H310 H 0.75711 0.70958 0.26493 0.0
C311 C 0.76867 0.80537 0.21469 0.0
C312 C 0.75024 0.74527 0.20454 0.0
H313 H 0.7044 0.71423 0.22278 0.0
C314 C 0.76722 0.73183 0.20831 0.0
C315 C 0.72707 0.73821 0.20851 0.0
C316 C 0.70814 0.75176 0.2039 0.0
C317 C 0.76199 0.71245 0.21802 0.0
C318 C 0.7393 0.70654 0.22404 0.0
C319 C 0.72185 0.71885 0.21822 0.0
C320 C 0.73427 0.69055 0.23986 0.0
C321 C 0.78106 0.69918 0.22302 0.0
C322 C 0.7171 0.67252 0.23518 0.0
C323 C 0.7091 0.66025 0.25163 0.0
C324 C 0.71778 0.66629 0.27296 0.0
C325 C 0.73588 0.68355 0.27735 0.0
C326 C 0.74413 0.6955 0.26093 0.0
H327 H 0.79487 0.70159 0.21174 0.0
H328 H 0.78899 0.70437 0.23946 0.0
H329 H 0.77423 0.68164 0.22228 0.0
H330 H 0.70911 0.66864 0.21904 0.0
H331 H 0.69496 0.64713 0.24789 0.0
H332 H 0.30797 0.73521 0.33882 0.0
H333 H 0.28009 0.75484 0.32024 0.0
H334 H 0.2952 0.7249 0.25953 0.0
H335 H 0.32281 0.70522 0.2778 0.0
H336 H 0.28776 0.78373 0.28682 0.0
H337 H 0.22408 0.71094 0.26006 0.0
H338 H 0.24662 0.71098 0.28116 0.0
H339 H 0.25318 0.70868 0.25357 0.0
C340 C 0.30534 0.73284 0.32152 0.0
C341 C 0.31746 0.71856 0.30979 0.0
C342 C 0.28945 0.74405 0.31096 0.0
C343 C 0.28536 0.74099 0.28859 0.0
C344 C 0.2978 0.72713 0.27685 0.0
H345 H 0.2002 0.78824 0.18994 0.0
H346 H 0.22767 0.77015 0.21078 0.0
C347 C 0.31365 0.71598 0.28733 0.0
C348 C 0.26826 0.75235 0.2773 0.0
H349 H 0.21845 0.74352 0.24447 0.0
C350 C 0.27248 0.77502 0.27771 0.0
C351 C 0.24843 0.74084 0.2654 0.0
C352 C 0.24263 0.71653 0.26512 0.0
C353 C 0.25767 0.78648 0.26598 0.0
C354 C 0.23799 0.77493 0.25387 0.0
C355 C 0.23364 0.75229 0.25369 0.0
C356 C 0.22158 0.78604 0.24133 0.0
C357 C 0.26355 0.81077 0.26615 0.0
C358 C 0.20891 0.80069 0.25169 0.0
C359 C 0.19327 0.81103 0.23988 0.0
C360 C 0.18991 0.80678 0.21749 0.0
C361 C 0.20245 0.79188 0.20716 0.0
C362 C 0.21812 0.78155 0.21902 0.0
H363 H 0.28196 0.81641 0.27172 0.0
H364 H 0.26015 0.81617 0.24994 0.0
H365 H 0.25257 0.81871 0.27721 0.0
H366 H 0.21099 0.80402 0.26895 0.0
H367 H 0.18378 0.82232 0.24834 0.0
H368 H 0.30865 0.72338 0.68694 0.0
H369 H 0.27812 0.74327 0.69975 0.0
H370 H 0.29903 0.73273 0.76486 0.0
H371 H 0.3298 0.71354 0.75233 0.0
H372 H 0.24222 0.72673 0.71951 0.0
H373 H 0.28959 0.79489 0.77254 0.0
H374 H 0.30393 0.779 0.75369 0.0
H375 H 0.29863 0.76996 0.77975 0.0
C376 C 0.30707 0.72578 0.70402 0.0
C377 C 0.32163 0.71688 0.71863 0.0
C378 C 0.2896 0.73711 0.71131 0.0
C379 C 0.28647 0.73977 0.73329 0.0
C380 C 0.30148 0.73145 0.74789 0.0
H381 H 0.16704 0.7352 0.80147 0.0
H382 H 0.19731 0.72936 0.7776 0.0
C383 C 0.31899 0.7203 0.74066 0.0
C384 C 0.26612 0.74899 0.741 0.0
H385 H 0.25018 0.78254 0.78112 0.0
C386 C 0.24395 0.73929 0.73267 0.0
C387 C 0.26827 0.76569 0.75786 0.0
C388 C 0.29142 0.77813 0.76627 0.0
C389 C 0.22399 0.74473 0.74177 0.0
C390 C 0.22631 0.7598 0.76004 0.0
C391 C 0.24836 0.77066 0.76736 0.0
C392 C 0.2065 0.76334 0.77285 0.0
C393 C 0.20066 0.73397 0.73187 0.0
C394 C 0.20182 0.78441 0.77848 0.0
C395 C 0.18479 0.78783 0.79249 0.0
C396 C 0.1721 0.7702 0.80108 0.0
C397 C 0.17638 0.74909 0.79498 0.0
C398 C 0.19357 0.74571 0.78117 0.0
H399 H 0.20122 0.72981 0.7144 0.0
H400 H 0.19577 0.71862 0.73931 0.0
H401 H 0.18705 0.74452 0.73433 0.0
H402 H 0.21167 0.79826 0.77237 0.0
H403 H 0.18186 0.8043 0.79688 0.0
H404 H 0.23913 0.19082 0.79589 0.0
H405 H 0.25321 0.21193 0.76715 0.0
H406 H 0.21283 0.16545 0.7203 0.0
H407 H 0.19865 0.14397 0.74923 0.0
H408 H 0.27501 0.20128 0.72656 0.0
H409 H 0.18666 0.2255 0.71678 0.0
H410 H 0.19598 0.2134 0.74046 0.0
H411 H 0.18999 0.19718 0.71539 0.0
C412 C 0.23368 0.18478 0.77945 0.0
C413 C 0.21765 0.1659 0.77476 0.0
C414 C 0.24179 0.19681 0.76305 0.0
C415 C 0.23385 0.19033 0.74169 0.0
C416 C 0.21904 0.1707 0.73675 0.0
H417 H 0.28102 0.29493 0.66007 0.0
H418 H 0.26409 0.25795 0.66635 0.0
C419 C 0.21108 0.15844 0.75324 0.0
C420 C 0.23912 0.20577 0.72543 0.0
H421 H 0.21712 0.24786 0.70373 0.0
C422 C 0.26224 0.211 0.72081 0.0
C423 C 0.22237 0.21849 0.71819 0.0
C424 C 0.19732 0.21353 0.7229 0.0
C425 C 0.26937 0.22965 0.71054 0.0
C426 C 0.25296 0.24332 0.70494 0.0
C427 C 0.22956 0.2372 0.70801 0.0
C428 C 0.26052 0.26575 0.70001 0.0
C429 C 0.2947 0.23572 0.70739 0.0
C430 C 0.26349 0.28226 0.71677 0.0
C431 C 0.27321 0.30319 0.71333 0.0
C432 C 0.27998 0.30802 0.69298 0.0
C433 C 0.27587 0.29168 0.6759 0.0
C434 C 0.26629 0.27059 0.67943 0.0
H435 H 0.30504 0.22267 0.7113 0.0
H436 H 0.29689 0.23928 0.69053 0.0
H437 H 0.30166 0.25067 0.71779 0.0
H438 H 0.2591 0.27872 0.73276 0.0
H439 H 0.27607 0.31544 0.72677 0.0
H440 H 0.82327 0.2034 0.77766 0.0
H441 H 0.79533 0.22227 0.75881 0.0
H442 H 0.78133 0.25484 0.81865 0.0
H443 H 0.80929 0.23578 0.83785 0.0
H444 H 0.74118 0.23599 0.79161 0.0
H445 H 0.80414 0.28688 0.74768 0.0
H446 H 0.80675 0.25849 0.74499 0.0
H447 H 0.81273 0.2735 0.7708 0.0
C448 C 0.81436 0.21463 0.78687 0.0
C449 C 0.81856 0.21817 0.80926 0.0
C450 C 0.79848 0.22548 0.77603 0.0
C451 C 0.78658 0.24016 0.78732 0.0
C452 C 0.79052 0.24364 0.80968 0.0
H453 H 0.68207 0.31762 0.74626 0.0
H454 H 0.70857 0.29875 0.76702 0.0
C455 C 0.80648 0.23279 0.8206 0.0
C456 C 0.76963 0.25138 0.77564 0.0
H457 H 0.76434 0.28541 0.73618 0.0
C458 C 0.74621 0.24695 0.77962 0.0
C459 C 0.77633 0.26558 0.75997 0.0
C460 C 0.80138 0.27159 0.75569 0.0
C461 C 0.72916 0.25593 0.76788 0.0
C462 C 0.73585 0.26992 0.75204 0.0
C463 C 0.7593 0.27452 0.74823 0.0
C464 C 0.71887 0.28039 0.7395 0.0
C465 C 0.7041 0.24997 0.77216 0.0
C466 C 0.71611 0.27649 0.7171 0.0
C467 C 0.70102 0.28733 0.70513 0.0
C468 C 0.68863 0.30239 0.7154 0.0
C469 C 0.6913 0.30607 0.73786 0.0
C470 C 0.70634 0.29521 0.74979 0.0
H471 H 0.70138 0.23502 0.78071 0.0
H472 H 0.69856 0.26337 0.78233 0.0
H473 H 0.69285 0.24749 0.75698 0.0
H474 H 0.72578 0.26518 0.70889 0.0
H475 H 0.69938 0.28421 0.68785 0.0
H476 H 0.75335 0.79486 0.80679 0.0
H477 H 0.74199 0.78044 0.76993 0.0
H478 H 0.7803 0.83689 0.74701 0.0
H479 H 0.79187 0.85155 0.7842 0.0
H480 H 0.72042 0.79669 0.73232 0.0
H481 H 0.81246 0.78415 0.72526 0.0
H482 H 0.80186 0.79039 0.75105 0.0
H483 H 0.80571 0.8109 0.73262 0.0
C484 C 0.75894 0.80448 0.79395 0.0
C485 C 0.77372 0.82418 0.79834 0.0
C486 C 0.75237 0.79625 0.77288 0.0
C487 C 0.76057 0.80748 0.75578 0.0
C488 C 0.77397 0.82793 0.76003 0.0
H489 H 0.71369 0.71321 0.64453 0.0
H490 H 0.72857 0.75042 0.65945 0.0
C491 C 0.78044 0.83631 0.78124 0.0
C492 C 0.75716 0.79605 0.73406 0.0
H493 H 0.78429 0.76233 0.7021 0.0
C494 C 0.73443 0.78976 0.72509 0.0
C495 C 0.77556 0.7871 0.72478 0.0
C496 C 0.80032 0.79335 0.73383 0.0
C497 C 0.72932 0.77308 0.7085 0.0
C498 C 0.7475 0.7626 0.70072 0.0
C499 C 0.77046 0.77048 0.70813 0.0
C500 C 0.7426 0.74067 0.68936 0.0
C501 C 0.70434 0.76524 0.70101 0.0
C502 C 0.74658 0.72297 0.70085 0.0
C503 C 0.73811 0.70191 0.69249 0.0
C504 C 0.72565 0.69812 0.67238 0.0
C505 C 0.72329 0.71571 0.66008 0.0
C506 C 0.73164 0.73693 0.66859 0.0
H507 H 0.69223 0.77472 0.70929 0.0
H508 H 0.70166 0.76656 0.68353 0.0
H509 H 0.69989 0.7479 0.70388 0.0
H510 H 0.75501 0.72553 0.71691 0.0
H511 H 0.74033 0.68866 0.70226 0.0
H512 H 0.22102 0.15767 0.88239 0.0
H513 H 0.22983 0.16382 0.92118 0.0
H514 H 0.18547 0.10464 0.92973 0.0
H515 H 0.1767 0.09824 0.89109 0.0
H516 H 0.19552 0.16955 0.94839 0.0
H517 H 0.2411 0.10188 0.97177 0.0
H518 H 0.23904 0.1095 0.94458 0.0
H519 H 0.2154 0.0926 0.95456 0.0
C520 C 0.21359 0.14567 0.89247 0.0
C521 C 0.19801 0.12753 0.88365 0.0
C522 C 0.21865 0.14924 0.91464 0.0
C523 C 0.20849 0.13459 0.9283 0.0
C524 C 0.19389 0.11592 0.91946 0.0
H525 H 0.14983 0.14014 0.04479 0.0
H526 H 0.16183 0.14138 0.00836 0.0
C527 C 0.18874 0.11238 0.89734 0.0
C528 C 0.2104 0.14011 0.95175 0.0
H529 H 0.2206 0.11883 0.99935 0.0
C530 C 0.20154 0.15874 0.95957 0.0
C531 C 0.21843 0.12611 0.96632 0.0
C532 C 0.22925 0.10652 0.95889 0.0
C533 C 0.19892 0.16287 0.98147 0.0
C534 C 0.2052 0.14794 0.9958 0.0
C535 C 0.21564 0.13017 0.98823 0.0
C536 C 0.19839 0.14899 0.01804 0.0
C537 C 0.18852 0.18268 0.98904 0.0
C538 C 0.21505 0.15292 0.03551 0.0
C539 C 0.20822 0.1524 0.05645 0.0
C540 C 0.18467 0.14754 0.06009 0.0
C541 C 0.16809 0.14392 0.0425 0.0
C542 C 0.17489 0.1447 0.02169 0.0
H543 H 0.19034 0.19526 0.97745 0.0
H544 H 0.16978 0.17796 0.99075 0.0
H545 H 0.19678 0.18978 0.0049 0.0
H546 H 0.23329 0.15612 0.03291 0.0
H547 H 0.22137 0.15511 0.06971 0.0
H548 H 0.89917 0.21233 0.94861 0.0
H549 H 0.88936 0.21416 0.98588 0.0
H550 H 0.81671 0.20451 0.96491 0.0
H551 H 0.82651 0.20352 0.92741 0.0
H552 H 0.82775 0.23158 0.00429 0.0
H553 H 0.86518 0.1546 0.00494 0.0
H554 H 0.88522 0.17682 0.99794 0.0
H555 H 0.85956 0.16719 0.98061 0.0
C556 C 0.88112 0.21122 0.95195 0.0
C557 C 0.86357 0.20749 0.9352 0.0
C558 C 0.87554 0.21222 0.97323 0.0
C559 C 0.85232 0.20888 0.97811 0.0
C560 C 0.83474 0.207 0.96145 0.0
H561 H 0.82265 0.1491 0.09426 0.0
H562 H 0.81943 0.15908 0.05745 0.0
C563 C 0.84035 0.20644 0.94007 0.0
C564 C 0.84669 0.20446 0.00017 0.0
H565 H 0.85608 0.17004 0.03835 0.0
C566 C 0.83376 0.21806 0.01177 0.0
C567 C 0.8541 0.1865 0.00969 0.0
C568 C 0.86657 0.17031 0.9976 0.0
C569 C 0.82864 0.2145 0.03294 0.0
C570 C 0.83708 0.19714 0.04278 0.0
C571 C 0.84959 0.18337 0.03091 0.0
C572 C 0.83378 0.19277 0.06541 0.0
C573 C 0.81403 0.22916 0.04439 0.0
C574 C 0.84185 0.2086 0.08234 0.0
C575 C 0.8431 0.20299 0.10353 0.0
C576 C 0.8369 0.18137 0.10796 0.0
C577 C 0.82761 0.16587 0.09121 0.0
C578 C 0.82581 0.17157 0.07019 0.0
H579 H 0.80283 0.23652 0.03287 0.0
H580 H 0.80291 0.22025 0.05542 0.0
H581 H 0.82555 0.24255 0.05393 0.0
H582 H 0.84862 0.22493 0.07912 0.0
H583 H 0.85057 0.21517 0.11619 0.0
H584 H 0.81144 0.88523 0.93008 0.0
H585 H 0.80216 0.88231 0.9671 0.0
H586 H 0.75947 0.82101 0.94885 0.0
H587 H 0.76892 0.8236 0.91157 0.0
H588 H 0.75922 0.87709 0.9864 0.0
H589 H 0.80776 0.80676 0.99468 0.0
H590 H 0.81071 0.82327 0.97241 0.0
H591 H 0.785 0.80429 0.97357 0.0
C592 C 0.79992 0.87117 0.93383 0.0
C593 C 0.79114 0.85452 0.91789 0.0
C594 C 0.79457 0.86958 0.95501 0.0
C595 C 0.78039 0.85132 0.96073 0.0
C596 C 0.77074 0.83507 0.94477 0.0
H597 H 0.77927 0.8319 0.09884 0.0
H598 H 0.7657 0.82578 0.06062 0.0
C599 C 0.77609 0.83664 0.92349 0.0
C600 C 0.77705 0.8491 0.98365 0.0
H601 H 0.79586 0.82323 0.02602 0.0
C602 C 0.76677 0.86503 0.99503 0.0
C603 C 0.78678 0.83324 0.99482 0.0
C604 C 0.79832 0.81594 0.98337 0.0
C605 C 0.76726 0.86633 0.01745 0.0
C606 C 0.77856 0.85151 0.0287 0.0
C607 C 0.78723 0.83456 0.01727 0.0
C608 C 0.78499 0.85547 0.05196 0.0
C609 C 0.75661 0.88417 0.02898 0.0
C610 C 0.80047 0.87399 0.05956 0.0
C611 C 0.80838 0.87738 0.0811 0.0
C612 C 0.80097 0.8623 0.09557 0.0
C613 C 0.78521 0.84381 0.08804 0.0
C614 C 0.77743 0.84032 0.06629 0.0
H615 H 0.74254 0.8894 0.0187 0.0
H616 H 0.74952 0.87892 0.04402 0.0
H617 H 0.77009 0.89843 0.03315 0.0
H618 H 0.80689 0.88564 0.04867 0.0
H619 H 0.82048 0.89179 0.08637 0.0
H620 H 0.1825 0.79476 0.09639 0.0
H621 H 0.19167 0.78529 0.0594 0.0
H622 H 0.12544 0.80073 0.03579 0.0
H623 H 0.1164 0.8105 0.07231 0.0
H624 H 0.1675 0.7564 0.02239 0.0
H625 H 0.17514 0.84395 0.01055 0.0
H626 H 0.17523 0.83394 0.03677 0.0
H627 H 0.14835 0.83383 0.02105 0.0
C628 C 0.16976 0.79569 0.0833 0.0
C629 C 0.1489 0.80369 0.08716 0.0
C630 C 0.17501 0.79029 0.06223 0.0
C631 C 0.15938 0.79272 0.04492 0.0
C632 C 0.13788 0.79911 0.04894 0.0
H633 H 0.13434 0.7592 0.912 0.0
H634 H 0.14131 0.75734 0.95049 0.0
C635 C 0.13275 0.80468 0.06982 0.0
C636 C 0.16593 0.79065 0.02257 0.0
H637 H 0.17032 0.81958 0.97889 0.0
C638 C 0.16855 0.77022 0.01286 0.0
C639 C 0.16787 0.8088 0.01036 0.0
C640 C 0.16674 0.83142 0.02025 0.0
C641 C 0.17162 0.76727 0.99083 0.0
C642 C 0.17151 0.78515 0.97823 0.0
C643 C 0.17029 0.80577 0.98836 0.0
C644 C 0.17059 0.78295 0.95442 0.0
C645 C 0.17475 0.74504 0.98133 0.0
C646 C 0.18478 0.79781 0.94358 0.0
C647 C 0.18032 0.79935 0.92166 0.0
C648 C 0.16184 0.78578 0.91007 0.0
C649 C 0.14884 0.76974 0.9205 0.0
C650 C 0.15296 0.76854 0.94254 0.0
H651 H 0.1835 0.73606 0.99332 0.0
H652 H 0.1575 0.73559 0.97644 0.0
H653 H 0.18503 0.74592 0.96709 0.0
H654 H 0.1985 0.8091 0.95233 0.0
H655 H 0.19069 0.81179 0.91398 0.0
H656 H 0.12481 0.15645 0.1898 0.0
H657 H 0.08743 0.16458 0.20143 0.0
H658 H 0.06735 0.17895 0.13736 0.0
H659 H 0.10448 0.17097 0.12559 0.0
H660 H 0.05589 0.20892 0.17243 0.0
H661 H 0.02721 0.12138 0.1809 0.0
H662 H 0.05426 0.1336 0.1948 0.0
H663 H 0.05162 0.13035 0.16607 0.0
C664 C 0.11253 0.16157 0.17825 0.0
C665 C 0.11751 0.16283 0.15671 0.0
C666 C 0.09121 0.16618 0.18492 0.0
C667 C 0.07465 0.17217 0.17018 0.0
C668 C 0.07996 0.17435 0.14895 0.0
H669 H 0.9302 0.16243 0.15006 0.0
H670 H 0.97202 0.1633 0.15007 0.0
C671 C 0.10115 0.16967 0.14224 0.0
C672 C 0.0511 0.17469 0.17622 0.0
H673 H -0.00024 0.14518 0.18535 0.0
C674 C 0.04367 0.19511 0.17565 0.0
C675 C 0.03526 0.15652 0.18019 0.0
C676 C 0.04231 0.13415 0.18044 0.0
C677 C 0.02051 0.19769 0.17833 0.0
C678 C 0.00457 0.17939 0.1816 0.0
C679 C 0.01217 0.15915 0.1829 0.0
C680 C 0.97949 0.18037 0.18155 0.0
C681 C 0.01289 0.21967 0.17665 0.0
C682 C 0.96997 0.18988 0.19925 0.0
C683 C 0.94597 0.18938 0.19936 0.0
C684 C 0.93121 0.17934 0.18175 0.0
C685 C 0.941 0.17028 0.16389 0.0
C686 C 0.9649 0.17072 0.16385 0.0
H687 H 0.02716 0.23199 0.1727 0.0
H688 H -0.00165 0.21854 0.16413 0.0
H689 H 0.0065 0.22525 0.1921 0.0
H690 H 0.98105 0.19727 0.2131 0.0
H691 H 0.93898 0.19649 0.21336 0.0
H692 H 0.81183 0.92791 0.22697 0.0
H693 H 0.80895 0.96637 0.23602 0.0
H694 H 0.79927 0.97555 0.16883 0.0
H695 H 0.8022 0.93744 0.15967 0.0
H696 H 0.84021 0.00022 0.22109 0.0
H697 H 0.74929 0.00741 0.19594 0.0
H698 H 0.7587 0.98192 0.20178 0.0
H699 H 0.763 0.99231 0.17618 0.0
C700 C 0.80864 0.93805 0.21417 0.0
C701 C 0.80735 0.92969 0.1926 0.0
C702 C 0.807 0.95998 0.21937 0.0
C703 C 0.80358 0.97368 0.2031 0.0
C704 C 0.80145 0.96515 0.18164 0.0
H705 H 0.8201 0.09825 0.16454 0.0
H706 H 0.80878 0.06069 0.1717 0.0
C707 C 0.80333 0.94339 0.17643 0.0
C708 C 0.80489 0.99737 0.20801 0.0
H709 H 0.77676 0.04007 0.19679 0.0
C710 C 0.82619 0.00902 0.21635 0.0
C711 C 0.78655 0.00868 0.20176 0.0
C712 C 0.76301 0.99693 0.1936 0.0
C713 C 0.83025 0.03172 0.21693 0.0
C714 C 0.8123 0.04301 0.20942 0.0
C715 C 0.79051 0.03139 0.20247 0.0
C716 C 0.81673 0.06636 0.20598 0.0
C717 C 0.85422 0.04325 0.22405 0.0
C718 C 0.82432 0.08216 0.22298 0.0
C719 C 0.83104 0.10374 0.21892 0.0
C720 C 0.83006 0.10984 0.19779 0.0
C721 C 0.82122 0.09413 0.18098 0.0
C722 C 0.81466 0.07263 0.18505 0.0
H723 H 0.86708 0.03178 0.22572 0.0
H724 H 0.86019 0.05498 0.21248 0.0
H725 H 0.85384 0.05242 0.23985 0.0
H726 H 0.8256 0.07773 0.23931 0.0
H727 H 0.83757 0.11548 0.23225 0.0
H728 H 0.88978 0.84825 0.21478 0.0
H729 H 0.92849 0.83725 0.21681 0.0
H730 H 0.93254 0.84356 0.14922 0.0
H731 H 0.89396 0.85447 0.14694 0.0
H732 H 0.94581 0.80353 0.16489 0.0
H733 H 0.98971 0.87901 0.21157 0.0
H734 H 0.96416 0.86537 0.2218 0.0
H735 H 0.96181 0.87774 0.19704 0.0
C736 C 0.89893 0.84737 0.20035 0.0
C737 C 0.88881 0.85236 0.18071 0.0
C738 C 0.92102 0.84109 0.20157 0.0
C739 C 0.93333 0.83973 0.18319 0.0
C740 C 0.92326 0.84452 0.16357 0.0
H741 H 0.06313 0.81815 0.13951 0.0
H742 H 0.02219 0.8185 0.14447 0.0
C743 C 0.90124 0.85085 0.16234 0.0
C744 C 0.95688 0.83356 0.18425 0.0
H745 H 0.0129 0.85262 0.20156 0.0
C746 C 0.9605 0.81413 0.17306 0.0
C747 C 0.97588 0.84738 0.19506 0.0
C748 C 0.97289 0.86863 0.20698 0.0
C749 C 0.9828 0.80834 0.17203 0.0
C750 C 0.00195 0.82263 0.18206 0.0
C751 C 0.99819 0.84168 0.1939 0.0
C752 C 0.02616 0.81922 0.17905 0.0
C753 C 0.98563 0.78705 0.16013 0.0
C754 C 0.04205 0.81948 0.19685 0.0
C755 C 0.06558 0.81953 0.19408 0.0
C756 C 0.07365 0.81944 0.17345 0.0
C757 C 0.05752 0.81816 0.15561 0.0
C758 C 0.03404 0.8182 0.15841 0.0
H759 H 0.9697 0.77511 0.15996 0.0
H760 H 0.98884 0.78975 0.14326 0.0
H761 H 0.00044 0.78 0.16738 0.0
H762 H 0.03633 0.82037 0.21292 0.0
H763 H 0.07752 0.82048 0.20817 0.0
H764 H 0.14852 0.06774 0.12925 0.0
H765 H 0.15027 0.02966 0.13405 0.0
H766 H 0.22314 0.04485 0.15397 0.0
H767 H 0.22102 0.08339 0.15048 0.0
H768 H 0.17177 0.0016 0.11539 0.0
H769 H 0.20308 0.01037 0.20136 0.0
H770 H 0.19415 0.03264 0.18786 0.0
H771 H 0.22251 0.02505 0.18494 0.0
C772 C 0.1649 0.06297 0.13473 0.0
C773 C 0.18461 0.07848 0.13961 0.0
C774 C 0.16591 0.04119 0.13746 0.0
C775 C 0.18675 0.03434 0.14472 0.0
C776 C 0.20668 0.04977 0.14901 0.0
H777 H 0.18569 0.893 0.13169 0.0
H778 H 0.19631 0.93165 0.12759 0.0
C779 C 0.20552 0.07174 0.14684 0.0
C780 C 0.18729 0.01098 0.14738 0.0
H781 H 0.19967 0.97526 0.18355 0.0
C782 C 0.17787 0.99585 0.13032 0.0
C783 C 0.19512 0.00346 0.1669 0.0
C784 C 0.20407 0.01871 0.18637 0.0
C785 C 0.17519 0.97349 0.13243 0.0
C786 C 0.18339 0.96593 0.15182 0.0
C787 C 0.19356 0.98104 0.16864 0.0
C788 C 0.17986 0.94258 0.1556 0.0
C789 C 0.16243 0.95843 0.11424 0.0
C790 C 0.16857 0.93585 0.17353 0.0
C791 C 0.16331 0.91383 0.17633 0.0
C792 C 0.16884 0.89814 0.16102 0.0
C793 C 0.18093 0.90483 0.14353 0.0
C794 C 0.18681 0.92689 0.14109 0.0
H795 H 0.15164 0.9671 0.10354 0.0
H796 H 0.17515 0.95144 0.1044 0.0
H797 H 0.15099 0.94496 0.12031 0.0
H798 H 0.16312 0.94762 0.18502 0.0
H799 H 0.15397 0.90907 0.18994 0.0
H800 H 0.88774 0.8605 0.82518 0.0
H801 H 0.92572 0.84991 0.81925 0.0
H802 H 0.91343 0.79959 0.86229 0.0
H803 H 0.87474 0.8092 0.86697 0.0
H804 H 0.96036 0.85305 0.8452 0.0
H805 H 0.94083 0.76619 0.81742 0.0
H806 H 0.91844 0.78334 0.81938 0.0
H807 H 0.92889 0.77114 0.84259 0.0
C808 C 0.89305 0.84693 0.83305 0.0
C809 C 0.8784 0.83562 0.8465 0.0
C810 C 0.91473 0.84087 0.82967 0.0
C811 C 0.92244 0.82372 0.84006 0.0
C812 C 0.90769 0.81236 0.85347 0.0
H813 H 0.06604 0.8209 0.87589 0.0
H814 H 0.02515 0.82524 0.87308 0.0
C815 C 0.88567 0.81801 0.85634 0.0
C816 C 0.94663 0.8192 0.83847 0.0
H817 H 0.98001 0.77858 0.83233 0.0
C818 C 0.96454 0.83676 0.84204 0.0
C819 C 0.95229 0.79805 0.83396 0.0
C820 C 0.93404 0.77868 0.82788 0.0
C821 C 0.98783 0.83373 0.84189 0.0
C822 C 0.99352 0.81241 0.83925 0.0
C823 C 0.97567 0.79489 0.83485 0.0
C824 C 0.01786 0.80806 0.84155 0.0
C825 C 0.00601 0.85354 0.84432 0.0
C826 C 0.02707 0.79571 0.82539 0.0
C827 C 0.05037 0.79261 0.8273 0.0
C828 C 0.06482 0.80209 0.84525 0.0
C829 C 0.05537 0.81378 0.86169 0.0
C830 C 0.03205 0.81641 0.86002 0.0
H831 H -0.00101 0.86783 0.83837 0.0
H832 H 0.01165 0.85759 0.86155 0.0
H833 H 0.02135 0.85081 0.83549 0.0
H834 H 0.01638 0.78891 0.81109 0.0
H835 H 0.05726 0.78348 0.81443 0.0
H836 H 0.15673 0.89468 0.86551 0.0
H837 H 0.16379 0.92937 0.85015 0.0
H838 H 0.17507 0.89658 0.78954 0.0
H839 H 0.16767 0.8615 0.8048 0.0
H840 H 0.20165 0.94964 0.83022 0.0
H841 H 0.12175 0.93127 0.77478 0.0
H842 H 0.1271 0.91503 0.79665 0.0
H843 H 0.14278 0.91277 0.77312 0.0
C844 C 0.16093 0.89478 0.84897 0.0
C845 C 0.16142 0.87531 0.83632 0.0
C846 C 0.16502 0.91466 0.84022 0.0
C847 C 0.16964 0.91553 0.81864 0.0
C848 C 0.17118 0.89622 0.80615 0.0
H849 H 0.19215 0.05247 0.78822 0.0
H850 H 0.19757 0.01408 0.78416 0.0
C851 C 0.16707 0.87623 0.81492 0.0
C852 C 0.1715 0.93675 0.80938 0.0
H853 H 0.14052 0.96701 0.77841 0.0
C854 C 0.18864 0.95341 0.8185 0.0
C855 C 0.15442 0.94153 0.79413 0.0
C856 C 0.13535 0.92431 0.78411 0.0
C857 C 0.18823 0.97501 0.81395 0.0
C858 C 0.1704 0.97997 0.79959 0.0
C859 C 0.15422 0.96309 0.78932 0.0
C860 C 0.16581 0.00261 0.79814 0.0
C861 C 0.20579 0.99251 0.82585 0.0
C862 C 0.14562 0.00869 0.80625 0.0
C863 C 0.14243 0.03043 0.80846 0.0
C864 C 0.15937 0.04659 0.80256 0.0
C865 C 0.17885 0.04038 0.793 0.0
C866 C 0.18204 0.01849 0.79079 0.0
H867 H 0.21651 0.98612 0.83851 0.0
H868 H 0.21752 -0.00011 0.8144 0.0
H869 H 0.197 0.00551 0.83342 0.0
H870 H 0.13283 0.99669 0.81196 0.0
H871 H 0.12713 0.03463 0.8157 0.0
H872 H 0.12737 0.1853 0.82069 0.0
H873 H 0.09179 0.20148 0.82407 0.0
H874 H 0.0514 0.13824 0.81133 0.0
H875 H 0.08682 0.12182 0.80823 0.0
H876 H 0.05034 0.2008 0.79701 0.0
H877 H 0.0351 0.16024 0.87139 0.0
H878 H 0.06239 0.16191 0.85931 0.0
H879 H 0.03851 0.1419 0.84873 0.0
C880 C 0.11091 0.17483 0.81834 0.0
C881 C 0.10995 0.1522 0.81451 0.0
C882 C 0.09061 0.18414 0.82025 0.0
C883 C 0.06906 0.17099 0.81835 0.0
C884 C 0.06794 0.14859 0.81324 0.0
H885 H 0.92879 0.1939 0.8086 0.0
H886 H 0.96883 0.19161 0.80129 0.0
C887 C 0.0882 0.13925 0.81141 0.0
C888 C 0.04787 0.1804 0.82313 0.0
H889 H 0.00424 0.1769 0.85663 0.0
C890 C 0.04029 0.19575 0.81013 0.0
C891 C 0.03518 0.17418 0.84059 0.0
C892 C 0.04329 0.15882 0.85596 0.0
C893 C 0.01969 0.20436 0.81361 0.0
C894 C 0.0063 0.19714 0.83032 0.0
C895 C 0.01445 0.18242 0.84378 0.0
C896 C 0.98302 0.20322 0.83346 0.0
C897 C 0.01252 0.22107 0.79939 0.0
C898 C 0.97765 0.21093 0.85388 0.0
C899 C 0.95466 0.21191 0.85822 0.0
C900 C 0.93664 0.20521 0.84219 0.0
C901 C 0.94224 0.19921 0.82132 0.0
C902 C 0.96521 0.19803 0.81705 0.0
H903 H 0.02776 0.23017 0.79284 0.0
H904 H 0.00096 0.21276 0.78565 0.0
H905 H 0.00304 0.23278 0.80818 0.0
H906 H 0.99113 0.21502 0.86679 0.0
H907 H 0.95095 0.21676 0.87443 0.0
H908 H 0.85674 0.94774 0.87832 0.0
H909 H 0.85777 0.98631 0.87455 0.0
H910 H 0.80278 0.97245 0.82415 0.0
H911 H 0.80131 0.93346 0.82809 0.0
H912 H 0.86669 0.00843 0.83883 0.0
H913 H 0.77918 0.01737 0.86544 0.0
H914 H 0.79291 0.99367 0.8697 0.0
H915 H 0.78029 0.99725 0.8436 0.0
C916 C 0.8448 0.9528 0.86642 0.0
C917 C 0.82888 0.93752 0.85353 0.0
C918 C 0.84544 0.97489 0.86429 0.0
C919 C 0.8302 0.98225 0.84925 0.0
C920 C 0.81442 0.9671 0.83612 0.0
H921 H 0.82844 0.11863 0.82524 0.0
H922 H 0.82054 0.07894 0.82195 0.0
C923 C 0.8137 0.94486 0.8383 0.0
C924 C 0.83141 0.00584 0.84741 0.0
H925 H 0.80211 0.04903 0.85669 0.0
C926 C 0.8525 0.01728 0.84254 0.0
C927 C 0.81284 0.01732 0.85227 0.0
C928 C 0.79005 0.00588 0.85821 0.0
C929 C 0.85573 0.03994 0.84295 0.0
C930 C 0.83745 0.05142 0.84847 0.0
C931 C 0.81606 0.04004 0.85253 0.0
C932 C 0.84082 0.07533 0.85115 0.0
C933 C 0.8788 0.05155 0.83788 0.0
C934 C 0.85444 0.08627 0.86889 0.0
C935 C 0.85892 0.10888 0.87091 0.0
C936 C 0.84991 0.12092 0.85513 0.0
C937 C 0.83573 0.10984 0.83763 0.0
C938 C 0.83114 0.08721 0.83571 0.0
H939 H 0.88959 0.04031 0.83013 0.0
H940 H 0.87632 0.06454 0.82717 0.0
H941 H 0.88839 0.05931 0.85295 0.0
H942 H 0.86192 0.07727 0.88101 0.0
H943 H 0.86987 0.11687 0.88459 0.0
H944 H 0.71802 0.65457 0.38261 0.0
H945 H 0.72294 0.65972 0.42184 0.0
H946 H 0.66881 0.60642 0.42577 0.0
H947 H 0.66372 0.60102 0.38673 0.0
H948 H 0.66624 0.65425 0.44677 0.0
H949 H 0.74401 0.61567 0.46933 0.0
H950 H 0.7431 0.63098 0.44609 0.0
H951 H 0.72523 0.60531 0.44575 0.0
C952 C 0.70748 0.64364 0.39181 0.0
C953 C 0.69033 0.62748 0.38153 0.0
C954 C 0.71035 0.64663 0.41419 0.0
C955 C 0.69621 0.63345 0.42654 0.0
C956 C 0.67989 0.61669 0.4164 0.0
H957 H 0.64876 0.61771 0.54789 0.0
H958 H 0.65607 0.62072 0.51045 0.0
C959 C 0.67703 0.61365 0.39409 0.0
C960 C 0.69659 0.63834 0.44991 0.0
H961 H 0.72285 0.62807 0.49743 0.0
C962 C 0.67879 0.64883 0.45789 0.0
C963 C 0.71316 0.63144 0.46421 0.0
C964 C 0.73255 0.6202 0.45609 0.0
C965 C 0.67654 0.6518 0.47995 0.0
C966 C 0.69227 0.64371 0.49429 0.0
C967 C 0.71082 0.63423 0.48635 0.0
C968 C 0.68807 0.64268 0.51716 0.0
C969 C 0.657 0.66309 0.48772 0.0
C970 C 0.70386 0.65383 0.53337 0.0
C971 C 0.69971 0.65217 0.55495 0.0
C972 C 0.67987 0.63909 0.56053 0.0
C973 C 0.66417 0.62797 0.54417 0.0
C974 C 0.66826 0.62973 0.52273 0.0
H975 H 0.6511 0.67389 0.47586 0.0
H976 H 0.64208 0.65074 0.4901 0.0
H977 H 0.66225 0.67284 0.50324 0.0
H978 H 0.71933 0.66379 0.52931 0.0
H979 H 0.71218 0.66081 0.56722 0.0
H980 H 0.33493 0.72022 0.61635 0.0
H981 H 0.32988 0.73363 0.58075 0.0
H982 H 0.33134 0.66919 0.55124 0.0
H983 H 0.33623 0.65581 0.58636 0.0
H984 H 0.36182 0.73238 0.55049 0.0
H985 H 0.27817 0.6881 0.51601 0.0
H986 H 0.28606 0.69121 0.54452 0.0
H987 H 0.29539 0.66976 0.52778 0.0
C988 C 0.3336 0.70887 0.60224 0.0
C989 C 0.33605 0.68698 0.60412 0.0
C990 C 0.33075 0.71655 0.58195 0.0
C991 C 0.32985 0.70234 0.56334 0.0
C992 C 0.33139 0.68036 0.56534 0.0
H993 H 0.38885 0.69349 0.45074 0.0
H994 H 0.37828 0.70198 0.48691 0.0
C995 C 0.33442 0.67276 0.58547 0.0
C996 C 0.33031 0.71044 0.54176 0.0
H997 H 0.30757 0.6961 0.49045 0.0
C998 C 0.34956 0.72499 0.53742 0.0
C999 C 0.3141 0.70123 0.52472 0.0
C1000 C 0.29214 0.6869 0.52856 0.0
C1001 C 0.35432 0.72865 0.51628 0.0
C1002 C 0.33966 0.71721 0.49913 0.0
C1003 C 0.31907 0.70459 0.50357 0.0
C1004 C 0.34719 0.7151 0.47705 0.0
C1005 C 0.37567 0.74388 0.51249 0.0
C1006 C 0.33314 0.71949 0.45934 0.0
C1007 C 0.33915 0.71452 0.43844 0.0
C1008 C 0.35908 0.70476 0.43501 0.0
C1009 C 0.37338 0.70099 0.45281 0.0
C1010 C 0.36748 0.70606 0.47356 0.0
H1011 H 0.37959 0.75707 0.52566 0.0
H1012 H 0.39071 0.73477 0.51218 0.0
H1013 H 0.37366 0.75121 0.49704 0.0
H1014 H 0.31726 0.72622 0.46168 0.0
H1015 H 0.32775 0.71752 0.42502 0.0
H1016 H 0.2639 0.31742 0.40565 0.0
H1017 H 0.25301 0.31206 0.44211 0.0
H1018 H 0.28346 0.37774 0.46278 0.0
H1019 H 0.29405 0.38332 0.42661 0.0
H1020 H 0.2844 0.31412 0.47611 0.0
H1021 H 0.22485 0.37335 0.49352 0.0
H1022 H 0.23081 0.36498 0.46648 0.0
H1023 H 0.24992 0.38629 0.48223 0.0
C1024 C 0.26776 0.33088 0.41787 0.0
C1025 C 0.27997 0.35077 0.41325 0.0
C1026 C 0.26151 0.32777 0.43867 0.0
C1027 C 0.2671 0.34459 0.4551 0.0
C1028 C 0.27841 0.3647 0.45028 0.0
H1029 H 0.32036 0.37769 0.57585 0.0
H1030 H 0.30437 0.37025 0.53887 0.0
C1031 C 0.28469 0.3678 0.42958 0.0
C1032 C 0.26424 0.34059 0.4778 0.0
H1033 H 0.24973 0.36548 0.52429 0.0
C1034 C 0.27608 0.3248 0.48659 0.0
C1035 C 0.25323 0.3544 0.49145 0.0
C1036 C 0.23878 0.37054 0.48285 0.0
C1037 C 0.27924 0.32403 0.50884 0.0
C1038 C 0.27032 0.33938 0.52248 0.0
C1039 C 0.25666 0.3538 0.51371 0.0
C1040 C 0.2789 0.34356 0.54523 0.0
C1041 C 0.29383 0.30815 0.51775 0.0
C1042 C 0.26976 0.33091 0.56102 0.0
C1043 C 0.27889 0.33515 0.58238 0.0
C1044 C 0.29731 0.352 0.58806 0.0
C1045 C 0.30625 0.36455 0.57207 0.0
C1046 C 0.29709 0.3604 0.55091 0.0
H1047 H 0.2982 0.29628 0.50507 0.0
H1048 H 0.31017 0.31711 0.52583 0.0
H1049 H 0.28454 0.29919 0.52993 0.0
H1050 H 0.25571 0.31781 0.5568 0.0
H1051 H 0.27164 0.32524 0.59437 0.0
H1052 H 0.6448 0.25274 0.40262 0.0
H1053 H 0.65056 0.24676 0.44061 0.0
H1054 H 0.67251 0.31526 0.4558 0.0
H1055 H 0.66749 0.3213 0.41807 0.0
H1056 H 0.69705 0.29044 0.4807 0.0
H1057 H 0.60206 0.26372 0.47964 0.0
H1058 H 0.61794 0.24804 0.46224 0.0
H1059 H 0.61504 0.27553 0.45724 0.0
C1060 C 0.65128 0.26647 0.41401 0.0
C1061 C 0.6553 0.28756 0.40733 0.0
C1062 C 0.65445 0.26302 0.43572 0.0
C1063 C 0.66145 0.28063 0.45108 0.0
C1064 C 0.667 0.30143 0.44424 0.0
H1065 H 0.62761 0.32837 0.56767 0.0
H1066 H 0.63292 0.3139 0.5316 0.0
C1067 C 0.66402 0.30486 0.42262 0.0
C1068 C 0.66084 0.27824 0.47437 0.0
H1069 H 0.62276 0.27078 0.51299 0.0
C1070 C 0.68094 0.28567 0.48782 0.0
C1071 C 0.63974 0.27204 0.48358 0.0
C1072 C 0.6174 0.2645 0.47002 0.0
C1073 C 0.68017 0.28854 0.51017 0.0
C1074 C 0.6588 0.28353 0.51923 0.0
C1075 C 0.63911 0.27454 0.50592 0.0
C1076 C 0.65547 0.29116 0.5416 0.0
C1077 C 0.70178 0.29847 0.52376 0.0
C1078 C 0.66628 0.28303 0.5593 0.0
C1079 C 0.66332 0.2914 0.58018 0.0
C1080 C 0.64949 0.30796 0.58354 0.0
C1081 C 0.63844 0.31568 0.56572 0.0
C1082 C 0.64139 0.30737 0.54503 0.0
H1083 H 0.71642 0.30339 0.51396 0.0
H1084 H 0.69833 0.31292 0.53384 0.0
H1085 H 0.70709 0.28654 0.53464 0.0
H1086 H 0.67702 0.27033 0.55697 0.0
H1087 H 0.672 0.28509 0.59361 0.0
H1088 H 0.5974 0.64204 0.62354 0.0
H1089 H 0.55942 0.64998 0.63299 0.0
H1090 H 0.58593 0.66629 0.69877 0.0
H1091 H 0.62422 0.65854 0.68946 0.0
H1092 H 0.53232 0.62967 0.66392 0.0
H1093 H 0.55365 0.71899 0.68311 0.0
H1094 H 0.57191 0.70344 0.66791 0.0
H1095 H 0.57182 0.7022 0.69635 0.0
C1096 C 0.59525 0.64738 0.64002 0.0
C1097 C 0.61388 0.64968 0.65574 0.0
C1098 C 0.57352 0.65191 0.64538 0.0
C1099 C 0.56999 0.65894 0.6665 0.0
C1100 C 0.58845 0.66121 0.6823 0.0
H1101 H 0.4372 0.68583 0.71335 0.0
H1102 H 0.47846 0.68234 0.71241 0.0
C1103 C 0.61025 0.65665 0.67696 0.0
C1104 C 0.54665 0.66313 0.67186 0.0
H1105 H 0.515 0.70348 0.68588 0.0
C1106 C 0.52856 0.64577 0.66889 0.0
C1107 C 0.5419 0.68414 0.67849 0.0
C1108 C 0.56075 0.70336 0.68156 0.0
C1109 C 0.50568 0.64894 0.67183 0.0
C1110 C 0.50076 0.67008 0.67757 0.0
C1111 C 0.51892 0.68733 0.6814 0.0
C1112 C 0.47664 0.67456 0.67813 0.0
C1113 C 0.48684 0.6297 0.66845 0.0
C1114 C 0.46232 0.67207 0.65907 0.0
C1115 C 0.43889 0.67405 0.65952 0.0
C1116 C 0.42933 0.67862 0.67906 0.0
C1117 C 0.44402 0.68223 0.69805 0.0
C1118 C 0.46755 0.68024 0.69756 0.0
H1119 H 0.49394 0.61414 0.66939 0.0
H1120 H 0.47388 0.63075 0.68052 0.0
H1121 H 0.47779 0.62951 0.65233 0.0
H1122 H 0.46917 0.66799 0.64389 0.0
H1123 H 0.42816 0.67136 0.64457 0.0
H1124 H 0.31651 0.60129 0.65393 0.0
H1125 H 0.30655 0.56251 0.65705 0.0
H1126 H 0.32546 0.57227 0.72495 0.0
H1127 H 0.33558 0.61126 0.72208 0.0
H1128 H 0.34556 0.53998 0.6777 0.0
H1129 H 0.26063 0.52773 0.71381 0.0
H1130 H 0.26796 0.54983 0.6974 0.0
H1131 H 0.28207 0.55048 0.72367 0.0
C1132 C 0.31813 0.59534 0.66963 0.0
C1133 C 0.32709 0.60937 0.68772 0.0
C1134 C 0.31236 0.57317 0.67137 0.0
C1135 C 0.31522 0.56466 0.69122 0.0
C1136 C 0.32293 0.57866 0.70954 0.0
H1137 H 0.30992 0.42729 0.71433 0.0
H1138 H 0.30956 0.46658 0.72021 0.0
C1139 C 0.32877 0.6009 0.70783 0.0
C1140 C 0.31323 0.54095 0.69202 0.0
H1141 H 0.27765 0.4964 0.70433 0.0
C1142 C 0.3308 0.53044 0.68364 0.0
C1143 C 0.29409 0.52874 0.70006 0.0
C1144 C 0.27499 0.53962 0.70925 0.0
C1145 C 0.32949 0.50785 0.68257 0.0
C1146 C 0.30982 0.49546 0.68965 0.0
C1147 C 0.2926 0.506 0.69879 0.0
C1148 C 0.30661 0.47153 0.68648 0.0
C1149 C 0.34911 0.4974 0.6737 0.0
C1150 C 0.30421 0.46136 0.66562 0.0
C1151 C 0.30457 0.43911 0.66221 0.0
C1152 C 0.30713 0.42655 0.67963 0.0
C1153 C 0.308 0.43656 0.70059 0.0
C1154 C 0.30778 0.45896 0.70399 0.0
H1155 H 0.36529 0.50909 0.67437 0.0
H1156 H 0.3526 0.48338 0.68265 0.0
H1157 H 0.34432 0.49142 0.65668 0.0
H1158 H 0.30294 0.47081 0.65193 0.0
H1159 H 0.30353 0.43187 0.64587 0.0
H1160 H 0.5665 0.32528 0.63637 0.0
H1161 H 0.52549 0.32579 0.64111 0.0
H1162 H 0.53913 0.32728 0.70958 0.0
H1163 H 0.58038 0.32712 0.70507 0.0
H1164 H 0.49268 0.29829 0.661 0.0
H1165 H 0.50849 0.38191 0.70169 0.0
H1166 H 0.53034 0.37018 0.68755 0.0
H1167 H 0.52394 0.36231 0.71367 0.0
C1168 C 0.56082 0.32554 0.65246 0.0
C1169 C 0.57679 0.32643 0.67037 0.0
C1170 C 0.53735 0.32579 0.65512 0.0
C1171 C 0.52939 0.32695 0.6757 0.0
C1172 C 0.54504 0.3268 0.69358 0.0
H1173 H 0.39074 0.35053 0.70836 0.0
H1174 H 0.43032 0.3416 0.71118 0.0
C1175 C 0.56858 0.3266 0.69095 0.0
C1176 C 0.50485 0.32929 0.67827 0.0
H1177 H 0.46982 0.36532 0.69607 0.0
C1178 C 0.48765 0.31285 0.66883 0.0
C1179 C 0.4984 0.34831 0.68852 0.0
C1180 C 0.5162 0.3668 0.69832 0.0
C1181 C 0.46412 0.31511 0.66901 0.0
C1182 C 0.45772 0.33444 0.67861 0.0
C1183 C 0.47485 0.35053 0.68873 0.0
C1184 C 0.43352 0.33898 0.67698 0.0
C1185 C 0.4463 0.29689 0.65878 0.0
C1186 C 0.42243 0.34074 0.65684 0.0
C1187 C 0.39994 0.34593 0.65516 0.0
C1188 C 0.38813 0.34953 0.67363 0.0
C1189 C 0.39934 0.34782 0.69382 0.0
C1190 C 0.42191 0.34269 0.69548 0.0
H1191 H 0.45327 0.28118 0.65781 0.0
H1192 H 0.43055 0.29521 0.66783 0.0
H1193 H 0.44118 0.30044 0.64223 0.0
H1194 H 0.43131 0.33841 0.6424 0.0
H1195 H 0.39187 0.34716 0.63936 0.0
H1196 H 0.68488 0.56274 0.61643 0.0
H1197 H 0.69088 0.52595 0.62342 0.0
H1198 H 0.72064 0.54896 0.68705 0.0
H1199 H 0.71453 0.58599 0.6803 0.0
H1200 H 0.73177 0.50721 0.63779 0.0
H1201 H 0.66313 0.50412 0.69558 0.0
H1202 H 0.66668 0.52479 0.67705 0.0
H1203 H 0.68676 0.52596 0.70011 0.0
C1204 C 0.69293 0.56008 0.63185 0.0
C1205 C 0.69894 0.57726 0.64792 0.0
C1206 C 0.69645 0.53905 0.63577 0.0
C1207 C 0.70594 0.53477 0.65581 0.0
C1208 C 0.71304 0.55197 0.67155 0.0
H1209 H 0.68947 0.40312 0.69677 0.0
H1210 H 0.70415 0.44172 0.69714 0.0
C1211 C 0.70958 0.57309 0.66764 0.0
C1212 C 0.7065 0.51203 0.66051 0.0
H1213 H 0.6778 0.4719 0.68652 0.0
C1214 C 0.72027 0.4995 0.6487 0.0
C1215 C 0.69154 0.50212 0.67482 0.0
C1216 C 0.67604 0.51481 0.68758 0.0
C1217 C 0.71884 0.47708 0.65025 0.0
C1218 C 0.70286 0.46696 0.66361 0.0
C1219 C 0.69003 0.47971 0.67628 0.0
C1220 C 0.69721 0.44309 0.66303 0.0
C1221 C 0.73417 0.46442 0.63731 0.0
C1222 C 0.68859 0.43104 0.64371 0.0
C1223 C 0.68024 0.40902 0.64344 0.0
C1224 C 0.68005 0.39865 0.66253 0.0
C1225 C 0.68931 0.41061 0.6818 0.0
C1226 C 0.69775 0.43266 0.68203 0.0
H1227 H 0.75047 0.47477 0.63442 0.0
H1228 H 0.73856 0.45017 0.64543 0.0
H1229 H 0.725 0.45859 0.62147 0.0
H1230 H 0.6874 0.43886 0.62896 0.0
H1231 H 0.67317 0.40033 0.62832 0.0
H1232 H 0.39381 0.36946 0.35868 0.0
H1233 H 0.43199 0.35853 0.35503 0.0
H1234 H 0.40063 0.29263 0.33686 0.0
H1235 H 0.36215 0.3034 0.34037 0.0
H1236 H 0.45072 0.32548 0.37789 0.0
H1237 H 0.44543 0.30799 0.2892 0.0
H1238 H 0.42645 0.32445 0.30235 0.0
H1239 H 0.42198 0.29557 0.30327 0.0
C1240 C 0.39495 0.35264 0.35383 0.0
C1241 C 0.3749 0.3373 0.34981 0.0
C1242 C 0.41679 0.34644 0.35176 0.0
C1243 C 0.41905 0.32485 0.34548 0.0
C1244 C 0.39917 0.30944 0.34143 0.0
H1245 H 0.5495 0.27214 0.32891 0.0
H1246 H 0.5081 0.27509 0.32944 0.0
C1247 C 0.37724 0.31561 0.34357 0.0
C1248 C 0.44241 0.31857 0.34395 0.0
H1249 H 0.48031 0.30361 0.30834 0.0
C1250 C 0.45716 0.32054 0.36272 0.0
C1251 C 0.4506 0.31197 0.32413 0.0
C1252 C 0.43542 0.30994 0.3035 0.0
C1253 C 0.48013 0.31656 0.36217 0.0
C1254 C 0.48865 0.31087 0.34224 0.0
C1255 C 0.47368 0.30807 0.32355 0.0
C1256 C 0.51344 0.30917 0.34051 0.0
C1257 C 0.49516 0.31866 0.3829 0.0
C1258 C 0.52999 0.3275 0.34595 0.0
C1259 C 0.55352 0.3259 0.34569 0.0
C1260 C 0.56099 0.30593 0.33985 0.0
C1261 C 0.54432 0.28773 0.33357 0.0
C1262 C 0.52069 0.28937 0.33385 0.0
H1263 H 0.48461 0.31703 0.39693 0.0
H1264 H 0.50707 0.30622 0.38284 0.0
H1265 H 0.50576 0.3349 0.38493 0.0
H1266 H 0.52469 0.34303 0.35071 0.0
H1267 H 0.56585 0.3403 0.35041 0.0
H1268 H 0.65348 0.36668 0.30065 0.0
H1269 H 0.66017 0.40324 0.28869 0.0
H1270 H 0.68175 0.42917 0.35369 0.0
H1271 H 0.6738 0.39288 0.36578 0.0
H1272 H 0.64901 0.44851 0.33881 0.0
H1273 H 0.71266 0.44761 0.27742 0.0
H1274 H 0.68848 0.42665 0.27134 0.0
H1275 H 0.70757 0.42615 0.29494 0.0
C1276 C 0.66025 0.38015 0.31225 0.0
C1277 C 0.66298 0.37706 0.33415 0.0
C1278 C 0.66423 0.40105 0.30538 0.0
C1279 C 0.67161 0.41904 0.32025 0.0
C1280 C 0.67598 0.4156 0.34191 0.0
H1281 H 0.6997 0.5561 0.30168 0.0
H1282 H 0.70343 0.51751 0.30257 0.0
C1283 C 0.67146 0.39487 0.34882 0.0
C1284 C 0.67146 0.44152 0.31405 0.0
H1285 H 0.69062 0.47751 0.27854 0.0
C1286 C 0.65834 0.45484 0.32575 0.0
C1287 C 0.68363 0.4499 0.29703 0.0
C1288 C 0.69907 0.4369 0.28461 0.0
C1289 C 0.65695 0.47615 0.32098 0.0
C1290 C 0.6682 0.48423 0.30336 0.0
C1291 C 0.68163 0.47112 0.29176 0.0
C1292 C 0.66661 0.50658 0.29753 0.0
C1293 C 0.64382 0.48993 0.33528 0.0
C1294 C 0.64485 0.51304 0.29304 0.0
C1295 C 0.64265 0.53501 0.293 0.0
C1296 C 0.66228 0.5508 0.29673 0.0
C1297 C 0.68431 0.5442 0.2987 0.0
C1298 C 0.68646 0.52218 0.29925 0.0
H1299 H 0.64196 0.48348 0.35118 0.0
H1300 H 0.6526 0.50692 0.33784 0.0
H1301 H 0.62617 0.49001 0.32765 0.0
H1302 H 0.62937 0.5012 0.29111 0.0
H1303 H 0.62549 0.5397 0.29124 0.0
H1304 H 0.62586 0.68728 0.32282 0.0
H1305 H 0.58927 0.70131 0.32759 0.0
H1306 H 0.55163 0.64019 0.30037 0.0
H1307 H 0.58806 0.62585 0.29584 0.0
H1308 H 0.54888 0.70519 0.30054 0.0
H1309 H 0.53154 0.6471 0.3621 0.0
H1310 H 0.55951 0.65274 0.35159 0.0
H1311 H 0.53668 0.63456 0.33647 0.0
C1312 C 0.60982 0.67692 0.31748 0.0
C1313 C 0.60986 0.6553 0.30928 0.0
C1314 C 0.58894 0.685 0.32021 0.0
C1315 C 0.56782 0.67162 0.31475 0.0
C1316 C 0.56781 0.65061 0.30506 0.0
H1317 H 0.42647 0.69424 0.31038 0.0
H1318 H 0.46652 0.69277 0.3025 0.0
C1319 C 0.58865 0.64248 0.30243 0.0
C1320 C 0.54591 0.67886 0.32086 0.0
H1321 H 0.50092 0.66625 0.35163 0.0
C1322 C 0.53839 0.6968 0.31179 0.0
C1323 C 0.53262 0.6682 0.33595 0.0
C1324 C 0.54056 0.64971 0.34728 0.0
C1325 C 0.51739 0.70385 0.31685 0.0
C1326 C 0.50354 0.69244 0.33111 0.0
C1327 C 0.5115 0.67496 0.34066 0.0
C1328 C 0.48015 0.69738 0.33567 0.0
C1329 C 0.51034 0.72348 0.30701 0.0
C1330 C 0.47446 0.70068 0.35695 0.0
C1331 C 0.45148 0.70118 0.36155 0.0
C1332 C 0.43375 0.6984 0.34493 0.0
C1333 C 0.43969 0.69648 0.32357 0.0
C1334 C 0.46266 0.6958 0.319 0.0
H1335 H 0.52564 0.73427 0.30251 0.0
H1336 H 0.49895 0.71811 0.29221 0.0
H1337 H 0.5007 0.73295 0.31814 0.0
H1338 H 0.4877 0.70189 0.37006 0.0
H1339 H 0.44752 0.7028 0.37816 0.0
H1340 H 0.28834 0.43017 0.32901 0.0
H1341 H 0.28757 0.46863 0.32337 0.0
H1342 H 0.35131 0.48587 0.36316 0.0
H1343 H 0.35214 0.44784 0.36904 0.0
H1344 H 0.29025 0.5043 0.36019 0.0
H1345 H 0.36024 0.51531 0.30465 0.0
H1346 H 0.34372 0.4892 0.30752 0.0
H1347 H 0.36648 0.50061 0.32738 0.0
C1348 C 0.30227 0.44217 0.33637 0.0
C1349 C 0.32028 0.43602 0.34948 0.0
C1350 C 0.30177 0.46407 0.33318 0.0
C1351 C 0.31948 0.47995 0.34274 0.0
C1352 C 0.33762 0.47378 0.3555 0.0
H1353 H 0.34558 0.61294 0.38483 0.0
H1354 H 0.33461 0.57364 0.37995 0.0
C1355 C 0.338 0.45205 0.35889 0.0
C1356 C 0.31886 0.5032 0.34041 0.0
H1357 H 0.35008 0.54744 0.32252 0.0
C1358 C 0.30301 0.51374 0.35163 0.0
C1359 C 0.33546 0.51534 0.32912 0.0
C1360 C 0.35236 0.50458 0.31631 0.0
C1361 C 0.30419 0.53641 0.35283 0.0
C1362 C 0.32176 0.54868 0.34268 0.0
C1363 C 0.33672 0.53798 0.33042 0.0
C1364 C 0.32608 0.57263 0.34579 0.0
C1365 C 0.28699 0.54707 0.36534 0.0
C1366 C 0.32504 0.58504 0.32817 0.0
C1367 C 0.33134 0.60752 0.33088 0.0
C1368 C 0.33909 0.61794 0.35125 0.0
C1369 C 0.33968 0.60546 0.36894 0.0
C1370 C 0.33326 0.583 0.36621 0.0
H1371 H 0.27104 0.53561 0.36685 0.0
H1372 H 0.2949 0.55262 0.38172 0.0
H1373 H 0.28215 0.56142 0.35765 0.0
H1374 H 0.31971 0.57727 0.31227 0.0
H1375 H 0.33071 0.61663 0.31691 0.0
loop_
_geom_bond_atom_site_label_1
_geom_bond_atom_site_label_2
_geom_bond_distance
_geom_bond_site_symmetry_2
_ccdc_geom_bond_type
O0 Cd1 2.223 . S
O0 C8 1.315 . S
Cd1 O0 2.223 . S
Cd1 O4 2.297 . S
Cd1 O5 2.439 . S
Cd1 O11 2.240 . S
Cd2 O3 2.240 . S
Cd2 O10 2.223 . S
Cd2 O12 2.297 . S
Cd2 O13 2.439 . S
O3 Cd2 2.240 . S
O3 C8 1.279 . S
O4 Cd1 2.297 . S
O4 C6 1.247 . S
O5 Cd1 2.439 . S
O5 C6 1.208 . S
C6 O4 1.247 . S
C6 O5 1.208 . S
C7 O12 1.247 . S
C7 O13 1.208 . S
C8 O0 1.315 . S
C8 O3 1.279 . S
C9 O10 1.315 . S
C9 O11 1.279 . S
O10 Cd2 2.223 . S
O10 C9 1.315 . S
O11 Cd1 2.240 . S
O11 C9 1.279 . S
O12 Cd2 2.297 . S
O12 C7 1.247 . S
O13 Cd2 2.439 . S
O13 C7 1.208 . S
O14 Cd15 2.223 . S
O14 C22 1.315 . S
Cd15 O14 2.223 . S
Cd15 O18 2.297 . S
Cd15 O19 2.439 . S
Cd15 O25 2.240 . S
Cd16 O17 2.240 . S
Cd16 O24 2.223 . S
Cd16 O26 2.297 . S
Cd16 O27 2.439 . S
O17 Cd16 2.240 . S
O17 C22 1.279 . S
O18 Cd15 2.297 . S
O18 C20 1.247 . S
O19 Cd15 2.439 . S
O19 C20 1.208 . S
C20 O18 1.247 . S
C20 O19 1.208 . S
C21 O26 1.247 . S
C21 O27 1.208 . S
C22 O14 1.315 . S
C22 O17 1.279 . S
C23 O24 1.315 . S
C23 O25 1.279 . S
O24 Cd16 2.223 . S
O24 C23 1.315 . S
O25 Cd15 2.240 . S
O25 C23 1.279 . S
O26 Cd16 2.297 . S
O26 C21 1.247 . S
O27 Cd16 2.439 . S
O27 C21 1.208 . S
O28 Cd29 2.223 . S
O28 C36 1.315 . S
Cd29 O28 2.223 . S
Cd29 O32 2.297 . S
Cd29 O33 2.439 . S
Cd29 O39 2.240 . S
Cd30 O31 2.240 . S
Cd30 O38 2.223 . S
Cd30 O40 2.297 . S
Cd30 O41 2.439 . S
O31 Cd30 2.240 . S
O31 C36 1.279 . S
O32 Cd29 2.297 . S
O32 C34 1.247 . S
O33 Cd29 2.439 . S
O33 C34 1.208 . S
C34 O32 1.247 . S
C34 O33 1.208 . S
C35 O40 1.247 . S
C35 O41 1.208 . S
C36 O28 1.315 . S
C36 O31 1.279 . S
C37 O38 1.315 . S
C37 O39 1.279 . S
O38 Cd30 2.223 . S
O38 C37 1.315 . S
O39 Cd29 2.240 . S
O39 C37 1.279 . S
O40 Cd30 2.297 . S
O40 C35 1.247 . S
O41 Cd30 2.439 . S
O41 C35 1.208 . S
O42 Cd43 2.223 . S
O42 C50 1.315 . S
Cd43 O42 2.223 . S
Cd43 O46 2.297 . S
Cd43 O47 2.439 . S
Cd43 O53 2.240 . S
Cd44 O45 2.240 . S
Cd44 O52 2.223 . S
Cd44 O54 2.297 . S
Cd44 O55 2.439 . S
O45 Cd44 2.240 . S
O45 C50 1.279 . S
O46 Cd43 2.297 . S
O46 C48 1.247 . S
O47 Cd43 2.439 . S
O47 C48 1.208 . S
C48 O46 1.247 . S
C48 O47 1.208 . S
C49 O54 1.247 . S
C49 O55 1.208 . S
C50 O42 1.315 . S
C50 O45 1.279 . S
C51 O52 1.315 . S
C51 O53 1.279 . S
O52 Cd44 2.223 . S
O52 C51 1.315 . S
O53 Cd43 2.240 . S
O53 C51 1.279 . S
O54 Cd44 2.297 . S
O54 C49 1.247 . S
O55 Cd44 2.439 . S
O55 C49 1.208 . S
O56 Cd57 2.223 . S
O56 C64 1.315 . S
Cd57 O56 2.223 . S
Cd57 O60 2.297 . S
Cd57 O61 2.439 . S
Cd57 O67 2.240 . S
Cd58 O59 2.240 . S
Cd58 O66 2.223 . S
Cd58 O68 2.297 . S
Cd58 O69 2.439 . S
O59 Cd58 2.240 . S
O59 C64 1.279 . S
O60 Cd57 2.297 . S
O60 C62 1.247 . S
O61 Cd57 2.439 . S
O61 C62 1.208 . S
C62 O60 1.247 . S
C62 O61 1.208 . S
C63 O68 1.247 . S
C63 O69 1.208 . S
C64 O56 1.315 . S
C64 O59 1.279 . S
C65 O66 1.315 . S
C65 O67 1.279 . S
O66 Cd58 2.223 . S
O66 C65 1.315 . S
O67 Cd57 2.240 . S
O67 C65 1.279 . S
O68 Cd58 2.297 . S
O68 C63 1.247 . S
O69 Cd58 2.439 . S
O69 C63 1.208 . S
O70 Cd71 2.223 . S
O70 C78 1.315 . S
Cd71 O70 2.223 . S
Cd71 O74 2.297 . S
Cd71 O75 2.439 . S
Cd71 O81 2.240 . S
Cd72 O73 2.240 . S
Cd72 O80 2.223 . S
Cd72 O82 2.297 . S
Cd72 O83 2.439 . S
O73 Cd72 2.240 . S
O73 C78 1.279 . S
O74 Cd71 2.297 . S
O74 C76 1.247 . S
O75 Cd71 2.439 . S
O75 C76 1.208 . S
C76 O74 1.247 . S
C76 O75 1.208 . S
C77 O82 1.247 . S
C77 O83 1.208 . S
C78 O70 1.315 . S
C78 O73 1.279 . S
C79 O80 1.315 . S
C79 O81 1.279 . S
O80 Cd72 2.223 . S
O80 C79 1.315 . S
O81 Cd71 2.240 . S
O81 C79 1.279 . S
O82 Cd72 2.297 . S
O82 C77 1.247 . S
O83 Cd72 2.439 . S
O83 C77 1.208 . S
O84 Cd85 2.223 . S
O84 C92 1.315 . S
Cd85 O84 2.223 . S
Cd85 O88 2.297 . S
Cd85 O89 2.439 . S
Cd85 O95 2.240 . S
Cd86 O87 2.240 . S
Cd86 O94 2.223 . S
Cd86 O96 2.297 . S
Cd86 O97 2.439 . S
O87 Cd86 2.240 . S
O87 C92 1.279 . S
O88 Cd85 2.297 . S
O88 C90 1.247 . S
O89 Cd85 2.439 . S
O89 C90 1.208 . S
C90 O88 1.247 . S
C90 O89 1.208 . S
C91 O96 1.247 . S
C91 O97 1.208 . S
C92 O84 1.315 . S
C92 O87 1.279 . S
C93 O94 1.315 . S
C93 O95 1.279 . S
O94 Cd86 2.223 . S
O94 C93 1.315 . S
O95 Cd85 2.240 . S
O95 C93 1.279 . S
O96 Cd86 2.297 . S
O96 C91 1.247 . S
O97 Cd86 2.439 . S
O97 C91 1.208 . S
O98 Cd99 2.223 . S
O98 C106 1.315 . S
Cd99 O98 2.223 . S
Cd99 O102 2.297 . S
Cd99 O103 2.439 . S
Cd99 O109 2.240 . S
Cd100 O101 2.240 . S
Cd100 O108 2.223 . S
Cd100 O110 2.297 . S
Cd100 O111 2.439 . S
O101 Cd100 2.240 . S
O101 C106 1.279 . S
O102 Cd99 2.297 . S
O102 C104 1.247 . S
O103 Cd99 2.439 . S
O103 C104 1.208 . S
C104 O102 1.247 . S
C104 O103 1.208 . S
C105 O110 1.247 . S
C105 O111 1.208 . S
C106 O98 1.315 . S
C106 O101 1.279 . S
C107 O108 1.315 . S
C107 O109 1.279 . S
O108 Cd100 2.223 . S
O108 C107 1.315 . S
O109 Cd99 2.240 . S
O109 C107 1.279 . S
O110 Cd100 2.297 . S
O110 C105 1.247 . S
O111 Cd100 2.439 . S
O111 C105 1.208 . S
O112 Cd113 2.223 . S
O112 C120 1.315 . S
Cd113 O112 2.223 . S
Cd113 O116 2.297 . S
Cd113 O117 2.439 . S
Cd113 O123 2.240 . S
Cd114 O115 2.240 . S
Cd114 O122 2.223 . S
Cd114 O124 2.297 . S
Cd114 O125 2.439 . S
O115 Cd114 2.240 . S
O115 C120 1.279 . S
O116 Cd113 2.297 . S
O116 C118 1.247 . S
O117 Cd113 2.439 . S
O117 C118 1.208 . S
C118 O116 1.247 . S
C118 O117 1.208 . S
C119 O124 1.247 . S
C119 O125 1.208 . S
C120 O112 1.315 . S
C120 O115 1.279 . S
C121 O122 1.315 . S
C121 O123 1.279 . S
O122 Cd114 2.223 . S
O122 C121 1.315 . S
O123 Cd113 2.240 . S
O123 C121 1.279 . S
O124 Cd114 2.297 . S
O124 C119 1.247 . S
O125 Cd114 2.439 . S
O125 C119 1.208 . S
O126 Cd127 2.223 . S
O126 C134 1.315 . S
Cd127 O126 2.223 . S
Cd127 O130 2.297 . S
Cd127 O131 2.439 . S
Cd127 O137 2.240 . S
Cd128 O129 2.240 . S
Cd128 O136 2.223 . S
Cd128 O138 2.297 . S
Cd128 O139 2.439 . S
O129 Cd128 2.240 . S
O129 C134 1.279 . S
O130 Cd127 2.297 . S
O130 C132 1.247 . S
O131 Cd127 2.439 . S
O131 C132 1.208 . S
C132 O130 1.247 . S
C132 O131 1.208 . S
C133 O138 1.247 . S
C133 O139 1.208 . S
C134 O126 1.315 . S
C134 O129 1.279 . S
C135 O136 1.315 . S
C135 O137 1.279 . S
O136 Cd128 2.223 . S
O136 C135 1.315 . S
O137 Cd127 2.240 . S
O137 C135 1.279 . S
O138 Cd128 2.297 . S
O138 C133 1.247 . S
O139 Cd128 2.439 . S
O139 C133 1.208 . S
O140 Cd141 2.223 . S
O140 C148 1.315 . S
Cd141 O140 2.223 . S
Cd141 O144 2.297 . S
Cd141 O145 2.439 . S
Cd141 O151 2.240 . S
Cd142 O143 2.240 . S
Cd142 O150 2.223 . S
Cd142 O152 2.297 . S
Cd142 O153 2.439 . S
O143 Cd142 2.240 . S
O143 C148 1.279 . S
O144 Cd141 2.297 . S
O144 C146 1.247 . S
O145 Cd141 2.439 . S
O145 C146 1.208 . S
C146 O144 1.247 . S
C146 O145 1.208 . S
C147 O152 1.247 . S
C147 O153 1.208 . S
C148 O140 1.315 . S
C148 O143 1.279 . S
C149 O150 1.315 . S
C149 O151 1.279 . S
O150 Cd142 2.223 . S
O150 C149 1.315 . S
O151 Cd141 2.240 . S
O151 C149 1.279 . S
O152 Cd142 2.297 . S
O152 C147 1.247 . S
O153 Cd142 2.439 . S
O153 C147 1.208 . S
O154 Cd155 2.223 . S
O154 C162 1.315 . S
Cd155 O154 2.223 . S
Cd155 O158 2.297 . S
Cd155 O159 2.439 . S
Cd155 O165 2.240 . S
Cd156 O157 2.240 . S
Cd156 O164 2.223 . S
Cd156 O166 2.297 . S
Cd156 O167 2.439 . S
O157 Cd156 2.240 . S
O157 C162 1.279 . S
O158 Cd155 2.297 . S
O158 C160 1.247 . S
O159 Cd155 2.439 . S
O159 C160 1.208 . S
C160 O158 1.247 . S
C160 O159 1.208 . S
C161 O166 1.247 . S
C161 O167 1.208 . S
C162 O154 1.315 . S
C162 O157 1.279 . S
C163 O164 1.315 . S
C163 O165 1.279 . S
O164 Cd156 2.223 . S
O164 C163 1.315 . S
O165 Cd155 2.240 . S
O165 C163 1.279 . S
O166 Cd156 2.297 . S
O166 C161 1.247 . S
O167 Cd156 2.439 . S
O167 C161 1.208 . S
O168 Cd169 2.223 . S
O168 C176 1.315 . S
Cd169 O168 2.223 . S
Cd169 O172 2.297 . S
Cd169 O173 2.439 . S
Cd169 O179 2.240 . S
Cd170 O171 2.240 . S
Cd170 O178 2.223 . S
Cd170 O180 2.297 . S
Cd170 O181 2.439 . S
O171 Cd170 2.240 . S
O171 C176 1.279 . S
O172 Cd169 2.297 . S
O172 C174 1.247 . S
O173 Cd169 2.439 . S
O173 C174 1.208 . S
C174 O172 1.247 . S
C174 O173 1.208 . S
C175 O180 1.247 . S
C175 O181 1.208 . S
C176 O168 1.315 . S
C176 O171 1.279 . S
C177 O178 1.315 . S
C177 O179 1.279 . S
O178 Cd170 2.223 . S
O178 C177 1.315 . S
O179 Cd169 2.240 . S
O179 C177 1.279 . S
O180 Cd170 2.297 . S
O180 C175 1.247 . S
O181 Cd170 2.439 . S
O181 C175 1.208 . S
O182 Cd183 2.223 . S
O182 C190 1.315 . S
Cd183 O182 2.223 . S
Cd183 O186 2.297 . S
Cd183 O187 2.439 . S
Cd183 O193 2.240 . S
Cd184 O185 2.240 . S
Cd184 O192 2.223 . S
Cd184 O194 2.297 . S
Cd184 O195 2.439 . S
O185 Cd184 2.240 . S
O185 C190 1.279 . S
O186 Cd183 2.297 . S
O186 C188 1.247 . S
O187 Cd183 2.439 . S
O187 C188 1.208 . S
C188 O186 1.247 . S
C188 O187 1.208 . S
C189 O194 1.247 . S
C189 O195 1.208 . S
C190 O182 1.315 . S
C190 O185 1.279 . S
C191 O192 1.315 . S
C191 O193 1.279 . S
O192 Cd184 2.223 . S
O192 C191 1.315 . S
O193 Cd183 2.240 . S
O193 C191 1.279 . S
O194 Cd184 2.297 . S
O194 C189 1.247 . S
O195 Cd184 2.439 . S
O195 C189 1.208 . S
O196 Cd197 2.223 . S
O196 C204 1.315 . S
Cd197 O196 2.223 . S
Cd197 O200 2.297 . S
Cd197 O201 2.439 . S
Cd197 O207 2.240 . S
Cd198 O199 2.240 . S
Cd198 O206 2.223 . S
Cd198 O208 2.297 . S
Cd198 O209 2.439 . S
O199 Cd198 2.240 . S
O199 C204 1.279 . S
O200 Cd197 2.297 . S
O200 C202 1.247 . S
O201 Cd197 2.439 . S
O201 C202 1.208 . S
C202 O200 1.247 . S
C202 O201 1.208 . S
C203 O208 1.247 . S
C203 O209 1.208 . S
C204 O196 1.315 . S
C204 O199 1.279 . S
C205 O206 1.315 . S
C205 O207 1.279 . S
O206 Cd198 2.223 . S
O206 C205 1.315 . S
O207 Cd197 2.240 . S
O207 C205 1.279 . S
O208 Cd198 2.297 . S
O208 C203 1.247 . S
O209 Cd198 2.439 . S
O209 C203 1.208 . S
O210 Cd211 2.223 . S
O210 C218 1.315 . S
Cd211 O210 2.223 . S
Cd211 O214 2.297 . S
Cd211 O215 2.439 . S
Cd211 O221 2.240 . S
Cd212 O213 2.240 . S
Cd212 O220 2.223 . S
Cd212 O222 2.297 . S
Cd212 O223 2.439 . S
O213 Cd212 2.240 . S
O213 C218 1.279 . S
O214 Cd211 2.297 . S
O214 C216 1.247 . S
O215 Cd211 2.439 . S
O215 C216 1.208 . S
C216 O214 1.247 . S
C216 O215 1.208 . S
C217 O222 1.247 . S
C217 O223 1.208 . S
C218 O210 1.315 . S
C218 O213 1.279 . S
C219 O220 1.315 . S
C219 O221 1.279 . S
O220 Cd212 2.223 . S
O220 C219 1.315 . S
O221 Cd211 2.240 . S
O221 C219 1.279 . S
O222 Cd212 2.297 . S
O222 C217 1.247 . S
O223 Cd212 2.439 . S
O223 C217 1.208 . S
H224 C232 0.929 . S
H225 C234 0.930 . S
H226 C236 0.930 . S
H227 C239 0.929 . S
H228 C242 0.930 . S
H229 C244 0.960 . S
H230 C244 0.960 . S
H231 C244 0.960 . S
C232 H224 0.929 . S
C232 C233 1.377 . S
C232 C234 1.384 . S
C233 C232 1.377 . S
C233 C239 1.390 . S
C234 H225 0.930 . S
C234 C232 1.384 . S
C234 C235 1.372 . S
C235 C234 1.372 . S
C235 C236 1.400 . S
C235 C240 1.490 . S
C236 H226 0.930 . S
C236 C235 1.400 . S
C236 C239 1.386 . S
H237 C253 0.930 . S
H238 C254 0.931 . S
C239 H227 0.929 . S
C239 C233 1.390 . S
C239 C236 1.386 . S
C240 C235 1.490 . S
C240 C242 1.395 . S
C240 C243 1.403 . S
H241 C247 0.930 . S
C242 H228 0.930 . S
C242 C240 1.395 . S
C242 C245 1.403 . S
C243 C240 1.403 . S
C243 C244 1.524 . S
C243 C247 1.400 . S
C244 H229 0.960 . S
C244 H230 0.960 . S
C244 H231 0.960 . S
C244 C243 1.524 . S
C245 C242 1.403 . S
C245 C246 1.392 . S
C245 C249 1.495 . S
C246 C245 1.392 . S
C246 C247 1.385 . S
C246 C248 1.478 . S
C247 H241 0.930 . S
C247 C243 1.400 . S
C247 C246 1.385 . S
C248 C246 1.478 . S
C248 C250 1.381 . S
C248 C254 1.383 . S
C249 C245 1.495 . S
C249 H255 0.959 . S
C249 H256 0.961 . S
C249 H257 0.960 . S
C250 C248 1.381 . S
C250 C251 1.394 . S
C250 H258 0.930 . S
C251 C250 1.394 . S
C251 C252 1.383 . S
C251 H259 0.929 . S
C252 C251 1.383 . S
C252 C253 1.377 . S
C253 H237 0.930 . S
C253 C252 1.377 . S
C253 C254 1.379 . S
C254 H238 0.931 . S
C254 C248 1.383 . S
C254 C253 1.379 . S
H255 C249 0.959 . S
H256 C249 0.961 . S
H257 C249 0.960 . S
H258 C250 0.930 . S
H259 C251 0.929 . S
H260 C268 0.929 . S
H261 C270 0.930 . S
H262 C272 0.930 . S
H263 C275 0.929 . S
H264 C278 0.930 . S
H265 C280 0.960 . S
H266 C280 0.960 . S
H267 C280 0.960 . S
C268 H260 0.929 . S
C268 C269 1.377 . S
C268 C270 1.384 . S
C269 C268 1.377 . S
C269 C275 1.390 . S
C270 H261 0.930 . S
C270 C268 1.384 . S
C270 C271 1.372 . S
C271 C270 1.372 . S
C271 C272 1.400 . S
C271 C276 1.490 . S
C272 H262 0.930 . S
C272 C271 1.400 . S
C272 C275 1.386 . S
H273 C289 0.930 . S
H274 C290 0.931 . S
C275 H263 0.929 . S
C275 C269 1.390 . S
C275 C272 1.386 . S
C276 C271 1.490 . S
C276 C278 1.395 . S
C276 C279 1.403 . S
H277 C283 0.930 . S
C278 H264 0.930 . S
C278 C276 1.395 . S
C278 C281 1.403 . S
C279 C276 1.403 . S
C279 C280 1.524 . S
C279 C283 1.400 . S
C280 H265 0.960 . S
C280 H266 0.960 . S
C280 H267 0.960 . S
C280 C279 1.524 . S
C281 C278 1.403 . S
C281 C282 1.392 . S
C281 C285 1.495 . S
C282 C281 1.392 . S
C282 C283 1.385 . S
C282 C284 1.478 . S
C283 H277 0.930 . S
C283 C279 1.400 . S
C283 C282 1.385 . S
C284 C282 1.478 . S
C284 C286 1.381 . S
C284 C290 1.383 . S
C285 C281 1.495 . S
C285 H291 0.959 . S
C285 H292 0.961 . S
C285 H293 0.960 . S
C286 C284 1.381 . S
C286 C287 1.394 . S
C286 H294 0.930 . S
C287 C286 1.394 . S
C287 C288 1.383 . S
C287 H295 0.929 . S
C288 C287 1.383 . S
C288 C289 1.377 . S
C289 H273 0.930 . S
C289 C288 1.377 . S
C289 C290 1.379 . S
C290 H274 0.931 . S
C290 C284 1.383 . S
C290 C289 1.379 . S
H291 C285 0.959 . S
H292 C285 0.961 . S
H293 C285 0.960 . S
H294 C286 0.930 . S
H295 C287 0.929 . S
H296 C304 0.929 . S
H297 C306 0.930 . S
H298 C308 0.930 . S
H299 C311 0.929 . S
H300 C314 0.930 . S
H301 C316 0.960 . S
H302 C316 0.960 . S
H303 C316 0.960 . S
C304 H296 0.929 . S
C304 C305 1.377 . S
C304 C306 1.384 . S
C305 C304 1.377 . S
C305 C311 1.390 . S
C306 H297 0.930 . S
C306 C304 1.384 . S
C306 C307 1.372 . S
C307 C306 1.372 . S
C307 C308 1.400 . S
C307 C312 1.490 . S
C308 H298 0.930 . S
C308 C307 1.400 . S
C308 C311 1.386 . S
H309 C325 0.930 . S
H310 C326 0.931 . S
C311 H299 0.929 . S
C311 C305 1.390 . S
C311 C308 1.386 . S
C312 C307 1.490 . S
C312 C314 1.395 . S
C312 C315 1.403 . S
H313 C319 0.930 . S
C314 H300 0.930 . S
C314 C312 1.395 . S
C314 C317 1.403 . S
C315 C312 1.403 . S
C315 C316 1.524 . S
C315 C319 1.400 . S
C316 H301 0.960 . S
C316 H302 0.960 . S
C316 H303 0.960 . S
C316 C315 1.524 . S
C317 C314 1.403 . S
C317 C318 1.392 . S
C317 C321 1.495 . S
C318 C317 1.392 . S
C318 C319 1.385 . S
C318 C320 1.478 . S
C319 H313 0.930 . S
C319 C315 1.400 . S
C319 C318 1.385 . S
C320 C318 1.478 . S
C320 C322 1.381 . S
C320 C326 1.383 . S
C321 C317 1.495 . S
C321 H327 0.959 . S
C321 H328 0.961 . S
C321 H329 0.960 . S
C322 C320 1.381 . S
C322 C323 1.394 . S
C322 H330 0.930 . S
C323 C322 1.394 . S
C323 C324 1.383 . S
C323 H331 0.929 . S
C324 C323 1.383 . S
C324 C325 1.377 . S
C325 H309 0.930 . S
C325 C324 1.377 . S
C325 C326 1.379 . S
C326 H310 0.931 . S
C326 C320 1.383 . S
C326 C325 1.379 . S
H327 C321 0.959 . S
H328 C321 0.961 . S
H329 C321 0.960 . S
H330 C322 0.930 . S
H331 C323 0.929 . S
H332 C340 0.929 . S
H333 C342 0.930 . S
H334 C344 0.930 . S
H335 C347 0.929 . S
H336 C350 0.930 . S
H337 C352 0.960 . S
H338 C352 0.960 . S
H339 C352 0.960 . S
C340 H332 0.929 . S
C340 C341 1.377 . S
C340 C342 1.384 . S
C341 C340 1.377 . S
C341 C347 1.390 . S
C342 H333 0.930 . S
C342 C340 1.384 . S
C342 C343 1.372 . S
C343 C342 1.372 . S
C343 C344 1.400 . S
C343 C348 1.490 . S
C344 H334 0.930 . S
C344 C343 1.400 . S
C344 C347 1.386 . S
H345 C361 0.930 . S
H346 C362 0.931 . S
C347 H335 0.929 . S
C347 C341 1.390 . S
C347 C344 1.386 . S
C348 C343 1.490 . S
C348 C350 1.395 . S
C348 C351 1.403 . S
H349 C355 0.930 . S
C350 H336 0.930 . S
C350 C348 1.395 . S
C350 C353 1.403 . S
C351 C348 1.403 . S
C351 C352 1.524 . S
C351 C355 1.400 . S
C352 H337 0.960 . S
C352 H338 0.960 . S
C352 H339 0.960 . S
C352 C351 1.524 . S
C353 C350 1.403 . S
C353 C354 1.392 . S
C353 C357 1.495 . S
C354 C353 1.392 . S
C354 C355 1.385 . S
C354 C356 1.478 . S
C355 H349 0.930 . S
C355 C351 1.400 . S
C355 C354 1.385 . S
C356 C354 1.478 . S
C356 C358 1.381 . S
C356 C362 1.383 . S
C357 C353 1.495 . S
C357 H363 0.959 . S
C357 H364 0.961 . S
C357 H365 0.960 . S
C358 C356 1.381 . S
C358 C359 1.394 . S
C358 H366 0.930 . S
C359 C358 1.394 . S
C359 C360 1.383 . S
C359 H367 0.929 . S
C360 C359 1.383 . S
C360 C361 1.377 . S
C361 H345 0.930 . S
C361 C360 1.377 . S
C361 C362 1.379 . S
C362 H346 0.931 . S
C362 C356 1.383 . S
C362 C361 1.379 . S
H363 C357 0.959 . S
H364 C357 0.961 . S
H365 C357 0.960 . S
H366 C358 0.930 . S
H367 C359 0.929 . S
H368 C376 0.929 . S
H369 C378 0.930 . S
H370 C380 0.930 . S
H371 C383 0.929 . S
H372 C386 0.930 . S
H373 C388 0.960 . S
H374 C388 0.960 . S
H375 C388 0.960 . S
C376 H368 0.929 . S
C376 C377 1.377 . S
C376 C378 1.384 . S
C377 C376 1.377 . S
C377 C383 1.390 . S
C378 H369 0.930 . S
C378 C376 1.384 . S
C378 C379 1.372 . S
C379 C378 1.372 . S
C379 C380 1.400 . S
C379 C384 1.490 . S
C380 H370 0.930 . S
C380 C379 1.400 . S
C380 C383 1.386 . S
H381 C397 0.930 . S
H382 C398 0.931 . S
C383 H371 0.929 . S
C383 C377 1.390 . S
C383 C380 1.386 . S
C384 C379 1.490 . S
C384 C386 1.395 . S
C384 C387 1.403 . S
H385 C391 0.930 . S
C386 H372 0.930 . S
C386 C384 1.395 . S
C386 C389 1.403 . S
C387 C384 1.403 . S
C387 C388 1.524 . S
C387 C391 1.400 . S
C388 H373 0.960 . S
C388 H374 0.960 . S
C388 H375 0.960 . S
C388 C387 1.524 . S
C389 C386 1.403 . S
C389 C390 1.392 . S
C389 C393 1.495 . S
C390 C389 1.392 . S
C390 C391 1.385 . S
C390 C392 1.478 . S
C391 H385 0.930 . S
C391 C387 1.400 . S
C391 C390 1.385 . S
C392 C390 1.478 . S
C392 C394 1.381 . S
C392 C398 1.383 . S
C393 C389 1.495 . S
C393 H399 0.959 . S
C393 H400 0.961 . S
C393 H401 0.960 . S
C394 C392 1.381 . S
C394 C395 1.394 . S
C394 H402 0.930 . S
C395 C394 1.394 . S
C395 C396 1.383 . S
C395 H403 0.929 . S
C396 C395 1.383 . S
C396 C397 1.377 . S
C397 H381 0.930 . S
C397 C396 1.377 . S
C397 C398 1.379 . S
C398 H382 0.931 . S
C398 C392 1.383 . S
C398 C397 1.379 . S
H399 C393 0.959 . S
H400 C393 0.961 . S
H401 C393 0.960 . S
H402 C394 0.930 . S
H403 C395 0.929 . S
H404 C412 0.929 . S
H405 C414 0.930 . S
H406 C416 0.930 . S
H407 C419 0.929 . S
H408 C422 0.930 . S
H409 C424 0.960 . S
H410 C424 0.960 . S
H411 C424 0.960 . S
C412 H404 0.929 . S
C412 C413 1.377 . S
C412 C414 1.384 . S
C413 C412 1.377 . S
C413 C419 1.390 . S
C414 H405 0.930 . S
C414 C412 1.384 . S
C414 C415 1.372 . S
C415 C414 1.372 . S
C415 C416 1.400 . S
C415 C420 1.490 . S
C416 H406 0.930 . S
C416 C415 1.400 . S
C416 C419 1.386 . S
H417 C433 0.930 . S
H418 C434 0.931 . S
C419 H407 0.929 . S
C419 C413 1.390 . S
C419 C416 1.386 . S
C420 C415 1.490 . S
C420 C422 1.395 . S
C420 C423 1.403 . S
H421 C427 0.930 . S
C422 H408 0.930 . S
C422 C420 1.395 . S
C422 C425 1.403 . S
C423 C420 1.403 . S
C423 C424 1.524 . S
C423 C427 1.400 . S
C424 H409 0.960 . S
C424 H410 0.960 . S
C424 H411 0.960 . S
C424 C423 1.524 . S
C425 C422 1.403 . S
C425 C426 1.392 . S
C425 C429 1.495 . S
C426 C425 1.392 . S
C426 C427 1.385 . S
C426 C428 1.478 . S
C427 H421 0.930 . S
C427 C423 1.400 . S
C427 C426 1.385 . S
C428 C426 1.478 . S
C428 C430 1.381 . S
C428 C434 1.383 . S
C429 C425 1.495 . S
C429 H435 0.959 . S
C429 H436 0.961 . S
C429 H437 0.960 . S
C430 C428 1.381 . S
C430 C431 1.394 . S
C430 H438 0.930 . S
C431 C430 1.394 . S
C431 C432 1.383 . S
C431 H439 0.929 . S
C432 C431 1.383 . S
C432 C433 1.377 . S
C433 H417 0.930 . S
C433 C432 1.377 . S
C433 C434 1.379 . S
C434 H418 0.931 . S
C434 C428 1.383 . S
C434 C433 1.379 . S
H435 C429 0.959 . S
H436 C429 0.961 . S
H437 C429 0.960 . S
H438 C430 0.930 . S
H439 C431 0.929 . S
H440 C448 0.929 . S
H441 C450 0.930 . S
H442 C452 0.930 . S
H443 C455 0.929 . S
H444 C458 0.930 . S
H445 C460 0.960 . S
H446 C460 0.960 . S
H447 C460 0.960 . S
C448 H440 0.929 . S
C448 C449 1.377 . S
C448 C450 1.384 . S
C449 C448 1.377 . S
C449 C455 1.390 . S
C450 H441 0.930 . S
C450 C448 1.384 . S
C450 C451 1.372 . S
C451 C450 1.372 . S
C451 C452 1.400 . S
C451 C456 1.490 . S
C452 H442 0.930 . S
C452 C451 1.400 . S
C452 C455 1.386 . S
H453 C469 0.930 . S
H454 C470 0.931 . S
C455 H443 0.929 . S
C455 C449 1.390 . S
C455 C452 1.386 . S
C456 C451 1.490 . S
C456 C458 1.395 . S
C456 C459 1.403 . S
H457 C463 0.930 . S
C458 H444 0.930 . S
C458 C456 1.395 . S
C458 C461 1.403 . S
C459 C456 1.403 . S
C459 C460 1.524 . S
C459 C463 1.400 . S
C460 H445 0.960 . S
C460 H446 0.960 . S
C460 H447 0.960 . S
C460 C459 1.524 . S
C461 C458 1.403 . S
C461 C462 1.392 . S
C461 C465 1.495 . S
C462 C461 1.392 . S
C462 C463 1.385 . S
C462 C464 1.478 . S
C463 H457 0.930 . S
C463 C459 1.400 . S
C463 C462 1.385 . S
C464 C462 1.478 . S
C464 C466 1.381 . S
C464 C470 1.383 . S
C465 C461 1.495 . S
C465 H471 0.959 . S
C465 H472 0.961 . S
C465 H473 0.960 . S
C466 C464 1.381 . S
C466 C467 1.394 . S
C466 H474 0.930 . S
C467 C466 1.394 . S
C467 C468 1.383 . S
C467 H475 0.929 . S
C468 C467 1.383 . S
C468 C469 1.377 . S
C469 H453 0.930 . S
C469 C468 1.377 . S
C469 C470 1.379 . S
C470 H454 0.931 . S
C470 C464 1.383 . S
C470 C469 1.379 . S
H471 C465 0.959 . S
H472 C465 0.961 . S
H473 C465 0.960 . S
H474 C466 0.930 . S
H475 C467 0.929 . S
H476 C484 0.929 . S
H477 C486 0.930 . S
H478 C488 0.930 . S
H479 C491 0.929 . S
H480 C494 0.930 . S
H481 C496 0.960 . S
H482 C496 0.960 . S
H483 C496 0.960 . S
C484 H476 0.929 . S
C484 C485 1.377 . S
C484 C486 1.384 . S
C485 C484 1.377 . S
C485 C491 1.390 . S
C486 H477 0.930 . S
C486 C484 1.384 . S
C486 C487 1.372 . S
C487 C486 1.372 . S
C487 C488 1.400 . S
C487 C492 1.490 . S
C488 H478 0.930 . S
C488 C487 1.400 . S
C488 C491 1.386 . S
H489 C505 0.930 . S
H490 C506 0.931 . S
C491 H479 0.929 . S
C491 C485 1.390 . S
C491 C488 1.386 . S
C492 C487 1.490 . S
C492 C494 1.395 . S
C492 C495 1.403 . S
H493 C499 0.930 . S
C494 H480 0.930 . S
C494 C492 1.395 . S
C494 C497 1.403 . S
C495 C492 1.403 . S
C495 C496 1.524 . S
C495 C499 1.400 . S
C496 H481 0.960 . S
C496 H482 0.960 . S
C496 H483 0.960 . S
C496 C495 1.524 . S
C497 C494 1.403 . S
C497 C498 1.392 . S
C497 C501 1.495 . S
C498 C497 1.392 . S
C498 C499 1.385 . S
C498 C500 1.478 . S
C499 H493 0.930 . S
C499 C495 1.400 . S
C499 C498 1.385 . S
C500 C498 1.478 . S
C500 C502 1.381 . S
C500 C506 1.383 . S
C501 C497 1.495 . S
C501 H507 0.959 . S
C501 H508 0.961 . S
C501 H509 0.960 . S
C502 C500 1.381 . S
C502 C503 1.394 . S
C502 H510 0.930 . S
C503 C502 1.394 . S
C503 C504 1.383 . S
C503 H511 0.929 . S
C504 C503 1.383 . S
C504 C505 1.377 . S
C505 H489 0.930 . S
C505 C504 1.377 . S
C505 C506 1.379 . S
C506 H490 0.931 . S
C506 C500 1.383 . S
C506 C505 1.379 . S
H507 C501 0.959 . S
H508 C501 0.961 . S
H509 C501 0.960 . S
H510 C502 0.930 . S
H511 C503 0.929 . S
H512 C520 0.929 . S
H513 C522 0.930 . S
H514 C524 0.930 . S
H515 C527 0.929 . S
H516 C530 0.930 . S
H517 C532 0.960 . S
H518 C532 0.960 . S
H519 C532 0.960 . S
C520 H512 0.929 . S
C520 C521 1.377 . S
C520 C522 1.384 . S
C521 C520 1.377 . S
C521 C527 1.390 . S
C522 H513 0.930 . S
C522 C520 1.384 . S
C522 C523 1.372 . S
C523 C522 1.372 . S
C523 C524 1.400 . S
C523 C528 1.490 . S
C524 H514 0.930 . S
C524 C523 1.400 . S
C524 C527 1.386 . S
H525 C541 0.930 . S
H526 C542 0.931 . S
C527 H515 0.929 . S
C527 C521 1.390 . S
C527 C524 1.386 . S
C528 C523 1.490 . S
C528 C530 1.395 . S
C528 C531 1.403 . S
H529 C535 0.930 . S
C530 H516 0.930 . S
C530 C528 1.395 . S
C530 C533 1.403 . S
C531 C528 1.403 . S
C531 C532 1.524 . S
C531 C535 1.400 . S
C532 H517 0.960 . S
C532 H518 0.960 . S
C532 H519 0.960 . S
C532 C531 1.524 . S
C533 C530 1.403 . S
C533 C534 1.392 . S
C533 C537 1.495 . S
C534 C533 1.392 . S
C534 C535 1.385 . S
C534 C536 1.478 1_556 S
C535 H529 0.930 . S
C535 C531 1.400 . S
C535 C534 1.385 . S
C536 C534 1.478 1_554 S
C536 C538 1.381 . S
C536 C542 1.383 . S
C537 C533 1.495 . S
C537 H543 0.959 . S
C537 H544 0.961 . S
C537 H545 0.960 . S
C538 C536 1.381 . S
C538 C539 1.394 . S
C538 H546 0.930 . S
C539 C538 1.394 . S
C539 C540 1.383 . S
C539 H547 0.929 . S
C540 C539 1.383 . S
C540 C541 1.377 . S
C541 H525 0.930 . S
C541 C540 1.377 . S
C541 C542 1.379 . S
C542 H526 0.931 . S
C542 C536 1.383 . S
C542 C541 1.379 . S
H543 C537 0.959 . S
H544 C537 0.961 . S
H545 C537 0.960 . S
H546 C538 0.930 . S
H547 C539 0.929 . S
H548 C556 0.929 . S
H549 C558 0.930 . S
H550 C560 0.930 . S
H551 C563 0.929 . S
H552 C566 0.930 . S
H553 C568 0.960 . S
H554 C568 0.960 1_556 S
H555 C568 0.960 1_556 S
C556 H548 0.929 . S
C556 C557 1.377 . S
C556 C558 1.384 . S
C557 C556 1.377 . S
C557 C563 1.390 . S
C558 H549 0.930 . S
C558 C556 1.384 . S
C558 C559 1.372 . S
C559 C558 1.372 . S
C559 C560 1.400 . S
C559 C564 1.490 1_556 S
C560 H550 0.930 . S
C560 C559 1.400 . S
C560 C563 1.386 . S
H561 C577 0.930 . S
H562 C578 0.931 . S
C563 H551 0.929 . S
C563 C557 1.390 . S
C563 C560 1.386 . S
C564 C559 1.490 1_554 S
C564 C566 1.395 . S
C564 C567 1.403 . S
H565 C571 0.930 . S
C566 H552 0.930 . S
C566 C564 1.395 . S
C566 C569 1.403 . S
C567 C564 1.403 . S
C567 C568 1.524 . S
C567 C571 1.400 . S
C568 H553 0.960 . S
C568 H554 0.960 1_554 S
C568 H555 0.960 1_554 S
C568 C567 1.524 . S
C569 C566 1.403 . S
C569 C570 1.392 . S
C569 C573 1.495 . S
C570 C569 1.392 . S
C570 C571 1.385 . S
C570 C572 1.478 . S
C571 H565 0.930 . S
C571 C567 1.400 . S
C571 C570 1.385 . S
C572 C570 1.478 . S
C572 C574 1.381 . S
C572 C578 1.383 . S
C573 C569 1.495 . S
C573 H579 0.959 . S
C573 H580 0.961 . S
C573 H581 0.960 . S
C574 C572 1.381 . S
C574 C575 1.394 . S
C574 H582 0.930 . S
C575 C574 1.394 . S
C575 C576 1.383 . S
C575 H583 0.929 . S
C576 C575 1.383 . S
C576 C577 1.377 . S
C577 H561 0.930 . S
C577 C576 1.377 . S
C577 C578 1.379 . S
C578 H562 0.931 . S
C578 C572 1.383 . S
C578 C577 1.379 . S
H579 C573 0.959 . S
H580 C573 0.961 . S
H581 C573 0.960 . S
H582 C574 0.930 . S
H583 C575 0.929 . S
H584 C592 0.929 . S
H585 C594 0.930 . S
H586 C596 0.930 . S
H587 C599 0.929 . S
H588 C602 0.930 . S
H589 C604 0.960 . S
H590 C604 0.960 . S
H591 C604 0.960 . S
C592 H584 0.929 . S
C592 C593 1.377 . S
C592 C594 1.384 . S
C593 C592 1.377 . S
C593 C599 1.390 . S
C594 H585 0.930 . S
C594 C592 1.384 . S
C594 C595 1.372 . S
C595 C594 1.372 . S
C595 C596 1.400 . S
C595 C600 1.490 . S
C596 H586 0.930 . S
C596 C595 1.400 . S
C596 C599 1.386 . S
H597 C613 0.930 . S
H598 C614 0.931 . S
C599 H587 0.929 . S
C599 C593 1.390 . S
C599 C596 1.386 . S
C600 C595 1.490 . S
C600 C602 1.395 . S
C600 C603 1.403 . S
H601 C607 0.930 . S
C602 H588 0.930 . S
C602 C600 1.395 . S
C602 C605 1.403 1_556 S
C603 C600 1.403 . S
C603 C604 1.524 . S
C603 C607 1.400 1_556 S
C604 H589 0.960 . S
C604 H590 0.960 . S
C604 H591 0.960 . S
C604 C603 1.524 . S
C605 C602 1.403 1_554 S
C605 C606 1.392 . S
C605 C609 1.495 . S
C606 C605 1.392 . S
C606 C607 1.385 . S
C606 C608 1.478 . S
C607 H601 0.930 . S
C607 C603 1.400 1_554 S
C607 C606 1.385 . S
C608 C606 1.478 . S
C608 C610 1.381 . S
C608 C614 1.383 . S
C609 C605 1.495 . S
C609 H615 0.959 . S
C609 H616 0.961 . S
C609 H617 0.960 . S
C610 C608 1.381 . S
C610 C611 1.394 . S
C610 H618 0.930 . S
C611 C610 1.394 . S
C611 C612 1.383 . S
C611 H619 0.929 . S
C612 C611 1.383 . S
C612 C613 1.377 . S
C613 H597 0.930 . S
C613 C612 1.377 . S
C613 C614 1.379 . S
C614 H598 0.931 . S
C614 C608 1.383 . S
C614 C613 1.379 . S
H615 C609 0.959 . S
H616 C609 0.961 . S
H617 C609 0.960 . S
H618 C610 0.930 . S
H619 C611 0.929 . S
H620 C628 0.929 . S
H621 C630 0.930 . S
H622 C632 0.930 . S
H623 C635 0.929 . S
H624 C638 0.930 . S
H625 C640 0.960 1_556 S
H626 C640 0.960 . S
H627 C640 0.960 . S
C628 H620 0.929 . S
C628 C629 1.377 . S
C628 C630 1.384 . S
C629 C628 1.377 . S
C629 C635 1.390 . S
C630 H621 0.930 . S
C630 C628 1.384 . S
C630 C631 1.372 . S
C631 C630 1.372 . S
C631 C632 1.400 . S
C631 C636 1.490 . S
C632 H622 0.930 . S
C632 C631 1.400 . S
C632 C635 1.386 . S
H633 C649 0.930 . S
H634 C650 0.931 . S
C635 H623 0.929 . S
C635 C629 1.390 . S
C635 C632 1.386 . S
C636 C631 1.490 . S
C636 C638 1.395 . S
C636 C639 1.398 1_554 S
H637 C643 0.930 . S
C638 H624 0.930 . S
C638 C636 1.395 . S
C638 C641 1.403 1_554 S
C639 C636 1.398 1_556 S
C639 C640 1.521 1_556 S
C639 C643 1.408 . S
C640 H625 0.960 1_554 S
C640 H626 0.960 . S
C640 H627 0.960 . S
C640 C639 1.521 1_554 S
C641 C638 1.403 1_556 S
C641 C642 1.392 . S
C641 C645 1.495 . S
C642 C641 1.392 . S
C642 C643 1.385 . S
C642 C644 1.478 . S
C643 H637 0.930 . S
C643 C639 1.408 . S
C643 C642 1.385 . S
C644 C642 1.478 . S
C644 C646 1.381 . S
C644 C650 1.383 . S
C645 C641 1.495 . S
C645 H651 0.959 . S
C645 H652 0.961 . S
C645 H653 0.960 . S
C646 C644 1.381 . S
C646 C647 1.394 . S
C646 H654 0.930 . S
C647 C646 1.394 . S
C647 C648 1.383 . S
C647 H655 0.929 . S
C648 C647 1.383 . S
C648 C649 1.377 . S
C649 H633 0.930 . S
C649 C648 1.377 . S
C649 C650 1.379 . S
C650 H634 0.931 . S
C650 C644 1.383 . S
C650 C649 1.379 . S
H651 C645 0.959 . S
H652 C645 0.961 . S
H653 C645 0.960 . S
H654 C646 0.930 . S
H655 C647 0.929 . S
H656 C664 0.929 . S
H657 C666 0.930 . S
H658 C668 0.930 . S
H659 C671 0.929 . S
H660 C674 0.930 . S
H661 C676 0.960 . S
H662 C676 0.960 . S
H663 C676 0.960 . S
C664 H656 0.929 . S
C664 C665 1.377 . S
C664 C666 1.384 . S
C665 C664 1.377 . S
C665 C671 1.390 . S
C666 H657 0.930 . S
C666 C664 1.384 . S
C666 C667 1.372 . S
C667 C666 1.372 . S
C667 C668 1.400 . S
C667 C672 1.490 . S
C668 H658 0.930 . S
C668 C667 1.400 . S
C668 C671 1.386 . S
H669 C685 0.930 . S
H670 C686 0.931 . S
C671 H659 0.929 . S
C671 C665 1.390 . S
C671 C668 1.386 . S
C672 C667 1.490 . S
C672 C674 1.395 . S
C672 C675 1.403 . S
H673 C679 0.930 1_655 S
C674 H660 0.930 . S
C674 C672 1.395 . S
C674 C677 1.403 . S
C675 C672 1.403 . S
C675 C676 1.524 . S
C675 C679 1.400 . S
C676 H661 0.960 . S
C676 H662 0.960 . S
C676 H663 0.960 . S
C676 C675 1.524 . S
C677 C674 1.403 . S
C677 C678 1.392 . S
C677 C681 1.495 . S
C678 C677 1.392 . S
C678 C679 1.385 . S
C678 C680 1.478 1_455 S
C679 H673 0.930 1_455 S
C679 C675 1.400 . S
C679 C678 1.385 . S
C680 C678 1.478 1_655 S
C680 C682 1.381 . S
C680 C686 1.383 . S
C681 C677 1.495 . S
C681 H687 0.959 . S
C681 H688 0.961 . S
C681 H689 0.960 . S
C682 C680 1.381 . S
C682 C683 1.394 . S
C682 H690 0.930 . S
C683 C682 1.394 . S
C683 C684 1.383 . S
C683 H691 0.929 . S
C684 C683 1.383 . S
C684 C685 1.377 . S
C685 H669 0.930 . S
C685 C684 1.377 . S
C685 C686 1.379 . S
C686 H670 0.931 . S
C686 C680 1.383 . S
C686 C685 1.379 . S
H687 C681 0.959 . S
H688 C681 0.961 . S
H689 C681 0.960 . S
H690 C682 0.930 . S
H691 C683 0.929 . S
H692 C700 0.929 . S
H693 C702 0.930 . S
H694 C704 0.930 . S
H695 C707 0.929 . S
H696 C710 0.953 . S
H697 C712 0.960 1_545 S
H698 C712 0.960 . S
H699 C712 0.960 . S
C700 H692 0.929 . S
C700 C701 1.377 . S
C700 C702 1.384 . S
C701 C700 1.377 . S
C701 C707 1.390 . S
C702 H693 0.930 . S
C702 C700 1.384 . S
C702 C703 1.372 . S
C703 C702 1.372 . S
C703 C704 1.400 . S
C703 C708 1.490 . S
C704 H694 0.930 . S
C704 C703 1.400 . S
C704 C707 1.386 . S
H705 C721 0.930 . S
H706 C722 0.931 . S
C707 H695 0.929 . S
C707 C701 1.390 . S
C707 C704 1.386 . S
C708 C703 1.490 . S
C708 C710 1.395 1_565 S
C708 C711 1.403 1_565 S
H709 C715 0.930 . S
C710 H696 0.953 . S
C710 C708 1.395 1_545 S
C710 C713 1.403 . S
C711 C708 1.403 1_545 S
C711 C712 1.524 1_545 S
C711 C715 1.400 . S
C712 H697 0.960 1_565 S
C712 H698 0.960 . S
C712 H699 0.960 . S
C712 C711 1.524 1_565 S
C713 C710 1.403 . S
C713 C714 1.392 . S
C713 C717 1.495 . S
C714 C713 1.392 . S
C714 C715 1.385 . S
C714 C716 1.478 . S
C715 H709 0.930 . S
C715 C711 1.400 . S
C715 C714 1.385 . S
C716 C714 1.478 . S
C716 C718 1.381 . S
C716 C722 1.383 . S
C717 C713 1.495 . S
C717 H723 0.959 . S
C717 H724 0.961 . S
C717 H725 0.960 . S
C718 C716 1.381 . S
C718 C719 1.394 . S
C718 H726 0.930 . S
C719 C718 1.394 . S
C719 C720 1.383 . S
C719 H727 0.929 . S
C720 C719 1.383 . S
C720 C721 1.377 . S
C721 H705 0.930 . S
C721 C720 1.377 . S
C721 C722 1.379 . S
C722 H706 0.931 . S
C722 C716 1.383 . S
C722 C721 1.379 . S
H723 C717 0.959 . S
H724 C717 0.961 . S
H725 C717 0.960 . S
H726 C718 0.930 . S
H727 C719 0.929 . S
H728 C736 0.929 . S
H729 C738 0.930 . S
H730 C740 0.930 . S
H731 C743 0.929 . S
H732 C746 0.930 . S
H733 C748 0.960 . S
H734 C748 0.960 . S
H735 C748 0.960 . S
C736 H728 0.929 . S
C736 C737 1.377 . S
C736 C738 1.384 . S
C737 C736 1.377 . S
C737 C743 1.390 . S
C738 H729 0.930 . S
C738 C736 1.384 . S
C738 C739 1.372 . S
C739 C738 1.372 . S
C739 C740 1.400 . S
C739 C744 1.490 . S
C740 H730 0.930 . S
C740 C739 1.400 . S
C740 C743 1.386 . S
H741 C757 0.930 . S
H742 C758 0.931 . S
C743 H731 0.929 . S
C743 C737 1.390 . S
C743 C740 1.386 . S
C744 C739 1.490 . S
C744 C746 1.395 . S
C744 C747 1.403 . S
H745 C751 0.930 . S
C746 H732 0.930 . S
C746 C744 1.395 . S
C746 C749 1.403 . S
C747 C744 1.403 . S
C747 C748 1.524 . S
C747 C751 1.400 1_655 S
C748 H733 0.960 . S
C748 H734 0.960 . S
C748 H735 0.960 . S
C748 C747 1.524 . S
C749 C746 1.403 . S
C749 C750 1.392 1_655 S
C749 C753 1.495 . S
C750 C749 1.392 1_455 S
C750 C751 1.385 . S
C750 C752 1.478 . S
C751 H745 0.930 . S
C751 C747 1.400 1_455 S
C751 C750 1.385 . S
C752 C750 1.478 . S
C752 C754 1.381 . S
C752 C758 1.383 . S
C753 C749 1.495 . S
C753 H759 0.959 . S
C753 H760 0.961 . S
C753 H761 0.960 . S
C754 C752 1.381 . S
C754 C755 1.394 . S
C754 H762 0.930 . S
C755 C754 1.394 . S
C755 C756 1.383 . S
C755 H763 0.929 . S
C756 C755 1.383 . S
C756 C757 1.377 . S
C757 H741 0.930 . S
C757 C756 1.377 . S
C757 C758 1.379 . S
C758 H742 0.931 . S
C758 C752 1.383 . S
C758 C757 1.379 . S
H759 C753 0.959 . S
H760 C753 0.961 . S
H761 C753 0.960 . S
H762 C754 0.930 . S
H763 C755 0.929 . S
H764 C772 0.929 . S
H765 C774 0.930 . S
H766 C776 0.930 . S
H767 C779 0.929 . S
H768 C782 0.930 . S
H769 C784 0.960 1_565 S
H770 C784 0.960 . S
H771 C784 0.960 . S
C772 H764 0.929 . S
C772 C773 1.377 . S
C772 C774 1.384 . S
C773 C772 1.377 . S
C773 C779 1.390 . S
C774 H765 0.930 . S
C774 C772 1.384 . S
C774 C775 1.372 . S
C775 C774 1.372 . S
C775 C776 1.400 . S
C775 C780 1.458 1_545 S
C776 H766 0.930 . S
C776 C775 1.400 . S
C776 C779 1.386 . S
H777 C793 0.930 . S
H778 C794 0.931 . S
C779 H767 0.929 . S
C779 C773 1.390 . S
C779 C776 1.386 . S
C780 C775 1.458 1_565 S
C780 C782 1.411 . S
C780 C783 1.419 . S
H781 C787 0.930 . S
C782 H768 0.930 . S
C782 C780 1.411 . S
C782 C785 1.403 . S
C783 C780 1.419 . S
C783 C784 1.524 1_565 S
C783 C787 1.400 . S
C784 H769 0.960 1_545 S
C784 H770 0.960 . S
C784 H771 0.960 . S
C784 C783 1.524 1_545 S
C785 C782 1.403 . S
C785 C786 1.392 . S
C785 C789 1.495 . S
C786 C785 1.392 . S
C786 C787 1.385 . S
C786 C788 1.478 . S
C787 H781 0.930 . S
C787 C783 1.400 . S
C787 C786 1.385 . S
C788 C786 1.478 . S
C788 C790 1.381 . S
C788 C794 1.383 . S
C789 C785 1.495 . S
C789 H795 0.959 . S
C789 H796 0.961 . S
C789 H797 0.960 . S
C790 C788 1.381 . S
C790 C791 1.394 . S
C790 H798 0.930 . S
C791 C790 1.394 . S
C791 C792 1.383 . S
C791 H799 0.929 . S
C792 C791 1.383 . S
C792 C793 1.377 . S
C793 H777 0.930 . S
C793 C792 1.377 . S
C793 C794 1.379 . S
C794 H778 0.931 . S
C794 C788 1.383 . S
C794 C793 1.379 . S
H795 C789 0.959 . S
H796 C789 0.961 . S
H797 C789 0.960 . S
H798 C790 0.930 . S
H799 C791 0.929 . S
H800 C808 0.929 . S
H801 C810 0.930 . S
H802 C812 0.930 . S
H803 C815 0.929 . S
H804 C818 0.930 . S
H805 C820 0.960 . S
H806 C820 0.960 . S
H807 C820 0.960 . S
C808 H800 0.929 . S
C808 C809 1.377 . S
C808 C810 1.384 . S
C809 C808 1.377 . S
C809 C815 1.390 . S
C810 H801 0.930 . S
C810 C808 1.384 . S
C810 C811 1.372 . S
C811 C810 1.372 . S
C811 C812 1.400 . S
C811 C816 1.490 . S
C812 H802 0.930 . S
C812 C811 1.400 . S
C812 C815 1.386 . S
H813 C829 0.930 . S
H814 C830 0.931 . S
C815 H803 0.929 . S
C815 C809 1.390 . S
C815 C812 1.386 . S
C816 C811 1.490 . S
C816 C818 1.395 . S
C816 C819 1.403 . S
H817 C823 0.930 . S
C818 H804 0.930 . S
C818 C816 1.395 . S
C818 C821 1.403 . S
C819 C816 1.403 . S
C819 C820 1.524 . S
C819 C823 1.400 . S
C820 H805 0.960 . S
C820 H806 0.960 . S
C820 H807 0.960 . S
C820 C819 1.524 . S
C821 C818 1.403 . S
C821 C822 1.392 . S
C821 C825 1.495 1_655 S
C822 C821 1.392 . S
C822 C823 1.385 . S
C822 C824 1.478 1_655 S
C823 H817 0.930 . S
C823 C819 1.400 . S
C823 C822 1.385 . S
C824 C822 1.478 1_455 S
C824 C826 1.381 . S
C824 C830 1.383 . S
C825 C821 1.495 1_455 S
C825 H831 0.957 1_455 S
C825 H832 0.961 . S
C825 H833 0.960 . S
C826 C824 1.381 . S
C826 C827 1.394 . S
C826 H834 0.930 . S
C827 C826 1.394 . S
C827 C828 1.383 . S
C827 H835 0.929 . S
C828 C827 1.383 . S
C828 C829 1.377 . S
C829 H813 0.930 . S
C829 C828 1.377 . S
C829 C830 1.379 . S
C830 H814 0.931 . S
C830 C824 1.383 . S
C830 C829 1.379 . S
H831 C825 0.957 1_655 S
H832 C825 0.961 . S
H833 C825 0.960 . S
H834 C826 0.930 . S
H835 C827 0.929 . S
H836 C844 0.929 . S
H837 C846 0.930 . S
H838 C848 0.930 . S
H839 C851 0.929 . S
H840 C854 0.930 . S
H841 C856 0.960 . S
H842 C856 0.960 . S
H843 C856 0.960 . S
C844 H836 0.929 . S
C844 C845 1.377 . S
C844 C846 1.384 . S
C845 C844 1.377 . S
C845 C851 1.390 . S
C846 H837 0.930 . S
C846 C844 1.384 . S
C846 C847 1.372 . S
C847 C846 1.372 . S
C847 C848 1.400 . S
C847 C852 1.490 . S
C848 H838 0.930 . S
C848 C847 1.400 . S
C848 C851 1.386 . S
H849 C865 0.930 . S
H850 C866 0.931 1_565 S
C851 H839 0.929 . S
C851 C845 1.390 . S
C851 C848 1.386 . S
C852 C847 1.490 . S
C852 C854 1.395 . S
C852 C855 1.403 . S
H853 C859 0.930 . S
C854 H840 0.930 . S
C854 C852 1.395 . S
C854 C857 1.403 . S
C855 C852 1.403 . S
C855 C856 1.524 . S
C855 C859 1.400 . S
C856 H841 0.960 . S
C856 H842 0.960 . S
C856 H843 0.960 . S
C856 C855 1.524 . S
C857 C854 1.403 . S
C857 C858 1.392 . S
C857 C861 1.495 . S
C858 C857 1.392 . S
C858 C859 1.385 . S
C858 C860 1.484 . S
C859 H853 0.930 . S
C859 C855 1.400 . S
C859 C858 1.385 . S
C860 C858 1.484 . S
C860 C862 1.377 1_565 S
C860 C866 1.380 1_565 S
C861 C857 1.495 . S
C861 H867 0.959 . S
C861 H868 0.961 . S
C861 H869 0.960 . S
C862 C860 1.377 1_545 S
C862 C863 1.394 . S
C862 H870 0.930 . S
C863 C862 1.394 . S
C863 C864 1.383 . S
C863 H871 0.929 . S
C864 C863 1.383 . S
C864 C865 1.377 . S
C865 H849 0.930 . S
C865 C864 1.377 . S
C865 C866 1.379 . S
C866 H850 0.931 1_545 S
C866 C860 1.380 1_545 S
C866 C865 1.379 . S
H867 C861 0.959 . S
H868 C861 0.961 . S
H869 C861 0.960 . S
H870 C862 0.930 . S
H871 C863 0.929 . S
H872 C880 0.929 . S
H873 C882 0.930 . S
H874 C884 0.930 . S
H875 C887 0.929 . S
H876 C890 0.930 . S
H877 C892 0.960 . S
H878 C892 0.960 . S
H879 C892 0.960 . S
C880 H872 0.929 . S
C880 C881 1.377 . S
C880 C882 1.384 . S
C881 C880 1.377 . S
C881 C887 1.390 . S
C882 H873 0.930 . S
C882 C880 1.384 . S
C882 C883 1.372 . S
C883 C882 1.372 . S
C883 C884 1.400 . S
C883 C888 1.490 . S
C884 H874 0.930 . S
C884 C883 1.400 . S
C884 C887 1.386 . S
H885 C901 0.930 . S
H886 C902 0.931 . S
C887 H875 0.929 . S
C887 C881 1.390 . S
C887 C884 1.386 . S
C888 C883 1.490 . S
C888 C890 1.395 . S
C888 C891 1.403 . S
H889 C895 0.930 1_655 S
C890 H876 0.930 . S
C890 C888 1.395 . S
C890 C893 1.403 . S
C891 C888 1.403 . S
C891 C892 1.524 . S
C891 C895 1.400 . S
C892 H877 0.960 . S
C892 H878 0.960 . S
C892 H879 0.960 . S
C892 C891 1.524 . S
C893 C890 1.403 . S
C893 C894 1.392 1_455 S
C893 C897 1.495 . S
C894 C893 1.392 1_655 S
C894 C895 1.385 1_655 S
C894 C896 1.478 . S
C895 H889 0.930 1_455 S
C895 C891 1.400 . S
C895 C894 1.385 1_455 S
C896 C894 1.478 . S
C896 C898 1.381 . S
C896 C902 1.383 . S
C897 C893 1.495 . S
C897 H903 0.959 . S
C897 H904 0.961 1_455 S
C897 H905 0.960 . S
C898 C896 1.381 . S
C898 C899 1.394 . S
C898 H906 0.930 . S
C899 C898 1.394 . S
C899 C900 1.383 . S
C899 H907 0.929 . S
C900 C899 1.383 . S
C900 C901 1.377 . S
C901 H885 0.930 . S
C901 C900 1.377 . S
C901 C902 1.379 . S
C902 H886 0.931 . S
C902 C896 1.383 . S
C902 C901 1.379 . S
H903 C897 0.959 . S
H904 C897 0.961 1_655 S
H905 C897 0.960 . S
H906 C898 0.930 . S
H907 C899 0.929 . S
H908 C916 0.929 . S
H909 C918 0.930 1_545 S
H910 C920 0.930 1_545 S
H911 C923 0.929 . S
H912 C926 0.930 . S
H913 C928 0.960 . S
H914 C928 0.960 . S
H915 C928 0.960 . S
C916 H908 0.929 . S
C916 C917 1.377 . S
C916 C918 1.384 . S
C917 C916 1.377 . S
C917 C923 1.390 . S
C918 H909 0.930 1_565 S
C918 C916 1.384 . S
C918 C919 1.372 1_565 S
C919 C918 1.372 1_545 S
C919 C920 1.400 1_545 S
C919 C924 1.490 . S
C920 H910 0.930 1_565 S
C920 C919 1.400 1_565 S
C920 C923 1.386 . S
H921 C937 0.930 . S
H922 C938 0.931 . S
C923 H911 0.929 . S
C923 C917 1.390 . S
C923 C920 1.386 . S
C924 C919 1.490 . S
C924 C926 1.395 . S
C924 C927 1.403 . S
H925 C931 0.930 . S
C926 H912 0.930 . S
C926 C924 1.395 . S
C926 C929 1.403 . S
C927 C924 1.403 . S
C927 C928 1.524 . S
C927 C931 1.400 . S
C928 H913 0.960 . S
C928 H914 0.960 . S
C928 H915 0.960 . S
C928 C927 1.524 . S
C929 C926 1.403 . S
C929 C930 1.392 . S
C929 C933 1.495 . S
C930 C929 1.392 . S
C930 C931 1.385 . S
C930 C932 1.478 . S
C931 H925 0.930 . S
C931 C927 1.400 . S
C931 C930 1.385 . S
C932 C930 1.478 . S
C932 C934 1.381 . S
C932 C938 1.383 . S
C933 C929 1.495 . S
C933 H939 0.959 . S
C933 H940 0.961 . S
C933 H941 0.960 . S
C934 C932 1.381 . S
C934 C935 1.394 . S
C934 H942 0.930 . S
C935 C934 1.394 . S
C935 C936 1.383 . S
C935 H943 0.929 . S
C936 C935 1.383 . S
C936 C937 1.377 . S
C937 H921 0.930 . S
C937 C936 1.377 . S
C937 C938 1.379 . S
C938 H922 0.931 . S
C938 C932 1.383 . S
C938 C937 1.379 . S
H939 C933 0.959 . S
H940 C933 0.961 . S
H941 C933 0.960 . S
H942 C934 0.930 . S
H943 C935 0.929 . S
H944 C952 0.929 . S
H945 C954 0.930 . S
H946 C956 0.930 . S
H947 C959 0.929 . S
H948 C962 0.930 . S
H949 C964 0.960 . S
H950 C964 0.960 . S
H951 C964 0.960 . S
C952 H944 0.929 . S
C952 C953 1.377 . S
C952 C954 1.384 . S
C953 C952 1.377 . S
C953 C959 1.390 . S
C954 H945 0.930 . S
C954 C952 1.384 . S
C954 C955 1.372 . S
C955 C954 1.372 . S
C955 C956 1.400 . S
C955 C960 1.490 . S
C956 H946 0.930 . S
C956 C955 1.400 . S
C956 C959 1.386 . S
H957 C973 0.930 . S
H958 C974 0.931 . S
C959 H947 0.929 . S
C959 C953 1.390 . S
C959 C956 1.386 . S
C960 C955 1.490 . S
C960 C962 1.395 . S
C960 C963 1.403 . S
H961 C967 0.930 . S
C962 H948 0.930 . S
C962 C960 1.395 . S
C962 C965 1.403 . S
C963 C960 1.403 . S
C963 C964 1.524 . S
C963 C967 1.400 . S
C964 H949 0.960 . S
C964 H950 0.960 . S
C964 H951 0.960 . S
C964 C963 1.524 . S
C965 C962 1.403 . S
C965 C966 1.392 . S
C965 C969 1.495 . S
C966 C965 1.392 . S
C966 C967 1.385 . S
C966 C968 1.478 . S
C967 H961 0.930 . S
C967 C963 1.400 . S
C967 C966 1.385 . S
C968 C966 1.478 . S
C968 C970 1.381 . S
C968 C974 1.383 . S
C969 C965 1.495 . S
C969 H975 0.959 . S
C969 H976 0.961 . S
C969 H977 0.960 . S
C970 C968 1.381 . S
C970 C971 1.394 . S
C970 H978 0.930 . S
C971 C970 1.394 . S
C971 C972 1.383 . S
C971 H979 0.929 . S
C972 C971 1.383 . S
C972 C973 1.377 . S
C973 H957 0.930 . S
C973 C972 1.377 . S
C973 C974 1.379 . S
C974 H958 0.931 . S
C974 C968 1.383 . S
C974 C973 1.379 . S
H975 C969 0.959 . S
H976 C969 0.961 . S
H977 C969 0.960 . S
H978 C970 0.930 . S
H979 C971 0.929 . S
H980 C988 0.929 . S
H981 C990 0.930 . S
H982 C992 0.930 . S
H983 C995 0.929 . S
H984 C998 0.930 . S
H985 C1000 0.960 . S
H986 C1000 0.960 . S
H987 C1000 0.960 . S
C988 H980 0.929 . S
C988 C989 1.377 . S
C988 C990 1.384 . S
C989 C988 1.377 . S
C989 C995 1.390 . S
C990 H981 0.930 . S
C990 C988 1.384 . S
C990 C991 1.372 . S
C991 C990 1.372 . S
C991 C992 1.400 . S
C991 C996 1.490 . S
C992 H982 0.930 . S
C992 C991 1.400 . S
C992 C995 1.386 . S
H993 C1009 0.930 . S
H994 C1010 0.931 . S
C995 H983 0.929 . S
C995 C989 1.390 . S
C995 C992 1.386 . S
C996 C991 1.490 . S
C996 C998 1.395 . S
C996 C999 1.403 . S
H997 C1003 0.930 . S
C998 H984 0.930 . S
C998 C996 1.395 . S
C998 C1001 1.403 . S
C999 C996 1.403 . S
C999 C1000 1.524 . S
C999 C1003 1.400 . S
C1000 H985 0.960 . S
C1000 H986 0.960 . S
C1000 H987 0.960 . S
C1000 C999 1.524 . S
C1001 C998 1.403 . S
C1001 C1002 1.392 . S
C1001 C1005 1.495 . S
C1002 C1001 1.392 . S
C1002 C1003 1.385 . S
C1002 C1004 1.478 . S
C1003 H997 0.930 . S
C1003 C999 1.400 . S
C1003 C1002 1.385 . S
C1004 C1002 1.478 . S
C1004 C1006 1.381 . S
C1004 C1010 1.383 . S
C1005 C1001 1.495 . S
C1005 H1011 0.959 . S
C1005 H1012 0.961 . S
C1005 H1013 0.960 . S
C1006 C1004 1.381 . S
C1006 C1007 1.394 . S
C1006 H1014 0.930 . S
C1007 C1006 1.394 . S
C1007 C1008 1.383 . S
C1007 H1015 0.929 . S
C1008 C1007 1.383 . S
C1008 C1009 1.377 . S
C1009 H993 0.930 . S
C1009 C1008 1.377 . S
C1009 C1010 1.379 . S
C1010 H994 0.931 . S
C1010 C1004 1.383 . S
C1010 C1009 1.379 . S
H1011 C1005 0.959 . S
H1012 C1005 0.961 . S
H1013 C1005 0.960 . S
H1014 C1006 0.930 . S
H1015 C1007 0.929 . S
H1016 C1024 0.929 . S
H1017 C1026 0.930 . S
H1018 C1028 0.930 . S
H1019 C1031 0.929 . S
H1020 C1034 0.930 . S
H1021 C1036 0.960 . S
H1022 C1036 0.960 . S
H1023 C1036 0.960 . S
C1024 H1016 0.929 . S
C1024 C1025 1.377 . S
C1024 C1026 1.384 . S
C1025 C1024 1.377 . S
C1025 C1031 1.390 . S
C1026 H1017 0.930 . S
C1026 C1024 1.384 . S
C1026 C1027 1.372 . S
C1027 C1026 1.372 . S
C1027 C1028 1.400 . S
C1027 C1032 1.490 . S
C1028 H1018 0.930 . S
C1028 C1027 1.400 . S
C1028 C1031 1.386 . S
H1029 C1045 0.930 . S
H1030 C1046 0.931 . S
C1031 H1019 0.929 . S
C1031 C1025 1.390 . S
C1031 C1028 1.386 . S
C1032 C1027 1.490 . S
C1032 C1034 1.395 . S
C1032 C1035 1.403 . S
H1033 C1039 0.930 . S
C1034 H1020 0.930 . S
C1034 C1032 1.395 . S
C1034 C1037 1.403 . S
C1035 C1032 1.403 . S
C1035 C1036 1.524 . S
C1035 C1039 1.400 . S
C1036 H1021 0.960 . S
C1036 H1022 0.960 . S
C1036 H1023 0.960 . S
C1036 C1035 1.524 . S
C1037 C1034 1.403 . S
C1037 C1038 1.392 . S
C1037 C1041 1.495 . S
C1038 C1037 1.392 . S
C1038 C1039 1.385 . S
C1038 C1040 1.478 . S
C1039 H1033 0.930 . S
C1039 C1035 1.400 . S
C1039 C1038 1.385 . S
C1040 C1038 1.478 . S
C1040 C1042 1.381 . S
C1040 C1046 1.383 . S
C1041 C1037 1.495 . S
C1041 H1047 0.959 . S
C1041 H1048 0.961 . S
C1041 H1049 0.960 . S
C1042 C1040 1.381 . S
C1042 C1043 1.394 . S
C1042 H1050 0.930 . S
C1043 C1042 1.394 . S
C1043 C1044 1.383 . S
C1043 H1051 0.929 . S
C1044 C1043 1.383 . S
C1044 C1045 1.377 . S
C1045 H1029 0.930 . S
C1045 C1044 1.377 . S
C1045 C1046 1.379 . S
C1046 H1030 0.931 . S
C1046 C1040 1.383 . S
C1046 C1045 1.379 . S
H1047 C1041 0.959 . S
H1048 C1041 0.961 . S
H1049 C1041 0.960 . S
H1050 C1042 0.930 . S
H1051 C1043 0.929 . S
H1052 C1060 0.929 . S
H1053 C1062 0.930 . S
H1054 C1064 0.930 . S
H1055 C1067 0.929 . S
H1056 C1070 0.930 . S
H1057 C1072 0.960 . S
H1058 C1072 0.960 . S
H1059 C1072 0.960 . S
C1060 H1052 0.929 . S
C1060 C1061 1.377 . S
C1060 C1062 1.384 . S
C1061 C1060 1.377 . S
C1061 C1067 1.390 . S
C1062 H1053 0.930 . S
C1062 C1060 1.384 . S
C1062 C1063 1.372 . S
C1063 C1062 1.372 . S
C1063 C1064 1.400 . S
C1063 C1068 1.490 . S
C1064 H1054 0.930 . S
C1064 C1063 1.400 . S
C1064 C1067 1.386 . S
H1065 C1081 0.930 . S
H1066 C1082 0.931 . S
C1067 H1055 0.929 . S
C1067 C1061 1.390 . S
C1067 C1064 1.386 . S
C1068 C1063 1.490 . S
C1068 C1070 1.395 . S
C1068 C1071 1.403 . S
H1069 C1075 0.930 . S
C1070 H1056 0.930 . S
C1070 C1068 1.395 . S
C1070 C1073 1.403 . S
C1071 C1068 1.403 . S
C1071 C1072 1.524 . S
C1071 C1075 1.400 . S
C1072 H1057 0.960 . S
C1072 H1058 0.960 . S
C1072 H1059 0.960 . S
C1072 C1071 1.524 . S
C1073 C1070 1.403 . S
C1073 C1074 1.392 . S
C1073 C1077 1.495 . S
C1074 C1073 1.392 . S
C1074 C1075 1.385 . S
C1074 C1076 1.478 . S
C1075 H1069 0.930 . S
C1075 C1071 1.400 . S
C1075 C1074 1.385 . S
C1076 C1074 1.478 . S
C1076 C1078 1.381 . S
C1076 C1082 1.383 . S
C1077 C1073 1.495 . S
C1077 H1083 0.959 . S
C1077 H1084 0.961 . S
C1077 H1085 0.960 . S
C1078 C1076 1.381 . S
C1078 C1079 1.394 . S
C1078 H1086 0.930 . S
C1079 C1078 1.394 . S
C1079 C1080 1.383 . S
C1079 H1087 0.929 . S
C1080 C1079 1.383 . S
C1080 C1081 1.377 . S
C1081 H1065 0.930 . S
C1081 C1080 1.377 . S
C1081 C1082 1.379 . S
C1082 H1066 0.931 . S
C1082 C1076 1.383 . S
C1082 C1081 1.379 . S
H1083 C1077 0.959 . S
H1084 C1077 0.961 . S
H1085 C1077 0.960 . S
H1086 C1078 0.930 . S
H1087 C1079 0.929 . S
H1088 C1096 0.929 . S
H1089 C1098 0.930 . S
H1090 C1100 0.930 . S
H1091 C1103 0.929 . S
H1092 C1106 0.930 . S
H1093 C1108 0.960 . S
H1094 C1108 0.960 . S
H1095 C1108 0.960 . S
C1096 H1088 0.929 . S
C1096 C1097 1.377 . S
C1096 C1098 1.384 . S
C1097 C1096 1.377 . S
C1097 C1103 1.390 . S
C1098 H1089 0.930 . S
C1098 C1096 1.384 . S
C1098 C1099 1.372 . S
C1099 C1098 1.372 . S
C1099 C1100 1.400 . S
C1099 C1104 1.490 . S
C1100 H1090 0.930 . S
C1100 C1099 1.400 . S
C1100 C1103 1.386 . S
H1101 C1117 0.930 . S
H1102 C1118 0.931 . S
C1103 H1091 0.929 . S
C1103 C1097 1.390 . S
C1103 C1100 1.386 . S
C1104 C1099 1.490 . S
C1104 C1106 1.395 . S
C1104 C1107 1.403 . S
H1105 C1111 0.930 . S
C1106 H1092 0.930 . S
C1106 C1104 1.395 . S
C1106 C1109 1.403 . S
C1107 C1104 1.403 . S
C1107 C1108 1.524 . S
C1107 C1111 1.400 . S
C1108 H1093 0.960 . S
C1108 H1094 0.960 . S
C1108 H1095 0.960 . S
C1108 C1107 1.524 . S
C1109 C1106 1.403 . S
C1109 C1110 1.392 . S
C1109 C1113 1.495 . S
C1110 C1109 1.392 . S
C1110 C1111 1.385 . S
C1110 C1112 1.478 . S
C1111 H1105 0.930 . S
C1111 C1107 1.400 . S
C1111 C1110 1.385 . S
C1112 C1110 1.478 . S
C1112 C1114 1.381 . S
C1112 C1118 1.383 . S
C1113 C1109 1.495 . S
C1113 H1119 0.959 . S
C1113 H1120 0.961 . S
C1113 H1121 0.960 . S
C1114 C1112 1.381 . S
C1114 C1115 1.394 . S
C1114 H1122 0.930 . S
C1115 C1114 1.394 . S
C1115 C1116 1.383 . S
C1115 H1123 0.929 . S
C1116 C1115 1.383 . S
C1116 C1117 1.377 . S
C1117 H1101 0.930 . S
C1117 C1116 1.377 . S
C1117 C1118 1.379 . S
C1118 H1102 0.931 . S
C1118 C1112 1.383 . S
C1118 C1117 1.379 . S
H1119 C1113 0.959 . S
H1120 C1113 0.961 . S
H1121 C1113 0.960 . S
H1122 C1114 0.930 . S
H1123 C1115 0.929 . S
H1124 C1132 0.929 . S
H1125 C1134 0.930 . S
H1126 C1136 0.930 . S
H1127 C1139 0.929 . S
H1128 C1142 0.930 . S
H1129 C1144 0.960 . S
H1130 C1144 0.960 . S
H1131 C1144 0.960 . S
C1132 H1124 0.929 . S
C1132 C1133 1.377 . S
C1132 C1134 1.384 . S
C1133 C1132 1.377 . S
C1133 C1139 1.390 . S
C1134 H1125 0.930 . S
C1134 C1132 1.384 . S
C1134 C1135 1.372 . S
C1135 C1134 1.372 . S
C1135 C1136 1.400 . S
C1135 C1140 1.490 . S
C1136 H1126 0.930 . S
C1136 C1135 1.400 . S
C1136 C1139 1.386 . S
H1137 C1153 0.930 . S
H1138 C1154 0.931 . S
C1139 H1127 0.929 . S
C1139 C1133 1.390 . S
C1139 C1136 1.386 . S
C1140 C1135 1.490 . S
C1140 C1142 1.395 . S
C1140 C1143 1.403 . S
H1141 C1147 0.930 . S
C1142 H1128 0.930 . S
C1142 C1140 1.395 . S
C1142 C1145 1.403 . S
C1143 C1140 1.403 . S
C1143 C1144 1.524 . S
C1143 C1147 1.400 . S
C1144 H1129 0.960 . S
C1144 H1130 0.960 . S
C1144 H1131 0.960 . S
C1144 C1143 1.524 . S
C1145 C1142 1.403 . S
C1145 C1146 1.392 . S
C1145 C1149 1.495 . S
C1146 C1145 1.392 . S
C1146 C1147 1.385 . S
C1146 C1148 1.478 . S
C1147 H1141 0.930 . S
C1147 C1143 1.400 . S
C1147 C1146 1.385 . S
C1148 C1146 1.478 . S
C1148 C1150 1.381 . S
C1148 C1154 1.383 . S
C1149 C1145 1.495 . S
C1149 H1155 0.959 . S
C1149 H1156 0.961 . S
C1149 H1157 0.960 . S
C1150 C1148 1.381 . S
C1150 C1151 1.394 . S
C1150 H1158 0.930 . S
C1151 C1150 1.394 . S
C1151 C1152 1.383 . S
C1151 H1159 0.929 . S
C1152 C1151 1.383 . S
C1152 C1153 1.377 . S
C1153 H1137 0.930 . S
C1153 C1152 1.377 . S
C1153 C1154 1.379 . S
C1154 H1138 0.931 . S
C1154 C1148 1.383 . S
C1154 C1153 1.379 . S
H1155 C1149 0.959 . S
H1156 C1149 0.961 . S
H1157 C1149 0.960 . S
H1158 C1150 0.930 . S
H1159 C1151 0.929 . S
H1160 C1168 0.929 . S
H1161 C1170 0.930 . S
H1162 C1172 0.930 . S
H1163 C1175 0.929 . S
H1164 C1178 0.930 . S
H1165 C1180 0.960 . S
H1166 C1180 0.960 . S
H1167 C1180 0.960 . S
C1168 H1160 0.929 . S
C1168 C1169 1.377 . S
C1168 C1170 1.384 . S
C1169 C1168 1.377 . S
C1169 C1175 1.390 . S
C1170 H1161 0.930 . S
C1170 C1168 1.384 . S
C1170 C1171 1.372 . S
C1171 C1170 1.372 . S
C1171 C1172 1.400 . S
C1171 C1176 1.490 . S
C1172 H1162 0.930 . S
C1172 C1171 1.400 . S
C1172 C1175 1.386 . S
H1173 C1189 0.930 . S
H1174 C1190 0.931 . S
C1175 H1163 0.929 . S
C1175 C1169 1.390 . S
C1175 C1172 1.386 . S
C1176 C1171 1.490 . S
C1176 C1178 1.395 . S
C1176 C1179 1.403 . S
H1177 C1183 0.930 . S
C1178 H1164 0.930 . S
C1178 C1176 1.395 . S
C1178 C1181 1.403 . S
C1179 C1176 1.403 . S
C1179 C1180 1.524 . S
C1179 C1183 1.400 . S
C1180 H1165 0.960 . S
C1180 H1166 0.960 . S
C1180 H1167 0.960 . S
C1180 C1179 1.524 . S
C1181 C1178 1.403 . S
C1181 C1182 1.392 . S
C1181 C1185 1.495 . S
C1182 C1181 1.392 . S
C1182 C1183 1.385 . S
C1182 C1184 1.478 . S
C1183 H1177 0.930 . S
C1183 C1179 1.400 . S
C1183 C1182 1.385 . S
C1184 C1182 1.478 . S
C1184 C1186 1.381 . S
C1184 C1190 1.383 . S
C1185 C1181 1.495 . S
C1185 H1191 0.959 . S
C1185 H1192 0.961 . S
C1185 H1193 0.960 . S
C1186 C1184 1.381 . S
C1186 C1187 1.394 . S
C1186 H1194 0.930 . S
C1187 C1186 1.394 . S
C1187 C1188 1.383 . S
C1187 H1195 0.929 . S
C1188 C1187 1.383 . S
C1188 C1189 1.377 . S
C1189 H1173 0.930 . S
C1189 C1188 1.377 . S
C1189 C1190 1.379 . S
C1190 H1174 0.931 . S
C1190 C1184 1.383 . S
C1190 C1189 1.379 . S
H1191 C1185 0.959 . S
H1192 C1185 0.961 . S
H1193 C1185 0.960 . S
H1194 C1186 0.930 . S
H1195 C1187 0.929 . S
H1196 C1204 0.929 . S
H1197 C1206 0.930 . S
H1198 C1208 0.930 . S
H1199 C1211 0.929 . S
H1200 C1214 0.930 . S
H1201 C1216 0.960 . S
H1202 C1216 0.960 . S
H1203 C1216 0.960 . S
C1204 H1196 0.929 . S
C1204 C1205 1.377 . S
C1204 C1206 1.384 . S
C1205 C1204 1.377 . S
C1205 C1211 1.390 . S
C1206 H1197 0.930 . S
C1206 C1204 1.384 . S
C1206 C1207 1.372 . S
C1207 C1206 1.372 . S
C1207 C1208 1.400 . S
C1207 C1212 1.490 . S
C1208 H1198 0.930 . S
C1208 C1207 1.400 . S
C1208 C1211 1.386 . S
H1209 C1225 0.930 . S
H1210 C1226 0.931 . S
C1211 H1199 0.929 . S
C1211 C1205 1.390 . S
C1211 C1208 1.386 . S
C1212 C1207 1.490 . S
C1212 C1214 1.395 . S
C1212 C1215 1.403 . S
H1213 C1219 0.930 . S
C1214 H1200 0.930 . S
C1214 C1212 1.395 . S
C1214 C1217 1.403 . S
C1215 C1212 1.403 . S
C1215 C1216 1.524 . S
C1215 C1219 1.400 . S
C1216 H1201 0.960 . S
C1216 H1202 0.960 . S
C1216 H1203 0.960 . S
C1216 C1215 1.524 . S
C1217 C1214 1.403 . S
C1217 C1218 1.392 . S
C1217 C1221 1.495 . S
C1218 C1217 1.392 . S
C1218 C1219 1.385 . S
C1218 C1220 1.478 . S
C1219 H1213 0.930 . S
C1219 C1215 1.400 . S
C1219 C1218 1.385 . S
C1220 C1218 1.478 . S
C1220 C1222 1.381 . S
C1220 C1226 1.383 . S
C1221 C1217 1.495 . S
C1221 H1227 0.959 . S
C1221 H1228 0.961 . S
C1221 H1229 0.960 . S
C1222 C1220 1.381 . S
C1222 C1223 1.394 . S
C1222 H1230 0.930 . S
C1223 C1222 1.394 . S
C1223 C1224 1.383 . S
C1223 H1231 0.929 . S
C1224 C1223 1.383 . S
C1224 C1225 1.377 . S
C1225 H1209 0.930 . S
C1225 C1224 1.377 . S
C1225 C1226 1.379 . S
C1226 H1210 0.931 . S
C1226 C1220 1.383 . S
C1226 C1225 1.379 . S
H1227 C1221 0.959 . S
H1228 C1221 0.961 . S
H1229 C1221 0.960 . S
H1230 C1222 0.930 . S
H1231 C1223 0.929 . S
H1232 C1240 0.929 . S
H1233 C1242 0.930 . S
H1234 C1244 0.930 . S
H1235 C1247 0.929 . S
H1236 C1250 0.930 . S
H1237 C1252 0.960 . S
H1238 C1252 0.960 . S
H1239 C1252 0.960 . S
C1240 H1232 0.929 . S
C1240 C1241 1.377 . S
C1240 C1242 1.384 . S
C1241 C1240 1.377 . S
C1241 C1247 1.390 . S
C1242 H1233 0.930 . S
C1242 C1240 1.384 . S
C1242 C1243 1.372 . S
C1243 C1242 1.372 . S
C1243 C1244 1.400 . S
C1243 C1248 1.490 . S
C1244 H1234 0.930 . S
C1244 C1243 1.400 . S
C1244 C1247 1.386 . S
H1245 C1261 0.930 . S
H1246 C1262 0.931 . S
C1247 H1235 0.929 . S
C1247 C1241 1.390 . S
C1247 C1244 1.386 . S
C1248 C1243 1.490 . S
C1248 C1250 1.395 . S
C1248 C1251 1.403 . S
H1249 C1255 0.930 . S
C1250 H1236 0.930 . S
C1250 C1248 1.395 . S
C1250 C1253 1.403 . S
C1251 C1248 1.403 . S
C1251 C1252 1.524 . S
C1251 C1255 1.400 . S
C1252 H1237 0.960 . S
C1252 H1238 0.960 . S
C1252 H1239 0.960 . S
C1252 C1251 1.524 . S
C1253 C1250 1.403 . S
C1253 C1254 1.392 . S
C1253 C1257 1.495 . S
C1254 C1253 1.392 . S
C1254 C1255 1.385 . S
C1254 C1256 1.478 . S
C1255 H1249 0.930 . S
C1255 C1251 1.400 . S
C1255 C1254 1.385 . S
C1256 C1254 1.478 . S
C1256 C1258 1.381 . S
C1256 C1262 1.383 . S
C1257 C1253 1.495 . S
C1257 H1263 0.959 . S
C1257 H1264 0.961 . S
C1257 H1265 0.960 . S
C1258 C1256 1.381 . S
C1258 C1259 1.394 . S
C1258 H1266 0.930 . S
C1259 C1258 1.394 . S
C1259 C1260 1.383 . S
C1259 H1267 0.929 . S
C1260 C1259 1.383 . S
C1260 C1261 1.377 . S
C1261 H1245 0.930 . S
C1261 C1260 1.377 . S
C1261 C1262 1.379 . S
C1262 H1246 0.931 . S
C1262 C1256 1.383 . S
C1262 C1261 1.379 . S
H1263 C1257 0.959 . S
H1264 C1257 0.961 . S
H1265 C1257 0.960 . S
H1266 C1258 0.930 . S
H1267 C1259 0.929 . S
H1268 C1276 0.929 . S
H1269 C1278 0.930 . S
H1270 C1280 0.930 . S
H1271 C1283 0.929 . S
H1272 C1286 0.930 . S
H1273 C1288 0.960 . S
H1274 C1288 0.960 . S
H1275 C1288 0.960 . S
C1276 H1268 0.929 . S
C1276 C1277 1.377 . S
C1276 C1278 1.384 . S
C1277 C1276 1.377 . S
C1277 C1283 1.390 . S
C1278 H1269 0.930 . S
C1278 C1276 1.384 . S
C1278 C1279 1.372 . S
C1279 C1278 1.372 . S
C1279 C1280 1.400 . S
C1279 C1284 1.490 . S
C1280 H1270 0.930 . S
C1280 C1279 1.400 . S
C1280 C1283 1.386 . S
H1281 C1297 0.930 . S
H1282 C1298 0.931 . S
C1283 H1271 0.929 . S
C1283 C1277 1.390 . S
C1283 C1280 1.386 . S
C1284 C1279 1.490 . S
C1284 C1286 1.395 . S
C1284 C1287 1.403 . S
H1285 C1291 0.930 . S
C1286 H1272 0.930 . S
C1286 C1284 1.395 . S
C1286 C1289 1.403 . S
C1287 C1284 1.403 . S
C1287 C1288 1.524 . S
C1287 C1291 1.400 . S
C1288 H1273 0.960 . S
C1288 H1274 0.960 . S
C1288 H1275 0.960 . S
C1288 C1287 1.524 . S
C1289 C1286 1.403 . S
C1289 C1290 1.392 . S
C1289 C1293 1.495 . S
C1290 C1289 1.392 . S
C1290 C1291 1.385 . S
C1290 C1292 1.478 . S
C1291 H1285 0.930 . S
C1291 C1287 1.400 . S
C1291 C1290 1.385 . S
C1292 C1290 1.478 . S
C1292 C1294 1.381 . S
C1292 C1298 1.383 . S
C1293 C1289 1.495 . S
C1293 H1299 0.959 . S
C1293 H1300 0.961 . S
C1293 H1301 0.960 . S
C1294 C1292 1.381 . S
C1294 C1295 1.394 . S
C1294 H1302 0.930 . S
C1295 C1294 1.394 . S
C1295 C1296 1.383 . S
C1295 H1303 0.929 . S
C1296 C1295 1.383 . S
C1296 C1297 1.377 . S
C1297 H1281 0.930 . S
C1297 C1296 1.377 . S
C1297 C1298 1.379 . S
C1298 H1282 0.931 . S
C1298 C1292 1.383 . S
C1298 C1297 1.379 . S
H1299 C1293 0.959 . S
H1300 C1293 0.961 . S
H1301 C1293 0.960 . S
H1302 C1294 0.930 . S
H1303 C1295 0.929 . S
H1304 C1312 0.929 . S
H1305 C1314 0.930 . S
H1306 C1316 0.930 . S
H1307 C1319 0.929 . S
H1308 C1322 0.930 . S
H1309 C1324 0.960 . S
H1310 C1324 0.960 . S
H1311 C1324 0.960 . S
C1312 H1304 0.929 . S
C1312 C1313 1.377 . S
C1312 C1314 1.384 . S
C1313 C1312 1.377 . S
C1313 C1319 1.390 . S
C1314 H1305 0.930 . S
C1314 C1312 1.384 . S
C1314 C1315 1.372 . S
C1315 C1314 1.372 . S
C1315 C1316 1.400 . S
C1315 C1320 1.490 . S
C1316 H1306 0.930 . S
C1316 C1315 1.400 . S
C1316 C1319 1.386 . S
H1317 C1333 0.930 . S
H1318 C1334 0.931 . S
C1319 H1307 0.929 . S
C1319 C1313 1.390 . S
C1319 C1316 1.386 . S
C1320 C1315 1.490 . S
C1320 C1322 1.395 . S
C1320 C1323 1.403 . S
H1321 C1327 0.930 . S
C1322 H1308 0.930 . S
C1322 C1320 1.395 . S
C1322 C1325 1.403 . S
C1323 C1320 1.403 . S
C1323 C1324 1.524 . S
C1323 C1327 1.400 . S
C1324 H1309 0.960 . S
C1324 H1310 0.960 . S
C1324 H1311 0.960 . S
C1324 C1323 1.524 . S
C1325 C1322 1.403 . S
C1325 C1326 1.392 . S
C1325 C1329 1.495 . S
C1326 C1325 1.392 . S
C1326 C1327 1.385 . S
C1326 C1328 1.478 . S
C1327 H1321 0.930 . S
C1327 C1323 1.400 . S
C1327 C1326 1.385 . S
C1328 C1326 1.478 . S
C1328 C1330 1.381 . S
C1328 C1334 1.383 . S
C1329 C1325 1.495 . S
C1329 H1335 0.959 . S
C1329 H1336 0.961 . S
C1329 H1337 0.960 . S
C1330 C1328 1.381 . S
C1330 C1331 1.394 . S
C1330 H1338 0.930 . S
C1331 C1330 1.394 . S
C1331 C1332 1.383 . S
C1331 H1339 0.929 . S
C1332 C1331 1.383 . S
C1332 C1333 1.377 . S
C1333 H1317 0.930 . S
C1333 C1332 1.377 . S
C1333 C1334 1.379 . S
C1334 H1318 0.931 . S
C1334 C1328 1.383 . S
C1334 C1333 1.379 . S
H1335 C1329 0.959 . S
H1336 C1329 0.961 . S
H1337 C1329 0.960 . S
H1338 C1330 0.930 . S
H1339 C1331 0.929 . S
H1340 C1348 0.929 . S
H1341 C1350 0.930 . S
H1342 C1352 0.930 . S
H1343 C1355 0.929 . S
H1344 C1358 0.930 . S
H1345 C1360 0.960 . S
H1346 C1360 0.960 . S
H1347 C1360 0.960 . S
C1348 H1340 0.929 . S
C1348 C1349 1.377 . S
C1348 C1350 1.384 . S
C1349 C1348 1.377 . S
C1349 C1355 1.390 . S
C1350 H1341 0.930 . S
C1350 C1348 1.384 . S
C1350 C1351 1.372 . S
C1351 C1350 1.372 . S
C1351 C1352 1.400 . S
C1351 C1356 1.490 . S
C1352 H1342 0.930 . S
C1352 C1351 1.400 . S
C1352 C1355 1.386 . S
H1353 C1369 0.930 . S
H1354 C1370 0.931 . S
C1355 H1343 0.929 . S
C1355 C1349 1.390 . S
C1355 C1352 1.386 . S
C1356 C1351 1.490 . S
C1356 C1358 1.395 . S
C1356 C1359 1.403 . S
H1357 C1363 0.930 . S
C1358 H1344 0.930 . S
C1358 C1356 1.395 . S
C1358 C1361 1.403 . S
C1359 C1356 1.403 . S
C1359 C1360 1.524 . S
C1359 C1363 1.400 . S
C1360 H1345 0.960 . S
C1360 H1346 0.960 . S
C1360 H1347 0.960 . S
C1360 C1359 1.524 . S
C1361 C1358 1.403 . S
C1361 C1362 1.392 . S
C1361 C1365 1.495 . S
C1362 C1361 1.392 . S
C1362 C1363 1.385 . S
C1362 C1364 1.478 . S
C1363 H1357 0.930 . S
C1363 C1359 1.400 . S
C1363 C1362 1.385 . S
C1364 C1362 1.478 . S
C1364 C1366 1.381 . S
C1364 C1370 1.383 . S
C1365 C1361 1.495 . S
C1365 H1371 0.959 . S
C1365 H1372 0.961 . S
C1365 H1373 0.960 . S
C1366 C1364 1.381 . S
C1366 C1367 1.394 . S
C1366 H1374 0.930 . S
C1367 C1366 1.394 . S
C1367 C1368 1.383 . S
C1367 H1375 0.929 . S
C1368 C1367 1.383 . S
C1368 C1369 1.377 . S
C1369 H1353 0.930 . S
C1369 C1368 1.377 . S
C1369 C1370 1.379 . S
C1370 H1354 0.931 . S
C1370 C1364 1.383 . S
C1370 C1369 1.379 . S
H1371 C1365 0.959 . S
H1372 C1365 0.961 . S
H1373 C1365 0.960 . S
H1374 C1366 0.930 . S
H1375 C1367 0.929 . S
C233 C216 1.001 . S
C252 C6 1.051 . S
C269 C174 1.068 . S
C288 C20 1.075 . S
C305 C34 1.136 . S
C324 C188 1.118 . S
C341 C202 1.236 . S
C360 C48 1.317 . S
C377 C132 1.066 . S
C396 C62 1.057 . S
C413 C76 1.062 . S
C432 C146 1.147 . S
C449 C90 1.229 . S
C468 C160 1.292 . S
C485 C104 1.004 . S
C504 C118 0.988 . S
C521 C79 2.113 . S
C540 C7 1.992 . S
C557 C91 1.318 . S
C576 C21 1.377 . S
C593 C107 1.306 . S
C612 C35 1.167 . S
C629 C49 1.430 . S
C648 C64 1.564 . S
C665 C8 1.220 . S
C684 C23 1.202 . S
C701 C37 1.305 . S
C720 C22 1.316 . S
C737 C36 1.362 . S
C756 C51 1.356 . S
C773 C9 1.654 . S
C792 C50 1.647 . S
C809 C106 1.589 . S
C828 C65 1.467 . S
C845 C63 1.333 . S
C864 C77 1.303 . S
C881 C78 1.594 . S
C900 C92 1.591 . S
C917 C105 1.654 . S
C936 C93 1.788 . S
C953 C191 2.117 . S
C972 C119 1.945 . S
C989 C133 1.348 . S
C1008 C203 1.325 . S
C1025 C219 1.306 . S
C1044 C147 1.139 . S
C1061 C176 1.564 . S
C1080 C161 1.461 . S
C1097 C120 1.216 . S
C1116 C135 1.147 . S
C1133 C134 1.321 . S
C1152 C149 1.277 . S
C1169 C163 1.352 . S
C1188 C148 1.342 . S
C1205 C121 1.652 . S
C1224 C162 1.649 . S
C1241 C218 1.589 . S
C1260 C177 1.467 . S
C1277 C175 1.343 . S
C1296 C189 1.243 . S
C1313 C190 1.595 . S
C1332 C204 1.595 . S
C1349 C217 1.655 . S
C1368 C205 1.780 . S
