# Generated by pormake.
# Topology rac, (4)-cn, num edge types: 1
# Building blocks:
#     Node 0, Type 0, BuildingBlock: QUQFOY_clean_sbu_1, # of connection points: 4
#     Node 1, Type 0, BuildingBlock: QUQFOY_clean_sbu_1, # of connection points: 4
#     Node 2, Type 0, BuildingBlock: QUQFOY_clean_sbu_1, # of connection points: 4
#     Node 3, Type 0, BuildingBlock: QUQFOY_clean_sbu_1, # of connection points: 4
#     Node 4, Type 0, BuildingBlock: QUQFOY_clean_sbu_1, # of connection points: 4
#     Node 5, Type 0, BuildingBlock: QUQFOY_clean_sbu_1, # of connection points: 4
#     Node 6, Type 0, BuildingBlock: QUQFOY_clean_sbu_1, # of connection points: 4
#     Node 7, Type 0, BuildingBlock: QUQFOY_clean_sbu_1, # of connection points: 4
#     Edge 8, Type (0, 0), BuildingBlock: MIFKUJ_clean_linker_0, # of connection points: 2
#     Edge 9, Type (0, 0), BuildingBlock: MIFKUJ_clean_linker_0, # of connection points: 2
#     Edge 10, Type (0, 0), BuildingBlock: MIFKUJ_clean_linker_0, # of connection points: 2
#     Edge 11, Type (0, 0), BuildingBlock: MIFKUJ_clean_linker_0, # of connection points: 2
#     Edge 12, Type (0, 0), BuildingBlock: MIFKUJ_clean_linker_0, # of connection points: 2
#     Edge 13, Type (0, 0), BuildingBlock: MIFKUJ_clean_linker_0, # of connection points: 2
#     Edge 14, Type (0, 0), BuildingBlock: MIFKUJ_clean_linker_0, # of connection points: 2
#     Edge 15, Type (0, 0), BuildingBlock: MIFKUJ_clean_linker_0, # of connection points: 2
#     Edge 16, Type (0, 0), BuildingBlock: MIFKUJ_clean_linker_0, # of connection points: 2
#     Edge 17, Type (0, 0), BuildingBlock: MIFKUJ_clean_linker_0, # of connection points: 2
#     Edge 18, Type (0, 0), BuildingBlock: MIFKUJ_clean_linker_0, # of connection points: 2
#     Edge 19, Type (0, 0), BuildingBlock: MIFKUJ_clean_linker_0, # of connection points: 2
#     Edge 20, Type (0, 0), BuildingBlock: MIFKUJ_clean_linker_0, # of connection points: 2
#     Edge 21, Type (0, 0), BuildingBlock: MIFKUJ_clean_linker_0, # of connection points: 2
#     Edge 22, Type (0, 0), BuildingBlock: MIFKUJ_clean_linker_0, # of connection points: 2
#     Edge 23, Type (0, 0), BuildingBlock: MIFKUJ_clean_linker_0, # of connection points: 2
# Relax obj value: 0.261
# Max RMSD: 0.148
# Mean RMSD: 0.148
data_MOF--net-rac--node1-QUQFOY_clean_sbu_1--edge1-MIFKUJ_clean_linker_0
_symmetry_space_group_name_H-M    P1
_symmetry_Int_Tables_number       1
_symmetry_cell_setting            triclinic
loop_
_symmetry_equiv_pos_as_xyz
'x, y, z'
_cell_length_a     53.94951
_cell_length_b     26.094409
_cell_length_c     59.505662
_cell_angle_alpha  89.968755
_cell_angle_beta   89.685273
_cell_angle_gamma 89.874387
loop_
_atom_site_label
_atom_site_type_symbol
_atom_site_fract_x
_atom_site_fract_y
_atom_site_fract_z
_atom_type_partial_charge
O0 O 0.36231 0.31318 0.06066 0.0
Cd1 Cd 0.38937 0.261 0.0534 0.0
Cd2 Cd 0.38286 0.23699 0.1002 0.0
O3 O 0.36252 0.3033 0.09747 0.0
O4 O 0.4062 0.28974 0.02603 0.0
O5 O 0.42422 0.28532 0.05927 0.0
C6 C 0.4247 0.30148 0.03871 0.0
C7 C 0.39582 0.22562 0.1378 0.0
C8 C 0.35485 0.32635 0.08006 0.0
C9 C 0.36568 0.16031 0.06388 0.0
O10 O 0.36768 0.17383 0.08436 0.0
O11 O 0.37522 0.18755 0.04826 0.0
O12 O 0.37321 0.21992 0.13175 0.0
O13 O 0.41183 0.23573 0.12226 0.0
O14 O 0.14912 0.69531 0.0604 0.0
Cd15 Cd 0.12363 0.75 0.05248 0.0
Cd16 Cd 0.12885 0.77168 0.09959 0.0
O17 O 0.14589 0.70136 0.09726 0.0
O18 O 0.1079 0.72206 0.02464 0.0
O19 O 0.08818 0.72794 0.05723 0.0
C20 C 0.08867 0.71121 0.03676 0.0
C21 C 0.11493 0.78649 0.13676 0.0
C22 C 0.15423 0.67889 0.07989 0.0
C23 C 0.14976 0.84672 0.06368 0.0
O24 O 0.14715 0.83189 0.08396 0.0
O25 O 0.13938 0.8222 0.04775 0.0
O26 O 0.13796 0.7874 0.1313 0.0
O27 O 0.09918 0.77894 0.12088 0.0
O28 O 0.36693 0.19465 0.45925 0.0
Cd29 Cd 0.39164 0.2532 0.46152 0.0
Cd30 Cd 0.38513 0.25451 0.41492 0.0
O31 O 0.37604 0.18039 0.42373 0.0
O32 O 0.41255 0.23503 0.48797 0.0
O33 O 0.42609 0.23164 0.45274 0.0
C34 C 0.42945 0.22079 0.47376 0.0
C35 C 0.39484 0.26048 0.3762 0.0
C36 C 0.36618 0.16602 0.44209 0.0
C37 C 0.36125 0.3382 0.44535 0.0
O38 O 0.36269 0.31357 0.4269 0.0
O39 O 0.37478 0.32508 0.46192 0.0
O40 O 0.37274 0.25232 0.3834 0.0
O41 O 0.41192 0.26646 0.39104 0.0
O42 O 0.15207 0.81656 0.45027 0.0
Cd43 Cd 0.12421 0.76503 0.45491 0.0
Cd44 Cd 0.13309 0.74428 0.40917 0.0
O45 O 0.15561 0.80686 0.4136 0.0
O46 O 0.10558 0.79195 0.48167 0.0
O47 O 0.09004 0.79117 0.44734 0.0
C48 C 0.08814 0.80554 0.4681 0.0
C49 C 0.11812 0.74004 0.37199 0.0
C50 C 0.16191 0.82896 0.43167 0.0
C51 C 0.14747 0.66336 0.44412 0.0
O52 O 0.14638 0.67764 0.42368 0.0
O53 O 0.13779 0.69076 0.45964 0.0
O54 O 0.1409 0.73127 0.37685 0.0
O55 O 0.10311 0.74915 0.38846 0.0
O56 O 0.65015 0.69309 0.95982 0.0
Cd57 Cd 0.62369 0.74884 0.95898 0.0
Cd58 Cd 0.6331 0.74059 0.91443 0.0
O59 O 0.64187 0.66803 0.92546 0.0
O60 O 0.60121 0.73302 0.98483 0.0
O61 O 0.59044 0.72287 0.94919 0.0
C62 C 0.58568 0.7152 0.9703 0.0
C63 C 0.62311 0.744 0.87581 0.0
C64 C 0.6522 0.6602 0.94427 0.0
C65 C 0.65577 0.82842 0.94218 0.0
O66 O 0.65648 0.79862 0.92525 0.0
O67 O 0.63945 0.82167 0.95749 0.0
O68 O 0.64507 0.73396 0.88277 0.0
O69 O 0.60632 0.75276 0.89084 0.0
O70 O 0.87054 0.32527 0.94398 0.0
Cd71 Cd 0.89353 0.26536 0.95036 0.0
Cd72 Cd 0.883 0.2432 0.90379 0.0
O73 O 0.86455 0.31189 0.90782 0.0
O74 O 0.91049 0.28889 0.9784 0.0
O75 O 0.92977 0.28169 0.94569 0.0
C76 C 0.92998 0.29746 0.96631 0.0
C77 C 0.89724 0.23283 0.86652 0.0
C78 C 0.86114 0.33853 0.92542 0.0
C79 C 0.86449 0.16896 0.94009 0.0
O80 O 0.86694 0.18043 0.9194 0.0
O81 O 0.87449 0.19631 0.95535 0.0
O82 O 0.87418 0.22984 0.87183 0.0
O83 O 0.91281 0.23965 0.88261 0.0
O84 O 0.64956 0.80745 0.5553 0.0
Cd85 Cd 0.62162 0.75598 0.55117 0.0
Cd86 Cd 0.63106 0.7376 0.59785 0.0
O87 O 0.65163 0.80267 0.59226 0.0
O88 O 0.60299 0.78288 0.52458 0.0
O89 O 0.58763 0.78295 0.55914 0.0
C90 C 0.58574 0.7972 0.53837 0.0
C91 C 0.62022 0.72964 0.63629 0.0
C92 C 0.65835 0.82287 0.57381 0.0
C93 C 0.64523 0.6559 0.56238 0.0
O94 O 0.64475 0.6722 0.58254 0.0
O95 O 0.63479 0.68141 0.54674 0.0
O96 O 0.64249 0.72349 0.6291 0.0
O97 O 0.60339 0.73891 0.62153 0.0
O98 O 0.86223 0.20771 0.55223 0.0
Cd99 Cd 0.88988 0.26002 0.54816 0.0
Cd100 Cd 0.88267 0.27342 0.59431 0.0
O101 O 0.86311 0.2069 0.58926 0.0
O102 O 0.90922 0.23495 0.52151 0.0
O103 O 0.92387 0.23396 0.5562 0.0
C104 C 0.92631 0.22068 0.53533 0.0
C105 C 0.89742 0.27991 0.6315 0.0
C106 C 0.85511 0.18905 0.57084 0.0
C107 C 0.86537 0.35719 0.56124 0.0
O108 O 0.86648 0.33868 0.58101 0.0
O109 O 0.87621 0.33442 0.54494 0.0
O110 O 0.87438 0.28472 0.62665 0.0
O111 O 0.9127 0.27255 0.61507 0.0
H112 H 0.34473 0.13533 0.02307 0.0
H113 H 0.30907 0.079 0.01692 0.0
H114 H 0.30981 0.03622 0.08694 0.0
H115 H 0.34565 0.09069 0.09299 0.0
H116 H 0.29719 0.95715 0.06422 0.0
H117 H 0.2712 0.13418 0.06454 0.0
H118 H 0.2707 0.2239 0.05146 0.0
H119 H 0.24784 0.1746 0.98594 0.0
H120 H 0.24852 0.08447 0.99858 0.0
H121 H 0.17443 0.90567 0.09409 0.0
H122 H 0.21159 0.95653 0.08776 0.0
H123 H 0.20618 0.93054 0.01649 0.0
H124 H 0.16891 0.8781 0.02266 0.0
H125 H 0.22152 0.03905 0.03342 0.0
H126 H 0.24331 0.85958 0.03709 0.0
H127 H 0.24154 0.77306 0.0537 0.0
H128 H 0.27076 0.83132 0.11559 0.0
H129 H 0.2723 0.9184 0.09946 0.0
C130 C 0.33775 0.11278 0.03701 0.0
C131 C 0.34808 0.11798 0.05858 0.0
C132 C 0.31709 0.08103 0.03353 0.0
C133 C 0.30619 0.05415 0.05158 0.0
C134 C 0.31761 0.05662 0.07271 0.0
C135 C 0.33824 0.08797 0.07616 0.0
C136 C 0.28228 0.02559 0.04912 0.0
C137 C 0.28073 0.97527 0.05745 0.0
C138 C 0.26062 0.04852 0.04003 0.0
C139 C 0.26023 0.1026 0.03241 0.0
C140 C 0.26626 0.14246 0.04729 0.0
C141 C 0.26591 0.19338 0.03997 0.0
C142 C 0.25932 0.20492 0.01786 0.0
C143 C 0.253 0.16558 1.00305 0.0
C144 C 0.25336 0.11459 0.01028 0.0
C145 C 0.1807 0.9114 0.07695 0.0
C146 C 0.16863 0.88718 0.0589 0.0
C147 C 0.20207 0.94054 0.0734 0.0
C148 C 0.21186 0.94683 0.05171 0.0
C149 C 0.19896 0.92608 0.03339 0.0
C150 C 0.17758 0.89624 0.03696 0.0
C151 C 0.23661 0.97135 0.04881 0.0
C152 C 0.23821 0.02079 0.03965 0.0
C153 C 0.25826 0.94805 0.05748 0.0
C154 C 0.25773 0.89558 0.06711 0.0
C155 C 0.24917 0.85402 0.05429 0.0
C156 C 0.24824 0.80487 0.06362 0.0
C157 C 0.25599 0.79671 0.0857 0.0
C158 C 0.26475 0.83769 0.09849 0.0
C159 C 0.26568 0.88695 0.08925 0.0
H160 H 0.25525 0.75863 0.09289 0.0
H161 H 0.25905 0.24436 0.01223 0.0
H162 H 0.16302 0.58606 0.41649 0.0
H163 H 0.19806 0.52843 0.42219 0.0
H164 H 0.207 0.58657 0.48946 0.0
H165 H 0.17181 0.64482 0.48379 0.0
H166 H 0.25065 0.58782 0.46683 0.0
H167 H 0.18855 0.46347 0.48116 0.0
H168 H 0.15017 0.41454 0.47492 0.0
H169 H 0.17942 0.35747 0.4125 0.0
H170 H 0.21786 0.40666 0.41819 0.0
H171 H 0.34806 0.39523 0.4829 0.0
H172 H 0.31104 0.44958 0.48755 0.0
H173 H 0.29131 0.42188 0.41854 0.0
H174 H 0.32803 0.3688 0.41363 0.0
H175 H 0.25245 0.40253 0.44843 0.0
H176 H 0.31259 0.53474 0.43283 0.0
H177 H 0.35075 0.58434 0.4392 0.0
H178 H 0.3248 0.62596 0.50507 0.0
H179 H 0.28661 0.57591 0.49921 0.0
C180 C 0.17195 0.58568 0.43274 0.0
C181 C 0.16443 0.62004 0.4497 0.0
C182 C 0.1921 0.55263 0.43599 0.0
C183 C 0.20532 0.55297 0.45628 0.0
C184 C 0.19718 0.58555 0.47365 0.0
C185 C 0.17682 0.61843 0.47047 0.0
C186 C 0.22853 0.52191 0.4585 0.0
C187 C 0.25093 0.54704 0.46331 0.0
C188 C 0.22913 0.46881 0.45358 0.0
C189 C 0.20604 0.4391 0.45004 0.0
C190 C 0.18674 0.44082 0.46601 0.0
C191 C 0.16498 0.41297 0.46259 0.0
C192 C 0.16234 0.38299 0.44331 0.0
C193 C 0.18148 0.38073 0.42743 0.0
C194 C 0.20328 0.40854 0.43076 0.0
C195 C 0.33609 0.40152 0.46861 0.0
C196 C 0.34115 0.37734 0.44791 0.0
C197 C 0.31486 0.43246 0.47131 0.0
C198 C 0.29821 0.43948 0.45343 0.0
C199 C 0.3037 0.41676 0.43264 0.0
C200 C 0.3249 0.38651 0.42986 0.0
C201 C 0.27454 0.46868 0.45625 0.0
C202 C 0.25207 0.44313 0.45234 0.0
C203 C 0.2739 0.52125 0.4621 0.0
C204 C 0.29692 0.55097 0.46571 0.0
C205 C 0.31515 0.55397 0.44878 0.0
C206 C 0.33676 0.58228 0.45227 0.0
C207 C 0.34025 0.60812 0.47257 0.0
C208 C 0.32211 0.6058 0.48939 0.0
C209 C 0.30048 0.57747 0.48599 0.0
H210 H 0.35698 0.63007 0.47523 0.0
H211 H 0.14548 0.36145 0.44069 0.0
H212 H 0.70181 0.82222 0.92381 0.0
H213 H 0.73691 0.87952 0.9288 0.0
H214 H 0.69256 0.97652 0.97172 0.0
H215 H 0.65708 0.91786 0.96733 0.0
H216 H 0.72086 0.02677 0.93433 0.0
H217 H 0.73196 0.91152 0.99587 0.0
H218 H 0.73639 0.82809 0.01483 0.0
H219 H 0.80192 0.79621 0.97598 0.0
H220 H 0.7973 0.87837 0.9561 0.0
H221 H 0.82656 0.17706 0.9702 0.0
H222 H 0.79041 0.12037 0.97368 0.0
H223 H 0.82367 0.01548 0.92637 0.0
H224 H 0.85923 0.07344 0.92192 0.0
H225 H 0.79979 0.97174 0.96935 0.0
H226 H 0.78769 0.07796 0.90535 0.0
H227 H 0.78228 0.15486 0.88197 0.0
H228 H 0.71807 0.19744 0.92066 0.0
H229 H 0.72406 0.1226 0.94523 0.0
C230 C 0.69932 0.85582 0.93427 0.0
C231 C 0.67644 0.86566 0.94501 0.0
C232 C 0.71957 0.88836 0.93723 0.0
C233 C 0.71747 0.93215 0.95072 0.0
C234 C 0.69461 0.94276 0.96129 0.0
C235 C 0.67435 0.90933 0.95875 0.0
C236 C 0.73909 0.96726 0.95292 0.0
C237 C 0.73794 0.01538 0.9425 0.0
C238 C 0.76171 0.95126 0.96273 0.0
C239 C 0.7641 0.90103 0.97428 0.0
C240 C 0.74706 0.88635 0.99105 0.0
C241 C 0.74961 0.83922 1.00199 0.0
C242 C 0.76934 0.8067 0.99653 0.0
C243 C 0.78654 0.82122 0.98011 0.0
C244 C 0.78391 0.86802 0.96894 0.0
C245 C 0.82644 0.14126 0.96099 0.0
C246 C 0.84591 0.12925 0.94604 0.0
C247 C 0.80565 0.10921 0.9628 0.0
C248 C 0.80424 0.06389 0.95016 0.0
C249 C 0.82434 0.05031 0.93625 0.0
C250 C 0.84472 0.08321 0.93383 0.0
C251 C 0.78151 0.03148 0.95085 0.0
C252 C 0.78255 0.98369 0.96162 0.0
C253 C 0.75889 0.04739 0.94099 0.0
C254 C 0.75677 0.0952 0.92759 0.0
C255 C 0.77298 0.10465 0.90946 0.0
C256 C 0.76973 0.14784 0.89588 0.0
C257 C 0.74996 0.18128 0.89991 0.0
C258 C 0.73353 0.17181 0.91765 0.0
C259 C 0.737 0.12929 0.93156 0.0
H260 H 0.7473 0.21433 0.88919 0.0
H261 H 0.77135 0.77033 0.00509 0.0
H262 H 0.6654 0.58716 0.59164 0.0
H263 H 0.70273 0.53605 0.58572 0.0
H264 H 0.70319 0.57718 0.51561 0.0
H265 H 0.66575 0.62938 0.5214 0.0
H266 H 0.72035 0.46731 0.52888 0.0
H267 H 0.73465 0.64806 0.54326 0.0
H268 H 0.72593 0.72672 0.56487 0.0
H269 H 0.75263 0.65439 0.6249 0.0
H270 H 0.7608 0.5747 0.60377 0.0
H271 H 0.8466 0.39161 0.52083 0.0
H272 H 0.80979 0.44556 0.51561 0.0
H273 H 0.80504 0.46895 0.58726 0.0
H274 H 0.84203 0.41706 0.59248 0.0
H275 H 0.79026 0.55139 0.5682 0.0
H276 H 0.77274 0.37271 0.55833 0.0
H277 H 0.77775 0.28749 0.54104 0.0
H278 H 0.75466 0.3481 0.47738 0.0
H279 H 0.75023 0.43416 0.49417 0.0
C280 C 0.6729 0.58424 0.57476 0.0
C281 C 0.66264 0.61305 0.55706 0.0
C282 C 0.69432 0.55494 0.57143 0.0
C283 C 0.70598 0.55343 0.55032 0.0
C284 C 0.69451 0.57788 0.53206 0.0
C285 C 0.67302 0.60758 0.5354 0.0
C286 C 0.73162 0.53248 0.54836 0.0
C287 C 0.73579 0.48612 0.53703 0.0
C288 C 0.75162 0.5564 0.55953 0.0
C289 C 0.74813 0.60525 0.57196 0.0
C290 C 0.73853 0.64882 0.56109 0.0
C291 C 0.73362 0.69353 0.57327 0.0
C292 C 0.7386 0.69544 0.59626 0.0
C293 C 0.7487 0.65278 0.60709 0.0
C294 C 0.75346 0.6078 0.59503 0.0
C295 C 0.83818 0.40956 0.5354 0.0
C296 C 0.84725 0.39942 0.55711 0.0
C297 C 0.81689 0.43995 0.53243 0.0
C298 C 0.80408 0.46034 0.55109 0.0
C299 C 0.81431 0.45353 0.57254 0.0
C300 C 0.83559 0.42364 0.57551 0.0
C301 C 0.77923 0.48556 0.54882 0.0
C302 C 0.77509 0.53285 0.55954 0.0
C303 C 0.75917 0.46182 0.53749 0.0
C304 C 0.76149 0.41002 0.52743 0.0
C305 C 0.76894 0.36798 0.5406 0.0
C306 C 0.7717 0.31954 0.53089 0.0
C307 C 0.76656 0.31238 0.50812 0.0
C308 C 0.75869 0.35372 0.49501 0.0
C309 C 0.75612 0.40238 0.50459 0.0
H310 H 0.7686 0.27478 0.50066 0.0
H311 H 0.73472 0.73005 0.60567 0.0
H312 H 0.36557 0.19967 0.17256 0.0
H313 H 0.37318 0.20979 0.21256 0.0
H314 H 0.44773 0.26005 0.1985 0.0
H315 H 0.4402 0.25023 0.15793 0.0
H316 H 0.44084 0.18927 0.23799 0.0
H317 H 0.41158 0.34943 0.20851 0.0
H318 H 0.38409 0.40432 0.18585 0.0
H319 H 0.32132 0.35505 0.22485 0.0
H320 H 0.34838 0.2992 0.24751 0.0
H321 H 0.43962 0.27328 0.35423 0.0
H322 H 0.44706 0.27215 0.3134 0.0
H323 H 0.36902 0.24751 0.30234 0.0
H324 H 0.36148 0.24939 0.34259 0.0
H325 H 0.38586 0.31779 0.2744 0.0
H326 H 0.41235 0.1494 0.2994 0.0
H327 H 0.43786 0.08925 0.32143 0.0
H328 H 0.50392 0.14995 0.29098 0.0
H329 H 0.47877 0.21092 0.26897 0.0
C330 C 0.38375 0.21222 0.17785 0.0
C331 C 0.40221 0.22464 0.162 0.0
C332 C 0.38804 0.21799 0.20078 0.0
C333 C 0.41088 0.23629 0.20845 0.0
C334 C 0.42994 0.24597 0.19285 0.0
C335 C 0.42561 0.24036 0.16973 0.0
C336 C 0.41368 0.24849 0.23264 0.0
C337 C 0.4293 0.21819 0.24596 0.0
C338 C 0.39833 0.28572 0.243 0.0
C339 C 0.38202 0.31991 0.22963 0.0
C340 C 0.3919 0.35005 0.21216 0.0
C341 C 0.37639 0.38136 0.19933 0.0
C342 C 0.35097 0.38312 0.20389 0.0
C343 C 0.34101 0.35365 0.22133 0.0
C344 C 0.35644 0.32222 0.2342 0.0
C345 C 0.42409 0.26789 0.34303 0.0
C346 C 0.39997 0.26147 0.35168 0.0
C347 C 0.42837 0.26701 0.31973 0.0
C348 C 0.40861 0.25949 0.30477 0.0
C349 C 0.38457 0.25361 0.31348 0.0
C350 C 0.3803 0.25456 0.33659 0.0
C351 C 0.41241 0.25738 0.28 0.0
C352 C 0.39794 0.28971 0.26649 0.0
C353 C 0.42864 0.22172 0.26957 0.0
C354 C 0.44373 0.18515 0.28278 0.0
C355 C 0.43233 0.15021 0.29756 0.0
C356 C 0.44671 0.11592 0.31 0.0
C357 C 0.4725 0.11591 0.30767 0.0
C358 C 0.48395 0.15009 0.29282 0.0
C359 C 0.46964 0.18451 0.28035 0.0
H360 H 0.48361 0.08931 0.31731 0.0
H361 H 0.33899 0.40737 0.19392 0.0
H362 H 0.14802 0.73801 0.33519 0.0
H363 H 0.13664 0.75065 0.29605 0.0
H364 H 0.0596 0.76142 0.31499 0.0
H365 H 0.07092 0.74981 0.35476 0.0
H366 H 0.08009 0.69106 0.27218 0.0
H367 H 0.07205 0.8614 0.30381 0.0
H368 H 0.08573 0.93284 0.32782 0.0
H369 H 0.15414 0.94187 0.29082 0.0
H370 H 0.14102 0.86989 0.26682 0.0
H371 H 0.06947 0.76643 0.15623 0.0
H372 H 0.05972 0.76405 0.19664 0.0
H373 H 0.13434 0.81197 0.21151 0.0
H374 H 0.14397 0.81516 0.17161 0.0
H375 H 0.10307 0.85871 0.23873 0.0
H376 H 0.11669 0.68476 0.21262 0.0
H377 H 0.10806 0.60866 0.18939 0.0
H378 H 0.034 0.60209 0.21604 0.0
H379 H 0.04212 0.67862 0.23923 0.0
C380 C 0.12859 0.74255 0.33115 0.0
C381 C 0.11037 0.74303 0.34816 0.0
C382 C 0.12215 0.74981 0.30873 0.0
C383 C 0.09734 0.75711 0.3027 0.0
C384 C 0.07887 0.7558 0.3194 0.0
C385 C 0.08536 0.74925 0.34206 0.0
C386 C 0.09154 0.76842 0.27892 0.0
C387 C 0.08429 0.72814 0.26485 0.0
C388 C 0.09775 0.81636 0.26942 0.0
C389 C 0.10561 0.86002 0.28364 0.0
C390 C 0.09009 0.87833 0.30093 0.0
C391 C 0.09773 0.91898 0.31451 0.0
C392 C 0.12081 0.94182 0.31087 0.0
C393 C 0.13627 0.92413 0.29362 0.0
C394 C 0.12873 0.88346 0.28001 0.0
C395 C 0.08361 0.77728 0.16815 0.0
C396 C 0.10753 0.7907 0.16072 0.0
C397 C 0.07807 0.77562 0.19123 0.0
C398 C 0.09638 0.78732 0.20716 0.0
C399 C 0.11987 0.80285 0.19962 0.0
C400 C 0.12539 0.80444 0.17672 0.0
C401 C 0.09203 0.78104 0.23173 0.0
C402 C 0.09776 0.82217 0.24599 0.0
C403 C 0.08479 0.7336 0.24133 0.0
C404 C 0.07988 0.68778 0.22738 0.0
C405 C 0.0985 0.66734 0.21336 0.0
C406 C 0.09371 0.62409 0.20024 0.0
C407 C 0.07046 0.60067 0.20117 0.0
C408 C 0.05197 0.62037 0.21528 0.0
C409 C 0.05665 0.66367 0.22842 0.0
H410 H 0.0668 0.56717 0.19101 0.0
H411 H 0.1267 0.97329 0.32141 0.0
H412 H 0.65512 0.72126 0.84189 0.0
H413 H 0.64783 0.72409 0.80167 0.0
H414 H 0.57233 0.77207 0.81349 0.0
H415 H 0.57944 0.76861 0.85431 0.0
H416 H 0.57609 0.69899 0.77955 0.0
H417 H 0.61314 0.85958 0.79637 0.0
H418 H 0.64333 0.91844 0.81348 0.0
H419 H 0.7023 0.84714 0.77608 0.0
H420 H 0.67253 0.78733 0.75899 0.0
H421 H 0.57661 0.75302 0.65857 0.0
H422 H 0.57042 0.75971 0.69948 0.0
H423 H 0.64606 0.71187 0.70993 0.0
H424 H 0.65236 0.70526 0.66956 0.0
H425 H 0.63483 0.79946 0.73271 0.0
H426 H 0.5982 0.63175 0.72035 0.0
H427 H 0.5681 0.57219 0.70356 0.0
H428 H 0.508 0.65864 0.73232 0.0
H429 H 0.53778 0.71912 0.74905 0.0
C430 C 0.63691 0.73246 0.83607 0.0
C431 C 0.61791 0.74516 0.85136 0.0
C432 C 0.63279 0.73418 0.81299 0.0
C433 C 0.60967 0.74915 0.80452 0.0
C434 C 0.59037 0.76069 0.81967 0.0
C435 C 0.59447 0.75885 0.84295 0.0
C436 C 0.60626 0.75294 0.7798 0.0
C437 C 0.58855 0.72184 0.76929 0.0
C438 C 0.62259 0.78255 0.76638 0.0
C439 C 0.64058 0.81879 0.77647 0.0
C440 C 0.63257 0.85624 0.79189 0.0
C441 C 0.64961 0.8898 0.80157 0.0
C442 C 0.67472 0.88649 0.79589 0.0
C443 C 0.68284 0.84967 0.78046 0.0
C444 C 0.66588 0.81598 0.77074 0.0
C445 C 0.59178 0.74332 0.66965 0.0
C446 C 0.61501 0.72889 0.66079 0.0
C447 C 0.58822 0.74717 0.69299 0.0
C448 C 0.60784 0.73655 0.70776 0.0
C449 C 0.63072 0.72066 0.69888 0.0
C450 C 0.63426 0.71676 0.67573 0.0
C451 C 0.60541 0.74386 0.73244 0.0
C452 C 0.62202 0.77738 0.74295 0.0
C453 C 0.58803 0.71664 0.74574 0.0
C454 C 0.57019 0.68031 0.73569 0.0
C455 C 0.57856 0.63832 0.72291 0.0
C456 C 0.56156 0.60434 0.71345 0.0
C457 C 0.53614 0.61173 0.7168 0.0
C458 C 0.52768 0.65303 0.72969 0.0
C459 C 0.54461 0.68715 0.73917 0.0
H460 H 0.52301 0.58537 0.70947 0.0
H461 H 0.68789 0.9125 0.80341 0.0
H462 H 0.94214 0.24967 0.64944 0.0
H463 H 0.95265 0.24326 0.68952 0.0
H464 H 0.8807 0.30413 0.7071 0.0
H465 H 0.87026 0.31093 0.66751 0.0
H466 H 0.91537 0.34479 0.73324 0.0
H467 H 0.89216 0.17555 0.70717 0.0
H468 H 0.89614 0.09843 0.68347 0.0
H469 H 0.97015 0.07438 0.70756 0.0
H470 H 0.96669 0.15182 0.73121 0.0
H471 H 0.86708 0.22885 0.83019 0.0
H472 H 0.87841 0.23737 0.79071 0.0
H473 H 0.95567 0.2439 0.8084 0.0
H474 H 0.94445 0.2364 0.84847 0.0
H475 H 0.93054 0.17219 0.7655 0.0
H476 H 0.94925 0.34136 0.79608 0.0
H477 H 0.93999 0.41488 0.8208 0.0
H478 H 0.86976 0.43563 0.78838 0.0
H479 H 0.87847 0.36168 0.76371 0.0
C480 C 0.92876 0.26234 0.66189 0.0
C481 C 0.90533 0.28055 0.65531 0.0
C482 C 0.93473 0.25844 0.68476 0.0
C483 C 0.91738 0.27287 0.70134 0.0
C484 C 0.89442 0.29287 0.69467 0.0
C485 C 0.88843 0.29652 0.67197 0.0
C486 C 0.92216 0.26519 0.7257 0.0
C487 C 0.91906 0.30714 0.74022 0.0
C488 C 0.92719 0.21618 0.73492 0.0
C489 C 0.92931 0.16983 0.72068 0.0
C490 C 0.90936 0.15407 0.70725 0.0
C491 C 0.9115 0.11026 0.69386 0.0
C492 C 0.93342 0.08164 0.69394 0.0
C493 C 0.95322 0.09668 0.70746 0.0
C494 C 0.95118 0.14052 0.72086 0.0
C495 C 0.88655 0.23149 0.82581 0.0
C496 C 0.90487 0.23221 0.84254 0.0
C497 C 0.89296 0.23631 0.80319 0.0
C498 C 0.91781 0.24142 0.79672 0.0
C499 C 0.93637 0.23997 0.81316 0.0
C500 C 0.92992 0.23574 0.83598 0.0
C501 C 0.92356 0.25167 0.7728 0.0
C502 C 0.92812 0.21017 0.7584 0.0
C503 C 0.9196 0.30092 0.76362 0.0
C504 C 0.91443 0.34578 0.7782 0.0
C505 C 0.93175 0.36134 0.79437 0.0
C506 C 0.92662 0.40314 0.80834 0.0
C507 C 0.90427 0.42985 0.8062 0.0
C508 C 0.88705 0.41489 0.79003 0.0
C509 C 0.89209 0.37308 0.77604 0.0
H510 H 0.90033 0.46219 0.81703 0.0
H511 H 0.93504 0.0477 0.68357 0.0
H512 H 0.4321 0.33745 0.99591 0.0
H513 H 0.45966 0.40654 0.98379 0.0
H514 H 0.48739 0.42016 0.05138 0.0
H515 H 0.46039 0.35015 0.06343 0.0
H516 H 0.45971 0.5026 0.99477 0.0
H517 H 0.545 0.47068 0.05212 0.0
H518 H 0.56829 0.39923 0.06918 0.0
H519 H 0.5435 0.29821 0.01703 0.0
H520 H 0.52033 0.36917 0.9995 0.0
H521 H 0.5741 0.68409 0.01304 0.0
H522 H 0.5462 0.61487 0.02427 0.0
H523 H 0.52425 0.59495 0.95527 0.0
H524 H 0.55207 0.66438 0.9439 0.0
H525 H 0.54929 0.5155 0.01202 0.0
H526 H 0.46517 0.54561 0.95392 0.0
H527 H 0.44232 0.61634 0.93582 0.0
H528 H 0.46547 0.71931 0.98786 0.0
H529 H 0.48817 0.64908 0.00642 0.0
C530 C 0.44445 0.35438 0.00812 0.0
C531 C 0.44408 0.33788 0.03065 0.0
C532 C 0.4601 0.39428 1.00118 0.0
C533 C 0.47579 0.41883 0.01657 0.0
C534 C 0.47588 0.40152 0.03899 0.0
C535 C 0.46037 0.36132 0.04589 0.0
C536 C 0.49107 0.46399 0.00944 0.0
C537 C 0.47939 0.50492 0.99826 0.0
C538 C 0.51668 0.46803 0.01434 0.0
C539 C 0.53072 0.42516 0.02465 0.0
C540 C 0.54458 0.43326 0.04426 0.0
C541 C 0.55775 0.39284 0.05402 0.0
C542 C 0.5573 0.34418 0.04424 0.0
C543 C 0.54375 0.33587 0.02464 0.0
C544 C 0.53057 0.37616 0.01481 0.0
C545 C 0.56295 0.66583 1.00027 0.0
C546 C 0.56535 0.68011 0.97754 0.0
C547 C 0.54712 0.62585 0.00672 0.0
C548 C 0.53309 0.59939 0.99067 0.0
C549 C 0.53466 0.61494 0.96806 0.0
C550 C 0.55058 0.65485 0.96157 0.0
C551 C 0.51789 0.55396 0.99744 0.0
C552 C 0.52961 0.51302 0.00853 0.0
C553 C 0.49238 0.54974 0.99229 0.0
C554 C 0.47859 0.59217 0.98141 0.0
C555 C 0.46531 0.58331 0.96153 0.0
C556 C 0.4524 0.62332 0.95119 0.0
C557 C 0.45252 0.67232 0.96064 0.0
C558 C 0.46548 0.68138 0.9805 0.0
C559 C 0.47841 0.64151 0.99092 0.0
H560 H 0.44252 0.70325 0.9526 0.0
H561 H 0.5675 0.31293 0.05182 0.0
H562 H 0.04995 0.66793 0.06011 0.0
H563 H 0.02352 0.59698 0.04812 0.0
H564 H 0.05868 0.5983 0.98288 0.0
H565 H 0.08497 0.6695 0.99465 0.0
H566 H 0.00991 0.58116 0.97875 0.0
H567 H 0.07594 0.51073 0.02273 0.0
H568 H 0.10276 0.5018 0.05595 0.0
H569 H 0.03937 0.4645 0.09669 0.0
H570 H 0.01214 0.47368 0.06373 0.0
H571 H 0.96991 0.33632 0.9431 0.0
H572 H 0.99775 0.40492 0.9551 0.0
H573 H 0.96255 0.40666 0.02031 0.0
H574 H 0.93489 0.33775 0.00856 0.0
H575 H 0.01186 0.42173 0.02422 0.0
H576 H 0.94593 0.49237 0.97951 0.0
H577 H 0.9198 0.49996 0.94578 0.0
H578 H 0.98395 0.5364 0.90588 0.0
H579 H 0.01052 0.52828 0.93932 0.0
C580 C 0.05175 0.65385 0.04306 0.0
C581 C 0.06968 0.67452 0.02839 0.0
C582 C 0.03676 0.61284 0.03628 0.0
C583 C 0.03939 0.59141 0.01471 0.0
C584 C 0.05633 0.61382 0.99964 0.0
C585 C 0.07136 0.65472 0.00641 0.0
C586 C 0.02514 0.5447 0.00807 0.0
C587 C 0.0106 0.54615 0.98857 0.0
C588 C 0.02567 0.49898 0.02097 0.0
C589 C 0.04198 0.49339 0.04082 0.0
C590 C 0.0677 0.501 0.03881 0.0
C591 C 0.08298 0.49581 0.05758 0.0
C592 C 0.07276 0.48275 0.07843 0.0
C593 C 0.04725 0.47468 0.08054 0.0
C594 C 0.03189 0.4798 0.06181 0.0
C595 C 0.96844 0.35044 0.96017 0.0
C596 C 0.95003 0.33149 0.97481 0.0
C597 C 0.98425 0.3901 0.96695 0.0
C598 C 0.98196 0.41191 0.98849 0.0
C599 C 0.96465 0.39084 1.00358 0.0
C600 C 0.94882 0.35125 0.99681 0.0
C601 C 0.9966 0.45824 0.99493 0.0
C602 C 0.01119 0.45674 0.0144 0.0
C603 C 0.99621 0.50386 0.98195 0.0
C604 C 0.98024 0.50922 0.96187 0.0
C605 C 0.95448 0.50165 0.96351 0.0
C606 C 0.93959 0.5061 0.94445 0.0
C607 C 0.95022 0.51853 0.92369 0.0
C608 C 0.97575 0.5267 0.92196 0.0
C609 C 0.99073 0.52221 0.94097 0.0
H610 H 0.93866 0.52194 0.90895 0.0
H611 H 0.08462 0.47876 0.09294 0.0
H612 H 0.57633 0.83205 0.49578 0.0
H613 H 0.54998 0.90424 0.48491 0.0
H614 H 0.52565 0.92106 0.55364 0.0
H615 H 0.55207 0.849 0.56468 0.0
H616 H 0.50064 0.92742 0.48716 0.0
H617 H 0.52154 0.04967 0.56565 0.0
H618 H 0.55431 0.05939 0.5941 0.0
H619 H 0.60847 1.00254 0.54715 0.0
H620 H 0.57611 0.99322 0.51834 0.0
H621 H 0.44065 0.189 0.51644 0.0
H622 H 0.46763 0.1178 0.52721 0.0
H623 H 0.49058 0.09969 0.45815 0.0
H624 H 0.46343 0.17056 0.4472 0.0
H625 H 0.51631 0.09391 0.52473 0.0
H626 H 0.49494 0.97133 0.44627 0.0
H627 H 0.46195 0.96209 0.41799 0.0
H628 H 0.40826 0.01961 0.46522 0.0
H629 H 0.44083 0.02837 0.49388 0.0
C630 C 0.56504 0.85045 0.50855 0.0
C631 C 0.56644 0.83467 0.53115 0.0
C632 C 0.54997 0.89186 0.50229 0.0
C633 C 0.53612 0.91884 0.51848 0.0
C634 C 0.53646 0.90148 0.54086 0.0
C635 C 0.55145 0.8599 0.54713 0.0
C636 C 0.52229 0.96641 0.51213 0.0
C637 C 0.50429 0.96391 0.4952 0.0
C638 C 0.52665 0.01407 0.52285 0.0
C639 C 0.54633 0.02021 0.53994 0.0
C640 C 0.54046 0.03942 0.56138 0.0
C641 C 0.55896 0.04485 0.57757 0.0
C642 C 0.58344 0.03141 0.57246 0.0
C643 C 0.58949 0.01274 0.55112 0.0
C644 C 0.57107 0.00732 0.53486 0.0
C645 C 0.45182 0.17065 0.50357 0.0
C646 C 0.44971 0.18552 0.48091 0.0
C647 C 0.46724 0.12975 0.50978 0.0
C648 C 0.4808 0.1025 0.49346 0.0
C649 C 0.47996 0.11938 0.47102 0.0
C650 C 0.46457 0.16035 0.46481 0.0
C651 C 0.49466 0.05494 0.49975 0.0
C652 C 0.51266 0.05743 0.51668 0.0
C653 C 0.49025 0.00724 0.48907 0.0
C654 C 0.4704 1.00104 0.47212 0.0
C655 C 0.47608 0.98177 0.45064 0.0
C656 C 0.45745 0.97664 0.43455 0.0
C657 C 0.43305 0.99042 0.43979 0.0
C658 C 0.42719 0.00911 0.46117 0.0
C659 C 0.44573 0.0142 0.47733 0.0
H660 H 0.41867 0.98653 0.42729 0.0
H661 H 0.59773 0.03559 0.58502 0.0
H662 H 0.96003 0.16939 0.56146 0.0
H663 H 0.98755 0.09939 0.55007 0.0
H664 H 0.96464 0.11838 0.48123 0.0
H665 H 0.93669 0.18765 0.4926 0.0
H666 H 0.96292 0.02087 0.49195 0.0
H667 H 0.02389 0.15311 0.50036 0.0
H668 H 0.04615 0.22221 0.51997 0.0
H669 H 0.06762 0.1168 0.5718 0.0
H670 H 0.04521 0.04718 0.55265 0.0
H671 H 0.05416 0.85666 0.44219 0.0
H672 H 0.02677 0.92677 0.45368 0.0
H673 H 0.05045 0.90851 0.52234 0.0
H674 H 0.07833 0.83923 0.51084 0.0
H675 H 0.05175 0.00562 0.51181 0.0
H676 H 0.99087 0.87343 0.50357 0.0
H677 H 0.9685 0.80418 0.48417 0.0
H678 H 0.94673 0.90921 0.43228 0.0
H679 H 0.96924 0.97897 0.45123 0.0
C680 C 0.96121 0.15943 0.54382 0.0
C681 C 0.94614 0.18443 0.52796 0.0
C682 C 0.977 0.11923 0.5373 0.0
C683 C 0.97835 0.1034 0.51471 0.0
C684 C 0.96393 0.12952 0.49876 0.0
C685 C 0.94806 0.16951 0.50528 0.0
C686 C 0.99377 0.05814 0.50788 0.0
C687 C 0.98245 0.01797 0.49602 0.0
C688 C 0.01912 0.05329 0.51367 0.0
C689 C 0.03267 0.09505 0.52517 0.0
C690 C 0.0332 0.14475 0.51603 0.0
C691 C 0.04588 0.18399 0.52704 0.0
C692 C 0.05824 0.17393 0.54715 0.0
C693 C 0.05801 0.12455 0.55624 0.0
C694 C 0.04535 0.08518 0.5453 0.0
C695 C 0.05319 0.86683 0.45981 0.0
C696 C 0.06845 0.84203 0.47558 0.0
C697 C 0.03747 0.90709 0.4664 0.0
C698 C 0.03634 0.92312 0.48896 0.0
C699 C 0.05097 0.89722 0.50483 0.0
C700 C 0.06681 0.85722 0.49824 0.0
C701 C 0.02091 0.96834 0.49586 0.0
C702 C 0.03222 0.0085 0.50774 0.0
C703 C 0.99555 0.97315 0.49011 0.0
C704 C 0.98194 0.93131 0.47871 0.0
C705 C 0.98146 0.88167 0.48793 0.0
C706 C 0.96873 0.84235 0.47703 0.0
C707 C 0.95625 0.85226 0.45698 0.0
C708 C 0.95643 0.90157 0.44781 0.0
C709 C 0.96915 0.94103 0.45863 0.0
H710 H 0.94641 0.82176 0.44856 0.0
H711 H 0.06804 0.20436 0.55565 0.0
H712 H 0.17724 0.62518 0.0465 0.0
H713 H 0.20902 0.55964 0.05057 0.0
H714 H 0.20197 0.56809 0.12276 0.0
H715 H 0.17033 0.6347 0.11888 0.0
H716 H 0.24933 0.57499 0.10954 0.0
H717 H 0.1819 0.46349 0.09502 0.0
H718 H 0.14474 0.4323 0.07542 0.0
H719 H 0.1876 0.40917 0.01525 0.0
H720 H 0.22494 0.44118 0.03434 0.0
H721 H 0.33364 0.36236 0.11879 0.0
H722 H 0.29791 0.41956 0.12208 0.0
H723 H 0.29613 0.43592 0.04996 0.0
H724 H 0.33167 0.37851 0.04641 0.0
H725 H 0.25085 0.41 0.06815 0.0
H726 H 0.31658 0.53212 0.08189 0.0
H727 H 0.35342 0.56511 0.10148 0.0
H728 H 0.31295 0.56712 0.16381 0.0
H729 H 0.27595 0.53352 0.14463 0.0
C730 C 0.18216 0.61271 0.06326 0.0
C731 C 0.17137 0.63531 0.08238 0.0
C732 C 0.20025 0.57503 0.06555 0.0
C733 C 0.20764 0.55883 0.08696 0.0
C734 C 0.19642 0.58016 0.1061 0.0
C735 C 0.17834 0.61807 0.10383 0.0
C736 C 0.22839 0.52242 0.08917 0.0
C737 C 0.24949 0.53835 0.10092 0.0
C738 C 0.2286 0.47512 0.0776 0.0
C739 C 0.20623 0.45507 0.06611 0.0
C740 C 0.18339 0.45208 0.07757 0.0
C741 C 0.16228 0.43423 0.06655 0.0
C742 C 0.1638 0.41882 0.0441 0.0
C743 C 0.18645 0.42113 0.03264 0.0
C744 C 0.2076 0.43908 0.04356 0.0
C745 C 0.32585 0.37861 0.10363 0.0
C746 C 0.33538 0.36569 0.08232 0.0
C747 C 0.30547 0.41127 0.10557 0.0
C748 C 0.29444 0.43162 0.08625 0.0
C749 C 0.30438 0.42017 0.06503 0.0
C750 C 0.32475 0.38762 0.06306 0.0
C751 C 0.27192 0.46333 0.08797 0.0
C752 C 0.2505 0.44631 0.07703 0.0
C753 C 0.27137 0.50948 0.10036 0.0
C754 C 0.2936 0.52975 0.11188 0.0
C755 C 0.31561 0.53917 0.09981 0.0
C756 C 0.3365 0.55808 0.11083 0.0
C757 C 0.33555 0.56805 0.13389 0.0
C758 C 0.31368 0.55929 0.14596 0.0
C759 C 0.29274 0.54036 0.13502 0.0
H760 H 0.35174 0.58269 0.14239 0.0
H761 H 0.14743 0.40504 0.03559 0.0
H762 H 0.36155 0.09477 0.40879 0.0
H763 H 0.33072 0.02662 0.40689 0.0
H764 H 0.30643 0.06243 0.47428 0.0
H765 H 0.33739 0.13019 0.47651 0.0
H766 H 0.30366 0.95819 0.46447 0.0
H767 H 0.2795 0.1216 0.43192 0.0
H768 H 0.28526 0.19495 0.40626 0.0
H769 H 0.28403 0.09336 0.34953 0.0
H770 H 0.27863 0.0193 0.37491 0.0
H771 H 0.17851 0.88774 0.46637 0.0
H772 H 0.21635 0.93871 0.46728 0.0
H773 H 0.2307 0.90207 0.3977 0.0
H774 H 0.19262 0.8518 0.39646 0.0
H775 H 0.24087 1.00023 0.40654 0.0
H776 H 0.26043 0.83729 0.43884 0.0
H777 H 0.25488 0.7639 0.46449 0.0
H778 H 0.26489 0.8628 0.52136 0.0
H779 H 0.27016 0.93695 0.49605 0.0
C780 C 0.35004 0.08741 0.42341 0.0
C781 C 0.35143 0.11864 0.4426 0.0
C782 C 0.3325 0.04843 0.42229 0.0
C783 C 0.31605 0.04051 0.44026 0.0
C784 C 0.31894 0.06832 0.46021 0.0
C785 C 0.33654 0.10718 0.46139 0.0
C786 C 0.29385 0.00859 0.43728 0.0
C787 C 0.28985 0.96732 0.45189 0.0
C788 C 0.27615 0.02033 0.42058 0.0
C789 C 0.27893 0.06491 0.4053 0.0
C790 C 0.28061 0.1149 0.41398 0.0
C791 C 0.2838 0.15659 0.39949 0.0
C792 C 0.28508 0.14881 0.37628 0.0
C793 C 0.28308 0.09932 0.36751 0.0
C794 C 0.27995 0.05748 0.38193 0.0
C795 C 0.18954 0.89102 0.45118 0.0
C796 C 0.18273 0.86534 0.4314 0.0
C797 C 0.21122 0.91983 0.45178 0.0
C798 C 0.22655 0.92294 0.43272 0.0
C799 C 0.21917 0.89963 0.41263 0.0
C800 C 0.1974 0.87104 0.41196 0.0
C801 C 0.25048 0.9499 0.43388 0.0
C802 C 0.25478 0.99045 0.41894 0.0
C803 C 0.26844 0.93735 0.45026 0.0
C804 C 0.2655 0.89275 0.46554 0.0
C805 C 0.26129 0.84346 0.45682 0.0
C806 C 0.25821 0.80171 0.4713 0.0
C807 C 0.25948 0.80871 0.49454 0.0
C808 C 0.2639 0.85745 0.50335 0.0
C809 C 0.26696 0.89934 0.48894 0.0
H810 H 0.25709 0.77634 0.50572 0.0
H811 H 0.28757 0.18112 0.36509 0.0
H812 H 0.6851 0.64454 0.97823 0.0
H813 H 0.72116 0.58795 0.97713 0.0
H814 H 0.69617 0.52437 0.91434 0.0
H815 H 0.66003 0.58089 0.91518 0.0
H816 H 0.71929 0.45239 0.94476 0.0
H817 H 0.73215 0.62211 0.91175 0.0
H818 H 0.73155 0.71656 0.91378 0.0
H819 H 0.78298 0.71198 0.96859 0.0
H820 H 0.78345 0.61779 0.96718 0.0
H821 H 0.82583 0.35902 0.89409 0.0
H822 H 0.7911 0.41851 0.89829 0.0
H823 H 0.82206 0.47496 0.96016 0.0
H824 H 0.85683 0.4153 0.95624 0.0
H825 H 0.79682 0.55153 0.93275 0.0
H826 H 0.78527 0.38851 0.96766 0.0
H827 H 0.78643 0.29416 0.96939 0.0
H828 H 0.73325 0.28615 0.91604 0.0
H829 H 0.73228 0.38026 0.91366 0.0
C830 C 0.68687 0.61754 0.96449 0.0
C831 C 0.67003 0.61783 0.94653 0.0
C832 C 0.7075 0.5854 0.96389 0.0
C833 C 0.71141 0.55307 0.94543 0.0
C834 C 0.69342 0.54953 0.92863 0.0
C835 C 0.67285 0.58189 0.92912 0.0
C836 C 0.73545 0.52753 0.94222 0.0
C837 C 0.7362 0.47397 0.94194 0.0
C838 C 0.75751 0.55606 0.93917 0.0
C839 C 0.75766 0.61289 0.93951 0.0
C840 C 0.7432 0.64132 0.92433 0.0
C841 C 0.74287 0.69486 0.92537 0.0
C842 C 0.75715 0.72041 0.94135 0.0
C843 C 0.77186 0.6924 0.95624 0.0
C844 C 0.77217 0.63891 0.95533 0.0
C845 C 0.82565 0.38511 0.90824 0.0
C846 C 0.84372 0.38191 0.92508 0.0
C847 C 0.80582 0.41898 0.91061 0.0
C848 C 0.80401 0.45027 0.9297 0.0
C849 C 0.82324 0.45084 0.94538 0.0
C850 C 0.84295 0.41657 0.94316 0.0
C851 C 0.78052 0.47646 0.93485 0.0
C852 C 0.7799 0.53002 0.93556 0.0
C853 C 0.75863 0.44804 0.93875 0.0
C854 C 0.75893 0.39136 0.94029 0.0
C855 C 0.77403 0.36654 0.95614 0.0
C856 C 0.77465 0.31308 0.95727 0.0
C857 C 0.76002 0.28404 0.9428 0.0
C858 C 0.74468 0.30846 0.92721 0.0
C859 C 0.74409 0.36191 0.92596 0.0
H860 H 0.76057 0.24268 0.94377 0.0
H861 H 0.75685 0.76185 0.94217 0.0
H862 H 0.67591 0.87701 0.53785 0.0
H863 H 0.70997 0.93846 0.53746 0.0
H864 H 0.71852 0.92014 0.60907 0.0
H865 H 0.68467 0.85823 0.60965 0.0
H866 H 0.71536 0.0295 0.55865 0.0
H867 H 0.779 0.92471 0.62154 0.0
H868 H 0.78973 0.83667 0.63325 0.0
H869 H 0.76887 0.77995 0.56834 0.0
H870 H 0.75783 0.86747 0.55634 0.0
H871 H 0.83735 0.13676 0.60726 0.0
H872 H 0.80352 0.0747 0.60798 0.0
H873 H 0.79613 0.08798 0.53605 0.0
H874 H 0.82982 0.15024 0.53511 0.0
H875 H 0.79863 0.98149 0.58689 0.0
H876 H 0.73356 0.08334 0.52401 0.0
H877 H 0.7231 0.17054 0.51107 0.0
H878 H 0.74786 0.23277 0.57381 0.0
H879 H 0.75815 0.14591 0.58726 0.0
C880 C 0.68496 0.88618 0.55354 0.0
C881 C 0.67768 0.86264 0.57377 0.0
C882 C 0.70438 0.92128 0.55327 0.0
C883 C 0.71688 0.93314 0.57317 0.0
C884 C 0.7093 0.91072 0.59348 0.0
C885 C 0.68986 0.87567 0.59379 0.0
C886 C 0.7378 0.96926 0.57271 0.0
C887 C 0.73367 0.0189 0.56454 0.0
C888 C 0.76146 0.95546 0.58085 0.0
C889 C 0.76738 0.90252 0.58814 0.0
C890 C 0.77663 0.89337 0.60982 0.0
C891 C 0.78271 0.84356 0.61652 0.0
C892 C 0.77987 0.80269 0.60159 0.0
C893 C 0.77085 0.81153 0.57996 0.0
C894 C 0.76456 0.86119 0.57324 0.0
C895 C 0.82863 0.12628 0.59157 0.0
C896 C 0.83615 0.14856 0.57114 0.0
C897 C 0.80935 0.09085 0.59203 0.0
C898 C 0.79721 0.07755 0.57212 0.0
C899 C 0.8051 0.09853 0.55162 0.0
C900 C 0.82443 0.13381 0.55112 0.0
C901 C 0.7762 0.04172 0.57279 0.0
C902 C 0.78032 0.99213 0.58103 0.0
C903 C 0.75257 0.05553 0.56455 0.0
C904 C 0.74684 0.1081 0.55655 0.0
C905 C 0.73676 0.11563 0.53505 0.0
C906 C 0.73084 0.16498 0.52764 0.0
C907 C 0.7348 0.20713 0.54161 0.0
C908 C 0.74483 0.20006 0.56299 0.0
C909 C 0.75077 0.15078 0.5705 0.0
H910 H 0.73 0.24523 0.5359 0.0
H911 H 0.78472 0.7642 0.60677 0.0
loop_
_geom_bond_atom_site_label_1
_geom_bond_atom_site_label_2
_geom_bond_distance
_geom_bond_site_symmetry_2
_ccdc_geom_bond_type
O0 Cd1 2.223 . S
O0 C8 1.315 . S
Cd1 O0 2.223 . S
Cd1 O4 2.297 . S
Cd1 O5 2.439 . S
Cd1 O11 2.240 . S
Cd2 O3 2.240 . S
Cd2 O10 2.223 . S
Cd2 O12 2.297 . S
Cd2 O13 2.439 . S
O3 Cd2 2.240 . S
O3 C8 1.279 . S
O4 Cd1 2.297 . S
O4 C6 1.247 . S
O5 Cd1 2.439 . S
O5 C6 1.208 . S
C6 O4 1.247 . S
C6 O5 1.208 . S
C7 O12 1.247 . S
C7 O13 1.208 . S
C8 O0 1.315 . S
C8 O3 1.279 . S
C9 O10 1.315 . S
C9 O11 1.279 . S
O10 Cd2 2.223 . S
O10 C9 1.315 . S
O11 Cd1 2.240 . S
O11 C9 1.279 . S
O12 Cd2 2.297 . S
O12 C7 1.247 . S
O13 Cd2 2.439 . S
O13 C7 1.208 . S
O14 Cd15 2.223 . S
O14 C22 1.315 . S
Cd15 O14 2.223 . S
Cd15 O18 2.297 . S
Cd15 O19 2.439 . S
Cd15 O25 2.240 . S
Cd16 O17 2.240 . S
Cd16 O24 2.223 . S
Cd16 O26 2.297 . S
Cd16 O27 2.439 . S
O17 Cd16 2.240 . S
O17 C22 1.279 . S
O18 Cd15 2.297 . S
O18 C20 1.247 . S
O19 Cd15 2.439 . S
O19 C20 1.208 . S
C20 O18 1.247 . S
C20 O19 1.208 . S
C21 O26 1.247 . S
C21 O27 1.208 . S
C22 O14 1.315 . S
C22 O17 1.279 . S
C23 O24 1.315 . S
C23 O25 1.279 . S
O24 Cd16 2.223 . S
O24 C23 1.315 . S
O25 Cd15 2.240 . S
O25 C23 1.279 . S
O26 Cd16 2.297 . S
O26 C21 1.247 . S
O27 Cd16 2.439 . S
O27 C21 1.208 . S
O28 Cd29 2.223 . S
O28 C36 1.315 . S
Cd29 O28 2.223 . S
Cd29 O32 2.297 . S
Cd29 O33 2.439 . S
Cd29 O39 2.240 . S
Cd30 O31 2.240 . S
Cd30 O38 2.223 . S
Cd30 O40 2.297 . S
Cd30 O41 2.439 . S
O31 Cd30 2.240 . S
O31 C36 1.279 . S
O32 Cd29 2.297 . S
O32 C34 1.247 . S
O33 Cd29 2.439 . S
O33 C34 1.208 . S
C34 O32 1.247 . S
C34 O33 1.208 . S
C35 O40 1.247 . S
C35 O41 1.208 . S
C36 O28 1.315 . S
C36 O31 1.279 . S
C37 O38 1.315 . S
C37 O39 1.279 . S
O38 Cd30 2.223 . S
O38 C37 1.315 . S
O39 Cd29 2.240 . S
O39 C37 1.279 . S
O40 Cd30 2.297 . S
O40 C35 1.247 . S
O41 Cd30 2.439 . S
O41 C35 1.208 . S
O42 Cd43 2.223 . S
O42 C50 1.315 . S
Cd43 O42 2.223 . S
Cd43 O46 2.297 . S
Cd43 O47 2.439 . S
Cd43 O53 2.240 . S
Cd44 O45 2.240 . S
Cd44 O52 2.223 . S
Cd44 O54 2.297 . S
Cd44 O55 2.439 . S
O45 Cd44 2.240 . S
O45 C50 1.279 . S
O46 Cd43 2.297 . S
O46 C48 1.247 . S
O47 Cd43 2.439 . S
O47 C48 1.208 . S
C48 O46 1.247 . S
C48 O47 1.208 . S
C49 O54 1.247 . S
C49 O55 1.208 . S
C50 O42 1.315 . S
C50 O45 1.279 . S
C51 O52 1.315 . S
C51 O53 1.279 . S
O52 Cd44 2.223 . S
O52 C51 1.315 . S
O53 Cd43 2.240 . S
O53 C51 1.279 . S
O54 Cd44 2.297 . S
O54 C49 1.247 . S
O55 Cd44 2.439 . S
O55 C49 1.208 . S
O56 Cd57 2.223 . S
O56 C64 1.315 . S
Cd57 O56 2.223 . S
Cd57 O60 2.297 . S
Cd57 O61 2.439 . S
Cd57 O67 2.240 . S
Cd58 O59 2.240 . S
Cd58 O66 2.223 . S
Cd58 O68 2.297 . S
Cd58 O69 2.439 . S
O59 Cd58 2.240 . S
O59 C64 1.279 . S
O60 Cd57 2.297 . S
O60 C62 1.247 . S
O61 Cd57 2.439 . S
O61 C62 1.208 . S
C62 O60 1.247 . S
C62 O61 1.208 . S
C63 O68 1.247 . S
C63 O69 1.208 . S
C64 O56 1.315 . S
C64 O59 1.279 . S
C65 O66 1.315 . S
C65 O67 1.279 . S
O66 Cd58 2.223 . S
O66 C65 1.315 . S
O67 Cd57 2.240 . S
O67 C65 1.279 . S
O68 Cd58 2.297 . S
O68 C63 1.247 . S
O69 Cd58 2.439 . S
O69 C63 1.208 . S
O70 Cd71 2.223 . S
O70 C78 1.315 . S
Cd71 O70 2.223 . S
Cd71 O74 2.297 . S
Cd71 O75 2.439 . S
Cd71 O81 2.240 . S
Cd72 O73 2.240 . S
Cd72 O80 2.223 . S
Cd72 O82 2.297 . S
Cd72 O83 2.439 . S
O73 Cd72 2.240 . S
O73 C78 1.279 . S
O74 Cd71 2.297 . S
O74 C76 1.247 . S
O75 Cd71 2.439 . S
O75 C76 1.208 . S
C76 O74 1.247 . S
C76 O75 1.208 . S
C77 O82 1.247 . S
C77 O83 1.208 . S
C78 O70 1.315 . S
C78 O73 1.279 . S
C79 O80 1.315 . S
C79 O81 1.279 . S
O80 Cd72 2.223 . S
O80 C79 1.315 . S
O81 Cd71 2.240 . S
O81 C79 1.279 . S
O82 Cd72 2.297 . S
O82 C77 1.247 . S
O83 Cd72 2.439 . S
O83 C77 1.208 . S
O84 Cd85 2.223 . S
O84 C92 1.315 . S
Cd85 O84 2.223 . S
Cd85 O88 2.297 . S
Cd85 O89 2.439 . S
Cd85 O95 2.240 . S
Cd86 O87 2.240 . S
Cd86 O94 2.223 . S
Cd86 O96 2.297 . S
Cd86 O97 2.439 . S
O87 Cd86 2.240 . S
O87 C92 1.279 . S
O88 Cd85 2.297 . S
O88 C90 1.247 . S
O89 Cd85 2.439 . S
O89 C90 1.208 . S
C90 O88 1.247 . S
C90 O89 1.208 . S
C91 O96 1.247 . S
C91 O97 1.208 . S
C92 O84 1.315 . S
C92 O87 1.279 . S
C93 O94 1.315 . S
C93 O95 1.279 . S
O94 Cd86 2.223 . S
O94 C93 1.315 . S
O95 Cd85 2.240 . S
O95 C93 1.279 . S
O96 Cd86 2.297 . S
O96 C91 1.247 . S
O97 Cd86 2.439 . S
O97 C91 1.208 . S
O98 Cd99 2.223 . S
O98 C106 1.315 . S
Cd99 O98 2.223 . S
Cd99 O102 2.297 . S
Cd99 O103 2.439 . S
Cd99 O109 2.240 . S
Cd100 O101 2.240 . S
Cd100 O108 2.223 . S
Cd100 O110 2.297 . S
Cd100 O111 2.439 . S
O101 Cd100 2.240 . S
O101 C106 1.279 . S
O102 Cd99 2.297 . S
O102 C104 1.247 . S
O103 Cd99 2.439 . S
O103 C104 1.208 . S
C104 O102 1.247 . S
C104 O103 1.208 . S
C105 O110 1.247 . S
C105 O111 1.208 . S
C106 O98 1.315 . S
C106 O101 1.279 . S
C107 O108 1.315 . S
C107 O109 1.279 . S
O108 Cd100 2.223 . S
O108 C107 1.315 . S
O109 Cd99 2.240 . S
O109 C107 1.279 . S
O110 Cd100 2.297 . S
O110 C105 1.247 . S
O111 Cd100 2.439 . S
O111 C105 1.208 . S
H112 C130 0.951 . S
H113 C132 0.951 . S
H114 C134 0.950 . S
H115 C135 0.950 . S
H116 C137 0.950 . S
H117 C140 0.950 . S
H118 C141 0.950 . S
H119 C143 0.950 1_556 S
H120 C144 0.950 . S
H121 C145 0.951 . S
H122 C147 0.951 . S
H123 C149 0.950 . S
H124 C150 0.950 . S
H125 C152 0.950 . S
H126 C155 0.950 . S
H127 C156 0.950 . S
H128 C158 0.950 . S
H129 C159 0.950 . S
C130 H112 0.951 . S
C130 C131 1.366 . S
C130 C132 1.388 . S
C131 C130 1.366 . S
C131 C135 1.385 . S
C132 H113 0.951 . S
C132 C130 1.388 . S
C132 C133 1.366 . S
C133 C132 1.366 . S
C133 C134 1.414 . S
C133 C136 1.499 . S
C134 H114 0.950 . S
C134 C133 1.414 . S
C134 C135 1.374 . S
C135 H115 0.950 . S
C135 C131 1.385 . S
C135 C134 1.374 . S
C136 C133 1.499 . S
C136 C137 1.373 1_545 S
C136 C138 1.389 . S
C137 H116 0.950 . S
C137 C136 1.373 1_565 S
C137 C153 1.377 . S
C138 C136 1.389 . S
C138 C139 1.524 . S
C138 C152 1.377 . S
C139 C138 1.524 . S
C139 C140 1.397 . S
C139 C144 1.363 . S
C140 H117 0.950 . S
C140 C139 1.397 . S
C140 C141 1.334 . S
C141 H118 0.950 . S
C141 C140 1.334 . S
C141 C142 1.287 . S
C142 C141 1.287 . S
C142 C143 1.524 . S
C142 H161 0.913 . S
C143 H119 0.950 1_554 S
C143 C142 1.524 . S
C143 C144 1.415 . S
C144 H120 0.950 . S
C144 C139 1.363 . S
C144 C143 1.415 . S
C145 H121 0.951 . S
C145 C146 1.366 . S
C145 C147 1.388 . S
C146 C145 1.366 . S
C146 C150 1.385 . S
C147 H122 0.951 . S
C147 C145 1.388 . S
C147 C148 1.366 . S
C148 C147 1.366 . S
C148 C149 1.414 . S
C148 C151 1.499 . S
C149 H123 0.950 . S
C149 C148 1.414 . S
C149 C150 1.374 . S
C150 H124 0.950 . S
C150 C146 1.385 . S
C150 C149 1.374 . S
C151 C148 1.499 . S
C151 C152 1.373 1_565 S
C151 C153 1.389 . S
C152 H125 0.950 . S
C152 C138 1.377 . S
C152 C151 1.373 1_545 S
C153 C137 1.377 . S
C153 C151 1.389 . S
C153 C154 1.524 . S
C154 C153 1.524 . S
C154 C155 1.397 . S
C154 C159 1.363 . S
C155 H126 0.950 . S
C155 C154 1.397 . S
C155 C156 1.334 . S
C156 H127 0.950 . S
C156 C155 1.334 . S
C156 C157 1.287 . S
C157 C156 1.287 . S
C157 C158 1.524 . S
C157 H160 0.999 . S
C158 H128 0.950 . S
C158 C157 1.524 . S
C158 C159 1.415 . S
C159 H129 0.950 . S
C159 C154 1.363 . S
C159 C158 1.415 . S
H160 C157 0.999 . S
H161 C142 0.913 . S
H162 C180 0.951 . S
H163 C182 0.951 . S
H164 C184 0.950 . S
H165 C185 0.950 . S
H166 C187 0.950 . S
H167 C190 0.950 . S
H168 C191 0.950 . S
H169 C193 0.950 . S
H170 C194 0.950 . S
H171 C195 0.951 . S
H172 C197 0.951 . S
H173 C199 0.950 . S
H174 C200 0.950 . S
H175 C202 0.950 . S
H176 C205 0.950 . S
H177 C206 0.950 . S
H178 C208 0.950 . S
H179 C209 0.950 . S
C180 H162 0.951 . S
C180 C181 1.366 . S
C180 C182 1.388 . S
C181 C180 1.366 . S
C181 C185 1.385 . S
C182 H163 0.951 . S
C182 C180 1.388 . S
C182 C183 1.366 . S
C183 C182 1.366 . S
C183 C184 1.414 . S
C183 C186 1.499 . S
C184 H164 0.950 . S
C184 C183 1.414 . S
C184 C185 1.374 . S
C185 H165 0.950 . S
C185 C181 1.385 . S
C185 C184 1.374 . S
C186 C183 1.499 . S
C186 C187 1.373 . S
C186 C188 1.389 . S
C187 H166 0.950 . S
C187 C186 1.373 . S
C187 C203 1.377 . S
C188 C186 1.389 . S
C188 C189 1.524 . S
C188 C202 1.377 . S
C189 C188 1.524 . S
C189 C190 1.397 . S
C189 C194 1.363 . S
C190 H167 0.950 . S
C190 C189 1.397 . S
C190 C191 1.334 . S
C191 H168 0.950 . S
C191 C190 1.334 . S
C191 C192 1.287 . S
C192 C191 1.287 . S
C192 C193 1.524 . S
C192 H211 0.913 . S
C193 H169 0.950 . S
C193 C192 1.524 . S
C193 C194 1.415 . S
C194 H170 0.950 . S
C194 C189 1.363 . S
C194 C193 1.415 . S
C195 H171 0.951 . S
C195 C196 1.366 . S
C195 C197 1.388 . S
C196 C195 1.366 . S
C196 C200 1.385 . S
C197 H172 0.951 . S
C197 C195 1.388 . S
C197 C198 1.366 . S
C198 C197 1.366 . S
C198 C199 1.414 . S
C198 C201 1.499 . S
C199 H173 0.950 . S
C199 C198 1.414 . S
C199 C200 1.374 . S
C200 H174 0.950 . S
C200 C196 1.385 . S
C200 C199 1.374 . S
C201 C198 1.499 . S
C201 C202 1.373 . S
C201 C203 1.389 . S
C202 H175 0.950 . S
C202 C188 1.377 . S
C202 C201 1.373 . S
C203 C187 1.377 . S
C203 C201 1.389 . S
C203 C204 1.524 . S
C204 C203 1.524 . S
C204 C205 1.397 . S
C204 C209 1.363 . S
C205 H176 0.950 . S
C205 C204 1.397 . S
C205 C206 1.334 . S
C206 H177 0.950 . S
C206 C205 1.334 . S
C206 C207 1.287 . S
C207 C206 1.287 . S
C207 C208 1.524 . S
C207 H210 0.999 . S
C208 H178 0.950 . S
C208 C207 1.524 . S
C208 C209 1.415 . S
C209 H179 0.950 . S
C209 C204 1.363 . S
C209 C208 1.415 . S
H210 C207 0.999 . S
H211 C192 0.913 . S
H212 C230 0.951 . S
H213 C232 0.951 . S
H214 C234 0.950 . S
H215 C235 0.950 . S
H216 C237 0.950 . S
H217 C240 0.950 . S
H218 C241 0.978 . S
H219 C243 0.950 . S
H220 C244 0.950 . S
H221 C245 0.951 . S
H222 C247 0.951 . S
H223 C249 0.950 . S
H224 C250 0.950 . S
H225 C252 0.950 . S
H226 C255 0.950 . S
H227 C256 0.950 . S
H228 C258 0.950 . S
H229 C259 0.950 . S
C230 H212 0.951 . S
C230 C231 1.366 . S
C230 C232 1.388 . S
C231 C230 1.366 . S
C231 C235 1.385 . S
C232 H213 0.951 . S
C232 C230 1.388 . S
C232 C233 1.366 . S
C233 C232 1.366 . S
C233 C234 1.414 . S
C233 C236 1.499 . S
C234 H214 0.950 . S
C234 C233 1.414 . S
C234 C235 1.374 . S
C235 H215 0.950 . S
C235 C231 1.385 . S
C235 C234 1.374 . S
C236 C233 1.499 . S
C236 C237 1.373 1_565 S
C236 C238 1.389 . S
C237 H216 0.950 . S
C237 C236 1.373 1_545 S
C237 C253 1.377 . S
C238 C236 1.389 . S
C238 C239 1.524 . S
C238 C252 1.377 . S
C239 C238 1.524 . S
C239 C240 1.397 . S
C239 C244 1.363 . S
C240 H217 0.950 . S
C240 C239 1.397 . S
C240 C241 1.297 1_556 S
C241 H218 0.978 . S
C241 C240 1.297 1_554 S
C241 C242 1.297 . S
C242 C241 1.297 . S
C242 C243 1.524 1_554 S
C242 H261 0.913 . S
C243 H219 0.950 . S
C243 C242 1.524 1_556 S
C243 C244 1.415 . S
C244 H220 0.950 . S
C244 C239 1.363 . S
C244 C243 1.415 . S
C245 H221 0.951 . S
C245 C246 1.366 . S
C245 C247 1.388 . S
C246 C245 1.366 . S
C246 C250 1.385 . S
C247 H222 0.951 . S
C247 C245 1.388 . S
C247 C248 1.366 . S
C248 C247 1.366 . S
C248 C249 1.414 . S
C248 C251 1.499 . S
C249 H223 0.950 . S
C249 C248 1.414 . S
C249 C250 1.374 . S
C250 H224 0.950 . S
C250 C246 1.385 . S
C250 C249 1.374 . S
C251 C248 1.499 . S
C251 C252 1.373 1_545 S
C251 C253 1.389 . S
C252 H225 0.950 . S
C252 C238 1.377 . S
C252 C251 1.373 1_565 S
C253 C237 1.377 . S
C253 C251 1.389 . S
C253 C254 1.524 . S
C254 C253 1.524 . S
C254 C255 1.397 . S
C254 C259 1.363 . S
C255 H226 0.950 . S
C255 C254 1.397 . S
C255 C256 1.334 . S
C256 H227 0.950 . S
C256 C255 1.334 . S
C256 C257 1.287 . S
C257 C256 1.287 . S
C257 C258 1.524 . S
C257 H260 0.999 . S
C258 H228 0.950 . S
C258 C257 1.524 . S
C258 C259 1.415 . S
C259 H229 0.950 . S
C259 C254 1.363 . S
C259 C258 1.415 . S
H260 C257 0.999 . S
H261 C242 0.913 . S
H262 C280 0.951 . S
H263 C282 0.951 . S
H264 C284 0.950 . S
H265 C285 0.950 . S
H266 C287 0.950 . S
H267 C290 0.950 . S
H268 C291 0.950 . S
H269 C293 0.950 . S
H270 C294 0.950 . S
H271 C295 0.951 . S
H272 C297 0.951 . S
H273 C299 0.950 . S
H274 C300 0.950 . S
H275 C302 0.950 . S
H276 C305 0.950 . S
H277 C306 0.950 . S
H278 C308 0.950 . S
H279 C309 0.950 . S
C280 H262 0.951 . S
C280 C281 1.366 . S
C280 C282 1.388 . S
C281 C280 1.366 . S
C281 C285 1.385 . S
C282 H263 0.951 . S
C282 C280 1.388 . S
C282 C283 1.366 . S
C283 C282 1.366 . S
C283 C284 1.414 . S
C283 C286 1.499 . S
C284 H264 0.950 . S
C284 C283 1.414 . S
C284 C285 1.374 . S
C285 H265 0.950 . S
C285 C281 1.385 . S
C285 C284 1.374 . S
C286 C283 1.499 . S
C286 C287 1.373 . S
C286 C288 1.389 . S
C287 H266 0.950 . S
C287 C286 1.373 . S
C287 C303 1.377 . S
C288 C286 1.389 . S
C288 C289 1.524 . S
C288 C302 1.377 . S
C289 C288 1.524 . S
C289 C290 1.397 . S
C289 C294 1.363 . S
C290 H267 0.950 . S
C290 C289 1.397 . S
C290 C291 1.334 . S
C291 H268 0.950 . S
C291 C290 1.334 . S
C291 C292 1.287 . S
C292 C291 1.287 . S
C292 C293 1.524 . S
C292 H311 0.913 . S
C293 H269 0.950 . S
C293 C292 1.524 . S
C293 C294 1.415 . S
C294 H270 0.950 . S
C294 C289 1.363 . S
C294 C293 1.415 . S
C295 H271 0.951 . S
C295 C296 1.366 . S
C295 C297 1.388 . S
C296 C295 1.366 . S
C296 C300 1.385 . S
C297 H272 0.951 . S
C297 C295 1.388 . S
C297 C298 1.366 . S
C298 C297 1.366 . S
C298 C299 1.414 . S
C298 C301 1.499 . S
C299 H273 0.950 . S
C299 C298 1.414 . S
C299 C300 1.374 . S
C300 H274 0.950 . S
C300 C296 1.385 . S
C300 C299 1.374 . S
C301 C298 1.499 . S
C301 C302 1.373 . S
C301 C303 1.389 . S
C302 H275 0.950 . S
C302 C288 1.377 . S
C302 C301 1.373 . S
C303 C287 1.377 . S
C303 C301 1.389 . S
C303 C304 1.524 . S
C304 C303 1.524 . S
C304 C305 1.397 . S
C304 C309 1.363 . S
C305 H276 0.950 . S
C305 C304 1.397 . S
C305 C306 1.334 . S
C306 H277 0.950 . S
C306 C305 1.334 . S
C306 C307 1.287 . S
C307 C306 1.287 . S
C307 C308 1.524 . S
C307 H310 0.999 . S
C308 H278 0.950 . S
C308 C307 1.524 . S
C308 C309 1.415 . S
C309 H279 0.950 . S
C309 C304 1.363 . S
C309 C308 1.415 . S
H310 C307 0.999 . S
H311 C292 0.913 . S
H312 C330 0.951 . S
H313 C332 0.951 . S
H314 C334 0.950 . S
H315 C335 0.950 . S
H316 C337 0.950 . S
H317 C340 0.950 . S
H318 C341 0.950 . S
H319 C343 0.950 . S
H320 C344 0.950 . S
H321 C345 0.951 . S
H322 C347 0.951 . S
H323 C349 0.950 . S
H324 C350 0.950 . S
H325 C352 0.950 . S
H326 C355 0.950 . S
H327 C356 0.950 . S
H328 C358 0.950 . S
H329 C359 0.950 . S
C330 H312 0.951 . S
C330 C331 1.366 . S
C330 C332 1.388 . S
C331 C330 1.366 . S
C331 C335 1.385 . S
C332 H313 0.951 . S
C332 C330 1.388 . S
C332 C333 1.366 . S
C333 C332 1.366 . S
C333 C334 1.414 . S
C333 C336 1.499 . S
C334 H314 0.950 . S
C334 C333 1.414 . S
C334 C335 1.374 . S
C335 H315 0.950 . S
C335 C331 1.385 . S
C335 C334 1.374 . S
C336 C333 1.499 . S
C336 C337 1.373 . S
C336 C338 1.389 . S
C337 H316 0.950 . S
C337 C336 1.373 . S
C337 C353 1.377 . S
C338 C336 1.389 . S
C338 C339 1.524 . S
C338 C352 1.377 . S
C339 C338 1.524 . S
C339 C340 1.397 . S
C339 C344 1.363 . S
C340 H317 0.950 . S
C340 C339 1.397 . S
C340 C341 1.334 . S
C341 H318 0.950 . S
C341 C340 1.334 . S
C341 C342 1.287 . S
C342 C341 1.287 . S
C342 C343 1.524 . S
C342 H361 0.913 . S
C343 H319 0.950 . S
C343 C342 1.524 . S
C343 C344 1.415 . S
C344 H320 0.950 . S
C344 C339 1.363 . S
C344 C343 1.415 . S
C345 H321 0.951 . S
C345 C346 1.366 . S
C345 C347 1.388 . S
C346 C345 1.366 . S
C346 C350 1.385 . S
C347 H322 0.951 . S
C347 C345 1.388 . S
C347 C348 1.366 . S
C348 C347 1.366 . S
C348 C349 1.414 . S
C348 C351 1.499 . S
C349 H323 0.950 . S
C349 C348 1.414 . S
C349 C350 1.374 . S
C350 H324 0.950 . S
C350 C346 1.385 . S
C350 C349 1.374 . S
C351 C348 1.499 . S
C351 C352 1.373 . S
C351 C353 1.389 . S
C352 H325 0.950 . S
C352 C338 1.377 . S
C352 C351 1.373 . S
C353 C337 1.377 . S
C353 C351 1.389 . S
C353 C354 1.524 . S
C354 C353 1.524 . S
C354 C355 1.397 . S
C354 C359 1.363 . S
C355 H326 0.950 . S
C355 C354 1.397 . S
C355 C356 1.334 . S
C356 H327 0.950 . S
C356 C355 1.334 . S
C356 C357 1.287 . S
C357 C356 1.287 . S
C357 C358 1.524 . S
C357 H360 0.999 . S
C358 H328 0.950 . S
C358 C357 1.524 . S
C358 C359 1.415 . S
C359 H329 0.950 . S
C359 C354 1.363 . S
C359 C358 1.415 . S
H360 C357 0.999 . S
H361 C342 0.913 . S
H362 C380 0.951 . S
H363 C382 0.951 . S
H364 C384 0.950 . S
H365 C385 0.950 . S
H366 C387 0.950 . S
H367 C390 0.950 . S
H368 C391 0.950 . S
H369 C393 0.950 . S
H370 C394 0.950 . S
H371 C395 0.951 . S
H372 C397 0.951 . S
H373 C399 0.950 . S
H374 C400 0.950 . S
H375 C402 0.950 . S
H376 C405 0.950 . S
H377 C406 0.950 . S
H378 C408 0.950 . S
H379 C409 0.950 . S
C380 H362 0.951 . S
C380 C381 1.366 . S
C380 C382 1.388 . S
C381 C380 1.366 . S
C381 C385 1.385 . S
C382 H363 0.951 . S
C382 C380 1.388 . S
C382 C383 1.366 . S
C383 C382 1.366 . S
C383 C384 1.414 . S
C383 C386 1.499 . S
C384 H364 0.950 . S
C384 C383 1.414 . S
C384 C385 1.374 . S
C385 H365 0.950 . S
C385 C381 1.385 . S
C385 C384 1.374 . S
C386 C383 1.499 . S
C386 C387 1.373 . S
C386 C388 1.389 . S
C387 H366 0.950 . S
C387 C386 1.373 . S
C387 C403 1.377 . S
C388 C386 1.389 . S
C388 C389 1.524 . S
C388 C402 1.377 . S
C389 C388 1.524 . S
C389 C390 1.397 . S
C389 C394 1.363 . S
C390 H367 0.950 . S
C390 C389 1.397 . S
C390 C391 1.334 . S
C391 H368 0.950 . S
C391 C390 1.334 . S
C391 C392 1.287 . S
C392 C391 1.287 . S
C392 C393 1.524 . S
C392 H411 0.913 . S
C393 H369 0.950 . S
C393 C392 1.524 . S
C393 C394 1.415 . S
C394 H370 0.950 . S
C394 C389 1.363 . S
C394 C393 1.415 . S
C395 H371 0.951 . S
C395 C396 1.366 . S
C395 C397 1.388 . S
C396 C395 1.366 . S
C396 C400 1.385 . S
C397 H372 0.951 . S
C397 C395 1.388 . S
C397 C398 1.366 . S
C398 C397 1.366 . S
C398 C399 1.414 . S
C398 C401 1.499 . S
C399 H373 0.950 . S
C399 C398 1.414 . S
C399 C400 1.374 . S
C400 H374 0.950 . S
C400 C396 1.385 . S
C400 C399 1.374 . S
C401 C398 1.499 . S
C401 C402 1.373 . S
C401 C403 1.389 . S
C402 H375 0.950 . S
C402 C388 1.377 . S
C402 C401 1.373 . S
C403 C387 1.377 . S
C403 C401 1.389 . S
C403 C404 1.524 . S
C404 C403 1.524 . S
C404 C405 1.397 . S
C404 C409 1.363 . S
C405 H376 0.950 . S
C405 C404 1.397 . S
C405 C406 1.334 . S
C406 H377 0.950 . S
C406 C405 1.334 . S
C406 C407 1.287 . S
C407 C406 1.287 . S
C407 C408 1.524 . S
C407 H410 0.999 . S
C408 H378 0.950 . S
C408 C407 1.524 . S
C408 C409 1.415 . S
C409 H379 0.950 . S
C409 C404 1.363 . S
C409 C408 1.415 . S
H410 C407 0.999 . S
H411 C392 0.913 . S
H412 C430 0.951 . S
H413 C432 0.951 . S
H414 C434 0.950 . S
H415 C435 0.950 . S
H416 C437 0.950 . S
H417 C440 0.950 . S
H418 C441 0.950 . S
H419 C443 0.950 . S
H420 C444 0.950 . S
H421 C445 0.951 . S
H422 C447 0.951 . S
H423 C449 0.950 . S
H424 C450 0.950 . S
H425 C452 0.950 . S
H426 C455 0.950 . S
H427 C456 0.950 . S
H428 C458 0.950 . S
H429 C459 0.950 . S
C430 H412 0.951 . S
C430 C431 1.366 . S
C430 C432 1.388 . S
C431 C430 1.366 . S
C431 C435 1.385 . S
C432 H413 0.951 . S
C432 C430 1.388 . S
C432 C433 1.366 . S
C433 C432 1.366 . S
C433 C434 1.414 . S
C433 C436 1.499 . S
C434 H414 0.950 . S
C434 C433 1.414 . S
C434 C435 1.374 . S
C435 H415 0.950 . S
C435 C431 1.385 . S
C435 C434 1.374 . S
C436 C433 1.499 . S
C436 C437 1.373 . S
C436 C438 1.389 . S
C437 H416 0.950 . S
C437 C436 1.373 . S
C437 C453 1.377 . S
C438 C436 1.389 . S
C438 C439 1.524 . S
C438 C452 1.377 . S
C439 C438 1.524 . S
C439 C440 1.397 . S
C439 C444 1.363 . S
C440 H417 0.950 . S
C440 C439 1.397 . S
C440 C441 1.334 . S
C441 H418 0.950 . S
C441 C440 1.334 . S
C441 C442 1.287 . S
C442 C441 1.287 . S
C442 C443 1.524 . S
C442 H461 0.913 . S
C443 H419 0.950 . S
C443 C442 1.524 . S
C443 C444 1.415 . S
C444 H420 0.950 . S
C444 C439 1.363 . S
C444 C443 1.415 . S
C445 H421 0.951 . S
C445 C446 1.366 . S
C445 C447 1.388 . S
C446 C445 1.366 . S
C446 C450 1.385 . S
C447 H422 0.951 . S
C447 C445 1.388 . S
C447 C448 1.366 . S
C448 C447 1.366 . S
C448 C449 1.414 . S
C448 C451 1.499 . S
C449 H423 0.950 . S
C449 C448 1.414 . S
C449 C450 1.374 . S
C450 H424 0.950 . S
C450 C446 1.385 . S
C450 C449 1.374 . S
C451 C448 1.499 . S
C451 C452 1.373 . S
C451 C453 1.389 . S
C452 H425 0.950 . S
C452 C438 1.377 . S
C452 C451 1.373 . S
C453 C437 1.377 . S
C453 C451 1.389 . S
C453 C454 1.524 . S
C454 C453 1.524 . S
C454 C455 1.397 . S
C454 C459 1.363 . S
C455 H426 0.950 . S
C455 C454 1.397 . S
C455 C456 1.334 . S
C456 H427 0.950 . S
C456 C455 1.334 . S
C456 C457 1.287 . S
C457 C456 1.287 . S
C457 C458 1.524 . S
C457 H460 0.999 . S
C458 H428 0.950 . S
C458 C457 1.524 . S
C458 C459 1.415 . S
C459 H429 0.950 . S
C459 C454 1.363 . S
C459 C458 1.415 . S
H460 C457 0.999 . S
H461 C442 0.913 . S
H462 C480 0.951 . S
H463 C482 0.951 . S
H464 C484 0.950 . S
H465 C485 0.950 . S
H466 C487 0.950 . S
H467 C490 0.950 . S
H468 C491 0.950 . S
H469 C493 0.950 . S
H470 C494 0.950 . S
H471 C495 0.951 . S
H472 C497 0.951 . S
H473 C499 0.950 . S
H474 C500 0.950 . S
H475 C502 0.950 . S
H476 C505 0.950 . S
H477 C506 0.950 . S
H478 C508 0.950 . S
H479 C509 0.950 . S
C480 H462 0.951 . S
C480 C481 1.366 . S
C480 C482 1.388 . S
C481 C480 1.366 . S
C481 C485 1.385 . S
C482 H463 0.951 . S
C482 C480 1.388 . S
C482 C483 1.366 . S
C483 C482 1.366 . S
C483 C484 1.414 . S
C483 C486 1.499 . S
C484 H464 0.950 . S
C484 C483 1.414 . S
C484 C485 1.374 . S
C485 H465 0.950 . S
C485 C481 1.385 . S
C485 C484 1.374 . S
C486 C483 1.499 . S
C486 C487 1.373 . S
C486 C488 1.389 . S
C487 H466 0.950 . S
C487 C486 1.373 . S
C487 C503 1.377 . S
C488 C486 1.389 . S
C488 C489 1.524 . S
C488 C502 1.377 . S
C489 C488 1.524 . S
C489 C490 1.397 . S
C489 C494 1.363 . S
C490 H467 0.950 . S
C490 C489 1.397 . S
C490 C491 1.334 . S
C491 H468 0.950 . S
C491 C490 1.334 . S
C491 C492 1.287 . S
C492 C491 1.287 . S
C492 C493 1.524 . S
C492 H511 0.913 . S
C493 H469 0.950 . S
C493 C492 1.524 . S
C493 C494 1.415 . S
C494 H470 0.950 . S
C494 C489 1.363 . S
C494 C493 1.415 . S
C495 H471 0.951 . S
C495 C496 1.366 . S
C495 C497 1.388 . S
C496 C495 1.366 . S
C496 C500 1.385 . S
C497 H472 0.951 . S
C497 C495 1.388 . S
C497 C498 1.366 . S
C498 C497 1.366 . S
C498 C499 1.414 . S
C498 C501 1.499 . S
C499 H473 0.950 . S
C499 C498 1.414 . S
C499 C500 1.374 . S
C500 H474 0.950 . S
C500 C496 1.385 . S
C500 C499 1.374 . S
C501 C498 1.499 . S
C501 C502 1.373 . S
C501 C503 1.389 . S
C502 H475 0.950 . S
C502 C488 1.377 . S
C502 C501 1.373 . S
C503 C487 1.377 . S
C503 C501 1.389 . S
C503 C504 1.524 . S
C504 C503 1.524 . S
C504 C505 1.397 . S
C504 C509 1.363 . S
C505 H476 0.950 . S
C505 C504 1.397 . S
C505 C506 1.334 . S
C506 H477 0.950 . S
C506 C505 1.334 . S
C506 C507 1.287 . S
C507 C506 1.287 . S
C507 C508 1.524 . S
C507 H510 0.999 . S
C508 H478 0.950 . S
C508 C507 1.524 . S
C508 C509 1.415 . S
C509 H479 0.950 . S
C509 C504 1.363 . S
C509 C508 1.415 . S
H510 C507 0.999 . S
H511 C492 0.913 . S
H512 C530 0.951 . S
H513 C532 0.951 . S
H514 C534 0.950 . S
H515 C535 0.950 . S
H516 C537 0.950 . S
H517 C540 0.950 . S
H518 C541 0.950 . S
H519 C543 0.950 . S
H520 C544 0.950 . S
H521 C545 0.951 . S
H522 C547 0.951 . S
H523 C549 0.950 . S
H524 C550 0.950 . S
H525 C552 0.950 . S
H526 C555 0.950 . S
H527 C556 0.950 . S
H528 C558 0.950 . S
H529 C559 0.950 . S
C530 H512 0.951 . S
C530 C531 1.366 . S
C530 C532 1.388 . S
C531 C530 1.366 . S
C531 C535 1.385 . S
C532 H513 0.951 . S
C532 C530 1.388 . S
C532 C533 1.366 . S
C533 C532 1.366 . S
C533 C534 1.414 . S
C533 C536 1.499 . S
C534 H514 0.950 . S
C534 C533 1.414 . S
C534 C535 1.374 . S
C535 H515 0.950 . S
C535 C531 1.385 . S
C535 C534 1.374 . S
C536 C533 1.499 . S
C536 C537 1.373 1_554 S
C536 C538 1.389 . S
C537 H516 0.950 . S
C537 C536 1.373 1_556 S
C537 C553 1.377 . S
C538 C536 1.389 . S
C538 C539 1.524 . S
C538 C552 1.377 . S
C539 C538 1.524 . S
C539 C540 1.397 . S
C539 C544 1.363 . S
C540 H517 0.950 . S
C540 C539 1.397 . S
C540 C541 1.334 . S
C541 H518 0.950 . S
C541 C540 1.334 . S
C541 C542 1.287 . S
C542 C541 1.287 . S
C542 C543 1.524 . S
C542 H561 0.913 . S
C543 H519 0.950 . S
C543 C542 1.524 . S
C543 C544 1.415 . S
C544 H520 0.950 . S
C544 C539 1.363 . S
C544 C543 1.415 . S
C545 H521 0.951 . S
C545 C546 1.366 . S
C545 C547 1.388 . S
C546 C545 1.366 . S
C546 C550 1.385 . S
C547 H522 0.951 . S
C547 C545 1.388 . S
C547 C548 1.366 . S
C548 C547 1.366 . S
C548 C549 1.414 . S
C548 C551 1.499 . S
C549 H523 0.950 . S
C549 C548 1.414 . S
C549 C550 1.374 . S
C550 H524 0.950 . S
C550 C546 1.385 . S
C550 C549 1.374 . S
C551 C548 1.499 . S
C551 C552 1.373 1_556 S
C551 C553 1.389 . S
C552 H525 0.950 . S
C552 C538 1.377 . S
C552 C551 1.373 1_554 S
C553 C537 1.377 . S
C553 C551 1.389 . S
C553 C554 1.524 . S
C554 C553 1.524 . S
C554 C555 1.397 . S
C554 C559 1.363 . S
C555 H526 0.950 . S
C555 C554 1.397 . S
C555 C556 1.334 . S
C556 H527 0.950 . S
C556 C555 1.334 . S
C556 C557 1.287 . S
C557 C556 1.287 . S
C557 C558 1.524 . S
C557 H560 0.999 . S
C558 H528 0.950 . S
C558 C557 1.524 . S
C558 C559 1.415 . S
C559 H529 0.950 . S
C559 C554 1.363 . S
C559 C558 1.415 . S
H560 C557 0.999 . S
H561 C542 0.913 . S
H562 C580 0.951 . S
H563 C582 0.951 . S
H564 C584 0.950 . S
H565 C585 0.950 . S
H566 C587 0.950 . S
H567 C590 0.950 . S
H568 C591 0.950 1_455 S
H569 C593 0.950 . S
H570 C594 0.950 . S
H571 C595 0.951 . S
H572 C597 0.951 . S
H573 C599 0.950 . S
H574 C600 0.950 . S
H575 C602 0.950 . S
H576 C605 0.950 . S
H577 C606 0.950 1_655 S
H578 C608 0.950 . S
H579 C609 0.950 . S
C580 H562 0.951 . S
C580 C581 1.366 . S
C580 C582 1.388 . S
C581 C580 1.366 . S
C581 C585 1.385 . S
C582 H563 0.951 . S
C582 C580 1.388 . S
C582 C583 1.366 . S
C583 C582 1.366 . S
C583 C584 1.414 . S
C583 C586 1.499 . S
C584 H564 0.950 . S
C584 C583 1.414 . S
C584 C585 1.374 . S
C585 H565 0.950 . S
C585 C581 1.385 . S
C585 C584 1.374 . S
C586 C583 1.499 . S
C586 C587 1.373 1_554 S
C586 C588 1.389 1_455 S
C587 H566 0.950 . S
C587 C586 1.373 1_556 S
C587 C603 1.377 . S
C588 C586 1.389 1_655 S
C588 C589 1.524 . S
C588 C602 1.377 . S
C589 C588 1.524 . S
C589 C590 1.397 1_655 S
C589 C594 1.363 . S
C590 H567 0.950 . S
C590 C589 1.397 1_455 S
C590 C591 1.334 1_455 S
C591 H568 0.950 1_655 S
C591 C590 1.334 1_655 S
C591 C592 1.287 . S
C592 C591 1.287 . S
C592 C593 1.524 . S
C592 H611 0.913 . S
C593 H569 0.950 . S
C593 C592 1.524 . S
C593 C594 1.415 . S
C594 H570 0.950 . S
C594 C589 1.363 . S
C594 C593 1.415 . S
C595 H571 0.951 . S
C595 C596 1.366 . S
C595 C597 1.388 . S
C596 C595 1.366 . S
C596 C600 1.385 . S
C597 H572 0.951 . S
C597 C595 1.388 . S
C597 C598 1.366 . S
C598 C597 1.366 . S
C598 C599 1.414 . S
C598 C601 1.499 . S
C599 H573 0.950 . S
C599 C598 1.414 . S
C599 C600 1.374 . S
C600 H574 0.950 . S
C600 C596 1.385 . S
C600 C599 1.374 . S
C601 C598 1.499 . S
C601 C602 1.373 1_556 S
C601 C603 1.389 1_655 S
C602 H575 0.950 . S
C602 C588 1.377 . S
C602 C601 1.373 1_554 S
C603 C587 1.377 . S
C603 C601 1.389 1_455 S
C603 C604 1.524 . S
C604 C603 1.524 . S
C604 C605 1.397 1_455 S
C604 C609 1.363 . S
C605 H576 0.950 . S
C605 C604 1.397 1_655 S
C605 C606 1.334 1_655 S
C606 H577 0.950 1_455 S
C606 C605 1.334 1_455 S
C606 C607 1.287 . S
C607 C606 1.287 . S
C607 C608 1.524 . S
C607 H610 0.999 . S
C608 H578 0.950 . S
C608 C607 1.524 . S
C608 C609 1.415 . S
C609 H579 0.950 . S
C609 C604 1.363 . S
C609 C608 1.415 . S
H610 C607 0.999 . S
H611 C592 0.913 . S
H612 C630 0.951 . S
H613 C632 0.951 . S
H614 C634 0.950 . S
H615 C635 0.950 . S
H616 C637 0.950 . S
H617 C640 0.950 1_565 S
H618 C641 0.950 . S
H619 C643 0.950 . S
H620 C644 0.950 . S
H621 C645 0.951 . S
H622 C647 0.951 . S
H623 C649 0.950 . S
H624 C650 0.950 . S
H625 C652 0.950 . S
H626 C655 0.950 1_545 S
H627 C656 0.950 . S
H628 C658 0.950 . S
H629 C659 0.950 . S
C630 H612 0.951 . S
C630 C631 1.366 . S
C630 C632 1.388 . S
C631 C630 1.366 . S
C631 C635 1.385 . S
C632 H613 0.951 . S
C632 C630 1.388 . S
C632 C633 1.366 . S
C633 C632 1.366 . S
C633 C634 1.414 . S
C633 C636 1.499 . S
C634 H614 0.950 . S
C634 C633 1.414 . S
C634 C635 1.374 . S
C635 H615 0.950 . S
C635 C631 1.385 . S
C635 C634 1.374 . S
C636 C633 1.499 . S
C636 C637 1.373 . S
C636 C638 1.389 1_565 S
C637 H616 0.950 . S
C637 C636 1.373 . S
C637 C653 1.377 . S
C638 C636 1.389 1_545 S
C638 C639 1.524 . S
C638 C652 1.377 . S
C639 C638 1.524 . S
C639 C640 1.397 . S
C639 C644 1.363 . S
C640 H617 0.950 1_545 S
C640 C639 1.397 . S
C640 C641 1.334 . S
C641 H618 0.950 . S
C641 C640 1.334 . S
C641 C642 1.287 . S
C642 C641 1.287 . S
C642 C643 1.524 . S
C642 H661 0.913 . S
C643 H619 0.950 . S
C643 C642 1.524 . S
C643 C644 1.415 . S
C644 H620 0.950 . S
C644 C639 1.363 . S
C644 C643 1.415 . S
C645 H621 0.951 . S
C645 C646 1.366 . S
C645 C647 1.388 . S
C646 C645 1.366 . S
C646 C650 1.385 . S
C647 H622 0.951 . S
C647 C645 1.388 . S
C647 C648 1.366 . S
C648 C647 1.366 . S
C648 C649 1.414 . S
C648 C651 1.499 . S
C649 H623 0.950 . S
C649 C648 1.414 . S
C649 C650 1.374 . S
C650 H624 0.950 . S
C650 C646 1.385 . S
C650 C649 1.374 . S
C651 C648 1.499 . S
C651 C652 1.373 . S
C651 C653 1.389 1_545 S
C652 H625 0.950 . S
C652 C638 1.377 . S
C652 C651 1.373 . S
C653 C637 1.377 . S
C653 C651 1.389 1_565 S
C653 C654 1.524 . S
C654 C653 1.524 . S
C654 C655 1.397 . S
C654 C659 1.363 . S
C655 H626 0.950 1_565 S
C655 C654 1.397 . S
C655 C656 1.334 . S
C656 H627 0.950 . S
C656 C655 1.334 . S
C656 C657 1.287 . S
C657 C656 1.287 . S
C657 C658 1.524 . S
C657 H660 0.999 . S
C658 H628 0.950 . S
C658 C657 1.524 . S
C658 C659 1.415 . S
C659 H629 0.950 . S
C659 C654 1.363 . S
C659 C658 1.415 . S
H660 C657 0.999 . S
H661 C642 0.913 . S
H662 C680 0.951 . S
H663 C682 0.951 . S
H664 C684 0.950 . S
H665 C685 0.950 . S
H666 C687 0.950 . S
H667 C690 0.943 1_455 S
H668 C691 0.950 1_455 S
H669 C693 0.950 . S
H670 C694 0.950 . S
H671 C695 0.951 . S
H672 C697 0.951 . S
H673 C699 0.950 . S
H674 C700 0.950 . S
H675 C702 0.950 . S
H676 C705 0.943 1_655 S
H677 C706 0.950 1_655 S
H678 C708 0.950 . S
H679 C709 0.950 . S
C680 H662 0.951 . S
C680 C681 1.366 . S
C680 C682 1.388 . S
C681 C680 1.366 . S
C681 C685 1.385 . S
C682 H663 0.951 . S
C682 C680 1.388 . S
C682 C683 1.366 . S
C683 C682 1.366 . S
C683 C684 1.414 . S
C683 C686 1.499 . S
C684 H664 0.950 . S
C684 C683 1.414 . S
C684 C685 1.374 . S
C685 H665 0.950 . S
C685 C681 1.385 . S
C685 C684 1.374 . S
C686 C683 1.499 . S
C686 C687 1.373 . S
C686 C688 1.389 1_545 S
C687 H666 0.950 . S
C687 C686 1.373 . S
C687 C703 1.377 1_655 S
C688 C686 1.389 1_565 S
C688 C689 1.524 . S
C688 C702 1.377 1_655 S
C689 C688 1.524 . S
C689 C690 1.403 1_565 S
C689 C694 1.363 . S
C690 H667 0.943 1_655 S
C690 C689 1.403 1_545 S
C690 C691 1.335 . S
C691 H668 0.950 1_655 S
C691 C690 1.335 . S
C691 C692 1.287 1_545 S
C692 C691 1.287 1_565 S
C692 C693 1.524 . S
C692 H711 0.913 . S
C693 H669 0.950 . S
C693 C692 1.524 . S
C693 C694 1.415 . S
C694 H670 0.950 . S
C694 C689 1.363 . S
C694 C693 1.415 . S
C695 H671 0.951 . S
C695 C696 1.366 . S
C695 C697 1.388 . S
C696 C695 1.366 . S
C696 C700 1.385 . S
C697 H672 0.951 . S
C697 C695 1.388 . S
C697 C698 1.366 . S
C698 C697 1.366 . S
C698 C699 1.414 . S
C698 C701 1.499 . S
C699 H673 0.950 . S
C699 C698 1.414 . S
C699 C700 1.374 . S
C700 H674 0.950 . S
C700 C696 1.385 . S
C700 C699 1.374 . S
C701 C698 1.499 . S
C701 C702 1.373 . S
C701 C703 1.389 1_565 S
C702 H675 0.950 . S
C702 C688 1.377 1_455 S
C702 C701 1.373 . S
C703 C687 1.377 1_455 S
C703 C701 1.389 1_545 S
C703 C704 1.524 . S
C704 C703 1.524 . S
C704 C705 1.403 1_545 S
C704 C709 1.363 . S
C705 H676 0.943 1_455 S
C705 C704 1.403 1_565 S
C705 C706 1.335 . S
C706 H677 0.950 1_455 S
C706 C705 1.335 . S
C706 C707 1.287 1_565 S
C707 C706 1.287 1_545 S
C707 C708 1.524 . S
C707 H710 0.999 . S
C708 H678 0.950 . S
C708 C707 1.524 . S
C708 C709 1.415 . S
C709 H679 0.950 . S
C709 C704 1.363 . S
C709 C708 1.415 . S
H710 C707 0.999 . S
H711 C692 0.913 . S
H712 C730 0.951 . S
H713 C732 0.951 . S
H714 C734 0.950 . S
H715 C735 0.950 . S
H716 C737 0.950 . S
H717 C740 0.950 . S
H718 C741 0.950 . S
H719 C743 0.950 . S
H720 C744 0.950 . S
H721 C745 0.951 . S
H722 C747 0.951 . S
H723 C749 0.950 . S
H724 C750 0.950 . S
H725 C752 0.950 . S
H726 C755 0.950 . S
H727 C756 0.950 . S
H728 C758 0.950 . S
H729 C759 0.950 . S
C730 H712 0.951 . S
C730 C731 1.366 . S
C730 C732 1.388 . S
C731 C730 1.366 . S
C731 C735 1.385 . S
C732 H713 0.951 . S
C732 C730 1.388 . S
C732 C733 1.366 . S
C733 C732 1.366 . S
C733 C734 1.414 . S
C733 C736 1.499 . S
C734 H714 0.950 . S
C734 C733 1.414 . S
C734 C735 1.374 . S
C735 H715 0.950 . S
C735 C731 1.385 . S
C735 C734 1.374 . S
C736 C733 1.499 . S
C736 C737 1.373 . S
C736 C738 1.389 . S
C737 H716 0.950 . S
C737 C736 1.373 . S
C737 C753 1.377 . S
C738 C736 1.389 . S
C738 C739 1.524 . S
C738 C752 1.377 . S
C739 C738 1.524 . S
C739 C740 1.397 . S
C739 C744 1.363 1_554 S
C740 H717 0.950 . S
C740 C739 1.397 . S
C740 C741 1.334 . S
C741 H718 0.950 . S
C741 C740 1.334 . S
C741 C742 1.287 1_554 S
C742 C741 1.287 1_556 S
C742 C743 1.524 . S
C742 H761 0.913 . S
C743 H719 0.950 . S
C743 C742 1.524 . S
C743 C744 1.415 . S
C744 H720 0.950 . S
C744 C739 1.363 1_556 S
C744 C743 1.415 . S
C745 H721 0.951 . S
C745 C746 1.366 . S
C745 C747 1.388 . S
C746 C745 1.366 . S
C746 C750 1.385 . S
C747 H722 0.951 . S
C747 C745 1.388 . S
C747 C748 1.366 . S
C748 C747 1.366 . S
C748 C749 1.414 . S
C748 C751 1.499 . S
C749 H723 0.950 . S
C749 C748 1.414 . S
C749 C750 1.374 . S
C750 H724 0.950 . S
C750 C746 1.385 . S
C750 C749 1.374 . S
C751 C748 1.499 . S
C751 C752 1.373 . S
C751 C753 1.389 . S
C752 H725 0.950 . S
C752 C738 1.377 . S
C752 C751 1.373 . S
C753 C737 1.377 . S
C753 C751 1.389 . S
C753 C754 1.524 . S
C754 C753 1.524 . S
C754 C755 1.397 . S
C754 C759 1.363 . S
C755 H726 0.950 . S
C755 C754 1.397 . S
C755 C756 1.334 . S
C756 H727 0.950 . S
C756 C755 1.334 . S
C756 C757 1.287 . S
C757 C756 1.287 . S
C757 C758 1.524 . S
C757 H760 0.999 . S
C758 H728 0.950 . S
C758 C757 1.524 . S
C758 C759 1.415 . S
C759 H729 0.950 . S
C759 C754 1.363 . S
C759 C758 1.415 . S
H760 C757 0.999 . S
H761 C742 0.913 . S
H762 C780 0.951 . S
H763 C782 0.951 . S
H764 C784 0.950 . S
H765 C785 0.950 . S
H766 C787 0.950 . S
H767 C790 0.950 . S
H768 C791 0.950 . S
H769 C793 0.950 . S
H770 C794 0.950 . S
H771 C795 0.951 . S
H772 C797 0.951 . S
H773 C799 0.950 . S
H774 C800 0.950 . S
H775 C802 0.950 . S
H776 C805 0.950 . S
H777 C806 0.950 . S
H778 C808 0.950 . S
H779 C809 0.950 . S
C780 H762 0.951 . S
C780 C781 1.366 . S
C780 C782 1.388 . S
C781 C780 1.366 . S
C781 C785 1.385 . S
C782 H763 0.951 . S
C782 C780 1.388 . S
C782 C783 1.366 . S
C783 C782 1.366 . S
C783 C784 1.414 . S
C783 C786 1.499 . S
C784 H764 0.950 . S
C784 C783 1.414 . S
C784 C785 1.374 . S
C785 H765 0.950 . S
C785 C781 1.385 . S
C785 C784 1.374 . S
C786 C783 1.499 . S
C786 C787 1.373 . S
C786 C788 1.389 . S
C787 H766 0.950 . S
C787 C786 1.373 . S
C787 C803 1.377 1_545 S
C788 C786 1.389 . S
C788 C789 1.524 . S
C788 C802 1.377 1_545 S
C789 C788 1.524 . S
C789 C790 1.397 . S
C789 C794 1.363 1_545 S
C790 H767 0.950 . S
C790 C789 1.397 . S
C790 C791 1.334 . S
C791 H768 0.950 . S
C791 C790 1.334 . S
C791 C792 1.287 . S
C792 C791 1.287 . S
C792 C793 1.524 1_545 S
C792 H811 0.913 . S
C793 H769 0.950 . S
C793 C792 1.524 1_565 S
C793 C794 1.415 . S
C794 H770 0.950 . S
C794 C789 1.363 1_565 S
C794 C793 1.415 . S
C795 H771 0.951 . S
C795 C796 1.366 . S
C795 C797 1.388 . S
C796 C795 1.366 . S
C796 C800 1.385 . S
C797 H772 0.951 . S
C797 C795 1.388 . S
C797 C798 1.366 . S
C798 C797 1.366 . S
C798 C799 1.414 . S
C798 C801 1.499 . S
C799 H773 0.950 . S
C799 C798 1.414 . S
C799 C800 1.374 . S
C800 H774 0.950 . S
C800 C796 1.385 . S
C800 C799 1.374 . S
C801 C798 1.499 . S
C801 C802 1.373 . S
C801 C803 1.389 . S
C802 H775 0.950 . S
C802 C788 1.377 1_565 S
C802 C801 1.373 . S
C803 C787 1.377 1_565 S
C803 C801 1.389 . S
C803 C804 1.524 . S
C804 C803 1.524 . S
C804 C805 1.397 . S
C804 C809 1.363 1_565 S
C805 H776 0.950 . S
C805 C804 1.397 . S
C805 C806 1.334 . S
C806 H777 0.950 . S
C806 C805 1.334 . S
C806 C807 1.287 . S
C807 C806 1.287 . S
C807 C808 1.524 1_565 S
C807 H810 0.999 . S
C808 H778 0.950 . S
C808 C807 1.524 1_545 S
C808 C809 1.415 . S
C809 H779 0.950 . S
C809 C804 1.363 1_545 S
C809 C808 1.415 . S
H810 C807 0.999 . S
H811 C792 0.913 . S
H812 C830 0.951 . S
H813 C832 0.951 . S
H814 C834 0.950 . S
H815 C835 0.950 . S
H816 C837 0.950 . S
H817 C840 0.950 . S
H818 C841 0.950 . S
H819 C843 0.950 . S
H820 C844 0.950 . S
H821 C845 0.951 . S
H822 C847 0.951 . S
H823 C849 0.950 . S
H824 C850 0.950 . S
H825 C852 0.950 . S
H826 C855 0.950 . S
H827 C856 0.950 . S
H828 C858 0.950 . S
H829 C859 0.950 . S
C830 H812 0.951 . S
C830 C831 1.366 . S
C830 C832 1.388 . S
C831 C830 1.366 . S
C831 C835 1.385 . S
C832 H813 0.951 . S
C832 C830 1.388 . S
C832 C833 1.366 . S
C833 C832 1.366 . S
C833 C834 1.414 . S
C833 C836 1.499 . S
C834 H814 0.950 . S
C834 C833 1.414 . S
C834 C835 1.374 . S
C835 H815 0.950 . S
C835 C831 1.385 . S
C835 C834 1.374 . S
C836 C833 1.499 . S
C836 C837 1.373 . S
C836 C838 1.389 . S
C837 H816 0.950 . S
C837 C836 1.373 . S
C837 C853 1.377 . S
C838 C836 1.389 . S
C838 C839 1.524 . S
C838 C852 1.377 . S
C839 C838 1.524 . S
C839 C840 1.397 . S
C839 C844 1.363 . S
C840 H817 0.950 . S
C840 C839 1.397 . S
C840 C841 1.334 . S
C841 H818 0.950 . S
C841 C840 1.334 . S
C841 C842 1.287 . S
C842 C841 1.287 . S
C842 C843 1.524 . S
C842 H861 0.913 . S
C843 H819 0.950 . S
C843 C842 1.524 . S
C843 C844 1.415 . S
C844 H820 0.950 . S
C844 C839 1.363 . S
C844 C843 1.415 . S
C845 H821 0.951 . S
C845 C846 1.366 . S
C845 C847 1.388 . S
C846 C845 1.366 . S
C846 C850 1.385 . S
C847 H822 0.951 . S
C847 C845 1.388 . S
C847 C848 1.366 . S
C848 C847 1.366 . S
C848 C849 1.414 . S
C848 C851 1.499 . S
C849 H823 0.950 . S
C849 C848 1.414 . S
C849 C850 1.374 . S
C850 H824 0.950 . S
C850 C846 1.385 . S
C850 C849 1.374 . S
C851 C848 1.499 . S
C851 C852 1.373 . S
C851 C853 1.389 . S
C852 H825 0.950 . S
C852 C838 1.377 . S
C852 C851 1.373 . S
C853 C837 1.377 . S
C853 C851 1.389 . S
C853 C854 1.524 . S
C854 C853 1.524 . S
C854 C855 1.397 . S
C854 C859 1.363 . S
C855 H826 0.950 . S
C855 C854 1.397 . S
C855 C856 1.334 . S
C856 H827 0.950 . S
C856 C855 1.334 . S
C856 C857 1.287 . S
C857 C856 1.287 . S
C857 C858 1.524 . S
C857 H860 0.999 . S
C858 H828 0.950 . S
C858 C857 1.524 . S
C858 C859 1.415 . S
C859 H829 0.950 . S
C859 C854 1.363 . S
C859 C858 1.415 . S
H860 C857 0.999 . S
H861 C842 0.913 . S
H862 C880 0.951 . S
H863 C882 0.951 . S
H864 C884 0.950 . S
H865 C885 0.950 . S
H866 C887 0.950 . S
H867 C890 0.950 . S
H868 C891 0.950 . S
H869 C893 0.950 . S
H870 C894 0.950 . S
H871 C895 0.951 . S
H872 C897 0.951 . S
H873 C899 0.950 . S
H874 C900 0.950 . S
H875 C902 0.950 . S
H876 C905 0.950 . S
H877 C906 0.950 . S
H878 C908 0.950 . S
H879 C909 0.950 . S
C880 H862 0.951 . S
C880 C881 1.366 . S
C880 C882 1.388 . S
C881 C880 1.366 . S
C881 C885 1.385 . S
C882 H863 0.951 . S
C882 C880 1.388 . S
C882 C883 1.366 . S
C883 C882 1.366 . S
C883 C884 1.414 . S
C883 C886 1.499 . S
C884 H864 0.950 . S
C884 C883 1.414 . S
C884 C885 1.374 . S
C885 H865 0.950 . S
C885 C881 1.385 . S
C885 C884 1.374 . S
C886 C883 1.499 . S
C886 C887 1.373 1_565 S
C886 C888 1.389 . S
C887 H866 0.950 . S
C887 C886 1.373 1_545 S
C887 C903 1.377 . S
C888 C886 1.389 . S
C888 C889 1.524 . S
C888 C902 1.377 . S
C889 C888 1.524 . S
C889 C890 1.397 . S
C889 C894 1.363 . S
C890 H867 0.950 . S
C890 C889 1.397 . S
C890 C891 1.334 . S
C891 H868 0.950 . S
C891 C890 1.334 . S
C891 C892 1.287 . S
C892 C891 1.287 . S
C892 C893 1.524 . S
C892 H911 0.913 . S
C893 H869 0.950 . S
C893 C892 1.524 . S
C893 C894 1.415 . S
C894 H870 0.950 . S
C894 C889 1.363 . S
C894 C893 1.415 . S
C895 H871 0.951 . S
C895 C896 1.366 . S
C895 C897 1.388 . S
C896 C895 1.366 . S
C896 C900 1.385 . S
C897 H872 0.951 . S
C897 C895 1.388 . S
C897 C898 1.366 . S
C898 C897 1.366 . S
C898 C899 1.414 . S
C898 C901 1.499 . S
C899 H873 0.950 . S
C899 C898 1.414 . S
C899 C900 1.374 . S
C900 H874 0.950 . S
C900 C896 1.385 . S
C900 C899 1.374 . S
C901 C898 1.499 . S
C901 C902 1.373 1_545 S
C901 C903 1.389 . S
C902 H875 0.950 . S
C902 C888 1.377 . S
C902 C901 1.373 1_565 S
C903 C887 1.377 . S
C903 C901 1.389 . S
C903 C904 1.524 . S
C904 C903 1.524 . S
C904 C905 1.397 . S
C904 C909 1.363 . S
C905 H876 0.950 . S
C905 C904 1.397 . S
C905 C906 1.334 . S
C906 H877 0.950 . S
C906 C905 1.334 . S
C906 C907 1.287 . S
C907 C906 1.287 . S
C907 C908 1.524 . S
C907 H910 0.999 . S
C908 H878 0.950 . S
C908 C907 1.524 . S
C908 C909 1.415 . S
C909 H879 0.950 . S
C909 C904 1.363 . S
C909 C908 1.415 . S
H910 C907 0.999 . S
H911 C892 0.913 . S
C131 C9 1.659 . S
C146 C23 1.659 . S
C181 C51 1.658 . S
C196 C37 1.659 . S
C231 C65 1.658 . S
C246 C79 1.659 . S
C281 C93 1.659 . S
C296 C107 1.658 . S
C331 C7 1.674 . S
C346 C35 1.673 . S
C381 C49 1.674 . S
C396 C21 1.674 . S
C431 C63 1.674 . S
C446 C91 1.673 . S
C481 C105 1.674 . S
C496 C77 1.673 . S
C531 C6 1.181 . S
C546 C62 1.181 . S
C581 C20 1.182 . S
C596 C76 1.182 . S
C631 C90 1.182 . S
C646 C34 1.182 . S
C681 C104 1.181 . S
C696 C48 1.181 . S
C731 C22 1.241 . S
C746 C8 1.241 . S
C781 C36 1.241 . S
C796 C50 1.241 . S
C831 C64 1.241 . S
C846 C78 1.241 . S
C881 C92 1.241 . S
C896 C106 1.241 . S
