# Generated by pormake.
# Topology uol, (4)-cn, num edge types: 1
# Building blocks:
#     Node 0, Type 0, BuildingBlock: CEKHIL_clean_sbu_0, # of connection points: 4
#     Node 1, Type 0, BuildingBlock: CEKHIL_clean_sbu_0, # of connection points: 4
#     Node 2, Type 0, BuildingBlock: CEKHIL_clean_sbu_0, # of connection points: 4
#     Node 3, Type 0, BuildingBlock: CEKHIL_clean_sbu_0, # of connection points: 4
#     Node 4, Type 0, BuildingBlock: CEKHIL_clean_sbu_0, # of connection points: 4
#     Node 5, Type 0, BuildingBlock: CEKHIL_clean_sbu_0, # of connection points: 4
#     Node 6, Type 0, BuildingBlock: CEKHIL_clean_sbu_0, # of connection points: 4
#     Node 7, Type 0, BuildingBlock: CEKHIL_clean_sbu_0, # of connection points: 4
#     Node 8, Type 0, BuildingBlock: CEKHIL_clean_sbu_0, # of connection points: 4
#     Node 9, Type 0, BuildingBlock: CEKHIL_clean_sbu_0, # of connection points: 4
#     Node 10, Type 0, BuildingBlock: CEKHIL_clean_sbu_0, # of connection points: 4
#     Node 11, Type 0, BuildingBlock: CEKHIL_clean_sbu_0, # of connection points: 4
#     Edge 12, Type (0, 0), BuildingBlock: XIVTED_clean_linker_0, # of connection points: 2
#     Edge 13, Type (0, 0), BuildingBlock: XIVTED_clean_linker_0, # of connection points: 2
#     Edge 14, Type (0, 0), BuildingBlock: XIVTED_clean_linker_0, # of connection points: 2
#     Edge 15, Type (0, 0), BuildingBlock: XIVTED_clean_linker_0, # of connection points: 2
#     Edge 16, Type (0, 0), BuildingBlock: XIVTED_clean_linker_0, # of connection points: 2
#     Edge 17, Type (0, 0), BuildingBlock: XIVTED_clean_linker_0, # of connection points: 2
#     Edge 18, Type (0, 0), BuildingBlock: XIVTED_clean_linker_0, # of connection points: 2
#     Edge 19, Type (0, 0), BuildingBlock: XIVTED_clean_linker_0, # of connection points: 2
#     Edge 20, Type (0, 0), BuildingBlock: XIVTED_clean_linker_0, # of connection points: 2
#     Edge 21, Type (0, 0), BuildingBlock: XIVTED_clean_linker_0, # of connection points: 2
#     Edge 22, Type (0, 0), BuildingBlock: XIVTED_clean_linker_0, # of connection points: 2
#     Edge 23, Type (0, 0), BuildingBlock: XIVTED_clean_linker_0, # of connection points: 2
#     Edge 24, Type (0, 0), BuildingBlock: XIVTED_clean_linker_0, # of connection points: 2
#     Edge 25, Type (0, 0), BuildingBlock: XIVTED_clean_linker_0, # of connection points: 2
#     Edge 26, Type (0, 0), BuildingBlock: XIVTED_clean_linker_0, # of connection points: 2
#     Edge 27, Type (0, 0), BuildingBlock: XIVTED_clean_linker_0, # of connection points: 2
#     Edge 28, Type (0, 0), BuildingBlock: XIVTED_clean_linker_0, # of connection points: 2
#     Edge 29, Type (0, 0), BuildingBlock: XIVTED_clean_linker_0, # of connection points: 2
#     Edge 30, Type (0, 0), BuildingBlock: XIVTED_clean_linker_0, # of connection points: 2
#     Edge 31, Type (0, 0), BuildingBlock: XIVTED_clean_linker_0, # of connection points: 2
#     Edge 32, Type (0, 0), BuildingBlock: XIVTED_clean_linker_0, # of connection points: 2
#     Edge 33, Type (0, 0), BuildingBlock: XIVTED_clean_linker_0, # of connection points: 2
#     Edge 34, Type (0, 0), BuildingBlock: XIVTED_clean_linker_0, # of connection points: 2
#     Edge 35, Type (0, 0), BuildingBlock: XIVTED_clean_linker_0, # of connection points: 2
# Relax obj value: 0.131
# Max RMSD: 0.171
# Mean RMSD: 0.171
data_MOF--net-uol--node1-CEKHIL_clean_sbu_0--edge1-XIVTED_clean_linker_0
_symmetry_space_group_name_H-M    P1
_symmetry_Int_Tables_number       1
_symmetry_cell_setting            triclinic
loop_
_symmetry_equiv_pos_as_xyz
'x, y, z'
_cell_length_a     32.889754
_cell_length_b     32.887074
_cell_length_c     64.851662
_cell_angle_alpha  90.004096
_cell_angle_beta   90.036419
_cell_angle_gamma 119.9929
loop_
_atom_site_label
_atom_site_type_symbol
_atom_site_fract_x
_atom_site_fract_y
_atom_site_fract_z
_atom_type_partial_charge
Co0 Co 0.15185 0.3556 0.08879 0.0
O1 O 0.12494 0.38897 0.07548 0.0
O2 O 0.17113 0.41402 0.10302 0.0
C3 C 0.17661 0.3377 0.05957 0.0
O4 O 0.18667 0.33186 0.10668 0.0
Co5 Co 0.11531 0.25005 0.08038 0.0
O6 O 0.17177 0.26074 0.09598 0.0
C7 C 0.06189 0.27846 0.10792 0.0
C8 C 0.14666 0.42134 0.08929 0.0
C9 C 0.19369 0.29674 0.10747 0.0
O10 O 0.09466 0.32169 0.10681 0.0
O11 O 0.06222 0.24555 0.09746 0.0
O12 O 0.20193 0.37843 0.06824 0.0
O13 O 0.13628 0.31073 0.06794 0.0
Co14 Co 0.79381 0.1529 0.25495 0.0
O15 O 0.73331 0.12605 0.24184 0.0
O16 O 0.75512 0.17255 0.26929 0.0
C17 C 0.83587 0.17714 0.22557 0.0
O18 O 0.85269 0.18772 0.27262 0.0
Co19 Co 0.8625 0.11605 0.2463 0.0
O20 O 0.90855 0.17228 0.26195 0.0
C21 C 0.78087 0.06284 0.27398 0.0
C22 C 0.72305 0.14802 0.25567 0.0
C23 C 0.89473 0.19446 0.27342 0.0
O24 O 0.7707 0.09585 0.27307 0.0
O25 O 0.81373 0.06297 0.26331 0.0
O26 O 0.82084 0.20275 0.23425 0.0
O27 O 0.82255 0.13692 0.23404 0.0
Co28 Co 0.63997 0.79319 0.42044 0.0
O29 O 0.6069 0.73415 0.40613 0.0
O30 O 0.5825 0.75174 0.43485 0.0
C31 C 0.65647 0.83784 0.39191 0.0
O32 O 0.66309 0.85025 0.43922 0.0
Co33 Co 0.74493 0.86421 0.41205 0.0
O34 O 0.7328 0.90839 0.42818 0.0
C35 C 0.7188 0.78129 0.43851 0.0
C36 C 0.57507 0.72147 0.42034 0.0
C37 C 0.69722 0.89291 0.44001 0.0
O38 O 0.67523 0.76961 0.4374 0.0
O39 O 0.75128 0.81582 0.42847 0.0
O40 O 0.61586 0.82128 0.40084 0.0
O41 O 0.68413 0.8246 0.39964 0.0
Co42 Co 0.83811 0.63888 0.58754 0.0
O43 O 0.86556 0.60556 0.57464 0.0
O44 O 0.8187 0.58069 0.60193 0.0
C45 C 0.81394 0.65611 0.55796 0.0
O46 O 0.8025 0.66233 0.60501 0.0
Co47 Co 0.87364 0.74405 0.57889 0.0
O48 O 0.81686 0.73318 0.59424 0.0
C49 C 0.92711 0.71673 0.60702 0.0
C50 C 0.84341 0.57324 0.5884 0.0
C51 C 0.79502 0.69715 0.6057 0.0
O52 O 0.89483 0.67331 0.60583 0.0
O53 O 0.92651 0.74934 0.59643 0.0
O54 O 0.78857 0.61552 0.56671 0.0
O55 O 0.85395 0.6835 0.56654 0.0
Co56 Co 0.19645 0.84534 0.75401 0.0
O57 O 0.25699 0.87307 0.74085 0.0
O58 O 0.23575 0.82619 0.76814 0.0
C59 C 0.15412 0.82095 0.72467 0.0
O60 O 0.1379 0.8095 0.77171 0.0
Co61 Co 0.12619 0.88046 0.74588 0.0
O62 O 0.08094 0.82368 0.76143 0.0
C63 C 0.20782 0.93437 0.77354 0.0
C64 C 0.26761 0.85107 0.75453 0.0
C65 C 0.09558 0.80188 0.77269 0.0
O66 O 0.21892 0.90205 0.77232 0.0
O67 O 0.17439 0.93366 0.76307 0.0
O68 O 0.16987 0.79575 0.73317 0.0
O69 O 0.16692 0.86095 0.73328 0.0
Co70 Co 0.35086 0.19922 0.92173 0.0
O71 O 0.38414 0.25998 0.90882 0.0
O72 O 0.40886 0.23812 0.93625 0.0
C73 C 0.33383 0.15751 0.89225 0.0
O74 O 0.32739 0.14023 0.93922 0.0
Co75 Co 0.2457 0.12963 0.91292 0.0
O76 O 0.25663 0.08376 0.9283 0.0
C77 C 0.27281 0.21039 0.941 0.0
C78 C 0.41629 0.27028 0.92271 0.0
C79 C 0.29259 0.09791 0.93983 0.0
O80 O 0.31622 0.22145 0.93988 0.0
O81 O 0.24025 0.17722 0.93037 0.0
O82 O 0.37445 0.17299 0.90104 0.0
O83 O 0.30641 0.17025 0.90068 0.0
Co84 Co 0.63456 0.84224 0.74604 0.0
O85 O 0.60113 0.86948 0.75905 0.0
O86 O 0.5761 0.82244 0.73178 0.0
C87 C 0.65273 0.8185 0.77551 0.0
O88 O 0.65808 0.80684 0.72847 0.0
Co89 Co 0.7401 0.87862 0.75442 0.0
O90 O 0.72932 0.82187 0.73903 0.0
C91 C 0.71167 0.93163 0.72657 0.0
C92 C 0.56872 0.84724 0.7453 0.0
C93 C 0.69312 0.79971 0.72767 0.0
O94 O 0.6684 0.89892 0.72771 0.0
O95 O 0.74451 0.93143 0.73714 0.0
O96 O 0.61193 0.79284 0.76694 0.0
O97 O 0.67961 0.8585 0.76686 0.0
Co98 Co 0.78891 0.63961 0.91279 0.0
O99 O 0.72877 0.60699 0.92626 0.0
O100 O 0.74904 0.5813 0.89867 0.0
C101 C 0.83203 0.65712 0.94187 0.0
O102 O 0.84699 0.66231 0.89476 0.0
Co103 Co 0.85934 0.74486 0.9209 0.0
O104 O 0.90423 0.73322 0.90512 0.0
C105 C 0.77747 0.7175 0.89348 0.0
C106 C 0.71762 0.57444 0.91249 0.0
C107 C 0.88934 0.69695 0.89374 0.0
O108 O 0.76611 0.67404 0.8948 0.0
O109 O 0.81129 0.75026 0.90375 0.0
O110 O 0.81587 0.61625 0.93324 0.0
O111 O 0.81911 0.68455 0.93357 0.0
Co112 Co 0.14553 0.79191 0.07971 0.0
O113 O 0.11776 0.73112 0.09263 0.0
O114 O 0.16473 0.75288 0.06537 0.0
C115 C 0.16985 0.83351 0.10924 0.0
O116 O 0.18143 0.85088 0.06225 0.0
Co117 Co 0.11051 0.86207 0.08834 0.0
O118 O 0.16753 0.90768 0.07304 0.0
C119 C 0.0567 0.78125 0.06025 0.0
C120 C 0.13987 0.72079 0.0789 0.0
C121 C 0.18922 0.89329 0.06159 0.0
O122 O 0.08887 0.76991 0.06138 0.0
O123 O 0.05749 0.81448 0.07089 0.0
O124 O 0.19507 0.81799 0.10058 0.0
O125 O 0.1299 0.82096 0.10064 0.0
Co126 Co 0.35155 0.14742 0.24716 0.0
O127 O 0.3848 0.11973 0.25994 0.0
O128 O 0.4098 0.16705 0.23278 0.0
C129 C 0.33421 0.17116 0.27682 0.0
O130 O 0.32816 0.1833 0.22984 0.0
Co131 Co 0.24634 0.11165 0.25579 0.0
O132 O 0.25719 0.16861 0.24058 0.0
C133 C 0.27381 0.05854 0.22755 0.0
C134 C 0.41716 0.14208 0.24621 0.0
C135 C 0.29328 0.19072 0.22918 0.0
O136 O 0.31719 0.09095 0.22873 0.0
O137 O 0.24119 0.05892 0.2382 0.0
O138 O 0.37484 0.19666 0.26813 0.0
O139 O 0.30688 0.13127 0.26814 0.0
Co140 Co 0.20145 0.35025 0.41459 0.0
O141 O 0.26035 0.38365 0.42903 0.0
O142 O 0.24246 0.40814 0.4004 0.0
C143 C 0.15638 0.33259 0.44304 0.0
O144 O 0.14462 0.3271 0.39567 0.0
Co145 Co 0.13081 0.24493 0.42246 0.0
O146 O 0.08663 0.25672 0.40612 0.0
C147 C 0.21428 0.27235 0.39617 0.0
C148 C 0.27272 0.41571 0.41493 0.0
C149 C 0.10216 0.29269 0.39452 0.0
O150 O 0.22574 0.31585 0.39747 0.0
O151 O 0.17972 0.23952 0.40605 0.0
O152 O 0.17266 0.37339 0.4343 0.0
O153 O 0.17008 0.30544 0.43517 0.0
Co154 Co 0.83903 0.19986 0.57955 0.0
O155 O 0.86654 0.26065 0.59241 0.0
O156 O 0.81954 0.23861 0.56512 0.0
C157 C 0.81492 0.15837 0.60908 0.0
O158 O 0.80353 0.14059 0.56217 0.0
Co159 Co 0.87551 0.13094 0.58843 0.0
O160 O 0.81849 0.08467 0.57329 0.0
C161 C 0.92836 0.21158 0.5602 0.0
C162 C 0.8445 0.27087 0.5786 0.0
C163 C 0.79631 0.09834 0.56173 0.0
O164 O 0.89571 0.22222 0.56126 0.0
O165 O 0.92819 0.17876 0.57093 0.0
O166 O 0.78948 0.17359 0.60038 0.0
O167 O 0.85501 0.17131 0.60056 0.0
H168 H 0.06757 0.63597 0.09108 0.0
H169 H 0.21498 0.50891 0.10087 0.0
H170 H 0.20986 0.70325 0.06848 0.0
H171 H 0.07438 0.43303 0.07629 0.0
H172 H 0.21286 0.58235 0.09761 0.0
H173 H 0.06811 0.56162 0.09375 0.0
C174 C 0.09881 0.63496 0.08664 0.0
C175 C 0.13866 0.67547 0.07944 0.0
C176 C 0.18252 0.54947 0.09304 0.0
C177 C 0.13993 0.59166 0.08309 0.0
C178 C 0.18354 0.50773 0.09502 0.0
C179 C 0.14481 0.46512 0.08879 0.0
C180 C 0.14199 0.54817 0.08538 0.0
C181 C 0.105 0.46534 0.08116 0.0
C182 C 0.09904 0.59273 0.08815 0.0
C183 C 0.17833 0.67256 0.07392 0.0
N184 N 0.10438 0.50627 0.07984 0.0
N185 N 0.17825 0.63141 0.07613 0.0
H186 H 0.70425 0.21654 0.26743 0.0
H187 H 0.42964 0.06957 0.25806 0.0
H188 H 0.63883 0.07593 0.24283 0.0
H189 H 0.50466 0.21219 0.23583 0.0
H190 H 0.50448 0.06996 0.26052 0.0
H191 H 0.62879 0.2147 0.26441 0.0
C192 C 0.67387 0.18516 0.26162 0.0
C193 C 0.67751 0.14634 0.25532 0.0
C194 C 0.5043 0.101 0.25504 0.0
C195 C 0.59177 0.14385 0.25217 0.0
C196 C 0.46188 0.10085 0.25366 0.0
C197 C 0.46124 0.14084 0.24663 0.0
C198 C 0.54626 0.14193 0.25003 0.0
C199 C 0.50381 0.18056 0.24114 0.0
C200 C 0.63115 0.1843 0.25977 0.0
C201 C 0.63732 0.10661 0.24775 0.0
N202 N 0.54485 0.18038 0.24323 0.0
N203 N 0.59583 0.10615 0.24656 0.0
H204 H 0.53845 0.6635 0.38714 0.0
H205 H 0.33045 0.45287 0.44824 0.0
H206 H 0.51354 0.67428 0.4517 0.0
H207 H 0.31923 0.47776 0.3837 0.0
H208 H 0.40536 0.52683 0.44979 0.0
H209 H 0.46547 0.58777 0.38569 0.0
C210 C 0.51774 0.64979 0.40103 0.0
C211 C 0.53187 0.67519 0.41956 0.0
C212 C 0.38645 0.51599 0.43532 0.0
C213 C 0.44888 0.5886 0.41801 0.0
C214 C 0.3439 0.47377 0.43437 0.0
C215 C 0.31861 0.45936 0.41581 0.0
C216 C 0.40421 0.54342 0.41748 0.0
C217 C 0.33754 0.4878 0.39833 0.0
C218 C 0.47607 0.60676 0.40015 0.0
C219 C 0.50368 0.65589 0.43709 0.0
N220 N 0.37941 0.52843 0.39956 0.0
N221 N 0.46356 0.61353 0.43592 0.0
H222 H 0.77426 0.48623 0.60003 0.0
H223 H 0.91788 0.35542 0.5902 0.0
H224 H 0.91478 0.56008 0.57536 0.0
H225 H 0.77512 0.28947 0.56817 0.0
H226 H 0.91877 0.43048 0.59258 0.0
H227 H 0.77487 0.41206 0.59673 0.0
C228 C 0.80537 0.48682 0.59416 0.0
C229 C 0.84453 0.52908 0.58794 0.0
C230 C 0.88742 0.39951 0.58716 0.0
C231 C 0.8456 0.44515 0.58443 0.0
C232 C 0.88683 0.35687 0.58582 0.0
C233 C 0.84642 0.31652 0.57889 0.0
C234 C 0.84681 0.4012 0.5822 0.0
C235 C 0.80705 0.32002 0.57341 0.0
C236 C 0.80553 0.44464 0.59213 0.0
C237 C 0.88387 0.52807 0.58025 0.0
N238 N 0.80794 0.3616 0.57547 0.0
N239 N 0.88364 0.4867 0.57889 0.0
H240 H 0.48153 0.77829 0.73372 0.0
H241 H 0.35208 0.92363 0.74212 0.0
H242 H 0.55617 0.91929 0.75792 0.0
H243 H 0.28597 0.78175 0.76521 0.0
H244 H 0.42689 0.92392 0.73974 0.0
H245 H 0.40772 0.77974 0.73659 0.0
C246 C 0.48236 0.80967 0.73941 0.0
C247 C 0.52473 0.84871 0.74564 0.0
C248 C 0.39591 0.8929 0.74537 0.0
C249 C 0.44123 0.85077 0.74861 0.0
C250 C 0.35342 0.89265 0.7467 0.0
C251 C 0.31311 0.85267 0.75397 0.0
C252 C 0.39745 0.85236 0.75067 0.0
C253 C 0.31648 0.81336 0.75971 0.0
C254 C 0.4404 0.81032 0.74117 0.0
C255 C 0.52405 0.88844 0.75306 0.0
N256 N 0.35788 0.81391 0.75767 0.0
N257 N 0.4829 0.88869 0.75416 0.0
H258 H 0.5034 0.28863 0.93444 0.0
H259 H 0.63366 0.56317 0.92527 0.0
H260 H 0.42878 0.3548 0.91 0.0
H261 H 0.69857 0.48655 0.90182 0.0
H262 H 0.55871 0.48889 0.92802 0.0
H263 H 0.57725 0.36378 0.93137 0.0
C264 C 0.50258 0.31912 0.92868 0.0
C265 C 0.46021 0.31577 0.92242 0.0
C266 C 0.58945 0.48861 0.92222 0.0
C267 C 0.54375 0.40117 0.91921 0.0
C268 C 0.63201 0.5307 0.92068 0.0
C269 C 0.67202 0.53071 0.91321 0.0
C270 C 0.58756 0.44637 0.91693 0.0
C271 C 0.66829 0.48788 0.90747 0.0
C272 C 0.54456 0.36166 0.9268 0.0
C273 C 0.4609 0.3561 0.91489 0.0
N274 N 0.62684 0.44718 0.90972 0.0
N275 N 0.50208 0.39743 0.91366 0.0
H276 H 0.2435 0.23714 0.22831 0.0
H277 H 0.24127 0.24818 0.10835 0.0
H278 H 0.33812 0.2113 0.19195 0.0
H279 H 0.211 0.33899 0.14527 0.0
H280 H 0.27696 0.23374 0.13857 0.0
H281 H 0.23058 0.27461 0.19833 0.0
C282 C 0.26218 0.2401 0.21413 0.0
C283 C 0.29173 0.22085 0.2126 0.0
C284 C 0.26334 0.25756 0.13994 0.0
C285 C 0.27629 0.26264 0.17817 0.0
C286 C 0.24291 0.26574 0.12272 0.0
C287 C 0.22297 0.29465 0.12432 0.0
C288 C 0.26265 0.2774 0.15902 0.0
C289 C 0.22608 0.31654 0.14333 0.0
C290 C 0.25488 0.26155 0.19705 0.0
C291 C 0.31511 0.22572 0.19384 0.0
N292 N 0.2446 0.30669 0.16006 0.0
N293 N 0.30613 0.24526 0.17723 0.0
H294 H 0.86995 0.21429 0.31071 0.0
H295 H 0.12964 0.33651 0.35712 0.0
H296 H 0.99088 0.2396 0.27483 0.0
H297 H 0.00606 0.24584 0.39269 0.0
H298 H 0.07963 0.32382 0.32698 0.0
H299 H 0.921 0.24912 0.34077 0.0
C300 C 0.90737 0.22824 0.30899 0.0
C301 C 0.92617 0.22364 0.29028 0.0
C302 C 0.06354 0.30742 0.3415 0.0
C303 C 0.9845 0.26357 0.32455 0.0
C304 C 0.09193 0.31482 0.35873 0.0
C305 C 0.07196 0.29183 0.3774 0.0
C306 C 0.01484 0.2776 0.34307 0.0
C307 C 0.02291 0.26386 0.37854 0.0
C308 C 0.93634 0.24777 0.32619 0.0
C309 C 0.9749 0.24204 0.28902 0.0
N310 N -0.004 0.25737 0.36158 0.0
N311 N 0.00239 0.26101 0.30597 0.0
H312 H 0.75075 0.00219 0.56113 0.0
H313 H 0.74308 0.98896 0.44101 0.0
H314 H 0.77568 0.12171 0.52426 0.0
H315 H 0.65543 0.86667 0.47787 0.0
H316 H 0.75528 0.0386 0.47116 0.0
H317 H 0.71481 0.95136 0.53114 0.0
C318 C 0.74788 0.01761 0.54683 0.0
C319 C 0.76653 0.0663 0.54515 0.0
C320 C 0.73266 0.00096 0.47254 0.0
C321 C 0.72648 0.00855 0.51072 0.0
C322 C 0.72581 0.97263 0.45536 0.0
C323 C 0.69844 0.92362 0.45697 0.0
C324 C 0.71302 0.98007 0.49158 0.0
C325 C 0.67675 0.90431 0.47594 0.0
C326 C 0.7273 0.98859 0.52974 0.0
C327 C 0.76174 0.08438 0.52626 0.0
N328 N 0.68528 0.93252 0.49263 0.0
N329 N 0.74309 0.05564 0.50965 0.0
H330 H 0.74792 0.74626 0.6067 0.0
H331 H 0.74245 0.75286 0.72664 0.0
H332 H 0.77614 0.65335 0.64316 0.0
H333 H 0.64899 0.78048 0.69026 0.0
H334 H 0.75576 0.71621 0.69647 0.0
H335 H 0.71146 0.75975 0.63688 0.0
C336 C 0.74568 0.72805 0.62094 0.0
C337 C 0.76531 0.69884 0.62244 0.0
C338 C 0.73162 0.72947 0.69522 0.0
C339 C 0.72472 0.71499 0.65709 0.0
C340 C 0.72409 0.75045 0.71241 0.0
C341 C 0.69476 0.76995 0.71093 0.0
C342 C 0.7107 0.72916 0.67629 0.0
C343 C 0.67182 0.76582 0.69211 0.0
C344 C 0.72481 0.73569 0.63814 0.0
C345 C 0.76139 0.67609 0.64129 0.0
N346 N 0.68104 0.74677 0.67539 0.0
N347 N 0.74244 0.68542 0.65801 0.0
H348 H 0.86257 0.65257 0.85644 0.0
H349 H 0.12174 0.78183 0.8096 0.0
H350 H 0.98549 0.74513 0.89205 0.0
H351 H -0.00061 0.75502 0.77438 0.0
H352 H 0.0714 0.74499 0.83964 0.0
H353 H 0.91269 0.66692 0.82622 0.0
C354 C 0.9002 0.67495 0.85806 0.0
C355 C 0.9199 0.69806 0.87675 0.0
C356 C 0.05561 0.74647 0.8252 0.0
C357 C 0.97714 0.71425 0.84232 0.0
C358 C 0.08418 0.76717 0.80801 0.0
C359 C 0.06474 0.77189 0.7895 0.0
C360 C 0.00722 0.72959 0.82374 0.0
C361 C 0.01585 0.75252 0.78841 0.0
C362 C 0.92864 0.68332 0.84078 0.0
C363 C 0.96885 0.72697 0.87789 0.0
N364 N 0.98876 0.73239 0.80534 0.0
N365 N -0.00418 0.73444 0.86087 0.0
H366 H 0.23678 0.98948 0.06066 0.0
H367 H 0.24334 0.00173 0.94075 0.0
H368 H 0.20828 0.86825 0.0242 0.0
H369 H 0.33648 0.12265 0.97729 0.0
H370 H 0.22976 0.95166 0.97089 0.0
H371 H 0.27374 0.03944 0.03054 0.0
C372 C 0.23905 0.97349 0.04642 0.0
C373 C 0.21919 0.92462 0.0449 0.0
C374 C 0.25389 0.98905 0.97218 0.0
C375 C 0.26037 0.98136 0.01033 0.0
C376 C 0.26157 0.01763 0.95501 0.0
C377 C 0.29086 0.06645 0.95654 0.0
C378 C 0.27465 0.00958 0.99114 0.0
C379 C 0.31367 0.08518 0.9754 0.0
C380 C 0.26022 0.002 0.02926 0.0
C381 C 0.2232 0.90576 0.02608 0.0
N382 N 0.30431 0.05684 0.99209 0.0
N383 N 0.24244 0.93405 0.00939 0.0
H384 H 0.26393 0.3808 0.04165 0.0
H385 H 0.18404 0.19077 0.95116 0.0
H386 H 0.12486 0.26043 0.03586 0.0
H387 H 0.32984 0.28498 0.96612 0.0
H388 H 0.16131 0.22505 0.97892 0.0
H389 H 0.28825 0.35403 0.01114 0.0
C390 C 0.23856 0.34884 0.03395 0.0
C391 C 0.1924 0.32264 0.04131 0.0
C392 C 0.19829 0.23838 0.97608 0.0
C393 C 0.21971 0.29228 0.00646 0.0
C394 C 0.21139 0.21896 0.96013 0.0
C395 C 0.25902 0.23462 0.95637 0.0
C396 C 0.23295 0.27394 0.98837 0.0
C397 C 0.29271 0.27148 0.96855 0.0
C398 C 0.25244 0.33361 0.01659 0.0
C399 C 0.16087 0.28156 0.03077 0.0
N400 N 0.27902 0.28977 0.98408 0.0
N401 N 0.17509 0.26772 0.01388 0.0
H402 H 0.85955 0.12435 0.20167 0.0
H403 H 0.04479 0.33635 0.13267 0.0
H404 H 0.88161 0.26465 0.20776 0.0
H405 H 0.99203 0.19014 0.11816 0.0
H406 H 0.98666 0.31238 0.16035 0.0
H407 H 0.91038 0.14934 0.17152 0.0
C408 C 0.87516 0.16051 0.19665 0.0
C409 C 0.86652 0.19255 0.20726 0.0
C410 C 0.98763 0.28567 0.15094 0.0
C411 C 0.92495 0.22151 0.17269 0.0
C412 C 0.02079 0.29928 0.13514 0.0
C413 C 0.02372 0.26523 0.12315 0.0
C414 C 0.95756 0.23772 0.1549 0.0
C415 C 0.99145 0.21773 0.12702 0.0
C416 C 0.90402 0.17471 0.17935 0.0
C417 C 0.88746 0.23888 0.2 0.0
N418 N 0.96013 0.20545 0.14267 0.0
N419 N 0.91606 0.25214 0.1832 0.0
H420 H 0.79642 0.99025 0.28242 0.0
H421 H 0.61304 0.88338 0.37536 0.0
H422 H 0.70906 0.048 0.30039 0.0
H423 H 0.73181 0.86289 0.36717 0.0
H424 H 0.63846 0.93496 0.34493 0.0
H425 H 0.76216 0.93288 0.31 0.0
C426 C 0.76972 0.99072 0.29203 0.0
C427 C 0.75609 0.02455 0.28918 0.0
C428 C 0.65877 0.91903 0.34985 0.0
C429 C 0.71679 0.9587 0.32099 0.0
C430 C 0.64434 0.88968 0.36715 0.0
C431 C 0.67052 0.86909 0.37381 0.0
C432 C 0.69919 0.9271 0.33907 0.0
C433 C 0.71072 0.87826 0.36265 0.0
C434 C 0.75031 0.95797 0.30786 0.0
C435 C 0.72099 0.0229 0.30211 0.0
N436 N 0.72372 0.90645 0.34583 0.0
N437 N 0.70269 0.99066 0.31756 0.0
H438 H 0.72745 0.6116 0.53928 0.0
H439 H 0.80778 0.80127 0.44864 0.0
H440 H 0.86599 0.73297 0.53407 0.0
H441 H 0.66202 0.705 0.46275 0.0
H442 H 0.83062 0.76694 0.47639 0.0
H443 H 0.70379 0.63708 0.50817 0.0
C444 C 0.75285 0.64351 0.53158 0.0
C445 C 0.79864 0.6704 0.5393 0.0
C446 C 0.79363 0.75313 0.47333 0.0
C447 C 0.7721 0.6993 0.50374 0.0
C448 C 0.78048 0.77256 0.45739 0.0
C449 C 0.73281 0.75644 0.45346 0.0
C450 C 0.75898 0.71714 0.48544 0.0
C451 C 0.69918 0.7189 0.46533 0.0
C452 C 0.73936 0.65799 0.51386 0.0
C453 C 0.83024 0.71136 0.52872 0.0
N454 N 0.71291 0.7007 0.48089 0.0
N455 N 0.81639 0.72451 0.51149 0.0
H456 H 0.12818 0.87273 0.70127 0.0
H457 H 0.9455 0.65967 0.63174 0.0
H458 H 0.10962 0.73364 0.70663 0.0
H459 H -0.00481 0.80554 0.61773 0.0
H460 H 0.00356 0.68442 0.65954 0.0
H461 H 0.07671 0.8471 0.67127 0.0
C462 C 0.11321 0.83671 0.69612 0.0
C463 C 0.12305 0.8052 0.70647 0.0
C464 C 0.00192 0.71089 0.65022 0.0
C465 C 0.0639 0.77551 0.67208 0.0
C466 C 0.96879 0.69683 0.63435 0.0
C467 C 0.96508 0.73053 0.62244 0.0
C468 C 0.03114 0.75893 0.65433 0.0
C469 C -0.00356 0.77819 0.62651 0.0
C470 C 0.08398 0.82214 0.67891 0.0
C471 C 0.10286 0.75901 0.69906 0.0
N472 N 0.02775 0.79088 0.64221 0.0
N473 N 0.07392 0.7454 0.68236 0.0
H474 H 0.37733 0.11349 0.8745 0.0
H475 H 0.18932 0.00452 0.78321 0.0
H476 H 0.25731 0.13259 0.86811 0.0
H477 H 0.28177 0.95129 0.799 0.0
H478 H 0.2236 0.06168 0.81092 0.0
H479 H 0.35118 0.06264 0.84389 0.0
C480 C 0.34559 0.10706 0.86664 0.0
C481 C 0.31928 0.12702 0.87388 0.0
C482 C 0.23655 0.03764 0.80827 0.0
C483 C 0.28965 0.06966 0.83891 0.0
C484 C 0.21713 0.00502 0.79236 0.0
C485 C 0.23225 0.97253 0.78885 0.0
C486 C 0.27158 0.03812 0.82079 0.0
C487 C 0.26868 0.97533 0.80123 0.0
C488 C 0.33072 0.07809 0.84922 0.0
C489 C 0.2785 0.11768 0.86313 0.0
N490 N 0.28697 0.00741 0.81674 0.0
N491 N 0.26501 0.08977 0.84619 0.0
H492 H 0.73055 0.87106 0.79875 0.0
H493 H 0.70067 0.66001 0.86954 0.0
H494 H 0.61017 0.73174 0.79403 0.0
H495 H 0.7985 0.80615 0.88228 0.0
H496 H 0.66676 0.68409 0.84176 0.0
H497 H 0.75671 0.84642 0.82894 0.0
C498 C 0.70959 0.8352 0.80408 0.0
C499 C 0.66821 0.80332 0.79384 0.0
C500 C 0.69536 0.71079 0.85079 0.0
C501 C 0.69802 0.77476 0.82848 0.0
C502 C 0.71477 0.69711 0.86665 0.0
C503 C 0.75285 0.73106 0.87819 0.0
C504 C 0.71448 0.75869 0.84632 0.0
C505 C 0.76941 0.77862 0.87379 0.0
C506 C 0.72444 0.82119 0.8214 0.0
C507 C 0.64233 0.75737 0.8015 0.0
N508 N 0.75044 0.79094 0.8581 0.0
N509 N 0.65784 0.74431 0.81832 0.0
H510 H 0.87588 0.61317 0.95936 0.0
H511 H 0.98726 0.80081 0.05062 0.0
H512 H 0.85865 0.73431 0.9658 0.0
H513 H 0.0393 0.70755 0.03452 0.0
H514 H 0.93014 0.76735 0.02285 0.0
H515 H 0.92743 0.63915 0.98975 0.0
C516 C 0.88289 0.64514 0.96718 0.0
C517 C 0.86319 0.67177 0.96004 0.0
C518 C 0.95393 0.75405 0.02544 0.0
C519 C 0.92136 0.70121 0.99476 0.0
C520 C 0.98651 0.77299 0.04139 0.0
C521 C 0.01864 0.75737 0.04484 0.0
C522 C 0.95308 0.71899 0.01283 0.0
C523 C 0.01554 0.72099 0.03234 0.0
C524 C 0.91226 0.65991 0.98447 0.0
C525 C 0.8733 0.71285 0.97072 0.0
N526 N 0.98346 0.70314 0.01681 0.0
N527 N 0.90157 0.72622 0.98755 0.0
H528 H 0.11791 0.85852 0.13301 0.0
H529 H 0.33096 0.04074 0.20263 0.0
H530 H 0.25721 0.87785 0.12724 0.0
H531 H 0.18508 0.99015 0.21692 0.0
H532 H 0.30626 0.98297 0.17472 0.0
H533 H 0.14347 0.90932 0.16322 0.0
C534 C 0.15396 0.87352 0.13812 0.0
C535 C 0.18556 0.86411 0.12759 0.0
C536 C 0.27978 0.98435 0.18412 0.0
C537 C 0.21517 0.9225 0.16221 0.0
C538 C 0.29381 0.01731 0.20005 0.0
C539 C 0.26008 0.02071 0.21207 0.0
C540 C 0.23175 0.95497 0.18006 0.0
C541 C 0.21244 0.98917 0.20805 0.0
C542 C 0.16849 0.90236 0.15544 0.0
C543 C 0.23178 0.88429 0.13494 0.0
N544 N 0.19977 0.95803 0.19229 0.0
N545 N 0.24536 0.91288 0.15177 0.0
H546 H 0.25771 0.11849 0.30076 0.0
H547 H 0.29067 0.32976 0.37205 0.0
H548 H 0.37784 0.2578 0.29541 0.0
H549 H 0.19438 0.18368 0.38558 0.0
H550 H 0.32383 0.30549 0.34408 0.0
H551 H 0.23349 0.14309 0.3316 0.0
C552 C 0.279 0.15434 0.30609 0.0
C553 C 0.31973 0.18624 0.29548 0.0
C554 C 0.29578 0.27885 0.35334 0.0
C555 C 0.29217 0.21473 0.33083 0.0
C556 C 0.27682 0.29264 0.36934 0.0
C557 C 0.23925 0.25875 0.3811 0.0
C558 C 0.27672 0.2309 0.34897 0.0
C559 C 0.22302 0.21116 0.37689 0.0
C560 C 0.26529 0.16831 0.32377 0.0
C561 C 0.34613 0.23216 0.30314 0.0
N562 N 0.24147 0.19873 0.36105 0.0
N563 N 0.3317 0.24519 0.32031 0.0
H564 H 0.13005 0.2556 0.46686 0.0
H565 H 0.94519 0.2855 0.53473 0.0
H566 H 0.11072 0.37541 0.46011 0.0
H567 H -0.00213 0.19247 0.55024 0.0
H568 H 0.00321 0.31853 0.50691 0.0
H569 H 0.07818 0.23042 0.49662 0.0
C570 C 0.1148 0.27663 0.47164 0.0
C571 C 0.12461 0.31762 0.46098 0.0
C572 C 0.00221 0.29119 0.51657 0.0
C573 C 0.06496 0.28889 0.49515 0.0
C574 C 0.96913 0.27228 0.53245 0.0
C575 C 0.96625 0.23578 0.54478 0.0
C576 C 0.03222 0.27311 0.51289 0.0
C577 C -0.00159 0.2203 0.54112 0.0
C578 C 0.08534 0.26235 0.48873 0.0
C579 C 0.104 0.34357 0.46793 0.0
N580 N 0.02964 0.23871 0.52542 0.0
N581 N 0.07481 0.3286 0.48456 0.0
H582 H 0.65411 0.9484 0.70139 0.0
H583 H 0.8673 0.13438 0.63313 0.0
H584 H 0.80008 0.00158 0.71658 0.0
H585 H 0.7272 0.11264 0.62663 0.0
H586 H 0.84174 0.08317 0.66318 0.0
H587 H 0.67854 0.00665 0.67371 0.0
C588 C 0.69121 0.9725 0.69906 0.0
C589 C 0.72507 0.96968 0.71126 0.0
C590 C 0.81654 0.0897 0.65528 0.0
C591 C 0.7531 0.03596 0.67952 0.0
C592 C 0.83107 0.11877 0.63804 0.0
C593 C 0.79925 0.12761 0.62736 0.0
C594 C 0.76963 0.06874 0.66179 0.0
C595 C 0.75281 0.10666 0.63447 0.0
C596 C 0.70508 0.00573 0.68326 0.0
C597 C 0.77262 0.00206 0.70756 0.0
N598 N 0.73923 0.07784 0.6512 0.0
N599 N 0.78515 0.03345 0.69192 0.0
loop_
_geom_bond_atom_site_label_1
_geom_bond_atom_site_label_2
_geom_bond_distance
_geom_bond_site_symmetry_2
_ccdc_geom_bond_type
Co0 O1 2.216 . S
Co0 O2 2.091 . S
Co0 O4 2.004 . S
Co0 O10 2.021 . S
Co0 O12 2.137 . S
Co0 O13 2.244 . S
O1 Co0 2.216 . S
O1 C8 1.247 . S
O2 Co0 2.091 . S
O2 C8 1.261 . S
C3 O12 1.247 . S
C3 O13 1.272 . S
O4 Co0 2.004 . S
O4 C9 1.259 . S
Co5 O6 2.061 . S
Co5 O11 2.052 . S
Co5 O13 2.135 . S
O6 Co5 2.061 . S
O6 C9 1.235 . S
C7 O10 1.238 . S
C7 O11 1.241 . S
C8 O1 1.247 . S
C8 O2 1.261 . S
C9 O4 1.259 . S
C9 O6 1.235 . S
O10 Co0 2.021 . S
O10 C7 1.238 . S
O11 Co5 2.052 . S
O11 C7 1.241 . S
O12 Co0 2.137 . S
O12 C3 1.247 . S
O13 Co0 2.244 . S
O13 C3 1.272 . S
O13 Co5 2.135 . S
Co14 O15 2.216 . S
Co14 O16 2.091 . S
Co14 O18 2.004 . S
Co14 O24 2.021 . S
Co14 O26 2.137 . S
Co14 O27 2.244 . S
O15 Co14 2.216 . S
O15 C22 1.247 . S
O16 Co14 2.091 . S
O16 C22 1.261 . S
C17 O26 1.247 . S
C17 O27 1.272 . S
O18 Co14 2.004 . S
O18 C23 1.259 . S
Co19 O20 2.061 . S
Co19 O25 2.052 . S
Co19 O27 2.135 . S
O20 Co19 2.061 . S
O20 C23 1.235 . S
C21 O24 1.238 . S
C21 O25 1.241 . S
C22 O15 1.247 . S
C22 O16 1.261 . S
C23 O18 1.259 . S
C23 O20 1.235 . S
O24 Co14 2.021 . S
O24 C21 1.238 . S
O25 Co19 2.052 . S
O25 C21 1.241 . S
O26 Co14 2.137 . S
O26 C17 1.247 . S
O27 Co14 2.244 . S
O27 C17 1.272 . S
O27 Co19 2.135 . S
Co28 O29 2.216 . S
Co28 O30 2.091 . S
Co28 O32 2.004 . S
Co28 O38 2.021 . S
Co28 O40 2.137 . S
Co28 O41 2.244 . S
O29 Co28 2.216 . S
O29 C36 1.247 . S
O30 Co28 2.091 . S
O30 C36 1.261 . S
C31 O40 1.247 . S
C31 O41 1.272 . S
O32 Co28 2.004 . S
O32 C37 1.259 . S
Co33 O34 2.061 . S
Co33 O39 2.052 . S
Co33 O41 2.135 . S
O34 Co33 2.061 . S
O34 C37 1.235 . S
C35 O38 1.238 . S
C35 O39 1.241 . S
C36 O29 1.247 . S
C36 O30 1.261 . S
C37 O32 1.259 . S
C37 O34 1.235 . S
O38 Co28 2.021 . S
O38 C35 1.238 . S
O39 Co33 2.052 . S
O39 C35 1.241 . S
O40 Co28 2.137 . S
O40 C31 1.247 . S
O41 Co28 2.244 . S
O41 C31 1.272 . S
O41 Co33 2.135 . S
Co42 O43 2.216 . S
Co42 O44 2.091 . S
Co42 O46 2.004 . S
Co42 O52 2.021 . S
Co42 O54 2.137 . S
Co42 O55 2.244 . S
O43 Co42 2.216 . S
O43 C50 1.247 . S
O44 Co42 2.091 . S
O44 C50 1.261 . S
C45 O54 1.247 . S
C45 O55 1.272 . S
O46 Co42 2.004 . S
O46 C51 1.259 . S
Co47 O48 2.061 . S
Co47 O53 2.052 . S
Co47 O55 2.135 . S
O48 Co47 2.061 . S
O48 C51 1.235 . S
C49 O52 1.238 . S
C49 O53 1.241 . S
C50 O43 1.247 . S
C50 O44 1.261 . S
C51 O46 1.259 . S
C51 O48 1.235 . S
O52 Co42 2.021 . S
O52 C49 1.238 . S
O53 Co47 2.052 . S
O53 C49 1.241 . S
O54 Co42 2.137 . S
O54 C45 1.247 . S
O55 Co42 2.244 . S
O55 C45 1.272 . S
O55 Co47 2.135 . S
Co56 O57 2.216 . S
Co56 O58 2.091 . S
Co56 O60 2.004 . S
Co56 O66 2.021 . S
Co56 O68 2.137 . S
Co56 O69 2.244 . S
O57 Co56 2.216 . S
O57 C64 1.247 . S
O58 Co56 2.091 . S
O58 C64 1.261 . S
C59 O68 1.247 . S
C59 O69 1.272 . S
O60 Co56 2.004 . S
O60 C65 1.259 . S
Co61 O62 2.061 . S
Co61 O67 2.052 . S
Co61 O69 2.135 . S
O62 Co61 2.061 . S
O62 C65 1.235 . S
C63 O66 1.238 . S
C63 O67 1.241 . S
C64 O57 1.247 . S
C64 O58 1.261 . S
C65 O60 1.259 . S
C65 O62 1.235 . S
O66 Co56 2.021 . S
O66 C63 1.238 . S
O67 Co61 2.052 . S
O67 C63 1.241 . S
O68 Co56 2.137 . S
O68 C59 1.247 . S
O69 Co56 2.244 . S
O69 C59 1.272 . S
O69 Co61 2.135 . S
Co70 O71 2.216 . S
Co70 O72 2.091 . S
Co70 O74 2.004 . S
Co70 O80 2.021 . S
Co70 O82 2.137 . S
Co70 O83 2.244 . S
O71 Co70 2.216 . S
O71 C78 1.247 . S
O72 Co70 2.091 . S
O72 C78 1.261 . S
C73 O82 1.247 . S
C73 O83 1.272 . S
O74 Co70 2.004 . S
O74 C79 1.259 . S
Co75 O76 2.061 . S
Co75 O81 2.052 . S
Co75 O83 2.135 . S
O76 Co75 2.061 . S
O76 C79 1.235 . S
C77 O80 1.238 . S
C77 O81 1.241 . S
C78 O71 1.247 . S
C78 O72 1.261 . S
C79 O74 1.259 . S
C79 O76 1.235 . S
O80 Co70 2.021 . S
O80 C77 1.238 . S
O81 Co75 2.052 . S
O81 C77 1.241 . S
O82 Co70 2.137 . S
O82 C73 1.247 . S
O83 Co70 2.244 . S
O83 C73 1.272 . S
O83 Co75 2.135 . S
Co84 O85 2.216 . S
Co84 O86 2.091 . S
Co84 O88 2.004 . S
Co84 O94 2.021 . S
Co84 O96 2.137 . S
Co84 O97 2.244 . S
O85 Co84 2.216 . S
O85 C92 1.247 . S
O86 Co84 2.091 . S
O86 C92 1.261 . S
C87 O96 1.247 . S
C87 O97 1.272 . S
O88 Co84 2.004 . S
O88 C93 1.259 . S
Co89 O90 2.061 . S
Co89 O95 2.052 . S
Co89 O97 2.135 . S
O90 Co89 2.061 . S
O90 C93 1.235 . S
C91 O94 1.238 . S
C91 O95 1.241 . S
C92 O85 1.247 . S
C92 O86 1.261 . S
C93 O88 1.259 . S
C93 O90 1.235 . S
O94 Co84 2.021 . S
O94 C91 1.238 . S
O95 Co89 2.052 . S
O95 C91 1.241 . S
O96 Co84 2.137 . S
O96 C87 1.247 . S
O97 Co84 2.244 . S
O97 C87 1.272 . S
O97 Co89 2.135 . S
Co98 O99 2.216 . S
Co98 O100 2.091 . S
Co98 O102 2.004 . S
Co98 O108 2.021 . S
Co98 O110 2.137 . S
Co98 O111 2.244 . S
O99 Co98 2.216 . S
O99 C106 1.247 . S
O100 Co98 2.091 . S
O100 C106 1.261 . S
C101 O110 1.247 . S
C101 O111 1.272 . S
O102 Co98 2.004 . S
O102 C107 1.259 . S
Co103 O104 2.061 . S
Co103 O109 2.052 . S
Co103 O111 2.135 . S
O104 Co103 2.061 . S
O104 C107 1.235 . S
C105 O108 1.238 . S
C105 O109 1.241 . S
C106 O99 1.247 . S
C106 O100 1.261 . S
C107 O102 1.259 . S
C107 O104 1.235 . S
O108 Co98 2.021 . S
O108 C105 1.238 . S
O109 Co103 2.052 . S
O109 C105 1.241 . S
O110 Co98 2.137 . S
O110 C101 1.247 . S
O111 Co98 2.244 . S
O111 C101 1.272 . S
O111 Co103 2.135 . S
Co112 O113 2.216 . S
Co112 O114 2.091 . S
Co112 O116 2.004 . S
Co112 O122 2.021 . S
Co112 O124 2.137 . S
Co112 O125 2.244 . S
O113 Co112 2.216 . S
O113 C120 1.247 . S
O114 Co112 2.091 . S
O114 C120 1.261 . S
C115 O124 1.247 . S
C115 O125 1.272 . S
O116 Co112 2.004 . S
O116 C121 1.259 . S
Co117 O118 2.061 . S
Co117 O123 2.052 . S
Co117 O125 2.135 . S
O118 Co117 2.061 . S
O118 C121 1.235 . S
C119 O122 1.238 . S
C119 O123 1.241 . S
C120 O113 1.247 . S
C120 O114 1.261 . S
C121 O116 1.259 . S
C121 O118 1.235 . S
O122 Co112 2.021 . S
O122 C119 1.238 . S
O123 Co117 2.052 . S
O123 C119 1.241 . S
O124 Co112 2.137 . S
O124 C115 1.247 . S
O125 Co112 2.244 . S
O125 C115 1.272 . S
O125 Co117 2.135 . S
Co126 O127 2.216 . S
Co126 O128 2.091 . S
Co126 O130 2.004 . S
Co126 O136 2.021 . S
Co126 O138 2.137 . S
Co126 O139 2.244 . S
O127 Co126 2.216 . S
O127 C134 1.247 . S
O128 Co126 2.091 . S
O128 C134 1.261 . S
C129 O138 1.247 . S
C129 O139 1.272 . S
O130 Co126 2.004 . S
O130 C135 1.259 . S
Co131 O132 2.061 . S
Co131 O137 2.052 . S
Co131 O139 2.135 . S
O132 Co131 2.061 . S
O132 C135 1.235 . S
C133 O136 1.238 . S
C133 O137 1.241 . S
C134 O127 1.247 . S
C134 O128 1.261 . S
C135 O130 1.259 . S
C135 O132 1.235 . S
O136 Co126 2.021 . S
O136 C133 1.238 . S
O137 Co131 2.052 . S
O137 C133 1.241 . S
O138 Co126 2.137 . S
O138 C129 1.247 . S
O139 Co126 2.244 . S
O139 C129 1.272 . S
O139 Co131 2.135 . S
Co140 O141 2.216 . S
Co140 O142 2.091 . S
Co140 O144 2.004 . S
Co140 O150 2.021 . S
Co140 O152 2.137 . S
Co140 O153 2.244 . S
O141 Co140 2.216 . S
O141 C148 1.247 . S
O142 Co140 2.091 . S
O142 C148 1.261 . S
C143 O152 1.247 . S
C143 O153 1.272 . S
O144 Co140 2.004 . S
O144 C149 1.259 . S
Co145 O146 2.061 . S
Co145 O151 2.052 . S
Co145 O153 2.135 . S
O146 Co145 2.061 . S
O146 C149 1.235 . S
C147 O150 1.238 . S
C147 O151 1.241 . S
C148 O141 1.247 . S
C148 O142 1.261 . S
C149 O144 1.259 . S
C149 O146 1.235 . S
O150 Co140 2.021 . S
O150 C147 1.238 . S
O151 Co145 2.052 . S
O151 C147 1.241 . S
O152 Co140 2.137 . S
O152 C143 1.247 . S
O153 Co140 2.244 . S
O153 C143 1.272 . S
O153 Co145 2.135 . S
Co154 O155 2.216 . S
Co154 O156 2.091 . S
Co154 O158 2.004 . S
Co154 O164 2.021 . S
Co154 O166 2.137 . S
Co154 O167 2.244 . S
O155 Co154 2.216 . S
O155 C162 1.247 . S
O156 Co154 2.091 . S
O156 C162 1.261 . S
C157 O166 1.247 . S
C157 O167 1.272 . S
O158 Co154 2.004 . S
O158 C163 1.259 . S
Co159 O160 2.061 . S
Co159 O165 2.052 . S
Co159 O167 2.135 . S
O160 Co159 2.061 . S
O160 C163 1.235 . S
C161 O164 1.238 . S
C161 O165 1.241 . S
C162 O155 1.247 . S
C162 O156 1.261 . S
C163 O158 1.259 . S
C163 O160 1.235 . S
O164 Co154 2.021 . S
O164 C161 1.238 . S
O165 Co159 2.052 . S
O165 C161 1.241 . S
O166 Co154 2.137 . S
O166 C157 1.247 . S
O167 Co154 2.244 . S
O167 C157 1.272 . S
O167 Co159 2.135 . S
H168 C174 0.930 . S
H169 C178 0.930 . S
H170 C183 0.929 . S
H171 C181 0.929 . S
H172 C176 0.929 . S
H173 C182 0.929 . S
C174 H168 0.930 . S
C174 C175 1.367 . S
C174 C182 1.378 . S
C175 C174 1.367 . S
C175 C183 1.433 . S
C176 H172 0.929 . S
C176 C178 1.378 . S
C176 C180 1.350 . S
C177 C180 1.463 . S
C177 C182 1.350 . S
C177 N185 1.427 . S
C178 H169 0.930 . S
C178 C176 1.378 . S
C178 C179 1.367 . S
C179 C178 1.367 . S
C179 C181 1.433 . S
C180 C176 1.350 . S
C180 C177 1.463 . S
C180 N184 1.427 . S
C181 H171 0.929 . S
C181 C179 1.433 . S
C181 N184 1.384 . S
C182 H173 0.929 . S
C182 C174 1.378 . S
C182 C177 1.350 . S
C183 H170 0.929 . S
C183 C175 1.433 . S
C183 N185 1.384 . S
N184 C180 1.427 . S
N184 C181 1.384 . S
N185 C177 1.427 . S
N185 C183 1.384 . S
H186 C192 0.930 . S
H187 C196 0.930 . S
H188 C201 0.929 . S
H189 C199 0.929 . S
H190 C194 0.929 . S
H191 C200 0.929 . S
C192 H186 0.930 . S
C192 C193 1.367 . S
C192 C200 1.378 . S
C193 C192 1.367 . S
C193 C201 1.433 . S
C194 H190 0.929 . S
C194 C196 1.378 . S
C194 C198 1.350 . S
C195 C198 1.463 . S
C195 C200 1.350 . S
C195 N203 1.427 . S
C196 H187 0.930 . S
C196 C194 1.378 . S
C196 C197 1.367 . S
C197 C196 1.367 . S
C197 C199 1.433 . S
C198 C194 1.350 . S
C198 C195 1.463 . S
C198 N202 1.427 . S
C199 H189 0.929 . S
C199 C197 1.433 . S
C199 N202 1.384 . S
C200 H191 0.929 . S
C200 C192 1.378 . S
C200 C195 1.350 . S
C201 H188 0.929 . S
C201 C193 1.433 . S
C201 N203 1.384 . S
N202 C198 1.427 . S
N202 C199 1.384 . S
N203 C195 1.427 . S
N203 C201 1.384 . S
H204 C210 0.930 . S
H205 C214 0.930 . S
H206 C219 0.929 . S
H207 C217 0.929 . S
H208 C212 0.929 . S
H209 C218 0.929 . S
C210 H204 0.930 . S
C210 C211 1.367 . S
C210 C218 1.378 . S
C211 C210 1.367 . S
C211 C219 1.433 . S
C212 H208 0.929 . S
C212 C214 1.378 . S
C212 C216 1.350 . S
C213 C216 1.463 . S
C213 C218 1.350 . S
C213 N221 1.427 . S
C214 H205 0.930 . S
C214 C212 1.378 . S
C214 C215 1.367 . S
C215 C214 1.367 . S
C215 C217 1.433 . S
C216 C212 1.350 . S
C216 C213 1.463 . S
C216 N220 1.427 . S
C217 H207 0.929 . S
C217 C215 1.433 . S
C217 N220 1.384 . S
C218 H209 0.929 . S
C218 C210 1.378 . S
C218 C213 1.350 . S
C219 H206 0.929 . S
C219 C211 1.433 . S
C219 N221 1.384 . S
N220 C216 1.427 . S
N220 C217 1.384 . S
N221 C213 1.427 . S
N221 C219 1.384 . S
H222 C228 0.930 . S
H223 C232 0.930 . S
H224 C237 0.929 . S
H225 C235 0.929 . S
H226 C230 0.929 . S
H227 C236 0.929 . S
C228 H222 0.930 . S
C228 C229 1.367 . S
C228 C236 1.378 . S
C229 C228 1.367 . S
C229 C237 1.433 . S
C230 H226 0.929 . S
C230 C232 1.378 . S
C230 C234 1.350 . S
C231 C234 1.463 . S
C231 C236 1.350 . S
C231 N239 1.427 . S
C232 H223 0.930 . S
C232 C230 1.378 . S
C232 C233 1.367 . S
C233 C232 1.367 . S
C233 C235 1.433 . S
C234 C230 1.350 . S
C234 C231 1.463 . S
C234 N238 1.427 . S
C235 H225 0.929 . S
C235 C233 1.433 . S
C235 N238 1.384 . S
C236 H227 0.929 . S
C236 C228 1.378 . S
C236 C231 1.350 . S
C237 H224 0.929 . S
C237 C229 1.433 . S
C237 N239 1.384 . S
N238 C234 1.427 . S
N238 C235 1.384 . S
N239 C231 1.427 . S
N239 C237 1.384 . S
H240 C246 0.930 . S
H241 C250 0.930 . S
H242 C255 0.929 . S
H243 C253 0.929 . S
H244 C248 0.929 . S
H245 C254 0.929 . S
C246 H240 0.930 . S
C246 C247 1.367 . S
C246 C254 1.378 . S
C247 C246 1.367 . S
C247 C255 1.433 . S
C248 H244 0.929 . S
C248 C250 1.378 . S
C248 C252 1.350 . S
C249 C252 1.463 . S
C249 C254 1.350 . S
C249 N257 1.427 . S
C250 H241 0.930 . S
C250 C248 1.378 . S
C250 C251 1.367 . S
C251 C250 1.367 . S
C251 C253 1.433 . S
C252 C248 1.350 . S
C252 C249 1.463 . S
C252 N256 1.427 . S
C253 H243 0.929 . S
C253 C251 1.433 . S
C253 N256 1.384 . S
C254 H245 0.929 . S
C254 C246 1.378 . S
C254 C249 1.350 . S
C255 H242 0.929 . S
C255 C247 1.433 . S
C255 N257 1.384 . S
N256 C252 1.427 . S
N256 C253 1.384 . S
N257 C249 1.427 . S
N257 C255 1.384 . S
H258 C264 0.930 . S
H259 C268 0.930 . S
H260 C273 0.929 . S
H261 C271 0.929 . S
H262 C266 0.929 . S
H263 C272 0.929 . S
C264 H258 0.930 . S
C264 C265 1.367 . S
C264 C272 1.378 . S
C265 C264 1.367 . S
C265 C273 1.433 . S
C266 H262 0.929 . S
C266 C268 1.378 . S
C266 C270 1.350 . S
C267 C270 1.463 . S
C267 C272 1.350 . S
C267 N275 1.427 . S
C268 H259 0.930 . S
C268 C266 1.378 . S
C268 C269 1.367 . S
C269 C268 1.367 . S
C269 C271 1.433 . S
C270 C266 1.350 . S
C270 C267 1.463 . S
C270 N274 1.427 . S
C271 H261 0.929 . S
C271 C269 1.433 . S
C271 N274 1.384 . S
C272 H263 0.929 . S
C272 C264 1.378 . S
C272 C267 1.350 . S
C273 H260 0.929 . S
C273 C265 1.433 . S
C273 N275 1.384 . S
N274 C270 1.427 . S
N274 C271 1.384 . S
N275 C267 1.427 . S
N275 C273 1.384 . S
H276 C282 0.930 . S
H277 C286 0.930 . S
H278 C291 0.929 . S
H279 C289 0.929 . S
H280 C284 0.929 . S
H281 C290 0.929 . S
C282 H276 0.930 . S
C282 C283 1.367 . S
C282 C290 1.378 . S
C283 C282 1.367 . S
C283 C291 1.433 . S
C284 H280 0.929 . S
C284 C286 1.378 . S
C284 C288 1.350 . S
C285 C288 1.463 . S
C285 C290 1.350 . S
C285 N293 1.427 . S
C286 H277 0.930 . S
C286 C284 1.378 . S
C286 C287 1.367 . S
C287 C286 1.367 . S
C287 C289 1.433 . S
C288 C284 1.350 . S
C288 C285 1.463 . S
C288 N292 1.427 . S
C289 H279 0.929 . S
C289 C287 1.433 . S
C289 N292 1.384 . S
C290 H281 0.929 . S
C290 C282 1.378 . S
C290 C285 1.350 . S
C291 H278 0.929 . S
C291 C283 1.433 . S
C291 N293 1.384 . S
N292 C288 1.427 . S
N292 C289 1.384 . S
N293 C285 1.427 . S
N293 C291 1.384 . S
H294 C300 0.930 . S
H295 C304 0.930 . S
H296 C309 0.929 . S
H297 C307 0.929 . S
H298 C302 0.929 . S
H299 C308 0.929 . S
C300 H294 0.930 . S
C300 C301 1.367 . S
C300 C308 1.378 . S
C301 C300 1.367 . S
C301 C309 1.433 . S
C302 H298 0.929 . S
C302 C304 1.378 . S
C302 C306 1.350 . S
C303 C306 1.463 1_655 S
C303 C308 1.350 . S
C303 N311 1.427 . S
C304 H295 0.930 . S
C304 C302 1.378 . S
C304 C305 1.367 . S
C305 C304 1.367 . S
C305 C307 1.433 . S
C306 C302 1.350 . S
C306 C303 1.463 1_455 S
C306 N310 1.427 . S
C307 H297 0.929 . S
C307 C305 1.433 . S
C307 N310 1.384 . S
C308 H299 0.929 . S
C308 C300 1.378 . S
C308 C303 1.350 . S
C309 H296 0.929 . S
C309 C301 1.433 . S
C309 N311 1.384 . S
N310 C306 1.427 . S
N310 C307 1.384 . S
N311 C303 1.427 . S
N311 C309 1.384 . S
H312 C318 0.930 . S
H313 C322 0.930 . S
H314 C327 0.929 . S
H315 C325 0.929 . S
H316 C320 0.931 . S
H317 C326 0.931 . S
C318 H312 0.930 . S
C318 C319 1.367 . S
C318 C326 1.378 . S
C319 C318 1.367 . S
C319 C327 1.433 . S
C320 H316 0.931 . S
C320 C322 1.378 . S
C320 C324 1.350 . S
C321 C324 1.463 1_545 S
C321 C326 1.350 . S
C321 N329 1.427 . S
C322 H313 0.930 . S
C322 C320 1.378 . S
C322 C323 1.367 . S
C323 C322 1.367 . S
C323 C325 1.433 . S
C324 C320 1.350 . S
C324 C321 1.463 1_565 S
C324 N328 1.427 . S
C325 H315 0.929 . S
C325 C323 1.433 . S
C325 N328 1.384 . S
C326 H317 0.931 . S
C326 C318 1.378 . S
C326 C321 1.350 . S
C327 H314 0.929 . S
C327 C319 1.433 . S
C327 N329 1.384 . S
N328 C324 1.427 . S
N328 C325 1.384 . S
N329 C321 1.427 . S
N329 C327 1.384 . S
H330 C336 0.930 . S
H331 C340 0.930 . S
H332 C345 0.929 . S
H333 C343 0.929 . S
H334 C338 0.929 . S
H335 C344 0.929 . S
C336 H330 0.930 . S
C336 C337 1.367 . S
C336 C344 1.378 . S
C337 C336 1.367 . S
C337 C345 1.433 . S
C338 H334 0.929 . S
C338 C340 1.378 . S
C338 C342 1.350 . S
C339 C342 1.463 . S
C339 C344 1.350 . S
C339 N347 1.427 . S
C340 H331 0.930 . S
C340 C338 1.378 . S
C340 C341 1.367 . S
C341 C340 1.367 . S
C341 C343 1.433 . S
C342 C338 1.350 . S
C342 C339 1.463 . S
C342 N346 1.427 . S
C343 H333 0.929 . S
C343 C341 1.433 . S
C343 N346 1.384 . S
C344 H335 0.929 . S
C344 C336 1.378 . S
C344 C339 1.350 . S
C345 H332 0.929 . S
C345 C337 1.433 . S
C345 N347 1.384 . S
N346 C342 1.427 . S
N346 C343 1.384 . S
N347 C339 1.427 . S
N347 C345 1.384 . S
H348 C354 0.930 . S
H349 C358 0.930 . S
H350 C363 0.929 . S
H351 C361 0.929 . S
H352 C356 0.929 . S
H353 C362 0.929 . S
C354 H348 0.930 . S
C354 C355 1.367 . S
C354 C362 1.378 . S
C355 C354 1.367 . S
C355 C363 1.433 . S
C356 H352 0.929 . S
C356 C358 1.378 . S
C356 C360 1.350 . S
C357 C360 1.463 1_655 S
C357 C362 1.350 . S
C357 N365 1.427 . S
C358 H349 0.930 . S
C358 C356 1.378 . S
C358 C359 1.367 . S
C359 C358 1.367 . S
C359 C361 1.433 . S
C360 C356 1.350 . S
C360 C357 1.463 1_455 S
C360 N364 1.427 . S
C361 H351 0.929 . S
C361 C359 1.433 . S
C361 N364 1.384 . S
C362 H353 0.929 . S
C362 C354 1.378 . S
C362 C357 1.350 . S
C363 H350 0.929 . S
C363 C355 1.433 . S
C363 N365 1.384 . S
N364 C360 1.427 . S
N364 C361 1.384 . S
N365 C357 1.427 . S
N365 C363 1.384 . S
H366 C372 0.930 . S
H367 C376 0.930 . S
H368 C381 0.929 . S
H369 C379 0.929 . S
H370 C374 0.929 1_565 S
H371 C380 0.929 1_545 S
C372 H366 0.930 . S
C372 C373 1.367 . S
C372 C380 1.378 . S
C373 C372 1.367 . S
C373 C381 1.433 . S
C374 H370 0.929 1_545 S
C374 C376 1.378 . S
C374 C378 1.350 . S
C375 C378 1.463 1_564 S
C375 C380 1.350 . S
C375 N383 1.427 1_554 S
C376 H367 0.930 . S
C376 C374 1.378 . S
C376 C377 1.367 . S
C377 C376 1.367 . S
C377 C379 1.433 . S
C378 C374 1.350 . S
C378 C375 1.463 1_546 S
C378 N382 1.427 1_556 S
C379 H369 0.929 . S
C379 C377 1.433 . S
C379 N382 1.384 1_556 S
C380 H371 0.929 1_565 S
C380 C372 1.378 . S
C380 C375 1.350 . S
C381 H368 0.929 . S
C381 C373 1.433 . S
C381 N383 1.384 1_554 S
N382 C378 1.427 1_554 S
N382 C379 1.384 1_554 S
N383 C375 1.427 1_556 S
N383 C381 1.384 1_556 S
H384 C390 0.930 . S
H385 C394 0.930 . S
H386 C399 0.929 . S
H387 C397 0.929 . S
H388 C392 0.929 . S
H389 C398 0.929 . S
C390 H384 0.930 . S
C390 C391 1.367 . S
C390 C398 1.378 . S
C391 C390 1.367 . S
C391 C399 1.433 . S
C392 H388 0.929 . S
C392 C394 1.378 . S
C392 C396 1.350 1_556 S
C393 C396 1.463 . S
C393 C398 1.350 . S
C393 N401 1.427 . S
C394 H385 0.930 . S
C394 C392 1.378 . S
C394 C395 1.367 . S
C395 C394 1.367 . S
C395 C397 1.433 . S
C396 C392 1.350 1_554 S
C396 C393 1.463 . S
C396 N400 1.427 . S
C397 H387 0.929 . S
C397 C395 1.433 . S
C397 N400 1.384 1_556 S
C398 H389 0.929 . S
C398 C390 1.378 . S
C398 C393 1.350 . S
C399 H386 0.929 . S
C399 C391 1.433 . S
C399 N401 1.384 . S
N400 C396 1.427 . S
N400 C397 1.384 1_554 S
N401 C393 1.427 . S
N401 C399 1.384 . S
H402 C408 0.930 . S
H403 C412 0.930 . S
H404 C417 0.929 . S
H405 C415 0.929 . S
H406 C410 0.929 . S
H407 C416 0.929 . S
C408 H402 0.930 . S
C408 C409 1.367 . S
C408 C416 1.378 . S
C409 C408 1.367 . S
C409 C417 1.433 . S
C410 H406 0.929 . S
C410 C412 1.378 . S
C410 C414 1.350 1_455 S
C411 C414 1.463 . S
C411 C416 1.350 . S
C411 N419 1.427 . S
C412 H403 0.930 . S
C412 C410 1.378 . S
C412 C413 1.367 . S
C413 C412 1.367 . S
C413 C415 1.433 1_455 S
C414 C410 1.350 1_655 S
C414 C411 1.463 . S
C414 N418 1.427 . S
C415 H405 0.929 . S
C415 C413 1.433 1_655 S
C415 N418 1.384 . S
C416 H407 0.929 . S
C416 C408 1.378 . S
C416 C411 1.350 . S
C417 H404 0.929 . S
C417 C409 1.433 . S
C417 N419 1.384 . S
N418 C414 1.427 . S
N418 C415 1.384 . S
N419 C411 1.427 . S
N419 C417 1.384 . S
H420 C426 0.930 . S
H421 C430 0.930 . S
H422 C435 0.929 . S
H423 C433 0.929 . S
H424 C428 0.929 . S
H425 C434 0.929 . S
C426 H420 0.930 . S
C426 C427 1.367 1_565 S
C426 C434 1.378 . S
C427 C426 1.367 1_545 S
C427 C435 1.433 . S
C428 H424 0.929 . S
C428 C430 1.378 . S
C428 C432 1.350 . S
C429 C432 1.463 . S
C429 C434 1.350 . S
C429 N437 1.427 . S
C430 H421 0.930 . S
C430 C428 1.378 . S
C430 C431 1.367 . S
C431 C430 1.367 . S
C431 C433 1.433 . S
C432 C428 1.350 . S
C432 C429 1.463 . S
C432 N436 1.427 . S
C433 H423 0.929 . S
C433 C431 1.433 . S
C433 N436 1.384 . S
C434 H425 0.929 . S
C434 C426 1.378 . S
C434 C429 1.350 . S
C435 H422 0.929 . S
C435 C427 1.433 . S
C435 N437 1.384 1_545 S
N436 C432 1.427 . S
N436 C433 1.384 . S
N437 C429 1.427 . S
N437 C435 1.384 1_565 S
H438 C444 0.930 . S
H439 C448 0.930 . S
H440 C453 0.929 . S
H441 C451 0.929 . S
H442 C446 0.929 . S
H443 C452 0.929 . S
C444 H438 0.930 . S
C444 C445 1.367 . S
C444 C452 1.378 . S
C445 C444 1.367 . S
C445 C453 1.433 . S
C446 H442 0.929 . S
C446 C448 1.378 . S
C446 C450 1.350 . S
C447 C450 1.463 . S
C447 C452 1.350 . S
C447 N455 1.427 . S
C448 H439 0.930 . S
C448 C446 1.378 . S
C448 C449 1.367 . S
C449 C448 1.367 . S
C449 C451 1.433 . S
C450 C446 1.350 . S
C450 C447 1.463 . S
C450 N454 1.427 . S
C451 H441 0.929 . S
C451 C449 1.433 . S
C451 N454 1.384 . S
C452 H443 0.929 . S
C452 C444 1.378 . S
C452 C447 1.350 . S
C453 H440 0.929 . S
C453 C445 1.433 . S
C453 N455 1.384 . S
N454 C450 1.427 . S
N454 C451 1.384 . S
N455 C447 1.427 . S
N455 C453 1.384 . S
H456 C462 0.930 . S
H457 C466 0.930 . S
H458 C471 0.929 . S
H459 C469 0.929 . S
H460 C464 0.932 . S
H461 C470 0.929 . S
C462 H456 0.930 . S
C462 C463 1.367 . S
C462 C470 1.378 . S
C463 C462 1.367 . S
C463 C471 1.433 . S
C464 H460 0.932 . S
C464 C466 1.389 . S
C464 C468 1.335 1_655 S
C465 C468 1.463 . S
C465 C470 1.350 . S
C465 N473 1.427 . S
C466 H457 0.930 . S
C466 C464 1.389 . S
C466 C467 1.367 . S
C467 C466 1.367 . S
C467 C469 1.433 1_655 S
C468 C464 1.335 1_455 S
C468 C465 1.463 . S
C468 N472 1.427 . S
C469 H459 0.929 . S
C469 C467 1.433 1_455 S
C469 N472 1.384 . S
C470 H461 0.929 . S
C470 C462 1.378 . S
C470 C465 1.350 . S
C471 H458 0.929 . S
C471 C463 1.433 . S
C471 N473 1.384 . S
N472 C468 1.427 . S
N472 C469 1.384 . S
N473 C465 1.427 . S
N473 C471 1.384 . S
H474 C480 0.930 . S
H475 C484 0.930 . S
H476 C489 0.929 . S
H477 C487 0.929 . S
H478 C482 0.929 . S
H479 C488 0.929 . S
C480 H474 0.930 . S
C480 C481 1.367 . S
C480 C488 1.378 . S
C481 C480 1.367 . S
C481 C489 1.433 . S
C482 H478 0.929 . S
C482 C484 1.378 . S
C482 C486 1.350 . S
C483 C486 1.463 . S
C483 C488 1.350 . S
C483 N491 1.427 . S
C484 H475 0.930 . S
C484 C482 1.378 . S
C484 C485 1.367 1_545 S
C485 C484 1.367 1_565 S
C485 C487 1.433 . S
C486 C482 1.350 . S
C486 C483 1.463 . S
C486 N490 1.427 . S
C487 H477 0.929 . S
C487 C485 1.433 . S
C487 N490 1.384 1_565 S
C488 H479 0.929 . S
C488 C480 1.378 . S
C488 C483 1.350 . S
C489 H476 0.929 . S
C489 C481 1.433 . S
C489 N491 1.384 . S
N490 C486 1.427 . S
N490 C487 1.384 1_545 S
N491 C483 1.427 . S
N491 C489 1.384 . S
H492 C498 0.930 . S
H493 C502 0.930 . S
H494 C507 0.929 . S
H495 C505 0.929 . S
H496 C500 0.929 . S
H497 C506 0.929 . S
C498 H492 0.930 . S
C498 C499 1.367 . S
C498 C506 1.378 . S
C499 C498 1.367 . S
C499 C507 1.433 . S
C500 H496 0.929 . S
C500 C502 1.378 . S
C500 C504 1.350 . S
C501 C504 1.463 . S
C501 C506 1.350 . S
C501 N509 1.427 . S
C502 H493 0.930 . S
C502 C500 1.378 . S
C502 C503 1.367 . S
C503 C502 1.367 . S
C503 C505 1.433 . S
C504 C500 1.350 . S
C504 C501 1.463 . S
C504 N508 1.427 . S
C505 H495 0.929 . S
C505 C503 1.433 . S
C505 N508 1.384 . S
C506 H497 0.929 . S
C506 C498 1.378 . S
C506 C501 1.350 . S
C507 H494 0.929 . S
C507 C499 1.433 . S
C507 N509 1.384 . S
N508 C504 1.427 . S
N508 C505 1.384 . S
N509 C501 1.427 . S
N509 C507 1.384 . S
H510 C516 0.930 . S
H511 C520 0.930 . S
H512 C525 0.929 . S
H513 C523 0.929 . S
H514 C518 0.929 . S
H515 C524 0.929 . S
C516 H510 0.930 . S
C516 C517 1.367 . S
C516 C524 1.378 . S
C517 C516 1.367 . S
C517 C525 1.433 . S
C518 H514 0.929 . S
C518 C520 1.378 . S
C518 C522 1.350 1_554 S
C519 C522 1.463 . S
C519 C524 1.350 . S
C519 N527 1.427 . S
C520 H511 0.930 . S
C520 C518 1.378 . S
C520 C521 1.367 1_655 S
C521 C520 1.367 1_455 S
C521 C523 1.433 . S
C522 C518 1.350 1_556 S
C522 C519 1.463 . S
C522 N526 1.427 1_655 S
C523 H513 0.929 . S
C523 C521 1.433 . S
C523 N526 1.384 1_554 S
C524 H515 0.929 . S
C524 C516 1.378 . S
C524 C519 1.350 . S
C525 H512 0.929 . S
C525 C517 1.433 . S
C525 N527 1.384 . S
N526 C522 1.427 1_455 S
N526 C523 1.384 1_556 S
N527 C519 1.427 . S
N527 C525 1.384 . S
H528 C534 0.930 . S
H529 C538 0.930 . S
H530 C543 0.929 . S
H531 C541 0.929 . S
H532 C536 0.927 1_545 S
H533 C542 0.929 . S
C534 H528 0.930 . S
C534 C535 1.367 . S
C534 C542 1.378 . S
C535 C534 1.367 . S
C535 C543 1.433 . S
C536 H532 0.927 1_565 S
C536 C538 1.371 1_565 S
C536 C540 1.358 . S
C537 C540 1.463 . S
C537 C542 1.350 . S
C537 N545 1.427 . S
C538 H529 0.930 . S
C538 C536 1.371 1_545 S
C538 C539 1.367 . S
C539 C538 1.367 . S
C539 C541 1.433 1_545 S
C540 C536 1.358 . S
C540 C537 1.463 . S
C540 N544 1.427 . S
C541 H531 0.929 . S
C541 C539 1.433 1_565 S
C541 N544 1.384 . S
C542 H533 0.929 . S
C542 C534 1.378 . S
C542 C537 1.350 . S
C543 H530 0.929 . S
C543 C535 1.433 . S
C543 N545 1.384 . S
N544 C540 1.427 . S
N544 C541 1.384 . S
N545 C537 1.427 . S
N545 C543 1.384 . S
H546 C552 0.930 . S
H547 C556 0.930 . S
H548 C561 0.929 . S
H549 C559 0.929 . S
H550 C554 0.929 . S
H551 C560 0.929 . S
C552 H546 0.930 . S
C552 C553 1.367 . S
C552 C560 1.378 . S
C553 C552 1.367 . S
C553 C561 1.433 . S
C554 H550 0.929 . S
C554 C556 1.378 . S
C554 C558 1.350 . S
C555 C558 1.463 . S
C555 C560 1.350 . S
C555 N563 1.427 . S
C556 H547 0.930 . S
C556 C554 1.378 . S
C556 C557 1.367 . S
C557 C556 1.367 . S
C557 C559 1.433 . S
C558 C554 1.350 . S
C558 C555 1.463 . S
C558 N562 1.427 . S
C559 H549 0.929 . S
C559 C557 1.433 . S
C559 N562 1.384 . S
C560 H551 0.929 . S
C560 C552 1.378 . S
C560 C555 1.350 . S
C561 H548 0.929 . S
C561 C553 1.433 . S
C561 N563 1.384 . S
N562 C558 1.427 . S
N562 C559 1.384 . S
N563 C555 1.427 . S
N563 C561 1.384 . S
H564 C570 0.930 . S
H565 C574 0.917 1_655 S
H566 C579 0.929 . S
H567 C577 0.929 . S
H568 C572 0.929 . S
H569 C578 0.929 . S
C570 H564 0.930 . S
C570 C571 1.367 . S
C570 C578 1.378 . S
C571 C570 1.367 . S
C571 C579 1.433 . S
C572 H568 0.929 . S
C572 C574 1.390 . S
C572 C576 1.350 . S
C573 C576 1.463 . S
C573 C578 1.350 . S
C573 N581 1.427 . S
C574 H565 0.917 1_455 S
C574 C572 1.390 . S
C574 C575 1.368 1_455 S
C575 C574 1.368 1_655 S
C575 C577 1.433 . S
C576 C572 1.350 . S
C576 C573 1.463 . S
C576 N580 1.427 . S
C577 H567 0.929 . S
C577 C575 1.433 . S
C577 N580 1.384 1_655 S
C578 H569 0.929 . S
C578 C570 1.378 . S
C578 C573 1.350 . S
C579 H566 0.929 . S
C579 C571 1.433 . S
C579 N581 1.384 . S
N580 C576 1.427 . S
N580 C577 1.384 1_455 S
N581 C573 1.427 . S
N581 C579 1.384 . S
H582 C588 0.930 . S
H583 C592 0.930 . S
H584 C597 0.929 . S
H585 C595 0.929 . S
H586 C590 0.929 . S
H587 C596 0.929 . S
C588 H582 0.930 . S
C588 C589 1.367 . S
C588 C596 1.378 . S
C589 C588 1.367 . S
C589 C597 1.433 1_565 S
C590 H586 0.929 . S
C590 C592 1.378 . S
C590 C594 1.350 . S
C591 C594 1.463 . S
C591 C596 1.350 1_545 S
C591 N599 1.427 . S
C592 H583 0.930 . S
C592 C590 1.378 . S
C592 C593 1.367 . S
C593 C592 1.367 . S
C593 C595 1.433 . S
C594 C590 1.350 . S
C594 C591 1.463 . S
C594 N598 1.427 . S
C595 H585 0.929 . S
C595 C593 1.433 . S
C595 N598 1.384 . S
C596 H587 0.929 . S
C596 C588 1.378 . S
C596 C591 1.350 1_565 S
C597 H584 0.929 . S
C597 C589 1.433 1_545 S
C597 N599 1.384 . S
N598 C594 1.427 . S
N598 C595 1.384 . S
N599 C591 1.427 . S
N599 C597 1.384 . S
C175 C120 1.298 . S
C179 C8 1.297 . S
C193 C22 1.297 . S
C197 C134 1.298 . S
C211 C36 1.298 . S
C215 C148 1.298 . S
C229 C50 1.297 . S
C233 C162 1.298 . S
C247 C92 1.297 . S
C251 C64 1.298 . S
C265 C78 1.297 . S
C269 C106 1.298 . S
C283 C135 0.951 . S
C287 C9 0.969 . S
C301 C23 0.956 . S
C305 C149 0.971 . S
C319 C163 0.965 . S
C323 C37 0.952 . S
C337 C51 0.953 . S
C341 C93 0.964 . S
C355 C107 0.961 . S
C359 C65 0.968 . S
C373 C121 0.960 . S
C377 C79 0.956 . S
C391 C3 1.431 . S
C395 C77 1.394 . S
C409 C17 1.440 . S
C413 C7 1.395 . S
C427 C21 1.397 . S
C431 C31 1.431 . S
C445 C45 1.432 . S
C449 C35 1.392 . S
C463 C59 1.441 . S
C467 C49 1.398 . S
C481 C73 1.431 . S
C485 C63 1.397 . S
C499 C87 1.439 . S
C503 C105 1.407 . S
C517 C101 1.433 . S
C521 C119 1.401 . S
C535 C115 1.441 . S
C539 C133 1.398 . S
C553 C129 1.442 . S
C557 C147 1.401 . S
C571 C143 1.442 . S
C575 C161 1.406 . S
C589 C91 1.396 . S
C593 C157 1.440 . S
