# Generated by pormake.
# Topology lcy, (6)-cn, num edge types: 1
# Building blocks:
#     Node 0, Type 0, BuildingBlock: IZENUY_clean_sbu_0, # of connection points: 6
#     Node 1, Type 0, BuildingBlock: IZENUY_clean_sbu_0, # of connection points: 6
#     Node 2, Type 0, BuildingBlock: IZENUY_clean_sbu_0, # of connection points: 6
#     Node 3, Type 0, BuildingBlock: IZENUY_clean_sbu_0, # of connection points: 6
#     Edge 4, Type (0, 0), BuildingBlock: XIVTED_clean_linker_0, # of connection points: 2
#     Edge 5, Type (0, 0), BuildingBlock: XIVTED_clean_linker_0, # of connection points: 2
#     Edge 6, Type (0, 0), BuildingBlock: XIVTED_clean_linker_0, # of connection points: 2
#     Edge 7, Type (0, 0), BuildingBlock: XIVTED_clean_linker_0, # of connection points: 2
#     Edge 8, Type (0, 0), BuildingBlock: XIVTED_clean_linker_0, # of connection points: 2
#     Edge 9, Type (0, 0), BuildingBlock: XIVTED_clean_linker_0, # of connection points: 2
#     Edge 10, Type (0, 0), BuildingBlock: XIVTED_clean_linker_0, # of connection points: 2
#     Edge 11, Type (0, 0), BuildingBlock: XIVTED_clean_linker_0, # of connection points: 2
#     Edge 12, Type (0, 0), BuildingBlock: XIVTED_clean_linker_0, # of connection points: 2
#     Edge 13, Type (0, 0), BuildingBlock: XIVTED_clean_linker_0, # of connection points: 2
#     Edge 14, Type (0, 0), BuildingBlock: XIVTED_clean_linker_0, # of connection points: 2
#     Edge 15, Type (0, 0), BuildingBlock: XIVTED_clean_linker_0, # of connection points: 2
# Relax obj value: 0.232
# Max RMSD: 0.227
# Mean RMSD: 0.227
data_MOF--net-lcy--node1-IZENUY_clean_sbu_0--edge1-XIVTED_clean_linker_0
_symmetry_space_group_name_H-M    P1
_symmetry_Int_Tables_number       1
_symmetry_cell_setting            triclinic
loop_
_symmetry_equiv_pos_as_xyz
'x, y, z'
_cell_length_a     25.723107
_cell_length_b     25.838276
_cell_length_c     25.780032
_cell_angle_alpha  90.009137
_cell_angle_beta   90.012125
_cell_angle_gamma 89.947715
loop_
_atom_site_label
_atom_site_type_symbol
_atom_site_fract_x
_atom_site_fract_y
_atom_site_fract_z
_atom_type_partial_charge
Fe0 Fe 0.42138 0.36877 0.32161 0.0
Fe1 Fe 0.37166 0.32165 0.4178 0.0
O2 O 0.37647 0.37276 0.37282 0.0
Fe3 Fe 0.33643 0.42753 0.37978 0.0
O4 O 0.30706 0.41716 0.3176 0.0
O5 O 0.3803 0.40561 0.27496 0.0
O6 O 0.39076 0.31122 0.29733 0.0
C7 C 0.3922 0.26944 0.32203 0.0
C8 C 0.43325 0.46983 0.34505 0.0
O9 O 0.39234 0.27027 0.37138 0.0
C10 C 0.35572 0.41171 0.48035 0.0
O11 O 0.47041 0.33172 0.36006 0.0
O12 O 0.43736 0.33234 0.43888 0.0
O13 O 0.38448 0.47383 0.35232 0.0
O14 O 0.45442 0.42609 0.34283 0.0
C15 C 0.27004 0.34237 0.40526 0.0
O16 O 0.35039 0.36332 0.47286 0.0
O17 O 0.36404 0.44097 0.4424 0.0
C18 C 0.47594 0.32838 0.40911 0.0
O19 O 0.3055 0.30941 0.39835 0.0
O20 O 0.28098 0.39044 0.40797 0.0
C21 C 0.3321 0.41686 0.27577 0.0
Fe22 Fe 0.83424 0.07026 0.61862 0.0
Fe23 Fe 0.86992 0.17648 0.58193 0.0
O24 O 0.87586 0.12398 0.62498 0.0
Fe25 Fe 0.92307 0.12537 0.67428 0.0
O26 O 0.95367 0.06807 0.64941 0.0
O27 O 0.88214 0.02241 0.64409 0.0
O28 O 0.85892 0.057 0.55434 0.0
C29 C 0.85156 0.08819 0.51749 0.0
C30 C 0.83416 0.08091 0.72309 0.0
O31 O 0.84692 0.13639 0.52666 0.0
C32 C 0.89438 0.22525 0.67854 0.0
O33 O 0.77873 0.1085 0.5925 0.0
O34 O 0.80443 0.18867 0.60379 0.0
O35 O 0.88311 0.08805 0.72147 0.0
O36 O 0.80744 0.08131 0.68221 0.0
C37 C 0.97462 0.16927 0.58654 0.0
O38 O 0.89218 0.22615 0.62925 0.0
O39 O 0.89507 0.18272 0.70204 0.0
C40 C 0.76843 0.1566 0.59591 0.0
O41 O 0.93491 0.16642 0.55815 0.0
O42 O 0.97109 0.16298 0.63543 0.0
C43 C 0.93134 0.02489 0.64894 0.0
Fe44 Fe 0.08116 0.62895 0.82169 0.0
Fe45 Fe 0.16508 0.56956 0.88079 0.0
O46 O 0.12549 0.62458 0.87338 0.0
Fe47 Fe 0.13022 0.67563 0.91846 0.0
O48 O 0.06431 0.66522 0.93896 0.0
O49 O 0.03193 0.66605 0.85983 0.0
O50 O 0.04757 0.57171 0.84221 0.0
C51 C 0.06844 0.52785 0.84483 0.0
C52 C 0.1106 0.72819 0.82272 0.0
O53 O 0.11705 0.52354 0.85286 0.0
C54 C 0.23177 0.65436 0.90654 0.0
O55 O 0.12262 0.59216 0.77532 0.0
O56 O 0.19514 0.57966 0.81897 0.0
O57 O 0.11007 0.72722 0.87205 0.0
O58 O 0.11229 0.68646 0.79794 0.0
C59 C 0.14497 0.58554 0.98119 0.0
O60 O 0.22053 0.60637 0.90944 0.0
O61 O 0.19654 0.68754 0.89949 0.0
C62 C 0.17065 0.58021 0.77681 0.0
O63 O 0.13674 0.55634 0.94315 0.0
O64 O 0.15093 0.63385 0.97366 0.0
C65 C 0.02602 0.66949 0.90884 0.0
Fe66 Fe 0.57909 0.87214 0.1741 0.0
Fe67 Fe 0.66821 0.92684 0.1186 0.0
O68 O 0.62641 0.87326 0.12494 0.0
Fe69 Fe 0.63231 0.82065 0.08204 0.0
O70 O 0.56742 0.83083 0.05803 0.0
O71 O 0.53109 0.83454 0.13521 0.0
O72 O 0.54872 0.92942 0.14894 0.0
C73 C 0.57116 0.97253 0.14847 0.0
C74 C 0.60746 0.77221 0.17869 0.0
O75 O 0.62037 0.97488 0.14382 0.0
C76 C 0.7338 0.84027 0.09658 0.0
O77 O 0.61901 0.90947 0.22132 0.0
O78 O 0.69481 0.91586 0.18228 0.0
O79 O 0.60977 0.77117 0.12941 0.0
O80 O 0.60686 0.8148 0.20208 0.0
C81 C 0.65102 0.90874 0.01745 0.0
O82 O 0.72367 0.88836 0.09274 0.0
O83 O 0.69765 0.80833 0.10422 0.0
C84 C 0.66798 0.91639 0.22308 0.0
O85 O 0.64372 0.94003 0.05423 0.0
O86 O 0.6556 0.86055 0.02673 0.0
C87 C 0.52765 0.8281 0.08633 0.0
H88 H 0.15372 0.4821 0.0017 0.0
H89 H 0.28566 0.51017 0.27756 0.0
H90 H 0.18361 0.63218 0.06936 0.0
H91 H 0.32176 0.3835 0.17483 0.0
H92 H 0.23721 0.55235 0.20771 0.0
H93 H 0.20175 0.44175 0.07237 0.0
C94 C 0.16961 0.50668 0.03181 0.0
C95 C 0.16478 0.5609 0.02924 0.0
C96 C 0.25598 0.51554 0.2003 0.0
C97 C 0.22003 0.51439 0.11029 0.0
C98 C 0.28352 0.49144 0.24 0.0
C99 C 0.30753 0.44335 0.23164 0.0
C100 C 0.2514 0.49083 0.1522 0.0
C101 C 0.3039 0.42068 0.1825 0.0
C102 C 0.19751 0.48346 0.07183 0.0
C103 C 0.18626 0.59037 0.06967 0.0
N104 N 0.27566 0.44439 0.14459 0.0
N105 N 0.21302 0.56669 0.10858 0.0
H106 H 0.76454 0.89265 0.25813 0.0
H107 H 0.77975 0.13094 0.4519 0.0
H108 H 0.63066 0.98688 0.29311 0.0
H109 H 0.87456 0.99474 0.4734 0.0
H110 H 0.7332 0.08656 0.3819 0.0
H111 H 0.81251 0.93578 0.328 0.0
C112 C 0.74505 0.92188 0.28119 0.0
C113 C 0.69348 0.9359 0.27041 0.0
C114 C 0.76456 0.06669 0.40167 0.0
C115 C 0.74861 0.98663 0.34874 0.0
C116 C 0.79165 0.09218 0.44108 0.0
C117 C 0.83117 0.06645 0.46847 0.0
C118 C 0.77784 0.01557 0.38884 0.0
C119 C 0.84438 0.01596 0.45323 0.0
C120 C 0.77247 0.94658 0.32075 0.0
C121 C 0.67011 0.97442 0.30086 0.0
N122 N 0.81783 0.99216 0.41436 0.0
N123 N 0.69812 -0.00098 0.33829 0.0
H124 H 0.16506 0.60641 0.6733 0.0
H125 H 0.32792 0.36512 0.57245 0.0
H126 H 0.23416 0.49701 0.77934 0.0
H127 H 0.33435 0.51402 0.49639 0.0
H128 H 0.28126 0.40592 0.64494 0.0
H129 H 0.21317 0.56483 0.60167 0.0
C130 C 0.19003 0.57358 0.68132 0.0
C131 C 0.19627 0.55544 0.7321 0.0
C132 C 0.29338 0.42945 0.61236 0.0
C133 C 0.25015 0.50758 0.65123 0.0
C134 C 0.32024 0.40632 0.57125 0.0
C135 C 0.33524 0.43604 0.52825 0.0
C136 C 0.28049 0.48227 0.60975 0.0
C137 C 0.32376 0.48937 0.52865 0.0
C138 C 0.21756 0.55013 0.64076 0.0
C139 C 0.22896 0.51264 0.74072 0.0
N140 N 0.29649 0.51059 0.56835 0.0
N141 N 0.25445 0.48997 0.70068 0.0
H142 H 0.72225 0.86575 0.95133 0.0
H143 H 0.73754 0.10446 0.75809 0.0
H144 H 0.62802 0.00222 0.97352 0.0
H145 H 0.87146 0.01023 0.79292 0.0
H146 H 0.68955 0.06111 0.82779 0.0
H147 H 0.76862 0.91012 0.8812 0.0
C148 C 0.71045 0.90457 0.94065 0.0
C149 C 0.67119 0.93039 0.9683 0.0
C150 C 0.7296 0.05034 0.82054 0.0
C151 C 0.72427 0.98125 0.88851 0.0
C152 C 0.75703 0.07518 0.78109 0.0
C153 C 0.80864 0.06125 0.77034 0.0
C154 C 0.75348 0.01024 0.84844 0.0
C155 C 0.832 0.02263 0.80067 0.0
C156 C 0.73743 0.93005 0.90116 0.0
C157 C 0.65803 0.98094 0.95318 0.0
N158 N 0.80398 0.9979 0.838 0.0
N159 N 0.68447 0.00473 0.91425 0.0
H160 H 0.04559 0.23639 0.62915 0.0
H161 H 0.2165 0.25825 0.37199 0.0
H162 H 0.00948 0.1534 0.48854 0.0
H163 H 0.21373 0.37883 0.48757 0.0
H164 H 0.14546 0.21454 0.4173 0.0
H165 H 0.11506 0.28246 0.58256 0.0
C166 C 0.05305 0.22709 0.58885 0.0
C167 C 0.02206 0.19086 0.56265 0.0
C168 C 0.1598 0.25095 0.43238 0.0
C169 C 0.10045 0.2437 0.5092 0.0
C170 C 0.2 0.27607 0.4063 0.0
C171 C 0.22036 0.32251 0.42567 0.0
C172 C 0.14062 0.27174 0.47894 0.0
C173 C 0.19834 0.34358 0.47083 0.0
C174 C 0.09207 0.25388 0.56214 0.0
C175 C 0.03259 0.18099 0.51016 0.0
N176 N 0.16003 0.31765 0.4964 0.0
N177 N 0.07089 0.20715 0.48522 0.0
H178 H 0.105 0.82937 0.85668 0.0
H179 H 0.91054 0.9206 0.63828 0.0
H180 H 0.07298 0.73251 0.72385 0.0
H181 H 0.01981 0.02753 0.70666 0.0
H182 H 0.95897 0.8487 0.67857 0.0
H183 H 0.06358 0.90223 0.81104 0.0
C184 C 0.08996 0.82355 0.81788 0.0
C185 C 0.09273 0.77477 0.79415 0.0
C186 C 0.97229 0.88806 0.6842 0.0
C187 C 0.04398 0.85699 0.74281 0.0
C188 C 0.94477 0.9289 0.66128 0.0
C189 C 0.96136 0.98005 0.66863 0.0
C190 C 0.01556 0.89877 0.71581 0.0
C191 C 0.00585 0.98871 0.69931 0.0
C192 C 0.06623 0.86495 0.792 0.0
C193 C 0.07208 0.76937 0.74378 0.0
N194 N 0.03097 0.94861 0.72226 0.0
N195 N 0.04793 0.80969 0.72017 0.0
H196 H 0.28596 0.73757 0.87221 0.0
H197 H 0.45641 0.76164 0.12943 0.0
H198 H 0.28788 0.61836 0.98919 0.0
H199 H 0.4932 0.84286 0.98798 0.0
H200 H 0.38697 0.71522 0.08315 0.0
H201 H 0.35729 0.78132 0.91704 0.0
C202 C 0.30234 0.72004 0.90674 0.0
C203 C 0.28164 0.674 0.92667 0.0
C204 C 0.41011 0.74348 0.06246 0.0
C205 C 0.3617 0.72485 0.97937 0.0
C206 C 0.44911 0.77048 0.08899 0.0
C207 C 0.48028 0.80631 0.06248 0.0
C208 C 0.40192 0.75306 0.00939 0.0
C209 C 0.46995 0.81558 0.00984 0.0
C210 C 0.3427 0.74519 0.93254 0.0
C211 C 0.30352 0.6533 0.97206 0.0
N212 N 0.43166 0.78923 0.98508 0.0
N213 N 0.34199 0.67927 0.99735 0.0
H214 H 0.39693 0.16807 0.35554 0.0
H215 H 0.5927 0.07674 0.13849 0.0
H216 H 0.43074 0.26541 0.22354 0.0
H217 H 0.48198 0.97019 0.2051 0.0
H218 H 0.54437 0.14874 0.17869 0.0
H219 H 0.43825 0.09518 0.30985 0.0
C220 C 0.41235 0.174 0.31691 0.0
C221 C 0.41011 0.22292 0.29343 0.0
C222 C 0.53071 0.10944 0.18395 0.0
C223 C 0.45873 0.14066 0.24206 0.0
C224 C 0.55818 0.06854 0.16108 0.0
C225 C 0.54117 0.01748 0.16797 0.0
C226 C 0.48708 0.09885 0.21507 0.0
C227 C 0.4963 0.00896 0.19812 0.0
C228 C 0.43602 0.13258 0.291 0.0
C229 C 0.43122 0.22845 0.24328 0.0
N230 N 0.47124 0.0491 0.22105 0.0
N231 N 0.45529 0.1881 0.21965 0.0
H232 H 0.70452 0.11252 0.52309 0.0
H233 H 0.51972 0.35938 0.49914 0.0
H234 H 0.72295 0.24936 0.61723 0.0
H235 H 0.53891 0.25003 0.3743 0.0
H236 H 0.58871 0.31558 0.54735 0.0
H237 H 0.6354 0.15646 0.4744 0.0
C238 C 0.69316 0.1513 0.53436 0.0
C239 C 0.71945 0.17737 0.57432 0.0
C240 C 0.57841 0.30149 0.50915 0.0
C241 C 0.64118 0.22791 0.51843 0.0
C242 C 0.53937 0.32669 0.48151 0.0
C243 C 0.52424 0.3086 0.43253 0.0
C244 C 0.60178 0.25707 0.4882 0.0
C245 C 0.55023 0.26566 0.41161 0.0
C246 C 0.6543 0.17659 0.50605 0.0
C247 C 0.70367 0.22787 0.58673 0.0
N248 N 0.58744 0.24085 0.43989 0.0
N249 N 0.66565 0.25149 0.55887 0.0
H250 H 0.97885 0.5308 0.7886 0.0
H251 H 0.93282 0.22858 0.77721 0.0
H252 H 0.08752 0.42344 0.85764 0.0
H253 H 0.8956 0.32734 0.64712 0.0
H254 H 0.97247 0.30212 0.82109 0.0
H255 H 0.9317 0.45831 0.75079 0.0
C256 C 0.99249 0.49193 0.79653 0.0
C257 C 0.03741 0.4832 0.82652 0.0
C258 C 0.95522 0.30765 0.78315 0.0
C259 C 0.98293 0.40017 0.7833 0.0
C260 C 0.9321 0.26589 0.75807 0.0
C261 C 0.91089 0.27165 0.70803 0.0
C262 C 0.95622 0.35594 0.75875 0.0
C263 C 0.91151 0.32106 0.68548 0.0
C264 C 0.96563 0.4507 0.7745 0.0
C265 C 0.05323 0.43191 0.83481 0.0
N266 N 0.93381 0.36145 0.7111 0.0
N267 N 0.0258 0.39217 0.81347 0.0
H268 H 0.96171 0.74533 0.87081 0.0
H269 H 0.78016 0.74912 0.12185 0.0
H270 H 0.98333 0.64246 0.00073 0.0
H271 H 0.79679 0.88168 0.02155 0.0
H272 H 0.84941 0.70543 0.07395 0.0
H273 H 0.8926 0.7901 0.91938 0.0
C274 C 0.95092 0.73139 0.90895 0.0
C275 C 0.97777 0.68999 0.93179 0.0
C276 C 0.83838 0.74432 0.06276 0.0
C277 C 0.90012 0.74129 0.98763 0.0
C278 C 0.79919 0.7694 0.09036 0.0
C279 C 0.7829 0.81913 0.07578 0.0
C280 C 0.86086 0.76869 0.01958 0.0
C281 C 0.80851 0.84351 0.03435 0.0
C282 C 0.91222 0.7574 0.93693 0.0
C283 C 0.9633 0.67413 0.98177 0.0
N284 N 0.8458 0.81774 0.00716 0.0
N285 N 0.9255 0.69977 0.00799 0.0
H286 H 0.56767 0.76946 0.2768 0.0
H287 H 0.52386 0.46715 0.29048 0.0
H288 H 0.60696 0.66991 0.14791 0.0
H289 H 0.41297 0.57418 0.35647 0.0
H290 H 0.57086 0.53969 0.25262 0.0
H291 H 0.52785 0.69607 0.32073 0.0
C292 C 0.5688 0.73202 0.25794 0.0
C293 C 0.59068 0.72596 0.20823 0.0
C294 C 0.53647 0.54721 0.27569 0.0
C295 C 0.54516 0.64186 0.259 0.0
C296 C 0.50968 0.50597 0.29775 0.0
C297 C 0.4642 0.51458 0.32688 0.0
C298 C 0.5185 0.59765 0.28361 0.0
C299 C 0.44772 0.5658 0.33434 0.0
C300 C 0.54559 0.69034 0.28304 0.0
C301 C 0.59055 0.67639 0.18602 0.0
N302 N 0.47508 0.60558 0.31298 0.0
N303 N 0.56816 0.63609 0.21167 0.0
loop_
_geom_bond_atom_site_label_1
_geom_bond_atom_site_label_2
_geom_bond_distance
_geom_bond_site_symmetry_2
_ccdc_geom_bond_type
Fe0 O2 1.918 . S
Fe0 O5 1.997 . S
Fe0 O6 2.002 . S
Fe0 O11 1.976 . S
Fe0 O14 1.996 . S
Fe1 O2 1.918 . S
Fe1 O9 1.997 . S
Fe1 O12 1.996 . S
Fe1 O16 1.976 . S
Fe1 O19 2.002 . S
O2 Fe0 1.918 . S
O2 Fe1 1.918 . S
O2 Fe3 1.918 . S
Fe3 O2 1.918 . S
Fe3 O4 2.002 . S
Fe3 O13 1.976 . S
Fe3 O17 1.996 . S
Fe3 O20 1.997 . S
O4 Fe3 2.002 . S
O4 C21 1.295 . S
O5 Fe0 1.997 . S
O5 C21 1.235 . S
O6 Fe0 2.002 . S
O6 C7 1.295 . S
C7 O6 1.295 . S
C7 O9 1.235 . S
C8 O13 1.287 . S
C8 O14 1.255 . S
O9 Fe1 1.997 . S
O9 C7 1.235 . S
C10 O16 1.287 . S
C10 O17 1.255 . S
O11 Fe0 1.976 . S
O11 C18 1.287 . S
O12 Fe1 1.996 . S
O12 C18 1.255 . S
O13 Fe3 1.976 . S
O13 C8 1.287 . S
O14 Fe0 1.996 . S
O14 C8 1.255 . S
C15 O19 1.295 . S
C15 O20 1.235 . S
O16 Fe1 1.976 . S
O16 C10 1.287 . S
O17 Fe3 1.996 . S
O17 C10 1.255 . S
C18 O11 1.287 . S
C18 O12 1.255 . S
O19 Fe1 2.002 . S
O19 C15 1.295 . S
O20 Fe3 1.997 . S
O20 C15 1.235 . S
C21 O4 1.295 . S
C21 O5 1.235 . S
Fe22 O24 1.918 . S
Fe22 O27 1.997 . S
Fe22 O28 2.002 . S
Fe22 O33 1.976 . S
Fe22 O36 1.996 . S
Fe23 O24 1.918 . S
Fe23 O31 1.997 . S
Fe23 O34 1.996 . S
Fe23 O38 1.976 . S
Fe23 O41 2.002 . S
O24 Fe22 1.918 . S
O24 Fe23 1.918 . S
O24 Fe25 1.918 . S
Fe25 O24 1.918 . S
Fe25 O26 2.002 . S
Fe25 O35 1.976 . S
Fe25 O39 1.996 . S
Fe25 O42 1.997 . S
O26 Fe25 2.002 . S
O26 C43 1.295 . S
O27 Fe22 1.997 . S
O27 C43 1.235 . S
O28 Fe22 2.002 . S
O28 C29 1.295 . S
C29 O28 1.295 . S
C29 O31 1.235 . S
C30 O35 1.287 . S
C30 O36 1.255 . S
O31 Fe23 1.997 . S
O31 C29 1.235 . S
C32 O38 1.287 . S
C32 O39 1.255 . S
O33 Fe22 1.976 . S
O33 C40 1.287 . S
O34 Fe23 1.996 . S
O34 C40 1.255 . S
O35 Fe25 1.976 . S
O35 C30 1.287 . S
O36 Fe22 1.996 . S
O36 C30 1.255 . S
C37 O41 1.295 . S
C37 O42 1.235 . S
O38 Fe23 1.976 . S
O38 C32 1.287 . S
O39 Fe25 1.996 . S
O39 C32 1.255 . S
C40 O33 1.287 . S
C40 O34 1.255 . S
O41 Fe23 2.002 . S
O41 C37 1.295 . S
O42 Fe25 1.997 . S
O42 C37 1.235 . S
C43 O26 1.295 . S
C43 O27 1.235 . S
Fe44 O46 1.918 . S
Fe44 O49 1.997 . S
Fe44 O50 2.002 . S
Fe44 O55 1.976 . S
Fe44 O58 1.996 . S
Fe45 O46 1.918 . S
Fe45 O53 1.997 . S
Fe45 O56 1.996 . S
Fe45 O60 1.976 . S
Fe45 O63 2.002 . S
O46 Fe44 1.918 . S
O46 Fe45 1.918 . S
O46 Fe47 1.918 . S
Fe47 O46 1.918 . S
Fe47 O48 2.002 . S
Fe47 O57 1.976 . S
Fe47 O61 1.996 . S
Fe47 O64 1.997 . S
O48 Fe47 2.002 . S
O48 C65 1.295 . S
O49 Fe44 1.997 . S
O49 C65 1.235 . S
O50 Fe44 2.002 . S
O50 C51 1.295 . S
C51 O50 1.295 . S
C51 O53 1.235 . S
C52 O57 1.287 . S
C52 O58 1.255 . S
O53 Fe45 1.997 . S
O53 C51 1.235 . S
C54 O60 1.287 . S
C54 O61 1.255 . S
O55 Fe44 1.976 . S
O55 C62 1.287 . S
O56 Fe45 1.996 . S
O56 C62 1.255 . S
O57 Fe47 1.976 . S
O57 C52 1.287 . S
O58 Fe44 1.996 . S
O58 C52 1.255 . S
C59 O63 1.295 . S
C59 O64 1.235 . S
O60 Fe45 1.976 . S
O60 C54 1.287 . S
O61 Fe47 1.996 . S
O61 C54 1.255 . S
C62 O55 1.287 . S
C62 O56 1.255 . S
O63 Fe45 2.002 . S
O63 C59 1.295 . S
O64 Fe47 1.997 . S
O64 C59 1.235 . S
C65 O48 1.295 . S
C65 O49 1.235 . S
Fe66 O68 1.918 . S
Fe66 O71 1.997 . S
Fe66 O72 2.002 . S
Fe66 O77 1.976 . S
Fe66 O80 1.996 . S
Fe67 O68 1.918 . S
Fe67 O75 1.997 . S
Fe67 O78 1.996 . S
Fe67 O82 1.976 . S
Fe67 O85 2.002 . S
O68 Fe66 1.918 . S
O68 Fe67 1.918 . S
O68 Fe69 1.918 . S
Fe69 O68 1.918 . S
Fe69 O70 2.002 . S
Fe69 O79 1.976 . S
Fe69 O83 1.996 . S
Fe69 O86 1.997 . S
O70 Fe69 2.002 . S
O70 C87 1.295 . S
O71 Fe66 1.997 . S
O71 C87 1.235 . S
O72 Fe66 2.002 . S
O72 C73 1.295 . S
C73 O72 1.295 . S
C73 O75 1.235 . S
C74 O79 1.287 . S
C74 O80 1.255 . S
O75 Fe67 1.997 . S
O75 C73 1.235 . S
C76 O82 1.287 . S
C76 O83 1.255 . S
O77 Fe66 1.976 . S
O77 C84 1.287 . S
O78 Fe67 1.996 . S
O78 C84 1.255 . S
O79 Fe69 1.976 . S
O79 C74 1.287 . S
O80 Fe66 1.996 . S
O80 C74 1.255 . S
C81 O85 1.295 . S
C81 O86 1.235 . S
O82 Fe67 1.976 . S
O82 C76 1.287 . S
O83 Fe69 1.996 . S
O83 C76 1.255 . S
C84 O77 1.287 . S
C84 O78 1.255 . S
O85 Fe67 2.002 . S
O85 C81 1.295 . S
O86 Fe69 1.997 . S
O86 C81 1.235 . S
C87 O70 1.295 . S
C87 O71 1.235 . S
H88 C94 0.930 1_556 S
H89 C98 0.930 . S
H90 C103 0.929 . S
H91 C101 0.929 . S
H92 C96 0.929 . S
H93 C102 0.929 . S
C94 H88 0.930 1_554 S
C94 C95 1.367 . S
C94 C102 1.378 . S
C95 C94 1.367 . S
C95 C103 1.433 . S
C96 H92 0.929 . S
C96 C98 1.378 . S
C96 C100 1.350 . S
C97 C100 1.463 . S
C97 C102 1.350 . S
C97 N105 1.427 . S
C98 H89 0.930 . S
C98 C96 1.378 . S
C98 C99 1.367 . S
C99 C98 1.367 . S
C99 C101 1.433 . S
C100 C96 1.350 . S
C100 C97 1.463 . S
C100 N104 1.427 . S
C101 H91 0.929 . S
C101 C99 1.433 . S
C101 N104 1.384 . S
C102 H93 0.929 . S
C102 C94 1.378 . S
C102 C97 1.350 . S
C103 H90 0.929 . S
C103 C95 1.433 . S
C103 N105 1.384 . S
N104 C100 1.427 . S
N104 C101 1.384 . S
N105 C97 1.427 . S
N105 C103 1.384 . S
H106 C112 0.930 . S
H107 C116 0.930 . S
H108 C121 0.929 . S
H109 C119 0.929 1_565 S
H110 C114 0.929 . S
H111 C120 0.929 . S
C112 H106 0.930 . S
C112 C113 1.367 . S
C112 C120 1.378 . S
C113 C112 1.367 . S
C113 C121 1.433 . S
C114 H110 0.929 . S
C114 C116 1.378 . S
C114 C118 1.350 . S
C115 C118 1.463 1_565 S
C115 C120 1.350 . S
C115 N123 1.427 . S
C116 H107 0.930 . S
C116 C114 1.378 . S
C116 C117 1.367 . S
C117 C116 1.367 . S
C117 C119 1.433 . S
C118 C114 1.350 . S
C118 C115 1.463 1_545 S
C118 N122 1.427 1_545 S
C119 H109 0.929 1_545 S
C119 C117 1.433 . S
C119 N122 1.384 1_545 S
C120 H111 0.929 . S
C120 C112 1.378 . S
C120 C115 1.350 . S
C121 H108 0.929 . S
C121 C113 1.433 . S
C121 N123 1.384 . S
N122 C118 1.427 1_565 S
N122 C119 1.384 1_565 S
N123 C115 1.427 . S
N123 C121 1.384 . S
H124 C130 0.930 . S
H125 C134 0.930 . S
H126 C139 0.929 . S
H127 C137 0.929 . S
H128 C132 0.929 . S
H129 C138 0.929 . S
C130 H124 0.930 . S
C130 C131 1.367 . S
C130 C138 1.378 . S
C131 C130 1.367 . S
C131 C139 1.433 . S
C132 H128 0.929 . S
C132 C134 1.378 . S
C132 C136 1.350 . S
C133 C136 1.463 . S
C133 C138 1.350 . S
C133 N141 1.427 . S
C134 H125 0.930 . S
C134 C132 1.378 . S
C134 C135 1.367 . S
C135 C134 1.367 . S
C135 C137 1.433 . S
C136 C132 1.350 . S
C136 C133 1.463 . S
C136 N140 1.427 . S
C137 H127 0.929 . S
C137 C135 1.433 . S
C137 N140 1.384 . S
C138 H129 0.929 . S
C138 C130 1.378 . S
C138 C133 1.350 . S
C139 H126 0.929 . S
C139 C131 1.433 . S
C139 N141 1.384 . S
N140 C136 1.427 . S
N140 C137 1.384 . S
N141 C133 1.427 . S
N141 C139 1.384 . S
H142 C148 0.930 . S
H143 C152 0.930 . S
H144 C157 0.929 1_545 S
H145 C155 0.929 . S
H146 C150 0.929 . S
H147 C156 0.929 . S
C148 H142 0.930 . S
C148 C149 1.367 . S
C148 C156 1.378 . S
C149 C148 1.367 . S
C149 C157 1.433 . S
C150 H146 0.929 . S
C150 C152 1.378 . S
C150 C154 1.350 . S
C151 C154 1.463 1_565 S
C151 C156 1.350 . S
C151 N159 1.427 1_565 S
C152 H143 0.930 . S
C152 C150 1.378 . S
C152 C153 1.367 . S
C153 C152 1.367 . S
C153 C155 1.433 . S
C154 C150 1.350 . S
C154 C151 1.463 1_545 S
C154 N158 1.427 1_545 S
C155 H145 0.929 . S
C155 C153 1.433 . S
C155 N158 1.383 1_545 S
C156 H147 0.929 . S
C156 C148 1.378 . S
C156 C151 1.350 . S
C157 H144 0.929 1_565 S
C157 C149 1.433 . S
C157 N159 1.384 1_565 S
N158 C154 1.427 1_565 S
N158 C155 1.383 1_565 S
N159 C151 1.427 1_545 S
N159 C157 1.384 1_545 S
H160 C166 0.930 . S
H161 C170 0.930 . S
H162 C175 0.929 . S
H163 C173 0.929 . S
H164 C168 0.929 . S
H165 C174 0.929 . S
C166 H160 0.930 . S
C166 C167 1.367 . S
C166 C174 1.378 . S
C167 C166 1.367 . S
C167 C175 1.433 . S
C168 H164 0.929 . S
C168 C170 1.378 . S
C168 C172 1.350 . S
C169 C172 1.463 . S
C169 C174 1.350 . S
C169 N177 1.427 . S
C170 H161 0.930 . S
C170 C168 1.378 . S
C170 C171 1.367 . S
C171 C170 1.367 . S
C171 C173 1.433 . S
C172 C168 1.350 . S
C172 C169 1.463 . S
C172 N176 1.427 . S
C173 H163 0.929 . S
C173 C171 1.433 . S
C173 N176 1.384 . S
C174 H165 0.929 . S
C174 C166 1.378 . S
C174 C169 1.350 . S
C175 H162 0.929 . S
C175 C167 1.433 . S
C175 N177 1.384 . S
N176 C172 1.427 . S
N176 C173 1.384 . S
N177 C169 1.427 . S
N177 C175 1.384 . S
H178 C184 0.930 . S
H179 C188 0.930 . S
H180 C193 0.929 . S
H181 C191 0.929 1_545 S
H182 C186 0.929 . S
H183 C192 0.929 . S
C184 H178 0.930 . S
C184 C185 1.367 . S
C184 C192 1.378 . S
C185 C184 1.367 . S
C185 C193 1.433 . S
C186 H182 0.929 . S
C186 C188 1.378 . S
C186 C190 1.350 . S
C187 C190 1.463 1_455 S
C187 C192 1.350 . S
C187 N195 1.427 . S
C188 H179 0.930 . S
C188 C186 1.378 . S
C188 C189 1.367 . S
C189 C188 1.367 . S
C189 C191 1.433 . S
C190 C186 1.350 . S
C190 C187 1.463 1_655 S
C190 N194 1.427 . S
C191 H181 0.929 1_565 S
C191 C189 1.433 . S
C191 N194 1.384 . S
C192 H183 0.929 . S
C192 C184 1.378 . S
C192 C187 1.350 . S
C193 H180 0.929 . S
C193 C185 1.433 . S
C193 N195 1.384 . S
N194 C190 1.427 . S
N194 C191 1.384 . S
N195 C187 1.427 . S
N195 C193 1.384 . S
H196 C202 0.930 . S
H197 C206 0.930 . S
H198 C211 0.929 . S
H199 C209 0.929 1_556 S
H200 C204 0.929 . S
H201 C210 0.929 . S
C202 H196 0.930 . S
C202 C203 1.367 . S
C202 C210 1.378 . S
C203 C202 1.367 . S
C203 C211 1.433 . S
C204 H200 0.929 . S
C204 C206 1.378 . S
C204 C208 1.350 . S
C205 C208 1.463 1_556 S
C205 C210 1.350 . S
C205 N213 1.430 . S
C206 H197 0.930 . S
C206 C204 1.378 . S
C206 C207 1.367 . S
C207 C206 1.367 . S
C207 C209 1.433 . S
C208 C204 1.350 . S
C208 C205 1.463 1_554 S
C208 N212 1.427 1_554 S
C209 H199 0.929 1_554 S
C209 C207 1.433 . S
C209 N212 1.384 1_554 S
C210 H201 0.929 . S
C210 C202 1.378 . S
C210 C205 1.350 . S
C211 H198 0.929 . S
C211 C203 1.433 . S
C211 N213 1.387 . S
N212 C208 1.427 1_556 S
N212 C209 1.384 1_556 S
N213 C205 1.430 . S
N213 C211 1.387 . S
H214 C220 0.930 . S
H215 C224 0.930 . S
H216 C229 0.929 . S
H217 C227 0.929 . S
H218 C222 0.929 . S
H219 C228 0.929 . S
C220 H214 0.930 . S
C220 C221 1.367 . S
C220 C228 1.378 . S
C221 C220 1.367 . S
C221 C229 1.433 . S
C222 H218 0.929 . S
C222 C224 1.378 . S
C222 C226 1.350 . S
C223 C226 1.463 . S
C223 C228 1.350 . S
C223 N231 1.427 . S
C224 H215 0.930 . S
C224 C222 1.378 . S
C224 C225 1.367 . S
C225 C224 1.367 . S
C225 C227 1.433 . S
C226 C222 1.350 . S
C226 C223 1.463 . S
C226 N230 1.427 . S
C227 H217 0.929 . S
C227 C225 1.433 . S
C227 N230 1.384 . S
C228 H219 0.929 . S
C228 C220 1.378 . S
C228 C223 1.350 . S
C229 H216 0.929 . S
C229 C221 1.433 . S
C229 N231 1.384 . S
N230 C226 1.427 . S
N230 C227 1.384 . S
N231 C223 1.427 . S
N231 C229 1.384 . S
H232 C238 0.930 . S
H233 C242 0.930 . S
H234 C247 0.929 . S
H235 C245 0.929 . S
H236 C240 0.929 . S
H237 C246 0.929 . S
C238 H232 0.930 . S
C238 C239 1.367 . S
C238 C246 1.378 . S
C239 C238 1.367 . S
C239 C247 1.433 . S
C240 H236 0.929 . S
C240 C242 1.378 . S
C240 C244 1.350 . S
C241 C244 1.463 . S
C241 C246 1.350 . S
C241 N249 1.427 . S
C242 H233 0.930 . S
C242 C240 1.378 . S
C242 C243 1.367 . S
C243 C242 1.367 . S
C243 C245 1.433 . S
C244 C240 1.350 . S
C244 C241 1.463 . S
C244 N248 1.427 . S
C245 H235 0.929 . S
C245 C243 1.433 . S
C245 N248 1.384 . S
C246 H237 0.929 . S
C246 C238 1.378 . S
C246 C241 1.350 . S
C247 H234 0.929 . S
C247 C239 1.433 . S
C247 N249 1.384 . S
N248 C244 1.427 . S
N248 C245 1.384 . S
N249 C241 1.427 . S
N249 C247 1.384 . S
H250 C256 0.930 . S
H251 C260 0.930 . S
H252 C265 0.929 . S
H253 C263 0.929 . S
H254 C258 0.929 . S
H255 C264 0.936 . S
C256 H250 0.930 . S
C256 C257 1.367 . S
C256 C264 1.378 . S
C257 C256 1.367 . S
C257 C265 1.433 . S
C258 H254 0.929 . S
C258 C260 1.378 . S
C258 C262 1.350 . S
C259 C262 1.463 1_455 S
C259 C264 1.350 . S
C259 N267 1.427 . S
C260 H251 0.930 . S
C260 C258 1.378 . S
C260 C261 1.367 . S
C261 C260 1.367 . S
C261 C263 1.433 . S
C262 C258 1.350 . S
C262 C259 1.463 1_655 S
C262 N266 1.427 . S
C263 H253 0.929 . S
C263 C261 1.433 . S
C263 N266 1.384 . S
C264 H255 0.936 . S
C264 C256 1.378 . S
C264 C259 1.350 . S
C265 H252 0.929 . S
C265 C257 1.433 . S
C265 N267 1.384 . S
N266 C262 1.427 . S
N266 C263 1.384 . S
N267 C259 1.427 . S
N267 C265 1.384 . S
H268 C274 0.930 . S
H269 C278 0.930 . S
H270 C283 0.929 . S
H271 C281 0.929 . S
H272 C276 0.929 . S
H273 C282 0.929 . S
C274 H268 0.930 . S
C274 C275 1.367 . S
C274 C282 1.378 . S
C275 C274 1.367 . S
C275 C283 1.433 . S
C276 H272 0.929 . S
C276 C278 1.378 . S
C276 C280 1.350 . S
C277 C280 1.463 1_556 S
C277 C282 1.350 . S
C277 N285 1.427 1_556 S
C278 H269 0.930 . S
C278 C276 1.378 . S
C278 C279 1.367 . S
C279 C278 1.367 . S
C279 C281 1.433 . S
C280 C276 1.350 . S
C280 C277 1.463 1_554 S
C280 N284 1.427 . S
C281 H271 0.929 . S
C281 C279 1.433 . S
C281 N284 1.384 . S
C282 H273 0.929 . S
C282 C274 1.378 . S
C282 C277 1.350 . S
C283 H270 0.929 . S
C283 C275 1.433 . S
C283 N285 1.384 1_556 S
N284 C280 1.427 . S
N284 C281 1.384 . S
N285 C277 1.427 1_554 S
N285 C283 1.384 1_554 S
H286 C292 0.930 . S
H287 C296 0.930 . S
H288 C301 0.929 . S
H289 C299 0.929 . S
H290 C294 0.929 . S
H291 C300 0.929 . S
C292 H286 0.930 . S
C292 C293 1.367 . S
C292 C300 1.378 . S
C293 C292 1.367 . S
C293 C301 1.433 . S
C294 H290 0.929 . S
C294 C296 1.378 . S
C294 C298 1.350 . S
C295 C298 1.463 . S
C295 C300 1.350 . S
C295 N303 1.427 . S
C296 H287 0.930 . S
C296 C294 1.378 . S
C296 C297 1.367 . S
C297 C296 1.367 . S
C297 C299 1.433 . S
C298 C294 1.350 . S
C298 C295 1.463 . S
C298 N302 1.427 . S
C299 H289 0.929 . S
C299 C297 1.433 . S
C299 N302 1.384 . S
C300 H291 0.929 . S
C300 C292 1.378 . S
C300 C295 1.350 . S
C301 H288 0.929 . S
C301 C293 1.433 . S
C301 N303 1.384 . S
N302 C298 1.427 . S
N302 C299 1.384 . S
N303 C295 1.427 . S
N303 C301 1.384 . S
C95 C59 1.392 1_554 S
C99 C21 1.391 . S
C113 C84 1.372 . S
C117 C29 1.345 . S
C131 C62 1.325 . S
C135 C10 1.329 . S
C149 C81 1.347 1_556 S
C153 C30 1.373 . S
C167 C37 1.396 1_455 S
C171 C15 1.401 . S
C185 C52 1.373 . S
C189 C43 1.358 1_565 S
C203 C54 1.373 . S
C207 C87 1.346 . S
C221 C7 1.394 . S
C225 C73 1.407 1_545 S
C239 C40 1.319 . S
C243 C18 1.327 . S
C257 C51 1.341 . S
C261 C32 1.364 . S
C275 C65 1.343 1_655 S
C279 C76 1.370 . S
C293 C74 1.312 . S
C297 C8 1.316 . S
