# Generated by pormake.
# Topology ukt, (4)-cn, num edge types: 1
# Building blocks:
#     Node 0, Type 0, BuildingBlock: UXUYUI_clean_sbu_0, # of connection points: 4
#     Node 1, Type 0, BuildingBlock: UXUYUI_clean_sbu_0, # of connection points: 4
#     Node 2, Type 0, BuildingBlock: UXUYUI_clean_sbu_0, # of connection points: 4
#     Node 3, Type 0, BuildingBlock: UXUYUI_clean_sbu_0, # of connection points: 4
#     Node 4, Type 0, BuildingBlock: UXUYUI_clean_sbu_0, # of connection points: 4
#     Node 5, Type 0, BuildingBlock: UXUYUI_clean_sbu_0, # of connection points: 4
#     Node 6, Type 0, BuildingBlock: UXUYUI_clean_sbu_0, # of connection points: 4
#     Node 7, Type 0, BuildingBlock: UXUYUI_clean_sbu_0, # of connection points: 4
#     Node 8, Type 0, BuildingBlock: UXUYUI_clean_sbu_0, # of connection points: 4
#     Node 9, Type 0, BuildingBlock: UXUYUI_clean_sbu_0, # of connection points: 4
#     Node 10, Type 0, BuildingBlock: UXUYUI_clean_sbu_0, # of connection points: 4
#     Node 11, Type 0, BuildingBlock: UXUYUI_clean_sbu_0, # of connection points: 4
#     Node 12, Type 0, BuildingBlock: UXUYUI_clean_sbu_0, # of connection points: 4
#     Node 13, Type 0, BuildingBlock: UXUYUI_clean_sbu_0, # of connection points: 4
#     Node 14, Type 0, BuildingBlock: UXUYUI_clean_sbu_0, # of connection points: 4
#     Node 15, Type 0, BuildingBlock: UXUYUI_clean_sbu_0, # of connection points: 4
#     Edge 16, Type (0, 0), BuildingBlock: CIFDUS_clean_linker_0, # of connection points: 2
#     Edge 17, Type (0, 0), BuildingBlock: CIFDUS_clean_linker_0, # of connection points: 2
#     Edge 18, Type (0, 0), BuildingBlock: CIFDUS_clean_linker_0, # of connection points: 2
#     Edge 19, Type (0, 0), BuildingBlock: CIFDUS_clean_linker_0, # of connection points: 2
#     Edge 20, Type (0, 0), BuildingBlock: CIFDUS_clean_linker_0, # of connection points: 2
#     Edge 21, Type (0, 0), BuildingBlock: CIFDUS_clean_linker_0, # of connection points: 2
#     Edge 22, Type (0, 0), BuildingBlock: CIFDUS_clean_linker_0, # of connection points: 2
#     Edge 23, Type (0, 0), BuildingBlock: CIFDUS_clean_linker_0, # of connection points: 2
#     Edge 24, Type (0, 0), BuildingBlock: CIFDUS_clean_linker_0, # of connection points: 2
#     Edge 25, Type (0, 0), BuildingBlock: CIFDUS_clean_linker_0, # of connection points: 2
#     Edge 26, Type (0, 0), BuildingBlock: CIFDUS_clean_linker_0, # of connection points: 2
#     Edge 27, Type (0, 0), BuildingBlock: CIFDUS_clean_linker_0, # of connection points: 2
#     Edge 28, Type (0, 0), BuildingBlock: CIFDUS_clean_linker_0, # of connection points: 2
#     Edge 29, Type (0, 0), BuildingBlock: CIFDUS_clean_linker_0, # of connection points: 2
#     Edge 30, Type (0, 0), BuildingBlock: CIFDUS_clean_linker_0, # of connection points: 2
#     Edge 31, Type (0, 0), BuildingBlock: CIFDUS_clean_linker_0, # of connection points: 2
#     Edge 32, Type (0, 0), BuildingBlock: CIFDUS_clean_linker_0, # of connection points: 2
#     Edge 33, Type (0, 0), BuildingBlock: CIFDUS_clean_linker_0, # of connection points: 2
#     Edge 34, Type (0, 0), BuildingBlock: CIFDUS_clean_linker_0, # of connection points: 2
#     Edge 35, Type (0, 0), BuildingBlock: CIFDUS_clean_linker_0, # of connection points: 2
#     Edge 36, Type (0, 0), BuildingBlock: CIFDUS_clean_linker_0, # of connection points: 2
#     Edge 37, Type (0, 0), BuildingBlock: CIFDUS_clean_linker_0, # of connection points: 2
#     Edge 38, Type (0, 0), BuildingBlock: CIFDUS_clean_linker_0, # of connection points: 2
#     Edge 39, Type (0, 0), BuildingBlock: CIFDUS_clean_linker_0, # of connection points: 2
#     Edge 40, Type (0, 0), BuildingBlock: CIFDUS_clean_linker_0, # of connection points: 2
#     Edge 41, Type (0, 0), BuildingBlock: CIFDUS_clean_linker_0, # of connection points: 2
#     Edge 42, Type (0, 0), BuildingBlock: CIFDUS_clean_linker_0, # of connection points: 2
#     Edge 43, Type (0, 0), BuildingBlock: CIFDUS_clean_linker_0, # of connection points: 2
#     Edge 44, Type (0, 0), BuildingBlock: CIFDUS_clean_linker_0, # of connection points: 2
#     Edge 45, Type (0, 0), BuildingBlock: CIFDUS_clean_linker_0, # of connection points: 2
#     Edge 46, Type (0, 0), BuildingBlock: CIFDUS_clean_linker_0, # of connection points: 2
#     Edge 47, Type (0, 0), BuildingBlock: CIFDUS_clean_linker_0, # of connection points: 2
# Relax obj value: 0.433
# Max RMSD: 0.238
# Mean RMSD: 0.238
data_MOF--net-ukt--node1-UXUYUI_clean_sbu_0--edge1-CIFDUS_clean_linker_0
_symmetry_space_group_name_H-M    P1
_symmetry_Int_Tables_number       1
_symmetry_cell_setting            triclinic
loop_
_symmetry_equiv_pos_as_xyz
'x, y, z'
_cell_length_a     55.614162
_cell_length_b     55.608867
_cell_length_c     50.141381
_cell_angle_alpha  90.014616
_cell_angle_beta   90.000107
_cell_angle_gamma 90.003786
loop_
_atom_site_label
_atom_site_type_symbol
_atom_site_fract_x
_atom_site_fract_y
_atom_site_fract_z
_atom_type_partial_charge
Li0 Li 0.55601 0.15444 0.11982 0.0
Li1 Li 0.5545 0.11685 0.08999 0.0
Li2 Li 0.59194 0.13602 0.10267 0.0
Li3 Li 0.56552 0.1563 0.07231 0.0
C4 C 0.58096 0.10689 0.14391 0.0
N5 N 0.60811 0.07861 0.17779 0.0
C6 C 0.57898 0.08184 0.14296 0.0
C7 C 0.59641 0.11755 0.16243 0.0
C8 C 0.59294 0.06786 0.16016 0.0
C9 C 0.61009 0.10295 0.17928 0.0
C10 C 0.51898 0.15688 0.07093 0.0
C11 C 0.49975 0.15665 0.02784 0.0
N12 N 0.49009 0.17861 0.03318 0.0
C13 C 0.50881 0.17939 0.07605 0.0
C14 C 0.51438 0.14535 0.04669 0.0
C15 C 0.49426 0.19009 0.05668 0.0
C16 C 0.542 0.19643 0.14527 0.0
N17 N 0.54319 0.17222 0.14855 0.0
C18 C 0.53318 0.17594 0.19465 0.0
C19 C 0.53848 0.16172 0.17243 0.0
C20 C 0.53317 0.20118 0.19228 0.0
C21 C 0.53709 0.21133 0.16697 0.0
H22 H 0.54625 0.20424 0.12608 0.0
H23 H 0.53984 0.14239 0.17445 0.0
C24 C 0.55716 0.07001 0.07371 0.0
N25 N 0.5408 0.08712 0.08036 0.0
C26 C 0.5498 0.04883 0.0614 0.0
C27 C 0.50859 0.0625 0.06466 0.0
C28 C 0.51683 0.08371 0.0766 0.0
C29 C 0.52532 0.04516 0.05624 0.0
H30 H 0.57607 0.07329 0.07715 0.0
H31 H 0.50429 0.09783 0.08176 0.0
C32 C 0.59811 0.18722 0.11266 0.0
N33 N 0.62858 0.22154 0.13386 0.0
C34 C 0.60976 0.20362 0.09593 0.0
C35 C 0.6018 0.18845 0.1402 0.0
C36 C 0.62515 0.22077 0.10702 0.0
C37 C 0.61729 0.20589 0.15053 0.0
C38 C 0.60117 0.12493 0.05031 0.0
C39 C 0.61533 0.14552 0.04728 0.0
C40 C 0.60787 0.10368 0.03738 0.0
C41 C 0.63603 0.14449 0.03156 0.0
C42 C 0.62873 0.10335 0.02185 0.0
N43 N 0.64228 0.12359 0.01931 0.0
C44 C 0.62924 0.10339 0.10415 0.0
C45 C 0.64312 0.14361 0.10664 0.0
C46 C 0.65232 0.09523 0.09835 0.0
N47 N 0.62492 0.12728 0.10724 0.0
C48 C 0.66649 0.13625 0.1005 0.0
C49 C 0.67102 0.1119 0.09495 0.0
H50 H 0.61441 0.09086 0.1037 0.0
H51 H 0.63934 0.16254 0.1084 0.0
C52 C 0.56044 0.20038 0.04613 0.0
N53 N 0.5636 0.17647 0.04189 0.0
C54 C 0.56148 0.21644 0.02483 0.0
C55 C 0.56833 0.18286 0.99509 0.0
C56 C 0.56676 0.1674 0.01694 0.0
C57 C 0.56611 0.20774 0.99904 0.0
H58 H 0.55791 0.20701 0.06623 0.0
H59 H 0.56888 0.14824 0.01414 0.0
O60 O 0.5675 0.12083 0.12707 0.0
O61 O 0.53384 0.14644 0.08927 0.0
O62 O 0.58291 0.17039 0.10205 0.0
O63 O 0.58149 0.12527 0.06678 0.0
H64 H 0.56679 0.07328 0.12913 0.0
H65 H 0.59802 0.13684 0.16366 0.0
H66 H 0.59169 0.04845 0.15953 0.0
H67 H 0.62227 0.11098 0.19355 0.0
H68 H 0.49615 0.14802 0.00892 0.0
H69 H 0.51227 0.18856 0.09469 0.0
H70 H 0.52234 0.12802 0.04234 0.0
H71 H 0.48635 0.20756 0.06031 0.0
H72 H 0.5299 0.16727 0.21364 0.0
H73 H 0.53774 0.23062 0.16414 0.0
H74 H 0.56313 0.0357 0.05537 0.0
H75 H 0.48956 0.06021 0.06083 0.0
H76 H 0.60701 0.20309 0.07457 0.0
H77 H 0.59263 0.17628 0.15352 0.0
H78 H 0.63436 0.23349 0.09429 0.0
H79 H 0.62029 0.20703 0.17181 0.0
H80 H 0.61059 0.16205 0.05729 0.0
H81 H 0.5972 0.08754 0.03938 0.0
H82 H 0.64721 0.16027 0.02923 0.0
H83 H 0.6342 0.08699 0.01187 0.0
H84 H 0.65507 0.07625 0.0946 0.0
H85 H 0.68028 0.14978 0.09781 0.0
H86 H 0.55996 0.23555 0.02869 0.0
H87 H 0.57182 0.17555 0.97544 0.0
Li88 Li 0.34284 0.55871 0.12484 0.0
Li89 Li 0.37973 0.54837 0.0958 0.0
Li90 Li 0.36648 0.58952 0.10258 0.0
Li91 Li 0.34221 0.56315 0.07621 0.0
C92 C 0.38838 0.58262 0.14766 0.0
N93 N 0.40943 0.61661 0.18037 0.0
C94 C 0.4134 0.58479 0.14866 0.0
C95 C 0.37408 0.59753 0.16352 0.0
C96 C 0.4237 0.60214 0.16527 0.0
C97 C 0.38505 0.61466 0.17986 0.0
C98 C 0.33447 0.51728 0.08138 0.0
C99 C 0.33004 0.49525 0.04024 0.0
N100 N 0.30783 0.48792 0.04818 0.0
C101 C 0.31165 0.50946 0.0892 0.0
C102 C 0.34381 0.51007 0.05677 0.0
C103 C 0.29845 0.49464 0.0721 0.0
C104 C 0.29847 0.55407 0.14748 0.0
N105 N 0.32215 0.55203 0.15374 0.0
C106 C 0.31262 0.54667 0.19983 0.0
C107 C 0.32955 0.54804 0.1792 0.0
C108 C 0.28811 0.54986 0.19397 0.0
C109 C 0.28107 0.55315 0.16738 0.0
H110 H 0.29321 0.55741 0.12705 0.0
H111 H 0.34856 0.5468 0.1836 0.0
C112 C 0.42767 0.54377 0.08523 0.0
N113 N 0.4075 0.53027 0.08808 0.0
C114 C 0.44807 0.53409 0.07326 0.0
C115 C 0.42686 0.4964 0.06816 0.0
C116 C 0.40686 0.5068 0.08055 0.0
C117 C 0.44753 0.51041 0.06355 0.0
H118 H 0.42736 0.56257 0.09066 0.0
H119 H 0.39039 0.49662 0.08261 0.0
C120 C 0.31693 0.60529 0.10539 0.0
N121 N 0.28721 0.64496 0.10937 0.0
C122 C 0.30916 0.61718 0.08239 0.0
C123 C 0.3093 0.61339 0.1304 0.0
C124 C 0.29423 0.63726 0.08483 0.0
C125 C 0.29435 0.63352 0.132 0.0
C126 C 0.37988 0.58524 0.04614 0.0
C127 C 0.36846 0.60707 0.04065 0.0
C128 C 0.39646 0.57587 0.02798 0.0
C129 C 0.37382 0.61918 0.01699 0.0
C130 C 0.4013 0.5885 0.00449 0.0
N131 N 0.38997 0.60971 -0.00046 0.0
C132 C 0.40327 0.62164 0.09465 0.0
C133 C 0.36753 0.64157 0.10778 0.0
C134 C 0.41414 0.64346 0.08836 0.0
N135 N 0.3801 0.62101 0.1032 0.0
C136 C 0.37767 0.66386 0.10158 0.0
C137 C 0.40092 0.66486 0.09067 0.0
H138 H 0.41283 0.60501 0.09118 0.0
H139 H 0.34924 0.64076 0.11478 0.0
C140 C 0.29698 0.56093 0.05439 0.0
N141 N 0.32048 0.56095 0.0471 0.0
C142 C 0.27902 0.55982 0.03515 0.0
C143 C 0.30973 0.55842 0.00103 0.0
C144 C 0.3272 0.55948 0.02107 0.0
C145 C 0.28526 0.55867 0.00804 0.0
H146 H 0.29223 0.56202 0.07527 0.0
H147 H 0.34603 0.5591 0.01582 0.0
O148 O 0.37787 0.56622 0.13101 0.0
O149 O 0.34737 0.53238 0.09746 0.0
O150 O 0.33136 0.58543 0.10342 0.0
O151 O 0.37521 0.57318 0.06934 0.0
H152 H 0.42475 0.57325 0.13672 0.0
H153 H 0.35472 0.59599 0.16305 0.0
H154 H 0.44303 0.60411 0.16614 0.0
H155 H 0.37419 0.62642 0.19211 0.0
H156 H 0.33696 0.48969 0.02104 0.0
H157 H 0.30417 0.51489 0.10818 0.0
H158 H 0.3613 0.51627 0.05025 0.0
H159 H 0.28072 0.48853 0.07783 0.0
H160 H 0.31864 0.54426 0.22019 0.0
H161 H 0.26232 0.55553 0.16213 0.0
H162 H 0.46372 0.54542 0.07056 0.0
H163 H 0.42557 0.47814 0.06081 0.0
H164 H 0.31444 0.61093 0.06283 0.0
H165 H 0.31486 0.60428 0.14842 0.0
H166 H 0.28814 0.64667 0.0672 0.0
H167 H 0.28839 0.64003 0.15123 0.0
H168 H 0.35582 0.6147 0.05463 0.0
H169 H 0.40547 0.55899 0.03196 0.0
H170 H 0.36517 0.63614 0.01254 0.0
H171 H 0.41407 0.58144 0.99023 0.0
H172 H 0.43227 0.64346 0.08047 0.0
H173 H 0.3668 0.67992 0.10359 0.0
H174 H 0.2604 0.56049 0.04146 0.0
H175 H 0.31527 0.55736 0.98036 0.0
Li176 Li 0.94402 0.37938 0.08112 0.0
Li177 Li 0.93866 0.34646 0.11636 0.0
Li178 Li 0.92873 0.33957 0.06956 0.0
Li179 Li 0.905 0.36629 0.09603 0.0
C180 C 0.97575 0.3375 0.06615 0.0
N181 N 0.00408 0.31574 0.02784 0.0
C182 C 0.9879 0.31614 0.07197 0.0
C183 C 0.97809 0.34785 0.04088 0.0
C184 C 0.00212 0.3054 0.05232 0.0
C185 C 0.99248 0.33657 0.02178 0.0
C186 C 0.91778 0.39897 0.13142 0.0
C187 C 0.88863 0.41041 0.16473 0.0
N188 N 0.89081 0.43376 0.15705 0.0
C189 C 0.91995 0.42312 0.12409 0.0
C190 C 0.9022 0.39258 0.15212 0.0
C191 C 0.90609 0.44043 0.1372 0.0
C192 C 0.94665 0.42224 0.05452 0.0
N193 N 0.96093 0.40585 0.06683 0.0
C194 C 0.9962 0.42528 0.05033 0.0
C195 C 0.98529 0.40716 0.06544 0.0
C196 C 0.98181 0.44195 0.03644 0.0
C197 C 0.95672 0.44047 0.03913 0.0
H198 H 0.92733 0.42057 0.05587 0.0
H199 H 0.99617 0.39363 0.07516 0.0
C200 C 0.95543 0.30619 0.14165 0.0
N201 N 0.95025 0.32964 0.14645 0.0
C202 C 0.9607 0.29069 0.16264 0.0
C203 C 0.95528 0.32382 0.19331 0.0
C204 C 0.95042 0.33883 0.17156 0.0
C205 C 0.96001 0.29923 0.18901 0.0
H206 H 0.95445 0.29931 0.12151 0.0
H207 H 0.94564 0.35746 0.17479 0.0
C208 C 0.89814 0.36935 0.04055 0.0
N209 N 0.86058 0.36689 0.00454 0.0
C210 C 0.88039 0.35174 0.04329 0.0
C211 C 0.89685 0.38563 0.01936 0.0
C212 C 0.86152 0.35081 0.02494 0.0
C213 C 0.87771 0.38411 0.00138 0.0
C214 C 0.89317 0.3183 0.11445 0.0
C215 C 0.87887 0.30178 0.10064 0.0
C216 C 0.89045 0.32076 0.14203 0.0
C217 C 0.86183 0.28828 0.1146 0.0
C218 C 0.87324 0.30691 0.15528 0.0
N219 N 0.85939 0.29111 0.14141 0.0
C220 C 0.92911 0.29218 0.05298 0.0
C221 C 0.92919 0.31968 0.01684 0.0
C222 C 0.92911 0.27277 0.03545 0.0
N223 N 0.92895 0.31501 0.04346 0.0
C224 C 0.92929 0.30075 0.99852 0.0
C225 C 0.92915 0.2769 0.00779 0.0
H226 H 0.92908 0.2891 0.07428 0.0
H227 H 0.92941 0.33808 0.00985 0.0
C228 C 0.87175 0.40124 0.08704 0.0
N229 N 0.87334 0.37925 0.09873 0.0
C230 C 0.8495 0.41053 0.07981 0.0
C231 C 0.83054 0.37543 0.09899 0.0
C232 C 0.85332 0.36668 0.10577 0.0
C233 C 0.8287 0.39704 0.0847 0.0
H234 H 0.88794 0.41056 0.08111 0.0
H235 H 0.85492 0.34911 0.11466 0.0
O236 O 0.96119 0.34797 0.08482 0.0
O237 O 0.93098 0.38176 0.11853 0.0
O238 O 0.91637 0.37114 0.05883 0.0
O239 O 0.91008 0.33148 0.10105 0.0
H240 H 0.9864 0.30792 0.09143 0.0
H241 H 0.96851 0.36417 0.03587 0.0
H242 H 0.01158 0.28883 0.05653 0.0
H243 H 0.99431 0.3443 0.00209 0.0
H244 H 0.87636 0.40567 0.18062 0.0
H245 H 0.93215 0.42846 0.1084 0.0
H246 H 0.90046 0.37407 0.15828 0.0
H247 H 0.90748 0.45916 0.13159 0.0
H248 H 0.01562 0.42591 0.04909 0.0
H249 H 0.94485 0.45258 0.02853 0.0
H250 H 0.96461 0.27203 0.15826 0.0
H251 H 0.95421 0.33115 0.21328 0.0
H252 H 0.88101 0.33909 0.05958 0.0
H253 H 0.91045 0.39936 0.01684 0.0
H254 H 0.8476 0.33735 0.02697 0.0
H255 H 0.87646 0.39664 0.98495 0.0
H256 H 0.88089 0.29937 0.07934 0.0
H257 H 0.9015 0.33316 0.15313 0.0
H258 H 0.85059 0.27551 0.10413 0.0
H259 H 0.87093 0.30869 0.17661 0.0
H260 H 0.92858 0.25473 0.04354 0.0
H261 H 0.9296 0.30473 0.97738 0.0
H262 H 0.84867 0.4272 0.06866 0.0
H263 H 0.81479 0.36448 0.10276 0.0
Li264 Li 0.12201 0.94497 0.08352 0.0
Li265 Li 0.15606 0.9388 0.11526 0.0
Li266 Li 0.16007 0.93071 0.06696 0.0
Li267 Li 0.136 0.90383 0.09461 0.0
C268 C 0.14916 0.9859 0.08279 0.0
N269 N 0.13938 0.03452 0.07907 0.0
C270 C 0.15046 0.0005 0.10543 0.0
C271 C 0.14299 0.99606 0.05822 0.0
C272 C 0.14544 0.02503 0.10315 0.0
C273 C 0.13807 0.02067 0.05676 0.0
C274 C 0.10488 0.92223 0.13696 0.0
C275 C 0.09324 0.90958 0.18114 0.0
N276 N 0.06982 0.90929 0.17332 0.0
C277 C 0.08067 0.92211 0.12948 0.0
C278 C 0.11121 0.91619 0.16311 0.0
C279 C 0.06323 0.91538 0.14809 0.0
C280 C 0.07851 0.94788 0.05832 0.0
N281 N 0.0934 0.96158 0.07353 0.0
C282 C 0.06796 0.99581 0.06751 0.0
C283 C 0.08809 0.98493 0.07914 0.0
C284 C 0.05296 0.98223 0.05072 0.0
C285 C 0.05813 0.95785 0.04672 0.0
H286 H 0.08277 0.92922 0.05466 0.0
H287 H 0.0997 0.9953 0.092 0.0
C288 C 0.1973 0.94535 0.14577 0.0
N289 N 0.17324 0.9494 0.1459 0.0
C290 C 0.21116 0.95054 0.16817 0.0
C291 C 0.17558 0.96607 0.18978 0.0
C292 C 0.16223 0.95982 0.16715 0.0
C293 C 0.20042 0.96099 0.19081 0.0
H294 H 0.20572 0.93754 0.12839 0.0
H295 H 0.14308 0.96317 0.16657 0.0
C296 C 0.12922 0.9138 0.03276 0.0
N297 N 0.13355 0.90657 0.97845 0.0
C298 C 0.13471 0.89097 0.02282 0.0
C299 C 0.12574 0.93291 0.01507 0.0
C300 C 0.13687 0.88769 0.9953 0.0
C301 C 0.12806 0.9289 0.98769 0.0
C302 C 0.18278 0.89523 0.11403 0.0
C303 C 0.20625 0.88794 0.10822 0.0
C304 C 0.17161 0.8871 0.13728 0.0
C305 C 0.21826 0.87279 0.126 0.0
C306 C 0.1842 0.87196 0.15455 0.0
N307 N 0.20709 0.86518 0.14861 0.0
C308 C 0.18771 0.95127 0.02494 0.0
C309 C 0.1925 0.90938 0.0319 0.0
C310 C 0.20501 0.95094 0.00477 0.0
N311 N 0.18203 0.93071 0.03814 0.0
C312 C 0.20991 0.90822 0.01195 0.0
C313 C 0.21666 0.92927 0.99836 0.0
H314 H 0.17926 0.968 0.03045 0.0
H315 H 0.18767 0.89335 0.04291 0.0
C316 C 0.10336 0.86476 0.10276 0.0
N317 N 0.12633 0.8711 0.09673 0.0
C318 C 0.09522 0.84146 0.09756 0.0
C319 C 0.13482 0.83143 0.08114 0.0
C320 C 0.14221 0.85481 0.08686 0.0
C321 C 0.11077 0.82472 0.08555 0.0
H322 H 0.09087 0.87809 0.10993 0.0
H323 H 0.16013 0.86048 0.08137 0.0
O324 O 0.15432 0.96189 0.08461 0.0
O325 O 0.12218 0.92916 0.11913 0.0
O326 O 0.12762 0.91754 0.05967 0.0
O327 O 0.17083 0.91013 0.09684 0.0
H328 H 0.15533 0.99301 0.12456 0.0
H329 H 0.14168 0.98507 0.04051 0.0
H330 H 0.14635 0.03653 0.12053 0.0
H331 H 0.13313 0.02873 0.03791 0.0
H332 H 0.0979 0.90478 0.2014 0.0
H333 H 0.07538 0.92687 0.10943 0.0
H334 H 0.12977 0.91674 0.16951 0.0
H335 H 0.04445 0.91502 0.14248 0.0
H336 H 0.06431 0.01464 0.07132 0.0
H337 H 0.04708 0.94678 0.03382 0.0
H338 H 0.22997 0.94565 0.16778 0.0
H339 H 0.16641 0.97463 0.20627 0.0
H340 H 0.13746 0.87599 0.03619 0.0
H341 H 0.12142 0.95067 0.02242 0.0
H342 H 0.14123 0.87015 0.98733 0.0
H343 H 0.12552 0.94356 0.97379 0.0
H344 H 0.21511 0.89404 0.09022 0.0
H345 H 0.15335 0.89226 0.14178 0.0
H346 H 0.23647 0.86707 0.12182 0.0
H347 H 0.17577 0.86554 0.17264 0.0
H348 H 0.20958 0.96755 0.9947 0.0
H349 H 0.21871 0.89121 0.00805 0.0
H350 H 0.07661 0.83703 0.10154 0.0
H351 H 0.14737 0.8194 0.07141 0.0
Li352 Li 0.58779 0.37331 0.39446 0.0
Li353 Li 0.56298 0.34665 0.41967 0.0
Li354 Li 0.55295 0.35207 0.37386 0.0
Li355 Li 0.54749 0.38623 0.40817 0.0
C356 C 0.59474 0.31829 0.39609 0.0
N357 N 0.61652 0.27677 0.41441 0.0
C358 C 0.61215 0.31946 0.41616 0.0
C359 C 0.58872 0.29601 0.38503 0.0
C360 C 0.62287 0.29827 0.42524 0.0
C361 C 0.59986 0.27522 0.39463 0.0
C362 C 0.58426 0.3853 0.45394 0.0
C363 C 0.57912 0.40331 0.49737 0.0
N364 N 0.60309 0.40082 0.502 0.0
C365 C 0.60886 0.38295 0.45916 0.0
C366 C 0.56927 0.39561 0.4732 0.0
C367 C 0.61802 0.3909 0.48356 0.0
C368 C 0.62083 0.41009 0.39864 0.0
N369 N 0.61905 0.3866 0.39154 0.0
C370 C 0.66164 0.38184 0.39398 0.0
C371 C 0.63887 0.37268 0.38795 0.0
C372 C 0.6638 0.40548 0.40365 0.0
C373 C 0.64317 0.42004 0.40453 0.0
H374 H 0.60469 0.42058 0.40172 0.0
H375 H 0.63688 0.354 0.38242 0.0
C376 C 0.55209 0.30091 0.43854 0.0
N377 N 0.56312 0.32167 0.44592 0.0
C378 C 0.55434 0.28032 0.4541 0.0
C379 C 0.57862 0.30296 0.48522 0.0
C380 C 0.5757 0.32324 0.46911 0.0
C381 C 0.56844 0.28096 0.47732 0.0
H382 H 0.54249 0.30004 0.41982 0.0
H383 H 0.58458 0.33978 0.47446 0.0
C384 C 0.5756 0.39954 0.35332 0.0
N385 N 0.60539 0.42378 0.3184 0.0
C386 C 0.57526 0.42465 0.35235 0.0
C387 C 0.59096 0.38674 0.33643 0.0
C388 C 0.59049 0.43658 0.33458 0.0
C389 C 0.60593 0.39933 0.31895 0.0
C390 C 0.51456 0.34427 0.42218 0.0
C391 C 0.49757 0.32777 0.41286 0.0
C392 C 0.51518 0.3501 0.44929 0.0
C393 C 0.48168 0.3171 0.43092 0.0
C394 C 0.49901 0.33904 0.46672 0.0
N395 N 0.48274 0.32289 0.45725 0.0
C396 C 0.53239 0.31296 0.34922 0.0
C397 C 0.54216 0.34385 0.3185 0.0
C398 C 0.52606 0.29752 0.3285 0.0
N399 N 0.54072 0.3354 0.34389 0.0
C400 C 0.53601 0.32895 0.29706 0.0
C401 C 0.52845 0.30522 0.30197 0.0
H402 H 0.53169 0.30668 0.36961 0.0
H403 H 0.54892 0.36177 0.31482 0.0
C404 C 0.54473 0.43362 0.42347 0.0
N405 N 0.53114 0.41344 0.42125 0.0
C406 C 0.53651 0.4531 0.43838 0.0
C407 C 0.50009 0.4309 0.44779 0.0
C408 C 0.50892 0.41192 0.43238 0.0
C409 C 0.51427 0.45159 0.45159 0.0
H410 H 0.56256 0.43403 0.41489 0.0
H411 H 0.49865 0.39551 0.43059 0.0
O412 O 0.58346 0.33879 0.38757 0.0
O413 O 0.575 0.37815 0.42989 0.0
O414 O 0.56126 0.38751 0.37099 0.0
O415 O 0.53047 0.3547 0.40486 0.0
H416 H 0.61696 0.3365 0.42503 0.0
H417 H 0.57554 0.29473 0.36927 0.0
H418 H 0.63614 0.29892 0.441 0.0
H419 H 0.59523 0.25785 0.38638 0.0
H420 H 0.56772 0.41133 0.51241 0.0
H421 H 0.62082 0.37511 0.4446 0.0
H422 H 0.55024 0.39777 0.46957 0.0
H423 H 0.63702 0.38921 0.4878 0.0
H424 H 0.67705 0.36995 0.39313 0.0
H425 H 0.64407 0.43847 0.41145 0.0
H426 H 0.54589 0.26383 0.44745 0.0
H427 H 0.58986 0.3042 0.5028 0.0
H428 H 0.5634 0.43481 0.36522 0.0
H429 H 0.59154 0.36728 0.33708 0.0
H430 H 0.59049 0.45601 0.33366 0.0
H431 H 0.61801 0.38967 0.30587 0.0
H432 H 0.49657 0.3233 0.3919 0.0
H433 H 0.52822 0.3628 0.45682 0.0
H434 H 0.46849 0.30425 0.42399 0.0
H435 H 0.49942 0.34327 0.48777 0.0
H436 H 0.52003 0.27949 0.33319 0.0
H437 H 0.53827 0.33552 0.27689 0.0
H438 H 0.54786 0.46883 0.44026 0.0
H439 H 0.48295 0.4288 0.45775 0.0
Li440 Li 0.12421 0.59114 0.40917 0.0
Li441 Li 0.1529 0.5657 0.43625 0.0
Li442 Li 0.14713 0.5596 0.38891 0.0
Li443 Li 0.11486 0.55006 0.41927 0.0
C444 C 0.18055 0.59392 0.3939 0.0
N445 N 0.22273 0.60323 0.36666 0.0
C446 C 0.20203 0.58302 0.40186 0.0
C447 C 0.1806 0.60985 0.37234 0.0
C448 C 0.22315 0.5879 0.38778 0.0
C449 C 0.20208 0.61423 0.35874 0.0
C450 C 0.10692 0.57138 0.46679 0.0
C451 C 0.09944 0.54669 0.50542 0.0
N452 N 0.0788 0.55912 0.5101 0.0
C453 C 0.08575 0.58404 0.47207 0.0
C454 C 0.11395 0.55266 0.48367 0.0
C455 C 0.07174 0.57752 0.49405 0.0
C456 C 0.08667 0.62542 0.40821 0.0
N457 N 0.11092 0.62243 0.40861 0.0
C458 C 0.11681 0.66375 0.41953 0.0
C459 C 0.12603 0.64109 0.41342 0.0
C460 C 0.09176 0.66721 0.42069 0.0
C461 C 0.07666 0.64787 0.41387 0.0
H462 H 0.07506 0.61009 0.40506 0.0
H463 H 0.14522 0.63799 0.41427 0.0
C464 C 0.18507 0.54635 0.47449 0.0
N465 N 0.17537 0.56676 0.46423 0.0
C466 C 0.20408 0.54779 0.49262 0.0
C467 C 0.20195 0.59118 0.48988 0.0
C468 C 0.18298 0.58889 0.47191 0.0
C469 C 0.21316 0.57044 0.50002 0.0
H470 H 0.17859 0.52901 0.4679 0.0
H471 H 0.17498 0.60475 0.46311 0.0
C472 C 0.09847 0.57859 0.36643 0.0
N473 N 0.07045 0.60469 0.3313 0.0
C474 C 0.07428 0.57263 0.36272 0.0
C475 C 0.10847 0.59761 0.352 0.0
C476 C 0.0604 0.58609 0.34493 0.0
C477 C 0.094 0.61066 0.33442 0.0
C478 C 0.14644 0.51222 0.40704 0.0
C479 C 0.12973 0.50702 0.38701 0.0
C480 C 0.16236 0.49436 0.41557 0.0
C481 C 0.12917 0.48397 0.37594 0.0
C482 C 0.16123 0.47154 0.404 0.0
N483 N 0.1448 0.46686 0.38459 0.0
C484 C 0.18646 0.53873 0.36338 0.0
C485 C 0.1587 0.55632 0.33332 0.0
C486 C 0.20251 0.53406 0.34267 0.0
N487 N 0.16535 0.55023 0.35849 0.0
C488 C 0.17413 0.55179 0.31192 0.0
C489 C 0.19666 0.54104 0.31654 0.0
H490 H 0.19129 0.53411 0.38363 0.0
H491 H 0.14172 0.5652 0.3299 0.0
C492 C 0.06682 0.54252 0.4302 0.0
N493 N 0.08835 0.53097 0.43007 0.0
C494 C 0.04725 0.53258 0.44355 0.0
C495 C 0.07191 0.49825 0.45494 0.0
C496 C 0.0912 0.50907 0.44173 0.0
C497 C 0.04988 0.51046 0.45661 0.0
H498 H 0.06538 0.56029 0.4216 0.0
H499 H 0.10871 0.50068 0.44222 0.0
O500 O 0.1596 0.589 0.40713 0.0
O501 O 0.12036 0.57681 0.44476 0.0
O502 O 0.11227 0.56576 0.38396 0.0
O503 O 0.14764 0.53473 0.41803 0.0
H504 H 0.20235 0.57059 0.41844 0.0
H505 H 0.16425 0.61878 0.36618 0.0
H506 H 0.23985 0.57941 0.39356 0.0
H507 H 0.20235 0.6264 0.34192 0.0
H508 H 0.10452 0.53208 0.51851 0.0
H509 H 0.08003 0.59853 0.45914 0.0
H510 H 0.13019 0.54255 0.47969 0.0
H511 H 0.0552 0.58702 0.49827 0.0
H512 H 0.12922 0.67788 0.42512 0.0
H513 H 0.05728 0.64971 0.4142 0.0
H514 H 0.21205 0.53137 0.50015 0.0
H515 H 0.20859 0.60898 0.49461 0.0
H516 H 0.06634 0.55768 0.37333 0.0
H517 H 0.12715 0.60237 0.35455 0.0
H518 H 0.04164 0.58172 0.34193 0.0
H519 H 0.10149 0.62553 0.32328 0.0
H520 H 0.11728 0.52053 0.38005 0.0
H521 H 0.17551 0.49813 0.43092 0.0
H522 H 0.11631 0.47969 0.36046 0.0
H523 H 0.17345 0.45755 0.41041 0.0
H524 H 0.21972 0.526 0.34731 0.0
H525 H 0.16862 0.55702 0.29204 0.0
H526 H 0.03049 0.54248 0.44451 0.0
H527 H 0.07458 0.48128 0.46511 0.0
Li528 Li 0.93443 0.15357 0.42306 0.0
Li529 Li 0.90884 0.12677 0.39861 0.0
Li530 Li 0.95038 0.11539 0.40782 0.0
Li531 Li 0.93999 0.14956 0.3756 0.0
C532 C 0.92062 0.11368 0.45834 0.0
N533 N 0.91293 0.09739 0.50975 0.0
C534 C 0.89732 0.1128 0.4688 0.0
C535 C 0.93998 0.10615 0.47406 0.0
C536 C 0.89381 0.10456 0.49482 0.0
C537 C 0.93573 0.09801 0.49998 0.0
C538 C 0.89139 0.17407 0.40181 0.0
C539 C 0.8602 0.20304 0.39273 0.0
N540 N 0.85064 0.19882 0.41726 0.0
C541 C 0.8813 0.17006 0.42693 0.0
C542 C 0.88082 0.19073 0.38457 0.0
C543 C 0.86069 0.18273 0.43438 0.0
C544 C 0.93286 0.20048 0.44075 0.0
N545 N 0.93463 0.17767 0.45023 0.0
C546 C 0.93116 0.19175 0.49513 0.0
C547 C 0.93449 0.17303 0.47687 0.0
C548 C 0.9278 0.21527 0.4857 0.0
C549 C 0.92938 0.21963 0.45819 0.0
H550 H 0.93323 0.20366 0.41948 0.0
H551 H 0.93616 0.15484 0.48402 0.0
C552 C 0.87761 0.09015 0.40968 0.0
N553 N 0.87791 0.11227 0.39822 0.0
C554 C 0.85595 0.07984 0.41752 0.0
C555 C 0.83501 0.11409 0.39894 0.0
C556 C 0.85722 0.12381 0.39149 0.0
C557 C 0.83444 0.09244 0.41334 0.0
H558 H 0.89437 0.08141 0.41471 0.0
H559 H 0.85792 0.14124 0.38202 0.0
C560 C 0.97966 0.16329 0.41837 0.0
N561 N 0.00649 0.19512 0.44845 0.0
C562 C 0.98558 0.18589 0.40811 0.0
C563 C 0.98758 0.15678 0.44381 0.0
C564 C -0.00088 0.20175 0.42366 0.0
C565 C 0.00107 0.17315 0.45875 0.0
C566 C 0.91731 0.10343 0.35524 0.0
C567 C 0.91516 0.0784 0.35457 0.0
C568 C 0.90262 0.11757 0.33894 0.0
C569 C 0.89818 0.06791 0.33764 0.0
C570 C 0.88587 0.10639 0.32229 0.0
N571 N 0.88401 0.082 0.322 0.0
C572 C 0.95547 0.068 0.42076 0.0
C573 C 0.99183 0.08974 0.42629 0.0
C574 C 0.96501 0.0483 0.4342 0.0
N575 N 0.96869 0.08833 0.41769 0.0
C576 C 0.00209 0.07042 0.44004 0.0
C577 C 0.98828 0.04968 0.44494 0.0
H578 H 0.93695 0.06769 0.41427 0.0
H579 H 0.00173 0.10636 0.42402 0.0
C580 C 0.94416 0.1915 0.34692 0.0
N581 N 0.94732 0.16738 0.34461 0.0
C582 C 0.94733 0.20645 0.32491 0.0
C583 C 0.957 0.17139 0.29842 0.0
C584 C 0.95378 0.15709 0.32109 0.0
C585 C 0.9536 0.19642 0.30017 0.0
H586 H 0.93868 0.19907 0.36584 0.0
H587 H 0.95591 0.13778 0.31984 0.0
O588 O 0.92434 0.12111 0.43261 0.0
O589 O 0.91165 0.16198 0.39406 0.0
O590 O 0.96587 0.14777 0.40374 0.0
O591 O 0.93328 0.11415 0.37222 0.0
H592 H 0.88202 0.1183 0.45698 0.0
H593 H 0.95813 0.10668 0.46645 0.0
H594 H 0.87587 0.10378 0.50312 0.0
H595 H 0.95057 0.09218 0.51234 0.0
H596 H 0.85179 0.21596 0.37957 0.0
H597 H 0.88938 0.15744 0.44059 0.0
H598 H 0.88846 0.19406 0.36506 0.0
H599 H 0.85271 0.1798 0.45379 0.0
H600 H 0.93003 0.18771 0.51622 0.0
H601 H 0.92724 0.2376 0.4502 0.0
H602 H 0.85613 0.06301 0.42839 0.0
H603 H 0.81873 0.12429 0.39542 0.0
H604 H 0.9797 0.19118 0.38842 0.0
H605 H 0.98306 0.13943 0.4521 0.0
H606 H 0.00374 0.21935 0.41603 0.0
H607 H 0.00715 0.16842 0.47855 0.0
H608 H 0.92641 0.06721 0.36703 0.0
H609 H 0.90392 0.13699 0.33944 0.0
H610 H 0.89626 0.04856 0.33696 0.0
H611 H 0.87429 0.1171 0.30968 0.0
H612 H 0.95389 0.03253 0.43712 0.0
H613 H 0.02004 0.07229 0.44816 0.0
H614 H 0.94409 0.22555 0.32704 0.0
H615 H 0.9619 0.16298 0.27971 0.0
Li616 Li 0.34282 0.9263 0.42795 0.0
Li617 Li 0.36771 0.90339 0.39848 0.0
Li618 Li 0.38146 0.94269 0.41169 0.0
Li619 Li 0.3451 0.9367 0.38005 0.0
C620 C 0.38091 0.89502 0.44962 0.0
N621 N 0.39218 0.85334 0.47696 0.0
C622 C 0.36317 0.87783 0.45473 0.0
C623 C 0.40434 0.89112 0.45874 0.0
C624 C 0.36922 0.85686 0.46851 0.0
C625 C 0.4097 0.86991 0.47244 0.0
C626 C 0.31776 0.88912 0.38958 0.0
C627 C 0.30064 0.86387 0.35535 0.0
N628 N 0.28812 0.85165 0.3743 0.0
C629 C 0.30453 0.87644 0.40869 0.0
C630 C 0.31566 0.88289 0.36266 0.0
C631 C 0.28973 0.85751 0.40057 0.0
C632 C 0.29768 0.92774 0.45263 0.0
N633 N 0.32163 0.92596 0.4575 0.0
C634 C 0.31459 0.9221 0.50428 0.0
C635 C 0.33036 0.92366 0.48269 0.0
C636 C 0.28971 0.9233 0.49978 0.0
C637 C 0.2813 0.92653 0.47361 0.0
H638 H 0.29134 0.92963 0.43234 0.0
H639 H 0.34955 0.92267 0.48597 0.0
C640 C 0.40531 0.87016 0.39592 0.0
N641 N 0.38099 0.87172 0.39371 0.0
C642 C 0.41631 0.84804 0.40074 0.0
C643 C 0.37721 0.82923 0.39943 0.0
C644 C 0.367 0.85167 0.39434 0.0
C645 C 0.40209 0.82736 0.4039 0.0
H646 H 0.41603 0.88635 0.39634 0.0
H647 H 0.34777 0.85308 0.3933 0.0
C648 C 0.3345 0.97268 0.42707 0.0
N649 N 0.30425 -0.00093 0.45949 0.0
C650 C 0.31182 0.9796 0.41786 0.0
C651 C 0.34186 0.97926 0.45271 0.0
C652 C 0.29678 0.99293 0.43457 0.0
C653 C 0.32628 0.99258 0.46882 0.0
C654 C 0.39416 0.91789 0.35619 0.0
C655 C 0.41909 0.92106 0.35618 0.0
C656 C 0.38354 0.90294 0.33714 0.0
C657 C 0.43305 0.90871 0.33749 0.0
C658 C 0.39811 0.89089 0.3188 0.0
N659 N 0.42236 0.89397 0.31937 0.0
C660 C 0.42902 0.94824 0.42626 0.0
C661 C 0.40612 0.98395 0.43086 0.0
C662 C 0.44809 0.95842 0.44032 0.0
N663 N 0.40836 0.9608 0.42258 0.0
C664 C 0.42483 0.99493 0.44493 0.0
C665 C 0.44585 0.98181 0.45064 0.0
H666 H 0.43012 0.92977 0.41964 0.0
H667 H 0.38938 0.99344 0.42778 0.0
C668 C 0.30318 0.94137 0.35056 0.0
N669 N 0.32652 0.94846 0.35114 0.0
C670 C 0.28855 0.94723 0.329 0.0
C671 C 0.32163 0.96954 0.30996 0.0
C672 C 0.3359 0.96257 0.33163 0.0
C673 C 0.29765 0.96142 0.30805 0.0
H674 H 0.29602 0.9306 0.36664 0.0
H675 H 0.3545 0.96818 0.33277 0.0
O676 O 0.37549 0.91516 0.43506 0.0
O677 O 0.3323 0.90779 0.39719 0.0
O678 O 0.3492 0.95904 0.4113 0.0
O679 O 0.38022 0.92969 0.37447 0.0
H680 H 0.34501 0.88047 0.44773 0.0
H681 H 0.41833 0.90421 0.45514 0.0
H682 H 0.35569 0.84332 0.47235 0.0
H683 H 0.42781 0.86658 0.4794 0.0
H684 H 0.29889 0.85886 0.33459 0.0
H685 H 0.30566 0.88109 0.42958 0.0
H686 H 0.32533 0.89274 0.34753 0.0
H687 H 0.27949 0.84749 0.41517 0.0
H688 H 0.32173 0.91977 0.52421 0.0
H689 H 0.26224 0.92721 0.46928 0.0
H690 H 0.43559 0.84745 0.40368 0.0
H691 H 0.36539 0.81395 0.40206 0.0
H692 H 0.30584 0.97455 0.3981 0.0
H693 H 0.35926 0.97378 0.46024 0.0
H694 H 0.27913 0.99834 0.42775 0.0
H695 H 0.33165 0.99765 0.48877 0.0
H696 H 0.42758 0.9329 0.37045 0.0
H697 H 0.36429 0.90061 0.3366 0.0
H698 H 0.45238 0.91087 0.33737 0.0
H699 H 0.39013 0.87912 0.30408 0.0
H700 H 0.46376 0.94748 0.44445 0.0
H701 H 0.4225 0.01314 0.45213 0.0
H702 H 0.27053 0.93994 0.32858 0.0
H703 H 0.32948 0.98098 0.29483 0.0
Li704 Li 0.4539 0.87561 0.92013 0.0
Li705 Li 0.41389 0.86598 0.91268 0.0
Li706 Li 0.43966 0.83697 0.93619 0.0
Li707 Li 0.44364 0.84575 0.88588 0.0
C708 C 0.43585 0.88253 0.96925 0.0
N709 N 0.4495 0.91043 0.01233 0.0
C710 C 0.43173 0.90735 0.9691 0.0
C711 C 0.44676 0.87191 0.99144 0.0
C712 C 0.43881 0.92114 0.99103 0.0
C713 C 0.45357 0.88632 0.01299 0.0
C714 C 0.42005 0.89582 0.8744 0.0
C715 C 0.39183 0.90486 0.83924 0.0
N716 N 0.38631 0.92595 0.85153 0.0
C717 C 0.41408 0.91761 0.88666 0.0
C718 C 0.40879 0.88935 0.85053 0.0
C719 C 0.39698 0.93257 0.8748 0.0
C720 C 0.47561 0.92205 0.9184 0.0
N721 N 0.47602 0.90014 0.93041 0.0
C722 C 0.50079 0.91517 0.96551 0.0
C723 C 0.48933 0.89612 0.95272 0.0
C724 C 0.49902 0.93834 0.95474 0.0
C725 C 0.4872 0.9416 0.9303 0.0
H726 H 0.46519 0.92467 0.90045 0.0
H727 H 0.48946 0.87849 0.96175 0.0
C728 C 0.37477 0.88775 0.9372 0.0
N729 N 0.3812 0.87742 0.91372 0.0
C730 C 0.35138 0.89567 0.9413 0.0
C731 C 0.34109 0.88198 0.89703 0.0
C732 C 0.36494 0.87455 0.89363 0.0
C733 C 0.33414 0.89268 0.92118 0.0
H734 H 0.3876 0.88929 0.95316 0.0
H735 H 0.37027 0.86606 0.8752 0.0
C736 C 0.49262 0.84747 0.91027 0.0
N737 N 0.5408 0.85676 0.9019 0.0
C738 C 0.5001 0.8589 0.88688 0.0
C739 C 0.50961 0.84071 0.92938 0.0
C740 C 0.52456 0.86345 0.88303 0.0
C741 C 0.5339 0.84559 0.92478 0.0
C742 C 0.39467 0.82293 0.89973 0.0
C743 C 0.37777 0.819 0.91989 0.0
C744 C 0.38835 0.81889 0.87312 0.0
C745 C 0.35465 0.81135 0.91304 0.0
C746 C 0.36507 0.81117 0.8671 0.0
N747 N 0.34883 0.80763 0.88701 0.0
C748 C 0.4227 0.81051 0.97962 0.0
C749 C 0.45868 0.79546 0.96048 0.0
C750 C 0.42154 0.79101 0.99705 0.0
N751 N 0.44086 0.81212 0.96161 0.0
C752 C 0.45832 0.77571 0.97764 0.0
C753 C 0.43929 0.77304 0.99589 0.0
H754 H 0.40878 0.82409 0.97995 0.0
H755 H 0.4728 0.79721 0.94578 0.0
C756 C 0.4526 0.83957 0.82965 0.0
N757 N 0.45167 0.82922 0.85417 0.0
C758 C 0.45617 0.82534 0.807 0.0
C759 C 0.45955 0.7905 0.83558 0.0
C760 C 0.45548 0.8053 0.85754 0.0
C761 C 0.45929 0.80032 0.80974 0.0
H762 H 0.45008 0.85874 0.82759 0.0
H763 H 0.45489 0.79768 0.87739 0.0
O764 O 0.42905 0.86868 0.94793 0.0
O765 O 0.43667 0.88085 0.88582 0.0
O766 O 0.46874 0.84318 0.91455 0.0
O767 O 0.41731 0.83066 0.90598 0.0
H768 H 0.42332 0.91592 0.95216 0.0
H769 H 0.45025 0.8528 0.99193 0.0
H770 H 0.43588 0.94037 0.99107 0.0
H771 H 0.46216 0.87835 0.0302 0.0
H772 H 0.3829 0.9 0.82085 0.0
H773 H 0.42237 0.92282 0.90527 0.0
H774 H 0.41262 0.87232 0.8411 0.0
H775 H 0.39213 0.94942 0.88415 0.0
H776 H 0.50993 0.91207 0.98428 0.0
H777 H 0.48559 0.9593 0.92148 0.0
H778 H 0.34663 0.90325 0.9605 0.0
H779 H 0.32822 0.87922 0.88111 0.0
H780 H 0.48713 0.86438 0.87199 0.0
H781 H 0.50405 0.83196 0.94766 0.0
H782 H 0.53061 0.87234 0.86506 0.0
H783 H 0.54726 0.84053 0.93943 0.0
H784 H 0.38235 0.82214 0.94056 0.0
H785 H 0.40122 0.82188 0.85728 0.0
H786 H 0.34132 0.80843 0.92841 0.0
H787 H 0.35988 0.80807 0.84659 0.0
H788 H 0.40636 0.78954 0.01047 0.0
H789 H 0.47251 0.76243 0.97627 0.0
H790 H 0.45571 0.83379 0.78757 0.0
H791 H 0.46258 0.7715 0.83888 0.0
Li792 Li 0.62498 0.40193 0.9049 0.0
Li793 Li 0.6154 0.44302 0.91672 0.0
Li794 Li 0.64397 0.43394 0.87899 0.0
Li795 Li 0.65529 0.42811 0.92637 0.0
C796 C 0.59578 0.41911 0.86073 0.0
N797 N 0.56912 0.40417 0.81724 0.0
C798 C 0.57142 0.42508 0.85878 0.0
C799 C 0.6066 0.40576 0.84041 0.0
C800 C 0.55823 0.4173 0.83668 0.0
C801 C 0.59283 0.39832 0.81863 0.0
C802 C 0.60946 0.41743 0.96181 0.0
C803 C 0.59702 0.43526 0.00345 0.0
N804 N 0.57722 0.42091 0.0036 0.0
C805 C 0.58911 0.40266 0.96253 0.0
C806 C 0.61359 0.43368 0.98258 0.0
C807 C 0.573 0.40475 0.98378 0.0
C808 C 0.62353 0.35551 0.92394 0.0
N809 N 0.61211 0.37021 0.90639 0.0
C810 C 0.58116 0.34093 0.89981 0.0
C811 C 0.59134 0.36336 0.89418 0.0
C812 C 0.59268 0.32551 0.91789 0.0
C813 C 0.61434 0.33284 0.92964 0.0
H814 H 0.63931 0.36183 0.93439 0.0
H815 H 0.58204 0.37562 0.88109 0.0
C816 C 0.59238 0.48357 0.94123 0.0
N817 N 0.5894 0.46146 0.93016 0.0
C818 C 0.57369 0.49405 0.9558 0.0
C819 C 0.54904 0.45931 0.94609 0.0
C820 C 0.56805 0.44966 0.93154 0.0
C821 C 0.55197 0.48147 0.95903 0.0
H822 H 0.6095 0.49262 0.93973 0.0
H823 H 0.56628 0.43204 0.92263 0.0
C824 C 0.66897 0.38292 0.89483 0.0
N825 N 0.68664 0.33639 0.89355 0.0
C826 C 0.68571 0.37524 0.91384 0.0
C827 C 0.66146 0.36688 0.875 0.0
C828 C 0.69437 0.35168 0.9129 0.0
C829 C 0.67052 0.34345 0.87475 0.0
C830 C 0.66213 0.47548 0.91802 0.0
C831 C 0.68056 0.48473 0.90205 0.0
C832 C 0.66015 0.48298 0.94453 0.0
C833 C 0.69673 0.50126 0.91293 0.0
C834 C 0.67669 0.49952 0.95468 0.0
N835 N 0.69449 0.50825 0.93881 0.0
C836 C 0.65762 0.46552 0.83605 0.0
C837 C 0.66979 0.42476 0.83306 0.0
C838 C 0.67159 0.47139 0.8137 0.0
N839 N 0.65742 0.44258 0.84549 0.0
C840 C 0.68348 0.42966 0.81053 0.0
C841 C 0.68493 0.45329 0.8009 0.0
H842 H 0.64791 0.47944 0.84659 0.0
H843 H 0.66978 0.40684 0.84124 0.0
C844 C 0.67928 0.41788 0.97477 0.0
N845 N 0.68151 0.42864 0.95056 0.0
C846 C 0.6993 0.41537 0.99136 0.0
C847 C 0.72317 0.43608 0.95827 0.0
C848 C 0.70288 0.43763 0.9421 0.0
C849 C 0.72177 0.42423 0.983 0.0
H850 H 0.66221 0.41025 0.98066 0.0
H851 H 0.70439 0.44528 0.92238 0.0
O852 O 0.60887 0.42653 0.88232 0.0
O853 O 0.62512 0.41614 0.94078 0.0
O854 O 0.66018 0.40597 0.89556 0.0
O855 O 0.64619 0.45915 0.90776 0.0
H856 H 0.56277 0.43564 0.87414 0.0
H857 H 0.6254 0.40123 0.84142 0.0
H858 H 0.53936 0.42173 0.83498 0.0
H859 H 0.601 0.38791 0.80281 0.0
H860 H 0.5999 0.44791 0.01953 0.0
H861 H 0.58554 0.39002 0.94664 0.0
H862 H 0.62936 0.44503 0.98254 0.0
H863 H 0.55707 0.3936 0.98445 0.0
H864 H 0.5642 0.33593 0.89074 0.0
H865 H 0.62337 0.3217 0.94427 0.0
H866 H 0.57659 0.51121 0.9655 0.0
H867 H 0.53244 0.44923 0.94783 0.0
H868 H 0.69203 0.38724 0.92921 0.0
H869 H 0.64845 0.37222 0.86019 0.0
H870 H 0.70726 0.34555 0.92756 0.0
H871 H 0.66466 0.33085 0.85964 0.0
H872 H 0.6826 0.47897 0.8816 0.0
H873 H 0.64613 0.47595 0.95722 0.0
H874 H 0.71113 0.50847 0.90083 0.0
H875 H 0.6754 0.50538 0.97521 0.0
H876 H 0.67236 0.48984 0.80685 0.0
H877 H 0.69383 0.41529 0.80153 0.0
H878 H 0.69733 0.40567 0.00994 0.0
H879 H 0.73991 0.44359 0.95107 0.0
Li880 Li 0.07439 0.65294 0.88007 0.0
Li881 Li 0.08162 0.65476 0.92733 0.0
Li882 Li 0.10625 0.62952 0.90012 0.0
Li883 Li 0.06438 0.61737 0.91026 0.0
C884 C 0.10477 0.68921 0.8958 0.0
N885 N 0.10614 0.73857 0.88937 0.0
C886 C 0.08473 0.70321 0.90222 0.0
C887 C 0.12554 0.70035 0.88609 0.0
C888 C 0.08576 0.72811 0.89886 0.0
C889 C 0.12587 0.72532 0.88298 0.0
C890 C 0.03042 0.65817 0.92369 0.0
C891 C 0.00095 0.65213 0.95839 0.0
N892 N 0.99064 0.67356 0.95206 0.0
C893 C 0.01943 0.68008 0.91745 0.0
C894 C 0.02105 0.64405 0.94429 0.0
C895 C -0.0006 0.68757 0.93207 0.0
C896 C 0.04361 0.67982 0.84502 0.0
N897 N 0.06631 0.6718 0.84984 0.0
C898 C 0.08232 0.6979 0.81655 0.0
C899 C 0.08537 0.67986 0.83546 0.0
C900 C 0.05935 0.7075 0.81212 0.0
C901 C 0.03966 0.69774 0.82589 0.0
H902 H 0.02878 0.67311 0.85682 0.0
H903 H 0.10322 0.67322 0.8398 0.0
C904 C 0.10715 0.68351 0.96252 0.0
N905 N 0.08448 0.67524 0.95812 0.0
C906 C 0.11195 0.69881 0.98387 0.0
C907 C 0.07007 0.69657 0.99635 0.0
C908 C 0.0661 0.68121 0.97475 0.0
C909 C 0.09322 0.70574 0.00098 0.0
H910 H 0.12156 0.67831 0.94923 0.0
H911 H 0.04833 0.67427 0.97142 0.0
C912 C 0.09319 0.60248 0.85856 0.0
N913 N 0.11907 0.57119 0.82684 0.0
C914 C 0.08887 0.57776 0.85993 0.0
C915 C 0.11048 0.61134 0.84089 0.0
C916 C 0.10219 0.56222 0.84376 0.0
C917 C 0.12344 0.59521 0.82508 0.0
C918 C 0.0983 0.62138 0.96046 0.0
C919 C 0.12212 0.62609 0.96766 0.0
C920 C 0.08116 0.61706 0.98025 0.0
C921 C 0.12832 0.62673 0.99465 0.0
C922 C 0.08807 0.61786 0.00702 0.0
N923 N 0.11131 0.62266 0.01361 0.0
C924 C 0.15665 0.63184 0.89884 0.0
C925 C 0.14056 0.59239 0.89967 0.0
C926 C 0.17969 0.62299 0.90387 0.0
N927 N 0.13764 0.61657 0.89765 0.0
C928 C 0.16334 0.58271 0.90414 0.0
C929 C 0.18313 0.59814 0.90762 0.0
H930 H 0.15367 0.65102 0.89798 0.0
H931 H 0.12503 0.58072 0.89952 0.0
C932 C 0.02178 0.58797 0.91736 0.0
N933 N 0.04609 0.58987 0.91936 0.0
C934 C 0.00984 0.56881 0.92972 0.0
C935 C 0.04835 0.55333 0.94413 0.0
C936 C 0.05945 0.57269 0.93163 0.0
C937 C 0.02317 0.55154 0.94397 0.0
H938 H 0.01161 0.60195 0.90747 0.0
H939 H 0.07876 0.5747 0.93284 0.0
O940 O 0.10397 0.66468 0.89821 0.0
O941 O 0.04973 0.65029 0.90915 0.0
O942 O 0.08048 0.61793 0.87439 0.0
O943 O 0.09177 0.62122 0.93416 0.0
H944 H 0.06855 0.69494 0.90971 0.0
H945 H 0.14115 0.68982 0.88072 0.0
H946 H 0.07034 0.73912 0.90375 0.0
H947 H 0.1418 0.73416 0.8754 0.0
H948 H 0.99362 0.64142 0.97446 0.0
H949 H 0.02623 0.69122 0.90146 0.0
H950 H 0.02943 0.62726 0.9497 0.0
H951 H 0.99078 0.70451 0.92748 0.0
H952 H 0.09788 0.70484 0.80606 0.0
H953 H 0.02169 0.70477 0.82292 0.0
H954 H 0.13002 0.70569 0.98647 0.0
H955 H 0.05517 0.70127 0.00924 0.0
H956 H 0.07546 0.57064 0.87344 0.0
H957 H 0.11406 0.63042 0.83965 0.0
H958 H 0.09912 0.54303 0.84468 0.0
H959 H 0.13701 0.60178 0.81144 0.0
H960 H 0.13562 0.62952 0.95261 0.0
H961 H 0.0627 0.61321 0.97502 0.0
H962 H 0.14665 0.63052 0.00053 0.0
H963 H 0.07496 0.61467 0.02256 0.0
H964 H 0.1942 0.63568 0.90684 0.0
H965 H 0.16512 0.56343 0.90644 0.0
H966 H 0.99041 0.56793 0.92885 0.0
H967 H 0.05936 0.54068 0.95509 0.0
Li968 Li 0.86287 0.09244 0.90268 0.0
Li969 Li 0.87362 0.05148 0.91792 0.0
Li970 Li 0.84274 0.05855 0.8841 0.0
Li971 Li 0.83433 0.06804 0.92926 0.0
C972 C 0.89548 0.07654 0.8674 0.0
N973 N 0.93156 0.09922 0.8391 0.0
C974 C 0.91957 0.07123 0.87271 0.0
C975 C 0.88972 0.09311 0.84746 0.0
C976 C 0.93756 0.08296 0.85824 0.0
C977 C 0.90822 0.10447 0.83345 0.0
C978 C 0.86699 0.08263 0.96603 0.0
C979 C 0.86552 0.0655 0.01014 0.0
N980 N 0.86735 0.08794 0.02076 0.0
C981 C 0.86886 0.10552 0.97732 0.0
C982 C 0.86531 0.06243 0.98249 0.0
C983 C 0.86901 0.10783 0.00506 0.0
C984 C 0.85945 0.14261 0.90063 0.0
N985 N 0.87526 0.124 0.90054 0.0
C986 C 0.90805 0.15063 0.90891 0.0
C987 C 0.89921 0.12758 0.90411 0.0
C988 C 0.89196 0.17004 0.91118 0.0
C989 C 0.86744 0.16592 0.90595 0.0
H990 H 0.84042 0.1391 0.8985 0.0
H991 H 0.91128 0.11239 0.90492 0.0
C992 C 0.90249 0.01098 0.93616 0.0
N993 N 0.90021 0.03518 0.93331 0.0
C994 C 0.92138 0.00149 0.95125 0.0
C995 C 0.93509 0.04195 0.96004 0.0
C996 C 0.91632 0.05058 0.94441 0.0
C997 C 0.93774 0.01708 0.96396 0.0
H998 H 0.88941 -0.00099 0.92743 0.0
H999 H 0.91403 0.06976 0.9419 0.0
C1000 C 0.80915 0.09329 0.882 0.0
N1001 N 0.77074 0.10128 0.84822 0.0
C1002 C 0.78589 0.08695 0.88987 0.0
C1003 C 0.81283 0.10409 0.85717 0.0
C1004 C 0.76671 0.09107 0.87247 0.0
C1005 C 0.79319 0.10783 0.8403 0.0
C1006 C 0.84474 0.01238 0.90645 0.0
C1007 C 0.85853 0.00775 0.88368 0.0
C1008 C 0.83452 0.99319 0.92044 0.0
C1009 C 0.86185 0.98402 0.87533 0.0
C1010 C 0.83829 0.9697 0.91148 0.0
N1011 N 0.85176 0.96564 0.88929 0.0
C1012 C 0.83752 0.04968 0.82841 0.0
C1013 C 0.80405 0.03982 0.85549 0.0
C1014 C 0.82394 0.04587 0.80537 0.0
N1015 N 0.82712 0.04741 0.85277 0.0
C1016 C 0.78962 0.03653 0.83306 0.0
C1017 C 0.79927 0.04034 0.80746 0.0
H1018 H 0.85603 0.05544 0.82687 0.0
H1019 H 0.79638 0.03796 0.87521 0.0
C1020 C 0.806 0.09194 0.96709 0.0
N1021 N 0.81094 0.07007 0.95633 0.0
C1022 C 0.78802 0.09425 0.98631 0.0
C1023 C 0.78071 0.05146 0.98301 0.0
C1024 C 0.79895 0.04996 0.96398 0.0
C1025 C 0.7749 0.07388 0.99421 0.0
H1026 H 0.81577 0.10763 0.96035 0.0
H1027 H 0.80328 0.03285 0.95495 0.0
O1028 O 0.87764 0.0653 0.88143 0.0
O1029 O 0.86652 0.08005 0.93893 0.0
O1030 O 0.8282 0.08895 0.89854 0.0
O1031 O 0.84098 0.03544 0.91508 0.0
H1032 H 0.92434 0.05821 0.88783 0.0
H1033 H 0.87117 0.09728 0.84299 0.0
H1034 H 0.95629 0.07912 0.86221 0.0
H1035 H 0.90402 0.11747 0.81809 0.0
H1036 H 0.86419 0.05005 0.02316 0.0
H1037 H 0.87011 0.12131 0.96476 0.0
H1038 H 0.86369 0.04461 0.97399 0.0
H1039 H 0.87043 0.12543 0.01412 0.0
H1040 H 0.92713 0.15295 0.91236 0.0
H1041 H 0.85426 0.18013 0.90791 0.0
H1042 H 0.92289 0.98216 0.95323 0.0
H1043 H 0.94683 0.05481 0.96971 0.0
H1044 H 0.78273 0.07866 0.90908 0.0
H1045 H 0.83068 0.10933 0.85091 0.0
H1046 H 0.74864 0.08606 0.87819 0.0
H1047 H 0.79581 0.11592 0.8209 0.0
H1048 H 0.86669 0.0222 0.87253 0.0
H1049 H 0.82382 0.99639 0.93812 0.0
H1050 H 0.87249 0.9802 0.85777 0.0
H1051 H 0.83051 0.9547 0.92215 0.0
H1052 H 0.83252 0.0482 0.78617 0.0
H1053 H 0.77077 0.03253 0.83601 0.0
H1054 H 0.78384 0.11191 0.99417 0.0
H1055 H 0.77109 0.03532 0.98871 0.0
Li1056 Li 0.44099 0.65857 0.6147 0.0
Li1057 Li 0.44297 0.66323 0.56494 0.0
Li1058 Li 0.41275 0.63785 0.58524 0.0
Li1059 Li 0.4532 0.62504 0.58378 0.0
C1060 C 0.39513 0.68203 0.58836 0.0
N1061 N 0.34863 0.69899 0.58417 0.0
C1062 C 0.38503 0.68615 0.56326 0.0
C1063 C 0.38169 0.68664 0.61134 0.0
C1064 C 0.36146 0.69469 0.56156 0.0
C1065 C 0.35818 0.6952 0.60879 0.0
C1066 C 0.48619 0.67316 0.5824 0.0
C1067 C 0.51302 0.68916 0.54901 0.0
N1068 N 0.51803 0.70807 0.56529 0.0
C1069 C 0.49175 0.69266 0.59887 0.0
C1070 C 0.49706 0.67128 0.55734 0.0
C1071 C 0.50784 0.71015 0.58984 0.0
C1072 C 0.45437 0.66519 0.66929 0.0
N1073 N 0.44552 0.67574 0.6469 0.0
C1074 C 0.44213 0.71354 0.66915 0.0
C1075 C 0.43958 0.69944 0.64636 0.0
C1076 C 0.45064 0.70306 0.69278 0.0
C1077 C 0.45684 0.67857 0.69275 0.0
H1078 H 0.45917 0.64634 0.66901 0.0
H1079 H 0.43285 0.70737 0.62813 0.0
C1080 C 0.44661 0.68245 0.51211 0.0
N1081 N 0.44712 0.68744 0.53863 0.0
C1082 C 0.4472 0.70109 0.49345 0.0
C1083 C 0.44848 0.7296 0.52982 0.0
C1084 C 0.4482 0.71042 0.54771 0.0
C1085 C 0.44768 0.72512 0.50222 0.0
H1086 H 0.44491 0.66411 0.50537 0.0
H1087 H 0.44797 0.71385 0.56895 0.0
C1088 C 0.41371 0.61238 0.62985 0.0
N1089 N 0.37823 0.58911 0.65866 0.0
C1090 C 0.40328 0.59125 0.62004 0.0
C1091 C 0.40597 0.62167 0.65431 0.0
C1092 C 0.38539 0.57977 0.63488 0.0
C1093 C 0.38806 0.60963 0.66858 0.0
C1094 C 0.43767 0.61273 0.53668 0.0
C1095 C 0.42498 0.59107 0.53852 0.0
C1096 C 0.45668 0.61466 0.51854 0.0
C1097 C 0.43134 0.57185 0.52202 0.0
C1098 C 0.46252 0.59501 0.50243 0.0
N1099 N 0.44981 0.57421 0.50446 0.0
C1100 C 0.37312 0.62333 0.55544 0.0
C1101 C 0.36291 0.6298 0.60073 0.0
C1102 C 0.34975 0.6161 0.5497 0.0
N1103 N 0.3795 0.62924 0.58075 0.0
C1104 C 0.33915 0.62285 0.59583 0.0
C1105 C 0.33252 0.61545 0.5701 0.0
H1106 H 0.38617 0.62433 0.53955 0.0
H1107 H 0.36806 0.63562 0.62046 0.0
C1108 C 0.46411 0.57567 0.58462 0.0
N1109 N 0.47344 0.59765 0.57894 0.0
C1110 C 0.47439 0.55502 0.57375 0.0
C1111 C 0.50545 0.57976 0.55415 0.0
C1112 C 0.4944 0.59999 0.56522 0.0
C1113 C 0.49464 0.55712 0.55726 0.0
H1114 H 0.44761 0.57427 0.59574 0.0
H1115 H 0.50143 0.61767 0.56095 0.0
O1116 O 0.41793 0.67306 0.59042 0.0
O1117 O 0.47014 0.65605 0.59072 0.0
O1118 O 0.43151 0.62377 0.6158 0.0
O1119 O 0.4317 0.63181 0.55273 0.0
H1120 H 0.39519 0.6825 0.54529 0.0
H1121 H 0.38922 0.68333 0.6309 0.0
H1122 H 0.35334 0.69783 0.54227 0.0
H1123 H 0.34749 0.69873 0.62638 0.0
H1124 H 0.52136 0.68805 0.52956 0.0
H1125 H 0.48378 0.6943 0.61843 0.0
H1126 H 0.49285 0.65646 0.54421 0.0
H1127 H 0.51223 0.72538 0.60236 0.0
H1128 H 0.43699 0.73232 0.66848 0.0
H1129 H 0.4636 0.66994 0.7106 0.0
H1130 H 0.44674 0.69669 0.47243 0.0
H1131 H 0.44826 0.74774 0.53766 0.0
H1132 H 0.40847 0.58406 0.60089 0.0
H1133 H 0.41349 0.63811 0.66213 0.0
H1134 H 0.37709 0.56351 0.62741 0.0
H1135 H 0.38191 0.61667 0.6875 0.0
H1136 H 0.41051 0.58898 0.55272 0.0
H1137 H 0.46717 0.63096 0.51723 0.0
H1138 H 0.42169 0.55501 0.52331 0.0
H1139 H 0.47727 0.59625 0.48843 0.0
H1140 H 0.34513 0.61135 0.52938 0.0
H1141 H 0.32623 0.62295 0.61199 0.0
H1142 H 0.46575 0.53778 0.57683 0.0
H1143 H 0.52105 0.58207 0.54147 0.0
Li1144 Li 0.85497 0.40737 0.58715 0.0
Li1145 Li 0.87025 0.44796 0.58473 0.0
Li1146 Li 0.83593 0.43755 0.61553 0.0
Li1147 Li 0.8299 0.4393 0.56745 0.0
C1148 C 0.88234 0.40962 0.63116 0.0
N1149 N 0.9071 0.37536 0.66014 0.0
C1150 C 0.90698 0.41229 0.63582 0.0
C1151 C 0.87026 0.38964 0.64147 0.0
C1152 C 0.91919 0.39476 0.65047 0.0
C1153 C 0.88311 0.37247 0.65599 0.0
C1154 C 0.87402 0.42938 0.53254 0.0
C1155 C 0.88058 0.4481 0.48973 0.0
N1156 N 0.90129 0.43535 0.48688 0.0
C1157 C 0.89509 0.41607 0.52888 0.0
C1158 C 0.86648 0.44521 0.51256 0.0
C1159 C 0.90874 0.4195 0.50581 0.0
C1160 C 0.84574 0.35964 0.57457 0.0
N1161 N 0.86374 0.37481 0.58171 0.0
C1162 C 0.89334 0.34525 0.57086 0.0
C1163 C 0.88718 0.36791 0.58079 0.0
C1164 C 0.87514 0.32975 0.56175 0.0
C1165 C 0.85104 0.33682 0.56474 0.0
H1166 H 0.82734 0.36579 0.57503 0.0
H1167 H 0.90117 0.38052 0.58619 0.0
C1168 C 0.90202 0.48803 0.57391 0.0
N1169 N 0.8999 0.464 0.57828 0.0
C1170 C 0.92318 0.49735 0.56301 0.0
C1171 C 0.94042 0.45748 0.56434 0.0
C1172 C 0.91888 0.44895 0.57486 0.0
C1173 C 0.94242 0.48179 0.55709 0.0
H1174 H 0.887 0.49984 0.57766 0.0
H1175 H 0.91683 0.42998 0.57898 0.0
C1176 C 0.79573 0.41407 0.5966 0.0
N1177 N 0.7468 0.41591 0.60618 0.0
C1178 C 0.78401 0.43623 0.59874 0.0
C1179 C 0.78253 0.39284 0.5995 0.0
C1180 C 0.75929 0.4368 0.60354 0.0
C1181 C 0.75781 0.39414 0.60428 0.0
C1182 C 0.83279 0.48771 0.57998 0.0
C1183 C 0.81508 0.50204 0.59183 0.0
C1184 C 0.84309 0.49499 0.55589 0.0
C1185 C 0.80812 0.52344 0.57942 0.0
C1186 C 0.83566 0.51649 0.5441 0.0
N1187 N 0.81847 0.53016 0.55601 0.0
C1188 C 0.8126 0.46382 0.65753 0.0
C1189 C 0.81013 0.42131 0.65908 0.0
C1190 C 0.79451 0.46583 0.67684 0.0
N1191 N 0.81922 0.44179 0.64833 0.0
C1192 C 0.79229 0.42245 0.67848 0.0
C1193 C 0.78344 0.44491 0.68671 0.0
H1194 H 0.82032 0.47981 0.64883 0.0
H1195 H 0.8154 0.40404 0.65118 0.0
C1196 C 0.80518 0.42454 0.52272 0.0
N1197 N 0.80677 0.44351 0.53973 0.0
C1198 C 0.78685 0.42351 0.50376 0.0
C1199 C 0.7726 0.46204 0.51945 0.0
C1200 C 0.79111 0.46224 0.53822 0.0
C1201 C 0.76991 0.4422 0.50235 0.0
H1202 H 0.81763 0.40969 0.52469 0.0
H1203 H 0.79214 0.47683 0.55226 0.0
O1204 O 0.87014 0.42654 0.61669 0.0
O1205 O 0.8605 0.42638 0.55516 0.0
O1206 O 0.82009 0.41309 0.59264 0.0
O1207 O 0.83968 0.46652 0.59168 0.0
H1208 H 0.91656 0.42782 0.62835 0.0
H1209 H 0.8513 0.3871 0.63775 0.0
H1210 H 0.93826 0.39658 0.65418 0.0
H1211 H 0.87402 0.3568 0.66385 0.0
H1212 H 0.87502 0.46042 0.47422 0.0
H1213 H 0.90103 0.40339 0.5438 0.0
H1214 H 0.84983 0.45507 0.5145 0.0
H1215 H 0.92525 0.40955 0.50293 0.0
H1216 H 0.91215 0.34064 0.56865 0.0
H1217 H 0.83645 0.3253 0.55829 0.0
H1218 H 0.92391 0.51626 0.55793 0.0
H1219 H 0.95501 0.44495 0.56097 0.0
H1220 H 0.79393 0.45284 0.59701 0.0
H1221 H 0.79128 0.3755 0.59833 0.0
H1222 H 0.75005 0.45384 0.60527 0.0
H1223 H 0.7474 0.37785 0.60659 0.0
H1224 H 0.80645 0.49659 0.61014 0.0
H1225 H 0.85683 0.48424 0.5465 0.0
H1226 H 0.79439 0.53463 0.58834 0.0
H1227 H 0.84358 0.52231 0.52548 0.0
H1228 H 0.78834 0.48351 0.68274 0.0
H1229 H 0.78474 0.40585 0.68605 0.0
H1230 H 0.78527 0.40766 0.49133 0.0
H1231 H 0.76006 0.47693 0.51894 0.0
Li1232 Li 0.09622 0.86845 0.59651 0.0
Li1233 Li 0.05221 0.87992 0.58817 0.0
Li1234 Li 0.06276 0.84771 0.61768 0.0
Li1235 Li 0.06814 0.84209 0.57107 0.0
C1236 C 0.06996 0.88505 0.64826 0.0
N1237 N 0.0655 0.88848 0.70296 0.0
C1238 C 0.0473 0.88804 0.6598 0.0
C1239 C 0.09039 0.88405 0.66444 0.0
C1240 C 0.04541 0.88965 0.68753 0.0
C1241 C 0.08775 0.88577 0.69208 0.0
C1242 C 0.08023 0.87559 0.53562 0.0
C1243 C 0.06081 0.87643 0.49265 0.0
N1244 N 0.08269 0.87518 0.48062 0.0
C1245 C 0.10253 0.87435 0.52287 0.0
C1246 C 0.05918 0.87667 0.52045 0.0
C1247 C 0.1034 0.87415 0.49502 0.0
C1248 C 0.14489 0.86634 0.58435 0.0
N1249 N 0.12781 0.88046 0.59572 0.0
C1250 C 0.15456 0.91403 0.59643 0.0
C1251 C 0.13226 0.90374 0.60232 0.0
C1252 C 0.17224 0.90013 0.58365 0.0
C1253 C 0.16742 0.87579 0.57833 0.0
H1254 H 0.1405 0.84815 0.57849 0.0
H1255 H 0.11807 0.91462 0.61083 0.0
C1256 C 0.0118 0.9052 0.56748 0.0
N1257 N 0.0343 0.90698 0.57786 0.0
C1258 C 0.00168 0.92477 0.55407 0.0
C1259 C 0.03774 0.94765 0.56333 0.0
C1260 C 0.04709 0.92774 0.57661 0.0
C1261 C 0.01507 0.94606 0.55115 0.0
H1262 H 0.00239 0.88819 0.56816 0.0
H1263 H 0.06515 0.92833 0.5846 0.0
C1264 C 0.10593 0.81668 0.60939 0.0
N1265 N 0.13686 0.78206 0.62913 0.0
C1266 C 0.10355 0.79268 0.60145 0.0
C1267 C 0.1244 0.82311 0.62691 0.0
C1268 C 0.11926 0.77544 0.61178 0.0
C1269 C 0.13974 0.80534 0.63681 0.0
C1270 C 0.02353 0.82713 0.58945 0.0
C1271 C 0.03437 0.8051 0.59531 0.0
C1272 C -0.00093 0.82787 0.58313 0.0
C1273 C 0.02056 0.78413 0.59479 0.0
C1274 C 0.98585 0.80651 0.5828 0.0
N1275 N 0.99678 0.78526 0.58858 0.0
C1276 C 0.03155 0.82509 0.65645 0.0
C1277 C 0.07305 0.82523 0.66674 0.0
C1278 C 0.02674 0.8105 0.67855 0.0
N1279 N 0.05458 0.83137 0.65041 0.0
C1280 C 0.06914 0.81069 0.68889 0.0
C1281 C 0.04579 0.80262 0.69477 0.0
H1282 H 0.01694 0.83089 0.6438 0.0
H1283 H 0.09098 0.83132 0.66238 0.0
C1284 C 0.09131 0.81369 0.53393 0.0
N1285 N 0.069 0.82095 0.54143 0.0
C1286 C 0.09418 0.79792 0.51258 0.0
C1287 C 0.05099 0.79757 0.50681 0.0
C1288 C 0.04899 0.81363 0.52814 0.0
C1289 C 0.07383 0.78942 0.49896 0.0
H1290 H 0.10689 0.82005 0.54476 0.0
H1291 H 0.03149 0.82011 0.53415 0.0
O1292 O 0.07213 0.88286 0.62124 0.0
O1293 O 0.07896 0.87519 0.56284 0.0
O1294 O 0.09112 0.83395 0.59892 0.0
O1295 O 0.03672 0.84791 0.58952 0.0
H1296 H 0.03133 0.8888 0.64747 0.0
H1297 H 0.10805 0.88172 0.65573 0.0
H1298 H 0.02797 0.89179 0.69679 0.0
H1299 H 0.10337 0.88487 0.70489 0.0
H1300 H 0.04466 0.87715 0.48064 0.0
H1301 H 0.11898 0.87341 0.53434 0.0
H1302 H 0.04177 0.87735 0.53004 0.0
H1303 H 0.12053 0.87313 0.48486 0.0
H1304 H 0.1576 0.93286 0.60079 0.0
H1305 H 0.1803 0.8646 0.56792 0.0
H1306 H 0.98425 0.92277 0.5447 0.0
H1307 H 0.0485 0.96383 0.56175 0.0
H1308 H 0.08986 0.7874 0.58728 0.0
H1309 H 0.12671 0.84163 0.63304 0.0
H1310 H 0.11754 0.7568 0.60589 0.0
H1311 H 0.15395 0.81006 0.65058 0.0
H1312 H 0.05315 0.80424 0.60048 0.0
H1313 H 0.9904 0.84478 0.57848 0.0
H1314 H 0.02874 0.76697 0.59937 0.0
H1315 H 0.96691 0.80682 0.57792 0.0
H1316 H 0.00838 0.8052 0.68267 0.0
H1317 H 0.08448 0.80511 0.70065 0.0
H1318 H 0.11207 0.79184 0.50736 0.0
H1319 H 0.03491 0.79151 0.49665 0.0
Li1320 Li 0.66331 0.06654 0.57484 0.0
Li1321 Li 0.65114 0.06391 0.62262 0.0
Li1322 Li 0.6222 0.05444 0.58504 0.0
Li1323 Li 0.63449 0.09529 0.59422 0.0
C1324 C 0.66653 0.01911 0.58572 0.0
N1325 N 0.6957 0.98288 0.56624 0.0
C1326 C 0.68427 0.00893 0.60194 0.0
C1327 C 0.66364 0.01081 0.55961 0.0
C1328 C 0.69882 0.99063 0.59173 0.0
C1329 C 0.67856 0.99251 0.55011 0.0
C1330 C 0.67859 0.11254 0.60408 0.0
C1331 C 0.68043 0.15286 0.62185 0.0
N1332 N 0.69716 0.15869 0.60317 0.0
C1333 C 0.69595 0.11893 0.58519 0.0
C1334 C 0.67091 0.12963 0.62271 0.0
C1335 C 0.70507 0.14234 0.58502 0.0
C1336 C 0.68778 0.07542 0.52683 0.0
N1337 N 0.68938 0.06375 0.55056 0.0
C1338 C 0.72993 0.0524 0.54135 0.0
C1339 C 0.70993 0.05244 0.5581 0.0
C1340 C 0.72918 0.06502 0.51704 0.0
C1341 C 0.70756 0.07639 0.50973 0.0
H1342 H 0.67149 0.08497 0.52172 0.0
H1343 H 0.7111 0.04411 0.57749 0.0
C1344 C 0.66406 0.03335 0.66657 0.0
N1345 N 0.66422 0.05608 0.65656 0.0
C1346 C 0.67863 0.02749 0.68844 0.0
C1347 C 0.6914 0.06898 0.69045 0.0
C1348 C 0.67713 0.07385 0.66835 0.0
C1349 C 0.69318 0.04533 0.7001 0.0
H1350 H 0.65383 0.01946 0.65658 0.0
H1351 H 0.67718 0.09168 0.65991 0.0
C1352 C 0.61923 0.07829 0.53765 0.0
N1353 N 0.58924 0.07617 0.49375 0.0
C1354 C 0.59978 0.09411 0.53543 0.0
C1355 C 0.62361 0.06164 0.51734 0.0
C1356 C 0.5848 0.0927 0.51312 0.0
C1357 C 0.60818 0.06076 0.49538 0.0
C1358 C 0.60305 0.08486 0.63736 0.0
C1359 C 0.57794 0.08441 0.636 0.0
C1360 C 0.61428 0.09695 0.65837 0.0
C1361 C 0.56452 0.09641 0.65545 0.0
C1362 C 0.60026 0.10874 0.67743 0.0
N1363 N 0.57587 0.10826 0.67557 0.0
C1364 C 0.59758 0.01365 0.56302 0.0
C1365 C 0.57527 0.04972 0.5675 0.0
C1366 C 0.57922 0.00341 0.54772 0.0
N1367 N 0.59557 0.0367 0.57175 0.0
C1368 C 0.55659 0.0403 0.55224 0.0
C1369 C 0.55871 0.01709 0.54145 0.0
H1370 H 0.61377 0.00355 0.56693 0.0
H1371 H 0.5743 0.06809 0.57439 0.0
C1372 C 0.63591 0.13783 0.56799 0.0
N1373 N 0.62455 0.12777 0.58921 0.0
C1374 C 0.62884 0.16017 0.55843 0.0
C1375 C 0.59872 0.16199 0.59313 0.0
C1376 C 0.60652 0.13949 0.6022 0.0
C1377 C 0.60951 0.1722 0.57047 0.0
H1378 H 0.64989 0.12795 0.55777 0.0
H1379 H 0.59746 0.13111 0.61876 0.0
O1380 O 0.65218 0.03717 0.59531 0.0
O1381 O 0.66925 0.08972 0.60433 0.0
O1382 O 0.63388 0.07909 0.5596 0.0
O1383 O 0.61645 0.07316 0.61848 0.0
H1384 H 0.68707 0.01529 0.62205 0.0
H1385 H 0.65014 0.01853 0.54673 0.0
H1386 H 0.71268 0.98268 0.60403 0.0
H1387 H 0.67654 0.98599 0.52991 0.0
H1388 H 0.67445 0.16628 0.63599 0.0
H1389 H 0.70241 0.10601 0.57081 0.0
H1390 H 0.65739 0.12521 0.63737 0.0
H1391 H 0.71845 0.1475 0.57044 0.0
H1392 H 0.74598 0.04306 0.54779 0.0
H1393 H 0.70617 0.08685 0.4916 0.0
H1394 H 0.67943 0.009 0.69514 0.0
H1395 H 0.70164 0.08352 0.69926 0.0
H1396 H 0.59596 0.10703 0.55097 0.0
H1397 H 0.63875 0.04952 0.51849 0.0
H1398 H 0.56956 0.10468 0.51127 0.0
H1399 H 0.61128 0.04785 0.47961 0.0
H1400 H 0.56885 0.07484 0.62019 0.0
H1401 H 0.63359 0.09729 0.65994 0.0
H1402 H 0.54509 0.09627 0.65456 0.0
H1403 H 0.60877 0.11827 0.6937 0.0
H1404 H 0.58137 0.98526 0.54026 0.0
H1405 H 0.54132 0.05165 0.5477 0.0
H1406 H 0.6379 0.16758 0.54116 0.0
H1407 H 0.58366 0.17068 0.60285 0.0
H1408 H 0.53947 0.24634 0.98387 0.0
H1409 H 0.60465 0.20761 0.96586 0.0
H1410 H 0.61734 0.23966 0.93569 0.0
H1411 H 0.61247 0.28111 0.91957 0.0
H1412 H 0.54755 0.32012 0.93775 0.0
H1413 H 0.53193 0.28546 0.96233 0.0
C1414 C 0.55623 0.24481 0.97293 0.0
C1415 C 0.57124 0.22486 0.97722 0.0
C1416 C 0.5635 0.26339 0.9558 0.0
C1417 C 0.59278 0.2228 0.96277 0.0
C1418 C 0.60013 0.24119 0.94568 0.0
C1419 C 0.59468 0.28173 0.92844 0.0
C1420 C 0.58122 0.30306 0.92714 0.0
C1421 C 0.58601 0.26191 0.94277 0.0
C1422 C 0.55814 0.30377 0.93845 0.0
C1423 C 0.54932 0.28407 0.95269 0.0
H1424 H 0.18859 0.56294 0.94467 0.0
H1425 H 0.22937 0.61322 0.8971 0.0
H1426 H 0.26557 0.60359 0.92257 0.0
H1427 H 0.28419 0.58452 0.96186 0.0
H1428 H 0.24312 0.53365 0.00825 0.0
H1429 H 0.20852 0.53953 0.97913 0.0
C1430 C 0.20548 0.57128 0.93912 0.0
C1431 C 0.20607 0.58902 0.91911 0.0
C1432 C 0.22615 0.56572 0.95383 0.0
C1433 C 0.22821 0.59986 0.91275 0.0
C1434 C 0.24896 0.59431 0.92726 0.0
C1435 C 0.26788 0.57426 0.96518 0.0
C1436 C 0.26607 0.55902 0.9875 0.0
C1437 C 0.24794 0.57784 0.94842 0.0
C1438 C 0.24477 0.54592 0.99158 0.0
C1439 C 0.225 0.54922 0.9749 0.0
H1440 H 0.92522 0.17696 0.95009 0.0
H1441 H 0.87635 0.21571 0.89878 0.0
H1442 H 0.88483 0.25281 0.92316 0.0
H1443 H 0.90312 0.27313 0.96182 0.0
H1444 H 0.95314 0.23421 0.01157 0.0
H1445 H 0.94744 0.19826 0.98453 0.0
C1446 C 0.91693 0.19358 0.94355 0.0
C1447 C 0.9 0.19338 0.92267 0.0
C1448 C 0.92189 0.21479 0.95757 0.0
C1449 C 0.88913 0.21518 0.91506 0.0
C1450 C 0.89402 0.23644 0.92895 0.0
C1451 C 0.91319 0.25696 0.9664 0.0
C1452 C 0.92819 0.25627 0.98902 0.0
C1453 C 0.90989 0.2363 0.95069 0.0
C1454 C 0.941 0.23508 0.9947 0.0
C1455 C 0.93786 0.21453 0.97917 0.0
H1456 H 0.31771 0.9339 0.94323 0.0
H1457 H 0.29399 0.86556 0.91225 0.0
H1458 H 0.25379 0.87249 0.93056 0.0
H1459 H 0.22745 0.89532 0.96088 0.0
H1460 H 0.25267 0.96233 0.99425 0.0
H1461 H 0.29 0.95876 0.96922 0.0
C1462 C 0.30359 0.92071 0.94015 0.0
C1463 C 0.30882 0.89913 0.92679 0.0
C1464 C 0.28085 0.92448 0.9514 0.0
C1465 C 0.29035 0.88235 0.92245 0.0
C1466 C 0.26745 0.8862 0.93314 0.0
C1467 C 0.24105 0.90924 0.96247 0.0
C1468 C 0.23736 0.9289 0.97968 0.0
C1469 C 0.26281 0.90676 0.94855 0.0
C1470 C 0.25491 0.94706 0.98106 0.0
C1471 C 0.2764 0.94495 0.96692 0.0
H1472 H 0.57167 0.27347 0.53121 0.0
H1473 H 0.57939 0.23773 0.45518 0.0
H1474 H 0.59128 0.20084 0.47755 0.0
H1475 H 0.60105 0.17912 0.51817 0.0
H1476 H 0.59551 0.21436 0.59453 0.0
H1477 H 0.58105 0.25106 0.57258 0.0
C1478 C 0.57598 0.2576 0.51959 0.0
C1479 C 0.57443 0.25835 0.49156 0.0
C1480 C 0.58326 0.23641 0.53259 0.0
C1481 C 0.57989 0.23756 0.47677 0.0
C1482 C 0.58693 0.21648 0.48952 0.0
C1483 C 0.59688 0.1949 0.53003 0.0
C1484 C 0.59971 0.19421 0.55786 0.0
C1485 C 0.5889 0.2158 0.51733 0.0
C1486 C 0.59352 0.21452 0.57305 0.0
C1487 C 0.58536 0.23549 0.5605 0.0
H1488 H 0.31934 0.57609 0.54215 0.0
H1489 H 0.29024 0.63713 0.58422 0.0
H1490 H 0.24977 0.62682 0.56871 0.0
H1491 H 0.22356 0.60286 0.53931 0.0
H1492 H 0.25365 0.54313 0.49551 0.0
H1493 H 0.2927 0.55024 0.51597 0.0
C1494 C 0.30408 0.58703 0.54805 0.0
C1495 C 0.30773 0.60751 0.56394 0.0
C1496 C 0.28106 0.58123 0.53872 0.0
C1497 C 0.28782 0.62127 0.57198 0.0
C1498 C 0.26474 0.61546 0.56298 0.0
C1499 C 0.23864 0.59131 0.53439 0.0
C1500 C 0.23568 0.57262 0.51573 0.0
C1501 C 0.26127 0.59586 0.54573 0.0
C1502 C 0.25529 0.5575 0.50998 0.0
C1503 C 0.27773 0.56169 0.52147 0.0
H1504 H 0.91024 0.2964 0.57198 0.0
H1505 H 0.85398 0.31435 0.51603 0.0
H1506 H 0.86495 0.28021 0.48834 0.0
H1507 H 0.89122 0.24624 0.4789 0.0
H1508 H 0.94806 0.22782 0.53363 0.0
H1509 H 0.93622 0.26116 0.56292 0.0
C1510 C 0.9004 0.29278 0.55375 0.0
C1511 C 0.88121 0.30784 0.54624 0.0
C1512 C 0.90699 0.27316 0.53762 0.0
C1513 C 0.8685 0.30281 0.52263 0.0
C1514 C 0.87489 0.28341 0.5066 0.0
C1515 C 0.90114 0.24965 0.49716 0.0
C1516 C 0.92068 0.23491 0.50396 0.0
C1517 C 0.89422 0.26866 0.51374 0.0
C1518 C 0.93298 0.23904 0.528 0.0
C1519 C 0.92625 0.2581 0.54467 0.0
H1520 H 0.21791 0.88269 0.58511 0.0
H1521 H 0.17566 0.94245 0.55657 0.0
H1522 H 0.20972 0.95676 0.53035 0.0
H1523 H 0.24948 0.94909 0.51078 0.0
H1524 H 0.29113 0.88839 0.53783 0.0
H1525 H 0.2595 0.87776 0.5695 0.0
C1526 C 0.21632 0.89905 0.57345 0.0
C1527 C 0.19425 0.91133 0.57256 0.0
C1528 C 0.23578 0.90685 0.55791 0.0
C1529 C 0.1925 0.93272 0.55774 0.0
C1530 C 0.21189 0.94079 0.5425 0.0
C1531 C 0.25169 0.93371 0.52385 0.0
C1532 C 0.2724 0.91937 0.52177 0.0
C1533 C 0.23329 0.9275 0.54169 0.0
C1534 C 0.27534 0.89974 0.53912 0.0
C1535 C 0.2572 0.89356 0.5571 0.0
H1536 H 0.42429 0.76893 0.04761 0.0
H1537 H 0.44824 0.72696 0.98015 0.0
H1538 H 0.44054 0.69 0.00466 0.0
H1539 H 0.42356 0.66958 0.04329 0.0
H1540 H 0.39809 0.71085 0.11048 0.0
H1541 H 0.40935 0.74816 0.08774 0.0
C1542 C 0.42786 0.75169 0.0383 0.0
C1543 C 0.4368 0.75078 0.01203 0.0
C1544 C 0.42287 0.7304 0.05231 0.0
C1545 C 0.4417 0.72828 0.00044 0.0
C1546 C 0.43708 0.70708 0.01435 0.0
C1547 C 0.421 0.68668 0.0533 0.0
C1548 C 0.41009 0.68743 0.07859 0.0
C1549 C 0.42728 0.70794 0.04007 0.0
C1550 C 0.40633 0.70981 0.09094 0.0
C1551 C 0.41279 0.73112 0.07797 0.0
H1552 H 0.72665 0.42273 0.03754 0.0
H1553 H 0.76692 0.41466 0.96429 0.0
H1554 H 0.80329 0.40704 0.98955 0.0
H1555 H 0.8237 0.40142 0.03205 0.0
H1556 H 0.78384 0.40555 0.10554 0.0
H1557 H 0.74704 0.41535 0.08055 0.0
C1558 C 0.7433 0.41911 0.02705 0.0
C1559 C 0.74392 0.4197 0.99893 0.0
C1560 C 0.7642 0.41388 0.04173 0.0
C1561 C 0.76584 0.41512 0.98583 0.0
C1562 C 0.78671 0.41046 0.00026 0.0
C1563 C 0.80695 0.40469 0.04256 0.0
C1564 C 0.80635 0.40321 0.07047 0.0
C1565 C 0.78607 0.40977 0.02813 0.0
C1566 C 0.78458 0.40683 0.084 0.0
C1567 C 0.76365 0.41241 0.06973 0.0
H1568 H 0.06529 0.74391 0.01419 0.0
H1569 H 0.13129 0.70794 0.03547 0.0
H1570 H 0.14119 0.74045 0.0664 0.0
H1571 H 0.13288 0.78083 0.08402 0.0
H1572 H 0.06775 0.81744 0.06051 0.0
H1573 H 0.05527 0.78248 0.03487 0.0
C1574 C 0.08157 0.74289 0.02605 0.0
C1575 C 0.09764 0.72366 0.02235 0.0
C1576 C 0.08729 0.76176 0.0435 0.0
C1577 C 0.11881 0.72277 0.03764 0.0
C1578 C 0.12445 0.7413 0.05538 0.0
C1579 C 0.11587 0.7811 0.07345 0.0
C1580 C 0.10142 0.80188 0.07412 0.0
C1581 C 0.10913 0.7612 0.0579 0.0
C1582 C 0.07918 0.80168 0.06071 0.0
C1583 C 0.07211 0.78176 0.04572 0.0
H1584 H 0.67571 0.08115 0.05349 0.0
H1585 H 0.71714 0.12695 0.10564 0.0
H1586 H 0.7534 0.11841 0.0796 0.0
H1587 H 0.77269 0.09956 0.04048 0.0
H1588 H 0.73056 0.05392 0.98884 0.0
H1589 H 0.69526 0.06025 0.01681 0.0
C1590 C 0.69276 0.08878 0.05971 0.0
C1591 C 0.69371 0.10457 0.08162 0.0
C1592 C 0.71338 0.08386 0.04469 0.0
C1593 C 0.71589 0.11484 0.08879 0.0
C1594 C 0.73661 0.10995 0.07393 0.0
C1595 C 0.75578 0.09095 0.03547 0.0
C1596 C 0.75421 0.07633 0.01262 0.0
C1597 C 0.73546 0.09481 0.05155 0.0
C1598 C 0.7323 0.06504 0.00648 0.0
C1599 C 0.71207 0.06877 0.02236 0.0
H1600 H 0.42114 0.7266 0.4564 0.0
H1601 H 0.46894 0.76959 0.5048 0.0
H1602 H 0.4604 0.80464 0.4772 0.0
H1603 H 0.43634 0.8238 0.44244 0.0
H1604 H 0.39036 0.7805 0.3923 0.0
H1605 H 0.40166 0.74463 0.4174 0.0
C1606 C 0.43026 0.7434 0.46057 0.0
C1607 C 0.44537 0.74543 0.48302 0.0
C1608 C 0.4255 0.76347 0.44444 0.0
C1609 C 0.45672 0.76758 0.48813 0.0
C1610 C 0.45198 0.78763 0.47224 0.0
C1611 C 0.42932 0.80647 0.43633 0.0
C1612 C 0.4123 0.80498 0.41559 0.0
C1613 C 0.43593 0.78591 0.45077 0.0
C1614 C 0.40313 0.78229 0.40847 0.0
C1615 C 0.40963 0.76174 0.42278 0.0
H1616 H 0.76723 0.42441 0.4515 0.0
H1617 H 0.72379 0.45414 0.51486 0.0
H1618 H 0.6876 0.44726 0.48877 0.0
H1619 H 0.66796 0.42976 0.45005 0.0
H1620 H 0.7104 0.39876 0.38675 0.0
H1621 H 0.74732 0.40871 0.41105 0.0
C1622 C 0.74984 0.42944 0.45954 0.0
C1623 C 0.74831 0.43985 0.48511 0.0
C1624 C 0.72892 0.42498 0.44461 0.0
C1625 C 0.72563 0.4465 0.4951 0.0
C1626 C 0.70485 0.44236 0.48029 0.0
C1627 C 0.68527 0.42571 0.44115 0.0
C1628 C 0.68641 0.41369 0.4165 0.0
C1629 C 0.70626 0.4313 0.45525 0.0
C1630 C 0.70903 0.40793 0.40574 0.0
C1631 C 0.73012 0.41365 0.41961 0.0
H1632 H 0.10813 0.71328 0.41447 0.0
H1633 H 0.05301 0.67168 0.45396 0.0
H1634 H 0.04044 0.70701 0.47884 0.0
H1635 H 0.04859 0.74807 0.49404 0.0
H1636 H 0.10565 0.78891 0.45747 0.0
H1637 H 0.11422 0.75547 0.42721 0.0
C1638 C 0.09329 0.71194 0.42842 0.0
C1639 C 0.08173 0.68969 0.43236 0.0
C1640 C 0.08671 0.73214 0.44355 0.0
C1641 C 0.06214 0.68852 0.45012 0.0
C1642 C 0.05507 0.7087 0.46468 0.0
C1643 C 0.06252 0.74984 0.47902 0.0
C1644 C 0.07657 0.77081 0.47805 0.0
C1645 C 0.0677 0.73037 0.46217 0.0
C1646 C 0.09478 0.77278 0.45874 0.0
C1647 C 0.09967 0.7537 0.44146 0.0
H1648 H 0.73279 0.06814 0.46248 0.0
H1649 H 0.77563 0.06911 0.53447 0.0
H1650 H 0.81172 0.07541 0.5083 0.0
H1651 H 0.83106 0.08322 0.46562 0.0
H1652 H 0.78873 0.08636 0.39372 0.0
H1653 H 0.75235 0.07652 0.41932 0.0
C1654 C 0.74996 0.06988 0.47252 0.0
C1655 C 0.75129 0.06788 0.50053 0.0
C1656 C 0.77074 0.07444 0.45738 0.0
C1657 C 0.7739 0.06988 0.51299 0.0
C1658 C 0.79463 0.07378 0.49805 0.0
C1659 C 0.81391 0.08135 0.45549 0.0
C1660 C 0.8125 0.08512 0.42785 0.0
C1661 C 0.79322 0.07631 0.47033 0.0
C1662 C 0.79015 0.08337 0.41501 0.0
C1663 C 0.76943 0.07777 0.42963 0.0
H1664 H 0.48407 0.95073 0.00383 0.0
H1665 H 0.53132 0.97286 0.94032 0.0
H1666 H 0.54401 0.00788 0.9666 0.0
H1667 H 0.54134 0.0321 0.00762 0.0
H1668 H 0.492 0.01138 0.06979 0.0
H1669 H 0.48015 0.9758 0.04402 0.0
C1670 C 0.49724 0.9632 0.99589 0.0
C1671 C 0.50705 0.95925 0.97045 0.0
C1672 C 0.50389 0.98346 0.01079 0.0
C1673 C 0.52372 0.97564 0.95998 0.0
C1674 C 0.53092 0.99557 0.97496 0.0
C1675 C 0.52805 0.01969 0.01548 0.0
C1676 C 0.51765 0.02405 0.04056 0.0
C1677 C 0.5211 -0.00035 0.00037 0.0
C1678 C 0.50017 0.00824 0.05049 0.0
C1679 C 0.49349 0.98794 0.03582 0.0
H1680 H 0.47224 0.535 0.02565 0.0
H1681 H 0.46733 0.46519 0.06293 0.0
H1682 H 0.49899 0.45007 0.03352 0.0
H1683 H 0.52806 0.45678 0.99728 0.0
H1684 H 0.53355 0.52691 0.96104 0.0
H1685 H 0.50196 0.54205 0.99057 0.0
C1686 C 0.47835 0.51658 0.02775 0.0
C1687 C 0.46749 0.5013 0.04663 0.0
C1688 C 0.49665 0.5081 0.01098 0.0
C1689 C 0.47524 0.4773 0.04847 0.0
C1690 C 0.4934 0.46867 0.03173 0.0
C1691 C 0.52218 0.47533 0.99575 0.0
C1692 C 0.53292 0.4907 0.97691 0.0
C1693 C 0.50414 0.48389 0.01285 0.0
C1694 C 0.52555 0.5148 0.97545 0.0
C1695 C 0.50747 0.52342 0.99226 0.0
H1696 H 0.03625 0.50467 0.95041 0.0
H1697 H 0.98341 0.55688 0.97541 0.0
H1698 H 0.96623 0.52776 0.00642 0.0
H1699 H 0.96751 0.48828 0.02807 0.0
H1700 H 0.0202 0.43594 0.0029 0.0
H1701 H 0.03684 0.46477 0.97125 0.0
C1702 C 0.02098 0.50969 0.96265 0.0
C1703 C 0.01116 0.53294 0.96055 0.0
C1704 C 0.01149 0.49304 0.98084 0.0
C1705 C 0.99112 0.53901 0.97627 0.0
C1706 C 0.98145 0.52246 0.99427 0.0
C1707 C 0.98249 0.48305 0.01551 0.0
C1708 C 0.99261 0.45995 0.01804 0.0
C1709 C 0.99168 0.49953 0.99694 0.0
C1710 C 0.01231 0.45371 0.00184 0.0
C1711 C 0.02168 0.4701 0.98348 0.0
H1712 H 0.00739 0.9655 0.04567 0.0
H1713 H 0.05391 0.02373 0.02196 0.0
H1714 H 0.0225 0.03946 0.99262 0.0
H1715 H 0.98297 0.0351 0.97174 0.0
H1716 H 0.93554 0.97801 0.99733 0.0
H1717 H 0.96662 0.96282 0.02708 0.0
C1718 C 0.01053 0.98173 0.03419 0.0
C1719 C 0.03289 0.99343 0.03587 0.0
C1720 C 0.99249 0.99054 0.01729 0.0
C1721 C 0.03673 0.01458 0.02117 0.0
C1722 C 0.01888 0.02342 0.00421 0.0
C1723 C 0.97917 0.01957 0.98409 0.0
C1724 C 0.95686 0.00768 0.98198 0.0
C1725 C 0.99684 0.01133 0.00183 0.0
C1726 C 0.95266 0.98726 0.9979 0.0
C1727 C 0.97034 0.97869 0.01522 0.0
H1728 H 0.46631 0.52936 0.5264 0.0
H1729 H 0.54016 0.53967 0.54989 0.0
H1730 H 0.5527 0.50751 0.51945 0.0
H1731 H 0.54252 0.47702 0.48592 0.0
H1732 H 0.46884 0.46914 0.46004 0.0
H1733 H 0.45628 0.49972 0.49205 0.0
C1734 C 0.48512 0.52438 0.52505 0.0
C1735 C 0.5023 0.53664 0.54048 0.0
C1736 C 0.49218 0.50644 0.50707 0.0
C1737 C 0.52666 0.53037 0.53823 0.0
C1738 C 0.53379 0.51206 0.52082 0.0
C1739 C 0.52375 0.48222 0.48691 0.0
C1740 C 0.50667 0.47078 0.47045 0.0
C1741 C 0.51671 0.50015 0.50497 0.0
C1742 C 0.48235 0.47739 0.47261 0.0
C1743 C 0.47515 0.49496 0.49083 0.0
H1744 H 0.0272 0.53407 0.4963 0.0
H1745 H 0.02931 0.46601 0.45519 0.0
H1746 H 0.99644 0.45097 0.48315 0.0
H1747 H 0.96643 0.45782 0.51804 0.0
H1748 H 0.9657 0.52523 0.56088 0.0
H1749 H 0.99856 0.54009 0.53309 0.0
C1750 C 0.02032 0.51598 0.49346 0.0
C1751 C 0.03032 0.50119 0.47362 0.0
C1752 C 0.00173 0.50743 0.50979 0.0
C1753 C 0.02175 0.47765 0.47036 0.0
C1754 C 0.00299 0.46911 0.48628 0.0
C1755 C 0.97374 0.47559 0.52176 0.0
C1756 C 0.96355 0.49036 0.54161 0.0
C1757 C 0.99282 0.48389 0.50599 0.0
C1758 C 0.97294 0.51357 0.54556 0.0
C1759 C 0.99181 0.52205 0.52976 0.0
H1760 H 0.04053 0.97004 0.51355 0.0
H1761 H 0.97007 0.96578 0.54924 0.0
H1762 H 0.95565 0.99745 0.51937 0.0
H1763 H 0.96321 0.02636 0.48348 0.0
H1764 H 0.03346 0.03008 0.44709 0.0
H1765 H 0.04804 0.99886 0.4774 0.0
C1766 C 0.02209 0.97626 0.51501 0.0
C1767 C 0.00641 0.96574 0.5337 0.0
C1768 C 0.01394 0.99432 0.49771 0.0
C1769 C 0.98243 0.97357 0.53496 0.0
C1770 C 0.97422 0.99168 0.51795 0.0
C1771 C 0.98163 0.02012 0.48189 0.0
C1772 C 0.99718 0.0304 0.46288 0.0
C1773 C 0.9898 0.0021 0.4992 0.0
C1774 C 0.02116 0.02255 0.46161 0.0
C1775 C 0.02947 0.00465 0.47886 0.0
H1776 H 0.51007 0.02254 0.54409 0.0
H1777 H 0.56627 0.99176 0.49547 0.0
H1778 H 0.53651 0.97885 0.46271 0.0
H1779 H 0.49462 0.97699 0.44741 0.0
H1780 H 0.43851 0.00773 0.49621 0.0
H1781 H 0.46831 0.02093 0.52868 0.0
C1782 C 0.51585 0.01313 0.52626 0.0
C1783 C 0.54038 0.00804 0.52237 0.0
C1784 C 0.49871 0.00612 0.50726 0.0
C1785 C 0.54747 0.99552 0.49929 0.0
C1786 C 0.53049 0.98836 0.48037 0.0
C1787 C 0.48889 0.98651 0.46519 0.0
C1788 C 0.46433 0.99142 0.46923 0.0
C1789 C 0.50607 0.99364 0.48411 0.0
C1790 C 0.4573 0.00408 0.49225 0.0
C1791 C 0.47431 0.01141 0.51103 0.0
H1792 H 0.54428 0.25926 0.29955 0.0
H1793 H 0.50537 0.31252 0.25429 0.0
H1794 H 0.50183 0.28435 0.21693 0.0
H1795 H 0.51105 0.24505 0.19676 0.0
H1796 H 0.55192 0.19295 0.24185 0.0
H1797 H 0.55248 0.21989 0.28003 0.0
C1798 C 0.53465 0.2646 0.28169 0.0
C1799 C 0.52501 0.28792 0.27974 0.0
C1800 C 0.53286 0.24844 0.26033 0.0
C1801 C 0.51308 0.29472 0.25621 0.0
C1802 C 0.51098 0.2786 0.23491 0.0
C1803 C 0.52013 0.23957 0.2149 0.0
C1804 C 0.53138 0.21689 0.21627 0.0
C1805 C 0.52105 0.25549 0.23665 0.0
C1806 C 0.54269 0.21003 0.24021 0.0
C1807 C 0.54328 0.22556 0.26204 0.0
H1808 H 0.20573 0.57249 0.2763 0.0
H1809 H 0.22812 0.50377 0.30773 0.0
H1810 H 0.25905 0.50081 0.27331 0.0
H1811 H 0.27983 0.51785 0.23402 0.0
H1812 H 0.25574 0.58553 0.20171 0.0
H1813 H 0.22515 0.58861 0.23647 0.0
C1814 C 0.21704 0.55662 0.27539 0.0
C1815 C 0.21451 0.53839 0.29463 0.0
C1816 C 0.23456 0.55488 0.25538 0.0
C1817 C 0.22981 0.51825 0.29341 0.0
C1818 C 0.24746 0.51648 0.27365 0.0
C1819 C 0.26789 0.53326 0.23475 0.0
C1820 C 0.26995 0.55143 0.21543 0.0
C1821 C 0.25009 0.53475 0.2546 0.0
C1822 C 0.25431 0.57125 0.21632 0.0
C1823 C 0.23687 0.57304 0.23619 0.0
H1824 H 0.94273 0.25356 0.19246 0.0
H1825 H 0.98273 0.30666 0.23699 0.0
H1826 H 0.98501 0.27921 0.27497 0.0
H1827 H 0.9748 0.24043 0.29584 0.0
H1828 H 0.93533 0.18742 0.2507 0.0
H1829 H 0.93456 0.21427 0.21221 0.0
C1830 C 0.95241 0.25904 0.21022 0.0
C1831 C 0.96257 0.28221 0.21176 0.0
C1832 C 0.95388 0.24311 0.23183 0.0
C1833 C 0.97447 0.28909 0.23531 0.0
C1834 C 0.97591 0.27334 0.257 0.0
C1835 C 0.96607 0.23476 0.27754 0.0
C1836 C 0.9551 0.21197 0.27616 0.0
C1837 C 0.9655 0.25039 0.25555 0.0
C1838 C 0.94415 0.20473 0.25221 0.0
C1839 C 0.94352 0.22016 0.23026 0.0
H1840 H 0.24845 0.96562 0.30484 0.0
H1841 H 0.31261 0.96835 0.25613 0.0
H1842 H 0.28802 0.97238 0.21641 0.0
H1843 H 0.24864 0.97133 0.19496 0.0
H1844 H 0.18506 0.96023 0.24314 0.0
H1845 H 0.20916 0.96345 0.28332 0.0
C1846 C 0.25726 0.96671 0.28561 0.0
C1847 C 0.28259 0.96635 0.28389 0.0
C1848 C 0.24302 0.9675 0.26251 0.0
C1849 C 0.29329 0.96888 0.25856 0.0
C1850 C 0.27919 0.9709 0.23561 0.0
C1851 C 0.23991 0.96921 0.21412 0.0
C1852 C 0.21487 0.96524 0.21557 0.0
C1853 C 0.25406 0.96956 0.2373 0.0
C1854 C 0.20411 0.96363 0.24096 0.0
C1855 C 0.21797 0.96518 0.26414 0.0
H1856 H 0.44137 0.75498 0.80375 0.0
H1857 H 0.48139 0.80977 0.76177 0.0
H1858 H 0.48238 0.78445 0.72205 0.0
H1859 H 0.47121 0.74699 0.69891 0.0
H1860 H 0.43322 0.69157 0.74183 0.0
H1861 H 0.43289 0.71664 0.78191 0.0
C1862 C 0.4508 0.76129 0.78618 0.0
C1863 C 0.4612 0.7844 0.7859 0.0
C1864 C 0.45177 0.74646 0.76359 0.0
C1865 C 0.47281 0.79231 0.76255 0.0
C1866 C 0.47356 0.77776 0.73983 0.0
C1867 C 0.46295 0.74043 0.71711 0.0
C1868 C 0.45217 0.71756 0.71747 0.0
C1869 C 0.46292 0.75489 0.74006 0.0
C1870 C 0.44177 0.70907 0.74119 0.0
C1871 C 0.44145 0.72344 0.76402 0.0
H1872 H 0.77433 0.47572 0.72825 0.0
H1873 H 0.74327 0.4172 0.68329 0.0
H1874 H 0.70883 0.41634 0.71315 0.0
H1875 H 0.68898 0.42993 0.75392 0.0
H1876 H 0.71924 0.48843 0.79921 0.0
H1877 H 0.75202 0.49221 0.76682 0.0
C1878 C 0.75987 0.46302 0.72479 0.0
C1879 C 0.76175 0.44613 0.70397 0.0
C1880 C 0.73987 0.46271 0.74199 0.0
C1881 C 0.74274 0.42986 0.6997 0.0
C1882 C 0.72289 0.42948 0.71661 0.0
C1883 C 0.7026 0.44372 0.75646 0.0
C1884 C 0.70186 0.45874 0.77893 0.0
C1885 C 0.72152 0.44545 0.73813 0.0
C1886 C 0.71939 0.47675 0.78192 0.0
C1887 C 0.73825 0.47874 0.76357 0.0
H1888 H 0.06765 0.80155 0.74332 0.0
H1889 H 0.01533 0.76381 0.69545 0.0
H1890 H 0.01301 0.73202 0.72896 0.0
H1891 H 0.02905 0.71284 0.7698 0.0
H1892 H 0.08368 0.74948 0.81531 0.0
H1893 H 0.08224 0.78353 0.78462 0.0
C1894 C 0.05574 0.78637 0.74014 0.0
C1895 C 0.04191 0.78501 0.71671 0.0
C1896 C 0.05515 0.76775 0.75897 0.0
C1897 C 0.02608 0.76549 0.71336 0.0
C1898 C 0.02491 0.74714 0.7324 0.0
C1899 C 0.04037 0.72845 0.77306 0.0
C1900 C 0.0566 0.72866 0.79453 0.0
C1901 C 0.03981 0.74778 0.75497 0.0
C1902 C 0.07129 0.74887 0.79865 0.0
C1903 C 0.07043 0.76834 0.78117 0.0
H1904 H 0.73813 0.06367 0.70491 0.0
H1905 H 0.68941 0.01322 0.7418 0.0
H1906 H 0.71916 0.00511 0.77664 0.0
H1907 H 0.75806 0.01421 0.79785 0.0
H1908 H 0.80383 0.06879 0.76313 0.0
H1909 H 0.77626 0.07304 0.72608 0.0
C1910 C 0.73375 0.05114 0.72076 0.0
C1911 C 0.71131 0.03943 0.72093 0.0
C1912 C 0.75055 0.04713 0.74105 0.0
C1913 C 0.7065 0.02252 0.7411 0.0
C1914 C 0.72347 0.01797 0.76111 0.0
C1915 C 0.76201 0.02718 0.78235 0.0
C1916 C 0.78326 0.04105 0.78357 0.0
C1917 C 0.74542 0.03048 0.76151 0.0
C1918 C 0.7881 0.05734 0.76273 0.0
C1919 C 0.77212 0.06009 0.74157 0.0
loop_
_geom_bond_atom_site_label_1
_geom_bond_atom_site_label_2
_geom_bond_distance
_geom_bond_site_symmetry_2
_ccdc_geom_bond_type
Li0 N17 1.990 . S
Li0 O60 1.956 . S
Li0 O61 1.970 . S
Li0 O62 1.961 . S
Li1 N25 1.990 . S
Li1 O60 1.970 . S
Li1 O61 1.956 . S
Li1 O63 1.961 . S
Li2 N47 1.990 . S
Li2 O60 1.961 . S
Li2 O62 1.956 . S
Li2 O63 1.970 . S
Li3 N53 1.990 . S
Li3 O61 1.961 . S
Li3 O62 1.970 . S
Li3 O63 1.956 . S
C4 C6 1.348 . S
C4 C7 1.356 . S
C4 O60 1.325 . S
N5 C8 1.314 . S
N5 C9 1.279 . S
C6 C4 1.348 . S
C6 C8 1.353 . S
C6 H64 0.929 . S
C7 C4 1.356 . S
C7 C9 1.358 . S
C7 H65 0.930 . S
C8 N5 1.314 . S
C8 C6 1.353 . S
C8 H66 0.930 . S
C9 N5 1.279 . S
C9 C7 1.358 . S
C9 H67 0.930 . S
C10 C13 1.348 . S
C10 C14 1.356 . S
C10 O61 1.325 . S
C11 N12 1.279 . S
C11 C14 1.358 . S
C11 H68 0.930 . S
N12 C11 1.279 . S
N12 C15 1.314 . S
C13 C10 1.348 . S
C13 C15 1.353 . S
C13 H69 0.929 . S
C14 C10 1.356 . S
C14 C11 1.358 . S
C14 H70 0.930 . S
C15 N12 1.314 . S
C15 C13 1.353 . S
C15 H71 0.930 . S
C16 N17 1.314 . S
C16 C21 1.353 . S
C16 H22 0.930 . S
N17 Li0 1.990 . S
N17 C16 1.314 . S
N17 C19 1.279 . S
C18 C19 1.358 . S
C18 C20 1.356 . S
C18 H72 0.930 . S
C19 N17 1.279 . S
C19 C18 1.358 . S
C19 H23 0.930 . S
C20 C18 1.356 . S
C20 C21 1.348 . S
C21 C16 1.353 . S
C21 C20 1.348 . S
C21 H73 0.929 . S
H22 C16 0.930 . S
H23 C19 0.930 . S
C24 N25 1.314 . S
C24 C26 1.353 . S
C24 H30 0.930 . S
N25 Li1 1.990 . S
N25 C24 1.314 . S
N25 C28 1.279 . S
C26 C24 1.353 . S
C26 C29 1.348 . S
C26 H74 0.929 . S
C27 C28 1.358 . S
C27 C29 1.356 . S
C27 H75 0.930 . S
C28 N25 1.279 . S
C28 C27 1.358 . S
C28 H31 0.930 . S
C29 C26 1.348 . S
C29 C27 1.356 . S
H30 C24 0.930 . S
H31 C28 0.930 . S
C32 C34 1.348 . S
C32 C35 1.356 . S
C32 O62 1.325 . S
N33 C36 1.314 . S
N33 C37 1.279 . S
C34 C32 1.348 . S
C34 C36 1.353 . S
C34 H76 0.929 . S
C35 C32 1.356 . S
C35 C37 1.358 . S
C35 H77 0.930 . S
C36 N33 1.314 . S
C36 C34 1.353 . S
C36 H78 0.930 . S
C37 N33 1.279 . S
C37 C35 1.358 . S
C37 H79 0.930 . S
C38 C39 1.348 . S
C38 C40 1.356 . S
C38 O63 1.325 . S
C39 C38 1.348 . S
C39 C41 1.353 1_554 S
C39 H80 0.929 . S
C40 C38 1.356 . S
C40 C42 1.358 1_554 S
C40 H81 0.930 . S
C41 C39 1.353 1_556 S
C41 N43 1.314 . S
C41 H82 0.930 . S
C42 C40 1.358 1_556 S
C42 N43 1.279 . S
C42 H83 0.930 . S
N43 C41 1.314 . S
N43 C42 1.279 . S
C44 C46 1.353 . S
C44 N47 1.314 . S
C44 H50 0.930 . S
C45 N47 1.279 . S
C45 C48 1.358 . S
C45 H51 0.930 . S
C46 C44 1.353 . S
C46 C49 1.348 . S
C46 H84 0.929 . S
N47 Li2 1.990 . S
N47 C44 1.314 . S
N47 C45 1.279 . S
C48 C45 1.358 . S
C48 C49 1.356 . S
C48 H85 0.930 . S
C49 C46 1.348 . S
C49 C48 1.356 . S
H50 C44 0.930 . S
H51 C45 0.930 . S
C52 N53 1.314 . S
C52 C54 1.353 . S
C52 H58 0.930 . S
N53 Li3 1.990 . S
N53 C52 1.314 . S
N53 C56 1.279 . S
C54 C52 1.353 . S
C54 C57 1.348 . S
C54 H86 0.929 . S
C55 C56 1.358 1_556 S
C55 C57 1.356 1_556 S
C55 H87 0.930 . S
C56 N53 1.279 . S
C56 C55 1.358 1_554 S
C56 H59 0.930 . S
C57 C54 1.348 . S
C57 C55 1.356 1_554 S
H58 C52 0.930 . S
H59 C56 0.930 . S
O60 Li0 1.956 . S
O60 Li1 1.970 . S
O60 Li2 1.961 . S
O60 C4 1.325 . S
O61 Li0 1.970 . S
O61 Li1 1.956 . S
O61 Li3 1.961 . S
O61 C10 1.325 . S
O62 Li0 1.961 . S
O62 Li2 1.956 . S
O62 Li3 1.970 . S
O62 C32 1.325 . S
O63 Li1 1.961 . S
O63 Li2 1.970 . S
O63 Li3 1.956 . S
O63 C38 1.325 . S
H64 C6 0.929 . S
H65 C7 0.930 . S
H66 C8 0.930 . S
H67 C9 0.930 . S
H68 C11 0.930 . S
H69 C13 0.929 . S
H70 C14 0.930 . S
H71 C15 0.930 . S
H72 C18 0.930 . S
H73 C21 0.929 . S
H74 C26 0.929 . S
H75 C27 0.930 . S
H76 C34 0.929 . S
H77 C35 0.930 . S
H78 C36 0.930 . S
H79 C37 0.930 . S
H80 C39 0.929 . S
H81 C40 0.930 . S
H82 C41 0.930 . S
H83 C42 0.930 . S
H84 C46 0.929 . S
H85 C48 0.930 . S
H86 C54 0.929 . S
H87 C55 0.930 . S
Li88 N105 1.990 . S
Li88 O148 1.956 . S
Li88 O149 1.970 . S
Li88 O150 1.961 . S
Li89 N113 1.990 . S
Li89 O148 1.970 . S
Li89 O149 1.956 . S
Li89 O151 1.961 . S
Li90 N135 1.990 . S
Li90 O148 1.961 . S
Li90 O150 1.956 . S
Li90 O151 1.970 . S
Li91 N141 1.990 . S
Li91 O149 1.961 . S
Li91 O150 1.970 . S
Li91 O151 1.956 . S
C92 C94 1.348 . S
C92 C95 1.356 . S
C92 O148 1.325 . S
N93 C96 1.314 . S
N93 C97 1.279 . S
C94 C92 1.348 . S
C94 C96 1.353 . S
C94 H152 0.929 . S
C95 C92 1.356 . S
C95 C97 1.358 . S
C95 H153 0.930 . S
C96 N93 1.314 . S
C96 C94 1.353 . S
C96 H154 0.930 . S
C97 N93 1.279 . S
C97 C95 1.358 . S
C97 H155 0.930 . S
C98 C101 1.348 . S
C98 C102 1.356 . S
C98 O149 1.325 . S
C99 N100 1.279 . S
C99 C102 1.358 . S
C99 H156 0.930 . S
N100 C99 1.279 . S
N100 C103 1.314 . S
C101 C98 1.348 . S
C101 C103 1.353 . S
C101 H157 0.929 . S
C102 C98 1.356 . S
C102 C99 1.358 . S
C102 H158 0.930 . S
C103 N100 1.314 . S
C103 C101 1.353 . S
C103 H159 0.930 . S
C104 N105 1.314 . S
C104 C109 1.353 . S
C104 H110 0.930 . S
N105 Li88 1.990 . S
N105 C104 1.314 . S
N105 C107 1.279 . S
C106 C107 1.358 . S
C106 C108 1.356 . S
C106 H160 0.930 . S
C107 N105 1.279 . S
C107 C106 1.358 . S
C107 H111 0.930 . S
C108 C106 1.356 . S
C108 C109 1.348 . S
C109 C104 1.353 . S
C109 C108 1.348 . S
C109 H161 0.929 . S
H110 C104 0.930 . S
H111 C107 0.930 . S
C112 N113 1.314 . S
C112 C114 1.353 . S
C112 H118 0.930 . S
N113 Li89 1.990 . S
N113 C112 1.314 . S
N113 C116 1.279 . S
C114 C112 1.353 . S
C114 C117 1.348 . S
C114 H162 0.929 . S
C115 C116 1.358 . S
C115 C117 1.356 . S
C115 H163 0.930 . S
C116 N113 1.279 . S
C116 C115 1.358 . S
C116 H119 0.930 . S
C117 C114 1.348 . S
C117 C115 1.356 . S
H118 C112 0.930 . S
H119 C116 0.930 . S
C120 C122 1.348 . S
C120 C123 1.356 . S
C120 O150 1.325 . S
N121 C124 1.314 . S
N121 C125 1.279 . S
C122 C120 1.348 . S
C122 C124 1.353 . S
C122 H164 0.929 . S
C123 C120 1.356 . S
C123 C125 1.358 . S
C123 H165 0.930 . S
C124 N121 1.314 . S
C124 C122 1.353 . S
C124 H166 0.930 . S
C125 N121 1.279 . S
C125 C123 1.358 . S
C125 H167 0.930 . S
C126 C127 1.348 . S
C126 C128 1.356 . S
C126 O151 1.325 . S
C127 C126 1.348 . S
C127 C129 1.353 1_554 S
C127 H168 0.929 . S
C128 C126 1.356 . S
C128 C130 1.358 1_554 S
C128 H169 0.930 . S
C129 C127 1.353 1_556 S
C129 N131 1.314 . S
C129 H170 0.930 . S
C130 C128 1.358 1_556 S
C130 N131 1.279 . S
C130 H171 0.930 . S
N131 C129 1.314 . S
N131 C130 1.279 . S
C132 C134 1.353 . S
C132 N135 1.314 . S
C132 H138 0.930 . S
C133 N135 1.279 . S
C133 C136 1.358 . S
C133 H139 0.930 . S
C134 C132 1.353 . S
C134 C137 1.348 . S
C134 H172 0.929 . S
N135 Li90 1.990 . S
N135 C132 1.314 . S
N135 C133 1.279 . S
C136 C133 1.358 . S
C136 C137 1.356 . S
C136 H173 0.930 . S
C137 C134 1.348 . S
C137 C136 1.356 . S
H138 C132 0.930 . S
H139 C133 0.930 . S
C140 N141 1.314 . S
C140 C142 1.353 . S
C140 H146 0.930 . S
N141 Li91 1.990 . S
N141 C140 1.314 . S
N141 C144 1.279 . S
C142 C140 1.353 . S
C142 C145 1.348 . S
C142 H174 0.929 . S
C143 C144 1.358 1_556 S
C143 C145 1.356 1_556 S
C143 H175 0.930 . S
C144 N141 1.279 . S
C144 C143 1.358 1_554 S
C144 H147 0.930 . S
C145 C142 1.348 . S
C145 C143 1.356 1_554 S
H146 C140 0.930 . S
H147 C144 0.930 . S
O148 Li88 1.956 . S
O148 Li89 1.970 . S
O148 Li90 1.961 . S
O148 C92 1.325 . S
O149 Li88 1.970 . S
O149 Li89 1.956 . S
O149 Li91 1.961 . S
O149 C98 1.325 . S
O150 Li88 1.961 . S
O150 Li90 1.956 . S
O150 Li91 1.970 . S
O150 C120 1.325 . S
O151 Li89 1.961 . S
O151 Li90 1.970 . S
O151 Li91 1.956 . S
O151 C126 1.325 . S
H152 C94 0.929 . S
H153 C95 0.930 . S
H154 C96 0.930 . S
H155 C97 0.930 . S
H156 C99 0.930 . S
H157 C101 0.929 . S
H158 C102 0.930 . S
H159 C103 0.930 . S
H160 C106 0.930 . S
H161 C109 0.929 . S
H162 C114 0.929 . S
H163 C115 0.930 . S
H164 C122 0.929 . S
H165 C123 0.930 . S
H166 C124 0.930 . S
H167 C125 0.930 . S
H168 C127 0.929 . S
H169 C128 0.930 . S
H170 C129 0.930 . S
H171 C130 0.930 . S
H172 C134 0.929 . S
H173 C136 0.930 . S
H174 C142 0.929 . S
H175 C143 0.930 . S
Li176 N193 1.990 . S
Li176 O236 1.956 . S
Li176 O237 1.970 . S
Li176 O238 1.961 . S
Li177 N201 1.990 . S
Li177 O236 1.970 . S
Li177 O237 1.956 . S
Li177 O239 1.961 . S
Li178 N223 1.990 . S
Li178 O236 1.961 . S
Li178 O238 1.956 . S
Li178 O239 1.970 . S
Li179 N229 1.990 . S
Li179 O237 1.961 . S
Li179 O238 1.970 . S
Li179 O239 1.956 . S
C180 C182 1.348 . S
C180 C183 1.356 . S
C180 O236 1.325 . S
N181 C184 1.325 . S
N181 C185 1.279 . S
C182 C180 1.348 . S
C182 C184 1.337 1_655 S
C182 H240 0.929 . S
C183 C180 1.356 . S
C183 C185 1.358 1_655 S
C183 H241 0.930 . S
C184 N181 1.325 . S
C184 C182 1.337 1_455 S
C184 H242 0.936 . S
C185 N181 1.279 . S
C185 C183 1.358 1_455 S
C185 H243 0.930 . S
C186 C189 1.348 . S
C186 C190 1.356 . S
C186 O237 1.325 . S
C187 N188 1.279 . S
C187 C190 1.358 . S
C187 H244 0.930 . S
N188 C187 1.279 . S
N188 C191 1.314 . S
C189 C186 1.348 . S
C189 C191 1.353 . S
C189 H245 0.929 . S
C190 C186 1.356 . S
C190 C187 1.358 . S
C190 H246 0.930 . S
C191 N188 1.314 . S
C191 C189 1.353 . S
C191 H247 0.930 . S
C192 N193 1.314 . S
C192 C197 1.353 . S
C192 H198 0.930 . S
N193 Li176 1.990 . S
N193 C192 1.314 . S
N193 C195 1.279 . S
C194 C195 1.358 1_455 S
C194 C196 1.356 1_455 S
C194 H248 0.930 . S
C195 N193 1.279 . S
C195 C194 1.358 1_655 S
C195 H199 0.930 . S
C196 C194 1.356 1_655 S
C196 C197 1.348 . S
C197 C192 1.353 . S
C197 C196 1.348 . S
C197 H249 0.929 . S
H198 C192 0.930 . S
H199 C195 0.930 . S
C200 N201 1.314 . S
C200 C202 1.353 . S
C200 H206 0.930 . S
N201 Li177 1.990 . S
N201 C200 1.314 . S
N201 C204 1.279 . S
C202 C200 1.353 . S
C202 C205 1.348 . S
C202 H250 0.929 . S
C203 C204 1.358 . S
C203 C205 1.356 . S
C203 H251 0.930 . S
C204 N201 1.279 . S
C204 C203 1.358 . S
C204 H207 0.930 . S
C205 C202 1.348 . S
C205 C203 1.356 . S
H206 C200 0.930 . S
H207 C204 0.930 . S
C208 C210 1.348 . S
C208 C211 1.356 . S
C208 O238 1.325 . S
N209 C212 1.314 . S
N209 C213 1.279 . S
C210 C208 1.348 . S
C210 C212 1.353 1_554 S
C210 H252 0.929 . S
C211 C208 1.356 . S
C211 C213 1.358 1_554 S
C211 H253 0.930 . S
C212 N209 1.314 . S
C212 C210 1.353 1_556 S
C212 H254 0.930 . S
C213 N209 1.279 . S
C213 C211 1.358 1_556 S
C213 H255 0.930 . S
C214 C215 1.348 . S
C214 C216 1.356 . S
C214 O239 1.325 . S
C215 C214 1.348 . S
C215 C217 1.353 . S
C215 H256 0.929 . S
C216 C214 1.356 . S
C216 C218 1.358 . S
C216 H257 0.930 . S
C217 C215 1.353 . S
C217 N219 1.314 . S
C217 H258 0.930 . S
C218 C216 1.358 . S
C218 N219 1.279 . S
C218 H259 0.930 . S
N219 C217 1.314 . S
N219 C218 1.279 . S
C220 C222 1.353 . S
C220 N223 1.314 . S
C220 H226 0.930 . S
C221 N223 1.279 . S
C221 C224 1.358 1_554 S
C221 H227 0.930 . S
C222 C220 1.353 . S
C222 C225 1.348 . S
C222 H260 0.929 . S
N223 Li178 1.990 . S
N223 C220 1.314 . S
N223 C221 1.279 . S
C224 C221 1.358 1_556 S
C224 C225 1.356 1_556 S
C224 H261 0.930 . S
C225 C222 1.348 . S
C225 C224 1.356 1_554 S
H226 C220 0.930 . S
H227 C221 0.930 . S
C228 N229 1.314 . S
C228 C230 1.353 . S
C228 H234 0.930 . S
N229 Li179 1.990 . S
N229 C228 1.314 . S
N229 C232 1.279 . S
C230 C228 1.353 . S
C230 C233 1.348 . S
C230 H262 0.929 . S
C231 C232 1.358 . S
C231 C233 1.356 . S
C231 H263 0.930 . S
C232 N229 1.279 . S
C232 C231 1.358 . S
C232 H235 0.930 . S
C233 C230 1.348 . S
C233 C231 1.356 . S
H234 C228 0.930 . S
H235 C232 0.930 . S
O236 Li176 1.956 . S
O236 Li177 1.970 . S
O236 Li178 1.961 . S
O236 C180 1.325 . S
O237 Li176 1.970 . S
O237 Li177 1.956 . S
O237 Li179 1.961 . S
O237 C186 1.325 . S
O238 Li176 1.961 . S
O238 Li178 1.956 . S
O238 Li179 1.970 . S
O238 C208 1.325 . S
O239 Li177 1.961 . S
O239 Li178 1.970 . S
O239 Li179 1.956 . S
O239 C214 1.325 . S
H240 C182 0.929 . S
H241 C183 0.930 . S
H242 C184 0.936 . S
H243 C185 0.930 . S
H244 C187 0.930 . S
H245 C189 0.929 . S
H246 C190 0.930 . S
H247 C191 0.930 . S
H248 C194 0.930 . S
H249 C197 0.929 . S
H250 C202 0.929 . S
H251 C203 0.930 . S
H252 C210 0.929 . S
H253 C211 0.930 . S
H254 C212 0.930 . S
H255 C213 0.930 . S
H256 C215 0.929 . S
H257 C216 0.930 . S
H258 C217 0.930 . S
H259 C218 0.930 . S
H260 C222 0.929 . S
H261 C224 0.930 . S
H262 C230 0.929 . S
H263 C231 0.930 . S
Li264 N281 1.990 . S
Li264 O324 1.956 . S
Li264 O325 1.970 . S
Li264 O326 1.961 . S
Li265 N289 1.990 . S
Li265 O324 1.970 . S
Li265 O325 1.956 . S
Li265 O327 1.961 . S
Li266 N311 1.990 . S
Li266 O324 1.961 . S
Li266 O326 1.956 . S
Li266 O327 1.970 . S
Li267 N317 1.990 . S
Li267 O325 1.961 . S
Li267 O326 1.970 . S
Li267 O327 1.956 . S
C268 C270 1.348 . S
C268 C271 1.356 . S
C268 O324 1.325 . S
N269 C272 1.325 . S
N269 C273 1.279 . S
C270 C268 1.348 . S
C270 C272 1.337 1_565 S
C270 H328 0.929 . S
C271 C268 1.356 . S
C271 C273 1.358 1_565 S
C271 H329 0.930 . S
C272 N269 1.325 . S
C272 C270 1.337 1_545 S
C272 H330 0.936 . S
C273 N269 1.279 . S
C273 C271 1.358 1_545 S
C273 H331 0.930 . S
C274 C277 1.348 . S
C274 C278 1.356 . S
C274 O325 1.325 . S
C275 N276 1.279 . S
C275 C278 1.358 . S
C275 H332 0.930 . S
N276 C275 1.279 . S
N276 C279 1.314 . S
C277 C274 1.348 . S
C277 C279 1.353 . S
C277 H333 0.929 . S
C278 C274 1.356 . S
C278 C275 1.358 . S
C278 H334 0.930 . S
C279 N276 1.314 . S
C279 C277 1.353 . S
C279 H335 0.930 . S
C280 N281 1.314 . S
C280 C285 1.353 . S
C280 H286 0.930 . S
N281 Li264 1.990 . S
N281 C280 1.314 . S
N281 C283 1.279 . S
C282 C283 1.358 1_545 S
C282 C284 1.356 1_545 S
C282 H336 0.930 . S
C283 N281 1.279 . S
C283 C282 1.358 1_565 S
C283 H287 0.930 . S
C284 C282 1.356 1_565 S
C284 C285 1.348 . S
C285 C280 1.353 . S
C285 C284 1.348 . S
C285 H337 0.929 . S
H286 C280 0.930 . S
H287 C283 0.930 . S
C288 N289 1.314 . S
C288 C290 1.353 . S
C288 H294 0.930 . S
N289 Li265 1.990 . S
N289 C288 1.314 . S
N289 C292 1.279 . S
C290 C288 1.353 . S
C290 C293 1.348 . S
C290 H338 0.929 . S
C291 C292 1.358 . S
C291 C293 1.356 . S
C291 H339 0.930 . S
C292 N289 1.279 . S
C292 C291 1.358 . S
C292 H295 0.930 . S
C293 C290 1.348 . S
C293 C291 1.356 . S
H294 C288 0.930 . S
H295 C292 0.930 . S
C296 C298 1.348 . S
C296 C299 1.356 . S
C296 O326 1.325 . S
N297 C300 1.314 . S
N297 C301 1.279 . S
C298 C296 1.348 . S
C298 C300 1.353 1_554 S
C298 H340 0.929 . S
C299 C296 1.356 . S
C299 C301 1.358 1_554 S
C299 H341 0.930 . S
C300 N297 1.314 . S
C300 C298 1.353 1_556 S
C300 H342 0.930 . S
C301 N297 1.279 . S
C301 C299 1.358 1_556 S
C301 H343 0.930 . S
C302 C303 1.348 . S
C302 C304 1.356 . S
C302 O327 1.325 . S
C303 C302 1.348 . S
C303 C305 1.353 . S
C303 H344 0.929 . S
C304 C302 1.356 . S
C304 C306 1.358 . S
C304 H345 0.930 . S
C305 C303 1.353 . S
C305 N307 1.314 . S
C305 H346 0.930 . S
C306 C304 1.358 . S
C306 N307 1.279 . S
C306 H347 0.930 . S
N307 C305 1.314 . S
N307 C306 1.279 . S
C308 C310 1.353 . S
C308 N311 1.314 . S
C308 H314 0.930 . S
C309 N311 1.279 . S
C309 C312 1.358 1_554 S
C309 H315 0.930 . S
C310 C308 1.353 . S
C310 C313 1.348 . S
C310 H348 0.929 . S
N311 Li266 1.990 . S
N311 C308 1.314 . S
N311 C309 1.279 . S
C312 C309 1.358 1_556 S
C312 C313 1.356 1_556 S
C312 H349 0.930 . S
C313 C310 1.348 . S
C313 C312 1.356 1_554 S
H314 C308 0.930 . S
H315 C309 0.930 . S
C316 N317 1.314 . S
C316 C318 1.353 . S
C316 H322 0.930 . S
N317 Li267 1.990 . S
N317 C316 1.314 . S
N317 C320 1.279 . S
C318 C316 1.353 . S
C318 C321 1.348 . S
C318 H350 0.929 . S
C319 C320 1.358 . S
C319 C321 1.356 . S
C319 H351 0.930 . S
C320 N317 1.279 . S
C320 C319 1.358 . S
C320 H323 0.930 . S
C321 C318 1.348 . S
C321 C319 1.356 . S
H322 C316 0.930 . S
H323 C320 0.930 . S
O324 Li264 1.956 . S
O324 Li265 1.970 . S
O324 Li266 1.961 . S
O324 C268 1.325 . S
O325 Li264 1.970 . S
O325 Li265 1.956 . S
O325 Li267 1.961 . S
O325 C274 1.325 . S
O326 Li264 1.961 . S
O326 Li266 1.956 . S
O326 Li267 1.970 . S
O326 C296 1.325 . S
O327 Li265 1.961 . S
O327 Li266 1.970 . S
O327 Li267 1.956 . S
O327 C302 1.325 . S
H328 C270 0.929 . S
H329 C271 0.930 . S
H330 C272 0.936 . S
H331 C273 0.930 . S
H332 C275 0.930 . S
H333 C277 0.929 . S
H334 C278 0.930 . S
H335 C279 0.930 . S
H336 C282 0.930 . S
H337 C285 0.929 . S
H338 C290 0.929 . S
H339 C291 0.930 . S
H340 C298 0.929 . S
H341 C299 0.930 . S
H342 C300 0.930 . S
H343 C301 0.930 . S
H344 C303 0.929 . S
H345 C304 0.930 . S
H346 C305 0.930 . S
H347 C306 0.930 . S
H348 C310 0.929 . S
H349 C312 0.930 . S
H350 C318 0.929 . S
H351 C319 0.930 . S
Li352 N369 1.990 . S
Li352 O412 1.956 . S
Li352 O413 1.970 . S
Li352 O414 1.961 . S
Li353 N377 1.990 . S
Li353 O412 1.970 . S
Li353 O413 1.956 . S
Li353 O415 1.961 . S
Li354 N399 1.990 . S
Li354 O412 1.961 . S
Li354 O414 1.956 . S
Li354 O415 1.970 . S
Li355 N405 1.990 . S
Li355 O413 1.961 . S
Li355 O414 1.970 . S
Li355 O415 1.956 . S
C356 C358 1.348 . S
C356 C359 1.356 . S
C356 O412 1.325 . S
N357 C360 1.314 . S
N357 C361 1.279 . S
C358 C356 1.348 . S
C358 C360 1.353 . S
C358 H416 0.929 . S
C359 C356 1.356 . S
C359 C361 1.358 . S
C359 H417 0.930 . S
C360 N357 1.314 . S
C360 C358 1.353 . S
C360 H418 0.930 . S
C361 N357 1.279 . S
C361 C359 1.358 . S
C361 H419 0.930 . S
C362 C365 1.348 . S
C362 C366 1.356 . S
C362 O413 1.325 . S
C363 N364 1.279 . S
C363 C366 1.358 . S
C363 H420 0.930 . S
N364 C363 1.279 . S
N364 C367 1.314 . S
C365 C362 1.348 . S
C365 C367 1.353 . S
C365 H421 0.929 . S
C366 C362 1.356 . S
C366 C363 1.358 . S
C366 H422 0.930 . S
C367 N364 1.314 . S
C367 C365 1.353 . S
C367 H423 0.930 . S
C368 N369 1.314 . S
C368 C373 1.353 . S
C368 H374 0.930 . S
N369 Li352 1.990 . S
N369 C368 1.314 . S
N369 C371 1.279 . S
C370 C371 1.358 . S
C370 C372 1.356 . S
C370 H424 0.930 . S
C371 N369 1.279 . S
C371 C370 1.358 . S
C371 H375 0.930 . S
C372 C370 1.356 . S
C372 C373 1.348 . S
C373 C368 1.353 . S
C373 C372 1.348 . S
C373 H425 0.929 . S
H374 C368 0.930 . S
H375 C371 0.930 . S
C376 N377 1.314 . S
C376 C378 1.353 . S
C376 H382 0.930 . S
N377 Li353 1.990 . S
N377 C376 1.314 . S
N377 C380 1.279 . S
C378 C376 1.353 . S
C378 C381 1.348 . S
C378 H426 0.929 . S
C379 C380 1.358 . S
C379 C381 1.356 . S
C379 H427 0.930 . S
C380 N377 1.279 . S
C380 C379 1.358 . S
C380 H383 0.930 . S
C381 C378 1.348 . S
C381 C379 1.356 . S
H382 C376 0.930 . S
H383 C380 0.930 . S
C384 C386 1.348 . S
C384 C387 1.356 . S
C384 O414 1.325 . S
N385 C388 1.314 . S
N385 C389 1.279 . S
C386 C384 1.348 . S
C386 C388 1.353 . S
C386 H428 0.929 . S
C387 C384 1.356 . S
C387 C389 1.358 . S
C387 H429 0.930 . S
C388 N385 1.314 . S
C388 C386 1.353 . S
C388 H430 0.930 . S
C389 N385 1.279 . S
C389 C387 1.358 . S
C389 H431 0.930 . S
C390 C391 1.348 . S
C390 C392 1.356 . S
C390 O415 1.325 . S
C391 C390 1.348 . S
C391 C393 1.353 . S
C391 H432 0.929 . S
C392 C390 1.356 . S
C392 C394 1.358 . S
C392 H433 0.930 . S
C393 C391 1.353 . S
C393 N395 1.314 . S
C393 H434 0.930 . S
C394 C392 1.358 . S
C394 N395 1.279 . S
C394 H435 0.930 . S
N395 C393 1.314 . S
N395 C394 1.279 . S
C396 C398 1.353 . S
C396 N399 1.314 . S
C396 H402 0.930 . S
C397 N399 1.279 . S
C397 C400 1.358 . S
C397 H403 0.930 . S
C398 C396 1.353 . S
C398 C401 1.348 . S
C398 H436 0.929 . S
N399 Li354 1.990 . S
N399 C396 1.314 . S
N399 C397 1.279 . S
C400 C397 1.358 . S
C400 C401 1.356 . S
C400 H437 0.930 . S
C401 C398 1.348 . S
C401 C400 1.356 . S
H402 C396 0.930 . S
H403 C397 0.930 . S
C404 N405 1.314 . S
C404 C406 1.353 . S
C404 H410 0.930 . S
N405 Li355 1.990 . S
N405 C404 1.314 . S
N405 C408 1.279 . S
C406 C404 1.353 . S
C406 C409 1.348 . S
C406 H438 0.929 . S
C407 C408 1.358 . S
C407 C409 1.356 . S
C407 H439 0.930 . S
C408 N405 1.279 . S
C408 C407 1.358 . S
C408 H411 0.930 . S
C409 C406 1.348 . S
C409 C407 1.356 . S
H410 C404 0.930 . S
H411 C408 0.930 . S
O412 Li352 1.956 . S
O412 Li353 1.970 . S
O412 Li354 1.961 . S
O412 C356 1.325 . S
O413 Li352 1.970 . S
O413 Li353 1.956 . S
O413 Li355 1.961 . S
O413 C362 1.325 . S
O414 Li352 1.961 . S
O414 Li354 1.956 . S
O414 Li355 1.970 . S
O414 C384 1.325 . S
O415 Li353 1.961 . S
O415 Li354 1.970 . S
O415 Li355 1.956 . S
O415 C390 1.325 . S
H416 C358 0.929 . S
H417 C359 0.930 . S
H418 C360 0.930 . S
H419 C361 0.930 . S
H420 C363 0.930 . S
H421 C365 0.929 . S
H422 C366 0.930 . S
H423 C367 0.930 . S
H424 C370 0.930 . S
H425 C373 0.929 . S
H426 C378 0.929 . S
H427 C379 0.930 . S
H428 C386 0.929 . S
H429 C387 0.930 . S
H430 C388 0.930 . S
H431 C389 0.930 . S
H432 C391 0.929 . S
H433 C392 0.930 . S
H434 C393 0.930 . S
H435 C394 0.930 . S
H436 C398 0.929 . S
H437 C400 0.930 . S
H438 C406 0.929 . S
H439 C407 0.930 . S
Li440 N457 1.990 . S
Li440 O500 1.956 . S
Li440 O501 1.970 . S
Li440 O502 1.961 . S
Li441 N465 1.990 . S
Li441 O500 1.970 . S
Li441 O501 1.956 . S
Li441 O503 1.961 . S
Li442 N487 1.990 . S
Li442 O500 1.961 . S
Li442 O502 1.956 . S
Li442 O503 1.970 . S
Li443 N493 1.990 . S
Li443 O501 1.961 . S
Li443 O502 1.970 . S
Li443 O503 1.956 . S
C444 C446 1.348 . S
C444 C447 1.356 . S
C444 O500 1.325 . S
N445 C448 1.314 . S
N445 C449 1.279 . S
C446 C444 1.348 . S
C446 C448 1.353 . S
C446 H504 0.929 . S
C447 C444 1.356 . S
C447 C449 1.358 . S
C447 H505 0.930 . S
C448 N445 1.314 . S
C448 C446 1.353 . S
C448 H506 0.930 . S
C449 N445 1.279 . S
C449 C447 1.358 . S
C449 H507 0.930 . S
C450 C453 1.348 . S
C450 C454 1.356 . S
C450 O501 1.325 . S
C451 N452 1.279 . S
C451 C454 1.358 . S
C451 H508 0.930 . S
N452 C451 1.279 . S
N452 C455 1.314 . S
C453 C450 1.348 . S
C453 C455 1.353 . S
C453 H509 0.929 . S
C454 C450 1.356 . S
C454 C451 1.358 . S
C454 H510 0.930 . S
C455 N452 1.314 . S
C455 C453 1.353 . S
C455 H511 0.930 . S
C456 N457 1.314 . S
C456 C461 1.353 . S
C456 H462 0.930 . S
N457 Li440 1.990 . S
N457 C456 1.314 . S
N457 C459 1.279 . S
C458 C459 1.358 . S
C458 C460 1.356 . S
C458 H512 0.930 . S
C459 N457 1.279 . S
C459 C458 1.358 . S
C459 H463 0.930 . S
C460 C458 1.356 . S
C460 C461 1.348 . S
C461 C456 1.353 . S
C461 C460 1.348 . S
C461 H513 0.929 . S
H462 C456 0.930 . S
H463 C459 0.930 . S
C464 N465 1.314 . S
C464 C466 1.353 . S
C464 H470 0.930 . S
N465 Li441 1.990 . S
N465 C464 1.314 . S
N465 C468 1.279 . S
C466 C464 1.353 . S
C466 C469 1.348 . S
C466 H514 0.929 . S
C467 C468 1.358 . S
C467 C469 1.356 . S
C467 H515 0.930 . S
C468 N465 1.279 . S
C468 C467 1.358 . S
C468 H471 0.930 . S
C469 C466 1.348 . S
C469 C467 1.356 . S
H470 C464 0.930 . S
H471 C468 0.930 . S
C472 C474 1.348 . S
C472 C475 1.356 . S
C472 O502 1.325 . S
N473 C476 1.314 . S
N473 C477 1.279 . S
C474 C472 1.348 . S
C474 C476 1.353 . S
C474 H516 0.929 . S
C475 C472 1.356 . S
C475 C477 1.358 . S
C475 H517 0.930 . S
C476 N473 1.314 . S
C476 C474 1.353 . S
C476 H518 0.930 . S
C477 N473 1.279 . S
C477 C475 1.358 . S
C477 H519 0.930 . S
C478 C479 1.348 . S
C478 C480 1.356 . S
C478 O503 1.325 . S
C479 C478 1.348 . S
C479 C481 1.353 . S
C479 H520 0.929 . S
C480 C478 1.356 . S
C480 C482 1.358 . S
C480 H521 0.930 . S
C481 C479 1.353 . S
C481 N483 1.314 . S
C481 H522 0.930 . S
C482 C480 1.358 . S
C482 N483 1.279 . S
C482 H523 0.930 . S
N483 C481 1.314 . S
N483 C482 1.279 . S
C484 C486 1.353 . S
C484 N487 1.314 . S
C484 H490 0.930 . S
C485 N487 1.279 . S
C485 C488 1.358 . S
C485 H491 0.930 . S
C486 C484 1.353 . S
C486 C489 1.348 . S
C486 H524 0.929 . S
N487 Li442 1.990 . S
N487 C484 1.314 . S
N487 C485 1.279 . S
C488 C485 1.358 . S
C488 C489 1.356 . S
C488 H525 0.930 . S
C489 C486 1.348 . S
C489 C488 1.356 . S
H490 C484 0.930 . S
H491 C485 0.930 . S
C492 N493 1.314 . S
C492 C494 1.353 . S
C492 H498 0.930 . S
N493 Li443 1.990 . S
N493 C492 1.314 . S
N493 C496 1.279 . S
C494 C492 1.353 . S
C494 C497 1.348 . S
C494 H526 0.929 . S
C495 C496 1.358 . S
C495 C497 1.356 . S
C495 H527 0.930 . S
C496 N493 1.279 . S
C496 C495 1.358 . S
C496 H499 0.930 . S
C497 C494 1.348 . S
C497 C495 1.356 . S
H498 C492 0.930 . S
H499 C496 0.930 . S
O500 Li440 1.956 . S
O500 Li441 1.970 . S
O500 Li442 1.961 . S
O500 C444 1.325 . S
O501 Li440 1.970 . S
O501 Li441 1.956 . S
O501 Li443 1.961 . S
O501 C450 1.325 . S
O502 Li440 1.961 . S
O502 Li442 1.956 . S
O502 Li443 1.970 . S
O502 C472 1.325 . S
O503 Li441 1.961 . S
O503 Li442 1.970 . S
O503 Li443 1.956 . S
O503 C478 1.325 . S
H504 C446 0.929 . S
H505 C447 0.930 . S
H506 C448 0.930 . S
H507 C449 0.930 . S
H508 C451 0.930 . S
H509 C453 0.929 . S
H510 C454 0.930 . S
H511 C455 0.930 . S
H512 C458 0.930 . S
H513 C461 0.929 . S
H514 C466 0.929 . S
H515 C467 0.930 . S
H516 C474 0.929 . S
H517 C475 0.930 . S
H518 C476 0.930 . S
H519 C477 0.930 . S
H520 C479 0.929 . S
H521 C480 0.930 . S
H522 C481 0.930 . S
H523 C482 0.930 . S
H524 C486 0.929 . S
H525 C488 0.930 . S
H526 C494 0.929 . S
H527 C495 0.930 . S
Li528 N545 1.990 . S
Li528 O588 1.956 . S
Li528 O589 1.970 . S
Li528 O590 1.961 . S
Li529 N553 1.990 . S
Li529 O588 1.970 . S
Li529 O589 1.956 . S
Li529 O591 1.961 . S
Li530 N575 1.990 . S
Li530 O588 1.961 . S
Li530 O590 1.956 . S
Li530 O591 1.970 . S
Li531 N581 1.990 . S
Li531 O589 1.961 . S
Li531 O590 1.970 . S
Li531 O591 1.956 . S
C532 C534 1.348 . S
C532 C535 1.356 . S
C532 O588 1.325 . S
N533 C536 1.314 . S
N533 C537 1.279 . S
C534 C532 1.348 . S
C534 C536 1.353 . S
C534 H592 0.929 . S
C535 C532 1.356 . S
C535 C537 1.358 . S
C535 H593 0.930 . S
C536 N533 1.314 . S
C536 C534 1.353 . S
C536 H594 0.930 . S
C537 N533 1.279 . S
C537 C535 1.358 . S
C537 H595 0.930 . S
C538 C541 1.348 . S
C538 C542 1.356 . S
C538 O589 1.325 . S
C539 N540 1.279 . S
C539 C542 1.358 . S
C539 H596 0.930 . S
N540 C539 1.279 . S
N540 C543 1.314 . S
C541 C538 1.348 . S
C541 C543 1.353 . S
C541 H597 0.929 . S
C542 C538 1.356 . S
C542 C539 1.358 . S
C542 H598 0.930 . S
C543 N540 1.314 . S
C543 C541 1.353 . S
C543 H599 0.930 . S
C544 N545 1.314 . S
C544 C549 1.353 . S
C544 H550 0.930 . S
N545 Li528 1.990 . S
N545 C544 1.314 . S
N545 C547 1.279 . S
C546 C547 1.358 . S
C546 C548 1.356 . S
C546 H600 0.930 . S
C547 N545 1.279 . S
C547 C546 1.358 . S
C547 H551 0.930 . S
C548 C546 1.356 . S
C548 C549 1.348 . S
C549 C544 1.353 . S
C549 C548 1.348 . S
C549 H601 0.929 . S
H550 C544 0.930 . S
H551 C547 0.930 . S
C552 N553 1.314 . S
C552 C554 1.353 . S
C552 H558 0.930 . S
N553 Li529 1.990 . S
N553 C552 1.314 . S
N553 C556 1.279 . S
C554 C552 1.353 . S
C554 C557 1.348 . S
C554 H602 0.929 . S
C555 C556 1.358 . S
C555 C557 1.356 . S
C555 H603 0.930 . S
C556 N553 1.279 . S
C556 C555 1.358 . S
C556 H559 0.930 . S
C557 C554 1.348 . S
C557 C555 1.356 . S
H558 C552 0.930 . S
H559 C556 0.930 . S
C560 C562 1.348 . S
C560 C563 1.356 . S
C560 O590 1.325 . S
N561 C564 1.325 . S
N561 C565 1.279 . S
C562 C560 1.348 . S
C562 C564 1.337 1_655 S
C562 H604 0.929 . S
C563 C560 1.356 . S
C563 C565 1.358 1_655 S
C563 H605 0.930 . S
C564 N561 1.325 . S
C564 C562 1.337 1_455 S
C564 H606 0.936 . S
C565 N561 1.279 . S
C565 C563 1.358 1_455 S
C565 H607 0.930 . S
C566 C567 1.348 . S
C566 C568 1.356 . S
C566 O591 1.325 . S
C567 C566 1.348 . S
C567 C569 1.353 . S
C567 H608 0.929 . S
C568 C566 1.356 . S
C568 C570 1.358 . S
C568 H609 0.930 . S
C569 C567 1.353 . S
C569 N571 1.314 . S
C569 H610 0.930 . S
C570 C568 1.358 . S
C570 N571 1.279 . S
C570 H611 0.930 . S
N571 C569 1.314 . S
N571 C570 1.279 . S
C572 C574 1.353 . S
C572 N575 1.314 . S
C572 H578 0.930 . S
C573 N575 1.279 . S
C573 C576 1.358 1_655 S
C573 H579 0.930 . S
C574 C572 1.353 . S
C574 C577 1.348 . S
C574 H612 0.929 . S
N575 Li530 1.990 . S
N575 C572 1.314 . S
N575 C573 1.279 . S
C576 C573 1.358 1_455 S
C576 C577 1.356 1_455 S
C576 H613 0.930 . S
C577 C574 1.348 . S
C577 C576 1.356 1_655 S
H578 C572 0.930 . S
H579 C573 0.930 . S
C580 N581 1.314 . S
C580 C582 1.353 . S
C580 H586 0.930 . S
N581 Li531 1.990 . S
N581 C580 1.314 . S
N581 C584 1.279 . S
C582 C580 1.353 . S
C582 C585 1.348 . S
C582 H614 0.929 . S
C583 C584 1.358 . S
C583 C585 1.356 . S
C583 H615 0.930 . S
C584 N581 1.279 . S
C584 C583 1.358 . S
C584 H587 0.930 . S
C585 C582 1.348 . S
C585 C583 1.356 . S
H586 C580 0.930 . S
H587 C584 0.930 . S
O588 Li528 1.956 . S
O588 Li529 1.970 . S
O588 Li530 1.961 . S
O588 C532 1.325 . S
O589 Li528 1.970 . S
O589 Li529 1.956 . S
O589 Li531 1.961 . S
O589 C538 1.325 . S
O590 Li528 1.961 . S
O590 Li530 1.956 . S
O590 Li531 1.970 . S
O590 C560 1.325 . S
O591 Li529 1.961 . S
O591 Li530 1.970 . S
O591 Li531 1.956 . S
O591 C566 1.325 . S
H592 C534 0.929 . S
H593 C535 0.930 . S
H594 C536 0.930 . S
H595 C537 0.930 . S
H596 C539 0.930 . S
H597 C541 0.929 . S
H598 C542 0.930 . S
H599 C543 0.930 . S
H600 C546 0.930 . S
H601 C549 0.929 . S
H602 C554 0.929 . S
H603 C555 0.930 . S
H604 C562 0.929 . S
H605 C563 0.930 . S
H606 C564 0.936 . S
H607 C565 0.930 . S
H608 C567 0.929 . S
H609 C568 0.930 . S
H610 C569 0.930 . S
H611 C570 0.930 . S
H612 C574 0.929 . S
H613 C576 0.930 . S
H614 C582 0.929 . S
H615 C583 0.930 . S
Li616 N633 1.990 . S
Li616 O676 1.956 . S
Li616 O677 1.970 . S
Li616 O678 1.961 . S
Li617 N641 1.990 . S
Li617 O676 1.970 . S
Li617 O677 1.956 . S
Li617 O679 1.961 . S
Li618 N663 1.990 . S
Li618 O676 1.961 . S
Li618 O678 1.956 . S
Li618 O679 1.970 . S
Li619 N669 1.990 . S
Li619 O677 1.961 . S
Li619 O678 1.970 . S
Li619 O679 1.956 . S
C620 C622 1.348 . S
C620 C623 1.356 . S
C620 O676 1.325 . S
N621 C624 1.314 . S
N621 C625 1.279 . S
C622 C620 1.348 . S
C622 C624 1.353 . S
C622 H680 0.929 . S
C623 C620 1.356 . S
C623 C625 1.358 . S
C623 H681 0.930 . S
C624 N621 1.314 . S
C624 C622 1.353 . S
C624 H682 0.930 . S
C625 N621 1.279 . S
C625 C623 1.358 . S
C625 H683 0.930 . S
C626 C629 1.348 . S
C626 C630 1.356 . S
C626 O677 1.325 . S
C627 N628 1.279 . S
C627 C630 1.358 . S
C627 H684 0.930 . S
N628 C627 1.279 . S
N628 C631 1.314 . S
C629 C626 1.348 . S
C629 C631 1.353 . S
C629 H685 0.929 . S
C630 C626 1.356 . S
C630 C627 1.358 . S
C630 H686 0.930 . S
C631 N628 1.314 . S
C631 C629 1.353 . S
C631 H687 0.930 . S
C632 N633 1.314 . S
C632 C637 1.353 . S
C632 H638 0.930 . S
N633 Li616 1.990 . S
N633 C632 1.314 . S
N633 C635 1.279 . S
C634 C635 1.358 . S
C634 C636 1.356 . S
C634 H688 0.930 . S
C635 N633 1.279 . S
C635 C634 1.358 . S
C635 H639 0.930 . S
C636 C634 1.356 . S
C636 C637 1.348 . S
C637 C632 1.353 . S
C637 C636 1.348 . S
C637 H689 0.929 . S
H638 C632 0.930 . S
H639 C635 0.930 . S
C640 N641 1.314 . S
C640 C642 1.353 . S
C640 H646 0.930 . S
N641 Li617 1.990 . S
N641 C640 1.314 . S
N641 C644 1.279 . S
C642 C640 1.353 . S
C642 C645 1.348 . S
C642 H690 0.929 . S
C643 C644 1.358 . S
C643 C645 1.356 . S
C643 H691 0.930 . S
C644 N641 1.279 . S
C644 C643 1.358 . S
C644 H647 0.930 . S
C645 C642 1.348 . S
C645 C643 1.356 . S
H646 C640 0.930 . S
H647 C644 0.930 . S
C648 C650 1.348 . S
C648 C651 1.356 . S
C648 O678 1.325 . S
N649 C652 1.325 . S
N649 C653 1.279 . S
C650 C648 1.348 . S
C650 C652 1.337 1_565 S
C650 H692 0.929 . S
C651 C648 1.356 . S
C651 C653 1.358 1_565 S
C651 H693 0.930 . S
C652 N649 1.325 . S
C652 C650 1.337 1_545 S
C652 H694 0.936 . S
C653 N649 1.279 . S
C653 C651 1.358 1_545 S
C653 H695 0.930 . S
C654 C655 1.348 . S
C654 C656 1.356 . S
C654 O679 1.325 . S
C655 C654 1.348 . S
C655 C657 1.353 . S
C655 H696 0.929 . S
C656 C654 1.356 . S
C656 C658 1.358 . S
C656 H697 0.930 . S
C657 C655 1.353 . S
C657 N659 1.314 . S
C657 H698 0.930 . S
C658 C656 1.358 . S
C658 N659 1.279 . S
C658 H699 0.930 . S
N659 C657 1.314 . S
N659 C658 1.279 . S
C660 C662 1.353 . S
C660 N663 1.314 . S
C660 H666 0.930 . S
C661 N663 1.279 . S
C661 C664 1.358 1_565 S
C661 H667 0.930 . S
C662 C660 1.353 . S
C662 C665 1.348 . S
C662 H700 0.929 . S
N663 Li618 1.990 . S
N663 C660 1.314 . S
N663 C661 1.279 . S
C664 C661 1.358 1_545 S
C664 C665 1.356 1_545 S
C664 H701 0.930 . S
C665 C662 1.348 . S
C665 C664 1.356 1_565 S
H666 C660 0.930 . S
H667 C661 0.930 . S
C668 N669 1.314 . S
C668 C670 1.353 . S
C668 H674 0.930 . S
N669 Li619 1.990 . S
N669 C668 1.314 . S
N669 C672 1.279 . S
C670 C668 1.353 . S
C670 C673 1.348 . S
C670 H702 0.929 . S
C671 C672 1.358 . S
C671 C673 1.356 . S
C671 H703 0.930 . S
C672 N669 1.279 . S
C672 C671 1.358 . S
C672 H675 0.930 . S
C673 C670 1.348 . S
C673 C671 1.356 . S
H674 C668 0.930 . S
H675 C672 0.930 . S
O676 Li616 1.956 . S
O676 Li617 1.970 . S
O676 Li618 1.961 . S
O676 C620 1.325 . S
O677 Li616 1.970 . S
O677 Li617 1.956 . S
O677 Li619 1.961 . S
O677 C626 1.325 . S
O678 Li616 1.961 . S
O678 Li618 1.956 . S
O678 Li619 1.970 . S
O678 C648 1.325 . S
O679 Li617 1.961 . S
O679 Li618 1.970 . S
O679 Li619 1.956 . S
O679 C654 1.325 . S
H680 C622 0.929 . S
H681 C623 0.930 . S
H682 C624 0.930 . S
H683 C625 0.930 . S
H684 C627 0.930 . S
H685 C629 0.929 . S
H686 C630 0.930 . S
H687 C631 0.930 . S
H688 C634 0.930 . S
H689 C637 0.929 . S
H690 C642 0.929 . S
H691 C643 0.930 . S
H692 C650 0.929 . S
H693 C651 0.930 . S
H694 C652 0.936 . S
H695 C653 0.930 . S
H696 C655 0.929 . S
H697 C656 0.930 . S
H698 C657 0.930 . S
H699 C658 0.930 . S
H700 C662 0.929 . S
H701 C664 0.930 . S
H702 C670 0.929 . S
H703 C671 0.930 . S
Li704 N721 1.990 . S
Li704 O764 1.956 . S
Li704 O765 1.970 . S
Li704 O766 1.961 . S
Li705 N729 1.990 . S
Li705 O764 1.970 . S
Li705 O765 1.956 . S
Li705 O767 1.961 . S
Li706 N751 1.990 . S
Li706 O764 1.961 . S
Li706 O766 1.956 . S
Li706 O767 1.970 . S
Li707 N757 1.990 . S
Li707 O765 1.961 . S
Li707 O766 1.970 . S
Li707 O767 1.956 . S
C708 C710 1.348 . S
C708 C711 1.356 . S
C708 O764 1.325 . S
N709 C712 1.314 . S
N709 C713 1.279 . S
C710 C708 1.348 . S
C710 C712 1.353 1_556 S
C710 H768 0.929 . S
C711 C708 1.356 . S
C711 C713 1.358 1_556 S
C711 H769 0.930 . S
C712 N709 1.314 . S
C712 C710 1.353 1_554 S
C712 H770 0.930 . S
C713 N709 1.279 . S
C713 C711 1.358 1_554 S
C713 H771 0.930 . S
C714 C717 1.348 . S
C714 C718 1.356 . S
C714 O765 1.325 . S
C715 N716 1.279 . S
C715 C718 1.358 . S
C715 H772 0.930 . S
N716 C715 1.279 . S
N716 C719 1.314 . S
C717 C714 1.348 . S
C717 C719 1.353 . S
C717 H773 0.929 . S
C718 C714 1.356 . S
C718 C715 1.358 . S
C718 H774 0.930 . S
C719 N716 1.314 . S
C719 C717 1.353 . S
C719 H775 0.930 . S
C720 N721 1.314 . S
C720 C725 1.353 . S
C720 H726 0.930 . S
N721 Li704 1.990 . S
N721 C720 1.314 . S
N721 C723 1.279 . S
C722 C723 1.358 . S
C722 C724 1.356 . S
C722 H776 0.930 . S
C723 N721 1.279 . S
C723 C722 1.358 . S
C723 H727 0.930 . S
C724 C722 1.356 . S
C724 C725 1.348 . S
C725 C720 1.353 . S
C725 C724 1.348 . S
C725 H777 0.929 . S
H726 C720 0.930 . S
H727 C723 0.930 . S
C728 N729 1.314 . S
C728 C730 1.353 . S
C728 H734 0.930 . S
N729 Li705 1.990 . S
N729 C728 1.314 . S
N729 C732 1.279 . S
C730 C728 1.353 . S
C730 C733 1.348 . S
C730 H778 0.929 . S
C731 C732 1.358 . S
C731 C733 1.356 . S
C731 H779 0.930 . S
C732 N729 1.279 . S
C732 C731 1.358 . S
C732 H735 0.930 . S
C733 C730 1.348 . S
C733 C731 1.356 . S
H734 C728 0.930 . S
H735 C732 0.930 . S
C736 C738 1.348 . S
C736 C739 1.356 . S
C736 O766 1.325 . S
N737 C740 1.314 . S
N737 C741 1.279 . S
C738 C736 1.348 . S
C738 C740 1.353 . S
C738 H780 0.929 . S
C739 C736 1.356 . S
C739 C741 1.358 . S
C739 H781 0.930 . S
C740 N737 1.314 . S
C740 C738 1.353 . S
C740 H782 0.930 . S
C741 N737 1.279 . S
C741 C739 1.358 . S
C741 H783 0.930 . S
C742 C743 1.348 . S
C742 C744 1.356 . S
C742 O767 1.325 . S
C743 C742 1.348 . S
C743 C745 1.353 . S
C743 H784 0.929 . S
C744 C742 1.356 . S
C744 C746 1.358 . S
C744 H785 0.930 . S
C745 C743 1.353 . S
C745 N747 1.314 . S
C745 H786 0.930 . S
C746 C744 1.358 . S
C746 N747 1.279 . S
C746 H787 0.930 . S
N747 C745 1.314 . S
N747 C746 1.279 . S
C748 C750 1.353 . S
C748 N751 1.314 . S
C748 H754 0.930 . S
C749 N751 1.279 . S
C749 C752 1.358 . S
C749 H755 0.930 . S
C750 C748 1.353 . S
C750 C753 1.348 . S
C750 H788 0.929 1_556 S
N751 Li706 1.990 . S
N751 C748 1.314 . S
N751 C749 1.279 . S
C752 C749 1.358 . S
C752 C753 1.356 . S
C752 H789 0.930 . S
C753 C750 1.348 . S
C753 C752 1.356 . S
H754 C748 0.930 . S
H755 C749 0.930 . S
C756 N757 1.314 . S
C756 C758 1.353 . S
C756 H762 0.930 . S
N757 Li707 1.990 . S
N757 C756 1.314 . S
N757 C760 1.279 . S
C758 C756 1.353 . S
C758 C761 1.348 . S
C758 H790 0.929 . S
C759 C760 1.358 . S
C759 C761 1.356 . S
C759 H791 0.930 . S
C760 N757 1.279 . S
C760 C759 1.358 . S
C760 H763 0.930 . S
C761 C758 1.348 . S
C761 C759 1.356 . S
H762 C756 0.930 . S
H763 C760 0.930 . S
O764 Li704 1.956 . S
O764 Li705 1.970 . S
O764 Li706 1.961 . S
O764 C708 1.325 . S
O765 Li704 1.970 . S
O765 Li705 1.956 . S
O765 Li707 1.961 . S
O765 C714 1.325 . S
O766 Li704 1.961 . S
O766 Li706 1.956 . S
O766 Li707 1.970 . S
O766 C736 1.325 . S
O767 Li705 1.961 . S
O767 Li706 1.970 . S
O767 Li707 1.956 . S
O767 C742 1.325 . S
H768 C710 0.929 . S
H769 C711 0.930 . S
H770 C712 0.930 . S
H771 C713 0.930 . S
H772 C715 0.930 . S
H773 C717 0.929 . S
H774 C718 0.930 . S
H775 C719 0.930 . S
H776 C722 0.930 . S
H777 C725 0.929 . S
H778 C730 0.929 . S
H779 C731 0.930 . S
H780 C738 0.929 . S
H781 C739 0.930 . S
H782 C740 0.930 . S
H783 C741 0.930 . S
H784 C743 0.929 . S
H785 C744 0.930 . S
H786 C745 0.930 . S
H787 C746 0.930 . S
H788 C750 0.929 1_554 S
H789 C752 0.930 . S
H790 C758 0.929 . S
H791 C759 0.930 . S
Li792 N809 1.990 . S
Li792 O852 1.956 . S
Li792 O853 1.970 . S
Li792 O854 1.961 . S
Li793 N817 1.990 . S
Li793 O852 1.970 . S
Li793 O853 1.956 . S
Li793 O855 1.961 . S
Li794 N839 1.990 . S
Li794 O852 1.961 . S
Li794 O854 1.956 . S
Li794 O855 1.970 . S
Li795 N845 1.990 . S
Li795 O853 1.961 . S
Li795 O854 1.970 . S
Li795 O855 1.956 . S
C796 C798 1.348 . S
C796 C799 1.356 . S
C796 O852 1.325 . S
N797 C800 1.314 . S
N797 C801 1.279 . S
C798 C796 1.348 . S
C798 C800 1.353 . S
C798 H856 0.929 . S
C799 C796 1.356 . S
C799 C801 1.358 . S
C799 H857 0.930 . S
C800 N797 1.314 . S
C800 C798 1.353 . S
C800 H858 0.930 . S
C801 N797 1.279 . S
C801 C799 1.358 . S
C801 H859 0.930 . S
C802 C805 1.348 . S
C802 C806 1.356 . S
C802 O853 1.325 . S
C803 N804 1.279 . S
C803 C806 1.358 1_554 S
C803 H860 0.930 . S
N804 C803 1.279 . S
N804 C807 1.314 . S
C805 C802 1.348 . S
C805 C807 1.353 1_556 S
C805 H861 0.929 . S
C806 C802 1.356 . S
C806 C803 1.358 1_556 S
C806 H862 0.930 . S
C807 N804 1.314 . S
C807 C805 1.353 1_554 S
C807 H863 0.930 . S
C808 N809 1.314 . S
C808 C813 1.353 . S
C808 H814 0.930 . S
N809 Li792 1.990 . S
N809 C808 1.314 . S
N809 C811 1.279 . S
C810 C811 1.358 . S
C810 C812 1.356 . S
C810 H864 0.930 . S
C811 N809 1.279 . S
C811 C810 1.358 . S
C811 H815 0.930 . S
C812 C810 1.356 . S
C812 C813 1.348 . S
C813 C808 1.353 . S
C813 C812 1.348 . S
C813 H865 0.929 . S
H814 C808 0.930 . S
H815 C811 0.930 . S
C816 N817 1.314 . S
C816 C818 1.353 . S
C816 H822 0.930 . S
N817 Li793 1.990 . S
N817 C816 1.314 . S
N817 C820 1.279 . S
C818 C816 1.353 . S
C818 C821 1.348 . S
C818 H866 0.929 . S
C819 C820 1.358 . S
C819 C821 1.356 . S
C819 H867 0.930 . S
C820 N817 1.279 . S
C820 C819 1.358 . S
C820 H823 0.930 . S
C821 C818 1.348 . S
C821 C819 1.356 . S
H822 C816 0.930 . S
H823 C820 0.930 . S
C824 C826 1.348 . S
C824 C827 1.356 . S
C824 O854 1.325 . S
N825 C828 1.314 . S
N825 C829 1.279 . S
C826 C824 1.348 . S
C826 C828 1.353 . S
C826 H868 0.929 . S
C827 C824 1.356 . S
C827 C829 1.358 . S
C827 H869 0.930 . S
C828 N825 1.314 . S
C828 C826 1.353 . S
C828 H870 0.930 . S
C829 N825 1.279 . S
C829 C827 1.358 . S
C829 H871 0.930 . S
C830 C831 1.348 . S
C830 C832 1.356 . S
C830 O855 1.325 . S
C831 C830 1.348 . S
C831 C833 1.353 . S
C831 H872 0.929 . S
C832 C830 1.356 . S
C832 C834 1.358 . S
C832 H873 0.930 . S
C833 C831 1.353 . S
C833 N835 1.314 . S
C833 H874 0.930 . S
C834 C832 1.358 . S
C834 N835 1.279 . S
C834 H875 0.930 . S
N835 C833 1.314 . S
N835 C834 1.279 . S
C836 C838 1.353 . S
C836 N839 1.314 . S
C836 H842 0.930 . S
C837 N839 1.279 . S
C837 C840 1.358 . S
C837 H843 0.930 . S
C838 C836 1.353 . S
C838 C841 1.348 . S
C838 H876 0.929 . S
N839 Li794 1.990 . S
N839 C836 1.314 . S
N839 C837 1.279 . S
C840 C837 1.358 . S
C840 C841 1.356 . S
C840 H877 0.930 . S
C841 C838 1.348 . S
C841 C840 1.356 . S
H842 C836 0.930 . S
H843 C837 0.930 . S
C844 N845 1.314 . S
C844 C846 1.353 . S
C844 H850 0.930 . S
N845 Li795 1.990 . S
N845 C844 1.314 . S
N845 C848 1.279 . S
C846 C844 1.353 . S
C846 C849 1.348 . S
C846 H878 0.929 1_556 S
C847 C848 1.358 . S
C847 C849 1.356 . S
C847 H879 0.930 . S
C848 N845 1.279 . S
C848 C847 1.358 . S
C848 H851 0.930 . S
C849 C846 1.348 . S
C849 C847 1.356 . S
H850 C844 0.930 . S
H851 C848 0.930 . S
O852 Li792 1.956 . S
O852 Li793 1.970 . S
O852 Li794 1.961 . S
O852 C796 1.325 . S
O853 Li792 1.970 . S
O853 Li793 1.956 . S
O853 Li795 1.961 . S
O853 C802 1.325 . S
O854 Li792 1.961 . S
O854 Li794 1.956 . S
O854 Li795 1.970 . S
O854 C824 1.325 . S
O855 Li793 1.961 . S
O855 Li794 1.970 . S
O855 Li795 1.956 . S
O855 C830 1.325 . S
H856 C798 0.929 . S
H857 C799 0.930 . S
H858 C800 0.930 . S
H859 C801 0.930 . S
H860 C803 0.930 . S
H861 C805 0.929 . S
H862 C806 0.930 . S
H863 C807 0.930 . S
H864 C810 0.930 . S
H865 C813 0.929 . S
H866 C818 0.929 . S
H867 C819 0.930 . S
H868 C826 0.929 . S
H869 C827 0.930 . S
H870 C828 0.930 . S
H871 C829 0.930 . S
H872 C831 0.929 . S
H873 C832 0.930 . S
H874 C833 0.930 . S
H875 C834 0.930 . S
H876 C838 0.929 . S
H877 C840 0.930 . S
H878 C846 0.929 1_554 S
H879 C847 0.930 . S
Li880 N897 1.990 . S
Li880 O940 1.956 . S
Li880 O941 1.970 . S
Li880 O942 1.961 . S
Li881 N905 1.990 . S
Li881 O940 1.970 . S
Li881 O941 1.956 . S
Li881 O943 1.961 . S
Li882 N927 1.990 . S
Li882 O940 1.961 . S
Li882 O942 1.956 . S
Li882 O943 1.970 . S
Li883 N933 1.990 . S
Li883 O941 1.961 . S
Li883 O942 1.970 . S
Li883 O943 1.956 . S
C884 C886 1.348 . S
C884 C887 1.356 . S
C884 O940 1.325 . S
N885 C888 1.314 . S
N885 C889 1.279 . S
C886 C884 1.348 . S
C886 C888 1.353 . S
C886 H944 0.929 . S
C887 C884 1.356 . S
C887 C889 1.358 . S
C887 H945 0.930 . S
C888 N885 1.314 . S
C888 C886 1.353 . S
C888 H946 0.930 . S
C889 N885 1.279 . S
C889 C887 1.358 . S
C889 H947 0.930 . S
C890 C893 1.348 . S
C890 C894 1.356 . S
C890 O941 1.325 . S
C891 N892 1.279 . S
C891 C894 1.358 1_655 S
C891 H948 0.930 . S
N892 C891 1.279 . S
N892 C895 1.314 1_655 S
C893 C890 1.348 . S
C893 C895 1.353 . S
C893 H949 0.929 . S
C894 C890 1.356 . S
C894 C891 1.358 1_455 S
C894 H950 0.930 . S
C895 N892 1.314 1_455 S
C895 C893 1.353 . S
C895 H951 0.932 . S
C896 N897 1.314 . S
C896 C901 1.353 . S
C896 H902 0.930 . S
N897 Li880 1.990 . S
N897 C896 1.314 . S
N897 C899 1.279 . S
C898 C899 1.358 . S
C898 C900 1.356 . S
C898 H952 0.930 . S
C899 N897 1.279 . S
C899 C898 1.358 . S
C899 H903 0.930 . S
C900 C898 1.356 . S
C900 C901 1.348 . S
C901 C896 1.353 . S
C901 C900 1.348 . S
C901 H953 0.929 . S
H902 C896 0.930 . S
H903 C899 0.930 . S
C904 N905 1.314 . S
C904 C906 1.353 . S
C904 H910 0.930 . S
N905 Li881 1.990 . S
N905 C904 1.314 . S
N905 C908 1.279 . S
C906 C904 1.353 . S
C906 C909 1.348 . S
C906 H954 0.929 1_556 S
C907 C908 1.358 . S
C907 C909 1.356 . S
C907 H955 0.930 . S
C908 N905 1.279 . S
C908 C907 1.358 . S
C908 H911 0.930 . S
C909 C906 1.348 . S
C909 C907 1.356 . S
H910 C904 0.930 . S
H911 C908 0.930 . S
C912 C914 1.348 . S
C912 C915 1.356 . S
C912 O942 1.325 . S
N913 C916 1.314 . S
N913 C917 1.279 . S
C914 C912 1.348 . S
C914 C916 1.353 . S
C914 H956 0.929 . S
C915 C912 1.356 . S
C915 C917 1.358 . S
C915 H957 0.930 . S
C916 N913 1.314 . S
C916 C914 1.353 . S
C916 H958 0.930 . S
C917 N913 1.279 . S
C917 C915 1.358 . S
C917 H959 0.930 . S
C918 C919 1.348 . S
C918 C920 1.356 . S
C918 O943 1.325 . S
C919 C918 1.348 . S
C919 C921 1.353 1_556 S
C919 H960 0.929 . S
C920 C918 1.356 . S
C920 C922 1.358 1_556 S
C920 H961 0.930 . S
C921 C919 1.353 1_554 S
C921 N923 1.314 . S
C921 H962 0.930 . S
C922 C920 1.358 1_554 S
C922 N923 1.279 . S
C922 H963 0.930 . S
N923 C921 1.314 . S
N923 C922 1.279 . S
C924 C926 1.353 . S
C924 N927 1.314 . S
C924 H930 0.930 . S
C925 N927 1.279 . S
C925 C928 1.358 . S
C925 H931 0.930 . S
C926 C924 1.353 . S
C926 C929 1.348 . S
C926 H964 0.929 . S
N927 Li882 1.990 . S
N927 C924 1.314 . S
N927 C925 1.279 . S
C928 C925 1.358 . S
C928 C929 1.356 . S
C928 H965 0.930 . S
C929 C926 1.348 . S
C929 C928 1.356 . S
H930 C924 0.930 . S
H931 C925 0.930 . S
C932 N933 1.314 . S
C932 C934 1.369 . S
C932 H938 0.930 . S
N933 Li883 1.990 . S
N933 C932 1.314 . S
N933 C936 1.279 . S
C934 C932 1.369 . S
C934 C937 1.349 . S
C934 H966 0.913 1_455 S
C935 C936 1.358 . S
C935 C937 1.356 . S
C935 H967 0.930 . S
C936 N933 1.279 . S
C936 C935 1.358 . S
C936 H939 0.930 . S
C937 C934 1.349 . S
C937 C935 1.356 . S
H938 C932 0.930 . S
H939 C936 0.930 . S
O940 Li880 1.956 . S
O940 Li881 1.970 . S
O940 Li882 1.961 . S
O940 C884 1.325 . S
O941 Li880 1.970 . S
O941 Li881 1.956 . S
O941 Li883 1.961 . S
O941 C890 1.325 . S
O942 Li880 1.961 . S
O942 Li882 1.956 . S
O942 Li883 1.970 . S
O942 C912 1.325 . S
O943 Li881 1.961 . S
O943 Li882 1.970 . S
O943 Li883 1.956 . S
O943 C918 1.325 . S
H944 C886 0.929 . S
H945 C887 0.930 . S
H946 C888 0.930 . S
H947 C889 0.930 . S
H948 C891 0.930 . S
H949 C893 0.929 . S
H950 C894 0.930 . S
H951 C895 0.932 . S
H952 C898 0.930 . S
H953 C901 0.929 . S
H954 C906 0.929 1_554 S
H955 C907 0.930 . S
H956 C914 0.929 . S
H957 C915 0.930 . S
H958 C916 0.930 . S
H959 C917 0.930 . S
H960 C919 0.929 . S
H961 C920 0.930 . S
H962 C921 0.930 . S
H963 C922 0.930 . S
H964 C926 0.929 . S
H965 C928 0.930 . S
H966 C934 0.913 1_655 S
H967 C935 0.930 . S
Li968 N985 1.990 . S
Li968 O1028 1.956 . S
Li968 O1029 1.970 . S
Li968 O1030 1.961 . S
Li969 N993 1.990 . S
Li969 O1028 1.970 . S
Li969 O1029 1.956 . S
Li969 O1031 1.961 . S
Li970 N1015 1.990 . S
Li970 O1028 1.961 . S
Li970 O1030 1.956 . S
Li970 O1031 1.970 . S
Li971 N1021 1.990 . S
Li971 O1029 1.961 . S
Li971 O1030 1.970 . S
Li971 O1031 1.956 . S
C972 C974 1.348 . S
C972 C975 1.356 . S
C972 O1028 1.325 . S
N973 C976 1.314 . S
N973 C977 1.279 . S
C974 C972 1.348 . S
C974 C976 1.353 . S
C974 H1032 0.929 . S
C975 C972 1.356 . S
C975 C977 1.358 . S
C975 H1033 0.930 . S
C976 N973 1.314 . S
C976 C974 1.353 . S
C976 H1034 0.930 . S
C977 N973 1.279 . S
C977 C975 1.358 . S
C977 H1035 0.930 . S
C978 C981 1.348 . S
C978 C982 1.356 . S
C978 O1029 1.325 . S
C979 N980 1.279 . S
C979 C982 1.358 1_554 S
C979 H1036 0.930 . S
N980 C979 1.279 . S
N980 C983 1.314 . S
C981 C978 1.348 . S
C981 C983 1.353 1_556 S
C981 H1037 0.929 . S
C982 C978 1.356 . S
C982 C979 1.358 1_556 S
C982 H1038 0.930 . S
C983 N980 1.314 . S
C983 C981 1.353 1_554 S
C983 H1039 0.930 . S
C984 N985 1.314 . S
C984 C989 1.353 . S
C984 H990 0.930 . S
N985 Li968 1.990 . S
N985 C984 1.314 . S
N985 C987 1.279 . S
C986 C987 1.358 . S
C986 C988 1.356 . S
C986 H1040 0.930 . S
C987 N985 1.279 . S
C987 C986 1.358 . S
C987 H991 0.930 . S
C988 C986 1.356 . S
C988 C989 1.348 . S
C989 C984 1.353 . S
C989 C988 1.348 . S
C989 H1041 0.929 . S
H990 C984 0.930 . S
H991 C987 0.930 . S
C992 N993 1.314 . S
C992 C994 1.369 . S
C992 H998 0.930 . S
N993 Li969 1.990 . S
N993 C992 1.314 . S
N993 C996 1.279 . S
C994 C992 1.369 . S
C994 C997 1.349 . S
C994 H1042 0.913 1_545 S
C995 C996 1.358 . S
C995 C997 1.356 . S
C995 H1043 0.930 . S
C996 N993 1.279 . S
C996 C995 1.358 . S
C996 H999 0.930 . S
C997 C994 1.349 . S
C997 C995 1.356 . S
H998 C992 0.930 . S
H999 C996 0.930 . S
C1000 C1002 1.348 . S
C1000 C1003 1.356 . S
C1000 O1030 1.325 . S
N1001 C1004 1.314 . S
N1001 C1005 1.279 . S
C1002 C1000 1.348 . S
C1002 C1004 1.353 . S
C1002 H1044 0.929 . S
C1003 C1000 1.356 . S
C1003 C1005 1.358 . S
C1003 H1045 0.930 . S
C1004 N1001 1.314 . S
C1004 C1002 1.353 . S
C1004 H1046 0.930 . S
C1005 N1001 1.279 . S
C1005 C1003 1.358 . S
C1005 H1047 0.930 . S
C1006 C1007 1.348 . S
C1006 C1008 1.356 . S
C1006 O1031 1.325 . S
C1007 C1006 1.348 . S
C1007 C1009 1.353 . S
C1007 H1048 0.929 . S
C1008 C1006 1.356 . S
C1008 C1010 1.358 1_545 S
C1008 H1049 0.930 . S
C1009 C1007 1.353 . S
C1009 N1011 1.314 1_545 S
C1009 H1050 0.932 . S
C1010 C1008 1.358 1_565 S
C1010 N1011 1.279 . S
C1010 H1051 0.930 . S
N1011 C1009 1.314 1_565 S
N1011 C1010 1.279 . S
C1012 C1014 1.353 . S
C1012 N1015 1.314 . S
C1012 H1018 0.930 . S
C1013 N1015 1.279 . S
C1013 C1016 1.358 . S
C1013 H1019 0.930 . S
C1014 C1012 1.353 . S
C1014 C1017 1.348 . S
C1014 H1052 0.929 . S
N1015 Li970 1.990 . S
N1015 C1012 1.314 . S
N1015 C1013 1.279 . S
C1016 C1013 1.358 . S
C1016 C1017 1.356 . S
C1016 H1053 0.930 . S
C1017 C1014 1.348 . S
C1017 C1016 1.356 . S
H1018 C1012 0.930 . S
H1019 C1013 0.930 . S
C1020 N1021 1.314 . S
C1020 C1022 1.353 . S
C1020 H1026 0.930 . S
N1021 Li971 1.990 . S
N1021 C1020 1.314 . S
N1021 C1024 1.279 . S
C1022 C1020 1.353 . S
C1022 C1025 1.348 . S
C1022 H1054 0.929 1_556 S
C1023 C1024 1.358 . S
C1023 C1025 1.356 . S
C1023 H1055 0.930 . S
C1024 N1021 1.279 . S
C1024 C1023 1.358 . S
C1024 H1027 0.930 . S
C1025 C1022 1.348 . S
C1025 C1023 1.356 . S
H1026 C1020 0.930 . S
H1027 C1024 0.930 . S
O1028 Li968 1.956 . S
O1028 Li969 1.970 . S
O1028 Li970 1.961 . S
O1028 C972 1.325 . S
O1029 Li968 1.970 . S
O1029 Li969 1.956 . S
O1029 Li971 1.961 . S
O1029 C978 1.325 . S
O1030 Li968 1.961 . S
O1030 Li970 1.956 . S
O1030 Li971 1.970 . S
O1030 C1000 1.325 . S
O1031 Li969 1.961 . S
O1031 Li970 1.970 . S
O1031 Li971 1.956 . S
O1031 C1006 1.325 . S
H1032 C974 0.929 . S
H1033 C975 0.930 . S
H1034 C976 0.930 . S
H1035 C977 0.930 . S
H1036 C979 0.930 . S
H1037 C981 0.929 . S
H1038 C982 0.930 . S
H1039 C983 0.930 . S
H1040 C986 0.930 . S
H1041 C989 0.929 . S
H1042 C994 0.913 1_565 S
H1043 C995 0.930 . S
H1044 C1002 0.929 . S
H1045 C1003 0.930 . S
H1046 C1004 0.930 . S
H1047 C1005 0.930 . S
H1048 C1007 0.929 . S
H1049 C1008 0.930 . S
H1050 C1009 0.932 . S
H1051 C1010 0.930 . S
H1052 C1014 0.929 . S
H1053 C1016 0.930 . S
H1054 C1022 0.929 1_554 S
H1055 C1023 0.930 . S
Li1056 N1073 1.990 . S
Li1056 O1116 1.956 . S
Li1056 O1117 1.970 . S
Li1056 O1118 1.961 . S
Li1057 N1081 1.990 . S
Li1057 O1116 1.970 . S
Li1057 O1117 1.956 . S
Li1057 O1119 1.961 . S
Li1058 N1103 1.990 . S
Li1058 O1116 1.961 . S
Li1058 O1118 1.956 . S
Li1058 O1119 1.970 . S
Li1059 N1109 1.990 . S
Li1059 O1117 1.961 . S
Li1059 O1118 1.970 . S
Li1059 O1119 1.956 . S
C1060 C1062 1.348 . S
C1060 C1063 1.356 . S
C1060 O1116 1.325 . S
N1061 C1064 1.314 . S
N1061 C1065 1.279 . S
C1062 C1060 1.348 . S
C1062 C1064 1.353 . S
C1062 H1120 0.929 . S
C1063 C1060 1.356 . S
C1063 C1065 1.358 . S
C1063 H1121 0.930 . S
C1064 N1061 1.314 . S
C1064 C1062 1.353 . S
C1064 H1122 0.930 . S
C1065 N1061 1.279 . S
C1065 C1063 1.358 . S
C1065 H1123 0.930 . S
C1066 C1069 1.348 . S
C1066 C1070 1.356 . S
C1066 O1117 1.325 . S
C1067 N1068 1.279 . S
C1067 C1070 1.358 . S
C1067 H1124 0.930 . S
N1068 C1067 1.279 . S
N1068 C1071 1.314 . S
C1069 C1066 1.348 . S
C1069 C1071 1.353 . S
C1069 H1125 0.929 . S
C1070 C1066 1.356 . S
C1070 C1067 1.358 . S
C1070 H1126 0.930 . S
C1071 N1068 1.314 . S
C1071 C1069 1.353 . S
C1071 H1127 0.930 . S
C1072 N1073 1.314 . S
C1072 C1077 1.353 . S
C1072 H1078 0.930 . S
N1073 Li1056 1.990 . S
N1073 C1072 1.314 . S
N1073 C1075 1.279 . S
C1074 C1075 1.358 . S
C1074 C1076 1.356 . S
C1074 H1128 0.930 . S
C1075 N1073 1.279 . S
C1075 C1074 1.358 . S
C1075 H1079 0.930 . S
C1076 C1074 1.356 . S
C1076 C1077 1.348 . S
C1077 C1072 1.353 . S
C1077 C1076 1.348 . S
C1077 H1129 0.929 . S
H1078 C1072 0.930 . S
H1079 C1075 0.930 . S
C1080 N1081 1.314 . S
C1080 C1082 1.353 . S
C1080 H1086 0.930 . S
N1081 Li1057 1.990 . S
N1081 C1080 1.314 . S
N1081 C1084 1.279 . S
C1082 C1080 1.353 . S
C1082 C1085 1.348 . S
C1082 H1130 0.929 . S
C1083 C1084 1.358 . S
C1083 C1085 1.356 . S
C1083 H1131 0.930 . S
C1084 N1081 1.279 . S
C1084 C1083 1.358 . S
C1084 H1087 0.930 . S
C1085 C1082 1.348 . S
C1085 C1083 1.356 . S
H1086 C1080 0.930 . S
H1087 C1084 0.930 . S
C1088 C1090 1.348 . S
C1088 C1091 1.356 . S
C1088 O1118 1.325 . S
N1089 C1092 1.314 . S
N1089 C1093 1.279 . S
C1090 C1088 1.348 . S
C1090 C1092 1.353 . S
C1090 H1132 0.929 . S
C1091 C1088 1.356 . S
C1091 C1093 1.358 . S
C1091 H1133 0.930 . S
C1092 N1089 1.314 . S
C1092 C1090 1.353 . S
C1092 H1134 0.930 . S
C1093 N1089 1.279 . S
C1093 C1091 1.358 . S
C1093 H1135 0.930 . S
C1094 C1095 1.348 . S
C1094 C1096 1.356 . S
C1094 O1119 1.325 . S
C1095 C1094 1.348 . S
C1095 C1097 1.353 . S
C1095 H1136 0.929 . S
C1096 C1094 1.356 . S
C1096 C1098 1.358 . S
C1096 H1137 0.930 . S
C1097 C1095 1.353 . S
C1097 N1099 1.314 . S
C1097 H1138 0.930 . S
C1098 C1096 1.358 . S
C1098 N1099 1.279 . S
C1098 H1139 0.930 . S
N1099 C1097 1.314 . S
N1099 C1098 1.279 . S
C1100 C1102 1.353 . S
C1100 N1103 1.314 . S
C1100 H1106 0.930 . S
C1101 N1103 1.279 . S
C1101 C1104 1.358 . S
C1101 H1107 0.930 . S
C1102 C1100 1.353 . S
C1102 C1105 1.348 . S
C1102 H1140 0.929 . S
N1103 Li1058 1.990 . S
N1103 C1100 1.314 . S
N1103 C1101 1.279 . S
C1104 C1101 1.358 . S
C1104 C1105 1.356 . S
C1104 H1141 0.930 . S
C1105 C1102 1.348 . S
C1105 C1104 1.356 . S
H1106 C1100 0.930 . S
H1107 C1101 0.930 . S
C1108 N1109 1.314 . S
C1108 C1110 1.353 . S
C1108 H1114 0.930 . S
N1109 Li1059 1.990 . S
N1109 C1108 1.314 . S
N1109 C1112 1.279 . S
C1110 C1108 1.353 . S
C1110 C1113 1.348 . S
C1110 H1142 0.929 . S
C1111 C1112 1.358 . S
C1111 C1113 1.356 . S
C1111 H1143 0.930 . S
C1112 N1109 1.279 . S
C1112 C1111 1.358 . S
C1112 H1115 0.930 . S
C1113 C1110 1.348 . S
C1113 C1111 1.356 . S
H1114 C1108 0.930 . S
H1115 C1112 0.930 . S
O1116 Li1056 1.956 . S
O1116 Li1057 1.970 . S
O1116 Li1058 1.961 . S
O1116 C1060 1.325 . S
O1117 Li1056 1.970 . S
O1117 Li1057 1.956 . S
O1117 Li1059 1.961 . S
O1117 C1066 1.325 . S
O1118 Li1056 1.961 . S
O1118 Li1058 1.956 . S
O1118 Li1059 1.970 . S
O1118 C1088 1.325 . S
O1119 Li1057 1.961 . S
O1119 Li1058 1.970 . S
O1119 Li1059 1.956 . S
O1119 C1094 1.325 . S
H1120 C1062 0.929 . S
H1121 C1063 0.930 . S
H1122 C1064 0.930 . S
H1123 C1065 0.930 . S
H1124 C1067 0.930 . S
H1125 C1069 0.929 . S
H1126 C1070 0.930 . S
H1127 C1071 0.930 . S
H1128 C1074 0.930 . S
H1129 C1077 0.929 . S
H1130 C1082 0.929 . S
H1131 C1083 0.930 . S
H1132 C1090 0.929 . S
H1133 C1091 0.930 . S
H1134 C1092 0.930 . S
H1135 C1093 0.930 . S
H1136 C1095 0.929 . S
H1137 C1096 0.930 . S
H1138 C1097 0.930 . S
H1139 C1098 0.930 . S
H1140 C1102 0.929 . S
H1141 C1104 0.930 . S
H1142 C1110 0.929 . S
H1143 C1111 0.930 . S
Li1144 N1161 1.990 . S
Li1144 O1204 1.956 . S
Li1144 O1205 1.970 . S
Li1144 O1206 1.961 . S
Li1145 N1169 1.990 . S
Li1145 O1204 1.970 . S
Li1145 O1205 1.956 . S
Li1145 O1207 1.961 . S
Li1146 N1191 1.990 . S
Li1146 O1204 1.961 . S
Li1146 O1206 1.956 . S
Li1146 O1207 1.970 . S
Li1147 N1197 1.990 . S
Li1147 O1205 1.961 . S
Li1147 O1206 1.970 . S
Li1147 O1207 1.956 . S
C1148 C1150 1.348 . S
C1148 C1151 1.356 . S
C1148 O1204 1.325 . S
N1149 C1152 1.314 . S
N1149 C1153 1.279 . S
C1150 C1148 1.348 . S
C1150 C1152 1.353 . S
C1150 H1208 0.929 . S
C1151 C1148 1.356 . S
C1151 C1153 1.358 . S
C1151 H1209 0.930 . S
C1152 N1149 1.314 . S
C1152 C1150 1.353 . S
C1152 H1210 0.930 . S
C1153 N1149 1.279 . S
C1153 C1151 1.358 . S
C1153 H1211 0.930 . S
C1154 C1157 1.348 . S
C1154 C1158 1.356 . S
C1154 O1205 1.325 . S
C1155 N1156 1.279 . S
C1155 C1158 1.358 . S
C1155 H1212 0.930 . S
N1156 C1155 1.279 . S
N1156 C1159 1.314 . S
C1157 C1154 1.348 . S
C1157 C1159 1.353 . S
C1157 H1213 0.929 . S
C1158 C1154 1.356 . S
C1158 C1155 1.358 . S
C1158 H1214 0.930 . S
C1159 N1156 1.314 . S
C1159 C1157 1.353 . S
C1159 H1215 0.930 . S
C1160 N1161 1.314 . S
C1160 C1165 1.353 . S
C1160 H1166 0.930 . S
N1161 Li1144 1.990 . S
N1161 C1160 1.314 . S
N1161 C1163 1.279 . S
C1162 C1163 1.358 . S
C1162 C1164 1.356 . S
C1162 H1216 0.930 . S
C1163 N1161 1.279 . S
C1163 C1162 1.358 . S
C1163 H1167 0.930 . S
C1164 C1162 1.356 . S
C1164 C1165 1.348 . S
C1165 C1160 1.353 . S
C1165 C1164 1.348 . S
C1165 H1217 0.929 . S
H1166 C1160 0.930 . S
H1167 C1163 0.930 . S
C1168 N1169 1.314 . S
C1168 C1170 1.353 . S
C1168 H1174 0.930 . S
N1169 Li1145 1.990 . S
N1169 C1168 1.314 . S
N1169 C1172 1.279 . S
C1170 C1168 1.353 . S
C1170 C1173 1.348 . S
C1170 H1218 0.929 . S
C1171 C1172 1.358 . S
C1171 C1173 1.356 . S
C1171 H1219 0.930 . S
C1172 N1169 1.279 . S
C1172 C1171 1.358 . S
C1172 H1175 0.930 . S
C1173 C1170 1.348 . S
C1173 C1171 1.356 . S
H1174 C1168 0.930 . S
H1175 C1172 0.930 . S
C1176 C1178 1.348 . S
C1176 C1179 1.356 . S
C1176 O1206 1.325 . S
N1177 C1180 1.314 . S
N1177 C1181 1.279 . S
C1178 C1176 1.348 . S
C1178 C1180 1.353 . S
C1178 H1220 0.929 . S
C1179 C1176 1.356 . S
C1179 C1181 1.358 . S
C1179 H1221 0.930 . S
C1180 N1177 1.314 . S
C1180 C1178 1.353 . S
C1180 H1222 0.930 . S
C1181 N1177 1.279 . S
C1181 C1179 1.358 . S
C1181 H1223 0.930 . S
C1182 C1183 1.348 . S
C1182 C1184 1.356 . S
C1182 O1207 1.325 . S
C1183 C1182 1.348 . S
C1183 C1185 1.353 . S
C1183 H1224 0.929 . S
C1184 C1182 1.356 . S
C1184 C1186 1.358 . S
C1184 H1225 0.930 . S
C1185 C1183 1.353 . S
C1185 N1187 1.314 . S
C1185 H1226 0.930 . S
C1186 C1184 1.358 . S
C1186 N1187 1.279 . S
C1186 H1227 0.930 . S
N1187 C1185 1.314 . S
N1187 C1186 1.279 . S
C1188 C1190 1.353 . S
C1188 N1191 1.314 . S
C1188 H1194 0.930 . S
C1189 N1191 1.279 . S
C1189 C1192 1.358 . S
C1189 H1195 0.930 . S
C1190 C1188 1.353 . S
C1190 C1193 1.348 . S
C1190 H1228 0.929 . S
N1191 Li1146 1.990 . S
N1191 C1188 1.314 . S
N1191 C1189 1.279 . S
C1192 C1189 1.358 . S
C1192 C1193 1.356 . S
C1192 H1229 0.930 . S
C1193 C1190 1.348 . S
C1193 C1192 1.356 . S
H1194 C1188 0.930 . S
H1195 C1189 0.930 . S
C1196 N1197 1.314 . S
C1196 C1198 1.353 . S
C1196 H1202 0.930 . S
N1197 Li1147 1.990 . S
N1197 C1196 1.314 . S
N1197 C1200 1.279 . S
C1198 C1196 1.353 . S
C1198 C1201 1.348 . S
C1198 H1230 0.929 . S
C1199 C1200 1.358 . S
C1199 C1201 1.356 . S
C1199 H1231 0.930 . S
C1200 N1197 1.279 . S
C1200 C1199 1.358 . S
C1200 H1203 0.930 . S
C1201 C1198 1.348 . S
C1201 C1199 1.356 . S
H1202 C1196 0.930 . S
H1203 C1200 0.930 . S
O1204 Li1144 1.956 . S
O1204 Li1145 1.970 . S
O1204 Li1146 1.961 . S
O1204 C1148 1.325 . S
O1205 Li1144 1.970 . S
O1205 Li1145 1.956 . S
O1205 Li1147 1.961 . S
O1205 C1154 1.325 . S
O1206 Li1144 1.961 . S
O1206 Li1146 1.956 . S
O1206 Li1147 1.970 . S
O1206 C1176 1.325 . S
O1207 Li1145 1.961 . S
O1207 Li1146 1.970 . S
O1207 Li1147 1.956 . S
O1207 C1182 1.325 . S
H1208 C1150 0.929 . S
H1209 C1151 0.930 . S
H1210 C1152 0.930 . S
H1211 C1153 0.930 . S
H1212 C1155 0.930 . S
H1213 C1157 0.929 . S
H1214 C1158 0.930 . S
H1215 C1159 0.930 . S
H1216 C1162 0.930 . S
H1217 C1165 0.929 . S
H1218 C1170 0.929 . S
H1219 C1171 0.930 . S
H1220 C1178 0.929 . S
H1221 C1179 0.930 . S
H1222 C1180 0.930 . S
H1223 C1181 0.930 . S
H1224 C1183 0.929 . S
H1225 C1184 0.930 . S
H1226 C1185 0.930 . S
H1227 C1186 0.930 . S
H1228 C1190 0.929 . S
H1229 C1192 0.930 . S
H1230 C1198 0.929 . S
H1231 C1199 0.930 . S
Li1232 N1249 1.990 . S
Li1232 O1292 1.956 . S
Li1232 O1293 1.970 . S
Li1232 O1294 1.961 . S
Li1233 N1257 1.990 . S
Li1233 O1292 1.970 . S
Li1233 O1293 1.956 . S
Li1233 O1295 1.961 . S
Li1234 N1279 1.990 . S
Li1234 O1292 1.961 . S
Li1234 O1294 1.956 . S
Li1234 O1295 1.970 . S
Li1235 N1285 1.990 . S
Li1235 O1293 1.961 . S
Li1235 O1294 1.970 . S
Li1235 O1295 1.956 . S
C1236 C1238 1.348 . S
C1236 C1239 1.356 . S
C1236 O1292 1.325 . S
N1237 C1240 1.314 . S
N1237 C1241 1.279 . S
C1238 C1236 1.348 . S
C1238 C1240 1.353 . S
C1238 H1296 0.929 . S
C1239 C1236 1.356 . S
C1239 C1241 1.358 . S
C1239 H1297 0.930 . S
C1240 N1237 1.314 . S
C1240 C1238 1.353 . S
C1240 H1298 0.930 . S
C1241 N1237 1.279 . S
C1241 C1239 1.358 . S
C1241 H1299 0.930 . S
C1242 C1245 1.348 . S
C1242 C1246 1.356 . S
C1242 O1293 1.325 . S
C1243 N1244 1.279 . S
C1243 C1246 1.358 . S
C1243 H1300 0.930 . S
N1244 C1243 1.279 . S
N1244 C1247 1.314 . S
C1245 C1242 1.348 . S
C1245 C1247 1.353 . S
C1245 H1301 0.929 . S
C1246 C1242 1.356 . S
C1246 C1243 1.358 . S
C1246 H1302 0.930 . S
C1247 N1244 1.314 . S
C1247 C1245 1.353 . S
C1247 H1303 0.930 . S
C1248 N1249 1.314 . S
C1248 C1253 1.353 . S
C1248 H1254 0.930 . S
N1249 Li1232 1.990 . S
N1249 C1248 1.314 . S
N1249 C1251 1.279 . S
C1250 C1251 1.358 . S
C1250 C1252 1.356 . S
C1250 H1304 0.930 . S
C1251 N1249 1.279 . S
C1251 C1250 1.358 . S
C1251 H1255 0.930 . S
C1252 C1250 1.356 . S
C1252 C1253 1.348 . S
C1253 C1248 1.353 . S
C1253 C1252 1.348 . S
C1253 H1305 0.929 . S
H1254 C1248 0.930 . S
H1255 C1251 0.930 . S
C1256 N1257 1.314 . S
C1256 C1258 1.369 . S
C1256 H1262 0.930 . S
N1257 Li1233 1.990 . S
N1257 C1256 1.314 . S
N1257 C1260 1.279 . S
C1258 C1256 1.369 . S
C1258 C1261 1.349 . S
C1258 H1306 0.913 1_455 S
C1259 C1260 1.358 . S
C1259 C1261 1.356 . S
C1259 H1307 0.930 . S
C1260 N1257 1.279 . S
C1260 C1259 1.358 . S
C1260 H1263 0.930 . S
C1261 C1258 1.349 . S
C1261 C1259 1.356 . S
H1262 C1256 0.930 . S
H1263 C1260 0.930 . S
C1264 C1266 1.348 . S
C1264 C1267 1.356 . S
C1264 O1294 1.325 . S
N1265 C1268 1.314 . S
N1265 C1269 1.279 . S
C1266 C1264 1.348 . S
C1266 C1268 1.353 . S
C1266 H1308 0.929 . S
C1267 C1264 1.356 . S
C1267 C1269 1.358 . S
C1267 H1309 0.930 . S
C1268 N1265 1.314 . S
C1268 C1266 1.353 . S
C1268 H1310 0.930 . S
C1269 N1265 1.279 . S
C1269 C1267 1.358 . S
C1269 H1311 0.930 . S
C1270 C1271 1.348 . S
C1270 C1272 1.356 . S
C1270 O1295 1.325 . S
C1271 C1270 1.348 . S
C1271 C1273 1.353 . S
C1271 H1312 0.929 . S
C1272 C1270 1.356 . S
C1272 C1274 1.358 1_455 S
C1272 H1313 0.930 . S
C1273 C1271 1.353 . S
C1273 N1275 1.314 1_455 S
C1273 H1314 0.932 . S
C1274 C1272 1.358 1_655 S
C1274 N1275 1.279 . S
C1274 H1315 0.930 . S
N1275 C1273 1.314 1_655 S
N1275 C1274 1.279 . S
C1276 C1278 1.353 . S
C1276 N1279 1.314 . S
C1276 H1282 0.930 . S
C1277 N1279 1.279 . S
C1277 C1280 1.358 . S
C1277 H1283 0.930 . S
C1278 C1276 1.353 . S
C1278 C1281 1.348 . S
C1278 H1316 0.929 . S
N1279 Li1234 1.990 . S
N1279 C1276 1.314 . S
N1279 C1277 1.279 . S
C1280 C1277 1.358 . S
C1280 C1281 1.356 . S
C1280 H1317 0.930 . S
C1281 C1278 1.348 . S
C1281 C1280 1.356 . S
H1282 C1276 0.930 . S
H1283 C1277 0.930 . S
C1284 N1285 1.314 . S
C1284 C1286 1.353 . S
C1284 H1290 0.930 . S
N1285 Li1235 1.990 . S
N1285 C1284 1.314 . S
N1285 C1288 1.279 . S
C1286 C1284 1.353 . S
C1286 C1289 1.348 . S
C1286 H1318 0.929 . S
C1287 C1288 1.358 . S
C1287 C1289 1.356 . S
C1287 H1319 0.930 . S
C1288 N1285 1.279 . S
C1288 C1287 1.358 . S
C1288 H1291 0.930 . S
C1289 C1286 1.348 . S
C1289 C1287 1.356 . S
H1290 C1284 0.930 . S
H1291 C1288 0.930 . S
O1292 Li1232 1.956 . S
O1292 Li1233 1.970 . S
O1292 Li1234 1.961 . S
O1292 C1236 1.325 . S
O1293 Li1232 1.970 . S
O1293 Li1233 1.956 . S
O1293 Li1235 1.961 . S
O1293 C1242 1.325 . S
O1294 Li1232 1.961 . S
O1294 Li1234 1.956 . S
O1294 Li1235 1.970 . S
O1294 C1264 1.325 . S
O1295 Li1233 1.961 . S
O1295 Li1234 1.970 . S
O1295 Li1235 1.956 . S
O1295 C1270 1.325 . S
H1296 C1238 0.929 . S
H1297 C1239 0.930 . S
H1298 C1240 0.930 . S
H1299 C1241 0.930 . S
H1300 C1243 0.930 . S
H1301 C1245 0.929 . S
H1302 C1246 0.930 . S
H1303 C1247 0.930 . S
H1304 C1250 0.930 . S
H1305 C1253 0.929 . S
H1306 C1258 0.913 1_655 S
H1307 C1259 0.930 . S
H1308 C1266 0.929 . S
H1309 C1267 0.930 . S
H1310 C1268 0.930 . S
H1311 C1269 0.930 . S
H1312 C1271 0.929 . S
H1313 C1272 0.930 . S
H1314 C1273 0.932 . S
H1315 C1274 0.930 . S
H1316 C1278 0.929 . S
H1317 C1280 0.930 . S
H1318 C1286 0.929 . S
H1319 C1287 0.930 . S
Li1320 N1337 1.990 . S
Li1320 O1380 1.956 . S
Li1320 O1381 1.970 . S
Li1320 O1382 1.961 . S
Li1321 N1345 1.990 . S
Li1321 O1380 1.970 . S
Li1321 O1381 1.956 . S
Li1321 O1383 1.961 . S
Li1322 N1367 1.990 . S
Li1322 O1380 1.961 . S
Li1322 O1382 1.956 . S
Li1322 O1383 1.970 . S
Li1323 N1373 1.990 . S
Li1323 O1381 1.961 . S
Li1323 O1382 1.970 . S
Li1323 O1383 1.956 . S
C1324 C1326 1.348 . S
C1324 C1327 1.356 . S
C1324 O1380 1.325 . S
N1325 C1328 1.314 1_565 S
N1325 C1329 1.279 . S
C1326 C1324 1.348 . S
C1326 C1328 1.353 . S
C1326 H1384 0.929 . S
C1327 C1324 1.356 . S
C1327 C1329 1.358 1_545 S
C1327 H1385 0.930 . S
C1328 N1325 1.314 1_545 S
C1328 C1326 1.353 . S
C1328 H1386 0.932 . S
C1329 N1325 1.279 . S
C1329 C1327 1.358 1_565 S
C1329 H1387 0.930 . S
C1330 C1333 1.348 . S
C1330 C1334 1.356 . S
C1330 O1381 1.325 . S
C1331 N1332 1.279 . S
C1331 C1334 1.358 . S
C1331 H1388 0.930 . S
N1332 C1331 1.279 . S
N1332 C1335 1.314 . S
C1333 C1330 1.348 . S
C1333 C1335 1.353 . S
C1333 H1389 0.929 . S
C1334 C1330 1.356 . S
C1334 C1331 1.358 . S
C1334 H1390 0.930 . S
C1335 N1332 1.314 . S
C1335 C1333 1.353 . S
C1335 H1391 0.930 . S
C1336 N1337 1.314 . S
C1336 C1341 1.353 . S
C1336 H1342 0.930 . S
N1337 Li1320 1.990 . S
N1337 C1336 1.314 . S
N1337 C1339 1.279 . S
C1338 C1339 1.358 . S
C1338 C1340 1.356 . S
C1338 H1392 0.930 . S
C1339 N1337 1.279 . S
C1339 C1338 1.358 . S
C1339 H1343 0.930 . S
C1340 C1338 1.356 . S
C1340 C1341 1.348 . S
C1341 C1336 1.353 . S
C1341 C1340 1.348 . S
C1341 H1393 0.929 . S
H1342 C1336 0.930 . S
H1343 C1339 0.930 . S
C1344 N1345 1.314 . S
C1344 C1346 1.353 . S
C1344 H1350 0.930 . S
N1345 Li1321 1.990 . S
N1345 C1344 1.314 . S
N1345 C1348 1.279 . S
C1346 C1344 1.353 . S
C1346 C1349 1.348 . S
C1346 H1394 0.929 . S
C1347 C1348 1.358 . S
C1347 C1349 1.356 . S
C1347 H1395 0.930 . S
C1348 N1345 1.279 . S
C1348 C1347 1.358 . S
C1348 H1351 0.930 . S
C1349 C1346 1.348 . S
C1349 C1347 1.356 . S
H1350 C1344 0.930 . S
H1351 C1348 0.930 . S
C1352 C1354 1.348 . S
C1352 C1355 1.356 . S
C1352 O1382 1.325 . S
N1353 C1356 1.314 . S
N1353 C1357 1.279 . S
C1354 C1352 1.348 . S
C1354 C1356 1.353 . S
C1354 H1396 0.929 . S
C1355 C1352 1.356 . S
C1355 C1357 1.358 . S
C1355 H1397 0.930 . S
C1356 N1353 1.314 . S
C1356 C1354 1.353 . S
C1356 H1398 0.930 . S
C1357 N1353 1.279 . S
C1357 C1355 1.358 . S
C1357 H1399 0.930 . S
C1358 C1359 1.348 . S
C1358 C1360 1.356 . S
C1358 O1383 1.325 . S
C1359 C1358 1.348 . S
C1359 C1361 1.353 . S
C1359 H1400 0.929 . S
C1360 C1358 1.356 . S
C1360 C1362 1.358 . S
C1360 H1401 0.930 . S
C1361 C1359 1.353 . S
C1361 N1363 1.314 . S
C1361 H1402 0.930 . S
C1362 C1360 1.358 . S
C1362 N1363 1.279 . S
C1362 H1403 0.930 . S
N1363 C1361 1.314 . S
N1363 C1362 1.279 . S
C1364 C1366 1.369 . S
C1364 N1367 1.314 . S
C1364 H1370 0.930 . S
C1365 N1367 1.279 . S
C1365 C1368 1.358 . S
C1365 H1371 0.930 . S
C1366 C1364 1.369 . S
C1366 C1369 1.349 . S
C1366 H1404 0.913 1_545 S
N1367 Li1322 1.990 . S
N1367 C1364 1.314 . S
N1367 C1365 1.279 . S
C1368 C1365 1.358 . S
C1368 C1369 1.356 . S
C1368 H1405 0.930 . S
C1369 C1366 1.349 . S
C1369 C1368 1.356 . S
H1370 C1364 0.930 . S
H1371 C1365 0.930 . S
C1372 N1373 1.314 . S
C1372 C1374 1.353 . S
C1372 H1378 0.930 . S
N1373 Li1323 1.990 . S
N1373 C1372 1.314 . S
N1373 C1376 1.279 . S
C1374 C1372 1.353 . S
C1374 C1377 1.348 . S
C1374 H1406 0.929 . S
C1375 C1376 1.358 . S
C1375 C1377 1.356 . S
C1375 H1407 0.930 . S
C1376 N1373 1.279 . S
C1376 C1375 1.358 . S
C1376 H1379 0.930 . S
C1377 C1374 1.348 . S
C1377 C1375 1.356 . S
H1378 C1372 0.930 . S
H1379 C1376 0.930 . S
O1380 Li1320 1.956 . S
O1380 Li1321 1.970 . S
O1380 Li1322 1.961 . S
O1380 C1324 1.325 . S
O1381 Li1320 1.970 . S
O1381 Li1321 1.956 . S
O1381 Li1323 1.961 . S
O1381 C1330 1.325 . S
O1382 Li1320 1.961 . S
O1382 Li1322 1.956 . S
O1382 Li1323 1.970 . S
O1382 C1352 1.325 . S
O1383 Li1321 1.961 . S
O1383 Li1322 1.970 . S
O1383 Li1323 1.956 . S
O1383 C1358 1.325 . S
H1384 C1326 0.929 . S
H1385 C1327 0.930 . S
H1386 C1328 0.932 . S
H1387 C1329 0.930 . S
H1388 C1331 0.930 . S
H1389 C1333 0.929 . S
H1390 C1334 0.930 . S
H1391 C1335 0.930 . S
H1392 C1338 0.930 . S
H1393 C1341 0.929 . S
H1394 C1346 0.929 . S
H1395 C1347 0.930 . S
H1396 C1354 0.929 . S
H1397 C1355 0.930 . S
H1398 C1356 0.930 . S
H1399 C1357 0.930 . S
H1400 C1359 0.929 . S
H1401 C1360 0.930 . S
H1402 C1361 0.930 . S
H1403 C1362 0.930 . S
H1404 C1366 0.913 1_565 S
H1405 C1368 0.930 . S
H1406 C1374 0.929 . S
H1407 C1375 0.930 . S
H1408 C1414 0.935 . S
H1409 C1417 0.930 1_554 S
H1410 C1418 0.930 . S
H1411 C1419 0.930 . S
H1412 C1422 0.930 . S
H1413 C1423 0.930 . S
C1414 H1408 0.935 . S
C1414 C1415 1.355 1_556 S
C1414 C1416 1.415 . S
C1415 C1414 1.355 1_554 S
C1415 C1417 1.419 1_554 S
C1416 C1414 1.415 . S
C1416 C1421 1.425 . S
C1416 C1423 1.409 . S
C1417 H1409 0.930 1_556 S
C1417 C1415 1.419 1_556 S
C1417 C1418 1.362 . S
C1418 H1410 0.930 . S
C1418 C1417 1.362 . S
C1418 C1421 1.409 . S
C1419 H1411 0.930 . S
C1419 C1420 1.355 . S
C1419 C1421 1.415 . S
C1420 C1419 1.355 . S
C1420 C1422 1.419 . S
C1421 C1416 1.425 . S
C1421 C1418 1.409 . S
C1421 C1419 1.415 . S
C1422 H1412 0.930 . S
C1422 C1420 1.419 . S
C1422 C1423 1.362 . S
C1423 H1413 0.930 . S
C1423 C1416 1.409 . S
C1423 C1422 1.362 . S
H1424 C1430 0.930 . S
H1425 C1433 0.930 . S
H1426 C1434 0.930 . S
H1427 C1435 0.930 . S
H1428 C1438 0.930 . S
H1429 C1439 0.930 . S
C1430 H1424 0.930 . S
C1430 C1431 1.355 . S
C1430 C1432 1.415 . S
C1431 C1430 1.355 . S
C1431 C1433 1.419 . S
C1432 C1430 1.415 . S
C1432 C1437 1.425 . S
C1432 C1439 1.409 . S
C1433 H1425 0.930 . S
C1433 C1431 1.419 . S
C1433 C1434 1.362 . S
C1434 H1426 0.930 . S
C1434 C1433 1.362 . S
C1434 C1437 1.409 . S
C1435 H1427 0.930 . S
C1435 C1436 1.355 1_556 S
C1435 C1437 1.415 . S
C1436 C1435 1.355 1_554 S
C1436 C1438 1.419 . S
C1437 C1432 1.425 . S
C1437 C1434 1.409 . S
C1437 C1435 1.415 . S
C1438 H1428 0.930 . S
C1438 C1436 1.419 . S
C1438 C1439 1.362 1_554 S
C1439 H1429 0.930 . S
C1439 C1432 1.409 . S
C1439 C1438 1.362 1_556 S
H1440 C1446 0.930 . S
H1441 C1449 0.930 . S
H1442 C1450 0.930 . S
H1443 C1451 0.930 . S
H1444 C1454 0.930 . S
H1445 C1455 0.936 . S
C1446 H1440 0.930 . S
C1446 C1447 1.355 . S
C1446 C1448 1.415 . S
C1447 C1446 1.355 . S
C1447 C1449 1.419 . S
C1448 C1446 1.415 . S
C1448 C1453 1.425 . S
C1448 C1455 1.409 . S
C1449 H1441 0.930 . S
C1449 C1447 1.419 . S
C1449 C1450 1.362 . S
C1450 H1442 0.930 . S
C1450 C1449 1.362 . S
C1450 C1453 1.409 . S
C1451 H1443 0.930 . S
C1451 C1452 1.355 1_556 S
C1451 C1453 1.415 . S
C1452 C1451 1.355 1_554 S
C1452 C1454 1.419 . S
C1453 C1448 1.425 . S
C1453 C1450 1.409 . S
C1453 C1451 1.415 . S
C1454 H1444 0.930 . S
C1454 C1452 1.419 . S
C1454 C1455 1.362 1_554 S
C1455 H1445 0.936 . S
C1455 C1448 1.409 . S
C1455 C1454 1.362 1_556 S
H1456 C1462 0.930 . S
H1457 C1465 0.930 . S
H1458 C1466 0.930 . S
H1459 C1467 0.930 . S
H1460 C1470 0.930 . S
H1461 C1471 0.942 . S
C1462 H1456 0.930 . S
C1462 C1463 1.355 . S
C1462 C1464 1.415 . S
C1463 C1462 1.355 . S
C1463 C1465 1.419 . S
C1464 C1462 1.415 . S
C1464 C1469 1.425 . S
C1464 C1471 1.379 1_556 S
C1465 H1457 0.930 . S
C1465 C1463 1.419 . S
C1465 C1466 1.362 . S
C1466 H1458 0.930 . S
C1466 C1465 1.362 . S
C1466 C1469 1.409 . S
C1467 H1459 0.930 . S
C1467 C1468 1.355 1_556 S
C1467 C1469 1.415 . S
C1468 C1467 1.355 1_554 S
C1468 C1470 1.419 . S
C1469 C1464 1.425 . S
C1469 C1466 1.409 . S
C1469 C1467 1.415 . S
C1470 H1460 0.930 . S
C1470 C1468 1.419 . S
C1470 C1471 1.382 . S
C1471 H1461 0.942 . S
C1471 C1464 1.379 1_554 S
C1471 C1470 1.382 . S
H1472 C1478 0.930 . S
H1473 C1481 0.930 . S
H1474 C1482 0.930 . S
H1475 C1483 0.930 . S
H1476 C1486 0.930 . S
H1477 C1487 0.930 . S
C1478 H1472 0.930 . S
C1478 C1479 1.355 . S
C1478 C1480 1.415 . S
C1479 C1478 1.355 . S
C1479 C1481 1.419 . S
C1480 C1478 1.415 . S
C1480 C1485 1.425 . S
C1480 C1487 1.409 . S
C1481 H1473 0.930 . S
C1481 C1479 1.419 . S
C1481 C1482 1.362 . S
C1482 H1474 0.930 . S
C1482 C1481 1.362 . S
C1482 C1485 1.409 . S
C1483 H1475 0.930 . S
C1483 C1484 1.355 . S
C1483 C1485 1.415 . S
C1484 C1483 1.355 . S
C1484 C1486 1.419 . S
C1485 C1480 1.425 . S
C1485 C1482 1.409 . S
C1485 C1483 1.415 . S
C1486 H1476 0.930 . S
C1486 C1484 1.419 . S
C1486 C1487 1.362 . S
C1487 H1477 0.930 . S
C1487 C1480 1.409 . S
C1487 C1486 1.362 . S
H1488 C1494 0.930 . S
H1489 C1497 0.930 . S
H1490 C1498 0.930 . S
H1491 C1499 0.930 . S
H1492 C1502 0.930 . S
H1493 C1503 0.930 . S
C1494 H1488 0.930 . S
C1494 C1495 1.355 . S
C1494 C1496 1.415 . S
C1495 C1494 1.355 . S
C1495 C1497 1.419 . S
C1496 C1494 1.415 . S
C1496 C1501 1.425 . S
C1496 C1503 1.409 . S
C1497 H1489 0.930 . S
C1497 C1495 1.419 . S
C1497 C1498 1.362 . S
C1498 H1490 0.930 . S
C1498 C1497 1.362 . S
C1498 C1501 1.409 . S
C1499 H1491 0.930 . S
C1499 C1500 1.355 . S
C1499 C1501 1.415 . S
C1500 C1499 1.355 . S
C1500 C1502 1.419 . S
C1501 C1496 1.425 . S
C1501 C1498 1.409 . S
C1501 C1499 1.415 . S
C1502 H1492 0.930 . S
C1502 C1500 1.419 . S
C1502 C1503 1.362 . S
C1503 H1493 0.930 . S
C1503 C1496 1.409 . S
C1503 C1502 1.362 . S
H1504 C1510 0.930 . S
H1505 C1513 0.930 . S
H1506 C1514 0.930 . S
H1507 C1515 0.930 . S
H1508 C1518 0.930 . S
H1509 C1519 0.930 . S
C1510 H1504 0.930 . S
C1510 C1511 1.355 . S
C1510 C1512 1.415 . S
C1511 C1510 1.355 . S
C1511 C1513 1.419 . S
C1512 C1510 1.415 . S
C1512 C1517 1.425 . S
C1512 C1519 1.409 . S
C1513 H1505 0.930 . S
C1513 C1511 1.419 . S
C1513 C1514 1.362 . S
C1514 H1506 0.930 . S
C1514 C1513 1.362 . S
C1514 C1517 1.409 . S
C1515 H1507 0.930 . S
C1515 C1516 1.355 . S
C1515 C1517 1.415 . S
C1516 C1515 1.355 . S
C1516 C1518 1.419 . S
C1517 C1512 1.425 . S
C1517 C1514 1.409 . S
C1517 C1515 1.415 . S
C1518 H1508 0.930 . S
C1518 C1516 1.419 . S
C1518 C1519 1.362 . S
C1519 H1509 0.930 . S
C1519 C1512 1.409 . S
C1519 C1518 1.362 . S
H1520 C1526 0.930 . S
H1521 C1529 0.930 . S
H1522 C1530 0.930 . S
H1523 C1531 0.930 . S
H1524 C1534 0.930 . S
H1525 C1535 0.930 . S
C1526 H1520 0.930 . S
C1526 C1527 1.355 . S
C1526 C1528 1.415 . S
C1527 C1526 1.355 . S
C1527 C1529 1.419 . S
C1528 C1526 1.415 . S
C1528 C1533 1.425 . S
C1528 C1535 1.409 . S
C1529 H1521 0.930 . S
C1529 C1527 1.419 . S
C1529 C1530 1.362 . S
C1530 H1522 0.930 . S
C1530 C1529 1.362 . S
C1530 C1533 1.409 . S
C1531 H1523 0.930 . S
C1531 C1532 1.355 . S
C1531 C1533 1.415 . S
C1532 C1531 1.355 . S
C1532 C1534 1.419 . S
C1533 C1528 1.425 . S
C1533 C1530 1.409 . S
C1533 C1531 1.415 . S
C1534 H1524 0.930 . S
C1534 C1532 1.419 . S
C1534 C1535 1.362 . S
C1535 H1525 0.930 . S
C1535 C1528 1.409 . S
C1535 C1534 1.362 . S
H1536 C1542 0.930 . S
H1537 C1545 0.930 . S
H1538 C1546 0.930 1_556 S
H1539 C1547 0.930 . S
H1540 C1550 0.930 . S
H1541 C1551 0.930 . S
C1542 H1536 0.930 . S
C1542 C1543 1.355 1_554 S
C1542 C1544 1.415 . S
C1543 C1542 1.355 1_556 S
C1543 C1545 1.419 . S
C1544 C1542 1.415 . S
C1544 C1549 1.425 . S
C1544 C1551 1.409 . S
C1545 H1537 0.930 . S
C1545 C1543 1.419 . S
C1545 C1546 1.362 1_556 S
C1546 H1538 0.930 1_554 S
C1546 C1545 1.362 1_554 S
C1546 C1549 1.409 . S
C1547 H1539 0.930 . S
C1547 C1548 1.355 . S
C1547 C1549 1.415 . S
C1548 C1547 1.355 . S
C1548 C1550 1.419 . S
C1549 C1544 1.425 . S
C1549 C1546 1.409 . S
C1549 C1547 1.415 . S
C1550 H1540 0.930 . S
C1550 C1548 1.419 . S
C1550 C1551 1.362 . S
C1551 H1541 0.930 . S
C1551 C1544 1.409 . S
C1551 C1550 1.362 . S
H1552 C1558 0.930 . S
H1553 C1561 0.930 . S
H1554 C1562 0.930 . S
H1555 C1563 0.930 . S
H1556 C1566 0.930 . S
H1557 C1567 0.930 . S
C1558 H1552 0.930 . S
C1558 C1559 1.355 1_554 S
C1558 C1560 1.415 . S
C1559 C1558 1.355 1_556 S
C1559 C1561 1.419 . S
C1560 C1558 1.415 . S
C1560 C1565 1.425 . S
C1560 C1567 1.409 . S
C1561 H1553 0.930 . S
C1561 C1559 1.419 . S
C1561 C1562 1.362 . S
C1562 H1554 0.930 . S
C1562 C1561 1.362 . S
C1562 C1565 1.409 1_556 S
C1563 H1555 0.930 . S
C1563 C1564 1.355 . S
C1563 C1565 1.415 . S
C1564 C1563 1.355 . S
C1564 C1566 1.419 . S
C1565 C1560 1.425 . S
C1565 C1562 1.409 1_554 S
C1565 C1563 1.415 . S
C1566 H1556 0.930 . S
C1566 C1564 1.419 . S
C1566 C1567 1.362 . S
C1567 H1557 0.930 . S
C1567 C1560 1.409 . S
C1567 C1566 1.362 . S
H1568 C1574 0.930 . S
H1569 C1577 0.930 . S
H1570 C1578 0.930 . S
H1571 C1579 0.930 . S
H1572 C1582 0.930 . S
H1573 C1583 0.930 . S
C1574 H1568 0.930 . S
C1574 C1575 1.355 . S
C1574 C1576 1.415 1_556 S
C1575 C1574 1.355 . S
C1575 C1577 1.419 1_556 S
C1576 C1574 1.415 1_554 S
C1576 C1581 1.425 . S
C1576 C1583 1.409 . S
C1577 H1569 0.930 . S
C1577 C1575 1.419 1_554 S
C1577 C1578 1.362 . S
C1578 H1570 0.930 . S
C1578 C1577 1.362 . S
C1578 C1581 1.409 . S
C1579 H1571 0.930 . S
C1579 C1580 1.355 . S
C1579 C1581 1.415 . S
C1580 C1579 1.355 . S
C1580 C1582 1.419 . S
C1581 C1576 1.425 . S
C1581 C1578 1.409 . S
C1581 C1579 1.415 . S
C1582 H1572 0.930 . S
C1582 C1580 1.419 . S
C1582 C1583 1.362 . S
C1583 H1573 0.930 . S
C1583 C1576 1.409 . S
C1583 C1582 1.362 . S
H1584 C1590 0.930 . S
H1585 C1593 0.930 . S
H1586 C1594 0.930 . S
H1587 C1595 0.930 . S
H1588 C1598 0.930 . S
H1589 C1599 0.930 . S
C1590 H1584 0.930 . S
C1590 C1591 1.355 . S
C1590 C1592 1.415 . S
C1591 C1590 1.355 . S
C1591 C1593 1.419 . S
C1592 C1590 1.415 . S
C1592 C1597 1.425 . S
C1592 C1599 1.409 1_554 S
C1593 H1585 0.930 . S
C1593 C1591 1.419 . S
C1593 C1594 1.362 . S
C1594 H1586 0.930 . S
C1594 C1593 1.362 . S
C1594 C1597 1.409 . S
C1595 H1587 0.930 . S
C1595 C1596 1.355 1_554 S
C1595 C1597 1.415 . S
C1596 C1595 1.355 1_556 S
C1596 C1598 1.419 . S
C1597 C1592 1.425 . S
C1597 C1594 1.409 . S
C1597 C1595 1.415 . S
C1598 H1588 0.930 . S
C1598 C1596 1.419 . S
C1598 C1599 1.362 . S
C1599 H1589 0.930 . S
C1599 C1592 1.409 1_556 S
C1599 C1598 1.362 . S
H1600 C1606 0.930 . S
H1601 C1609 0.930 . S
H1602 C1610 0.930 . S
H1603 C1611 0.930 . S
H1604 C1614 0.930 . S
H1605 C1615 0.930 . S
C1606 H1600 0.930 . S
C1606 C1607 1.355 . S
C1606 C1608 1.415 . S
C1607 C1606 1.355 . S
C1607 C1609 1.419 . S
C1608 C1606 1.415 . S
C1608 C1613 1.425 . S
C1608 C1615 1.409 . S
C1609 H1601 0.930 . S
C1609 C1607 1.419 . S
C1609 C1610 1.362 . S
C1610 H1602 0.930 . S
C1610 C1609 1.362 . S
C1610 C1613 1.409 . S
C1611 H1603 0.930 . S
C1611 C1612 1.355 . S
C1611 C1613 1.415 . S
C1612 C1611 1.355 . S
C1612 C1614 1.419 . S
C1613 C1608 1.425 . S
C1613 C1610 1.409 . S
C1613 C1611 1.415 . S
C1614 H1604 0.930 . S
C1614 C1612 1.419 . S
C1614 C1615 1.362 . S
C1615 H1605 0.930 . S
C1615 C1608 1.409 . S
C1615 C1614 1.362 . S
H1616 C1622 0.930 . S
H1617 C1625 0.930 . S
H1618 C1626 0.930 . S
H1619 C1627 0.930 . S
H1620 C1630 0.930 . S
H1621 C1631 0.930 . S
C1622 H1616 0.930 . S
C1622 C1623 1.355 . S
C1622 C1624 1.415 . S
C1623 C1622 1.355 . S
C1623 C1625 1.419 . S
C1624 C1622 1.415 . S
C1624 C1629 1.425 . S
C1624 C1631 1.409 . S
C1625 H1617 0.930 . S
C1625 C1623 1.419 . S
C1625 C1626 1.362 . S
C1626 H1618 0.930 . S
C1626 C1625 1.362 . S
C1626 C1629 1.409 . S
C1627 H1619 0.930 . S
C1627 C1628 1.355 . S
C1627 C1629 1.415 . S
C1628 C1627 1.355 . S
C1628 C1630 1.419 . S
C1629 C1624 1.425 . S
C1629 C1626 1.409 . S
C1629 C1627 1.415 . S
C1630 H1620 0.930 . S
C1630 C1628 1.419 . S
C1630 C1631 1.362 . S
C1631 H1621 0.930 . S
C1631 C1624 1.409 . S
C1631 C1630 1.362 . S
H1632 C1638 0.930 . S
H1633 C1641 0.930 . S
H1634 C1642 0.930 . S
H1635 C1643 0.930 . S
H1636 C1646 0.930 . S
H1637 C1647 0.930 . S
C1638 H1632 0.930 . S
C1638 C1639 1.355 . S
C1638 C1640 1.415 . S
C1639 C1638 1.355 . S
C1639 C1641 1.419 . S
C1640 C1638 1.415 . S
C1640 C1645 1.425 . S
C1640 C1647 1.409 . S
C1641 H1633 0.930 . S
C1641 C1639 1.419 . S
C1641 C1642 1.362 . S
C1642 H1634 0.930 . S
C1642 C1641 1.362 . S
C1642 C1645 1.409 . S
C1643 H1635 0.930 . S
C1643 C1644 1.355 . S
C1643 C1645 1.415 . S
C1644 C1643 1.355 . S
C1644 C1646 1.419 . S
C1645 C1640 1.425 . S
C1645 C1642 1.409 . S
C1645 C1643 1.415 . S
C1646 H1636 0.930 . S
C1646 C1644 1.419 . S
C1646 C1647 1.362 . S
C1647 H1637 0.930 . S
C1647 C1640 1.409 . S
C1647 C1646 1.362 . S
H1648 C1654 0.930 . S
H1649 C1657 0.930 . S
H1650 C1658 0.930 . S
H1651 C1659 0.930 . S
H1652 C1662 0.930 . S
H1653 C1663 0.930 . S
C1654 H1648 0.930 . S
C1654 C1655 1.355 . S
C1654 C1656 1.415 . S
C1655 C1654 1.355 . S
C1655 C1657 1.419 . S
C1656 C1654 1.415 . S
C1656 C1661 1.425 . S
C1656 C1663 1.409 . S
C1657 H1649 0.930 . S
C1657 C1655 1.419 . S
C1657 C1658 1.362 . S
C1658 H1650 0.930 . S
C1658 C1657 1.362 . S
C1658 C1661 1.409 . S
C1659 H1651 0.930 . S
C1659 C1660 1.355 . S
C1659 C1661 1.415 . S
C1660 C1659 1.355 . S
C1660 C1662 1.419 . S
C1661 C1656 1.425 . S
C1661 C1658 1.409 . S
C1661 C1659 1.415 . S
C1662 H1652 0.930 . S
C1662 C1660 1.419 . S
C1662 C1663 1.362 . S
C1663 H1653 0.930 . S
C1663 C1656 1.409 . S
C1663 C1662 1.362 . S
H1664 C1670 0.930 . S
H1665 C1673 0.930 . S
H1666 C1674 0.930 . S
H1667 C1675 0.930 . S
H1668 C1678 0.930 . S
H1669 C1679 0.930 . S
C1670 H1664 0.930 . S
C1670 C1671 1.355 . S
C1670 C1672 1.415 1_556 S
C1671 C1670 1.355 . S
C1671 C1673 1.419 . S
C1672 C1670 1.415 1_554 S
C1672 C1677 1.425 1_564 S
C1672 C1679 1.409 . S
C1673 H1665 0.930 . S
C1673 C1671 1.419 . S
C1673 C1674 1.362 1_565 S
C1674 H1666 0.930 . S
C1674 C1673 1.362 1_545 S
C1674 C1677 1.409 . S
C1675 H1667 0.930 . S
C1675 C1676 1.355 . S
C1675 C1677 1.415 1_554 S
C1676 C1675 1.355 . S
C1676 C1678 1.419 . S
C1677 C1672 1.425 1_546 S
C1677 C1674 1.409 . S
C1677 C1675 1.415 1_556 S
C1678 H1668 0.930 . S
C1678 C1676 1.419 . S
C1678 C1679 1.362 1_545 S
C1679 H1669 0.930 . S
C1679 C1672 1.409 . S
C1679 C1678 1.362 1_565 S
H1680 C1686 0.930 1_556 S
H1681 C1689 0.930 . S
H1682 C1690 0.930 . S
H1683 C1691 0.930 1_554 S
H1684 C1694 0.930 . S
H1685 C1695 0.930 . S
C1686 H1680 0.930 1_554 S
C1686 C1687 1.355 . S
C1686 C1688 1.415 1_554 S
C1687 C1686 1.355 . S
C1687 C1689 1.419 . S
C1688 C1686 1.415 1_556 S
C1688 C1693 1.425 1_556 S
C1688 C1695 1.409 . S
C1689 H1681 0.930 . S
C1689 C1687 1.419 . S
C1689 C1690 1.362 . S
C1690 H1682 0.930 . S
C1690 C1689 1.362 . S
C1690 C1693 1.409 . S
C1691 H1683 0.930 1_556 S
C1691 C1692 1.355 . S
C1691 C1693 1.415 1_556 S
C1692 C1691 1.355 . S
C1692 C1694 1.419 . S
C1693 C1688 1.425 1_554 S
C1693 C1690 1.409 . S
C1693 C1691 1.415 1_554 S
C1694 H1684 0.930 . S
C1694 C1692 1.419 . S
C1694 C1695 1.362 . S
C1695 H1685 0.930 . S
C1695 C1688 1.409 . S
C1695 C1694 1.362 . S
H1696 C1702 0.930 . S
H1697 C1705 0.929 1_554 S
H1698 C1706 0.930 . S
H1699 C1707 0.930 . S
H1700 C1710 0.928 1_556 S
H1701 C1711 0.930 . S
C1702 H1696 0.930 . S
C1702 C1703 1.355 1_455 S
C1702 C1704 1.415 . S
C1703 C1702 1.355 1_655 S
C1703 C1705 1.419 . S
C1704 C1702 1.415 . S
C1704 C1709 1.425 1_456 S
C1704 C1711 1.409 . S
C1705 H1697 0.929 1_556 S
C1705 C1703 1.419 . S
C1705 C1706 1.362 1_556 S
C1706 H1698 0.930 . S
C1706 C1705 1.362 1_554 S
C1706 C1709 1.409 . S
C1707 H1699 0.930 . S
C1707 C1708 1.355 1_655 S
C1707 C1709 1.415 . S
C1708 C1707 1.355 1_455 S
C1708 C1710 1.419 . S
C1709 C1704 1.425 1_654 S
C1709 C1706 1.409 . S
C1709 C1707 1.415 . S
C1710 H1700 0.928 1_554 S
C1710 C1708 1.419 . S
C1710 C1711 1.362 1_554 S
C1711 H1701 0.930 . S
C1711 C1704 1.409 . S
C1711 C1710 1.362 1_556 S
H1712 C1718 0.930 . S
H1713 C1721 0.930 . S
H1714 C1722 0.930 . S
H1715 C1723 0.930 . S
H1716 C1726 0.930 . S
H1717 C1727 0.930 . S
C1718 H1712 0.930 . S
C1718 C1719 1.355 1_565 S
C1718 C1720 1.415 . S
C1719 C1718 1.355 1_545 S
C1719 C1721 1.419 . S
C1720 C1718 1.415 . S
C1720 C1725 1.425 1_464 S
C1720 C1727 1.409 1_455 S
C1721 H1713 0.930 . S
C1721 C1719 1.419 . S
C1721 C1722 1.362 1_554 S
C1722 H1714 0.930 . S
C1722 C1721 1.362 1_556 S
C1722 C1725 1.409 1_455 S
C1723 H1715 0.930 . S
C1723 C1724 1.355 1_545 S
C1723 C1725 1.415 . S
C1724 C1723 1.355 1_565 S
C1724 C1726 1.419 . S
C1725 C1720 1.425 1_646 S
C1725 C1722 1.409 1_655 S
C1725 C1723 1.415 . S
C1726 H1716 0.930 . S
C1726 C1724 1.419 . S
C1726 C1727 1.362 1_556 S
C1727 H1717 0.930 . S
C1727 C1720 1.409 1_655 S
C1727 C1726 1.362 1_554 S
H1728 C1734 0.930 . S
H1729 C1737 0.930 . S
H1730 C1738 0.930 . S
H1731 C1739 0.930 . S
H1732 C1742 0.930 . S
H1733 C1743 0.930 . S
C1734 H1728 0.930 . S
C1734 C1735 1.355 . S
C1734 C1736 1.415 . S
C1735 C1734 1.355 . S
C1735 C1737 1.419 . S
C1736 C1734 1.415 . S
C1736 C1741 1.425 . S
C1736 C1743 1.409 . S
C1737 H1729 0.930 . S
C1737 C1735 1.419 . S
C1737 C1738 1.362 . S
C1738 H1730 0.930 . S
C1738 C1737 1.362 . S
C1738 C1741 1.409 . S
C1739 H1731 0.930 . S
C1739 C1740 1.355 . S
C1739 C1741 1.415 . S
C1740 C1739 1.355 . S
C1740 C1742 1.419 . S
C1741 C1736 1.425 . S
C1741 C1738 1.409 . S
C1741 C1739 1.415 . S
C1742 H1732 0.930 . S
C1742 C1740 1.419 . S
C1742 C1743 1.362 . S
C1743 H1733 0.930 . S
C1743 C1736 1.409 . S
C1743 C1742 1.362 . S
H1744 C1750 0.930 . S
H1745 C1753 0.930 . S
H1746 C1754 0.930 . S
H1747 C1755 0.930 . S
H1748 C1758 0.930 . S
H1749 C1759 0.930 . S
C1750 H1744 0.930 . S
C1750 C1751 1.355 . S
C1750 C1752 1.415 . S
C1751 C1750 1.355 . S
C1751 C1753 1.419 . S
C1752 C1750 1.415 . S
C1752 C1757 1.425 1_455 S
C1752 C1759 1.409 . S
C1753 H1745 0.930 . S
C1753 C1751 1.419 . S
C1753 C1754 1.362 1_455 S
C1754 H1746 0.930 . S
C1754 C1753 1.362 1_655 S
C1754 C1757 1.409 . S
C1755 H1747 0.930 . S
C1755 C1756 1.355 . S
C1755 C1757 1.415 . S
C1756 C1755 1.355 . S
C1756 C1758 1.419 . S
C1757 C1752 1.425 1_655 S
C1757 C1754 1.409 . S
C1757 C1755 1.415 . S
C1758 H1748 0.930 . S
C1758 C1756 1.419 . S
C1758 C1759 1.362 1_655 S
C1759 H1749 0.930 . S
C1759 C1752 1.409 . S
C1759 C1758 1.362 1_455 S
H1760 C1766 0.930 . S
H1761 C1769 0.930 . S
H1762 C1770 0.930 . S
H1763 C1771 0.930 . S
H1764 C1774 0.930 . S
H1765 C1775 0.930 . S
C1766 H1760 0.930 . S
C1766 C1767 1.355 1_455 S
C1766 C1768 1.415 . S
C1767 C1766 1.355 1_655 S
C1767 C1769 1.419 . S
C1768 C1766 1.415 . S
C1768 C1773 1.425 1_465 S
C1768 C1775 1.409 . S
C1769 H1761 0.930 . S
C1769 C1767 1.419 . S
C1769 C1770 1.362 1_565 S
C1770 H1762 0.930 . S
C1770 C1769 1.362 1_545 S
C1770 C1773 1.409 . S
C1771 H1763 0.930 . S
C1771 C1772 1.355 1_655 S
C1771 C1773 1.415 . S
C1772 C1771 1.355 1_455 S
C1772 C1774 1.419 . S
C1773 C1768 1.425 1_645 S
C1773 C1770 1.409 . S
C1773 C1771 1.415 . S
C1774 H1764 0.930 . S
C1774 C1772 1.419 . S
C1774 C1775 1.362 1_545 S
C1775 H1765 0.930 . S
C1775 C1768 1.409 . S
C1775 C1774 1.362 1_565 S
H1776 C1782 0.930 . S
H1777 C1785 0.930 . S
H1778 C1786 0.930 . S
H1779 C1787 0.930 . S
H1780 C1790 0.930 . S
H1781 C1791 0.930 . S
C1782 H1776 0.930 . S
C1782 C1783 1.355 . S
C1782 C1784 1.415 . S
C1783 C1782 1.355 . S
C1783 C1785 1.419 . S
C1784 C1782 1.415 . S
C1784 C1789 1.425 1_565 S
C1784 C1791 1.409 . S
C1785 H1777 0.930 . S
C1785 C1783 1.419 . S
C1785 C1786 1.362 1_565 S
C1786 H1778 0.930 . S
C1786 C1785 1.362 1_545 S
C1786 C1789 1.409 . S
C1787 H1779 0.930 . S
C1787 C1788 1.355 . S
C1787 C1789 1.415 . S
C1788 C1787 1.355 . S
C1788 C1790 1.426 . S
C1789 C1784 1.425 1_545 S
C1789 C1786 1.409 . S
C1789 C1787 1.415 . S
C1790 H1780 0.930 . S
C1790 C1788 1.426 . S
C1790 C1791 1.357 1_545 S
C1791 H1781 0.930 . S
C1791 C1784 1.409 . S
C1791 C1790 1.357 1_565 S
H1792 C1798 0.930 . S
H1793 C1801 0.930 . S
H1794 C1802 0.930 . S
H1795 C1803 0.930 . S
H1796 C1806 0.930 . S
H1797 C1807 0.930 . S
C1798 H1792 0.930 . S
C1798 C1799 1.355 . S
C1798 C1800 1.415 . S
C1799 C1798 1.355 . S
C1799 C1801 1.419 . S
C1800 C1798 1.415 . S
C1800 C1805 1.425 . S
C1800 C1807 1.409 . S
C1801 H1793 0.930 . S
C1801 C1799 1.419 . S
C1801 C1802 1.362 . S
C1802 H1794 0.930 . S
C1802 C1801 1.362 . S
C1802 C1805 1.409 . S
C1803 H1795 0.930 . S
C1803 C1804 1.355 . S
C1803 C1805 1.415 . S
C1804 C1803 1.355 . S
C1804 C1806 1.419 . S
C1805 C1800 1.425 . S
C1805 C1802 1.409 . S
C1805 C1803 1.415 . S
C1806 H1796 0.930 . S
C1806 C1804 1.419 . S
C1806 C1807 1.362 . S
C1807 H1797 0.930 . S
C1807 C1800 1.409 . S
C1807 C1806 1.362 . S
H1808 C1814 0.930 . S
H1809 C1817 0.930 . S
H1810 C1818 0.930 . S
H1811 C1819 0.930 . S
H1812 C1822 0.930 . S
H1813 C1823 0.930 . S
C1814 H1808 0.930 . S
C1814 C1815 1.355 . S
C1814 C1816 1.415 . S
C1815 C1814 1.355 . S
C1815 C1817 1.419 . S
C1816 C1814 1.415 . S
C1816 C1821 1.425 . S
C1816 C1823 1.409 . S
C1817 H1809 0.930 . S
C1817 C1815 1.419 . S
C1817 C1818 1.362 . S
C1818 H1810 0.930 . S
C1818 C1817 1.362 . S
C1818 C1821 1.409 . S
C1819 H1811 0.930 . S
C1819 C1820 1.355 . S
C1819 C1821 1.415 . S
C1820 C1819 1.355 . S
C1820 C1822 1.419 . S
C1821 C1816 1.425 . S
C1821 C1818 1.409 . S
C1821 C1819 1.415 . S
C1822 H1812 0.930 . S
C1822 C1820 1.419 . S
C1822 C1823 1.362 . S
C1823 H1813 0.930 . S
C1823 C1816 1.409 . S
C1823 C1822 1.362 . S
H1824 C1830 0.930 . S
H1825 C1833 0.930 . S
H1826 C1834 0.930 . S
H1827 C1835 0.930 . S
H1828 C1838 0.930 . S
H1829 C1839 0.930 . S
C1830 H1824 0.930 . S
C1830 C1831 1.355 . S
C1830 C1832 1.415 . S
C1831 C1830 1.355 . S
C1831 C1833 1.419 . S
C1832 C1830 1.415 . S
C1832 C1837 1.425 . S
C1832 C1839 1.409 . S
C1833 H1825 0.930 . S
C1833 C1831 1.419 . S
C1833 C1834 1.362 . S
C1834 H1826 0.930 . S
C1834 C1833 1.362 . S
C1834 C1837 1.409 . S
C1835 H1827 0.930 . S
C1835 C1836 1.355 . S
C1835 C1837 1.415 . S
C1836 C1835 1.355 . S
C1836 C1838 1.419 . S
C1837 C1832 1.425 . S
C1837 C1834 1.409 . S
C1837 C1835 1.415 . S
C1838 H1828 0.930 . S
C1838 C1836 1.419 . S
C1838 C1839 1.362 . S
C1839 H1829 0.930 . S
C1839 C1832 1.409 . S
C1839 C1838 1.362 . S
H1840 C1846 0.930 . S
H1841 C1849 0.930 . S
H1842 C1850 0.930 . S
H1843 C1851 0.930 . S
H1844 C1854 0.930 . S
H1845 C1855 0.930 . S
C1846 H1840 0.930 . S
C1846 C1847 1.355 . S
C1846 C1848 1.415 . S
C1847 C1846 1.355 . S
C1847 C1849 1.419 . S
C1848 C1846 1.415 . S
C1848 C1853 1.425 . S
C1848 C1855 1.409 . S
C1849 H1841 0.930 . S
C1849 C1847 1.419 . S
C1849 C1850 1.362 . S
C1850 H1842 0.930 . S
C1850 C1849 1.362 . S
C1850 C1853 1.409 . S
C1851 H1843 0.930 . S
C1851 C1852 1.355 . S
C1851 C1853 1.415 . S
C1852 C1851 1.355 . S
C1852 C1854 1.419 . S
C1853 C1848 1.425 . S
C1853 C1850 1.409 . S
C1853 C1851 1.415 . S
C1854 H1844 0.930 . S
C1854 C1852 1.419 . S
C1854 C1855 1.362 . S
C1855 H1845 0.930 . S
C1855 C1848 1.409 . S
C1855 C1854 1.362 . S
H1856 C1862 0.930 . S
H1857 C1865 0.930 . S
H1858 C1866 0.930 . S
H1859 C1867 0.930 . S
H1860 C1870 0.930 . S
H1861 C1871 0.930 . S
C1862 H1856 0.930 . S
C1862 C1863 1.355 . S
C1862 C1864 1.415 . S
C1863 C1862 1.355 . S
C1863 C1865 1.419 . S
C1864 C1862 1.415 . S
C1864 C1869 1.425 . S
C1864 C1871 1.409 . S
C1865 H1857 0.930 . S
C1865 C1863 1.419 . S
C1865 C1866 1.362 . S
C1866 H1858 0.930 . S
C1866 C1865 1.362 . S
C1866 C1869 1.409 . S
C1867 H1859 0.930 . S
C1867 C1868 1.355 . S
C1867 C1869 1.415 . S
C1868 C1867 1.355 . S
C1868 C1870 1.419 . S
C1869 C1864 1.425 . S
C1869 C1866 1.409 . S
C1869 C1867 1.415 . S
C1870 H1860 0.930 . S
C1870 C1868 1.419 . S
C1870 C1871 1.362 . S
C1871 H1861 0.930 . S
C1871 C1864 1.409 . S
C1871 C1870 1.362 . S
H1872 C1878 0.930 . S
H1873 C1881 0.930 . S
H1874 C1882 0.930 . S
H1875 C1883 0.930 . S
H1876 C1886 0.930 . S
H1877 C1887 0.930 . S
C1878 H1872 0.930 . S
C1878 C1879 1.355 . S
C1878 C1880 1.415 . S
C1879 C1878 1.355 . S
C1879 C1881 1.419 . S
C1880 C1878 1.415 . S
C1880 C1885 1.425 . S
C1880 C1887 1.409 . S
C1881 H1873 0.930 . S
C1881 C1879 1.419 . S
C1881 C1882 1.362 . S
C1882 H1874 0.930 . S
C1882 C1881 1.362 . S
C1882 C1885 1.409 . S
C1883 H1875 0.930 . S
C1883 C1884 1.355 . S
C1883 C1885 1.415 . S
C1884 C1883 1.355 . S
C1884 C1886 1.419 . S
C1885 C1880 1.425 . S
C1885 C1882 1.409 . S
C1885 C1883 1.415 . S
C1886 H1876 0.930 . S
C1886 C1884 1.419 . S
C1886 C1887 1.362 . S
C1887 H1877 0.930 . S
C1887 C1880 1.409 . S
C1887 C1886 1.362 . S
H1888 C1894 0.930 . S
H1889 C1897 0.930 . S
H1890 C1898 0.930 . S
H1891 C1899 0.930 . S
H1892 C1902 0.930 . S
H1893 C1903 0.930 . S
C1894 H1888 0.930 . S
C1894 C1895 1.355 . S
C1894 C1896 1.415 . S
C1895 C1894 1.355 . S
C1895 C1897 1.419 . S
C1896 C1894 1.415 . S
C1896 C1901 1.425 . S
C1896 C1903 1.409 . S
C1897 H1889 0.930 . S
C1897 C1895 1.419 . S
C1897 C1898 1.362 . S
C1898 H1890 0.930 . S
C1898 C1897 1.362 . S
C1898 C1901 1.409 . S
C1899 H1891 0.930 . S
C1899 C1900 1.355 . S
C1899 C1901 1.415 . S
C1900 C1899 1.355 . S
C1900 C1902 1.419 . S
C1901 C1896 1.425 . S
C1901 C1898 1.409 . S
C1901 C1899 1.415 . S
C1902 H1892 0.930 . S
C1902 C1900 1.419 . S
C1902 C1903 1.362 . S
C1903 H1893 0.930 . S
C1903 C1896 1.409 . S
C1903 C1902 1.362 . S
H1904 C1910 0.930 . S
H1905 C1913 0.930 . S
H1906 C1914 0.930 . S
H1907 C1915 0.930 . S
H1908 C1918 0.930 . S
H1909 C1919 0.930 . S
C1910 H1904 0.930 . S
C1910 C1911 1.355 . S
C1910 C1912 1.415 . S
C1911 C1910 1.355 . S
C1911 C1913 1.419 . S
C1912 C1910 1.415 . S
C1912 C1917 1.425 . S
C1912 C1919 1.409 . S
C1913 H1905 0.930 . S
C1913 C1911 1.419 . S
C1913 C1914 1.362 . S
C1914 H1906 0.930 . S
C1914 C1913 1.362 . S
C1914 C1917 1.409 . S
C1915 H1907 0.930 . S
C1915 C1916 1.355 . S
C1915 C1917 1.415 . S
C1916 C1915 1.355 . S
C1916 C1918 1.419 . S
C1917 C1912 1.425 . S
C1917 C1914 1.409 . S
C1917 C1915 1.415 . S
C1918 H1908 0.930 . S
C1918 C1916 1.419 . S
C1918 C1919 1.362 . S
C1919 H1909 0.930 . S
C1919 C1912 1.409 . S
C1919 C1918 1.362 . S
C1415 C57 0.377 . S
C1420 C812 0.392 . S
C1431 C929 0.490 . S
C1436 C145 0.595 . S
C1447 C988 0.519 . S
C1452 C225 0.594 . S
C1463 C733 0.534 . S
C1468 C313 0.588 . S
C1479 C381 0.410 . S
C1484 C1377 0.509 . S
C1495 C1105 0.532 . S
C1500 C469 0.589 . S
C1511 C1164 0.375 . S
C1516 C548 0.519 . S
C1527 C1252 0.417 . S
C1532 C636 0.367 . S
C1543 C753 0.410 . S
C1548 C137 0.517 . S
C1559 C849 0.535 . S
C1564 C233 0.552 . S
C1575 C909 0.366 . S
C1580 C321 0.392 . S
C1591 C49 0.553 . S
C1596 C1025 0.503 . S
C1607 C1085 0.579 . S
C1612 C645 0.456 . S
C1623 C1201 0.495 . S
C1628 C372 0.552 . S
C1639 C460 0.363 . S
C1644 C1289 0.393 . S
C1655 C1340 0.537 . S
C1660 C557 0.551 . S
C1671 C724 1.914 . S
C1676 C29 1.924 . S
C1687 C117 1.911 . S
C1692 C821 1.901 . S
C1703 C937 1.890 1_655 S
C1708 C196 1.901 1_455 S
C1719 C284 1.911 1_545 S
C1724 C997 1.900 1_565 S
C1735 C1113 1.904 . S
C1740 C409 1.915 . S
C1751 C497 1.925 . S
C1756 C1173 1.915 . S
C1767 C1261 1.895 1_655 S
C1772 C577 1.905 1_455 S
C1783 C1369 1.870 1_565 S
C1788 C665 1.882 1_545 S
C1799 C401 2.529 . S
C1804 C20 2.521 . S
C1815 C489 2.493 . S
C1820 C108 2.487 . S
C1831 C205 2.540 . S
C1836 C585 2.533 . S
C1847 C673 2.544 . S
C1852 C293 2.547 . S
C1863 C761 2.500 . S
C1868 C1076 2.492 . S
C1879 C1193 2.478 . S
C1884 C841 2.482 . S
C1895 C1281 2.478 . S
C1900 C900 2.477 . S
C1911 C1349 2.538 . S
C1916 C1017 2.531 . S
