# Generated by pormake.
# Topology zfa, (5)-cn, num edge types: 1
# Building blocks:
#     Node 0, Type 0, BuildingBlock: XOMCOT_clean_sbu_1, # of connection points: 5
#     Node 1, Type 0, BuildingBlock: XOMCOT_clean_sbu_1, # of connection points: 5
#     Node 2, Type 0, BuildingBlock: XOMCOT_clean_sbu_1, # of connection points: 5
#     Node 3, Type 0, BuildingBlock: XOMCOT_clean_sbu_1, # of connection points: 5
#     Node 4, Type 0, BuildingBlock: XOMCOT_clean_sbu_1, # of connection points: 5
#     Node 5, Type 0, BuildingBlock: XOMCOT_clean_sbu_1, # of connection points: 5
#     Node 6, Type 0, BuildingBlock: XOMCOT_clean_sbu_1, # of connection points: 5
#     Node 7, Type 0, BuildingBlock: XOMCOT_clean_sbu_1, # of connection points: 5
#     Edge 8, Type (0, 0), BuildingBlock: AJUNOK_clean_linker_0, # of connection points: 2
#     Edge 9, Type (0, 0), BuildingBlock: AJUNOK_clean_linker_0, # of connection points: 2
#     Edge 10, Type (0, 0), BuildingBlock: AJUNOK_clean_linker_0, # of connection points: 2
#     Edge 11, Type (0, 0), BuildingBlock: AJUNOK_clean_linker_0, # of connection points: 2
#     Edge 12, Type (0, 0), BuildingBlock: AJUNOK_clean_linker_0, # of connection points: 2
#     Edge 13, Type (0, 0), BuildingBlock: AJUNOK_clean_linker_0, # of connection points: 2
#     Edge 14, Type (0, 0), BuildingBlock: AJUNOK_clean_linker_0, # of connection points: 2
#     Edge 15, Type (0, 0), BuildingBlock: AJUNOK_clean_linker_0, # of connection points: 2
#     Edge 16, Type (0, 0), BuildingBlock: AJUNOK_clean_linker_0, # of connection points: 2
#     Edge 17, Type (0, 0), BuildingBlock: AJUNOK_clean_linker_0, # of connection points: 2
#     Edge 18, Type (0, 0), BuildingBlock: AJUNOK_clean_linker_0, # of connection points: 2
#     Edge 19, Type (0, 0), BuildingBlock: AJUNOK_clean_linker_0, # of connection points: 2
#     Edge 20, Type (0, 0), BuildingBlock: AJUNOK_clean_linker_0, # of connection points: 2
#     Edge 21, Type (0, 0), BuildingBlock: AJUNOK_clean_linker_0, # of connection points: 2
#     Edge 22, Type (0, 0), BuildingBlock: AJUNOK_clean_linker_0, # of connection points: 2
#     Edge 23, Type (0, 0), BuildingBlock: AJUNOK_clean_linker_0, # of connection points: 2
#     Edge 24, Type (0, 0), BuildingBlock: AJUNOK_clean_linker_0, # of connection points: 2
#     Edge 25, Type (0, 0), BuildingBlock: AJUNOK_clean_linker_0, # of connection points: 2
#     Edge 26, Type (0, 0), BuildingBlock: AJUNOK_clean_linker_0, # of connection points: 2
#     Edge 27, Type (0, 0), BuildingBlock: AJUNOK_clean_linker_0, # of connection points: 2
# Relax obj value: 0.217
# Max RMSD: 0.179
# Mean RMSD: 0.179
data_MOF--net-zfa--node1-XOMCOT_clean_sbu_1--edge1-AJUNOK_clean_linker_0
_symmetry_space_group_name_H-M    P1
_symmetry_Int_Tables_number       1
_symmetry_cell_setting            triclinic
loop_
_symmetry_equiv_pos_as_xyz
'x, y, z'
_cell_length_a     24.357042
_cell_length_b     24.328728
_cell_length_c     29.513595
_cell_angle_alpha  89.899833
_cell_angle_beta   90.294211
_cell_angle_gamma 90.166083
loop_
_atom_site_label
_atom_site_type_symbol
_atom_site_fract_x
_atom_site_fract_y
_atom_site_fract_z
_atom_type_partial_charge
C0 C 0.14299 0.16901 0.3234 0.0
C1 C 0.12562 0.116 0.31446 0.0
N2 N 0.09042 0.10087 0.34727 0.0
N3 N 0.11887 0.18663 0.36177 0.0
C4 C 0.08767 0.14397 0.37561 0.0
H5 H 0.16852 0.19419 0.30178 0.0
Co6 Co 0.11473 0.257 0.38663 0.0
C7 C 0.10734 0.22293 0.48507 0.0
O8 O 0.06103 0.24929 0.49135 0.0
N9 N 0.10914 0.3276 0.41197 0.0
C10 C 0.1201 0.40292 0.4538 0.0
C11 C 0.14063 0.35139 0.44422 0.0
C12 C 0.07015 0.36547 0.40238 0.0
N13 N 0.07533 0.41134 0.42774 0.0
O14 O 0.03645 0.24806 0.39124 0.0
H15 H 0.17583 0.33222 0.46013 0.0
H16 H 0.03859 0.35988 0.37695 0.0
O17 O 0.12992 0.22443 0.44617 0.0
C18 C 0.01933 0.25579 0.3507 0.0
O19 O 0.05547 0.27019 0.31987 0.0
N20 N 0.18963 0.26746 0.37629 0.0
C21 C 0.29554 0.27624 0.34168 0.0
C22 C 0.28383 0.23946 0.37707 0.0
C23 C 0.23041 0.2353 0.3937 0.0
C24 C 0.20051 0.30453 0.34279 0.0
C25 C 0.25333 0.30972 0.325 0.0
H26 H 0.22152 0.20423 0.41867 0.0
H27 H 0.1674 0.32865 0.32854 0.0
H28 H 0.06038 0.14578 0.40441 0.0
H29 H 0.13478 0.09215 0.28452 0.0
H30 H 0.1361 0.43147 0.47871 0.0
H31 H 0.31529 0.21251 0.39054 0.0
H32 H 0.26088 0.33907 0.29809 0.0
C33 C 0.34132 0.61763 0.81134 0.0
C34 C 0.39273 0.59787 0.80154 0.0
N35 N 0.41429 0.57672 0.83981 0.0
N36 N 0.33065 0.60856 0.85554 0.0
C37 C 0.37601 0.58372 0.87208 0.0
H38 H 0.31197 0.63387 0.78721 0.0
Co39 Co 0.26141 0.6123 0.88136 0.0
C40 C 0.29908 0.6675 0.96939 0.0
O41 O 0.27757 0.71491 0.95805 0.0
N42 N 0.18985 0.61334 0.90656 0.0
C43 C 0.11305 0.63092 0.94466 0.0
C44 C 0.16561 0.64868 0.93549 0.0
C45 C 0.15043 0.57526 0.89813 0.0
N46 N 0.10354 0.58466 0.92096 0.0
O47 O 0.26514 0.53418 0.89084 0.0
H48 H 0.18404 0.68547 0.94889 0.0
H49 H 0.1562 0.54032 0.87643 0.0
O50 O 0.2946 0.6257 0.94301 0.0
C51 C 0.25521 0.5101 0.85328 0.0
O52 O 0.24053 0.53975 0.81804 0.0
N53 N 0.25751 0.68788 0.86598 0.0
C54 C 0.25371 0.79257 0.82739 0.0
C55 C 0.3005 0.77501 0.85089 0.0
C56 C 0.30212 0.72204 0.86898 0.0
C57 C 0.21235 0.70397 0.84171 0.0
C58 C 0.20935 0.7565 0.82249 0.0
H59 H 0.33946 0.70831 0.88538 0.0
H60 H 0.17888 0.67549 0.83602 0.0
H61 H 0.37889 0.5665 0.90586 0.0
H62 H 0.41163 0.59632 0.76844 0.0
H63 H 0.08402 0.6506 0.96701 0.0
H64 H 0.33573 0.80191 0.8548 0.0
H65 H 0.1728 0.76882 0.80408 0.0
C66 C 0.88432 0.85386 0.32848 0.0
C67 C 0.90392 0.90588 0.31915 0.0
N68 N 0.94276 0.918 0.35009 0.0
N69 N 0.91043 0.83387 0.36548 0.0
C70 C 0.94552 0.87426 0.37794 0.0
H71 H 0.85523 0.8311 0.308 0.0
Co72 Co 0.90994 0.76241 0.3893 0.0
C73 C 0.91537 0.78814 0.48893 0.0
O74 O 0.95765 0.75541 0.49467 0.0
N75 N 0.91065 0.69036 0.41306 0.0
C76 C 0.89133 0.61294 0.45025 0.0
C77 C 0.87475 0.66624 0.44164 0.0
C78 C 0.94842 0.65091 0.4048 0.0
N79 N 0.93781 0.60356 0.427 0.0
O80 O 0.98853 0.76689 0.39657 0.0
H81 H 0.83911 0.68629 0.45567 0.0
H82 H 0.9832 0.65623 0.38268 0.0
O83 O 0.89447 0.79347 0.44939 0.0
C84 C 1.00615 0.75743 0.35658 0.0
O85 O 0.96964 0.7458 0.32499 0.0
N86 N 0.83488 0.75625 0.37614 0.0
C87 C 0.73225 0.75849 0.33366 0.0
C88 C 0.74253 0.78993 0.37275 0.0
C89 C 0.79439 0.78861 0.39335 0.0
C90 C 0.82464 0.72291 0.33997 0.0
C91 C 0.77355 0.72326 0.31826 0.0
H92 H 0.80263 0.81594 0.42126 0.0
H93 H 0.85751 0.69839 0.32617 0.0
H94 H 0.97486 0.87055 0.40545 0.0
H95 H 0.89317 0.93128 0.29031 0.0
H96 H 0.87154 0.58392 0.47275 0.0
H97 H 0.71127 0.81657 0.38656 0.0
H98 H 0.76736 0.6982 0.28836 0.0
C99 C 0.68457 0.40581 0.8199 0.0
C100 C 0.63374 0.42606 0.80832 0.0
N101 N 0.61041 0.44738 0.84572 0.0
N102 N 0.69306 0.41377 0.86453 0.0
C103 C 0.64709 0.43852 0.87946 0.0
H104 H 0.7149 0.38972 0.79684 0.0
Co105 Co 0.76019 0.40904 0.89452 0.0
C106 C 0.72208 0.34879 0.97807 0.0
O107 O 0.75609 0.30852 0.96902 0.0
N108 N 0.82977 0.40846 0.92383 0.0
C109 C 0.89799 0.41745 0.97393 0.0
C110 C 0.84559 0.398 0.96697 0.0
C111 C 0.87374 0.4346 0.90568 0.0
N112 N 0.91558 0.44131 0.93547 0.0
O113 O 0.75631 0.48688 0.90492 0.0
H114 H 0.82002 0.38238 0.99364 0.0
H115 H 0.87314 0.45266 0.87229 0.0
O116 O 0.72087 0.39185 0.95274 0.0
C117 C 0.77123 0.51087 0.86844 0.0
O118 O 0.78626 0.48083 0.83375 0.0
N119 N 0.765 0.3335 0.87853 0.0
C120 C 0.76746 0.22858 0.8395 0.0
C121 C 0.71993 0.24815 0.86057 0.0
C122 C 0.71935 0.30061 0.8794 0.0
C123 C 0.81148 0.31549 0.85756 0.0
C124 C 0.81382 0.26289 0.8383 0.0
H125 H 0.68153 0.3153 0.89399 0.0
H126 H 0.84658 0.3424 0.85436 0.0
H127 H 0.6421 0.4519 0.91407 0.0
H128 H 0.61694 0.42824 0.77434 0.0
H129 H 0.91994 0.41726 1.00591 0.0
H130 H 0.6829 0.22341 0.86175 0.0
H131 H 0.85152 0.24932 0.82264 0.0
C132 C 0.63891 0.34623 0.3044 0.0
C133 C 0.62324 0.39911 0.31453 0.0
N134 N 0.59552 0.41935 0.27869 0.0
N135 N 0.62033 0.33332 0.26261 0.0
C136 C 0.59446 0.37889 0.24767 0.0
H137 H 0.65829 0.31754 0.32744 0.0
Co138 Co 0.6144 0.26328 0.23821 0.0
C139 C 0.60114 0.28866 0.1402 0.0
O140 O 0.55528 0.26012 0.13935 0.0
N141 N 0.60763 0.19232 0.21395 0.0
C142 C 0.6184 0.11673 0.17274 0.0
C143 C 0.63877 0.16848 0.18185 0.0
C144 C 0.5692 0.1541 0.2242 0.0
N145 N 0.57472 0.1077 0.1996 0.0
O146 O 0.53619 0.273 0.23454 0.0
H147 H 0.67356 0.18783 0.16561 0.0
H148 H 0.53661 0.1607 0.24823 0.0
O149 O 0.62733 0.29378 0.17753 0.0
C150 C 0.51916 0.2654 0.27497 0.0
O151 O 0.55511 0.25007 0.30586 0.0
N152 N 0.68931 0.2528 0.24756 0.0
C153 C 0.79547 0.24572 0.28244 0.0
C154 C 0.78345 0.28134 0.24622 0.0
C155 C 0.7298 0.2847 0.22943 0.0
C156 C 0.70059 0.21666 0.28167 0.0
C157 C 0.75353 0.21234 0.29961 0.0
H158 H 0.72044 0.31496 0.20372 0.0
H159 H 0.66762 0.19287 0.29645 0.0
H160 H 0.57045 0.38041 0.21671 0.0
H161 H 0.62839 0.41974 0.34676 0.0
H162 H 0.63435 0.08801 0.14815 0.0
H163 H 0.8148 0.30803 0.23227 0.0
H164 H 0.76137 0.18382 0.3271 0.0
C165 C 0.17554 0.14027 0.79513 0.0
C166 C 0.12304 0.12269 0.80526 0.0
N167 N 0.10693 0.08737 0.77278 0.0
N168 N 0.1919 0.11606 0.75636 0.0
C169 C 0.14898 0.08435 0.74358 0.0
H170 H 0.20122 0.16627 0.81611 0.0
Co171 Co 0.26146 0.11374 0.72981 0.0
C172 C 0.22531 0.10814 0.63152 0.0
O173 O 0.25603 0.06529 0.62246 0.0
N174 N 0.33141 0.11009 0.70316 0.0
C175 C 0.40453 0.1203 0.65898 0.0
C176 C 0.35217 0.13882 0.66805 0.0
C177 C 0.37214 0.07519 0.71524 0.0
N178 N 0.4171 0.08017 0.68886 0.0
O179 O 0.25394 0.03521 0.72456 0.0
H180 H 0.33022 0.17035 0.64955 0.0
H181 H 0.36898 0.04627 0.74292 0.0
O182 O 0.22609 0.12858 0.67129 0.0
C183 C 0.26379 0.01835 0.76484 0.0
O184 O 0.28042 0.05475 0.79485 0.0
N185 N 0.27058 0.18887 0.74063 0.0
C186 C 0.27269 0.29207 0.78129 0.0
C187 C 0.23642 0.28092 0.74532 0.0
C188 C 0.23583 0.22883 0.72545 0.0
C189 C 0.30836 0.20002 0.77364 0.0
C190 C 0.31042 0.25163 0.79427 0.0
H191 H 0.20491 0.21981 0.7003 0.0
H192 H 0.33463 0.1675 0.7861 0.0
H193 H 0.14989 0.05657 0.71497 0.0
H194 H 0.10014 0.13197 0.83562 0.0
H195 H 0.43027 0.13401 0.6314 0.0
H196 H 0.20728 0.31155 0.73384 0.0
H197 H 0.33907 0.25877 0.82185 0.0
C198 C 0.41497 0.68221 0.30888 0.0
C199 C 0.43826 0.63231 0.31911 0.0
N200 N 0.45845 0.61036 0.28069 0.0
N201 N 0.41991 0.6916 0.26412 0.0
C202 C 0.44585 0.64698 0.24773 0.0
H203 H 0.39909 0.71161 0.3329 0.0
Co204 Co 0.41147 0.75952 0.23602 0.0
C205 C 0.35063 0.71742 0.15279 0.0
O206 O 0.30552 0.74188 0.16598 0.0
N207 N 0.40683 0.82993 0.20842 0.0
C208 C 0.40181 0.90086 0.16061 0.0
C209 C 0.38501 0.84769 0.1688 0.0
C210 C 0.43597 0.87375 0.22366 0.0
N211 N 0.43416 0.91716 0.19515 0.0
O212 O 0.48905 0.75892 0.22443 0.0
H213 H 0.36113 0.82353 0.14545 0.0
H214 H 0.46109 0.87278 0.25382 0.0
O215 O 0.39511 0.72249 0.17621 0.0
C216 C 0.5134 0.77328 0.26101 0.0
O217 O 0.48369 0.78723 0.29617 0.0
N218 N 0.33642 0.76101 0.25369 0.0
C219 C 0.23276 0.761 0.29432 0.0
C220 C 0.25355 0.71331 0.27426 0.0
C221 C 0.30555 0.71391 0.25478 0.0
C222 C 0.31739 0.80744 0.27431 0.0
C223 C 0.26537 0.80854 0.29433 0.0
H224 H 0.321 0.67624 0.2403 0.0
H225 H 0.34298 0.84367 0.27649 0.0
H226 H 0.45747 0.64317 0.21262 0.0
H227 H 0.44335 0.61544 0.35282 0.0
H228 H 0.3928 0.92483 0.13056 0.0
H229 H 0.2299 0.67553 0.27395 0.0
H230 H 0.25073 0.84627 0.30942 0.0
C231 C 0.85744 0.88598 0.80121 0.0
C232 C 0.9097 0.90537 0.8098 0.0
N233 N 0.92324 0.94065 0.77647 0.0
N234 N 0.83858 0.90856 0.76233 0.0
C235 C 0.87973 0.94158 0.74813 0.0
H236 H 0.83364 0.85968 0.82326 0.0
Co237 Co 0.76738 0.90749 0.73822 0.0
C238 C 0.78841 0.86242 0.64396 0.0
O239 O 0.74631 0.8291 0.64713 0.0
N240 N 0.69352 0.90855 0.71422 0.0
C241 C 0.60849 0.88548 0.69236 0.0
C242 C 0.66005 0.86618 0.70286 0.0
C243 C 0.6602 0.95318 0.7106 0.0
N244 N 0.60844 0.94042 0.69731 0.0
O245 O 0.77187 0.98628 0.73247 0.0
H246 H 0.67115 0.82324 0.70383 0.0
H247 H 0.6724 0.99422 0.72002 0.0
O248 O 0.80013 0.89507 0.67679 0.0
C249 C 0.76082 1.003 0.77248 0.0
O250 O 0.7466 0.96585 0.80269 0.0
N251 N 0.76255 0.83196 0.7514 0.0
C252 C 0.76409 0.73 0.79537 0.0
C253 C 0.79993 0.74118 0.75927 0.0
C254 C 0.79918 0.79283 0.73822 0.0
C255 C 0.72694 0.82142 0.78591 0.0
C256 C 0.7265 0.7706 0.80792 0.0
H257 H 0.83043 0.8025 0.71372 0.0
H258 H 0.70032 0.85376 0.79787 0.0
H259 H 0.87668 0.96826 0.71883 0.0
H260 H 0.93425 0.89715 0.83972 0.0
H261 H 0.57332 0.86063 0.68296 0.0
H262 H 0.82939 0.71086 0.74818 0.0
H263 H 0.69859 0.76406 0.83588 0.0
C264 C 0.02901 0.55911 0.43019 0.0
C265 C 0.97143 0.55468 0.42737 0.0
C266 C 0.06259 0.51219 0.43077 0.0
C267 C 0.04 0.45903 0.42757 0.0
H268 H 0.04818 0.59922 0.43256 0.0
H269 H 0.10666 0.51753 0.43307 0.0
S270 S 0.89164 0.42501 0.41895 0.0
N271 N 0.89334 0.49286 0.42109 0.0
N272 N 0.95624 0.4048 0.42187 0.0
C273 C 0.98247 0.45405 0.42448 0.0
C274 C 0.94826 0.5018 0.42455 0.0
C275 C 0.98293 0.50678 0.96824 0.0
C276 C 0.96316 0.47672 0.93072 0.0
C277 C 0.02804 0.54242 0.96454 0.0
C278 C 0.0556 0.54957 0.92321 0.0
H279 H 0.96297 0.50346 1.00079 0.0
H280 H 0.04201 0.56392 0.99455 0.0
S281 S 0.01928 0.48277 0.81409 0.0
N282 N 0.97465 0.45733 0.85052 0.0
N283 N 0.05834 0.52562 0.84333 0.0
C284 C 0.03597 0.5205 0.88519 0.0
C285 C 0.99002 0.48395 0.88897 0.0
C286 C 0.49115 0.98771 0.15719 0.0
C287 C 0.46782 0.96617 0.19704 0.0
C288 C 0.52622 0.03356 0.15839 0.0
C289 C 0.53904 0.06014 0.19941 0.0
H290 H 0.48315 0.96829 0.12485 0.0
H291 H 0.54303 0.04868 0.12684 0.0
S292 S 0.48874 0.02028 0.31333 0.0
N293 N 0.45966 0.97547 0.2787 0.0
N294 N 0.52623 0.06105 0.28103 0.0
C295 C 0.51589 0.03923 0.23952 0.0
C296 C 0.48027 0.99237 0.23832 0.0
C297 C 0.50855 0.9567 0.70577 0.0
C298 C 0.56115 0.97647 0.6944 0.0
C299 C 0.46212 0.99073 0.70395 0.0
C300 C 0.46594 0.0462 0.69055 0.0
H301 H 0.50314 0.91461 0.71684 0.0
H302 H 0.42271 0.97311 0.7127 0.0
S303 S 0.59394 0.11869 0.65718 0.0
N304 N 0.61399 0.05533 0.66843 0.0
N305 N 0.52713 0.11962 0.66636 0.0
C306 C 0.51825 0.06667 0.67906 0.0
C307 C 0.56566 0.03186 0.6808 0.0
C308 C 0.45054 0.28056 0.3355 0.0
C309 C 0.46147 0.27352 0.28903 0.0
C310 C 0.39688 0.28301 0.35181 0.0
C311 C 0.35168 0.27872 0.32239 0.0
H312 H 0.48382 0.28337 0.3599 0.0
H313 H 0.39072 0.28758 0.38794 0.0
S314 S 0.3574 0.26154 0.19753 0.0
N315 N 0.42248 0.26402 0.2135 0.0
N316 N 0.32097 0.26836 0.24426 0.0
C317 C 0.36171 0.27353 0.27559 0.0
C318 C 0.41674 0.27104 0.25887 0.0
C319 C 0.25768 0.91666 0.74876 0.0
C320 C 0.25574 0.96063 0.77964 0.0
C321 C 0.25525 0.8618 0.76404 0.0
C322 C 0.2507 0.84962 0.81051 0.0
H323 H 0.26291 0.92459 0.71292 0.0
H324 H 0.25859 0.82879 0.73964 0.0
S325 S 0.23613 0.94907 0.90425 0.0
N326 N 0.24297 0.98752 0.85849 0.0
N327 N 0.23936 0.8849 0.88649 0.0
C328 C 0.24617 0.89295 0.84126 0.0
C329 C 0.24841 0.94838 0.82599 0.0
C330 C 0.59813 0.71926 0.27473 0.0
C331 C 0.57314 0.77046 0.26737 0.0
C332 C 0.65051 0.71568 0.29471 0.0
C333 C 0.67927 0.76325 0.30847 0.0
H334 H 0.57555 0.68175 0.26797 0.0
H335 H 0.66726 0.67532 0.30163 0.0
S336 S 0.63329 0.9073 0.2915 0.0
N337 N 0.58192 0.86954 0.27205 0.0
N338 N 0.68076 0.86336 0.30849 0.0
C339 C 0.6557 0.81478 0.29874 0.0
C340 C 0.60249 0.81822 0.27854 0.0
C341 C 0.74648 0.12874 0.84683 0.0
C342 C 0.76813 0.1718 0.82067 0.0
C343 C 0.74409 0.07506 0.83034 0.0
C344 C 0.7633 0.06153 0.7868 0.0
H345 H 0.73138 0.13648 0.88069 0.0
H346 H 0.72685 0.04389 0.85236 0.0
S347 S 0.82407 0.15918 0.70435 0.0
N348 N 0.80909 0.19769 0.74865 0.0
N349 N 0.80526 0.09591 0.71773 0.0
C350 C 0.78539 0.10403 0.7601 0.0
C351 C 0.78784 0.15924 0.77705 0.0
C352 C 0.95039 0.24043 0.28986 0.0
C353 C 0.96148 0.2484 0.33631 0.0
C354 C 0.89669 0.23842 0.27313 0.0
C355 C 0.85164 0.24406 0.30211 0.0
H356 H 0.98359 0.23642 0.26581 0.0
H357 H 0.8904 0.2329 0.23705 0.0
S358 S 0.8578 0.26473 0.42665 0.0
N359 N 0.92281 0.26075 0.41129 0.0
N360 N 0.8212 0.25716 0.37976 0.0
C361 C 0.8618 0.25048 0.34889 0.0
C362 C 0.91687 0.25254 0.36602 0.0
C363 C 0.31231 0.4301 0.83242 0.0
C364 C 0.2615 0.45066 0.84691 0.0
C365 C 0.31624 0.37766 0.81284 0.0
C366 C 0.26924 0.34469 0.8065 0.0
H367 H 0.34857 0.45598 0.83374 0.0
H368 H 0.35572 0.36407 0.80043 0.0
S369 S 0.12789 0.37779 0.84369 0.0
N370 N 0.16434 0.43283 0.85704 0.0
N371 N 0.1715 0.33416 0.82079 0.0
C372 C 0.21883 0.36377 0.8233 0.0
C373 C 0.21499 0.4169 0.8433 0.0
C374 C 0.07935 0.73887 0.30048 0.0
C375 C 0.06504 0.75812 0.34386 0.0
C376 C 0.13341 0.74028 0.2852 0.0
C377 C 0.17596 0.76107 0.31244 0.0
H378 H 0.04847 0.72254 0.27762 0.0
H379 H 0.14186 0.72541 0.25136 0.0
S380 S 0.16153 0.81585 0.42904 0.0
N381 N 0.09836 0.7983 0.41422 0.0
N382 N 0.20085 0.80069 0.38535 0.0
C383 C 0.16278 0.78032 0.35604 0.0
C384 C 0.10721 0.77869 0.37184 0.0
C385 C 0.71753 0.6477 0.82996 0.0
C386 C 0.76633 0.67682 0.82052 0.0
C387 C 0.71888 0.59532 0.85007 0.0
C388 C 0.76897 0.57065 0.86192 0.0
H389 H 0.67816 0.66422 0.8196 0.0
H390 H 0.68085 0.57254 0.85353 0.0
S391 S 0.90763 0.63148 0.84986 0.0
N392 N 0.86582 0.67878 0.82919 0.0
N393 N 0.86797 0.57989 0.86587 0.0
C394 C 0.81767 0.60024 0.85499 0.0
C395 C 0.81647 0.65348 0.83463 0.0
C396 C 0.17903 0.15663 0.51412 0.0
C397 C 0.13471 0.1922 0.52311 0.0
C398 C 0.20716 0.12887 0.54907 0.0
C399 C 0.19247 0.13536 0.59481 0.0
H400 H 0.19236 0.14996 0.47968 0.0
H401 H 0.24146 0.10289 0.5401 0.0
S402 S 0.07619 0.2192 0.63697 0.0
N403 N 0.07555 0.22947 0.58165 0.0
N404 N 0.12763 0.17677 0.64689 0.0
C405 C 0.14709 0.16926 0.6043 0.0
C406 C 0.11841 0.19762 0.56867 0.0
C407 C 0.30251 0.65809 0.09636 0.0
C408 C 0.34888 0.69018 0.10775 0.0
C409 C 0.29006 0.64468 1.05111 0.0
C410 C 0.32317 0.66342 1.01545 0.0
H411 H 0.2735 0.64644 0.12242 0.0
H412 H 0.25171 0.62374 1.04376 0.0
S413 S 0.45143 0.74474 1.02697 0.0
N414 N 0.43039 0.73632 0.07969 0.0
N415 N 0.40621 0.71241 0.99457 0.0
C416 C 0.37154 0.69233 1.02651 0.0
C417 C 0.38473 0.70524 0.07271 0.0
C418 C 0.86688 0.81049 0.61053 0.0
C419 C 0.82761 0.85255 0.60638 0.0
C420 C 0.89671 0.79175 0.57286 0.0
C421 C 0.88804 0.81372 0.52915 0.0
H422 H 0.87299 0.7901 0.64277 0.0
H423 H 0.92501 0.75798 0.5778 0.0
S424 S 0.79309 0.92833 0.50113 0.0
N425 N 0.7838 0.91786 0.55589 0.0
N426 N 0.84025 0.88376 0.48523 0.0
C427 C 0.85057 0.85766 0.52507 0.0
C428 C 0.8202 0.87665 0.56355 0.0
C429 C 0.66443 0.35268 0.09748 0.0
C430 C 0.62625 0.30887 0.09712 0.0
C431 C 0.69257 0.3687 1.05786 0.0
C432 C 0.68401 0.34105 1.01662 0.0
H433 H 0.67361 0.37394 0.12885 0.0
H434 H 0.72318 0.40099 1.06006 0.0
S435 S 0.5889 0.22428 0.99685 0.0
N436 N 0.58094 0.23925 1.05097 0.0
N437 N 0.6347 0.2685 0.97749 0.0
C438 C 0.64529 0.29821 1.01553 0.0
C439 C 0.61608 0.28242 1.05546 0.0
C440 C 0.96079 0.01733 0.35364 0.0
C441 C 0.98024 0.96349 0.34881 0.0
C442 C 0.99718 0.0621 0.35332 0.0
C443 C 0.05395 0.05436 0.34713 0.0
H444 H 0.91734 0.02458 0.35831 0.0
H445 H 0.98085 0.10314 0.35743 0.0
S446 S 0.12449 0.92144 0.33062 0.0
N447 N 0.0591 0.90467 0.33656 0.0
N448 N 0.12748 0.98911 0.33487 0.0
C449 C 0.07359 1.00078 0.34124 0.0
C450 C 0.03671 0.95518 0.34244 0.0
C451 C 0.47029 0.49935 0.81348 0.0
C452 C 0.46275 0.54362 0.84317 0.0
C453 C 0.51783 0.46722 0.8156 0.0
C454 C 0.56007 0.4787 0.84702 0.0
H455 H 0.43897 0.48943 0.78861 0.0
H456 H 0.52164 0.43323 0.79224 0.0
S457 S 0.55991 0.59279 0.93086 0.0
N458 N 0.50017 0.59807 0.90454 0.0
N459 N 0.59099 0.53959 0.90776 0.0
C460 C 0.55263 0.5232 0.87705 0.0
C461 C 0.5036 0.55522 0.87525 0.0
C462 C 0.48548 0.51919 0.31001 0.0
C463 C 0.49212 0.5616 0.27785 0.0
C464 C 0.5198 0.47312 0.31041 0.0
C465 C 0.56155 0.4673 0.27827 0.0
H466 H 0.45343 0.52155 0.33518 0.0
H467 H 0.51336 0.44141 0.33565 0.0
S468 S 0.59798 0.56516 0.18733 0.0
N469 N 0.54584 0.59429 0.21346 0.0
N470 N 0.60839 0.50613 0.21364 0.0
C471 C 0.56843 0.50826 0.24551 0.0
C472 C 0.53417 0.5558 0.24538 0.0
C473 C 1.00749 0.06999 0.76736 0.0
C474 C 0.06097 0.05051 0.77452 0.0
C475 C 0.96254 0.03369 0.76743 0.0
C476 C 0.96983 0.97706 0.77554 0.0
H477 H 1.00066 0.11332 0.76114 0.0
H478 H 0.92174 0.05 0.76178 0.0
S479 S 0.10205 0.90647 0.79661 0.0
N480 N 0.11905 0.97177 0.78981 0.0
N481 N 0.03456 0.90361 0.79095 0.0
C482 C 0.02316 0.95744 0.78325 0.0
C483 C 0.06881 0.99419 0.78242 0.0
loop_
_geom_bond_atom_site_label_1
_geom_bond_atom_site_label_2
_geom_bond_distance
_geom_bond_site_symmetry_2
_ccdc_geom_bond_type
C0 C1 1.351 . S
C0 N3 1.368 . S
C0 H5 0.929 1_455 S
C1 C0 1.351 . S
C1 N2 1.373 . S
C1 H29 0.930 . S
N2 C1 1.373 . S
N2 C4 1.340 . S
N3 C0 1.368 . S
N3 C4 1.321 . S
N3 Co6 2.135 . S
C4 N2 1.340 . S
C4 N3 1.321 . S
C4 H28 0.930 . S
H5 C0 0.929 1_655 S
Co6 N3 2.135 . S
Co6 N9 2.121 . S
Co6 O14 2.055 1_455 S
Co6 O17 2.039 . S
Co6 N20 2.140 . S
C7 O8 1.227 . S
C7 O17 1.265 . S
O8 C7 1.227 . S
N9 Co6 2.121 . S
N9 C11 1.375 . S
N9 C12 1.313 . S
C10 C11 1.338 . S
C10 N13 1.377 . S
C10 H30 0.930 . S
C11 N9 1.375 . S
C11 C10 1.338 . S
C11 H15 0.931 . S
C12 N9 1.313 . S
C12 N13 1.344 . S
C12 H16 0.930 1_455 S
N13 C10 1.377 . S
N13 C12 1.344 . S
O14 Co6 2.055 1_655 S
O14 C18 1.253 . S
H15 C11 0.931 . S
H16 C12 0.930 1_655 S
O17 Co6 2.039 . S
O17 C7 1.265 . S
C18 O14 1.253 . S
C18 O19 1.227 . S
O19 C18 1.227 . S
N20 Co6 2.140 . S
N20 C23 1.346 . S
N20 C24 1.345 . S
C21 C22 1.387 . S
C21 C25 1.391 . S
C22 C21 1.387 . S
C22 C23 1.369 . S
C22 H31 0.929 . S
C23 N20 1.346 . S
C23 C22 1.369 . S
C23 H26 0.928 . S
C24 N20 1.345 . S
C24 C25 1.371 . S
C24 H27 0.931 . S
C25 C21 1.391 . S
C25 C24 1.371 . S
C25 H32 0.930 . S
H26 C23 0.928 . S
H27 C24 0.931 . S
H28 C4 0.930 . S
H29 C1 0.930 . S
H30 C10 0.930 . S
H31 C22 0.929 . S
H32 C25 0.930 . S
C33 C34 1.351 . S
C33 N36 1.368 . S
C33 H38 0.931 . S
C34 C33 1.351 . S
C34 N35 1.373 . S
C34 H62 0.930 . S
N35 C34 1.373 . S
N35 C37 1.340 . S
N36 C33 1.368 . S
N36 C37 1.321 . S
N36 Co39 2.135 . S
C37 N35 1.340 . S
C37 N36 1.321 . S
C37 H61 0.930 . S
H38 C33 0.931 . S
Co39 N36 2.135 . S
Co39 N42 2.121 . S
Co39 O47 2.055 . S
Co39 O50 2.039 . S
Co39 N53 2.140 . S
C40 O41 1.227 . S
C40 O50 1.265 . S
O41 C40 1.227 . S
N42 Co39 2.121 . S
N42 C44 1.375 . S
N42 C45 1.313 . S
C43 C44 1.338 . S
C43 N46 1.377 . S
C43 H63 0.930 . S
C44 N42 1.375 . S
C44 C43 1.338 . S
C44 H48 0.931 . S
C45 N42 1.313 . S
C45 N46 1.344 . S
C45 H49 0.930 . S
N46 C43 1.377 . S
N46 C45 1.344 . S
O47 Co39 2.055 . S
O47 C51 1.253 . S
H48 C44 0.931 . S
H49 C45 0.930 . S
O50 Co39 2.039 . S
O50 C40 1.265 . S
C51 O47 1.253 . S
C51 O52 1.227 . S
O52 C51 1.227 . S
N53 Co39 2.140 . S
N53 C56 1.346 . S
N53 C57 1.345 . S
C54 C55 1.387 . S
C54 C58 1.391 . S
C55 C54 1.387 . S
C55 C56 1.369 . S
C55 H64 0.929 . S
C56 N53 1.346 . S
C56 C55 1.369 . S
C56 H59 0.928 . S
C57 N53 1.345 . S
C57 C58 1.371 . S
C57 H60 0.931 . S
C58 C54 1.391 . S
C58 C57 1.371 . S
C58 H65 0.930 . S
H59 C56 0.928 . S
H60 C57 0.931 . S
H61 C37 0.930 . S
H62 C34 0.930 . S
H63 C43 0.930 . S
H64 C55 0.929 . S
H65 C58 0.930 . S
C66 C67 1.351 . S
C66 N69 1.368 . S
C66 H71 0.929 1_655 S
C67 C66 1.351 . S
C67 N68 1.373 . S
C67 H95 0.930 . S
N68 C67 1.373 . S
N68 C70 1.340 . S
N69 C66 1.368 . S
N69 C70 1.321 . S
N69 Co72 2.135 . S
C70 N68 1.340 . S
C70 N69 1.321 . S
C70 H94 0.930 . S
H71 C66 0.929 1_455 S
Co72 N69 2.135 . S
Co72 N75 2.121 . S
Co72 O80 2.055 1_655 S
Co72 O83 2.039 . S
Co72 N86 2.140 . S
C73 O74 1.227 . S
C73 O83 1.265 . S
O74 C73 1.227 . S
N75 Co72 2.121 . S
N75 C77 1.375 . S
N75 C78 1.313 . S
C76 C77 1.338 . S
C76 N79 1.377 . S
C76 H96 0.930 . S
C77 N75 1.375 . S
C77 C76 1.338 . S
C77 H81 0.931 . S
C78 N75 1.313 . S
C78 N79 1.344 . S
C78 H82 0.930 1_655 S
N79 C76 1.377 . S
N79 C78 1.344 . S
O80 Co72 2.055 1_455 S
O80 C84 1.253 . S
H81 C77 0.931 . S
H82 C78 0.930 1_455 S
O83 Co72 2.039 . S
O83 C73 1.265 . S
C84 O80 1.253 . S
C84 O85 1.227 . S
O85 C84 1.227 . S
N86 Co72 2.140 . S
N86 C89 1.346 . S
N86 C90 1.345 . S
C87 C88 1.387 . S
C87 C91 1.391 . S
C88 C87 1.387 . S
C88 C89 1.369 . S
C88 H97 0.929 . S
C89 N86 1.346 . S
C89 C88 1.369 . S
C89 H92 0.928 . S
C90 N86 1.345 . S
C90 C91 1.371 . S
C90 H93 0.931 . S
C91 C87 1.391 . S
C91 C90 1.371 . S
C91 H98 0.930 . S
H92 C89 0.928 . S
H93 C90 0.931 . S
H94 C70 0.930 . S
H95 C67 0.930 . S
H96 C76 0.930 . S
H97 C88 0.929 . S
H98 C91 0.930 . S
C99 C100 1.351 . S
C99 N102 1.368 . S
C99 H104 0.931 . S
C100 C99 1.351 . S
C100 N101 1.373 . S
C100 H128 0.930 . S
N101 C100 1.373 . S
N101 C103 1.340 . S
N102 C99 1.368 . S
N102 C103 1.321 . S
N102 Co105 2.135 . S
C103 N101 1.340 . S
C103 N102 1.321 . S
C103 H127 0.930 . S
H104 C99 0.931 . S
Co105 N102 2.135 . S
Co105 N108 2.121 . S
Co105 O113 2.055 . S
Co105 O116 2.039 . S
Co105 N119 2.140 . S
C106 O107 1.227 . S
C106 O116 1.265 . S
O107 C106 1.227 . S
N108 Co105 2.121 . S
N108 C110 1.375 . S
N108 C111 1.313 . S
C109 C110 1.338 . S
C109 N112 1.377 . S
C109 H129 0.930 . S
C110 N108 1.375 . S
C110 C109 1.338 . S
C110 H114 0.931 . S
C111 N108 1.313 . S
C111 N112 1.344 . S
C111 H115 0.930 . S
N112 C109 1.377 . S
N112 C111 1.344 . S
O113 Co105 2.055 . S
O113 C117 1.253 . S
H114 C110 0.931 . S
H115 C111 0.930 . S
O116 Co105 2.039 . S
O116 C106 1.265 . S
C117 O113 1.253 . S
C117 O118 1.227 . S
O118 C117 1.227 . S
N119 Co105 2.140 . S
N119 C122 1.346 . S
N119 C123 1.345 . S
C120 C121 1.387 . S
C120 C124 1.391 . S
C121 C120 1.387 . S
C121 C122 1.369 . S
C121 H130 0.929 . S
C122 N119 1.346 . S
C122 C121 1.369 . S
C122 H125 0.928 . S
C123 N119 1.345 . S
C123 C124 1.371 . S
C123 H126 0.931 . S
C124 C120 1.391 . S
C124 C123 1.371 . S
C124 H131 0.930 . S
H125 C122 0.928 . S
H126 C123 0.931 . S
H127 C103 0.930 . S
H128 C100 0.930 . S
H129 C109 0.930 . S
H130 C121 0.929 . S
H131 C124 0.930 . S
C132 C133 1.351 . S
C132 N135 1.368 . S
C132 H137 0.931 . S
C133 C132 1.351 . S
C133 N134 1.373 . S
C133 H161 0.930 . S
N134 C133 1.373 . S
N134 C136 1.340 . S
N135 C132 1.368 . S
N135 C136 1.321 . S
N135 Co138 2.135 . S
C136 N134 1.340 . S
C136 N135 1.321 . S
C136 H160 0.930 . S
H137 C132 0.931 . S
Co138 N135 2.135 . S
Co138 N141 2.121 . S
Co138 O146 2.055 . S
Co138 O149 2.039 . S
Co138 N152 2.140 . S
C139 O140 1.227 . S
C139 O149 1.265 . S
O140 C139 1.227 . S
N141 Co138 2.121 . S
N141 C143 1.375 . S
N141 C144 1.313 . S
C142 C143 1.338 . S
C142 N145 1.377 . S
C142 H162 0.930 . S
C143 N141 1.375 . S
C143 C142 1.338 . S
C143 H147 0.931 . S
C144 N141 1.313 . S
C144 N145 1.344 . S
C144 H148 0.930 . S
N145 C142 1.377 . S
N145 C144 1.344 . S
O146 Co138 2.055 . S
O146 C150 1.253 . S
H147 C143 0.931 . S
H148 C144 0.930 . S
O149 Co138 2.039 . S
O149 C139 1.265 . S
C150 O146 1.253 . S
C150 O151 1.227 . S
O151 C150 1.227 . S
N152 Co138 2.140 . S
N152 C155 1.346 . S
N152 C156 1.345 . S
C153 C154 1.387 . S
C153 C157 1.391 . S
C154 C153 1.387 . S
C154 C155 1.369 . S
C154 H163 0.929 . S
C155 N152 1.346 . S
C155 C154 1.369 . S
C155 H158 0.928 . S
C156 N152 1.345 . S
C156 C157 1.371 . S
C156 H159 0.931 . S
C157 C153 1.391 . S
C157 C156 1.371 . S
C157 H164 0.930 . S
H158 C155 0.928 . S
H159 C156 0.931 . S
H160 C136 0.930 . S
H161 C133 0.930 . S
H162 C142 0.930 . S
H163 C154 0.929 . S
H164 C157 0.930 . S
C165 C166 1.351 . S
C165 N168 1.368 . S
C165 H170 0.929 1_545 S
C166 C165 1.351 . S
C166 N167 1.373 . S
C166 H194 0.930 . S
N167 C166 1.373 . S
N167 C169 1.340 . S
N168 C165 1.368 . S
N168 C169 1.321 . S
N168 Co171 2.135 . S
C169 N167 1.340 . S
C169 N168 1.321 . S
C169 H193 0.930 . S
H170 C165 0.929 1_565 S
Co171 N168 2.135 . S
Co171 N174 2.121 . S
Co171 O179 2.055 1_545 S
Co171 O182 2.039 . S
Co171 N185 2.140 . S
C172 O173 1.227 . S
C172 O182 1.265 . S
O173 C172 1.227 . S
N174 Co171 2.121 . S
N174 C176 1.375 . S
N174 C177 1.313 . S
C175 C176 1.338 . S
C175 N178 1.377 . S
C175 H195 0.930 . S
C176 N174 1.375 . S
C176 C175 1.338 . S
C176 H180 0.931 . S
C177 N174 1.313 . S
C177 N178 1.344 . S
C177 H181 0.930 1_545 S
N178 C175 1.377 . S
N178 C177 1.344 . S
O179 Co171 2.055 1_565 S
O179 C183 1.253 . S
H180 C176 0.931 . S
H181 C177 0.930 1_565 S
O182 Co171 2.039 . S
O182 C172 1.265 . S
C183 O179 1.253 . S
C183 O184 1.227 . S
O184 C183 1.227 . S
N185 Co171 2.140 . S
N185 C188 1.346 . S
N185 C189 1.345 . S
C186 C187 1.387 . S
C186 C190 1.391 . S
C187 C186 1.387 . S
C187 C188 1.369 . S
C187 H196 0.929 . S
C188 N185 1.346 . S
C188 C187 1.369 . S
C188 H191 0.928 . S
C189 N185 1.345 . S
C189 C190 1.371 . S
C189 H192 0.931 . S
C190 C186 1.391 . S
C190 C189 1.371 . S
C190 H197 0.930 . S
H191 C188 0.928 . S
H192 C189 0.931 . S
H193 C169 0.930 . S
H194 C166 0.930 . S
H195 C175 0.930 . S
H196 C187 0.929 . S
H197 C190 0.930 . S
C198 C199 1.351 . S
C198 N201 1.368 . S
C198 H203 0.931 . S
C199 C198 1.351 . S
C199 N200 1.373 . S
C199 H227 0.930 . S
N200 C199 1.373 . S
N200 C202 1.340 . S
N201 C198 1.368 . S
N201 C202 1.321 . S
N201 Co204 2.135 . S
C202 N200 1.340 . S
C202 N201 1.321 . S
C202 H226 0.930 . S
H203 C198 0.931 . S
Co204 N201 2.135 . S
Co204 N207 2.121 . S
Co204 O212 2.055 . S
Co204 O215 2.039 . S
Co204 N218 2.140 . S
C205 O206 1.227 . S
C205 O215 1.265 . S
O206 C205 1.227 . S
N207 Co204 2.121 . S
N207 C209 1.375 . S
N207 C210 1.313 . S
C208 C209 1.338 . S
C208 N211 1.377 . S
C208 H228 0.930 . S
C209 N207 1.375 . S
C209 C208 1.338 . S
C209 H213 0.931 . S
C210 N207 1.313 . S
C210 N211 1.344 . S
C210 H214 0.930 . S
N211 C208 1.377 . S
N211 C210 1.344 . S
O212 Co204 2.055 . S
O212 C216 1.253 . S
H213 C209 0.931 . S
H214 C210 0.930 . S
O215 Co204 2.039 . S
O215 C205 1.265 . S
C216 O212 1.253 . S
C216 O217 1.227 . S
O217 C216 1.227 . S
N218 Co204 2.140 . S
N218 C221 1.346 . S
N218 C222 1.345 . S
C219 C220 1.387 . S
C219 C223 1.391 . S
C220 C219 1.387 . S
C220 C221 1.369 . S
C220 H229 0.929 . S
C221 N218 1.346 . S
C221 C220 1.369 . S
C221 H224 0.928 . S
C222 N218 1.345 . S
C222 C223 1.371 . S
C222 H225 0.931 . S
C223 C219 1.391 . S
C223 C222 1.371 . S
C223 H230 0.930 . S
H224 C221 0.928 . S
H225 C222 0.931 . S
H226 C202 0.930 . S
H227 C199 0.930 . S
H228 C208 0.930 . S
H229 C220 0.929 . S
H230 C223 0.930 . S
C231 C232 1.351 . S
C231 N234 1.368 . S
C231 H236 0.929 1_565 S
C232 C231 1.351 . S
C232 N233 1.373 . S
C232 H260 0.930 . S
N233 C232 1.373 . S
N233 C235 1.340 . S
N234 C231 1.368 . S
N234 C235 1.321 . S
N234 Co237 2.135 . S
C235 N233 1.340 . S
C235 N234 1.321 . S
C235 H259 0.930 . S
H236 C231 0.929 1_545 S
Co237 N234 2.135 . S
Co237 N240 2.121 . S
Co237 O245 2.055 1_565 S
Co237 O248 2.039 . S
Co237 N251 2.140 . S
C238 O239 1.227 . S
C238 O248 1.265 . S
O239 C238 1.227 . S
N240 Co237 2.121 . S
N240 C242 1.375 . S
N240 C243 1.313 . S
C241 C242 1.338 . S
C241 N244 1.377 . S
C241 H261 0.930 . S
C242 N240 1.375 . S
C242 C241 1.338 . S
C242 H246 0.931 . S
C243 N240 1.313 . S
C243 N244 1.344 . S
C243 H247 0.930 1_565 S
N244 C241 1.377 . S
N244 C243 1.344 . S
O245 Co237 2.055 1_545 S
O245 C249 1.253 . S
H246 C242 0.931 . S
H247 C243 0.930 1_545 S
O248 Co237 2.039 . S
O248 C238 1.265 . S
C249 O245 1.253 . S
C249 O250 1.227 . S
O250 C249 1.227 . S
N251 Co237 2.140 . S
N251 C254 1.346 . S
N251 C255 1.345 . S
C252 C253 1.387 . S
C252 C256 1.391 . S
C253 C252 1.387 . S
C253 C254 1.369 . S
C253 H262 0.929 . S
C254 N251 1.346 . S
C254 C253 1.369 . S
C254 H257 0.928 . S
C255 N251 1.345 . S
C255 C256 1.371 . S
C255 H258 0.931 . S
C256 C252 1.391 . S
C256 C255 1.371 . S
C256 H263 0.930 . S
H257 C254 0.928 . S
H258 C255 0.931 . S
H259 C235 0.930 . S
H260 C232 0.930 . S
H261 C241 0.930 . S
H262 C253 0.929 . S
H263 C256 0.930 . S
C264 C265 1.369 1_455 S
C264 C266 1.419 . S
C264 H268 0.930 . S
C265 C264 1.369 1_655 S
C265 C274 1.429 . S
C266 C264 1.419 . S
C266 C267 1.363 . S
C266 H269 0.929 . S
C267 C266 1.363 . S
C267 C273 1.428 1_455 S
H268 C264 0.930 . S
H269 C266 0.929 . S
S270 N271 1.613 . S
S270 N272 1.610 . S
N271 S270 1.613 . S
N271 C274 1.350 . S
N272 S270 1.610 . S
N272 C273 1.351 . S
C273 C267 1.428 1_655 S
C273 N272 1.351 . S
C273 C274 1.434 . S
C274 C265 1.429 . S
C274 N271 1.350 . S
C274 C273 1.434 . S
C275 C276 1.369 . S
C275 C277 1.419 1_655 S
C275 H279 0.930 . S
C276 C275 1.369 . S
C276 C285 1.429 . S
C277 C275 1.419 1_455 S
C277 C278 1.363 . S
C277 H280 0.929 . S
C278 C277 1.363 . S
C278 C284 1.428 . S
H279 C275 0.930 . S
H280 C277 0.929 . S
S281 N282 1.613 1_455 S
S281 N283 1.610 . S
N282 S281 1.613 1_655 S
N282 C285 1.350 . S
N283 S281 1.610 . S
N283 C284 1.351 . S
C284 C278 1.428 . S
C284 N283 1.351 . S
C284 C285 1.434 1_455 S
C285 C276 1.429 . S
C285 N282 1.350 . S
C285 C284 1.434 1_655 S
C286 C287 1.369 . S
C286 C288 1.419 1_565 S
C286 H290 0.930 . S
C287 C286 1.369 . S
C287 C296 1.429 . S
C288 C286 1.419 1_545 S
C288 C289 1.363 . S
C288 H291 0.929 . S
C289 C288 1.363 . S
C289 C295 1.428 . S
H290 C286 0.930 . S
H291 C288 0.929 . S
S292 N293 1.613 . S
S292 N294 1.610 1_565 S
N293 S292 1.613 . S
N293 C296 1.350 . S
N294 S292 1.610 1_545 S
N294 C295 1.351 . S
C295 C289 1.428 . S
C295 N294 1.351 . S
C295 C296 1.434 1_545 S
C296 C287 1.429 . S
C296 N293 1.350 . S
C296 C295 1.434 1_565 S
C297 C298 1.369 . S
C297 C299 1.419 . S
C297 H301 0.930 . S
C298 C297 1.369 . S
C298 C307 1.429 1_565 S
C299 C297 1.419 . S
C299 C300 1.363 1_565 S
C299 H302 0.929 . S
C300 C299 1.363 1_545 S
C300 C306 1.428 . S
H301 C297 0.930 . S
H302 C299 0.929 . S
S303 N304 1.613 . S
S303 N305 1.610 . S
N304 S303 1.613 . S
N304 C307 1.350 . S
N305 S303 1.610 . S
N305 C306 1.351 . S
C306 C300 1.428 . S
C306 N305 1.351 . S
C306 C307 1.434 . S
C307 C298 1.429 1_545 S
C307 N304 1.350 . S
C307 C306 1.434 . S
C308 C309 1.369 . S
C308 C310 1.419 . S
C308 H312 0.930 . S
C309 C308 1.369 . S
C309 C318 1.429 . S
C310 C308 1.419 . S
C310 C311 1.363 . S
C310 H313 0.929 . S
C311 C310 1.363 . S
C311 C317 1.428 . S
H312 C308 0.930 . S
H313 C310 0.929 . S
S314 N315 1.613 . S
S314 N316 1.610 . S
N315 S314 1.613 . S
N315 C318 1.350 . S
N316 S314 1.610 . S
N316 C317 1.351 . S
C317 C311 1.428 . S
C317 N316 1.351 . S
C317 C318 1.434 . S
C318 C309 1.429 . S
C318 N315 1.350 . S
C318 C317 1.434 . S
C319 C320 1.369 . S
C319 C321 1.419 . S
C319 H323 0.930 . S
C320 C319 1.369 . S
C320 C329 1.429 . S
C321 C319 1.419 . S
C321 C322 1.363 . S
C321 H324 0.929 . S
C322 C321 1.363 . S
C322 C328 1.428 . S
H323 C319 0.930 . S
H324 C321 0.929 . S
S325 N326 1.613 . S
S325 N327 1.610 . S
N326 S325 1.613 . S
N326 C329 1.350 . S
N327 S325 1.610 . S
N327 C328 1.351 . S
C328 C322 1.428 . S
C328 N327 1.351 . S
C328 C329 1.434 . S
C329 C320 1.429 . S
C329 N326 1.350 . S
C329 C328 1.434 . S
C330 C331 1.369 . S
C330 C332 1.419 . S
C330 H334 0.930 . S
C331 C330 1.369 . S
C331 C340 1.429 . S
C332 C330 1.419 . S
C332 C333 1.363 . S
C332 H335 0.929 . S
C333 C332 1.363 . S
C333 C339 1.428 . S
H334 C330 0.930 . S
H335 C332 0.929 . S
S336 N337 1.613 . S
S336 N338 1.610 . S
N337 S336 1.613 . S
N337 C340 1.350 . S
N338 S336 1.610 . S
N338 C339 1.351 . S
C339 C333 1.428 . S
C339 N338 1.351 . S
C339 C340 1.434 . S
C340 C331 1.429 . S
C340 N337 1.350 . S
C340 C339 1.434 . S
C341 C342 1.369 . S
C341 C343 1.419 . S
C341 H345 0.930 . S
C342 C341 1.369 . S
C342 C351 1.429 . S
C343 C341 1.419 . S
C343 C344 1.363 . S
C343 H346 0.929 . S
C344 C343 1.363 . S
C344 C350 1.428 . S
H345 C341 0.930 . S
H346 C343 0.929 . S
S347 N348 1.613 . S
S347 N349 1.610 . S
N348 S347 1.613 . S
N348 C351 1.350 . S
N349 S347 1.610 . S
N349 C350 1.351 . S
C350 C344 1.428 . S
C350 N349 1.351 . S
C350 C351 1.434 . S
C351 C342 1.429 . S
C351 N348 1.350 . S
C351 C350 1.434 . S
C352 C353 1.369 . S
C352 C354 1.419 . S
C352 H356 0.930 . S
C353 C352 1.369 . S
C353 C362 1.429 . S
C354 C352 1.419 . S
C354 C355 1.363 . S
C354 H357 0.929 . S
C355 C354 1.363 . S
C355 C361 1.428 . S
H356 C352 0.930 . S
H357 C354 0.929 . S
S358 N359 1.613 . S
S358 N360 1.610 . S
N359 S358 1.613 . S
N359 C362 1.350 . S
N360 S358 1.610 . S
N360 C361 1.351 . S
C361 C355 1.428 . S
C361 N360 1.351 . S
C361 C362 1.434 . S
C362 C353 1.429 . S
C362 N359 1.350 . S
C362 C361 1.434 . S
C363 C364 1.369 . S
C363 C365 1.419 . S
C363 H367 0.930 . S
C364 C363 1.369 . S
C364 C373 1.429 . S
C365 C363 1.419 . S
C365 C366 1.363 . S
C365 H368 0.929 . S
C366 C365 1.363 . S
C366 C372 1.428 . S
H367 C363 0.930 . S
H368 C365 0.929 . S
S369 N370 1.613 . S
S369 N371 1.610 . S
N370 S369 1.613 . S
N370 C373 1.350 . S
N371 S369 1.610 . S
N371 C372 1.351 . S
C372 C366 1.428 . S
C372 N371 1.351 . S
C372 C373 1.434 . S
C373 C364 1.429 . S
C373 N370 1.350 . S
C373 C372 1.434 . S
C374 C375 1.369 . S
C374 C376 1.419 . S
C374 H378 0.930 . S
C375 C374 1.369 . S
C375 C384 1.429 . S
C376 C374 1.419 . S
C376 C377 1.363 . S
C376 H379 0.929 . S
C377 C376 1.363 . S
C377 C383 1.428 . S
H378 C374 0.930 . S
H379 C376 0.929 . S
S380 N381 1.613 . S
S380 N382 1.610 . S
N381 S380 1.613 . S
N381 C384 1.350 . S
N382 S380 1.610 . S
N382 C383 1.351 . S
C383 C377 1.428 . S
C383 N382 1.351 . S
C383 C384 1.434 . S
C384 C375 1.429 . S
C384 N381 1.350 . S
C384 C383 1.434 . S
C385 C386 1.369 . S
C385 C387 1.419 . S
C385 H389 0.930 . S
C386 C385 1.369 . S
C386 C395 1.429 . S
C387 C385 1.419 . S
C387 C388 1.363 . S
C387 H390 0.929 . S
C388 C387 1.363 . S
C388 C394 1.428 . S
H389 C385 0.930 . S
H390 C387 0.929 . S
S391 N392 1.613 . S
S391 N393 1.610 . S
N392 S391 1.613 . S
N392 C395 1.350 . S
N393 S391 1.610 . S
N393 C394 1.351 . S
C394 C388 1.428 . S
C394 N393 1.351 . S
C394 C395 1.434 . S
C395 C386 1.429 . S
C395 N392 1.350 . S
C395 C394 1.434 . S
C396 C397 1.369 . S
C396 C398 1.419 . S
C396 H400 0.930 . S
C397 C396 1.369 . S
C397 C406 1.429 . S
C398 C396 1.419 . S
C398 C399 1.363 . S
C398 H401 0.929 . S
C399 C398 1.363 . S
C399 C405 1.428 . S
H400 C396 0.930 . S
H401 C398 0.929 . S
S402 N403 1.613 . S
S402 N404 1.610 . S
N403 S402 1.613 . S
N403 C406 1.350 . S
N404 S402 1.610 . S
N404 C405 1.351 . S
C405 C399 1.428 . S
C405 N404 1.351 . S
C405 C406 1.434 . S
C406 C397 1.429 . S
C406 N403 1.350 . S
C406 C405 1.434 . S
C407 C408 1.369 . S
C407 C409 1.419 . S
C407 H411 0.930 . S
C408 C407 1.369 . S
C408 C417 1.429 1_554 S
C409 C407 1.419 . S
C409 C410 1.363 1_554 S
C409 H412 0.929 . S
C410 C409 1.363 1_556 S
C410 C416 1.428 . S
H411 C407 0.930 . S
H412 C409 0.929 . S
S413 N414 1.613 . S
S413 N415 1.610 . S
N414 S413 1.613 . S
N414 C417 1.350 . S
N415 S413 1.610 . S
N415 C416 1.351 . S
C416 C410 1.428 . S
C416 N415 1.351 . S
C416 C417 1.434 . S
C417 C408 1.429 1_556 S
C417 N414 1.350 . S
C417 C416 1.434 . S
C418 C419 1.369 . S
C418 C420 1.419 . S
C418 H422 0.930 . S
C419 C418 1.369 . S
C419 C428 1.429 . S
C420 C418 1.419 . S
C420 C421 1.363 . S
C420 H423 0.929 . S
C421 C420 1.363 . S
C421 C427 1.428 . S
H422 C418 0.930 . S
H423 C420 0.929 . S
S424 N425 1.613 . S
S424 N426 1.610 . S
N425 S424 1.613 . S
N425 C428 1.350 . S
N426 S424 1.610 . S
N426 C427 1.351 . S
C427 C421 1.428 . S
C427 N426 1.351 . S
C427 C428 1.434 . S
C428 C419 1.429 . S
C428 N425 1.350 . S
C428 C427 1.434 . S
C429 C430 1.369 . S
C429 C431 1.419 1_554 S
C429 H433 0.930 . S
C430 C429 1.369 . S
C430 C439 1.429 . S
C431 C429 1.419 1_556 S
C431 C432 1.363 . S
C431 H434 0.929 . S
C432 C431 1.363 . S
C432 C438 1.428 . S
H433 C429 0.930 . S
H434 C431 0.929 . S
S435 N436 1.613 1_556 S
S435 N437 1.610 . S
N436 S435 1.613 1_554 S
N436 C439 1.350 . S
N437 S435 1.610 . S
N437 C438 1.351 . S
C438 C432 1.428 . S
C438 N437 1.351 . S
C438 C439 1.434 1_556 S
C439 C430 1.429 . S
C439 N436 1.350 . S
C439 C438 1.434 1_554 S
C440 C441 1.369 . S
C440 C442 1.419 1_665 S
C440 H444 0.930 . S
C441 C440 1.369 . S
C441 C450 1.429 . S
C442 C440 1.419 1_445 S
C442 C443 1.363 . S
C442 H445 0.929 . S
C443 C442 1.363 . S
C443 C449 1.428 . S
H444 C440 0.930 . S
H445 C442 0.929 . S
S446 N447 1.613 1_455 S
S446 N448 1.610 1_565 S
N447 S446 1.613 1_655 S
N447 C450 1.350 . S
N448 S446 1.610 1_545 S
N448 C449 1.351 . S
C449 C443 1.428 . S
C449 N448 1.351 . S
C449 C450 1.434 1_445 S
C450 C441 1.429 . S
C450 N447 1.350 . S
C450 C449 1.434 1_665 S
C451 C452 1.369 . S
C451 C453 1.419 . S
C451 H455 0.930 . S
C452 C451 1.369 . S
C452 C461 1.429 . S
C453 C451 1.419 . S
C453 C454 1.363 . S
C453 H456 0.929 . S
C454 C453 1.363 . S
C454 C460 1.428 . S
H455 C451 0.930 . S
H456 C453 0.929 . S
S457 N458 1.613 . S
S457 N459 1.610 . S
N458 S457 1.613 . S
N458 C461 1.350 . S
N459 S457 1.610 . S
N459 C460 1.351 . S
C460 C454 1.428 . S
C460 N459 1.351 . S
C460 C461 1.434 . S
C461 C452 1.429 . S
C461 N458 1.350 . S
C461 C460 1.434 . S
C462 C463 1.369 . S
C462 C464 1.419 . S
C462 H466 0.930 . S
C463 C462 1.369 . S
C463 C472 1.429 . S
C464 C462 1.419 . S
C464 C465 1.363 . S
C464 H467 0.929 . S
C465 C464 1.363 . S
C465 C471 1.428 . S
H466 C462 0.930 . S
H467 C464 0.929 . S
S468 N469 1.613 . S
S468 N470 1.610 . S
N469 S468 1.613 . S
N469 C472 1.350 . S
N470 S468 1.610 . S
N470 C471 1.351 . S
C471 C465 1.428 . S
C471 N470 1.351 . S
C471 C472 1.434 . S
C472 C463 1.429 . S
C472 N469 1.350 . S
C472 C471 1.434 . S
C473 C474 1.369 1_655 S
C473 C475 1.419 1_545 S
C473 H477 0.930 . S
C474 C473 1.369 1_455 S
C474 C483 1.418 1_545 S
C475 C473 1.419 1_565 S
C475 C476 1.363 . S
C475 H478 0.930 . S
C476 C475 1.363 . S
C476 C482 1.428 1_655 S
H477 C473 0.930 . S
H478 C475 0.930 . S
S479 N480 1.613 . S
S479 N481 1.610 . S
N480 S479 1.613 . S
N480 C483 1.352 . S
N481 S479 1.610 . S
N481 C482 1.351 . S
C482 C476 1.428 1_455 S
C482 N481 1.351 . S
C482 C483 1.444 . S
C483 C474 1.418 1_565 S
C483 N480 1.352 . S
C483 C482 1.444 . S
C265 N79 1.188 . S
C267 N13 1.188 . S
C276 N112 1.192 . S
C278 N46 1.190 . S
C287 N211 1.192 . S
C289 N145 1.192 . S
C298 N244 1.188 . S
C300 N178 1.190 . S
C309 C150 1.904 . S
C311 C21 1.896 . S
C320 C183 1.906 . S
C322 C54 1.894 . S
C331 C216 1.905 . S
C333 C87 1.896 . S
C342 C120 1.896 . S
C344 C249 1.905 . S
C353 C18 1.904 . S
C355 C153 1.896 . S
C364 C51 1.905 . S
C366 C186 1.895 . S
C375 C84 1.904 . S
C377 C219 1.896 . S
C386 C252 1.894 . S
C388 C117 1.906 . S
C397 C7 1.784 . S
C399 C172 1.774 . S
C408 C205 1.784 . S
C410 C40 1.774 . S
C419 C238 1.778 . S
C421 C73 1.779 . S
C430 C139 1.777 . S
C432 C106 1.780 . S
C441 N68 0.749 . S
C443 N2 0.762 . S
C452 N35 0.777 . S
C454 N101 0.749 . S
C463 N200 0.751 . S
C465 N134 0.772 . S
C474 N167 0.743 . S
C476 N233 0.772 . S
