# Generated by pormake.
# Topology vbx, (6)-cn, num edge types: 1
# Building blocks:
#     Node 0, Type 0, BuildingBlock: OJICUG_clean_sbu_0, # of connection points: 6
#     Node 1, Type 0, BuildingBlock: OJICUG_clean_sbu_0, # of connection points: 6
#     Node 2, Type 0, BuildingBlock: OJICUG_clean_sbu_0, # of connection points: 6
#     Node 3, Type 0, BuildingBlock: OJICUG_clean_sbu_0, # of connection points: 6
#     Node 4, Type 0, BuildingBlock: OJICUG_clean_sbu_0, # of connection points: 6
#     Node 5, Type 0, BuildingBlock: OJICUG_clean_sbu_0, # of connection points: 6
#     Node 6, Type 0, BuildingBlock: OJICUG_clean_sbu_0, # of connection points: 6
#     Node 7, Type 0, BuildingBlock: OJICUG_clean_sbu_0, # of connection points: 6
#     Node 8, Type 0, BuildingBlock: OJICUG_clean_sbu_0, # of connection points: 6
#     Node 9, Type 0, BuildingBlock: OJICUG_clean_sbu_0, # of connection points: 6
#     Node 10, Type 0, BuildingBlock: OJICUG_clean_sbu_0, # of connection points: 6
#     Node 11, Type 0, BuildingBlock: OJICUG_clean_sbu_0, # of connection points: 6
#     Node 12, Type 0, BuildingBlock: OJICUG_clean_sbu_0, # of connection points: 6
#     Node 13, Type 0, BuildingBlock: OJICUG_clean_sbu_0, # of connection points: 6
#     Node 14, Type 0, BuildingBlock: OJICUG_clean_sbu_0, # of connection points: 6
#     Node 15, Type 0, BuildingBlock: OJICUG_clean_sbu_0, # of connection points: 6
#     Edge 16, Type (0, 0), BuildingBlock: ZUJKAS_clean_linker_0, # of connection points: 2
#     Edge 17, Type (0, 0), BuildingBlock: ZUJKAS_clean_linker_0, # of connection points: 2
#     Edge 18, Type (0, 0), BuildingBlock: ZUJKAS_clean_linker_0, # of connection points: 2
#     Edge 19, Type (0, 0), BuildingBlock: ZUJKAS_clean_linker_0, # of connection points: 2
#     Edge 20, Type (0, 0), BuildingBlock: ZUJKAS_clean_linker_0, # of connection points: 2
#     Edge 21, Type (0, 0), BuildingBlock: ZUJKAS_clean_linker_0, # of connection points: 2
#     Edge 22, Type (0, 0), BuildingBlock: ZUJKAS_clean_linker_0, # of connection points: 2
#     Edge 23, Type (0, 0), BuildingBlock: ZUJKAS_clean_linker_0, # of connection points: 2
#     Edge 24, Type (0, 0), BuildingBlock: ZUJKAS_clean_linker_0, # of connection points: 2
#     Edge 25, Type (0, 0), BuildingBlock: ZUJKAS_clean_linker_0, # of connection points: 2
#     Edge 26, Type (0, 0), BuildingBlock: ZUJKAS_clean_linker_0, # of connection points: 2
#     Edge 27, Type (0, 0), BuildingBlock: ZUJKAS_clean_linker_0, # of connection points: 2
#     Edge 28, Type (0, 0), BuildingBlock: ZUJKAS_clean_linker_0, # of connection points: 2
#     Edge 29, Type (0, 0), BuildingBlock: ZUJKAS_clean_linker_0, # of connection points: 2
#     Edge 30, Type (0, 0), BuildingBlock: ZUJKAS_clean_linker_0, # of connection points: 2
#     Edge 31, Type (0, 0), BuildingBlock: ZUJKAS_clean_linker_0, # of connection points: 2
#     Edge 32, Type (0, 0), BuildingBlock: ZUJKAS_clean_linker_0, # of connection points: 2
#     Edge 33, Type (0, 0), BuildingBlock: ZUJKAS_clean_linker_0, # of connection points: 2
#     Edge 34, Type (0, 0), BuildingBlock: ZUJKAS_clean_linker_0, # of connection points: 2
#     Edge 35, Type (0, 0), BuildingBlock: ZUJKAS_clean_linker_0, # of connection points: 2
#     Edge 36, Type (0, 0), BuildingBlock: ZUJKAS_clean_linker_0, # of connection points: 2
#     Edge 37, Type (0, 0), BuildingBlock: ZUJKAS_clean_linker_0, # of connection points: 2
#     Edge 38, Type (0, 0), BuildingBlock: ZUJKAS_clean_linker_0, # of connection points: 2
#     Edge 39, Type (0, 0), BuildingBlock: ZUJKAS_clean_linker_0, # of connection points: 2
#     Edge 40, Type (0, 0), BuildingBlock: ZUJKAS_clean_linker_0, # of connection points: 2
#     Edge 41, Type (0, 0), BuildingBlock: ZUJKAS_clean_linker_0, # of connection points: 2
#     Edge 42, Type (0, 0), BuildingBlock: ZUJKAS_clean_linker_0, # of connection points: 2
#     Edge 43, Type (0, 0), BuildingBlock: ZUJKAS_clean_linker_0, # of connection points: 2
#     Edge 44, Type (0, 0), BuildingBlock: ZUJKAS_clean_linker_0, # of connection points: 2
#     Edge 45, Type (0, 0), BuildingBlock: ZUJKAS_clean_linker_0, # of connection points: 2
#     Edge 46, Type (0, 0), BuildingBlock: ZUJKAS_clean_linker_0, # of connection points: 2
#     Edge 47, Type (0, 0), BuildingBlock: ZUJKAS_clean_linker_0, # of connection points: 2
#     Edge 48, Type (0, 0), BuildingBlock: ZUJKAS_clean_linker_0, # of connection points: 2
#     Edge 49, Type (0, 0), BuildingBlock: ZUJKAS_clean_linker_0, # of connection points: 2
#     Edge 50, Type (0, 0), BuildingBlock: ZUJKAS_clean_linker_0, # of connection points: 2
#     Edge 51, Type (0, 0), BuildingBlock: ZUJKAS_clean_linker_0, # of connection points: 2
#     Edge 52, Type (0, 0), BuildingBlock: ZUJKAS_clean_linker_0, # of connection points: 2
#     Edge 53, Type (0, 0), BuildingBlock: ZUJKAS_clean_linker_0, # of connection points: 2
#     Edge 54, Type (0, 0), BuildingBlock: ZUJKAS_clean_linker_0, # of connection points: 2
#     Edge 55, Type (0, 0), BuildingBlock: ZUJKAS_clean_linker_0, # of connection points: 2
#     Edge 56, Type (0, 0), BuildingBlock: ZUJKAS_clean_linker_0, # of connection points: 2
#     Edge 57, Type (0, 0), BuildingBlock: ZUJKAS_clean_linker_0, # of connection points: 2
#     Edge 58, Type (0, 0), BuildingBlock: ZUJKAS_clean_linker_0, # of connection points: 2
#     Edge 59, Type (0, 0), BuildingBlock: ZUJKAS_clean_linker_0, # of connection points: 2
#     Edge 60, Type (0, 0), BuildingBlock: ZUJKAS_clean_linker_0, # of connection points: 2
#     Edge 61, Type (0, 0), BuildingBlock: ZUJKAS_clean_linker_0, # of connection points: 2
#     Edge 62, Type (0, 0), BuildingBlock: ZUJKAS_clean_linker_0, # of connection points: 2
#     Edge 63, Type (0, 0), BuildingBlock: ZUJKAS_clean_linker_0, # of connection points: 2
# Relax obj value: 0.244
# Max RMSD: 0.241
# Mean RMSD: 0.241
data_MOF--net-vbx--node1-OJICUG_clean_sbu_0--edge1-ZUJKAS_clean_linker_0
_symmetry_space_group_name_H-M    P1
_symmetry_Int_Tables_number       1
_symmetry_cell_setting            triclinic
loop_
_symmetry_equiv_pos_as_xyz
'x, y, z'
_cell_length_a     60.361987
_cell_length_b     36.689101
_cell_length_c     73.602055
_cell_angle_alpha  90.019705
_cell_angle_beta   90.001332
_cell_angle_gamma 90.019576
loop_
_atom_site_label
_atom_site_type_symbol
_atom_site_fract_x
_atom_site_fract_y
_atom_site_fract_z
_atom_type_partial_charge
Sc0 Sc 0.34765 0.39104 0.11328 0.0
Sc1 Sc 0.30011 0.33864 0.10448 0.0
Sc2 Sc 0.35124 0.31414 0.08511 0.0
O3 O 0.33294 0.34785 0.10097 0.0
C4 C 0.36902 0.39377 0.07431 0.0
C5 C 0.29986 0.42485 0.10424 0.0
C6 C 0.30683 0.32126 0.06231 0.0
C7 C 0.31718 0.35924 0.14437 0.0
C8 C 0.38586 0.33027 0.11595 0.0
C9 C 0.31823 0.25723 0.10386 0.0
O10 O 0.36065 0.41032 0.08786 0.0
O11 O 0.2909 0.39459 0.10026 0.0
O12 O 0.32767 0.31692 0.06343 0.0
O13 O 0.33514 0.3743 0.13925 0.0
O14 O 0.37665 0.30773 0.10526 0.0
O15 O 0.30462 0.2814 0.10912 0.0
O16 O 0.37799 0.36185 0.11895 0.0
O17 O 0.30268 0.34702 0.13336 0.0
O18 O 0.33569 0.26481 0.09495 0.0
O19 O 0.31975 0.42721 0.10974 0.0
O20 O 0.36849 0.35923 0.0726 0.0
O21 O 0.29467 0.32862 0.07596 0.0
Sc22 Sc 0.65602 0.61164 0.6074 0.0
Sc23 Sc 0.70146 0.67009 0.61501 0.0
Sc24 Sc 0.66022 0.69384 0.58325 0.0
O25 O 0.6726 0.65853 0.60189 0.0
C26 C 0.64761 0.61749 0.56494 0.0
C27 C 0.70626 0.58469 0.60751 0.0
C28 C 0.71143 0.69447 0.57427 0.0
C29 C 0.67253 0.63544 0.6467 0.0
C30 C 0.61733 0.67125 0.60534 0.0
C31 C 0.68089 0.74924 0.61241 0.0
O32 O 0.64999 0.599 0.57937 0.0
O33 O 0.71432 0.61599 0.61088 0.0
O34 O 0.69125 0.69578 0.56937 0.0
O35 O 0.65971 0.61811 0.63613 0.0
O36 O 0.62817 0.69434 0.596 0.0
O37 O 0.69228 0.72546 0.62075 0.0
O38 O 0.62501 0.64019 0.60979 0.0
O39 O 0.68833 0.65527 0.64106 0.0
O40 O 0.6691 0.74174 0.59861 0.0
O41 O 0.68559 0.57894 0.60572 0.0
O42 O 0.65015 0.65182 0.56452 0.0
O43 O 0.71767 0.6872 0.59036 0.0
Sc44 Sc 0.34041 0.665 0.89537 0.0
Sc45 Sc 0.29293 0.63628 0.87174 0.0
Sc46 Sc 0.34148 0.58291 0.87061 0.0
O47 O 0.32492 0.62805 0.87924 0.0
C48 C 0.37825 0.64564 0.86725 0.0
C49 C 0.31069 0.71774 0.87085 0.0
C50 C 0.31496 0.60685 0.83528 0.0
C51 C 0.2928 0.65993 0.91342 0.0
C52 C 0.35887 0.58934 0.91106 0.0
C53 C 0.29318 0.55043 0.87796 0.0
O54 O 0.36845 0.66816 0.87761 0.0
O55 O 0.29782 0.6927 0.86538 0.0
O56 O 0.33107 0.59105 0.8431 0.0
O57 O 0.31357 0.66525 0.91433 0.0
O58 O 0.35359 0.57036 0.8973 0.0
O59 O 0.2836 0.58115 0.87721 0.0
O60 O 0.3559 0.6236 0.91182 0.0
O61 O 0.28297 0.65006 0.89894 0.0
O62 O 0.31395 0.54665 0.87573 0.0
O63 O 0.32663 0.71179 0.88172 0.0
O64 O 0.37104 0.61358 0.86429 0.0
O65 O 0.29986 0.6238 0.84384 0.0
Sc66 Sc 0.64986 0.3976 0.36498 0.0
Sc67 Sc 0.69525 0.344 0.37746 0.0
Sc68 Sc 0.64302 0.32791 0.39665 0.0
O69 O 0.6628 0.35635 0.37967 0.0
C70 C 0.62806 0.41062 0.40299 0.0
C71 C 0.69836 0.42898 0.37382 0.0
C72 C 0.68613 0.33595 0.42019 0.0
C73 C 0.67992 0.358 0.33638 0.0
C74 C 0.6101 0.33935 0.3646 0.0
C75 C 0.67505 0.26525 0.38139 0.0
O76 O 0.63822 0.42357 0.38929 0.0
O77 O 0.70574 0.3996 0.38062 0.0
O78 O 0.66518 0.33614 0.4188 0.0
O79 O 0.66158 0.37322 0.34034 0.0
O80 O 0.61911 0.31746 0.37573 0.0
O81 O 0.68853 0.28712 0.37391 0.0
O82 O 0.61831 0.3705 0.36102 0.0
O83 O 0.69437 0.34935 0.34824 0.0
O84 O 0.65862 0.27581 0.39088 0.0
O85 O 0.67928 0.43111 0.36658 0.0
O86 O 0.62567 0.37648 0.40555 0.0
O87 O 0.69907 0.33644 0.40649 0.0
Sc88 Sc 0.64058 0.58963 0.87656 0.0
Sc89 Sc 0.68927 0.64234 0.87397 0.0
Sc90 Sc 0.6434 0.67476 0.89859 0.0
O91 O 0.65779 0.63557 0.88305 0.0
C92 C 0.60362 0.65194 0.87299 0.0
C93 C 0.66439 0.60989 0.83937 0.0
C94 C 0.67174 0.7241 0.87149 0.0
C95 C 0.68914 0.55701 0.88208 0.0
C96 C 0.62654 0.60121 0.91767 0.0
C97 C 0.69229 0.67109 0.91469 0.0
O98 O 0.61076 0.61966 0.87071 0.0
O99 O 0.68008 0.62762 0.84679 0.0
O100 O 0.65599 0.71956 0.88272 0.0
O101 O 0.66822 0.55351 0.8812 0.0
O102 O 0.62938 0.63553 0.91711 0.0
O103 O 0.7011 0.65819 0.90036 0.0
O104 O 0.63068 0.58048 0.90425 0.0
O105 O 0.6988 0.58744 0.88006 0.0
O106 O 0.67169 0.67778 0.9161 0.0
O107 O 0.64894 0.59467 0.84833 0.0
O108 O 0.61398 0.67568 0.88225 0.0
O109 O 0.68451 0.6984 0.86668 0.0
Sc110 Sc 0.34701 0.32896 0.39616 0.0
Sc111 Sc 0.29561 0.34898 0.37578 0.0
Sc112 Sc 0.3424 0.40383 0.36665 0.0
O113 O 0.3283 0.36054 0.37949 0.0
C114 C 0.36407 0.40958 0.40571 0.0
C115 C 0.30201 0.33791 0.41831 0.0
C116 C 0.29421 0.43592 0.37482 0.0
C117 C 0.31551 0.26837 0.37888 0.0
C118 C 0.38121 0.34407 0.36447 0.0
C119 C 0.31234 0.3676 0.33584 0.0
O120 O 0.36253 0.37555 0.40871 0.0
O121 O 0.28968 0.34466 0.40467 0.0
O122 O 0.31474 0.43982 0.37159 0.0
O123 O 0.33343 0.27787 0.38663 0.0
O124 O 0.37233 0.37421 0.35999 0.0
O125 O 0.29903 0.35194 0.34675 0.0
O126 O 0.37325 0.3235 0.37671 0.0
O127 O 0.30084 0.29118 0.37406 0.0
O128 O 0.32864 0.38702 0.34107 0.0
O129 O 0.32265 0.3317 0.41707 0.0
O130 O 0.35693 0.42437 0.39124 0.0
O131 O 0.28511 0.40497 0.37671 0.0
Sc132 Sc 0.64868 0.31806 0.08662 0.0
Sc133 Sc 0.7004 0.3369 0.10645 0.0
Sc134 Sc 0.65384 0.38981 0.11772 0.0
O135 O 0.66771 0.3482 0.10359 0.0
C136 C 0.63189 0.39991 0.07932 0.0
C137 C 0.69275 0.32718 0.06375 0.0
C138 C 0.70205 0.42278 0.10919 0.0
C139 C 0.68083 0.25688 0.103 0.0
C140 C 0.6148 0.33023 0.11838 0.0
C141 C 0.68401 0.35152 0.14715 0.0
O142 O 0.63186 0.36574 0.07623 0.0
O143 O 0.70534 0.33073 0.07753 0.0
O144 O 0.68237 0.42521 0.11524 0.0
O145 O 0.66368 0.26657 0.09418 0.0
O146 O 0.62307 0.36104 0.1225 0.0
O147 O 0.69846 0.3411 0.13566 0.0
O148 O 0.62361 0.30913 0.10677 0.0
O149 O 0.69478 0.27952 0.10925 0.0
O150 O 0.66624 0.36795 0.14271 0.0
O151 O 0.67186 0.3241 0.06493 0.0
O152 O 0.64076 0.41386 0.09338 0.0
O153 O 0.71038 0.3928 0.104 0.0
Sc154 Sc 0.34716 0.69762 0.5811 0.0
Sc155 Sc 0.30129 0.66787 0.60669 0.0
Sc156 Sc 0.35016 0.61574 0.60611 0.0
O157 O 0.33289 0.66047 0.598 0.0
C158 C 0.36481 0.62201 0.56477 0.0
C159 C 0.29851 0.68922 0.56499 0.0
C160 C 0.30198 0.58158 0.60124 0.0
C161 C 0.31862 0.75 0.60642 0.0
C162 C 0.38689 0.67887 0.6076 0.0
C163 C 0.32554 0.64042 0.6424 0.0
O164 O 0.36124 0.65611 0.56394 0.0
O165 O 0.28968 0.67799 0.57963 0.0
O166 O 0.32293 0.57848 0.6019 0.0
O167 O 0.3345 0.74437 0.59546 0.0
O168 O 0.37944 0.6474 0.6115 0.0
O169 O 0.31023 0.65791 0.63438 0.0
O170 O 0.37686 0.70084 0.5971 0.0
O171 O 0.3057 0.72497 0.61179 0.0
O172 O 0.34087 0.62365 0.634 0.0
O173 O 0.31886 0.69766 0.56359 0.0
O174 O 0.36105 0.60333 0.57898 0.0
O175 O 0.29221 0.61199 0.60282 0.0
Sc176 Sc 0.84747 0.89365 0.11382 0.0
Sc177 Sc 0.80099 0.83744 0.10667 0.0
Sc178 Sc 0.85329 0.81025 0.0905 0.0
O179 O 0.83391 0.84705 0.10373 0.0
C180 C 0.87053 0.88711 0.07527 0.0
C181 C 0.80007 0.92341 0.10104 0.0
C182 C 0.80971 0.81163 0.06609 0.0
C183 C 0.81523 0.86806 0.14551 0.0
C184 C 0.88606 0.83558 0.12166 0.0
C185 C 0.8205 0.75694 0.11154 0.0
O186 O 0.86294 0.90614 0.08831 0.0
O187 O 0.79124 0.89211 0.1002 0.0
O188 O 0.83015 0.80519 0.06862 0.0
O189 O 0.83253 0.8845 0.13992 0.0
O190 O 0.87863 0.81137 0.11095 0.0
O191 O 0.80571 0.78118 0.11354 0.0
O192 O 0.87703 0.86667 0.12346 0.0
O193 O 0.80227 0.85041 0.13509 0.0
O194 O 0.83899 0.76333 0.10388 0.0
O195 O 0.82011 0.92809 0.10579 0.0
O196 O 0.86923 0.8525 0.07484 0.0
O197 O 0.79699 0.82374 0.07846 0.0
Sc198 Sc 0.14799 0.11463 0.6099 0.0
Sc199 Sc 0.19702 0.16681 0.61259 0.0
Sc200 Sc 0.1562 0.18828 0.58017 0.0
O201 O 0.16711 0.15656 0.60088 0.0
C202 C 0.13912 0.10957 0.56754 0.0
C203 C 0.1962 0.07979 0.61263 0.0
C204 C 0.20697 0.17626 0.57037 0.0
C205 C 0.16672 0.14895 0.6467 0.0
C206 C 0.11259 0.17856 0.60354 0.0
C207 C 0.18145 0.24781 0.60414 0.0
O208 O 0.14064 0.09481 0.58308 0.0
O209 O 0.20597 0.11033 0.61373 0.0
O210 O 0.18687 0.18198 0.56606 0.0
O211 O 0.15301 0.12974 0.63775 0.0
O212 O 0.12467 0.19707 0.59283 0.0
O213 O 0.19249 0.22469 0.61318 0.0
O214 O 0.11857 0.14804 0.61016 0.0
O215 O 0.18338 0.16443 0.63949 0.0
O216 O 0.16768 0.23865 0.59192 0.0
O217 O 0.17535 0.0767 0.61065 0.0
O218 O 0.14361 0.14292 0.5648 0.0
O219 O 0.21342 0.17089 0.58662 0.0
Sc220 Sc 0.83604 0.16449 0.89948 0.0
Sc221 Sc 0.79294 0.14258 0.8695 0.0
Sc222 Sc 0.84156 0.08965 0.87063 0.0
O223 O 0.82338 0.13215 0.87988 0.0
C224 C 0.87791 0.15288 0.87521 0.0
C225 C 0.80915 0.2231 0.87593 0.0
C226 C 0.82193 0.12343 0.83459 0.0
C227 C 0.78659 0.1556 0.91221 0.0
C228 C 0.85291 0.08543 0.912 0.0
C229 C 0.79242 0.0563 0.86994 0.0
O230 O 0.86559 0.17447 0.88415 0.0
O231 O 0.7991 0.19979 0.86621 0.0
O232 O 0.83744 0.10786 0.84327 0.0
O233 O 0.80718 0.15687 0.91585 0.0
O234 O 0.8475 0.06888 0.89749 0.0
O235 O 0.78276 0.08684 0.87151 0.0
O236 O 0.85143 0.11982 0.9137 0.0
O237 O 0.77901 0.15246 0.89612 0.0
O238 O 0.81337 0.0533 0.8687 0.0
O239 O 0.82214 0.21406 0.88872 0.0
O240 O 0.87206 0.12053 0.87114 0.0
O241 O 0.80415 0.1348 0.84195 0.0
Sc242 Sc 0.14983 0.9091 0.36753 0.0
Sc243 Sc 0.19416 0.84915 0.37359 0.0
Sc244 Sc 0.14251 0.82883 0.39209 0.0
O245 O 0.16217 0.86241 0.37769 0.0
C246 C 0.12685 0.90735 0.40571 0.0
C247 C 0.19864 0.93304 0.38067 0.0
C248 C 0.1855 0.82176 0.41421 0.0
C249 C 0.18068 0.88493 0.33569 0.0
C250 C 0.11007 0.85212 0.36116 0.0
C251 C 0.1734 0.77226 0.37022 0.0
O252 O 0.1374 0.92498 0.39363 0.0
O253 O 0.20556 0.90089 0.38389 0.0
O254 O 0.16499 0.82911 0.41451 0.0
O255 O 0.16189 0.89674 0.34083 0.0
O256 O 0.11868 0.82662 0.37049 0.0
O257 O 0.1854 0.79656 0.36282 0.0
O258 O 0.1184 0.88405 0.36034 0.0
O259 O 0.19453 0.87041 0.34647 0.0
O260 O 0.15844 0.77991 0.38182 0.0
O261 O 0.17975 0.93943 0.37359 0.0
O262 O 0.12486 0.87283 0.4053 0.0
O263 O 0.19747 0.82479 0.40009 0.0
Sc264 Sc 0.14138 0.08417 0.87445 0.0
Sc265 Sc 0.1904 0.13631 0.87572 0.0
Sc266 Sc 0.14605 0.15825 0.90465 0.0
O267 O 0.15932 0.12617 0.88498 0.0
C268 C 0.10518 0.14772 0.87826 0.0
C269 C 0.16405 0.11816 0.83933 0.0
C270 C 0.17336 0.21719 0.88187 0.0
C271 C 0.18996 0.04952 0.87572 0.0
C272 C 0.12819 0.0791 0.91598 0.0
C273 C 0.19546 0.1481 0.91851 0.0
O274 O 0.11172 0.11682 0.87252 0.0
O275 O 0.18032 0.13205 0.84783 0.0
O276 O 0.15881 0.20842 0.89354 0.0
O277 O 0.16898 0.04654 0.87491 0.0
O278 O 0.13175 0.11273 0.9189 0.0
O279 O 0.20351 0.14247 0.90278 0.0
O280 O 0.13192 0.06405 0.90074 0.0
O281 O 0.19973 0.08009 0.87647 0.0
O282 O 0.17488 0.15279 0.9214 0.0
O283 O 0.14876 0.10026 0.84713 0.0
O284 O 0.11624 0.16684 0.88943 0.0
O285 O 0.18525 0.19386 0.87371 0.0
Sc286 Sc 0.84908 0.81565 0.3897 0.0
Sc287 Sc 0.79714 0.846 0.37538 0.0
Sc288 Sc 0.84391 0.90109 0.36812 0.0
O289 O 0.83016 0.85425 0.37754 0.0
C290 C 0.86709 0.89031 0.40657 0.0
C291 C 0.80641 0.81994 0.41504 0.0
C292 C 0.7974 0.93233 0.38074 0.0
C293 C 0.81564 0.7644 0.36987 0.0
C294 C 0.88201 0.84357 0.35881 0.0
C295 C 0.81048 0.87542 0.33665 0.0
O296 O 0.86355 0.85615 0.40717 0.0
O297 O 0.79443 0.83841 0.40422 0.0
O298 O 0.81813 0.93617 0.37861 0.0
O299 O 0.83564 0.77124 0.37402 0.0
O300 O 0.87207 0.87369 0.35631 0.0
O301 O 0.79882 0.8545 0.34664 0.0
O302 O 0.87552 0.82014 0.37033 0.0
O303 O 0.80042 0.78819 0.37102 0.0
O304 O 0.82653 0.89472 0.34264 0.0
O305 O 0.82509 0.80662 0.4107 0.0
O306 O 0.86173 0.9103 0.39314 0.0
O307 O 0.78782 0.9018 0.37917 0.0
Sc308 Sc 0.14449 0.8091 0.09312 0.0
Sc309 Sc 0.19693 0.83915 0.10775 0.0
Sc310 Sc 0.14981 0.89378 0.11498 0.0
O311 O 0.1638 0.84726 0.10535 0.0
C312 C 0.12486 0.88421 0.07763 0.0
C313 C 0.18685 0.81187 0.0675 0.0
C314 C 0.19651 0.92479 0.1012 0.0
C315 C 0.17943 0.75783 0.11334 0.0
C316 C 0.11263 0.83399 0.12464 0.0
C317 C 0.1833 0.87179 0.14635 0.0
O318 O 0.12607 0.8496 0.07813 0.0
O319 O 0.20005 0.82356 0.07967 0.0
O320 O 0.17661 0.9289 0.10642 0.0
O321 O 0.16083 0.76313 0.10568 0.0
O322 O 0.12074 0.86599 0.12519 0.0
O323 O 0.19643 0.8543 0.13598 0.0
O324 O 0.12066 0.80894 0.11473 0.0
O325 O 0.19352 0.78311 0.11561 0.0
O326 O 0.16538 0.88643 0.14086 0.0
O327 O 0.16642 0.80582 0.07038 0.0
O328 O 0.13376 0.90455 0.08955 0.0
O329 O 0.20565 0.89374 0.10019 0.0
Sc330 Sc 0.83887 0.18451 0.5765 0.0
Sc331 Sc 0.80038 0.16842 0.6114 0.0
Sc332 Sc 0.84705 0.11147 0.60683 0.0
O333 O 0.82873 0.15475 0.59819 0.0
C334 C 0.85278 0.10466 0.56398 0.0
C335 C 0.78677 0.17775 0.57001 0.0
C336 C 0.79833 0.08099 0.61168 0.0
C337 C 0.81903 0.24729 0.60146 0.0
C338 C 0.88377 0.17165 0.59848 0.0
C339 C 0.83179 0.14823 0.64407 0.0
O340 O 0.84686 0.13714 0.5607 0.0
O341 O 0.78168 0.17173 0.58651 0.0
O342 O 0.81859 0.07595 0.60761 0.0
O343 O 0.83176 0.23641 0.58885 0.0
O344 O 0.87691 0.14349 0.60687 0.0
O345 O 0.81655 0.16764 0.63724 0.0
O346 O 0.87211 0.18875 0.58686 0.0
O347 O 0.8069 0.22588 0.61062 0.0
O348 O 0.84294 0.12514 0.63504 0.0
O349 O 0.80654 0.1829 0.56461 0.0
O350 O 0.85413 0.09168 0.57991 0.0
O351 O 0.79005 0.11244 0.61422 0.0
H352 H 0.3332 0.19808 0.08471 0.0
H353 H 0.3161 0.13758 0.08347 0.0
H354 H 0.27049 0.16867 0.12577 0.0
H355 H 0.28739 0.22913 0.12716 0.0
H356 H 0.28916 0.09377 0.12778 0.0
H357 H 0.25152 0.13054 0.06114 0.0
H358 H 0.28098 0.13645 0.06347 0.0
H359 H 0.2625 0.1644 0.07651 0.0
C360 C 0.31992 0.19178 0.09409 0.0
C361 C 0.31152 0.21859 0.10592 0.0
C362 C 0.31006 0.15729 0.09324 0.0
C363 C 0.29181 0.14902 0.1043 0.0
C364 C 0.28448 0.1747 0.11705 0.0
H365 H 0.18383 0.9967 0.10174 0.0
H366 H 0.20801 0.05029 0.10106 0.0
C367 C 0.29418 0.20922 0.11782 0.0
C368 C 0.27923 0.1148 0.10176 0.0
H369 H 0.2427 0.07278 0.0731 0.0
C370 C 0.27918 0.08893 0.11577 0.0
C371 C 0.266 0.10898 0.08614 0.0
C372 C 0.26502 0.13656 0.07095 0.0
C373 C 0.26615 0.05731 0.1146 0.0
C374 C 0.2529 0.05154 0.09901 0.0
C375 C 0.253 0.07732 0.08496 0.0
C376 C 0.2382 0.01943 0.09747 0.0
C377 C 0.26615 0.03068 0.13022 0.0
C378 C 0.24718 0.98457 0.09507 0.0
C379 C 0.23345 0.95392 0.09532 0.0
C380 C 0.21045 0.95756 0.0981 0.0
C381 C 0.20143 0.99281 0.09965 0.0
C382 C 0.21521 0.02348 0.09928 0.0
H383 H 0.27476 0.04174 0.14237 0.0
H384 H 0.24891 0.0234 0.13403 0.0
H385 H 0.27469 0.00527 0.12599 0.0
H386 H 0.26489 0.98102 0.09347 0.0
H387 H 0.24102 0.92729 0.09403 0.0
H388 H 0.69564 0.77768 0.64464 0.0
H389 H 0.70978 0.83936 0.64965 0.0
H390 H 0.6908 0.86874 0.59504 0.0
H391 H 0.67571 0.8081 0.59033 0.0
H392 H 0.74348 0.86488 0.63318 0.0
H393 H 0.67544 0.96081 0.6195 0.0
H394 H 0.67051 0.9128 0.62293 0.0
H395 H 0.67796 0.92995 0.60078 0.0
C396 C 0.69377 0.79774 0.63395 0.0
C397 C 0.68459 0.78799 0.61708 0.0
C398 C 0.70193 0.83296 0.6368 0.0
C399 C 0.70129 0.85892 0.62277 0.0
C400 C 0.69098 0.84973 0.60629 0.0
H401 H 0.80385 0.01244 0.59775 0.0
H402 H 0.77972 0.95961 0.60196 0.0
C403 C 0.68242 0.81481 0.60357 0.0
C404 C 0.71415 0.89335 0.62428 0.0
H405 H 0.71268 0.98393 0.61381 0.0
C406 C 0.73657 0.89103 0.62929 0.0
C407 C 0.70521 0.92769 0.61949 0.0
C408 C 0.68089 0.93297 0.61559 0.0
C409 C 0.75049 0.92159 0.6288 0.0
C410 C 0.74202 0.95518 0.62241 0.0
C411 C 0.71935 0.958 0.6183 0.0
C412 C 0.75645 0.98745 0.61957 0.0
C413 C 0.77412 0.91743 0.63519 0.0
C414 C 0.75091 0.02113 0.62737 0.0
C415 C 0.76438 0.05159 0.6246 0.0
C416 C 0.78378 0.0489 0.61408 0.0
C417 C 0.78919 0.01526 0.60611 0.0
C418 C 0.77549 0.98496 0.60864 0.0
H419 H 0.77565 0.89505 0.64528 0.0
H420 H 0.7848 0.9104 0.62343 0.0
H421 H 0.78042 0.94295 0.64144 0.0
H422 H 0.73625 0.0238 0.63576 0.0
H423 H 0.75979 0.07711 0.63097 0.0
H424 H 0.28067 0.74185 0.84573 0.0
H425 H 0.26396 0.80234 0.84435 0.0
H426 H 0.30925 0.84041 0.8855 0.0
H427 H 0.32607 0.77995 0.88708 0.0
H428 H 0.26325 0.84694 0.89414 0.0
H429 H 0.28284 0.90492 0.8263 0.0
H430 H 0.27319 0.85855 0.82611 0.0
H431 H 0.29922 0.8693 0.83665 0.0
C432 C 0.28753 0.76331 0.85413 0.0
C433 C 0.30455 0.7559 0.86667 0.0
C434 C 0.278 0.79793 0.85326 0.0
C435 C 0.28538 0.82573 0.86484 0.0
C436 C 0.30337 0.81922 0.87644 0.0
H437 H 0.23505 0.04582 0.87323 0.0
H438 H 0.2581 0.99151 0.87086 0.0
C439 C 0.31302 0.78466 0.87725 0.0
C440 C 0.27244 0.85972 0.86658 0.0
H441 H 0.25425 0.93419 0.8432 0.0
C442 C 0.2614 0.8662 0.88306 0.0
C443 C 0.27008 0.88461 0.85208 0.0
C444 C 0.28209 0.87929 0.83431 0.0
C445 C 0.24773 0.89672 0.88533 0.0
C446 C 0.24494 0.92114 0.87069 0.0
C447 C 0.2563 0.91509 0.85432 0.0
C448 C 0.23071 0.95369 0.87229 0.0
C449 C 0.23646 0.9028 0.90338 0.0
C450 C 0.20763 0.95025 0.87388 0.0
C451 C 0.19429 0.9813 0.87522 0.0
C452 C 0.20387 0.01627 0.87502 0.0
C453 C 0.22706 0.01939 0.87352 0.0
C454 C 0.24031 0.9884 0.87208 0.0
H455 H 0.24359 0.88539 0.91425 0.0
H456 H 0.23785 0.9318 0.90756 0.0
H457 H 0.2186 0.89618 0.90207 0.0
H458 H 0.19995 0.92356 0.87392 0.0
H459 H 0.17652 0.9779 0.87631 0.0
H460 H 0.80901 0.99751 0.39647 0.0
H461 H 0.7857 0.05181 0.39996 0.0
H462 H 0.73157 0.99548 0.37385 0.0
H463 H 0.75423 0.94093 0.37133 0.0
H464 H 0.76917 0.09349 0.37606 0.0
H465 H 0.69816 0.03864 0.41434 0.0
H466 H 0.72337 0.01301 0.41132 0.0
H467 H 0.70216 0.01256 0.39404 0.0
C468 C 0.79201 0.99662 0.39179 0.0
C469 C 0.78339 0.96486 0.3838 0.0
C470 C 0.77869 0.02763 0.39376 0.0
C471 C 0.75663 0.02763 0.38754 0.0
C472 C 0.74816 0.99592 0.37944 0.0
H473 H 0.69136 0.22585 0.35307 0.0
H474 H 0.70927 0.1661 0.35473 0.0
C475 C 0.76125 0.96476 0.37785 0.0
C476 C 0.74306 0.0615 0.38808 0.0
H477 H 0.6913 0.09413 0.39756 0.0
C478 C 0.75224 0.09365 0.381 0.0
C479 C 0.72105 0.06215 0.39481 0.0
C480 C 0.71075 0.0298 0.40424 0.0
C481 C 0.73992 0.12599 0.37996 0.0
C482 C 0.71736 0.12585 0.38532 0.0
C483 C 0.70838 0.09407 0.39298 0.0
C484 C 0.70312 0.15873 0.3835 0.0
C485 C 0.75149 0.1601 0.37347 0.0
C486 C 0.6919 0.17288 0.39868 0.0
C487 C 0.68086 0.20634 0.39753 0.0
C488 C 0.68115 0.22634 0.38126 0.0
C489 C 0.69102 0.21099 0.36578 0.0
C490 C 0.70153 0.17714 0.36681 0.0
H491 H 0.76967 0.15851 0.37573 0.0
H492 H 0.74874 0.16333 0.35865 0.0
H493 H 0.74512 0.18471 0.38052 0.0
H494 H 0.69267 0.15904 0.41166 0.0
H495 H 0.67357 0.21778 0.40972 0.0
H496 H 0.80594 0.98483 0.86943 0.0
H497 H 0.7826 0.93044 0.86697 0.0
H498 H 0.72421 0.99798 0.86567 0.0
H499 H 0.74722 0.05244 0.86808 0.0
H500 H 0.74718 0.90982 0.89144 0.0
H501 H 0.71838 0.93 0.82038 0.0
H502 H 0.74262 0.95246 0.82945 0.0
H503 H 0.71546 0.96864 0.83523 0.0
C504 C 0.78814 0.98817 0.86859 0.0
C505 C 0.7785 0.02307 0.86892 0.0
C506 C 0.77486 0.95708 0.86717 0.0
C507 C 0.75175 0.96035 0.86587 0.0
C508 C 0.74204 0.99499 0.86634 0.0
H509 H 0.65618 0.7883 0.88561 0.0
H510 H 0.67341 0.84828 0.88258 0.0
C511 C 0.75526 0.02606 0.86786 0.0
C512 C 0.73771 0.92744 0.86467 0.0
H513 H 0.70178 0.88172 0.83695 0.0
C514 C 0.73724 0.90364 0.87955 0.0
C515 C 0.72488 0.91954 0.84907 0.0
C516 C 0.7254 0.94378 0.83253 0.0
C517 C 0.72412 0.87213 0.87932 0.0
C518 C 0.71102 0.86448 0.86384 0.0
C519 C 0.71163 0.88806 0.84886 0.0
C520 C 0.69766 0.83084 0.86278 0.0
C521 C 0.72463 0.84684 0.89549 0.0
C522 C 0.70484 0.8019 0.85186 0.0
C523 C 0.69506 0.76757 0.85353 0.0
C524 C 0.6779 0.76171 0.86616 0.0
C525 C 0.66941 0.79173 0.87582 0.0
C526 C 0.67929 0.82602 0.87418 0.0
H527 H 0.73835 0.85351 0.905 0.0
H528 H 0.70876 0.84908 0.90302 0.0
H529 H 0.72649 0.8181 0.891 0.0
H530 H 0.71894 0.80527 0.8429 0.0
H531 H 0.70188 0.74516 0.84574 0.0
H532 H 0.18798 0.00543 0.38164 0.0
H533 H 0.2133 0.0573 0.38309 0.0
H534 H 0.2688 0.98408 0.38796 0.0
H535 H 0.24357 0.93176 0.38657 0.0
H536 H 0.2481 0.07556 0.41088 0.0
H537 H 0.27966 0.04933 0.34091 0.0
H538 H 0.25366 0.03086 0.34884 0.0
H539 H 0.27928 0.01195 0.35677 0.0
C540 C 0.20554 0.00025 0.38323 0.0
C541 C 0.21373 0.96436 0.38386 0.0
C542 C 0.21997 0.02996 0.38408 0.0
C543 C 0.24289 0.02445 0.38542 0.0
C544 C 0.25115 0.98882 0.38677 0.0
H545 H 0.33362 0.21113 0.39772 0.0
H546 H 0.31932 0.14865 0.39937 0.0
C547 C 0.23668 0.95899 0.38607 0.0
C548 C 0.25803 0.05618 0.38453 0.0
H549 H 0.29244 0.10217 0.35566 0.0
C550 C 0.25809 0.08117 0.39895 0.0
C551 C 0.27083 0.06344 0.36885 0.0
C552 C 0.27091 0.0377 0.35286 0.0
C553 C 0.27027 0.11374 0.39794 0.0
C554 C 0.28271 0.12136 0.38209 0.0
C555 C 0.28303 0.096 0.36783 0.0
C556 C 0.29354 0.1572 0.37942 0.0
C557 C 0.26899 0.14056 0.41345 0.0
C558 C 0.28435 0.18211 0.36711 0.0
C559 C 0.29242 0.21774 0.36614 0.0
C560 C 0.30999 0.22908 0.37737 0.0
C561 C 0.32013 0.20329 0.38884 0.0
C562 C 0.31189 0.16766 0.38991 0.0
H563 H 0.25642 0.13258 0.42374 0.0
H564 H 0.28536 0.14223 0.42027 0.0
H565 H 0.26487 0.16818 0.40829 0.0
H566 H 0.27024 0.17447 0.35884 0.0
H567 H 0.2843 0.2368 0.35709 0.0
H568 H 0.75532 0.92471 0.09502 0.0
H569 H 0.73119 0.97796 0.09331 0.0
H570 H 0.78788 0.04866 0.09849 0.0
H571 H 0.8123 0.99554 0.10025 0.0
H572 H 0.72835 0.03192 0.12166 0.0
H573 H 0.75188 0.09121 0.05496 0.0
H574 H 0.75739 0.04428 0.06089 0.0
H575 H 0.77472 0.08003 0.06962 0.0
C576 C 0.76279 0.95153 0.09552 0.0
C577 C 0.78582 0.95576 0.09784 0.0
C578 C 0.74891 0.98193 0.09458 0.0
C579 C 0.75777 0.01716 0.09568 0.0
C580 C 0.78076 0.02164 0.09739 0.0
H581 H 0.70814 0.22413 0.12757 0.0
H582 H 0.72345 0.16262 0.12594 0.0
C583 C 0.79468 0.99122 0.09846 0.0
C584 C 0.74284 0.04915 0.09634 0.0
H585 H 0.73021 0.12859 0.07457 0.0
C586 C 0.72857 0.0529 0.11128 0.0
C587 C 0.74302 0.07621 0.08268 0.0
C588 C 0.75742 0.07274 0.06603 0.0
C589 C 0.71508 0.0838 0.11329 0.0
C590 C 0.71598 0.11161 0.10004 0.0
C591 C 0.72961 0.1072 0.08473 0.0
C592 C 0.70425 0.1467 0.10243 0.0
C593 C 0.70015 0.08672 0.12966 0.0
C594 C 0.68806 0.15788 0.08993 0.0
C595 C 0.67911 0.19302 0.09091 0.0
C596 C 0.68655 0.21772 0.10421 0.0
C597 C 0.70206 0.20577 0.11717 0.0
C598 C 0.71079 0.17059 0.1163 0.0
H599 H 0.69709 0.05966 0.13596 0.0
H600 H 0.70815 0.10445 0.13997 0.0
H601 H 0.684 0.09914 0.12594 0.0
H602 H 0.6829 0.13982 0.07907 0.0
H603 H 0.66737 0.20149 0.08061 0.0
H604 H 0.18899 0.01323 0.59696 0.0
H605 H 0.21269 0.95922 0.59891 0.0
H606 H 0.25731 0.01729 0.63448 0.0
H607 H 0.23437 0.07177 0.63173 0.0
H608 H 0.28026 0.98197 0.61121 0.0
H609 H 0.21768 0.88675 0.63847 0.0
H610 H 0.20868 0.90551 0.61726 0.0
H611 H 0.21254 0.93499 0.63661 0.0
C612 C 0.2038 0.0143 0.60526 0.0
C613 C 0.20984 0.0466 0.61421 0.0
C614 C 0.21725 0.98337 0.6065 0.0
C615 C 0.23656 0.98387 0.61719 0.0
C616 C 0.24249 0.01615 0.62619 0.0
H617 H 0.29991 0.77456 0.63783 0.0
H618 H 0.28341 0.83457 0.64303 0.0
C619 C 0.22936 0.04726 0.62461 0.0
C620 C 0.25107 0.95129 0.61845 0.0
H621 H 0.25041 0.85962 0.62588 0.0
C622 C 0.27377 0.95528 0.61466 0.0
C623 C 0.24281 0.91658 0.62339 0.0
C624 C 0.21915 0.91078 0.62937 0.0
C625 C 0.28824 0.92537 0.61506 0.0
C626 C 0.27963 0.8902 0.6186 0.0
C627 C 0.25708 0.88645 0.62299 0.0
C628 C 0.2932 0.85659 0.61692 0.0
C629 C 0.31261 0.93204 0.6119 0.0
C630 C 0.30493 0.84935 0.60083 0.0
C631 C 0.31494 0.81548 0.5981 0.0
C632 C 0.31277 0.78782 0.61116 0.0
C633 C 0.30184 0.79548 0.62756 0.0
C634 C 0.29233 0.82968 0.63049 0.0
H635 H 0.31749 0.95974 0.61652 0.0
H636 H 0.32304 0.91172 0.61908 0.0
H637 H 0.31613 0.9304 0.59712 0.0
H638 H 0.30531 0.86906 0.5899 0.0
H639 H 0.32292 0.81009 0.58519 0.0
H640 H 0.7857 0.73392 0.13224 0.0
H641 H 0.77071 0.67247 0.13403 0.0
H642 H 0.82588 0.63188 0.10279 0.0
H643 H 0.84092 0.69372 0.10062 0.0
H644 H 0.78585 0.61412 0.08791 0.0
H645 H 0.78517 0.57963 0.16102 0.0
H646 H 0.77289 0.62329 0.15675 0.0
H647 H 0.80182 0.61622 0.15191 0.0
C648 C 0.795 0.71186 0.12612 0.0
C649 C 0.81444 0.71887 0.11615 0.0
C650 C 0.78645 0.67661 0.12727 0.0
C651 C 0.79724 0.6475 0.11865 0.0
C652 C 0.81735 0.65396 0.1096 0.0
H653 H 0.74446 0.42937 0.09625 0.0
H654 H 0.76883 0.48241 0.09821 0.0
C655 C 0.82597 0.68932 0.10846 0.0
C656 C 0.78597 0.61169 0.11716 0.0
H657 H 0.75965 0.54621 0.14207 0.0
C658 C 0.78047 0.59888 0.09974 0.0
C659 C 0.77885 0.59199 0.13261 0.0
C660 C 0.78519 0.6033 0.15161 0.0
C661 C 0.7672 0.56782 0.09738 0.0
C662 C 0.75944 0.54889 0.11285 0.0
C663 C 0.76548 0.56102 0.13025 0.0
C664 C 0.74456 0.51696 0.11127 0.0
C665 C 0.7608 0.55634 0.0784 0.0
C666 C 0.72287 0.51881 0.11804 0.0
C667 C 0.70884 0.48857 0.11694 0.0
C668 C 0.71632 0.45574 0.10917 0.0
C669 C 0.73807 0.45418 0.10226 0.0
C670 C 0.75205 0.48449 0.10333 0.0
H671 H 0.76445 0.57788 0.06822 0.0
H672 H 0.77027 0.53157 0.07461 0.0
H673 H 0.74289 0.54958 0.07772 0.0
H674 H 0.71681 0.54369 0.12423 0.0
H675 H 0.69227 0.49078 0.12246 0.0
H676 H 0.25705 0.57798 0.59697 0.0
H677 H 0.23373 0.52371 0.59698 0.0
H678 H 0.29169 0.4558 0.60193 0.0
H679 H 0.31535 0.51002 0.6018 0.0
H680 H 0.25956 0.43072 0.57629 0.0
H681 H 0.22241 0.46328 0.64348 0.0
H682 H 0.22056 0.499 0.62685 0.0
H683 H 0.24722 0.48519 0.6352 0.0
C684 C 0.26494 0.55155 0.59798 0.0
C685 C 0.28811 0.54842 0.59959 0.0
C686 C 0.25153 0.52058 0.59805 0.0
C687 C 0.26099 0.48591 0.59982 0.0
C688 C 0.28411 0.48245 0.60069 0.0
H689 H 0.20729 0.27908 0.63039 0.0
H690 H 0.22433 0.33937 0.62937 0.0
C691 C 0.29759 0.51345 0.6006 0.0
C692 C 0.24669 0.45331 0.60113 0.0
H693 H 0.20771 0.41236 0.62784 0.0
C694 C 0.24816 0.42669 0.58751 0.0
C695 C 0.23204 0.44813 0.61591 0.0
C696 C 0.23052 0.47521 0.6313 0.0
C697 C 0.23527 0.3949 0.58825 0.0
C698 C 0.22035 0.39001 0.60289 0.0
C699 C 0.21894 0.41657 0.61653 0.0
C700 C 0.20734 0.35615 0.60489 0.0
C701 C 0.23817 0.36634 0.57366 0.0
C702 C 0.1913 0.34648 0.59198 0.0
C703 C 0.18144 0.31203 0.59253 0.0
C704 C 0.18755 0.28673 0.606 0.0
C705 C 0.20235 0.29773 0.61973 0.0
C706 C 0.21213 0.33218 0.61918 0.0
H707 H 0.25332 0.37106 0.56542 0.0
H708 H 0.23912 0.33868 0.57973 0.0
H709 H 0.22366 0.36697 0.5644 0.0
H710 H 0.18711 0.36499 0.58104 0.0
H711 H 0.17005 0.30455 0.58179 0.0
H712 H 0.73424 0.5537 0.88548 0.0
H713 H 0.75756 0.49941 0.88512 0.0
H714 H 0.69942 0.43134 0.88256 0.0
H715 H 0.67579 0.4855 0.88304 0.0
H716 H 0.73316 0.40656 0.90698 0.0
H717 H 0.76578 0.43856 0.83815 0.0
H718 H 0.76864 0.47433 0.85467 0.0
H719 H 0.7415 0.46042 0.84745 0.0
C720 C 0.72632 0.52722 0.885 0.0
C721 C 0.7031 0.52403 0.88407 0.0
C722 C 0.73972 0.49625 0.88472 0.0
C723 C 0.73019 0.46153 0.88344 0.0
C724 C 0.70705 0.45802 0.88341 0.0
H725 H 0.78122 0.25373 0.85086 0.0
H726 H 0.7642 0.31399 0.85249 0.0
C727 C 0.69359 0.48901 0.8837 0.0
C728 C 0.74435 0.4289 0.88156 0.0
H729 H 0.78108 0.38728 0.85301 0.0
C730 C 0.74372 0.40235 0.89524 0.0
C731 C 0.75788 0.42346 0.8661 0.0
C732 C 0.75844 0.45049 0.85065 0.0
C733 C 0.75633 0.37036 0.89388 0.0
C734 C 0.77011 0.36519 0.87854 0.0
C735 C 0.7707 0.39169 0.86484 0.0
C736 C 0.78292 0.33127 0.87602 0.0
C737 C 0.75436 0.34191 0.90862 0.0
C738 C 0.79987 0.3219 0.88815 0.0
C739 C 0.80972 0.28751 0.88725 0.0
C740 C 0.80271 0.26191 0.8742 0.0
C741 C 0.78692 0.2726 0.86118 0.0
C742 C 0.77713 0.30702 0.86209 0.0
H743 H 0.73981 0.3468 0.91754 0.0
H744 H 0.75291 0.31421 0.90265 0.0
H745 H 0.76947 0.3425 0.9172 0.0
H746 H 0.80484 0.34063 0.89878 0.0
H747 H 0.82193 0.28036 0.89743 0.0
H748 H 0.30383 0.5033 0.38857 0.0
H749 H 0.28038 0.55779 0.38784 0.0
H750 H 0.23006 0.49735 0.35898 0.0
H751 H 0.25274 0.44244 0.36094 0.0
H752 H 0.26695 0.59693 0.36217 0.0
H753 H 0.19123 0.54349 0.39471 0.0
H754 H 0.2167 0.51796 0.39432 0.0
H755 H 0.19813 0.51693 0.37511 0.0
C756 C 0.28758 0.50164 0.38238 0.0
C757 C 0.27994 0.46862 0.37505 0.0
C758 C 0.2742 0.53277 0.38189 0.0
C759 C 0.25313 0.53172 0.37368 0.0
C760 C 0.24576 0.49877 0.36604 0.0
H761 H 0.193 0.73951 0.34078 0.0
H762 H 0.21027 0.67908 0.33999 0.0
C763 C 0.25883 0.4674 0.36704 0.0
C764 C 0.23946 0.56548 0.37231 0.0
H765 H 0.18729 0.59947 0.37843 0.0
C766 C 0.24958 0.5975 0.3659 0.0
C767 C 0.2168 0.5666 0.37735 0.0
C768 C 0.20518 0.53449 0.38594 0.0
C769 C 0.23784 0.63042 0.36448 0.0
C770 C 0.21489 0.63104 0.36858 0.0
C771 C 0.20475 0.599 0.37494 0.0
C772 C 0.20151 0.66518 0.3677 0.0
C773 C 0.25054 0.66435 0.35933 0.0
C774 C 0.1891 0.67623 0.38288 0.0
C775 C 0.17836 0.70993 0.38301 0.0
C776 C 0.18018 0.73373 0.36812 0.0
C777 C 0.19148 0.72185 0.35251 0.0
C778 C 0.20165 0.68755 0.35217 0.0
H779 H 0.26853 0.6614 0.36219 0.0
H780 H 0.24868 0.66933 0.34454 0.0
H781 H 0.24436 0.68857 0.36682 0.0
H782 H 0.18853 0.65953 0.39501 0.0
H783 H 0.16991 0.71833 0.39531 0.0
H784 H 0.30586 0.47855 0.87734 0.0
H785 H 0.28173 0.42496 0.87859 0.0
H786 H 0.22477 0.49446 0.88545 0.0
H787 H 0.24854 0.54812 0.88416 0.0
H788 H 0.25043 0.40241 0.90616 0.0
H789 H 0.21079 0.43227 0.83957 0.0
H790 H 0.2364 0.45338 0.84667 0.0
H791 H 0.21048 0.46883 0.85584 0.0
C792 C 0.28823 0.48248 0.87926 0.0
C793 C 0.27915 0.5177 0.88045 0.0
C794 C 0.27449 0.45184 0.87996 0.0
C795 C 0.25149 0.45595 0.88178 0.0
C796 C 0.24246 0.49087 0.8837 0.0
H797 H 0.16118 0.2749 0.90331 0.0
H798 H 0.17738 0.33604 0.90303 0.0
C799 C 0.25613 0.52147 0.88302 0.0
C800 C 0.23688 0.4237 0.88131 0.0
H801 H 0.19707 0.38162 0.85588 0.0
C802 C 0.23867 0.39788 0.89525 0.0
C803 C 0.22172 0.41796 0.86693 0.0
C804 C 0.21976 0.44436 0.8513 0.0
C805 C 0.2257 0.36617 0.89516 0.0
C806 C 0.21044 0.36053 0.88085 0.0
C807 C 0.20859 0.38642 0.86694 0.0
C808 C 0.19773 0.32629 0.87934 0.0
C809 C 0.22894 0.33839 0.91006 0.0
C810 C 0.20294 0.30151 0.86551 0.0
C811 C 0.1937 0.26668 0.86556 0.0
C812 C 0.17904 0.25611 0.87945 0.0
C813 C 0.17248 0.28209 0.89246 0.0
C814 C 0.18182 0.31694 0.89241 0.0
H815 H 0.24403 0.34393 0.91825 0.0
H816 H 0.21441 0.33894 0.9193 0.0
H817 H 0.23021 0.31051 0.90426 0.0
H818 H 0.21508 0.30844 0.85523 0.0
H819 H 0.19894 0.24747 0.85524 0.0
H820 H 0.77701 0.74169 0.35435 0.0
H821 H 0.76267 0.67964 0.35302 0.0
H822 H 0.82424 0.63878 0.37459 0.0
H823 H 0.83877 0.70113 0.37621 0.0
H824 H 0.77754 0.61342 0.33671 0.0
H825 H 0.77698 0.6076 0.41235 0.0
H826 H 0.7808 0.64973 0.4001 0.0
H827 H 0.80308 0.6175 0.40167 0.0
C828 C 0.7877 0.71953 0.35855 0.0
C829 C 0.80895 0.72646 0.36563 0.0
C830 C 0.77946 0.68404 0.35774 0.0
C831 C 0.79223 0.65477 0.36405 0.0
C832 C 0.814 0.66116 0.36995 0.0
H833 H 0.7412 0.43502 0.38608 0.0
H834 H 0.76598 0.48749 0.38317 0.0
C835 C 0.82233 0.69677 0.37072 0.0
C836 C 0.78188 0.61829 0.36563 0.0
H837 H 0.76136 0.55808 0.39677 0.0
C838 C 0.77422 0.60107 0.34981 0.0
C839 C 0.77756 0.6023 0.38277 0.0
C840 C 0.78486 0.62021 0.40025 0.0
C841 C 0.76194 0.56862 0.3507 0.0
C842 C 0.75683 0.55346 0.36787 0.0
C843 C 0.76524 0.56989 0.38364 0.0
C844 C 0.74181 0.52175 0.36981 0.0
C845 C 0.7544 0.55099 0.33323 0.0
C846 C 0.71983 0.524 0.36371 0.0
C847 C 0.7056 0.49417 0.36538 0.0
C848 C 0.71302 0.46147 0.37331 0.0
C849 C 0.73491 0.45969 0.37987 0.0
C850 C 0.74914 0.48961 0.37818 0.0
H851 H 0.76496 0.55934 0.32158 0.0
H852 H 0.75468 0.5208 0.33432 0.0
H853 H 0.73717 0.55962 0.33025 0.0
H854 H 0.71367 0.54889 0.35763 0.0
H855 H 0.68884 0.4967 0.36027 0.0
H856 H 0.25694 0.43197 0.09241 0.0
H857 H 0.233 0.48548 0.09504 0.0
H858 H 0.28696 0.54666 0.11834 0.0
H859 H 0.31106 0.4934 0.11586 0.0
H860 H 0.24555 0.5483 0.13854 0.0
H861 H 0.2349 0.58201 0.06533 0.0
H862 H 0.22996 0.5354 0.07172 0.0
H863 H 0.25738 0.55399 0.0735 0.0
C864 C 0.26385 0.45691 0.09789 0.0
C865 C 0.28598 0.45828 0.10393 0.0
C866 C 0.25012 0.48748 0.09935 0.0
C867 C 0.25825 0.52 0.10683 0.0
C868 C 0.28039 0.52176 0.11253 0.0
H869 H 0.21627 0.73585 0.13199 0.0
H870 H 0.23256 0.67519 0.13222 0.0
C871 C 0.29417 0.49129 0.11101 0.0
C872 C 0.2435 0.55186 0.10939 0.0
H873 H 0.21497 0.61751 0.08639 0.0
C874 C 0.23878 0.5634 0.12716 0.0
C875 C 0.23454 0.5712 0.09451 0.0
C876 C 0.2395 0.56032 0.07516 0.0
C877 C 0.22548 0.5941 0.13045 0.0
C878 C 0.21707 0.61417 0.11556 0.0
C879 C 0.22135 0.60202 0.09779 0.0
C880 C 0.20539 0.64944 0.11795 0.0
C881 C 0.22052 0.60467 0.14984 0.0
C882 C 0.18449 0.65518 0.11008 0.0
C883 C 0.1751 0.69006 0.10984 0.0
C884 C 0.1866 0.71993 0.11728 0.0
C885 C 0.20692 0.71357 0.12611 0.0
C886 C 0.21626 0.67875 0.12635 0.0
H887 H 0.22161 0.58078 0.15906 0.0
H888 H 0.23291 0.62503 0.15444 0.0
H889 H 0.20377 0.61691 0.15111 0.0
H890 H 0.17585 0.63293 0.10348 0.0
H891 H 0.15947 0.6939 0.10287 0.0
H892 H 0.82126 0.30074 0.57592 0.0
H893 H 0.80782 0.36312 0.57894 0.0
H894 H 0.79651 0.34557 0.6362 0.0
H895 H 0.80884 0.28242 0.63298 0.0
H896 H 0.761 0.36914 0.62157 0.0
H897 H 0.82837 0.45857 0.59752 0.0
H898 H 0.82222 0.42454 0.5808 0.0
H899 H 0.83288 0.41107 0.60269 0.0
C900 C 0.81655 0.31055 0.58926 0.0
C901 C 0.81598 0.28677 0.60421 0.0
C902 C 0.80897 0.34635 0.59101 0.0
C903 C 0.80132 0.35929 0.60784 0.0
C904 C 0.8023 0.33623 0.62306 0.0
H905 H 0.74839 0.57981 0.62097 0.0
H906 H 0.77228 0.52601 0.62159 0.0
C907 C 0.80937 0.3002 0.62123 0.0
C908 C 0.78936 0.39457 0.609 0.0
H909 H 0.79132 0.48397 0.5962 0.0
C910 C 0.76784 0.39434 0.61628 0.0
C911 C 0.79824 0.42763 0.60228 0.0
C912 C 0.82179 0.43054 0.59558 0.0
C913 C 0.75475 0.42581 0.61651 0.0
C914 C 0.76302 0.45818 0.60859 0.0
C915 C 0.78482 0.45891 0.60192 0.0
C916 C 0.7492 0.49142 0.60712 0.0
C917 C 0.73223 0.424 0.62541 0.0
C918 C 0.72859 0.49012 0.5983 0.0
C919 C 0.71476 0.5206 0.59816 0.0
C920 C 0.72152 0.55324 0.60647 0.0
C921 C 0.74267 0.55504 0.61447 0.0
C922 C 0.75636 0.52434 0.61484 0.0
H923 H 0.73143 0.40181 0.63566 0.0
H924 H 0.72798 0.45012 0.63219 0.0
H925 H 0.7195 0.41821 0.61492 0.0
H926 H 0.72303 0.4653 0.59176 0.0
H927 H 0.69872 0.51852 0.59164 0.0
H928 H 0.36654 0.46775 0.0694 0.0
H929 H 0.37365 0.50115 0.04127 0.0
H930 H 0.39759 0.40274 0.01603 0.0
H931 H 0.39047 0.36891 0.04397 0.0
H932 H 0.41243 0.50851 0.01578 0.0
H933 H 0.33952 0.43344 0.98827 0.0
H934 H 0.34547 0.43563 0.01227 0.0
H935 H 0.36136 0.40617 -0.0022 0.0
C936 C 0.37381 0.45331 0.05803 0.0
C937 C 0.37752 0.41547 0.05884 0.0
C938 C 0.37791 0.4725 0.04199 0.0
C939 C 0.3858 0.45419 0.02658 0.0
C940 C 0.39126 0.41716 0.02778 0.0
H941 H 0.37347 0.51891 0.91357 0.0
H942 H 0.38443 0.48619 0.94102 0.0
C943 C 0.38714 0.39791 0.04377 0.0
C944 C 0.38556 0.47259 0.00876 0.0
H945 H 0.3568 0.47542 0.96894 0.0
C946 C 0.40042 0.50121 0.00544 0.0
C947 C 0.3698 0.4629 -0.0046 0.0
C948 C 0.35299 0.43305 -0.00144 0.0
C949 C 0.39989 0.52054 0.98896 0.0
C950 C 0.38378 0.51134 0.97576 0.0
C951 C 0.36922 0.48227 0.97904 0.0
C952 C 0.3806 0.53263 0.95888 0.0
C953 C 0.41663 0.55041 0.98583 0.0
C954 C 0.37508 0.56972 0.95979 0.0
C955 C 0.3689 0.58858 0.94411 0.0
C956 C 0.36778 0.5705 0.92727 0.0
C957 C 0.37401 0.53361 0.92633 0.0
C958 C 0.38036 0.51488 0.94199 0.0
H959 H 0.43178 0.54615 -0.00587 0.0
H960 H 0.42145 0.55209 0.97129 0.0
H961 H 0.40928 0.57691 0.98988 0.0
H962 H 0.37458 0.58374 0.97273 0.0
H963 H 0.3641 0.61691 0.94535 0.0
H964 H 0.60898 0.39303 0.43557 0.0
H965 H 0.60637 0.43175 0.46241 0.0
H966 H 0.63033 0.52335 0.43147 0.0
H967 H 0.63304 0.48494 0.40444 0.0
H968 H 0.64724 0.46554 0.47471 0.0
H969 H 0.5795 0.56606 0.46405 0.0
H970 H 0.58032 0.52264 0.45244 0.0
H971 H 0.59822 0.55898 0.44534 0.0
C972 C 0.61312 0.42164 0.43426 0.0
C973 C 0.6215 0.43571 0.41784 0.0
C974 C 0.6116 0.44371 0.44965 0.0
C975 C 0.61815 0.48032 0.44888 0.0
C976 C 0.62495 0.49522 0.43225 0.0
H977 H 0.64857 0.6441 0.53014 0.0
H978 H 0.64061 0.61099 0.50203 0.0
C979 C 0.62656 0.47313 0.41683 0.0
C980 C 0.62103 0.50116 0.4659 0.0
H981 H 0.60297 0.57553 0.48947 0.0
C982 C 0.63746 0.48944 0.47804 0.0
C983 C 0.60847 0.53257 0.46996 0.0
C984 C 0.59051 0.54584 0.45736 0.0
C985 C 0.64187 0.50854 0.49411 0.0
C986 C 0.62905 0.53967 0.49839 0.0
C987 C 0.61267 0.55154 0.48619 0.0
C988 C 0.63261 0.56022 0.51546 0.0
C989 C 0.66063 0.49574 0.50608 0.0
C990 C 0.6303 0.54283 0.53232 0.0
C991 C 0.63505 0.56149 0.54839 0.0
C992 C 0.64188 0.59814 0.54791 0.0
C993 C 0.64341 0.61588 0.531 0.0
C994 C 0.63883 0.59704 0.51492 0.0
H995 H 0.67255 0.47841 0.49848 0.0
H996 H 0.66979 0.51917 0.512 0.0
H997 H 0.6538 0.4792 0.51739 0.0
H998 H 0.62502 0.51465 0.53306 0.0
H999 H 0.63341 0.54712 0.56117 0.0
H1000 H 0.62806 0.47443 0.0804 0.0
H1001 H 0.61846 0.51494 0.05524 0.0
H1002 H 0.60695 0.42172 0.02079 0.0
H1003 H 0.61596 0.38112 0.04582 0.0
H1004 H 0.64238 0.51788 0.02471 0.0
H1005 H 0.55579 0.48572 0.00642 0.0
H1006 H 0.56784 0.47218 0.02784 0.0
H1007 H 0.57238 0.44529 0.0077 0.0
C1008 C 0.62297 0.4625 0.0676 0.0
C1009 C 0.62293 0.42447 0.06513 0.0
C1010 C 0.61746 0.48573 0.05324 0.0
C1011 C 0.61174 0.47138 0.03619 0.0
C1012 C 0.61075 0.43345 0.03393 0.0
H1013 H 0.61961 0.52886 0.92506 0.0
H1014 H 0.61284 0.50113 0.95472 0.0
C1015 C 0.61613 0.41023 0.04827 0.0
C1016 C 0.60983 0.49558 0.02016 0.0
H1017 H 0.57818 0.51297 0.98269 0.0
C1018 C 0.62813 0.51744 0.01573 0.0
C1019 C 0.59127 0.49482 0.00842 0.0
C1020 C 0.57063 0.4735 0.01294 0.0
C1021 C 0.62889 0.53705 -0.00059 0.0
C1022 C 0.61074 0.53504 0.98732 0.0
C1023 C 0.59208 0.51428 -0.00799 0.0
C1024 C 0.61169 0.55236 0.96923 0.0
C1025 C 0.64957 0.55831 -0.0052 0.0
C1026 C 0.6126 0.59037 0.96757 0.0
C1027 C 0.61653 0.60637 0.95066 0.0
C1028 C 0.61961 0.58456 0.93511 0.0
C1029 C 0.61748 0.5465 0.93673 0.0
C1030 C 0.61353 0.53057 0.95366 0.0
H1031 H 0.66347 0.55208 0.0042 0.0
H1032 H 0.65497 0.55234 0.98069 0.0
H1033 H 0.64598 0.58791 -0.00428 0.0
H1034 H 0.61097 0.60759 0.97945 0.0
H1035 H 0.61788 0.63576 0.94992 0.0
H1036 H 0.37309 0.54908 0.56026 0.0
H1037 H 0.381 0.51719 0.53188 0.0
H1038 H 0.38129 0.61954 0.50311 0.0
H1039 H 0.37318 0.65178 0.53134 0.0
H1040 H 0.35226 0.56803 0.489 0.0
H1041 H 0.43564 0.50797 0.49895 0.0
H1042 H 0.41682 0.49934 0.51735 0.0
H1043 H 0.42537 0.5453 0.51258 0.0
C1044 C 0.37522 0.56495 0.54798 0.0
C1045 C 0.37232 0.60301 0.5481 0.0
C1046 C 0.37993 0.54666 0.53178 0.0
C1047 C 0.38198 0.56608 0.51545 0.0
C1048 C 0.37992 0.60413 0.51561 0.0
H1049 H 0.37329 0.48273 0.40421 0.0
H1050 H 0.38143 0.52316 0.42977 0.0
C1051 C 0.37524 0.62247 0.53179 0.0
C1052 C 0.38352 0.54634 0.49798 0.0
H1053 H 0.41379 0.48309 0.47473 0.0
C1054 C 0.36588 0.54991 0.48571 0.0
C1055 C 0.40125 0.52258 0.49386 0.0
C1056 C 0.42096 0.51874 0.50629 0.0
C1057 C 0.36498 0.52916 0.46975 0.0
C1058 C 0.3825 0.50481 0.46576 0.0
C1059 C 0.40045 0.50192 0.47781 0.0
C1060 C 0.38145 0.48015 0.44988 0.0
C1061 C 0.34472 0.53217 0.45779 0.0
C1062 C 0.38007 0.44241 0.45261 0.0
C1063 C 0.37566 0.41918 0.43803 0.0
C1064 C 0.37248 0.43333 0.42045 0.0
C1065 C 0.37536 0.47096 0.4176 0.0
C1066 C 0.37994 0.49414 0.43219 0.0
H1067 H 0.33077 0.54598 0.46483 0.0
H1068 H 0.34889 0.54833 0.44552 0.0
H1069 H 0.33905 0.50481 0.4533 0.0
H1070 H 0.3813 0.43109 0.46617 0.0
H1071 H 0.37366 0.39035 0.44075 0.0
H1072 H 0.8665 0.11166 0.94488 0.0
H1073 H 0.87668 0.07697 0.97181 0.0
H1074 H 0.86708 0.97654 0.94242 0.0
H1075 H 0.85688 0.01103 0.91518 0.0
H1076 H 0.84635 0.02579 0.98758 0.0
H1077 H 0.92736 0.96281 0.96988 0.0
H1078 H 0.91676 0.0027 0.95839 0.0
H1079 H 0.90557 0.95854 0.95332 0.0
C1080 C 0.86678 0.08221 0.94398 0.0
C1081 C 0.8607 0.06414 0.92785 0.0
C1082 C 0.87269 0.06246 0.9594 0.0
C1083 C 0.87283 0.02431 0.959 0.0
C1084 C 0.86742 0.00604 0.94285 0.0
H1085 H 0.87672 0.85871 0.04128 0.0
H1086 H 0.88083 0.89291 0.01305 0.0
C1087 C 0.86145 0.02581 0.92736 0.0
C1088 C 0.87628 0.00391 0.97605 0.0
H1089 H 0.91071 0.94409 -0.00242 0.0
C1090 C 0.86049 0.00812 0.98984 0.0
C1091 C 0.89465 0.98072 0.97878 0.0
C1092 C 0.9122 0.97596 0.96439 0.0
C1093 C 0.86237 0.9893 0.00629 0.0
C1094 C 0.8809 0.96639 0.00919 0.0
C1095 C 0.8967 0.96204 -0.00464 0.0
C1096 C 0.88326 0.94546 0.02622 0.0
C1097 C 0.84411 0.99327 0.02019 0.0
C1098 C 0.88452 0.96357 0.04298 0.0
C1099 C 0.88194 0.9442 0.05916 0.0
C1100 C 0.87836 0.90632 0.05881 0.0
C1101 C 0.87933 0.88788 0.04205 0.0
C1102 C 0.88169 0.90736 0.02587 0.0
H1103 H 0.82875 0.00469 0.01413 0.0
H1104 H 0.84007 0.96659 0.0265 0.0
H1105 H 0.84965 0.01208 0.03109 0.0
H1106 H 0.88621 0.99295 0.04349 0.0
H1107 H 0.88161 0.95915 0.07185 0.0
H1108 H 0.10883 0.87866 0.43675 0.0
H1109 H 0.10202 0.91047 0.46536 0.0
H1110 H 0.12028 0.01235 0.44031 0.0
H1111 H 0.127 0.98103 0.41162 0.0
H1112 H 0.13667 0.94671 0.48255 0.0
H1113 H 0.06627 0.04063 0.47099 0.0
H1114 H 0.07157 0.0016 0.45665 0.0
H1115 H 0.087 0.04309 0.45354 0.0
C1116 C 0.11084 0.90799 0.43715 0.0
C1117 C 0.11868 0.92723 0.4219 0.0
C1118 C 0.10693 0.92608 0.45353 0.0
C1119 C 0.1105 0.96375 0.4549 0.0
C1120 C 0.11703 0.98336 0.43945 0.0
H1121 H 0.1391 0.12868 0.53165 0.0
H1122 H 0.12939 0.09074 0.50565 0.0
C1123 C 0.12102 0.96532 0.42308 0.0
C1124 C 0.11058 0.98171 0.47289 0.0
H1125 H 0.09031 0.05497 0.49607 0.0
C1126 C 0.12624 0.96995 0.4857 0.0
C1127 C 0.09704 0.01208 0.47683 0.0
C1128 C 0.07937 0.02492 0.46384 0.0
C1129 C 0.12959 0.98899 0.50197 0.0
C1130 C 0.11656 0.02016 0.50567 0.0
C1131 C 0.10028 0.03107 0.49318 0.0
C1132 C 0.12084 0.04341 0.52171 0.0
C1133 C 0.14789 0.97677 0.51456 0.0
C1134 C 0.11889 0.02952 0.5394 0.0
C1135 C 0.12465 0.05105 0.55435 0.0
C1136 C 0.1322 0.087 0.55185 0.0
C1137 C 0.13341 0.10112 0.5341 0.0
C1138 C 0.12779 0.07952 0.5192 0.0
H1139 H 0.15936 0.95725 0.50787 0.0
H1140 H 0.15766 0.00046 0.51948 0.0
H1141 H 0.14053 0.963 0.52655 0.0
H1142 H 0.11316 0.00191 0.54162 0.0
H1143 H 0.12328 0.03944 0.56783 0.0
H1144 H 0.10562 0.85053 0.04833 0.0
H1145 H 0.0959 0.8785 0.01929 0.0
H1146 H 0.11215 0.98446 0.04082 0.0
H1147 H 0.12167 0.95704 0.06997 0.0
H1148 H 0.07411 0.9824 0.01632 0.0
H1149 H 0.14974 0.91449 0.98898 0.0
H1150 H 0.12921 0.88564 -0.00071 0.0
H1151 H 0.14427 0.91759 0.01303 0.0
C1152 C 0.10669 0.87988 0.04706 0.0
C1153 C 0.11486 0.90146 0.0614 0.0
C1154 C 0.10114 0.89576 0.03043 0.0
C1155 C 0.10373 0.93337 0.02789 0.0
C1156 C 0.11014 0.95532 0.04256 0.0
H1157 H 0.12135 0.09998 0.95119 0.0
H1158 H 0.11076 0.06173 0.97675 0.0
C1159 C 0.11565 0.93953 0.0592 0.0
C1160 C 0.10246 0.9495 0.00955 0.0
H1161 H 0.13153 0.95565 0.96996 0.0
C1162 C 0.08642 0.97623 0.00604 0.0
C1163 C 0.11856 0.94123 -0.00379 0.0
C1164 C 0.13654 0.91337 -0.00051 0.0
C1165 C 0.08648 0.99578 0.98965 0.0
C1166 C 0.1033 0.98884 0.97672 0.0
C1167 C 0.11864 0.96086 0.9799 0.0
C1168 C 0.10692 0.01259 0.96076 0.0
C1169 C 0.06875 0.02403 0.98649 0.0
C1170 C 0.10862 0.99756 0.94328 0.0
C1171 C 0.11503 0.0193 0.92861 0.0
C1172 C 0.11994 0.05644 0.93119 0.0
C1173 C 0.11764 0.07154 0.94866 0.0
C1174 C 0.11133 0.04978 0.9633 0.0
H1175 H 0.05335 0.01717 -0.00599 0.0
H1176 H 0.07468 0.05082 -0.00847 0.0
H1177 H 0.06475 0.02671 0.97182 0.0
H1178 H 0.10551 0.96881 0.94109 0.0
H1179 H 0.11656 0.00679 0.91534 0.0
H1180 H 0.89561 0.94795 0.41005 0.0
H1181 H 0.90368 0.98216 0.43792 0.0
H1182 H 0.86071 0.90983 0.46799 0.0
H1183 H 0.85429 0.87422 0.44071 0.0
H1184 H 0.87865 0.02095 0.45556 0.0
H1185 H 0.90599 0.91894 0.50504 0.0
H1186 H 0.90415 0.90829 0.48117 0.0
H1187 H 0.88035 0.903 0.49586 0.0
C1188 C 0.88857 0.93882 0.4228 0.0
C1189 C 0.8746 0.90828 0.42334 0.0
C1190 C 0.89309 0.95838 0.4387 0.0
C1191 C 0.88317 0.94832 0.45528 0.0
C1192 C 0.86942 0.91741 0.45572 0.0
H1193 H 0.83078 0.09761 0.5321 0.0
H1194 H 0.84116 0.06017 0.50602 0.0
C1195 C 0.86556 0.89719 0.44002 0.0
C1196 C 0.88461 0.97248 0.47147 0.0
H1197 H 0.88485 0.97041 0.5178 0.0
C1198 C 0.88059 0.00991 0.46914 0.0
C1199 C 0.88776 0.95875 0.48928 0.0
C1200 C 0.89508 0.9201 0.49289 0.0
C1201 C 0.87812 0.0333 0.48405 0.0
C1202 C 0.87831 0.01854 0.50182 0.0
C1203 C 0.88394 0.9817 0.5042 0.0
C1204 C 0.87172 0.04033 0.51797 0.0
C1205 C 0.87531 0.07354 0.48044 0.0
C1206 C 0.88458 0.03981 0.5339 0.0
C1207 C 0.87805 0.0599 0.54913 0.0
C1208 C 0.85884 0.0814 0.54852 0.0
C1209 C 0.84584 0.08158 0.53274 0.0
C1210 C 0.85195 0.06059 0.51776 0.0
H1211 H 0.8844 0.08178 0.46797 0.0
H1212 H 0.85752 0.07958 0.47814 0.0
H1213 H 0.8814 0.09035 0.49195 0.0
H1214 H 0.89978 0.02418 0.5345 0.0
H1215 H 0.88835 0.05951 0.56119 0.0
H1216 H 0.41473 0.37524 0.13388 0.0
H1217 H 0.45351 0.36302 0.14097 0.0
H1218 H 0.4458 0.25208 0.12269 0.0
H1219 H 0.40705 0.26415 0.11517 0.0
H1220 H 0.47807 0.3114 0.16179 0.0
H1221 H 0.49106 0.29596 0.08727 0.0
H1222 H 0.46567 0.31362 0.09667 0.0
H1223 H 0.47118 0.2655 0.09721 0.0
C1224 C 0.4211 0.34801 0.13167 0.0
C1225 C 0.40787 0.3209 0.12358 0.0
C1226 C 0.44329 0.34106 0.1358 0.0
C1227 C 0.4526 0.3069 0.13199 0.0
C1228 C 0.439 0.27886 0.12539 0.0
H1229 H 0.59291 0.26513 0.11504 0.0
H1230 H 0.55412 0.25294 0.12219 0.0
C1231 C 0.41684 0.28583 0.12112 0.0
C1232 C 0.47693 0.30221 0.1329 0.0
H1233 H 0.52237 0.29236 0.10582 0.0
C1234 C 0.4878 0.3068 0.14961 0.0
C1235 C 0.48955 0.29637 0.11696 0.0
C1236 C 0.47887 0.29285 0.09847 0.0
C1237 C 0.51105 0.30622 0.15074 0.0
C1238 C 0.52363 0.3015 0.1347 0.0
C1239 C 0.5127 0.2957 0.11813 0.0
C1240 C 0.54804 0.30583 0.1342 0.0
C1241 C 0.5219 0.31094 0.16905 0.0
C1242 C 0.55769 0.33923 0.13909 0.0
C1243 C 0.57991 0.34629 0.13506 0.0
C1244 C 0.5928 0.32024 0.12583 0.0
C1245 C 0.58344 0.28595 0.12201 0.0
C1246 C 0.56126 0.27886 0.12613 0.0
H1247 H 0.51078 0.30185 0.18019 0.0
H1248 H 0.53768 0.29549 0.1699 0.0
H1249 H 0.52558 0.34025 0.17124 0.0
H1250 H 0.54772 0.36076 0.14495 0.0
H1251 H 0.58653 0.373 0.13821 0.0
H1252 H 0.5927 0.63865 0.63181 0.0
H1253 H 0.55359 0.64873 0.63859 0.0
H1254 H 0.55099 0.73362 0.59814 0.0
H1255 H 0.5903 0.72428 0.59145 0.0
H1256 H 0.52528 0.74791 0.63059 0.0
H1257 H 0.50927 0.61166 0.60011 0.0
H1258 H 0.52879 0.61171 0.61851 0.0
H1259 H 0.53543 0.6349 0.5977 0.0
C1260 C 0.58389 0.65975 0.62448 0.0
C1261 C 0.59446 0.68019 0.61084 0.0
C1262 C 0.56159 0.66553 0.62842 0.0
C1263 C 0.54943 0.69145 0.61863 0.0
C1264 C 0.56018 0.71343 0.60579 0.0
H1265 H 0.41357 0.73441 0.59584 0.0
H1266 H 0.45289 0.74232 0.60243 0.0
C1267 C 0.58258 0.70793 0.60194 0.0
C1268 C 0.52512 0.69286 0.6204 0.0
H1269 H 0.4787 0.64262 0.61237 0.0
C1270 C 0.51502 0.7249 0.62672 0.0
C1271 C 0.51191 0.66284 0.61515 0.0
C1272 C 0.52182 0.62843 0.60733 0.0
C1273 C 0.49186 0.72753 0.62807 0.0
C1274 C 0.47871 0.69747 0.62281 0.0
C1275 C 0.48889 0.66543 0.61664 0.0
C1276 C 0.4543 0.6988 0.62224 0.0
C1277 C 0.48166 0.76226 0.63513 0.0
C1278 C 0.44199 0.67224 0.6315 0.0
C1279 C 0.4196 0.66727 0.62758 0.0
C1280 C 0.40917 0.68879 0.61429 0.0
C1281 C 0.42113 0.71732 0.60611 0.0
C1282 C 0.44359 0.72211 0.60997 0.0
H1283 H 0.4937 0.77838 0.64325 0.0
H1284 H 0.47628 0.77924 0.62347 0.0
H1285 H 0.4669 0.7564 0.64365 0.0
H1286 H 0.45003 0.65392 0.64097 0.0
H1287 H 0.41079 0.64537 0.6343 0.0
H1288 H 0.57466 0.60749 0.85494 0.0
H1289 H 0.53696 0.62164 0.84566 0.0
H1290 H 0.54543 0.73266 0.86369 0.0
H1291 H 0.58317 0.71863 0.8734 0.0
H1292 H 0.51099 0.69984 0.87955 0.0
H1293 H 0.50552 0.67628 0.80565 0.0
H1294 H 0.51858 0.63859 0.81684 0.0
H1295 H 0.53166 0.68274 0.81719 0.0
C1296 C 0.56872 0.63514 0.85663 0.0
C1297 C 0.58185 0.66178 0.86518 0.0
C1298 C 0.54721 0.64331 0.85108 0.0
C1299 C 0.5385 0.67835 0.85373 0.0
C1300 C 0.55193 0.70552 0.86138 0.0
H1301 H 0.39567 0.71428 0.8646 0.0
H1302 H 0.4339 0.73035 0.85708 0.0
C1303 C 0.57344 0.69736 0.86702 0.0
C1304 C 0.51446 0.68447 0.85147 0.0
H1305 H 0.47125 0.66781 0.82275 0.0
C1306 C 0.5023 0.69389 0.867 0.0
C1307 C 0.50322 0.67656 0.83508 0.0
C1308 C 0.51548 0.66835 0.81771 0.0
C1309 C 0.47913 0.69275 0.86703 0.0
C1310 C 0.46787 0.68268 0.85093 0.0
C1311 C 0.47998 0.67547 0.83506 0.0
C1312 C 0.44387 0.67498 0.85118 0.0
C1313 C 0.46704 0.69969 0.88467 0.0
C1314 C 0.43659 0.6389 0.84919 0.0
C1315 C 0.41474 0.62963 0.8533 0.0
C1316 C 0.39992 0.65633 0.85961 0.0
C1317 C 0.40683 0.69296 0.86013 0.0
C1318 C 0.42862 0.70224 0.85582 0.0
H1319 H 0.47848 0.70093 0.89649 0.0
H1320 H 0.45818 0.72613 0.88382 0.0
H1321 H 0.45459 0.67801 0.88725 0.0
H1322 H 0.44815 0.61751 0.84557 0.0
H1323 H 0.40991 0.60123 0.85261 0.0
H1324 H 0.58728 0.27513 0.36826 0.0
H1325 H 0.54849 0.26396 0.36067 0.0
H1326 H 0.54381 0.37126 0.33708 0.0
H1327 H 0.58261 0.38249 0.34427 0.0
H1328 H 0.51676 0.30511 0.37623 0.0
H1329 H 0.50719 0.31212 0.30159 0.0
H1330 H 0.53372 0.30518 0.31242 0.0
H1331 H 0.52225 0.3503 0.3105 0.0
C1332 C 0.57819 0.29605 0.36103 0.0
C1333 C 0.58803 0.32992 0.35709 0.0
C1334 C 0.55602 0.28954 0.35666 0.0
C1335 C 0.54328 0.31665 0.34819 0.0
C1336 C 0.55341 0.34962 0.34325 0.0
H1337 H 0.41008 0.38835 0.34612 0.0
H1338 H 0.44895 0.37568 0.33935 0.0
C1339 C 0.57561 0.35611 0.34754 0.0
C1340 C 0.51886 0.31303 0.3473 0.0
H1341 H 0.47411 0.32299 0.31931 0.0
C1342 C 0.50744 0.30822 0.36372 0.0
C1343 C 0.50675 0.31748 0.331 0.0
C1344 C 0.51813 0.32121 0.31286 0.0
C1345 C 0.48428 0.30951 0.36447 0.0
C1346 C 0.47214 0.31498 0.34825 0.0
C1347 C 0.48348 0.31868 0.3317 0.0
C1348 C 0.4478 0.31981 0.34868 0.0
C1349 C 0.47309 0.30699 0.3828 0.0
C1350 C 0.43405 0.292 0.35529 0.0
C1351 C 0.41189 0.29924 0.35938 0.0
C1352 C 0.40306 0.33432 0.3567 0.0
C1353 C 0.41638 0.36111 0.34846 0.0
C1354 C 0.43861 0.35391 0.34454 0.0
H1355 H 0.485 0.31052 0.39417 0.0
H1356 H 0.45992 0.32795 0.38412 0.0
H1357 H 0.46528 0.27977 0.38423 0.0
H1358 H 0.44077 0.26527 0.35823 0.0
H1359 H 0.40199 0.27781 0.36543 0.0
H1360 H 0.91431 0.88552 0.13668 0.0
H1361 H 0.95272 0.87532 0.14577 0.0
H1362 H 0.94473 0.7599 0.13686 0.0
H1363 H 0.90644 0.76989 0.12724 0.0
H1364 H 0.9768 0.83217 0.17073 0.0
H1365 H 0.99073 0.7897 0.09901 0.0
H1366 H 0.96521 0.81035 0.10643 0.0
H1367 H 0.97069 0.76316 0.11123 0.0
C1368 C 0.92054 0.85784 0.13702 0.0
C1369 C 0.90747 0.8286 0.13084 0.0
C1370 C 0.9425 0.85207 0.14227 0.0
C1371 C 0.95168 0.81698 0.14157 0.0
C1372 C 0.93807 0.7873 0.1371 0.0
H1373 H 0.09156 0.76846 0.12908 0.0
H1374 H 0.05311 0.75902 0.13819 0.0
C1375 C 0.91619 0.79308 0.13162 0.0
C1376 C 0.97596 0.81236 0.14318 0.0
H1377 H 0.02168 0.79192 0.11797 0.0
C1378 C 0.98665 0.82295 0.1593 0.0
C1379 C 0.98876 0.80053 0.12819 0.0
C1380 C 0.97836 0.79056 0.11018 0.0
C1381 C 0.00988 0.82251 0.16069 0.0
C1382 C 0.02263 0.81164 0.14551 0.0
C1383 C 0.01187 0.7999 0.12966 0.0
C1384 C 0.04703 0.81562 0.14475 0.0
C1385 C 0.02056 0.83404 0.1783 0.0
C1386 C 0.05664 0.85036 0.1461 0.0
C1387 C 0.07866 0.85588 0.14093 0.0
C1388 C 0.09136 0.82681 0.13406 0.0
C1389 C 0.0822 0.79154 0.13411 0.0
C1390 C 0.06022 0.78604 0.13937 0.0
H1391 H 0.00926 0.82959 0.19 0.0
H1392 H 0.03623 0.81897 0.18074 0.0
H1393 H 0.02442 0.86359 0.17766 0.0
H1394 H 0.04669 0.87373 0.14985 0.0
H1395 H 0.08516 0.88339 0.14111 0.0
H1396 H 0.90349 0.23436 0.58626 0.0
H1397 H 0.942 0.25316 0.59054 0.0
H1398 H 0.95409 0.1572 0.62287 0.0
H1399 H 0.91564 0.13844 0.61901 0.0
H1400 H 0.97454 0.22141 0.63653 0.0
H1401 H 0.99098 0.19916 0.5628 0.0
H1402 H 0.96938 0.23088 0.56844 0.0
H1403 H 0.96595 0.18338 0.57361 0.0
C1404 C 0.91428 0.21735 0.5944 0.0
C1405 C 0.90656 0.18457 0.60206 0.0
C1406 C 0.93626 0.22819 0.59682 0.0
C1407 C 0.95087 0.20628 0.6068 0.0
C1408 C 0.94301 0.17445 0.61512 0.0
H1409 H 0.08137 0.14713 0.62547 0.0
H1410 H 0.04259 0.16432 0.62837 0.0
C1411 C 0.92104 0.16369 0.61281 0.0
C1412 C 0.97478 0.21451 0.60746 0.0
H1413 H 0.02135 0.212 0.58134 0.0
C1414 C 0.9848 0.21999 0.62445 0.0
C1415 C 0.98802 0.21279 0.59164 0.0
C1416 C 0.97816 0.206 0.57308 0.0
C1417 C 0.0079 0.22216 0.62613 0.0
C1418 C 0.02117 0.21824 0.61043 0.0
C1419 C 0.01107 0.21506 0.59334 0.0
C1420 C 0.04533 0.21239 0.61146 0.0
C1421 C 0.01791 0.22767 0.6447 0.0
C1422 C 0.05976 0.23383 0.60106 0.0
C1423 C 0.08196 0.22385 0.59918 0.0
C1424 C 0.09001 0.192 0.60756 0.0
C1425 C 0.07573 0.1717 0.61876 0.0
C1426 C 0.05357 0.18173 0.62061 0.0
H1427 H 0.00637 0.24261 0.6538 0.0
H1428 H 0.02124 0.20068 0.65093 0.0
H1429 H 0.03377 0.24294 0.64389 0.0
H1430 H 0.05364 0.25743 0.59378 0.0
H1431 H 0.09251 0.24026 0.59055 0.0
H1432 H 0.07452 0.11249 0.85724 0.0
H1433 H 0.03661 0.13139 0.85111 0.0
H1434 H 0.04801 0.23238 0.87964 0.0
H1435 H 0.08596 0.21349 0.88616 0.0
H1436 H 0.01347 0.19504 0.89303 0.0
H1437 H 0.00484 0.20296 0.8185 0.0
H1438 H 0.01765 0.16099 0.8252 0.0
H1439 H 0.03149 0.20357 0.82968 0.0
C1440 C 0.06917 0.13905 0.86192 0.0
C1441 C 0.08322 0.16124 0.87241 0.0
C1442 C 0.04752 0.15001 0.85821 0.0
C1443 C 0.03959 0.18352 0.8647 0.0
C1444 C 0.05389 0.20654 0.87439 0.0
H1445 H 0.89693 0.21982 0.88104 0.0
H1446 H 0.93564 0.23683 0.87604 0.0
C1447 C 0.07554 0.19557 0.87817 0.0
C1448 C 0.01562 0.19146 0.86388 0.0
H1449 H 0.9711 0.18898 0.83537 0.0
C1450 C 0.00421 0.19479 0.8804 0.0
C1451 C 0.00364 0.19112 0.84738 0.0
C1452 C 0.0151 0.18985 0.82919 0.0
C1453 C 0.98103 0.19471 0.88099 0.0
C1454 C 0.96902 0.19189 0.86455 0.0
C1455 C 0.98041 0.19103 0.84794 0.0
C1456 C 0.94498 0.18471 0.86464 0.0
C1457 C 0.96965 0.19486 0.89927 0.0
C1458 C 0.9373 0.15042 0.85908 0.0
C1459 C 0.91525 0.14063 0.86183 0.0
C1460 C 0.90048 0.16498 0.87025 0.0
C1461 C 0.90794 0.20022 0.87477 0.0
C1462 C 0.93003 0.21002 0.87192 0.0
H1463 H 0.98152 0.19144 0.91068 0.0
H1464 H 0.96092 0.22119 0.90117 0.0
H1465 H 0.95715 0.1727 0.90003 0.0
H1466 H 0.94864 0.13055 0.85341 0.0
H1467 H 0.91006 0.11342 0.858 0.0
H1468 H 0.08109 0.90242 0.34733 0.0
H1469 H 0.04245 0.8922 0.33886 0.0
H1470 H 0.05087 0.77664 0.34687 0.0
H1471 H 0.08943 0.78653 0.35571 0.0
H1472 H 0.0183 0.8474 0.31345 0.0
H1473 H 0.00528 0.80733 0.38562 0.0
H1474 H 0.03047 0.82873 0.3779 0.0
H1475 H 0.02562 0.78122 0.37347 0.0
C1476 C 0.07491 0.87472 0.34694 0.0
C1477 C 0.08824 0.84537 0.35258 0.0
C1478 C 0.05281 0.86894 0.34204 0.0
C1479 C 0.04374 0.83377 0.3426 0.0
C1480 C 0.0575 0.80407 0.34668 0.0
H1481 H 0.9049 0.77951 0.35593 0.0
H1482 H 0.94368 0.77222 0.34729 0.0
C1483 C 0.07953 0.80982 0.35173 0.0
C1484 C 0.01947 0.8289 0.3412 0.0
H1485 H 0.97414 0.80801 0.36678 0.0
C1486 C 0.0086 0.83842 0.32501 0.0
C1487 C 0.0069 0.81735 0.35636 0.0
C1488 C 0.01756 0.80833 0.37438 0.0
C1489 C 0.98537 0.83697 0.32367 0.0
C1490 C 0.97282 0.82628 0.339 0.0
C1491 C 0.98379 0.81586 0.35498 0.0
C1492 C 0.94831 0.82865 0.33964 0.0
C1493 C 0.97452 0.84702 0.30592 0.0
C1494 C 0.93778 0.86249 0.33752 0.0
C1495 C 0.91553 0.86672 0.34235 0.0
C1496 C 0.90356 0.8373 0.34969 0.0
C1497 C 0.9137 0.80283 0.3505 0.0
C1498 C 0.93587 0.79857 0.34552 0.0
H1499 H 0.9859 0.84243 0.29427 0.0
H1500 H 0.95911 0.83109 0.30367 0.0
H1501 H 0.97017 0.8764 0.30614 0.0
H1502 H 0.94713 0.88627 0.33338 0.0
H1503 H 0.90826 0.89366 0.34158 0.0
H1504 H 0.32671 0.31023 0.02938 0.0
H1505 H 0.31039 0.27986 0.00307 0.0
H1506 H 0.24669 0.27934 0.02956 0.0
H1507 H 0.26277 0.30949 0.05603 0.0
H1508 H 0.26572 0.20833 0.01913 0.0
H1509 H 0.2646 0.30985 0.96284 0.0
H1510 H 0.28957 0.30646 0.9761 0.0
H1511 H 0.2647 0.32321 0.98648 0.0
C1512 C 0.30909 0.30455 0.02945 0.0
C1513 C 0.29609 0.31179 0.04492 0.0
C1514 C 0.29982 0.2873 0.01437 0.0
C1515 C 0.27744 0.27731 0.01452 0.0
C1516 C 0.26405 0.2869 0.02932 0.0
H1517 H 0.1851 0.15444 0.95447 0.0
H1518 H 0.20849 0.17993 0.97819 0.0
C1519 C 0.27326 0.30427 0.04438 0.0
C1520 C 0.26862 0.2531 0.00034 0.0
H1521 H 0.25355 0.24989 0.9558 0.0
C1522 C 0.26309 0.21729 0.00525 0.0
C1523 C 0.26568 0.26488 0.98227 0.0
C1524 C 0.2713 0.30324 0.97651 0.0
C1525 C 0.25417 0.19298 -0.00745 0.0
C1526 C 0.25037 0.20516 0.97463 0.0
C1527 C 0.25661 0.24064 0.96957 0.0
C1528 C 0.23786 0.18315 0.96138 0.0
C1529 C 0.2488 0.1546 -0.00154 0.0
C1530 C 0.24679 0.17578 0.94419 0.0
C1531 C 0.23339 0.16136 0.9305 0.0
C1532 C 0.2108 0.15461 0.93379 0.0
C1533 C 0.20239 0.15955 0.95144 0.0
C1534 C 0.21579 0.1739 0.96508 0.0
H1535 H 0.25921 0.14612 0.01017 0.0
H1536 H 0.23122 0.15332 0.00283 0.0
H1537 H 0.25122 0.13489 0.98718 0.0
H1538 H 0.26381 0.18286 0.94112 0.0
H1539 H 0.24041 0.15783 0.91707 0.0
H1540 H 0.78378 0.86763 0.43653 0.0
H1541 H 0.77412 0.85936 0.46866 0.0
H1542 H 0.8024 0.75125 0.46727 0.0
H1543 H 0.813 0.76017 0.4357 0.0
H1544 H 0.74713 0.81489 0.48287 0.0
H1545 H 0.82762 0.78456 0.51393 0.0
H1546 H 0.82546 0.8035 0.49135 0.0
H1547 H 0.82438 0.75479 0.49486 0.0
C1548 C 0.78794 0.84222 0.44321 0.0
C1549 C 0.79905 0.81446 0.43378 0.0
C1550 C 0.78266 0.83767 0.46154 0.0
C1551 C 0.7882 0.80515 0.47053 0.0
C1552 C 0.79887 0.7772 0.4609 0.0
H1553 H 0.7117 0.68017 0.53825 0.0
H1554 H 0.7335 0.71191 0.51522 0.0
C1555 C 0.80455 0.78203 0.44277 0.0
C1556 C 0.78051 0.79812 0.48923 0.0
H1557 H 0.79545 0.75236 0.52764 0.0
C1558 C 0.75786 0.80222 0.49286 0.0
C1559 C 0.79454 0.78265 0.50258 0.0
C1560 C 0.81939 0.78161 0.5005 0.0
C1561 C 0.7485 0.78767 0.50861 0.0
C1562 C 0.76204 0.76739 0.52057 0.0
C1563 C 0.78502 0.76677 0.51803 0.0
C1564 C 0.75215 0.74402 0.53462 0.0
C1565 C 0.724 0.7928 0.51186 0.0
C1566 C 0.75688 0.74949 0.55306 0.0
C1567 C 0.74484 0.73063 0.56625 0.0
C1568 C 0.72791 0.70651 0.561 0.0
C1569 C 0.72455 0.69894 0.54255 0.0
C1570 C 0.73681 0.71725 0.52945 0.0
H1571 H 0.718 0.81853 0.5056 0.0
H1572 H 0.71478 0.76996 0.50548 0.0
H1573 H 0.72008 0.79332 0.5266 0.0
H1574 H 0.76892 0.76974 0.55723 0.0
H1575 H 0.74758 0.73695 0.58045 0.0
H1576 H 0.16362 0.79396 0.03692 0.0
H1577 H 0.1785 0.76943 0.00861 0.0
H1578 H 0.24496 0.78254 0.02911 0.0
H1579 H 0.23036 0.8074 0.05745 0.0
H1580 H 0.23839 0.80314 -0.00825 0.0
H1581 H 0.20543 0.6652 0.00833 0.0
H1582 H 0.18574 0.70196 0.00839 0.0
H1583 H 0.20746 0.70106 0.02505 0.0
C1584 C 0.18143 0.792 0.03537 0.0
C1585 C 0.19583 0.80206 0.04955 0.0
C1586 C 0.18984 0.77792 0.01921 0.0
C1587 C 0.21271 0.77357 0.01706 0.0
C1588 C 0.2272 0.78554 0.03069 0.0
H1589 H 0.30758 0.67742 0.94734 0.0
H1590 H 0.28595 0.70351 0.97209 0.0
C1591 C 0.21883 0.79974 0.04684 0.0
C1592 C 0.22164 0.75481 0.00104 0.0
H1593 H 0.22552 0.67115 0.98104 0.0
C1594 C 0.23548 0.77437 0.98929 0.0
C1595 C 0.21768 0.71729 -0.00198 0.0
C1596 C 0.20341 0.69494 0.01065 0.0
C1597 C 0.24583 0.75714 0.97464 0.0
C1598 C 0.24239 0.71944 0.97195 0.0
C1599 C 0.22803 0.70007 0.98332 0.0
C1600 C 0.25466 0.69949 0.95793 0.0
C1601 C 0.26061 0.77915 0.96226 0.0
C1602 C 0.24386 0.68716 0.94227 0.0
C1603 C 0.25614 0.67217 0.92806 0.0
C1604 C 0.27934 0.66941 0.92943 0.0
C1605 C 0.28979 0.6796 0.94574 0.0
C1606 C 0.27752 0.69456 0.95987 0.0
H1607 H 0.25772 0.80891 0.96377 0.0
H1608 H 0.27819 0.7735 0.96566 0.0
H1609 H 0.25791 0.77142 0.94784 0.0
H1610 H 0.22613 0.69061 0.94073 0.0
H1611 H 0.24757 0.66441 0.91572 0.0
H1612 H 0.78939 0.16961 0.53344 0.0
H1613 H 0.76412 0.19535 0.51107 0.0
H1614 H 0.71892 0.22607 0.5538 0.0
H1615 H 0.74435 0.20059 0.57645 0.0
H1616 H 0.71822 0.18871 0.50194 0.0
H1617 H 0.74089 0.32381 0.5315 0.0
H1618 H 0.75571 0.28271 0.53726 0.0
H1619 H 0.72855 0.2906 0.54636 0.0
C1620 C 0.77381 0.181 0.53806 0.0
C1621 C 0.76901 0.1838 0.55667 0.0
C1622 C 0.75938 0.19558 0.52527 0.0
C1623 C 0.73999 0.21326 0.5309 0.0
C1624 C 0.73403 0.21297 0.54931 0.0
H1625 H 0.66571 0.34571 0.45293 0.0
H1626 H 0.67707 0.31906 0.48192 0.0
C1627 C 0.74848 0.19818 0.56218 0.0
C1628 C 0.72792 0.23565 0.51759 0.0
H1629 H 0.7224 0.32387 0.5035 0.0
C1630 C 0.71868 0.21826 0.50243 0.0
C1631 C 0.72879 0.27421 0.51831 0.0
C1632 C 0.7391 0.29414 0.53414 0.0
C1633 C 0.71113 0.23844 0.48755 0.0
C1634 C 0.71313 0.27679 0.48788 0.0
C1635 C 0.72115 0.29438 0.50341 0.0
C1636 C 0.70819 0.29856 0.47165 0.0
C1637 C 0.70184 0.21868 0.47125 0.0
C1638 C 0.72261 0.29734 0.45674 0.0
C1639 C 0.71629 0.31263 0.4402 0.0
C1640 C 0.69537 0.329 0.43839 0.0
C1641 C 0.68183 0.33287 0.45386 0.0
C1642 C 0.68823 0.31772 0.47041 0.0
H1643 H 0.69755 0.18994 0.47446 0.0
H1644 H 0.68681 0.23275 0.4661 0.0
H1645 H 0.71435 0.21867 0.4602 0.0
H1646 H 0.7382 0.28282 0.45765 0.0
H1647 H 0.72708 0.30921 0.42856 0.0
H1648 H 0.76607 0.81292 0.05613 0.0
H1649 H 0.75014 0.79071 0.02772 0.0
H1650 H 0.81556 0.7676 0.0072 0.0
H1651 H 0.83176 0.78944 0.03558 0.0
H1652 H 0.75824 0.81143 0.99036 0.0
H1653 H 0.78232 0.66824 0.0062 0.0
H1654 H 0.78234 0.70374 0.02318 0.0
H1655 H 0.80407 0.70173 0.00656 0.0
C1656 C 0.77712 0.80351 0.04553 0.0
C1657 C 0.80016 0.80241 0.04823 0.0
C1658 C 0.76798 0.79088 0.02933 0.0
C1659 C 0.78173 0.77703 0.01563 0.0
C1660 C 0.80475 0.77765 0.01783 0.0
H1661 H 0.73765 0.66833 0.91614 0.0
H1662 H 0.7615 0.69391 0.93983 0.0
C1663 C 0.81393 0.7902 0.03404 0.0
C1664 C 0.77174 0.76028 -0.00054 0.0
H1665 H 0.76207 0.67804 0.97934 0.0
C1666 C 0.75922 0.78235 0.98781 0.0
C1667 C 0.77321 0.72234 -0.00372 0.0
C1668 C 0.78607 0.69745 0.00874 0.0
C1669 C 0.74762 0.76723 0.97319 0.0
C1670 C 0.74839 0.72915 0.97045 0.0
C1671 C 0.76159 0.70724 0.98164 0.0
C1672 C 0.73429 0.7114 0.95682 0.0
C1673 C 0.73434 0.79194 0.96095 0.0
C1674 C 0.71127 0.71173 0.95906 0.0
C1675 C 0.69762 0.69709 0.94569 0.0
C1676 C 0.70683 0.68188 0.92986 0.0
C1677 C 0.73003 0.68 0.92812 0.0
C1678 C 0.74368 0.69464 0.94157 0.0
H1679 H 0.73982 0.82077 0.96205 0.0
H1680 H 0.73571 0.78318 0.94655 0.0
H1681 H 0.71661 0.79059 0.9649 0.0
H1682 H 0.70386 0.72399 0.97099 0.0
H1683 H 0.67985 0.69869 0.94757 0.0
H1684 H 0.24969 0.19973 0.57418 0.0
H1685 H 0.27246 0.22629 0.55001 0.0
H1686 H 0.22387 0.19341 0.51026 0.0
H1687 H 0.2013 0.16643 0.53415 0.0
H1688 H 0.26789 0.18986 0.49777 0.0
H1689 H 0.24718 0.32312 0.53012 0.0
H1690 H 0.26181 0.29058 0.54386 0.0
H1691 H 0.23393 0.28115 0.5368 0.0
C1692 C 0.24431 0.19696 0.56021 0.0
C1693 C 0.22355 0.18173 0.55602 0.0
C1694 C 0.2572 0.21245 0.54648 0.0
C1695 C 0.24943 0.21264 0.52852 0.0
C1696 C 0.22997 0.19383 0.5241 0.0
H1697 H 0.26003 0.3147 0.42568 0.0
H1698 H 0.24753 0.28818 0.45444 0.0
C1699 C 0.2171 0.17848 0.53776 0.0
C1700 C 0.2597 0.23592 0.5146 0.0
H1701 H 0.26451 0.32491 0.50156 0.0
C1702 C 0.26748 0.21937 0.49868 0.0
C1703 C 0.25884 0.27443 0.51587 0.0
C1704 C 0.24987 0.29355 0.5325 0.0
C1705 C 0.27392 0.24036 0.48373 0.0
C1706 C 0.27229 0.27871 0.48478 0.0
C1707 C 0.26543 0.29542 0.50091 0.0
C1708 C 0.27758 0.30156 0.46901 0.0
C1709 C 0.28199 0.22147 0.46675 0.0
C1710 C 0.29798 0.31953 0.46824 0.0
C1711 C 0.30514 0.33464 0.45191 0.0
C1712 C 0.29191 0.33197 0.43623 0.0
C1713 C 0.27052 0.31718 0.43756 0.0
C1714 C 0.26343 0.30184 0.4539 0.0
H1715 H 0.2859 0.19229 0.46922 0.0
H1716 H 0.26895 0.22295 0.45615 0.0
H1717 H 0.29701 0.23521 0.46136 0.0
H1718 H 0.30897 0.31966 0.47989 0.0
H1719 H 0.32163 0.34626 0.45127 0.0
H1720 H 0.67254 0.33187 0.03068 0.0
H1721 H 0.68571 0.30465 0.00236 0.0
H1722 H 0.74819 0.2795 0.02776 0.0
H1723 H 0.73525 0.30652 0.05621 0.0
H1724 H 0.73035 0.31183 0.98032 0.0
H1725 H 0.71197 0.18001 0.01467 0.0
H1726 H 0.69969 0.22258 0.02178 0.0
H1727 H 0.72801 0.21275 0.02729 0.0
C1728 C 0.68932 0.32147 0.03011 0.0
C1729 C 0.70273 0.32066 0.04576 0.0
C1730 C 0.69678 0.30603 0.01393 0.0
C1731 C 0.71768 0.28968 0.01323 0.0
C1732 C 0.73191 0.29189 0.02824 0.0
H1733 H 0.79444 0.15079 0.94855 0.0
H1734 H 0.77339 0.18082 0.9725 0.0
C1735 C 0.72452 0.30747 0.04442 0.0
C1736 C 0.7235 0.26625 -0.00222 0.0
H1737 H 0.7298 0.17695 0.9861 0.0
C1738 C 0.73007 0.28235 0.98142 0.0
C1739 C 0.72278 0.22791 -0.00058 0.0
C1740 C 0.71509 0.20959 0.01667 0.0
C1741 C 0.73709 0.26084 0.96676 0.0
C1742 C 0.737 0.2224 0.96859 0.0
C1743 C 0.72966 0.2064 0.98478 0.0
C1744 C 0.747 0.19868 0.9547 0.0
C1745 C 0.74553 0.27939 0.9498 0.0
C1746 C 0.73835 0.19697 0.93705 0.0
C1747 C 0.75034 0.17975 0.92329 0.0
C1748 C 0.77114 0.1642 0.9271 0.0
C1749 C 0.77862 0.16296 0.94517 0.0
C1750 C 0.76662 0.18009 0.95886 0.0
H1751 H 0.74801 0.30913 0.95183 0.0
H1752 H 0.76148 0.26718 0.94538 0.0
H1753 H 0.73336 0.27563 0.93866 0.0
H1754 H 0.72294 0.21058 0.93375 0.0
H1755 H 0.7441 0.18102 0.90951 0.0
H1756 H 0.20254 0.75466 0.41226 0.0
H1757 H 0.21537 0.71652 0.43729 0.0
H1758 H 0.20229 0.80453 0.47487 0.0
H1759 H 0.18755 0.84146 0.44987 0.0
H1760 H 0.24847 0.72351 0.45645 0.0
H1761 H 0.17827 0.72407 0.50395 0.0
H1762 H 0.17559 0.74088 0.48102 0.0
H1763 H 0.18527 0.7704 0.49901 0.0
C1764 C 0.2023 0.76559 0.42595 0.0
C1765 C 0.19439 0.80085 0.42934 0.0
C1766 C 0.20948 0.7438 0.44021 0.0
C1767 C 0.20942 0.75734 0.45803 0.0
C1768 C 0.20171 0.79294 0.46135 0.0
H1769 H 0.30559 0.73364 0.53619 0.0
H1770 H 0.28232 0.74111 0.50953 0.0
C1771 C 0.19374 0.8143 0.44711 0.0
C1772 C 0.21964 0.73582 0.47276 0.0
H1773 H 0.21511 0.71721 0.51793 0.0
C1774 C 0.24085 0.72132 0.46975 0.0
C1775 C 0.20955 0.73164 0.48999 0.0
C1776 C 0.1858 0.74221 0.49356 0.0
C1777 C 0.25299 0.70577 0.4839 0.0
C1778 C 0.2441 0.70647 0.50164 0.0
C1779 C 0.22214 0.71769 0.50437 0.0
C1780 C 0.25823 0.70042 0.51765 0.0
C1781 C 0.27549 0.68987 0.47976 0.0
C1782 C 0.25186 0.67623 0.53144 0.0
C1783 C 0.26491 0.67257 0.54698 0.0
C1784 C 0.28451 0.69295 0.54881 0.0
C1785 C 0.29075 0.71719 0.535 0.0
C1786 C 0.27757 0.72123 0.51968 0.0
H1787 H 0.27578 0.6777 0.46593 0.0
H1788 H 0.28808 0.71191 0.48004 0.0
H1789 H 0.28025 0.6686 0.48975 0.0
H1790 H 0.23682 0.66031 0.53018 0.0
H1791 H 0.25978 0.65363 0.55746 0.0
H1792 H 0.34153 0.38788 0.17219 0.0
H1793 H 0.3337 0.38414 0.20464 0.0
H1794 H 0.27516 0.32049 0.1937 0.0
H1795 H 0.28275 0.3239 0.16107 0.0
H1796 H 0.28938 0.40724 0.22128 0.0
H1797 H 0.31477 0.2628 0.23281 0.0
H1798 H 0.32565 0.28892 0.21401 0.0
H1799 H 0.29738 0.27403 0.21368 0.0
C1800 C 0.32703 0.37292 0.17661 0.0
C1801 C 0.31275 0.35622 0.16402 0.0
C1802 C 0.32259 0.37089 0.19514 0.0
C1803 C 0.30394 0.35197 0.20138 0.0
C1804 C 0.2897 0.33502 0.18899 0.0
H1805 H 0.28142 0.32494 0.31865 0.0
H1806 H 0.27498 0.31986 0.28588 0.0
C1807 C 0.29406 0.33712 0.17041 0.0
C1808 C 0.2994 0.35093 0.22096 0.0
H1809 H 0.30696 0.29839 0.25861 0.0
C1810 C 0.29282 0.38332 0.22946 0.0
C1811 C 0.30371 0.31948 0.23141 0.0
C1812 C 0.31083 0.28421 0.22264 0.0
C1813 C 0.29153 0.38562 0.24839 0.0
C1814 C 0.29739 0.35492 0.25892 0.0
C1815 C 0.30258 0.32184 0.25039 0.0
C1816 C 0.30082 0.35799 0.27863 0.0
C1817 C 0.28465 0.42119 0.257 0.0
C1818 C 0.31775 0.38056 0.28518 0.0
C1819 C 0.32155 0.38346 0.30376 0.0
C1820 C 0.30851 0.3637 0.31614 0.0
C1821 C 0.29169 0.34067 0.30948 0.0
C1822 C 0.28796 0.33771 0.29081 0.0
H1823 H 0.27446 0.43782 0.24755 0.0
H1824 H 0.27509 0.41646 0.26967 0.0
H1825 H 0.29968 0.43716 0.26048 0.0
H1826 H 0.32812 0.39582 0.27588 0.0
H1827 H 0.33468 0.40134 0.30837 0.0
H1828 H 0.63323 0.57652 0.81798 0.0
H1829 H 0.63081 0.57794 0.78482 0.0
H1830 H 0.69094 0.64123 0.7824 0.0
H1831 H 0.69358 0.64025 0.81543 0.0
H1832 H 0.65204 0.66978 0.76282 0.0
H1833 H 0.67234 0.52484 0.74718 0.0
H1834 H 0.65177 0.5337 0.76434 0.0
H1835 H 0.68008 0.54606 0.7684 0.0
C1836 C 0.64607 0.59046 0.81041 0.0
C1837 C 0.66359 0.60834 0.81936 0.0
C1838 C 0.64466 0.59113 0.79149 0.0
C1839 C 0.66075 0.60954 0.78134 0.0
C1840 C 0.6784 0.62688 0.79014 0.0
H1841 H 0.69638 0.66744 0.67394 0.0
H1842 H 0.69062 0.66125 0.70658 0.0
C1843 C 0.67987 0.62621 0.809 0.0
C1844 C 0.65889 0.61223 0.7615 0.0
H1845 H 0.6657 0.56386 0.7224 0.0
C1846 C 0.65484 0.64663 0.75393 0.0
C1847 C 0.66236 0.58179 0.75013 0.0
C1848 C 0.667 0.54445 0.75782 0.0
C1849 C 0.65472 0.65163 0.7351 0.0
C1850 C 0.65919 0.62152 0.72373 0.0
C1851 C 0.66237 0.58682 0.73128 0.0
C1852 C 0.66207 0.62593 0.70402 0.0
C1853 C 0.65002 0.68907 0.72756 0.0
C1854 C 0.64815 0.60746 0.69191 0.0
C1855 C 0.65145 0.61072 0.67324 0.0
C1856 C 0.66886 0.63232 0.66644 0.0
C1857 C 0.68279 0.65071 0.6787 0.0
C1858 C 0.67945 0.64741 0.69735 0.0
H1859 H 0.64075 0.70615 0.73744 0.0
H1860 H 0.66594 0.70298 0.72457 0.0
H1861 H 0.64036 0.68737 0.71475 0.0
H1862 H 0.63475 0.59056 0.69692 0.0
H1863 H 0.64042 0.59617 0.66418 0.0
H1864 H 0.28494 0.64089 0.81323 0.0
H1865 H 0.28575 0.64471 0.78012 0.0
H1866 H 0.34445 0.57778 0.77895 0.0
H1867 H 0.34378 0.57339 0.812 0.0
H1868 H 0.32227 0.6738 0.76023 0.0
H1869 H 0.30297 0.53081 0.74084 0.0
H1870 H 0.2969 0.54905 0.7631 0.0
H1871 H 0.32469 0.53583 0.75736 0.0
C1872 C 0.29787 0.62656 0.80595 0.0
C1873 C 0.31433 0.60689 0.81526 0.0
C1874 C 0.29829 0.62882 0.78706 0.0
C1875 C 0.31503 0.61125 0.77724 0.0
C1876 C 0.33121 0.591 0.78639 0.0
H1877 H 0.35433 0.60437 0.66477 0.0
H1878 H 0.3523 0.59912 0.69781 0.0
C1879 C 0.33084 0.58872 0.80526 0.0
C1880 C 0.31649 0.61612 0.75748 0.0
H1881 H 0.3154 0.57008 0.71731 0.0
C1882 C 0.32063 0.65124 0.75079 0.0
C1883 C 0.31446 0.58645 0.74538 0.0
C1884 C 0.30932 0.54843 0.75197 0.0
C1885 C 0.32318 0.65744 0.73217 0.0
C1886 C 0.32117 0.62776 0.72007 0.0
C1887 C 0.31699 0.59265 0.72675 0.0
C1888 C 0.32298 0.63262 0.70033 0.0
C1889 C 0.32841 0.69545 0.7256 0.0
C1890 C 0.30713 0.65323 0.691 0.0
C1891 C 0.30821 0.65635 0.67218 0.0
C1892 C 0.3251 0.63866 0.6624 0.0
C1893 C 0.34111 0.61833 0.67188 0.0
C1894 C 0.33999 0.61525 0.69072 0.0
H1895 H 0.33466 0.71308 0.73676 0.0
H1896 H 0.34095 0.69478 0.71457 0.0
H1897 H 0.31311 0.70806 0.72009 0.0
H1898 H 0.29369 0.66632 0.69826 0.0
H1899 H 0.29559 0.67217 0.6653 0.0
H1900 H 0.72186 0.32567 0.16328 0.0
H1901 H 0.72765 0.31295 0.19563 0.0
H1902 H 0.66062 0.3466 0.20702 0.0
H1903 H 0.65459 0.35925 0.17496 0.0
H1904 H 0.72261 0.3652 0.22428 0.0
H1905 H 0.66654 0.24729 0.23311 0.0
H1906 H 0.67716 0.26104 0.21118 0.0
H1907 H 0.65363 0.28396 0.22094 0.0
C1908 C 0.70831 0.33011 0.17267 0.0
C1909 C 0.68776 0.34353 0.16655 0.0
C1910 C 0.71165 0.32275 0.19109 0.0
C1911 C 0.69442 0.32819 0.20353 0.0
C1912 C 0.67395 0.34146 0.19749 0.0
H1913 H 0.65287 0.36919 0.30718 0.0
H1914 H 0.66061 0.35547 0.27542 0.0
C1915 C 0.67062 0.34903 0.17918 0.0
C1916 C 0.69792 0.3229 0.22313 0.0
H1917 H 0.67344 0.28386 0.25999 0.0
C1918 C 0.7124 0.34669 0.23215 0.0
C1919 C 0.68465 0.29851 0.23322 0.0
C1920 C 0.66978 0.27098 0.22409 0.0
C1921 C 0.71238 0.34913 0.25115 0.0
C1922 C 0.69767 0.32691 0.26115 0.0
C1923 C 0.68455 0.30103 0.25218 0.0
C1924 C 0.69333 0.33372 0.28051 0.0
C1925 C 0.72675 0.37731 0.26033 0.0
C1926 C 0.70922 0.32579 0.29377 0.0
C1927 C 0.70491 0.33369 0.31199 0.0
C1928 C 0.68461 0.34961 0.31714 0.0
C1929 C 0.6687 0.35711 0.30372 0.0
C1930 C 0.67302 0.34916 0.28557 0.0
H1931 H 0.7359 0.39446 0.25041 0.0
H1932 H 0.71646 0.3953 0.26904 0.0
H1933 H 0.73899 0.36349 0.26922 0.0
H1934 H 0.72492 0.3136 0.29003 0.0
H1935 H 0.71748 0.3274 0.32199 0.0
H1936 H 0.83778 0.90423 0.17219 0.0
H1937 H 0.82917 0.90591 0.20454 0.0
H1938 H 0.7719 0.83801 0.19548 0.0
H1939 H 0.78037 0.83577 0.16304 0.0
H1940 H 0.78768 0.929 0.22208 0.0
H1941 H 0.81048 0.78367 0.23418 0.0
H1942 H 0.81924 0.808 0.21411 0.0
H1943 H 0.79103 0.79326 0.21628 0.0
C1944 C 0.82334 0.88964 0.17701 0.0
C1945 C 0.80986 0.86965 0.16503 0.0
C1946 C 0.81841 0.89078 0.19548 0.0
C1947 C 0.80002 0.87191 0.20225 0.0
C1948 C 0.78628 0.85245 0.1904 0.0
H1949 H 0.77813 0.83816 0.31833 0.0
H1950 H 0.77072 0.83915 0.28572 0.0
C1951 C 0.79117 0.85126 0.1719 0.0
C1952 C 0.79583 0.87186 0.2219 0.0
H1953 H 0.80136 0.81898 0.25963 0.0
C1954 C 0.79035 0.9049 0.23033 0.0
C1955 C 0.79919 0.84019 0.23244 0.0
C1956 C 0.80543 0.80422 0.2239 0.0
C1957 C 0.78895 0.90744 0.24926 0.0
C1958 C 0.79356 0.87627 0.25985 0.0
C1959 C 0.79787 0.84279 0.25137 0.0
C1960 C 0.79638 0.87847 0.27967 0.0
C1961 C 0.78302 0.94356 0.25776 0.0
C1962 C 0.81332 0.90018 0.28692 0.0
C1963 C 0.81767 0.89966 0.30548 0.0
C1964 C 0.80525 0.87714 0.3171 0.0
C1965 C 0.78804 0.85579 0.30977 0.0
C1966 C 0.78371 0.85636 0.29117 0.0
H1967 H 0.77317 0.96068 0.24829 0.0
H1968 H 0.77346 0.93975 0.27051 0.0
H1969 H 0.79846 0.95861 0.26106 0.0
H1970 H 0.82363 0.91672 0.27813 0.0
H1971 H 0.83105 0.91639 0.31064 0.0
H1972 H 0.13025 0.0982 0.81669 0.0
H1973 H 0.1278 0.10784 0.78395 0.0
H1974 H 0.19176 0.16024 0.78435 0.0
H1975 H 0.19437 0.15121 0.81715 0.0
H1976 H 0.15811 0.19742 0.76401 0.0
H1977 H 0.16485 0.05027 0.74652 0.0
H1978 H 0.14353 0.06156 0.7626 0.0
H1979 H 0.17211 0.06788 0.76864 0.0
C1980 C 0.14386 0.11168 0.80985 0.0
C1981 C 0.1626 0.12366 0.81952 0.0
C1982 C 0.14241 0.11712 0.79116 0.0
C1983 C 0.15972 0.13434 0.78184 0.0
C1984 C 0.17828 0.14682 0.7914 0.0
H1985 H 0.19449 0.18071 0.67147 0.0
H1986 H 0.19056 0.18092 0.70447 0.0
C1987 C 0.17975 0.1415 0.81011 0.0
C1988 C 0.15865 0.13885 0.76202 0.0
H1989 H 0.15834 0.09105 0.72236 0.0
C1990 C 0.15812 0.17425 0.75485 0.0
C1991 C 0.15865 0.10843 0.75026 0.0
C1992 C 0.16 0.06986 0.75732 0.0
C1993 C 0.15752 0.18006 0.73604 0.0
C1994 C 0.15778 0.14963 0.72429 0.0
C1995 C 0.15803 0.11426 0.7315 0.0
C1996 C 0.1588 0.15353 0.70443 0.0
C1997 C 0.15646 0.21856 0.72891 0.0
C1998 C 0.14224 0.13796 0.69359 0.0
C1999 C 0.14451 0.13744 0.67476 0.0
C2000 C 0.16347 0.15233 0.66649 0.0
C2001 C 0.17969 0.16901 0.6774 0.0
C2002 C 0.17741 0.16943 0.69625 0.0
H2003 H 0.15033 0.23786 0.7394 0.0
H2004 H 0.17333 0.22737 0.72483 0.0
H2005 H 0.14553 0.2203 0.7168 0.0
H2006 H 0.12782 0.12541 0.69974 0.0
H2007 H 0.13162 0.12461 0.66676 0.0
H2008 H 0.83174 0.21046 0.66405 0.0
H2009 H 0.83703 0.2159 0.69693 0.0
H2010 H 0.84511 0.09912 0.70063 0.0
H2011 H 0.84141 0.09409 0.66775 0.0
H2012 H 0.81231 0.19317 0.72174 0.0
H2013 H 0.89292 0.12802 0.73368 0.0
H2014 H 0.88377 0.13994 0.71112 0.0
H2015 H 0.87604 0.09682 0.72114 0.0
C2016 C 0.8351 0.18615 0.67194 0.0
C2017 C 0.83626 0.15188 0.66353 0.0
C2018 C 0.83814 0.18924 0.69066 0.0
C2019 C 0.84189 0.15801 0.70124 0.0
C2020 C 0.84312 0.12379 0.69273 0.0
H2021 H 0.79204 0.11778 0.80711 0.0
H2022 H 0.79843 0.13071 0.77492 0.0
C2023 C 0.84075 0.12084 0.67397 0.0
C2024 C 0.84203 0.16043 0.72129 0.0
H2025 H 0.86642 0.12388 0.75879 0.0
C2026 C 0.82447 0.17872 0.72986 0.0
C2027 C 0.85816 0.14253 0.73199 0.0
C2028 C 0.87889 0.12617 0.72394 0.0
C2029 C 0.8218 0.17755 0.74873 0.0
C2030 C 0.83641 0.15589 0.75917 0.0
C2031 C 0.85482 0.13968 0.75075 0.0
C2032 C 0.83245 0.14835 0.77863 0.0
C2033 C 0.80331 0.1995 0.75715 0.0
C2034 C 0.84974 0.15213 0.79123 0.0
C2035 C 0.84635 0.1432 0.80941 0.0
C2036 C 0.82551 0.13108 0.81531 0.0
C2037 C 0.80817 0.12741 0.8028 0.0
C2038 C 0.81176 0.13526 0.7845 0.0
H2039 H 0.79985 0.2244 0.74905 0.0
H2040 H 0.78793 0.18294 0.7573 0.0
H2041 H 0.80732 0.20785 0.77128 0.0
H2042 H 0.86586 0.16199 0.78702 0.0
H2043 H 0.8599 0.1465 0.81894 0.0
H2044 H 0.15569 0.91158 0.30767 0.0
H2045 H 0.16557 0.91296 0.27548 0.0
H2046 H 0.22942 0.86648 0.28784 0.0
H2047 H 0.2198 0.86468 0.32001 0.0
H2048 H 0.20526 0.94598 0.25752 0.0
H2049 H 0.19827 0.79476 0.25131 0.0
H2050 H 0.18611 0.81933 0.27007 0.0
H2051 H 0.21555 0.81307 0.26903 0.0
C2052 C 0.17188 0.90183 0.30359 0.0
C2053 C 0.18684 0.88764 0.31637 0.0
C2054 C 0.17751 0.9028 0.28524 0.0
C2055 C 0.19812 0.88958 0.27946 0.0
C2056 C 0.21338 0.87649 0.29216 0.0
H2057 H 0.21975 0.84457 0.16395 0.0
H2058 H 0.22921 0.85181 0.19608 0.0
C2059 C 0.20779 0.87548 0.3105 0.0
C2060 C 0.20292 0.88762 0.25996 0.0
H2061 H 0.203 0.82808 0.22449 0.0
C2062 C 0.20517 0.92024 0.25026 0.0
C2063 C 0.20305 0.85386 0.25074 0.0
C2064 C 0.20053 0.81815 0.26072 0.0
C2065 C 0.20638 0.92007 0.23129 0.0
C2066 C 0.20482 0.88648 0.22198 0.0
C2067 C 0.20414 0.85374 0.23176 0.0
C2068 C 0.20056 0.88489 0.20235 0.0
C2069 C 0.20854 0.95585 0.22136 0.0
C2070 C 0.18118 0.90069 0.19547 0.0
C2071 C 0.17564 0.89649 0.17727 0.0
C2072 C 0.18933 0.87613 0.16562 0.0
C2073 C 0.20884 0.8604 0.17257 0.0
C2074 C 0.21435 0.86464 0.19085 0.0
H2075 H 0.21718 0.97648 0.22984 0.0
H2076 H 0.21773 0.95252 0.20838 0.0
H2077 H 0.19177 0.96652 0.21824 0.0
H2078 H 0.17 0.91551 0.20431 0.0
H2079 H 0.16049 0.90893 0.17241 0.0
loop_
_geom_bond_atom_site_label_1
_geom_bond_atom_site_label_2
_geom_bond_distance
_geom_bond_site_symmetry_2
_ccdc_geom_bond_type
Sc0 O3 2.025 . S
Sc0 O10 2.105 . S
Sc0 O13 2.105 . S
Sc0 O16 2.105 . S
Sc0 O19 2.105 . S
Sc1 O3 2.025 . S
Sc1 O11 2.105 . S
Sc1 O15 2.105 . S
Sc1 O17 2.105 . S
Sc1 O21 2.105 . S
Sc2 O3 2.025 . S
Sc2 O12 2.105 . S
Sc2 O14 2.105 . S
Sc2 O18 2.105 . S
Sc2 O20 2.105 . S
O3 Sc0 2.025 . S
O3 Sc1 2.025 . S
O3 Sc2 2.025 . S
C4 O10 1.268 . S
C4 O20 1.268 . S
C5 O11 1.268 . S
C5 O19 1.268 . S
C6 O12 1.268 . S
C6 O21 1.268 . S
C7 O13 1.268 . S
C7 O17 1.268 . S
C8 O14 1.268 . S
C8 O16 1.268 . S
C9 O15 1.268 . S
C9 O18 1.268 . S
O10 Sc0 2.105 . S
O10 C4 1.268 . S
O11 Sc1 2.105 . S
O11 C5 1.268 . S
O12 Sc2 2.105 . S
O12 C6 1.268 . S
O13 Sc0 2.105 . S
O13 C7 1.268 . S
O14 Sc2 2.105 . S
O14 C8 1.268 . S
O15 Sc1 2.105 . S
O15 C9 1.268 . S
O16 Sc0 2.105 . S
O16 C8 1.268 . S
O17 Sc1 2.105 . S
O17 C7 1.268 . S
O18 Sc2 2.105 . S
O18 C9 1.268 . S
O19 Sc0 2.105 . S
O19 C5 1.268 . S
O20 Sc2 2.105 . S
O20 C4 1.268 . S
O21 Sc1 2.105 . S
O21 C6 1.268 . S
Sc22 O25 2.025 . S
Sc22 O32 2.105 . S
Sc22 O35 2.105 . S
Sc22 O38 2.105 . S
Sc22 O41 2.105 . S
Sc23 O25 2.025 . S
Sc23 O33 2.105 . S
Sc23 O37 2.105 . S
Sc23 O39 2.105 . S
Sc23 O43 2.105 . S
Sc24 O25 2.025 . S
Sc24 O34 2.105 . S
Sc24 O36 2.105 . S
Sc24 O40 2.105 . S
Sc24 O42 2.105 . S
O25 Sc22 2.025 . S
O25 Sc23 2.025 . S
O25 Sc24 2.025 . S
C26 O32 1.268 . S
C26 O42 1.268 . S
C27 O33 1.268 . S
C27 O41 1.268 . S
C28 O34 1.268 . S
C28 O43 1.268 . S
C29 O35 1.268 . S
C29 O39 1.268 . S
C30 O36 1.268 . S
C30 O38 1.268 . S
C31 O37 1.268 . S
C31 O40 1.268 . S
O32 Sc22 2.105 . S
O32 C26 1.268 . S
O33 Sc23 2.105 . S
O33 C27 1.268 . S
O34 Sc24 2.105 . S
O34 C28 1.268 . S
O35 Sc22 2.105 . S
O35 C29 1.268 . S
O36 Sc24 2.105 . S
O36 C30 1.268 . S
O37 Sc23 2.105 . S
O37 C31 1.268 . S
O38 Sc22 2.105 . S
O38 C30 1.268 . S
O39 Sc23 2.105 . S
O39 C29 1.268 . S
O40 Sc24 2.105 . S
O40 C31 1.268 . S
O41 Sc22 2.105 . S
O41 C27 1.268 . S
O42 Sc24 2.105 . S
O42 C26 1.268 . S
O43 Sc23 2.105 . S
O43 C28 1.268 . S
Sc44 O47 2.025 . S
Sc44 O54 2.105 . S
Sc44 O57 2.105 . S
Sc44 O60 2.105 . S
Sc44 O63 2.105 . S
Sc45 O47 2.025 . S
Sc45 O55 2.105 . S
Sc45 O59 2.105 . S
Sc45 O61 2.105 . S
Sc45 O65 2.105 . S
Sc46 O47 2.025 . S
Sc46 O56 2.105 . S
Sc46 O58 2.105 . S
Sc46 O62 2.105 . S
Sc46 O64 2.105 . S
O47 Sc44 2.025 . S
O47 Sc45 2.025 . S
O47 Sc46 2.025 . S
C48 O54 1.268 . S
C48 O64 1.268 . S
C49 O55 1.268 . S
C49 O63 1.268 . S
C50 O56 1.268 . S
C50 O65 1.268 . S
C51 O57 1.268 . S
C51 O61 1.268 . S
C52 O58 1.268 . S
C52 O60 1.268 . S
C53 O59 1.268 . S
C53 O62 1.268 . S
O54 Sc44 2.105 . S
O54 C48 1.268 . S
O55 Sc45 2.105 . S
O55 C49 1.268 . S
O56 Sc46 2.105 . S
O56 C50 1.268 . S
O57 Sc44 2.105 . S
O57 C51 1.268 . S
O58 Sc46 2.105 . S
O58 C52 1.268 . S
O59 Sc45 2.105 . S
O59 C53 1.268 . S
O60 Sc44 2.105 . S
O60 C52 1.268 . S
O61 Sc45 2.105 . S
O61 C51 1.268 . S
O62 Sc46 2.105 . S
O62 C53 1.268 . S
O63 Sc44 2.105 . S
O63 C49 1.268 . S
O64 Sc46 2.105 . S
O64 C48 1.268 . S
O65 Sc45 2.105 . S
O65 C50 1.268 . S
Sc66 O69 2.025 . S
Sc66 O76 2.105 . S
Sc66 O79 2.105 . S
Sc66 O82 2.105 . S
Sc66 O85 2.105 . S
Sc67 O69 2.025 . S
Sc67 O77 2.105 . S
Sc67 O81 2.105 . S
Sc67 O83 2.105 . S
Sc67 O87 2.105 . S
Sc68 O69 2.025 . S
Sc68 O78 2.105 . S
Sc68 O80 2.105 . S
Sc68 O84 2.105 . S
Sc68 O86 2.105 . S
O69 Sc66 2.025 . S
O69 Sc67 2.025 . S
O69 Sc68 2.025 . S
C70 O76 1.268 . S
C70 O86 1.268 . S
C71 O77 1.268 . S
C71 O85 1.268 . S
C72 O78 1.268 . S
C72 O87 1.268 . S
C73 O79 1.268 . S
C73 O83 1.268 . S
C74 O80 1.268 . S
C74 O82 1.268 . S
C75 O81 1.268 . S
C75 O84 1.268 . S
O76 Sc66 2.105 . S
O76 C70 1.268 . S
O77 Sc67 2.105 . S
O77 C71 1.268 . S
O78 Sc68 2.105 . S
O78 C72 1.268 . S
O79 Sc66 2.105 . S
O79 C73 1.268 . S
O80 Sc68 2.105 . S
O80 C74 1.268 . S
O81 Sc67 2.105 . S
O81 C75 1.268 . S
O82 Sc66 2.105 . S
O82 C74 1.268 . S
O83 Sc67 2.105 . S
O83 C73 1.268 . S
O84 Sc68 2.105 . S
O84 C75 1.268 . S
O85 Sc66 2.105 . S
O85 C71 1.268 . S
O86 Sc68 2.105 . S
O86 C70 1.268 . S
O87 Sc67 2.105 . S
O87 C72 1.268 . S
Sc88 O91 2.025 . S
Sc88 O98 2.105 . S
Sc88 O101 2.105 . S
Sc88 O104 2.105 . S
Sc88 O107 2.105 . S
Sc89 O91 2.025 . S
Sc89 O99 2.105 . S
Sc89 O103 2.105 . S
Sc89 O105 2.105 . S
Sc89 O109 2.105 . S
Sc90 O91 2.025 . S
Sc90 O100 2.105 . S
Sc90 O102 2.105 . S
Sc90 O106 2.105 . S
Sc90 O108 2.105 . S
O91 Sc88 2.025 . S
O91 Sc89 2.025 . S
O91 Sc90 2.025 . S
C92 O98 1.268 . S
C92 O108 1.268 . S
C93 O99 1.268 . S
C93 O107 1.268 . S
C94 O100 1.268 . S
C94 O109 1.268 . S
C95 O101 1.268 . S
C95 O105 1.268 . S
C96 O102 1.268 . S
C96 O104 1.268 . S
C97 O103 1.268 . S
C97 O106 1.268 . S
O98 Sc88 2.105 . S
O98 C92 1.268 . S
O99 Sc89 2.105 . S
O99 C93 1.268 . S
O100 Sc90 2.105 . S
O100 C94 1.268 . S
O101 Sc88 2.105 . S
O101 C95 1.268 . S
O102 Sc90 2.105 . S
O102 C96 1.268 . S
O103 Sc89 2.105 . S
O103 C97 1.268 . S
O104 Sc88 2.105 . S
O104 C96 1.268 . S
O105 Sc89 2.105 . S
O105 C95 1.268 . S
O106 Sc90 2.105 . S
O106 C97 1.268 . S
O107 Sc88 2.105 . S
O107 C93 1.268 . S
O108 Sc90 2.105 . S
O108 C92 1.268 . S
O109 Sc89 2.105 . S
O109 C94 1.268 . S
Sc110 O113 2.025 . S
Sc110 O120 2.105 . S
Sc110 O123 2.105 . S
Sc110 O126 2.105 . S
Sc110 O129 2.105 . S
Sc111 O113 2.025 . S
Sc111 O121 2.105 . S
Sc111 O125 2.105 . S
Sc111 O127 2.105 . S
Sc111 O131 2.105 . S
Sc112 O113 2.025 . S
Sc112 O122 2.105 . S
Sc112 O124 2.105 . S
Sc112 O128 2.105 . S
Sc112 O130 2.105 . S
O113 Sc110 2.025 . S
O113 Sc111 2.025 . S
O113 Sc112 2.025 . S
C114 O120 1.268 . S
C114 O130 1.268 . S
C115 O121 1.268 . S
C115 O129 1.268 . S
C116 O122 1.268 . S
C116 O131 1.268 . S
C117 O123 1.268 . S
C117 O127 1.268 . S
C118 O124 1.268 . S
C118 O126 1.268 . S
C119 O125 1.268 . S
C119 O128 1.268 . S
O120 Sc110 2.105 . S
O120 C114 1.268 . S
O121 Sc111 2.105 . S
O121 C115 1.268 . S
O122 Sc112 2.105 . S
O122 C116 1.268 . S
O123 Sc110 2.105 . S
O123 C117 1.268 . S
O124 Sc112 2.105 . S
O124 C118 1.268 . S
O125 Sc111 2.105 . S
O125 C119 1.268 . S
O126 Sc110 2.105 . S
O126 C118 1.268 . S
O127 Sc111 2.105 . S
O127 C117 1.268 . S
O128 Sc112 2.105 . S
O128 C119 1.268 . S
O129 Sc110 2.105 . S
O129 C115 1.268 . S
O130 Sc112 2.105 . S
O130 C114 1.268 . S
O131 Sc111 2.105 . S
O131 C116 1.268 . S
Sc132 O135 2.025 . S
Sc132 O142 2.105 . S
Sc132 O145 2.105 . S
Sc132 O148 2.105 . S
Sc132 O151 2.105 . S
Sc133 O135 2.025 . S
Sc133 O143 2.105 . S
Sc133 O147 2.105 . S
Sc133 O149 2.105 . S
Sc133 O153 2.105 . S
Sc134 O135 2.025 . S
Sc134 O144 2.105 . S
Sc134 O146 2.105 . S
Sc134 O150 2.105 . S
Sc134 O152 2.105 . S
O135 Sc132 2.025 . S
O135 Sc133 2.025 . S
O135 Sc134 2.025 . S
C136 O142 1.268 . S
C136 O152 1.268 . S
C137 O143 1.268 . S
C137 O151 1.268 . S
C138 O144 1.268 . S
C138 O153 1.268 . S
C139 O145 1.268 . S
C139 O149 1.268 . S
C140 O146 1.268 . S
C140 O148 1.268 . S
C141 O147 1.268 . S
C141 O150 1.268 . S
O142 Sc132 2.105 . S
O142 C136 1.268 . S
O143 Sc133 2.105 . S
O143 C137 1.268 . S
O144 Sc134 2.105 . S
O144 C138 1.268 . S
O145 Sc132 2.105 . S
O145 C139 1.268 . S
O146 Sc134 2.105 . S
O146 C140 1.268 . S
O147 Sc133 2.105 . S
O147 C141 1.268 . S
O148 Sc132 2.105 . S
O148 C140 1.268 . S
O149 Sc133 2.105 . S
O149 C139 1.268 . S
O150 Sc134 2.105 . S
O150 C141 1.268 . S
O151 Sc132 2.105 . S
O151 C137 1.268 . S
O152 Sc134 2.105 . S
O152 C136 1.268 . S
O153 Sc133 2.105 . S
O153 C138 1.268 . S
Sc154 O157 2.025 . S
Sc154 O164 2.105 . S
Sc154 O167 2.105 . S
Sc154 O170 2.105 . S
Sc154 O173 2.105 . S
Sc155 O157 2.025 . S
Sc155 O165 2.105 . S
Sc155 O169 2.105 . S
Sc155 O171 2.105 . S
Sc155 O175 2.105 . S
Sc156 O157 2.025 . S
Sc156 O166 2.105 . S
Sc156 O168 2.105 . S
Sc156 O172 2.105 . S
Sc156 O174 2.105 . S
O157 Sc154 2.025 . S
O157 Sc155 2.025 . S
O157 Sc156 2.025 . S
C158 O164 1.268 . S
C158 O174 1.268 . S
C159 O165 1.268 . S
C159 O173 1.268 . S
C160 O166 1.268 . S
C160 O175 1.268 . S
C161 O167 1.268 . S
C161 O171 1.268 . S
C162 O168 1.268 . S
C162 O170 1.268 . S
C163 O169 1.268 . S
C163 O172 1.268 . S
O164 Sc154 2.105 . S
O164 C158 1.268 . S
O165 Sc155 2.105 . S
O165 C159 1.268 . S
O166 Sc156 2.105 . S
O166 C160 1.268 . S
O167 Sc154 2.105 . S
O167 C161 1.268 . S
O168 Sc156 2.105 . S
O168 C162 1.268 . S
O169 Sc155 2.105 . S
O169 C163 1.268 . S
O170 Sc154 2.105 . S
O170 C162 1.268 . S
O171 Sc155 2.105 . S
O171 C161 1.268 . S
O172 Sc156 2.105 . S
O172 C163 1.268 . S
O173 Sc154 2.105 . S
O173 C159 1.268 . S
O174 Sc156 2.105 . S
O174 C158 1.268 . S
O175 Sc155 2.105 . S
O175 C160 1.268 . S
Sc176 O179 2.025 . S
Sc176 O186 2.105 . S
Sc176 O189 2.105 . S
Sc176 O192 2.105 . S
Sc176 O195 2.105 . S
Sc177 O179 2.025 . S
Sc177 O187 2.105 . S
Sc177 O191 2.105 . S
Sc177 O193 2.105 . S
Sc177 O197 2.105 . S
Sc178 O179 2.025 . S
Sc178 O188 2.105 . S
Sc178 O190 2.105 . S
Sc178 O194 2.105 . S
Sc178 O196 2.105 . S
O179 Sc176 2.025 . S
O179 Sc177 2.025 . S
O179 Sc178 2.025 . S
C180 O186 1.268 . S
C180 O196 1.268 . S
C181 O187 1.268 . S
C181 O195 1.268 . S
C182 O188 1.268 . S
C182 O197 1.268 . S
C183 O189 1.268 . S
C183 O193 1.268 . S
C184 O190 1.268 . S
C184 O192 1.268 . S
C185 O191 1.268 . S
C185 O194 1.268 . S
O186 Sc176 2.105 . S
O186 C180 1.268 . S
O187 Sc177 2.105 . S
O187 C181 1.268 . S
O188 Sc178 2.105 . S
O188 C182 1.268 . S
O189 Sc176 2.105 . S
O189 C183 1.268 . S
O190 Sc178 2.105 . S
O190 C184 1.268 . S
O191 Sc177 2.105 . S
O191 C185 1.268 . S
O192 Sc176 2.105 . S
O192 C184 1.268 . S
O193 Sc177 2.105 . S
O193 C183 1.268 . S
O194 Sc178 2.105 . S
O194 C185 1.268 . S
O195 Sc176 2.105 . S
O195 C181 1.268 . S
O196 Sc178 2.105 . S
O196 C180 1.268 . S
O197 Sc177 2.105 . S
O197 C182 1.268 . S
Sc198 O201 2.025 . S
Sc198 O208 2.105 . S
Sc198 O211 2.105 . S
Sc198 O214 2.105 . S
Sc198 O217 2.105 . S
Sc199 O201 2.025 . S
Sc199 O209 2.105 . S
Sc199 O213 2.105 . S
Sc199 O215 2.105 . S
Sc199 O219 2.105 . S
Sc200 O201 2.025 . S
Sc200 O210 2.105 . S
Sc200 O212 2.105 . S
Sc200 O216 2.105 . S
Sc200 O218 2.105 . S
O201 Sc198 2.025 . S
O201 Sc199 2.025 . S
O201 Sc200 2.025 . S
C202 O208 1.268 . S
C202 O218 1.268 . S
C203 O209 1.268 . S
C203 O217 1.268 . S
C204 O210 1.268 . S
C204 O219 1.268 . S
C205 O211 1.268 . S
C205 O215 1.268 . S
C206 O212 1.268 . S
C206 O214 1.268 . S
C207 O213 1.268 . S
C207 O216 1.268 . S
O208 Sc198 2.105 . S
O208 C202 1.268 . S
O209 Sc199 2.105 . S
O209 C203 1.268 . S
O210 Sc200 2.105 . S
O210 C204 1.268 . S
O211 Sc198 2.105 . S
O211 C205 1.268 . S
O212 Sc200 2.105 . S
O212 C206 1.268 . S
O213 Sc199 2.105 . S
O213 C207 1.268 . S
O214 Sc198 2.105 . S
O214 C206 1.268 . S
O215 Sc199 2.105 . S
O215 C205 1.268 . S
O216 Sc200 2.105 . S
O216 C207 1.268 . S
O217 Sc198 2.105 . S
O217 C203 1.268 . S
O218 Sc200 2.105 . S
O218 C202 1.268 . S
O219 Sc199 2.105 . S
O219 C204 1.268 . S
Sc220 O223 2.025 . S
Sc220 O230 2.105 . S
Sc220 O233 2.105 . S
Sc220 O236 2.105 . S
Sc220 O239 2.105 . S
Sc221 O223 2.025 . S
Sc221 O231 2.105 . S
Sc221 O235 2.105 . S
Sc221 O237 2.105 . S
Sc221 O241 2.105 . S
Sc222 O223 2.025 . S
Sc222 O232 2.105 . S
Sc222 O234 2.105 . S
Sc222 O238 2.105 . S
Sc222 O240 2.105 . S
O223 Sc220 2.025 . S
O223 Sc221 2.025 . S
O223 Sc222 2.025 . S
C224 O230 1.268 . S
C224 O240 1.268 . S
C225 O231 1.268 . S
C225 O239 1.268 . S
C226 O232 1.268 . S
C226 O241 1.268 . S
C227 O233 1.268 . S
C227 O237 1.268 . S
C228 O234 1.268 . S
C228 O236 1.268 . S
C229 O235 1.268 . S
C229 O238 1.268 . S
O230 Sc220 2.105 . S
O230 C224 1.268 . S
O231 Sc221 2.105 . S
O231 C225 1.268 . S
O232 Sc222 2.105 . S
O232 C226 1.268 . S
O233 Sc220 2.105 . S
O233 C227 1.268 . S
O234 Sc222 2.105 . S
O234 C228 1.268 . S
O235 Sc221 2.105 . S
O235 C229 1.268 . S
O236 Sc220 2.105 . S
O236 C228 1.268 . S
O237 Sc221 2.105 . S
O237 C227 1.268 . S
O238 Sc222 2.105 . S
O238 C229 1.268 . S
O239 Sc220 2.105 . S
O239 C225 1.268 . S
O240 Sc222 2.105 . S
O240 C224 1.268 . S
O241 Sc221 2.105 . S
O241 C226 1.268 . S
Sc242 O245 2.025 . S
Sc242 O252 2.105 . S
Sc242 O255 2.105 . S
Sc242 O258 2.105 . S
Sc242 O261 2.105 . S
Sc243 O245 2.025 . S
Sc243 O253 2.105 . S
Sc243 O257 2.105 . S
Sc243 O259 2.105 . S
Sc243 O263 2.105 . S
Sc244 O245 2.025 . S
Sc244 O254 2.105 . S
Sc244 O256 2.105 . S
Sc244 O260 2.105 . S
Sc244 O262 2.105 . S
O245 Sc242 2.025 . S
O245 Sc243 2.025 . S
O245 Sc244 2.025 . S
C246 O252 1.268 . S
C246 O262 1.268 . S
C247 O253 1.268 . S
C247 O261 1.268 . S
C248 O254 1.268 . S
C248 O263 1.268 . S
C249 O255 1.268 . S
C249 O259 1.268 . S
C250 O256 1.268 . S
C250 O258 1.268 . S
C251 O257 1.268 . S
C251 O260 1.268 . S
O252 Sc242 2.105 . S
O252 C246 1.268 . S
O253 Sc243 2.105 . S
O253 C247 1.268 . S
O254 Sc244 2.105 . S
O254 C248 1.268 . S
O255 Sc242 2.105 . S
O255 C249 1.268 . S
O256 Sc244 2.105 . S
O256 C250 1.268 . S
O257 Sc243 2.105 . S
O257 C251 1.268 . S
O258 Sc242 2.105 . S
O258 C250 1.268 . S
O259 Sc243 2.105 . S
O259 C249 1.268 . S
O260 Sc244 2.105 . S
O260 C251 1.268 . S
O261 Sc242 2.105 . S
O261 C247 1.268 . S
O262 Sc244 2.105 . S
O262 C246 1.268 . S
O263 Sc243 2.105 . S
O263 C248 1.268 . S
Sc264 O267 2.025 . S
Sc264 O274 2.105 . S
Sc264 O277 2.105 . S
Sc264 O280 2.105 . S
Sc264 O283 2.105 . S
Sc265 O267 2.025 . S
Sc265 O275 2.105 . S
Sc265 O279 2.105 . S
Sc265 O281 2.105 . S
Sc265 O285 2.105 . S
Sc266 O267 2.025 . S
Sc266 O276 2.105 . S
Sc266 O278 2.105 . S
Sc266 O282 2.105 . S
Sc266 O284 2.105 . S
O267 Sc264 2.025 . S
O267 Sc265 2.025 . S
O267 Sc266 2.025 . S
C268 O274 1.268 . S
C268 O284 1.268 . S
C269 O275 1.268 . S
C269 O283 1.268 . S
C270 O276 1.268 . S
C270 O285 1.268 . S
C271 O277 1.268 . S
C271 O281 1.268 . S
C272 O278 1.268 . S
C272 O280 1.268 . S
C273 O279 1.268 . S
C273 O282 1.268 . S
O274 Sc264 2.105 . S
O274 C268 1.268 . S
O275 Sc265 2.105 . S
O275 C269 1.268 . S
O276 Sc266 2.105 . S
O276 C270 1.268 . S
O277 Sc264 2.105 . S
O277 C271 1.268 . S
O278 Sc266 2.105 . S
O278 C272 1.268 . S
O279 Sc265 2.105 . S
O279 C273 1.268 . S
O280 Sc264 2.105 . S
O280 C272 1.268 . S
O281 Sc265 2.105 . S
O281 C271 1.268 . S
O282 Sc266 2.105 . S
O282 C273 1.268 . S
O283 Sc264 2.105 . S
O283 C269 1.268 . S
O284 Sc266 2.105 . S
O284 C268 1.268 . S
O285 Sc265 2.105 . S
O285 C270 1.268 . S
Sc286 O289 2.025 . S
Sc286 O296 2.105 . S
Sc286 O299 2.105 . S
Sc286 O302 2.105 . S
Sc286 O305 2.105 . S
Sc287 O289 2.025 . S
Sc287 O297 2.105 . S
Sc287 O301 2.105 . S
Sc287 O303 2.105 . S
Sc287 O307 2.105 . S
Sc288 O289 2.025 . S
Sc288 O298 2.105 . S
Sc288 O300 2.105 . S
Sc288 O304 2.105 . S
Sc288 O306 2.105 . S
O289 Sc286 2.025 . S
O289 Sc287 2.025 . S
O289 Sc288 2.025 . S
C290 O296 1.268 . S
C290 O306 1.268 . S
C291 O297 1.268 . S
C291 O305 1.268 . S
C292 O298 1.268 . S
C292 O307 1.268 . S
C293 O299 1.268 . S
C293 O303 1.268 . S
C294 O300 1.268 . S
C294 O302 1.268 . S
C295 O301 1.268 . S
C295 O304 1.268 . S
O296 Sc286 2.105 . S
O296 C290 1.268 . S
O297 Sc287 2.105 . S
O297 C291 1.268 . S
O298 Sc288 2.105 . S
O298 C292 1.268 . S
O299 Sc286 2.105 . S
O299 C293 1.268 . S
O300 Sc288 2.105 . S
O300 C294 1.268 . S
O301 Sc287 2.105 . S
O301 C295 1.268 . S
O302 Sc286 2.105 . S
O302 C294 1.268 . S
O303 Sc287 2.105 . S
O303 C293 1.268 . S
O304 Sc288 2.105 . S
O304 C295 1.268 . S
O305 Sc286 2.105 . S
O305 C291 1.268 . S
O306 Sc288 2.105 . S
O306 C290 1.268 . S
O307 Sc287 2.105 . S
O307 C292 1.268 . S
Sc308 O311 2.025 . S
Sc308 O318 2.105 . S
Sc308 O321 2.105 . S
Sc308 O324 2.105 . S
Sc308 O327 2.105 . S
Sc309 O311 2.025 . S
Sc309 O319 2.105 . S
Sc309 O323 2.105 . S
Sc309 O325 2.105 . S
Sc309 O329 2.105 . S
Sc310 O311 2.025 . S
Sc310 O320 2.105 . S
Sc310 O322 2.105 . S
Sc310 O326 2.105 . S
Sc310 O328 2.105 . S
O311 Sc308 2.025 . S
O311 Sc309 2.025 . S
O311 Sc310 2.025 . S
C312 O318 1.268 . S
C312 O328 1.268 . S
C313 O319 1.268 . S
C313 O327 1.268 . S
C314 O320 1.268 . S
C314 O329 1.268 . S
C315 O321 1.268 . S
C315 O325 1.268 . S
C316 O322 1.268 . S
C316 O324 1.268 . S
C317 O323 1.268 . S
C317 O326 1.268 . S
O318 Sc308 2.105 . S
O318 C312 1.268 . S
O319 Sc309 2.105 . S
O319 C313 1.268 . S
O320 Sc310 2.105 . S
O320 C314 1.268 . S
O321 Sc308 2.105 . S
O321 C315 1.268 . S
O322 Sc310 2.105 . S
O322 C316 1.268 . S
O323 Sc309 2.105 . S
O323 C317 1.268 . S
O324 Sc308 2.105 . S
O324 C316 1.268 . S
O325 Sc309 2.105 . S
O325 C315 1.268 . S
O326 Sc310 2.105 . S
O326 C317 1.268 . S
O327 Sc308 2.105 . S
O327 C313 1.268 . S
O328 Sc310 2.105 . S
O328 C312 1.268 . S
O329 Sc309 2.105 . S
O329 C314 1.268 . S
Sc330 O333 2.025 . S
Sc330 O340 2.105 . S
Sc330 O343 2.105 . S
Sc330 O346 2.105 . S
Sc330 O349 2.105 . S
Sc331 O333 2.025 . S
Sc331 O341 2.105 . S
Sc331 O345 2.105 . S
Sc331 O347 2.105 . S
Sc331 O351 2.105 . S
Sc332 O333 2.025 . S
Sc332 O342 2.105 . S
Sc332 O344 2.105 . S
Sc332 O348 2.105 . S
Sc332 O350 2.105 . S
O333 Sc330 2.025 . S
O333 Sc331 2.025 . S
O333 Sc332 2.025 . S
C334 O340 1.268 . S
C334 O350 1.268 . S
C335 O341 1.268 . S
C335 O349 1.268 . S
C336 O342 1.268 . S
C336 O351 1.268 . S
C337 O343 1.268 . S
C337 O347 1.268 . S
C338 O344 1.268 . S
C338 O346 1.268 . S
C339 O345 1.268 . S
C339 O348 1.268 . S
O340 Sc330 2.105 . S
O340 C334 1.268 . S
O341 Sc331 2.105 . S
O341 C335 1.268 . S
O342 Sc332 2.105 . S
O342 C336 1.268 . S
O343 Sc330 2.105 . S
O343 C337 1.268 . S
O344 Sc332 2.105 . S
O344 C338 1.268 . S
O345 Sc331 2.105 . S
O345 C339 1.268 . S
O346 Sc330 2.105 . S
O346 C338 1.268 . S
O347 Sc331 2.105 . S
O347 C337 1.268 . S
O348 Sc332 2.105 . S
O348 C339 1.268 . S
O349 Sc330 2.105 . S
O349 C335 1.268 . S
O350 Sc332 2.105 . S
O350 C334 1.268 . S
O351 Sc331 2.105 . S
O351 C336 1.268 . S
H352 C360 0.929 . S
H353 C362 0.930 . S
H354 C364 0.930 . S
H355 C367 0.929 . S
H356 C370 0.930 . S
H357 C372 0.960 . S
H358 C372 0.960 . S
H359 C372 0.960 . S
C360 H352 0.929 . S
C360 C361 1.377 . S
C360 C362 1.384 . S
C361 C360 1.377 . S
C361 C367 1.390 . S
C362 H353 0.930 . S
C362 C360 1.384 . S
C362 C363 1.372 . S
C363 C362 1.372 . S
C363 C364 1.400 . S
C363 C368 1.490 . S
C364 H354 0.930 . S
C364 C363 1.400 . S
C364 C367 1.386 . S
H365 C381 0.930 . S
H366 C382 0.931 . S
C367 H355 0.929 . S
C367 C361 1.390 . S
C367 C364 1.386 . S
C368 C363 1.490 . S
C368 C370 1.395 . S
C368 C371 1.403 . S
H369 C375 0.930 . S
C370 H356 0.930 . S
C370 C368 1.395 . S
C370 C373 1.403 . S
C371 C368 1.403 . S
C371 C372 1.524 . S
C371 C375 1.400 . S
C372 H357 0.960 . S
C372 H358 0.960 . S
C372 H359 0.960 . S
C372 C371 1.524 . S
C373 C370 1.403 . S
C373 C374 1.392 . S
C373 C377 1.495 1_545 S
C374 C373 1.392 . S
C374 C375 1.385 . S
C374 C376 1.478 1_545 S
C375 H369 0.930 . S
C375 C371 1.400 . S
C375 C374 1.385 . S
C376 C374 1.478 1_565 S
C376 C378 1.381 . S
C376 C382 1.383 . S
C377 C373 1.495 1_565 S
C377 H383 0.959 . S
C377 H384 0.961 . S
C377 H385 0.960 . S
C378 C376 1.381 . S
C378 C379 1.394 . S
C378 H386 0.930 . S
C379 C378 1.394 . S
C379 C380 1.383 . S
C379 H387 0.929 . S
C380 C379 1.383 . S
C380 C381 1.377 . S
C381 H365 0.930 . S
C381 C380 1.377 . S
C381 C382 1.379 . S
C382 H366 0.931 . S
C382 C376 1.383 . S
C382 C381 1.379 . S
H383 C377 0.959 . S
H384 C377 0.961 . S
H385 C377 0.960 . S
H386 C378 0.930 . S
H387 C379 0.929 . S
H388 C396 0.929 . S
H389 C398 0.930 . S
H390 C400 0.930 . S
H391 C403 0.929 . S
H392 C406 0.930 . S
H393 C408 0.960 . S
H394 C408 0.960 . S
H395 C408 0.960 . S
C396 H388 0.929 . S
C396 C397 1.377 . S
C396 C398 1.384 . S
C397 C396 1.377 . S
C397 C403 1.390 . S
C398 H389 0.930 . S
C398 C396 1.384 . S
C398 C399 1.372 . S
C399 C398 1.372 . S
C399 C400 1.400 . S
C399 C404 1.490 . S
C400 H390 0.930 . S
C400 C399 1.400 . S
C400 C403 1.386 . S
H401 C417 0.930 . S
H402 C418 0.931 . S
C403 H391 0.929 . S
C403 C397 1.390 . S
C403 C400 1.386 . S
C404 C399 1.490 . S
C404 C406 1.395 . S
C404 C407 1.403 . S
H405 C411 0.930 . S
C406 H392 0.930 . S
C406 C404 1.395 . S
C406 C409 1.403 . S
C407 C404 1.403 . S
C407 C408 1.524 . S
C407 C411 1.400 . S
C408 H393 0.960 . S
C408 H394 0.960 . S
C408 H395 0.960 . S
C408 C407 1.524 . S
C409 C406 1.403 . S
C409 C410 1.392 . S
C409 C413 1.495 . S
C410 C409 1.392 . S
C410 C411 1.385 . S
C410 C412 1.478 1_565 S
C411 H405 0.930 . S
C411 C407 1.400 . S
C411 C410 1.385 . S
C412 C410 1.478 1_545 S
C412 C414 1.381 . S
C412 C418 1.383 . S
C413 C409 1.495 . S
C413 H419 0.959 . S
C413 H420 0.961 . S
C413 H421 0.960 . S
C414 C412 1.381 . S
C414 C415 1.394 . S
C414 H422 0.930 . S
C415 C414 1.394 . S
C415 C416 1.383 . S
C415 H423 0.929 . S
C416 C415 1.383 . S
C416 C417 1.377 . S
C417 H401 0.930 . S
C417 C416 1.377 . S
C417 C418 1.379 . S
C418 H402 0.931 . S
C418 C412 1.383 . S
C418 C417 1.379 . S
H419 C413 0.959 . S
H420 C413 0.961 . S
H421 C413 0.960 . S
H422 C414 0.930 . S
H423 C415 0.929 . S
H424 C432 0.929 . S
H425 C434 0.930 . S
H426 C436 0.930 . S
H427 C439 0.929 . S
H428 C442 0.930 . S
H429 C444 0.960 . S
H430 C444 0.960 . S
H431 C444 0.960 . S
C432 H424 0.929 . S
C432 C433 1.377 . S
C432 C434 1.384 . S
C433 C432 1.377 . S
C433 C439 1.390 . S
C434 H425 0.930 . S
C434 C432 1.384 . S
C434 C435 1.372 . S
C435 C434 1.372 . S
C435 C436 1.400 . S
C435 C440 1.490 . S
C436 H426 0.930 . S
C436 C435 1.400 . S
C436 C439 1.386 . S
H437 C453 0.930 . S
H438 C454 0.931 . S
C439 H427 0.929 . S
C439 C433 1.390 . S
C439 C436 1.386 . S
C440 C435 1.490 . S
C440 C442 1.395 . S
C440 C443 1.403 . S
H441 C447 0.930 . S
C442 H428 0.930 . S
C442 C440 1.395 . S
C442 C445 1.403 . S
C443 C440 1.403 . S
C443 C444 1.524 . S
C443 C447 1.400 . S
C444 H429 0.960 . S
C444 H430 0.960 . S
C444 H431 0.960 . S
C444 C443 1.524 . S
C445 C442 1.403 . S
C445 C446 1.392 . S
C445 C449 1.495 . S
C446 C445 1.392 . S
C446 C447 1.385 . S
C446 C448 1.478 1_565 S
C447 H441 0.930 . S
C447 C443 1.400 . S
C447 C446 1.385 . S
C448 C446 1.478 1_545 S
C448 C450 1.381 . S
C448 C454 1.383 . S
C449 C445 1.495 . S
C449 H455 0.959 . S
C449 H456 0.961 . S
C449 H457 0.960 . S
C450 C448 1.381 . S
C450 C451 1.394 . S
C450 H458 0.930 1_545 S
C451 C450 1.394 . S
C451 C452 1.383 . S
C451 H459 0.929 . S
C452 C451 1.383 . S
C452 C453 1.377 . S
C453 H437 0.930 . S
C453 C452 1.377 . S
C453 C454 1.379 . S
C454 H438 0.931 . S
C454 C448 1.383 . S
C454 C453 1.379 . S
H455 C449 0.959 . S
H456 C449 0.961 . S
H457 C449 0.960 . S
H458 C450 0.930 1_565 S
H459 C451 0.929 . S
H460 C468 0.929 . S
H461 C470 0.930 1_545 S
H462 C472 0.930 . S
H463 C475 0.929 . S
H464 C478 0.930 . S
H465 C480 0.960 1_545 S
H466 C480 0.960 . S
H467 C480 0.960 . S
C468 H460 0.929 . S
C468 C469 1.377 . S
C468 C470 1.384 . S
C469 C468 1.377 . S
C469 C475 1.390 . S
C470 H461 0.930 1_565 S
C470 C468 1.384 . S
C470 C471 1.372 . S
C471 C470 1.372 . S
C471 C472 1.400 . S
C471 C476 1.490 1_565 S
C472 H462 0.930 . S
C472 C471 1.400 . S
C472 C475 1.386 . S
H473 C489 0.930 . S
H474 C490 0.931 . S
C475 H463 0.929 . S
C475 C469 1.390 . S
C475 C472 1.386 . S
C476 C471 1.490 1_545 S
C476 C478 1.395 . S
C476 C479 1.403 . S
H477 C483 0.930 . S
C478 H464 0.930 . S
C478 C476 1.395 . S
C478 C481 1.403 . S
C479 C476 1.403 . S
C479 C480 1.524 1_545 S
C479 C483 1.400 . S
C480 H465 0.960 1_565 S
C480 H466 0.960 . S
C480 H467 0.960 . S
C480 C479 1.524 1_565 S
C481 C478 1.403 . S
C481 C482 1.392 . S
C481 C485 1.495 . S
C482 C481 1.392 . S
C482 C483 1.385 . S
C482 C484 1.478 . S
C483 H477 0.930 . S
C483 C479 1.400 . S
C483 C482 1.385 . S
C484 C482 1.478 . S
C484 C486 1.381 . S
C484 C490 1.383 . S
C485 C481 1.495 . S
C485 H491 0.959 . S
C485 H492 0.961 . S
C485 H493 0.960 . S
C486 C484 1.381 . S
C486 C487 1.394 . S
C486 H494 0.930 . S
C487 C486 1.394 . S
C487 C488 1.383 . S
C487 H495 0.929 . S
C488 C487 1.383 . S
C488 C489 1.377 . S
C489 H473 0.930 . S
C489 C488 1.377 . S
C489 C490 1.379 . S
C490 H474 0.931 . S
C490 C484 1.383 . S
C490 C489 1.379 . S
H491 C485 0.959 . S
H492 C485 0.961 . S
H493 C485 0.960 . S
H494 C486 0.930 . S
H495 C487 0.929 . S
H496 C504 0.929 . S
H497 C506 0.930 . S
H498 C508 0.930 . S
H499 C511 0.929 . S
H500 C514 0.930 . S
H501 C516 0.960 . S
H502 C516 0.960 . S
H503 C516 0.960 . S
C504 H496 0.929 . S
C504 C505 1.377 . S
C504 C506 1.384 . S
C505 C504 1.377 . S
C505 C511 1.390 . S
C506 H497 0.930 . S
C506 C504 1.384 . S
C506 C507 1.372 . S
C507 C506 1.372 . S
C507 C508 1.400 . S
C507 C512 1.490 1_545 S
C508 H498 0.930 . S
C508 C507 1.400 . S
C508 C511 1.386 . S
H509 C525 0.930 . S
H510 C526 0.931 . S
C511 H499 0.929 . S
C511 C505 1.390 . S
C511 C508 1.386 . S
C512 C507 1.490 1_565 S
C512 C514 1.395 . S
C512 C515 1.403 . S
H513 C519 0.930 . S
C514 H500 0.930 . S
C514 C512 1.395 . S
C514 C517 1.403 . S
C515 C512 1.403 . S
C515 C516 1.524 1_565 S
C515 C519 1.400 . S
C516 H501 0.960 . S
C516 H502 0.960 . S
C516 H503 0.960 . S
C516 C515 1.524 1_545 S
C517 C514 1.403 . S
C517 C518 1.392 . S
C517 C521 1.495 . S
C518 C517 1.392 . S
C518 C519 1.385 . S
C518 C520 1.478 . S
C519 H513 0.930 . S
C519 C515 1.400 . S
C519 C518 1.385 . S
C520 C518 1.478 . S
C520 C522 1.381 . S
C520 C526 1.383 . S
C521 C517 1.495 . S
C521 H527 0.959 . S
C521 H528 0.961 . S
C521 H529 0.960 . S
C522 C520 1.381 . S
C522 C523 1.394 . S
C522 H530 0.930 . S
C523 C522 1.394 . S
C523 C524 1.383 . S
C523 H531 0.929 . S
C524 C523 1.383 . S
C524 C525 1.377 . S
C525 H509 0.930 . S
C525 C524 1.377 . S
C525 C526 1.379 . S
C526 H510 0.931 . S
C526 C520 1.383 . S
C526 C525 1.379 . S
H527 C521 0.959 . S
H528 C521 0.961 . S
H529 C521 0.960 . S
H530 C522 0.930 . S
H531 C523 0.929 . S
H532 C540 0.929 . S
H533 C542 0.930 . S
H534 C544 0.930 . S
H535 C547 0.929 . S
H536 C550 0.930 . S
H537 C552 0.961 . S
H538 C552 0.960 . S
H539 C552 0.960 . S
C540 H532 0.929 . S
C540 C541 1.377 . S
C540 C542 1.384 . S
C541 C540 1.377 . S
C541 C547 1.390 . S
C542 H533 0.930 . S
C542 C540 1.384 . S
C542 C543 1.372 . S
C543 C542 1.372 . S
C543 C544 1.400 . S
C543 C548 1.490 1_565 S
C544 H534 0.930 . S
C544 C543 1.400 . S
C544 C547 1.386 . S
H545 C561 0.930 . S
H546 C562 0.931 . S
C547 H535 0.929 . S
C547 C541 1.390 . S
C547 C544 1.386 . S
C548 C543 1.490 1_545 S
C548 C550 1.395 . S
C548 C551 1.403 . S
H549 C555 0.930 . S
C550 H536 0.930 . S
C550 C548 1.395 . S
C550 C553 1.403 . S
C551 C548 1.403 . S
C551 C552 1.524 1_545 S
C551 C555 1.400 . S
C552 H537 0.961 . S
C552 H538 0.960 . S
C552 H539 0.960 . S
C552 C551 1.524 1_565 S
C553 C550 1.403 . S
C553 C554 1.392 . S
C553 C557 1.495 . S
C554 C553 1.392 . S
C554 C555 1.385 . S
C554 C556 1.478 . S
C555 H549 0.930 . S
C555 C551 1.400 . S
C555 C554 1.385 . S
C556 C554 1.478 . S
C556 C558 1.381 . S
C556 C562 1.383 . S
C557 C553 1.495 . S
C557 H563 0.959 . S
C557 H564 0.961 . S
C557 H565 0.960 . S
C558 C556 1.381 . S
C558 C559 1.394 . S
C558 H566 0.930 . S
C559 C558 1.394 . S
C559 C560 1.383 . S
C559 H567 0.929 . S
C560 C559 1.383 . S
C560 C561 1.377 . S
C561 H545 0.930 . S
C561 C560 1.377 . S
C561 C562 1.379 . S
C562 H546 0.931 . S
C562 C556 1.383 . S
C562 C561 1.379 . S
H563 C557 0.959 . S
H564 C557 0.961 . S
H565 C557 0.960 . S
H566 C558 0.930 . S
H567 C559 0.929 . S
H568 C576 0.929 . S
H569 C578 0.930 . S
H570 C580 0.930 . S
H571 C583 0.929 . S
H572 C586 0.930 1_565 S
H573 C588 0.960 . S
H574 C588 0.960 . S
H575 C588 0.960 . S
C576 H568 0.929 . S
C576 C577 1.377 . S
C576 C578 1.384 . S
C577 C576 1.377 . S
C577 C583 1.390 . S
C578 H569 0.930 . S
C578 C576 1.384 . S
C578 C579 1.372 . S
C579 C578 1.372 . S
C579 C580 1.400 . S
C579 C584 1.490 1_565 S
C580 H570 0.930 . S
C580 C579 1.400 . S
C580 C583 1.386 . S
H581 C597 0.930 . S
H582 C598 0.931 . S
C583 H571 0.929 . S
C583 C577 1.390 . S
C583 C580 1.386 . S
C584 C579 1.490 1_545 S
C584 C586 1.395 . S
C584 C587 1.403 . S
H585 C591 0.930 . S
C586 H572 0.930 1_545 S
C586 C584 1.395 . S
C586 C589 1.403 . S
C587 C584 1.403 . S
C587 C588 1.524 . S
C587 C591 1.400 . S
C588 H573 0.960 . S
C588 H574 0.960 . S
C588 H575 0.960 . S
C588 C587 1.524 . S
C589 C586 1.403 . S
C589 C590 1.392 . S
C589 C593 1.495 . S
C590 C589 1.392 . S
C590 C591 1.385 . S
C590 C592 1.478 . S
C591 H585 0.930 . S
C591 C587 1.400 . S
C591 C590 1.385 . S
C592 C590 1.478 . S
C592 C594 1.381 . S
C592 C598 1.383 . S
C593 C589 1.495 . S
C593 H599 0.959 . S
C593 H600 0.961 . S
C593 H601 0.960 . S
C594 C592 1.381 . S
C594 C595 1.394 . S
C594 H602 0.930 . S
C595 C594 1.394 . S
C595 C596 1.383 . S
C595 H603 0.929 . S
C596 C595 1.383 . S
C596 C597 1.377 . S
C597 H581 0.930 . S
C597 C596 1.377 . S
C597 C598 1.379 . S
C598 H582 0.931 . S
C598 C592 1.383 . S
C598 C597 1.379 . S
H599 C593 0.959 . S
H600 C593 0.961 . S
H601 C593 0.960 . S
H602 C594 0.930 . S
H603 C595 0.929 . S
H604 C612 0.929 . S
H605 C614 0.930 . S
H606 C616 0.930 . S
H607 C619 0.929 . S
H608 C622 0.930 1_545 S
H609 C624 0.960 . S
H610 C624 0.960 . S
H611 C624 0.960 . S
C612 H604 0.929 . S
C612 C613 1.377 . S
C612 C614 1.384 . S
C613 C612 1.377 . S
C613 C619 1.390 . S
C614 H605 0.930 . S
C614 C612 1.384 . S
C614 C615 1.372 . S
C615 C614 1.372 . S
C615 C616 1.400 . S
C615 C620 1.490 1_545 S
C616 H606 0.930 . S
C616 C615 1.400 . S
C616 C619 1.386 . S
H617 C633 0.930 . S
H618 C634 0.931 . S
C619 H607 0.929 . S
C619 C613 1.390 . S
C619 C616 1.386 . S
C620 C615 1.490 1_565 S
C620 C622 1.395 . S
C620 C623 1.403 . S
H621 C627 0.930 . S
C622 H608 0.930 1_565 S
C622 C620 1.395 . S
C622 C625 1.403 . S
C623 C620 1.403 . S
C623 C624 1.524 . S
C623 C627 1.400 . S
C624 H609 0.960 . S
C624 H610 0.960 . S
C624 H611 0.960 . S
C624 C623 1.524 . S
C625 C622 1.403 . S
C625 C626 1.392 . S
C625 C629 1.495 . S
C626 C625 1.392 . S
C626 C627 1.385 . S
C626 C628 1.478 . S
C627 H621 0.930 . S
C627 C623 1.400 . S
C627 C626 1.385 . S
C628 C626 1.478 . S
C628 C630 1.381 . S
C628 C634 1.383 . S
C629 C625 1.495 . S
C629 H635 0.959 . S
C629 H636 0.961 . S
C629 H637 0.960 . S
C630 C628 1.381 . S
C630 C631 1.394 . S
C630 H638 0.930 . S
C631 C630 1.394 . S
C631 C632 1.383 . S
C631 H639 0.929 . S
C632 C631 1.383 . S
C632 C633 1.377 . S
C633 H617 0.930 . S
C633 C632 1.377 . S
C633 C634 1.379 . S
C634 H618 0.931 . S
C634 C628 1.383 . S
C634 C633 1.379 . S
H635 C629 0.959 . S
H636 C629 0.961 . S
H637 C629 0.960 . S
H638 C630 0.930 . S
H639 C631 0.929 . S
H640 C648 0.929 . S
H641 C650 0.930 . S
H642 C652 0.930 . S
H643 C655 0.929 . S
H644 C658 0.930 . S
H645 C660 0.960 . S
H646 C660 0.960 . S
H647 C660 0.960 . S
C648 H640 0.929 . S
C648 C649 1.377 . S
C648 C650 1.384 . S
C649 C648 1.377 . S
C649 C655 1.390 . S
C650 H641 0.930 . S
C650 C648 1.384 . S
C650 C651 1.372 . S
C651 C650 1.372 . S
C651 C652 1.400 . S
C651 C656 1.490 . S
C652 H642 0.930 . S
C652 C651 1.400 . S
C652 C655 1.386 . S
H653 C669 0.930 . S
H654 C670 0.931 . S
C655 H643 0.929 . S
C655 C649 1.390 . S
C655 C652 1.386 . S
C656 C651 1.490 . S
C656 C658 1.395 . S
C656 C659 1.403 . S
H657 C663 0.930 . S
C658 H644 0.930 . S
C658 C656 1.395 . S
C658 C661 1.403 . S
C659 C656 1.403 . S
C659 C660 1.524 . S
C659 C663 1.400 . S
C660 H645 0.960 . S
C660 H646 0.960 . S
C660 H647 0.960 . S
C660 C659 1.524 . S
C661 C658 1.403 . S
C661 C662 1.392 . S
C661 C665 1.495 . S
C662 C661 1.392 . S
C662 C663 1.385 . S
C662 C664 1.478 . S
C663 H657 0.930 . S
C663 C659 1.400 . S
C663 C662 1.385 . S
C664 C662 1.478 . S
C664 C666 1.381 . S
C664 C670 1.383 . S
C665 C661 1.495 . S
C665 H671 0.959 . S
C665 H672 0.961 . S
C665 H673 0.960 . S
C666 C664 1.381 . S
C666 C667 1.394 . S
C666 H674 0.930 . S
C667 C666 1.394 . S
C667 C668 1.383 . S
C667 H675 0.929 . S
C668 C667 1.383 . S
C668 C669 1.377 . S
C669 H653 0.930 . S
C669 C668 1.377 . S
C669 C670 1.379 . S
C670 H654 0.931 . S
C670 C664 1.383 . S
C670 C669 1.379 . S
H671 C665 0.959 . S
H672 C665 0.961 . S
H673 C665 0.960 . S
H674 C666 0.930 . S
H675 C667 0.929 . S
H676 C684 0.929 . S
H677 C686 0.930 . S
H678 C688 0.930 . S
H679 C691 0.929 . S
H680 C694 0.930 . S
H681 C696 0.960 . S
H682 C696 0.960 . S
H683 C696 0.960 . S
C684 H676 0.929 . S
C684 C685 1.377 . S
C684 C686 1.384 . S
C685 C684 1.377 . S
C685 C691 1.390 . S
C686 H677 0.930 . S
C686 C684 1.384 . S
C686 C687 1.372 . S
C687 C686 1.372 . S
C687 C688 1.400 . S
C687 C692 1.490 . S
C688 H678 0.930 . S
C688 C687 1.400 . S
C688 C691 1.386 . S
H689 C705 0.930 . S
H690 C706 0.931 . S
C691 H679 0.929 . S
C691 C685 1.390 . S
C691 C688 1.386 . S
C692 C687 1.490 . S
C692 C694 1.395 . S
C692 C695 1.403 . S
H693 C699 0.930 . S
C694 H680 0.930 . S
C694 C692 1.395 . S
C694 C697 1.403 . S
C695 C692 1.403 . S
C695 C696 1.524 . S
C695 C699 1.400 . S
C696 H681 0.960 . S
C696 H682 0.960 . S
C696 H683 0.960 . S
C696 C695 1.524 . S
C697 C694 1.403 . S
C697 C698 1.392 . S
C697 C701 1.495 . S
C698 C697 1.392 . S
C698 C699 1.385 . S
C698 C700 1.478 . S
C699 H693 0.930 . S
C699 C695 1.400 . S
C699 C698 1.385 . S
C700 C698 1.478 . S
C700 C702 1.381 . S
C700 C706 1.383 . S
C701 C697 1.495 . S
C701 H707 0.959 . S
C701 H708 0.961 . S
C701 H709 0.960 . S
C702 C700 1.381 . S
C702 C703 1.394 . S
C702 H710 0.930 . S
C703 C702 1.394 . S
C703 C704 1.383 . S
C703 H711 0.929 . S
C704 C703 1.383 . S
C704 C705 1.377 . S
C705 H689 0.930 . S
C705 C704 1.377 . S
C705 C706 1.379 . S
C706 H690 0.931 . S
C706 C700 1.383 . S
C706 C705 1.379 . S
H707 C701 0.959 . S
H708 C701 0.961 . S
H709 C701 0.960 . S
H710 C702 0.930 . S
H711 C703 0.929 . S
H712 C720 0.929 . S
H713 C722 0.930 . S
H714 C724 0.930 . S
H715 C727 0.929 . S
H716 C730 0.930 . S
H717 C732 0.960 . S
H718 C732 0.960 . S
H719 C732 0.960 . S
C720 H712 0.929 . S
C720 C721 1.377 . S
C720 C722 1.384 . S
C721 C720 1.377 . S
C721 C727 1.390 . S
C722 H713 0.930 . S
C722 C720 1.384 . S
C722 C723 1.372 . S
C723 C722 1.372 . S
C723 C724 1.400 . S
C723 C728 1.490 . S
C724 H714 0.930 . S
C724 C723 1.400 . S
C724 C727 1.386 . S
H725 C741 0.930 . S
H726 C742 0.931 . S
C727 H715 0.929 . S
C727 C721 1.390 . S
C727 C724 1.386 . S
C728 C723 1.490 . S
C728 C730 1.395 . S
C728 C731 1.403 . S
H729 C735 0.930 . S
C730 H716 0.930 . S
C730 C728 1.395 . S
C730 C733 1.403 . S
C731 C728 1.403 . S
C731 C732 1.524 . S
C731 C735 1.400 . S
C732 H717 0.960 . S
C732 H718 0.960 . S
C732 H719 0.960 . S
C732 C731 1.524 . S
C733 C730 1.403 . S
C733 C734 1.392 . S
C733 C737 1.495 . S
C734 C733 1.392 . S
C734 C735 1.385 . S
C734 C736 1.478 . S
C735 H729 0.930 . S
C735 C731 1.400 . S
C735 C734 1.385 . S
C736 C734 1.478 . S
C736 C738 1.381 . S
C736 C742 1.383 . S
C737 C733 1.495 . S
C737 H743 0.959 . S
C737 H744 0.961 . S
C737 H745 0.960 . S
C738 C736 1.381 . S
C738 C739 1.394 . S
C738 H746 0.930 . S
C739 C738 1.394 . S
C739 C740 1.383 . S
C739 H747 0.929 . S
C740 C739 1.383 . S
C740 C741 1.377 . S
C741 H725 0.930 . S
C741 C740 1.377 . S
C741 C742 1.379 . S
C742 H726 0.931 . S
C742 C736 1.383 . S
C742 C741 1.379 . S
H743 C737 0.959 . S
H744 C737 0.961 . S
H745 C737 0.960 . S
H746 C738 0.930 . S
H747 C739 0.929 . S
H748 C756 0.929 . S
H749 C758 0.930 . S
H750 C760 0.930 . S
H751 C763 0.929 . S
H752 C766 0.930 . S
H753 C768 0.960 . S
H754 C768 0.960 . S
H755 C768 0.960 . S
C756 H748 0.929 . S
C756 C757 1.377 . S
C756 C758 1.384 . S
C757 C756 1.377 . S
C757 C763 1.390 . S
C758 H749 0.930 . S
C758 C756 1.384 . S
C758 C759 1.372 . S
C759 C758 1.372 . S
C759 C760 1.400 . S
C759 C764 1.490 . S
C760 H750 0.930 . S
C760 C759 1.400 . S
C760 C763 1.386 . S
H761 C777 0.930 . S
H762 C778 0.931 . S
C763 H751 0.929 . S
C763 C757 1.390 . S
C763 C760 1.386 . S
C764 C759 1.490 . S
C764 C766 1.395 . S
C764 C767 1.403 . S
H765 C771 0.930 . S
C766 H752 0.930 . S
C766 C764 1.395 . S
C766 C769 1.403 . S
C767 C764 1.403 . S
C767 C768 1.524 . S
C767 C771 1.400 . S
C768 H753 0.960 . S
C768 H754 0.960 . S
C768 H755 0.960 . S
C768 C767 1.524 . S
C769 C766 1.403 . S
C769 C770 1.392 . S
C769 C773 1.495 . S
C770 C769 1.392 . S
C770 C771 1.385 . S
C770 C772 1.478 . S
C771 H765 0.930 . S
C771 C767 1.400 . S
C771 C770 1.385 . S
C772 C770 1.478 . S
C772 C774 1.381 . S
C772 C778 1.383 . S
C773 C769 1.495 . S
C773 H779 0.959 . S
C773 H780 0.961 . S
C773 H781 0.960 . S
C774 C772 1.381 . S
C774 C775 1.394 . S
C774 H782 0.930 . S
C775 C774 1.394 . S
C775 C776 1.383 . S
C775 H783 0.929 . S
C776 C775 1.383 . S
C776 C777 1.377 . S
C777 H761 0.930 . S
C777 C776 1.377 . S
C777 C778 1.379 . S
C778 H762 0.931 . S
C778 C772 1.383 . S
C778 C777 1.379 . S
H779 C773 0.959 . S
H780 C773 0.961 . S
H781 C773 0.960 . S
H782 C774 0.930 . S
H783 C775 0.929 . S
H784 C792 0.929 . S
H785 C794 0.930 . S
H786 C796 0.930 . S
H787 C799 0.929 . S
H788 C802 0.930 . S
H789 C804 0.960 . S
H790 C804 0.960 . S
H791 C804 0.960 . S
C792 H784 0.929 . S
C792 C793 1.377 . S
C792 C794 1.384 . S
C793 C792 1.377 . S
C793 C799 1.390 . S
C794 H785 0.930 . S
C794 C792 1.384 . S
C794 C795 1.372 . S
C795 C794 1.372 . S
C795 C796 1.400 . S
C795 C800 1.490 . S
C796 H786 0.930 . S
C796 C795 1.400 . S
C796 C799 1.386 . S
H797 C813 0.930 . S
H798 C814 0.931 . S
C799 H787 0.929 . S
C799 C793 1.390 . S
C799 C796 1.386 . S
C800 C795 1.490 . S
C800 C802 1.395 . S
C800 C803 1.403 . S
H801 C807 0.930 . S
C802 H788 0.930 . S
C802 C800 1.395 . S
C802 C805 1.403 . S
C803 C800 1.403 . S
C803 C804 1.524 . S
C803 C807 1.400 . S
C804 H789 0.960 . S
C804 H790 0.960 . S
C804 H791 0.960 . S
C804 C803 1.524 . S
C805 C802 1.403 . S
C805 C806 1.392 . S
C805 C809 1.495 . S
C806 C805 1.392 . S
C806 C807 1.385 . S
C806 C808 1.478 . S
C807 H801 0.930 . S
C807 C803 1.400 . S
C807 C806 1.385 . S
C808 C806 1.478 . S
C808 C810 1.381 . S
C808 C814 1.383 . S
C809 C805 1.495 . S
C809 H815 0.959 . S
C809 H816 0.961 . S
C809 H817 0.960 . S
C810 C808 1.381 . S
C810 C811 1.394 . S
C810 H818 0.930 . S
C811 C810 1.394 . S
C811 C812 1.383 . S
C811 H819 0.929 . S
C812 C811 1.383 . S
C812 C813 1.377 . S
C813 H797 0.930 . S
C813 C812 1.377 . S
C813 C814 1.379 . S
C814 H798 0.931 . S
C814 C808 1.383 . S
C814 C813 1.379 . S
H815 C809 0.959 . S
H816 C809 0.961 . S
H817 C809 0.960 . S
H818 C810 0.930 . S
H819 C811 0.929 . S
H820 C828 0.929 . S
H821 C830 0.930 . S
H822 C832 0.930 . S
H823 C835 0.929 . S
H824 C838 0.930 . S
H825 C840 0.960 . S
H826 C840 0.960 . S
H827 C840 0.960 . S
C828 H820 0.929 . S
C828 C829 1.377 . S
C828 C830 1.384 . S
C829 C828 1.377 . S
C829 C835 1.390 . S
C830 H821 0.930 . S
C830 C828 1.384 . S
C830 C831 1.372 . S
C831 C830 1.372 . S
C831 C832 1.400 . S
C831 C836 1.490 . S
C832 H822 0.930 . S
C832 C831 1.400 . S
C832 C835 1.386 . S
H833 C849 0.930 . S
H834 C850 0.931 . S
C835 H823 0.929 . S
C835 C829 1.390 . S
C835 C832 1.386 . S
C836 C831 1.490 . S
C836 C838 1.395 . S
C836 C839 1.403 . S
H837 C843 0.930 . S
C838 H824 0.930 . S
C838 C836 1.395 . S
C838 C841 1.403 . S
C839 C836 1.403 . S
C839 C840 1.524 . S
C839 C843 1.400 . S
C840 H825 0.960 . S
C840 H826 0.960 . S
C840 H827 0.960 . S
C840 C839 1.524 . S
C841 C838 1.403 . S
C841 C842 1.392 . S
C841 C845 1.495 . S
C842 C841 1.392 . S
C842 C843 1.385 . S
C842 C844 1.478 . S
C843 H837 0.930 . S
C843 C839 1.400 . S
C843 C842 1.385 . S
C844 C842 1.478 . S
C844 C846 1.381 . S
C844 C850 1.383 . S
C845 C841 1.495 . S
C845 H851 0.959 . S
C845 H852 0.961 . S
C845 H853 0.960 . S
C846 C844 1.381 . S
C846 C847 1.394 . S
C846 H854 0.930 . S
C847 C846 1.394 . S
C847 C848 1.383 . S
C847 H855 0.929 . S
C848 C847 1.383 . S
C848 C849 1.377 . S
C849 H833 0.930 . S
C849 C848 1.377 . S
C849 C850 1.379 . S
C850 H834 0.931 . S
C850 C844 1.383 . S
C850 C849 1.379 . S
H851 C845 0.959 . S
H852 C845 0.961 . S
H853 C845 0.960 . S
H854 C846 0.930 . S
H855 C847 0.929 . S
H856 C864 0.929 . S
H857 C866 0.930 . S
H858 C868 0.930 . S
H859 C871 0.929 . S
H860 C874 0.930 . S
H861 C876 0.960 . S
H862 C876 0.960 . S
H863 C876 0.960 . S
C864 H856 0.929 . S
C864 C865 1.377 . S
C864 C866 1.384 . S
C865 C864 1.377 . S
C865 C871 1.390 . S
C866 H857 0.930 . S
C866 C864 1.384 . S
C866 C867 1.372 . S
C867 C866 1.372 . S
C867 C868 1.400 . S
C867 C872 1.490 . S
C868 H858 0.930 . S
C868 C867 1.400 . S
C868 C871 1.386 . S
H869 C885 0.930 . S
H870 C886 0.931 . S
C871 H859 0.929 . S
C871 C865 1.390 . S
C871 C868 1.386 . S
C872 C867 1.490 . S
C872 C874 1.395 . S
C872 C875 1.403 . S
H873 C879 0.930 . S
C874 H860 0.930 . S
C874 C872 1.395 . S
C874 C877 1.403 . S
C875 C872 1.403 . S
C875 C876 1.524 . S
C875 C879 1.400 . S
C876 H861 0.960 . S
C876 H862 0.960 . S
C876 H863 0.960 . S
C876 C875 1.524 . S
C877 C874 1.403 . S
C877 C878 1.392 . S
C877 C881 1.495 . S
C878 C877 1.392 . S
C878 C879 1.385 . S
C878 C880 1.478 . S
C879 H873 0.930 . S
C879 C875 1.400 . S
C879 C878 1.385 . S
C880 C878 1.478 . S
C880 C882 1.381 . S
C880 C886 1.383 . S
C881 C877 1.495 . S
C881 H887 0.959 . S
C881 H888 0.961 . S
C881 H889 0.960 . S
C882 C880 1.381 . S
C882 C883 1.394 . S
C882 H890 0.930 . S
C883 C882 1.394 . S
C883 C884 1.383 . S
C883 H891 0.929 . S
C884 C883 1.383 . S
C884 C885 1.377 . S
C885 H869 0.930 . S
C885 C884 1.377 . S
C885 C886 1.379 . S
C886 H870 0.931 . S
C886 C880 1.383 . S
C886 C885 1.379 . S
H887 C881 0.959 . S
H888 C881 0.961 . S
H889 C881 0.960 . S
H890 C882 0.930 . S
H891 C883 0.929 . S
H892 C900 0.929 . S
H893 C902 0.930 . S
H894 C904 0.930 . S
H895 C907 0.929 . S
H896 C910 0.930 . S
H897 C912 0.960 . S
H898 C912 0.960 . S
H899 C912 0.960 . S
C900 H892 0.929 . S
C900 C901 1.377 . S
C900 C902 1.384 . S
C901 C900 1.377 . S
C901 C907 1.390 . S
C902 H893 0.930 . S
C902 C900 1.384 . S
C902 C903 1.372 . S
C903 C902 1.372 . S
C903 C904 1.400 . S
C903 C908 1.490 . S
C904 H894 0.930 . S
C904 C903 1.400 . S
C904 C907 1.386 . S
H905 C921 0.930 . S
H906 C922 0.931 . S
C907 H895 0.929 . S
C907 C901 1.390 . S
C907 C904 1.386 . S
C908 C903 1.490 . S
C908 C910 1.395 . S
C908 C911 1.403 . S
H909 C915 0.930 . S
C910 H896 0.930 . S
C910 C908 1.395 . S
C910 C913 1.403 . S
C911 C908 1.403 . S
C911 C912 1.524 . S
C911 C915 1.400 . S
C912 H897 0.960 . S
C912 H898 0.960 . S
C912 H899 0.960 . S
C912 C911 1.524 . S
C913 C910 1.403 . S
C913 C914 1.392 . S
C913 C917 1.495 . S
C914 C913 1.392 . S
C914 C915 1.385 . S
C914 C916 1.478 . S
C915 H909 0.930 . S
C915 C911 1.400 . S
C915 C914 1.385 . S
C916 C914 1.478 . S
C916 C918 1.381 . S
C916 C922 1.383 . S
C917 C913 1.495 . S
C917 H923 0.959 . S
C917 H924 0.961 . S
C917 H925 0.960 . S
C918 C916 1.381 . S
C918 C919 1.394 . S
C918 H926 0.930 . S
C919 C918 1.394 . S
C919 C920 1.383 . S
C919 H927 0.929 . S
C920 C919 1.383 . S
C920 C921 1.377 . S
C921 H905 0.930 . S
C921 C920 1.377 . S
C921 C922 1.379 . S
C922 H906 0.931 . S
C922 C916 1.383 . S
C922 C921 1.379 . S
H923 C917 0.959 . S
H924 C917 0.961 . S
H925 C917 0.960 . S
H926 C918 0.930 . S
H927 C919 0.929 . S
H928 C936 0.929 . S
H929 C938 0.930 . S
H930 C940 0.930 . S
H931 C943 0.929 . S
H932 C946 0.930 . S
H933 C948 0.960 . S
H934 C948 0.960 . S
H935 C948 0.960 . S
C936 H928 0.929 . S
C936 C937 1.377 . S
C936 C938 1.384 . S
C937 C936 1.377 . S
C937 C943 1.390 . S
C938 H929 0.930 . S
C938 C936 1.384 . S
C938 C939 1.372 . S
C939 C938 1.372 . S
C939 C940 1.400 . S
C939 C944 1.490 . S
C940 H930 0.930 . S
C940 C939 1.400 . S
C940 C943 1.386 . S
H941 C957 0.930 . S
H942 C958 0.931 . S
C943 H931 0.929 . S
C943 C937 1.390 . S
C943 C940 1.386 . S
C944 C939 1.490 . S
C944 C946 1.395 . S
C944 C947 1.403 1_554 S
H945 C951 0.930 . S
C946 H932 0.930 . S
C946 C944 1.395 . S
C946 C949 1.403 . S
C947 C944 1.403 1_556 S
C947 C948 1.524 . S
C947 C951 1.400 . S
C948 H933 0.960 . S
C948 H934 0.960 . S
C948 H935 0.960 . S
C948 C947 1.524 . S
C949 C946 1.403 . S
C949 C950 1.392 1_554 S
C949 C953 1.495 . S
C950 C949 1.392 1_556 S
C950 C951 1.385 . S
C950 C952 1.478 . S
C951 H945 0.930 . S
C951 C947 1.400 . S
C951 C950 1.385 . S
C952 C950 1.478 . S
C952 C954 1.381 . S
C952 C958 1.383 . S
C953 C949 1.495 . S
C953 H959 0.959 . S
C953 H960 0.961 . S
C953 H961 0.960 . S
C954 C952 1.381 . S
C954 C955 1.394 . S
C954 H962 0.930 . S
C955 C954 1.394 . S
C955 C956 1.383 . S
C955 H963 0.929 . S
C956 C955 1.383 . S
C956 C957 1.377 . S
C957 H941 0.930 . S
C957 C956 1.377 . S
C957 C958 1.379 . S
C958 H942 0.931 . S
C958 C952 1.383 . S
C958 C957 1.379 . S
H959 C953 0.959 . S
H960 C953 0.961 . S
H961 C953 0.960 . S
H962 C954 0.930 . S
H963 C955 0.929 . S
H964 C972 0.929 . S
H965 C974 0.930 . S
H966 C976 0.930 . S
H967 C979 0.929 . S
H968 C982 0.930 . S
H969 C984 0.960 . S
H970 C984 0.960 . S
H971 C984 0.960 . S
C972 H964 0.929 . S
C972 C973 1.377 . S
C972 C974 1.384 . S
C973 C972 1.377 . S
C973 C979 1.390 . S
C974 H965 0.930 . S
C974 C972 1.384 . S
C974 C975 1.372 . S
C975 C974 1.372 . S
C975 C976 1.400 . S
C975 C980 1.490 . S
C976 H966 0.930 . S
C976 C975 1.400 . S
C976 C979 1.386 . S
H977 C993 0.930 . S
H978 C994 0.931 . S
C979 H967 0.929 . S
C979 C973 1.390 . S
C979 C976 1.386 . S
C980 C975 1.490 . S
C980 C982 1.395 . S
C980 C983 1.403 . S
H981 C987 0.930 . S
C982 H968 0.930 . S
C982 C980 1.395 . S
C982 C985 1.403 . S
C983 C980 1.403 . S
C983 C984 1.524 . S
C983 C987 1.400 . S
C984 H969 0.960 . S
C984 H970 0.960 . S
C984 H971 0.960 . S
C984 C983 1.524 . S
C985 C982 1.403 . S
C985 C986 1.392 . S
C985 C989 1.495 . S
C986 C985 1.392 . S
C986 C987 1.385 . S
C986 C988 1.478 . S
C987 H981 0.930 . S
C987 C983 1.400 . S
C987 C986 1.385 . S
C988 C986 1.478 . S
C988 C990 1.381 . S
C988 C994 1.383 . S
C989 C985 1.495 . S
C989 H995 0.959 . S
C989 H996 0.961 . S
C989 H997 0.960 . S
C990 C988 1.381 . S
C990 C991 1.394 . S
C990 H998 0.930 . S
C991 C990 1.394 . S
C991 C992 1.383 . S
C991 H999 0.929 . S
C992 C991 1.383 . S
C992 C993 1.377 . S
C993 H977 0.930 . S
C993 C992 1.377 . S
C993 C994 1.379 . S
C994 H978 0.931 . S
C994 C988 1.383 . S
C994 C993 1.379 . S
H995 C989 0.959 . S
H996 C989 0.961 . S
H997 C989 0.960 . S
H998 C990 0.930 . S
H999 C991 0.929 . S
H1000 C1008 0.929 . S
H1001 C1010 0.930 . S
H1002 C1012 0.930 . S
H1003 C1015 0.929 . S
H1004 C1018 0.930 . S
H1005 C1020 0.960 . S
H1006 C1020 0.960 . S
H1007 C1020 0.960 . S
C1008 H1000 0.929 . S
C1008 C1009 1.377 . S
C1008 C1010 1.384 . S
C1009 C1008 1.377 . S
C1009 C1015 1.390 . S
C1010 H1001 0.930 . S
C1010 C1008 1.384 . S
C1010 C1011 1.372 . S
C1011 C1010 1.372 . S
C1011 C1012 1.400 . S
C1011 C1016 1.490 . S
C1012 H1002 0.930 . S
C1012 C1011 1.400 . S
C1012 C1015 1.386 . S
H1013 C1029 0.930 . S
H1014 C1030 0.931 . S
C1015 H1003 0.929 . S
C1015 C1009 1.390 . S
C1015 C1012 1.386 . S
C1016 C1011 1.490 . S
C1016 C1018 1.395 . S
C1016 C1019 1.403 1_554 S
H1017 C1023 0.930 . S
C1018 H1004 0.930 . S
C1018 C1016 1.395 . S
C1018 C1021 1.403 . S
C1019 C1016 1.403 1_556 S
C1019 C1020 1.524 . S
C1019 C1023 1.400 . S
C1020 H1005 0.960 . S
C1020 H1006 0.960 . S
C1020 H1007 0.960 . S
C1020 C1019 1.524 . S
C1021 C1018 1.403 . S
C1021 C1022 1.392 1_554 S
C1021 C1025 1.495 . S
C1022 C1021 1.392 1_556 S
C1022 C1023 1.385 . S
C1022 C1024 1.478 . S
C1023 H1017 0.930 . S
C1023 C1019 1.400 . S
C1023 C1022 1.385 . S
C1024 C1022 1.478 . S
C1024 C1026 1.381 . S
C1024 C1030 1.383 . S
C1025 C1021 1.495 . S
C1025 H1031 0.959 . S
C1025 H1032 0.961 . S
C1025 H1033 0.960 . S
C1026 C1024 1.381 . S
C1026 C1027 1.394 . S
C1026 H1034 0.930 . S
C1027 C1026 1.394 . S
C1027 C1028 1.383 . S
C1027 H1035 0.929 . S
C1028 C1027 1.383 . S
C1028 C1029 1.377 . S
C1029 H1013 0.930 . S
C1029 C1028 1.377 . S
C1029 C1030 1.379 . S
C1030 H1014 0.931 . S
C1030 C1024 1.383 . S
C1030 C1029 1.379 . S
H1031 C1025 0.959 . S
H1032 C1025 0.961 . S
H1033 C1025 0.960 . S
H1034 C1026 0.930 . S
H1035 C1027 0.929 . S
H1036 C1044 0.929 . S
H1037 C1046 0.930 . S
H1038 C1048 0.930 . S
H1039 C1051 0.929 . S
H1040 C1054 0.930 . S
H1041 C1056 0.960 . S
H1042 C1056 0.960 . S
H1043 C1056 0.960 . S
C1044 H1036 0.929 . S
C1044 C1045 1.377 . S
C1044 C1046 1.384 . S
C1045 C1044 1.377 . S
C1045 C1051 1.390 . S
C1046 H1037 0.930 . S
C1046 C1044 1.384 . S
C1046 C1047 1.372 . S
C1047 C1046 1.372 . S
C1047 C1048 1.400 . S
C1047 C1052 1.490 . S
C1048 H1038 0.930 . S
C1048 C1047 1.400 . S
C1048 C1051 1.386 . S
H1049 C1065 0.930 . S
H1050 C1066 0.931 . S
C1051 H1039 0.929 . S
C1051 C1045 1.390 . S
C1051 C1048 1.386 . S
C1052 C1047 1.490 . S
C1052 C1054 1.395 . S
C1052 C1055 1.403 . S
H1053 C1059 0.930 . S
C1054 H1040 0.930 . S
C1054 C1052 1.395 . S
C1054 C1057 1.403 . S
C1055 C1052 1.403 . S
C1055 C1056 1.524 . S
C1055 C1059 1.400 . S
C1056 H1041 0.960 . S
C1056 H1042 0.960 . S
C1056 H1043 0.960 . S
C1056 C1055 1.524 . S
C1057 C1054 1.403 . S
C1057 C1058 1.392 . S
C1057 C1061 1.495 . S
C1058 C1057 1.392 . S
C1058 C1059 1.385 . S
C1058 C1060 1.478 . S
C1059 H1053 0.930 . S
C1059 C1055 1.400 . S
C1059 C1058 1.385 . S
C1060 C1058 1.478 . S
C1060 C1062 1.381 . S
C1060 C1066 1.383 . S
C1061 C1057 1.495 . S
C1061 H1067 0.959 . S
C1061 H1068 0.961 . S
C1061 H1069 0.960 . S
C1062 C1060 1.381 . S
C1062 C1063 1.394 . S
C1062 H1070 0.930 . S
C1063 C1062 1.394 . S
C1063 C1064 1.383 . S
C1063 H1071 0.929 . S
C1064 C1063 1.383 . S
C1064 C1065 1.377 . S
C1065 H1049 0.930 . S
C1065 C1064 1.377 . S
C1065 C1066 1.379 . S
C1066 H1050 0.931 . S
C1066 C1060 1.383 . S
C1066 C1065 1.379 . S
H1067 C1061 0.959 . S
H1068 C1061 0.961 . S
H1069 C1061 0.960 . S
H1070 C1062 0.930 . S
H1071 C1063 0.929 . S
H1072 C1080 0.929 . S
H1073 C1082 0.930 . S
H1074 C1084 0.930 . S
H1075 C1087 0.929 . S
H1076 C1090 0.930 . S
H1077 C1092 0.960 . S
H1078 C1092 0.960 . S
H1079 C1092 0.960 . S
C1080 H1072 0.929 . S
C1080 C1081 1.377 . S
C1080 C1082 1.384 . S
C1081 C1080 1.377 . S
C1081 C1087 1.390 . S
C1082 H1073 0.930 . S
C1082 C1080 1.384 . S
C1082 C1083 1.372 . S
C1083 C1082 1.372 . S
C1083 C1084 1.400 . S
C1083 C1088 1.490 . S
C1084 H1074 0.930 . S
C1084 C1083 1.400 . S
C1084 C1087 1.386 . S
H1085 C1101 0.930 . S
H1086 C1102 0.931 . S
C1087 H1075 0.929 . S
C1087 C1081 1.390 . S
C1087 C1084 1.386 . S
C1088 C1083 1.490 . S
C1088 C1090 1.395 1_556 S
C1088 C1091 1.403 1_545 S
H1089 C1095 0.933 . S
C1090 H1076 0.930 . S
C1090 C1088 1.395 1_554 S
C1090 C1093 1.403 . S
C1091 C1088 1.403 1_565 S
C1091 C1092 1.524 . S
C1091 C1095 1.416 . S
C1092 H1077 0.960 . S
C1092 H1078 0.960 . S
C1092 H1079 0.960 . S
C1092 C1091 1.524 . S
C1093 C1090 1.403 . S
C1093 C1094 1.392 1_545 S
C1093 C1097 1.495 . S
C1094 C1093 1.392 1_565 S
C1094 C1095 1.367 1_554 S
C1094 C1096 1.478 . S
C1095 H1089 0.933 . S
C1095 C1091 1.416 . S
C1095 C1094 1.367 1_556 S
C1096 C1094 1.478 . S
C1096 C1098 1.381 . S
C1096 C1102 1.383 . S
C1097 C1093 1.495 . S
C1097 H1103 0.959 . S
C1097 H1104 0.961 . S
C1097 H1105 0.960 . S
C1098 C1096 1.381 . S
C1098 C1099 1.394 . S
C1098 H1106 0.930 . S
C1099 C1098 1.394 . S
C1099 C1100 1.383 . S
C1099 H1107 0.929 . S
C1100 C1099 1.383 . S
C1100 C1101 1.377 . S
C1101 H1085 0.930 . S
C1101 C1100 1.377 . S
C1101 C1102 1.379 . S
C1102 H1086 0.931 . S
C1102 C1096 1.383 . S
C1102 C1101 1.379 . S
H1103 C1097 0.959 . S
H1104 C1097 0.961 . S
H1105 C1097 0.960 . S
H1106 C1098 0.930 . S
H1107 C1099 0.929 . S
H1108 C1116 0.929 . S
H1109 C1118 0.930 . S
H1110 C1120 0.930 . S
H1111 C1123 0.929 . S
H1112 C1126 0.930 . S
H1113 C1128 0.960 . S
H1114 C1128 0.960 . S
H1115 C1128 0.960 . S
C1116 H1108 0.929 . S
C1116 C1117 1.377 . S
C1116 C1118 1.384 . S
C1117 C1116 1.377 . S
C1117 C1123 1.390 . S
C1118 H1109 0.930 . S
C1118 C1116 1.384 . S
C1118 C1119 1.372 . S
C1119 C1118 1.372 . S
C1119 C1120 1.400 . S
C1119 C1124 1.490 . S
C1120 H1110 0.930 . S
C1120 C1119 1.400 . S
C1120 C1123 1.386 . S
H1121 C1137 0.930 . S
H1122 C1138 0.931 . S
C1123 H1111 0.929 . S
C1123 C1117 1.390 . S
C1123 C1120 1.386 . S
C1124 C1119 1.490 . S
C1124 C1126 1.395 . S
C1124 C1127 1.403 1_565 S
H1125 C1131 0.930 . S
C1126 H1112 0.930 . S
C1126 C1124 1.395 . S
C1126 C1129 1.403 . S
C1127 C1124 1.403 1_545 S
C1127 C1128 1.524 . S
C1127 C1131 1.400 . S
C1128 H1113 0.960 . S
C1128 H1114 0.960 . S
C1128 H1115 0.960 . S
C1128 C1127 1.524 . S
C1129 C1126 1.403 . S
C1129 C1130 1.392 1_565 S
C1129 C1133 1.495 . S
C1130 C1129 1.392 1_545 S
C1130 C1131 1.385 . S
C1130 C1132 1.478 . S
C1131 H1125 0.930 . S
C1131 C1127 1.400 . S
C1131 C1130 1.385 . S
C1132 C1130 1.478 . S
C1132 C1134 1.381 . S
C1132 C1138 1.383 . S
C1133 C1129 1.495 . S
C1133 H1139 0.959 . S
C1133 H1140 0.961 . S
C1133 H1141 0.960 . S
C1134 C1132 1.381 . S
C1134 C1135 1.394 . S
C1134 H1142 0.930 . S
C1135 C1134 1.394 . S
C1135 C1136 1.383 . S
C1135 H1143 0.929 . S
C1136 C1135 1.383 . S
C1136 C1137 1.377 . S
C1137 H1121 0.930 . S
C1137 C1136 1.377 . S
C1137 C1138 1.379 . S
C1138 H1122 0.931 . S
C1138 C1132 1.383 . S
C1138 C1137 1.379 . S
H1139 C1133 0.959 . S
H1140 C1133 0.961 . S
H1141 C1133 0.960 . S
H1142 C1134 0.930 . S
H1143 C1135 0.929 . S
H1144 C1152 0.929 . S
H1145 C1154 0.930 . S
H1146 C1156 0.930 . S
H1147 C1159 0.929 . S
H1148 C1162 0.930 . S
H1149 C1164 0.960 . S
H1150 C1164 0.960 . S
H1151 C1164 0.960 1_554 S
C1152 H1144 0.929 . S
C1152 C1153 1.377 . S
C1152 C1154 1.384 . S
C1153 C1152 1.377 . S
C1153 C1159 1.390 . S
C1154 H1145 0.930 . S
C1154 C1152 1.384 . S
C1154 C1155 1.372 . S
C1155 C1154 1.372 . S
C1155 C1156 1.400 . S
C1155 C1160 1.490 . S
C1156 H1146 0.930 . S
C1156 C1155 1.400 . S
C1156 C1159 1.386 . S
H1157 C1173 0.930 . S
H1158 C1174 0.931 . S
C1159 H1147 0.929 . S
C1159 C1153 1.390 . S
C1159 C1156 1.386 . S
C1160 C1155 1.490 . S
C1160 C1162 1.395 1_565 S
C1160 C1163 1.403 1_554 S
H1161 C1167 0.930 . S
C1162 H1148 0.930 . S
C1162 C1160 1.395 1_545 S
C1162 C1165 1.403 . S
C1163 C1160 1.403 1_556 S
C1163 C1164 1.524 . S
C1163 C1167 1.400 . S
C1164 H1149 0.960 . S
C1164 H1150 0.960 . S
C1164 H1151 0.960 1_556 S
C1164 C1163 1.524 . S
C1165 C1162 1.403 . S
C1165 C1166 1.392 1_554 S
C1165 C1169 1.495 . S
C1166 C1165 1.392 1_556 S
C1166 C1167 1.385 1_545 S
C1166 C1168 1.478 . S
C1167 H1161 0.930 . S
C1167 C1163 1.400 . S
C1167 C1166 1.385 1_565 S
C1168 C1166 1.478 . S
C1168 C1170 1.381 . S
C1168 C1174 1.383 . S
C1169 C1165 1.495 . S
C1169 H1175 0.959 . S
C1169 H1176 0.961 . S
C1169 H1177 0.960 1_554 S
C1170 C1168 1.381 . S
C1170 C1171 1.394 . S
C1170 H1178 0.930 . S
C1171 C1170 1.394 . S
C1171 C1172 1.383 . S
C1171 H1179 0.929 . S
C1172 C1171 1.383 . S
C1172 C1173 1.377 . S
C1173 H1157 0.930 . S
C1173 C1172 1.377 . S
C1173 C1174 1.379 . S
C1174 H1158 0.931 . S
C1174 C1168 1.383 . S
C1174 C1173 1.379 . S
H1175 C1169 0.959 . S
H1176 C1169 0.961 . S
H1177 C1169 0.960 1_556 S
H1178 C1170 0.930 . S
H1179 C1171 0.929 . S
H1180 C1188 0.929 . S
H1181 C1190 0.930 . S
H1182 C1192 0.930 . S
H1183 C1195 0.929 . S
H1184 C1198 0.930 . S
H1185 C1200 0.960 . S
H1186 C1200 0.960 . S
H1187 C1200 0.960 . S
C1188 H1180 0.929 . S
C1188 C1189 1.377 . S
C1188 C1190 1.384 . S
C1189 C1188 1.377 . S
C1189 C1195 1.390 . S
C1190 H1181 0.930 . S
C1190 C1188 1.384 . S
C1190 C1191 1.372 . S
C1191 C1190 1.372 . S
C1191 C1192 1.400 . S
C1191 C1196 1.490 . S
C1192 H1182 0.930 . S
C1192 C1191 1.400 . S
C1192 C1195 1.386 . S
H1193 C1209 0.930 . S
H1194 C1210 0.931 . S
C1195 H1183 0.929 . S
C1195 C1189 1.390 . S
C1195 C1192 1.386 . S
C1196 C1191 1.490 . S
C1196 C1198 1.395 1_565 S
C1196 C1199 1.403 . S
H1197 C1203 0.930 . S
C1198 H1184 0.930 . S
C1198 C1196 1.395 1_545 S
C1198 C1201 1.403 . S
C1199 C1196 1.403 . S
C1199 C1200 1.524 . S
C1199 C1203 1.400 . S
C1200 H1185 0.960 . S
C1200 H1186 0.960 . S
C1200 H1187 0.960 . S
C1200 C1199 1.524 . S
C1201 C1198 1.403 . S
C1201 C1202 1.392 . S
C1201 C1205 1.495 . S
C1202 C1201 1.392 . S
C1202 C1203 1.385 1_545 S
C1202 C1204 1.478 . S
C1203 H1197 0.930 . S
C1203 C1199 1.400 . S
C1203 C1202 1.385 1_565 S
C1204 C1202 1.478 . S
C1204 C1206 1.381 . S
C1204 C1210 1.383 . S
C1205 C1201 1.495 . S
C1205 H1211 0.959 . S
C1205 H1212 0.961 . S
C1205 H1213 0.960 . S
C1206 C1204 1.381 . S
C1206 C1207 1.394 . S
C1206 H1214 0.930 . S
C1207 C1206 1.394 . S
C1207 C1208 1.383 . S
C1207 H1215 0.929 . S
C1208 C1207 1.383 . S
C1208 C1209 1.377 . S
C1209 H1193 0.930 . S
C1209 C1208 1.377 . S
C1209 C1210 1.379 . S
C1210 H1194 0.931 . S
C1210 C1204 1.383 . S
C1210 C1209 1.379 . S
H1211 C1205 0.959 . S
H1212 C1205 0.961 . S
H1213 C1205 0.960 . S
H1214 C1206 0.930 . S
H1215 C1207 0.929 . S
H1216 C1224 0.929 . S
H1217 C1226 0.930 . S
H1218 C1228 0.930 . S
H1219 C1231 0.929 . S
H1220 C1234 0.930 . S
H1221 C1236 0.960 . S
H1222 C1236 0.960 . S
H1223 C1236 0.960 . S
C1224 H1216 0.929 . S
C1224 C1225 1.377 . S
C1224 C1226 1.384 . S
C1225 C1224 1.377 . S
C1225 C1231 1.390 . S
C1226 H1217 0.930 . S
C1226 C1224 1.384 . S
C1226 C1227 1.372 . S
C1227 C1226 1.372 . S
C1227 C1228 1.400 . S
C1227 C1232 1.490 . S
C1228 H1218 0.930 . S
C1228 C1227 1.400 . S
C1228 C1231 1.386 . S
H1229 C1245 0.930 . S
H1230 C1246 0.931 . S
C1231 H1219 0.929 . S
C1231 C1225 1.390 . S
C1231 C1228 1.386 . S
C1232 C1227 1.490 . S
C1232 C1234 1.395 . S
C1232 C1235 1.403 . S
H1233 C1239 0.930 . S
C1234 H1220 0.930 . S
C1234 C1232 1.395 . S
C1234 C1237 1.403 . S
C1235 C1232 1.403 . S
C1235 C1236 1.524 . S
C1235 C1239 1.400 . S
C1236 H1221 0.960 . S
C1236 H1222 0.960 . S
C1236 H1223 0.960 . S
C1236 C1235 1.524 . S
C1237 C1234 1.403 . S
C1237 C1238 1.392 . S
C1237 C1241 1.495 . S
C1238 C1237 1.392 . S
C1238 C1239 1.385 . S
C1238 C1240 1.478 . S
C1239 H1233 0.930 . S
C1239 C1235 1.400 . S
C1239 C1238 1.385 . S
C1240 C1238 1.478 . S
C1240 C1242 1.381 . S
C1240 C1246 1.383 . S
C1241 C1237 1.495 . S
C1241 H1247 0.959 . S
C1241 H1248 0.961 . S
C1241 H1249 0.960 . S
C1242 C1240 1.381 . S
C1242 C1243 1.394 . S
C1242 H1250 0.930 . S
C1243 C1242 1.394 . S
C1243 C1244 1.383 . S
C1243 H1251 0.929 . S
C1244 C1243 1.383 . S
C1244 C1245 1.377 . S
C1245 H1229 0.930 . S
C1245 C1244 1.377 . S
C1245 C1246 1.379 . S
C1246 H1230 0.931 . S
C1246 C1240 1.383 . S
C1246 C1245 1.379 . S
H1247 C1241 0.959 . S
H1248 C1241 0.961 . S
H1249 C1241 0.960 . S
H1250 C1242 0.930 . S
H1251 C1243 0.929 . S
H1252 C1260 0.929 . S
H1253 C1262 0.930 . S
H1254 C1264 0.930 . S
H1255 C1267 0.929 . S
H1256 C1270 0.930 . S
H1257 C1272 0.960 . S
H1258 C1272 0.960 . S
H1259 C1272 0.960 . S
C1260 H1252 0.929 . S
C1260 C1261 1.377 . S
C1260 C1262 1.384 . S
C1261 C1260 1.377 . S
C1261 C1267 1.390 . S
C1262 H1253 0.930 . S
C1262 C1260 1.384 . S
C1262 C1263 1.372 . S
C1263 C1262 1.372 . S
C1263 C1264 1.400 . S
C1263 C1268 1.490 . S
C1264 H1254 0.930 . S
C1264 C1263 1.400 . S
C1264 C1267 1.386 . S
H1265 C1281 0.930 . S
H1266 C1282 0.931 . S
C1267 H1255 0.929 . S
C1267 C1261 1.390 . S
C1267 C1264 1.386 . S
C1268 C1263 1.490 . S
C1268 C1270 1.395 . S
C1268 C1271 1.403 . S
H1269 C1275 0.930 . S
C1270 H1256 0.930 . S
C1270 C1268 1.395 . S
C1270 C1273 1.403 . S
C1271 C1268 1.403 . S
C1271 C1272 1.524 . S
C1271 C1275 1.400 . S
C1272 H1257 0.960 . S
C1272 H1258 0.960 . S
C1272 H1259 0.960 . S
C1272 C1271 1.524 . S
C1273 C1270 1.403 . S
C1273 C1274 1.392 . S
C1273 C1277 1.495 . S
C1274 C1273 1.392 . S
C1274 C1275 1.385 . S
C1274 C1276 1.478 . S
C1275 H1269 0.930 . S
C1275 C1271 1.400 . S
C1275 C1274 1.385 . S
C1276 C1274 1.478 . S
C1276 C1278 1.381 . S
C1276 C1282 1.383 . S
C1277 C1273 1.495 . S
C1277 H1283 0.959 . S
C1277 H1284 0.961 . S
C1277 H1285 0.960 . S
C1278 C1276 1.381 . S
C1278 C1279 1.394 . S
C1278 H1286 0.930 . S
C1279 C1278 1.394 . S
C1279 C1280 1.383 . S
C1279 H1287 0.929 . S
C1280 C1279 1.383 . S
C1280 C1281 1.377 . S
C1281 H1265 0.930 . S
C1281 C1280 1.377 . S
C1281 C1282 1.379 . S
C1282 H1266 0.931 . S
C1282 C1276 1.383 . S
C1282 C1281 1.379 . S
H1283 C1277 0.959 . S
H1284 C1277 0.961 . S
H1285 C1277 0.960 . S
H1286 C1278 0.930 . S
H1287 C1279 0.929 . S
H1288 C1296 0.929 . S
H1289 C1298 0.930 . S
H1290 C1300 0.930 . S
H1291 C1303 0.929 . S
H1292 C1306 0.930 . S
H1293 C1308 0.960 . S
H1294 C1308 0.960 . S
H1295 C1308 0.960 . S
C1296 H1288 0.929 . S
C1296 C1297 1.377 . S
C1296 C1298 1.384 . S
C1297 C1296 1.377 . S
C1297 C1303 1.390 . S
C1298 H1289 0.930 . S
C1298 C1296 1.384 . S
C1298 C1299 1.372 . S
C1299 C1298 1.372 . S
C1299 C1300 1.400 . S
C1299 C1304 1.490 . S
C1300 H1290 0.930 . S
C1300 C1299 1.400 . S
C1300 C1303 1.386 . S
H1301 C1317 0.930 . S
H1302 C1318 0.931 . S
C1303 H1291 0.929 . S
C1303 C1297 1.390 . S
C1303 C1300 1.386 . S
C1304 C1299 1.490 . S
C1304 C1306 1.395 . S
C1304 C1307 1.403 . S
H1305 C1311 0.930 . S
C1306 H1292 0.930 . S
C1306 C1304 1.395 . S
C1306 C1309 1.403 . S
C1307 C1304 1.403 . S
C1307 C1308 1.524 . S
C1307 C1311 1.400 . S
C1308 H1293 0.960 . S
C1308 H1294 0.960 . S
C1308 H1295 0.960 . S
C1308 C1307 1.524 . S
C1309 C1306 1.403 . S
C1309 C1310 1.392 . S
C1309 C1313 1.495 . S
C1310 C1309 1.392 . S
C1310 C1311 1.385 . S
C1310 C1312 1.478 . S
C1311 H1305 0.930 . S
C1311 C1307 1.400 . S
C1311 C1310 1.385 . S
C1312 C1310 1.478 . S
C1312 C1314 1.381 . S
C1312 C1318 1.383 . S
C1313 C1309 1.495 . S
C1313 H1319 0.959 . S
C1313 H1320 0.961 . S
C1313 H1321 0.960 . S
C1314 C1312 1.381 . S
C1314 C1315 1.394 . S
C1314 H1322 0.930 . S
C1315 C1314 1.394 . S
C1315 C1316 1.383 . S
C1315 H1323 0.929 . S
C1316 C1315 1.383 . S
C1316 C1317 1.377 . S
C1317 H1301 0.930 . S
C1317 C1316 1.377 . S
C1317 C1318 1.379 . S
C1318 H1302 0.931 . S
C1318 C1312 1.383 . S
C1318 C1317 1.379 . S
H1319 C1313 0.959 . S
H1320 C1313 0.961 . S
H1321 C1313 0.960 . S
H1322 C1314 0.930 . S
H1323 C1315 0.929 . S
H1324 C1332 0.929 . S
H1325 C1334 0.930 . S
H1326 C1336 0.930 . S
H1327 C1339 0.929 . S
H1328 C1342 0.930 . S
H1329 C1344 0.960 . S
H1330 C1344 0.960 . S
H1331 C1344 0.960 . S
C1332 H1324 0.929 . S
C1332 C1333 1.377 . S
C1332 C1334 1.384 . S
C1333 C1332 1.377 . S
C1333 C1339 1.390 . S
C1334 H1325 0.930 . S
C1334 C1332 1.384 . S
C1334 C1335 1.372 . S
C1335 C1334 1.372 . S
C1335 C1336 1.400 . S
C1335 C1340 1.490 . S
C1336 H1326 0.930 . S
C1336 C1335 1.400 . S
C1336 C1339 1.386 . S
H1337 C1353 0.930 . S
H1338 C1354 0.931 . S
C1339 H1327 0.929 . S
C1339 C1333 1.390 . S
C1339 C1336 1.386 . S
C1340 C1335 1.490 . S
C1340 C1342 1.395 . S
C1340 C1343 1.403 . S
H1341 C1347 0.930 . S
C1342 H1328 0.930 . S
C1342 C1340 1.395 . S
C1342 C1345 1.403 . S
C1343 C1340 1.403 . S
C1343 C1344 1.524 . S
C1343 C1347 1.400 . S
C1344 H1329 0.960 . S
C1344 H1330 0.960 . S
C1344 H1331 0.960 . S
C1344 C1343 1.524 . S
C1345 C1342 1.403 . S
C1345 C1346 1.392 . S
C1345 C1349 1.495 . S
C1346 C1345 1.392 . S
C1346 C1347 1.385 . S
C1346 C1348 1.478 . S
C1347 H1341 0.930 . S
C1347 C1343 1.400 . S
C1347 C1346 1.385 . S
C1348 C1346 1.478 . S
C1348 C1350 1.381 . S
C1348 C1354 1.383 . S
C1349 C1345 1.495 . S
C1349 H1355 0.959 . S
C1349 H1356 0.961 . S
C1349 H1357 0.960 . S
C1350 C1348 1.381 . S
C1350 C1351 1.394 . S
C1350 H1358 0.930 . S
C1351 C1350 1.394 . S
C1351 C1352 1.383 . S
C1351 H1359 0.929 . S
C1352 C1351 1.383 . S
C1352 C1353 1.377 . S
C1353 H1337 0.930 . S
C1353 C1352 1.377 . S
C1353 C1354 1.379 . S
C1354 H1338 0.931 . S
C1354 C1348 1.383 . S
C1354 C1353 1.379 . S
H1355 C1349 0.959 . S
H1356 C1349 0.961 . S
H1357 C1349 0.960 . S
H1358 C1350 0.930 . S
H1359 C1351 0.929 . S
H1360 C1368 0.929 . S
H1361 C1370 0.930 . S
H1362 C1372 0.930 . S
H1363 C1375 0.929 . S
H1364 C1378 0.930 . S
H1365 C1380 0.960 . S
H1366 C1380 0.960 . S
H1367 C1380 0.960 . S
C1368 H1360 0.929 . S
C1368 C1369 1.377 . S
C1368 C1370 1.384 . S
C1369 C1368 1.377 . S
C1369 C1375 1.390 . S
C1370 H1361 0.930 . S
C1370 C1368 1.384 . S
C1370 C1371 1.372 . S
C1371 C1370 1.372 . S
C1371 C1372 1.400 . S
C1371 C1376 1.490 . S
C1372 H1362 0.930 . S
C1372 C1371 1.400 . S
C1372 C1375 1.386 . S
H1373 C1389 0.930 . S
H1374 C1390 0.931 . S
C1375 H1363 0.929 . S
C1375 C1369 1.390 . S
C1375 C1372 1.386 . S
C1376 C1371 1.490 . S
C1376 C1378 1.395 . S
C1376 C1379 1.403 . S
H1377 C1383 0.930 . S
C1378 H1364 0.930 . S
C1378 C1376 1.395 . S
C1378 C1381 1.403 1_655 S
C1379 C1376 1.403 . S
C1379 C1380 1.524 . S
C1379 C1383 1.400 1_655 S
C1380 H1365 0.960 . S
C1380 H1366 0.960 . S
C1380 H1367 0.960 . S
C1380 C1379 1.524 . S
C1381 C1378 1.403 1_455 S
C1381 C1382 1.392 . S
C1381 C1385 1.495 . S
C1382 C1381 1.392 . S
C1382 C1383 1.385 . S
C1382 C1384 1.478 . S
C1383 H1377 0.930 . S
C1383 C1379 1.400 1_455 S
C1383 C1382 1.385 . S
C1384 C1382 1.478 . S
C1384 C1386 1.381 . S
C1384 C1390 1.383 . S
C1385 C1381 1.495 . S
C1385 H1391 0.959 . S
C1385 H1392 0.961 . S
C1385 H1393 0.960 . S
C1386 C1384 1.381 . S
C1386 C1387 1.394 . S
C1386 H1394 0.930 . S
C1387 C1386 1.394 . S
C1387 C1388 1.383 . S
C1387 H1395 0.929 . S
C1388 C1387 1.383 . S
C1388 C1389 1.377 . S
C1389 H1373 0.930 . S
C1389 C1388 1.377 . S
C1389 C1390 1.379 . S
C1390 H1374 0.931 . S
C1390 C1384 1.383 . S
C1390 C1389 1.379 . S
H1391 C1385 0.959 . S
H1392 C1385 0.961 . S
H1393 C1385 0.960 . S
H1394 C1386 0.930 . S
H1395 C1387 0.929 . S
H1396 C1404 0.929 . S
H1397 C1406 0.930 . S
H1398 C1408 0.930 . S
H1399 C1411 0.929 . S
H1400 C1414 0.930 . S
H1401 C1416 0.960 . S
H1402 C1416 0.960 . S
H1403 C1416 0.960 . S
C1404 H1396 0.929 . S
C1404 C1405 1.377 . S
C1404 C1406 1.384 . S
C1405 C1404 1.377 . S
C1405 C1411 1.390 . S
C1406 H1397 0.930 . S
C1406 C1404 1.384 . S
C1406 C1407 1.372 . S
C1407 C1406 1.372 . S
C1407 C1408 1.400 . S
C1407 C1412 1.490 . S
C1408 H1398 0.930 . S
C1408 C1407 1.400 . S
C1408 C1411 1.386 . S
H1409 C1425 0.930 . S
H1410 C1426 0.931 . S
C1411 H1399 0.929 . S
C1411 C1405 1.390 . S
C1411 C1408 1.386 . S
C1412 C1407 1.490 . S
C1412 C1414 1.395 . S
C1412 C1415 1.403 . S
H1413 C1419 0.930 . S
C1414 H1400 0.930 . S
C1414 C1412 1.395 . S
C1414 C1417 1.403 1_655 S
C1415 C1412 1.403 . S
C1415 C1416 1.524 . S
C1415 C1419 1.400 1_655 S
C1416 H1401 0.960 . S
C1416 H1402 0.960 . S
C1416 H1403 0.960 . S
C1416 C1415 1.524 . S
C1417 C1414 1.403 1_455 S
C1417 C1418 1.392 . S
C1417 C1421 1.495 . S
C1418 C1417 1.392 . S
C1418 C1419 1.385 . S
C1418 C1420 1.478 . S
C1419 H1413 0.930 . S
C1419 C1415 1.400 1_455 S
C1419 C1418 1.385 . S
C1420 C1418 1.478 . S
C1420 C1422 1.381 . S
C1420 C1426 1.383 . S
C1421 C1417 1.495 . S
C1421 H1427 0.959 . S
C1421 H1428 0.961 . S
C1421 H1429 0.960 . S
C1422 C1420 1.381 . S
C1422 C1423 1.394 . S
C1422 H1430 0.930 . S
C1423 C1422 1.394 . S
C1423 C1424 1.383 . S
C1423 H1431 0.929 . S
C1424 C1423 1.383 . S
C1424 C1425 1.377 . S
C1425 H1409 0.930 . S
C1425 C1424 1.377 . S
C1425 C1426 1.379 . S
C1426 H1410 0.931 . S
C1426 C1420 1.383 . S
C1426 C1425 1.379 . S
H1427 C1421 0.959 . S
H1428 C1421 0.961 . S
H1429 C1421 0.960 . S
H1430 C1422 0.930 . S
H1431 C1423 0.929 . S
H1432 C1440 0.929 . S
H1433 C1442 0.930 . S
H1434 C1444 0.930 . S
H1435 C1447 0.929 . S
H1436 C1450 0.930 . S
H1437 C1452 0.960 . S
H1438 C1452 0.960 . S
H1439 C1452 0.960 . S
C1440 H1432 0.929 . S
C1440 C1441 1.377 . S
C1440 C1442 1.384 . S
C1441 C1440 1.377 . S
C1441 C1447 1.390 . S
C1442 H1433 0.930 . S
C1442 C1440 1.384 . S
C1442 C1443 1.372 . S
C1443 C1442 1.372 . S
C1443 C1444 1.400 . S
C1443 C1448 1.490 . S
C1444 H1434 0.930 . S
C1444 C1443 1.400 . S
C1444 C1447 1.386 . S
H1445 C1461 0.930 . S
H1446 C1462 0.931 . S
C1447 H1435 0.929 . S
C1447 C1441 1.390 . S
C1447 C1444 1.386 . S
C1448 C1443 1.490 . S
C1448 C1450 1.395 . S
C1448 C1451 1.403 . S
H1449 C1455 0.930 . S
C1450 H1436 0.930 . S
C1450 C1448 1.395 . S
C1450 C1453 1.403 1_455 S
C1451 C1448 1.403 . S
C1451 C1452 1.524 . S
C1451 C1455 1.400 1_455 S
C1452 H1437 0.960 . S
C1452 H1438 0.960 . S
C1452 H1439 0.960 . S
C1452 C1451 1.524 . S
C1453 C1450 1.403 1_655 S
C1453 C1454 1.392 . S
C1453 C1457 1.495 . S
C1454 C1453 1.392 . S
C1454 C1455 1.385 . S
C1454 C1456 1.478 . S
C1455 H1449 0.930 . S
C1455 C1451 1.400 1_655 S
C1455 C1454 1.385 . S
C1456 C1454 1.478 . S
C1456 C1458 1.381 . S
C1456 C1462 1.383 . S
C1457 C1453 1.495 . S
C1457 H1463 0.959 . S
C1457 H1464 0.961 . S
C1457 H1465 0.960 . S
C1458 C1456 1.381 . S
C1458 C1459 1.394 . S
C1458 H1466 0.930 . S
C1459 C1458 1.394 . S
C1459 C1460 1.383 . S
C1459 H1467 0.929 . S
C1460 C1459 1.383 . S
C1460 C1461 1.377 . S
C1461 H1445 0.930 . S
C1461 C1460 1.377 . S
C1461 C1462 1.379 . S
C1462 H1446 0.931 . S
C1462 C1456 1.383 . S
C1462 C1461 1.379 . S
H1463 C1457 0.959 . S
H1464 C1457 0.961 . S
H1465 C1457 0.960 . S
H1466 C1458 0.930 . S
H1467 C1459 0.929 . S
H1468 C1476 0.929 . S
H1469 C1478 0.930 . S
H1470 C1480 0.930 . S
H1471 C1483 0.929 . S
H1472 C1486 0.930 . S
H1473 C1488 0.960 . S
H1474 C1488 0.960 . S
H1475 C1488 0.960 . S
C1476 H1468 0.929 . S
C1476 C1477 1.377 . S
C1476 C1478 1.384 . S
C1477 C1476 1.377 . S
C1477 C1483 1.390 . S
C1478 H1469 0.930 . S
C1478 C1476 1.384 . S
C1478 C1479 1.372 . S
C1479 C1478 1.372 . S
C1479 C1480 1.400 . S
C1479 C1484 1.490 . S
C1480 H1470 0.930 . S
C1480 C1479 1.400 . S
C1480 C1483 1.386 . S
H1481 C1497 0.930 . S
H1482 C1498 0.931 . S
C1483 H1471 0.929 . S
C1483 C1477 1.390 . S
C1483 C1480 1.386 . S
C1484 C1479 1.490 . S
C1484 C1486 1.395 . S
C1484 C1487 1.403 . S
H1485 C1491 0.930 . S
C1486 H1472 0.930 . S
C1486 C1484 1.395 . S
C1486 C1489 1.403 1_455 S
C1487 C1484 1.403 . S
C1487 C1488 1.524 . S
C1487 C1491 1.400 1_455 S
C1488 H1473 0.960 . S
C1488 H1474 0.960 . S
C1488 H1475 0.960 . S
C1488 C1487 1.524 . S
C1489 C1486 1.403 1_655 S
C1489 C1490 1.392 . S
C1489 C1493 1.495 . S
C1490 C1489 1.392 . S
C1490 C1491 1.385 . S
C1490 C1492 1.478 . S
C1491 H1485 0.930 . S
C1491 C1487 1.400 1_655 S
C1491 C1490 1.385 . S
C1492 C1490 1.478 . S
C1492 C1494 1.381 . S
C1492 C1498 1.383 . S
C1493 C1489 1.495 . S
C1493 H1499 0.959 . S
C1493 H1500 0.961 . S
C1493 H1501 0.960 . S
C1494 C1492 1.381 . S
C1494 C1495 1.394 . S
C1494 H1502 0.930 . S
C1495 C1494 1.394 . S
C1495 C1496 1.383 . S
C1495 H1503 0.929 . S
C1496 C1495 1.383 . S
C1496 C1497 1.377 . S
C1497 H1481 0.930 . S
C1497 C1496 1.377 . S
C1497 C1498 1.379 . S
C1498 H1482 0.931 . S
C1498 C1492 1.383 . S
C1498 C1497 1.379 . S
H1499 C1493 0.959 . S
H1500 C1493 0.961 . S
H1501 C1493 0.960 . S
H1502 C1494 0.930 . S
H1503 C1495 0.929 . S
H1504 C1512 0.929 . S
H1505 C1514 0.930 . S
H1506 C1516 0.930 . S
H1507 C1519 0.929 . S
H1508 C1522 0.930 . S
H1509 C1524 0.960 1_556 S
H1510 C1524 0.960 . S
H1511 C1524 0.960 . S
C1512 H1504 0.929 . S
C1512 C1513 1.377 . S
C1512 C1514 1.384 . S
C1513 C1512 1.377 . S
C1513 C1519 1.390 . S
C1514 H1505 0.930 . S
C1514 C1512 1.384 . S
C1514 C1515 1.372 . S
C1515 C1514 1.372 . S
C1515 C1516 1.400 . S
C1515 C1520 1.490 . S
C1516 H1506 0.930 . S
C1516 C1515 1.400 . S
C1516 C1519 1.386 . S
H1517 C1533 0.930 . S
H1518 C1534 0.931 . S
C1519 H1507 0.929 . S
C1519 C1513 1.390 . S
C1519 C1516 1.386 . S
C1520 C1515 1.490 . S
C1520 C1522 1.395 . S
C1520 C1523 1.403 . S
H1521 C1527 0.930 . S
C1522 H1508 0.930 . S
C1522 C1520 1.395 . S
C1522 C1525 1.403 1_554 S
C1523 C1520 1.403 . S
C1523 C1524 1.524 . S
C1523 C1527 1.400 1_554 S
C1524 H1509 0.960 1_554 S
C1524 H1510 0.960 . S
C1524 H1511 0.960 . S
C1524 C1523 1.524 . S
C1525 C1522 1.403 1_556 S
C1525 C1526 1.392 . S
C1525 C1529 1.495 . S
C1526 C1525 1.392 . S
C1526 C1527 1.385 . S
C1526 C1528 1.478 . S
C1527 H1521 0.930 . S
C1527 C1523 1.400 1_556 S
C1527 C1526 1.385 . S
C1528 C1526 1.478 . S
C1528 C1530 1.381 . S
C1528 C1534 1.383 . S
C1529 C1525 1.495 . S
C1529 H1535 0.912 1_556 S
C1529 H1536 0.961 . S
C1529 H1537 0.960 . S
C1530 C1528 1.381 . S
C1530 C1531 1.394 . S
C1530 H1538 0.930 . S
C1531 C1530 1.394 . S
C1531 C1532 1.383 . S
C1531 H1539 0.929 . S
C1532 C1531 1.383 . S
C1532 C1533 1.377 . S
C1533 H1517 0.930 . S
C1533 C1532 1.377 . S
C1533 C1534 1.379 . S
C1534 H1518 0.931 . S
C1534 C1528 1.383 . S
C1534 C1533 1.379 . S
H1535 C1529 0.912 1_554 S
H1536 C1529 0.961 . S
H1537 C1529 0.960 . S
H1538 C1530 0.930 . S
H1539 C1531 0.929 . S
H1540 C1548 0.929 . S
H1541 C1550 0.930 . S
H1542 C1552 0.930 . S
H1543 C1555 0.929 . S
H1544 C1558 0.930 . S
H1545 C1560 0.960 . S
H1546 C1560 0.960 . S
H1547 C1560 0.960 . S
C1548 H1540 0.929 . S
C1548 C1549 1.377 . S
C1548 C1550 1.384 . S
C1549 C1548 1.377 . S
C1549 C1555 1.390 . S
C1550 H1541 0.930 . S
C1550 C1548 1.384 . S
C1550 C1551 1.372 . S
C1551 C1550 1.372 . S
C1551 C1552 1.400 . S
C1551 C1556 1.490 . S
C1552 H1542 0.930 . S
C1552 C1551 1.400 . S
C1552 C1555 1.386 . S
H1553 C1569 0.930 . S
H1554 C1570 0.931 . S
C1555 H1543 0.929 . S
C1555 C1549 1.390 . S
C1555 C1552 1.386 . S
C1556 C1551 1.490 . S
C1556 C1558 1.395 . S
C1556 C1559 1.403 . S
H1557 C1563 0.930 . S
C1558 H1544 0.930 . S
C1558 C1556 1.395 . S
C1558 C1561 1.403 . S
C1559 C1556 1.403 . S
C1559 C1560 1.524 . S
C1559 C1563 1.400 . S
C1560 H1545 0.960 . S
C1560 H1546 0.960 . S
C1560 H1547 0.960 . S
C1560 C1559 1.524 . S
C1561 C1558 1.403 . S
C1561 C1562 1.392 . S
C1561 C1565 1.495 . S
C1562 C1561 1.392 . S
C1562 C1563 1.385 . S
C1562 C1564 1.478 . S
C1563 H1557 0.930 . S
C1563 C1559 1.400 . S
C1563 C1562 1.385 . S
C1564 C1562 1.478 . S
C1564 C1566 1.381 . S
C1564 C1570 1.383 . S
C1565 C1561 1.495 . S
C1565 H1571 0.959 . S
C1565 H1572 0.961 . S
C1565 H1573 0.960 . S
C1566 C1564 1.381 . S
C1566 C1567 1.394 . S
C1566 H1574 0.930 . S
C1567 C1566 1.394 . S
C1567 C1568 1.383 . S
C1567 H1575 0.929 . S
C1568 C1567 1.383 . S
C1568 C1569 1.377 . S
C1569 H1553 0.930 . S
C1569 C1568 1.377 . S
C1569 C1570 1.379 . S
C1570 H1554 0.931 . S
C1570 C1564 1.383 . S
C1570 C1569 1.379 . S
H1571 C1565 0.959 . S
H1572 C1565 0.961 . S
H1573 C1565 0.960 . S
H1574 C1566 0.930 . S
H1575 C1567 0.929 . S
H1576 C1584 0.929 . S
H1577 C1586 0.930 . S
H1578 C1588 0.930 . S
H1579 C1591 0.929 . S
H1580 C1594 0.930 . S
H1581 C1596 0.960 1_556 S
H1582 C1596 0.960 . S
H1583 C1596 0.960 . S
C1584 H1576 0.929 . S
C1584 C1585 1.377 . S
C1584 C1586 1.384 . S
C1585 C1584 1.377 . S
C1585 C1591 1.390 . S
C1586 H1577 0.930 . S
C1586 C1584 1.384 . S
C1586 C1587 1.372 . S
C1587 C1586 1.372 . S
C1587 C1588 1.400 . S
C1587 C1592 1.490 . S
C1588 H1578 0.930 . S
C1588 C1587 1.400 . S
C1588 C1591 1.386 . S
H1589 C1605 0.930 . S
H1590 C1606 0.931 . S
C1591 H1579 0.929 . S
C1591 C1585 1.390 . S
C1591 C1588 1.386 . S
C1592 C1587 1.490 . S
C1592 C1594 1.395 . S
C1592 C1595 1.403 . S
H1593 C1599 0.930 . S
C1594 H1580 0.930 . S
C1594 C1592 1.395 . S
C1594 C1597 1.403 1_554 S
C1595 C1592 1.403 . S
C1595 C1596 1.524 . S
C1595 C1599 1.400 1_554 S
C1596 H1581 0.960 1_554 S
C1596 H1582 0.960 . S
C1596 H1583 0.960 . S
C1596 C1595 1.524 . S
C1597 C1594 1.403 1_556 S
C1597 C1598 1.392 . S
C1597 C1601 1.495 . S
C1598 C1597 1.392 . S
C1598 C1599 1.385 . S
C1598 C1600 1.478 . S
C1599 H1593 0.930 . S
C1599 C1595 1.400 1_556 S
C1599 C1598 1.385 . S
C1600 C1598 1.478 . S
C1600 C1602 1.381 . S
C1600 C1606 1.383 . S
C1601 C1597 1.495 . S
C1601 H1607 0.959 1_556 S
C1601 H1608 0.961 . S
C1601 H1609 0.960 . S
C1602 C1600 1.381 . S
C1602 C1603 1.394 . S
C1602 H1610 0.930 . S
C1603 C1602 1.394 . S
C1603 C1604 1.383 . S
C1603 H1611 0.929 . S
C1604 C1603 1.383 . S
C1604 C1605 1.377 . S
C1605 H1589 0.930 . S
C1605 C1604 1.377 . S
C1605 C1606 1.379 . S
C1606 H1590 0.931 . S
C1606 C1600 1.383 . S
C1606 C1605 1.379 . S
H1607 C1601 0.959 1_554 S
H1608 C1601 0.961 . S
H1609 C1601 0.960 . S
H1610 C1602 0.930 . S
H1611 C1603 0.929 . S
H1612 C1620 0.929 . S
H1613 C1622 0.930 . S
H1614 C1624 0.930 . S
H1615 C1627 0.929 . S
H1616 C1630 0.930 . S
H1617 C1632 0.960 . S
H1618 C1632 0.960 . S
H1619 C1632 0.960 . S
C1620 H1612 0.929 . S
C1620 C1621 1.377 . S
C1620 C1622 1.384 . S
C1621 C1620 1.377 . S
C1621 C1627 1.390 . S
C1622 H1613 0.930 . S
C1622 C1620 1.384 . S
C1622 C1623 1.372 . S
C1623 C1622 1.372 . S
C1623 C1624 1.400 . S
C1623 C1628 1.490 . S
C1624 H1614 0.930 . S
C1624 C1623 1.400 . S
C1624 C1627 1.386 . S
H1625 C1641 0.930 . S
H1626 C1642 0.931 . S
C1627 H1615 0.929 . S
C1627 C1621 1.390 . S
C1627 C1624 1.386 . S
C1628 C1623 1.490 . S
C1628 C1630 1.395 . S
C1628 C1631 1.403 . S
H1629 C1635 0.930 . S
C1630 H1616 0.930 . S
C1630 C1628 1.395 . S
C1630 C1633 1.403 . S
C1631 C1628 1.403 . S
C1631 C1632 1.524 . S
C1631 C1635 1.400 . S
C1632 H1617 0.960 . S
C1632 H1618 0.960 . S
C1632 H1619 0.960 . S
C1632 C1631 1.524 . S
C1633 C1630 1.403 . S
C1633 C1634 1.392 . S
C1633 C1637 1.495 . S
C1634 C1633 1.392 . S
C1634 C1635 1.385 . S
C1634 C1636 1.478 . S
C1635 H1629 0.930 . S
C1635 C1631 1.400 . S
C1635 C1634 1.385 . S
C1636 C1634 1.478 . S
C1636 C1638 1.381 . S
C1636 C1642 1.383 . S
C1637 C1633 1.495 . S
C1637 H1643 0.959 . S
C1637 H1644 0.961 . S
C1637 H1645 0.960 . S
C1638 C1636 1.381 . S
C1638 C1639 1.394 . S
C1638 H1646 0.930 . S
C1639 C1638 1.394 . S
C1639 C1640 1.383 . S
C1639 H1647 0.929 . S
C1640 C1639 1.383 . S
C1640 C1641 1.377 . S
C1641 H1625 0.930 . S
C1641 C1640 1.377 . S
C1641 C1642 1.379 . S
C1642 H1626 0.931 . S
C1642 C1636 1.383 . S
C1642 C1641 1.379 . S
H1643 C1637 0.959 . S
H1644 C1637 0.961 . S
H1645 C1637 0.960 . S
H1646 C1638 0.930 . S
H1647 C1639 0.929 . S
H1648 C1656 0.929 . S
H1649 C1658 0.930 . S
H1650 C1660 0.930 . S
H1651 C1663 0.929 . S
H1652 C1666 0.930 . S
H1653 C1668 0.967 1_556 S
H1654 C1668 0.957 . S
H1655 C1668 0.957 . S
C1656 H1648 0.929 . S
C1656 C1657 1.377 . S
C1656 C1658 1.384 . S
C1657 C1656 1.377 . S
C1657 C1663 1.390 . S
C1658 H1649 0.930 . S
C1658 C1656 1.384 . S
C1658 C1659 1.372 . S
C1659 C1658 1.372 . S
C1659 C1660 1.400 . S
C1659 C1664 1.490 . S
C1660 H1650 0.930 . S
C1660 C1659 1.400 . S
C1660 C1663 1.386 . S
H1661 C1677 0.930 . S
H1662 C1678 0.931 . S
C1663 H1651 0.929 . S
C1663 C1657 1.390 . S
C1663 C1660 1.386 . S
C1664 C1659 1.490 . S
C1664 C1666 1.395 . S
C1664 C1667 1.455 . S
H1665 C1671 0.930 . S
C1666 H1652 0.930 . S
C1666 C1664 1.395 . S
C1666 C1669 1.444 . S
C1667 C1664 1.455 . S
C1667 C1668 1.522 . S
C1667 C1671 1.349 1_554 S
C1668 H1653 0.967 1_554 S
C1668 H1654 0.957 . S
C1668 H1655 0.957 . S
C1668 C1667 1.522 . S
C1669 C1666 1.444 . S
C1669 C1670 1.352 1_554 S
C1669 C1673 1.497 . S
C1670 C1669 1.352 1_556 S
C1670 C1671 1.385 . S
C1670 C1672 1.478 . S
C1671 H1665 0.930 . S
C1671 C1667 1.349 1_556 S
C1671 C1670 1.385 . S
C1672 C1670 1.478 . S
C1672 C1674 1.381 . S
C1672 C1678 1.383 . S
C1673 C1669 1.497 . S
C1673 H1679 0.959 . S
C1673 H1680 0.961 1_554 S
C1673 H1681 0.960 1_554 S
C1674 C1672 1.381 . S
C1674 C1675 1.394 . S
C1674 H1682 0.930 . S
C1675 C1674 1.394 . S
C1675 C1676 1.383 . S
C1675 H1683 0.929 . S
C1676 C1675 1.383 . S
C1676 C1677 1.377 . S
C1677 H1661 0.930 . S
C1677 C1676 1.377 . S
C1677 C1678 1.379 . S
C1678 H1662 0.931 . S
C1678 C1672 1.383 . S
C1678 C1677 1.379 . S
H1679 C1673 0.959 . S
H1680 C1673 0.961 1_556 S
H1681 C1673 0.960 1_556 S
H1682 C1674 0.930 . S
H1683 C1675 0.929 . S
H1684 C1692 0.929 . S
H1685 C1694 0.930 . S
H1686 C1696 0.930 . S
H1687 C1699 0.929 . S
H1688 C1702 0.930 . S
H1689 C1704 0.960 . S
H1690 C1704 0.960 . S
H1691 C1704 0.960 . S
C1692 H1684 0.929 . S
C1692 C1693 1.377 . S
C1692 C1694 1.384 . S
C1693 C1692 1.377 . S
C1693 C1699 1.390 . S
C1694 H1685 0.930 . S
C1694 C1692 1.384 . S
C1694 C1695 1.372 . S
C1695 C1694 1.372 . S
C1695 C1696 1.400 . S
C1695 C1700 1.490 . S
C1696 H1686 0.930 . S
C1696 C1695 1.400 . S
C1696 C1699 1.386 . S
H1697 C1713 0.930 . S
H1698 C1714 0.931 . S
C1699 H1687 0.929 . S
C1699 C1693 1.390 . S
C1699 C1696 1.386 . S
C1700 C1695 1.490 . S
C1700 C1702 1.395 . S
C1700 C1703 1.403 . S
H1701 C1707 0.930 . S
C1702 H1688 0.930 . S
C1702 C1700 1.395 . S
C1702 C1705 1.403 . S
C1703 C1700 1.403 . S
C1703 C1704 1.524 . S
C1703 C1707 1.400 . S
C1704 H1689 0.960 . S
C1704 H1690 0.960 . S
C1704 H1691 0.960 . S
C1704 C1703 1.524 . S
C1705 C1702 1.403 . S
C1705 C1706 1.392 . S
C1705 C1709 1.495 . S
C1706 C1705 1.392 . S
C1706 C1707 1.385 . S
C1706 C1708 1.478 . S
C1707 H1701 0.930 . S
C1707 C1703 1.400 . S
C1707 C1706 1.385 . S
C1708 C1706 1.478 . S
C1708 C1710 1.381 . S
C1708 C1714 1.383 . S
C1709 C1705 1.495 . S
C1709 H1715 0.959 . S
C1709 H1716 0.961 . S
C1709 H1717 0.960 . S
C1710 C1708 1.381 . S
C1710 C1711 1.394 . S
C1710 H1718 0.930 . S
C1711 C1710 1.394 . S
C1711 C1712 1.383 . S
C1711 H1719 0.929 . S
C1712 C1711 1.383 . S
C1712 C1713 1.377 . S
C1713 H1697 0.930 . S
C1713 C1712 1.377 . S
C1713 C1714 1.379 . S
C1714 H1698 0.931 . S
C1714 C1708 1.383 . S
C1714 C1713 1.379 . S
H1715 C1709 0.959 . S
H1716 C1709 0.961 . S
H1717 C1709 0.960 . S
H1718 C1710 0.930 . S
H1719 C1711 0.929 . S
H1720 C1728 0.929 . S
H1721 C1730 0.930 . S
H1722 C1732 0.930 . S
H1723 C1735 0.929 . S
H1724 C1738 0.930 . S
H1725 C1740 0.960 1_556 S
H1726 C1740 0.960 . S
H1727 C1740 0.960 . S
C1728 H1720 0.929 . S
C1728 C1729 1.377 . S
C1728 C1730 1.384 . S
C1729 C1728 1.377 . S
C1729 C1735 1.390 . S
C1730 H1721 0.930 . S
C1730 C1728 1.384 . S
C1730 C1731 1.372 . S
C1731 C1730 1.372 . S
C1731 C1732 1.400 . S
C1731 C1736 1.490 . S
C1732 H1722 0.930 . S
C1732 C1731 1.400 . S
C1732 C1735 1.386 . S
H1733 C1749 0.930 . S
H1734 C1750 0.931 . S
C1735 H1723 0.929 . S
C1735 C1729 1.390 . S
C1735 C1732 1.386 . S
C1736 C1731 1.490 . S
C1736 C1738 1.395 . S
C1736 C1739 1.403 . S
H1737 C1743 0.930 . S
C1738 H1724 0.930 . S
C1738 C1736 1.395 . S
C1738 C1741 1.403 1_554 S
C1739 C1736 1.403 . S
C1739 C1740 1.524 . S
C1739 C1743 1.400 1_554 S
C1740 H1725 0.960 1_554 S
C1740 H1726 0.960 . S
C1740 H1727 0.960 . S
C1740 C1739 1.524 . S
C1741 C1738 1.403 1_556 S
C1741 C1742 1.392 . S
C1741 C1745 1.495 . S
C1742 C1741 1.392 . S
C1742 C1743 1.385 . S
C1742 C1744 1.478 . S
C1743 H1737 0.930 . S
C1743 C1739 1.400 1_556 S
C1743 C1742 1.385 . S
C1744 C1742 1.478 . S
C1744 C1746 1.381 . S
C1744 C1750 1.383 . S
C1745 C1741 1.495 . S
C1745 H1751 0.959 1_556 S
C1745 H1752 0.961 . S
C1745 H1753 0.960 . S
C1746 C1744 1.381 . S
C1746 C1747 1.394 . S
C1746 H1754 0.930 . S
C1747 C1746 1.394 . S
C1747 C1748 1.383 . S
C1747 H1755 0.929 . S
C1748 C1747 1.383 . S
C1748 C1749 1.377 . S
C1749 H1733 0.930 . S
C1749 C1748 1.377 . S
C1749 C1750 1.379 . S
C1750 H1734 0.931 . S
C1750 C1744 1.383 . S
C1750 C1749 1.379 . S
H1751 C1745 0.959 1_554 S
H1752 C1745 0.961 . S
H1753 C1745 0.960 . S
H1754 C1746 0.930 . S
H1755 C1747 0.929 . S
H1756 C1764 0.929 . S
H1757 C1766 0.930 . S
H1758 C1768 0.930 . S
H1759 C1771 0.929 . S
H1760 C1774 0.930 . S
H1761 C1776 0.960 . S
H1762 C1776 0.960 . S
H1763 C1776 0.960 . S
C1764 H1756 0.929 . S
C1764 C1765 1.377 . S
C1764 C1766 1.384 . S
C1765 C1764 1.377 . S
C1765 C1771 1.390 . S
C1766 H1757 0.930 . S
C1766 C1764 1.384 . S
C1766 C1767 1.372 . S
C1767 C1766 1.372 . S
C1767 C1768 1.400 . S
C1767 C1772 1.490 . S
C1768 H1758 0.930 . S
C1768 C1767 1.400 . S
C1768 C1771 1.386 . S
H1769 C1785 0.930 . S
H1770 C1786 0.931 . S
C1771 H1759 0.929 . S
C1771 C1765 1.390 . S
C1771 C1768 1.386 . S
C1772 C1767 1.490 . S
C1772 C1774 1.395 . S
C1772 C1775 1.403 . S
H1773 C1779 0.930 . S
C1774 H1760 0.930 . S
C1774 C1772 1.395 . S
C1774 C1777 1.403 . S
C1775 C1772 1.403 . S
C1775 C1776 1.524 . S
C1775 C1779 1.400 . S
C1776 H1761 0.960 . S
C1776 H1762 0.960 . S
C1776 H1763 0.960 . S
C1776 C1775 1.524 . S
C1777 C1774 1.403 . S
C1777 C1778 1.392 . S
C1777 C1781 1.495 . S
C1778 C1777 1.392 . S
C1778 C1779 1.385 . S
C1778 C1780 1.478 . S
C1779 H1773 0.930 . S
C1779 C1775 1.400 . S
C1779 C1778 1.385 . S
C1780 C1778 1.478 . S
C1780 C1782 1.381 . S
C1780 C1786 1.383 . S
C1781 C1777 1.495 . S
C1781 H1787 0.959 . S
C1781 H1788 0.961 . S
C1781 H1789 0.960 . S
C1782 C1780 1.381 . S
C1782 C1783 1.394 . S
C1782 H1790 0.930 . S
C1783 C1782 1.394 . S
C1783 C1784 1.383 . S
C1783 H1791 0.929 . S
C1784 C1783 1.383 . S
C1784 C1785 1.377 . S
C1785 H1769 0.930 . S
C1785 C1784 1.377 . S
C1785 C1786 1.379 . S
C1786 H1770 0.931 . S
C1786 C1780 1.383 . S
C1786 C1785 1.379 . S
H1787 C1781 0.959 . S
H1788 C1781 0.961 . S
H1789 C1781 0.960 . S
H1790 C1782 0.930 . S
H1791 C1783 0.929 . S
H1792 C1800 0.929 . S
H1793 C1802 0.930 . S
H1794 C1804 0.930 . S
H1795 C1807 0.929 . S
H1796 C1810 0.930 . S
H1797 C1812 0.960 . S
H1798 C1812 0.960 . S
H1799 C1812 0.960 . S
C1800 H1792 0.929 . S
C1800 C1801 1.377 . S
C1800 C1802 1.384 . S
C1801 C1800 1.377 . S
C1801 C1807 1.390 . S
C1802 H1793 0.930 . S
C1802 C1800 1.384 . S
C1802 C1803 1.372 . S
C1803 C1802 1.372 . S
C1803 C1804 1.400 . S
C1803 C1808 1.490 . S
C1804 H1794 0.930 . S
C1804 C1803 1.400 . S
C1804 C1807 1.386 . S
H1805 C1821 0.930 . S
H1806 C1822 0.931 . S
C1807 H1795 0.929 . S
C1807 C1801 1.390 . S
C1807 C1804 1.386 . S
C1808 C1803 1.490 . S
C1808 C1810 1.395 . S
C1808 C1811 1.403 . S
H1809 C1815 0.930 . S
C1810 H1796 0.930 . S
C1810 C1808 1.395 . S
C1810 C1813 1.403 . S
C1811 C1808 1.403 . S
C1811 C1812 1.524 . S
C1811 C1815 1.400 . S
C1812 H1797 0.960 . S
C1812 H1798 0.960 . S
C1812 H1799 0.960 . S
C1812 C1811 1.524 . S
C1813 C1810 1.403 . S
C1813 C1814 1.392 . S
C1813 C1817 1.495 . S
C1814 C1813 1.392 . S
C1814 C1815 1.385 . S
C1814 C1816 1.478 . S
C1815 H1809 0.930 . S
C1815 C1811 1.400 . S
C1815 C1814 1.385 . S
C1816 C1814 1.478 . S
C1816 C1818 1.381 . S
C1816 C1822 1.383 . S
C1817 C1813 1.495 . S
C1817 H1823 0.959 . S
C1817 H1824 0.961 . S
C1817 H1825 0.960 . S
C1818 C1816 1.381 . S
C1818 C1819 1.394 . S
C1818 H1826 0.930 . S
C1819 C1818 1.394 . S
C1819 C1820 1.383 . S
C1819 H1827 0.929 . S
C1820 C1819 1.383 . S
C1820 C1821 1.377 . S
C1821 H1805 0.930 . S
C1821 C1820 1.377 . S
C1821 C1822 1.379 . S
C1822 H1806 0.931 . S
C1822 C1816 1.383 . S
C1822 C1821 1.379 . S
H1823 C1817 0.959 . S
H1824 C1817 0.961 . S
H1825 C1817 0.960 . S
H1826 C1818 0.930 . S
H1827 C1819 0.929 . S
H1828 C1836 0.929 . S
H1829 C1838 0.930 . S
H1830 C1840 0.930 . S
H1831 C1843 0.929 . S
H1832 C1846 0.930 . S
H1833 C1848 0.960 . S
H1834 C1848 0.960 . S
H1835 C1848 0.960 . S
C1836 H1828 0.929 . S
C1836 C1837 1.377 . S
C1836 C1838 1.384 . S
C1837 C1836 1.377 . S
C1837 C1843 1.390 . S
C1838 H1829 0.930 . S
C1838 C1836 1.384 . S
C1838 C1839 1.372 . S
C1839 C1838 1.372 . S
C1839 C1840 1.400 . S
C1839 C1844 1.490 . S
C1840 H1830 0.930 . S
C1840 C1839 1.400 . S
C1840 C1843 1.386 . S
H1841 C1857 0.930 . S
H1842 C1858 0.931 . S
C1843 H1831 0.929 . S
C1843 C1837 1.390 . S
C1843 C1840 1.386 . S
C1844 C1839 1.490 . S
C1844 C1846 1.395 . S
C1844 C1847 1.403 . S
H1845 C1851 0.930 . S
C1846 H1832 0.930 . S
C1846 C1844 1.395 . S
C1846 C1849 1.403 . S
C1847 C1844 1.403 . S
C1847 C1848 1.524 . S
C1847 C1851 1.400 . S
C1848 H1833 0.960 . S
C1848 H1834 0.960 . S
C1848 H1835 0.960 . S
C1848 C1847 1.524 . S
C1849 C1846 1.403 . S
C1849 C1850 1.392 . S
C1849 C1853 1.495 . S
C1850 C1849 1.392 . S
C1850 C1851 1.385 . S
C1850 C1852 1.478 . S
C1851 H1845 0.930 . S
C1851 C1847 1.400 . S
C1851 C1850 1.385 . S
C1852 C1850 1.478 . S
C1852 C1854 1.381 . S
C1852 C1858 1.383 . S
C1853 C1849 1.495 . S
C1853 H1859 0.959 . S
C1853 H1860 0.961 . S
C1853 H1861 0.960 . S
C1854 C1852 1.381 . S
C1854 C1855 1.394 . S
C1854 H1862 0.930 . S
C1855 C1854 1.394 . S
C1855 C1856 1.383 . S
C1855 H1863 0.929 . S
C1856 C1855 1.383 . S
C1856 C1857 1.377 . S
C1857 H1841 0.930 . S
C1857 C1856 1.377 . S
C1857 C1858 1.379 . S
C1858 H1842 0.931 . S
C1858 C1852 1.383 . S
C1858 C1857 1.379 . S
H1859 C1853 0.959 . S
H1860 C1853 0.961 . S
H1861 C1853 0.960 . S
H1862 C1854 0.930 . S
H1863 C1855 0.929 . S
H1864 C1872 0.929 . S
H1865 C1874 0.930 . S
H1866 C1876 0.930 . S
H1867 C1879 0.929 . S
H1868 C1882 0.930 . S
H1869 C1884 0.960 . S
H1870 C1884 0.960 . S
H1871 C1884 0.960 . S
C1872 H1864 0.929 . S
C1872 C1873 1.377 . S
C1872 C1874 1.384 . S
C1873 C1872 1.377 . S
C1873 C1879 1.390 . S
C1874 H1865 0.930 . S
C1874 C1872 1.384 . S
C1874 C1875 1.372 . S
C1875 C1874 1.372 . S
C1875 C1876 1.400 . S
C1875 C1880 1.490 . S
C1876 H1866 0.930 . S
C1876 C1875 1.400 . S
C1876 C1879 1.386 . S
H1877 C1893 0.930 . S
H1878 C1894 0.931 . S
C1879 H1867 0.929 . S
C1879 C1873 1.390 . S
C1879 C1876 1.386 . S
C1880 C1875 1.490 . S
C1880 C1882 1.395 . S
C1880 C1883 1.403 . S
H1881 C1887 0.930 . S
C1882 H1868 0.930 . S
C1882 C1880 1.395 . S
C1882 C1885 1.403 . S
C1883 C1880 1.403 . S
C1883 C1884 1.524 . S
C1883 C1887 1.400 . S
C1884 H1869 0.960 . S
C1884 H1870 0.960 . S
C1884 H1871 0.960 . S
C1884 C1883 1.524 . S
C1885 C1882 1.403 . S
C1885 C1886 1.392 . S
C1885 C1889 1.495 . S
C1886 C1885 1.392 . S
C1886 C1887 1.385 . S
C1886 C1888 1.478 . S
C1887 H1881 0.930 . S
C1887 C1883 1.400 . S
C1887 C1886 1.385 . S
C1888 C1886 1.478 . S
C1888 C1890 1.381 . S
C1888 C1894 1.383 . S
C1889 C1885 1.495 . S
C1889 H1895 0.959 . S
C1889 H1896 0.961 . S
C1889 H1897 0.960 . S
C1890 C1888 1.381 . S
C1890 C1891 1.394 . S
C1890 H1898 0.930 . S
C1891 C1890 1.394 . S
C1891 C1892 1.383 . S
C1891 H1899 0.929 . S
C1892 C1891 1.383 . S
C1892 C1893 1.377 . S
C1893 H1877 0.930 . S
C1893 C1892 1.377 . S
C1893 C1894 1.379 . S
C1894 H1878 0.931 . S
C1894 C1888 1.383 . S
C1894 C1893 1.379 . S
H1895 C1889 0.959 . S
H1896 C1889 0.961 . S
H1897 C1889 0.960 . S
H1898 C1890 0.930 . S
H1899 C1891 0.929 . S
H1900 C1908 0.929 . S
H1901 C1910 0.930 . S
H1902 C1912 0.930 . S
H1903 C1915 0.929 . S
H1904 C1918 0.930 . S
H1905 C1920 0.960 . S
H1906 C1920 0.960 . S
H1907 C1920 0.960 . S
C1908 H1900 0.929 . S
C1908 C1909 1.377 . S
C1908 C1910 1.384 . S
C1909 C1908 1.377 . S
C1909 C1915 1.390 . S
C1910 H1901 0.930 . S
C1910 C1908 1.384 . S
C1910 C1911 1.372 . S
C1911 C1910 1.372 . S
C1911 C1912 1.400 . S
C1911 C1916 1.490 . S
C1912 H1902 0.930 . S
C1912 C1911 1.400 . S
C1912 C1915 1.386 . S
H1913 C1929 0.930 . S
H1914 C1930 0.931 . S
C1915 H1903 0.929 . S
C1915 C1909 1.390 . S
C1915 C1912 1.386 . S
C1916 C1911 1.490 . S
C1916 C1918 1.395 . S
C1916 C1919 1.403 . S
H1917 C1923 0.930 . S
C1918 H1904 0.930 . S
C1918 C1916 1.395 . S
C1918 C1921 1.403 . S
C1919 C1916 1.403 . S
C1919 C1920 1.524 . S
C1919 C1923 1.400 . S
C1920 H1905 0.960 . S
C1920 H1906 0.960 . S
C1920 H1907 0.960 . S
C1920 C1919 1.524 . S
C1921 C1918 1.403 . S
C1921 C1922 1.392 . S
C1921 C1925 1.495 . S
C1922 C1921 1.392 . S
C1922 C1923 1.385 . S
C1922 C1924 1.478 . S
C1923 H1917 0.930 . S
C1923 C1919 1.400 . S
C1923 C1922 1.385 . S
C1924 C1922 1.478 . S
C1924 C1926 1.381 . S
C1924 C1930 1.383 . S
C1925 C1921 1.495 . S
C1925 H1931 0.959 . S
C1925 H1932 0.961 . S
C1925 H1933 0.960 . S
C1926 C1924 1.381 . S
C1926 C1927 1.394 . S
C1926 H1934 0.930 . S
C1927 C1926 1.394 . S
C1927 C1928 1.383 . S
C1927 H1935 0.929 . S
C1928 C1927 1.383 . S
C1928 C1929 1.377 . S
C1929 H1913 0.930 . S
C1929 C1928 1.377 . S
C1929 C1930 1.379 . S
C1930 H1914 0.931 . S
C1930 C1924 1.383 . S
C1930 C1929 1.379 . S
H1931 C1925 0.959 . S
H1932 C1925 0.961 . S
H1933 C1925 0.960 . S
H1934 C1926 0.930 . S
H1935 C1927 0.929 . S
H1936 C1944 0.929 . S
H1937 C1946 0.930 . S
H1938 C1948 0.930 . S
H1939 C1951 0.929 . S
H1940 C1954 0.930 . S
H1941 C1956 0.960 . S
H1942 C1956 0.960 . S
H1943 C1956 0.960 . S
C1944 H1936 0.929 . S
C1944 C1945 1.377 . S
C1944 C1946 1.384 . S
C1945 C1944 1.377 . S
C1945 C1951 1.390 . S
C1946 H1937 0.930 . S
C1946 C1944 1.384 . S
C1946 C1947 1.372 . S
C1947 C1946 1.372 . S
C1947 C1948 1.400 . S
C1947 C1952 1.490 . S
C1948 H1938 0.930 . S
C1948 C1947 1.400 . S
C1948 C1951 1.386 . S
H1949 C1965 0.930 . S
H1950 C1966 0.931 . S
C1951 H1939 0.929 . S
C1951 C1945 1.390 . S
C1951 C1948 1.386 . S
C1952 C1947 1.490 . S
C1952 C1954 1.395 . S
C1952 C1955 1.403 . S
H1953 C1959 0.930 . S
C1954 H1940 0.930 . S
C1954 C1952 1.395 . S
C1954 C1957 1.403 . S
C1955 C1952 1.403 . S
C1955 C1956 1.524 . S
C1955 C1959 1.400 . S
C1956 H1941 0.960 . S
C1956 H1942 0.960 . S
C1956 H1943 0.960 . S
C1956 C1955 1.524 . S
C1957 C1954 1.403 . S
C1957 C1958 1.392 . S
C1957 C1961 1.495 . S
C1958 C1957 1.392 . S
C1958 C1959 1.385 . S
C1958 C1960 1.478 . S
C1959 H1953 0.930 . S
C1959 C1955 1.400 . S
C1959 C1958 1.385 . S
C1960 C1958 1.478 . S
C1960 C1962 1.381 . S
C1960 C1966 1.383 . S
C1961 C1957 1.495 . S
C1961 H1967 0.959 . S
C1961 H1968 0.961 . S
C1961 H1969 0.960 . S
C1962 C1960 1.381 . S
C1962 C1963 1.394 . S
C1962 H1970 0.930 . S
C1963 C1962 1.394 . S
C1963 C1964 1.383 . S
C1963 H1971 0.929 . S
C1964 C1963 1.383 . S
C1964 C1965 1.377 . S
C1965 H1949 0.930 . S
C1965 C1964 1.377 . S
C1965 C1966 1.379 . S
C1966 H1950 0.931 . S
C1966 C1960 1.383 . S
C1966 C1965 1.379 . S
H1967 C1961 0.959 . S
H1968 C1961 0.961 . S
H1969 C1961 0.960 . S
H1970 C1962 0.930 . S
H1971 C1963 0.929 . S
H1972 C1980 0.929 . S
H1973 C1982 0.930 . S
H1974 C1984 0.930 . S
H1975 C1987 0.929 . S
H1976 C1990 0.930 . S
H1977 C1992 0.960 . S
H1978 C1992 0.960 . S
H1979 C1992 0.960 . S
C1980 H1972 0.929 . S
C1980 C1981 1.377 . S
C1980 C1982 1.384 . S
C1981 C1980 1.377 . S
C1981 C1987 1.390 . S
C1982 H1973 0.930 . S
C1982 C1980 1.384 . S
C1982 C1983 1.372 . S
C1983 C1982 1.372 . S
C1983 C1984 1.400 . S
C1983 C1988 1.490 . S
C1984 H1974 0.930 . S
C1984 C1983 1.400 . S
C1984 C1987 1.386 . S
H1985 C2001 0.930 . S
H1986 C2002 0.931 . S
C1987 H1975 0.929 . S
C1987 C1981 1.390 . S
C1987 C1984 1.386 . S
C1988 C1983 1.490 . S
C1988 C1990 1.395 . S
C1988 C1991 1.403 . S
H1989 C1995 0.930 . S
C1990 H1976 0.930 . S
C1990 C1988 1.395 . S
C1990 C1993 1.403 . S
C1991 C1988 1.403 . S
C1991 C1992 1.524 . S
C1991 C1995 1.400 . S
C1992 H1977 0.960 . S
C1992 H1978 0.960 . S
C1992 H1979 0.960 . S
C1992 C1991 1.524 . S
C1993 C1990 1.403 . S
C1993 C1994 1.392 . S
C1993 C1997 1.495 . S
C1994 C1993 1.392 . S
C1994 C1995 1.385 . S
C1994 C1996 1.478 . S
C1995 H1989 0.930 . S
C1995 C1991 1.400 . S
C1995 C1994 1.385 . S
C1996 C1994 1.478 . S
C1996 C1998 1.381 . S
C1996 C2002 1.383 . S
C1997 C1993 1.495 . S
C1997 H2003 0.959 . S
C1997 H2004 0.961 . S
C1997 H2005 0.960 . S
C1998 C1996 1.381 . S
C1998 C1999 1.394 . S
C1998 H2006 0.930 . S
C1999 C1998 1.394 . S
C1999 C2000 1.383 . S
C1999 H2007 0.929 . S
C2000 C1999 1.383 . S
C2000 C2001 1.377 . S
C2001 H1985 0.930 . S
C2001 C2000 1.377 . S
C2001 C2002 1.379 . S
C2002 H1986 0.931 . S
C2002 C1996 1.383 . S
C2002 C2001 1.379 . S
H2003 C1997 0.959 . S
H2004 C1997 0.961 . S
H2005 C1997 0.960 . S
H2006 C1998 0.930 . S
H2007 C1999 0.929 . S
H2008 C2016 0.929 . S
H2009 C2018 0.930 . S
H2010 C2020 0.930 . S
H2011 C2023 0.929 . S
H2012 C2026 0.930 . S
H2013 C2028 0.960 . S
H2014 C2028 0.960 . S
H2015 C2028 0.960 . S
C2016 H2008 0.929 . S
C2016 C2017 1.377 . S
C2016 C2018 1.384 . S
C2017 C2016 1.377 . S
C2017 C2023 1.390 . S
C2018 H2009 0.930 . S
C2018 C2016 1.384 . S
C2018 C2019 1.372 . S
C2019 C2018 1.372 . S
C2019 C2020 1.400 . S
C2019 C2024 1.490 . S
C2020 H2010 0.930 . S
C2020 C2019 1.400 . S
C2020 C2023 1.386 . S
H2021 C2037 0.930 . S
H2022 C2038 0.931 . S
C2023 H2011 0.929 . S
C2023 C2017 1.390 . S
C2023 C2020 1.386 . S
C2024 C2019 1.490 . S
C2024 C2026 1.395 . S
C2024 C2027 1.403 . S
H2025 C2031 0.930 . S
C2026 H2012 0.930 . S
C2026 C2024 1.395 . S
C2026 C2029 1.403 . S
C2027 C2024 1.403 . S
C2027 C2028 1.524 . S
C2027 C2031 1.400 . S
C2028 H2013 0.960 . S
C2028 H2014 0.960 . S
C2028 H2015 0.960 . S
C2028 C2027 1.524 . S
C2029 C2026 1.403 . S
C2029 C2030 1.392 . S
C2029 C2033 1.495 . S
C2030 C2029 1.392 . S
C2030 C2031 1.385 . S
C2030 C2032 1.478 . S
C2031 H2025 0.930 . S
C2031 C2027 1.400 . S
C2031 C2030 1.385 . S
C2032 C2030 1.478 . S
C2032 C2034 1.381 . S
C2032 C2038 1.383 . S
C2033 C2029 1.495 . S
C2033 H2039 0.959 . S
C2033 H2040 0.961 . S
C2033 H2041 0.960 . S
C2034 C2032 1.381 . S
C2034 C2035 1.394 . S
C2034 H2042 0.930 . S
C2035 C2034 1.394 . S
C2035 C2036 1.383 . S
C2035 H2043 0.929 . S
C2036 C2035 1.383 . S
C2036 C2037 1.377 . S
C2037 H2021 0.930 . S
C2037 C2036 1.377 . S
C2037 C2038 1.379 . S
C2038 H2022 0.931 . S
C2038 C2032 1.383 . S
C2038 C2037 1.379 . S
H2039 C2033 0.959 . S
H2040 C2033 0.961 . S
H2041 C2033 0.960 . S
H2042 C2034 0.930 . S
H2043 C2035 0.929 . S
H2044 C2052 0.929 . S
H2045 C2054 0.930 . S
H2046 C2056 0.930 . S
H2047 C2059 0.929 . S
H2048 C2062 0.930 . S
H2049 C2064 0.960 . S
H2050 C2064 0.960 . S
H2051 C2064 0.960 . S
C2052 H2044 0.929 . S
C2052 C2053 1.377 . S
C2052 C2054 1.384 . S
C2053 C2052 1.377 . S
C2053 C2059 1.390 . S
C2054 H2045 0.930 . S
C2054 C2052 1.384 . S
C2054 C2055 1.372 . S
C2055 C2054 1.372 . S
C2055 C2056 1.400 . S
C2055 C2060 1.490 . S
C2056 H2046 0.930 . S
C2056 C2055 1.400 . S
C2056 C2059 1.386 . S
H2057 C2073 0.930 . S
H2058 C2074 0.931 . S
C2059 H2047 0.929 . S
C2059 C2053 1.390 . S
C2059 C2056 1.386 . S
C2060 C2055 1.490 . S
C2060 C2062 1.395 . S
C2060 C2063 1.403 . S
H2061 C2067 0.930 . S
C2062 H2048 0.930 . S
C2062 C2060 1.395 . S
C2062 C2065 1.403 . S
C2063 C2060 1.403 . S
C2063 C2064 1.524 . S
C2063 C2067 1.400 . S
C2064 H2049 0.960 . S
C2064 H2050 0.960 . S
C2064 H2051 0.960 . S
C2064 C2063 1.524 . S
C2065 C2062 1.403 . S
C2065 C2066 1.392 . S
C2065 C2069 1.495 . S
C2066 C2065 1.392 . S
C2066 C2067 1.385 . S
C2066 C2068 1.478 . S
C2067 H2061 0.930 . S
C2067 C2063 1.400 . S
C2067 C2066 1.385 . S
C2068 C2066 1.478 . S
C2068 C2070 1.381 . S
C2068 C2074 1.383 . S
C2069 C2065 1.495 . S
C2069 H2075 0.959 . S
C2069 H2076 0.961 . S
C2069 H2077 0.960 . S
C2070 C2068 1.381 . S
C2070 C2071 1.394 . S
C2070 H2078 0.930 . S
C2071 C2070 1.394 . S
C2071 C2072 1.383 . S
C2071 H2079 0.929 . S
C2072 C2071 1.383 . S
C2072 C2073 1.377 . S
C2073 H2057 0.930 . S
C2073 C2072 1.377 . S
C2073 C2074 1.379 . S
C2074 H2058 0.931 . S
C2074 C2068 1.383 . S
C2074 C2073 1.379 . S
H2075 C2069 0.959 . S
H2076 C2069 0.961 . S
H2077 C2069 0.960 . S
H2078 C2070 0.930 . S
H2079 C2071 0.929 . S
C361 C9 1.411 . S
C380 C314 1.531 . S
C397 C31 1.427 . S
C416 C336 1.515 . S
C433 C49 1.422 . S
C452 C271 1.524 . S
C469 C292 1.529 . S
C488 C75 1.405 . S
C505 C229 1.526 . S
C524 C94 1.387 . S
C541 C247 1.527 . S
C560 C117 1.390 . S
C577 C181 1.528 . S
C596 C139 1.442 . S
C613 C203 1.528 . S
C632 C161 1.442 . S
C649 C185 1.414 . S
C668 C138 1.534 . S
C685 C160 1.529 . S
C704 C207 1.378 . S
C721 C95 1.529 . S
C740 C225 1.379 . S
C757 C116 1.529 . S
C776 C251 1.385 . S
C793 C53 1.527 . S
C812 C270 1.395 . S
C829 C293 1.411 . S
C848 C71 1.516 . S
C865 C5 1.529 . S
C884 C315 1.444 . S
C901 C337 1.416 . S
C920 C27 1.516 . S
C937 C4 1.560 . S
C956 C52 1.558 . S
C973 C70 1.560 . S
C992 C26 1.555 . S
C1009 C136 1.560 . S
C1028 C96 1.558 . S
C1045 C158 1.559 . S
C1064 C114 1.554 . S
C1081 C228 1.560 . S
C1100 C180 1.554 . S
C1117 C246 1.560 . S
C1136 C202 1.554 . S
C1153 C312 1.560 . S
C1172 C272 1.559 . S
C1189 C290 1.560 . S
C1208 C334 1.559 . S
C1225 C8 1.513 . S
C1244 C140 1.511 . S
C1261 C30 1.518 . S
C1280 C162 1.535 . S
C1297 C92 1.515 . S
C1316 C48 1.498 . S
C1333 C74 1.518 . S
C1352 C118 1.488 . S
C1369 C184 1.512 . S
C1388 C316 1.535 . S
C1405 C338 1.513 . S
C1424 C206 1.538 . S
C1441 C268 1.516 . S
C1460 C224 1.496 . S
C1477 C250 1.512 . S
C1496 C294 1.518 . S
C1513 C6 0.566 . S
C1532 C273 0.628 . S
C1549 C291 0.580 . S
C1568 C28 0.568 . S
C1585 C313 0.571 . S
C1604 C51 0.516 . S
C1621 C335 0.579 . S
C1640 C72 0.563 . S
C1657 C182 0.552 . S
C1676 C97 0.550 . S
C1693 C204 0.562 . S
C1712 C115 0.496 . S
C1729 C137 0.574 . S
C1748 C227 0.530 . S
C1765 C248 0.561 . S
C1784 C159 0.613 . S
C1801 C7 1.435 . S
C1820 C119 1.413 . S
C1837 C93 1.433 . S
C1856 C29 1.441 . S
C1873 C50 1.428 . S
C1892 C163 1.438 . S
C1909 C141 1.434 . S
C1928 C73 1.411 . S
C1945 C183 1.436 . S
C1964 C295 1.422 . S
C1981 C269 1.434 . S
C2000 C205 1.440 . S
C2017 C339 1.435 . S
C2036 C226 1.430 . S
C2053 C249 1.434 . S
C2072 C317 1.411 . S
