# Generated by pormake.
# Topology ske, (6)-cn, num edge types: 1
# Building blocks:
#     Node 0, Type 0, BuildingBlock: KUMJIN_clean_sbu_1, # of connection points: 6
#     Node 1, Type 0, BuildingBlock: KUMJIN_clean_sbu_1, # of connection points: 6
#     Node 2, Type 0, BuildingBlock: KUMJIN_clean_sbu_1, # of connection points: 6
#     Node 3, Type 0, BuildingBlock: KUMJIN_clean_sbu_1, # of connection points: 6
#     Node 4, Type 0, BuildingBlock: KUMJIN_clean_sbu_1, # of connection points: 6
#     Node 5, Type 0, BuildingBlock: KUMJIN_clean_sbu_1, # of connection points: 6
#     Node 6, Type 0, BuildingBlock: KUMJIN_clean_sbu_1, # of connection points: 6
#     Node 7, Type 0, BuildingBlock: KUMJIN_clean_sbu_1, # of connection points: 6
#     Edge 8, Type (0, 0), BuildingBlock: KIFKEQ_clean_linker_1, # of connection points: 2
#     Edge 9, Type (0, 0), BuildingBlock: KIFKEQ_clean_linker_1, # of connection points: 2
#     Edge 10, Type (0, 0), BuildingBlock: KIFKEQ_clean_linker_1, # of connection points: 2
#     Edge 11, Type (0, 0), BuildingBlock: KIFKEQ_clean_linker_1, # of connection points: 2
#     Edge 12, Type (0, 0), BuildingBlock: KIFKEQ_clean_linker_1, # of connection points: 2
#     Edge 13, Type (0, 0), BuildingBlock: KIFKEQ_clean_linker_1, # of connection points: 2
#     Edge 14, Type (0, 0), BuildingBlock: KIFKEQ_clean_linker_1, # of connection points: 2
#     Edge 15, Type (0, 0), BuildingBlock: KIFKEQ_clean_linker_1, # of connection points: 2
#     Edge 16, Type (0, 0), BuildingBlock: KIFKEQ_clean_linker_1, # of connection points: 2
#     Edge 17, Type (0, 0), BuildingBlock: KIFKEQ_clean_linker_1, # of connection points: 2
#     Edge 18, Type (0, 0), BuildingBlock: KIFKEQ_clean_linker_1, # of connection points: 2
#     Edge 19, Type (0, 0), BuildingBlock: KIFKEQ_clean_linker_1, # of connection points: 2
#     Edge 20, Type (0, 0), BuildingBlock: KIFKEQ_clean_linker_1, # of connection points: 2
#     Edge 21, Type (0, 0), BuildingBlock: KIFKEQ_clean_linker_1, # of connection points: 2
#     Edge 22, Type (0, 0), BuildingBlock: KIFKEQ_clean_linker_1, # of connection points: 2
#     Edge 23, Type (0, 0), BuildingBlock: KIFKEQ_clean_linker_1, # of connection points: 2
#     Edge 24, Type (0, 0), BuildingBlock: KIFKEQ_clean_linker_1, # of connection points: 2
#     Edge 25, Type (0, 0), BuildingBlock: KIFKEQ_clean_linker_1, # of connection points: 2
#     Edge 26, Type (0, 0), BuildingBlock: KIFKEQ_clean_linker_1, # of connection points: 2
#     Edge 27, Type (0, 0), BuildingBlock: KIFKEQ_clean_linker_1, # of connection points: 2
#     Edge 28, Type (0, 0), BuildingBlock: KIFKEQ_clean_linker_1, # of connection points: 2
#     Edge 29, Type (0, 0), BuildingBlock: KIFKEQ_clean_linker_1, # of connection points: 2
#     Edge 30, Type (0, 0), BuildingBlock: KIFKEQ_clean_linker_1, # of connection points: 2
#     Edge 31, Type (0, 0), BuildingBlock: KIFKEQ_clean_linker_1, # of connection points: 2
# Relax obj value: 0.218
# Max RMSD: 0.233
# Mean RMSD: 0.231
data_MOF--net-ske--node1-KUMJIN_clean_sbu_1--edge1-KIFKEQ_clean_linker_1
_symmetry_space_group_name_H-M    P1
_symmetry_Int_Tables_number       1
_symmetry_cell_setting            triclinic
loop_
_symmetry_equiv_pos_as_xyz
'x, y, z'
_cell_length_a     99.674555
_cell_length_b     30.309941
_cell_length_c     15.286063
_cell_angle_alpha  97.912314
_cell_angle_beta   89.987432
_cell_angle_gamma 89.922068
loop_
_atom_site_label
_atom_site_type_symbol
_atom_site_fract_x
_atom_site_fract_y
_atom_site_fract_z
_atom_type_partial_charge
Eu0 Eu 0.15441 0.25705 0.57482 0.0
C1 C 0.10415 0.21677 0.75857 0.0
N2 N 0.10757 0.20178 0.67347 0.0
C3 C 0.10272 0.1268 0.69723 0.0
C4 C 0.10064 0.18685 0.81779 0.0
C5 C 0.10591 0.15787 0.64086 0.0
C6 C 0.10036 0.14124 0.78661 0.0
C7 C 0.09913 0.27916 0.87143 0.0
C8 C 0.10337 0.26233 0.78528 0.0
C9 C 0.09626 0.24946 0.93177 0.0
C10 C 0.09705 0.20341 0.90508 0.0
Eu11 Eu 0.11393 0.25727 0.58578 0.0
N12 N 0.10669 0.29032 0.7266 0.0
C13 C 0.09787 0.32536 0.89414 0.0
C14 C 0.10491 0.33523 0.7467 0.0
C15 C 0.10061 0.35347 0.83112 0.0
H16 H 0.10684 0.14661 0.57105 0.0
H17 H 0.09947 0.38916 0.84765 0.0
H18 H 0.16296 0.34799 0.48726 0.0
H19 H 0.17001 0.08466 0.46602 0.0
H20 H 0.10709 0.35686 0.69786 0.0
H21 H 0.09465 0.33959 0.95969 0.0
H22 H 0.16318 0.14868 0.5744 0.0
H23 H 0.10184 0.09184 0.67136 0.0
H24 H 0.09321 0.26175 0.99875 0.0
H25 H 0.0945 0.18089 0.95176 0.0
H26 H 0.17185 0.36766 0.34619 0.0
H27 H 0.09774 0.11716 0.82997 0.0
H28 H 0.17504 0.09557 0.31191 0.0
N29 N 0.16335 0.27841 0.444 0.0
C30 C 0.16703 0.24514 0.37984 0.0
C31 C 0.17046 0.33309 0.35459 0.0
C32 C 0.17196 0.25464 0.29806 0.0
C33 C 0.1655 0.32196 0.43431 0.0
C34 C 0.17347 0.29929 0.28553 0.0
N35 N 0.16274 0.19427 0.48024 0.0
C36 C 0.16476 0.15348 0.50644 0.0
C37 C 0.17095 0.16642 0.33468 0.0
C38 C 0.1665 0.20166 0.39807 0.0
C39 C 0.17169 0.12356 0.35868 0.0
C40 C 0.16886 0.11726 0.44557 0.0
H41 H 0.17725 0.30798 0.22368 0.0
H42 H 0.17922 0.226 0.16897 0.0
H43 H 0.17835 0.14867 0.20106 0.0
O44 O 0.17573 0.24553 0.60017 0.0
O45 O 0.14232 0.27714 0.45843 0.0
O46 O 0.1232 0.23458 0.4497 0.0
O47 O 0.1654 0.30056 0.6756 0.0
O48 O 0.14336 0.19525 0.60548 0.0
O49 O 0.12417 0.19361 0.52222 0.0
O50 O 0.09964 0.29996 0.52882 0.0
O51 O 0.12731 0.2834 0.70455 0.0
O52 O 0.14457 0.23417 0.6953 0.0
O53 O 0.0932 0.23569 0.55726 0.0
O54 O 0.12284 0.32243 0.55664 0.0
O55 O 0.14491 0.32615 0.60855 0.0
C56 C 0.13281 0.25494 0.41149 0.0
C57 C 0.1887 0.30966 0.65026 0.0
C58 C 0.2129 0.32232 0.66519 0.0
C59 C 0.211 0.36594 0.6462 0.0
C60 C 0.1871 0.35332 0.63063 0.0
C61 C 0.1982 0.38113 0.62837 0.0
C62 C 0.20169 0.2941 0.66635 0.0
C63 C 0.13412 0.1731 0.5563 0.0
C64 C 0.17691 0.28087 0.65823 0.0
C65 C 0.1756 0.21944 0.23276 0.0
C66 C 0.17508 0.17539 0.25099 0.0
C67 C 0.1356 0.25832 0.74316 0.0
C68 C 0.08202 0.26508 0.44163 0.0
C69 C 0.06017 0.26051 0.36831 0.0
C70 C 0.06672 0.25847 0.28637 0.0
C71 C 0.08838 0.26234 0.35912 0.0
C72 C 0.06793 0.2635 0.44586 0.0
C73 C 0.08073 0.259 0.28193 0.0
C74 C 0.13385 0.3448 0.58235 0.0
C75 C 0.08986 0.27133 0.52402 0.0
H76 H 0.21947 0.38819 0.64442 0.0
H77 H 0.17726 0.3662 0.61812 0.0
H78 H 0.19686 0.41475 0.61348 0.0
H79 H 0.20302 0.26055 0.68202 0.0
H80 H 0.06098 0.25603 0.22571 0.0
H81 H 0.09922 0.26328 0.35451 0.0
H82 H 0.06299 0.26575 0.50956 0.0
H83 H 0.08567 0.25713 0.21845 0.0
Eu84 Eu 0.9021 0.254 0.54498 0.0
C85 C 0.84411 0.30625 0.39067 0.0
N86 N 0.84926 0.31772 0.47301 0.0
C87 C 0.84004 0.39113 0.47955 0.0
C88 C 0.83685 0.3374 0.34885 0.0
C89 C 0.84709 0.35902 0.51853 0.0
C90 C 0.83495 0.38037 0.39413 0.0
C91 C 0.84094 0.25038 0.26235 0.0
C92 C 0.84613 0.26321 0.34784 0.0
C93 C 0.83373 0.28139 0.22048 0.0
C94 C 0.83171 0.32477 0.26354 0.0
Eu95 Eu 0.86112 0.26172 0.5331 0.0
N96 N 0.85361 0.23437 0.38862 0.0
C97 C 0.84324 0.20686 0.22113 0.0
C98 C 0.8555 0.19137 0.34989 0.0
C99 C 0.85047 0.17719 0.26533 0.0
H100 H 0.85056 0.36676 0.58575 0.0
H101 H 0.85213 0.14331 0.23441 0.0
H102 H 0.90674 0.15224 0.59993 0.0
H103 H 0.91044 0.41827 0.73951 0.0
H104 H 0.86086 0.16804 0.38408 0.0
H105 H 0.83942 0.19578 0.15544 0.0
H106 H 0.90615 0.3667 0.6046 0.0
H107 H 0.83843 0.42401 0.51567 0.0
H108 H 0.82971 0.27217 0.15467 0.0
H109 H 0.82613 0.34829 0.23033 0.0
H110 H 0.91375 0.1179 0.73081 0.0
H111 H 0.82946 0.40527 0.36418 0.0
H112 H 0.91542 0.38922 0.87929 0.0
N113 N 0.90811 0.21836 0.66641 0.0
C114 C 0.91152 0.24552 0.7415 0.0
C115 C 0.91311 0.15377 0.73473 0.0
C116 C 0.91546 0.22736 0.81772 0.0
C117 C 0.90912 0.17316 0.66104 0.0
C118 C 0.91622 0.18095 0.81353 0.0
N119 N 0.90673 0.30841 0.66849 0.0
C120 C 0.90737 0.35322 0.66567 0.0
C121 C 0.91362 0.32017 0.82145 0.0
C122 C 0.91053 0.29158 0.74313 0.0
C123 C 0.91313 0.36621 0.8205 0.0
C124 C 0.91023 0.38275 0.7419 0.0
H125 H 0.91917 0.16579 0.87077 0.0
H126 H 0.92113 0.24251 0.95539 0.0
H127 H 0.91958 0.32362 0.9586 0.0
O128 O 0.92176 0.28264 0.52112 0.0
O129 O 0.88785 0.23343 0.64971 0.0
O130 O 0.87163 0.28659 0.66193 0.0
O131 O 0.91919 0.2115 0.50112 0.0
O132 O 0.89297 0.31699 0.5047 0.0
O133 O 0.8731 0.32392 0.58259 0.0
O134 O 0.84891 0.21271 0.58985 0.0
O135 O 0.87193 0.26298 0.4022 0.0
O136 O 0.89517 0.25239 0.40256 0.0
O137 O 0.84133 0.27921 0.59072 0.0
O138 O 0.87063 0.19361 0.53938 0.0
O139 O 0.8919 0.19218 0.47584 0.0
C140 C 0.87978 0.2607 0.69889 0.0
C141 C 0.93594 0.24068 0.41642 0.0
C142 C 0.95836 0.24122 0.35008 0.0
C143 C 0.95244 0.2289 0.26646 0.0
C144 C 0.93035 0.22909 0.33239 0.0
C145 C 0.93857 0.2233 0.25789 0.0
C146 C 0.9499 0.24714 0.42505 0.0
C147 C 0.88234 0.34033 0.53461 0.0
C148 C 0.92741 0.2443 0.49579 0.0
C149 C 0.91825 0.25587 0.89591 0.0
C150 C 0.9173 0.30208 0.89782 0.0
C151 C 0.88368 0.25805 0.36239 0.0
C152 C 0.82541 0.2211 0.57281 0.0
C153 C 0.80139 0.20797 0.5943 0.0
C154 C 0.80055 0.18914 0.50492 0.0
C155 C 0.82421 0.20084 0.48506 0.0
C156 C 0.81393 0.22464 0.62765 0.0
C157 C 0.81188 0.18542 0.4512 0.0
C158 C 0.88117 0.17219 0.50186 0.0
C159 C 0.83856 0.23906 0.60578 0.0
H160 H 0.95852 0.22276 0.20733 0.0
H161 H 0.91966 0.22391 0.32472 0.0
H162 H 0.9342 0.21384 0.19322 0.0
H163 H 0.95408 0.25683 0.49025 0.0
H164 H 0.79108 0.17732 0.47598 0.0
H165 H 0.83281 0.1968 0.44237 0.0
H166 H 0.81484 0.23957 0.69598 0.0
H167 H 0.8111 0.17042 0.3829 0.0
Eu168 Eu 0.15413 0.75634 0.47442 0.0
C169 C 0.10433 0.77817 0.2737 0.0
N170 N 0.10848 0.79944 0.35362 0.0
C171 C 0.10497 0.87024 0.30373 0.0
C172 C 0.10106 0.80249 0.20418 0.0
C173 C 0.10792 0.84481 0.37092 0.0
C174 C 0.10177 0.849 0.21954 0.0
C175 C 0.09881 0.70914 0.17935 0.0
C176 C 0.10316 0.73184 0.26116 0.0
C177 C 0.09579 0.73337 0.1099 0.0
C178 C 0.09697 0.77984 0.12216 0.0
Eu179 Eu 0.11316 0.75192 0.46078 0.0
N180 N 0.10676 0.70881 0.32787 0.0
C181 C 0.09788 0.66259 0.16922 0.0
C182 C 0.10561 0.66357 0.31932 0.0
C183 C 0.10123 0.63975 0.23963 0.0
H184 H 0.10922 0.86175 0.43695 0.0
H185 H 0.10046 0.60382 0.23249 0.0
H186 H 0.159 0.67159 0.59061 0.0
H187 H 0.17401 0.92566 0.5288 0.0
H188 H 0.10816 0.64604 0.37405 0.0
H189 H 0.0946 0.64398 0.10732 0.0
H190 H 0.16275 0.86044 0.44549 0.0
H191 H 0.10486 0.90624 0.31751 0.0
H192 H 0.09259 0.71645 0.04627 0.0
H193 H 0.09455 0.79802 0.06795 0.0
H194 H 0.16985 0.65789 0.72986 0.0
H195 H 0.09937 0.86883 0.16781 0.0
H196 H 0.18407 0.91987 0.67479 0.0
N197 N 0.16406 0.74024 0.60678 0.0
C198 C 0.17083 0.77406 0.65517 0.0
C199 C 0.17013 0.69077 0.70989 0.0
C200 C 0.17716 0.76782 0.735 0.0
C201 C 0.16397 0.69859 0.63128 0.0
C202 C 0.17666 0.72562 0.76239 0.0
N203 N 0.16538 0.81962 0.54653 0.0
C204 C 0.16664 0.85819 0.51061 0.0
C205 C 0.17818 0.85102 0.67362 0.0
C206 C 0.1713 0.81512 0.62486 0.0
C207 C 0.1789 0.89146 0.63928 0.0
C208 C 0.17321 0.89491 0.55699 0.0
H209 H 0.18139 0.7195 0.82339 0.0
H210 H 0.18865 0.79967 0.84646 0.0
H211 H 0.18956 0.8725 0.79268 0.0
O212 O 0.17395 0.76835 0.42113 0.0
O213 O 0.14396 0.75889 0.60835 0.0
O214 O 0.1205 0.75571 0.60271 0.0
O215 O 0.16489 0.70342 0.39082 0.0
O216 O 0.14187 0.8148 0.44145 0.0
O217 O 0.12266 0.8171 0.52363 0.0
O218 O 0.09569 0.71388 0.49371 0.0
O219 O 0.12725 0.72393 0.34695 0.0
O220 O 0.14352 0.77629 0.35553 0.0
O221 O 0.09389 0.78465 0.49485 0.0
O222 O 0.12232 0.69198 0.51018 0.0
O223 O 0.1443 0.68737 0.45683 0.0
C224 C 0.13204 0.75825 0.6457 0.0
C225 C 0.18868 0.70702 0.40583 0.0
C226 C 0.21319 0.70566 0.39453 0.0
C227 C 0.21356 0.67307 0.45163 0.0
C228 C 0.18931 0.67404 0.46187 0.0
C229 C 0.20169 0.65726 0.48452 0.0
C230 C 0.20066 0.72238 0.37153 0.0
C231 C 0.13328 0.83691 0.49595 0.0
C232 C 0.17571 0.7272 0.38604 0.0
C233 C 0.18379 0.80373 0.78467 0.0
C234 C 0.18429 0.84524 0.75411 0.0
C235 C 0.13544 0.74892 0.30764 0.0
C236 C 0.07957 0.75124 0.58989 0.0
C237 C 0.05743 0.75086 0.65888 0.0
C238 C 0.06369 0.7534 0.74192 0.0
C239 C 0.08558 0.75434 0.67337 0.0
C240 C 0.0655 0.74993 0.58287 0.0
C241 C 0.07767 0.75534 0.74895 0.0
C242 C 0.13367 0.67028 0.49175 0.0
C243 C 0.08785 0.74838 0.50958 0.0
H244 H 0.22304 0.65942 0.47 0.0
H245 H 0.18027 0.66137 0.48856 0.0
H246 H 0.20209 0.63197 0.52802 0.0
H247 H 0.20024 0.74805 0.32871 0.0
H248 H 0.05777 0.75454 0.80159 0.0
H249 H 0.09638 0.75585 0.67996 0.0
H250 H 0.06085 0.74741 0.51825 0.0
H251 H 0.08237 0.75761 0.81323 0.0
Eu252 Eu 0.90185 0.75287 0.44279 0.0
C253 C 0.84965 0.78152 0.65304 0.0
N254 N 0.85215 0.74483 0.59401 0.0
C255 C 0.84443 0.69785 0.69757 0.0
C256 C 0.84509 0.77776 0.73896 0.0
C257 C 0.84901 0.70338 0.61323 0.0
C258 C 0.84274 0.73516 0.76139 0.0
C259 C 0.84704 0.86158 0.68161 0.0
C260 C 0.85064 0.82272 0.62473 0.0
C261 C 0.84346 0.85843 0.76947 0.0
C262 C 0.84247 0.81653 0.79811 0.0
Eu263 Eu 0.86117 0.75649 0.45589 0.0
N264 N 0.85379 0.82429 0.53888 0.0
C265 C 0.84646 0.90199 0.64712 0.0
C266 C 0.85181 0.86263 0.50293 0.0
C267 C 0.84853 0.9023 0.55683 0.0
H268 H 0.85057 0.67458 0.56435 0.0
H269 H 0.84752 0.93298 0.52858 0.0
H270 H 0.91057 0.86261 0.4748 0.0
H271 H 0.91706 0.62951 0.16695 0.0
H272 H 0.85304 0.86286 0.43272 0.0
H273 H 0.84377 0.93264 0.68859 0.0
H274 H 0.90968 0.65671 0.31992 0.0
H275 H 0.84233 0.66485 0.71352 0.0
H276 H 0.84086 0.88798 0.81459 0.0
H277 H 0.83917 0.81441 0.86494 0.0
H278 H 0.91584 0.92147 0.38392 0.0
H279 H 0.83922 0.73082 0.82672 0.0
H280 H 0.92105 0.68328 0.06159 0.0
N281 N 0.90876 0.81161 0.3647 0.0
C282 C 0.9117 0.79971 0.27778 0.0
C283 C 0.91446 0.88748 0.35284 0.0
C284 C 0.91527 0.83194 0.2236 0.0
C285 C 0.91119 0.85413 0.40393 0.0
C286 C 0.91616 0.87653 0.26178 0.0
N287 N 0.90935 0.72458 0.29956 0.0
C288 C 0.91151 0.68018 0.27406 0.0
C289 C 0.91639 0.74096 0.15695 0.0
C290 C 0.91229 0.75483 0.24472 0.0
C291 C 0.91791 0.69528 0.12852 0.0
C292 C 0.91567 0.6648 0.1878 0.0
H293 H 0.91886 0.90232 0.22248 0.0
H294 H 0.92103 0.8428 0.09144 0.0
H295 H 0.92197 0.76305 0.03299 0.0
O296 O 0.91466 0.71266 0.51755 0.0
O297 O 0.88837 0.72519 0.32512 0.0
O298 O 0.87124 0.775 0.33204 0.0
O299 O 0.92331 0.76646 0.45878 0.0
O300 O 0.89293 0.68536 0.45614 0.0
O301 O 0.86957 0.68561 0.43621 0.0
O302 O 0.8399 0.7681 0.43027 0.0
O303 O 0.87337 0.73366 0.56928 0.0
O304 O 0.89246 0.7762 0.57821 0.0
O305 O 0.85002 0.71184 0.35745 0.0
O306 O 0.87319 0.81474 0.41825 0.0
O307 O 0.89173 0.81682 0.50621 0.0
C308 C 0.88004 0.74957 0.28509 0.0
C309 C 0.93347 0.74968 0.58865 0.0
C310 C 0.95555 0.76009 0.65901 0.0
C311 C 0.94916 0.77971 0.7371 0.0
C312 C 0.92737 0.76922 0.66717 0.0
C313 C 0.9352 0.78398 0.74104 0.0
C314 C 0.94751 0.74501 0.58489 0.0
C315 C 0.88116 0.6652 0.44533 0.0
C316 C 0.92542 0.73593 0.50885 0.0
C317 C 0.91848 0.81845 0.13439 0.0
C318 C 0.91907 0.77303 0.10117 0.0
C319 C 0.88303 0.75499 0.6163 0.0
C320 C 0.82658 0.705 0.38111 0.0
C321 C 0.80237 0.69386 0.35868 0.0
C322 C 0.80363 0.65213 0.38874 0.0
C323 C 0.8275 0.66348 0.41139 0.0
C324 C 0.814 0.72019 0.35567 0.0
C325 C 0.81607 0.63733 0.4153 0.0
C326 C 0.88213 0.83731 0.46894 0.0
C327 C 0.83863 0.73247 0.37316 0.0
H328 H 0.95494 0.79258 0.79495 0.0
H329 H 0.91658 0.7734 0.67106 0.0
H330 H 0.93044 0.79928 0.80138 0.0
H331 H 0.95212 0.72949 0.52411 0.0
H332 H 0.79506 0.63035 0.3903 0.0
H333 H 0.83706 0.65102 0.43109 0.0
H334 H 0.81335 0.75263 0.33375 0.0
H335 H 0.81687 0.60514 0.43802 0.0
Eu336 Eu 0.65192 0.75037 0.07302 0.0
C337 C 0.60139 0.71469 0.26309 0.0
N338 N 0.60475 0.69841 0.17845 0.0
C339 C 0.59967 0.62426 0.20657 0.0
C340 C 0.59776 0.68585 0.32416 0.0
C341 C 0.60301 0.65424 0.14827 0.0
C342 C 0.59731 0.64002 0.29538 0.0
C343 C 0.5969 0.77858 0.37376 0.0
C344 C 0.60091 0.7605 0.2878 0.0
C345 C 0.59385 0.74991 0.43571 0.0
C346 C 0.59431 0.70366 0.41103 0.0
Eu347 Eu 0.61125 0.75232 0.08753 0.0
N348 N 0.60443 0.7875 0.22765 0.0
C349 C 0.59608 0.82498 0.39475 0.0
C350 C 0.60306 0.83264 0.2461 0.0
C351 C 0.59902 0.8521 0.3303 0.0
H352 H 0.60397 0.64187 0.07893 0.0
H353 H 0.59822 0.88794 0.34555 0.0
H354 H 0.65782 0.84266 0.98102 0.0
H355 H 0.66797 0.57908 0.96103 0.0
H356 H 0.6054 0.85347 0.19613 0.0
H357 H 0.59306 0.84015 0.46013 0.0
H358 H 0.66011 0.64175 0.0689 0.0
H359 H 0.5987 0.5891 0.18262 0.0
H360 H 0.59096 0.76316 0.50254 0.0
H361 H 0.59167 0.68197 0.45907 0.0
H362 H 0.6662 0.86333 0.83975 0.0
H363 H 0.59459 0.61676 0.34023 0.0
H364 H 0.67434 0.59191 0.81013 0.0
N365 N 0.6602 0.77318 0.94123 0.0
C366 C 0.66484 0.74058 0.87865 0.0
C367 C 0.6658 0.82868 0.84962 0.0
C368 C 0.66965 0.75074 0.79701 0.0
C369 C 0.6611 0.81698 0.92945 0.0
C370 C 0.66994 0.79538 0.78264 0.0
N371 N 0.66058 0.68867 0.97741 0.0
C372 C 0.66226 0.64741 1.00213 0.0
C373 C 0.66988 0.66248 0.83398 0.0
C374 C 0.66488 0.69702 0.89693 0.0
C375 C 0.6706 0.61936 0.85667 0.0
C376 C 0.66698 0.61196 0.94166 0.0
H377 H 0.67355 0.80452 0.72073 0.0
H378 H 0.67775 0.7233 0.66944 0.0
H379 H 0.67799 0.64601 0.70188 0.0
O380 O 0.67246 0.73367 0.10739 0.0
O381 O 0.63979 0.76602 0.95319 0.0
O382 O 0.6197 0.72813 0.95017 0.0
O383 O 0.66424 0.79764 0.15943 0.0
O384 O 0.64072 0.68972 0.10699 0.0
O385 O 0.62117 0.6874 0.02685 0.0
O386 O 0.59692 0.79575 0.03288 0.0
O387 O 0.62482 0.77815 0.20537 0.0
O388 O 0.64215 0.72903 0.19532 0.0
O389 O 0.59045 0.73133 0.0602 0.0
O390 O 0.62087 0.81518 0.05147 0.0
O391 O 0.6423 0.81852 0.11272 0.0
C392 C 0.62982 0.74465 0.90966 0.0
C393 C 0.6878 0.79315 0.13343 0.0
C394 C 0.71233 0.79419 0.14283 0.0
C395 C 0.71254 0.82941 0.09189 0.0
C396 C 0.68828 0.82897 0.08427 0.0
C397 C 0.70059 0.84679 0.06337 0.0
C398 C 0.69987 0.7762 0.16349 0.0
C399 C 0.63136 0.66734 0.05944 0.0
C400 C 0.6749 0.77241 0.15216 0.0
C401 C 0.67415 0.71622 0.73293 0.0
C402 C 0.67426 0.67219 0.75136 0.0
C403 C 0.63316 0.75305 0.24335 0.0
C404 C 0.57933 0.7612 0.94507 0.0
C405 C 0.55759 0.7574 0.87022 0.0
C406 C 0.5643 0.75374 0.78857 0.0
C407 C 0.58581 0.75678 0.8629 0.0
C408 C 0.56522 0.76096 0.94846 0.0
C409 C 0.57831 0.75316 0.7851 0.0
C410 C 0.63176 0.83733 0.08043 0.0
C411 C 0.58711 0.76721 0.02775 0.0
H412 H 0.72196 0.84405 0.07545 0.0
H413 H 0.67917 0.84327 0.06211 0.0
H414 H 0.70086 0.87427 0.02508 0.0
H415 H 0.69958 0.74861 0.20171 0.0
H416 H 0.5587 0.75069 0.72733 0.0
H417 H 0.59665 0.75643 0.85906 0.0
H418 H 0.5602 0.76443 1.01197 0.0
H419 H 0.58338 0.74998 0.72188 0.0
Eu420 Eu 0.40061 0.75084 0.06147 0.0
C421 C 0.34309 0.74494 0.87815 0.0
N422 N 0.34966 0.77617 0.93444 0.0
C423 C 0.34295 0.8331 0.84917 0.0
C424 C 0.3366 0.75646 0.80252 0.0
C425 C 0.34927 0.82005 0.92314 0.0
C426 C 0.33672 0.8011 0.78803 0.0
C427 C 0.33602 0.66819 0.83961 0.0
C428 C 0.34284 0.70134 0.89653 0.0
C429 C 0.32986 0.67925 0.76282 0.0
C430 C 0.33014 0.72328 0.74438 0.0
Eu431 Eu 0.35997 0.75141 0.0576 0.0
N432 N 0.34881 0.69168 0.97156 0.0
C433 C 0.33533 0.62511 0.86258 0.0
C434 C 0.34739 0.65052 0.9971 0.0
C435 C 0.34089 0.61641 0.94227 0.0
H436 H 0.35398 0.84482 0.97079 0.0
H437 H 0.34002 0.5836 0.9621 0.0
H438 H 0.40517 0.64044 0.0786 0.0
H439 H 0.41493 0.89677 0.29021 0.0
H440 H 0.35107 0.644 0.06047 0.0
H441 H 0.3302 0.59871 0.82057 0.0
H442 H 0.4063 0.85583 0.14989 0.0
H443 H 0.34287 0.8678 0.83946 0.0
H444 H 0.32466 0.65415 0.71804 0.0
H445 H 0.32519 0.73141 0.68554 0.0
H446 H 0.41058 0.59454 0.19412 0.0
H447 H 0.33184 0.81129 0.73069 0.0
H448 H 0.42157 0.85532 0.41203 0.0
N449 N 0.40644 0.70202 0.16411 0.0
C450 C 0.41093 0.72248 0.24379 0.0
C451 C 0.41047 0.63048 0.20952 0.0
C452 C 0.41476 0.69735 0.31089 0.0
C453 C 0.40697 0.65671 0.14465 0.0
C454 C 0.41416 0.65086 0.29347 0.0
N455 N 0.40785 0.79258 0.1938 0.0
C456 C 0.40915 0.83776 0.20324 0.0
C457 C 0.41689 0.79073 0.3392 0.0
C458 C 0.412 0.7688 0.25815 0.0
C459 C 0.41787 0.83728 0.35068 0.0
C460 C 0.41407 0.86085 0.28219 0.0
H461 H 0.41698 0.6304 0.34333 0.0
H462 H 0.42218 0.70039 0.44489 0.0
H463 H 0.42405 0.782 0.46955 0.0
O464 O 0.41613 0.78873 1.00271 0.0
O465 O 0.3875 0.77726 0.18163 0.0
O466 O 0.37067 0.72686 0.17224 0.0
O467 O 0.42089 0.72445 0.03933 0.0
O468 O 0.39135 0.81212 1.01678 0.0
O469 O 0.3707 0.81827 0.08783 0.0
O470 O 0.3397 0.73952 0.1045 0.0
O471 O 0.3702 0.76 0.92666 0.0
O472 O 0.39183 0.7304 0.92409 0.0
O473 O 0.35004 0.80028 0.15472 0.0
O474 O 0.37126 0.68935 0.08308 0.0
O475 O 0.39072 0.68582 1.00182 0.0
C476 C 0.37932 0.75196 0.22036 0.0
C477 C 0.43351 0.74713 0.92365 0.0
C478 C 0.45575 0.74052 0.85456 0.0
C479 C 0.44964 0.72152 0.77506 0.0
C480 C 0.42769 0.72818 0.8439 0.0
C481 C 0.43573 0.71572 0.76988 0.0
C482 C 0.44748 0.75353 0.92865 0.0
C483 C 0.38061 0.835 0.04548 0.0
C484 C 0.42529 0.75813 1.00359 0.0
C485 C 0.41931 0.71921 0.39248 0.0
C486 C 0.42043 0.76571 0.40644 0.0
C487 C 0.38112 0.74408 0.88449 0.0
C488 C 0.32622 0.80345 0.14429 0.0
C489 C 0.30186 0.81042 0.16667 0.0
C490 C 0.30233 0.85171 0.13422 0.0
C491 C 0.32632 0.84449 0.11153 0.0
C492 C 0.31396 0.78644 0.17112 0.0
C493 C 0.31444 0.86833 0.1065 0.0
C494 C 0.38003 0.66673 0.03053 0.0
C495 C 0.33877 0.7783 0.15246 0.0
H496 H 0.45559 0.71018 0.71707 0.0
H497 H 0.41697 0.72249 0.83932 0.0
H498 H 0.4312 0.70084 0.70851 0.0
H499 H 0.45184 0.76859 0.99053 0.0
H500 H 0.29338 0.87176 0.13159 0.0
H501 H 0.33559 0.8584 0.09052 0.0
H502 H 0.3139 0.7544 0.19499 0.0
H503 H 0.31463 0.90014 0.08184 0.0
Eu504 Eu 0.65394 0.25136 1.00019 0.0
C505 C 0.60422 0.2685 0.79107 0.0
N506 N 0.60841 0.2913 0.86957 0.0
C507 C 0.60485 0.36061 0.81389 0.0
C508 C 0.60087 0.29125 0.71944 0.0
C509 C 0.6079 0.33672 0.88329 0.0
C510 C 0.60154 0.33779 0.73118 0.0
C511 C 0.59896 0.19788 0.70131 0.0
C512 C 0.60322 0.22214 0.78187 0.0
C513 C 0.59579 0.22058 0.62991 0.0
C514 C 0.59679 0.26705 0.63884 0.0
Eu515 Eu 0.61306 0.24631 0.98097 0.0
N516 N 0.60694 0.20059 0.85049 0.0
C517 C 0.59829 0.15135 0.69431 0.0
C518 C 0.60607 0.15539 0.84491 0.0
C519 C 0.60181 0.13005 0.76651 0.0
H520 H 0.60929 0.35487 0.94817 0.0
H521 H 0.60124 0.09415 0.76179 0.0
H522 H 0.65609 0.16688 0.12141 0.0
H523 H 0.6745 0.41958 0.06347 0.0
H524 H 0.60869 0.13904 0.90107 0.0
H525 H 0.59509 0.13157 0.63343 0.0
H526 H 0.66291 0.35594 0.97728 0.0
H527 H 0.60476 0.39666 0.82483 0.0
H528 H 0.59262 0.20245 0.56725 0.0
H529 H 0.59429 0.28403 0.58306 0.0
H530 H 0.66575 0.15233 0.26342 0.0
H531 H 0.59908 0.35644 0.67773 0.0
H532 H 0.68418 0.41169 0.20955 0.0
N533 N 0.66245 0.23434 0.13619 0.0
C534 C 0.66956 0.26714 0.18533 0.0
C535 C 0.66682 0.18482 0.24247 0.0
C536 C 0.67527 0.26027 0.26676 0.0
C537 C 0.66129 0.1932 0.16234 0.0
C538 C 0.67378 0.21855 0.29515 0.0
N539 N 0.66515 0.31368 0.0763 0.0
C540 C 0.66668 0.3527 0.0423 0.0
C541 C 0.67773 0.34324 0.2057 0.0
C542 C 0.67074 0.30815 0.15519 0.0
C543 C 0.67891 0.38391 0.17266 0.0
C544 C 0.67342 0.38856 0.09035 0.0
H545 H 0.67801 0.212 0.35738 0.0
H546 H 0.68659 0.29062 0.38034 0.0
H547 H 0.68877 0.3632 0.32685 0.0
O548 O 0.67384 0.26475 0.94926 0.0
O549 O 0.64316 0.25865 0.13275 0.0
O550 O 0.61993 0.24826 0.12358 0.0
O551 O 0.66584 0.19817 0.92552 0.0
O552 O 0.64212 0.30986 0.96282 0.0
O553 O 0.62247 0.31203 0.04128 0.0
O554 O 0.5952 0.20946 1.0115 0.0
O555 O 0.62738 0.21866 0.86839 0.0
O556 O 0.64397 0.27011 0.87765 0.0
O557 O 0.594 0.28052 1.01445 0.0
O558 O 0.62222 0.18746 0.03386 0.0
O559 O 0.64402 0.18255 0.978 0.0
C560 C 0.63124 0.25498 0.1685 0.0
C561 C 0.68947 0.20616 0.94481 0.0
C562 C 0.71392 0.20196 0.92773 0.0
C563 C 0.71455 0.17774 0.99976 0.0
C564 C 0.69041 0.1812 1.01536 0.0
C565 C 0.70288 0.16734 0.04284 0.0
C566 C 0.70127 0.21616 0.90055 0.0
C567 C 0.63307 0.33201 1.01367 0.0
C568 C 0.67633 0.22333 0.91944 0.0
C569 C 0.68217 0.29522 0.31746 0.0
C570 C 0.68339 0.33659 0.28706 0.0
C571 C 0.63566 0.24358 0.82965 0.0
C572 C 0.57918 0.2477 0.10721 0.0
C573 C 0.55686 0.24944 0.17445 0.0
C574 C 0.56297 0.252 0.25807 0.0
C575 C 0.58502 0.25054 0.19117 0.0
C576 C 0.56511 0.24738 0.09903 0.0
C577 C 0.57693 0.25261 0.26615 0.0
C578 C 0.63341 0.16533 1.01296 0.0
C579 C 0.58763 0.24459 0.02766 0.0
H580 H 0.72408 0.16589 0.02153 0.0
H581 H 0.68153 0.17231 0.04922 0.0
H582 H 0.70348 0.1482 0.09752 0.0
H583 H 0.70061 0.23535 0.84586 0.0
H584 H 0.55695 0.2543 0.31751 0.0
H585 H 0.59581 0.25118 0.19865 0.0
H586 H 0.56063 0.24494 0.03395 0.0
H587 H 0.58151 0.25484 0.33085 0.0
Eu588 Eu 0.40146 0.24979 1.00608 0.0
C589 C 0.34891 0.21418 0.17849 0.0
N590 N 0.35356 0.19522 0.09818 0.0
C591 C 0.34839 0.1226 0.1344 0.0
C592 C 0.34442 0.18763 0.24154 0.0
C593 C 0.35252 0.15032 0.07362 0.0
C594 C 0.34456 0.14127 0.21931 0.0
C595 C 0.34279 0.28097 0.27764 0.0
C596 C 0.34809 0.26039 0.19662 0.0
C597 C 0.33874 0.25458 0.34149 0.0
C598 C 0.3396 0.20807 0.32364 0.0
Eu599 Eu 0.36094 0.24578 1.00305 0.0
N600 N 0.35263 0.28531 0.13527 0.0
C601 C 0.3418 0.32752 0.29215 0.0
C602 C 0.35122 0.33052 0.14731 0.0
C603 C 0.34592 0.35235 0.22635 0.0
H604 H 0.35453 0.13568 1.0066 0.0
H605 H 0.34501 0.38828 0.23652 0.0
H606 H 0.40663 0.34391 0.921 0.0
H607 H 0.4229 0.08378 0.90855 0.0
H608 H 0.35432 0.3496 0.0961 0.0
H609 H 0.33779 0.34457 0.35355 0.0
H610 H 0.41134 0.14263 1.00759 0.0
H611 H 0.34792 0.0869 0.11514 0.0
H612 H 0.33481 0.26981 0.40463 0.0
H613 H 0.33624 0.18816 0.37311 0.0
H614 H 0.41739 0.36824 0.7895 0.0
H615 H 0.34122 0.11973 0.26596 0.0
H616 H 0.43242 0.10023 0.76717 0.0
N617 N 0.41136 0.27564 0.88292 0.0
C618 C 0.41814 0.24509 0.82626 0.0
C619 C 0.41757 0.33347 0.79867 0.0
C620 C 0.42446 0.2574 0.75071 0.0
C621 C 0.41147 0.31968 0.87268 0.0
C622 C 0.42396 0.3021 0.73682 0.0
N623 N 0.41307 0.19107 0.91952 0.0
C624 C 0.41489 0.14989 0.94443 0.0
C625 C 0.42593 0.16909 0.787 0.0
C626 C 0.41885 0.20146 0.84437 0.0
C627 C 0.42707 0.12603 0.80951 0.0
C628 C 0.42168 0.11657 0.88914 0.0
H629 H 0.42868 0.31286 0.67951 0.0
H630 H 0.43598 0.23366 0.63334 0.0
H631 H 0.43727 0.15637 0.66509 0.0
O632 O 0.42233 0.24217 0.05118 0.0
O633 O 0.39083 0.26029 0.87714 0.0
O634 O 0.37106 0.22024 0.87235 0.0
O635 O 0.41052 0.30113 0.10136 0.0
O636 O 0.39125 0.18613 0.03366 0.0
O637 O 0.37173 0.18077 0.95155 0.0
O638 O 0.34693 0.28341 0.93078 0.0
O639 O 0.37304 0.27143 0.12853 0.0
O640 O 0.39101 0.22478 0.12156 0.0
O641 O 0.3405 0.22239 0.97455 0.0
O642 O 0.3701 0.30913 0.96582 0.0
O643 O 0.39015 0.31479 0.04285 0.0
C644 C 0.38083 0.23916 0.83305 0.0
C645 C 0.43319 0.29869 0.15895 0.0
C646 C 0.45693 0.30036 0.20135 0.0
C647 C 0.45403 0.33531 0.26929 0.0
C648 C 0.43066 0.33363 0.2274 0.0
C649 C 0.44101 0.35172 0.28203 0.0
C650 C 0.4464 0.28218 0.14583 0.0
C651 C 0.3819 0.16238 0.98818 0.0
C652 C 0.42193 0.28022 0.10232 0.0
C653 C 0.43117 0.22493 0.69215 0.0
C654 C 0.43188 0.18089 0.71018 0.0
C655 C 0.38152 0.24719 0.16782 0.0
C656 C 0.33037 0.24094 0.84578 0.0
C657 C 0.3098 0.2383 0.75696 0.0
C658 C 0.31656 0.21052 0.68934 0.0
C659 C 0.33683 0.21347 0.77732 0.0
C660 C 0.31694 0.2536 0.83521 0.0
C661 C 0.32997 0.19862 0.69936 0.0
C662 C 0.38028 0.33246 1.00222 0.0
C663 C 0.33728 0.25448 0.93031 0.0
H664 H 0.46191 0.35047 0.31209 0.0
H665 H 0.42063 0.34696 0.23908 0.0
H666 H 0.43895 0.37869 0.33445 0.0
H667 H 0.44847 0.25521 0.09329 0.0
H668 H 0.31146 0.19708 0.62907 0.0
H669 H 0.34711 0.20301 0.78471 0.0
H670 H 0.31211 0.27529 0.88825 0.0
H671 H 0.33499 0.17714 0.64693 0.0
H672 H 0.22635 0.24934 0.58367 0.0
H673 H 0.23042 0.36137 0.78889 0.0
H674 H 0.24972 0.22802 0.60746 0.0
H675 H 0.25365 0.33959 0.81399 0.0
H676 H 0.29 0.25217 0.88446 0.0
H677 H 0.26648 0.27119 0.86555 0.0
H678 H 0.27287 0.26821 0.58587 0.0
H679 H 0.29653 0.25181 0.60449 0.0
C680 C 0.23219 0.26896 0.63463 0.0
C681 C 0.22662 0.30699 0.68438 0.0
C682 C 0.24556 0.25698 0.64787 0.0
C683 C 0.25349 0.28223 0.71247 0.0
C684 C 0.24775 0.31942 0.76409 0.0
C685 C 0.2345 0.33194 0.74956 0.0
C686 C 0.28654 0.25632 0.81901 0.0
C687 C 0.29534 0.2503 0.74611 0.0
C688 C 0.27299 0.26686 0.80824 0.0
C689 C 0.26783 0.27078 0.72416 0.0
C690 C 0.27653 0.26466 0.65127 0.0
C691 C 0.29012 0.25503 0.66215 0.0
H692 H 0.7183 0.18954 0.74948 0.0
H693 H 0.73799 0.23267 0.99794 0.0
H694 H 0.73963 0.19434 0.67215 0.0
H695 H 0.75935 0.23736 0.92053 0.0
H696 H 0.79274 0.27475 0.72395 0.0
H697 H 0.77149 0.27813 0.80592 0.0
H698 H 0.76087 0.14818 0.67208 0.0
H699 H 0.78207 0.14399 0.59302 0.0
C700 C 0.72713 0.20081 0.78738 0.0
C701 C 0.72647 0.21045 0.87983 0.0
C702 C 0.73937 0.20319 0.74324 0.0
C703 C 0.7512 0.21581 0.79038 0.0
C704 C 0.75042 0.22762 0.88238 0.0
C705 C 0.73821 0.22468 0.92667 0.0
C706 C 0.78596 0.24665 0.71303 0.0
C707 C 0.78908 0.20941 0.65061 0.0
C708 C 0.77376 0.24872 0.75959 0.0
C709 C 0.76439 0.2138 0.74405 0.0
C710 C 0.7677 0.17614 0.68382 0.0
C711 C 0.77989 0.17382 0.6384 0.0
H712 H 0.27659 0.81914 0.09829 0.0
H713 H 0.2974 0.76243 0.30454 0.0
H714 H 0.25531 0.79598 0.15383 0.0
H715 H 0.2762 0.73593 0.35549 0.0
H716 H 0.23559 0.73428 0.48792 0.0
H717 H 0.25675 0.75923 0.43211 0.0
H718 H 0.24095 0.73684 0.16617 0.0
H719 H 0.21957 0.7139 0.22342 0.0
C720 C 0.27668 0.80159 0.15536 0.0
C721 C 0.28883 0.79318 0.19715 0.0
C722 C 0.26441 0.78757 0.1865 0.0
C723 C 0.26389 0.76406 0.25967 0.0
C724 C 0.27607 0.75468 0.30013 0.0
C725 C 0.28833 0.76926 0.26974 0.0
C726 C 0.23666 0.73483 0.41755 0.0
C727 C 0.22593 0.72214 0.36003 0.0
C728 C 0.24885 0.74882 0.38524 0.0
C729 C 0.25073 0.74984 0.29418 0.0
C730 C 0.2399 0.73728 0.23676 0.0
C731 C 0.22763 0.72395 0.2694 0.0
H732 H 0.73472 0.7688 0.04617 0.0
H733 H 0.71889 0.781 0.31094 0.0
H734 H 0.75614 0.74372 0.09825 0.0
H735 H 0.74051 0.75804 0.36472 0.0
H736 H 0.7773 0.67925 0.4251 0.0
H737 H 0.75563 0.70025 0.37148 0.0
H738 H 0.77538 0.76763 0.17576 0.0
H739 H 0.79699 0.74332 0.22438 0.0
C740 C 0.73588 0.76631 0.11579 0.0
C741 C 0.72515 0.77684 0.1745 0.0
C742 C 0.74821 0.75228 0.14602 0.0
C743 C 0.75023 0.74914 0.23619 0.0
C744 C 0.73937 0.7593 0.29469 0.0
C745 C 0.72696 0.77263 0.26406 0.0
C746 C 0.77706 0.69793 0.36965 0.0
C747 C 0.78903 0.70918 0.32899 0.0
C748 C 0.76456 0.71068 0.33965 0.0
C749 C 0.76361 0.7357 0.26883 0.0
C750 C 0.77559 0.74768 0.22928 0.0
C751 C 0.78809 0.73437 0.25844 0.0
H752 H 0.14168 0.88966 0.37626 0.0
H753 H 0.12508 0.89525 0.63833 0.0
H754 H 0.14183 0.97091 0.39168 0.0
H755 H 0.12521 0.97697 0.65393 0.0
H756 H 0.14291 0.12074 0.6761 0.0
H757 H 0.14256 0.03935 0.6629 0.0
H758 H 0.12463 0.03304 0.40438 0.0
H759 H 0.12496 0.11452 0.41782 0.0
C760 C 0.13817 0.90834 0.43754 0.0
C761 C 0.13352 0.88621 0.50662 0.0
C762 C 0.13813 0.95484 0.44598 0.0
C763 C 0.13354 0.98033 0.52399 0.0
C764 C 0.12892 0.95819 0.59331 0.0
C765 C 0.12878 0.91153 0.58433 0.0
C766 C 0.13895 0.10189 0.61634 0.0
C767 C 0.13403 0.12384 0.54771 0.0
C768 C 0.13865 0.05538 0.60912 0.0
C769 C 0.13358 0.02982 0.53262 0.0
C770 C 0.1287 0.05184 0.46385 0.0
C771 C 0.12883 0.0984 0.47162 0.0
H772 H 0.86932 0.41031 0.63342 0.0
H773 H 0.89426 0.37771 0.40255 0.0
H774 H 0.86826 0.48787 0.60544 0.0
H775 H 0.89364 0.45542 0.37681 0.0
H776 H 0.90247 0.60755 0.43816 0.0
H777 H 0.9023 0.52908 0.45743 0.0
H778 H 0.85924 0.5336 0.4865 0.0
H779 H 0.8593 0.61209 0.46559 0.0
C780 C 0.87439 0.4195 0.57601 0.0
C781 C 0.88166 0.38763 0.51933 0.0
C782 C 0.87385 0.46397 0.56029 0.0
C783 C 0.88083 0.4777 0.48875 0.0
C784 C 0.88822 0.44591 0.43273 0.0
C785 C 0.88858 0.40141 0.44761 0.0
C786 C 0.89292 0.59191 0.4479 0.0
C787 C 0.8809 0.6165 0.45071 0.0
C788 C 0.89284 0.54682 0.45876 0.0
C789 C 0.88077 0.52523 0.47397 0.0
C790 C 0.86872 0.5495 0.47583 0.0
C791 C 0.86877 0.59447 0.46345 0.0
H792 H 0.87654 0.88635 0.33739 0.0
H793 H 0.88846 0.89849 0.61098 0.0
H794 H 0.87675 0.96759 0.34471 0.0
H795 H 0.88832 0.98005 0.61899 0.0
H796 H 0.89497 0.11272 0.38372 0.0
H797 H 0.89553 0.03135 0.37575 0.0
H798 H 0.8688 0.03936 0.59941 0.0
H799 H 0.86798 0.12046 0.60644 0.0
C800 C 0.87915 0.90651 0.39914 0.0
C801 C 0.88246 0.88634 0.47375 0.0
C802 C 0.87934 0.95287 0.40314 0.0
C803 C 0.88254 0.97999 0.48239 0.0
C804 C 0.88578 0.95982 0.5572 0.0
C805 C 0.88592 0.91333 0.55258 0.0
C806 C 0.88918 0.09707 0.43094 0.0
C807 C 0.88137 0.12295 0.49532 0.0
C808 C 0.88949 0.05059 0.42626 0.0
C809 C 0.88224 0.02921 0.48718 0.0
C810 C 0.87454 0.05508 0.55205 0.0
C811 C 0.874 0.10142 0.55552 0.0
H812 H 0.1541 0.6091 0.45406 0.0
H813 H 0.11426 0.62371 0.56638 0.0
H814 H 0.15443 0.53124 0.47962 0.0
H815 H 0.11471 0.54658 0.59262 0.0
H816 H 0.11345 0.39531 0.52881 0.0
H817 H 0.11388 0.47322 0.50802 0.0
H818 H 0.155 0.48311 0.59748 0.0
H819 H 0.15465 0.40452 0.61768 0.0
C820 C 0.14543 0.59589 0.48433 0.0
C821 C 0.13411 0.62286 0.50744 0.0
C822 C 0.14566 0.55127 0.49953 0.0
C823 C 0.13457 0.53249 0.5378 0.0
C824 C 0.12334 0.55963 0.56168 0.0
C825 C 0.12312 0.60409 0.54679 0.0
C826 C 0.1226 0.41392 0.54457 0.0
C827 C 0.13403 0.39328 0.57477 0.0
C828 C 0.12282 0.45885 0.53292 0.0
C829 C 0.13447 0.48459 0.55107 0.0
C830 C 0.1459 0.46416 0.58185 0.0
C831 C 0.14567 0.4191 0.59393 0.0
H832 H 0.62254 0.60697 0.92253 0.0
H833 H 0.64002 0.61715 0.18279 0.0
H834 H 0.62291 0.52544 0.91204 0.0
H835 H 0.64025 0.53591 0.17281 0.0
H836 H 0.62344 0.39076 0.15061 0.0
H837 H 0.62276 0.4723 0.1623 0.0
H838 H 0.64151 0.46534 0.90618 0.0
H839 H 0.64228 0.38412 0.89486 0.0
C840 C 0.6264 0.59172 0.97747 0.0
C841 C 0.63132 0.61822 0.05317 0.0
C842 C 0.62667 0.5452 0.97138 0.0
C843 C 0.63162 0.52441 0.04163 0.0
C844 C 0.63632 0.55104 0.11792 0.0
C845 C 0.63627 0.59745 0.12334 0.0
C846 C 0.62746 0.40678 0.09717 0.0
C847 C 0.63304 0.38124 0.02235 0.0
C848 C 0.62711 0.45332 0.10388 0.0
C849 C 0.63206 0.47508 0.03504 0.0
C850 C 0.63754 0.44943 0.95995 0.0
C851 C 0.63811 0.40302 0.95393 0.0
H852 H 0.36757 0.90279 0.14842 0.0
H853 H 0.39243 0.87476 0.91584 0.0
H854 H 0.36754 0.98206 0.13146 0.0
H855 H 0.39207 0.95384 0.89794 0.0
H856 H 0.37342 0.0955 0.8614 0.0
H857 H 0.37258 0.01528 0.87222 0.0
H858 H 0.3883 0.04076 0.13725 0.0
H859 H 0.38952 0.12026 0.12568 0.0
C860 C 0.37293 0.91349 0.0934 0.0
C861 C 0.38011 0.88267 0.03395 0.0
C862 C 0.37292 0.95877 0.08383 0.0
C863 C 0.3798 0.97388 1.01341 0.0
C864 C 0.38665 0.94294 0.95252 0.0
C865 C 0.38693 0.89783 0.96322 0.0
C866 C 0.37675 0.08377 0.92158 0.0
C867 C 0.3816 0.11394 0.99247 0.0
C868 C 0.37628 0.03806 0.92776 0.0
C869 C 0.38032 0.02206 1.00575 0.0
C870 C 0.38506 0.05233 0.07668 0.0
C871 C 0.38584 0.09772 0.06974 0.0
H872 H 0.39266 0.39495 0.1201 0.0
H873 H 0.36776 0.38046 0.88661 0.0
H874 H 0.3924 0.47576 0.12355 0.0
H875 H 0.36777 0.46165 0.88936 0.0
H876 H 0.38723 0.60655 0.88836 0.0
H877 H 0.38703 0.52479 0.87774 0.0
H878 H 0.37244 0.53525 0.1456 0.0
H879 H 0.37235 0.61642 0.15556 0.0
C880 C 0.38719 0.40899 0.06924 0.0
C881 C 0.38018 0.38137 1.00327 0.0
C882 C 0.38702 0.45522 0.07145 0.0
C883 C 0.38007 0.47478 1.00674 0.0
C884 C 0.37325 0.44726 0.93975 0.0
C885 C 0.37318 0.40095 0.93857 0.0
C886 C 0.38392 0.59119 0.94454 0.0
C887 C 0.37973 0.61761 0.02249 0.0
C888 C 0.38375 0.54462 0.93839 0.0
C889 C 0.37973 0.52391 1.01093 0.0
C890 C 0.37562 0.55044 0.08889 0.0
C891 C 0.3755 0.59679 0.09435 0.0
H892 H 0.61342 0.11759 0.07875 0.0
H893 H 0.65385 0.10426 0.97562 0.0
H894 H 0.61342 0.03944 0.09784 0.0
H895 H 0.65374 0.0254 0.99428 0.0
H896 H 0.61215 0.8887 0.02001 0.0
H897 H 0.61302 0.96734 1.00448 0.0
H898 H 0.65323 0.97535 0.11047 0.0
H899 H 0.65245 0.89619 0.12564 0.0
C900 C 0.62233 0.09806 0.05981 0.0
C901 C 0.63362 0.11743 0.02502 0.0
C902 C 0.62228 0.05305 0.07052 0.0
C903 C 0.63354 0.02603 0.0471 0.0
C904 C 0.64493 0.04538 1.01355 0.0
C905 C 0.64496 0.09054 1.00234 0.0
C906 C 0.62119 0.90706 0.0404 0.0
C907 C 0.63223 0.88585 0.0741 0.0
C908 C 0.62166 0.95233 0.03175 0.0
C909 C 0.63319 0.97772 0.05631 0.0
C910 C 0.64425 0.95665 0.09008 0.0
C911 C 0.64375 0.91129 0.0993 0.0
H912 H 0.14202 0.32003 0.3193 0.0
H913 H 0.12269 0.19176 0.28119 0.0
H914 H 0.14273 0.32027 0.1598 0.0
H915 H 0.12308 0.19227 0.12068 0.0
H916 H 0.1297 0.32739 0.87308 0.0
H917 H 0.12831 0.32637 0.03271 0.0
H918 H 0.13893 0.18693 0.99482 0.0
H919 H 0.1402 0.18813 0.8349 0.0
C920 C 0.13798 0.29168 0.27679 0.0
C921 C 0.1325 0.25558 0.31352 0.0
C922 C 0.13822 0.29205 0.18494 0.0
C923 C 0.133 0.25624 0.12632 0.0
C924 C 0.12736 0.22025 0.16318 0.0
C925 C 0.12703 0.22009 0.25542 0.0
C926 C 0.13172 0.29652 0.89886 0.0
C927 C 0.13505 0.25787 0.841 0.0
C928 C 0.13101 0.29593 0.99067 0.0
C929 C 0.13352 0.25656 0.02763 0.0
C930 C 0.1368 0.21781 0.96935 0.0
C931 C 0.13766 0.21857 0.87755 0.0
H932 H 0.90016 0.21401 0.23445 0.0
H933 H 0.86737 0.30767 0.27106 0.0
H934 H 0.89939 0.21613 0.07503 0.0
H935 H 0.86599 0.30783 0.11226 0.0
H936 H 0.8753 0.33108 0.82818 0.0
H937 H 0.87695 0.33203 0.9882 0.0
H938 H 0.88571 0.19102 0.94861 0.0
H939 H 0.88424 0.19056 0.78911 0.0
C940 C 0.89283 0.23518 0.2086 0.0
C941 C 0.88376 0.26034 0.26565 0.0
C942 C 0.89224 0.23594 0.11695 0.0
C943 C 0.88255 0.26191 0.08001 0.0
C944 C 0.87366 0.28768 0.13767 0.0
C945 C 0.87431 0.28704 0.22899 0.0
C946 C 0.87742 0.30027 0.85398 0.0
C947 C 0.87968 0.2608 0.79615 0.0
C948 C 0.87839 0.30073 0.94575 0.0
C949 C 0.88154 0.26162 0.982 0.0
C950 C 0.88352 0.22198 0.92363 0.0
C951 C 0.88258 0.2216 0.83206 0.0
H952 H 0.12914 0.68082 0.17641 0.0
H953 H 0.1401 0.81967 0.21991 0.0
H954 H 0.12767 0.68378 1.01725 0.0
H955 H 0.13856 0.82296 0.06172 0.0
H956 H 0.14924 0.80086 0.76803 0.0
H957 H 0.15008 0.7973 0.9261 0.0
H958 H 0.11467 0.71452 0.90422 0.0
H959 H 0.11431 0.71631 0.74449 0.0
C960 C 0.13118 0.71199 0.15189 0.0
C961 C 0.13471 0.74999 0.21071 0.0
C962 C 0.13029 0.71381 0.0607 0.0
C963 C 0.13302 0.75363 0.02605 0.0
C964 C 0.13659 0.79153 0.08538 0.0
C965 C 0.13747 0.78967 0.17627 0.0
C966 C 0.14172 0.78149 0.79667 0.0
C967 C 0.13177 0.75867 0.74329 0.0
C968 C 0.14208 0.77993 0.88781 0.0
C969 C 0.13244 0.7556 0.92858 0.0
C970 C 0.12235 0.73319 0.87525 0.0
C971 C 0.12201 0.73477 0.78379 0.0
H972 H 0.89324 0.81747 0.74774 0.0
H973 H 0.87385 0.68932 0.70748 0.0
H974 H 0.89293 0.81615 0.90795 0.0
H975 H 0.87326 0.68824 0.8669 0.0
H976 H 0.88593 0.68033 0.15471 0.0
H977 H 0.88741 0.68153 0.99497 0.0
H978 H 0.87727 0.82134 0.03363 0.0
H979 H 0.8759 0.81994 0.19326 0.0
C980 C 0.88892 0.78897 0.77295 0.0
C981 C 0.88341 0.75376 0.71425 0.0
C982 C 0.88863 0.78834 0.86511 0.0
C983 C 0.88301 0.75216 0.90148 0.0
C984 C 0.87777 0.71659 0.84225 0.0
C985 C 0.87795 0.71743 0.75042 0.0
C986 C 0.88405 0.71132 0.12905 0.0
C987 C 0.88081 0.75001 0.18712 0.0
C988 C 0.88481 0.71202 0.03714 0.0
C989 C 0.88245 0.75156 1.00028 0.0
C990 C 0.87929 0.79032 0.05884 0.0
C991 C 0.87837 0.78945 0.15059 0.0
H992 H 0.6287 0.82189 0.3764 0.0
H993 H 0.63582 0.68048 0.33013 0.0
H994 H 0.62757 0.81937 0.53509 0.0
H995 H 0.63394 0.67686 0.48802 0.0
H996 H 0.64221 0.68648 0.78301 0.0
H997 H 0.64337 0.68921 0.62463 0.0
H998 H 0.61637 0.80221 0.65615 0.0
H999 H 0.61637 0.80132 0.81585 0.0
C1000 C 0.62993 0.79012 0.40038 0.0
C1001 C 0.63244 0.75147 0.3406 0.0
C1002 C 0.62916 0.78845 0.49183 0.0
C1003 C 0.63067 0.74785 0.52663 0.0
C1004 C 0.63303 0.7091 0.46576 0.0
C1005 C 0.63406 0.71101 0.37454 0.0
C1006 C 0.63665 0.71211 0.75587 0.0
C1007 C 0.6293 0.74384 0.81197 0.0
C1008 C 0.63712 0.71342 0.66428 0.0
C1009 C 0.62997 0.74602 0.62529 0.0
C1010 C 0.6223 0.77709 0.68222 0.0
C1011 C 0.62209 0.77627 0.77414 0.0
H1012 H 0.36258 0.70892 0.76317 0.0
H1013 H 0.40063 0.77661 0.7845 0.0
H1014 H 0.36224 0.71179 0.60451 0.0
H1015 H 0.40066 0.77812 0.62425 0.0
H1016 H 0.3876 0.81755 0.35164 0.0
H1017 H 0.38883 0.81434 0.51074 0.0
H1018 H 0.37326 0.68026 0.46819 0.0
H1019 H 0.37222 0.68344 0.30955 0.0
C1020 C 0.37083 0.72477 0.73396 0.0
C1021 C 0.3815 0.74316 0.78677 0.0
C1022 C 0.37077 0.72579 0.64247 0.0
C1023 C 0.38141 0.74533 0.60085 0.0
C1024 C 0.39221 0.76327 0.65379 0.0
C1025 C 0.39228 0.76197 0.74551 0.0
C1026 C 0.38459 0.78725 0.3763 0.0
C1027 C 0.37993 0.75065 0.31763 0.0
C1028 C 0.38529 0.78536 0.46763 0.0
C1029 C 0.38114 0.74702 0.50298 0.0
C1030 C 0.3764 0.71056 0.44398 0.0
C1031 C 0.3758 0.71236 0.35278 0.0
H1032 H 0.64776 0.3008 0.29137 0.0
H1033 H 0.61389 0.21156 0.26761 0.0
H1034 H 0.64886 0.29697 0.44912 0.0
H1035 H 0.61445 0.20962 0.42721 0.0
H1036 H 0.62954 0.17601 0.69719 0.0
H1037 H 0.62771 0.18001 0.53865 0.0
H1038 H 0.63782 0.31982 0.58626 0.0
H1039 H 0.63981 0.31537 0.74386 0.0
C1040 C 0.64051 0.28041 0.31992 0.0
C1041 C 0.63084 0.25613 0.26635 0.0
C1042 C 0.64101 0.27869 0.41097 0.0
C1043 C 0.63177 0.25287 0.45168 0.0
C1044 C 0.62186 0.22937 0.39833 0.0
C1045 C 0.6214 0.231 0.30688 0.0
C1046 C 0.63136 0.20752 0.67345 0.0
C1047 C 0.63481 0.24534 0.73299 0.0
C1048 C 0.63025 0.20995 0.58261 0.0
C1049 C 0.63262 0.25028 0.54893 0.0
C1050 C 0.63612 0.28801 0.60901 0.0
C1051 C 0.63727 0.2855 0.69959 0.0
H1052 H 0.37151 0.31033 0.29865 0.0
H1053 H 0.39023 0.18088 0.25806 0.0
H1054 H 0.37053 0.30714 0.45778 0.0
H1055 H 0.38937 0.17756 0.41641 0.0
H1056 H 0.39949 0.20629 0.71022 0.0
H1057 H 0.3995 0.20953 0.55187 0.0
H1058 H 0.36028 0.27093 0.57419 0.0
H1059 H 0.36075 0.26956 0.73445 0.0
C1060 C 0.37525 0.28091 0.32353 0.0
C1061 C 0.3808 0.24567 0.26515 0.0
C1062 C 0.37472 0.27905 0.41501 0.0
C1063 C 0.3799 0.24211 0.45096 0.0
C1064 C 0.38545 0.20691 0.3921 0.0
C1065 C 0.38592 0.20873 0.30086 0.0
C1066 C 0.39103 0.22134 0.68173 0.0
C1067 C 0.38029 0.23849 0.73535 0.0
C1068 C 0.39088 0.22246 0.59023 0.0
C1069 C 0.3799 0.24061 0.54916 0.0
C1070 C 0.36901 0.25723 0.60302 0.0
C1071 C 0.36919 0.25601 0.69483 0.0
H1072 H 0.04278 0.31552 0.29837 0.0
H1073 H 0.04403 0.20477 0.44732 0.0
H1074 H 0.01836 0.31434 0.30114 0.0
H1075 H 0.01956 0.2013 0.44585 0.0
H1076 H 0.97502 0.22295 0.48522 0.0
H1077 H 0.99922 0.23129 0.49625 0.0
H1078 H 0.99997 0.27697 0.24048 0.0
H1079 H 0.97578 0.27283 0.2336 0.0
C1080 C 0.03777 0.29063 0.33111 0.0
C1081 C 0.04527 0.26017 0.37239 0.0
C1082 C 0.02373 0.28962 0.33221 0.0
C1083 C 0.01679 0.25737 0.37288 0.0
C1084 C 0.0244 0.22714 0.41501 0.0
C1085 C 0.03846 0.22883 0.41548 0.0
C1086 C 0.98029 0.23576 0.43214 0.0
C1087 C 0.97327 0.24702 0.35831 0.0
C1088 C 0.99429 0.23981 0.43775 0.0
C1089 C 1.00176 0.25461 0.36911 0.0
C1090 C 0.99471 0.26612 0.29565 0.0
C1091 C 0.98072 0.26287 0.29083 0.0
H1092 H 0.97285 0.74224 0.78975 0.0
H1093 H 0.97236 0.7689 0.51923 0.0
H1094 H 0.99716 0.73975 0.78647 0.0
H1095 H 0.9967 0.7631 0.51384 0.0
H1096 H 0.04099 0.79976 0.56547 0.0
H1097 H 0.01651 0.80062 0.5629 0.0
H1098 H 0.0158 0.69786 0.73303 0.0
H1099 H 0.04022 0.69848 0.73791 0.0
C1100 C 0.97789 0.74745 0.7293 0.0
C1101 C 0.97052 0.75608 0.65497 0.0
C1102 C 0.99191 0.74528 0.72692 0.0
C1103 C 0.99903 0.75108 0.64977 0.0
C1104 C 0.99165 0.75904 0.57492 0.0
C1105 C 0.97762 0.76168 0.57759 0.0
C1106 C 0.03557 0.77717 0.60171 0.0
C1107 C 0.04253 0.74929 0.65236 0.0
C1108 C 0.02151 0.77749 0.60008 0.0
C1109 C 0.01405 0.7495 0.64823 0.0
C1110 C 0.0211 0.72071 0.69682 0.0
C1111 C 0.03514 0.72084 0.69932 0.0
H1112 H 0.54116 0.70762 0.96121 0.0
H1113 H 0.54036 0.80735 0.78548 0.0
H1114 H 0.5167 0.70466 0.95914 0.0
H1115 H 0.51592 0.80625 0.78623 0.0
H1116 H 0.47324 0.7606 0.72638 0.0
H1117 H 0.49751 0.76453 0.73231 0.0
H1118 H 0.49658 0.73981 1.0041 0.0
H1119 H 0.47235 0.73212 0.99572 0.0
C1120 C 0.53571 0.72942 0.92323 0.0
C1121 C 0.54267 0.75752 0.87315 0.0
C1122 C 0.52166 0.72795 0.92225 0.0
C1123 C 0.51418 0.75509 0.8722 0.0
C1124 C 0.52123 0.78401 0.82391 0.0
C1125 C 0.53527 0.78492 0.82382 0.0
C1126 C 0.47818 0.75533 0.78717 0.0
C1127 C 0.47069 0.74572 0.86032 0.0
C1128 C 0.49218 0.75837 0.79111 0.0
C1129 C 0.49917 0.7526 0.86881 0.0
C1130 C 0.49166 0.7438 0.94254 0.0
C1131 C 0.47766 0.74014 0.9382 0.0
H1132 H 0.47143 0.28264 0.0474 0.0
H1133 H 0.47432 0.28173 0.32887 0.0
H1134 H 0.49534 0.26405 0.032 0.0
H1135 H 0.4981 0.26462 0.31424 0.0
H1136 H 0.53872 0.20388 0.26211 0.0
H1137 H 0.51432 0.20909 0.26031 0.0
H1138 H 0.51675 0.30112 0.06877 0.0
H1139 H 0.5412 0.2955 0.07006 0.0
C1140 C 0.47712 0.27787 0.10573 0.0
C1141 C 0.471 0.28397 0.18942 0.0
C1142 C 0.49085 0.26772 0.09711 0.0
C1143 C 0.49871 0.26306 0.17192 0.0
C1144 C 0.4924 0.26747 0.25498 0.0
C1145 C 0.47875 0.27773 0.26355 0.0
C1146 C 0.53405 0.22516 0.21944 0.0
C1147 C 0.54194 0.24967 0.16701 0.0
C1148 C 0.52005 0.22816 0.21837 0.0
C1149 C 0.51353 0.2559 0.1651 0.0
C1150 C 0.5214 0.27907 0.10996 0.0
C1151 C 0.53543 0.27593 0.11081 0.0
loop_
_geom_bond_atom_site_label_1
_geom_bond_atom_site_label_2
_geom_bond_distance
_geom_bond_site_symmetry_2
_ccdc_geom_bond_type
Eu0 N29 2.600 . S
Eu0 N35 2.562 . S
Eu0 O44 2.462 . S
Eu0 O45 2.373 . S
Eu0 O47 2.432 . S
Eu0 O48 2.291 . S
Eu0 O52 2.335 . S
Eu0 O55 2.372 . S
Eu0 C64 2.787 . S
C1 N2 1.365 . S
C1 C4 1.405 . S
C1 C8 1.448 . S
N2 C1 1.365 . S
N2 C5 1.319 . S
N2 Eu11 2.600 . S
C3 C5 1.397 . S
C3 C6 1.367 . S
C3 H23 0.931 . S
C4 C1 1.405 . S
C4 C6 1.403 . S
C4 C10 1.439 . S
C5 N2 1.319 . S
C5 C3 1.397 . S
C5 H16 0.930 . S
C6 C3 1.367 . S
C6 C4 1.403 . S
C6 H27 0.929 . S
C7 C8 1.430 . S
C7 C9 1.387 . S
C7 C13 1.404 . S
C8 C1 1.448 . S
C8 C7 1.430 . S
C8 N12 1.351 . S
C9 C7 1.387 . S
C9 C10 1.374 . S
C9 H24 0.931 . S
C10 C4 1.439 . S
C10 C9 1.374 . S
C10 H25 0.931 . S
Eu11 N2 2.600 . S
Eu11 N12 2.562 . S
Eu11 O46 2.335 . S
Eu11 O49 2.372 . S
Eu11 O50 2.462 . S
Eu11 O51 2.373 . S
Eu11 O53 2.432 . S
Eu11 O54 2.291 . S
Eu11 C75 2.787 . S
N12 C8 1.351 . S
N12 Eu11 2.562 . S
N12 C14 1.325 . S
C13 C7 1.404 . S
C13 C15 1.366 . S
C13 H21 0.930 . S
C14 N12 1.325 . S
C14 C15 1.416 . S
C14 H20 0.929 . S
C15 C13 1.366 . S
C15 C14 1.416 . S
C15 H17 0.930 . S
H16 C5 0.930 . S
H17 C15 0.930 . S
H18 C33 0.930 . S
H19 C40 0.930 . S
H20 C14 0.929 . S
H21 C13 0.930 . S
H22 C36 0.929 . S
H23 C3 0.931 . S
H24 C9 0.931 . S
H25 C10 0.931 . S
H26 C31 0.931 . S
H27 C6 0.929 . S
H28 C39 0.930 . S
N29 Eu0 2.600 . S
N29 C30 1.365 . S
N29 C33 1.319 . S
C30 N29 1.365 . S
C30 C32 1.405 . S
C30 C38 1.448 . S
C31 H26 0.931 . S
C31 C33 1.397 . S
C31 C34 1.367 . S
C32 C30 1.405 . S
C32 C34 1.403 . S
C32 C65 1.439 . S
C33 H18 0.930 . S
C33 N29 1.319 . S
C33 C31 1.397 . S
C34 C31 1.367 . S
C34 C32 1.403 . S
C34 H41 0.929 . S
N35 Eu0 2.562 . S
N35 C36 1.325 . S
N35 C38 1.351 . S
C36 H22 0.929 . S
C36 N35 1.325 . S
C36 C40 1.416 . S
C37 C38 1.430 . S
C37 C39 1.404 . S
C37 C66 1.387 . S
C38 C30 1.448 . S
C38 N35 1.351 . S
C38 C37 1.430 . S
C39 H28 0.930 . S
C39 C37 1.404 . S
C39 C40 1.366 . S
C40 H19 0.930 . S
C40 C36 1.416 . S
C40 C39 1.366 . S
H41 C34 0.929 . S
H42 C65 0.931 . S
H43 C66 0.931 . S
O44 Eu0 2.462 . S
O44 C64 1.252 . S
O45 Eu0 2.373 . S
O45 C56 1.249 . S
O46 Eu11 2.335 . S
O46 C56 1.264 . S
O47 Eu0 2.432 . S
O47 C64 1.268 . S
O48 Eu0 2.291 . S
O48 C63 1.255 . S
O49 Eu11 2.372 . S
O49 C63 1.257 . S
O50 Eu11 2.462 . S
O50 C75 1.252 . S
O51 Eu11 2.373 . S
O51 C67 1.249 . S
O52 Eu0 2.335 . S
O52 C67 1.264 . S
O53 Eu11 2.432 . S
O53 C75 1.268 . S
O54 Eu11 2.291 . S
O54 C74 1.255 . S
O55 Eu0 2.372 . S
O55 C74 1.257 . S
C56 O45 1.249 . S
C56 O46 1.264 . S
C57 C60 1.382 . S
C57 C62 1.390 . S
C57 C64 1.506 . S
C58 C59 1.398 . S
C58 C62 1.392 . S
C59 C58 1.398 . S
C59 C61 1.372 . S
C59 H76 0.931 . S
C60 C57 1.382 . S
C60 C61 1.390 . S
C60 H77 0.931 . S
C61 C59 1.372 . S
C61 C60 1.390 . S
C61 H78 0.929 . S
C62 C57 1.390 . S
C62 C58 1.392 . S
C62 H79 0.930 . S
C63 O48 1.255 . S
C63 O49 1.257 . S
C64 Eu0 2.787 . S
C64 O44 1.252 . S
C64 O47 1.268 . S
C64 C57 1.506 . S
C65 C32 1.439 . S
C65 H42 0.931 . S
C65 C66 1.374 . S
C66 C37 1.387 . S
C66 H43 0.931 . S
C66 C65 1.374 . S
C67 O51 1.249 . S
C67 O52 1.264 . S
C68 C71 1.382 . S
C68 C72 1.390 . S
C68 C75 1.506 . S
C69 C70 1.398 . S
C69 C72 1.392 . S
C70 C69 1.398 . S
C70 C73 1.372 . S
C70 H80 0.931 . S
C71 C68 1.382 . S
C71 C73 1.390 . S
C71 H81 0.931 . S
C72 C68 1.390 . S
C72 C69 1.392 . S
C72 H82 0.930 . S
C73 C70 1.372 . S
C73 C71 1.390 . S
C73 H83 0.929 . S
C74 O54 1.255 . S
C74 O55 1.257 . S
C75 Eu11 2.787 . S
C75 O50 1.252 . S
C75 O53 1.268 . S
C75 C68 1.506 . S
H76 C59 0.931 . S
H77 C60 0.931 . S
H78 C61 0.929 . S
H79 C62 0.930 . S
H80 C70 0.931 . S
H81 C71 0.931 . S
H82 C72 0.930 . S
H83 C73 0.929 . S
Eu84 N113 2.600 . S
Eu84 N119 2.562 . S
Eu84 O128 2.462 . S
Eu84 O129 2.373 . S
Eu84 O131 2.432 . S
Eu84 O132 2.291 . S
Eu84 O136 2.335 . S
Eu84 O139 2.372 . S
Eu84 C148 2.787 . S
C85 N86 1.365 . S
C85 C88 1.405 . S
C85 C92 1.448 . S
N86 C85 1.365 . S
N86 C89 1.319 . S
N86 Eu95 2.600 . S
C87 C89 1.397 . S
C87 C90 1.367 . S
C87 H107 0.931 . S
C88 C85 1.405 . S
C88 C90 1.403 . S
C88 C94 1.439 . S
C89 N86 1.319 . S
C89 C87 1.397 . S
C89 H100 0.930 . S
C90 C87 1.367 . S
C90 C88 1.403 . S
C90 H111 0.929 . S
C91 C92 1.430 . S
C91 C93 1.387 . S
C91 C97 1.404 . S
C92 C85 1.448 . S
C92 C91 1.430 . S
C92 N96 1.351 . S
C93 C91 1.387 . S
C93 C94 1.374 . S
C93 H108 0.931 . S
C94 C88 1.439 . S
C94 C93 1.374 . S
C94 H109 0.931 . S
Eu95 N86 2.600 . S
Eu95 N96 2.562 . S
Eu95 O130 2.335 . S
Eu95 O133 2.372 . S
Eu95 O134 2.462 . S
Eu95 O135 2.373 . S
Eu95 O137 2.432 . S
Eu95 O138 2.291 . S
Eu95 C159 2.787 . S
N96 C92 1.351 . S
N96 Eu95 2.562 . S
N96 C98 1.325 . S
C97 C91 1.404 . S
C97 C99 1.366 . S
C97 H105 0.930 . S
C98 N96 1.325 . S
C98 C99 1.416 . S
C98 H104 0.929 . S
C99 C97 1.366 . S
C99 C98 1.416 . S
C99 H101 0.930 . S
H100 C89 0.930 . S
H101 C99 0.930 . S
H102 C117 0.930 . S
H103 C124 0.930 . S
H104 C98 0.929 . S
H105 C97 0.930 . S
H106 C120 0.929 . S
H107 C87 0.931 . S
H108 C93 0.931 . S
H109 C94 0.931 . S
H110 C115 0.931 . S
H111 C90 0.929 . S
H112 C123 0.930 . S
N113 Eu84 2.600 . S
N113 C114 1.365 . S
N113 C117 1.319 . S
C114 N113 1.365 . S
C114 C116 1.405 . S
C114 C122 1.448 . S
C115 H110 0.931 . S
C115 C117 1.397 . S
C115 C118 1.367 . S
C116 C114 1.405 . S
C116 C118 1.403 . S
C116 C149 1.439 . S
C117 H102 0.930 . S
C117 N113 1.319 . S
C117 C115 1.397 . S
C118 C115 1.367 . S
C118 C116 1.403 . S
C118 H125 0.929 . S
N119 Eu84 2.562 . S
N119 C120 1.325 . S
N119 C122 1.351 . S
C120 H106 0.929 . S
C120 N119 1.325 . S
C120 C124 1.416 . S
C121 C122 1.430 . S
C121 C123 1.404 . S
C121 C150 1.387 . S
C122 C114 1.448 . S
C122 N119 1.351 . S
C122 C121 1.430 . S
C123 H112 0.930 . S
C123 C121 1.404 . S
C123 C124 1.366 . S
C124 H103 0.930 . S
C124 C120 1.416 . S
C124 C123 1.366 . S
H125 C118 0.929 . S
H126 C149 0.931 . S
H127 C150 0.931 . S
O128 Eu84 2.462 . S
O128 C148 1.252 . S
O129 Eu84 2.373 . S
O129 C140 1.249 . S
O130 Eu95 2.335 . S
O130 C140 1.264 . S
O131 Eu84 2.432 . S
O131 C148 1.268 . S
O132 Eu84 2.291 . S
O132 C147 1.255 . S
O133 Eu95 2.372 . S
O133 C147 1.257 . S
O134 Eu95 2.462 . S
O134 C159 1.252 . S
O135 Eu95 2.373 . S
O135 C151 1.249 . S
O136 Eu84 2.335 . S
O136 C151 1.264 . S
O137 Eu95 2.432 . S
O137 C159 1.268 . S
O138 Eu95 2.291 . S
O138 C158 1.255 . S
O139 Eu84 2.372 . S
O139 C158 1.257 . S
C140 O129 1.249 . S
C140 O130 1.264 . S
C141 C144 1.382 . S
C141 C146 1.390 . S
C141 C148 1.506 . S
C142 C143 1.398 . S
C142 C146 1.392 . S
C143 C142 1.398 . S
C143 C145 1.372 . S
C143 H160 0.931 . S
C144 C141 1.382 . S
C144 C145 1.390 . S
C144 H161 0.931 . S
C145 C143 1.372 . S
C145 C144 1.390 . S
C145 H162 0.929 . S
C146 C141 1.390 . S
C146 C142 1.392 . S
C146 H163 0.930 . S
C147 O132 1.255 . S
C147 O133 1.257 . S
C148 Eu84 2.787 . S
C148 O128 1.252 . S
C148 O131 1.268 . S
C148 C141 1.506 . S
C149 C116 1.439 . S
C149 H126 0.931 . S
C149 C150 1.374 . S
C150 C121 1.387 . S
C150 H127 0.931 . S
C150 C149 1.374 . S
C151 O135 1.249 . S
C151 O136 1.264 . S
C152 C155 1.382 . S
C152 C156 1.390 . S
C152 C159 1.506 . S
C153 C154 1.398 . S
C153 C156 1.392 . S
C154 C153 1.398 . S
C154 C157 1.372 . S
C154 H164 0.931 . S
C155 C152 1.382 . S
C155 C157 1.390 . S
C155 H165 0.931 . S
C156 C152 1.390 . S
C156 C153 1.392 . S
C156 H166 0.930 . S
C157 C154 1.372 . S
C157 C155 1.390 . S
C157 H167 0.929 . S
C158 O138 1.255 . S
C158 O139 1.257 . S
C159 Eu95 2.787 . S
C159 O134 1.252 . S
C159 O137 1.268 . S
C159 C152 1.506 . S
H160 C143 0.931 . S
H161 C144 0.931 . S
H162 C145 0.929 . S
H163 C146 0.930 . S
H164 C154 0.931 . S
H165 C155 0.931 . S
H166 C156 0.930 . S
H167 C157 0.929 . S
Eu168 N197 2.600 . S
Eu168 N203 2.562 . S
Eu168 O212 2.462 . S
Eu168 O213 2.373 . S
Eu168 O215 2.432 . S
Eu168 O216 2.291 . S
Eu168 O220 2.335 . S
Eu168 O223 2.372 . S
Eu168 C232 2.787 . S
C169 N170 1.365 . S
C169 C172 1.405 . S
C169 C176 1.448 . S
N170 C169 1.365 . S
N170 C173 1.319 . S
N170 Eu179 2.600 . S
C171 C173 1.397 . S
C171 C174 1.367 . S
C171 H191 0.931 . S
C172 C169 1.405 . S
C172 C174 1.403 . S
C172 C178 1.439 . S
C173 N170 1.319 . S
C173 C171 1.397 . S
C173 H184 0.930 . S
C174 C171 1.367 . S
C174 C172 1.403 . S
C174 H195 0.929 . S
C175 C176 1.430 . S
C175 C177 1.387 . S
C175 C181 1.404 . S
C176 C169 1.448 . S
C176 C175 1.430 . S
C176 N180 1.351 . S
C177 C175 1.387 . S
C177 C178 1.374 . S
C177 H192 0.931 . S
C178 C172 1.439 . S
C178 C177 1.374 . S
C178 H193 0.931 . S
Eu179 N170 2.600 . S
Eu179 N180 2.562 . S
Eu179 O214 2.335 . S
Eu179 O217 2.372 . S
Eu179 O218 2.462 . S
Eu179 O219 2.373 . S
Eu179 O221 2.432 . S
Eu179 O222 2.291 . S
Eu179 C243 2.787 . S
N180 C176 1.351 . S
N180 Eu179 2.562 . S
N180 C182 1.325 . S
C181 C175 1.404 . S
C181 C183 1.366 . S
C181 H189 0.930 . S
C182 N180 1.325 . S
C182 C183 1.416 . S
C182 H188 0.929 . S
C183 C181 1.366 . S
C183 C182 1.416 . S
C183 H185 0.930 . S
H184 C173 0.930 . S
H185 C183 0.930 . S
H186 C201 0.930 . S
H187 C208 0.930 . S
H188 C182 0.929 . S
H189 C181 0.930 . S
H190 C204 0.929 . S
H191 C171 0.931 . S
H192 C177 0.931 . S
H193 C178 0.931 . S
H194 C199 0.931 . S
H195 C174 0.929 . S
H196 C207 0.930 . S
N197 Eu168 2.600 . S
N197 C198 1.365 . S
N197 C201 1.319 . S
C198 N197 1.365 . S
C198 C200 1.405 . S
C198 C206 1.448 . S
C199 H194 0.931 . S
C199 C201 1.397 . S
C199 C202 1.367 . S
C200 C198 1.405 . S
C200 C202 1.403 . S
C200 C233 1.439 . S
C201 H186 0.930 . S
C201 N197 1.319 . S
C201 C199 1.397 . S
C202 C199 1.367 . S
C202 C200 1.403 . S
C202 H209 0.929 . S
N203 Eu168 2.562 . S
N203 C204 1.325 . S
N203 C206 1.351 . S
C204 H190 0.929 . S
C204 N203 1.325 . S
C204 C208 1.416 . S
C205 C206 1.430 . S
C205 C207 1.404 . S
C205 C234 1.387 . S
C206 C198 1.448 . S
C206 N203 1.351 . S
C206 C205 1.430 . S
C207 H196 0.930 . S
C207 C205 1.404 . S
C207 C208 1.366 . S
C208 H187 0.930 . S
C208 C204 1.416 . S
C208 C207 1.366 . S
H209 C202 0.929 . S
H210 C233 0.931 . S
H211 C234 0.931 . S
O212 Eu168 2.462 . S
O212 C232 1.252 . S
O213 Eu168 2.373 . S
O213 C224 1.249 . S
O214 Eu179 2.335 . S
O214 C224 1.264 . S
O215 Eu168 2.432 . S
O215 C232 1.268 . S
O216 Eu168 2.291 . S
O216 C231 1.255 . S
O217 Eu179 2.372 . S
O217 C231 1.257 . S
O218 Eu179 2.462 . S
O218 C243 1.252 . S
O219 Eu179 2.373 . S
O219 C235 1.249 . S
O220 Eu168 2.335 . S
O220 C235 1.264 . S
O221 Eu179 2.432 . S
O221 C243 1.268 . S
O222 Eu179 2.291 . S
O222 C242 1.255 . S
O223 Eu168 2.372 . S
O223 C242 1.257 . S
C224 O213 1.249 . S
C224 O214 1.264 . S
C225 C228 1.382 . S
C225 C230 1.390 . S
C225 C232 1.506 . S
C226 C227 1.398 . S
C226 C230 1.392 . S
C227 C226 1.398 . S
C227 C229 1.372 . S
C227 H244 0.931 . S
C228 C225 1.382 . S
C228 C229 1.390 . S
C228 H245 0.931 . S
C229 C227 1.372 . S
C229 C228 1.390 . S
C229 H246 0.929 . S
C230 C225 1.390 . S
C230 C226 1.392 . S
C230 H247 0.930 . S
C231 O216 1.255 . S
C231 O217 1.257 . S
C232 Eu168 2.787 . S
C232 O212 1.252 . S
C232 O215 1.268 . S
C232 C225 1.506 . S
C233 C200 1.439 . S
C233 H210 0.931 . S
C233 C234 1.374 . S
C234 C205 1.387 . S
C234 H211 0.931 . S
C234 C233 1.374 . S
C235 O219 1.249 . S
C235 O220 1.264 . S
C236 C239 1.382 . S
C236 C240 1.390 . S
C236 C243 1.506 . S
C237 C238 1.398 . S
C237 C240 1.392 . S
C238 C237 1.398 . S
C238 C241 1.372 . S
C238 H248 0.931 . S
C239 C236 1.382 . S
C239 C241 1.390 . S
C239 H249 0.931 . S
C240 C236 1.390 . S
C240 C237 1.392 . S
C240 H250 0.930 . S
C241 C238 1.372 . S
C241 C239 1.390 . S
C241 H251 0.929 . S
C242 O222 1.255 . S
C242 O223 1.257 . S
C243 Eu179 2.787 . S
C243 O218 1.252 . S
C243 O221 1.268 . S
C243 C236 1.506 . S
H244 C227 0.931 . S
H245 C228 0.931 . S
H246 C229 0.929 . S
H247 C230 0.930 . S
H248 C238 0.931 . S
H249 C239 0.931 . S
H250 C240 0.930 . S
H251 C241 0.929 . S
Eu252 N281 2.600 . S
Eu252 N287 2.562 . S
Eu252 O296 2.462 . S
Eu252 O297 2.373 . S
Eu252 O299 2.432 . S
Eu252 O300 2.291 . S
Eu252 O304 2.335 . S
Eu252 O307 2.372 . S
Eu252 C316 2.787 . S
C253 N254 1.365 . S
C253 C256 1.405 . S
C253 C260 1.448 . S
N254 C253 1.365 . S
N254 C257 1.319 . S
N254 Eu263 2.600 . S
C255 C257 1.397 . S
C255 C258 1.367 . S
C255 H275 0.931 . S
C256 C253 1.405 . S
C256 C258 1.403 . S
C256 C262 1.439 . S
C257 N254 1.319 . S
C257 C255 1.397 . S
C257 H268 0.930 . S
C258 C255 1.367 . S
C258 C256 1.403 . S
C258 H279 0.929 . S
C259 C260 1.430 . S
C259 C261 1.387 . S
C259 C265 1.404 . S
C260 C253 1.448 . S
C260 C259 1.430 . S
C260 N264 1.351 . S
C261 C259 1.387 . S
C261 C262 1.374 . S
C261 H276 0.931 . S
C262 C256 1.439 . S
C262 C261 1.374 . S
C262 H277 0.931 . S
Eu263 N254 2.600 . S
Eu263 N264 2.562 . S
Eu263 O298 2.335 . S
Eu263 O301 2.372 . S
Eu263 O302 2.462 . S
Eu263 O303 2.373 . S
Eu263 O305 2.432 . S
Eu263 O306 2.291 . S
Eu263 C327 2.787 . S
N264 C260 1.351 . S
N264 Eu263 2.562 . S
N264 C266 1.325 . S
C265 C259 1.404 . S
C265 C267 1.366 . S
C265 H273 0.930 . S
C266 N264 1.325 . S
C266 C267 1.416 . S
C266 H272 0.929 . S
C267 C265 1.366 . S
C267 C266 1.416 . S
C267 H269 0.930 . S
H268 C257 0.930 . S
H269 C267 0.930 . S
H270 C285 0.930 . S
H271 C292 0.930 . S
H272 C266 0.929 . S
H273 C265 0.930 . S
H274 C288 0.929 . S
H275 C255 0.931 . S
H276 C261 0.931 . S
H277 C262 0.931 . S
H278 C283 0.931 . S
H279 C258 0.929 . S
H280 C291 0.930 . S
N281 Eu252 2.600 . S
N281 C282 1.365 . S
N281 C285 1.319 . S
C282 N281 1.365 . S
C282 C284 1.405 . S
C282 C290 1.448 . S
C283 H278 0.931 . S
C283 C285 1.397 . S
C283 C286 1.367 . S
C284 C282 1.405 . S
C284 C286 1.403 . S
C284 C317 1.439 . S
C285 H270 0.930 . S
C285 N281 1.319 . S
C285 C283 1.397 . S
C286 C283 1.367 . S
C286 C284 1.403 . S
C286 H293 0.929 . S
N287 Eu252 2.562 . S
N287 C288 1.325 . S
N287 C290 1.351 . S
C288 H274 0.929 . S
C288 N287 1.325 . S
C288 C292 1.416 . S
C289 C290 1.430 . S
C289 C291 1.404 . S
C289 C318 1.387 . S
C290 C282 1.448 . S
C290 N287 1.351 . S
C290 C289 1.430 . S
C291 H280 0.930 . S
C291 C289 1.404 . S
C291 C292 1.366 . S
C292 H271 0.930 . S
C292 C288 1.416 . S
C292 C291 1.366 . S
H293 C286 0.929 . S
H294 C317 0.931 . S
H295 C318 0.931 . S
O296 Eu252 2.462 . S
O296 C316 1.252 . S
O297 Eu252 2.373 . S
O297 C308 1.249 . S
O298 Eu263 2.335 . S
O298 C308 1.264 . S
O299 Eu252 2.432 . S
O299 C316 1.268 . S
O300 Eu252 2.291 . S
O300 C315 1.255 . S
O301 Eu263 2.372 . S
O301 C315 1.257 . S
O302 Eu263 2.462 . S
O302 C327 1.252 . S
O303 Eu263 2.373 . S
O303 C319 1.249 . S
O304 Eu252 2.335 . S
O304 C319 1.264 . S
O305 Eu263 2.432 . S
O305 C327 1.268 . S
O306 Eu263 2.291 . S
O306 C326 1.255 . S
O307 Eu252 2.372 . S
O307 C326 1.257 . S
C308 O297 1.249 . S
C308 O298 1.264 . S
C309 C312 1.382 . S
C309 C314 1.390 . S
C309 C316 1.506 . S
C310 C311 1.398 . S
C310 C314 1.392 . S
C311 C310 1.398 . S
C311 C313 1.372 . S
C311 H328 0.931 . S
C312 C309 1.382 . S
C312 C313 1.390 . S
C312 H329 0.931 . S
C313 C311 1.372 . S
C313 C312 1.390 . S
C313 H330 0.929 . S
C314 C309 1.390 . S
C314 C310 1.392 . S
C314 H331 0.930 . S
C315 O300 1.255 . S
C315 O301 1.257 . S
C316 Eu252 2.787 . S
C316 O296 1.252 . S
C316 O299 1.268 . S
C316 C309 1.506 . S
C317 C284 1.439 . S
C317 H294 0.931 . S
C317 C318 1.374 . S
C318 C289 1.387 . S
C318 H295 0.931 . S
C318 C317 1.374 . S
C319 O303 1.249 . S
C319 O304 1.264 . S
C320 C323 1.382 . S
C320 C324 1.390 . S
C320 C327 1.506 . S
C321 C322 1.398 . S
C321 C324 1.392 . S
C322 C321 1.398 . S
C322 C325 1.372 . S
C322 H332 0.931 . S
C323 C320 1.382 . S
C323 C325 1.390 . S
C323 H333 0.931 . S
C324 C320 1.390 . S
C324 C321 1.392 . S
C324 H334 0.930 . S
C325 C322 1.372 . S
C325 C323 1.390 . S
C325 H335 0.929 . S
C326 O306 1.255 . S
C326 O307 1.257 . S
C327 Eu263 2.787 . S
C327 O302 1.252 . S
C327 O305 1.268 . S
C327 C320 1.506 . S
H328 C311 0.931 . S
H329 C312 0.931 . S
H330 C313 0.929 . S
H331 C314 0.930 . S
H332 C322 0.931 . S
H333 C323 0.931 . S
H334 C324 0.930 . S
H335 C325 0.929 . S
Eu336 N365 2.600 . S
Eu336 N371 2.562 . S
Eu336 O380 2.462 1_556 S
Eu336 O381 2.373 . S
Eu336 O383 2.432 1_556 S
Eu336 O384 2.291 . S
Eu336 O388 2.335 1_556 S
Eu336 O391 2.372 1_556 S
Eu336 C400 2.787 1_556 S
C337 N338 1.365 . S
C337 C340 1.405 . S
C337 C344 1.448 . S
N338 C337 1.365 . S
N338 C341 1.319 . S
N338 Eu347 2.600 . S
C339 C341 1.397 . S
C339 C342 1.367 . S
C339 H359 0.931 . S
C340 C337 1.405 . S
C340 C342 1.403 . S
C340 C346 1.439 . S
C341 N338 1.319 . S
C341 C339 1.397 . S
C341 H352 0.930 . S
C342 C339 1.367 . S
C342 C340 1.403 . S
C342 H363 0.929 . S
C343 C344 1.430 . S
C343 C345 1.387 . S
C343 C349 1.404 . S
C344 C337 1.448 . S
C344 C343 1.430 . S
C344 N348 1.351 . S
C345 C343 1.387 . S
C345 C346 1.374 . S
C345 H360 0.931 . S
C346 C340 1.439 . S
C346 C345 1.374 . S
C346 H361 0.931 . S
Eu347 N338 2.600 . S
Eu347 N348 2.562 . S
Eu347 O382 2.335 1_554 S
Eu347 O385 2.372 1_554 S
Eu347 O386 2.462 1_554 S
Eu347 O387 2.373 . S
Eu347 O389 2.432 1_554 S
Eu347 O390 2.291 . S
Eu347 C411 2.787 1_554 S
N348 C344 1.351 . S
N348 Eu347 2.562 . S
N348 C350 1.325 . S
C349 C343 1.404 . S
C349 C351 1.366 . S
C349 H357 0.930 . S
C350 N348 1.325 . S
C350 C351 1.416 . S
C350 H356 0.929 . S
C351 C349 1.366 . S
C351 C350 1.416 . S
C351 H353 0.930 . S
H352 C341 0.930 . S
H353 C351 0.930 . S
H354 C369 0.930 . S
H355 C376 0.930 . S
H356 C350 0.929 . S
H357 C349 0.930 . S
H358 C372 0.929 . S
H359 C339 0.931 . S
H360 C345 0.931 . S
H361 C346 0.931 . S
H362 C367 0.931 . S
H363 C342 0.929 . S
H364 C375 0.930 . S
N365 Eu336 2.600 . S
N365 C366 1.365 . S
N365 C369 1.319 . S
C366 N365 1.365 . S
C366 C368 1.405 . S
C366 C374 1.448 . S
C367 H362 0.931 . S
C367 C369 1.397 . S
C367 C370 1.367 . S
C368 C366 1.405 . S
C368 C370 1.403 . S
C368 C401 1.439 . S
C369 H354 0.930 . S
C369 N365 1.319 . S
C369 C367 1.397 . S
C370 C367 1.367 . S
C370 C368 1.403 . S
C370 H377 0.929 . S
N371 Eu336 2.562 . S
N371 C372 1.325 . S
N371 C374 1.351 . S
C372 H358 0.929 . S
C372 N371 1.325 . S
C372 C376 1.416 . S
C373 C374 1.430 . S
C373 C375 1.404 . S
C373 C402 1.387 . S
C374 C366 1.448 . S
C374 N371 1.351 . S
C374 C373 1.430 . S
C375 H364 0.930 . S
C375 C373 1.404 . S
C375 C376 1.366 . S
C376 H355 0.930 . S
C376 C372 1.416 . S
C376 C375 1.366 . S
H377 C370 0.929 . S
H378 C401 0.931 . S
H379 C402 0.931 . S
O380 Eu336 2.462 1_554 S
O380 C400 1.252 . S
O381 Eu336 2.373 . S
O381 C392 1.249 . S
O382 Eu347 2.335 1_556 S
O382 C392 1.264 . S
O383 Eu336 2.432 1_554 S
O383 C400 1.268 . S
O384 Eu336 2.291 . S
O384 C399 1.255 . S
O385 Eu347 2.372 1_556 S
O385 C399 1.257 . S
O386 Eu347 2.462 1_556 S
O386 C411 1.252 . S
O387 Eu347 2.373 . S
O387 C403 1.249 . S
O388 Eu336 2.335 1_554 S
O388 C403 1.264 . S
O389 Eu347 2.432 1_556 S
O389 C411 1.268 . S
O390 Eu347 2.291 . S
O390 C410 1.255 . S
O391 Eu336 2.372 1_554 S
O391 C410 1.257 . S
C392 O381 1.249 . S
C392 O382 1.264 . S
C393 C396 1.382 . S
C393 C398 1.390 . S
C393 C400 1.506 . S
C394 C395 1.398 . S
C394 C398 1.392 . S
C395 C394 1.398 . S
C395 C397 1.372 . S
C395 H412 0.931 . S
C396 C393 1.382 . S
C396 C397 1.390 . S
C396 H413 0.931 . S
C397 C395 1.372 . S
C397 C396 1.390 . S
C397 H414 0.929 . S
C398 C393 1.390 . S
C398 C394 1.392 . S
C398 H415 0.930 . S
C399 O384 1.255 . S
C399 O385 1.257 . S
C400 Eu336 2.787 1_554 S
C400 O380 1.252 . S
C400 O383 1.268 . S
C400 C393 1.506 . S
C401 C368 1.439 . S
C401 H378 0.931 . S
C401 C402 1.374 . S
C402 C373 1.387 . S
C402 H379 0.931 . S
C402 C401 1.374 . S
C403 O387 1.249 . S
C403 O388 1.264 . S
C404 C407 1.382 . S
C404 C408 1.390 . S
C404 C411 1.506 . S
C405 C406 1.398 . S
C405 C408 1.392 . S
C406 C405 1.398 . S
C406 C409 1.372 . S
C406 H416 0.931 . S
C407 C404 1.382 . S
C407 C409 1.390 . S
C407 H417 0.931 . S
C408 C404 1.390 . S
C408 C405 1.392 . S
C408 H418 0.930 . S
C409 C406 1.372 . S
C409 C407 1.390 . S
C409 H419 0.929 . S
C410 O390 1.255 . S
C410 O391 1.257 . S
C411 Eu347 2.787 1_556 S
C411 O386 1.252 . S
C411 O389 1.268 . S
C411 C404 1.506 . S
H412 C395 0.931 . S
H413 C396 0.931 . S
H414 C397 0.929 . S
H415 C398 0.930 . S
H416 C406 0.931 . S
H417 C407 0.931 . S
H418 C408 0.930 . S
H419 C409 0.929 . S
Eu420 N449 2.600 . S
Eu420 N455 2.562 . S
Eu420 O464 2.462 1_554 S
Eu420 O465 2.373 . S
Eu420 O467 2.432 1_554 S
Eu420 O468 2.291 . S
Eu420 O472 2.335 1_554 S
Eu420 O475 2.372 1_554 S
Eu420 C484 2.787 1_554 S
C421 N422 1.365 . S
C421 C424 1.405 . S
C421 C428 1.448 . S
N422 C421 1.365 . S
N422 C425 1.319 . S
N422 Eu431 2.600 . S
C423 C425 1.397 . S
C423 C426 1.367 . S
C423 H443 0.931 . S
C424 C421 1.405 . S
C424 C426 1.403 . S
C424 C430 1.439 . S
C425 N422 1.319 . S
C425 C423 1.397 . S
C425 H436 0.930 . S
C426 C423 1.367 . S
C426 C424 1.403 . S
C426 H447 0.929 . S
C427 C428 1.430 . S
C427 C429 1.387 . S
C427 C433 1.404 . S
C428 C421 1.448 . S
C428 C427 1.430 . S
C428 N432 1.351 . S
C429 C427 1.387 . S
C429 C430 1.374 . S
C429 H444 0.931 . S
C430 C424 1.439 . S
C430 C429 1.374 . S
C430 H445 0.931 . S
Eu431 N422 2.600 . S
Eu431 N432 2.562 . S
Eu431 O466 2.335 1_556 S
Eu431 O469 2.372 1_556 S
Eu431 O470 2.462 1_556 S
Eu431 O471 2.373 . S
Eu431 O473 2.432 1_556 S
Eu431 O474 2.291 . S
Eu431 C495 2.787 1_556 S
N432 C428 1.351 . S
N432 Eu431 2.562 . S
N432 C434 1.325 . S
C433 C427 1.404 . S
C433 C435 1.366 . S
C433 H441 0.930 . S
C434 N432 1.325 . S
C434 C435 1.416 . S
C434 H440 0.929 . S
C435 C433 1.366 . S
C435 C434 1.416 . S
C435 H437 0.930 . S
H436 C425 0.930 . S
H437 C435 0.930 . S
H438 C453 0.930 . S
H439 C460 0.930 . S
H440 C434 0.929 . S
H441 C433 0.930 . S
H442 C456 0.929 . S
H443 C423 0.931 . S
H444 C429 0.931 . S
H445 C430 0.931 . S
H446 C451 0.931 . S
H447 C426 0.929 . S
H448 C459 0.930 . S
N449 Eu420 2.600 . S
N449 C450 1.365 . S
N449 C453 1.319 . S
C450 N449 1.365 . S
C450 C452 1.405 . S
C450 C458 1.448 . S
C451 H446 0.931 . S
C451 C453 1.397 . S
C451 C454 1.367 . S
C452 C450 1.405 . S
C452 C454 1.403 . S
C452 C485 1.439 . S
C453 H438 0.930 . S
C453 N449 1.319 . S
C453 C451 1.397 . S
C454 C451 1.367 . S
C454 C452 1.403 . S
C454 H461 0.929 . S
N455 Eu420 2.562 . S
N455 C456 1.325 . S
N455 C458 1.351 . S
C456 H442 0.929 . S
C456 N455 1.325 . S
C456 C460 1.416 . S
C457 C458 1.430 . S
C457 C459 1.404 . S
C457 C486 1.387 . S
C458 C450 1.448 . S
C458 N455 1.351 . S
C458 C457 1.430 . S
C459 H448 0.930 . S
C459 C457 1.404 . S
C459 C460 1.366 . S
C460 H439 0.930 . S
C460 C456 1.416 . S
C460 C459 1.366 . S
H461 C454 0.929 . S
H462 C485 0.931 . S
H463 C486 0.931 . S
O464 Eu420 2.462 1_556 S
O464 C484 1.252 . S
O465 Eu420 2.373 . S
O465 C476 1.249 . S
O466 Eu431 2.335 1_554 S
O466 C476 1.264 . S
O467 Eu420 2.432 1_556 S
O467 C484 1.268 . S
O468 Eu420 2.291 . S
O468 C483 1.255 . S
O469 Eu431 2.372 1_554 S
O469 C483 1.257 . S
O470 Eu431 2.462 1_554 S
O470 C495 1.252 . S
O471 Eu431 2.373 . S
O471 C487 1.249 . S
O472 Eu420 2.335 1_556 S
O472 C487 1.264 . S
O473 Eu431 2.432 1_554 S
O473 C495 1.268 . S
O474 Eu431 2.291 . S
O474 C494 1.255 . S
O475 Eu420 2.372 1_556 S
O475 C494 1.257 . S
C476 O465 1.249 . S
C476 O466 1.264 . S
C477 C480 1.382 . S
C477 C482 1.390 . S
C477 C484 1.506 . S
C478 C479 1.398 . S
C478 C482 1.392 . S
C479 C478 1.398 . S
C479 C481 1.372 . S
C479 H496 0.931 . S
C480 C477 1.382 . S
C480 C481 1.390 . S
C480 H497 0.931 . S
C481 C479 1.372 . S
C481 C480 1.390 . S
C481 H498 0.929 . S
C482 C477 1.390 . S
C482 C478 1.392 . S
C482 H499 0.930 . S
C483 O468 1.255 . S
C483 O469 1.257 . S
C484 Eu420 2.787 1_556 S
C484 O464 1.252 . S
C484 O467 1.268 . S
C484 C477 1.506 . S
C485 C452 1.439 . S
C485 H462 0.931 . S
C485 C486 1.374 . S
C486 C457 1.387 . S
C486 H463 0.931 . S
C486 C485 1.374 . S
C487 O471 1.249 . S
C487 O472 1.264 . S
C488 C491 1.382 . S
C488 C492 1.390 . S
C488 C495 1.506 . S
C489 C490 1.398 . S
C489 C492 1.392 . S
C490 C489 1.398 . S
C490 C493 1.372 . S
C490 H500 0.931 . S
C491 C488 1.382 . S
C491 C493 1.390 . S
C491 H501 0.931 . S
C492 C488 1.390 . S
C492 C489 1.392 . S
C492 H502 0.930 . S
C493 C490 1.372 . S
C493 C491 1.390 . S
C493 H503 0.929 . S
C494 O474 1.255 . S
C494 O475 1.257 . S
C495 Eu431 2.787 1_554 S
C495 O470 1.252 . S
C495 O473 1.268 . S
C495 C488 1.506 . S
H496 C479 0.931 . S
H497 C480 0.931 . S
H498 C481 0.929 . S
H499 C482 0.930 . S
H500 C490 0.931 . S
H501 C491 0.931 . S
H502 C492 0.930 . S
H503 C493 0.929 . S
Eu504 N533 2.600 . S
Eu504 N539 2.562 . S
Eu504 O548 2.462 1_554 S
Eu504 O549 2.373 . S
Eu504 O551 2.432 1_554 S
Eu504 O552 2.291 . S
Eu504 O556 2.335 1_554 S
Eu504 O559 2.372 1_554 S
Eu504 C568 2.787 1_554 S
C505 N506 1.365 . S
C505 C508 1.405 . S
C505 C512 1.448 . S
N506 C505 1.365 . S
N506 C509 1.319 . S
N506 Eu515 2.600 . S
C507 C509 1.397 . S
C507 C510 1.367 . S
C507 H527 0.931 . S
C508 C505 1.405 . S
C508 C510 1.403 . S
C508 C514 1.439 . S
C509 N506 1.319 . S
C509 C507 1.397 . S
C509 H520 0.930 . S
C510 C507 1.367 . S
C510 C508 1.403 . S
C510 H531 0.929 . S
C511 C512 1.430 . S
C511 C513 1.387 . S
C511 C517 1.404 . S
C512 C505 1.448 . S
C512 C511 1.430 . S
C512 N516 1.351 . S
C513 C511 1.387 . S
C513 C514 1.374 . S
C513 H528 0.931 . S
C514 C508 1.439 . S
C514 C513 1.374 . S
C514 H529 0.931 . S
Eu515 N506 2.600 . S
Eu515 N516 2.562 . S
Eu515 O550 2.335 1_556 S
Eu515 O553 2.372 1_556 S
Eu515 O554 2.462 1_556 S
Eu515 O555 2.373 . S
Eu515 O557 2.432 1_556 S
Eu515 O558 2.291 . S
Eu515 C579 2.787 1_556 S
N516 C512 1.351 . S
N516 Eu515 2.562 . S
N516 C518 1.325 . S
C517 C511 1.404 . S
C517 C519 1.366 . S
C517 H525 0.930 . S
C518 N516 1.325 . S
C518 C519 1.416 . S
C518 H524 0.929 . S
C519 C517 1.366 . S
C519 C518 1.416 . S
C519 H521 0.930 . S
H520 C509 0.930 . S
H521 C519 0.930 . S
H522 C537 0.930 . S
H523 C544 0.930 . S
H524 C518 0.929 . S
H525 C517 0.930 . S
H526 C540 0.929 . S
H527 C507 0.931 . S
H528 C513 0.931 . S
H529 C514 0.931 . S
H530 C535 0.931 . S
H531 C510 0.929 . S
H532 C543 0.930 . S
N533 Eu504 2.600 . S
N533 C534 1.365 . S
N533 C537 1.319 . S
C534 N533 1.365 . S
C534 C536 1.405 . S
C534 C542 1.448 . S
C535 H530 0.931 . S
C535 C537 1.397 . S
C535 C538 1.367 . S
C536 C534 1.405 . S
C536 C538 1.403 . S
C536 C569 1.439 . S
C537 H522 0.930 . S
C537 N533 1.319 . S
C537 C535 1.397 . S
C538 C535 1.367 . S
C538 C536 1.403 . S
C538 H545 0.929 . S
N539 Eu504 2.562 . S
N539 C540 1.325 . S
N539 C542 1.351 . S
C540 H526 0.929 . S
C540 N539 1.325 . S
C540 C544 1.416 . S
C541 C542 1.430 . S
C541 C543 1.404 . S
C541 C570 1.387 . S
C542 C534 1.448 . S
C542 N539 1.351 . S
C542 C541 1.430 . S
C543 H532 0.930 . S
C543 C541 1.404 . S
C543 C544 1.366 . S
C544 H523 0.930 . S
C544 C540 1.416 . S
C544 C543 1.366 . S
H545 C538 0.929 . S
H546 C569 0.931 . S
H547 C570 0.931 . S
O548 Eu504 2.462 1_556 S
O548 C568 1.252 . S
O549 Eu504 2.373 . S
O549 C560 1.249 . S
O550 Eu515 2.335 1_554 S
O550 C560 1.264 . S
O551 Eu504 2.432 1_556 S
O551 C568 1.268 . S
O552 Eu504 2.291 . S
O552 C567 1.255 . S
O553 Eu515 2.372 1_554 S
O553 C567 1.257 . S
O554 Eu515 2.462 1_554 S
O554 C579 1.252 . S
O555 Eu515 2.373 . S
O555 C571 1.249 . S
O556 Eu504 2.335 1_556 S
O556 C571 1.264 . S
O557 Eu515 2.432 1_554 S
O557 C579 1.268 . S
O558 Eu515 2.291 . S
O558 C578 1.255 . S
O559 Eu504 2.372 1_556 S
O559 C578 1.257 . S
C560 O549 1.249 . S
C560 O550 1.264 . S
C561 C564 1.382 . S
C561 C566 1.390 . S
C561 C568 1.506 . S
C562 C563 1.398 . S
C562 C566 1.392 . S
C563 C562 1.398 . S
C563 C565 1.372 . S
C563 H580 0.931 . S
C564 C561 1.382 . S
C564 C565 1.390 . S
C564 H581 0.931 . S
C565 C563 1.372 . S
C565 C564 1.390 . S
C565 H582 0.929 . S
C566 C561 1.390 . S
C566 C562 1.392 . S
C566 H583 0.930 . S
C567 O552 1.255 . S
C567 O553 1.257 . S
C568 Eu504 2.787 1_556 S
C568 O548 1.252 . S
C568 O551 1.268 . S
C568 C561 1.506 . S
C569 C536 1.439 . S
C569 H546 0.931 . S
C569 C570 1.374 . S
C570 C541 1.387 . S
C570 H547 0.931 . S
C570 C569 1.374 . S
C571 O555 1.249 . S
C571 O556 1.264 . S
C572 C575 1.382 . S
C572 C576 1.390 . S
C572 C579 1.506 . S
C573 C574 1.398 . S
C573 C576 1.392 . S
C574 C573 1.398 . S
C574 C577 1.372 . S
C574 H584 0.931 . S
C575 C572 1.382 . S
C575 C577 1.390 . S
C575 H585 0.931 . S
C576 C572 1.390 . S
C576 C573 1.392 . S
C576 H586 0.930 . S
C577 C574 1.372 . S
C577 C575 1.390 . S
C577 H587 0.929 . S
C578 O558 1.255 . S
C578 O559 1.257 . S
C579 Eu515 2.787 1_554 S
C579 O554 1.252 . S
C579 O557 1.268 . S
C579 C572 1.506 . S
H580 C563 0.931 . S
H581 C564 0.931 . S
H582 C565 0.929 . S
H583 C566 0.930 . S
H584 C574 0.931 . S
H585 C575 0.931 . S
H586 C576 0.930 . S
H587 C577 0.929 . S
Eu588 N617 2.600 . S
Eu588 N623 2.562 . S
Eu588 O632 2.462 1_556 S
Eu588 O633 2.373 . S
Eu588 O635 2.432 1_556 S
Eu588 O636 2.291 . S
Eu588 O640 2.335 1_556 S
Eu588 O643 2.372 1_556 S
Eu588 C652 2.787 1_556 S
C589 N590 1.365 . S
C589 C592 1.405 . S
C589 C596 1.448 . S
N590 C589 1.365 . S
N590 C593 1.319 . S
N590 Eu599 2.600 . S
C591 C593 1.397 . S
C591 C594 1.367 . S
C591 H611 0.931 . S
C592 C589 1.405 . S
C592 C594 1.403 . S
C592 C598 1.439 . S
C593 N590 1.319 . S
C593 C591 1.397 . S
C593 H604 0.930 . S
C594 C591 1.367 . S
C594 C592 1.403 . S
C594 H615 0.929 . S
C595 C596 1.430 . S
C595 C597 1.387 . S
C595 C601 1.404 . S
C596 C589 1.448 . S
C596 C595 1.430 . S
C596 N600 1.351 . S
C597 C595 1.387 . S
C597 C598 1.374 . S
C597 H612 0.931 . S
C598 C592 1.439 . S
C598 C597 1.374 . S
C598 H613 0.931 . S
Eu599 N590 2.600 . S
Eu599 N600 2.562 . S
Eu599 O634 2.335 1_554 S
Eu599 O637 2.372 1_554 S
Eu599 O638 2.462 1_554 S
Eu599 O639 2.373 . S
Eu599 O641 2.432 1_554 S
Eu599 O642 2.291 . S
Eu599 C663 2.787 1_554 S
N600 C596 1.351 . S
N600 Eu599 2.562 . S
N600 C602 1.325 . S
C601 C595 1.404 . S
C601 C603 1.366 . S
C601 H609 0.930 . S
C602 N600 1.325 . S
C602 C603 1.416 . S
C602 H608 0.929 . S
C603 C601 1.366 . S
C603 C602 1.416 . S
C603 H605 0.930 . S
H604 C593 0.930 . S
H605 C603 0.930 . S
H606 C621 0.930 . S
H607 C628 0.930 . S
H608 C602 0.929 . S
H609 C601 0.930 . S
H610 C624 0.929 . S
H611 C591 0.931 . S
H612 C597 0.931 . S
H613 C598 0.931 . S
H614 C619 0.931 . S
H615 C594 0.929 . S
H616 C627 0.930 . S
N617 Eu588 2.600 . S
N617 C618 1.365 . S
N617 C621 1.319 . S
C618 N617 1.365 . S
C618 C620 1.405 . S
C618 C626 1.448 . S
C619 H614 0.931 . S
C619 C621 1.397 . S
C619 C622 1.367 . S
C620 C618 1.405 . S
C620 C622 1.403 . S
C620 C653 1.439 . S
C621 H606 0.930 . S
C621 N617 1.319 . S
C621 C619 1.397 . S
C622 C619 1.367 . S
C622 C620 1.403 . S
C622 H629 0.929 . S
N623 Eu588 2.562 . S
N623 C624 1.325 . S
N623 C626 1.351 . S
C624 H610 0.929 . S
C624 N623 1.325 . S
C624 C628 1.416 . S
C625 C626 1.430 . S
C625 C627 1.404 . S
C625 C654 1.387 . S
C626 C618 1.448 . S
C626 N623 1.351 . S
C626 C625 1.430 . S
C627 H616 0.930 . S
C627 C625 1.404 . S
C627 C628 1.366 . S
C628 H607 0.930 . S
C628 C624 1.416 . S
C628 C627 1.366 . S
H629 C622 0.929 . S
H630 C653 0.931 . S
H631 C654 0.931 . S
O632 Eu588 2.462 1_554 S
O632 C652 1.252 . S
O633 Eu588 2.373 . S
O633 C644 1.249 . S
O634 Eu599 2.335 1_556 S
O634 C644 1.264 . S
O635 Eu588 2.432 1_554 S
O635 C652 1.268 . S
O636 Eu588 2.291 . S
O636 C651 1.255 . S
O637 Eu599 2.372 1_556 S
O637 C651 1.257 . S
O638 Eu599 2.462 1_556 S
O638 C663 1.252 . S
O639 Eu599 2.373 . S
O639 C655 1.249 . S
O640 Eu588 2.335 1_554 S
O640 C655 1.264 . S
O641 Eu599 2.432 1_556 S
O641 C663 1.268 . S
O642 Eu599 2.291 . S
O642 C662 1.255 . S
O643 Eu588 2.372 1_554 S
O643 C662 1.257 . S
C644 O633 1.249 . S
C644 O634 1.264 . S
C645 C648 1.382 . S
C645 C650 1.390 . S
C645 C652 1.506 . S
C646 C647 1.398 . S
C646 C650 1.392 . S
C647 C646 1.398 . S
C647 C649 1.372 . S
C647 H664 0.931 . S
C648 C645 1.382 . S
C648 C649 1.390 . S
C648 H665 0.931 . S
C649 C647 1.372 . S
C649 C648 1.390 . S
C649 H666 0.929 . S
C650 C645 1.390 . S
C650 C646 1.392 . S
C650 H667 0.930 . S
C651 O636 1.255 . S
C651 O637 1.257 . S
C652 Eu588 2.787 1_554 S
C652 O632 1.252 . S
C652 O635 1.268 . S
C652 C645 1.506 . S
C653 C620 1.439 . S
C653 H630 0.931 . S
C653 C654 1.374 . S
C654 C625 1.387 . S
C654 H631 0.931 . S
C654 C653 1.374 . S
C655 O639 1.249 . S
C655 O640 1.264 . S
C656 C659 1.382 . S
C656 C660 1.390 . S
C656 C663 1.506 . S
C657 C658 1.398 . S
C657 C660 1.392 . S
C658 C657 1.398 . S
C658 C661 1.372 . S
C658 H668 0.931 . S
C659 C656 1.382 . S
C659 C661 1.390 . S
C659 H669 0.931 . S
C660 C656 1.390 . S
C660 C657 1.392 . S
C660 H670 0.930 . S
C661 C658 1.372 . S
C661 C659 1.390 . S
C661 H671 0.929 . S
C662 O642 1.255 . S
C662 O643 1.257 . S
C663 Eu599 2.787 1_556 S
C663 O638 1.252 . S
C663 O641 1.268 . S
C663 C656 1.506 . S
H664 C647 0.931 . S
H665 C648 0.931 . S
H666 C649 0.929 . S
H667 C650 0.930 . S
H668 C658 0.931 . S
H669 C659 0.931 . S
H670 C660 0.930 . S
H671 C661 0.929 . S
H672 C680 0.950 . S
H673 C685 0.950 . S
H674 C682 0.950 . S
H675 C684 0.950 . S
H676 C686 0.950 . S
H677 C688 0.950 . S
H678 C690 0.950 . S
H679 C691 0.950 . S
C680 H672 0.950 . S
C680 C681 1.386 . S
C680 C682 1.391 . S
C681 C680 1.386 . S
C681 C685 1.393 . S
C682 H674 0.950 . S
C682 C680 1.391 . S
C682 C683 1.400 . S
C683 C682 1.400 . S
C683 C684 1.398 . S
C683 C689 1.491 . S
C684 H675 0.950 . S
C684 C683 1.398 . S
C684 C685 1.391 . S
C685 H673 0.950 . S
C685 C681 1.393 . S
C685 C684 1.391 . S
C686 H676 0.950 . S
C686 C687 1.386 . S
C686 C688 1.391 . S
C687 C686 1.386 . S
C687 C691 1.393 . S
C688 H677 0.950 . S
C688 C686 1.391 . S
C688 C689 1.400 . S
C689 C683 1.491 . S
C689 C688 1.400 . S
C689 C690 1.398 . S
C690 H678 0.950 . S
C690 C689 1.398 . S
C690 C691 1.391 . S
C691 H679 0.950 . S
C691 C687 1.393 . S
C691 C690 1.391 . S
H692 C700 0.950 . S
H693 C705 0.950 . S
H694 C702 0.950 . S
H695 C704 0.950 . S
H696 C706 0.950 . S
H697 C708 0.950 . S
H698 C710 0.950 . S
H699 C711 0.950 . S
C700 H692 0.950 . S
C700 C701 1.386 . S
C700 C702 1.391 . S
C701 C700 1.386 . S
C701 C705 1.393 . S
C702 H694 0.950 . S
C702 C700 1.391 . S
C702 C703 1.400 . S
C703 C702 1.400 . S
C703 C704 1.398 . S
C703 C709 1.491 . S
C704 H695 0.950 . S
C704 C703 1.398 . S
C704 C705 1.391 . S
C705 H693 0.950 . S
C705 C701 1.393 . S
C705 C704 1.391 . S
C706 H696 0.950 . S
C706 C707 1.386 . S
C706 C708 1.391 . S
C707 C706 1.386 . S
C707 C711 1.393 . S
C708 H697 0.950 . S
C708 C706 1.391 . S
C708 C709 1.400 . S
C709 C703 1.491 . S
C709 C708 1.400 . S
C709 C710 1.398 . S
C710 H698 0.950 . S
C710 C709 1.398 . S
C710 C711 1.391 . S
C711 H699 0.950 . S
C711 C707 1.393 . S
C711 C710 1.391 . S
H712 C720 0.950 . S
H713 C725 0.950 . S
H714 C722 0.950 . S
H715 C724 0.950 . S
H716 C726 0.950 . S
H717 C728 0.950 . S
H718 C730 0.950 . S
H719 C731 0.950 . S
C720 H712 0.950 . S
C720 C721 1.386 . S
C720 C722 1.391 . S
C721 C720 1.386 . S
C721 C725 1.393 . S
C722 H714 0.950 . S
C722 C720 1.391 . S
C722 C723 1.400 . S
C723 C722 1.400 . S
C723 C724 1.398 . S
C723 C729 1.491 . S
C724 H715 0.950 . S
C724 C723 1.398 . S
C724 C725 1.391 . S
C725 H713 0.950 . S
C725 C721 1.393 . S
C725 C724 1.391 . S
C726 H716 0.950 . S
C726 C727 1.386 . S
C726 C728 1.391 . S
C727 C726 1.386 . S
C727 C731 1.393 . S
C728 H717 0.950 . S
C728 C726 1.391 . S
C728 C729 1.400 . S
C729 C723 1.491 . S
C729 C728 1.400 . S
C729 C730 1.398 . S
C730 H718 0.950 . S
C730 C729 1.398 . S
C730 C731 1.391 . S
C731 H719 0.950 . S
C731 C727 1.393 . S
C731 C730 1.391 . S
H732 C740 0.950 . S
H733 C745 0.950 . S
H734 C742 0.950 . S
H735 C744 0.950 . S
H736 C746 0.950 . S
H737 C748 0.950 . S
H738 C750 0.950 . S
H739 C751 0.950 . S
C740 H732 0.950 . S
C740 C741 1.386 . S
C740 C742 1.391 . S
C741 C740 1.386 . S
C741 C745 1.393 . S
C742 H734 0.950 . S
C742 C740 1.391 . S
C742 C743 1.400 . S
C743 C742 1.400 . S
C743 C744 1.398 . S
C743 C749 1.491 . S
C744 H735 0.950 . S
C744 C743 1.398 . S
C744 C745 1.391 . S
C745 H733 0.950 . S
C745 C741 1.393 . S
C745 C744 1.391 . S
C746 H736 0.950 . S
C746 C747 1.386 . S
C746 C748 1.391 . S
C747 C746 1.386 . S
C747 C751 1.393 . S
C748 H737 0.950 . S
C748 C746 1.391 . S
C748 C749 1.400 . S
C749 C743 1.491 . S
C749 C748 1.400 . S
C749 C750 1.398 . S
C750 H738 0.950 . S
C750 C749 1.398 . S
C750 C751 1.391 . S
C751 H739 0.950 . S
C751 C747 1.393 . S
C751 C750 1.391 . S
H752 C760 0.950 . S
H753 C765 0.950 . S
H754 C762 0.950 . S
H755 C764 0.950 . S
H756 C766 0.950 . S
H757 C768 0.950 . S
H758 C770 0.950 . S
H759 C771 0.950 . S
C760 H752 0.950 . S
C760 C761 1.386 . S
C760 C762 1.391 . S
C761 C760 1.386 . S
C761 C765 1.393 . S
C762 H754 0.950 . S
C762 C760 1.391 . S
C762 C763 1.400 . S
C763 C762 1.400 . S
C763 C764 1.398 . S
C763 C769 1.491 1_565 S
C764 H755 0.950 . S
C764 C763 1.398 . S
C764 C765 1.391 . S
C765 H753 0.950 . S
C765 C761 1.393 . S
C765 C764 1.391 . S
C766 H756 0.950 . S
C766 C767 1.386 . S
C766 C768 1.391 . S
C767 C766 1.386 . S
C767 C771 1.393 . S
C768 H757 0.950 . S
C768 C766 1.391 . S
C768 C769 1.400 . S
C769 C763 1.491 1_545 S
C769 C768 1.400 . S
C769 C770 1.398 . S
C770 H758 0.950 . S
C770 C769 1.398 . S
C770 C771 1.391 . S
C771 H759 0.950 . S
C771 C767 1.393 . S
C771 C770 1.391 . S
H772 C780 0.950 . S
H773 C785 0.950 . S
H774 C782 0.950 . S
H775 C784 0.950 . S
H776 C786 0.950 . S
H777 C788 0.950 . S
H778 C790 0.950 . S
H779 C791 0.950 . S
C780 H772 0.950 . S
C780 C781 1.386 . S
C780 C782 1.391 . S
C781 C780 1.386 . S
C781 C785 1.393 . S
C782 H774 0.950 . S
C782 C780 1.391 . S
C782 C783 1.400 . S
C783 C782 1.400 . S
C783 C784 1.398 . S
C783 C789 1.491 . S
C784 H775 0.950 . S
C784 C783 1.398 . S
C784 C785 1.391 . S
C785 H773 0.950 . S
C785 C781 1.393 . S
C785 C784 1.391 . S
C786 H776 0.950 . S
C786 C787 1.386 . S
C786 C788 1.391 . S
C787 C786 1.386 . S
C787 C791 1.393 . S
C788 H777 0.950 . S
C788 C786 1.391 . S
C788 C789 1.400 . S
C789 C783 1.491 . S
C789 C788 1.400 . S
C789 C790 1.398 . S
C790 H778 0.950 . S
C790 C789 1.398 . S
C790 C791 1.391 . S
C791 H779 0.950 . S
C791 C787 1.393 . S
C791 C790 1.391 . S
H792 C800 0.950 . S
H793 C805 0.950 . S
H794 C802 0.950 . S
H795 C804 0.950 . S
H796 C806 0.950 . S
H797 C808 0.950 . S
H798 C810 0.950 . S
H799 C811 0.950 . S
C800 H792 0.950 . S
C800 C801 1.386 . S
C800 C802 1.391 . S
C801 C800 1.386 . S
C801 C805 1.393 . S
C802 H794 0.950 . S
C802 C800 1.391 . S
C802 C803 1.400 . S
C803 C802 1.400 . S
C803 C804 1.398 . S
C803 C809 1.491 1_565 S
C804 H795 0.950 . S
C804 C803 1.398 . S
C804 C805 1.391 . S
C805 H793 0.950 . S
C805 C801 1.393 . S
C805 C804 1.391 . S
C806 H796 0.950 . S
C806 C807 1.386 . S
C806 C808 1.391 . S
C807 C806 1.386 . S
C807 C811 1.393 . S
C808 H797 0.950 . S
C808 C806 1.391 . S
C808 C809 1.400 . S
C809 C803 1.491 1_545 S
C809 C808 1.400 . S
C809 C810 1.398 . S
C810 H798 0.950 . S
C810 C809 1.398 . S
C810 C811 1.391 . S
C811 H799 0.950 . S
C811 C807 1.393 . S
C811 C810 1.391 . S
H812 C820 0.950 . S
H813 C825 0.950 . S
H814 C822 0.950 . S
H815 C824 0.950 . S
H816 C826 0.950 . S
H817 C828 0.950 . S
H818 C830 0.950 . S
H819 C831 0.950 . S
C820 H812 0.950 . S
C820 C821 1.386 . S
C820 C822 1.391 . S
C821 C820 1.386 . S
C821 C825 1.393 . S
C822 H814 0.950 . S
C822 C820 1.391 . S
C822 C823 1.400 . S
C823 C822 1.400 . S
C823 C824 1.398 . S
C823 C829 1.491 . S
C824 H815 0.950 . S
C824 C823 1.398 . S
C824 C825 1.391 . S
C825 H813 0.950 . S
C825 C821 1.393 . S
C825 C824 1.391 . S
C826 H816 0.950 . S
C826 C827 1.386 . S
C826 C828 1.391 . S
C827 C826 1.386 . S
C827 C831 1.393 . S
C828 H817 0.950 . S
C828 C826 1.391 . S
C828 C829 1.400 . S
C829 C823 1.491 . S
C829 C828 1.400 . S
C829 C830 1.398 . S
C830 H818 0.950 . S
C830 C829 1.398 . S
C830 C831 1.391 . S
C831 H819 0.950 . S
C831 C827 1.393 . S
C831 C830 1.391 . S
H832 C840 0.950 . S
H833 C845 0.950 . S
H834 C842 0.950 . S
H835 C844 0.950 . S
H836 C846 0.950 . S
H837 C848 0.950 . S
H838 C850 0.950 . S
H839 C851 0.950 . S
C840 H832 0.950 . S
C840 C841 1.386 . S
C840 C842 1.391 . S
C841 C840 1.386 . S
C841 C845 1.393 1_556 S
C842 H834 0.950 . S
C842 C840 1.391 . S
C842 C843 1.400 . S
C843 C842 1.400 . S
C843 C844 1.398 1_556 S
C843 C849 1.491 1_556 S
C844 H835 0.950 . S
C844 C843 1.398 1_554 S
C844 C845 1.391 . S
C845 H833 0.950 . S
C845 C841 1.393 1_554 S
C845 C844 1.391 . S
C846 H836 0.950 . S
C846 C847 1.386 . S
C846 C848 1.391 . S
C847 C846 1.386 . S
C847 C851 1.393 1_554 S
C848 H837 0.950 . S
C848 C846 1.391 . S
C848 C849 1.400 . S
C849 C843 1.491 1_554 S
C849 C848 1.400 . S
C849 C850 1.398 1_554 S
C850 H838 0.950 . S
C850 C849 1.398 1_556 S
C850 C851 1.391 . S
C851 H839 0.950 . S
C851 C847 1.393 1_556 S
C851 C850 1.391 . S
H852 C860 0.950 . S
H853 C865 0.950 . S
H854 C862 0.950 . S
H855 C864 0.950 . S
H856 C866 0.950 . S
H857 C868 0.950 . S
H858 C870 0.950 . S
H859 C871 0.950 . S
C860 H852 0.950 . S
C860 C861 1.386 . S
C860 C862 1.391 . S
C861 C860 1.386 . S
C861 C865 1.393 1_554 S
C862 H854 0.950 . S
C862 C860 1.391 . S
C862 C863 1.400 . S
C863 C862 1.400 . S
C863 C864 1.398 1_554 S
C863 C869 1.491 1_564 S
C864 H855 0.950 . S
C864 C863 1.398 1_556 S
C864 C865 1.391 . S
C865 H853 0.950 . S
C865 C861 1.393 1_556 S
C865 C864 1.391 . S
C866 H856 0.950 . S
C866 C867 1.386 . S
C866 C868 1.391 . S
C867 C866 1.386 . S
C867 C871 1.393 1_556 S
C868 H857 0.950 . S
C868 C866 1.391 . S
C868 C869 1.400 . S
C869 C863 1.491 1_546 S
C869 C868 1.400 . S
C869 C870 1.398 1_556 S
C870 H858 0.950 . S
C870 C869 1.398 1_554 S
C870 C871 1.391 . S
C871 H859 0.950 . S
C871 C867 1.393 1_554 S
C871 C870 1.391 . S
H872 C880 0.950 . S
H873 C885 0.950 . S
H874 C882 0.950 . S
H875 C884 0.950 . S
H876 C886 0.950 . S
H877 C888 0.950 . S
H878 C890 0.950 . S
H879 C891 0.950 . S
C880 H872 0.950 . S
C880 C881 1.386 . S
C880 C882 1.391 . S
C881 C880 1.386 . S
C881 C885 1.393 1_554 S
C882 H874 0.950 . S
C882 C880 1.391 . S
C882 C883 1.400 . S
C883 C882 1.400 . S
C883 C884 1.398 1_554 S
C883 C889 1.491 1_554 S
C884 H875 0.950 . S
C884 C883 1.398 1_556 S
C884 C885 1.391 . S
C885 H873 0.950 . S
C885 C881 1.393 1_556 S
C885 C884 1.391 . S
C886 H876 0.950 . S
C886 C887 1.386 . S
C886 C888 1.391 . S
C887 C886 1.386 . S
C887 C891 1.393 1_556 S
C888 H877 0.950 . S
C888 C886 1.391 . S
C888 C889 1.400 . S
C889 C883 1.491 1_556 S
C889 C888 1.400 . S
C889 C890 1.398 1_556 S
C890 H878 0.950 . S
C890 C889 1.398 1_554 S
C890 C891 1.391 . S
C891 H879 0.950 . S
C891 C887 1.393 1_554 S
C891 C890 1.391 . S
H892 C900 0.950 . S
H893 C905 0.950 . S
H894 C902 0.950 . S
H895 C904 0.950 . S
H896 C906 0.950 . S
H897 C908 0.950 . S
H898 C910 0.950 . S
H899 C911 0.950 . S
C900 H892 0.950 . S
C900 C901 1.386 1_554 S
C900 C902 1.391 . S
C901 C900 1.386 1_556 S
C901 C905 1.393 . S
C902 H894 0.950 . S
C902 C900 1.391 . S
C902 C903 1.400 1_554 S
C903 C902 1.400 1_556 S
C903 C904 1.398 . S
C903 C909 1.491 1_546 S
C904 H895 0.950 . S
C904 C903 1.398 . S
C904 C905 1.391 . S
C905 H893 0.950 . S
C905 C901 1.393 . S
C905 C904 1.391 . S
C906 H896 0.950 . S
C906 C907 1.386 1_556 S
C906 C908 1.391 . S
C907 C906 1.386 1_554 S
C907 C911 1.393 . S
C908 H897 0.950 . S
C908 C906 1.391 . S
C908 C909 1.400 1_556 S
C909 C903 1.491 1_564 S
C909 C908 1.400 1_554 S
C909 C910 1.398 . S
C910 H898 0.950 . S
C910 C909 1.398 . S
C910 C911 1.391 . S
C911 H899 0.950 . S
C911 C907 1.393 . S
C911 C910 1.391 . S
H912 C920 0.950 . S
H913 C925 0.950 . S
H914 C922 0.950 . S
H915 C924 0.950 . S
H916 C926 0.950 . S
H917 C928 0.950 . S
H918 C930 0.950 . S
H919 C931 0.950 . S
C920 H912 0.950 . S
C920 C921 1.386 . S
C920 C922 1.391 . S
C921 C920 1.386 . S
C921 C925 1.393 . S
C922 H914 0.950 . S
C922 C920 1.391 . S
C922 C923 1.400 . S
C923 C922 1.400 . S
C923 C924 1.398 . S
C923 C929 1.491 1_554 S
C924 H915 0.950 . S
C924 C923 1.398 . S
C924 C925 1.391 . S
C925 H913 0.950 . S
C925 C921 1.393 . S
C925 C924 1.391 . S
C926 H916 0.950 . S
C926 C927 1.386 . S
C926 C928 1.391 . S
C927 C926 1.386 . S
C927 C931 1.393 . S
C928 H917 0.950 . S
C928 C926 1.391 . S
C928 C929 1.400 . S
C929 C923 1.491 1_556 S
C929 C928 1.400 . S
C929 C930 1.398 . S
C930 H918 0.950 . S
C930 C929 1.398 . S
C930 C931 1.391 . S
C931 H919 0.950 . S
C931 C927 1.393 . S
C931 C930 1.391 . S
H932 C940 0.950 . S
H933 C945 0.950 . S
H934 C942 0.950 . S
H935 C944 0.950 . S
H936 C946 0.950 . S
H937 C948 0.950 . S
H938 C950 0.950 . S
H939 C951 0.950 . S
C940 H932 0.950 . S
C940 C941 1.386 . S
C940 C942 1.391 . S
C941 C940 1.386 . S
C941 C945 1.393 . S
C942 H934 0.950 . S
C942 C940 1.391 . S
C942 C943 1.400 . S
C943 C942 1.400 . S
C943 C944 1.398 . S
C943 C949 1.491 1_554 S
C944 H935 0.950 . S
C944 C943 1.398 . S
C944 C945 1.391 . S
C945 H933 0.950 . S
C945 C941 1.393 . S
C945 C944 1.391 . S
C946 H936 0.950 . S
C946 C947 1.386 . S
C946 C948 1.391 . S
C947 C946 1.386 . S
C947 C951 1.393 . S
C948 H937 0.950 . S
C948 C946 1.391 . S
C948 C949 1.400 . S
C949 C943 1.491 1_556 S
C949 C948 1.400 . S
C949 C950 1.398 . S
C950 H938 0.950 . S
C950 C949 1.398 . S
C950 C951 1.391 . S
C951 H939 0.950 . S
C951 C947 1.393 . S
C951 C950 1.391 . S
H952 C960 0.950 . S
H953 C965 0.950 . S
H954 C962 0.950 . S
H955 C964 0.950 . S
H956 C966 0.950 . S
H957 C968 0.950 . S
H958 C970 0.950 . S
H959 C971 0.950 . S
C960 H952 0.950 . S
C960 C961 1.386 . S
C960 C962 1.391 . S
C961 C960 1.386 . S
C961 C965 1.393 . S
C962 H954 0.950 . S
C962 C960 1.391 . S
C962 C963 1.400 . S
C963 C962 1.400 . S
C963 C964 1.398 . S
C963 C969 1.491 1_554 S
C964 H955 0.950 . S
C964 C963 1.398 . S
C964 C965 1.391 . S
C965 H953 0.950 . S
C965 C961 1.393 . S
C965 C964 1.391 . S
C966 H956 0.950 . S
C966 C967 1.386 . S
C966 C968 1.391 . S
C967 C966 1.386 . S
C967 C971 1.393 . S
C968 H957 0.950 . S
C968 C966 1.391 . S
C968 C969 1.400 . S
C969 C963 1.491 1_556 S
C969 C968 1.400 . S
C969 C970 1.398 . S
C970 H958 0.950 . S
C970 C969 1.398 . S
C970 C971 1.391 . S
C971 H959 0.950 . S
C971 C967 1.393 . S
C971 C970 1.391 . S
H972 C980 0.950 . S
H973 C985 0.950 . S
H974 C982 0.950 . S
H975 C984 0.950 . S
H976 C986 0.950 . S
H977 C988 0.950 . S
H978 C990 0.950 . S
H979 C991 0.950 . S
C980 H972 0.950 . S
C980 C981 1.386 . S
C980 C982 1.391 . S
C981 C980 1.386 . S
C981 C985 1.393 . S
C982 H974 0.950 . S
C982 C980 1.391 . S
C982 C983 1.400 . S
C983 C982 1.400 . S
C983 C984 1.398 . S
C983 C989 1.491 1_556 S
C984 H975 0.950 . S
C984 C983 1.398 . S
C984 C985 1.391 . S
C985 H973 0.950 . S
C985 C981 1.393 . S
C985 C984 1.391 . S
C986 H976 0.950 . S
C986 C987 1.386 . S
C986 C988 1.391 . S
C987 C986 1.386 . S
C987 C991 1.393 . S
C988 H977 0.950 . S
C988 C986 1.391 . S
C988 C989 1.400 . S
C989 C983 1.491 1_554 S
C989 C988 1.400 . S
C989 C990 1.398 . S
C990 H978 0.950 . S
C990 C989 1.398 . S
C990 C991 1.391 . S
C991 H979 0.950 . S
C991 C987 1.393 . S
C991 C990 1.391 . S
H992 C1000 0.950 . S
H993 C1005 0.950 . S
H994 C1002 0.950 . S
H995 C1004 0.950 . S
H996 C1006 0.950 . S
H997 C1008 0.950 . S
H998 C1010 0.950 . S
H999 C1011 0.950 . S
C1000 H992 0.950 . S
C1000 C1001 1.386 . S
C1000 C1002 1.391 . S
C1001 C1000 1.386 . S
C1001 C1005 1.393 . S
C1002 H994 0.950 . S
C1002 C1000 1.391 . S
C1002 C1003 1.400 . S
C1003 C1002 1.400 . S
C1003 C1004 1.398 . S
C1003 C1009 1.491 . S
C1004 H995 0.950 . S
C1004 C1003 1.398 . S
C1004 C1005 1.391 . S
C1005 H993 0.950 . S
C1005 C1001 1.393 . S
C1005 C1004 1.391 . S
C1006 H996 0.950 . S
C1006 C1007 1.386 . S
C1006 C1008 1.391 . S
C1007 C1006 1.386 . S
C1007 C1011 1.393 . S
C1008 H997 0.950 . S
C1008 C1006 1.391 . S
C1008 C1009 1.400 . S
C1009 C1003 1.491 . S
C1009 C1008 1.400 . S
C1009 C1010 1.398 . S
C1010 H998 0.950 . S
C1010 C1009 1.398 . S
C1010 C1011 1.391 . S
C1011 H999 0.950 . S
C1011 C1007 1.393 . S
C1011 C1010 1.391 . S
H1012 C1020 0.950 . S
H1013 C1025 0.950 . S
H1014 C1022 0.950 . S
H1015 C1024 0.950 . S
H1016 C1026 0.950 . S
H1017 C1028 0.950 . S
H1018 C1030 0.950 . S
H1019 C1031 0.950 . S
C1020 H1012 0.950 . S
C1020 C1021 1.386 . S
C1020 C1022 1.391 . S
C1021 C1020 1.386 . S
C1021 C1025 1.393 . S
C1022 H1014 0.950 . S
C1022 C1020 1.391 . S
C1022 C1023 1.400 . S
C1023 C1022 1.400 . S
C1023 C1024 1.398 . S
C1023 C1029 1.491 . S
C1024 H1015 0.950 . S
C1024 C1023 1.398 . S
C1024 C1025 1.391 . S
C1025 H1013 0.950 . S
C1025 C1021 1.393 . S
C1025 C1024 1.391 . S
C1026 H1016 0.950 . S
C1026 C1027 1.386 . S
C1026 C1028 1.391 . S
C1027 C1026 1.386 . S
C1027 C1031 1.393 . S
C1028 H1017 0.950 . S
C1028 C1026 1.391 . S
C1028 C1029 1.400 . S
C1029 C1023 1.491 . S
C1029 C1028 1.400 . S
C1029 C1030 1.398 . S
C1030 H1018 0.950 . S
C1030 C1029 1.398 . S
C1030 C1031 1.391 . S
C1031 H1019 0.950 . S
C1031 C1027 1.393 . S
C1031 C1030 1.391 . S
H1032 C1040 0.950 . S
H1033 C1045 0.950 . S
H1034 C1042 0.950 . S
H1035 C1044 0.950 . S
H1036 C1046 0.950 . S
H1037 C1048 0.950 . S
H1038 C1050 0.950 . S
H1039 C1051 0.950 . S
C1040 H1032 0.950 . S
C1040 C1041 1.386 . S
C1040 C1042 1.391 . S
C1041 C1040 1.386 . S
C1041 C1045 1.393 . S
C1042 H1034 0.950 . S
C1042 C1040 1.391 . S
C1042 C1043 1.400 . S
C1043 C1042 1.400 . S
C1043 C1044 1.398 . S
C1043 C1049 1.491 . S
C1044 H1035 0.950 . S
C1044 C1043 1.398 . S
C1044 C1045 1.391 . S
C1045 H1033 0.950 . S
C1045 C1041 1.393 . S
C1045 C1044 1.391 . S
C1046 H1036 0.950 . S
C1046 C1047 1.386 . S
C1046 C1048 1.391 . S
C1047 C1046 1.386 . S
C1047 C1051 1.393 . S
C1048 H1037 0.950 . S
C1048 C1046 1.391 . S
C1048 C1049 1.400 . S
C1049 C1043 1.491 . S
C1049 C1048 1.400 . S
C1049 C1050 1.398 . S
C1050 H1038 0.950 . S
C1050 C1049 1.398 . S
C1050 C1051 1.391 . S
C1051 H1039 0.950 . S
C1051 C1047 1.393 . S
C1051 C1050 1.391 . S
H1052 C1060 0.950 . S
H1053 C1065 0.950 . S
H1054 C1062 0.950 . S
H1055 C1064 0.950 . S
H1056 C1066 0.950 . S
H1057 C1068 0.950 . S
H1058 C1070 0.950 . S
H1059 C1071 0.950 . S
C1060 H1052 0.950 . S
C1060 C1061 1.386 . S
C1060 C1062 1.391 . S
C1061 C1060 1.386 . S
C1061 C1065 1.393 . S
C1062 H1054 0.950 . S
C1062 C1060 1.391 . S
C1062 C1063 1.400 . S
C1063 C1062 1.400 . S
C1063 C1064 1.398 . S
C1063 C1069 1.491 . S
C1064 H1055 0.950 . S
C1064 C1063 1.398 . S
C1064 C1065 1.391 . S
C1065 H1053 0.950 . S
C1065 C1061 1.393 . S
C1065 C1064 1.391 . S
C1066 H1056 0.950 . S
C1066 C1067 1.386 . S
C1066 C1068 1.391 . S
C1067 C1066 1.386 . S
C1067 C1071 1.393 . S
C1068 H1057 0.950 . S
C1068 C1066 1.391 . S
C1068 C1069 1.400 . S
C1069 C1063 1.491 . S
C1069 C1068 1.400 . S
C1069 C1070 1.398 . S
C1070 H1058 0.950 . S
C1070 C1069 1.398 . S
C1070 C1071 1.391 . S
C1071 H1059 0.950 . S
C1071 C1067 1.393 . S
C1071 C1070 1.391 . S
H1072 C1080 0.950 . S
H1073 C1085 0.950 . S
H1074 C1082 0.950 . S
H1075 C1084 0.950 . S
H1076 C1086 0.950 . S
H1077 C1088 0.950 . S
H1078 C1090 0.950 . S
H1079 C1091 0.950 . S
C1080 H1072 0.950 . S
C1080 C1081 1.386 . S
C1080 C1082 1.391 . S
C1081 C1080 1.386 . S
C1081 C1085 1.393 . S
C1082 H1074 0.950 . S
C1082 C1080 1.391 . S
C1082 C1083 1.400 . S
C1083 C1082 1.400 . S
C1083 C1084 1.398 . S
C1083 C1089 1.491 1_455 S
C1084 H1075 0.950 . S
C1084 C1083 1.398 . S
C1084 C1085 1.391 . S
C1085 H1073 0.950 . S
C1085 C1081 1.393 . S
C1085 C1084 1.391 . S
C1086 H1076 0.950 . S
C1086 C1087 1.386 . S
C1086 C1088 1.391 . S
C1087 C1086 1.386 . S
C1087 C1091 1.393 . S
C1088 H1077 0.950 . S
C1088 C1086 1.391 . S
C1088 C1089 1.400 . S
C1089 C1083 1.491 1_655 S
C1089 C1088 1.400 . S
C1089 C1090 1.398 . S
C1090 H1078 0.950 . S
C1090 C1089 1.398 . S
C1090 C1091 1.391 . S
C1091 H1079 0.950 . S
C1091 C1087 1.393 . S
C1091 C1090 1.391 . S
H1092 C1100 0.950 . S
H1093 C1105 0.950 . S
H1094 C1102 0.950 . S
H1095 C1104 0.950 . S
H1096 C1106 0.950 . S
H1097 C1108 0.950 . S
H1098 C1110 0.950 . S
H1099 C1111 0.950 . S
C1100 H1092 0.950 . S
C1100 C1101 1.386 . S
C1100 C1102 1.391 . S
C1101 C1100 1.386 . S
C1101 C1105 1.393 . S
C1102 H1094 0.950 . S
C1102 C1100 1.391 . S
C1102 C1103 1.400 . S
C1103 C1102 1.400 . S
C1103 C1104 1.398 . S
C1103 C1109 1.491 1_655 S
C1104 H1095 0.950 . S
C1104 C1103 1.398 . S
C1104 C1105 1.391 . S
C1105 H1093 0.950 . S
C1105 C1101 1.393 . S
C1105 C1104 1.391 . S
C1106 H1096 0.950 . S
C1106 C1107 1.386 . S
C1106 C1108 1.391 . S
C1107 C1106 1.386 . S
C1107 C1111 1.393 . S
C1108 H1097 0.950 . S
C1108 C1106 1.391 . S
C1108 C1109 1.400 . S
C1109 C1103 1.491 1_455 S
C1109 C1108 1.400 . S
C1109 C1110 1.398 . S
C1110 H1098 0.950 . S
C1110 C1109 1.398 . S
C1110 C1111 1.391 . S
C1111 H1099 0.950 . S
C1111 C1107 1.393 . S
C1111 C1110 1.391 . S
H1112 C1120 0.950 . S
H1113 C1125 0.950 . S
H1114 C1122 0.950 . S
H1115 C1124 0.950 . S
H1116 C1126 0.950 . S
H1117 C1128 0.950 . S
H1118 C1130 0.950 . S
H1119 C1131 0.950 . S
C1120 H1112 0.950 . S
C1120 C1121 1.386 . S
C1120 C1122 1.391 . S
C1121 C1120 1.386 . S
C1121 C1125 1.393 . S
C1122 H1114 0.950 . S
C1122 C1120 1.391 . S
C1122 C1123 1.400 . S
C1123 C1122 1.400 . S
C1123 C1124 1.398 . S
C1123 C1129 1.491 . S
C1124 H1115 0.950 . S
C1124 C1123 1.398 . S
C1124 C1125 1.391 . S
C1125 H1113 0.950 . S
C1125 C1121 1.393 . S
C1125 C1124 1.391 . S
C1126 H1116 0.950 . S
C1126 C1127 1.386 . S
C1126 C1128 1.391 . S
C1127 C1126 1.386 . S
C1127 C1131 1.393 . S
C1128 H1117 0.950 . S
C1128 C1126 1.391 . S
C1128 C1129 1.400 . S
C1129 C1123 1.491 . S
C1129 C1128 1.400 . S
C1129 C1130 1.398 . S
C1130 H1118 0.950 . S
C1130 C1129 1.398 . S
C1130 C1131 1.391 . S
C1131 H1119 0.950 . S
C1131 C1127 1.393 . S
C1131 C1130 1.391 . S
H1132 C1140 0.950 . S
H1133 C1145 0.950 . S
H1134 C1142 0.950 . S
H1135 C1144 0.950 . S
H1136 C1146 0.950 . S
H1137 C1148 0.950 . S
H1138 C1150 0.950 . S
H1139 C1151 0.950 . S
C1140 H1132 0.950 . S
C1140 C1141 1.386 . S
C1140 C1142 1.391 . S
C1141 C1140 1.386 . S
C1141 C1145 1.393 . S
C1142 H1134 0.950 . S
C1142 C1140 1.391 . S
C1142 C1143 1.400 . S
C1143 C1142 1.400 . S
C1143 C1144 1.398 . S
C1143 C1149 1.491 . S
C1144 H1135 0.950 . S
C1144 C1143 1.398 . S
C1144 C1145 1.391 . S
C1145 H1133 0.950 . S
C1145 C1141 1.393 . S
C1145 C1144 1.391 . S
C1146 H1136 0.950 . S
C1146 C1147 1.386 . S
C1146 C1148 1.391 . S
C1147 C1146 1.386 . S
C1147 C1151 1.393 . S
C1148 H1137 0.950 . S
C1148 C1146 1.391 . S
C1148 C1149 1.400 . S
C1149 C1143 1.491 . S
C1149 C1148 1.400 . S
C1149 C1150 1.398 . S
C1150 H1138 0.950 . S
C1150 C1149 1.398 . S
C1150 C1151 1.391 . S
C1151 H1139 0.950 . S
C1151 C1147 1.393 . S
C1151 C1150 1.391 . S
C681 C58 1.533 . S
C687 C657 1.533 . S
C701 C562 1.573 . S
C707 C153 1.573 . S
C721 C489 1.573 . S
C727 C226 1.572 . S
C741 C394 1.531 . S
C747 C321 1.531 . S
C761 C231 2.453 . S
C767 C63 2.463 . S
C781 C147 0.647 . S
C787 C315 0.630 . S
C801 C326 2.456 . S
C807 C158 2.458 . S
C821 C242 0.635 . S
C827 C74 0.643 . S
C841 C399 2.473 . S
C847 C567 2.460 . S
C861 C483 0.626 . S
C867 C651 0.576 . S
C881 C662 2.461 . S
C887 C494 2.471 . S
C901 C578 0.618 . S
C907 C410 0.579 . S
C921 C56 1.768 . S
C927 C67 1.768 . S
C941 C151 1.760 . S
C947 C140 1.760 . S
C961 C235 1.753 . S
C967 C224 1.753 . S
C981 C319 1.758 . S
C987 C308 1.758 . S
C1001 C403 1.764 . S
C1007 C392 1.764 . S
C1021 C487 1.753 . S
C1027 C476 1.753 . S
C1041 C560 1.769 . S
C1047 C571 1.769 . S
C1061 C655 1.753 . S
C1067 C644 1.753 . S
C1081 C69 1.987 . S
C1087 C142 2.019 . S
C1101 C310 2.002 . S
C1107 C237 2.005 . S
C1121 C405 2.017 . S
C1127 C478 1.990 . S
C1141 C646 1.988 . S
C1147 C573 2.019 . S
