# Generated by pormake.
# Topology dmp, (4)-cn, num edge types: 1
# Building blocks:
#     Node 0, Type 0, BuildingBlock: UXUYUI_clean_sbu_0, # of connection points: 4
#     Node 1, Type 0, BuildingBlock: UXUYUI_clean_sbu_0, # of connection points: 4
#     Node 2, Type 0, BuildingBlock: UXUYUI_clean_sbu_0, # of connection points: 4
#     Node 3, Type 0, BuildingBlock: UXUYUI_clean_sbu_0, # of connection points: 4
#     Edge 4, Type (0, 0), BuildingBlock: XIVTED_clean_linker_0, # of connection points: 2
#     Edge 5, Type (0, 0), BuildingBlock: XIVTED_clean_linker_0, # of connection points: 2
#     Edge 6, Type (0, 0), BuildingBlock: XIVTED_clean_linker_0, # of connection points: 2
#     Edge 7, Type (0, 0), BuildingBlock: XIVTED_clean_linker_0, # of connection points: 2
#     Edge 8, Type (0, 0), BuildingBlock: XIVTED_clean_linker_0, # of connection points: 2
#     Edge 9, Type (0, 0), BuildingBlock: XIVTED_clean_linker_0, # of connection points: 2
#     Edge 10, Type (0, 0), BuildingBlock: XIVTED_clean_linker_0, # of connection points: 2
#     Edge 11, Type (0, 0), BuildingBlock: XIVTED_clean_linker_0, # of connection points: 2
# Relax obj value: 0.351
# Max RMSD: 0.312
# Mean RMSD: 0.312
data_MOF--net-dmp--node1-UXUYUI_clean_sbu_0--edge1-XIVTED_clean_linker_0
_symmetry_space_group_name_H-M    P1
_symmetry_Int_Tables_number       1
_symmetry_cell_setting            triclinic
loop_
_symmetry_equiv_pos_as_xyz
'x, y, z'
_cell_length_a     56.261437
_cell_length_b     23.997251
_cell_length_c     29.040868
_cell_angle_alpha  90.009673
_cell_angle_beta   89.965239
_cell_angle_gamma 89.992877
loop_
_atom_site_label
_atom_site_type_symbol
_atom_site_fract_x
_atom_site_fract_y
_atom_site_fract_z
_atom_type_partial_charge
Li0 Li 0.10946 0.29074 0.22096 0.0
Li1 Li 0.11357 0.21666 0.27272 0.0
Li2 Li 0.08123 0.21534 0.21645 0.0
Li3 Li 0.0819 0.28233 0.28595 0.0
C4 C 0.13009 0.21222 0.16769 0.0
N5 N 0.15988 0.21344 0.09194 0.0
C6 C 0.15415 0.22546 0.17283 0.0
C7 C 0.12124 0.19919 0.12401 0.0
C8 C 0.1689 0.22603 0.13412 0.0
C9 C 0.13658 0.20007 0.08616 0.0
C10 C 0.13343 0.30018 0.31951 0.0
C11 C 0.14577 0.30703 0.39883 0.0
N12 N 0.16889 0.30523 0.38516 0.0
C13 C 0.1573 0.29899 0.30622 0.0
C14 C 0.12758 0.30462 0.36616 0.0
C15 C 0.17497 0.30131 0.33994 0.0
C16 C 0.13723 0.3862 0.2113 0.0
N17 N 0.12648 0.34567 0.18613 0.0
C18 C 0.14561 0.37763 0.11751 0.0
C19 C 0.12934 0.34278 0.13963 0.0
C20 C 0.15812 0.41718 0.1434 0.0
C21 C 0.15313 0.42285 0.19045 0.0
H22 H 0.13422 0.38864 0.24799 0.0
H23 H 0.11985 0.31191 0.11992 0.0
C24 C 0.15107 0.14103 0.27385 0.0
N25 N 0.13655 0.16984 0.30264 0.0
C26 C 0.17086 0.11324 0.29097 0.0
C27 C 0.15924 0.14019 0.36795 0.0
C28 C 0.13974 0.16831 0.34914 0.0
C29 C 0.17543 0.11399 0.33835 0.0
H30 H 0.14774 0.14091 0.23731 0.0
H31 H 0.12772 0.19049 0.37157 0.0
C32 C 0.07174 0.3398 0.18932 0.0
N33 N 0.06875 0.42767 0.12822 0.0
C34 C 0.07232 0.39462 0.2055 0.0
C35 C 0.06956 0.32958 0.14214 0.0
C36 C 0.07082 0.4385 0.17402 0.0
C37 C 0.06807 0.37461 0.11179 0.0
C38 C 0.08123 0.15648 0.31482 0.0
C39 C 0.08619 0.10286 0.29869 0.0
C40 C 0.07874 0.16583 0.36207 0.0
C41 C 0.08879 0.05939 0.33028 0.0
C42 C 0.08143 0.12122 0.39255 0.0
N43 N 0.08638 0.0694 0.37615 0.0
C44 C 0.06978 0.12147 0.16359 0.0
C45 C 0.04067 0.193 0.16334 0.0
C46 C 0.05667 0.09056 0.13187 0.0
N47 N 0.06177 0.17197 0.17794 0.0
C48 C 0.02694 0.16344 0.13168 0.0
C49 C 0.0351 0.11187 0.11505 0.0
H50 H 0.08669 0.10601 0.17585 0.0
H51 H 0.03481 0.23336 0.17546 0.0
C52 C 0.07138 0.37262 0.34241 0.0
N53 N 0.06347 0.32168 0.32902 0.0
C54 C 0.05873 0.40332 0.37495 0.0
C55 C 0.0298 0.32884 0.37863 0.0
C56 C 0.04308 0.29946 0.34606 0.0
C57 C 0.03768 0.38138 0.3936 0.0
H58 H 0.08762 0.3892 0.32791 0.0
H59 H 0.03728 0.2588 0.33457 0.0
O60 O 0.11539 0.211 0.20529 0.0
O61 O 0.11588 0.2976 0.28699 0.0
O62 O 0.07376 0.29634 0.21946 0.0
O63 O 0.07892 0.19968 0.2845 0.0
H64 H 0.16136 0.23537 0.20633 0.0
H65 H 0.10267 0.18935 0.11916 0.0
H66 H 0.18751 0.23653 0.1376 0.0
H67 H 0.12993 0.19039 0.05214 0.0
H68 H 0.14151 0.31002 0.43507 0.0
H69 H 0.16213 0.29623 0.27027 0.0
H70 H 0.10921 0.30521 0.37713 0.0
H71 H 0.19351 0.30006 0.33015 0.0
H72 H 0.14897 0.37255 0.08102 0.0
H73 H 0.16256 0.45289 0.21145 0.0
H74 H 0.18281 0.09235 0.26732 0.0
H75 H 0.16223 0.14106 0.40478 0.0
H76 H 0.07413 0.40315 0.24191 0.0
H77 H 0.06938 0.28737 0.12903 0.0
H78 H 0.07135 0.48117 0.186 0.0
H79 H 0.06651 0.36737 0.07515 0.0
H80 H 0.08824 0.09505 0.26221 0.0
H81 H 0.07505 0.20718 0.3751 0.0
H82 H 0.09277 0.01772 0.31833 0.0
H83 H 0.07967 0.12786 0.42923 0.0
H84 H 0.06342 0.05064 0.12039 0.0
H85 H 0.01052 0.18158 0.11928 0.0
H86 H 0.06523 0.44401 0.38504 0.0
H87 H 0.01376 0.3103 0.39245 0.0
Li88 Li 0.40282 0.77414 0.20937 0.0
Li89 Li 0.40336 0.70322 0.27009 0.0
Li90 Li 0.37234 0.70413 0.2104 0.0
Li91 Li 0.37374 0.7795 0.27126 0.0
C92 C 0.40996 0.64833 0.1735 0.0
N93 N 0.41575 0.5591 0.11435 0.0
C94 C 0.4191 0.59791 0.18983 0.0
C95 C 0.4038 0.65338 0.12703 0.0
C96 C 0.42186 0.55327 0.1594 0.0
C97 C 0.40687 0.6078 0.09769 0.0
C98 C 0.41517 0.80343 0.31931 0.0
C99 C 0.41288 0.79473 0.40191 0.0
N100 N 0.42784 0.83892 0.4064 0.0
C101 C 0.43053 0.84872 0.32471 0.0
C102 C 0.40625 0.77621 0.35817 0.0
C103 C 0.43672 0.86605 0.36904 0.0
C104 C 0.42557 0.8735 0.1816 0.0
N105 N 0.42189 0.81913 0.17059 0.0
C106 C 0.44452 0.8289 0.10163 0.0
C107 C 0.43123 0.79637 0.13182 0.0
C108 C 0.44853 0.88537 0.11172 0.0
C109 C 0.43889 0.90766 0.15242 0.0
H110 H 0.41799 0.89036 0.21288 0.0
H111 H 0.42829 0.75302 0.12414 0.0
C112 C 0.41516 0.6072 0.3225 0.0
N113 N 0.42276 0.65827 0.30874 0.0
C114 C 0.42836 0.57642 0.35414 0.0
C115 C 0.45754 0.65031 0.3554 0.0
C116 C 0.44384 0.67943 0.32342 0.0
C117 C 0.44962 0.59846 0.3718 0.0
H118 H 0.39884 0.59031 0.3091 0.0
H119 H 0.44975 0.71965 0.3112 0.0
C120 C 0.36692 0.8269 0.17219 0.0
N121 N 0.36631 0.91096 0.1073 0.0
C122 C 0.36584 0.88257 0.18614 0.0
C123 C 0.36743 0.81387 0.12531 0.0
C124 C 0.36559 0.9245 0.15277 0.0
C125 C 0.36719 0.857 0.09302 0.0
C126 C 0.35769 0.66088 0.30611 0.0
C127 C 0.35289 0.60708 0.29019 0.0
C128 C 0.35063 0.67621 0.35052 0.0
C129 C 0.34145 0.56919 0.31922 0.0
C130 C 0.33922 0.63714 0.3785 0.0
N131 N 0.33492 0.58487 0.36242 0.0
C132 C 0.35185 0.6094 0.16175 0.0
C133 C 0.32827 0.69012 0.17223 0.0
C134 C 0.33287 0.58179 0.14082 0.0
N135 N 0.34924 0.66269 0.17687 0.0
C136 C 0.30869 0.66371 0.15267 0.0
C137 C 0.31066 0.60842 0.137 0.0
H138 H 0.36831 0.58736 0.16734 0.0
H139 H 0.3265 0.73204 0.18549 0.0
C140 C 0.36102 0.87386 0.32638 0.0
N141 N 0.3537 0.8251 0.30727 0.0
C142 C 0.34462 0.90878 0.34814 0.0
C143 C 0.31373 0.84188 0.33089 0.0
C144 C 0.3307 0.80834 0.30962 0.0
C145 C 0.32049 0.89348 0.34965 0.0
H146 H 0.37936 0.8867 0.32327 0.0
H147 H 0.32539 0.76974 0.29334 0.0
O148 O 0.40754 0.69273 0.2027 0.0
O149 O 0.40878 0.78645 0.27609 0.0
O150 O 0.36779 0.78536 0.2043 0.0
O151 O 0.36854 0.69886 0.27788 0.0
H152 H 0.42413 0.59334 0.22555 0.0
H153 H 0.39636 0.69175 0.11388 0.0
H154 H 0.42891 0.51401 0.17159 0.0
H155 H 0.40206 0.61105 0.06173 0.0
H156 H 0.40615 0.77393 0.43228 0.0
H157 H 0.43755 0.8703 0.29493 0.0
H158 H 0.39452 0.74091 0.35456 0.0
H159 H 0.44857 0.90108 0.37374 0.0
H160 H 0.45128 0.81006 0.07037 0.0
H161 H 0.44178 0.95078 0.16185 0.0
H162 H 0.42192 0.53589 0.36476 0.0
H163 H 0.47377 0.66906 0.36812 0.0
H164 H 0.36546 0.89325 0.22234 0.0
H165 H 0.36817 0.77092 0.11405 0.0
H166 H 0.36492 0.96781 0.16303 0.0
H167 H 0.36774 0.84759 0.0566 0.0
H168 H 0.35832 0.59436 0.2561 0.0
H169 H 0.3538 0.71791 0.36326 0.0
H170 H 0.33781 0.52729 0.30743 0.0
H171 H 0.33372 0.64842 0.41296 0.0
H172 H 0.33552 0.5395 0.12895 0.0
H173 H 0.29194 0.68587 0.15195 0.0
H174 H 0.35062 0.94808 0.36228 0.0
H175 H 0.29531 0.82884 0.33025 0.0
Li176 Li 0.86673 0.77619 0.72903 0.0
Li177 Li 0.89904 0.78655 0.78029 0.0
Li178 Li 0.89904 0.71223 0.7241 0.0
Li179 Li 0.87166 0.71107 0.79066 0.0
C180 C 0.90284 0.84826 0.70018 0.0
N181 N 0.90867 0.95897 0.67654 0.0
C182 C 0.88787 0.88893 0.71885 0.0
C183 C 0.92076 0.86391 0.66946 0.0
C184 C 0.89111 0.94465 0.70647 0.0
C185 C 0.92343 0.92009 0.65794 0.0
C186 C 0.86197 0.80458 0.84106 0.0
C187 C 0.87339 0.7947 0.92069 0.0
N188 N 0.8564 0.83227 0.93279 0.0
C189 C 0.8446 0.84299 0.85429 0.0
C190 C 0.87648 0.7801 0.87451 0.0
C191 C 0.84206 0.85647 0.90084 0.0
C192 C 0.8206 0.81045 0.71593 0.0
N193 N 0.84217 0.8111 0.695 0.0
C194 C 0.82579 0.85566 0.62865 0.0
C195 C 0.84516 0.83274 0.6521 0.0
C196 C 0.80325 0.8553 0.64948 0.0
C197 C 0.8008 0.83223 0.69365 0.0
H198 H 0.81882 0.79255 0.74993 0.0
H199 H 0.8625 0.83181 0.63601 0.0
C200 C 0.94075 0.82032 0.82481 0.0
N201 N 0.91849 0.83701 0.81322 0.0
C202 C 0.95469 0.85311 0.85388 0.0
C203 C 0.92278 0.92057 0.85697 0.0
C204 C 0.90948 0.88645 0.82795 0.0
C205 C 0.94552 0.90348 0.87106 0.0
H206 H 0.94738 0.78067 0.81262 0.0
H207 H 0.89167 0.89866 0.81841 0.0
C208 C 0.85002 0.68572 0.6893 0.0
N209 N 0.81919 0.67297 0.61604 0.0
C210 C 0.82667 0.66815 0.69691 0.0
C211 C 0.85774 0.6965 0.64441 0.0
C212 C 0.81134 0.66205 0.65942 0.0
C213 C 0.84188 0.68985 0.60784 0.0
C214 C 0.91526 0.65452 0.80107 0.0
C215 C 0.90358 0.60788 0.78315 0.0
C216 C 0.93534 0.64718 0.82871 0.0
C217 C 0.91222 0.55468 0.79315 0.0
C218 C 0.94342 0.59328 0.83796 0.0
N219 N 0.9318 0.54853 0.82011 0.0
C220 C 0.93931 0.68624 0.67076 0.0
C221 C 0.90834 0.61928 0.66793 0.0
C222 C 0.95289 0.65499 0.63986 0.0
N223 N 0.91748 0.668 0.68388 0.0
C224 C 0.92129 0.58672 0.63714 0.0
C225 C 0.94381 0.60464 0.62243 0.0
H226 H 0.94601 0.72536 0.68395 0.0
H227 H 0.89091 0.60581 0.67891 0.0
C228 C 0.82979 0.67786 0.82873 0.0
N229 N 0.85344 0.66775 0.8325 0.0
C230 C 0.81347 0.64435 0.8517 0.0
C231 C 0.84621 0.59275 0.88471 0.0
C232 C 0.86196 0.62807 0.86161 0.0
C233 C 0.82163 0.5997 0.87858 0.0
H234 H 0.8236 0.71045 0.80599 0.0
H235 H 0.88086 0.62217 0.86561 0.0
O236 O 0.90014 0.79331 0.71162 0.0
O237 O 0.86465 0.79152 0.79548 0.0
O238 O 0.86513 0.6935 0.72563 0.0
O239 O 0.90748 0.70725 0.7912 0.0
H240 H 0.87385 0.87773 0.74255 0.0
H241 H 0.93248 0.83291 0.65469 0.0
H242 H 0.87965 0.97653 0.72067 0.0
H243 H 0.93723 0.93279 0.63421 0.0
H244 H 0.88453 0.77619 0.94691 0.0
H245 H 0.83323 0.86227 0.82878 0.0
H246 H 0.89004 0.75031 0.86508 0.0
H247 H 0.8287 0.88621 0.91156 0.0
H248 H 0.82834 0.87299 0.59457 0.0
H249 H 0.78382 0.83206 0.71126 0.0
H250 H 0.97203 0.83809 0.86421 0.0
H251 H 0.91517 0.95946 0.86886 0.0
H252 H 0.8204 0.65951 0.73138 0.0
H253 H 0.87568 0.71081 0.63797 0.0
H254 H 0.79318 0.64871 0.66482 0.0
H255 H 0.84756 0.69842 0.57297 0.0
H256 H 0.88781 0.6125 0.76235 0.0
H257 H 0.9446 0.68278 0.8429 0.0
H258 H 0.9033 0.51827 0.7796 0.0
H259 H 0.95894 0.58703 0.85931 0.0
H260 H 0.97005 0.67066 0.62902 0.0
H261 H 0.91376 0.54781 0.62516 0.0
H262 H 0.79467 0.65083 0.84569 0.0
H263 H 0.85312 0.55899 0.90552 0.0
Li264 Li 0.61267 0.20071 0.70861 0.0
Li265 Li 0.5854 0.21061 0.77561 0.0
Li266 Li 0.58689 0.27951 0.71033 0.0
Li267 Li 0.61896 0.27471 0.76569 0.0
C268 C 0.57366 0.15364 0.68241 0.0
N269 N 0.56822 0.05947 0.62875 0.0
C270 C 0.56809 0.1026 0.7029 0.0
C271 C 0.57632 0.15692 0.63462 0.0
C272 C 0.56544 0.05544 0.67516 0.0
C273 C 0.57355 0.10879 0.6081 0.0
C274 C 0.63625 0.1778 0.80632 0.0
C275 C 0.65117 0.17734 0.88417 0.0
N276 N 0.67112 0.1507 0.86948 0.0
C277 C 0.65687 0.15019 0.79202 0.0
C278 C 0.63333 0.19128 0.85279 0.0
C279 C 0.6743 0.13694 0.82446 0.0
C280 C 0.64115 0.16519 0.6341 0.0
N281 N 0.62896 0.14788 0.67186 0.0
C282 C 0.64537 0.05658 0.66532 0.0
C283 C 0.63022 0.09442 0.68695 0.0
C284 C 0.65932 0.07409 0.62779 0.0
C285 C 0.65638 0.12864 0.61117 0.0
H286 H 0.63995 0.20804 0.62308 0.0
H287 H 0.62053 0.08214 0.7175 0.0
C288 C 0.54405 0.1892 0.82792 0.0
N289 N 0.56654 0.17204 0.81852 0.0
C290 C 0.53025 0.16028 0.86 0.0
C291 C 0.56319 0.0971 0.87196 0.0
C292 C 0.57622 0.12691 0.8395 0.0
C293 C 0.53982 0.11347 0.88248 0.0
H294 H 0.53686 0.22525 0.81042 0.0
H295 H 0.59409 0.11399 0.83097 0.0
C296 C 0.62482 0.32147 0.66775 0.0
N297 N 0.63055 0.40877 0.60673 0.0
C298 C 0.63523 0.3713 0.68239 0.0
C299 C 0.61749 0.31588 0.62198 0.0
C300 C 0.63795 0.41497 0.65101 0.0
C301 C 0.62047 0.36057 0.5917 0.0
C302 C 0.581 0.32872 0.81376 0.0
C303 C 0.57681 0.38531 0.80572 0.0
C304 C 0.5805 0.30832 0.85883 0.0
C305 C 0.57261 0.42076 0.84303 0.0
C306 C 0.57624 0.34509 0.89521 0.0
N307 N 0.57244 0.40009 0.88663 0.0
C308 C 0.55027 0.30242 0.64826 0.0
C309 C 0.57224 0.38234 0.67045 0.0
C310 C 0.53669 0.33409 0.61786 0.0
N311 N 0.56785 0.32673 0.67323 0.0
C312 C 0.55924 0.41554 0.64012 0.0
C313 C 0.54134 0.39126 0.6131 0.0
H314 H 0.54702 0.25823 0.65143 0.0
H315 H 0.58621 0.4007 0.69092 0.0
C316 C 0.66586 0.291 0.78726 0.0
N317 N 0.64408 0.31236 0.79695 0.0
C318 C 0.68614 0.31282 0.80783 0.0
C319 C 0.66156 0.38151 0.84559 0.0
C320 C 0.64157 0.35684 0.82554 0.0
C321 C 0.68435 0.35956 0.83687 0.0
H322 H 0.66747 0.25683 0.76324 0.0
H323 H 0.62425 0.37416 0.83217 0.0
O324 O 0.57686 0.20001 0.70905 0.0
O325 O 0.6191 0.1917 0.7749 0.0
O326 O 0.62194 0.27833 0.69802 0.0
O327 O 0.58495 0.29341 0.77757 0.0
H328 H 0.56602 0.09935 0.73983 0.0
H329 H 0.58075 0.19609 0.61828 0.0
H330 H 0.56122 0.01559 0.69055 0.0
H331 H 0.5757 0.11062 0.57111 0.0
H332 H 0.64917 0.18773 0.92021 0.0
H333 H 0.65957 0.13985 0.75617 0.0
H334 H 0.61753 0.2125 0.8645 0.0
H335 H 0.69039 0.11589 0.81382 0.0
H336 H 0.64729 0.01532 0.67992 0.0
H337 H 0.66653 0.14372 0.58204 0.0
H338 H 0.51223 0.17396 0.86659 0.0
H339 H 0.57147 0.06191 0.88889 0.0
H340 H 0.64103 0.37636 0.71765 0.0
H341 H 0.60922 0.27778 0.61016 0.0
H342 H 0.64589 0.45384 0.6619 0.0
H343 H 0.61468 0.35701 0.55631 0.0
H344 H 0.57691 0.40179 0.77111 0.0
H345 H 0.58319 0.26458 0.86572 0.0
H346 H 0.56948 0.46469 0.83731 0.0
H347 H 0.57587 0.32985 0.93026 0.0
H348 H 0.52314 0.31375 0.59738 0.0
H349 H 0.56317 0.45963 0.63776 0.0
H350 H 0.70302 0.29316 0.80049 0.0
H351 H 0.65908 0.41825 0.86664 0.0
H352 H 0.31901 0.00605 0.33508 0.0
H353 H 0.18157 0.02853 0.39983 0.0
H354 H 0.2795 0.87222 0.39855 0.0
H355 H 0.21993 0.14521 0.31499 0.0
H356 H 0.21927 0.98085 0.41729 0.0
H357 H 0.28525 0.06768 0.34688 0.0
C358 C 0.30347 0.98984 0.35255 0.0
C359 C 0.30199 0.93348 0.36512 0.0
C360 C 0.21945 0.01748 0.39552 0.0
C361 C 0.26289 0.00375 0.37753 0.0
C362 C 0.19803 0.04463 0.38575 0.0
C363 C 0.19784 0.09011 0.35553 0.0
C364 C 0.24063 0.0365 0.37509 0.0
C365 C 0.21946 0.10969 0.33797 0.0
C366 C 0.28406 0.02504 0.35887 0.0
C367 C 0.2812 0.91501 0.38723 0.0
N368 N 0.23996 0.08249 0.34769 0.0
N369 N 0.2623 0.94982 0.39208 0.0
H370 H 0.16563 0.52958 0.14044 0.0
H371 H 0.30072 0.49648 0.14634 0.0
H372 H 0.19737 0.37204 0.10427 0.0
H373 H 0.27093 0.64914 0.09205 0.0
H374 H 0.26328 0.44983 0.13108 0.0
H375 H 0.20349 0.57605 0.1232 0.0
C376 C 0.18044 0.50516 0.12769 0.0
C377 C 0.17856 0.44716 0.12365 0.0
C378 C 0.26514 0.49333 0.12178 0.0
C379 C 0.22176 0.49926 0.10542 0.0
C380 C 0.28664 0.5202 0.13025 0.0
C381 C 0.28914 0.57749 0.12124 0.0
C382 C 0.24574 0.52406 0.10536 0.0
C383 C 0.26975 0.60554 0.10118 0.0
C384 C 0.20195 0.53153 0.11784 0.0
C385 C 0.19819 0.41697 0.10746 0.0
N386 N 0.24868 0.57889 0.09493 0.0
N387 N 0.21922 0.44323 0.09995 0.0
H388 H 0.65984 0.96025 0.61554 0.0
H389 H 0.80123 0.95599 0.60552 0.0
H390 H 0.70411 0.1064 0.60232 0.0
H391 H 0.75796 0.81466 0.64298 0.0
H392 H 0.76533 0.00598 0.58217 0.0
H393 H 0.69498 0.90187 0.60418 0.0
C394 C 0.67684 0.9801 0.60953 0.0
C395 C 0.67904 0.03837 0.61084 0.0
C396 C 0.76372 0.96366 0.59476 0.0
C397 C 0.71927 0.97185 0.59763 0.0
C398 C 0.78422 0.93502 0.60782 0.0
C399 C 0.78247 0.8816 0.62706 0.0
C400 C 0.74137 0.93865 0.60109 0.0
C401 C 0.75999 0.85638 0.62935 0.0
C402 C 0.69688 0.94675 0.60289 0.0
C403 C 0.70145 0.06175 0.60164 0.0
N404 N 0.74027 0.88543 0.61718 0.0
N405 N 0.72073 0.02843 0.59617 0.0
H406 H 0.82581 0.48804 0.86571 0.0
H407 H 0.68991 0.42028 0.91758 0.0
H408 H 0.7784 0.61232 0.92142 0.0
H409 H 0.72913 0.36253 0.79847 0.0
H410 H 0.72524 0.47192 0.9422 0.0
H411 H 0.79347 0.42015 0.86817 0.0
C412 C 0.80884 0.50051 0.88007 0.0
C413 C 0.80462 0.556 0.89281 0.0
C414 C 0.72599 0.4469 0.91118 0.0
C415 C 0.76767 0.47887 0.89515 0.0
C416 C 0.70579 0.41788 0.89666 0.0
C417 C 0.70618 0.38693 0.85543 0.0
C418 C 0.74687 0.44373 0.88502 0.0
C419 C 0.72772 0.38447 0.83085 0.0
C420 C 0.79038 0.46191 0.88103 0.0
C421 C 0.7822 0.57004 0.91067 0.0
N422 N 0.7471 0.41248 0.84601 0.0
N423 N 0.76436 0.53183 0.91071 0.0
H424 H 0.98691 0.09664 0.10938 0.0
H425 H 0.99341 0.9255 0.87293 0.0
H426 H 0.0525 0.05819 0.03902 0.0
H427 H 0.92838 0.95581 0.94791 0.0
H428 H 0.01532 0.97645 0.93215 0.0
H429 H 0.965 0.0479 0.04898 0.0
C430 C -0.00331 0.07806 0.08115 0.0
C431 C 0.02157 0.08137 0.07928 0.0
C432 C -0.00376 0.97208 0.93556 0.0
C433 C -0.00336 0.02529 0.01014 0.0
C434 C 0.98374 0.94284 0.90184 0.0
C435 C 0.95902 0.93642 0.90542 0.0
C436 C 0.98394 -0.005 0.97317 0.0
C437 C 0.94738 0.96042 0.94334 0.0
C438 C 0.98419 0.05004 0.04677 0.0
C439 C 0.03335 0.05596 0.04218 0.0
N440 N 0.95994 0.98852 0.97575 0.0
N441 N 0.02078 0.02906 0.00904 0.0
H442 H 0.50823 0.15323 0.94704 0.0
H443 H 0.48842 0.85599 0.06348 0.0
H444 H 0.53895 0.00045 0.89548 0.0
H445 H 0.44099 0.99464 0.08708 0.0
H446 H 0.5102 0.91204 0.00778 0.0
H447 H 0.48591 0.09898 0.00384 0.0
C448 C 0.51019 0.10834 0.94739 0.0
C449 C 0.52563 0.08145 0.9165 0.0
C450 C 0.49501 0.93021 0.02511 0.0
C451 C 0.50051 0.01948 0.98194 0.0
C452 C 0.48249 0.89815 0.05682 0.0
C453 C 0.46266 0.92039 0.07971 0.0
C454 C 0.48784 0.98519 0.01637 0.0
C455 C 0.45626 0.97589 0.07053 0.0
C456 C 0.49754 0.0775 0.97999 0.0
C457 C 0.52768 0.02322 0.91912 0.0
N458 N 0.46881 0.00643 0.03948 0.0
N459 N 0.51536 0.99429 0.95135 0.0
H460 H 0.92706 0.54976 0.5464 0.0
H461 H 0.05496 0.4402 0.46709 0.0
H462 H 0.99177 0.58365 0.62118 0.0
H463 H 0.98945 0.39538 0.39924 0.0
H464 H 0.03226 0.49459 0.52299 0.0
H465 H 0.94974 0.49415 0.49153 0.0
C466 C 0.94603 0.54521 0.55148 0.0
C467 C 0.95751 0.57127 0.5886 0.0
C468 C 0.02284 0.47279 0.49594 0.0
C469 C 0.98366 0.50818 0.52544 0.0
C470 C 0.03579 0.44198 0.46387 0.0
C471 C 0.02407 0.41335 0.42838 0.0
C472 C -0.00202 0.4752 0.49241 0.0
C473 C -0.00081 0.41636 0.4263 0.0
C474 C 0.95899 0.51367 0.51997 0.0
C475 C 0.98221 0.56483 0.59283 0.0
N476 N 0.98698 0.4469 0.45779 0.0
N477 N -0.00554 0.5339 0.56163 0.0
H478 H 0.43174 0.53955 0.44477 0.0
H479 H 0.55889 0.46761 0.55203 0.0
H480 H 0.49805 0.5891 0.38191 0.0
H481 H 0.49349 0.39079 0.59675 0.0
H482 H 0.53665 0.51969 0.49382 0.0
H483 H 0.45394 0.49063 0.50438 0.0
C484 C 0.45097 0.53978 0.44322 0.0
C485 C 0.46303 0.56826 0.40802 0.0
C486 C 0.52717 0.49149 0.51642 0.0
C487 C 0.48857 0.51316 0.47686 0.0
C488 C 0.53981 0.46213 0.54983 0.0
C489 C 0.52798 0.42484 0.57915 0.0
C490 C 0.50251 0.48376 0.51255 0.0
C491 C 0.50331 0.4187 0.57448 0.0
C492 C 0.46364 0.51212 0.4775 0.0
C493 C 0.48799 0.56822 0.40859 0.0
N494 N 0.49138 0.4479 0.54181 0.0
N495 N 0.49994 0.54109 0.44248 0.0
loop_
_geom_bond_atom_site_label_1
_geom_bond_atom_site_label_2
_geom_bond_distance
_geom_bond_site_symmetry_2
_ccdc_geom_bond_type
Li0 N17 1.990 . S
Li0 O60 1.956 . S
Li0 O61 1.970 . S
Li0 O62 1.961 . S
Li1 N25 1.990 . S
Li1 O60 1.970 . S
Li1 O61 1.956 . S
Li1 O63 1.961 . S
Li2 N47 1.990 . S
Li2 O60 1.961 . S
Li2 O62 1.956 . S
Li2 O63 1.970 . S
Li3 N53 1.990 . S
Li3 O61 1.961 . S
Li3 O62 1.970 . S
Li3 O63 1.956 . S
C4 C6 1.348 . S
C4 C7 1.356 . S
C4 O60 1.325 . S
N5 C8 1.314 . S
N5 C9 1.279 . S
C6 C4 1.348 . S
C6 C8 1.353 . S
C6 H64 0.929 . S
C7 C4 1.356 . S
C7 C9 1.358 . S
C7 H65 0.930 . S
C8 N5 1.314 . S
C8 C6 1.353 . S
C8 H66 0.930 . S
C9 N5 1.279 . S
C9 C7 1.358 . S
C9 H67 0.930 . S
C10 C13 1.348 . S
C10 C14 1.356 . S
C10 O61 1.325 . S
C11 N12 1.279 . S
C11 C14 1.358 . S
C11 H68 0.930 . S
N12 C11 1.279 . S
N12 C15 1.314 . S
C13 C10 1.348 . S
C13 C15 1.353 . S
C13 H69 0.929 . S
C14 C10 1.356 . S
C14 C11 1.358 . S
C14 H70 0.930 . S
C15 N12 1.314 . S
C15 C13 1.353 . S
C15 H71 0.930 . S
C16 N17 1.314 . S
C16 C21 1.353 . S
C16 H22 0.930 . S
N17 Li0 1.990 . S
N17 C16 1.314 . S
N17 C19 1.279 . S
C18 C19 1.358 . S
C18 C20 1.356 . S
C18 H72 0.930 . S
C19 N17 1.279 . S
C19 C18 1.358 . S
C19 H23 0.930 . S
C20 C18 1.356 . S
C20 C21 1.348 . S
C21 C16 1.353 . S
C21 C20 1.348 . S
C21 H73 0.929 . S
H22 C16 0.930 . S
H23 C19 0.930 . S
C24 N25 1.314 . S
C24 C26 1.353 . S
C24 H30 0.930 . S
N25 Li1 1.990 . S
N25 C24 1.314 . S
N25 C28 1.279 . S
C26 C24 1.353 . S
C26 C29 1.348 . S
C26 H74 0.929 . S
C27 C28 1.358 . S
C27 C29 1.356 . S
C27 H75 0.930 . S
C28 N25 1.279 . S
C28 C27 1.358 . S
C28 H31 0.930 . S
C29 C26 1.348 . S
C29 C27 1.356 . S
H30 C24 0.930 . S
H31 C28 0.930 . S
C32 C34 1.348 . S
C32 C35 1.356 . S
C32 O62 1.325 . S
N33 C36 1.314 . S
N33 C37 1.279 . S
C34 C32 1.348 . S
C34 C36 1.353 . S
C34 H76 0.929 . S
C35 C32 1.356 . S
C35 C37 1.358 . S
C35 H77 0.930 . S
C36 N33 1.314 . S
C36 C34 1.353 . S
C36 H78 0.930 . S
C37 N33 1.279 . S
C37 C35 1.358 . S
C37 H79 0.930 . S
C38 C39 1.348 . S
C38 C40 1.356 . S
C38 O63 1.325 . S
C39 C38 1.348 . S
C39 C41 1.353 . S
C39 H80 0.929 . S
C40 C38 1.356 . S
C40 C42 1.358 . S
C40 H81 0.930 . S
C41 C39 1.353 . S
C41 N43 1.314 . S
C41 H82 0.930 . S
C42 C40 1.358 . S
C42 N43 1.279 . S
C42 H83 0.930 . S
N43 C41 1.314 . S
N43 C42 1.279 . S
C44 C46 1.353 . S
C44 N47 1.314 . S
C44 H50 0.930 . S
C45 N47 1.279 . S
C45 C48 1.358 . S
C45 H51 0.930 . S
C46 C44 1.353 . S
C46 C49 1.348 . S
C46 H84 0.929 . S
N47 Li2 1.990 . S
N47 C44 1.314 . S
N47 C45 1.279 . S
C48 C45 1.358 . S
C48 C49 1.356 . S
C48 H85 0.930 . S
C49 C46 1.348 . S
C49 C48 1.356 . S
H50 C44 0.930 . S
H51 C45 0.930 . S
C52 N53 1.314 . S
C52 C54 1.353 . S
C52 H58 0.930 . S
N53 Li3 1.990 . S
N53 C52 1.314 . S
N53 C56 1.279 . S
C54 C52 1.353 . S
C54 C57 1.348 . S
C54 H86 0.929 . S
C55 C56 1.358 . S
C55 C57 1.356 . S
C55 H87 0.930 . S
C56 N53 1.279 . S
C56 C55 1.358 . S
C56 H59 0.930 . S
C57 C54 1.348 . S
C57 C55 1.356 . S
H58 C52 0.930 . S
H59 C56 0.930 . S
O60 Li0 1.956 . S
O60 Li1 1.970 . S
O60 Li2 1.961 . S
O60 C4 1.325 . S
O61 Li0 1.970 . S
O61 Li1 1.956 . S
O61 Li3 1.961 . S
O61 C10 1.325 . S
O62 Li0 1.961 . S
O62 Li2 1.956 . S
O62 Li3 1.970 . S
O62 C32 1.325 . S
O63 Li1 1.961 . S
O63 Li2 1.970 . S
O63 Li3 1.956 . S
O63 C38 1.325 . S
H64 C6 0.929 . S
H65 C7 0.930 . S
H66 C8 0.930 . S
H67 C9 0.930 . S
H68 C11 0.930 . S
H69 C13 0.929 . S
H70 C14 0.930 . S
H71 C15 0.930 . S
H72 C18 0.930 . S
H73 C21 0.929 . S
H74 C26 0.929 . S
H75 C27 0.930 . S
H76 C34 0.929 . S
H77 C35 0.930 . S
H78 C36 0.930 . S
H79 C37 0.930 . S
H80 C39 0.929 . S
H81 C40 0.930 . S
H82 C41 0.930 . S
H83 C42 0.930 . S
H84 C46 0.929 . S
H85 C48 0.930 . S
H86 C54 0.929 . S
H87 C55 0.930 . S
Li88 N105 1.990 . S
Li88 O148 1.956 . S
Li88 O149 1.970 . S
Li88 O150 1.961 . S
Li89 N113 1.990 . S
Li89 O148 1.970 . S
Li89 O149 1.956 . S
Li89 O151 1.961 . S
Li90 N135 1.990 . S
Li90 O148 1.961 . S
Li90 O150 1.956 . S
Li90 O151 1.970 . S
Li91 N141 1.990 . S
Li91 O149 1.961 . S
Li91 O150 1.970 . S
Li91 O151 1.956 . S
C92 C94 1.348 . S
C92 C95 1.356 . S
C92 O148 1.325 . S
N93 C96 1.314 . S
N93 C97 1.279 . S
C94 C92 1.348 . S
C94 C96 1.353 . S
C94 H152 0.929 . S
C95 C92 1.356 . S
C95 C97 1.358 . S
C95 H153 0.930 . S
C96 N93 1.314 . S
C96 C94 1.353 . S
C96 H154 0.930 . S
C97 N93 1.279 . S
C97 C95 1.358 . S
C97 H155 0.930 . S
C98 C101 1.348 . S
C98 C102 1.356 . S
C98 O149 1.325 . S
C99 N100 1.279 . S
C99 C102 1.358 . S
C99 H156 0.930 . S
N100 C99 1.279 . S
N100 C103 1.314 . S
C101 C98 1.348 . S
C101 C103 1.353 . S
C101 H157 0.929 . S
C102 C98 1.356 . S
C102 C99 1.358 . S
C102 H158 0.930 . S
C103 N100 1.314 . S
C103 C101 1.353 . S
C103 H159 0.930 . S
C104 N105 1.314 . S
C104 C109 1.353 . S
C104 H110 0.930 . S
N105 Li88 1.990 . S
N105 C104 1.314 . S
N105 C107 1.279 . S
C106 C107 1.358 . S
C106 C108 1.356 . S
C106 H160 0.930 . S
C107 N105 1.279 . S
C107 C106 1.358 . S
C107 H111 0.930 . S
C108 C106 1.356 . S
C108 C109 1.348 . S
C109 C104 1.353 . S
C109 C108 1.348 . S
C109 H161 0.929 . S
H110 C104 0.930 . S
H111 C107 0.930 . S
C112 N113 1.314 . S
C112 C114 1.353 . S
C112 H118 0.930 . S
N113 Li89 1.990 . S
N113 C112 1.314 . S
N113 C116 1.279 . S
C114 C112 1.353 . S
C114 C117 1.348 . S
C114 H162 0.929 . S
C115 C116 1.358 . S
C115 C117 1.356 . S
C115 H163 0.930 . S
C116 N113 1.279 . S
C116 C115 1.358 . S
C116 H119 0.930 . S
C117 C114 1.348 . S
C117 C115 1.356 . S
H118 C112 0.930 . S
H119 C116 0.930 . S
C120 C122 1.348 . S
C120 C123 1.356 . S
C120 O150 1.325 . S
N121 C124 1.314 . S
N121 C125 1.279 . S
C122 C120 1.348 . S
C122 C124 1.353 . S
C122 H164 0.929 . S
C123 C120 1.356 . S
C123 C125 1.358 . S
C123 H165 0.930 . S
C124 N121 1.314 . S
C124 C122 1.353 . S
C124 H166 0.930 . S
C125 N121 1.279 . S
C125 C123 1.358 . S
C125 H167 0.930 . S
C126 C127 1.348 . S
C126 C128 1.356 . S
C126 O151 1.325 . S
C127 C126 1.348 . S
C127 C129 1.353 . S
C127 H168 0.929 . S
C128 C126 1.356 . S
C128 C130 1.358 . S
C128 H169 0.930 . S
C129 C127 1.353 . S
C129 N131 1.314 . S
C129 H170 0.930 . S
C130 C128 1.358 . S
C130 N131 1.279 . S
C130 H171 0.930 . S
N131 C129 1.314 . S
N131 C130 1.279 . S
C132 C134 1.353 . S
C132 N135 1.314 . S
C132 H138 0.930 . S
C133 N135 1.279 . S
C133 C136 1.358 . S
C133 H139 0.930 . S
C134 C132 1.353 . S
C134 C137 1.348 . S
C134 H172 0.929 . S
N135 Li90 1.990 . S
N135 C132 1.314 . S
N135 C133 1.279 . S
C136 C133 1.358 . S
C136 C137 1.356 . S
C136 H173 0.930 . S
C137 C134 1.348 . S
C137 C136 1.356 . S
H138 C132 0.930 . S
H139 C133 0.930 . S
C140 N141 1.314 . S
C140 C142 1.353 . S
C140 H146 0.930 . S
N141 Li91 1.990 . S
N141 C140 1.314 . S
N141 C144 1.279 . S
C142 C140 1.353 . S
C142 C145 1.348 . S
C142 H174 0.929 . S
C143 C144 1.358 . S
C143 C145 1.356 . S
C143 H175 0.930 . S
C144 N141 1.279 . S
C144 C143 1.358 . S
C144 H147 0.930 . S
C145 C142 1.348 . S
C145 C143 1.356 . S
H146 C140 0.930 . S
H147 C144 0.930 . S
O148 Li88 1.956 . S
O148 Li89 1.970 . S
O148 Li90 1.961 . S
O148 C92 1.325 . S
O149 Li88 1.970 . S
O149 Li89 1.956 . S
O149 Li91 1.961 . S
O149 C98 1.325 . S
O150 Li88 1.961 . S
O150 Li90 1.956 . S
O150 Li91 1.970 . S
O150 C120 1.325 . S
O151 Li89 1.961 . S
O151 Li90 1.970 . S
O151 Li91 1.956 . S
O151 C126 1.325 . S
H152 C94 0.929 . S
H153 C95 0.930 . S
H154 C96 0.930 . S
H155 C97 0.930 . S
H156 C99 0.930 . S
H157 C101 0.929 . S
H158 C102 0.930 . S
H159 C103 0.930 . S
H160 C106 0.930 . S
H161 C109 0.929 . S
H162 C114 0.929 . S
H163 C115 0.930 . S
H164 C122 0.929 . S
H165 C123 0.930 . S
H166 C124 0.930 . S
H167 C125 0.930 . S
H168 C127 0.929 . S
H169 C128 0.930 . S
H170 C129 0.930 . S
H171 C130 0.930 . S
H172 C134 0.929 . S
H173 C136 0.930 . S
H174 C142 0.929 . S
H175 C143 0.930 . S
Li176 N193 1.990 . S
Li176 O236 1.956 . S
Li176 O237 1.970 . S
Li176 O238 1.961 . S
Li177 N201 1.990 . S
Li177 O236 1.970 . S
Li177 O237 1.956 . S
Li177 O239 1.961 . S
Li178 N223 1.990 . S
Li178 O236 1.961 . S
Li178 O238 1.956 . S
Li178 O239 1.970 . S
Li179 N229 1.990 . S
Li179 O237 1.961 . S
Li179 O238 1.970 . S
Li179 O239 1.956 . S
C180 C182 1.348 . S
C180 C183 1.356 . S
C180 O236 1.325 . S
N181 C184 1.314 . S
N181 C185 1.279 . S
C182 C180 1.348 . S
C182 C184 1.353 . S
C182 H240 0.929 . S
C183 C180 1.356 . S
C183 C185 1.358 . S
C183 H241 0.930 . S
C184 N181 1.314 . S
C184 C182 1.353 . S
C184 H242 0.930 . S
C185 N181 1.279 . S
C185 C183 1.358 . S
C185 H243 0.930 . S
C186 C189 1.348 . S
C186 C190 1.356 . S
C186 O237 1.325 . S
C187 N188 1.279 . S
C187 C190 1.358 . S
C187 H244 0.930 . S
N188 C187 1.279 . S
N188 C191 1.314 . S
C189 C186 1.348 . S
C189 C191 1.353 . S
C189 H245 0.929 . S
C190 C186 1.356 . S
C190 C187 1.358 . S
C190 H246 0.930 . S
C191 N188 1.314 . S
C191 C189 1.353 . S
C191 H247 0.930 . S
C192 N193 1.314 . S
C192 C197 1.353 . S
C192 H198 0.930 . S
N193 Li176 1.990 . S
N193 C192 1.314 . S
N193 C195 1.279 . S
C194 C195 1.358 . S
C194 C196 1.356 . S
C194 H248 0.930 . S
C195 N193 1.279 . S
C195 C194 1.358 . S
C195 H199 0.930 . S
C196 C194 1.356 . S
C196 C197 1.348 . S
C197 C192 1.353 . S
C197 C196 1.348 . S
C197 H249 0.929 . S
H198 C192 0.930 . S
H199 C195 0.930 . S
C200 N201 1.314 . S
C200 C202 1.353 . S
C200 H206 0.930 . S
N201 Li177 1.990 . S
N201 C200 1.314 . S
N201 C204 1.279 . S
C202 C200 1.353 . S
C202 C205 1.348 . S
C202 H250 0.929 . S
C203 C204 1.358 . S
C203 C205 1.356 . S
C203 H251 0.930 . S
C204 N201 1.279 . S
C204 C203 1.358 . S
C204 H207 0.930 . S
C205 C202 1.348 . S
C205 C203 1.356 . S
H206 C200 0.930 . S
H207 C204 0.930 . S
C208 C210 1.348 . S
C208 C211 1.356 . S
C208 O238 1.325 . S
N209 C212 1.314 . S
N209 C213 1.279 . S
C210 C208 1.348 . S
C210 C212 1.353 . S
C210 H252 0.929 . S
C211 C208 1.356 . S
C211 C213 1.358 . S
C211 H253 0.930 . S
C212 N209 1.314 . S
C212 C210 1.353 . S
C212 H254 0.930 . S
C213 N209 1.279 . S
C213 C211 1.358 . S
C213 H255 0.930 . S
C214 C215 1.348 . S
C214 C216 1.356 . S
C214 O239 1.325 . S
C215 C214 1.348 . S
C215 C217 1.353 . S
C215 H256 0.929 . S
C216 C214 1.356 . S
C216 C218 1.358 . S
C216 H257 0.930 . S
C217 C215 1.353 . S
C217 N219 1.314 . S
C217 H258 0.930 . S
C218 C216 1.358 . S
C218 N219 1.279 . S
C218 H259 0.930 . S
N219 C217 1.314 . S
N219 C218 1.279 . S
C220 C222 1.353 . S
C220 N223 1.314 . S
C220 H226 0.930 . S
C221 N223 1.279 . S
C221 C224 1.358 . S
C221 H227 0.930 . S
C222 C220 1.353 . S
C222 C225 1.348 . S
C222 H260 0.929 . S
N223 Li178 1.990 . S
N223 C220 1.314 . S
N223 C221 1.279 . S
C224 C221 1.358 . S
C224 C225 1.356 . S
C224 H261 0.930 . S
C225 C222 1.348 . S
C225 C224 1.356 . S
H226 C220 0.930 . S
H227 C221 0.930 . S
C228 N229 1.314 . S
C228 C230 1.353 . S
C228 H234 0.930 . S
N229 Li179 1.990 . S
N229 C228 1.314 . S
N229 C232 1.279 . S
C230 C228 1.353 . S
C230 C233 1.348 . S
C230 H262 0.929 . S
C231 C232 1.358 . S
C231 C233 1.356 . S
C231 H263 0.930 . S
C232 N229 1.279 . S
C232 C231 1.358 . S
C232 H235 0.930 . S
C233 C230 1.348 . S
C233 C231 1.356 . S
H234 C228 0.930 . S
H235 C232 0.930 . S
O236 Li176 1.956 . S
O236 Li177 1.970 . S
O236 Li178 1.961 . S
O236 C180 1.325 . S
O237 Li176 1.970 . S
O237 Li177 1.956 . S
O237 Li179 1.961 . S
O237 C186 1.325 . S
O238 Li176 1.961 . S
O238 Li178 1.956 . S
O238 Li179 1.970 . S
O238 C208 1.325 . S
O239 Li177 1.961 . S
O239 Li178 1.970 . S
O239 Li179 1.956 . S
O239 C214 1.325 . S
H240 C182 0.929 . S
H241 C183 0.930 . S
H242 C184 0.930 . S
H243 C185 0.930 . S
H244 C187 0.930 . S
H245 C189 0.929 . S
H246 C190 0.930 . S
H247 C191 0.930 . S
H248 C194 0.930 . S
H249 C197 0.929 . S
H250 C202 0.929 . S
H251 C203 0.930 . S
H252 C210 0.929 . S
H253 C211 0.930 . S
H254 C212 0.930 . S
H255 C213 0.930 . S
H256 C215 0.929 . S
H257 C216 0.930 . S
H258 C217 0.930 . S
H259 C218 0.930 . S
H260 C222 0.929 . S
H261 C224 0.930 . S
H262 C230 0.929 . S
H263 C231 0.930 . S
Li264 N281 1.990 . S
Li264 O324 1.956 . S
Li264 O325 1.970 . S
Li264 O326 1.961 . S
Li265 N289 1.990 . S
Li265 O324 1.970 . S
Li265 O325 1.956 . S
Li265 O327 1.961 . S
Li266 N311 1.990 . S
Li266 O324 1.961 . S
Li266 O326 1.956 . S
Li266 O327 1.970 . S
Li267 N317 1.990 . S
Li267 O325 1.961 . S
Li267 O326 1.970 . S
Li267 O327 1.956 . S
C268 C270 1.348 . S
C268 C271 1.356 . S
C268 O324 1.325 . S
N269 C272 1.314 . S
N269 C273 1.279 . S
C270 C268 1.348 . S
C270 C272 1.353 . S
C270 H328 0.929 . S
C271 C268 1.356 . S
C271 C273 1.358 . S
C271 H329 0.930 . S
C272 N269 1.314 . S
C272 C270 1.353 . S
C272 H330 0.930 . S
C273 N269 1.279 . S
C273 C271 1.358 . S
C273 H331 0.930 . S
C274 C277 1.348 . S
C274 C278 1.356 . S
C274 O325 1.325 . S
C275 N276 1.279 . S
C275 C278 1.358 . S
C275 H332 0.930 . S
N276 C275 1.279 . S
N276 C279 1.314 . S
C277 C274 1.348 . S
C277 C279 1.353 . S
C277 H333 0.929 . S
C278 C274 1.356 . S
C278 C275 1.358 . S
C278 H334 0.930 . S
C279 N276 1.314 . S
C279 C277 1.353 . S
C279 H335 0.930 . S
C280 N281 1.314 . S
C280 C285 1.353 . S
C280 H286 0.930 . S
N281 Li264 1.990 . S
N281 C280 1.314 . S
N281 C283 1.279 . S
C282 C283 1.358 . S
C282 C284 1.356 . S
C282 H336 0.930 . S
C283 N281 1.279 . S
C283 C282 1.358 . S
C283 H287 0.930 . S
C284 C282 1.356 . S
C284 C285 1.348 . S
C285 C280 1.353 . S
C285 C284 1.348 . S
C285 H337 0.929 . S
H286 C280 0.930 . S
H287 C283 0.930 . S
C288 N289 1.314 . S
C288 C290 1.353 . S
C288 H294 0.930 . S
N289 Li265 1.990 . S
N289 C288 1.314 . S
N289 C292 1.279 . S
C290 C288 1.353 . S
C290 C293 1.348 . S
C290 H338 0.929 . S
C291 C292 1.358 . S
C291 C293 1.356 . S
C291 H339 0.930 . S
C292 N289 1.279 . S
C292 C291 1.358 . S
C292 H295 0.930 . S
C293 C290 1.348 . S
C293 C291 1.356 . S
H294 C288 0.930 . S
H295 C292 0.930 . S
C296 C298 1.348 . S
C296 C299 1.356 . S
C296 O326 1.325 . S
N297 C300 1.314 . S
N297 C301 1.279 . S
C298 C296 1.348 . S
C298 C300 1.353 . S
C298 H340 0.929 . S
C299 C296 1.356 . S
C299 C301 1.358 . S
C299 H341 0.930 . S
C300 N297 1.314 . S
C300 C298 1.353 . S
C300 H342 0.930 . S
C301 N297 1.279 . S
C301 C299 1.358 . S
C301 H343 0.930 . S
C302 C303 1.348 . S
C302 C304 1.356 . S
C302 O327 1.325 . S
C303 C302 1.348 . S
C303 C305 1.353 . S
C303 H344 0.929 . S
C304 C302 1.356 . S
C304 C306 1.358 . S
C304 H345 0.930 . S
C305 C303 1.353 . S
C305 N307 1.314 . S
C305 H346 0.930 . S
C306 C304 1.358 . S
C306 N307 1.279 . S
C306 H347 0.930 . S
N307 C305 1.314 . S
N307 C306 1.279 . S
C308 C310 1.353 . S
C308 N311 1.314 . S
C308 H314 0.930 . S
C309 N311 1.279 . S
C309 C312 1.358 . S
C309 H315 0.930 . S
C310 C308 1.353 . S
C310 C313 1.348 . S
C310 H348 0.929 . S
N311 Li266 1.990 . S
N311 C308 1.314 . S
N311 C309 1.279 . S
C312 C309 1.358 . S
C312 C313 1.356 . S
C312 H349 0.930 . S
C313 C310 1.348 . S
C313 C312 1.356 . S
H314 C308 0.930 . S
H315 C309 0.930 . S
C316 N317 1.314 . S
C316 C318 1.353 . S
C316 H322 0.930 . S
N317 Li267 1.990 . S
N317 C316 1.314 . S
N317 C320 1.279 . S
C318 C316 1.353 . S
C318 C321 1.348 . S
C318 H350 0.929 . S
C319 C320 1.358 . S
C319 C321 1.356 . S
C319 H351 0.930 . S
C320 N317 1.279 . S
C320 C319 1.358 . S
C320 H323 0.930 . S
C321 C318 1.348 . S
C321 C319 1.356 . S
H322 C316 0.930 . S
H323 C320 0.930 . S
O324 Li264 1.956 . S
O324 Li265 1.970 . S
O324 Li266 1.961 . S
O324 C268 1.325 . S
O325 Li264 1.970 . S
O325 Li265 1.956 . S
O325 Li267 1.961 . S
O325 C274 1.325 . S
O326 Li264 1.961 . S
O326 Li266 1.956 . S
O326 Li267 1.970 . S
O326 C296 1.325 . S
O327 Li265 1.961 . S
O327 Li266 1.970 . S
O327 Li267 1.956 . S
O327 C302 1.325 . S
H328 C270 0.929 . S
H329 C271 0.930 . S
H330 C272 0.930 . S
H331 C273 0.930 . S
H332 C275 0.930 . S
H333 C277 0.929 . S
H334 C278 0.930 . S
H335 C279 0.930 . S
H336 C282 0.930 . S
H337 C285 0.929 . S
H338 C290 0.929 . S
H339 C291 0.930 . S
H340 C298 0.929 . S
H341 C299 0.930 . S
H342 C300 0.930 . S
H343 C301 0.930 . S
H344 C303 0.929 . S
H345 C304 0.930 . S
H346 C305 0.930 . S
H347 C306 0.930 . S
H348 C310 0.929 . S
H349 C312 0.930 . S
H350 C318 0.929 . S
H351 C319 0.930 . S
H352 C358 0.930 . S
H353 C362 0.930 . S
H354 C367 0.929 . S
H355 C365 0.929 . S
H356 C360 0.929 . S
H357 C366 0.929 . S
C358 H352 0.930 . S
C358 C359 1.367 1_545 S
C358 C366 1.378 . S
C359 C358 1.367 1_565 S
C359 C367 1.433 . S
C360 H356 0.929 . S
C360 C362 1.378 . S
C360 C364 1.350 1_565 S
C361 C364 1.463 1_565 S
C361 C366 1.350 1_565 S
C361 N369 1.427 . S
C362 H353 0.930 . S
C362 C360 1.378 . S
C362 C363 1.367 1_565 S
C363 C362 1.367 1_545 S
C363 C365 1.433 . S
C364 C360 1.350 1_545 S
C364 C361 1.463 1_545 S
C364 N368 1.427 . S
C365 H355 0.929 . S
C365 C363 1.433 . S
C365 N368 1.384 . S
C366 H357 0.929 . S
C366 C358 1.378 . S
C366 C361 1.350 1_545 S
C367 H354 0.929 . S
C367 C359 1.433 . S
C367 N369 1.384 . S
N368 C364 1.427 . S
N368 C365 1.384 . S
N369 C361 1.427 . S
N369 C367 1.384 . S
H370 C376 0.930 . S
H371 C380 0.930 . S
H372 C385 0.929 . S
H373 C383 0.929 . S
H374 C378 0.929 . S
H375 C384 0.929 . S
C376 H370 0.930 . S
C376 C377 1.367 . S
C376 C384 1.378 . S
C377 C376 1.367 . S
C377 C385 1.433 . S
C378 H374 0.929 . S
C378 C380 1.378 . S
C378 C382 1.350 . S
C379 C382 1.463 . S
C379 C384 1.350 . S
C379 N387 1.427 . S
C380 H371 0.930 . S
C380 C378 1.378 . S
C380 C381 1.367 . S
C381 C380 1.367 . S
C381 C383 1.433 . S
C382 C378 1.350 . S
C382 C379 1.463 . S
C382 N386 1.427 . S
C383 H373 0.929 . S
C383 C381 1.433 . S
C383 N386 1.384 . S
C384 H375 0.929 . S
C384 C376 1.378 . S
C384 C379 1.350 . S
C385 H372 0.929 . S
C385 C377 1.433 . S
C385 N387 1.384 . S
N386 C382 1.427 . S
N386 C383 1.384 . S
N387 C379 1.427 . S
N387 C385 1.384 . S
H388 C394 0.930 . S
H389 C398 0.930 . S
H390 C403 0.929 . S
H391 C401 0.929 . S
H392 C396 0.929 . S
H393 C402 0.929 . S
C394 H388 0.930 . S
C394 C395 1.367 1_565 S
C394 C402 1.378 . S
C395 C394 1.367 1_545 S
C395 C403 1.433 . S
C396 H392 0.929 . S
C396 C398 1.378 . S
C396 C400 1.350 1_545 S
C397 C400 1.463 1_545 S
C397 C402 1.350 1_545 S
C397 N405 1.427 . S
C398 H389 0.930 . S
C398 C396 1.378 . S
C398 C399 1.367 1_545 S
C399 C398 1.367 1_565 S
C399 C401 1.433 . S
C400 C396 1.350 1_565 S
C400 C397 1.463 1_565 S
C400 N404 1.427 . S
C401 H391 0.929 . S
C401 C399 1.433 . S
C401 N404 1.384 . S
C402 H393 0.929 . S
C402 C394 1.378 . S
C402 C397 1.350 1_565 S
C403 H390 0.929 . S
C403 C395 1.433 . S
C403 N405 1.384 . S
N404 C400 1.427 . S
N404 C401 1.384 . S
N405 C397 1.427 . S
N405 C403 1.384 . S
H406 C412 0.930 . S
H407 C416 0.930 . S
H408 C421 0.929 . S
H409 C419 0.929 . S
H410 C414 0.929 . S
H411 C420 0.929 . S
C412 H406 0.930 . S
C412 C413 1.367 . S
C412 C420 1.378 . S
C413 C412 1.367 . S
C413 C421 1.433 . S
C414 H410 0.929 . S
C414 C416 1.378 . S
C414 C418 1.350 . S
C415 C418 1.463 . S
C415 C420 1.350 . S
C415 N423 1.427 . S
C416 H407 0.930 . S
C416 C414 1.378 . S
C416 C417 1.367 . S
C417 C416 1.367 . S
C417 C419 1.433 . S
C418 C414 1.350 . S
C418 C415 1.463 . S
C418 N422 1.427 . S
C419 H409 0.929 . S
C419 C417 1.433 . S
C419 N422 1.384 . S
C420 H411 0.929 . S
C420 C412 1.378 . S
C420 C415 1.350 . S
C421 H408 0.929 . S
C421 C413 1.433 . S
C421 N423 1.384 . S
N422 C418 1.427 . S
N422 C419 1.384 . S
N423 C415 1.427 . S
N423 C421 1.384 . S
H424 C430 0.930 . S
H425 C434 0.930 . S
H426 C439 0.944 . S
H427 C437 0.941 . S
H428 C432 0.929 1_455 S
H429 C438 0.929 1_655 S
C430 H424 0.930 . S
C430 C431 1.367 . S
C430 C438 1.378 . S
C431 C430 1.367 . S
C431 C439 1.409 1_554 S
C432 H428 0.929 1_655 S
C432 C434 1.378 . S
C432 C436 1.350 . S
C433 C436 1.463 1_444 S
C433 C438 1.350 . S
C433 N441 1.427 1_554 S
C434 H425 0.930 . S
C434 C432 1.378 . S
C434 C435 1.367 . S
C435 C434 1.367 . S
C435 C437 1.413 1_556 S
C436 C432 1.350 . S
C436 C433 1.463 1_666 S
C436 N440 1.427 1_556 S
C437 H427 0.941 . S
C437 C435 1.413 1_554 S
C437 N440 1.392 . S
C438 H429 0.929 1_455 S
C438 C430 1.378 . S
C438 C433 1.350 . S
C439 H426 0.944 . S
C439 C431 1.409 1_556 S
C439 N441 1.393 . S
N440 C436 1.427 1_554 S
N440 C437 1.392 . S
N441 C433 1.427 1_556 S
N441 C439 1.393 . S
H442 C448 0.930 . S
H443 C452 0.930 . S
H444 C457 0.929 . S
H445 C455 0.929 . S
H446 C450 0.929 . S
H447 C456 0.929 . S
C448 H442 0.930 . S
C448 C449 1.367 . S
C448 C456 1.378 . S
C449 C448 1.367 . S
C449 C457 1.433 . S
C450 H446 0.929 . S
C450 C452 1.378 . S
C450 C454 1.350 . S
C451 C454 1.463 1_546 S
C451 C456 1.350 . S
C451 N459 1.427 . S
C452 H443 0.930 . S
C452 C450 1.378 . S
C452 C453 1.367 . S
C453 C452 1.367 . S
C453 C455 1.433 . S
C454 C450 1.350 . S
C454 C451 1.463 1_564 S
C454 N458 1.427 . S
C455 H445 0.929 . S
C455 C453 1.433 . S
C455 N458 1.384 . S
C456 H447 0.929 . S
C456 C448 1.378 . S
C456 C451 1.350 . S
C457 H444 0.929 . S
C457 C449 1.433 . S
C457 N459 1.384 . S
N458 C454 1.427 . S
N458 C455 1.384 . S
N459 C451 1.427 . S
N459 C457 1.384 . S
H460 C466 0.930 . S
H461 C470 0.930 . S
H462 C475 0.929 . S
H463 C473 0.929 . S
H464 C468 0.929 . S
H465 C474 0.929 . S
C466 H460 0.930 . S
C466 C467 1.367 . S
C466 C474 1.378 . S
C467 C466 1.367 . S
C467 C475 1.433 . S
C468 H464 0.929 . S
C468 C470 1.378 . S
C468 C472 1.350 . S
C469 C472 1.463 1_655 S
C469 C474 1.350 . S
C469 N477 1.427 . S
C470 H461 0.930 . S
C470 C468 1.378 . S
C470 C471 1.367 . S
C471 C470 1.367 . S
C471 C473 1.433 . S
C472 C468 1.350 . S
C472 C469 1.463 1_455 S
C472 N476 1.427 . S
C473 H463 0.929 . S
C473 C471 1.433 . S
C473 N476 1.384 . S
C474 H465 0.929 . S
C474 C466 1.378 . S
C474 C469 1.350 . S
C475 H462 0.929 . S
C475 C467 1.433 . S
C475 N477 1.384 . S
N476 C472 1.427 . S
N476 C473 1.384 . S
N477 C469 1.427 . S
N477 C475 1.384 . S
H478 C484 0.930 . S
H479 C488 0.930 . S
H480 C493 0.929 . S
H481 C491 0.929 . S
H482 C486 0.929 . S
H483 C492 0.929 . S
C484 H478 0.930 . S
C484 C485 1.367 . S
C484 C492 1.378 . S
C485 C484 1.367 . S
C485 C493 1.433 . S
C486 H482 0.929 . S
C486 C488 1.378 . S
C486 C490 1.350 . S
C487 C490 1.463 . S
C487 C492 1.350 . S
C487 N495 1.427 . S
C488 H479 0.930 . S
C488 C486 1.378 . S
C488 C489 1.367 . S
C489 C488 1.367 . S
C489 C491 1.433 . S
C490 C486 1.350 . S
C490 C487 1.463 . S
C490 N494 1.427 . S
C491 H481 0.929 . S
C491 C489 1.433 . S
C491 N494 1.384 . S
C492 H483 0.929 . S
C492 C484 1.378 . S
C492 C487 1.350 . S
C493 H480 0.929 . S
C493 C485 1.433 . S
C493 N495 1.384 . S
N494 C490 1.427 . S
N494 C491 1.384 . S
N495 C487 1.427 . S
N495 C493 1.384 . S
C359 C145 0.780 . S
C363 C29 0.793 . S
C377 C20 0.796 . S
C381 C137 0.786 . S
C395 C284 0.801 . S
C399 C196 0.798 . S
C413 C233 0.793 . S
C417 C321 0.801 . S
C431 C49 1.870 . S
C435 C205 1.866 . S
C449 C293 1.873 . S
C453 C108 1.877 . S
C467 C225 1.874 . S
C471 C57 1.879 . S
C485 C117 1.875 . S
C489 C313 1.871 . S
