# Generated by pormake.
# Topology lcv-a, (4)-cn, num edge types: 1
# Building blocks:
#     Node 0, Type 0, BuildingBlock: CEKHIL_clean_sbu_0, # of connection points: 4
#     Node 1, Type 0, BuildingBlock: CEKHIL_clean_sbu_0, # of connection points: 4
#     Node 2, Type 0, BuildingBlock: CEKHIL_clean_sbu_0, # of connection points: 4
#     Node 3, Type 0, BuildingBlock: CEKHIL_clean_sbu_0, # of connection points: 4
#     Node 4, Type 0, BuildingBlock: CEKHIL_clean_sbu_0, # of connection points: 4
#     Node 5, Type 0, BuildingBlock: CEKHIL_clean_sbu_0, # of connection points: 4
#     Node 6, Type 0, BuildingBlock: CEKHIL_clean_sbu_0, # of connection points: 4
#     Node 7, Type 0, BuildingBlock: CEKHIL_clean_sbu_0, # of connection points: 4
#     Node 8, Type 0, BuildingBlock: CEKHIL_clean_sbu_0, # of connection points: 4
#     Node 9, Type 0, BuildingBlock: CEKHIL_clean_sbu_0, # of connection points: 4
#     Node 10, Type 0, BuildingBlock: CEKHIL_clean_sbu_0, # of connection points: 4
#     Node 11, Type 0, BuildingBlock: CEKHIL_clean_sbu_0, # of connection points: 4
#     Node 12, Type 0, BuildingBlock: CEKHIL_clean_sbu_0, # of connection points: 4
#     Node 13, Type 0, BuildingBlock: CEKHIL_clean_sbu_0, # of connection points: 4
#     Node 14, Type 0, BuildingBlock: CEKHIL_clean_sbu_0, # of connection points: 4
#     Node 15, Type 0, BuildingBlock: CEKHIL_clean_sbu_0, # of connection points: 4
#     Node 16, Type 0, BuildingBlock: CEKHIL_clean_sbu_0, # of connection points: 4
#     Node 17, Type 0, BuildingBlock: CEKHIL_clean_sbu_0, # of connection points: 4
#     Node 18, Type 0, BuildingBlock: CEKHIL_clean_sbu_0, # of connection points: 4
#     Node 19, Type 0, BuildingBlock: CEKHIL_clean_sbu_0, # of connection points: 4
#     Node 20, Type 0, BuildingBlock: CEKHIL_clean_sbu_0, # of connection points: 4
#     Node 21, Type 0, BuildingBlock: CEKHIL_clean_sbu_0, # of connection points: 4
#     Node 22, Type 0, BuildingBlock: CEKHIL_clean_sbu_0, # of connection points: 4
#     Node 23, Type 0, BuildingBlock: CEKHIL_clean_sbu_0, # of connection points: 4
#     Node 24, Type 0, BuildingBlock: CEKHIL_clean_sbu_0, # of connection points: 4
#     Node 25, Type 0, BuildingBlock: CEKHIL_clean_sbu_0, # of connection points: 4
#     Node 26, Type 0, BuildingBlock: CEKHIL_clean_sbu_0, # of connection points: 4
#     Node 27, Type 0, BuildingBlock: CEKHIL_clean_sbu_0, # of connection points: 4
#     Node 28, Type 0, BuildingBlock: CEKHIL_clean_sbu_0, # of connection points: 4
#     Node 29, Type 0, BuildingBlock: CEKHIL_clean_sbu_0, # of connection points: 4
#     Node 30, Type 0, BuildingBlock: CEKHIL_clean_sbu_0, # of connection points: 4
#     Node 31, Type 0, BuildingBlock: CEKHIL_clean_sbu_0, # of connection points: 4
#     Node 32, Type 0, BuildingBlock: CEKHIL_clean_sbu_0, # of connection points: 4
#     Node 33, Type 0, BuildingBlock: CEKHIL_clean_sbu_0, # of connection points: 4
#     Node 34, Type 0, BuildingBlock: CEKHIL_clean_sbu_0, # of connection points: 4
#     Node 35, Type 0, BuildingBlock: CEKHIL_clean_sbu_0, # of connection points: 4
#     Node 36, Type 0, BuildingBlock: CEKHIL_clean_sbu_0, # of connection points: 4
#     Node 37, Type 0, BuildingBlock: CEKHIL_clean_sbu_0, # of connection points: 4
#     Node 38, Type 0, BuildingBlock: CEKHIL_clean_sbu_0, # of connection points: 4
#     Node 39, Type 0, BuildingBlock: CEKHIL_clean_sbu_0, # of connection points: 4
#     Node 40, Type 0, BuildingBlock: CEKHIL_clean_sbu_0, # of connection points: 4
#     Node 41, Type 0, BuildingBlock: CEKHIL_clean_sbu_0, # of connection points: 4
#     Node 42, Type 0, BuildingBlock: CEKHIL_clean_sbu_0, # of connection points: 4
#     Node 43, Type 0, BuildingBlock: CEKHIL_clean_sbu_0, # of connection points: 4
#     Node 44, Type 0, BuildingBlock: CEKHIL_clean_sbu_0, # of connection points: 4
#     Node 45, Type 0, BuildingBlock: CEKHIL_clean_sbu_0, # of connection points: 4
#     Node 46, Type 0, BuildingBlock: CEKHIL_clean_sbu_0, # of connection points: 4
#     Node 47, Type 0, BuildingBlock: CEKHIL_clean_sbu_0, # of connection points: 4
#     Edge 48, Type (0, 0), BuildingBlock: ZUJKAS_clean_linker_0, # of connection points: 2
#     Edge 49, Type (0, 0), BuildingBlock: ZUJKAS_clean_linker_0, # of connection points: 2
#     Edge 50, Type (0, 0), BuildingBlock: ZUJKAS_clean_linker_0, # of connection points: 2
#     Edge 51, Type (0, 0), BuildingBlock: ZUJKAS_clean_linker_0, # of connection points: 2
#     Edge 52, Type (0, 0), BuildingBlock: ZUJKAS_clean_linker_0, # of connection points: 2
#     Edge 53, Type (0, 0), BuildingBlock: ZUJKAS_clean_linker_0, # of connection points: 2
#     Edge 54, Type (0, 0), BuildingBlock: ZUJKAS_clean_linker_0, # of connection points: 2
#     Edge 55, Type (0, 0), BuildingBlock: ZUJKAS_clean_linker_0, # of connection points: 2
#     Edge 56, Type (0, 0), BuildingBlock: ZUJKAS_clean_linker_0, # of connection points: 2
#     Edge 57, Type (0, 0), BuildingBlock: ZUJKAS_clean_linker_0, # of connection points: 2
#     Edge 58, Type (0, 0), BuildingBlock: ZUJKAS_clean_linker_0, # of connection points: 2
#     Edge 59, Type (0, 0), BuildingBlock: ZUJKAS_clean_linker_0, # of connection points: 2
#     Edge 60, Type (0, 0), BuildingBlock: ZUJKAS_clean_linker_0, # of connection points: 2
#     Edge 61, Type (0, 0), BuildingBlock: ZUJKAS_clean_linker_0, # of connection points: 2
#     Edge 62, Type (0, 0), BuildingBlock: ZUJKAS_clean_linker_0, # of connection points: 2
#     Edge 63, Type (0, 0), BuildingBlock: ZUJKAS_clean_linker_0, # of connection points: 2
#     Edge 64, Type (0, 0), BuildingBlock: ZUJKAS_clean_linker_0, # of connection points: 2
#     Edge 65, Type (0, 0), BuildingBlock: ZUJKAS_clean_linker_0, # of connection points: 2
#     Edge 66, Type (0, 0), BuildingBlock: ZUJKAS_clean_linker_0, # of connection points: 2
#     Edge 67, Type (0, 0), BuildingBlock: ZUJKAS_clean_linker_0, # of connection points: 2
#     Edge 68, Type (0, 0), BuildingBlock: ZUJKAS_clean_linker_0, # of connection points: 2
#     Edge 69, Type (0, 0), BuildingBlock: ZUJKAS_clean_linker_0, # of connection points: 2
#     Edge 70, Type (0, 0), BuildingBlock: ZUJKAS_clean_linker_0, # of connection points: 2
#     Edge 71, Type (0, 0), BuildingBlock: ZUJKAS_clean_linker_0, # of connection points: 2
#     Edge 72, Type (0, 0), BuildingBlock: ZUJKAS_clean_linker_0, # of connection points: 2
#     Edge 73, Type (0, 0), BuildingBlock: ZUJKAS_clean_linker_0, # of connection points: 2
#     Edge 74, Type (0, 0), BuildingBlock: ZUJKAS_clean_linker_0, # of connection points: 2
#     Edge 75, Type (0, 0), BuildingBlock: ZUJKAS_clean_linker_0, # of connection points: 2
#     Edge 76, Type (0, 0), BuildingBlock: ZUJKAS_clean_linker_0, # of connection points: 2
#     Edge 77, Type (0, 0), BuildingBlock: ZUJKAS_clean_linker_0, # of connection points: 2
#     Edge 78, Type (0, 0), BuildingBlock: ZUJKAS_clean_linker_0, # of connection points: 2
#     Edge 79, Type (0, 0), BuildingBlock: ZUJKAS_clean_linker_0, # of connection points: 2
#     Edge 80, Type (0, 0), BuildingBlock: ZUJKAS_clean_linker_0, # of connection points: 2
#     Edge 81, Type (0, 0), BuildingBlock: ZUJKAS_clean_linker_0, # of connection points: 2
#     Edge 82, Type (0, 0), BuildingBlock: ZUJKAS_clean_linker_0, # of connection points: 2
#     Edge 83, Type (0, 0), BuildingBlock: ZUJKAS_clean_linker_0, # of connection points: 2
#     Edge 84, Type (0, 0), BuildingBlock: ZUJKAS_clean_linker_0, # of connection points: 2
#     Edge 85, Type (0, 0), BuildingBlock: ZUJKAS_clean_linker_0, # of connection points: 2
#     Edge 86, Type (0, 0), BuildingBlock: ZUJKAS_clean_linker_0, # of connection points: 2
#     Edge 87, Type (0, 0), BuildingBlock: ZUJKAS_clean_linker_0, # of connection points: 2
#     Edge 88, Type (0, 0), BuildingBlock: ZUJKAS_clean_linker_0, # of connection points: 2
#     Edge 89, Type (0, 0), BuildingBlock: ZUJKAS_clean_linker_0, # of connection points: 2
#     Edge 90, Type (0, 0), BuildingBlock: ZUJKAS_clean_linker_0, # of connection points: 2
#     Edge 91, Type (0, 0), BuildingBlock: ZUJKAS_clean_linker_0, # of connection points: 2
#     Edge 92, Type (0, 0), BuildingBlock: ZUJKAS_clean_linker_0, # of connection points: 2
#     Edge 93, Type (0, 0), BuildingBlock: ZUJKAS_clean_linker_0, # of connection points: 2
#     Edge 94, Type (0, 0), BuildingBlock: ZUJKAS_clean_linker_0, # of connection points: 2
#     Edge 95, Type (0, 0), BuildingBlock: ZUJKAS_clean_linker_0, # of connection points: 2
#     Edge 96, Type (0, 0), BuildingBlock: ZUJKAS_clean_linker_0, # of connection points: 2
#     Edge 97, Type (0, 0), BuildingBlock: ZUJKAS_clean_linker_0, # of connection points: 2
#     Edge 98, Type (0, 0), BuildingBlock: ZUJKAS_clean_linker_0, # of connection points: 2
#     Edge 99, Type (0, 0), BuildingBlock: ZUJKAS_clean_linker_0, # of connection points: 2
#     Edge 100, Type (0, 0), BuildingBlock: ZUJKAS_clean_linker_0, # of connection points: 2
#     Edge 101, Type (0, 0), BuildingBlock: ZUJKAS_clean_linker_0, # of connection points: 2
#     Edge 102, Type (0, 0), BuildingBlock: ZUJKAS_clean_linker_0, # of connection points: 2
#     Edge 103, Type (0, 0), BuildingBlock: ZUJKAS_clean_linker_0, # of connection points: 2
#     Edge 104, Type (0, 0), BuildingBlock: ZUJKAS_clean_linker_0, # of connection points: 2
#     Edge 105, Type (0, 0), BuildingBlock: ZUJKAS_clean_linker_0, # of connection points: 2
#     Edge 106, Type (0, 0), BuildingBlock: ZUJKAS_clean_linker_0, # of connection points: 2
#     Edge 107, Type (0, 0), BuildingBlock: ZUJKAS_clean_linker_0, # of connection points: 2
#     Edge 108, Type (0, 0), BuildingBlock: ZUJKAS_clean_linker_0, # of connection points: 2
#     Edge 109, Type (0, 0), BuildingBlock: ZUJKAS_clean_linker_0, # of connection points: 2
#     Edge 110, Type (0, 0), BuildingBlock: ZUJKAS_clean_linker_0, # of connection points: 2
#     Edge 111, Type (0, 0), BuildingBlock: ZUJKAS_clean_linker_0, # of connection points: 2
#     Edge 112, Type (0, 0), BuildingBlock: ZUJKAS_clean_linker_0, # of connection points: 2
#     Edge 113, Type (0, 0), BuildingBlock: ZUJKAS_clean_linker_0, # of connection points: 2
#     Edge 114, Type (0, 0), BuildingBlock: ZUJKAS_clean_linker_0, # of connection points: 2
#     Edge 115, Type (0, 0), BuildingBlock: ZUJKAS_clean_linker_0, # of connection points: 2
#     Edge 116, Type (0, 0), BuildingBlock: ZUJKAS_clean_linker_0, # of connection points: 2
#     Edge 117, Type (0, 0), BuildingBlock: ZUJKAS_clean_linker_0, # of connection points: 2
#     Edge 118, Type (0, 0), BuildingBlock: ZUJKAS_clean_linker_0, # of connection points: 2
#     Edge 119, Type (0, 0), BuildingBlock: ZUJKAS_clean_linker_0, # of connection points: 2
#     Edge 120, Type (0, 0), BuildingBlock: ZUJKAS_clean_linker_0, # of connection points: 2
#     Edge 121, Type (0, 0), BuildingBlock: ZUJKAS_clean_linker_0, # of connection points: 2
#     Edge 122, Type (0, 0), BuildingBlock: ZUJKAS_clean_linker_0, # of connection points: 2
#     Edge 123, Type (0, 0), BuildingBlock: ZUJKAS_clean_linker_0, # of connection points: 2
#     Edge 124, Type (0, 0), BuildingBlock: ZUJKAS_clean_linker_0, # of connection points: 2
#     Edge 125, Type (0, 0), BuildingBlock: ZUJKAS_clean_linker_0, # of connection points: 2
#     Edge 126, Type (0, 0), BuildingBlock: ZUJKAS_clean_linker_0, # of connection points: 2
#     Edge 127, Type (0, 0), BuildingBlock: ZUJKAS_clean_linker_0, # of connection points: 2
#     Edge 128, Type (0, 0), BuildingBlock: ZUJKAS_clean_linker_0, # of connection points: 2
#     Edge 129, Type (0, 0), BuildingBlock: ZUJKAS_clean_linker_0, # of connection points: 2
#     Edge 130, Type (0, 0), BuildingBlock: ZUJKAS_clean_linker_0, # of connection points: 2
#     Edge 131, Type (0, 0), BuildingBlock: ZUJKAS_clean_linker_0, # of connection points: 2
#     Edge 132, Type (0, 0), BuildingBlock: ZUJKAS_clean_linker_0, # of connection points: 2
#     Edge 133, Type (0, 0), BuildingBlock: ZUJKAS_clean_linker_0, # of connection points: 2
#     Edge 134, Type (0, 0), BuildingBlock: ZUJKAS_clean_linker_0, # of connection points: 2
#     Edge 135, Type (0, 0), BuildingBlock: ZUJKAS_clean_linker_0, # of connection points: 2
#     Edge 136, Type (0, 0), BuildingBlock: ZUJKAS_clean_linker_0, # of connection points: 2
#     Edge 137, Type (0, 0), BuildingBlock: ZUJKAS_clean_linker_0, # of connection points: 2
#     Edge 138, Type (0, 0), BuildingBlock: ZUJKAS_clean_linker_0, # of connection points: 2
#     Edge 139, Type (0, 0), BuildingBlock: ZUJKAS_clean_linker_0, # of connection points: 2
#     Edge 140, Type (0, 0), BuildingBlock: ZUJKAS_clean_linker_0, # of connection points: 2
#     Edge 141, Type (0, 0), BuildingBlock: ZUJKAS_clean_linker_0, # of connection points: 2
#     Edge 142, Type (0, 0), BuildingBlock: ZUJKAS_clean_linker_0, # of connection points: 2
#     Edge 143, Type (0, 0), BuildingBlock: ZUJKAS_clean_linker_0, # of connection points: 2
# Relax obj value: 0.879
# Max RMSD: 0.536
# Mean RMSD: 0.406
data_MOF--net-lcv-a--node1-CEKHIL_clean_sbu_0--edge1-ZUJKAS_clean_linker_0
_symmetry_space_group_name_H-M    P1
_symmetry_Int_Tables_number       1
_symmetry_cell_setting            triclinic
loop_
_symmetry_equiv_pos_as_xyz
'x, y, z'
_cell_length_a     109.92405
_cell_length_b     109.90607
_cell_length_c     109.95017
_cell_angle_alpha  90.041947
_cell_angle_beta   90.031648
_cell_angle_gamma 90.053292
loop_
_atom_site_label
_atom_site_type_symbol
_atom_site_fract_x
_atom_site_fract_y
_atom_site_fract_z
_atom_type_partial_charge
Co0 Co 0.03368 0.38209 0.24104 0.0
O1 O 0.0208 0.39084 0.2504 0.0
O2 O 0.02531 0.39489 0.23163 0.0
C3 C 0.03225 0.37444 0.26112 0.0
O4 O 0.04509 0.37693 0.22752 0.0
Co5 Co 0.04078 0.35498 0.24661 0.0
O6 O 0.05218 0.3584 0.23285 0.0
C7 C 0.01736 0.35927 0.23627 0.0
C8 C 0.01863 0.39741 0.24084 0.0
C9 C 0.05195 0.36759 0.22571 0.0
O10 O 0.0209 0.37032 0.23489 0.0
O11 O 0.02357 0.35142 0.24212 0.0
O12 O 0.02489 0.38284 0.2573 0.0
O13 O 0.04005 0.37129 0.2532 0.0
Co14 Co 0.9612 0.82136 0.46122 0.0
O15 O 0.9461 0.82368 0.4695 0.0
O16 O 0.94959 0.82882 0.4503 0.0
C17 C 0.97315 0.82787 0.47637 0.0
O18 O 0.9759 0.82067 0.44985 0.0
Co19 Co 0.97967 0.80254 0.471 0.0
O20 O 0.99094 0.81044 0.45921 0.0
C21 C 0.95767 0.79391 0.4586 0.0
C22 C 0.94193 0.82787 0.45929 0.0
C23 C 0.98702 0.81702 0.45049 0.0
O24 O 0.95547 0.80497 0.45557 0.0
O25 O 0.9665 0.79094 0.46559 0.0
O26 O 0.96816 0.83572 0.46904 0.0
O27 O 0.96986 0.81669 0.47494 0.0
Co28 Co 0.60063 0.74245 0.75248 0.0
O29 O 0.6075 0.72897 0.76106 0.0
O30 O 0.5945 0.72732 0.74574 0.0
C31 C 0.59555 0.75324 0.76886 0.0
O32 O 0.59147 0.75465 0.74168 0.0
Co33 Co 0.61329 0.76712 0.75363 0.0
O34 O 0.59782 0.77334 0.74706 0.0
C35 C 0.6205 0.74979 0.73475 0.0
C36 C 0.6013 0.72199 0.75385 0.0
C37 C 0.59063 0.76636 0.74126 0.0
O38 O 0.61421 0.74186 0.74048 0.0
O39 O 0.62139 0.76083 0.73835 0.0
O40 O 0.58863 0.74456 0.7649 0.0
O41 O 0.60617 0.75437 0.76375 0.0
Co42 Co 0.58674 0.32559 0.95658 0.0
O43 O 0.6007 0.32933 0.96632 0.0
O44 O 0.60116 0.31918 0.94888 0.0
C45 C 0.57489 0.31912 0.97168 0.0
O46 O 0.57405 0.3197 0.94424 0.0
Co47 Co 0.56349 0.34066 0.95944 0.0
O48 O 0.556 0.32795 0.94911 0.0
C49 C 0.5832 0.35063 0.94473 0.0
C50 C 0.60707 0.32386 0.95802 0.0
C51 C 0.56244 0.32067 0.94282 0.0
O52 O 0.58912 0.34094 0.94723 0.0
O53 O 0.57251 0.35269 0.94882 0.0
O54 O 0.58294 0.312 0.96682 0.0
O55 O 0.57506 0.33045 0.96829 0.0
Co56 Co 0.99062 0.75827 0.3553 0.0
O57 O 0.98576 0.74732 0.34165 0.0
O58 O 0.99041 0.74076 0.35964 0.0
C59 C 0.98692 0.76954 0.33721 0.0
O60 O 0.99621 0.76449 0.37175 0.0
Co61 Co 0.98085 0.78482 0.35731 0.0
O62 O 0.99213 0.78461 0.37163 0.0
C63 C 0.96376 0.76593 0.36139 0.0
C64 C 0.98693 0.73804 0.34884 0.0
C65 C 0.99691 0.77519 0.37652 0.0
O66 O 0.97296 0.75877 0.36064 0.0
O67 O 0.96457 0.77726 0.35915 0.0
O68 O 0.98576 0.75779 0.33752 0.0
O69 O 0.99046 0.77394 0.34732 0.0
Co70 Co 0.57933 0.74849 0.63569 0.0
O71 O 0.59244 0.74461 0.62516 0.0
O72 O 0.59424 0.75239 0.64391 0.0
C73 C 0.56935 0.76169 0.62098 0.0
O74 O 0.56703 0.75359 0.64865 0.0
Co75 Co 0.54894 0.74434 0.62548 0.0
O76 O 0.54747 0.75282 0.64167 0.0
C77 C 0.56376 0.72854 0.62947 0.0
C78 C 0.59944 0.74828 0.63401 0.0
C79 C 0.55542 0.75514 0.64992 0.0
O80 O 0.56703 0.73928 0.62628 0.0
O81 O 0.55257 0.72642 0.62801 0.0
O82 O 0.57823 0.76473 0.62759 0.0
O83 O 0.56621 0.75062 0.6228 0.0
Co84 Co 0.60321 0.34631 0.8331 0.0
O85 O 0.60853 0.36123 0.82622 0.0
O86 O 0.5957 0.3593 0.84195 0.0
C87 C 0.59593 0.33816 0.81375 0.0
O88 O 0.59597 0.33177 0.84202 0.0
Co89 Co 0.61328 0.31839 0.82016 0.0
O90 O 0.6017 0.31368 0.83355 0.0
C91 C 0.6253 0.33278 0.83166 0.0
C92 C 0.60188 0.36634 0.8346 0.0
C93 C 0.59597 0.32002 0.84151 0.0
O94 O 0.61606 0.33636 0.82548 0.0
O95 O 0.62902 0.32227 0.82886 0.0
O96 O 0.59028 0.3457 0.82031 0.0
O97 O 0.60623 0.33541 0.81843 0.0
Co98 Co 0.99407 0.2934 0.11818 0.0
O99 O 0.9793 0.29307 0.10903 0.0
O100 O 0.98334 0.28119 0.12485 0.0
C101 C 0.00675 0.29465 0.10222 0.0
O102 O 0.00842 0.29112 0.12968 0.0
Co103 Co 0.01065 0.31623 0.11718 0.0
O104 O 0.02223 0.30587 0.12647 0.0
C105 C 0.98843 0.31681 0.13211 0.0
C106 C 0.97555 0.28495 0.11674 0.0
C107 C 0.01884 0.29609 0.1317 0.0
O108 O 0.98674 0.3055 0.12974 0.0
O109 O 0.99696 0.32308 0.12724 0.0
O110 O 0.00261 0.28409 0.10563 0.0
O111 O 0.00224 0.30394 0.10775 0.0
Co112 Co 0.23522 0.01208 0.38114 0.0
O113 O 0.24027 0.0018 0.39433 0.0
O114 O 0.22183 0.00971 0.39213 0.0
C115 C 0.25128 0.02464 0.38081 0.0
O116 O 0.22674 0.02336 0.36908 0.0
Co117 Co 0.24955 0.01237 0.35697 0.0
O118 O 0.23865 0.02618 0.35273 0.0
C119 C 0.23389 0.99153 0.36239 0.0
C120 C 0.22922 0.00293 0.39839 0.0
C121 C 0.22912 0.02859 0.35887 0.0
O122 O 0.22998 0.9974 0.37168 0.0
O123 O 0.24252 0.99547 0.35563 0.0
O124 O 0.24268 0.02613 0.38879 0.0
O125 O 0.25068 0.0147 0.37448 0.0
Co126 Co 0.34002 0.95556 0.57867 0.0
O127 O 0.34533 0.96511 0.59226 0.0
O128 O 0.33529 0.94767 0.59364 0.0
C129 C 0.33225 0.97107 0.56823 0.0
O130 O 0.33263 0.94321 0.56673 0.0
Co131 Co 0.3513 0.95846 0.55369 0.0
O132 O 0.33791 0.94812 0.54768 0.0
C133 C 0.36272 0.94194 0.57111 0.0
C134 C 0.34052 0.95679 0.59909 0.0
C135 C 0.33194 0.94161 0.55513 0.0
O136 O 0.3555 0.94628 0.5791 0.0
O137 O 0.36251 0.9453 0.55998 0.0
O138 O 0.32612 0.96571 0.57675 0.0
O139 O 0.3435 0.96769 0.56674 0.0
Co140 Co 0.35361 0.09697 0.85116 0.0
O141 O 0.34056 0.10785 0.85686 0.0
O142 O 0.3532 0.09883 0.86908 0.0
C143 C 0.3413 0.08536 0.83798 0.0
O144 O 0.36645 0.08403 0.84949 0.0
Co145 Co 0.3595 0.09913 0.82274 0.0
O146 O 0.37109 0.08605 0.8293 0.0
C147 C 0.34859 0.11834 0.83728 0.0
C148 C 0.34362 0.10544 0.86803 0.0
C149 C 0.37252 0.08101 0.83984 0.0
O150 O 0.3443 0.11247 0.8466 0.0
O151 O 0.34772 0.11307 0.82691 0.0
O152 O 0.34015 0.08445 0.84949 0.0
O153 O 0.34883 0.09357 0.83531 0.0
Co154 Co 0.33094 0.11361 0.13961 0.0
O155 O 0.33114 0.10444 0.15445 0.0
O156 O 0.33805 0.12332 0.15232 0.0
C157 C 0.33735 0.09912 0.1268 0.0
O158 O 0.33257 0.12583 0.12578 0.0
Co159 Co 0.31308 0.10677 0.11897 0.0
O160 O 0.32269 0.11875 0.10933 0.0
C161 C 0.30361 0.11924 0.14048 0.0
C162 C 0.3355 0.11423 0.15946 0.0
C163 C 0.32971 0.12646 0.11444 0.0
O164 O 0.31463 0.12045 0.14415 0.0
O165 O 0.30078 0.11326 0.13089 0.0
O166 O 0.3452 0.10508 0.1334 0.0
O167 O 0.32606 0.10095 0.12948 0.0
Co168 Co 0.24882 0.11696 0.2791 0.0
O169 O 0.26319 0.12469 0.27299 0.0
O170 O 0.2509 0.11297 0.26207 0.0
C171 C 0.2575 0.10979 0.29614 0.0
O172 O 0.23354 0.10688 0.28274 0.0
Co173 Co 0.23753 0.126 0.30331 0.0
O174 O 0.22701 0.11142 0.30161 0.0
C175 C 0.23362 0.14011 0.28088 0.0
C176 C 0.26084 0.11939 0.26272 0.0
C177 C 0.22637 0.10515 0.29187 0.0
O178 O 0.23871 0.13158 0.2747 0.0
O179 O 0.2332 0.14009 0.29253 0.0
O180 O 0.25866 0.10399 0.28591 0.0
O181 O 0.2522 0.12027 0.29549 0.0
Co182 Co 0.22083 0.95058 0.53426 0.0
O183 O 0.20978 0.9581 0.52298 0.0
O184 O 0.22434 0.94505 0.51803 0.0
C185 C 0.22574 0.9675 0.54439 0.0
O186 O 0.23432 0.94127 0.54311 0.0
Co187 Co 0.21508 0.94924 0.56155 0.0
O188 O 0.23162 0.94234 0.56332 0.0
C189 C 0.20326 0.93197 0.54512 0.0
C190 C 0.21556 0.95217 0.51455 0.0
C191 C 0.23779 0.93904 0.55409 0.0
O192 O 0.20932 0.93675 0.53643 0.0
O193 O 0.20391 0.93563 0.55615 0.0
O194 O 0.23083 0.96483 0.53409 0.0
O195 O 0.21687 0.96047 0.54786 0.0
Co196 Co 0.36377 0.9817 0.74532 0.0
O197 O 0.3536 0.9727 0.73436 0.0
O198 O 0.37026 0.98278 0.72906 0.0
C199 C 0.34881 0.99147 0.75516 0.0
O200 O 0.37626 0.99238 0.75416 0.0
Co201 Co 0.36212 0.97681 0.77305 0.0
O202 O 0.37253 0.99157 0.77426 0.0
C203 C 0.37513 0.95944 0.75742 0.0
C204 C 0.36105 0.97605 0.72584 0.0
C205 C 0.37824 0.99596 0.76517 0.0
O206 O 0.37383 0.96679 0.74843 0.0
O207 O 0.37029 0.96129 0.76785 0.0
O208 O 0.35266 0.99542 0.74471 0.0
O209 O 0.35309 0.98106 0.75854 0.0
Co210 Co 0.30708 0.12822 0.9943 0.0
O211 O 0.30596 0.1172 0.98095 0.0
O212 O 0.29146 0.13015 0.98639 0.0
C213 C 0.31518 0.11508 0.00765 0.0
O214 O 0.30511 0.14062 0.008 0.0
Co215 Co 0.33264 0.13501 0.00419 0.0
O216 O 0.32296 0.14154 0.01802 0.0
C217 C 0.32434 0.14571 0.98117 0.0
C218 C 0.2954 0.12199 0.97876 0.0
C219 C 0.31166 0.14406 0.0171 0.0
O220 O 0.31379 0.14107 0.98313 0.0
O221 O 0.33351 0.14364 0.98805 0.0
O222 O 0.30348 0.11517 0.0058 0.0
O223 O 0.3215 0.12187 0.00046 0.0
Co224 Co 0.36296 0.23679 0.01324 0.0
O225 O 0.3701 0.24259 0.99788 0.0
O226 O 0.37651 0.22653 0.00745 0.0
C227 C 0.36242 0.2553 0.02373 0.0
O228 O 0.36082 0.22873 0.02952 0.0
Co229 Co 0.33756 0.24457 0.02009 0.0
O230 O 0.34137 0.23348 0.03427 0.0
C231 C 0.3468 0.24492 0.99363 0.0
C232 C 0.3781 0.23388 0.99854 0.0
C233 C 0.35143 0.22797 0.03649 0.0
O234 O 0.35813 0.24421 0.99698 0.0
O235 O 0.33788 0.24468 0.00132 0.0
O236 O 0.37257 0.25018 0.0213 0.0
O237 O 0.35382 0.2503 0.01797 0.0
Co238 Co 0.85154 0.35301 0.10074 0.0
O239 O 0.85694 0.34102 0.11215 0.0
O240 O 0.8689 0.35459 0.10328 0.0
C241 C 0.84043 0.34033 0.08915 0.0
O242 O 0.84893 0.3665 0.08808 0.0
Co243 Co 0.8239 0.35872 0.09917 0.0
O244 O 0.82884 0.36752 0.0842 0.0
C245 C 0.83842 0.36916 0.11916 0.0
C246 C 0.86781 0.34527 0.11052 0.0
C247 C 0.8398 0.37061 0.08193 0.0
O248 O 0.84813 0.36478 0.11433 0.0
O249 O 0.82774 0.36696 0.11503 0.0
O250 O 0.85212 0.34109 0.08769 0.0
O251 O 0.83612 0.34613 0.09843 0.0
Co252 Co 0.94985 0.59576 0.33028 0.0
O253 O 0.96128 0.60867 0.33247 0.0
O254 O 0.94462 0.61 0.3212 0.0
C255 C 0.96364 0.58136 0.32666 0.0
O256 O 0.93626 0.58382 0.32556 0.0
Co257 Co 0.94896 0.57529 0.34868 0.0
O258 O 0.93953 0.56664 0.33605 0.0
C259 C 0.93643 0.59781 0.35464 0.0
C260 C 0.95436 0.6152 0.32553 0.0
C261 C 0.93406 0.57248 0.3277 0.0
O262 O 0.94026 0.60187 0.34445 0.0
O263 O 0.9388 0.58707 0.35843 0.0
O264 O 0.95991 0.58854 0.3181 0.0
O265 O 0.96002 0.58382 0.33765 0.0
Co266 Co 0.74592 0.75884 0.60314 0.0
O267 O 0.73218 0.76435 0.61195 0.0
O268 O 0.73238 0.74847 0.5992 0.0
C269 C 0.75003 0.77855 0.59361 0.0
O270 O 0.7593 0.75119 0.59267 0.0
Co271 Co 0.77385 0.77504 0.60655 0.0
O272 O 0.7769 0.76218 0.59388 0.0
C273 C 0.76339 0.76327 0.6219 0.0
C274 C 0.72642 0.75527 0.60696 0.0
C275 C 0.77054 0.7533 0.58974 0.0
O276 O 0.75766 0.76814 0.61299 0.0
O277 O 0.77417 0.76703 0.62317 0.0
O278 O 0.74194 0.77108 0.5903 0.0
O279 O 0.75563 0.77465 0.60307 0.0
Co280 Co 0.12065 0.99025 0.30212 0.0
O281 O 0.11043 0.97646 0.29943 0.0
O282 O 0.12659 0.98114 0.28829 0.0
C283 C 0.10581 0.00381 0.30551 0.0
O284 O 0.13306 0.00415 0.3022 0.0
Co285 Co 0.12073 0.00227 0.32763 0.0
O286 O 0.13002 0.01528 0.31912 0.0
C287 C 0.1332 0.97897 0.32422 0.0
C288 C 0.11787 0.97348 0.29078 0.0
C289 C 0.13513 0.01362 0.30883 0.0
O290 O 0.13141 0.98006 0.31275 0.0
O291 O 0.12888 0.98647 0.33202 0.0
O292 O 0.10885 0.00105 0.2944 0.0
O293 O 0.11081 0.99731 0.3139 0.0
Co294 Co 0.25605 0.82606 0.48233 0.0
O295 O 0.24478 0.81467 0.47535 0.0
O296 O 0.24561 0.81963 0.4949 0.0
C297 C 0.27275 0.81894 0.47286 0.0
O298 O 0.2668 0.83716 0.49292 0.0
Co299 Co 0.26881 0.84487 0.46575 0.0
O300 O 0.27846 0.84853 0.4805 0.0
C301 C 0.24386 0.84967 0.47391 0.0
C302 C 0.24049 0.81334 0.48626 0.0
C303 C 0.27545 0.84489 0.49106 0.0
O304 O 0.24419 0.83964 0.47982 0.0
O305 O 0.25267 0.85346 0.46731 0.0
O306 O 0.26845 0.81366 0.4825 0.0
O307 O 0.26605 0.82759 0.46842 0.0
Co308 Co 0.94906 0.52654 0.23196 0.0
O309 O 0.95932 0.51353 0.22664 0.0
O310 O 0.94454 0.51172 0.24026 0.0
C311 C 0.96378 0.54014 0.23505 0.0
O312 O 0.93684 0.53804 0.23996 0.0
Co313 Co 0.94631 0.54943 0.21644 0.0
O314 O 0.93755 0.55619 0.23065 0.0
C315 C 0.9327 0.52774 0.20946 0.0
C316 C 0.9532 0.50662 0.234 0.0
C317 C 0.9337 0.54931 0.23912 0.0
O318 O 0.93726 0.5225 0.21878 0.0
O319 O 0.93512 0.53872 0.2065 0.0
O320 O 0.96123 0.53199 0.24317 0.0
O321 O 0.95833 0.53915 0.2246 0.0
Co322 Co 0.62777 0.57368 0.75689 0.0
O323 O 0.61693 0.58653 0.75244 0.0
O324 O 0.63253 0.58861 0.76503 0.0
C325 C 0.61341 0.55987 0.76068 0.0
O326 O 0.64065 0.56205 0.76385 0.0
Co327 Co 0.62957 0.55132 0.74059 0.0
O328 O 0.63827 0.54403 0.75452 0.0
C329 C 0.643 0.57308 0.73354 0.0
C330 C 0.62339 0.59357 0.75934 0.0
C331 C 0.6431 0.55061 0.76275 0.0
O332 O 0.63867 0.57816 0.74306 0.0
O333 O 0.64054 0.56211 0.73054 0.0
O334 O 0.61647 0.56788 0.76879 0.0
O335 O 0.61806 0.56116 0.74989 0.0
Co336 Co 0.48585 0.80868 0.78 0.0
O337 O 0.47707 0.81732 0.7923 0.0
O338 O 0.48964 0.82593 0.77915 0.0
C339 C 0.49265 0.79368 0.79204 0.0
O340 O 0.49665 0.80208 0.76615 0.0
Co341 Co 0.47595 0.78333 0.77287 0.0
O342 O 0.49101 0.78257 0.76318 0.0
C343 C 0.46519 0.80487 0.76161 0.0
C344 C 0.48221 0.82714 0.7883 0.0
C345 C 0.49797 0.79157 0.76099 0.0
O346 O 0.47224 0.81134 0.76824 0.0
O347 O 0.46503 0.79324 0.76194 0.0
O348 O 0.49806 0.80415 0.7917 0.0
O349 O 0.48234 0.79302 0.78627 0.0
Co350 Co 0.51252 0.2281 0.93599 0.0
O351 O 0.4995 0.221 0.94513 0.0
O352 O 0.49781 0.2374 0.93352 0.0
C353 C 0.52641 0.2278 0.95074 0.0
O354 O 0.52413 0.23828 0.92559 0.0
Co355 Co 0.5349 0.21255 0.92982 0.0
O356 O 0.54138 0.22766 0.92249 0.0
C357 C 0.51292 0.20932 0.91528 0.0
C358 C 0.49268 0.2296 0.94079 0.0
C359 C 0.53498 0.23723 0.92128 0.0
O360 O 0.50812 0.21778 0.92168 0.0
O361 O 0.5237 0.20535 0.91717 0.0
O362 O 0.51835 0.23639 0.95019 0.0
O363 O 0.52505 0.21875 0.94325 0.0
Co364 Co 0.10159 0.27883 0.26225 0.0
O365 O 0.11285 0.27466 0.27489 0.0
O366 O 0.10727 0.26235 0.2599 0.0
C367 C 0.08742 0.28702 0.27457 0.0
O368 O 0.08994 0.28005 0.2478 0.0
Co369 Co 0.09516 0.30592 0.25762 0.0
O370 O 0.08185 0.29885 0.24765 0.0
C371 C 0.11796 0.29579 0.24759 0.0
C372 C 0.11361 0.26406 0.26977 0.0
C373 C 0.08233 0.28796 0.24368 0.0
O374 O 0.11523 0.28527 0.2519 0.0
O375 O 0.11149 0.30531 0.2494 0.0
O376 O 0.08787 0.27533 0.27298 0.0
O377 O 0.09617 0.29317 0.26966 0.0
Co378 Co 0.10218 0.8137 0.48225 0.0
O379 O 0.11756 0.8144 0.49039 0.0
O380 O 0.11066 0.79844 0.4801 0.0
C381 C 0.09094 0.82175 0.49732 0.0
O382 O 0.08652 0.80958 0.47306 0.0
Co383 Co 0.0885 0.83762 0.47611 0.0
O384 O 0.075 0.82643 0.47172 0.0
C385 C 0.1088 0.82985 0.46051 0.0
C386 C 0.11928 0.80336 0.48658 0.0
C387 C 0.07657 0.81505 0.4701 0.0
O388 O 0.10972 0.82002 0.46679 0.0
O389 O 0.10145 0.83846 0.46327 0.0
O390 O 0.09401 0.81033 0.49758 0.0
O391 O 0.09603 0.82812 0.48886 0.0
Co392 Co 0.49134 0.25922 0.8183 0.0
O393 O 0.48728 0.24829 0.8055 0.0
O394 O 0.50043 0.24457 0.82061 0.0
C395 C 0.49747 0.27558 0.80457 0.0
O396 O 0.49751 0.26907 0.83276 0.0
Co397 Co 0.47869 0.28899 0.81858 0.0
O398 O 0.49083 0.28871 0.83233 0.0
C399 C 0.46783 0.27015 0.82195 0.0
C400 C 0.4948 0.24081 0.81081 0.0
C401 C 0.49706 0.28003 0.83705 0.0
O402 O 0.47753 0.27038 0.81542 0.0
O403 O 0.46325 0.2805 0.82386 0.0
O404 O 0.50394 0.26655 0.80741 0.0
O405 O 0.48704 0.27506 0.8097 0.0
Co406 Co 0.13688 0.31606 0.11222 0.0
O407 O 0.15208 0.31143 0.10512 0.0
O408 O 0.1493 0.32746 0.1171 0.0
C409 C 0.1252 0.31329 0.09567 0.0
O410 O 0.12255 0.32384 0.12099 0.0
Co411 Co 0.11593 0.29728 0.1146 0.0
O412 O 0.10628 0.31145 0.12034 0.0
C413 C 0.13643 0.29631 0.1318 0.0
C414 C 0.15676 0.32051 0.11109 0.0
C415 C 0.11128 0.32153 0.12321 0.0
O416 O 0.14076 0.30607 0.12706 0.0
O417 O 0.127 0.29086 0.12765 0.0
O418 O 0.13136 0.32334 0.09695 0.0
O419 O 0.12738 0.30497 0.10363 0.0
Co420 Co 0.09118 0.84019 0.33653 0.0
O421 O 0.10353 0.8466 0.32622 0.0
O422 O 0.09314 0.85717 0.34017 0.0
C423 C 0.07838 0.83363 0.31934 0.0
O424 O 0.07754 0.8357 0.34826 0.0
Co425 Co 0.08055 0.80999 0.33087 0.0
O426 O 0.06877 0.81763 0.3428 0.0
C427 C 0.10055 0.81471 0.33858 0.0
C428 C 0.10128 0.857 0.33148 0.0
C429 C 0.06936 0.82728 0.34942 0.0
O430 O 0.09429 0.82281 0.33286 0.0
O431 O 0.09683 0.80397 0.33678 0.0
O432 O 0.07887 0.84426 0.32357 0.0
O433 O 0.08565 0.82669 0.32508 0.0
Co434 Co 0.50635 0.85576 0.64568 0.0
O435 O 0.49288 0.86247 0.63681 0.0
O436 O 0.4929 0.84449 0.64595 0.0
C437 C 0.52069 0.85986 0.63182 0.0
O438 O 0.51865 0.84555 0.65526 0.0
Co439 Co 0.52672 0.87246 0.65521 0.0
O440 O 0.53485 0.85714 0.65994 0.0
C441 C 0.50407 0.87068 0.6691 0.0
C442 C 0.48712 0.85249 0.63944 0.0
C443 C 0.52941 0.84691 0.65977 0.0
O444 O 0.50015 0.86325 0.66103 0.0
O445 O 0.51457 0.87569 0.66859 0.0
O446 O 0.51366 0.85044 0.63075 0.0
O447 O 0.51805 0.86739 0.64055 0.0
Co448 Co 0.76412 0.47215 0.82349 0.0
O449 O 0.77591 0.46254 0.83196 0.0
O450 O 0.76582 0.47796 0.84008 0.0
C451 C 0.7755 0.47525 0.80682 0.0
O452 O 0.75139 0.48427 0.81702 0.0
Co453 Co 0.75305 0.46149 0.79991 0.0
O454 O 0.74596 0.47789 0.7983 0.0
C455 C 0.74215 0.45513 0.82349 0.0
C456 C 0.77401 0.46949 0.84129 0.0
C457 C 0.7456 0.48566 0.80688 0.0
O458 O 0.75074 0.46097 0.82878 0.0
O459 O 0.74133 0.45409 0.81192 0.0
O460 O 0.77695 0.48182 0.81648 0.0
O461 O 0.76816 0.46604 0.80786 0.0
Co462 Co 0.79899 0.48885 0.09501 0.0
O463 O 0.79694 0.49978 0.10841 0.0
O464 O 0.78542 0.48358 0.10485 0.0
C465 C 0.80191 0.50331 0.08099 0.0
O466 O 0.79811 0.4757 0.08193 0.0
Co467 Co 0.8233 0.48772 0.08091 0.0
O468 O 0.81399 0.47748 0.06918 0.0
C469 C 0.82178 0.47734 0.10552 0.0
C470 C 0.78815 0.49271 0.1119 0.0
C471 C 0.80385 0.4727 0.07216 0.0
O472 O 0.81017 0.47858 0.10517 0.0
O473 O 0.82884 0.48139 0.09718 0.0
O474 O 0.79087 0.50022 0.08399 0.0
O475 O 0.81056 0.49824 0.08704 0.0
Co476 Co 0.83069 0.60277 0.34373 0.0
O477 O 0.82397 0.60846 0.35874 0.0
O478 O 0.8431 0.6026 0.35617 0.0
C479 C 0.81561 0.5901 0.33877 0.0
O480 O 0.84073 0.59616 0.32949 0.0
Co481 Co 0.81793 0.60958 0.31975 0.0
O482 O 0.82956 0.59796 0.31244 0.0
C483 C 0.83365 0.62756 0.3313 0.0
C484 C 0.83474 0.60694 0.36333 0.0
C485 C 0.83903 0.59431 0.31802 0.0
O486 O 0.83561 0.61967 0.33959 0.0
O487 O 0.82669 0.62562 0.32218 0.0
O488 O 0.82398 0.58686 0.34645 0.0
O489 O 0.81574 0.60143 0.33539 0.0
Co490 Co 0.74365 0.63261 0.58407 0.0
O491 O 0.73756 0.62151 0.59604 0.0
O492 O 0.75323 0.63393 0.59877 0.0
C493 C 0.74413 0.6196 0.56848 0.0
O494 O 0.7526 0.64504 0.57345 0.0
Co495 Co 0.7266 0.63998 0.56312 0.0
O496 O 0.74075 0.64942 0.5573 0.0
C497 C 0.72393 0.6523 0.58653 0.0
C498 C 0.7461 0.62553 0.60312 0.0
C499 C 0.75055 0.65065 0.56335 0.0
O500 O 0.73269 0.64568 0.59039 0.0
O501 O 0.71955 0.65127 0.57579 0.0
O502 O 0.75274 0.6198 0.57652 0.0
O503 O 0.73457 0.62615 0.57089 0.0
Co504 Co 0.75963 0.58651 0.74678 0.0
O505 O 0.76791 0.59075 0.73206 0.0
O506 O 0.74978 0.58194 0.73296 0.0
C507 C 0.77539 0.57788 0.75614 0.0
O508 O 0.74838 0.58057 0.76041 0.0
Co509 Co 0.76664 0.59916 0.77067 0.0
O510 O 0.75601 0.58687 0.77832 0.0
C511 C 0.74966 0.61138 0.75427 0.0
C512 C 0.75848 0.58651 0.72636 0.0
C513 C 0.74833 0.58077 0.77215 0.0
O514 O 0.75135 0.60264 0.7468 0.0
O515 O 0.75481 0.61191 0.76469 0.0
O516 O 0.76903 0.57189 0.7482 0.0
O517 O 0.77302 0.58941 0.75725 0.0
Co518 Co 0.83831 0.47561 0.96729 0.0
O519 O 0.83968 0.48268 0.95146 0.0
O520 O 0.84516 0.46384 0.95617 0.0
C521 C 0.8452 0.49179 0.97757 0.0
O522 O 0.83847 0.46538 0.98281 0.0
Co523 Co 0.82045 0.48666 0.986 0.0
O524 O 0.82908 0.47583 0.99769 0.0
C525 C 0.81076 0.47247 0.96556 0.0
C526 C 0.8435 0.47211 0.94784 0.0
C527 C 0.83545 0.46684 0.99404 0.0
O528 O 0.82172 0.46942 0.96292 0.0
O529 O 0.8082 0.48005 0.97403 0.0
O530 O 0.85294 0.48412 0.97292 0.0
O531 O 0.8339 0.48993 0.97504 0.0
Co532 Co 0.82151 0.49103 0.25434 0.0
O533 O 0.80987 0.48443 0.24315 0.0
O534 O 0.82263 0.49948 0.23895 0.0
C535 C 0.80883 0.49274 0.27019 0.0
O536 O 0.83455 0.50041 0.26398 0.0
Co537 Co 0.82888 0.4754 0.27655 0.0
O538 O 0.83836 0.48994 0.28117 0.0
C539 C 0.84084 0.47098 0.25316 0.0
C540 C 0.81387 0.49234 0.23538 0.0
C541 C 0.84008 0.49909 0.27427 0.0
O542 O 0.83409 0.47924 0.24852 0.0
O543 O 0.84027 0.46779 0.26433 0.0
O544 O 0.80901 0.50086 0.26164 0.0
O545 O 0.81527 0.48304 0.26821 0.0
Co546 Co 0.85053 0.638 0.50963 0.0
O547 O 0.8547 0.62752 0.49632 0.0
O548 O 0.84423 0.64469 0.49467 0.0
C549 C 0.84382 0.62371 0.52225 0.0
O550 O 0.84415 0.65094 0.52137 0.0
Co551 Co 0.8652 0.63686 0.53314 0.0
O552 O 0.8538 0.64927 0.53935 0.0
C553 C 0.87515 0.65074 0.51301 0.0
C554 C 0.84912 0.63529 0.4894 0.0
C555 C 0.84594 0.65422 0.53248 0.0
O556 O 0.86579 0.64742 0.50697 0.0
O557 O 0.87699 0.64762 0.52404 0.0
O558 O 0.83694 0.62799 0.5137 0.0
O559 O 0.85522 0.62694 0.52212 0.0
Co560 Co 0.81539 0.76018 0.48413 0.0
O561 O 0.8213 0.77198 0.47272 0.0
O562 O 0.83242 0.76348 0.4872 0.0
C563 C 0.79832 0.77017 0.48902 0.0
O564 O 0.81211 0.74777 0.49774 0.0
Co565 Co 0.79181 0.7461 0.47828 0.0
O566 O 0.79314 0.74039 0.49524 0.0
C567 C 0.8151 0.73716 0.4686 0.0
C568 C 0.83174 0.77105 0.47812 0.0
C569 C 0.80294 0.74135 0.50133 0.0
O570 O 0.82025 0.74664 0.47301 0.0
O571 O 0.80368 0.73509 0.46959 0.0
O572 O 0.80862 0.77297 0.49402 0.0
O573 O 0.79874 0.76228 0.48023 0.0
Co574 Co 0.35057 0.83249 0.57875 0.0
O575 O 0.36566 0.82447 0.58247 0.0
O576 O 0.36167 0.84393 0.58601 0.0
C577 C 0.34795 0.82501 0.56018 0.0
O578 O 0.33635 0.84434 0.57555 0.0
Co579 Co 0.32709 0.81856 0.57663 0.0
O580 O 0.32058 0.83331 0.56884 0.0
C581 C 0.33373 0.83075 0.59889 0.0
C582 C 0.36926 0.8349 0.58674 0.0
C583 C 0.3256 0.84354 0.57086 0.0
O584 O 0.34428 0.82787 0.59513 0.0
O585 O 0.32448 0.82722 0.59282 0.0
O586 O 0.35518 0.83423 0.56202 0.0
O587 O 0.34368 0.81956 0.56981 0.0
Co588 Co 0.48823 0.09725 0.81047 0.0
O589 O 0.49773 0.11171 0.81245 0.0
O590 O 0.48648 0.10747 0.79625 0.0
C591 C 0.50281 0.08468 0.81724 0.0
O592 O 0.47743 0.08306 0.80511 0.0
Co593 Co 0.48171 0.08112 0.83264 0.0
O594 O 0.47591 0.06935 0.82019 0.0
C595 C 0.46869 0.1043 0.82869 0.0
C596 C 0.49369 0.11502 0.80187 0.0
C597 C 0.47388 0.07269 0.80927 0.0
O598 O 0.47392 0.10551 0.8183 0.0
O599 O 0.47124 0.0957 0.83613 0.0
O600 O 0.50277 0.08803 0.80589 0.0
O601 O 0.4946 0.08947 0.82407 0.0
Co602 Co 0.28007 0.24861 0.12803 0.0
O603 O 0.2727 0.26052 0.13849 0.0
O604 O 0.26285 0.24931 0.12491 0.0
C605 C 0.29573 0.2603 0.12191 0.0
O606 O 0.28462 0.23591 0.11524 0.0
Co607 Co 0.30589 0.2386 0.13342 0.0
O608 O 0.30458 0.23174 0.11674 0.0
C609 C 0.28478 0.22887 0.14693 0.0
C610 C 0.26256 0.25796 0.13299 0.0
C611 C 0.29438 0.23075 0.11131 0.0
O612 O 0.27758 0.23541 0.14044 0.0
O613 O 0.29639 0.22954 0.14616 0.0
O614 O 0.28506 0.26142 0.11696 0.0
O615 O 0.29626 0.25315 0.13123 0.0
Co616 Co 0.6348 0.51176 0.85304 0.0
O617 O 0.62349 0.49913 0.85713 0.0
O618 O 0.63855 0.49725 0.84386 0.0
C619 C 0.62094 0.52636 0.85065 0.0
O620 O 0.64793 0.5229 0.84598 0.0
Co621 Co 0.63895 0.53326 0.86966 0.0
O622 O 0.64773 0.54072 0.85586 0.0
C623 C 0.65152 0.51062 0.87522 0.0
C624 C 0.62935 0.49234 0.84947 0.0
C625 C 0.65145 0.53403 0.84719 0.0
O626 O 0.64601 0.50601 0.86608 0.0
O627 O 0.6502 0.52171 0.87848 0.0
O628 O 0.6234 0.51875 0.842 0.0
O629 O 0.62601 0.52437 0.86116 0.0
Co630 Co 0.75087 0.35548 0.98221 0.0
O631 O 0.74103 0.34491 0.97241 0.0
O632 O 0.73423 0.3611 0.98234 0.0
C633 C 0.76078 0.34085 0.99246 0.0
O634 O 0.7584 0.36826 0.99349 0.0
Co635 Co 0.77897 0.35514 0.97937 0.0
O636 O 0.77854 0.36473 0.9947 0.0
C637 C 0.76404 0.36879 0.96172 0.0
C638 C 0.73192 0.3518 0.97536 0.0
C639 C 0.76897 0.37029 0.99817 0.0
O640 O 0.75445 0.36608 0.96781 0.0
O641 O 0.77461 0.36462 0.96434 0.0
O642 O 0.74992 0.34414 0.99574 0.0
O643 O 0.76461 0.34543 0.98233 0.0
Co644 Co 0.47622 0.96344 0.8337 0.0
O645 O 0.48422 0.94804 0.83459 0.0
O646 O 0.46556 0.95167 0.84136 0.0
C647 C 0.49234 0.97453 0.83956 0.0
O648 O 0.46531 0.97853 0.83449 0.0
Co649 Co 0.48553 0.98242 0.815 0.0
O650 O 0.47451 0.99358 0.82408 0.0
C651 C 0.47218 0.96096 0.80645 0.0
C652 C 0.47426 0.94387 0.83933 0.0
C653 C 0.4661 0.98975 0.8311 0.0
O654 O 0.46923 0.95874 0.81752 0.0
O655 O 0.4796 0.96943 0.80346 0.0
O656 O 0.48546 0.96941 0.84774 0.0
O657 O 0.48982 0.97186 0.82843 0.0
Co658 Co 0.12614 0.1362 0.31589 0.0
O659 O 0.11773 0.15138 0.31737 0.0
O660 O 0.13591 0.14738 0.3252 0.0
C661 C 0.11042 0.12382 0.31974 0.0
O662 O 0.13748 0.12158 0.31663 0.0
Co663 Co 0.11953 0.11824 0.29524 0.0
O664 O 0.13125 0.10717 0.3035 0.0
C665 C 0.13242 0.14072 0.28923 0.0
C666 C 0.12733 0.15525 0.32311 0.0
C667 C 0.13831 0.11086 0.31195 0.0
O668 O 0.13416 0.14234 0.30066 0.0
O669 O 0.12583 0.13207 0.28502 0.0
O670 O 0.11628 0.12892 0.3287 0.0
O671 O 0.11335 0.12751 0.30898 0.0
H672 H 0.0114 0.36267 0.26764 0.0
H673 H 0.01064 0.34463 0.28081 0.0
H674 H 0.04808 0.35091 0.29103 0.0
H675 H 0.04874 0.36864 0.27799 0.0
H676 H 0.02434 0.32692 0.27341 0.0
H677 H 0.0374 0.33349 0.32075 0.0
H678 H 0.03025 0.34552 0.31209 0.0
H679 H 0.04661 0.34381 0.31219 0.0
C680 C 0.01918 0.36053 0.27329 0.0
C681 C 0.03014 0.36693 0.27189 0.0
C682 C 0.01876 0.35023 0.2808 0.0
C683 C 0.02927 0.3464 0.28703 0.0
C684 C 0.03973 0.35375 0.28665 0.0
H685 H 0.08524 0.31094 0.2802 0.0
H686 H 0.06719 0.32147 0.28755 0.0
C687 C 0.04018 0.36387 0.27907 0.0
C688 C 0.03084 0.33351 0.29071 0.0
H689 H 0.05068 0.31827 0.30893 0.0
C690 C 0.02955 0.32474 0.2815 0.0
C691 C 0.03733 0.33043 0.30137 0.0
C692 C 0.03782 0.33884 0.31219 0.0
C693 C 0.03661 0.31412 0.28156 0.0
C694 C 0.04495 0.31228 0.29116 0.0
C695 C 0.0445 0.31988 0.30141 0.0
C696 C 0.05617 0.3052 0.28901 0.0
C697 C 0.03638 0.30591 0.27054 0.0
C698 C 0.05602 0.29251 0.28766 0.0
C699 C 0.06637 0.28645 0.28338 0.0
C700 C 0.07694 0.29304 0.28037 0.0
C701 C 0.07721 0.30564 0.28234 0.0
C702 C 0.06693 0.31165 0.28665 0.0
H703 H 0.02918 0.30853 0.26395 0.0
H704 H 0.04531 0.30626 0.26584 0.0
H705 H 0.03475 0.29637 0.27341 0.0
H706 H 0.04779 0.28739 0.28945 0.0
H707 H 0.06595 0.2767 0.28199 0.0
H708 H 0.07985 0.84385 0.49513 0.0
H709 H 0.05865 0.84808 0.49991 0.0
H710 H 0.05593 0.81377 0.51872 0.0
H711 H 0.07707 0.8093 0.51368 0.0
H712 H 0.04284 0.81508 0.49752 0.0
H713 H 0.03302 0.85559 0.52588 0.0
H714 H 0.04446 0.8582 0.51453 0.0
H715 H 0.04734 0.84753 0.52658 0.0
C716 C 0.07488 0.8374 0.50067 0.0
C717 C 0.07995 0.82605 0.50366 0.0
C718 C 0.06278 0.83992 0.50355 0.0
C719 C 0.05571 0.83121 0.50961 0.0
C720 C 0.06127 0.8206 0.51404 0.0
H721 H 0.97984 0.8157 0.49663 0.0
H722 H 0.99887 0.81804 0.50789 0.0
C723 C 0.07333 0.81803 0.51107 0.0
C724 C 0.04236 0.83152 0.5082 0.0
H725 H 0.0171 0.84918 0.51206 0.0
C726 C 0.03716 0.82238 0.50097 0.0
C727 C 0.03508 0.84122 0.51244 0.0
C728 C 0.04024 0.85115 0.52038 0.0
C729 C 0.02498 0.82287 0.49747 0.0
C730 C 0.01768 0.83262 0.50158 0.0
C731 C 0.02275 0.84168 0.50903 0.0
C732 C 0.00496 0.83361 0.49754 0.0
C733 C 0.02016 0.81323 0.4889 0.0
C734 C 0.00184 0.84208 0.48851 0.0
C735 C 0.9909 0.84083 0.48213 0.0
C736 C 0.98312 0.83102 0.48467 0.0
C737 C 0.98579 0.82324 0.49443 0.0
C738 C 0.99659 0.8246 0.5009 0.0
H739 H 0.02758 0.80783 0.48467 0.0
H740 H 0.0142 0.80688 0.49401 0.0
H741 H 0.01466 0.8174 0.48152 0.0
H742 H 0.00825 0.84905 0.48578 0.0
H743 H 0.989 0.84694 0.47464 0.0
H744 H 0.58456 0.7751 0.76727 0.0
H745 H 0.56807 0.78111 0.78068 0.0
H746 H 0.57847 0.75313 0.80615 0.0
H747 H 0.5949 0.74696 0.79248 0.0
H748 H 0.55635 0.74919 0.79779 0.0
H749 H 0.55854 0.79714 0.81188 0.0
H750 H 0.5618 0.79612 0.79596 0.0
H751 H 0.57186 0.78898 0.80677 0.0
C752 C 0.58389 0.77081 0.77611 0.0
C753 C 0.5911 0.7607 0.77894 0.0
C754 C 0.57436 0.7742 0.78379 0.0
C755 C 0.57198 0.76756 0.79446 0.0
C756 C 0.58014 0.7584 0.79799 0.0
H757 H 0.50101 0.79256 0.81496 0.0
H758 H 0.51996 0.78243 0.82047 0.0
C759 C 0.58964 0.75499 0.79027 0.0
C760 C 0.55977 0.7684 0.80016 0.0
H761 H 0.53808 0.78923 0.80739 0.0
C762 C 0.55244 0.7579 0.80028 0.0
C763 C 0.55465 0.77965 0.80363 0.0
C764 C 0.5622 0.79106 0.80468 0.0
C765 C 0.5399 0.75857 0.8026 0.0
C766 C 0.53453 0.77007 0.80461 0.0
C767 C 0.54209 0.78037 0.80569 0.0
C768 C 0.52119 0.7721 0.80376 0.0
C769 C 0.5325 0.74702 0.80241 0.0
C770 C 0.51494 0.76876 0.79309 0.0
C771 C 0.50386 0.77426 0.79013 0.0
C772 C 0.49913 0.78343 0.79762 0.0
C773 C 0.50447 0.78546 0.80905 0.0
C774 C 0.51539 0.77978 0.81214 0.0
H775 H 0.53789 0.73927 0.80602 0.0
H776 H 0.52402 0.74789 0.80782 0.0
H777 H 0.53005 0.74479 0.79287 0.0
H778 H 0.51922 0.76299 0.78636 0.0
H779 H 0.49994 0.77249 0.78131 0.0
H780 H 0.52671 0.22117 0.97443 0.0
H781 H 0.53699 0.23343 0.98997 0.0
H782 H 0.5575 0.25152 0.96182 0.0
H783 H 0.54768 0.23893 0.94651 0.0
H784 H 0.56933 0.25243 0.98331 0.0
H785 H 0.5209 0.26618 0.98985 0.0
H786 H 0.5253 0.25104 0.99409 0.0
H787 H 0.52511 0.25536 0.97831 0.0
C788 C 0.53405 0.22716 0.97171 0.0
C789 C 0.53646 0.22914 0.95932 0.0
C790 C 0.53973 0.23435 0.98057 0.0
C791 C 0.5476 0.24376 0.97701 0.0
C792 C 0.55136 0.2444 0.96481 0.0
H793 H 0.55223 0.31158 0.96615 0.0
H794 H 0.54403 0.2929 0.97451 0.0
C795 C 0.54584 0.2371 0.95602 0.0
C796 C 0.54999 0.25444 0.98496 0.0
H797 H 0.53573 0.28057 0.99388 0.0
C798 C 0.56204 0.25848 0.98604 0.0
C799 C 0.5404 0.26227 0.98863 0.0
C800 C 0.52719 0.25858 0.98766 0.0
C801 C 0.56471 0.27063 0.98895 0.0
C802 C 0.55501 0.27882 0.99132 0.0
C803 C 0.5431 0.27429 0.99198 0.0
C804 C 0.55663 0.29215 0.98968 0.0
C805 C 0.57777 0.27482 0.98799 0.0
C806 C 0.56549 0.29868 0.99615 0.0
C807 C 0.57029 0.3094 0.99122 0.0
C808 C 0.566 0.31379 0.98001 0.0
C809 C 0.55564 0.30847 0.97484 0.0
C810 C 0.55101 0.29767 0.97961 0.0
H811 H 0.58397 0.26742 0.985 0.0
H812 H 0.57854 0.28243 0.98141 0.0
H813 H 0.58096 0.27808 0.997 0.0
H814 H 0.56966 0.29482 0.00419 0.0
H815 H 0.57836 0.31332 0.99532 0.0
H816 H 0.00268 0.76285 0.31974 0.0
H817 H 0.01396 0.7772 0.30721 0.0
H818 H 0.9883 0.80546 0.31635 0.0
H819 H 0.9777 0.79131 0.32994 0.0
H820 H 0.01468 0.79421 0.29026 0.0
H821 H 0.01661 0.81616 0.33599 0.0
H822 H 0.00895 0.80194 0.33355 0.0
H823 H 0.00186 0.81604 0.3291 0.0
C824 C 0.99914 0.77199 0.31865 0.0
C825 C 0.98953 0.77612 0.32593 0.0
C826 C 0.0056 0.78022 0.31147 0.0
C827 C 0.00231 0.79256 0.31132 0.0
C828 C 0.9913 0.79609 0.31678 0.0
H829 H 0.05915 0.84692 0.31129 0.0
H830 H 0.03966 0.83897 0.30416 0.0
C831 C 0.98515 0.78799 0.32441 0.0
C832 C 0.01172 0.80172 0.30814 0.0
H833 H 0.03015 0.82285 0.32152 0.0
C834 C 0.01791 0.80067 0.29699 0.0
C835 C 0.01607 0.81006 0.31701 0.0
C836 C 0.01062 0.81108 0.32961 0.0
C837 C 0.02867 0.80723 0.29476 0.0
C838 C 0.03318 0.81512 0.30383 0.0
C839 C 0.02654 0.81685 0.31454 0.0
C840 C 0.04561 0.82023 0.30359 0.0
C841 C 0.03541 0.80531 0.28299 0.0
C842 C 0.05556 0.81238 0.30508 0.0
C843 C 0.0667 0.81688 0.30927 0.0
C844 C 0.06795 0.82927 0.31211 0.0
C845 C 0.05838 0.83729 0.30934 0.0
C846 C 0.04727 0.83279 0.30517 0.0
H847 H 0.02926 0.80191 0.27572 0.0
H848 H 0.03978 0.81388 0.2799 0.0
H849 H 0.04266 0.79844 0.28442 0.0
H850 H 0.05442 0.80263 0.3041 0.0
H851 H 0.07401 0.81055 0.31107 0.0
H852 H 0.57446 0.77051 0.59867 0.0
H853 H 0.56782 0.79033 0.59081 0.0
H854 H 0.54345 0.79405 0.62136 0.0
H855 H 0.54979 0.77416 0.62891 0.0
H856 H 0.53426 0.80436 0.60081 0.0
H857 H 0.58213 0.81939 0.6083 0.0
H858 H 0.57953 0.80765 0.59722 0.0
H859 H 0.57685 0.80461 0.61305 0.0
C860 C 0.56725 0.77535 0.60332 0.0
C861 C 0.56244 0.77082 0.61424 0.0
C862 C 0.56362 0.78674 0.59895 0.0
C863 C 0.55539 0.7938 0.60567 0.0
C864 C 0.54983 0.78876 0.61602 0.0
H865 H 0.54377 0.85487 0.63901 0.0
H866 H 0.55542 0.84072 0.62683 0.0
C867 C 0.55336 0.77735 0.6203 0.0
C868 C 0.55348 0.80689 0.60302 0.0
H869 H 0.56739 0.83448 0.60662 0.0
C870 C 0.54151 0.81101 0.60174 0.0
C871 C 0.56303 0.81549 0.60421 0.0
C872 C 0.57611 0.81164 0.60584 0.0
C873 C 0.53859 0.82336 0.60296 0.0
C874 C 0.54807 0.83193 0.60504 0.0
C875 C 0.56018 0.82793 0.60499 0.0
C876 C 0.54536 0.84413 0.61021 0.0
C877 C 0.52529 0.82681 0.60335 0.0
C878 C 0.53703 0.85199 0.60459 0.0
C879 C 0.53011 0.85993 0.61174 0.0
C880 C 0.53176 0.86021 0.62442 0.0
C881 C 0.5421 0.85463 0.62934 0.0
C882 C 0.54877 0.84643 0.62232 0.0
H883 H 0.51919 0.81875 0.60304 0.0
H884 H 0.52323 0.83196 0.61179 0.0
H885 H 0.52307 0.83264 0.59543 0.0
H886 H 0.53465 0.85078 0.59511 0.0
H887 H 0.52226 0.86428 0.60767 0.0
H888 H 0.58675 0.34717 0.79288 0.0
H889 H 0.56977 0.33831 0.78144 0.0
H890 H 0.57234 0.30575 0.80322 0.0
H891 H 0.58982 0.31422 0.81387 0.0
H892 H 0.56305 0.30045 0.78179 0.0
H893 H 0.53907 0.34118 0.80017 0.0
H894 H 0.55063 0.34412 0.78906 0.0
H895 H 0.55473 0.33806 0.80371 0.0
C896 C 0.58405 0.33787 0.79473 0.0
C897 C 0.5895 0.33136 0.80426 0.0
C898 C 0.57424 0.3329 0.78835 0.0
C899 C 0.56943 0.3216 0.79185 0.0
C900 C 0.57579 0.31455 0.80042 0.0
H901 H 0.50701 0.29446 0.81698 0.0
H902 H 0.52288 0.30789 0.80958 0.0
C903 C 0.58584 0.31937 0.80652 0.0
C904 C 0.55694 0.31784 0.78829 0.0
H905 H 0.52716 0.32523 0.79325 0.0
C906 C 0.55516 0.30594 0.78404 0.0
C907 C 0.54665 0.32507 0.79123 0.0
C908 C 0.5478 0.33778 0.79637 0.0
C909 C 0.54355 0.30062 0.78381 0.0
C910 C 0.53335 0.30763 0.78746 0.0
C911 C 0.535 0.31992 0.79046 0.0
C912 C 0.52166 0.30181 0.79086 0.0
C913 C 0.54251 0.28725 0.7808 0.0
C914 C 0.51509 0.2945 0.78268 0.0
C915 C 0.50597 0.28672 0.787 0.0
C916 C 0.5031 0.28649 0.79943 0.0
C917 C 0.50877 0.29472 0.80732 0.0
C918 C 0.51796 0.30234 0.80308 0.0
H919 H 0.55154 0.28282 0.77989 0.0
H920 H 0.5373 0.28239 0.78795 0.0
H921 H 0.53762 0.28614 0.77204 0.0
H922 H 0.51758 0.29417 0.77316 0.0
H923 H 0.50184 0.28025 0.78081 0.0
H924 H 0.0251 0.27843 0.09795 0.0
H925 H 0.04479 0.28311 0.08854 0.0
H926 H 0.03177 0.31883 0.07888 0.0
H927 H 0.01226 0.31435 0.08857 0.0
H928 H 0.05427 0.29279 0.06554 0.0
H929 H 0.05836 0.32474 0.10474 0.0
H930 H 0.04651 0.31343 0.10386 0.0
H931 H 0.04553 0.32706 0.0949 0.0
C932 C 0.02634 0.28713 0.0935 0.0
C933 C 0.01731 0.29612 0.09414 0.0
C934 C 0.03756 0.28979 0.08811 0.0
C935 C 0.03976 0.30139 0.08323 0.0
C936 C 0.03028 0.3099 0.08276 0.0
H937 H 0.11258 0.3317 0.08457 0.0
H938 H 0.09188 0.33019 0.07642 0.0
C939 C 0.01917 0.30732 0.08831 0.0
C940 C 0.05236 0.30522 0.08057 0.0
H941 H 0.07531 0.32246 0.09231 0.0
C942 C 0.05885 0.29942 0.07125 0.0
C943 C 0.05828 0.31391 0.08802 0.0
C944 C 0.05189 0.3201 0.0985 0.0
C945 C 0.0713 0.30177 0.06947 0.0
C946 C 0.07734 0.30998 0.07734 0.0
C947 C 0.07064 0.31627 0.08618 0.0
C948 C 0.09076 0.31061 0.07826 0.0
C949 C 0.07791 0.29521 0.05941 0.0
C950 C 0.09717 0.30007 0.08147 0.0
C951 C 0.10892 0.30092 0.08613 0.0
C952 C 0.11444 0.31233 0.08774 0.0
C953 C 0.10852 0.32279 0.08343 0.0
C954 C 0.09671 0.32193 0.07876 0.0
H955 H 0.07173 0.2934 0.05161 0.0
H956 H 0.08587 0.30049 0.05614 0.0
H957 H 0.08114 0.28628 0.06284 0.0
H958 H 0.09273 0.29127 0.08144 0.0
H959 H 0.11332 0.2927 0.08932 0.0
H960 H 0.26723 0.08738 0.29948 0.0
H961 H 0.27166 0.07732 0.3187 0.0
H962 H 0.26104 0.10966 0.33825 0.0
H963 H 0.25628 0.11976 0.31893 0.0
H964 H 0.28668 0.08237 0.33883 0.0
H965 H 0.23725 0.08373 0.35032 0.0
H966 H 0.24278 0.08757 0.33538 0.0
H967 H 0.24468 0.09807 0.34777 0.0
C968 C 0.26593 0.09241 0.30785 0.0
C969 C 0.26122 0.10428 0.30774 0.0
C970 C 0.26856 0.08668 0.31882 0.0
C971 C 0.26656 0.09272 0.32987 0.0
C972 C 0.26249 0.10482 0.3298 0.0
H973 H 0.25328 0.04664 0.39202 0.0
H974 H 0.26103 0.06535 0.3829 0.0
C975 C 0.25977 0.11055 0.31878 0.0
C976 C 0.26752 0.08572 0.34128 0.0
H977 H 0.24966 0.07139 0.36212 0.0
C978 C 0.27866 0.08017 0.34415 0.0
C979 C 0.25703 0.0829 0.34818 0.0
C980 C 0.24473 0.08829 0.34527 0.0
C981 C 0.27942 0.07126 0.35325 0.0
C982 C 0.26875 0.06783 0.35951 0.0
C983 C 0.25785 0.07409 0.35732 0.0
C984 C 0.26795 0.05653 0.36674 0.0
C985 C 0.2915 0.06525 0.3557 0.0
C986 C 0.26986 0.0453 0.36095 0.0
C987 C 0.26545 0.03459 0.36614 0.0
C988 C 0.25891 0.03501 0.37709 0.0
C989 C 0.25815 0.04607 0.38348 0.0
C990 C 0.26262 0.05677 0.37832 0.0
H991 H 0.29914 0.0716 0.35385 0.0
H992 H 0.29215 0.06203 0.36525 0.0
H993 H 0.29254 0.05731 0.34955 0.0
H994 H 0.27375 0.04491 0.35191 0.0
H995 H 0.26628 0.02618 0.36108 0.0
H996 H 0.32679 0.97326 0.54417 0.0
H997 H 0.30816 0.98337 0.53748 0.0
H998 H 0.3052 0.00079 0.57256 0.0
H999 H 0.32404 0.99136 0.57882 0.0
H1000 H 0.29118 0.97357 0.54945 0.0
H1001 H 0.2835 0.02267 0.55453 0.0
H1002 H 0.29864 0.01644 0.55309 0.0
H1003 H 0.29135 0.01739 0.56777 0.0
C1004 C 0.32268 0.98004 0.55003 0.0
C1005 C 0.32664 0.98143 0.56205 0.0
C1006 C 0.31194 0.98575 0.54626 0.0
C1007 C 0.30502 0.99259 0.55463 0.0
C1008 C 0.31026 0.99567 0.56585 0.0
H1009 H 0.23438 0.96634 0.56765 0.0
H1010 H 0.2533 0.97675 0.57303 0.0
C1011 C 0.32109 0.99019 0.56948 0.0
C1012 C 0.29154 0.99278 0.55358 0.0
H1013 H 0.26617 0.00949 0.56035 0.0
C1014 C 0.28578 0.98155 0.55155 0.0
C1015 C 0.28435 0.00309 0.55646 0.0
C1016 C 0.28983 0.01557 0.55796 0.0
C1017 C 0.27321 0.9802 0.55273 0.0
C1018 C 0.26614 0.99027 0.55652 0.0
C1019 C 0.27171 0.00167 0.55798 0.0
C1020 C 0.25279 0.98902 0.55764 0.0
C1021 C 0.26766 0.96793 0.54983 0.0
C1022 C 0.24554 0.99364 0.54827 0.0
C1023 C 0.23466 0.98782 0.54533 0.0
C1024 C 0.2311 0.97731 0.55167 0.0
C1025 C 0.23701 0.97435 0.56257 0.0
C1026 C 0.24788 0.98027 0.5656 0.0
H1027 H 0.27396 0.96206 0.54455 0.0
H1028 H 0.26546 0.96313 0.55843 0.0
H1029 H 0.25913 0.96897 0.54452 0.0
H1030 H 0.24909 0.00049 0.54213 0.0
H1031 H 0.23013 0.99031 0.53693 0.0
H1032 H 0.33933 0.01379 0.75022 0.0
H1033 H 0.33237 0.02883 0.76503 0.0
H1034 H 0.33654 0.00257 0.79383 0.0
H1035 H 0.34344 0.98739 0.77907 0.0
H1036 H 0.31365 0.02812 0.7877 0.0
H1037 H 0.36363 0.03184 0.79607 0.0
H1038 H 0.35763 0.02567 0.78208 0.0
H1039 H 0.35684 0.01692 0.79581 0.0
C1040 C 0.33845 0.0111 0.75965 0.0
C1041 C 0.34217 0.99952 0.76355 0.0
C1042 C 0.33438 0.01967 0.76807 0.0
C1043 C 0.33402 0.01676 0.78045 0.0
C1044 C 0.33674 0.0049 0.78426 0.0
H1045 H 0.32809 0.06491 0.84273 0.0
H1046 H 0.32376 0.04828 0.82847 0.0
C1047 C 0.34075 0.99629 0.77583 0.0
C1048 C 0.33311 0.02663 0.78942 0.0
H1049 H 0.35092 0.04525 0.80667 0.0
C1050 C 0.32174 0.03183 0.79197 0.0
C1051 C 0.34375 0.03144 0.79478 0.0
C1052 C 0.35619 0.02627 0.79206 0.0
C1053 C 0.32079 0.04189 0.79981 0.0
C1054 C 0.33147 0.04675 0.80504 0.0
C1055 C 0.34278 0.04144 0.80257 0.0
C1056 C 0.33137 0.05757 0.8129 0.0
C1057 C 0.30852 0.04748 0.80224 0.0
C1058 C 0.3368 0.06833 0.80872 0.0
C1059 C 0.33931 0.07776 0.8168 0.0
C1060 C 0.33652 0.0765 0.82919 0.0
C1061 C 0.33034 0.06606 0.83321 0.0
C1062 C 0.32781 0.05661 0.8251 0.0
H1063 H 0.30123 0.04329 0.79662 0.0
H1064 H 0.30618 0.0463 0.81199 0.0
H1065 H 0.30883 0.05741 0.80038 0.0
H1066 H 0.33967 0.06914 0.79933 0.0
H1067 H 0.34402 0.08575 0.81347 0.0
H1068 H 0.32332 0.08483 0.11244 0.0
H1069 H 0.32551 0.08224 0.0906 0.0
H1070 H 0.36066 0.09971 0.09198 0.0
H1071 H 0.35838 0.10257 0.11393 0.0
H1072 H 0.34485 0.11196 0.07836 0.0
H1073 H 0.34285 0.06385 0.06431 0.0
H1074 H 0.33106 0.06707 0.07509 0.0
H1075 H 0.34678 0.06836 0.07963 0.0
C1076 C 0.33174 0.08769 0.10818 0.0
C1077 C 0.34059 0.09407 0.11482 0.0
C1078 C 0.33304 0.08609 0.09568 0.0
C1079 C 0.34327 0.09074 0.08964 0.0
C1080 C 0.35272 0.096 0.09648 0.0
H1081 H 0.33923 0.11421 0.01351 0.0
H1082 H 0.34824 0.10673 0.03242 0.0
C1083 C 0.35141 0.09761 0.10902 0.0
C1084 C 0.34268 0.09257 0.07632 0.0
H1085 H 0.33409 0.07854 0.04996 0.0
C1086 C 0.34288 0.10461 0.07206 0.0
C1087 C 0.33997 0.08299 0.06815 0.0
C1088 C 0.34028 0.06984 0.07203 0.0
C1089 C 0.33959 0.10742 0.06009 0.0
C1090 C 0.33619 0.0979 0.05214 0.0
C1091 C 0.33664 0.0858 0.05615 0.0
C1092 C 0.33117 0.10057 0.03999 0.0
C1093 C 0.33899 0.1206 0.05627 0.0
C1094 C 0.31866 0.09918 0.03789 0.0
C1095 C 0.31346 0.10346 0.02712 0.0
C1096 C 0.32074 0.10917 0.01831 0.0
C1097 C 0.33338 0.10994 0.02018 0.0
C1098 C 0.33855 0.10566 0.03095 0.0
H1099 H 0.34031 0.12692 0.06405 0.0
H1100 H 0.34621 0.12245 0.04946 0.0
H1101 H 0.33008 0.12262 0.05195 0.0
H1102 H 0.31284 0.09529 0.04483 0.0
H1103 H 0.30371 0.10271 0.0259 0.0
H1104 H 0.31966 0.25628 0.12769 0.0
H1105 H 0.33742 0.26162 0.1153 0.0
H1106 H 0.31396 0.28012 0.08984 0.0
H1107 H 0.2964 0.27512 0.10223 0.0
H1108 H 0.33984 0.25273 0.09333 0.0
H1109 H 0.34249 0.30245 0.08893 0.0
H1110 H 0.33396 0.29523 0.10098 0.0
H1111 H 0.32712 0.29778 0.08627 0.0
C1112 C 0.31837 0.2618 0.11964 0.0
C1113 C 0.30665 0.26517 0.11584 0.0
C1114 C 0.32852 0.26488 0.1126 0.0
C1115 C 0.32706 0.27143 0.10172 0.0
C1116 C 0.31541 0.27539 0.09835 0.0
H1117 H 0.34158 0.26656 0.03062 0.0
H1118 H 0.33661 0.27351 0.05113 0.0
C1119 C 0.30532 0.27236 0.10538 0.0
C1120 C 0.33703 0.27213 0.09268 0.0
H1121 H 0.34808 0.29072 0.07042 0.0
C1122 C 0.34204 0.26111 0.08861 0.0
C1123 C 0.33993 0.28306 0.08653 0.0
C1124 C 0.33567 0.29529 0.09103 0.0
C1125 C 0.34876 0.26055 0.07782 0.0
C1126 C 0.35061 0.27131 0.07103 0.0
C1127 C 0.34656 0.28249 0.07564 0.0
C1128 C 0.3547 0.2706 0.05829 0.0
C1129 C 0.35289 0.24829 0.07316 0.0
C1130 C 0.36668 0.26729 0.05546 0.0
C1131 C 0.36956 0.26335 0.04372 0.0
C1132 C 0.36044 0.26258 0.03478 0.0
C1133 C 0.34875 0.26701 0.03737 0.0
C1134 C 0.34592 0.27102 0.04906 0.0
H1135 H 0.34991 0.24069 0.07912 0.0
H1136 H 0.34925 0.24668 0.06387 0.0
H1137 H 0.36296 0.24813 0.07257 0.0
H1138 H 0.37355 0.26692 0.06252 0.0
H1139 H 0.37865 0.26001 0.04194 0.0
H1140 H 0.78433 0.33402 0.9886 0.0
H1141 H 0.79897 0.32747 0.00402 0.0
H1142 H 0.7706 0.3279 0.03113 0.0
H1143 H 0.75592 0.33412 0.01576 0.0
H1144 H 0.80409 0.34239 0.02247 0.0
H1145 H 0.78938 0.29823 0.04146 0.0
H1146 H 0.78387 0.30387 0.02705 0.0
H1147 H 0.77709 0.30893 0.04108 0.0
C1148 C 0.78116 0.33236 0.99777 0.0
C1149 C 0.76903 0.33471 0.00103 0.0
C1150 C 0.78952 0.3286 0.00656 0.0
C1151 C 0.78586 0.3271 0.0187 0.0
C1152 C 0.77358 0.3287 0.02178 0.0
H1153 H 0.81559 0.34014 0.08826 0.0
H1154 H 0.80292 0.33438 0.07084 0.0
C1155 C 0.76521 0.33239 0.01299 0.0
C1156 C 0.79506 0.32604 0.02845 0.0
H1157 H 0.80178 0.31091 0.05472 0.0
C1158 C 0.80377 0.33533 0.02936 0.0
C1159 C 0.79454 0.31689 0.03748 0.0
C1160 C 0.78578 0.30635 0.03665 0.0
C1161 C 0.81159 0.33608 0.03937 0.0
C1162 C 0.81072 0.32723 0.04863 0.0
C1163 C 0.80234 0.31768 0.04757 0.0
C1164 C 0.81804 0.32837 0.05978 0.0
C1165 C 0.82033 0.34666 0.04027 0.0
C1166 C 0.83063 0.3265 0.05937 0.0
C1167 C 0.83787 0.32982 0.06924 0.0
C1168 C 0.8326 0.33508 0.07964 0.0
C1169 C 0.81989 0.33618 0.08033 0.0
C1170 C 0.81265 0.33285 0.07043 0.0
H1171 H 0.81874 0.35357 0.03307 0.0
H1172 H 0.81952 0.35115 0.04929 0.0
H1173 H 0.82979 0.34327 0.03938 0.0
H1174 H 0.83489 0.32302 0.0512 0.0
H1175 H 0.84764 0.32877 0.0685 0.0
H1176 H 0.95981 0.56234 0.24444 0.0
H1177 H 0.97311 0.57106 0.25973 0.0
H1178 H 0.00171 0.54638 0.24907 0.0
H1179 H 0.98811 0.53742 0.23391 0.0
H1180 H 0.99536 0.54149 0.27085 0.0
H1181 H 0.00126 0.59078 0.27033 0.0
H1182 H 0.98567 0.58811 0.2665 0.0
H1183 H 0.99754 0.58249 0.25661 0.0
C1184 C 0.96922 0.55941 0.24473 0.0
C1185 C 0.97298 0.54929 0.23799 0.0
C1186 C 0.97689 0.56439 0.25356 0.0
C1187 C 0.98847 0.55935 0.25567 0.0
C1188 C 0.99284 0.55043 0.24764 0.0
H1189 H 0.98781 0.58551 0.32767 0.0
H1190 H 0.00165 0.57748 0.31222 0.0
C1191 C 0.98511 0.5454 0.23886 0.0
C1192 C 0.99406 0.5609 0.2679 0.0
H1193 H 0.99427 0.58203 0.29048 0.0
C1194 C 0.99564 0.55041 0.27507 0.0
C1195 C 0.99498 0.57243 0.2735 0.0
C1196 C 0.99491 0.58405 0.26623 0.0
C1197 C 0.996 0.55114 0.2878 0.0
C1198 C 0.99447 0.56258 0.29345 0.0
C1199 C 0.99504 0.57315 0.28624 0.0
C1200 C 0.9891 0.56371 0.3058 0.0
C1201 C 0.99699 0.53955 0.29506 0.0
C1202 C 0.9779 0.55794 0.3081 0.0
C1203 C 0.97008 0.56244 0.31702 0.0
C1204 C 0.97334 0.57276 0.32374 0.0
C1205 C 0.98522 0.57736 0.32274 0.0
C1206 C 0.99308 0.57287 0.3138 0.0
H1207 H 0.00363 0.53328 0.29074 0.0
H1208 H -0.00015 0.54132 0.30458 0.0
H1209 H 0.98805 0.53485 0.29511 0.0
H1210 H 0.97443 0.55104 0.30197 0.0
H1211 H 0.96087 0.55894 0.31744 0.0
H1212 H 0.79088 0.79357 0.48822 0.0
H1213 H 0.77777 0.80324 0.50343 0.0
H1214 H 0.76919 0.76785 0.51815 0.0
H1215 H 0.78142 0.7583 0.50248 0.0
H1216 H 0.75125 0.78239 0.52217 0.0
H1217 H 0.79379 0.80657 0.53547 0.0
H1218 H 0.78754 0.81061 0.52096 0.0
H1219 H 0.79351 0.79555 0.52337 0.0
C1220 C 0.78562 0.78788 0.49431 0.0
C1221 C 0.78712 0.77519 0.49419 0.0
C1222 C 0.77835 0.79342 0.50316 0.0
C1223 C 0.77294 0.78633 0.5123 0.0
C1224 C 0.77337 0.77357 0.5113 0.0
H1225 H 0.77331 0.78264 0.58572 0.0
H1226 H 0.77783 0.78935 0.56515 0.0
C1227 C 0.78033 0.76805 0.50225 0.0
C1228 C 0.7683 0.79181 0.52375 0.0
H1229 H 0.77797 0.8065 0.54942 0.0
C1230 C 0.75698 0.78784 0.52808 0.0
C1231 C 0.77584 0.79895 0.53145 0.0
C1232 C 0.78838 0.80312 0.52766 0.0
C1233 C 0.75353 0.78963 0.54023 0.0
C1234 C 0.76131 0.79633 0.5481 0.0
C1235 C 0.77204 0.80139 0.54339 0.0
C1236 C 0.75966 0.79616 0.56153 0.0
C1237 C 0.7422 0.78323 0.54467 0.0
C1238 C 0.74838 0.79887 0.56685 0.0
C1239 C 0.74564 0.79442 0.57843 0.0
C1240 C 0.75437 0.78782 0.58503 0.0
C1241 C 0.76633 0.78732 0.58069 0.0
C1242 C 0.76892 0.79125 0.56889 0.0
H1243 H 0.73868 0.77654 0.53796 0.0
H1244 H 0.744 0.77831 0.5533 0.0
H1245 H 0.73492 0.79002 0.54629 0.0
H1246 H 0.7413 0.80326 0.56162 0.0
H1247 H 0.73637 0.79509 0.5817 0.0
H1248 H 0.09825 0.11123 0.30232 0.0
H1249 H 0.08981 0.09089 0.3041 0.0
H1250 H 0.09688 0.09124 0.34271 0.0
H1251 H 0.10573 0.11161 0.34091 0.0
H1252 H 0.10839 0.07337 0.33169 0.0
H1253 H 0.06086 0.07223 0.31586 0.0
H1254 H 0.07006 0.08043 0.30521 0.0
H1255 H 0.06824 0.0862 0.32046 0.0
C1256 C 0.09771 0.10714 0.31126 0.0
C1257 C 0.10285 0.11289 0.32144 0.0
C1258 C 0.0927 0.09554 0.31229 0.0
C1259 C 0.09259 0.08956 0.32356 0.0
C1260 C 0.0968 0.09573 0.33394 0.0
H1261 H 0.09697 0.01038 0.32762 0.0
H1262 H 0.09016 0.03065 0.33373 0.0
C1263 C 0.10189 0.10734 0.3329 0.0
C1264 C 0.09065 0.07625 0.32386 0.0
H1265 H 0.07285 0.05373 0.31192 0.0
C1266 C 0.10044 0.06905 0.32774 0.0
C1267 C 0.08033 0.07063 0.3186 0.0
C1268 C 0.06924 0.07781 0.31492 0.0
C1269 C 0.10062 0.0565 0.32564 0.0
C1270 C 0.09063 0.051 0.31968 0.0
C1271 C 0.0805 0.05803 0.31645 0.0
C1272 C 0.09136 0.03824 0.31564 0.0
C1273 C 0.11189 0.04938 0.329 0.0
C1274 C 0.09362 0.03572 0.30333 0.0
C1275 C 0.09749 0.02415 0.2998 0.0
C1276 C 0.0992 0.01503 0.30857 0.0
C1277 C 0.09588 0.01731 0.3207 0.0
C1278 C 0.09194 0.02884 0.32421 0.0
H1279 H 0.11949 0.05536 0.33194 0.0
H1280 H 0.10972 0.04308 0.33659 0.0
H1281 H 0.11502 0.04382 0.32117 0.0
H1282 H 0.09324 0.04292 0.29662 0.0
H1283 H 0.09994 0.02262 0.29038 0.0
H1284 H 0.33295 0.80643 0.55313 0.0
H1285 H 0.32555 0.80229 0.53252 0.0
H1286 H 0.34746 0.83178 0.51868 0.0
H1287 H 0.35508 0.83577 0.53911 0.0
H1288 H 0.31258 0.81972 0.52103 0.0
H1289 H 0.35157 0.80634 0.49196 0.0
H1290 H 0.35204 0.80557 0.50837 0.0
H1291 H 0.35416 0.81988 0.50075 0.0
C1292 C 0.3364 0.81183 0.54564 0.0
C1293 C 0.3445 0.82147 0.54773 0.0
C1294 C 0.33223 0.80942 0.53388 0.0
C1295 C 0.3361 0.81663 0.52405 0.0
C1296 C 0.3446 0.82591 0.52606 0.0
H1297 H 0.29006 0.83569 0.46587 0.0
H1298 H 0.31034 0.83448 0.47497 0.0
C1299 C 0.34882 0.82827 0.53779 0.0
C1300 C 0.32966 0.81589 0.51228 0.0
H1301 H 0.33325 0.81217 0.48159 0.0
C1302 C 0.31711 0.81799 0.51243 0.0
C1303 C 0.33564 0.81376 0.50107 0.0
C1304 C 0.34908 0.81115 0.50049 0.0
C1305 C 0.31032 0.81805 0.50172 0.0
C1306 C 0.31625 0.81599 0.49048 0.0
C1307 C 0.32882 0.81387 0.49022 0.0
C1308 C 0.30896 0.81531 0.47924 0.0
C1309 C 0.29674 0.82003 0.50257 0.0
C1310 C 0.30225 0.80466 0.47728 0.0
C1311 C 0.29051 0.80547 0.47256 0.0
C1312 C 0.2856 0.81691 0.46972 0.0
C1313 C 0.29347 0.82691 0.46869 0.0
C1314 C 0.30515 0.82618 0.47371 0.0
H1315 H 0.29386 0.82303 0.51178 0.0
H1316 H 0.29376 0.82696 0.49592 0.0
H1317 H 0.29193 0.81141 0.5004 0.0
H1318 H 0.30513 0.79615 0.48135 0.0
H1319 H 0.28469 0.79752 0.47307 0.0
H1320 H 0.61729 0.53798 0.7707 0.0
H1321 H 0.60437 0.53043 0.78683 0.0
H1322 H 0.57581 0.5549 0.77558 0.0
H1323 H 0.58906 0.5627 0.75954 0.0
H1324 H 0.58292 0.56135 0.79651 0.0
H1325 H 0.57678 0.51239 0.80068 0.0
H1326 H 0.59216 0.51428 0.79578 0.0
H1327 H 0.57985 0.51929 0.78608 0.0
C1328 C 0.60793 0.54107 0.77107 0.0
C1329 C 0.60415 0.55089 0.76392 0.0
C1330 C 0.60047 0.53676 0.78038 0.0
C1331 C 0.58907 0.54217 0.78259 0.0
C1332 C 0.58455 0.5506 0.77412 0.0
H1333 H 0.59721 0.52229 0.8554 0.0
H1334 H 0.58136 0.52905 0.84135 0.0
C1335 C 0.59208 0.55496 0.76483 0.0
C1336 C 0.58409 0.54174 0.79517 0.0
H1337 H 0.58585 0.52273 0.81945 0.0
C1338 C 0.58302 0.55284 0.80149 0.0
C1339 C 0.58359 0.53077 0.80183 0.0
C1340 C 0.58301 0.51854 0.79564 0.0
C1341 C 0.58377 0.55326 0.81422 0.0
C1342 C 0.58594 0.54238 0.82068 0.0
C1343 C 0.58467 0.5312 0.81454 0.0
C1344 C 0.59275 0.54236 0.83238 0.0
C1345 C 0.58335 0.56545 0.82048 0.0
C1346 C 0.60405 0.54839 0.83282 0.0
C1347 C 0.61302 0.54464 0.84096 0.0
C1348 C 0.61085 0.53478 0.84871 0.0
C1349 C 0.59901 0.53008 0.84964 0.0
C1350 C 0.58998 0.53384 0.84148 0.0
H1351 H 0.57613 0.57121 0.81639 0.0
H1352 H 0.58161 0.56454 0.83039 0.0
H1353 H 0.59214 0.57024 0.81911 0.0
H1354 H 0.6066 0.55482 0.82581 0.0
H1355 H 0.62216 0.54821 0.83991 0.0
H1356 H 0.79951 0.47651 0.80212 0.0
H1357 H 0.80855 0.49277 0.78991 0.0
H1358 H 0.77314 0.50116 0.77524 0.0
H1359 H 0.76434 0.48449 0.78677 0.0
H1360 H 0.79097 0.50837 0.75999 0.0
H1361 H 0.80105 0.52419 0.80711 0.0
H1362 H 0.80888 0.51076 0.80214 0.0
H1363 H 0.79264 0.51044 0.80418 0.0
C1364 C 0.79383 0.48132 0.79565 0.0
C1365 C 0.7812 0.47937 0.79549 0.0
C1366 C 0.79896 0.49076 0.78886 0.0
C1367 C 0.79142 0.49855 0.78215 0.0
C1368 C 0.77913 0.49539 0.78053 0.0
H1369 H 0.77176 0.56871 0.77857 0.0
H1370 H 0.78078 0.54971 0.78539 0.0
C1371 C 0.77407 0.48577 0.7871 0.0
C1372 C 0.79545 0.511 0.77882 0.0
H1373 H 0.8018 0.5386 0.79173 0.0
C1374 C 0.79364 0.51495 0.76684 0.0
C1375 C 0.79884 0.5196 0.78786 0.0
C1376 C 0.8004 0.51611 0.80106 0.0
C1377 C 0.79413 0.52735 0.76382 0.0
C1378 C 0.79693 0.536 0.77299 0.0
C1379 C 0.79976 0.53194 0.78473 0.0
C1380 C 0.79447 0.54916 0.77123 0.0
C1381 C 0.79055 0.53112 0.7511 0.0
C1382 C 0.79986 0.55572 0.76171 0.0
C1383 C 0.79462 0.56663 0.75778 0.0
C1384 C 0.78418 0.57119 0.76354 0.0
C1385 C 0.77994 0.56553 0.77413 0.0
C1386 C 0.78504 0.55457 0.77795 0.0
H1387 H 0.78689 0.52339 0.74569 0.0
H1388 H 0.78353 0.53838 0.75139 0.0
H1389 H 0.79863 0.53473 0.74627 0.0
H1390 H 0.80735 0.55188 0.75661 0.0
H1391 H 0.79791 0.57076 0.74946 0.0
H1392 H 0.84199 0.5161 0.97693 0.0
H1393 H 0.83929 0.52901 0.99484 0.0
H1394 H 0.85054 0.49907 0.01769 0.0
H1395 H 0.85423 0.48671 -0.00023 0.0
H1396 H 0.82209 0.52453 0.00818 0.0
H1397 H 0.86055 0.52507 0.03945 0.0
H1398 H 0.86263 0.52103 0.02367 0.0
H1399 H 0.85908 0.50953 0.03491 0.0
C1400 C 0.84465 0.51263 0.98577 0.0
C1401 C 0.84837 0.50051 0.98708 0.0
C1402 C 0.843 0.51996 0.99601 0.0
C1403 C 0.84463 0.51507 0.00771 0.0
C1404 C 0.84953 0.50329 0.00885 0.0
H1405 H 0.79441 0.4998 0.05783 0.0
H1406 H 0.8042 0.5081 0.03976 0.0
C1407 C 0.85158 0.49613 0.99858 0.0
C1408 C 0.83853 0.52076 0.01835 0.0
H1409 H 0.84021 0.52054 0.04921 0.0
C1410 C 0.82623 0.5241 0.01712 0.0
C1411 C 0.84383 0.52075 0.03006 0.0
C1412 C 0.8573 0.51904 0.03201 0.0
C1413 C 0.81879 0.52577 0.02732 0.0
C1414 C 0.82364 0.52351 0.039 0.0
C1415 C 0.83627 0.52185 0.04026 0.0
C1416 C 0.81575 0.52079 0.04961 0.0
C1417 C 0.80569 0.52936 0.02539 0.0
C1418 C 0.81882 0.52515 0.06122 0.0
C1419 C 0.81351 0.52005 0.07155 0.0
C1420 C 0.80479 0.5108 0.07041 0.0
C1421 C 0.8009 0.50716 0.05885 0.0
C1422 C 0.80647 0.51199 0.04852 0.0
H1423 H 0.80497 0.53606 0.01786 0.0
H1424 H 0.80035 0.52123 0.02267 0.0
H1425 H 0.80161 0.53338 0.0337 0.0
H1426 H 0.82594 0.53189 0.06233 0.0
H1427 H 0.81669 0.52286 0.08045 0.0
H1428 H 0.80649 0.57085 0.35075 0.0
H1429 H 0.79913 0.55202 0.34159 0.0
H1430 H 0.79961 0.56899 0.30625 0.0
H1431 H 0.80692 0.58803 0.31546 0.0
H1432 H 0.7803 0.54336 0.32376 0.0
H1433 H 0.82848 0.54332 0.30807 0.0
H1434 H 0.82302 0.55366 0.31958 0.0
H1435 H 0.81956 0.55636 0.30386 0.0
C1436 C 0.80456 0.57071 0.34109 0.0
C1437 C 0.80747 0.58076 0.33374 0.0
C1438 C 0.80032 0.55997 0.33589 0.0
C1439 C 0.79904 0.5591 0.32326 0.0
C1440 C 0.80062 0.56954 0.31604 0.0
H1441 H 0.78734 0.50388 0.27312 0.0
H1442 H 0.78268 0.5176 0.28978 0.0
C1443 C 0.80476 0.58039 0.32128 0.0
C1444 C 0.79859 0.5469 0.31769 0.0
H1445 H 0.81636 0.52668 0.30237 0.0
C1446 C 0.78814 0.53967 0.31906 0.0
C1447 C 0.80901 0.54201 0.31197 0.0
C1448 C 0.82071 0.54916 0.31083 0.0
C1449 C 0.78771 0.52777 0.31437 0.0
C1450 C 0.79798 0.52307 0.30821 0.0
C1451 C 0.80853 0.53021 0.30724 0.0
C1452 C 0.79765 0.51165 0.30109 0.0
C1453 C 0.77629 0.52035 0.316 0.0
C1454 C 0.80709 0.50308 0.30226 0.0
C1455 C 0.80976 0.49514 0.29267 0.0
C1456 C 0.80311 0.49591 0.28182 0.0
C1457 C 0.79262 0.50318 0.28142 0.0
C1458 C 0.78991 0.51102 0.29099 0.0
H1459 H 0.77124 0.5232 0.32428 0.0
H1460 H 0.77023 0.52182 0.30806 0.0
H1461 H 0.77835 0.51049 0.31665 0.0
H1462 H 0.81317 0.50343 0.31001 0.0
H1463 H 0.81783 0.48955 0.29321 0.0
H1464 H 0.83408 0.6284 0.54418 0.0
H1465 H 0.81583 0.61803 0.5513 0.0
H1466 H 0.8217 0.58946 0.52505 0.0
H1467 H 0.83997 0.59995 0.51789 0.0
H1468 H 0.80107 0.60209 0.52062 0.0
H1469 H 0.80163 0.58903 0.569 0.0
H1470 H 0.80791 0.60396 0.56708 0.0
H1471 H 0.81545 0.59107 0.56031 0.0
C1472 C 0.83199 0.61945 0.54059 0.0
C1473 C 0.83848 0.61487 0.53063 0.0
C1474 C 0.82146 0.61355 0.54458 0.0
C1475 C 0.81734 0.60297 0.53866 0.0
C1476 C 0.82472 0.59758 0.52976 0.0
H1477 H 0.7446 0.59536 0.56523 0.0
H1478 H 0.76131 0.58621 0.55387 0.0
C1479 C 0.83527 0.60348 0.5258 0.0
C1480 C 0.80436 0.59942 0.5398 0.0
H1481 H 0.78211 0.59621 0.56105 0.0
C1482 C 0.79693 0.6004 0.52942 0.0
C1483 C 0.79894 0.59704 0.55118 0.0
C1484 C 0.80644 0.59508 0.56249 0.0
C1485 C 0.78419 0.60029 0.53034 0.0
C1486 C 0.77877 0.5993 0.54193 0.0
C1487 C 0.78621 0.59708 0.55212 0.0
C1488 C 0.76589 0.60271 0.54419 0.0
C1489 C 0.7767 0.60182 0.51896 0.0
C1490 C 0.76209 0.61464 0.54156 0.0
C1491 C 0.75233 0.61978 0.54788 0.0
C1492 C 0.7465 0.61315 0.55708 0.0
C1493 C 0.7489 0.60064 0.5581 0.0
C1494 C 0.7586 0.59545 0.55174 0.0
H1495 H 0.78129 0.59754 0.51104 0.0
H1496 H 0.76749 0.59779 0.51997 0.0
H1497 H 0.77572 0.61167 0.51695 0.0
H1498 H 0.76759 0.62051 0.53588 0.0
H1499 H 0.75076 0.62946 0.54697 0.0
H1500 H 0.5108 0.06428 0.80561 0.0
H1501 H 0.51871 0.04599 0.81562 0.0
H1502 H 0.52059 0.06537 0.8497 0.0
H1503 H 0.51228 0.08348 0.83983 0.0
H1504 H 0.53817 0.03795 0.83277 0.0
H1505 H 0.49171 0.04142 0.85307 0.0
H1506 H 0.49631 0.0509 0.84053 0.0
H1507 H 0.50208 0.05382 0.85555 0.0
C1508 C 0.51333 0.06473 0.81512 0.0
C1509 C 0.51073 0.0751 0.82205 0.0
C1510 C 0.5179 0.05433 0.82082 0.0
C1511 C 0.52001 0.05433 0.83343 0.0
C1512 C 0.51888 0.06519 0.84 0.0
H1513 H 0.49703 0.98535 0.8616 0.0
H1514 H 0.50914 0.00382 0.86487 0.0
C1515 C 0.51409 0.07548 0.83437 0.0
C1516 C 0.52053 0.04259 0.8399 0.0
H1517 H 0.50149 0.02291 0.85431 0.0
C1518 C 0.53031 0.0347 0.83777 0.0
C1519 C 0.51034 0.03847 0.84662 0.0
C1520 C 0.49947 0.04652 0.84907 0.0
C1521 C 0.5297 0.02245 0.84132 0.0
C1522 C 0.51891 0.01801 0.84677 0.0
C1523 C 0.50976 0.02626 0.85009 0.0
C1524 C 0.51542 0.00501 0.84624 0.0
C1525 C 0.54036 0.01426 0.83861 0.0
C1526 C 0.51538 0.99924 0.83485 0.0
C1527 C 0.50853 0.98876 0.833 0.0
C1528 C 0.50144 0.98393 0.84244 0.0
C1529 C 0.50233 0.98899 0.85414 0.0
C1530 C 0.5093 0.99948 0.85603 0.0
H1531 H 0.54905 0.01914 0.8403 0.0
H1532 H 0.54017 0.00585 0.84421 0.0
H1533 H 0.54021 0.01171 0.82884 0.0
H1534 H 0.51968 0.00341 0.82705 0.0
H1535 H 0.50814 0.98496 0.82391 0.0
H1536 H 0.00335 0.33874 0.23958 0.0
H1537 H 0.9882 0.33054 0.22536 0.0
H1538 H 0.99277 0.36211 0.20248 0.0
H1539 H 0.00708 0.37065 0.21691 0.0
H1540 H 0.97054 0.35421 0.2002 0.0
H1541 H 0.00197 0.31453 0.19632 0.0
H1542 H 0.99472 0.31647 0.21078 0.0
H1543 H 0.00565 0.32752 0.20557 0.0
C1544 C 0.00087 0.34403 0.23165 0.0
C1545 C 0.00663 0.3552 0.22922 0.0
C1546 C 0.99228 0.33931 0.22349 0.0
C1547 C 0.98969 0.34548 0.21259 0.0
C1548 C 0.99465 0.3571 0.21075 0.0
H1549 H 0.98942 0.3402 0.14075 0.0
H1550 H 0.98356 0.34674 0.16107 0.0
C1551 C 0.00293 0.36196 0.21902 0.0
C1552 C 0.98332 0.33947 0.20228 0.0
H1553 H 0.9876 0.31705 0.18123 0.0
C1554 C 0.97408 0.34592 0.1962 0.0
C1555 C 0.98788 0.32859 0.19703 0.0
C1556 C 0.99814 0.3214 0.20268 0.0
C1557 C 0.97011 0.34241 0.18456 0.0
C1558 C 0.97535 0.33211 0.17901 0.0
C1559 C 0.9836 0.32495 0.18558 0.0
C1560 C 0.97456 0.32986 0.16577 0.0
C1561 C 0.96087 0.35012 0.178 0.0
C1562 C 0.97086 0.31845 0.16143 0.0
C1563 C 0.9742 0.31466 0.14977 0.0
C1564 C 0.98154 0.32216 0.14239 0.0
C1565 C 0.98395 0.33412 0.14625 0.0
C1566 C 0.98049 0.33793 0.15786 0.0
H1567 H 0.95503 0.35517 0.1845 0.0
H1568 H 0.9657 0.35687 0.17225 0.0
H1569 H 0.95503 0.34446 0.17199 0.0
H1570 H 0.96632 0.31208 0.16743 0.0
H1571 H 0.97198 0.30546 0.14703 0.0
H1572 H 0.94574 0.77933 0.37203 0.0
H1573 H 0.93477 0.77295 0.39004 0.0
H1574 H 0.94575 0.7358 0.38388 0.0
H1575 H 0.95729 0.74222 0.366 0.0
H1576 H 0.9195 0.75608 0.40203 0.0
H1577 H 0.96867 0.74631 0.41076 0.0
H1578 H 0.96406 0.7533 0.39672 0.0
H1579 H 0.96068 0.73753 0.39955 0.0
C1580 C 0.94543 0.76971 0.37413 0.0
C1581 C 0.95292 0.76139 0.36797 0.0
C1582 C 0.93905 0.76603 0.38446 0.0
C1583 C 0.93996 0.75399 0.38863 0.0
C1584 C 0.94532 0.74523 0.38105 0.0
H1585 H 0.95945 0.76904 0.46133 0.0
H1586 H 0.95043 0.7536 0.44808 0.0
C1587 C 0.9519 0.74893 0.37081 0.0
C1588 C 0.93865 0.7519 0.40189 0.0
H1589 H 0.95711 0.75316 0.4267 0.0
C1590 C 0.92762 0.75499 0.40753 0.0
C1591 C 0.94916 0.75015 0.40918 0.0
C1592 C 0.96133 0.74665 0.40381 0.0
C1593 C 0.92723 0.75801 0.41995 0.0
C1594 C 0.93819 0.75825 0.42671 0.0
C1595 C 0.94872 0.75325 0.42152 0.0
C1596 C 0.93993 0.76639 0.43739 0.0
C1597 C 0.91523 0.7617 0.42545 0.0
C1598 C 0.9365 0.77866 0.43634 0.0
C1599 C 0.94152 0.78745 0.44397 0.0
C1600 C 0.95033 0.78424 0.45267 0.0
C1601 C 0.95287 0.77185 0.45456 0.0
C1602 C 0.94764 0.76299 0.44703 0.0
H1603 H 0.90791 0.75546 0.42232 0.0
H1604 H 0.91551 0.76162 0.43555 0.0
H1605 H 0.91279 0.77097 0.42228 0.0
H1606 H 0.93086 0.78171 0.42887 0.0
H1607 H 0.93917 0.79688 0.44236 0.0
H1608 H 0.62407 0.76472 0.71497 0.0
H1609 H 0.61961 0.75855 0.69405 0.0
H1610 H 0.61861 0.72098 0.70533 0.0
H1611 H 0.62407 0.72696 0.72584 0.0
H1612 H 0.62289 0.72131 0.68256 0.0
H1613 H 0.58427 0.75284 0.69092 0.0
H1614 H 0.59863 0.76043 0.68967 0.0
H1615 H 0.59585 0.75015 0.70214 0.0
C1616 C 0.62361 0.75511 0.71285 0.0
C1617 C 0.62395 0.74636 0.72217 0.0
C1618 C 0.62078 0.75159 0.70091 0.0
C1619 C 0.61796 0.73937 0.69829 0.0
C1620 C 0.62039 0.73051 0.70714 0.0
H1621 H 0.557 0.723 0.65261 0.0
H1622 H 0.57115 0.72258 0.66974 0.0
C1623 C 0.62354 0.73397 0.71893 0.0
C1624 C 0.61072 0.73591 0.68734 0.0
H1625 H 0.58377 0.74154 0.67298 0.0
C1626 C 0.61433 0.72574 0.68045 0.0
C1627 C 0.59937 0.74148 0.68473 0.0
C1628 C 0.59422 0.75174 0.69231 0.0
C1629 C 0.60686 0.72087 0.67125 0.0
C1630 C 0.59567 0.72661 0.66851 0.0
C1631 C 0.59225 0.73698 0.67516 0.0
C1632 C 0.5874 0.72253 0.65856 0.0
C1633 C 0.6109 0.70938 0.66492 0.0
C1634 C 0.59173 0.72145 0.6466 0.0
C1635 C 0.58359 0.7212 0.63684 0.0
C1636 C 0.57105 0.72243 0.63886 0.0
C1637 C 0.56663 0.72192 0.6508 0.0
C1638 C 0.57476 0.72191 0.66059 0.0
H1639 H 0.61684 0.70381 0.67091 0.0
H1640 H 0.60303 0.70373 0.66205 0.0
H1641 H 0.61628 0.71182 0.65675 0.0
H1642 H 0.60136 0.72206 0.64466 0.0
H1643 H 0.58717 0.7215 0.62767 0.0
H1644 H 0.60714 0.35478 0.9408 0.0
H1645 H 0.61607 0.35849 0.92102 0.0
H1646 H 0.58061 0.36717 0.90656 0.0
H1647 H 0.5715 0.36281 0.9264 0.0
H1648 H 0.58909 0.34882 0.89531 0.0
H1649 H 0.62648 0.38197 0.89615 0.0
H1650 H 0.62866 0.37151 0.90843 0.0
H1651 H 0.61539 0.38119 0.90823 0.0
C1652 C 0.60129 0.35806 0.93356 0.0
C1653 C 0.58859 0.35828 0.93508 0.0
C1654 C 0.60646 0.36027 0.9222 0.0
C1655 C 0.59905 0.36304 0.91218 0.0
C1656 C 0.58653 0.36497 0.91413 0.0
H1657 H 0.62799 0.35644 0.83815 0.0
H1658 H 0.62219 0.36502 0.8579 0.0
C1659 C 0.58131 0.36261 0.92552 0.0
C1660 C 0.60384 0.36102 0.89968 0.0
H1661 H 0.62904 0.36488 0.88184 0.0
C1662 C 0.5977 0.35258 0.8923 0.0
C1663 C 0.61505 0.36591 0.89558 0.0
C1664 C 0.62167 0.37575 0.9025 0.0
C1665 C 0.60269 0.34843 0.88134 0.0
C1666 C 0.6144 0.35247 0.87781 0.0
C1667 C 0.62026 0.36146 0.88476 0.0
C1668 C 0.62044 0.34754 0.86677 0.0
C1669 C 0.59531 0.33976 0.87364 0.0
C1670 C 0.62225 0.33494 0.86544 0.0
C1671 C 0.62537 0.33004 0.85412 0.0
C1672 C 0.62687 0.33771 0.84403 0.0
C1673 C 0.62658 0.35037 0.84576 0.0
C1674 C 0.62332 0.35527 0.85704 0.0
H1675 H 0.58546 0.34022 0.87587 0.0
H1676 H 0.59646 0.34183 0.86384 0.0
H1677 H 0.59839 0.3303 0.8753 0.0
H1678 H 0.62043 0.32883 0.87295 0.0
H1679 H 0.62547 0.32024 0.85304 0.0
H1680 H 0.14319 0.96063 0.31063 0.0
H1681 H 0.16164 0.94934 0.31546 0.0
H1682 H 0.16154 0.96464 0.3516 0.0
H1683 H 0.14314 0.97594 0.34688 0.0
H1684 H 0.1805 0.96455 0.31971 0.0
H1685 H 0.17812 0.93202 0.35753 0.0
H1686 H 0.16505 0.93573 0.34823 0.0
H1687 H 0.16918 0.94521 0.36098 0.0
C1688 C 0.14685 0.96129 0.31975 0.0
C1689 C 0.14193 0.96953 0.32826 0.0
C1690 C 0.15735 0.9547 0.32252 0.0
C1691 C 0.16301 0.95615 0.33386 0.0
C1692 C 0.15725 0.9632 0.34284 0.0
H1693 H 0.21346 0.98245 0.37297 0.0
H1694 H 0.19934 0.96803 0.36434 0.0
C1695 C 0.14677 0.96981 0.34008 0.0
C1696 C 0.17614 0.95351 0.33525 0.0
H1697 H 0.19629 0.94544 0.35732 0.0
C1698 C 0.1841 0.95998 0.32767 0.0
C1699 C 0.18081 0.94736 0.34548 0.0
C1700 C 0.17282 0.93958 0.35343 0.0
C1701 C 0.19616 0.96223 0.33116 0.0
C1702 C 0.20044 0.95743 0.34235 0.0
C1703 C 0.19298 0.94931 0.34886 0.0
C1704 C 0.21069 0.96333 0.34891 0.0
C1705 C 0.20356 0.97099 0.32358 0.0
C1706 C 0.2222 0.96501 0.3436 0.0
C1707 C 0.23025 0.97371 0.34834 0.0
C1708 C 0.22701 0.98053 0.35868 0.0
C1709 C 0.21618 0.9776 0.36483 0.0
C1710 C 0.20809 0.9692 0.35995 0.0
H1711 H 0.19832 0.97471 0.31577 0.0
H1712 H 0.2067 0.97877 0.32922 0.0
H1713 H 0.21164 0.96626 0.31986 0.0
H1714 H 0.22463 0.96022 0.33535 0.0
H1715 H 0.23867 0.97552 0.34357 0.0
H1716 H 0.3492 0.83828 0.61659 0.0
H1717 H 0.3562 0.85927 0.6176 0.0
H1718 H 0.32491 0.87066 0.59688 0.0
H1719 H 0.31772 0.8497 0.59612 0.0
H1720 H 0.3615 0.86638 0.59399 0.0
H1721 H 0.33298 0.90131 0.61646 0.0
H1722 H 0.33207 0.88535 0.62036 0.0
H1723 H 0.32462 0.89099 0.60693 0.0
C1724 C 0.34336 0.84535 0.61298 0.0
C1725 C 0.33321 0.84229 0.6058 0.0
C1726 C 0.34745 0.85736 0.61345 0.0
C1727 C 0.34128 0.86646 0.607 0.0
C1728 C 0.32988 0.86377 0.60187 0.0
H1729 H 0.36345 0.92092 0.55824 0.0
H1730 H 0.36121 0.90119 0.56812 0.0
C1731 C 0.32573 0.85173 0.60148 0.0
C1732 C 0.34806 0.87741 0.60297 0.0
H1733 H 0.34696 0.90835 0.60118 0.0
C1734 C 0.35853 0.87556 0.59587 0.0
C1735 C 0.34397 0.88938 0.60513 0.0
C1736 C 0.33284 0.89191 0.61272 0.0
C1737 C 0.36492 0.8853 0.5907 0.0
C1738 C 0.36062 0.89723 0.59252 0.0
C1739 C 0.35031 0.89916 0.59987 0.0
C1740 C 0.36593 0.90778 0.58607 0.0
C1741 C 0.37607 0.88273 0.58314 0.0
C1742 C 0.37028 0.91777 0.5927 0.0
C1743 C 0.37178 0.92902 0.58701 0.0
C1744 C 0.3686 0.93047 0.5747 0.0
C1745 C 0.36608 0.92007 0.5677 0.0
C1746 C 0.36462 0.90879 0.5734 0.0
H1747 H 0.38008 0.87372 0.58536 0.0
H1748 H 0.3735 0.88266 0.57338 0.0
H1749 H 0.3831 0.88986 0.5845 0.0
H1750 H 0.37144 0.91714 0.60247 0.0
H1751 H 0.37372 0.9369 0.59261 0.0
H1752 H 0.36515 0.11552 0.85598 0.0
H1753 H 0.38633 0.12172 0.85573 0.0
H1754 H 0.38032 0.14135 0.82229 0.0
H1755 H 0.35906 0.13476 0.82228 0.0
H1756 H 0.39686 0.12452 0.81955 0.0
H1757 H 0.40863 0.15002 0.86107 0.0
H1758 H 0.40034 0.13652 0.86492 0.0
H1759 H 0.39309 0.14822 0.856 0.0
C1760 C 0.36816 0.12147 0.84877 0.0
C1761 C 0.36045 0.12447 0.83902 0.0
C1762 C 0.38032 0.12514 0.84871 0.0
C1763 C 0.38493 0.13209 0.83903 0.0
C1764 C 0.37696 0.13603 0.82987 0.0
H1765 H 0.46109 0.1246 0.81631 0.0
H1766 H 0.44188 0.13548 0.81909 0.0
C1767 C 0.36484 0.13223 0.82985 0.0
C1768 C 0.39827 0.13292 0.8372 0.0
H1769 H 0.42501 0.13764 0.85229 0.0
C1770 C 0.40303 0.12775 0.82655 0.0
C1771 C 0.40631 0.13708 0.84635 0.0
C1772 C 0.4018 0.14338 0.85766 0.0
C1773 C 0.41551 0.12569 0.8252 0.0
C1774 C 0.4235 0.12912 0.8347 0.0
C1775 C 0.41885 0.13502 0.84503 0.0
C1776 C 0.43629 0.12496 0.83474 0.0
C1777 C 0.41991 0.11896 0.81405 0.0
C1778 C 0.43982 0.11601 0.8431 0.0
C1779 C 0.45079 0.10983 0.84161 0.0
C1780 C 0.4584 0.11246 0.83167 0.0
C1781 C 0.45533 0.12219 0.82393 0.0
C1782 C 0.44437 0.12844 0.82551 0.0
H1783 H 0.41228 0.11528 0.80852 0.0
H1784 H 0.42522 0.12526 0.80822 0.0
H1785 H 0.42593 0.11129 0.81666 0.0
H1786 H 0.43371 0.11322 0.85031 0.0
H1787 H 0.45291 0.1025 0.84783 0.0
H1788 H 0.30639 0.13284 0.16104 0.0
H1789 H 0.29312 0.14882 0.16809 0.0
H1790 H 0.26576 0.13783 0.14212 0.0
H1791 H 0.27943 0.12205 0.13447 0.0
H1792 H 0.27135 0.15951 0.13802 0.0
H1793 H 0.26469 0.15829 0.18721 0.0
H1794 H 0.28057 0.15587 0.18475 0.0
H1795 H 0.26967 0.14498 0.17896 0.0
C1796 C 0.29743 0.13355 0.157 0.0
C1797 C 0.29414 0.12639 0.1469 0.0
C1798 C 0.28969 0.14263 0.16124 0.0
C1799 C 0.27835 0.1446 0.15571 0.0
C1800 C 0.27447 0.13653 0.14654 0.0
H1801 H 0.26092 0.22139 0.14774 0.0
H1802 H 0.25396 0.201 0.15321 0.0
C1803 C 0.28232 0.12752 0.14214 0.0
C1804 C 0.27228 0.15658 0.15738 0.0
H1805 H 0.26944 0.17911 0.17859 0.0
C1806 C 0.27039 0.16365 0.14692 0.0
C1807 C 0.27089 0.16207 0.16896 0.0
C1808 C 0.27144 0.1548 0.18056 0.0
C1809 C 0.26882 0.17627 0.14766 0.0
C1810 C 0.269 0.18196 0.15922 0.0
C1811 C 0.26947 0.17475 0.16974 0.0
C1812 C 0.27139 0.19517 0.16019 0.0
C1813 C 0.26834 0.18353 0.13599 0.0
C1814 C 0.28318 0.19895 0.16332 0.0
C1815 C 0.2872 0.21058 0.16024 0.0
C1816 C 0.2795 0.21861 0.15393 0.0
C1817 C 0.26718 0.21537 0.15238 0.0
C1818 C 0.26316 0.20371 0.15551 0.0
H1819 H 0.2693 0.17771 0.12778 0.0
H1820 H 0.25949 0.18835 0.13538 0.0
H1821 H 0.27569 0.19046 0.13588 0.0
H1822 H 0.28966 0.19251 0.16702 0.0
H1823 H 0.29667 0.21284 0.16181 0.0
H1824 H 0.14757 0.15954 0.29489 0.0
H1825 H 0.1628 0.16853 0.28194 0.0
H1826 H 0.14816 0.14923 0.25098 0.0
H1827 H 0.1331 0.13959 0.2642 0.0
H1828 H 0.16954 0.14279 0.25364 0.0
H1829 H 0.17278 0.19198 0.25721 0.0
H1830 H 0.17034 0.18697 0.27246 0.0
H1831 H 0.15883 0.18414 0.26102 0.0
C1832 C 0.14734 0.15739 0.28527 0.0
C1833 C 0.13939 0.14847 0.28068 0.0
C1834 C 0.15597 0.1628 0.27775 0.0
C1835 C 0.15672 0.15963 0.26539 0.0
C1836 C 0.14782 0.15183 0.26049 0.0
H1837 H 0.23207 0.14399 0.25617 0.0
H1838 H 0.2151 0.15386 0.24569 0.0
C1839 C 0.13925 0.14624 0.26808 0.0
C1840 C 0.16845 0.16163 0.25894 0.0
H1841 H 0.19287 0.18059 0.26136 0.0
C1842 C 0.17454 0.15123 0.25476 0.0
C1843 C 0.17499 0.17268 0.25995 0.0
C1844 C 0.16878 0.18456 0.26278 0.0
C1845 C 0.18725 0.15092 0.25396 0.0
C1846 C 0.19398 0.16145 0.25723 0.0
C1847 C 0.18775 0.17243 0.2592 0.0
C1848 C 0.20647 0.16018 0.2622 0.0
C1849 C 0.19328 0.13885 0.25135 0.0
C1850 C 0.20801 0.16176 0.27478 0.0
C1851 C 0.21779 0.15637 0.28077 0.0
C1852 C 0.22613 0.14917 0.27429 0.0
C1853 C 0.22559 0.14916 0.26148 0.0
C1854 C 0.21587 0.15478 0.25546 0.0
H1855 H 0.18658 0.1315 0.24947 0.0
H1856 H 0.19924 0.1397 0.24326 0.0
H1857 H 0.19894 0.136 0.25921 0.0
H1858 H 0.20097 0.16603 0.2802 0.0
H1859 H 0.21805 0.15684 0.29061 0.0
H1860 H 0.18347 0.92907 0.53072 0.0
H1861 H 0.18083 0.91153 0.5173 0.0
H1862 H 0.20867 0.8924 0.53733 0.0
H1863 H 0.21058 0.90951 0.55114 0.0
H1864 H 0.19763 0.90742 0.50291 0.0
H1865 H 0.19103 0.86386 0.52595 0.0
H1866 H 0.18774 0.87804 0.53355 0.0
H1867 H 0.20285 0.87155 0.53406 0.0
C1868 C 0.1883 0.92073 0.53279 0.0
C1869 C 0.19713 0.92054 0.54201 0.0
C1870 C 0.18695 0.91076 0.52499 0.0
C1871 C 0.19463 0.9006 0.52614 0.0
C1872 C 0.20239 0.8999 0.5363 0.0
H1873 H 0.24429 0.87423 0.47669 0.0
H1874 H 0.22898 0.88644 0.48701 0.0
C1875 C 0.20348 0.90974 0.54429 0.0
C1876 C 0.19674 0.89238 0.51556 0.0
H1877 H 0.20602 0.86357 0.5089 0.0
C1878 C 0.19906 0.89774 0.50416 0.0
C1879 C 0.19837 0.87969 0.51687 0.0
C1880 C 0.19471 0.87299 0.52826 0.0
C1881 C 0.20405 0.89103 0.49453 0.0
C1882 C 0.20732 0.87874 0.49647 0.0
C1883 C 0.20387 0.87309 0.50742 0.0
C1884 C 0.21552 0.87202 0.48803 0.0
C1885 C 0.20605 0.89733 0.48251 0.0
C1886 C 0.21314 0.85983 0.485 0.0
C1887 C 0.22206 0.85274 0.47938 0.0
C1888 C 0.23347 0.85776 0.47649 0.0
C1889 C 0.2355 0.87019 0.47858 0.0
C1890 C 0.22668 0.8772 0.48447 0.0
H1891 H 0.19867 0.904 0.48072 0.0
H1892 H 0.21472 0.9025 0.48285 0.0
H1893 H 0.20641 0.89078 0.47483 0.0
H1894 H 0.20463 0.85559 0.48762 0.0
H1895 H 0.2203 0.84315 0.47791 0.0
H1896 H 0.38771 0.95264 0.73698 0.0
H1897 H 0.40734 0.94235 0.73687 0.0
H1898 H 0.40318 0.93411 0.775 0.0
H1899 H 0.38358 0.94414 0.77515 0.0
H1900 H 0.42278 0.95468 0.75028 0.0
H1901 H 0.42592 0.90728 0.76529 0.0
H1902 H 0.41227 0.91333 0.75837 0.0
H1903 H 0.41483 0.91482 0.77452 0.0
C1904 C 0.39072 0.94817 0.74522 0.0
C1905 C 0.3843 0.94964 0.75621 0.0
C1906 C 0.40193 0.94219 0.7451 0.0
C1907 C 0.40684 0.93757 0.75594 0.0
C1908 C 0.39958 0.93745 0.76646 0.0
H1909 H 0.45178 0.94718 0.80883 0.0
H1910 H 0.43962 0.93823 0.79277 0.0
C1911 C 0.38837 0.94338 0.76658 0.0
C1912 C 0.42021 0.93662 0.75741 0.0
H1913 H 0.44084 0.92162 0.77496 0.0
C1914 C 0.42695 0.94725 0.75525 0.0
C1915 C 0.42571 0.92689 0.76372 0.0
C1916 C 0.41929 0.9149 0.76547 0.0
C1917 C 0.43818 0.94923 0.76093 0.0
C1918 C 0.44297 0.94008 0.76864 0.0
C1919 C 0.43708 0.92872 0.76924 0.0
C1920 C 0.45197 0.94315 0.77822 0.0
C1921 C 0.44395 0.96167 0.75982 0.0
C1922 C 0.46326 0.94849 0.7755 0.0
C1923 C 0.47012 0.95403 0.78472 0.0
C1924 C 0.46593 0.95396 0.7968 0.0
C1925 C 0.45522 0.94756 0.7996 0.0
C1926 C 0.44828 0.94231 0.7904 0.0
H1927 H 0.43822 0.96812 0.75455 0.0
H1928 H 0.44556 0.96567 0.76896 0.0
H1929 H 0.45282 0.96088 0.7551 0.0
H1930 H 0.46648 0.94891 0.76621 0.0
H1931 H 0.4785 0.95864 0.78233 0.0
H1932 H 0.30659 0.15372 0.96556 0.0
H1933 H 0.30682 0.17271 0.95409 0.0
H1934 H 0.34463 0.17783 0.96325 0.0
H1935 H 0.34449 0.15896 0.97478 0.0
H1936 H 0.31129 0.19188 0.96935 0.0
H1937 H 0.34222 0.19521 0.9302 0.0
H1938 H 0.33545 0.18098 0.93502 0.0
H1939 H 0.34901 0.18663 0.94231 0.0
C1940 C 0.31508 0.15866 0.96482 0.0
C1941 C 0.32542 0.15503 0.97147 0.0
C1942 C 0.31522 0.16947 0.95812 0.0
C1943 C 0.32572 0.17671 0.95781 0.0
C1944 C 0.33645 0.17232 0.96319 0.0
H1945 H 0.36089 0.2326 0.97744 0.0
H1946 H 0.35264 0.21902 0.9624 0.0
C1947 C 0.33631 0.16157 0.96995 0.0
C1948 C 0.32475 0.18993 0.95536 0.0
H1949 H 0.34129 0.21326 0.94342 0.0
C1950 C 0.31753 0.19667 0.9634 0.0
C1951 C 0.33276 0.1961 0.94747 0.0
C1952 C 0.3402 0.18933 0.93817 0.0
C1953 C 0.31952 0.20913 0.96525 0.0
C1954 C 0.32864 0.21517 0.95831 0.0
C1955 C 0.33447 0.2087 0.9489 0.0
C1956 C 0.33443 0.22662 0.96282 0.0
C1957 C 0.31287 0.21509 0.97571 0.0
C1958 C 0.32751 0.23656 0.96695 0.0
C1959 C 0.3321 0.24404 0.97622 0.0
C1960 C 0.34389 0.2421 0.98078 0.0
C1961 C 0.35164 0.23415 0.97445 0.0
C1962 C 0.34688 0.2263 0.9657 0.0
H1963 H 0.30713 0.20857 0.98088 0.0
H1964 H 0.31943 0.21919 0.98221 0.0
H1965 H 0.30676 0.2223 0.97221 0.0
H1966 H 0.31813 0.2376 0.96418 0.0
H1967 H 0.32602 0.2504 0.98065 0.0
H1968 H 0.82071 0.38397 0.12842 0.0
H1969 H 0.82408 0.40403 0.13702 0.0
H1970 H 0.86249 0.39668 0.13987 0.0
H1971 H 0.85929 0.3766 0.13082 0.0
H1972 H 0.83571 0.41782 0.15562 0.0
H1973 H 0.86043 0.42013 0.11126 0.0
H1974 H 0.85171 0.4069 0.11536 0.0
H1975 H 0.86602 0.40993 0.1227 0.0
C1976 C 0.82984 0.38639 0.13124 0.0
C1977 C 0.83981 0.37888 0.12841 0.0
C1978 C 0.83174 0.39789 0.13626 0.0
C1979 C 0.84359 0.402 0.13865 0.0
C1980 C 0.85331 0.39378 0.13776 0.0
H1981 H 0.84579 0.47519 0.11208 0.0
H1982 H 0.85457 0.45979 0.12548 0.0
C1983 C 0.85145 0.3823 0.13257 0.0
C1984 C 0.84572 0.4153 0.13897 0.0
H1985 H 0.85284 0.43796 0.11912 0.0
C1986 C 0.83979 0.42231 0.14785 0.0
C1987 C 0.85123 0.42119 0.12891 0.0
C1988 C 0.85768 0.41421 0.11897 0.0
C1989 C 0.83818 0.4349 0.14629 0.0
C1990 C 0.84232 0.44047 0.13546 0.0
C1991 C 0.84954 0.43371 0.12738 0.0
C1992 C 0.83724 0.45211 0.13086 0.0
C1993 C 0.8315 0.44194 0.15598 0.0
C1994 C 0.82456 0.45335 0.12987 0.0
C1995 C 0.81952 0.46222 0.12233 0.0
C1996 C 0.82707 0.46985 0.11538 0.0
C1997 C 0.83973 0.4693 0.11715 0.0
C1998 C 0.84476 0.46055 0.12488 0.0
H1999 H 0.83415 0.43866 0.16516 0.0
H2000 H 0.83335 0.45186 0.15539 0.0
H2001 H 0.82157 0.44037 0.15499 0.0
H2002 H 0.8185 0.44681 0.13405 0.0
H2003 H 0.80973 0.46244 0.12127 0.0
H2004 H 0.93823 0.62173 0.36041 0.0
H2005 H 0.92103 0.63569 0.36218 0.0
H2006 H 0.89644 0.60503 0.36196 0.0
H2007 H 0.91365 0.59117 0.36103 0.0
H2008 H 0.907 0.6386 0.34472 0.0
H2009 H 0.87681 0.62641 0.38239 0.0
H2010 H 0.89229 0.62097 0.38183 0.0
H2011 H 0.88016 0.61263 0.37445 0.0
C2012 C 0.92917 0.618 0.36154 0.0
C2013 C 0.92724 0.60539 0.36073 0.0
C2014 C 0.91932 0.62599 0.3624 0.0
C2015 C 0.90734 0.6215 0.36218 0.0
C2016 C 0.90551 0.60882 0.3625 0.0
H2017 H 0.85232 0.63124 0.31608 0.0
H2018 H 0.87206 0.63568 0.32471 0.0
C2019 C 0.9154 0.60083 0.36197 0.0
C2020 C 0.89699 0.62974 0.35915 0.0
H2021 H 0.86644 0.63255 0.36332 0.0
C2022 C 0.89821 0.63756 0.34907 0.0
C2023 C 0.88552 0.62883 0.36491 0.0
C2024 C 0.8837 0.62185 0.37658 0.0
C2025 C 0.88811 0.6434 0.34389 0.0
C2026 C 0.87638 0.64102 0.3486 0.0
C2027 C 0.87535 0.63427 0.35944 0.0
C2028 C 0.86506 0.64339 0.34148 0.0
C2029 C 0.89013 0.65171 0.33317 0.0
C2030 C 0.8544 0.64717 0.34744 0.0
C2031 C 0.843 0.6444 0.34249 0.0
C2032 C 0.84218 0.63782 0.33155 0.0
C2033 C 0.85269 0.63638 0.32449 0.0
C2034 C 0.8641 0.63886 0.32954 0.0
H2035 H 0.8986 0.65708 0.33443 0.0
H2036 H 0.89133 0.64615 0.32483 0.0
H2037 H 0.88242 0.65808 0.33181 0.0
H2038 H 0.85485 0.65086 0.35657 0.0
H2039 H 0.83501 0.64559 0.34813 0.0
H2040 H 0.72816 0.65508 0.61079 0.0
H2041 H 0.73059 0.67437 0.62123 0.0
H2042 H 0.71493 0.69305 0.59049 0.0
H2043 H 0.713 0.6737 0.57968 0.0
H2044 H 0.73702 0.70029 0.5941 0.0
H2045 H 0.7144 0.7015 0.63878 0.0
H2046 H 0.72308 0.6878 0.63724 0.0
H2047 H 0.71036 0.69052 0.62724 0.0
C2048 C 0.72479 0.66323 0.60639 0.0
C2049 C 0.72068 0.66288 0.59425 0.0
C2050 C 0.72609 0.67431 0.61247 0.0
C2051 C 0.72304 0.68524 0.60665 0.0
C2052 C 0.71742 0.68473 0.59515 0.0
H2053 H 0.74183 0.7575 0.63228 0.0
H2054 H 0.73188 0.73768 0.63031 0.0
C2055 C 0.71624 0.67364 0.58898 0.0
C2056 C 0.72818 0.6969 0.61125 0.0
H2057 H 0.73244 0.71423 0.63675 0.0
C2058 C 0.73582 0.70342 0.60339 0.0
C2059 C 0.72671 0.70102 0.62337 0.0
C2060 C 0.71808 0.69489 0.63208 0.0
C2061 C 0.74221 0.71372 0.60729 0.0
C2062 C 0.74136 0.71745 0.6196 0.0
C2063 C 0.7334 0.71119 0.62742 0.0
C2064 C 0.74806 0.72834 0.62411 0.0
C2065 C 0.74965 0.72056 0.59802 0.0
C2066 C 0.76069 0.72947 0.62232 0.0
C2067 C 0.76631 0.74088 0.62318 0.0
C2068 C 0.7594 0.75119 0.62613 0.0
C2069 C 0.74725 0.74968 0.62974 0.0
C2070 C 0.74157 0.73834 0.62865 0.0
H2071 H 0.74643 0.71875 0.58861 0.0
H2072 H 0.74926 0.7305 0.59965 0.0
H2073 H 0.75928 0.71758 0.5986 0.0
H2074 H 0.76598 0.72177 0.61922 0.0
H2075 H 0.7757 0.74181 0.62032 0.0
H2076 H 0.90896 0.53301 0.21121 0.0
H2077 H 0.89318 0.51749 0.21194 0.0
H2078 H 0.91788 0.49147 0.19601 0.0
H2079 H 0.93402 0.50687 0.19626 0.0
H2080 H 0.88068 0.50174 0.20017 0.0
H2081 H 0.91421 0.47618 0.2282 0.0
H2082 H 0.91741 0.49112 0.22237 0.0
H2083 H 0.91831 0.47803 0.21254 0.0
C2084 C 0.91083 0.52416 0.20729 0.0
C2085 C 0.92266 0.5211 0.2037 0.0
C2086 C 0.90183 0.5152 0.20783 0.0
C2087 C 0.90449 0.50311 0.20455 0.0
C2088 C 0.91576 0.50058 0.1991 0.0
H2089 H 0.84095 0.46226 0.22991 0.0
H2090 H 0.85767 0.46538 0.21551 0.0
C2091 C 0.9249 0.50945 0.19894 0.0
C2092 C 0.89613 0.49322 0.20857 0.0
H2093 H 0.89428 0.4692 0.22825 0.0
C2094 C 0.88366 0.49451 0.20618 0.0
C2095 C 0.90002 0.48378 0.21649 0.0
C2096 C 0.91319 0.48221 0.22015 0.0
C2097 C 0.87492 0.48745 0.21227 0.0
C2098 C 0.87879 0.47824 0.22046 0.0
C2099 C 0.89131 0.47622 0.22198 0.0
C2100 C 0.87022 0.47224 0.22908 0.0
C2101 C 0.86167 0.49078 0.21065 0.0
C2102 C 0.87227 0.47338 0.24167 0.0
C2103 C 0.86297 0.47088 0.24996 0.0
C2104 C 0.85141 0.46749 0.24576 0.0
C2105 C 0.84982 0.46486 0.23335 0.0
C2106 C 0.85929 0.46692 0.2251 0.0
H2107 H 0.86053 0.4997 0.20603 0.0
H2108 H 0.85712 0.4838 0.20495 0.0
H2109 H 0.85695 0.49125 0.21956 0.0
H2110 H 0.88065 0.47731 0.24506 0.0
H2111 H 0.86439 0.47313 0.25945 0.0
H2112 H 0.74524 0.62408 0.73354 0.0
H2113 H 0.72488 0.62585 0.72484 0.0
H2114 H 0.70949 0.61505 0.7593 0.0
H2115 H 0.72969 0.61411 0.7681 0.0
H2116 H 0.71377 0.60634 0.72143 0.0
H2117 H 0.68188 0.63407 0.74771 0.0
H2118 H 0.69811 0.6359 0.74942 0.0
H2119 H 0.68991 0.62481 0.75839 0.0
C2120 C 0.73744 0.62303 0.73948 0.0
C2121 C 0.73902 0.61897 0.75149 0.0
C2122 C 0.72578 0.62383 0.73444 0.0
C2123 C 0.71555 0.62041 0.74131 0.0
C2124 C 0.71709 0.61798 0.75379 0.0
H2125 H 0.66596 0.56558 0.72888 0.0
H2126 H 0.68346 0.57904 0.72686 0.0
C2127 C 0.72873 0.6175 0.75889 0.0
C2128 C 0.70408 0.61664 0.7351 0.0
H2129 H 0.67355 0.61451 0.73995 0.0
C2130 C 0.70494 0.60846 0.72527 0.0
C2131 C 0.69244 0.61949 0.73976 0.0
C2132 C 0.69057 0.62917 0.74931 0.0
C2133 C 0.69469 0.60228 0.72078 0.0
C2134 C 0.68333 0.60392 0.72658 0.0
C2135 C 0.68227 0.61295 0.73562 0.0
C2136 C 0.67285 0.59552 0.72458 0.0
C2137 C 0.69629 0.59385 0.71007 0.0
C2138 C 0.66097 0.60013 0.72366 0.0
C2139 C 0.65095 0.59242 0.72512 0.0
C2140 C 0.65263 0.57994 0.72727 0.0
C2141 C 0.66442 0.57511 0.7269 0.0
C2142 C 0.67446 0.58286 0.72574 0.0
H2143 H 0.70321 0.59751 0.70367 0.0
H2144 H 0.69966 0.58492 0.71333 0.0
H2145 H 0.68764 0.59246 0.70504 0.0
H2146 H 0.65944 0.60982 0.72274 0.0
H2147 H 0.64193 0.59637 0.72556 0.0
H2148 H 0.51177 0.86594 0.69192 0.0
H2149 H 0.4988 0.85852 0.70832 0.0
H2150 H 0.46691 0.8691 0.688 0.0
H2151 H 0.47994 0.87569 0.67117 0.0
H2152 H 0.48186 0.86456 0.72337 0.0
H2153 H 0.46131 0.83357 0.68904 0.0
H2154 H 0.47376 0.84356 0.68544 0.0
H2155 H 0.45849 0.8494 0.68636 0.0
C2156 C 0.50201 0.86713 0.69117 0.0
C2157 C 0.49683 0.87132 0.6803 0.0
C2158 C 0.49457 0.86279 0.70051 0.0
C2159 C 0.48183 0.86278 0.69919 0.0
C2160 C 0.47668 0.86852 0.68901 0.0
H2161 H 0.45125 0.82534 0.76251 0.0
H2162 H 0.45071 0.84063 0.74632 0.0
C2163 C 0.48413 0.87252 0.67951 0.0
C2164 C 0.47426 0.85552 0.70778 0.0
H2165 H 0.45567 0.8306 0.70927 0.0
C2166 C 0.47601 0.85722 0.7203 0.0
C2167 C 0.46671 0.84584 0.70375 0.0
C2168 C 0.46501 0.84288 0.69043 0.0
C2169 C 0.47112 0.84911 0.72887 0.0
C2170 C 0.46365 0.83935 0.72484 0.0
C2171 C 0.46127 0.83812 0.71236 0.0
C2172 C 0.45995 0.82929 0.73313 0.0
C2173 C 0.47485 0.85059 0.74202 0.0
C2174 C 0.46376 0.81735 0.73057 0.0
C2175 C 0.46344 0.80841 0.7396 0.0
C2176 C 0.45956 0.81139 0.75138 0.0
C2177 C 0.45425 0.82283 0.75346 0.0
C2178 C 0.45421 0.83165 0.7443 0.0
H2179 H 0.48271 0.85687 0.74308 0.0
H2180 H 0.46715 0.85443 0.74728 0.0
H2181 H 0.47738 0.84169 0.74607 0.0
H2182 H 0.46807 0.81521 0.72197 0.0
H2183 H 0.46773 0.79972 0.73779 0.0
H2184 H 0.48845 0.20863 0.91236 0.0
H2185 H 0.47797 0.21199 0.89323 0.0
H2186 H 0.5115 0.20606 0.87374 0.0
H2187 H 0.52218 0.20306 0.89304 0.0
H2188 H 0.50386 0.22846 0.87115 0.0
H2189 H 0.46448 0.19873 0.86223 0.0
H2190 H 0.4641 0.204 0.87765 0.0
H2191 H 0.47647 0.19447 0.87263 0.0
C2192 C 0.49349 0.20745 0.90397 0.0
C2193 C 0.50618 0.20585 0.90419 0.0
C2194 C 0.48743 0.20929 0.89298 0.0
C2195 C 0.49393 0.20938 0.882 0.0
C2196 C 0.5063 0.20605 0.88211 0.0
H2197 H 0.46695 0.24604 0.81673 0.0
H2198 H 0.47199 0.22961 0.83094 0.0
C2199 C 0.5124 0.20426 0.89315 0.0
C2200 C 0.48874 0.21594 0.8714 0.0
H2201 H 0.46272 0.21972 0.85475 0.0
C2202 C 0.49499 0.22632 0.86737 0.0
C2203 C 0.47712 0.21328 0.86648 0.0
C2204 C 0.47024 0.20193 0.86991 0.0
C2205 C 0.48974 0.23442 0.8591 0.0
C2206 C 0.4778 0.23224 0.85485 0.0
C2207 C 0.47176 0.22152 0.85827 0.0
C2208 C 0.47167 0.24117 0.84686 0.0
C2209 C 0.49695 0.24543 0.85517 0.0
C2210 C 0.46913 0.25291 0.85122 0.0
C2211 C 0.4664 0.26231 0.8431 0.0
C2212 C 0.46616 0.26003 0.83055 0.0
C2213 C 0.46733 0.24801 0.82636 0.0
C2214 C 0.47012 0.23862 0.83447 0.0
H2215 H 0.50684 0.24427 0.85691 0.0
H2216 H 0.4956 0.24728 0.84535 0.0
H2217 H 0.49381 0.25351 0.86035 0.0
H2218 H 0.47021 0.25501 0.86079 0.0
H2219 H 0.46564 0.27151 0.84655 0.0
H2220 H 0.1591 0.30109 0.14115 0.0
H2221 H 0.1659 0.29759 0.16207 0.0
H2222 H 0.13175 0.27981 0.16994 0.0
H2223 H 0.12532 0.2826 0.1491 0.0
H2224 H 0.15752 0.30753 0.18052 0.0
H2225 H 0.15221 0.25921 0.19018 0.0
H2226 H 0.15241 0.26473 0.17472 0.0
H2227 H 0.13827 0.26361 0.18307 0.0
C2228 C 0.15325 0.29605 0.14727 0.0
C2229 C 0.14165 0.29215 0.14348 0.0
C2230 C 0.15714 0.29407 0.15923 0.0
C2231 C 0.14944 0.28829 0.16765 0.0
C2232 C 0.13811 0.28388 0.16363 0.0
H2233 H 0.1208 0.3125 0.22962 0.0
H2234 H 0.13362 0.3107 0.21186 0.0
C2235 C 0.13435 0.28561 0.15166 0.0
C2236 C 0.15206 0.28864 0.18093 0.0
H2237 H 0.14457 0.27319 0.20667 0.0
C2238 C 0.15509 0.29988 0.18625 0.0
C2239 C 0.14954 0.27862 0.18861 0.0
C2240 C 0.14809 0.26586 0.18377 0.0
C2241 C 0.154 0.30173 0.19883 0.0
C2242 C 0.14917 0.29232 0.20616 0.0
C2243 C 0.14782 0.28064 0.20108 0.0
C2244 C 0.14345 0.29479 0.21819 0.0
C2245 C 0.15758 0.31395 0.20398 0.0
C2246 C 0.14455 0.28649 0.22785 0.0
C2247 C 0.13683 0.28727 0.23794 0.0
C2248 C 0.12798 0.29649 0.23863 0.0
C2249 C 0.12759 0.30536 0.22946 0.0
C2250 C 0.13508 0.30441 0.21928 0.0
H2251 H 0.16601 0.31729 0.19953 0.0
H2252 H 0.15032 0.32068 0.202 0.0
H2253 H 0.15912 0.31356 0.21395 0.0
H2254 H 0.15091 0.27899 0.22728 0.0
H2255 H 0.13737 0.28032 0.2449 0.0
H2256 H 0.10642 0.84711 0.44268 0.0
H2257 H 0.11242 0.84501 0.42143 0.0
H2258 H 0.13146 0.81182 0.42991 0.0
H2259 H 0.12539 0.8137 0.4512 0.0
H2260 H 0.13454 0.84054 0.40704 0.0
H2261 H 0.10201 0.80163 0.40836 0.0
H2262 H 0.10304 0.81259 0.42052 0.0
H2263 H 0.1145 0.80107 0.4189 0.0
C2264 C 0.11218 0.83953 0.44014 0.0
C2265 C 0.11515 0.8304 0.44862 0.0
C2266 C 0.11563 0.83837 0.42797 0.0
C2267 C 0.12216 0.82813 0.42409 0.0
C2268 C 0.12627 0.8197 0.43273 0.0
H2269 H 0.11497 0.79895 0.35104 0.0
H2270 H 0.12416 0.80213 0.37103 0.0
C2271 C 0.12277 0.8208 0.4449 0.0
C2272 C 0.12282 0.82534 0.41093 0.0
H2273 H 0.10992 0.80701 0.38948 0.0
C2274 C 0.12933 0.83311 0.40317 0.0
C2275 C 0.11595 0.81565 0.40594 0.0
C2276 C 0.10839 0.80729 0.4138 0.0
C2277 C 0.12896 0.83156 0.39047 0.0
C2278 C 0.12169 0.82217 0.38547 0.0
C2279 C 0.11557 0.81415 0.3933 0.0
C2280 C 0.11909 0.82112 0.37225 0.0
C2281 C 0.13627 0.84006 0.38258 0.0
C2282 C 0.11365 0.83085 0.36603 0.0
C2283 C 0.1085 0.82907 0.35454 0.0
C2284 C 0.10845 0.81747 0.34916 0.0
C2285 C 0.11473 0.80798 0.35499 0.0
C2286 C 0.12001 0.80979 0.36642 0.0
H2287 H 0.14449 0.84338 0.38744 0.0
H2288 H 0.13914 0.83559 0.37399 0.0
H2289 H 0.13063 0.84811 0.38028 0.0
H2290 H 0.11257 0.83961 0.3704 0.0
H2291 H 0.10387 0.83661 0.35037 0.0
H2292 H 0.71864 0.45973 0.81811 0.0
H2293 H 0.70281 0.46365 0.83303 0.0
H2294 H 0.72543 0.44832 0.86122 0.0
H2295 H 0.74177 0.44534 0.84635 0.0
H2296 H 0.68898 0.45431 0.84901 0.0
H2297 H 0.72353 0.4817 0.87392 0.0
H2298 H 0.72685 0.47445 0.85965 0.0
H2299 H 0.72656 0.4657 0.8735 0.0
C2300 C 0.72008 0.45675 0.82739 0.0
C2301 C 0.73147 0.45235 0.8311 0.0
C2302 C 0.71103 0.45908 0.83598 0.0
C2303 C 0.71311 0.45679 0.8484 0.0
C2304 C 0.72382 0.45071 0.85181 0.0
H2305 H 0.6502 0.48826 0.88576 0.0
H2306 H 0.6662 0.47288 0.88386 0.0
C2307 C 0.73306 0.44876 0.84327 0.0
C2308 C 0.7047 0.46216 0.8576 0.0
H2309 H 0.70346 0.48336 0.88036 0.0
C2310 C 0.69214 0.46056 0.85597 0.0
C2311 C 0.70884 0.47039 0.86668 0.0
C2312 C 0.72216 0.47327 0.86851 0.0
C2313 C 0.68362 0.46761 0.86237 0.0
C2314 C 0.68777 0.47603 0.87128 0.0
C2315 C 0.70029 0.47689 0.87361 0.0
C2316 C 0.67958 0.48541 0.87664 0.0
C2317 C 0.6704 0.46667 0.85868 0.0
C2318 C 0.68231 0.4978 0.87489 0.0
C2319 C 0.67341 0.50668 0.8767 0.0
C2320 C 0.66157 0.50326 0.87999 0.0
C2321 C 0.6593 0.49112 0.88329 0.0
C2322 C 0.66836 0.48228 0.8819 0.0
H2323 H 0.66921 0.46172 0.84994 0.0
H2324 H 0.66529 0.46161 0.86575 0.0
H2325 H 0.66627 0.47583 0.85766 0.0
H2326 H 0.69094 0.50053 0.87099 0.0
H2327 H 0.67533 0.51594 0.8739 0.0
H2328 H 0.78243 0.37918 0.94846 0.0
H2329 H 0.78257 0.40013 0.94135 0.0
H2330 H 0.7441 0.40297 0.94827 0.0
H2331 H 0.7438 0.38198 0.95546 0.0
H2332 H 0.76807 0.41841 0.92604 0.0
H2333 H 0.76272 0.42153 0.97649 0.0
H2334 H 0.76652 0.40732 0.96925 0.0
H2335 H 0.75147 0.41344 0.96778 0.0
C2336 C 0.77387 0.38403 0.948 0.0
C2337 C 0.76321 0.37905 0.95301 0.0
C2338 C 0.77396 0.39603 0.94385 0.0
C2339 C 0.76341 0.40314 0.94461 0.0
C2340 C 0.75236 0.39763 0.94777 0.0
H2341 H 0.78606 0.47412 0.96944 0.0
H2342 H 0.77037 0.46064 0.96119 0.0
C2343 C 0.75225 0.38561 0.95192 0.0
C2344 C 0.76481 0.41649 0.94524 0.0
H2345 H 0.77064 0.43828 0.96648 0.0
C2346 C 0.7683 0.42292 0.93481 0.0
C2347 C 0.76493 0.42238 0.95669 0.0
C2348 C 0.76125 0.41588 0.96823 0.0
C2349 C 0.77281 0.43485 0.93569 0.0
C2350 C 0.77427 0.44022 0.94732 0.0
C2351 C 0.76962 0.43419 0.95756 0.0
C2352 C 0.78266 0.4506 0.94953 0.0
C2353 C 0.7764 0.44138 0.92419 0.0
C2354 C 0.79471 0.4498 0.94537 0.0
C2355 C 0.80364 0.45752 0.94998 0.0
C2356 C 0.80081 0.46608 0.95907 0.0
C2357 C 0.78859 0.46753 0.96256 0.0
C2358 C 0.77959 0.45986 0.95781 0.0
H2359 H 0.76998 0.43915 0.91671 0.0
H2360 H 0.77657 0.4514 0.92549 0.0
H2361 H 0.78556 0.43827 0.92131 0.0
H2362 H 0.79747 0.44257 0.93927 0.0
H2363 H 0.81292 0.45622 0.94693 0.0
H2364 H 0.81289 0.71321 0.47391 0.0
H2365 H 0.8298 0.69905 0.47569 0.0
H2366 H 0.85323 0.72446 0.45706 0.0
H2367 H 0.83641 0.73903 0.45597 0.0
H2368 H 0.84601 0.68714 0.46336 0.0
H2369 H 0.86996 0.72366 0.48903 0.0
H2370 H 0.85456 0.72539 0.48375 0.0
H2371 H 0.86709 0.72693 0.47332 0.0
C2372 C 0.82149 0.7156 0.46974 0.0
C2373 C 0.82337 0.72726 0.46491 0.0
C2374 C 0.83124 0.70752 0.47087 0.0
C2375 C 0.84296 0.71089 0.46697 0.0
C2376 C 0.84442 0.72186 0.4606 0.0
H2377 H 0.88807 0.65113 0.49184 0.0
H2378 H 0.88529 0.66805 0.47768 0.0
C2379 C 0.83474 0.73009 0.45977 0.0
C2380 C 0.8536 0.70349 0.47091 0.0
H2381 H 0.87849 0.7043 0.48959 0.0
C2382 C 0.85324 0.69089 0.46894 0.0
C2383 C 0.86303 0.70843 0.47824 0.0
C2384 C 0.86369 0.72181 0.48132 0.0
C2385 C 0.86132 0.68298 0.47487 0.0
C2386 C 0.87054 0.68788 0.48253 0.0
C2387 C 0.87152 0.70056 0.48367 0.0
C2388 C 0.87747 0.68006 0.49117 0.0
C2389 C 0.85909 0.66946 0.47371 0.0
C2390 C 0.87601 0.68197 0.50373 0.0
C2391 C 0.87835 0.67256 0.51194 0.0
C2392 C 0.88168 0.66104 0.50759 0.0
C2393 C 0.88541 0.65993 0.49541 0.0
C2394 C 0.88348 0.66949 0.48724 0.0
H2395 H 0.85028 0.66741 0.46919 0.0
H2396 H 0.86638 0.66528 0.46814 0.0
H2397 H 0.85904 0.66503 0.48279 0.0
H2398 H 0.87165 0.69015 0.50709 0.0
H2399 H 0.8754 0.67368 0.52129 0.0
H2400 H 0.06848 0.3501 0.21961 0.0
H2401 H 0.0789 0.34739 0.20035 0.0
H2402 H 0.06283 0.38047 0.18673 0.0
H2403 H 0.05202 0.38317 0.20606 0.0
H2404 H 0.06042 0.36166 0.17073 0.0
H2405 H 0.10816 0.36415 0.18597 0.0
H2406 H 0.09982 0.35346 0.19502 0.0
H2407 H 0.0957 0.36933 0.19532 0.0
C2408 C 0.06724 0.35694 0.21263 0.0
C2409 C 0.05938 0.36688 0.21444 0.0
C2410 C 0.07332 0.35541 0.20161 0.0
C2411 C 0.07183 0.36383 0.19216 0.0
C2412 C 0.06419 0.37391 0.19395 0.0
H2413 H 0.11774 0.34472 0.12994 0.0
H2414 H 0.10748 0.3578 0.14472 0.0
C2415 C 0.05805 0.37546 0.20503 0.0
C2416 C 0.0776 0.36143 0.18018 0.0
H2417 H 0.10447 0.3525 0.16757 0.0
C2418 C 0.0701 0.35992 0.16995 0.0
C2419 C 0.09025 0.35941 0.17907 0.0
C2420 C 0.09895 0.36181 0.18942 0.0
C2421 C 0.07479 0.35556 0.15889 0.0
C2422 C 0.08725 0.35236 0.15815 0.0
C2423 C 0.09488 0.35476 0.16813 0.0
C2424 C 0.09238 0.3455 0.14768 0.0
C2425 C 0.06629 0.35423 0.1482 0.0
C2426 C 0.08719 0.33435 0.1442 0.0
C2427 C 0.09296 0.32692 0.13566 0.0
C2428 C 0.1042 0.33035 0.13058 0.0
C2429 C 0.10913 0.34176 0.13369 0.0
C2430 C 0.10327 0.34925 0.14216 0.0
H2431 H 0.05893 0.36114 0.14856 0.0
H2432 H 0.07118 0.35515 0.13941 0.0
H2433 H 0.06192 0.34513 0.14852 0.0
H2434 H 0.07899 0.33105 0.14855 0.0
H2435 H 0.0889 0.31818 0.13356 0.0
H2436 H 0.06802 0.84464 0.36755 0.0
H2437 H 0.05425 0.84485 0.38511 0.0
H2438 H 0.03658 0.81247 0.37175 0.0
H2439 H 0.05014 0.81216 0.35425 0.0
H2440 H 0.02784 0.84492 0.3869 0.0
H2441 H 0.04943 0.80421 0.40661 0.0
H2442 H 0.05553 0.81174 0.39344 0.0
H2443 H 0.04327 0.80096 0.39183 0.0
C2444 C 0.06113 0.83763 0.36826 0.0
C2445 C 0.06033 0.82831 0.35948 0.0
C2446 C 0.05326 0.83777 0.37831 0.0
C2447 C 0.04452 0.82857 0.37981 0.0
C2448 C 0.04338 0.81956 0.37085 0.0
H2449 H 0.98155 0.82288 0.42691 0.0
H2450 H 0.99574 0.82652 0.41017 0.0
C2451 C 0.05117 0.81943 0.36082 0.0
C2452 C 0.03683 0.82801 0.39091 0.0
H2453 H 0.03006 0.80979 0.4151 0.0
C2454 C 0.02834 0.83727 0.39311 0.0
C2455 C 0.03767 0.81817 0.39915 0.0
C2456 C 0.04706 0.80827 0.39769 0.0
C2457 C 0.02034 0.83672 0.4031 0.0
C2458 C 0.0207 0.8265 0.41095 0.0
C2459 C 0.02957 0.81751 0.40899 0.0
C2460 C 0.01198 0.82483 0.42121 0.0
C2461 C 0.01173 0.84719 0.4052 0.0
C2462 C 0.01631 0.82229 0.43295 0.0
C2463 C 0.00822 0.81991 0.44248 0.0
C2464 C 0.99557 0.82013 0.44051 0.0
C2465 C 0.99123 0.82282 0.42878 0.0
C2466 C 0.99935 0.82499 0.4192 0.0
H2467 H 0.01527 0.85574 0.40113 0.0
H2468 H 0.00288 0.84513 0.4008 0.0
H2469 H 0.01015 0.84874 0.41505 0.0
H2470 H 0.02598 0.82206 0.43472 0.0
H2471 H 0.01188 0.81785 0.4514 0.0
H2472 H 0.583 0.75819 0.719 0.0
H2473 H 0.57228 0.76996 0.70349 0.0
H2474 H 0.56897 0.80003 0.72856 0.0
H2475 H 0.57967 0.78828 0.74401 0.0
H2476 H 0.54884 0.79776 0.71703 0.0
H2477 H 0.58607 0.7967 0.68312 0.0
H2478 H 0.5809 0.78177 0.68716 0.0
H2479 H 0.58799 0.79126 0.69847 0.0
C2480 C 0.57978 0.76723 0.72123 0.0
C2481 C 0.58217 0.77232 0.73269 0.0
C2482 C 0.57379 0.77406 0.71229 0.0
C2483 C 0.56997 0.78604 0.71471 0.0
C2484 C 0.57185 0.79086 0.72639 0.0
H2485 H 0.55304 0.84566 0.66739 0.0
H2486 H 0.56256 0.82976 0.67953 0.0
C2487 C 0.57794 0.78411 0.73525 0.0
C2488 C 0.56395 0.79368 0.70526 0.0
H2489 H 0.56739 0.80543 0.67667 0.0
C2490 C 0.55286 0.79932 0.70817 0.0
C2491 C 0.5694 0.79613 0.69384 0.0
C2492 C 0.5818 0.79126 0.69049 0.0
C2493 C 0.54704 0.80722 0.70001 0.0
C2494 C 0.5522 0.80923 0.6884 0.0
C2495 C 0.5633 0.80364 0.68547 0.0
C2496 C 0.54676 0.81804 0.67971 0.0
C2497 C 0.53581 0.81392 0.70418 0.0
C2498 C 0.5348 0.81659 0.67541 0.0
C2499 C 0.52926 0.82571 0.66847 0.0
C2500 C 0.53559 0.83648 0.66571 0.0
C2501 C 0.5478 0.83757 0.66946 0.0
C2502 C 0.55332 0.82845 0.67637 0.0
H2503 H 0.53483 0.8137 0.71422 0.0
H2504 H 0.53607 0.82358 0.70125 0.0
H2505 H 0.52763 0.80964 0.7001 0.0
H2506 H 0.52963 0.80857 0.67773 0.0
H2507 H 0.51988 0.82452 0.66568 0.0
H2508 H 0.57261 0.31092 0.92225 0.0
H2509 H 0.56188 0.30268 0.90462 0.0
H2510 H 0.52762 0.30704 0.92311 0.0
H2511 H 0.53823 0.31543 0.94076 0.0
H2512 H 0.52855 0.28552 0.91067 0.0
H2513 H 0.54342 0.32346 0.88076 0.0
H2514 H 0.55538 0.31604 0.88905 0.0
H2515 H 0.54393 0.32436 0.89715 0.0
C2516 C 0.56282 0.30994 0.92265 0.0
C2517 C 0.55628 0.31395 0.93287 0.0
C2518 C 0.55667 0.30528 0.91252 0.0
C2519 C 0.54393 0.30437 0.91245 0.0
C2520 C 0.53745 0.30772 0.92291 0.0
H2521 H 0.49649 0.30112 0.85025 0.0
H2522 H 0.50781 0.30613 0.86858 0.0
C2523 C 0.54354 0.31253 0.93298 0.0
C2524 C 0.53729 0.30036 0.90136 0.0
H2525 H 0.53225 0.30769 0.87161 0.0
C2526 C 0.52955 0.29021 0.90206 0.0
C2527 C 0.53817 0.30681 0.89027 0.0
C2528 C 0.54556 0.31834 0.8892 0.0
C2529 C 0.52308 0.28602 0.89185 0.0
C2530 C 0.52415 0.29234 0.8807 0.0
C2531 C 0.5316 0.30272 0.88011 0.0
C2532 C 0.51712 0.28885 0.86968 0.0
C2533 C 0.51501 0.27499 0.89316 0.0
C2534 C 0.51862 0.27744 0.8641 0.0
C2535 C 0.51218 0.27453 0.85347 0.0
C2536 C 0.50407 0.28295 0.84826 0.0
C2537 C 0.50264 0.29436 0.85393 0.0
C2538 C 0.50911 0.29727 0.86446 0.0
H2539 H 0.51295 0.27298 0.90285 0.0
H2540 H 0.50631 0.27624 0.88818 0.0
H2541 H 0.51974 0.26697 0.88928 0.0
H2542 H 0.5249 0.27084 0.86783 0.0
H2543 H 0.51365 0.26573 0.84929 0.0
H2544 H 0.07619 0.79082 0.46356 0.0
H2545 H 0.06139 0.78062 0.45037 0.0
H2546 H 0.04056 0.81376 0.44813 0.0
H2547 H 0.05492 0.82384 0.46156 0.0
H2548 H 0.02576 0.79481 0.44893 0.0
H2549 H 0.0616 0.7856 0.41442 0.0
H2550 H 0.06432 0.77886 0.42901 0.0
H2551 H 0.06428 0.79517 0.42747 0.0
C2552 C 0.06838 0.79589 0.46038 0.0
C2553 C 0.06692 0.80824 0.46347 0.0
C2554 C 0.05997 0.79008 0.45273 0.0
C2555 C 0.05006 0.79654 0.44786 0.0
C2556 C 0.0482 0.80861 0.45157 0.0
H2557 H 0.99797 0.79566 0.39066 0.0
H2558 H 0.01002 0.79907 0.40887 0.0
C2559 C 0.05649 0.81438 0.45928 0.0
C2560 C 0.04192 0.79111 0.43847 0.0
H2561 H 0.04171 0.77963 0.40956 0.0
C2562 C 0.02927 0.79139 0.44036 0.0
C2563 C 0.04646 0.78663 0.42726 0.0
C2564 C 0.05989 0.78662 0.42433 0.0
C2565 C 0.02108 0.78757 0.43131 0.0
C2566 C 0.02563 0.78346 0.42 0.0
C2567 C 0.03825 0.78272 0.41827 0.0
C2568 C 0.01753 0.78089 0.40947 0.0
C2569 C 0.00761 0.78793 0.43391 0.0
C2570 C 0.01781 0.76955 0.40358 0.0
C2571 C 0.01089 0.76753 0.39305 0.0
C2572 C 0.00369 0.7769 0.38812 0.0
C2573 C 0.00338 0.78821 0.39415 0.0
C2574 C 0.01022 0.79017 0.40467 0.0
H2575 H 0.00572 0.78842 0.44382 0.0
H2576 H 0.00358 0.7961 0.42958 0.0
H2577 H 0.003 0.77979 0.43007 0.0
H2578 H 0.02349 0.76229 0.40707 0.0
H2579 H 0.0114 0.75873 0.38865 0.0
H2580 H 0.53223 0.7533 0.65871 0.0
H2581 H 0.52434 0.76044 0.67814 0.0
H2582 H 0.55972 0.77433 0.68747 0.0
H2583 H 0.56793 0.76683 0.66823 0.0
H2584 H 0.54988 0.76335 0.70647 0.0
H2585 H 0.51511 0.79414 0.687 0.0
H2586 H 0.51307 0.77867 0.68237 0.0
H2587 H 0.52647 0.78682 0.67767 0.0
C2588 C 0.53838 0.75797 0.66484 0.0
C2589 C 0.55072 0.75963 0.66178 0.0
C2590 C 0.5338 0.76212 0.67596 0.0
C2591 C 0.54136 0.7683 0.6842 0.0
C2592 C 0.55371 0.76976 0.68125 0.0
H2593 H 0.50877 0.80826 0.74555 0.0
H2594 H 0.52103 0.80354 0.72745 0.0
C2595 C 0.55838 0.76545 0.67021 0.0
C2596 C 0.53647 0.773 0.69597 0.0
H2597 H 0.51382 0.79034 0.70833 0.0
C2598 C 0.54211 0.76941 0.70686 0.0
C2599 C 0.5263 0.7809 0.69654 0.0
C2600 C 0.51996 0.78545 0.68526 0.0
C2601 C 0.53779 0.77332 0.71825 0.0
C2602 C 0.52735 0.78086 0.71882 0.0
C2603 C 0.52185 0.78462 0.70794 0.0
C2604 C 0.52138 0.78409 0.73057 0.0
C2605 C 0.54453 0.76944 0.72956 0.0
C2606 C 0.5176 0.7748 0.73843 0.0
C2607 C 0.51081 0.77748 0.74879 0.0
C2608 C 0.50731 0.78952 0.75145 0.0
C2609 C 0.51144 0.79893 0.74385 0.0
C2610 C 0.51837 0.79621 0.73345 0.0
H2611 H 0.55406 0.76688 0.72753 0.0
H2612 H 0.54455 0.77679 0.7365 0.0
H2613 H 0.54006 0.7613 0.73349 0.0
H2614 H 0.51938 0.76536 0.73629 0.0
H2615 H 0.50781 0.76998 0.75443 0.0
H2616 H 0.54364 0.23547 0.89843 0.0
H2617 H 0.55338 0.25135 0.88624 0.0
H2618 H 0.54863 0.27689 0.91566 0.0
H2619 H 0.53831 0.26108 0.92769 0.0
H2620 H 0.54417 0.27352 0.87854 0.0
H2621 H 0.58497 0.2797 0.90778 0.0
H2622 H 0.57499 0.2667 0.90914 0.0
H2623 H 0.57056 0.28115 0.91534 0.0
C2624 C 0.54455 0.24453 0.90221 0.0
C2625 C 0.54017 0.24714 0.91391 0.0
C2626 C 0.55012 0.25358 0.89527 0.0
C2627 C 0.55174 0.26532 0.90002 0.0
C2628 C 0.54745 0.26792 0.91179 0.0
H2629 H 0.57569 0.32695 0.85443 0.0
H2630 H 0.56438 0.31472 0.86933 0.0
C2631 C 0.54151 0.25893 0.91862 0.0
C2632 C 0.55782 0.27474 0.89249 0.0
H2633 H 0.5834 0.29232 0.89049 0.0
C2634 C 0.55263 0.2778 0.88123 0.0
C2635 C 0.56906 0.28002 0.89589 0.0
C2636 C 0.57532 0.27669 0.90764 0.0
C2637 C 0.55831 0.28605 0.87332 0.0
C2638 C 0.56947 0.29141 0.87677 0.0
C2639 C 0.57472 0.28833 0.88799 0.0
C2640 C 0.57643 0.29919 0.86825 0.0
C2641 C 0.55272 0.28853 0.86104 0.0
C2642 C 0.58693 0.29453 0.86277 0.0
C2643 C 0.59325 0.30138 0.85416 0.0
C2644 C 0.58929 0.31312 0.85096 0.0
C2645 C 0.57894 0.31794 0.85671 0.0
C2646 C 0.5725 0.31097 0.86523 0.0
H2647 H 0.54449 0.2829 0.85935 0.0
H2648 H 0.55016 0.29826 0.86038 0.0
H2649 H 0.55945 0.28666 0.85375 0.0
H2650 H 0.59011 0.28547 0.86498 0.0
H2651 H 0.60128 0.29745 0.85001 0.0
H2652 H 0.04321 0.29974 0.13529 0.0
H2653 H 0.05507 0.29459 0.15337 0.0
H2654 H 0.02361 0.27709 0.16901 0.0
H2655 H 0.01187 0.28177 0.15079 0.0
H2656 H 0.05098 0.30338 0.17476 0.0
H2657 H 0.04905 0.25334 0.17894 0.0
H2658 H 0.04468 0.26114 0.16517 0.0
H2659 H 0.03409 0.25968 0.1776 0.0
C2660 C 0.03891 0.29451 0.14244 0.0
C2661 C 0.02659 0.29118 0.14159 0.0
C2662 C 0.0457 0.29158 0.1528 0.0
C2663 C 0.0403 0.28536 0.16257 0.0
C2664 C 0.02812 0.2816 0.16151 0.0
H2665 H 0.06065 0.29804 0.23717 0.0
H2666 H 0.05026 0.29615 0.21762 0.0
C2667 C 0.02138 0.28435 0.15108 0.0
C2668 C 0.04688 0.2842 0.17436 0.0
H2669 H 0.05398 0.26441 0.19728 0.0
C2670 C 0.05175 0.2948 0.17958 0.0
C2671 C 0.04803 0.27302 0.18066 0.0
C2672 C 0.0438 0.26114 0.17523 0.0
C2673 C 0.05742 0.29463 0.191 0.0
C2674 C 0.05788 0.28361 0.19765 0.0
C2675 C 0.0534 0.2729 0.1923 0.0
C2676 C 0.06303 0.28316 0.21015 0.0
C2677 C 0.06296 0.30628 0.19576 0.0
C2678 C 0.07315 0.27582 0.21278 0.0
C2679 C 0.07898 0.27669 0.22409 0.0
C2680 C 0.07481 0.285 0.23289 0.0
C2681 C 0.06418 0.29169 0.23051 0.0
C2682 C 0.05828 0.29068 0.21931 0.0
H2683 H 0.06511 0.31271 0.18826 0.0
H2684 H 0.05638 0.31083 0.2019 0.0
H2685 H 0.07144 0.30447 0.20095 0.0
H2686 H 0.0769 0.26986 0.20588 0.0
H2687 H 0.08716 0.27144 0.22563 0.0
H2688 H 0.15245 0.11333 0.33236 0.0
H2689 H 0.1683 0.0996 0.33968 0.0
H2690 H 0.16206 0.07595 0.30902 0.0
H2691 H 0.14602 0.08944 0.30176 0.0
H2692 H 0.16428 0.06299 0.32829 0.0
H2693 H 0.20225 0.09592 0.32822 0.0
H2694 H 0.19071 0.10055 0.33874 0.0
H2695 H 0.18736 0.10001 0.32272 0.0
C2696 C 0.1545 0.10525 0.32711 0.0
C2697 C 0.14798 0.10255 0.31642 0.0
C2698 C 0.16366 0.09744 0.33126 0.0
C2699 C 0.16668 0.0869 0.3247 0.0
C2700 C 0.16006 0.08412 0.31413 0.0
H2701 H 0.23102 0.04202 0.3379 0.0
H2702 H 0.21596 0.05586 0.32917 0.0
C2703 C 0.15084 0.09184 0.31001 0.0
C2704 C 0.17633 0.07846 0.32909 0.0
H2705 H 0.20582 0.07709 0.3389 0.0
C2706 C 0.17339 0.06609 0.33049 0.0
C2707 C 0.18828 0.08242 0.33192 0.0
C2708 C 0.19235 0.09543 0.3302 0.0
C2709 C 0.18191 0.05767 0.3349 0.0
C2710 C 0.19367 0.06174 0.3382 0.0
C2711 C 0.19676 0.07401 0.33649 0.0
C2712 C 0.20284 0.05343 0.34361 0.0
C2713 C 0.17823 0.04449 0.33599 0.0
C2714 C 0.20055 0.04763 0.35475 0.0
C2715 C 0.20913 0.0397 0.35979 0.0
C2716 C 0.22022 0.03743 0.35381 0.0
C2717 C 0.22257 0.04348 0.34275 0.0
C2718 C 0.21398 0.05141 0.33773 0.0
H2719 H 0.17043 0.04228 0.32994 0.0
H2720 H 0.18593 0.03835 0.33373 0.0
H2721 H 0.1754 0.04263 0.34549 0.0
H2722 H 0.19212 0.04925 0.35957 0.0
H2723 H 0.20701 0.03529 0.36833 0.0
H2724 H 0.32703 0.93657 0.53126 0.0
H2725 H 0.31744 0.91847 0.52282 0.0
H2726 H 0.31192 0.90443 0.55892 0.0
H2727 H 0.3216 0.92251 0.56758 0.0
H2728 H 0.32041 0.88699 0.54357 0.0
H2729 H 0.28196 0.91093 0.52142 0.0
H2730 H 0.29651 0.91611 0.51632 0.0
H2731 H 0.29213 0.91853 0.53188 0.0
C2732 C 0.32362 0.92974 0.53748 0.0
C2733 C 0.32497 0.93112 0.55015 0.0
C2734 C 0.31807 0.91938 0.53261 0.0
C2735 C 0.31361 0.91019 0.54026 0.0
C2736 C 0.31502 0.9115 0.55288 0.0
H2737 H 0.26572 0.85267 0.51267 0.0
H2738 H 0.27518 0.86711 0.52693 0.0
C2739 C 0.32054 0.92188 0.55781 0.0
C2740 C 0.30766 0.89918 0.53504 0.0
H2741 H 0.28479 0.89005 0.51605 0.0
C2742 C 0.31254 0.88764 0.53766 0.0
C2743 C 0.2974 0.90001 0.5273 0.0
C2744 C 0.29162 0.91206 0.52415 0.0
C2745 C 0.30761 0.877 0.5325 0.0
C2746 C 0.29751 0.87791 0.5246 0.0
C2747 C 0.29247 0.88938 0.52221 0.0
C2748 C 0.29262 0.86729 0.51782 0.0
C2749 C 0.31317 0.86483 0.53548 0.0
C2750 C 0.29941 0.86235 0.50823 0.0
C2751 C 0.29402 0.85422 0.50008 0.0
C2752 C 0.28175 0.85081 0.50139 0.0
C2753 C 0.27522 0.85503 0.51153 0.0
C2754 C 0.28059 0.86333 0.51962 0.0
H2755 H 0.32 0.86549 0.54289 0.0
H2756 H 0.30596 0.85829 0.5382 0.0
H2757 H 0.31775 0.86111 0.5273 0.0
H2758 H 0.30864 0.86539 0.50657 0.0
H2759 H 0.29927 0.8511 0.49234 0.0
H2760 H 0.37825 0.06487 0.82203 0.0
H2761 H 0.39323 0.04856 0.82257 0.0
H2762 H 0.4024 0.05815 0.85953 0.0
H2763 H 0.38685 0.07417 0.85921 0.0
H2764 H 0.41615 0.04975 0.8242 0.0
H2765 H 0.40072 0.02237 0.86348 0.0
H2766 H 0.39157 0.03437 0.85706 0.0
H2767 H 0.40364 0.03788 0.86759 0.0
C2768 C 0.38337 0.06344 0.83033 0.0
C2769 C 0.38138 0.07084 0.84058 0.0
C2770 C 0.39195 0.05408 0.83064 0.0
C2771 C 0.39893 0.05194 0.84113 0.0
C2772 C 0.39694 0.05931 0.85142 0.0
H2773 H 0.46834 0.01434 0.83362 0.0
H2774 H 0.45225 0.0292 0.83725 0.0
C2775 C 0.38811 0.06855 0.85121 0.0
C2776 C 0.40876 0.04253 0.84085 0.0
H2777 H 0.42048 0.01778 0.85569 0.0
C2778 C 0.417 0.04274 0.83108 0.0
C2779 C 0.40989 0.03322 0.8497 0.0
C2780 C 0.40091 0.03185 0.85997 0.0
C2781 C 0.42624 0.03401 0.8299 0.0
C2782 C 0.42776 0.02506 0.83904 0.0
C2783 C 0.41948 0.02474 0.84877 0.0
C2784 C 0.43777 0.01588 0.83844 0.0
C2785 C 0.43406 0.03437 0.81865 0.0
C2786 C 0.43521 0.00334 0.83871 0.0
C2787 C 0.4445 0.99476 0.83694 0.0
C2788 C 0.45652 0.99857 0.83474 0.0
C2789 C 0.45915 0.0111 0.83509 0.0
C2790 C 0.44993 0.01963 0.83709 0.0
H2791 H 0.42928 0.03886 0.81099 0.0
H2792 H 0.44238 0.03972 0.82065 0.0
H2793 H 0.43677 0.0251 0.81568 0.0
H2794 H 0.42594 0.00019 0.83984 0.0
H2795 H 0.44217 0.98519 0.83672 0.0
H2796 H 0.36729 0.20916 0.04024 0.0
H2797 H 0.36547 0.19288 0.05525 0.0
H2798 H 0.33491 0.21124 0.07158 0.0
H2799 H 0.33636 0.22734 0.05632 0.0
H2800 H 0.3652 0.19038 0.08032 0.0
H2801 H 0.32008 0.17937 0.06059 0.0
H2802 H 0.33074 0.18928 0.05309 0.0
H2803 H 0.32172 0.19479 0.06554 0.0
C2804 C 0.3603 0.20986 0.04715 0.0
C2805 C 0.35182 0.21944 0.04694 0.0
C2806 C 0.35929 0.20053 0.05574 0.0
C2807 C 0.34986 0.20068 0.06433 0.0
C2808 C 0.34204 0.21076 0.0648 0.0
H2809 H 0.33896 0.14805 0.12277 0.0
H2810 H 0.3446 0.16591 0.11082 0.0
C2811 C 0.34292 0.21999 0.0561 0.0
C2812 C 0.34751 0.18978 0.07196 0.0
H2813 H 0.32608 0.168 0.07758 0.0
C2814 C 0.35665 0.18548 0.07977 0.0
C2815 C 0.33647 0.18322 0.07097 0.0
C2816 C 0.32672 0.1868 0.06201 0.0
C2817 C 0.35496 0.17488 0.08674 0.0
C2818 C 0.34373 0.16858 0.08608 0.0
C2819 C 0.33465 0.17285 0.07818 0.0
C2820 C 0.34112 0.15748 0.09336 0.0
C2821 C 0.36536 0.17037 0.09448 0.0
C2822 C 0.33707 0.14681 0.08757 0.0
C2823 C 0.33363 0.13664 0.09439 0.0
C2824 C 0.33419 0.1369 0.10717 0.0
C2825 C 0.33852 0.14749 0.11294 0.0
C2826 C 0.34183 0.15771 0.10611 0.0
H2827 H 0.37425 0.17387 0.09116 0.0
H2828 H 0.36412 0.17365 0.10394 0.0
H2829 H 0.36571 0.16028 0.09461 0.0
H2830 H 0.33641 0.14641 0.07775 0.0
H2831 H 0.3304 0.12862 0.08964 0.0
H2832 H 0.22603 0.08436 0.27787 0.0
H2833 H 0.21052 0.06819 0.27794 0.0
H2834 H 0.18963 0.08828 0.30426 0.0
H2835 H 0.20507 0.10429 0.30448 0.0
H2836 H 0.20237 0.05461 0.29961 0.0
H2837 H 0.16471 0.0798 0.2773 0.0
H2838 H 0.18049 0.08412 0.2756 0.0
H2839 H 0.17237 0.08793 0.28925 0.0
C2840 C 0.21808 0.08537 0.28361 0.0
C2841 C 0.21681 0.0956 0.2912 0.0
C2842 C 0.20926 0.07611 0.28366 0.0
C2843 C 0.19891 0.0771 0.29108 0.0
C2844 C 0.19753 0.0874 0.29846 0.0
H2845 H 0.13782 0.03695 0.31701 0.0
H2846 H 0.15342 0.05173 0.31137 0.0
C2847 C 0.20639 0.09651 0.29858 0.0
C2848 C 0.18971 0.06722 0.29165 0.0
H2849 H 0.15942 0.06149 0.28757 0.0
C2850 C 0.19302 0.05602 0.29681 0.0
C2851 C 0.1775 0.06912 0.28803 0.0
C2852 C 0.17352 0.08085 0.28214 0.0
C2853 C 0.18434 0.04684 0.29888 0.0
C2854 C 0.17207 0.04887 0.29556 0.0
C2855 C 0.16884 0.05994 0.29008 0.0
C2856 C 0.16232 0.03995 0.29838 0.0
C2857 C 0.18832 0.03517 0.3049 0.0
C2858 C 0.16197 0.02848 0.29274 0.0
C2859 C 0.15294 0.02001 0.29584 0.0
C2860 C 0.14418 0.02282 0.30475 0.0
C2861 C 0.14446 0.03443 0.31018 0.0
C2862 C 0.15337 0.04291 0.30696 0.0
H2863 H 0.19717 0.03624 0.30967 0.0
H2864 H 0.18143 0.03195 0.31153 0.0
H2865 H 0.18936 0.02803 0.29784 0.0
H2866 H 0.16873 0.02606 0.286 0.0
H2867 H 0.15301 0.01117 0.29149 0.0
H2868 H 0.25565 0.93289 0.53774 0.0
H2869 H 0.27239 0.91863 0.5408 0.0
H2870 H 0.26138 0.91339 0.57804 0.0
H2871 H 0.24486 0.92791 0.57521 0.0
H2872 H 0.2853 0.91313 0.57682 0.0
H2873 H 0.26694 0.88272 0.54107 0.0
H2874 H 0.27014 0.89768 0.53544 0.0
H2875 H 0.25862 0.89559 0.54684 0.0
C2876 C 0.25685 0.9288 0.54662 0.0
C2877 C 0.24878 0.93145 0.55616 0.0
C2878 C 0.26643 0.92059 0.54834 0.0
C2879 C 0.26802 0.91467 0.55956 0.0
C2880 C 0.26034 0.91776 0.56927 0.0
H2881 H 0.30118 0.84434 0.56714 0.0
H2882 H 0.28813 0.86192 0.56525 0.0
C2883 C 0.25086 0.92608 0.56761 0.0
C2884 C 0.2772 0.90478 0.56104 0.0
H2885 H 0.28604 0.87749 0.5492 0.0
C2886 C 0.28548 0.90532 0.57078 0.0
C2887 C 0.27723 0.89441 0.55339 0.0
C2888 C 0.26769 0.89245 0.5437 0.0
C2889 C 0.29377 0.89581 0.57307 0.0
C2890 C 0.29425 0.88576 0.56499 0.0
C2891 C 0.28594 0.88528 0.55526 0.0
C2892 C 0.30262 0.87519 0.56678 0.0
C2893 C 0.30166 0.89655 0.58429 0.0
C2894 C 0.31527 0.87662 0.56835 0.0
C2895 C 0.32287 0.86642 0.56966 0.0
C2896 C 0.31799 0.8546 0.56914 0.0
C2897 C 0.30536 0.85326 0.56745 0.0
C2898 C 0.29782 0.86337 0.56638 0.0
H2899 H 0.29761 0.90263 0.59127 0.0
H2900 H 0.30306 0.88743 0.5884 0.0
H2901 H 0.31067 0.90036 0.5818 0.0
H2902 H 0.31934 0.88558 0.56841 0.0
H2903 H 0.33254 0.86778 0.57097 0.0
H2904 H 0.46022 0.07921 0.78943 0.0
H2905 H 0.44486 0.0669 0.77895 0.0
H2906 H 0.45436 0.03602 0.80116 0.0
H2907 H 0.46956 0.04829 0.81181 0.0
H2908 H 0.44931 0.02928 0.77786 0.0
H2909 H 0.41278 0.05919 0.79577 0.0
H2910 H 0.4238 0.06692 0.7865 0.0
H2911 H 0.42835 0.06037 0.80077 0.0
C2912 C 0.45916 0.06976 0.79198 0.0
C2913 C 0.466 0.0648 0.8016 0.0
C2914 C 0.45029 0.06275 0.78605 0.0
C2915 C 0.44816 0.05064 0.78955 0.0
C2916 C 0.45564 0.04542 0.79848 0.0
H2917 H 0.38364 0.00699 0.78684 0.0
H2918 H 0.40057 0.02053 0.79148 0.0
C2919 C 0.46435 0.05245 0.80455 0.0
C2920 C 0.43773 0.04359 0.78451 0.0
H2921 H 0.40665 0.04299 0.78311 0.0
C2922 C 0.43998 0.03232 0.7789 0.0
C2923 C 0.42553 0.04746 0.78607 0.0
C2924 C 0.42241 0.05908 0.7927 0.0
C2925 C 0.43041 0.02479 0.77492 0.0
C2926 C 0.41823 0.02873 0.77636 0.0
C2927 C 0.41598 0.04005 0.78186 0.0
C2928 C 0.40766 0.02086 0.77314 0.0
C2929 C 0.43342 0.01247 0.76966 0.0
C2930 C 0.40578 0.01672 0.76118 0.0
C2931 C 0.39606 0.00887 0.75846 0.0
C2932 C 0.388 0.00506 0.76765 0.0
C2933 C 0.38969 0.0096 0.77952 0.0
C2934 C 0.39938 0.0174 0.78221 0.0
H2935 H 0.44291 0.00971 0.77173 0.0
H2936 H 0.42715 0.0054 0.77322 0.0
H2937 H 0.43238 0.01279 0.75962 0.0
H2938 H 0.41188 0.01948 0.75396 0.0
H2939 H 0.39502 0.00563 0.74922 0.0
H2940 H 0.27403 0.22108 0.1004 0.0
H2941 H 0.27331 0.20644 0.08355 0.0
H2942 H 0.31242 0.20751 0.08096 0.0
H2943 H 0.31327 0.22206 0.09769 0.0
H2944 H 0.29841 0.20917 0.05774 0.0
H2945 H 0.28595 0.17004 0.08742 0.0
H2946 H 0.27727 0.18387 0.08883 0.0
H2947 H 0.29293 0.18367 0.09339 0.0
C2948 C 0.28247 0.21829 0.09616 0.0
C2949 C 0.29371 0.2227 0.10046 0.0
C2950 C 0.28204 0.20988 0.08658 0.0
C2951 C 0.29282 0.20581 0.08109 0.0
C2952 C 0.304 0.2105 0.08508 0.0
H2953 H 0.31866 0.14585 0.04076 0.0
H2954 H 0.3115 0.16028 0.05599 0.0
C2955 C 0.30445 0.21881 0.09469 0.0
C2956 C 0.29261 0.19644 0.07139 0.0
H2957 H 0.2895 0.16585 0.06678 0.0
C2958 C 0.29624 0.19973 0.05962 0.0
C2959 C 0.28997 0.18412 0.07397 0.0
C2960 C 0.28636 0.1801 0.08658 0.0
C2961 C 0.29768 0.19096 0.05042 0.0
C2962 C 0.29521 0.17857 0.05304 0.0
C2963 C 0.29124 0.17535 0.06474 0.0
C2964 C 0.29815 0.16874 0.04423 0.0
C2965 C 0.30266 0.19491 0.03826 0.0
C2966 C 0.29257 0.16819 0.03273 0.0
C2967 C 0.29654 0.15976 0.02403 0.0
C2968 C 0.30623 0.15183 0.02666 0.0
C2969 C 0.31133 0.15198 0.03839 0.0
C2970 C 0.30723 0.16024 0.04711 0.0
H2971 H 0.30627 0.20435 0.03851 0.0
H2972 H 0.31007 0.18873 0.03527 0.0
H2973 H 0.2953 0.19453 0.03136 0.0
H2974 H 0.28537 0.17448 0.0304 0.0
H2975 H 0.2924 0.15981 0.01509 0.0
H2976 H 0.8366 0.44228 0.99057 0.0
H2977 H 0.83971 0.42655 0.00601 0.0
H2978 H 0.84569 0.45436 0.0331 0.0
H2979 H 0.84173 0.47008 0.01784 0.0
H2980 H 0.8573 0.41974 0.02029 0.0
H2981 H 0.82005 0.43635 0.05016 0.0
H2982 H 0.82261 0.44262 0.03521 0.0
H2983 H 0.83196 0.44719 0.04786 0.0
C2984 C 0.83862 0.44502 -0.00018 0.0
C2985 C 0.83877 0.45739 0.00304 0.0
C2986 C 0.8404 0.43602 0.00866 0.0
C2987 C 0.8426 0.4392 0.02086 0.0
C2988 C 0.84351 0.4516 0.02391 0.0
H2989 H 0.86048 0.38397 0.07679 0.0
H2990 H 0.86247 0.40067 0.06206 0.0
C2991 C 0.84138 0.4606 0.01514 0.0
C2992 C 0.84359 0.4295 0.03033 0.0
H2993 H 0.83115 0.41942 0.05701 0.0
C2994 C 0.8516 0.41972 0.02834 0.0
C2995 C 0.83618 0.42942 0.04091 0.0
C2996 C 0.82714 0.43939 0.04363 0.0
C2997 C 0.85223 0.4098 0.03642 0.0
C2998 C 0.84473 0.40969 0.04685 0.0
C2999 C 0.83692 0.41956 0.04901 0.0
C3000 C 0.84408 0.39906 0.0552 0.0
C3001 C 0.86057 0.39931 0.03353 0.0
C3002 C 0.83314 0.39258 0.05618 0.0
C3003 C 0.83198 0.3831 0.06454 0.0
C3004 C 0.84172 0.37987 0.07223 0.0
C3005 C 0.85282 0.38616 0.071 0.0
C3006 C 0.85398 0.3957 0.06257 0.0
H3007 H 0.86428 0.39987 0.02415 0.0
H3008 H 0.86832 0.39934 0.04001 0.0
H3009 H 0.85569 0.39052 0.03458 0.0
H3010 H 0.82541 0.39498 0.05056 0.0
H3011 H 0.82331 0.37844 0.06511 0.0
H3012 H 0.84283 0.52333 0.26789 0.0
H3013 H 0.85851 0.53755 0.27544 0.0
H3014 H 0.87418 0.50886 0.29704 0.0
H3015 H 0.8587 0.49482 0.28984 0.0
H3016 H 0.86446 0.54218 0.30264 0.0
H3017 H 0.90276 0.52312 0.27577 0.0
H3018 H 0.88703 0.52065 0.27163 0.0
H3019 H 0.89371 0.5122 0.2839 0.0
C3020 C 0.84967 0.52008 0.2742 0.0
C3021 C 0.84947 0.50795 0.27827 0.0
C3022 C 0.8586 0.52819 0.2785 0.0
C3023 C 0.86759 0.52418 0.28666 0.0
C3024 C 0.86741 0.5121 0.29065 0.0
H3025 H 0.92949 0.54805 0.32753 0.0
H3026 H 0.91298 0.53725 0.31738 0.0
C3027 C 0.85847 0.5041 0.28655 0.0
C3028 C 0.87714 0.53247 0.29137 0.0
H3029 H 0.90794 0.53643 0.2921 0.0
C3030 C 0.87393 0.54122 0.30008 0.0
C3031 C 0.88954 0.53072 0.28845 0.0
C3032 C 0.8935 0.52122 0.27937 0.0
C3033 C 0.88285 0.54815 0.30612 0.0
C3034 C 0.89525 0.54658 0.30302 0.0
C3035 C 0.89842 0.53784 0.29427 0.0
C3036 C 0.90521 0.55333 0.30919 0.0
C3037 C 0.87898 0.55591 0.31675 0.0
C3038 C 0.90654 0.56595 0.30772 0.0
C3039 C 0.91604 0.57223 0.31347 0.0
C3040 C 0.92441 0.56595 0.32082 0.0
C3041 C 0.92318 0.55324 0.32203 0.0
C3042 C 0.91373 0.54701 0.31624 0.0
H3043 H 0.86928 0.55865 0.31598 0.0
H3044 H 0.88002 0.55052 0.32521 0.0
H3045 H 0.88464 0.56416 0.31776 0.0
H3046 H 0.90011 0.57095 0.30227 0.0
H3047 H 0.91668 0.582 0.31233 0.0
H3048 H 0.85443 0.67568 0.5412 0.0
H3049 H 0.84257 0.6922 0.55055 0.0
H3050 H 0.80977 0.6713 0.54537 0.0
H3051 H 0.82146 0.65515 0.53546 0.0
H3052 H 0.8272 0.70974 0.54142 0.0
H3053 H 0.79635 0.67624 0.57408 0.0
H3054 H 0.81084 0.67924 0.5808 0.0
H3055 H 0.81023 0.6708 0.56685 0.0
C3056 C 0.84465 0.67473 0.542 0.0
C3057 C 0.83877 0.66427 0.53757 0.0
C3058 C 0.83792 0.68411 0.54737 0.0
C3059 C 0.82531 0.6829 0.54882 0.0
C3060 C 0.81948 0.6724 0.54444 0.0
H3061 H 0.76196 0.73236 0.57863 0.0
H3062 H 0.77402 0.71693 0.56791 0.0
C3063 C 0.82614 0.66321 0.53872 0.0
C3064 C 0.81811 0.69294 0.55403 0.0
H3065 H 0.79073 0.70084 0.57779 0.0
C3066 C 0.82001 0.70796 0.54789 0.0
C3067 C 0.80679 0.69019 0.56543 0.0
C3068 C 0.806 0.67832 0.572 0.0
C3069 C 0.81004 0.72002 0.55265 0.0
C3070 C 0.79849 0.71711 0.56388 0.0
C3071 C 0.79717 0.7024 0.57052 0.0
C3072 C 0.79094 0.72697 0.56898 0.0
C3073 C 0.81254 0.73269 0.54835 0.0
C3074 C 0.79641 0.73769 0.57311 0.0
C3075 C 0.78961 0.74641 0.57932 0.0
C3076 C 0.77713 0.74458 0.58172 0.0
C3077 C 0.77155 0.73399 0.57717 0.0
C3078 C 0.77843 0.7252 0.57097 0.0
H3079 H 0.81739 0.73255 0.53952 0.0
H3080 H 0.80395 0.73792 0.54764 0.0
H3081 H 0.81857 0.73728 0.55501 0.0
H3082 H 0.8061 0.7391 0.57217 0.0
H3083 H 0.79434 0.75439 0.58264 0.0
H3084 H 0.92273 0.53779 0.25837 0.0
H3085 H 0.90689 0.54583 0.27166 0.0
H3086 H 0.90809 0.58013 0.25278 0.0
H3087 H 0.9241 0.57231 0.23955 0.0
H3088 H 0.90622 0.58386 0.27651 0.0
H3089 H 0.87161 0.55022 0.26243 0.0
H3090 H 0.88564 0.54309 0.26671 0.0
H3091 H 0.88532 0.55314 0.25392 0.0
C3092 C 0.9197 0.54707 0.25706 0.0
C3093 C 0.92466 0.55435 0.2478 0.0
C3094 C 0.91056 0.55162 0.26464 0.0
C3095 C 0.90611 0.56349 0.26309 0.0
C3096 C 0.91131 0.57092 0.25411 0.0
H3097 H 0.83719 0.58562 0.29485 0.0
H3098 H 0.85349 0.5789 0.28152 0.0
C3099 C 0.92048 0.5664 0.24655 0.0
C3100 C 0.89602 0.56813 0.2708 0.0
H3101 H 0.86744 0.56118 0.28064 0.0
C3102 C 0.89768 0.57898 0.27734 0.0
C3103 C 0.88471 0.56204 0.27152 0.0
C3104 C 0.8816 0.55158 0.26317 0.0
C3105 C 0.88849 0.58366 0.2849 0.0
C3106 C 0.87763 0.57688 0.28659 0.0
C3107 C 0.87587 0.56622 0.27972 0.0
C3108 C 0.86775 0.58089 0.29498 0.0
C3109 C 0.89058 0.59585 0.29088 0.0
C3110 C 0.87019 0.58408 0.30714 0.0
C3111 C 0.86081 0.58793 0.31486 0.0
C3112 C 0.8488 0.58873 0.31055 0.0
C3113 C 0.84634 0.58518 0.29849 0.0
C3114 C 0.85568 0.58131 0.29082 0.0
H3115 H 0.89701 0.60151 0.28552 0.0
H3116 H 0.88195 0.60097 0.29196 0.0
H3117 H 0.89469 0.59444 0.29999 0.0
H3118 H 0.87935 0.58365 0.31069 0.0
H3119 H 0.86304 0.59063 0.32407 0.0
H3120 H 0.73132 0.49741 0.82379 0.0
H3121 H 0.71395 0.51072 0.81933 0.0
H3122 H 0.72297 0.50967 0.78115 0.0
H3123 H 0.74037 0.49678 0.78559 0.0
H3124 H 0.71503 0.53122 0.78657 0.0
H3125 H 0.68302 0.49707 0.80562 0.0
H3126 H 0.69359 0.50317 0.81647 0.0
H3127 H 0.69906 0.49409 0.80399 0.0
C3128 C 0.72979 0.50037 0.81452 0.0
C3129 C 0.73714 0.49597 0.80503 0.0
C3130 C 0.71974 0.50783 0.81193 0.0
C3131 C 0.7169 0.51095 0.79983 0.0
C3132 C 0.72484 0.50733 0.79054 0.0
H3133 H 0.64984 0.52668 0.76314 0.0
H3134 H 0.66718 0.5176 0.77344 0.0
C3135 C 0.73482 0.49995 0.79309 0.0
C3136 C 0.70541 0.51735 0.79651 0.0
H3137 H 0.67439 0.51468 0.79704 0.0
C3138 C 0.70615 0.5277 0.78904 0.0
C3139 C 0.69377 0.51253 0.79934 0.0
C3140 C 0.69226 0.50104 0.80669 0.0
C3141 C 0.69567 0.5333 0.78433 0.0
C3142 C 0.68407 0.52877 0.78754 0.0
C3143 C 0.68329 0.51834 0.79485 0.0
C3144 C 0.67272 0.53417 0.78249 0.0
C3145 C 0.69709 0.54343 0.77523 0.0
C3146 C 0.66974 0.54645 0.78448 0.0
C3147 C 0.65982 0.55178 0.77848 0.0
C3148 C 0.65263 0.54487 0.77046 0.0
C3149 C 0.65522 0.53237 0.76912 0.0
C3150 C 0.66515 0.5271 0.77505 0.0
H3151 H 0.69393 0.55207 0.77932 0.0
H3152 H 0.70667 0.54457 0.77225 0.0
H3153 H 0.69137 0.54164 0.76709 0.0
H3154 H 0.67528 0.552 0.7904 0.0
H3155 H 0.65805 0.56138 0.77983 0.0
H3156 H 0.80751 0.46896 0.04782 0.0
H3157 H 0.79977 0.45227 0.03527 0.0
H3158 H 0.78192 0.43693 0.06667 0.0
H3159 H 0.78904 0.45396 0.07906 0.0
H3160 H 0.80423 0.42952 0.03586 0.0
H3161 H 0.7548 0.4341 0.04329 0.0
H3162 H 0.76545 0.44559 0.04816 0.0
H3163 H 0.76266 0.43237 0.05746 0.0
C3164 C 0.80178 0.46212 0.052 0.0
C3165 C 0.7988 0.46285 0.06441 0.0
C3166 C 0.79736 0.45256 0.04482 0.0
C3167 C 0.79004 0.44338 0.04992 0.0
C3168 C 0.78717 0.44406 0.06236 0.0
H3169 H 0.78509 0.37145 0.01696 0.0
H3170 H 0.78955 0.38895 0.02997 0.0
C3171 C 0.79134 0.45377 0.06948 0.0
C3172 C 0.78607 0.43277 0.0424 0.0
H3173 H 0.76154 0.41508 0.03498 0.0
C3174 C 0.79488 0.42646 0.03564 0.0
C3175 C 0.7738 0.42879 0.04183 0.0
C3176 C 0.76363 0.43566 0.04797 0.0
C3177 C 0.7919 0.41624 0.02857 0.0
C3178 C 0.77977 0.41184 0.02858 0.0
C3179 C 0.77088 0.41828 0.03512 0.0
C3180 C 0.77613 0.40074 0.02166 0.0
C3181 C 0.80179 0.41052 0.02095 0.0
C3182 C 0.76649 0.40119 0.01324 0.0
C3183 C 0.76366 0.39103 0.00607 0.0
C3184 C 0.77051 0.38028 0.00708 0.0
C3185 C 0.77976 0.37966 0.01589 0.0
C3186 C 0.7824 0.38971 0.02324 0.0
H3187 H 0.80916 0.41713 0.01888 0.0
H3188 H 0.80594 0.40288 0.02608 0.0
H3189 H 0.79814 0.40696 0.01223 0.0
H3190 H 0.76144 0.40953 0.01191 0.0
H3191 H 0.75653 0.39179 0.9993 0.0
H3192 H 0.74618 0.67128 0.55052 0.0
H3193 H 0.76103 0.68562 0.54214 0.0
H3194 H 0.79024 0.66358 0.55617 0.0
H3195 H 0.77541 0.6494 0.56505 0.0
H3196 H 0.78141 0.69686 0.55761 0.0
H3197 H 0.79557 0.67114 0.51711 0.0
H3198 H 0.78004 0.67088 0.52253 0.0
H3199 H 0.79165 0.66302 0.53082 0.0
C3200 C 0.75578 0.6695 0.55186 0.0
C3201 C 0.75967 0.65926 0.55849 0.0
C3202 C 0.76422 0.67769 0.54706 0.0
C3203 C 0.77668 0.67565 0.54858 0.0
C3204 C 0.78063 0.66535 0.55503 0.0
H3205 H 0.82093 0.72517 0.50608 0.0
H3206 H 0.81981 0.70802 0.52028 0.0
C3207 C 0.77218 0.65728 0.5601 0.0
C3208 C 0.78561 0.68451 0.54383 0.0
H3209 H 0.80173 0.69183 0.51909 0.0
C3210 C 0.78797 0.69521 0.55044 0.0
C3211 C 0.79185 0.68249 0.53296 0.0
C3212 C 0.78973 0.67128 0.52535 0.0
C3213 C 0.79968 0.7019 0.54934 0.0
C3214 C 0.80108 0.70236 0.53578 0.0
C3215 C 0.79892 0.69199 0.52854 0.0
C3216 C 0.80286 0.71373 0.52857 0.0
C3217 C 0.81708 0.70826 0.56852 0.0
C3218 C 0.79366 0.72256 0.52838 0.0
C3219 C 0.79419 0.73222 0.52011 0.0
C3220 C 0.80401 0.73329 0.51198 0.0
C3221 C 0.81349 0.72477 0.51252 0.0
C3222 C 0.8128 0.71493 0.52057 0.0
H3223 H 0.81674 0.7042 0.57798 0.0
H3224 H 0.82723 0.70683 0.56751 0.0
H3225 H 0.81814 0.7179 0.572 0.0
H3226 H 0.78579 0.72167 0.53425 0.0
H3227 H 0.78665 0.73854 0.51966 0.0
H3228 H 0.66259 0.52248 0.82809 0.0
H3229 H 0.67863 0.53042 0.81505 0.0
H3230 H 0.67752 0.56473 0.83389 0.0
H3231 H 0.66133 0.55698 0.847 0.0
H3232 H 0.67922 0.56779 0.8093 0.0
H3233 H 0.71384 0.53434 0.8245 0.0
H3234 H 0.69937 0.52788 0.82051 0.0
H3235 H 0.70043 0.53794 0.83328 0.0
C3236 C 0.66568 0.53174 0.82946 0.0
C3237 C 0.66069 0.53904 0.8387 0.0
C3238 C 0.67493 0.53624 0.822 0.0
C3239 C 0.67946 0.54808 0.82358 0.0
C3240 C 0.67424 0.55553 0.83253 0.0
H3241 H 0.74862 0.57357 0.79585 0.0
H3242 H 0.73167 0.56595 0.80792 0.0
C3243 C 0.66498 0.55106 0.84003 0.0
C3244 C 0.68965 0.55263 0.81594 0.0
H3245 H 0.71891 0.54646 0.8076 0.0
C3246 C 0.68792 0.56316 0.80894 0.0
C3247 C 0.70109 0.54676 0.8157 0.0
C3248 C 0.70391 0.53618 0.82397 0.0
C3249 C 0.69719 0.56778 0.80143 0.0
C3250 C 0.70845 0.56154 0.8007 0.0
C3251 C 0.71024 0.55116 0.80795 0.0
C3252 C 0.71876 0.5659 0.79303 0.0
C3253 C 0.69485 0.57945 0.7946 0.0
C3254 C 0.71732 0.56823 0.78052 0.0
C3255 C 0.72708 0.57248 0.77354 0.0
C3256 C 0.73845 0.57464 0.77896 0.0
C3257 C 0.73996 0.57203 0.79139 0.0
C3258 C 0.73026 0.56766 0.79832 0.0
H3259 H 0.68756 0.58491 0.79898 0.0
H3260 H 0.70319 0.58512 0.79402 0.0
H3261 H 0.69179 0.57723 0.78524 0.0
H3262 H 0.70864 0.56695 0.77612 0.0
H3263 H 0.72559 0.57452 0.76402 0.0
H3264 H 0.01391 0.41385 0.22288 0.0
H3265 H 0.99888 0.43027 0.22325 0.0
H3266 H 0.98679 0.41852 0.25868 0.0
H3267 H 0.00199 0.40228 0.25849 0.0
H3268 H 0.97353 0.42994 0.22575 0.0
H3269 H 0.9958 0.45406 0.26439 0.0
H3270 H 0.00316 0.44186 0.25625 0.0
H3271 H 0.99149 0.43855 0.2672 0.0
C3272 C 0.00803 0.41477 0.23073 0.0
C3273 C 0.0092 0.40691 0.24071 0.0
C3274 C 0.99943 0.4241 0.23092 0.0
C3275 C 0.99187 0.4257 0.24107 0.0
C3276 C 0.99272 0.41759 0.25087 0.0
H3277 H 0.94635 0.49078 0.25199 0.0
H3278 H 0.95309 0.46959 0.25447 0.0
C3279 C 0.00137 0.4083 0.25072 0.0
C3280 C 0.98342 0.43615 0.2415 0.0
H3281 H 0.97866 0.46333 0.25572 0.0
C3282 C 0.97454 0.43718 0.23239 0.0
C3283 C 0.98472 0.44552 0.25024 0.0
C3284 C 0.99435 0.44505 0.26003 0.0
C3285 C 0.96724 0.44759 0.23149 0.0
C3286 C 0.96897 0.45719 0.23985 0.0
C3287 C 0.97735 0.45588 0.24937 0.0
C3288 C 0.9636 0.46932 0.23784 0.0
C3289 C 0.95798 0.44841 0.22139 0.0
C3290 C 0.96731 0.47608 0.2277 0.0
C3291 C 0.96364 0.48811 0.22636 0.0
C3292 C 0.95616 0.49361 0.23512 0.0
C3293 C 0.9521 0.48673 0.2451 0.0
C3294 C 0.95592 0.47466 0.24651 0.0
H3295 H 0.95517 0.43923 0.2182 0.0
H3296 H 0.94979 0.45349 0.22438 0.0
H3297 H 0.96206 0.45331 0.21357 0.0
H3298 H 0.97344 0.47218 0.22104 0.0
H3299 H 0.96687 0.49318 0.21855 0.0
H3300 H 0.92909 0.82425 0.43837 0.0
H3301 H 0.9076 0.81843 0.43738 0.0
H3302 H 0.90368 0.82667 0.47555 0.0
H3303 H 0.92501 0.83254 0.47654 0.0
H3304 H 0.90114 0.79873 0.45095 0.0
H3305 H 0.87084 0.83708 0.46249 0.0
H3306 H 0.88622 0.83932 0.45712 0.0
H3307 H 0.88335 0.83608 0.47292 0.0
C3308 C 0.92347 0.82542 0.44638 0.0
C3309 C 0.92869 0.82877 0.45756 0.0
C3310 C 0.91122 0.82201 0.44583 0.0
C3311 C 0.90403 0.82212 0.45639 0.0
C3312 C 0.90896 0.8267 0.46724 0.0
H3313 H 0.85519 0.77044 0.48656 0.0
H3314 H 0.87234 0.78295 0.4797 0.0
C3315 C 0.92119 0.83002 0.46781 0.0
C3316 C 0.89243 0.81529 0.45685 0.0
H3317 H 0.86339 0.81689 0.46767 0.0
C3318 C 0.8928 0.80276 0.45434 0.0
C3319 C 0.88155 0.82054 0.46124 0.0
C3320 C 0.88043 0.83403 0.46348 0.0
C3321 C 0.88281 0.79522 0.4568 0.0
C3322 C 0.87226 0.80034 0.46205 0.0
C3323 C 0.8716 0.81297 0.46385 0.0
C3324 C 0.86196 0.79267 0.46607 0.0
C3325 C 0.88372 0.78181 0.45399 0.0
C3326 C 0.85045 0.79416 0.46083 0.0
C3327 C 0.84067 0.78706 0.46473 0.0
C3328 C 0.84221 0.77841 0.47404 0.0
C3329 C 0.85374 0.77699 0.47935 0.0
C3330 C 0.86354 0.78408 0.4754 0.0
H3331 H 0.89088 0.77994 0.4471 0.0
H3332 H 0.88613 0.77682 0.46242 0.0
H3333 H 0.87491 0.7782 0.4506 0.0
H3334 H 0.84904 0.80078 0.45367 0.0
H3335 H 0.83189 0.7884 0.46048 0.0
H3336 H 0.60533 0.60554 0.74755 0.0
H3337 H 0.60131 0.62731 0.74732 0.0
H3338 H 0.63085 0.63319 0.7725 0.0
H3339 H 0.63516 0.61127 0.77256 0.0
H3340 H 0.59512 0.64308 0.76537 0.0
H3341 H 0.63937 0.65606 0.74469 0.0
H3342 H 0.63418 0.6405 0.74537 0.0
H3343 H 0.64069 0.64761 0.7586 0.0
C3344 C 0.61099 0.61143 0.75308 0.0
C3345 C 0.62064 0.6067 0.76002 0.0
C3346 C 0.60865 0.62388 0.75294 0.0
C3347 C 0.61589 0.63188 0.75972 0.0
C3348 C 0.62531 0.62718 0.76698 0.0
H3349 H 0.61543 0.7094 0.76967 0.0
H3350 H 0.61826 0.68747 0.77097 0.0
C3351 C 0.62772 0.61467 0.76708 0.0
C3352 C 0.61355 0.64512 0.75901 0.0
H3353 H 0.62639 0.67216 0.75074 0.0
C3354 C 0.60194 0.64945 0.76215 0.0
C3355 C 0.62244 0.65336 0.75468 0.0
C3356 C 0.63483 0.64917 0.75053 0.0
C3357 C 0.59906 0.66185 0.76127 0.0
C3358 C 0.60799 0.67007 0.75709 0.0
C3359 C 0.61958 0.66577 0.75394 0.0
C3360 C 0.60571 0.68329 0.75641 0.0
C3361 C 0.58658 0.66614 0.76503 0.0
C3362 C 0.59767 0.68818 0.74777 0.0
C3363 C 0.59604 0.7008 0.74695 0.0
C3364 C 0.60244 0.70863 0.75479 0.0
C3365 C 0.61036 0.70363 0.7635 0.0
C3366 C 0.61201 0.6911 0.76426 0.0
H3367 H 0.58138 0.65894 0.76986 0.0
H3368 H 0.5873 0.67424 0.77103 0.0
H3369 H 0.58137 0.66884 0.75682 0.0
H3370 H 0.59284 0.68226 0.74154 0.0
H3371 H 0.58992 0.7044 0.74013 0.0
H3372 H 0.72484 0.33216 0.96203 0.0
H3373 H 0.70414 0.32615 0.95663 0.0
H3374 H 0.69014 0.35824 0.97432 0.0
H3375 H 0.71089 0.36438 0.97979 0.0
H3376 H 0.68535 0.32191 0.9741 0.0
H3377 H 0.67298 0.35753 0.94048 0.0
H3378 H 0.68856 0.35409 0.94444 0.0
H3379 H 0.67938 0.36316 0.95445 0.0
C3380 C 0.71738 0.33803 0.96466 0.0
C3381 C 0.71948 0.34875 0.97135 0.0
C3382 C 0.70557 0.33457 0.96156 0.0
C3383 C 0.69567 0.34181 0.96499 0.0
C3384 C 0.69772 0.35264 0.97145 0.0
H3385 H 0.62102 0.32866 0.9778 0.0
H3386 H 0.64306 0.3313 0.97849 0.0
C3387 C 0.70955 0.3561 0.9746 0.0
C3388 C 0.68315 0.33758 0.96255 0.0
H3389 H 0.65678 0.34529 0.94814 0.0
C3390 C 0.67913 0.32693 0.96832 0.0
C3391 C 0.67516 0.34409 0.95489 0.0
C3392 C 0.67923 0.3553 0.94811 0.0
C3393 C 0.6671 0.32289 0.96703 0.0
C3394 C 0.65894 0.32973 0.95985 0.0
C3395 C 0.6631 0.34009 0.95366 0.0
C3396 C 0.64583 0.32691 0.95951 0.0
C3397 C 0.66313 0.31147 0.97352 0.0
C3398 C 0.64014 0.32351 0.94859 0.0
C3399 C 0.62751 0.32192 0.94818 0.0
C3400 C 0.62045 0.32392 0.95864 0.0
C3401 C 0.62624 0.32705 0.9696 0.0
C3402 C 0.63882 0.32851 0.97003 0.0
H3403 H 0.67102 0.30566 0.976 0.0
H3404 H 0.65831 0.31399 0.98201 0.0
H3405 H 0.65678 0.30608 0.96778 0.0
H3406 H 0.64543 0.32232 0.94037 0.0
H3407 H 0.62326 0.3196 0.9396 0.0
H3408 H 0.97621 0.62599 0.32872 0.0
H3409 H 0.98055 0.64768 0.32963 0.0
H3410 H 0.94352 0.65562 0.31935 0.0
H3411 H 0.93902 0.63369 0.31859 0.0
H3412 H 0.97876 0.66696 0.3134 0.0
H3413 H 0.9474 0.67201 0.35284 0.0
H3414 H 0.95199 0.65734 0.34712 0.0
H3415 H 0.94082 0.66612 0.33907 0.0
C3416 C 0.96901 0.63233 0.32647 0.0
C3417 C 0.95723 0.62818 0.32373 0.0
C3418 C 0.97153 0.64473 0.32696 0.0
C3419 C 0.96231 0.65324 0.32478 0.0
C3420 C 0.9507 0.64916 0.32126 0.0
H3421 H 0.97869 0.73108 0.3266 0.0
H3422 H 0.97238 0.71078 0.32014 0.0
C3423 C 0.94817 0.63667 0.32073 0.0
C3424 C 0.96485 0.66625 0.32716 0.0
H3425 H 0.95874 0.68921 0.34717 0.0
C3426 C 0.97429 0.6719 0.32067 0.0
C3427 C 0.95916 0.67255 0.33683 0.0
C3428 C 0.94934 0.66671 0.34446 0.0
C3429 C 0.97834 0.68362 0.32374 0.0
C3430 C 0.97265 0.6899 0.33342 0.0
C3431 C 0.96307 0.68435 0.33975 0.0
C3432 C 0.97666 0.70217 0.3373 0.0
C3433 C 0.98899 0.68897 0.31692 0.0
C3434 C 0.98097 0.7041 0.34918 0.0
C3435 C 0.98452 0.71573 0.35295 0.0
C3436 C 0.98376 0.7256 0.34489 0.0
C3437 C 0.97947 0.72362 0.333 0.0
C3438 C 0.9759 0.71202 0.32926 0.0
H3439 H 0.99419 0.68188 0.31193 0.0
H3440 H 0.98559 0.69565 0.31017 0.0
H3441 H 0.99528 0.69378 0.32321 0.0
H3442 H 0.98157 0.69659 0.35553 0.0
H3443 H 0.98773 0.71701 0.36217 0.0
H3444 H 0.7142 0.76503 0.62595 0.0
H3445 H 0.69306 0.76189 0.63164 0.0
H3446 H 0.68851 0.737 0.60161 0.0
H3447 H 0.70996 0.73989 0.59599 0.0
H3448 H 0.6736 0.76755 0.61784 0.0
H3449 H 0.6728 0.71839 0.62947 0.0
H3450 H 0.68679 0.72686 0.62783 0.0
H3451 H 0.67867 0.7217 0.6146 0.0
C3452 C 0.70875 0.75882 0.62057 0.0
C3453 C 0.7137 0.75279 0.61044 0.0
C3454 C 0.69666 0.75701 0.62387 0.0
C3455 C 0.68923 0.74916 0.61712 0.0
C3456 C 0.69416 0.74294 0.60709 0.0
H3457 H 0.61201 0.7376 0.61564 0.0
H3458 H 0.63397 0.73731 0.61254 0.0
C3459 C 0.70637 0.74467 0.60382 0.0
C3460 C 0.67614 0.74826 0.6202 0.0
H3461 H 0.65367 0.72851 0.62862 0.0
C3462 C 0.66927 0.75902 0.62028 0.0
C3463 C 0.67053 0.73712 0.62338 0.0
C3464 C 0.67758 0.72537 0.62394 0.0
C3465 C 0.65689 0.75894 0.6233 0.0
C3466 C 0.65127 0.74782 0.62641 0.0
C3467 C 0.65809 0.73703 0.62631 0.0
C3468 C 0.63811 0.74719 0.62904 0.0
C3469 C 0.64983 0.77071 0.62285 0.0
C3470 C 0.63321 0.75266 0.63949 0.0
C3471 C 0.62061 0.75285 0.64132 0.0
C3472 C 0.61278 0.74763 0.63266 0.0
C3473 C 0.61779 0.74183 0.62241 0.0
C3474 C 0.63034 0.74159 0.62065 0.0
H3475 H 0.65503 0.77811 0.61834 0.0
H3476 H 0.6411 0.76941 0.61794 0.0
H3477 H 0.64767 0.77366 0.63226 0.0
H3478 H 0.63913 0.75693 0.64612 0.0
H3479 H 0.61701 0.75728 0.64935 0.0
H3480 H 0.59593 0.37966 0.85476 0.0
H3481 H 0.59876 0.40166 0.8576 0.0
H3482 H 0.6114 0.40484 0.82062 0.0
H3483 H 0.60867 0.38298 0.81772 0.0
H3484 H 0.62268 0.4136 0.85351 0.0
H3485 H 0.58534 0.4325 0.82512 0.0
H3486 H 0.58496 0.41726 0.83128 0.0
H3487 H 0.59416 0.42058 0.81821 0.0
C3488 C 0.59907 0.38511 0.84718 0.0
C3489 C 0.60206 0.37966 0.83602 0.0
C3490 C 0.60073 0.39762 0.84883 0.0
C3491 C 0.60519 0.40482 0.83927 0.0
C3492 C 0.60781 0.39944 0.82803 0.0
H3493 H 0.64207 0.4744 0.83777 0.0
H3494 H 0.6361 0.45299 0.83543 0.0
C3495 C 0.60629 0.38696 0.82642 0.0
C3496 C 0.60802 0.41779 0.84121 0.0
H3497 H 0.60065 0.44636 0.83163 0.0
C3498 C 0.61782 0.42079 0.84882 0.0
C3499 C 0.60164 0.42707 0.83505 0.0
C3500 C 0.59087 0.42426 0.82702 0.0
C3501 C 0.62159 0.4329 0.85022 0.0
C3502 C 0.61541 0.44215 0.8438 0.0
C3503 C 0.60543 0.43918 0.83642 0.0
C3504 C 0.61898 0.45504 0.84491 0.0
C3505 C 0.63211 0.43576 0.85858 0.0
C3506 C 0.61121 0.46322 0.85082 0.0
C3507 C 0.61459 0.47537 0.85219 0.0
C3508 C 0.62574 0.47957 0.84754 0.0
C3509 C 0.63342 0.47141 0.84141 0.0
C3510 C 0.63006 0.4592 0.84012 0.0
H3511 H 0.63445 0.42792 0.86451 0.0
H3512 H 0.64022 0.43808 0.85305 0.0
H3513 H 0.62996 0.44373 0.8644 0.0
H3514 H 0.60261 0.46015 0.85453 0.0
H3515 H 0.60846 0.48146 0.85692 0.0
H3516 H 0.95837 0.28615 0.09913 0.0
H3517 H 0.93737 0.29233 0.10259 0.0
H3518 H 0.94196 0.28671 0.14114 0.0
H3519 H 0.9631 0.28056 0.13772 0.0
H3520 H 0.91568 0.28515 0.11494 0.0
H3521 H 0.93971 0.32416 0.13686 0.0
H3522 H 0.94773 0.31271 0.12828 0.0
H3523 H 0.94216 0.30931 0.14324 0.0
C3524 C 0.95473 0.28565 0.10827 0.0
C3525 C 0.96238 0.28309 0.11817 0.0
C3526 C 0.94274 0.28924 0.11026 0.0
C3527 C 0.93828 0.29032 0.12215 0.0
C3528 C 0.94536 0.28612 0.13191 0.0
H3529 H 0.86764 0.32725 0.12748 0.0
H3530 H 0.88446 0.31378 0.13291 0.0
C3531 C 0.95738 0.28246 0.12992 0.0
C3532 C 0.92733 0.29785 0.12422 0.0
H3533 H 0.919 0.32659 0.13265 0.0
C3534 C 0.91628 0.2941 0.11906 0.0
C3535 C 0.92829 0.30962 0.12941 0.0
C3536 C 0.9401 0.31428 0.13471 0.0
C3537 C 0.90627 0.302 0.11851 0.0
C3538 C 0.90735 0.31388 0.12338 0.0
C3539 C 0.91823 0.31745 0.12898 0.0
C3540 C 0.89767 0.32306 0.12168 0.0
C3541 C 0.89487 0.29783 0.11207 0.0
C3542 C 0.89973 0.33314 0.11412 0.0
C3543 C 0.89016 0.34094 0.11106 0.0
C3544 C 0.87841 0.33873 0.11553 0.0
C3545 C 0.87659 0.32911 0.12378 0.0
C3546 C 0.88615 0.32136 0.12686 0.0
H3547 H 0.8963 0.28922 0.10696 0.0
H3548 H 0.88759 0.29625 0.11887 0.0
H3549 H 0.89164 0.3049 0.10562 0.0
H3550 H 0.9086 0.33463 0.11009 0.0
H3551 H 0.89184 0.34828 0.1047 0.0
H3552 H 0.19697 0.96535 0.50476 0.0
H3553 H 0.1948 0.97173 0.48357 0.0
H3554 H 0.22665 0.95089 0.47403 0.0
H3555 H 0.22867 0.94422 0.49508 0.0
H3556 H 0.21149 0.98542 0.47273 0.0
H3557 H 0.20511 0.94371 0.4454 0.0
H3558 H 0.20297 0.94395 0.46169 0.0
H3559 H 0.21798 0.94236 0.45532 0.0
C3560 C 0.20332 0.96187 0.49808 0.0
C3561 C 0.21304 0.95436 0.50157 0.0
C3562 C 0.20206 0.96552 0.48598 0.0
C3563 C 0.21049 0.9617 0.4772 0.0
C3564 C 0.21985 0.95371 0.48058 0.0
H3565 H 0.24222 0.98688 0.41206 0.0
H3566 H 0.23575 0.97662 0.4307 0.0
C3567 C 0.22106 0.94998 0.49265 0.0
C3568 C 0.21061 0.96741 0.46501 0.0
H3569 H 0.2135 0.96113 0.43475 0.0
C3570 C 0.21165 0.98013 0.4644 0.0
C3571 C 0.21084 0.96049 0.45417 0.0
C3572 C 0.20904 0.94688 0.45417 0.0
C3573 C 0.21358 0.98606 0.45331 0.0
C3574 C 0.21442 0.97908 0.44256 0.0
C3575 C 0.2129 0.96642 0.44306 0.0
C3576 C 0.21783 0.98473 0.43089 0.0
C3577 C 0.21535 -0.00031 0.4532 0.0
C3578 C 0.20981 0.99257 0.42484 0.0
C3579 C 0.21348 0.99846 0.4142 0.0
C3580 C 0.22522 0.9966 0.40951 0.0
C3581 C 0.23314 0.98856 0.4155 0.0
C3582 C 0.22945 0.98265 0.4261 0.0
H3583 H 0.21599 0.00354 0.46252 0.0
H3584 H 0.22374 0.0021 0.44812 0.0
H3585 H 0.20755 0.00403 0.4485 0.0
H3586 H 0.20078 0.99421 0.42842 0.0
H3587 H 0.20716 0.00456 0.40973 0.0
H3588 H 0.34802 0.97624 0.61232 0.0
H3589 H 0.35051 0.97757 0.63433 0.0
H3590 H 0.33763 0.9407 0.63814 0.0
H3591 H 0.33508 0.93926 0.61597 0.0
H3592 H 0.33174 0.9731 0.653 0.0
H3593 H 0.37209 0.94252 0.65552 0.0
H3594 H 0.36749 0.94979 0.64153 0.0
H3595 H 0.35892 0.93719 0.64734 0.0
C3596 C 0.34567 0.96841 0.61782 0.0
C3597 C 0.34139 0.95763 0.61244 0.0
C3598 C 0.34709 0.9692 0.63038 0.0
C3599 C 0.34435 0.95921 0.63778 0.0
C3600 C 0.33989 0.94846 0.63251 0.0
H3601 H 0.34193 0.96309 0.71688 0.0
H3602 H 0.33768 0.95809 0.69564 0.0
C3603 C 0.33838 0.94768 0.61989 0.0
C3604 C 0.3463 0.96018 0.65101 0.0
H3605 H 0.36553 0.95158 0.67381 0.0
C3606 C 0.33903 0.96831 0.65761 0.0
C3607 C 0.35593 0.954 0.65686 0.0
C3608 C 0.36414 0.94542 0.65 0.0
C3609 C 0.34123 0.97054 0.66996 0.0
C3610 C 0.35091 0.96443 0.67581 0.0
C3611 C 0.35811 0.9562 0.66924 0.0
C3612 C 0.35388 0.96679 0.68867 0.0
C3613 C 0.33344 0.97968 0.67661 0.0
C3614 C 0.36454 0.97311 0.69173 0.0
C3615 C 0.36701 0.97601 0.70386 0.0
C3616 C 0.35887 0.97256 0.71308 0.0
C3617 C 0.34836 0.96593 0.70997 0.0
C3618 C 0.34589 0.96308 0.69786 0.0
H3619 H 0.32773 0.98512 0.67029 0.0
H3620 H 0.32731 0.97482 0.68299 0.0
H3621 H 0.3392 0.98597 0.68203 0.0
H3622 H 0.37081 0.97602 0.68471 0.0
H3623 H 0.37519 0.98108 0.70599 0.0
H3624 H 0.29515 0.10144 0.96526 0.0
H3625 H 0.29693 0.10144 0.94319 0.0
H3626 H 0.28678 0.13932 0.94232 0.0
H3627 H 0.28506 0.13936 0.96452 0.0
H3628 H 0.28578 0.10886 0.92086 0.0
H3629 H 0.32392 0.1389 0.93589 0.0
H3630 H 0.31461 0.13074 0.94662 0.0
H3631 H 0.3087 0.14394 0.93904 0.0
C3632 C 0.2926 0.10957 0.96032 0.0
C3633 C 0.29021 0.12045 0.96655 0.0
C3634 C 0.29367 0.10959 0.94769 0.0
C3635 C 0.29238 0.12049 0.94121 0.0
C3636 C 0.28801 0.13087 0.94723 0.0
H3637 H 0.32303 0.1191 0.86718 0.0
H3638 H 0.30964 0.12453 0.8841 0.0
C3639 C 0.28689 0.13085 0.95991 0.0
C3640 C 0.2983 0.12142 0.92917 0.0
H3641 H 0.3249 0.13098 0.91623 0.0
C3642 C 0.29417 0.11394 0.91969 0.0
C3643 C 0.30939 0.12789 0.92782 0.0
C3644 C 0.31452 0.13577 0.93787 0.0
C3645 C 0.30109 0.11234 0.90907 0.0
C3646 C 0.31237 0.11844 0.90796 0.0
C3647 C 0.31623 0.12635 0.91718 0.0
C3648 C 0.32079 0.1159 0.8978 0.0
C3649 C 0.29666 0.10362 0.89943 0.0
C3650 C 0.33167 0.10958 0.90001 0.0
C3651 C 0.33936 0.10647 0.89038 0.0
C3652 C 0.3363 0.10972 0.87842 0.0
C3653 C 0.32561 0.11644 0.87631 0.0
C3654 C 0.31792 0.1195 0.88593 0.0
H3655 H 0.28853 0.09841 0.90242 0.0
H3656 H 0.29423 0.10878 0.89111 0.0
H3657 H 0.30398 0.0971 0.89698 0.0
H3658 H 0.33403 0.10677 0.90915 0.0
H3659 H 0.34753 0.10129 0.89225 0.0
H3660 H 0.25685 0.11666 0.23826 0.0
H3661 H 0.27224 0.11662 0.2221 0.0
H3662 H 0.30043 0.12202 0.24895 0.0
H3663 H 0.28507 0.12291 0.26488 0.0
H3664 H 0.30573 0.13479 0.23063 0.0
H3665 H 0.29351 0.08914 0.2134 0.0
H3666 H 0.28085 0.09931 0.21224 0.0
H3667 H 0.28684 0.09537 0.227 0.0
C3668 C 0.26633 0.11791 0.24064 0.0
C3669 C 0.26979 0.11976 0.25278 0.0
C3670 C 0.27513 0.11776 0.23145 0.0
C3671 C 0.28756 0.11897 0.23433 0.0
C3672 C 0.29094 0.12102 0.24646 0.0
H3673 H 0.33765 0.09724 0.17737 0.0
H3674 H 0.32889 0.0988 0.19777 0.0
C3675 C 0.28214 0.12152 0.25557 0.0
C3676 C 0.29709 0.11815 0.22478 0.0
H3677 H 0.30653 0.10105 0.20073 0.0
C3678 C 0.306 0.12732 0.22418 0.0
C3679 C 0.2977 0.10824 0.21657 0.0
C3680 C 0.2893 0.0974 0.21743 0.0
C3681 C 0.31525 0.12705 0.21539 0.0
C3682 C 0.31526 0.11766 0.20657 0.0
C3683 C 0.30656 0.10832 0.20741 0.0
C3684 C 0.32352 0.11768 0.19587 0.0
C3685 C 0.32495 0.13676 0.21582 0.0
C3686 C 0.32417 0.12796 0.1883 0.0
C3687 C 0.32967 0.1272 0.17689 0.0
C3688 C 0.33415 0.11602 0.17264 0.0
C3689 C 0.33431 0.10597 0.1805 0.0
C3690 C 0.32919 0.10684 0.19209 0.0
H3691 H 0.32666 0.13974 0.22532 0.0
H3692 H 0.33366 0.13354 0.21185 0.0
H3693 H 0.3218 0.14484 0.21066 0.0
H3694 H 0.31959 0.13631 0.19075 0.0
H3695 H 0.3292 0.13503 0.17093 0.0
H3696 H 0.38246 0.24824 0.97888 0.0
H3697 H 0.39999 0.24746 0.9652 0.0
H3698 H 0.4137 0.21619 0.98451 0.0
H3699 H 0.39615 0.21685 0.99818 0.0
H3700 H 0.42389 0.24994 0.97335 0.0
H3701 H 0.41769 0.20642 0.94865 0.0
H3702 H 0.40541 0.21396 0.95656 0.0
H3703 H 0.41623 0.20492 0.96485 0.0
C3704 C 0.38912 0.24108 0.98009 0.0
C3705 C 0.388 0.23262 0.98961 0.0
C3706 C 0.3991 0.24065 0.97226 0.0
C3707 C 0.40805 0.23169 0.97377 0.0
C3708 C 0.40676 0.22302 0.98305 0.0
H3709 H 0.48045 0.21485 0.95636 0.0
H3710 H 0.45921 0.21616 0.96249 0.0
C3711 C 0.39678 0.22345 0.99089 0.0
C3712 C 0.41934 0.23215 0.96651 0.0
H3713 H 0.43784 0.21491 0.94857 0.0
C3714 C 0.42687 0.24239 0.96773 0.0
C3715 C 0.42314 0.22229 0.9592 0.0
C3716 C 0.41514 0.21132 0.95712 0.0
C3717 C 0.43846 0.24273 0.96243 0.0
C3718 C 0.44248 0.23264 0.95555 0.0
C3719 C 0.43471 0.22263 0.95386 0.0
C3720 C 0.45515 0.23173 0.95116 0.0
C3721 C 0.44656 0.25358 0.96482 0.0
C3722 C 0.45986 0.23999 0.94264 0.0
C3723 C 0.47209 0.23932 0.93916 0.0
C3724 C 0.4797 0.23032 0.94411 0.0
C3725 C 0.47484 0.22191 0.95241 0.0
C3726 C 0.46268 0.22262 0.95589 0.0
H3727 H 0.44289 0.25956 0.97209 0.0
H3728 H 0.45583 0.25058 0.96749 0.0
H3729 H 0.44738 0.25905 0.95638 0.0
H3730 H 0.45412 0.24698 0.93875 0.0
H3731 H 0.47558 0.24585 0.93267 0.0
H3732 H 0.09622 0.88051 0.33801 0.0
H3733 H 0.10288 0.89903 0.32756 0.0
H3734 H 0.12513 0.87758 0.30344 0.0
H3735 H 0.1185 0.85903 0.31375 0.0
H3736 H 0.12674 0.90894 0.32235 0.0
H3737 H 0.10098 0.89581 0.28072 0.0
H3738 H 0.09848 0.88856 0.29524 0.0
H3739 H 0.11176 0.88494 0.28647 0.0
C3740 C 0.10269 0.87975 0.33062 0.0
C3741 C 0.10673 0.8683 0.32663 0.0
C3742 C 0.10647 0.89033 0.32465 0.0
C3743 C 0.11431 0.88962 0.3146 0.0
C3744 C 0.11891 0.87828 0.31104 0.0
H3745 H 0.13784 0.95992 0.28514 0.0
H3746 H 0.13901 0.93781 0.28773 0.0
C3747 C 0.11514 0.86771 0.31699 0.0
C3748 C 0.11708 0.9007 0.30747 0.0
H3749 H 0.11059 0.9149 0.28062 0.0
C3750 C 0.1234 0.91021 0.31316 0.0
C3751 C 0.11264 0.90227 0.29549 0.0
C3752 C 0.10551 0.89241 0.28909 0.0
C3753 C 0.12502 0.92145 0.30735 0.0
C3754 C 0.12028 0.92315 0.29548 0.0
C3755 C 0.11435 0.91348 0.28963 0.0
C3756 C 0.11961 0.93543 0.29001 0.0
C3757 C 0.13114 0.93166 0.31425 0.0
C3758 C 0.10824 0.94117 0.28932 0.0
C3759 C 0.10754 0.95373 0.28775 0.0
C3760 C 0.1182 0.9607 0.28681 0.0
C3761 C 0.12947 0.95475 0.28578 0.0
C3762 C 0.13017 0.94214 0.28743 0.0
H3763 H 0.13275 0.92931 0.32395 0.0
H3764 H 0.14007 0.9337 0.31001 0.0
H3765 H 0.12554 0.94006 0.31388 0.0
H3766 H 0.09997 0.93613 0.29119 0.0
H3767 H 0.09875 0.95811 0.28855 0.0
H3768 H 0.12943 0.78456 0.4738 0.0
H3769 H 0.15058 0.77753 0.47521 0.0
H3770 H 0.15652 0.80156 0.50569 0.0
H3771 H 0.13558 0.80858 0.50431 0.0
H3772 H 0.16837 0.79488 0.47157 0.0
H3773 H 0.17659 0.77187 0.51539 0.0
H3774 H 0.16162 0.77304 0.50867 0.0
H3775 H 0.16784 0.7855 0.51731 0.0
C3776 C 0.13516 0.78801 0.48104 0.0
C3777 C 0.13096 0.79721 0.48886 0.0
C3778 C 0.14721 0.78398 0.48186 0.0
C3779 C 0.15508 0.78892 0.49065 0.0
C3780 C 0.15056 0.79741 0.49902 0.0
H3781 H 0.22391 0.81565 0.50452 0.0
H3782 H 0.20388 0.80597 0.50553 0.0
C3783 C 0.13862 0.80153 0.49812 0.0
C3784 C 0.16839 0.78735 0.48962 0.0
H3785 H 0.19382 0.78299 0.50687 0.0
C3786 C 0.17399 0.79192 0.47912 0.0
C3787 C 0.17564 0.78358 0.49954 0.0
C3788 C 0.1701 0.77811 0.51082 0.0
C3789 C 0.18657 0.7939 0.47868 0.0
C3790 C 0.19379 0.7908 0.4889 0.0
C3791 C 0.18827 0.78538 0.49907 0.0
C3792 C 0.2067 0.79457 0.4897 0.0
C3793 C 0.1918 0.80024 0.46766 0.0
C3794 C 0.21512 0.79094 0.48084 0.0
C3795 C 0.22643 0.79666 0.48008 0.0
C3796 C 0.22961 0.80584 0.4884 0.0
C3797 C 0.22165 0.80862 0.49798 0.0
C3798 C 0.21023 0.80307 0.49857 0.0
H3799 H 0.18462 0.80421 0.46177 0.0
H3800 H 0.1981 0.80765 0.47043 0.0
H3801 H 0.19699 0.79358 0.46213 0.0
H3802 H 0.21269 0.78416 0.4741 0.0
H3803 H 0.23251 0.79422 0.47272 0.0
H3804 H 0.46644 0.83143 0.8068 0.0
H3805 H 0.46254 0.85056 0.81728 0.0
H3806 H 0.48838 0.86872 0.79402 0.0
H3807 H 0.49226 0.84951 0.78328 0.0
H3808 H 0.47901 0.86443 0.83008 0.0
H3809 H 0.45843 0.8909 0.79237 0.0
H3810 H 0.46022 0.87458 0.79176 0.0
H3811 H 0.47296 0.88439 0.78871 0.0
C3812 C 0.47125 0.8395 0.80381 0.0
C3813 C 0.47968 0.83896 0.7942 0.0
C3814 C 0.469 0.85043 0.80984 0.0
C3815 C 0.47507 0.86107 0.80636 0.0
C3816 C 0.48344 0.86063 0.7967 0.0
H3817 H 0.49151 0.92664 0.84254 0.0
H3818 H 0.48987 0.90532 0.83667 0.0
C3819 C 0.4857 0.84965 0.79062 0.0
C3820 C 0.47299 0.87248 0.81324 0.0
H3821 H 0.46409 0.90203 0.81012 0.0
C3822 C 0.47563 0.87263 0.82574 0.0
C3823 C 0.46836 0.88307 0.80763 0.0
C3824 C 0.46471 0.88324 0.7944 0.0
C3825 C 0.47426 0.88326 0.83268 0.0
C3826 C 0.47027 0.89404 0.82692 0.0
C3827 C 0.46715 0.89375 0.81453 0.0
C3828 C 0.47051 0.90599 0.83314 0.0
C3829 C 0.47719 0.8829 0.84608 0.0
C3830 C 0.46009 0.91337 0.8335 0.0
C3831 C 0.461 0.92561 0.83695 0.0
C3832 C 0.47239 0.93062 0.83986 0.0
C3833 C 0.48261 0.92297 0.84041 0.0
C3834 C 0.48168 0.91077 0.83707 0.0
H3835 H 0.47614 0.87356 0.84981 0.0
H3836 H 0.48679 0.88571 0.84745 0.0
H3837 H 0.47127 0.88919 0.85131 0.0
H3838 H 0.4514 0.90986 0.83043 0.0
H3839 H 0.45302 0.93135 0.83627 0.0
H3840 H 0.14908 0.16699 0.32535 0.0
H3841 H 0.15271 0.18847 0.32073 0.0
H3842 H 0.11399 0.19446 0.31854 0.0
H3843 H 0.11032 0.17313 0.32318 0.0
H3844 H 0.14547 0.1965 0.29845 0.0
H3845 H 0.12546 0.22603 0.33367 0.0
H3846 H 0.12944 0.21034 0.33657 0.0
H3847 H 0.11505 0.21412 0.32966 0.0
C3848 C 0.14134 0.17302 0.32445 0.0
C3849 C 0.12941 0.1684 0.32452 0.0
C3850 C 0.14344 0.18527 0.32174 0.0
C3851 C 0.13363 0.19306 0.31931 0.0
C3852 C 0.1217 0.18869 0.32059 0.0
H3853 H 0.11316 0.23978 0.26439 0.0
H3854 H 0.12183 0.22332 0.27654 0.0
C3855 C 0.11961 0.17646 0.32319 0.0
C3856 C 0.13561 0.20488 0.3132 0.0
H3857 H 0.12471 0.23385 0.31284 0.0
C3858 C 0.14125 0.20479 0.30174 0.0
C3859 C 0.13027 0.21572 0.31755 0.0
C3860 C 0.12484 0.21659 0.33011 0.0
C3861 C 0.14071 0.21495 0.29406 0.0
C3862 C 0.13418 0.22534 0.2979 0.0
C3863 C 0.12954 0.2258 0.3098 0.0
C3864 C 0.13085 0.23525 0.28941 0.0
C3865 C 0.14672 0.21427 0.28175 0.0
C3866 C 0.13309 0.24741 0.29256 0.0
C3867 C 0.12801 0.25681 0.28572 0.0
C3868 C 0.12057 0.25421 0.27563 0.0
C3869 C 0.1189 0.24205 0.27208 0.0
C3870 C 0.12393 0.23264 0.27897 0.0
H3871 H 0.15474 0.20811 0.28197 0.0
H3872 H 0.14017 0.2105 0.27506 0.0
H3873 H 0.1497 0.22339 0.27858 0.0
H3874 H 0.13836 0.24961 0.30059 0.0
H3875 H 0.12951 0.2661 0.28864 0.0
H3876 H 0.51011 0.13107 0.8109 0.0
H3877 H 0.51152 0.15269 0.80646 0.0
H3878 H 0.48466 0.14874 0.77811 0.0
H3879 H 0.48295 0.12695 0.78274 0.0
H3880 H 0.51633 0.16738 0.78658 0.0
H3881 H 0.46828 0.17173 0.80221 0.0
H3882 H 0.47679 0.15784 0.80399 0.0
H3883 H 0.47086 0.16199 0.78934 0.0
C3884 C 0.50463 0.13473 0.80357 0.0
C3885 C 0.49624 0.12737 0.79732 0.0
C3886 C 0.5055 0.14709 0.80101 0.0
C3887 C 0.49801 0.15235 0.79214 0.0
C3888 C 0.49034 0.14487 0.78516 0.0
H3889 H 0.48364 0.2306 0.79117 0.0
H3890 H 0.48516 0.20959 0.7841 0.0
C3891 C 0.48943 0.13243 0.78775 0.0
C3892 C 0.49739 0.16577 0.79139 0.0
H3893 H 0.47913 0.1897 0.79896 0.0
C3894 C 0.50814 0.17229 0.78907 0.0
C3895 C 0.48671 0.17214 0.79473 0.0
C3896 C 0.47501 0.16562 0.7978 0.0
C3897 C 0.50861 0.18497 0.79046 0.0
C3898 C 0.49809 0.19123 0.79434 0.0
C3899 C 0.48718 0.18482 0.796 0.0
C3900 C 0.49833 0.20424 0.79769 0.0
C3901 C 0.52041 0.19155 0.78804 0.0
C3902 C 0.50525 0.20817 0.80768 0.0
C3903 C 0.50437 0.22017 0.81181 0.0
C3904 C 0.4965 0.22839 0.80601 0.0
C3905 C 0.4898 0.22449 0.79583 0.0
C3906 C 0.49066 0.2125 0.79175 0.0
H3907 H 0.52646 0.18619 0.78198 0.0
H3908 H 0.51873 0.20059 0.78385 0.0
H3909 H 0.52525 0.19301 0.79679 0.0
H3910 H 0.51102 0.20185 0.81256 0.0
H3911 H 0.5096 0.2229 0.8197 0.0
H3912 H 0.24003 0.2547 0.12308 0.0
H3913 H 0.22333 0.2694 0.12278 0.0
H3914 H 0.24397 0.29357 0.1458 0.0
H3915 H 0.26072 0.27889 0.14623 0.0
H3916 H 0.21034 0.28257 0.14382 0.0
H3917 H 0.23692 0.31156 0.11175 0.0
H3918 H 0.24021 0.29558 0.11368 0.0
H3919 H 0.24411 0.30618 0.12546 0.0
C3920 C 0.24092 0.26302 0.12829 0.0
C3921 C 0.25171 0.26568 0.1346 0.0
C3922 C 0.23139 0.2714 0.1281 0.0
C3923 C 0.23254 0.28258 0.13415 0.0
C3924 C 0.243 0.285 0.14102 0.0
H3925 H 0.16864 0.33024 0.13058 0.0
H3926 H 0.18896 0.32425 0.1375 0.0
C3927 C 0.25251 0.27658 0.14128 0.0
C3928 C 0.22314 0.29198 0.13242 0.0
H3929 H 0.21647 0.3168 0.115 0.0
C3930 C 0.21171 0.29023 0.13775 0.0
C3931 C 0.22505 0.30188 0.12444 0.0
C3932 C 0.2372 0.30398 0.11842 0.0
C3933 C 0.2019 0.29785 0.13487 0.0
C3934 C 0.20367 0.30745 0.12646 0.0
C3935 C 0.21524 0.30951 0.12154 0.0
C3936 C 0.19317 0.31398 0.12125 0.0
C3937 C 0.18954 0.29512 0.14021 0.0
C3938 C 0.18926 0.31088 0.10952 0.0
C3939 C 0.17771 0.31426 0.10555 0.0
C3940 C 0.16996 0.32086 0.11326 0.0
C3941 C 0.17445 0.32519 0.12443 0.0
C3942 C 0.18601 0.3217 0.12844 0.0
H3943 H 0.1895 0.28662 0.14566 0.0
H3944 H 0.1867 0.30274 0.14619 0.0
H3945 H 0.18265 0.29426 0.13286 0.0
H3946 H 0.19472 0.30496 0.10383 0.0
H3947 H 0.17447 0.31084 0.09689 0.0
H3948 H 0.38769 0.81833 0.58725 0.0
H3949 H 0.4075 0.8204 0.59719 0.0
H3950 H 0.39785 0.85648 0.6092 0.0
H3951 H 0.37797 0.85441 0.59948 0.0
H3952 H 0.42533 0.83827 0.59258 0.0
H3953 H 0.40952 0.8394 0.64054 0.0
H3954 H 0.40005 0.83407 0.6282 0.0
H3955 H 0.40208 0.8501 0.63069 0.0
C3956 C 0.38977 0.8267 0.59203 0.0
C3957 C 0.38129 0.83625 0.59253 0.0
C3958 C 0.40108 0.82785 0.5977 0.0
C3959 C 0.40404 0.83852 0.60405 0.0
C3960 C 0.39563 0.84809 0.60452 0.0
H3961 H 0.47381 0.86703 0.62447 0.0
H3962 H 0.45358 0.86306 0.61617 0.0
C3963 C 0.38433 0.84695 0.59884 0.0
C3964 C 0.41612 0.83981 0.60979 0.0
H3965 H 0.43029 0.84455 0.63702 0.0
C3966 C 0.42643 0.83957 0.6023 0.0
C3967 C 0.41749 0.84136 0.62249 0.0
C3968 C 0.40672 0.84114 0.63099 0.0
C3969 C 0.43811 0.84118 0.60715 0.0
C3970 C 0.43945 0.8432 0.61977 0.0
C3971 C 0.42917 0.8431 0.62732 0.0
C3972 C 0.45145 0.84572 0.62522 0.0
C3973 C 0.44895 0.84071 0.59874 0.0
C3974 C 0.45676 0.8374 0.63329 0.0
C3975 C 0.46834 0.83964 0.63807 0.0
C3976 C 0.47469 0.85028 0.63489 0.0
C3977 C 0.46918 0.85873 0.62705 0.0
C3978 C 0.45765 0.85646 0.62226 0.0
H3979 H 0.44667 0.83631 0.58992 0.0
H3980 H 0.45209 0.85012 0.59684 0.0
H3981 H 0.4566 0.83569 0.60301 0.0
H3982 H 0.45204 0.82909 0.63572 0.0
H3983 H 0.47235 0.833 0.64413 0.0
H3984 H 0.8383 0.45 0.93793 0.0
H3985 H 0.82911 0.44685 0.91789 0.0
H3986 H 0.83638 0.48428 0.90867 0.0
H3987 H 0.84551 0.4875 0.92865 0.0
H3988 H 0.80828 0.46125 0.91311 0.0
H3989 H 0.84253 0.46609 0.87639 0.0
H3990 H 0.84657 0.46206 0.89181 0.0
H3991 H 0.84342 0.47763 0.88794 0.0
C3992 C 0.83852 0.45738 0.9314 0.0
C3993 C 0.84257 0.46902 0.93484 0.0
C3994 C 0.83316 0.45559 0.92 0.0
C3995 C 0.83205 0.46534 0.91183 0.0
C3996 C 0.83728 0.4766 0.91477 0.0
H3997 H 0.77438 0.48394 0.86169 0.0
H3998 H 0.78837 0.48235 0.87903 0.0
C3999 C 0.8425 0.47843 0.9262 0.0
C4000 C 0.82363 0.46448 0.90136 0.0
H4001 H 0.82166 0.46857 0.87067 0.0
C4002 C 0.81122 0.46269 0.9038 0.0
C4003 C 0.82749 0.46642 0.88927 0.0
C4004 C 0.84075 0.46806 0.88614 0.0
C4005 C 0.80251 0.46312 0.89449 0.0
C4006 C 0.80632 0.46547 0.88245 0.0
C4007 C 0.81877 0.4669 0.87995 0.0
C4008 C 0.79753 0.46627 0.87229 0.0
C4009 C 0.7893 0.46104 0.89757 0.0
C4010 C 0.79809 0.45779 0.8628 0.0
C4011 C 0.79016 0.45868 0.85295 0.0
C4012 C 0.78154 0.46812 0.85234 0.0
C4013 C 0.78085 0.47652 0.86195 0.0
C4014 C 0.78882 0.47562 0.87185 0.0
H4015 H 0.78822 0.45694 0.90672 0.0
H4016 H 0.78444 0.46988 0.89752 0.0
H4017 H 0.78492 0.45501 0.89074 0.0
H4018 H 0.80474 0.45051 0.86299 0.0
H4019 H 0.79094 0.45205 0.84569 0.0
H4020 H 0.79323 0.48134 0.22735 0.0
H4021 H 0.78473 0.48165 0.2068 0.0
H4022 H 0.814 0.50494 0.19499 0.0
H4023 H 0.82258 0.50478 0.21563 0.0
H4024 H 0.77975 0.50566 0.19067 0.0
H4025 H 0.81236 0.47066 0.17385 0.0
H4026 H 0.8081 0.47176 0.18968 0.0
H4027 H 0.81818 0.48282 0.18321 0.0
C4028 C 0.79784 0.48659 0.2204 0.0
C4029 C 0.8086 0.49301 0.22306 0.0
C4030 C 0.79293 0.48679 0.20871 0.0
C4031 C 0.79876 0.49331 0.19948 0.0
C4032 C 0.8094 0.49988 0.20209 0.0
H4033 H 0.78849 0.51265 0.12647 0.0
H4034 H 0.78743 0.51251 0.14862 0.0
C4035 C 0.81428 0.49977 0.21384 0.0
C4036 C 0.79402 0.49277 0.18696 0.0
H4037 H 0.79934 0.47965 0.15941 0.0
C4038 C 0.78394 0.49993 0.18381 0.0
C4039 C 0.79943 0.48512 0.17819 0.0
C4040 C 0.81009 0.47707 0.18133 0.0
C4041 C 0.7794 0.49997 0.17187 0.0
C4042 C 0.78512 0.49268 0.16297 0.0
C4043 C 0.79491 0.48518 0.16629 0.0
C4044 C 0.78215 0.49359 0.1499 0.0
C4045 C 0.76863 0.50788 0.16883 0.0
C4046 C 0.77901 0.48312 0.14327 0.0
C4047 C 0.77956 0.48319 0.13057 0.0
C4048 C 0.78348 0.49367 0.12441 0.0
C4049 C 0.78547 0.50444 0.13101 0.0
C4050 C 0.78481 0.50439 0.14368 0.0
H4051 H 0.76317 0.51003 0.17705 0.0
H4052 H 0.77193 0.51659 0.16492 0.0
H4053 H 0.76266 0.50342 0.16199 0.0
H4054 H 0.77701 0.47468 0.14795 0.0
H4055 H 0.77806 0.47475 0.12571 0.0
H4056 H 0.81919 0.61773 0.37915 0.0
H4057 H 0.8231 0.62376 0.40009 0.0
H4058 H 0.85979 0.61012 0.39733 0.0
H4059 H 0.85603 0.6043 0.37611 0.0
H4060 H 0.8289 0.60892 0.41875 0.0
H4061 H 0.86508 0.64363 0.41214 0.0
H4062 H 0.85601 0.63784 0.39971 0.0
H4063 H 0.86843 0.62902 0.40564 0.0
C4064 C 0.82812 0.61605 0.38295 0.0
C4065 C 0.83729 0.61048 0.37601 0.0
C4066 C 0.83034 0.61952 0.39492 0.0
C4067 C 0.84176 0.6175 0.40022 0.0
C4068 C 0.85098 0.61197 0.39333 0.0
H4069 H 0.86054 0.61773 0.47626 0.0
H4070 H 0.85922 0.61413 0.45436 0.0
C4071 C 0.84879 0.60855 0.38126 0.0
C4072 C 0.84362 0.62061 0.41317 0.0
H4073 H 0.86051 0.63808 0.43258 0.0
C4074 C 0.83579 0.61532 0.42175 0.0
C4075 C 0.85259 0.62901 0.41704 0.0
C4076 C 0.86095 0.6353 0.40815 0.0
C4077 C 0.83673 0.61815 0.43413 0.0
C4078 C 0.84574 0.62643 0.43799 0.0
C4079 C 0.8536 0.63174 0.42948 0.0
C4080 C 0.84724 0.62932 0.45096 0.0
C4081 C 0.82811 0.61231 0.44307 0.0
C4082 C 0.84095 0.63912 0.45617 0.0
C4083 C 0.84162 0.64118 0.46871 0.0
C4084 C 0.84859 0.63346 0.47613 0.0
C4085 C 0.85505 0.6238 0.47078 0.0
C4086 C 0.85437 0.62176 0.45829 0.0
H4087 H 0.82129 0.60637 0.43852 0.0
H4088 H 0.83335 0.60675 0.44967 0.0
H4089 H 0.82324 0.61945 0.44829 0.0
H4090 H 0.83535 0.64498 0.45059 0.0
H4091 H 0.83654 0.64867 0.47259 0.0
H4092 H 0.76426 0.63027 0.61954 0.0
H4093 H 0.76636 0.62182 0.6401 0.0
H4094 H 0.7332 0.60141 0.63518 0.0
H4095 H 0.73103 0.60973 0.61472 0.0
H4096 H 0.73528 0.61581 0.65757 0.0
H4097 H 0.77478 0.58542 0.64888 0.0
H4098 H 0.77621 0.60087 0.64364 0.0
H4099 H 0.7651 0.59101 0.63683 0.0
C4100 C 0.75745 0.62396 0.62285 0.0
C4101 C 0.7475 0.62064 0.61553 0.0
C4102 C 0.75868 0.61911 0.63454 0.0
C4103 C 0.74999 0.61091 0.63904 0.0
C4104 C 0.74002 0.60767 0.6318 0.0
H4105 H 0.7394 0.57988 0.7117 0.0
H4106 H 0.73697 0.58442 0.69 0.0
C4107 C 0.73881 0.61244 0.62012 0.0
C4108 C 0.75105 0.60597 0.65146 0.0
H4109 H 0.76836 0.58747 0.66933 0.0
C4110 C 0.74245 0.60955 0.66016 0.0
C4111 C 0.76041 0.59781 0.65471 0.0
C4112 C 0.76963 0.59344 0.64554 0.0
C4113 C 0.7432 0.60549 0.67222 0.0
C4114 C 0.75264 0.59738 0.67553 0.0
C4115 C 0.76111 0.59364 0.66674 0.0
C4116 C 0.75442 0.59342 0.68826 0.0
C4117 C 0.73419 0.61029 0.6814 0.0
C4118 C 0.76525 0.59644 0.69427 0.0
C4119 C 0.76672 0.59372 0.70655 0.0
C4120 C 0.75737 0.58793 0.71307 0.0
C4121 C 0.74673 0.58441 0.70692 0.0
C4122 C 0.74529 0.58708 0.69456 0.0
H4123 H 0.7294 0.61853 0.67803 0.0
H4124 H 0.72723 0.60321 0.68325 0.0
H4125 H 0.73876 0.61258 0.69011 0.0
H4126 H 0.77242 0.60128 0.68955 0.0
H4127 H 0.77506 0.59651 0.71101 0.0
loop_
_geom_bond_atom_site_label_1
_geom_bond_atom_site_label_2
_geom_bond_distance
_geom_bond_site_symmetry_2
_ccdc_geom_bond_type
Co0 O1 2.203 1_455 S
Co0 O2 2.091 . S
Co0 O4 2.004 . S
Co0 O10 2.021 . S
Co0 O12 2.137 . S
Co0 O13 2.244 . S
O1 Co0 2.203 1_655 S
O1 C8 1.242 1_655 S
O2 Co0 2.091 . S
O2 C8 1.261 . S
C3 O12 1.247 . S
C3 O13 1.272 . S
O4 Co0 2.004 . S
O4 C9 1.259 . S
Co5 O6 2.061 . S
Co5 O11 2.052 . S
Co5 O13 2.135 . S
O6 Co5 2.061 . S
O6 C9 1.235 . S
C7 O10 1.238 1_655 S
C7 O11 1.241 1_655 S
C8 O1 1.242 1_455 S
C8 O2 1.261 . S
C9 O4 1.259 . S
C9 O6 1.235 . S
O10 Co0 2.021 . S
O10 C7 1.238 1_455 S
O11 Co5 2.052 . S
O11 C7 1.241 1_455 S
O12 Co0 2.137 . S
O12 C3 1.247 . S
O13 Co0 2.244 . S
O13 C3 1.272 . S
O13 Co5 2.135 . S
Co14 O15 2.216 . S
Co14 O16 2.091 . S
Co14 O18 2.004 . S
Co14 O24 2.021 . S
Co14 O26 2.137 . S
Co14 O27 2.244 . S
O15 Co14 2.216 . S
O15 C22 1.247 . S
O16 Co14 2.091 . S
O16 C22 1.261 . S
C17 O26 1.247 . S
C17 O27 1.272 . S
O18 Co14 2.004 . S
O18 C23 1.259 . S
Co19 O20 2.061 . S
Co19 O25 2.052 . S
Co19 O27 2.135 . S
O20 Co19 2.061 . S
O20 C23 1.235 . S
C21 O24 1.238 . S
C21 O25 1.241 . S
C22 O15 1.247 . S
C22 O16 1.261 . S
C23 O18 1.259 . S
C23 O20 1.235 . S
O24 Co14 2.021 . S
O24 C21 1.238 . S
O25 Co19 2.052 . S
O25 C21 1.241 . S
O26 Co14 2.137 . S
O26 C17 1.247 . S
O27 Co14 2.244 . S
O27 C17 1.272 . S
O27 Co19 2.135 . S
Co28 O29 2.216 . S
Co28 O30 2.091 . S
Co28 O32 2.004 . S
Co28 O38 2.021 . S
Co28 O40 2.137 . S
Co28 O41 2.244 . S
O29 Co28 2.216 . S
O29 C36 1.247 . S
O30 Co28 2.091 . S
O30 C36 1.261 . S
C31 O40 1.247 . S
C31 O41 1.272 . S
O32 Co28 2.004 . S
O32 C37 1.259 . S
Co33 O34 2.061 . S
Co33 O39 2.052 . S
Co33 O41 2.135 . S
O34 Co33 2.061 . S
O34 C37 1.235 . S
C35 O38 1.238 . S
C35 O39 1.241 . S
C36 O29 1.247 . S
C36 O30 1.261 . S
C37 O32 1.259 . S
C37 O34 1.235 . S
O38 Co28 2.021 . S
O38 C35 1.238 . S
O39 Co33 2.052 . S
O39 C35 1.241 . S
O40 Co28 2.137 . S
O40 C31 1.247 . S
O41 Co28 2.244 . S
O41 C31 1.272 . S
O41 Co33 2.135 . S
Co42 O43 2.216 . S
Co42 O44 2.091 . S
Co42 O46 2.004 . S
Co42 O52 2.021 . S
Co42 O54 2.137 . S
Co42 O55 2.244 . S
O43 Co42 2.216 . S
O43 C50 1.247 . S
O44 Co42 2.091 . S
O44 C50 1.261 . S
C45 O54 1.247 . S
C45 O55 1.272 . S
O46 Co42 2.004 . S
O46 C51 1.259 . S
Co47 O48 2.061 . S
Co47 O53 2.052 . S
Co47 O55 2.135 . S
O48 Co47 2.061 . S
O48 C51 1.235 . S
C49 O52 1.238 . S
C49 O53 1.241 . S
C50 O43 1.247 . S
C50 O44 1.261 . S
C51 O46 1.259 . S
C51 O48 1.235 . S
O52 Co42 2.021 . S
O52 C49 1.238 . S
O53 Co47 2.052 . S
O53 C49 1.241 . S
O54 Co42 2.137 . S
O54 C45 1.247 . S
O55 Co42 2.244 . S
O55 C45 1.272 . S
O55 Co47 2.135 . S
Co56 O57 2.216 1_455 S
Co56 O58 2.083 1_455 S
Co56 O60 2.004 . S
Co56 O66 2.021 1_455 S
Co56 O68 2.137 . S
Co56 O69 2.244 . S
O57 Co56 2.216 1_655 S
O57 C64 1.247 . S
O58 Co56 2.083 1_655 S
O58 C64 1.318 . S
C59 O68 1.247 . S
C59 O69 1.272 . S
O60 Co56 2.004 . S
O60 C65 1.259 . S
Co61 O62 2.061 . S
Co61 O67 2.052 1_455 S
Co61 O69 2.135 . S
O62 Co61 2.061 . S
O62 C65 1.235 . S
C63 O66 1.238 . S
C63 O67 1.241 . S
C64 O57 1.247 . S
C64 O58 1.318 . S
C65 O60 1.259 . S
C65 O62 1.235 . S
O66 Co56 2.021 1_655 S
O66 C63 1.238 . S
O67 Co61 2.052 1_655 S
O67 C63 1.241 . S
O68 Co56 2.137 . S
O68 C59 1.247 . S
O69 Co56 2.244 . S
O69 C59 1.272 . S
O69 Co61 2.135 . S
Co70 O71 2.216 . S
Co70 O72 2.091 . S
Co70 O74 2.004 . S
Co70 O80 2.021 . S
Co70 O82 2.137 . S
Co70 O83 2.244 . S
O71 Co70 2.216 . S
O71 C78 1.247 . S
O72 Co70 2.091 . S
O72 C78 1.261 . S
C73 O82 1.247 . S
C73 O83 1.272 . S
O74 Co70 2.004 . S
O74 C79 1.259 . S
Co75 O76 2.061 . S
Co75 O81 2.052 . S
Co75 O83 2.135 . S
O76 Co75 2.061 . S
O76 C79 1.235 . S
C77 O80 1.238 . S
C77 O81 1.241 . S
C78 O71 1.247 . S
C78 O72 1.261 . S
C79 O74 1.259 . S
C79 O76 1.235 . S
O80 Co70 2.021 . S
O80 C77 1.238 . S
O81 Co75 2.052 . S
O81 C77 1.241 . S
O82 Co70 2.137 . S
O82 C73 1.247 . S
O83 Co70 2.244 . S
O83 C73 1.272 . S
O83 Co75 2.135 . S
Co84 O85 2.216 . S
Co84 O86 2.091 . S
Co84 O88 2.004 . S
Co84 O94 2.021 . S
Co84 O96 2.137 . S
Co84 O97 2.244 . S
O85 Co84 2.216 . S
O85 C92 1.247 . S
O86 Co84 2.091 . S
O86 C92 1.261 . S
C87 O96 1.247 . S
C87 O97 1.272 . S
O88 Co84 2.004 . S
O88 C93 1.259 . S
Co89 O90 2.061 . S
Co89 O95 2.052 . S
Co89 O97 2.135 . S
O90 Co89 2.061 . S
O90 C93 1.235 . S
C91 O94 1.238 . S
C91 O95 1.241 . S
C92 O85 1.247 . S
C92 O86 1.261 . S
C93 O88 1.259 . S
C93 O90 1.235 . S
O94 Co84 2.021 . S
O94 C91 1.238 . S
O95 Co89 2.052 . S
O95 C91 1.241 . S
O96 Co84 2.137 . S
O96 C87 1.247 . S
O97 Co84 2.244 . S
O97 C87 1.272 . S
O97 Co89 2.135 . S
Co98 O99 2.216 . S
Co98 O100 2.091 . S
Co98 O102 2.004 1_655 S
Co98 O108 2.021 . S
Co98 O110 2.137 1_655 S
Co98 O111 2.244 1_655 S
O99 Co98 2.216 . S
O99 C106 1.247 . S
O100 Co98 2.091 . S
O100 C106 1.261 . S
C101 O110 1.247 . S
C101 O111 1.272 . S
O102 Co98 2.004 1_455 S
O102 C107 1.259 . S
Co103 O104 2.061 . S
Co103 O109 2.052 . S
Co103 O111 2.135 . S
O104 Co103 2.061 . S
O104 C107 1.235 . S
C105 O108 1.238 . S
C105 O109 1.241 1_655 S
C106 O99 1.247 . S
C106 O100 1.261 . S
C107 O102 1.259 . S
C107 O104 1.235 . S
O108 Co98 2.021 . S
O108 C105 1.238 . S
O109 Co103 2.052 . S
O109 C105 1.241 1_455 S
O110 Co98 2.137 1_455 S
O110 C101 1.247 . S
O111 Co98 2.244 1_455 S
O111 C101 1.272 . S
O111 Co103 2.135 . S
Co112 O113 2.203 1_545 S
Co112 O114 2.091 . S
Co112 O116 2.004 . S
Co112 O122 2.021 . S
Co112 O124 2.137 . S
Co112 O125 2.244 . S
O113 Co112 2.203 1_565 S
O113 C120 1.242 1_565 S
O114 Co112 2.091 . S
O114 C120 1.261 . S
C115 O124 1.247 . S
C115 O125 1.272 . S
O116 Co112 2.004 . S
O116 C121 1.259 . S
Co117 O118 2.061 . S
Co117 O123 2.052 . S
Co117 O125 2.135 . S
O118 Co117 2.061 . S
O118 C121 1.235 . S
C119 O122 1.238 1_565 S
C119 O123 1.241 1_565 S
C120 O113 1.242 1_545 S
C120 O114 1.261 . S
C121 O116 1.259 . S
C121 O118 1.235 . S
O122 Co112 2.021 . S
O122 C119 1.238 1_545 S
O123 Co117 2.052 . S
O123 C119 1.241 1_545 S
O124 Co112 2.137 . S
O124 C115 1.247 . S
O125 Co112 2.244 . S
O125 C115 1.272 . S
O125 Co117 2.135 . S
Co126 O127 2.216 . S
Co126 O128 2.091 . S
Co126 O130 2.004 . S
Co126 O136 2.021 . S
Co126 O138 2.137 . S
Co126 O139 2.244 . S
O127 Co126 2.216 . S
O127 C134 1.247 . S
O128 Co126 2.091 . S
O128 C134 1.261 . S
C129 O138 1.247 . S
C129 O139 1.272 . S
O130 Co126 2.004 . S
O130 C135 1.259 . S
Co131 O132 2.061 . S
Co131 O137 2.052 . S
Co131 O139 2.135 . S
O132 Co131 2.061 . S
O132 C135 1.235 . S
C133 O136 1.238 . S
C133 O137 1.241 . S
C134 O127 1.247 . S
C134 O128 1.261 . S
C135 O130 1.259 . S
C135 O132 1.235 . S
O136 Co126 2.021 . S
O136 C133 1.238 . S
O137 Co131 2.052 . S
O137 C133 1.241 . S
O138 Co126 2.137 . S
O138 C129 1.247 . S
O139 Co126 2.244 . S
O139 C129 1.272 . S
O139 Co131 2.135 . S
Co140 O141 2.216 . S
Co140 O142 2.091 . S
Co140 O144 2.004 . S
Co140 O150 2.021 . S
Co140 O152 2.137 . S
Co140 O153 2.244 . S
O141 Co140 2.216 . S
O141 C148 1.247 . S
O142 Co140 2.091 . S
O142 C148 1.261 . S
C143 O152 1.247 . S
C143 O153 1.272 . S
O144 Co140 2.004 . S
O144 C149 1.259 . S
Co145 O146 2.061 . S
Co145 O151 2.052 . S
Co145 O153 2.135 . S
O146 Co145 2.061 . S
O146 C149 1.235 . S
C147 O150 1.238 . S
C147 O151 1.241 . S
C148 O141 1.247 . S
C148 O142 1.261 . S
C149 O144 1.259 . S
C149 O146 1.235 . S
O150 Co140 2.021 . S
O150 C147 1.238 . S
O151 Co145 2.052 . S
O151 C147 1.241 . S
O152 Co140 2.137 . S
O152 C143 1.247 . S
O153 Co140 2.244 . S
O153 C143 1.272 . S
O153 Co145 2.135 . S
Co154 O155 2.216 . S
Co154 O156 2.091 . S
Co154 O158 2.004 . S
Co154 O164 2.021 . S
Co154 O166 2.137 . S
Co154 O167 2.244 . S
O155 Co154 2.216 . S
O155 C162 1.247 . S
O156 Co154 2.091 . S
O156 C162 1.261 . S
C157 O166 1.247 . S
C157 O167 1.272 . S
O158 Co154 2.004 . S
O158 C163 1.259 . S
Co159 O160 2.061 . S
Co159 O165 2.052 . S
Co159 O167 2.135 . S
O160 Co159 2.061 . S
O160 C163 1.235 . S
C161 O164 1.238 . S
C161 O165 1.241 . S
C162 O155 1.247 . S
C162 O156 1.261 . S
C163 O158 1.259 . S
C163 O160 1.235 . S
O164 Co154 2.021 . S
O164 C161 1.238 . S
O165 Co159 2.052 . S
O165 C161 1.241 . S
O166 Co154 2.137 . S
O166 C157 1.247 . S
O167 Co154 2.244 . S
O167 C157 1.272 . S
O167 Co159 2.135 . S
Co168 O169 2.216 . S
Co168 O170 2.091 . S
Co168 O172 2.004 . S
Co168 O178 2.021 . S
Co168 O180 2.137 . S
Co168 O181 2.244 . S
O169 Co168 2.216 . S
O169 C176 1.247 . S
O170 Co168 2.091 . S
O170 C176 1.261 . S
C171 O180 1.247 . S
C171 O181 1.272 . S
O172 Co168 2.004 . S
O172 C177 1.259 . S
Co173 O174 2.061 . S
Co173 O179 2.052 . S
Co173 O181 2.135 . S
O174 Co173 2.061 . S
O174 C177 1.235 . S
C175 O178 1.238 . S
C175 O179 1.241 . S
C176 O169 1.247 . S
C176 O170 1.261 . S
C177 O172 1.259 . S
C177 O174 1.235 . S
O178 Co168 2.021 . S
O178 C175 1.238 . S
O179 Co173 2.052 . S
O179 C175 1.241 . S
O180 Co168 2.137 . S
O180 C171 1.247 . S
O181 Co168 2.244 . S
O181 C171 1.272 . S
O181 Co173 2.135 . S
Co182 O183 2.216 . S
Co182 O184 2.091 . S
Co182 O186 2.004 . S
Co182 O192 2.021 . S
Co182 O194 2.137 . S
Co182 O195 2.244 . S
O183 Co182 2.216 . S
O183 C190 1.247 . S
O184 Co182 2.091 . S
O184 C190 1.261 . S
C185 O194 1.247 . S
C185 O195 1.272 . S
O186 Co182 2.004 . S
O186 C191 1.259 . S
Co187 O188 2.061 . S
Co187 O193 2.052 . S
Co187 O195 2.135 . S
O188 Co187 2.061 . S
O188 C191 1.235 . S
C189 O192 1.238 . S
C189 O193 1.241 . S
C190 O183 1.247 . S
C190 O184 1.261 . S
C191 O186 1.259 . S
C191 O188 1.235 . S
O192 Co182 2.021 . S
O192 C189 1.238 . S
O193 Co187 2.052 . S
O193 C189 1.241 . S
O194 Co182 2.137 . S
O194 C185 1.247 . S
O195 Co182 2.244 . S
O195 C185 1.272 . S
O195 Co187 2.135 . S
Co196 O197 2.216 1_545 S
Co196 O198 2.083 1_545 S
Co196 O200 2.004 . S
Co196 O206 2.021 1_545 S
Co196 O208 2.137 . S
Co196 O209 2.244 . S
O197 Co196 2.216 1_565 S
O197 C204 1.247 . S
O198 Co196 2.083 1_565 S
O198 C204 1.318 . S
C199 O208 1.247 . S
C199 O209 1.272 . S
O200 Co196 2.004 . S
O200 C205 1.259 . S
Co201 O202 2.061 . S
Co201 O207 2.052 1_545 S
Co201 O209 2.135 . S
O202 Co201 2.061 . S
O202 C205 1.235 . S
C203 O206 1.238 . S
C203 O207 1.241 . S
C204 O197 1.247 . S
C204 O198 1.318 . S
C205 O200 1.259 . S
C205 O202 1.235 . S
O206 Co196 2.021 1_565 S
O206 C203 1.238 . S
O207 Co201 2.052 1_565 S
O207 C203 1.241 . S
O208 Co196 2.137 . S
O208 C199 1.247 . S
O209 Co196 2.244 . S
O209 C199 1.272 . S
O209 Co201 2.135 . S
Co210 O211 2.216 . S
Co210 O212 2.091 . S
Co210 O214 2.004 1_556 S
Co210 O220 2.021 . S
Co210 O222 2.137 1_556 S
Co210 O223 2.244 1_556 S
O211 Co210 2.216 . S
O211 C218 1.247 . S
O212 Co210 2.091 . S
O212 C218 1.261 . S
C213 O222 1.247 . S
C213 O223 1.272 . S
O214 Co210 2.004 1_554 S
O214 C219 1.259 . S
Co215 O216 2.061 . S
Co215 O221 2.052 . S
Co215 O223 2.135 . S
O216 Co215 2.061 . S
O216 C219 1.235 . S
C217 O220 1.238 . S
C217 O221 1.241 1_556 S
C218 O211 1.247 . S
C218 O212 1.261 . S
C219 O214 1.259 . S
C219 O216 1.235 . S
O220 Co210 2.021 . S
O220 C217 1.238 . S
O221 Co215 2.052 . S
O221 C217 1.241 1_554 S
O222 Co210 2.137 1_554 S
O222 C213 1.247 . S
O223 Co210 2.244 1_554 S
O223 C213 1.272 . S
O223 Co215 2.135 . S
Co224 O225 2.203 1_554 S
Co224 O226 2.091 . S
Co224 O228 2.004 . S
Co224 O234 2.021 . S
Co224 O236 2.137 . S
Co224 O237 2.244 . S
O225 Co224 2.203 1_556 S
O225 C232 1.242 1_556 S
O226 Co224 2.091 . S
O226 C232 1.261 . S
C227 O236 1.247 . S
C227 O237 1.272 . S
O228 Co224 2.004 . S
O228 C233 1.259 . S
Co229 O230 2.061 . S
Co229 O235 2.052 . S
Co229 O237 2.135 . S
O230 Co229 2.061 . S
O230 C233 1.235 . S
C231 O234 1.238 1_556 S
C231 O235 1.241 1_556 S
C232 O225 1.242 1_554 S
C232 O226 1.261 . S
C233 O228 1.259 . S
C233 O230 1.235 . S
O234 Co224 2.021 . S
O234 C231 1.238 1_554 S
O235 Co229 2.052 . S
O235 C231 1.241 1_554 S
O236 Co224 2.137 . S
O236 C227 1.247 . S
O237 Co224 2.244 . S
O237 C227 1.272 . S
O237 Co229 2.135 . S
Co238 O239 2.216 . S
Co238 O240 2.091 . S
Co238 O242 2.004 . S
Co238 O248 2.021 . S
Co238 O250 2.137 . S
Co238 O251 2.244 . S
O239 Co238 2.216 . S
O239 C246 1.247 . S
O240 Co238 2.091 . S
O240 C246 1.261 . S
C241 O250 1.247 . S
C241 O251 1.272 . S
O242 Co238 2.004 . S
O242 C247 1.259 . S
Co243 O244 2.061 . S
Co243 O249 2.052 . S
Co243 O251 2.135 . S
O244 Co243 2.061 . S
O244 C247 1.235 . S
C245 O248 1.238 . S
C245 O249 1.241 . S
C246 O239 1.247 . S
C246 O240 1.261 . S
C247 O242 1.259 . S
C247 O244 1.235 . S
O248 Co238 2.021 . S
O248 C245 1.238 . S
O249 Co243 2.052 . S
O249 C245 1.241 . S
O250 Co238 2.137 . S
O250 C241 1.247 . S
O251 Co238 2.244 . S
O251 C241 1.272 . S
O251 Co243 2.135 . S
Co252 O253 2.216 . S
Co252 O254 2.091 . S
Co252 O256 2.004 . S
Co252 O262 2.021 . S
Co252 O264 2.137 . S
Co252 O265 2.244 . S
O253 Co252 2.216 . S
O253 C260 1.247 . S
O254 Co252 2.091 . S
O254 C260 1.261 . S
C255 O264 1.247 . S
C255 O265 1.272 . S
O256 Co252 2.004 . S
O256 C261 1.259 . S
Co257 O258 2.061 . S
Co257 O263 2.052 . S
Co257 O265 2.135 . S
O258 Co257 2.061 . S
O258 C261 1.235 . S
C259 O262 1.238 . S
C259 O263 1.241 . S
C260 O253 1.247 . S
C260 O254 1.261 . S
C261 O256 1.259 . S
C261 O258 1.235 . S
O262 Co252 2.021 . S
O262 C259 1.238 . S
O263 Co257 2.052 . S
O263 C259 1.241 . S
O264 Co252 2.137 . S
O264 C255 1.247 . S
O265 Co252 2.244 . S
O265 C255 1.272 . S
O265 Co257 2.135 . S
Co266 O267 2.216 . S
Co266 O268 2.091 . S
Co266 O270 2.004 . S
Co266 O276 2.021 . S
Co266 O278 2.137 . S
Co266 O279 2.244 . S
O267 Co266 2.216 . S
O267 C274 1.247 . S
O268 Co266 2.091 . S
O268 C274 1.261 . S
C269 O278 1.247 . S
C269 O279 1.272 . S
O270 Co266 2.004 . S
O270 C275 1.259 . S
Co271 O272 2.061 . S
Co271 O277 2.052 . S
Co271 O279 2.135 . S
O272 Co271 2.061 . S
O272 C275 1.235 . S
C273 O276 1.238 . S
C273 O277 1.241 . S
C274 O267 1.247 . S
C274 O268 1.261 . S
C275 O270 1.259 . S
C275 O272 1.235 . S
O276 Co266 2.021 . S
O276 C273 1.238 . S
O277 Co271 2.052 . S
O277 C273 1.241 . S
O278 Co266 2.137 . S
O278 C269 1.247 . S
O279 Co266 2.244 . S
O279 C269 1.272 . S
O279 Co271 2.135 . S
Co280 O281 2.216 . S
Co280 O282 2.091 . S
Co280 O284 2.004 1_565 S
Co280 O290 2.021 . S
Co280 O292 2.137 1_565 S
Co280 O293 2.244 1_565 S
O281 Co280 2.216 . S
O281 C288 1.247 . S
O282 Co280 2.091 . S
O282 C288 1.261 . S
C283 O292 1.247 . S
C283 O293 1.272 . S
O284 Co280 2.004 1_545 S
O284 C289 1.259 . S
Co285 O286 2.061 . S
Co285 O291 2.052 . S
Co285 O293 2.135 . S
O286 Co285 2.061 . S
O286 C289 1.235 . S
C287 O290 1.238 . S
C287 O291 1.241 1_565 S
C288 O281 1.247 . S
C288 O282 1.261 . S
C289 O284 1.259 . S
C289 O286 1.235 . S
O290 Co280 2.021 . S
O290 C287 1.238 . S
O291 Co285 2.052 . S
O291 C287 1.241 1_545 S
O292 Co280 2.137 1_545 S
O292 C283 1.247 . S
O293 Co280 2.244 1_545 S
O293 C283 1.272 . S
O293 Co285 2.135 . S
Co294 O295 2.216 . S
Co294 O296 2.091 . S
Co294 O298 2.004 . S
Co294 O304 2.021 . S
Co294 O306 2.137 . S
Co294 O307 2.244 . S
O295 Co294 2.216 . S
O295 C302 1.247 . S
O296 Co294 2.091 . S
O296 C302 1.261 . S
C297 O306 1.247 . S
C297 O307 1.272 . S
O298 Co294 2.004 . S
O298 C303 1.259 . S
Co299 O300 2.061 . S
Co299 O305 2.052 . S
Co299 O307 2.135 . S
O300 Co299 2.061 . S
O300 C303 1.235 . S
C301 O304 1.238 . S
C301 O305 1.241 . S
C302 O295 1.247 . S
C302 O296 1.261 . S
C303 O298 1.259 . S
C303 O300 1.235 . S
O304 Co294 2.021 . S
O304 C301 1.238 . S
O305 Co299 2.052 . S
O305 C301 1.241 . S
O306 Co294 2.137 . S
O306 C297 1.247 . S
O307 Co294 2.244 . S
O307 C297 1.272 . S
O307 Co299 2.135 . S
Co308 O309 2.216 . S
Co308 O310 2.091 . S
Co308 O312 2.004 . S
Co308 O318 2.021 . S
Co308 O320 2.137 . S
Co308 O321 2.244 . S
O309 Co308 2.216 . S
O309 C316 1.247 . S
O310 Co308 2.091 . S
O310 C316 1.261 . S
C311 O320 1.247 . S
C311 O321 1.272 . S
O312 Co308 2.004 . S
O312 C317 1.259 . S
Co313 O314 2.061 . S
Co313 O319 2.052 . S
Co313 O321 2.135 . S
O314 Co313 2.061 . S
O314 C317 1.235 . S
C315 O318 1.238 . S
C315 O319 1.241 . S
C316 O309 1.247 . S
C316 O310 1.261 . S
C317 O312 1.259 . S
C317 O314 1.235 . S
O318 Co308 2.021 . S
O318 C315 1.238 . S
O319 Co313 2.052 . S
O319 C315 1.241 . S
O320 Co308 2.137 . S
O320 C311 1.247 . S
O321 Co308 2.244 . S
O321 C311 1.272 . S
O321 Co313 2.135 . S
Co322 O323 2.216 . S
Co322 O324 2.091 . S
Co322 O326 2.004 . S
Co322 O332 2.021 . S
Co322 O334 2.137 . S
Co322 O335 2.244 . S
O323 Co322 2.216 . S
O323 C330 1.247 . S
O324 Co322 2.091 . S
O324 C330 1.261 . S
C325 O334 1.247 . S
C325 O335 1.272 . S
O326 Co322 2.004 . S
O326 C331 1.259 . S
Co327 O328 2.061 . S
Co327 O333 2.052 . S
Co327 O335 2.135 . S
O328 Co327 2.061 . S
O328 C331 1.235 . S
C329 O332 1.238 . S
C329 O333 1.241 . S
C330 O323 1.247 . S
C330 O324 1.261 . S
C331 O326 1.259 . S
C331 O328 1.235 . S
O332 Co322 2.021 . S
O332 C329 1.238 . S
O333 Co327 2.052 . S
O333 C329 1.241 . S
O334 Co322 2.137 . S
O334 C325 1.247 . S
O335 Co322 2.244 . S
O335 C325 1.272 . S
O335 Co327 2.135 . S
Co336 O337 2.216 . S
Co336 O338 2.091 . S
Co336 O340 2.004 . S
Co336 O346 2.021 . S
Co336 O348 2.137 . S
Co336 O349 2.244 . S
O337 Co336 2.216 . S
O337 C344 1.247 . S
O338 Co336 2.091 . S
O338 C344 1.261 . S
C339 O348 1.247 . S
C339 O349 1.272 . S
O340 Co336 2.004 . S
O340 C345 1.259 . S
Co341 O342 2.061 . S
Co341 O347 2.052 . S
Co341 O349 2.135 . S
O342 Co341 2.061 . S
O342 C345 1.235 . S
C343 O346 1.238 . S
C343 O347 1.241 . S
C344 O337 1.247 . S
C344 O338 1.261 . S
C345 O340 1.259 . S
C345 O342 1.235 . S
O346 Co336 2.021 . S
O346 C343 1.238 . S
O347 Co341 2.052 . S
O347 C343 1.241 . S
O348 Co336 2.137 . S
O348 C339 1.247 . S
O349 Co336 2.244 . S
O349 C339 1.272 . S
O349 Co341 2.135 . S
Co350 O351 2.216 . S
Co350 O352 2.091 . S
Co350 O354 2.004 . S
Co350 O360 2.021 . S
Co350 O362 2.137 . S
Co350 O363 2.244 . S
O351 Co350 2.216 . S
O351 C358 1.247 . S
O352 Co350 2.091 . S
O352 C358 1.261 . S
C353 O362 1.247 . S
C353 O363 1.272 . S
O354 Co350 2.004 . S
O354 C359 1.259 . S
Co355 O356 2.061 . S
Co355 O361 2.052 . S
Co355 O363 2.135 . S
O356 Co355 2.061 . S
O356 C359 1.235 . S
C357 O360 1.238 . S
C357 O361 1.241 . S
C358 O351 1.247 . S
C358 O352 1.261 . S
C359 O354 1.259 . S
C359 O356 1.235 . S
O360 Co350 2.021 . S
O360 C357 1.238 . S
O361 Co355 2.052 . S
O361 C357 1.241 . S
O362 Co350 2.137 . S
O362 C353 1.247 . S
O363 Co350 2.244 . S
O363 C353 1.272 . S
O363 Co355 2.135 . S
Co364 O365 2.216 . S
Co364 O366 2.091 . S
Co364 O368 2.004 . S
Co364 O374 2.021 . S
Co364 O376 2.137 . S
Co364 O377 2.244 . S
O365 Co364 2.216 . S
O365 C372 1.247 . S
O366 Co364 2.091 . S
O366 C372 1.261 . S
C367 O376 1.247 . S
C367 O377 1.272 . S
O368 Co364 2.004 . S
O368 C373 1.259 . S
Co369 O370 2.061 . S
Co369 O375 2.052 . S
Co369 O377 2.135 . S
O370 Co369 2.061 . S
O370 C373 1.235 . S
C371 O374 1.238 . S
C371 O375 1.241 . S
C372 O365 1.247 . S
C372 O366 1.261 . S
C373 O368 1.259 . S
C373 O370 1.235 . S
O374 Co364 2.021 . S
O374 C371 1.238 . S
O375 Co369 2.052 . S
O375 C371 1.241 . S
O376 Co364 2.137 . S
O376 C367 1.247 . S
O377 Co364 2.244 . S
O377 C367 1.272 . S
O377 Co369 2.135 . S
Co378 O379 2.216 . S
Co378 O380 2.091 . S
Co378 O382 2.004 . S
Co378 O388 2.021 . S
Co378 O390 2.137 . S
Co378 O391 2.244 . S
O379 Co378 2.216 . S
O379 C386 1.247 . S
O380 Co378 2.091 . S
O380 C386 1.261 . S
C381 O390 1.247 . S
C381 O391 1.272 . S
O382 Co378 2.004 . S
O382 C387 1.259 . S
Co383 O384 2.061 . S
Co383 O389 2.052 . S
Co383 O391 2.135 . S
O384 Co383 2.061 . S
O384 C387 1.235 . S
C385 O388 1.238 . S
C385 O389 1.241 . S
C386 O379 1.247 . S
C386 O380 1.261 . S
C387 O382 1.259 . S
C387 O384 1.235 . S
O388 Co378 2.021 . S
O388 C385 1.238 . S
O389 Co383 2.052 . S
O389 C385 1.241 . S
O390 Co378 2.137 . S
O390 C381 1.247 . S
O391 Co378 2.244 . S
O391 C381 1.272 . S
O391 Co383 2.135 . S
Co392 O393 2.216 . S
Co392 O394 2.091 . S
Co392 O396 2.004 . S
Co392 O402 2.021 . S
Co392 O404 2.137 . S
Co392 O405 2.244 . S
O393 Co392 2.216 . S
O393 C400 1.247 . S
O394 Co392 2.091 . S
O394 C400 1.261 . S
C395 O404 1.247 . S
C395 O405 1.272 . S
O396 Co392 2.004 . S
O396 C401 1.259 . S
Co397 O398 2.061 . S
Co397 O403 2.052 . S
Co397 O405 2.135 . S
O398 Co397 2.061 . S
O398 C401 1.235 . S
C399 O402 1.238 . S
C399 O403 1.241 . S
C400 O393 1.247 . S
C400 O394 1.261 . S
C401 O396 1.259 . S
C401 O398 1.235 . S
O402 Co392 2.021 . S
O402 C399 1.238 . S
O403 Co397 2.052 . S
O403 C399 1.241 . S
O404 Co392 2.137 . S
O404 C395 1.247 . S
O405 Co392 2.244 . S
O405 C395 1.272 . S
O405 Co397 2.135 . S
Co406 O407 2.216 . S
Co406 O408 2.091 . S
Co406 O410 2.004 . S
Co406 O416 2.021 . S
Co406 O418 2.137 . S
Co406 O419 2.244 . S
O407 Co406 2.216 . S
O407 C414 1.247 . S
O408 Co406 2.091 . S
O408 C414 1.261 . S
C409 O418 1.247 . S
C409 O419 1.272 . S
O410 Co406 2.004 . S
O410 C415 1.259 . S
Co411 O412 2.061 . S
Co411 O417 2.052 . S
Co411 O419 2.135 . S
O412 Co411 2.061 . S
O412 C415 1.235 . S
C413 O416 1.238 . S
C413 O417 1.241 . S
C414 O407 1.247 . S
C414 O408 1.261 . S
C415 O410 1.259 . S
C415 O412 1.235 . S
O416 Co406 2.021 . S
O416 C413 1.238 . S
O417 Co411 2.052 . S
O417 C413 1.241 . S
O418 Co406 2.137 . S
O418 C409 1.247 . S
O419 Co406 2.244 . S
O419 C409 1.272 . S
O419 Co411 2.135 . S
Co420 O421 2.216 . S
Co420 O422 2.091 . S
Co420 O424 2.004 . S
Co420 O430 2.021 . S
Co420 O432 2.137 . S
Co420 O433 2.244 . S
O421 Co420 2.216 . S
O421 C428 1.247 . S
O422 Co420 2.091 . S
O422 C428 1.261 . S
C423 O432 1.247 . S
C423 O433 1.272 . S
O424 Co420 2.004 . S
O424 C429 1.259 . S
Co425 O426 2.061 . S
Co425 O431 2.052 . S
Co425 O433 2.135 . S
O426 Co425 2.061 . S
O426 C429 1.235 . S
C427 O430 1.238 . S
C427 O431 1.241 . S
C428 O421 1.247 . S
C428 O422 1.261 . S
C429 O424 1.259 . S
C429 O426 1.235 . S
O430 Co420 2.021 . S
O430 C427 1.238 . S
O431 Co425 2.052 . S
O431 C427 1.241 . S
O432 Co420 2.137 . S
O432 C423 1.247 . S
O433 Co420 2.244 . S
O433 C423 1.272 . S
O433 Co425 2.135 . S
Co434 O435 2.216 . S
Co434 O436 2.091 . S
Co434 O438 2.004 . S
Co434 O444 2.021 . S
Co434 O446 2.137 . S
Co434 O447 2.244 . S
O435 Co434 2.216 . S
O435 C442 1.247 . S
O436 Co434 2.091 . S
O436 C442 1.261 . S
C437 O446 1.247 . S
C437 O447 1.272 . S
O438 Co434 2.004 . S
O438 C443 1.259 . S
Co439 O440 2.061 . S
Co439 O445 2.052 . S
Co439 O447 2.135 . S
O440 Co439 2.061 . S
O440 C443 1.235 . S
C441 O444 1.238 . S
C441 O445 1.241 . S
C442 O435 1.247 . S
C442 O436 1.261 . S
C443 O438 1.259 . S
C443 O440 1.235 . S
O444 Co434 2.021 . S
O444 C441 1.238 . S
O445 Co439 2.052 . S
O445 C441 1.241 . S
O446 Co434 2.137 . S
O446 C437 1.247 . S
O447 Co434 2.244 . S
O447 C437 1.272 . S
O447 Co439 2.135 . S
Co448 O449 2.216 . S
Co448 O450 2.091 . S
Co448 O452 2.004 . S
Co448 O458 2.021 . S
Co448 O460 2.137 . S
Co448 O461 2.244 . S
O449 Co448 2.216 . S
O449 C456 1.247 . S
O450 Co448 2.091 . S
O450 C456 1.261 . S
C451 O460 1.247 . S
C451 O461 1.272 . S
O452 Co448 2.004 . S
O452 C457 1.259 . S
Co453 O454 2.061 . S
Co453 O459 2.052 . S
Co453 O461 2.135 . S
O454 Co453 2.061 . S
O454 C457 1.235 . S
C455 O458 1.238 . S
C455 O459 1.241 . S
C456 O449 1.247 . S
C456 O450 1.261 . S
C457 O452 1.259 . S
C457 O454 1.235 . S
O458 Co448 2.021 . S
O458 C455 1.238 . S
O459 Co453 2.052 . S
O459 C455 1.241 . S
O460 Co448 2.137 . S
O460 C451 1.247 . S
O461 Co448 2.244 . S
O461 C451 1.272 . S
O461 Co453 2.135 . S
Co462 O463 2.216 . S
Co462 O464 2.091 . S
Co462 O466 2.004 . S
Co462 O472 2.021 . S
Co462 O474 2.137 . S
Co462 O475 2.244 . S
O463 Co462 2.216 . S
O463 C470 1.247 . S
O464 Co462 2.091 . S
O464 C470 1.261 . S
C465 O474 1.247 . S
C465 O475 1.272 . S
O466 Co462 2.004 . S
O466 C471 1.259 . S
Co467 O468 2.061 . S
Co467 O473 2.052 . S
Co467 O475 2.135 . S
O468 Co467 2.061 . S
O468 C471 1.235 . S
C469 O472 1.238 . S
C469 O473 1.241 . S
C470 O463 1.247 . S
C470 O464 1.261 . S
C471 O466 1.259 . S
C471 O468 1.235 . S
O472 Co462 2.021 . S
O472 C469 1.238 . S
O473 Co467 2.052 . S
O473 C469 1.241 . S
O474 Co462 2.137 . S
O474 C465 1.247 . S
O475 Co462 2.244 . S
O475 C465 1.272 . S
O475 Co467 2.135 . S
Co476 O477 2.216 . S
Co476 O478 2.091 . S
Co476 O480 2.004 . S
Co476 O486 2.021 . S
Co476 O488 2.137 . S
Co476 O489 2.244 . S
O477 Co476 2.216 . S
O477 C484 1.247 . S
O478 Co476 2.091 . S
O478 C484 1.261 . S
C479 O488 1.247 . S
C479 O489 1.272 . S
O480 Co476 2.004 . S
O480 C485 1.259 . S
Co481 O482 2.061 . S
Co481 O487 2.052 . S
Co481 O489 2.135 . S
O482 Co481 2.061 . S
O482 C485 1.235 . S
C483 O486 1.238 . S
C483 O487 1.241 . S
C484 O477 1.247 . S
C484 O478 1.261 . S
C485 O480 1.259 . S
C485 O482 1.235 . S
O486 Co476 2.021 . S
O486 C483 1.238 . S
O487 Co481 2.052 . S
O487 C483 1.241 . S
O488 Co476 2.137 . S
O488 C479 1.247 . S
O489 Co476 2.244 . S
O489 C479 1.272 . S
O489 Co481 2.135 . S
Co490 O491 2.216 . S
Co490 O492 2.091 . S
Co490 O494 2.004 . S
Co490 O500 2.021 . S
Co490 O502 2.137 . S
Co490 O503 2.244 . S
O491 Co490 2.216 . S
O491 C498 1.247 . S
O492 Co490 2.091 . S
O492 C498 1.261 . S
C493 O502 1.247 . S
C493 O503 1.272 . S
O494 Co490 2.004 . S
O494 C499 1.259 . S
Co495 O496 2.061 . S
Co495 O501 2.052 . S
Co495 O503 2.135 . S
O496 Co495 2.061 . S
O496 C499 1.235 . S
C497 O500 1.238 . S
C497 O501 1.241 . S
C498 O491 1.247 . S
C498 O492 1.261 . S
C499 O494 1.259 . S
C499 O496 1.235 . S
O500 Co490 2.021 . S
O500 C497 1.238 . S
O501 Co495 2.052 . S
O501 C497 1.241 . S
O502 Co490 2.137 . S
O502 C493 1.247 . S
O503 Co490 2.244 . S
O503 C493 1.272 . S
O503 Co495 2.135 . S
Co504 O505 2.216 . S
Co504 O506 2.091 . S
Co504 O508 2.004 . S
Co504 O514 2.021 . S
Co504 O516 2.137 . S
Co504 O517 2.244 . S
O505 Co504 2.216 . S
O505 C512 1.247 . S
O506 Co504 2.091 . S
O506 C512 1.261 . S
C507 O516 1.247 . S
C507 O517 1.272 . S
O508 Co504 2.004 . S
O508 C513 1.259 . S
Co509 O510 2.061 . S
Co509 O515 2.052 . S
Co509 O517 2.135 . S
O510 Co509 2.061 . S
O510 C513 1.235 . S
C511 O514 1.238 . S
C511 O515 1.241 . S
C512 O505 1.247 . S
C512 O506 1.261 . S
C513 O508 1.259 . S
C513 O510 1.235 . S
O514 Co504 2.021 . S
O514 C511 1.238 . S
O515 Co509 2.052 . S
O515 C511 1.241 . S
O516 Co504 2.137 . S
O516 C507 1.247 . S
O517 Co504 2.244 . S
O517 C507 1.272 . S
O517 Co509 2.135 . S
Co518 O519 2.216 . S
Co518 O520 2.091 . S
Co518 O522 2.004 . S
Co518 O528 2.021 . S
Co518 O530 2.137 . S
Co518 O531 2.244 . S
O519 Co518 2.216 . S
O519 C526 1.247 . S
O520 Co518 2.091 . S
O520 C526 1.261 . S
C521 O530 1.247 . S
C521 O531 1.272 . S
O522 Co518 2.004 . S
O522 C527 1.259 . S
Co523 O524 2.061 . S
Co523 O529 2.052 . S
Co523 O531 2.135 . S
O524 Co523 2.061 . S
O524 C527 1.235 . S
C525 O528 1.238 . S
C525 O529 1.241 . S
C526 O519 1.247 . S
C526 O520 1.261 . S
C527 O522 1.259 . S
C527 O524 1.235 . S
O528 Co518 2.021 . S
O528 C525 1.238 . S
O529 Co523 2.052 . S
O529 C525 1.241 . S
O530 Co518 2.137 . S
O530 C521 1.247 . S
O531 Co518 2.244 . S
O531 C521 1.272 . S
O531 Co523 2.135 . S
Co532 O533 2.216 . S
Co532 O534 2.091 . S
Co532 O536 2.004 . S
Co532 O542 2.021 . S
Co532 O544 2.137 . S
Co532 O545 2.244 . S
O533 Co532 2.216 . S
O533 C540 1.247 . S
O534 Co532 2.091 . S
O534 C540 1.261 . S
C535 O544 1.247 . S
C535 O545 1.272 . S
O536 Co532 2.004 . S
O536 C541 1.259 . S
Co537 O538 2.061 . S
Co537 O543 2.052 . S
Co537 O545 2.135 . S
O538 Co537 2.061 . S
O538 C541 1.235 . S
C539 O542 1.238 . S
C539 O543 1.241 . S
C540 O533 1.247 . S
C540 O534 1.261 . S
C541 O536 1.259 . S
C541 O538 1.235 . S
O542 Co532 2.021 . S
O542 C539 1.238 . S
O543 Co537 2.052 . S
O543 C539 1.241 . S
O544 Co532 2.137 . S
O544 C535 1.247 . S
O545 Co532 2.244 . S
O545 C535 1.272 . S
O545 Co537 2.135 . S
Co546 O547 2.216 . S
Co546 O548 2.091 . S
Co546 O550 2.004 . S
Co546 O556 2.021 . S
Co546 O558 2.137 . S
Co546 O559 2.244 . S
O547 Co546 2.216 . S
O547 C554 1.247 . S
O548 Co546 2.091 . S
O548 C554 1.261 . S
C549 O558 1.247 . S
C549 O559 1.272 . S
O550 Co546 2.004 . S
O550 C555 1.259 . S
Co551 O552 2.061 . S
Co551 O557 2.052 . S
Co551 O559 2.135 . S
O552 Co551 2.061 . S
O552 C555 1.235 . S
C553 O556 1.238 . S
C553 O557 1.241 . S
C554 O547 1.247 . S
C554 O548 1.261 . S
C555 O550 1.259 . S
C555 O552 1.235 . S
O556 Co546 2.021 . S
O556 C553 1.238 . S
O557 Co551 2.052 . S
O557 C553 1.241 . S
O558 Co546 2.137 . S
O558 C549 1.247 . S
O559 Co546 2.244 . S
O559 C549 1.272 . S
O559 Co551 2.135 . S
Co560 O561 2.216 . S
Co560 O562 2.091 . S
Co560 O564 2.004 . S
Co560 O570 2.021 . S
Co560 O572 2.137 . S
Co560 O573 2.244 . S
O561 Co560 2.216 . S
O561 C568 1.247 . S
O562 Co560 2.091 . S
O562 C568 1.261 . S
C563 O572 1.247 . S
C563 O573 1.272 . S
O564 Co560 2.004 . S
O564 C569 1.259 . S
Co565 O566 2.061 . S
Co565 O571 2.052 . S
Co565 O573 2.135 . S
O566 Co565 2.061 . S
O566 C569 1.235 . S
C567 O570 1.238 . S
C567 O571 1.241 . S
C568 O561 1.247 . S
C568 O562 1.261 . S
C569 O564 1.259 . S
C569 O566 1.235 . S
O570 Co560 2.021 . S
O570 C567 1.238 . S
O571 Co565 2.052 . S
O571 C567 1.241 . S
O572 Co560 2.137 . S
O572 C563 1.247 . S
O573 Co560 2.244 . S
O573 C563 1.272 . S
O573 Co565 2.135 . S
Co574 O575 2.216 . S
Co574 O576 2.091 . S
Co574 O578 2.004 . S
Co574 O584 2.021 . S
Co574 O586 2.137 . S
Co574 O587 2.244 . S
O575 Co574 2.216 . S
O575 C582 1.247 . S
O576 Co574 2.091 . S
O576 C582 1.261 . S
C577 O586 1.247 . S
C577 O587 1.272 . S
O578 Co574 2.004 . S
O578 C583 1.259 . S
Co579 O580 2.061 . S
Co579 O585 2.052 . S
Co579 O587 2.135 . S
O580 Co579 2.061 . S
O580 C583 1.235 . S
C581 O584 1.238 . S
C581 O585 1.241 . S
C582 O575 1.247 . S
C582 O576 1.261 . S
C583 O578 1.259 . S
C583 O580 1.235 . S
O584 Co574 2.021 . S
O584 C581 1.238 . S
O585 Co579 2.052 . S
O585 C581 1.241 . S
O586 Co574 2.137 . S
O586 C577 1.247 . S
O587 Co574 2.244 . S
O587 C577 1.272 . S
O587 Co579 2.135 . S
Co588 O589 2.216 . S
Co588 O590 2.091 . S
Co588 O592 2.004 . S
Co588 O598 2.021 . S
Co588 O600 2.137 . S
Co588 O601 2.244 . S
O589 Co588 2.216 . S
O589 C596 1.247 . S
O590 Co588 2.091 . S
O590 C596 1.261 . S
C591 O600 1.247 . S
C591 O601 1.272 . S
O592 Co588 2.004 . S
O592 C597 1.259 . S
Co593 O594 2.061 . S
Co593 O599 2.052 . S
Co593 O601 2.135 . S
O594 Co593 2.061 . S
O594 C597 1.235 . S
C595 O598 1.238 . S
C595 O599 1.241 . S
C596 O589 1.247 . S
C596 O590 1.261 . S
C597 O592 1.259 . S
C597 O594 1.235 . S
O598 Co588 2.021 . S
O598 C595 1.238 . S
O599 Co593 2.052 . S
O599 C595 1.241 . S
O600 Co588 2.137 . S
O600 C591 1.247 . S
O601 Co588 2.244 . S
O601 C591 1.272 . S
O601 Co593 2.135 . S
Co602 O603 2.216 . S
Co602 O604 2.091 . S
Co602 O606 2.004 . S
Co602 O612 2.021 . S
Co602 O614 2.137 . S
Co602 O615 2.244 . S
O603 Co602 2.216 . S
O603 C610 1.247 . S
O604 Co602 2.091 . S
O604 C610 1.261 . S
C605 O614 1.247 . S
C605 O615 1.272 . S
O606 Co602 2.004 . S
O606 C611 1.259 . S
Co607 O608 2.061 . S
Co607 O613 2.052 . S
Co607 O615 2.135 . S
O608 Co607 2.061 . S
O608 C611 1.235 . S
C609 O612 1.238 . S
C609 O613 1.241 . S
C610 O603 1.247 . S
C610 O604 1.261 . S
C611 O606 1.259 . S
C611 O608 1.235 . S
O612 Co602 2.021 . S
O612 C609 1.238 . S
O613 Co607 2.052 . S
O613 C609 1.241 . S
O614 Co602 2.137 . S
O614 C605 1.247 . S
O615 Co602 2.244 . S
O615 C605 1.272 . S
O615 Co607 2.135 . S
Co616 O617 2.216 . S
Co616 O618 2.091 . S
Co616 O620 2.004 . S
Co616 O626 2.021 . S
Co616 O628 2.137 . S
Co616 O629 2.244 . S
O617 Co616 2.216 . S
O617 C624 1.247 . S
O618 Co616 2.091 . S
O618 C624 1.261 . S
C619 O628 1.247 . S
C619 O629 1.272 . S
O620 Co616 2.004 . S
O620 C625 1.259 . S
Co621 O622 2.061 . S
Co621 O627 2.052 . S
Co621 O629 2.135 . S
O622 Co621 2.061 . S
O622 C625 1.235 . S
C623 O626 1.238 . S
C623 O627 1.241 . S
C624 O617 1.247 . S
C624 O618 1.261 . S
C625 O620 1.259 . S
C625 O622 1.235 . S
O626 Co616 2.021 . S
O626 C623 1.238 . S
O627 Co621 2.052 . S
O627 C623 1.241 . S
O628 Co616 2.137 . S
O628 C619 1.247 . S
O629 Co616 2.244 . S
O629 C619 1.272 . S
O629 Co621 2.135 . S
Co630 O631 2.216 1_554 S
Co630 O632 2.083 1_554 S
Co630 O634 2.004 . S
Co630 O640 2.021 1_554 S
Co630 O642 2.137 . S
Co630 O643 2.244 . S
O631 Co630 2.216 1_556 S
O631 C638 1.247 . S
O632 Co630 2.083 1_556 S
O632 C638 1.318 . S
C633 O642 1.247 . S
C633 O643 1.272 . S
O634 Co630 2.004 . S
O634 C639 1.259 . S
Co635 O636 2.061 . S
Co635 O641 2.052 1_554 S
Co635 O643 2.135 . S
O636 Co635 2.061 . S
O636 C639 1.235 . S
C637 O640 1.238 . S
C637 O641 1.241 . S
C638 O631 1.247 . S
C638 O632 1.318 . S
C639 O634 1.259 . S
C639 O636 1.235 . S
O640 Co630 2.021 1_556 S
O640 C637 1.238 . S
O641 Co635 2.052 1_556 S
O641 C637 1.241 . S
O642 Co630 2.137 . S
O642 C633 1.247 . S
O643 Co630 2.244 . S
O643 C633 1.272 . S
O643 Co635 2.135 . S
Co644 O645 2.216 . S
Co644 O646 2.091 . S
Co644 O648 2.004 . S
Co644 O654 2.021 . S
Co644 O656 2.137 . S
Co644 O657 2.244 . S
O645 Co644 2.216 . S
O645 C652 1.247 . S
O646 Co644 2.091 . S
O646 C652 1.261 . S
C647 O656 1.247 . S
C647 O657 1.272 . S
O648 Co644 2.004 . S
O648 C653 1.259 . S
Co649 O650 2.061 . S
Co649 O655 2.052 . S
Co649 O657 2.135 . S
O650 Co649 2.061 . S
O650 C653 1.235 . S
C651 O654 1.238 . S
C651 O655 1.241 . S
C652 O645 1.247 . S
C652 O646 1.261 . S
C653 O648 1.259 . S
C653 O650 1.235 . S
O654 Co644 2.021 . S
O654 C651 1.238 . S
O655 Co649 2.052 . S
O655 C651 1.241 . S
O656 Co644 2.137 . S
O656 C647 1.247 . S
O657 Co644 2.244 . S
O657 C647 1.272 . S
O657 Co649 2.135 . S
Co658 O659 2.216 . S
Co658 O660 2.091 . S
Co658 O662 2.004 . S
Co658 O668 2.021 . S
Co658 O670 2.137 . S
Co658 O671 2.244 . S
O659 Co658 2.216 . S
O659 C666 1.247 . S
O660 Co658 2.091 . S
O660 C666 1.261 . S
C661 O670 1.247 . S
C661 O671 1.272 . S
O662 Co658 2.004 . S
O662 C667 1.259 . S
Co663 O664 2.061 . S
Co663 O669 2.052 . S
Co663 O671 2.135 . S
O664 Co663 2.061 . S
O664 C667 1.235 . S
C665 O668 1.238 . S
C665 O669 1.241 . S
C666 O659 1.247 . S
C666 O660 1.261 . S
C667 O662 1.259 . S
C667 O664 1.235 . S
O668 Co658 2.021 . S
O668 C665 1.238 . S
O669 Co663 2.052 . S
O669 C665 1.241 . S
O670 Co658 2.137 . S
O670 C661 1.247 . S
O671 Co658 2.244 . S
O671 C661 1.272 . S
O671 Co663 2.135 . S
H672 C680 0.929 . S
H673 C682 0.930 . S
H674 C684 0.930 . S
H675 C687 0.929 . S
H676 C690 0.930 . S
H677 C692 0.960 . S
H678 C692 0.960 . S
H679 C692 0.960 . S
C680 H672 0.929 . S
C680 C681 1.377 . S
C680 C682 1.384 . S
C681 C680 1.377 . S
C681 C687 1.390 . S
C682 H673 0.930 . S
C682 C680 1.384 . S
C682 C683 1.372 . S
C683 C682 1.372 . S
C683 C684 1.400 . S
C683 C688 1.490 . S
C684 H674 0.930 . S
C684 C683 1.400 . S
C684 C687 1.386 . S
H685 C701 0.930 . S
H686 C702 0.931 . S
C687 H675 0.929 . S
C687 C681 1.390 . S
C687 C684 1.386 . S
C688 C683 1.490 . S
C688 C690 1.395 . S
C688 C691 1.403 . S
H689 C695 0.930 . S
C690 H676 0.930 . S
C690 C688 1.395 . S
C690 C693 1.403 . S
C691 C688 1.403 . S
C691 C692 1.524 . S
C691 C695 1.400 . S
C692 H677 0.960 . S
C692 H678 0.960 . S
C692 H679 0.960 . S
C692 C691 1.524 . S
C693 C690 1.403 . S
C693 C694 1.392 . S
C693 C697 1.495 . S
C694 C693 1.392 . S
C694 C695 1.385 . S
C694 C696 1.478 . S
C695 H689 0.930 . S
C695 C691 1.400 . S
C695 C694 1.385 . S
C696 C694 1.478 . S
C696 C698 1.381 . S
C696 C702 1.383 . S
C697 C693 1.495 . S
C697 H703 0.959 . S
C697 H704 0.961 . S
C697 H705 0.960 . S
C698 C696 1.381 . S
C698 C699 1.394 . S
C698 H706 0.930 . S
C699 C698 1.394 . S
C699 C700 1.383 . S
C699 H707 0.929 . S
C700 C699 1.383 . S
C700 C701 1.377 . S
C701 H685 0.930 . S
C701 C700 1.377 . S
C701 C702 1.379 . S
C702 H686 0.931 . S
C702 C696 1.383 . S
C702 C701 1.379 . S
H703 C697 0.959 . S
H704 C697 0.961 . S
H705 C697 0.960 . S
H706 C698 0.930 . S
H707 C699 0.929 . S
H708 C716 0.929 . S
H709 C718 0.930 . S
H710 C720 0.930 . S
H711 C723 0.929 . S
H712 C726 0.930 . S
H713 C728 0.960 . S
H714 C728 0.960 . S
H715 C728 0.960 . S
C716 H708 0.929 . S
C716 C717 1.377 . S
C716 C718 1.384 . S
C717 C716 1.377 . S
C717 C723 1.390 . S
C718 H709 0.930 . S
C718 C716 1.384 . S
C718 C719 1.372 . S
C719 C718 1.372 . S
C719 C720 1.400 . S
C719 C724 1.490 . S
C720 H710 0.930 . S
C720 C719 1.400 . S
C720 C723 1.386 . S
H721 C737 0.930 . S
H722 C738 0.931 . S
C723 H711 0.929 . S
C723 C717 1.390 . S
C723 C720 1.386 . S
C724 C719 1.490 . S
C724 C726 1.395 . S
C724 C727 1.403 . S
H725 C731 0.930 . S
C726 H712 0.930 . S
C726 C724 1.395 . S
C726 C729 1.403 . S
C727 C724 1.403 . S
C727 C728 1.524 . S
C727 C731 1.400 . S
C728 H713 0.960 . S
C728 H714 0.960 . S
C728 H715 0.960 . S
C728 C727 1.524 . S
C729 C726 1.403 . S
C729 C730 1.392 . S
C729 C733 1.495 . S
C730 C729 1.392 . S
C730 C731 1.385 . S
C730 C732 1.478 . S
C731 H725 0.930 . S
C731 C727 1.400 . S
C731 C730 1.385 . S
C732 C730 1.478 . S
C732 C734 1.381 . S
C732 C738 1.383 . S
C733 C729 1.495 . S
C733 H739 0.959 . S
C733 H740 0.961 . S
C733 H741 0.960 . S
C734 C732 1.381 . S
C734 C735 1.394 1_455 S
C734 H742 0.930 . S
C735 C734 1.394 1_655 S
C735 C736 1.383 . S
C735 H743 0.929 . S
C736 C735 1.383 . S
C736 C737 1.377 . S
C737 H721 0.930 . S
C737 C736 1.377 . S
C737 C738 1.379 1_655 S
C738 H722 0.931 . S
C738 C732 1.383 . S
C738 C737 1.379 1_455 S
H739 C733 0.959 . S
H740 C733 0.961 . S
H741 C733 0.960 . S
H742 C734 0.930 . S
H743 C735 0.929 . S
H744 C752 0.929 . S
H745 C754 0.930 . S
H746 C756 0.930 . S
H747 C759 0.929 . S
H748 C762 0.930 . S
H749 C764 0.960 . S
H750 C764 0.960 . S
H751 C764 0.960 . S
C752 H744 0.929 . S
C752 C753 1.377 . S
C752 C754 1.384 . S
C753 C752 1.377 . S
C753 C759 1.390 . S
C754 H745 0.930 . S
C754 C752 1.384 . S
C754 C755 1.372 . S
C755 C754 1.372 . S
C755 C756 1.400 . S
C755 C760 1.490 . S
C756 H746 0.930 . S
C756 C755 1.400 . S
C756 C759 1.386 . S
H757 C773 0.930 . S
H758 C774 0.931 . S
C759 H747 0.929 . S
C759 C753 1.390 . S
C759 C756 1.386 . S
C760 C755 1.490 . S
C760 C762 1.395 . S
C760 C763 1.403 . S
H761 C767 0.930 . S
C762 H748 0.930 . S
C762 C760 1.395 . S
C762 C765 1.403 . S
C763 C760 1.403 . S
C763 C764 1.524 . S
C763 C767 1.400 . S
C764 H749 0.960 . S
C764 H750 0.960 . S
C764 H751 0.960 . S
C764 C763 1.524 . S
C765 C762 1.403 . S
C765 C766 1.392 . S
C765 C769 1.495 . S
C766 C765 1.392 . S
C766 C767 1.385 . S
C766 C768 1.478 . S
C767 H761 0.930 . S
C767 C763 1.400 . S
C767 C766 1.385 . S
C768 C766 1.478 . S
C768 C770 1.381 . S
C768 C774 1.383 . S
C769 C765 1.495 . S
C769 H775 0.959 . S
C769 H776 0.961 . S
C769 H777 0.960 . S
C770 C768 1.381 . S
C770 C771 1.394 . S
C770 H778 0.930 . S
C771 C770 1.394 . S
C771 C772 1.383 . S
C771 H779 0.929 . S
C772 C771 1.383 . S
C772 C773 1.377 . S
C773 H757 0.930 . S
C773 C772 1.377 . S
C773 C774 1.379 . S
C774 H758 0.931 . S
C774 C768 1.383 . S
C774 C773 1.379 . S
H775 C769 0.959 . S
H776 C769 0.961 . S
H777 C769 0.960 . S
H778 C770 0.930 . S
H779 C771 0.929 . S
H780 C788 0.929 . S
H781 C790 0.930 . S
H782 C792 0.930 . S
H783 C795 0.929 . S
H784 C798 0.930 1_554 S
H785 C800 0.960 . S
H786 C800 0.960 . S
H787 C800 0.960 . S
C788 H780 0.929 . S
C788 C789 1.377 . S
C788 C790 1.384 . S
C789 C788 1.377 . S
C789 C795 1.390 . S
C790 H781 0.930 . S
C790 C788 1.384 . S
C790 C791 1.372 . S
C791 C790 1.372 . S
C791 C792 1.400 . S
C791 C796 1.490 . S
C792 H782 0.930 . S
C792 C791 1.400 . S
C792 C795 1.386 . S
H793 C809 0.930 . S
H794 C810 0.931 . S
C795 H783 0.929 . S
C795 C789 1.390 . S
C795 C792 1.386 . S
C796 C791 1.490 . S
C796 C798 1.395 . S
C796 C799 1.403 . S
H797 C803 0.930 . S
C798 H784 0.930 1_556 S
C798 C796 1.395 . S
C798 C801 1.403 . S
C799 C796 1.403 . S
C799 C800 1.524 . S
C799 C803 1.400 . S
C800 H785 0.960 . S
C800 H786 0.960 . S
C800 H787 0.960 . S
C800 C799 1.524 . S
C801 C798 1.403 . S
C801 C802 1.392 . S
C801 C805 1.495 1_556 S
C802 C801 1.392 . S
C802 C803 1.385 . S
C802 C804 1.478 . S
C803 H797 0.930 . S
C803 C799 1.400 . S
C803 C802 1.385 . S
C804 C802 1.478 . S
C804 C806 1.381 . S
C804 C810 1.383 . S
C805 C801 1.495 1_554 S
C805 H811 0.959 . S
C805 H812 0.961 . S
C805 H813 0.960 . S
C806 C804 1.381 . S
C806 C807 1.394 . S
C806 H814 0.930 1_556 S
C807 C806 1.394 . S
C807 C808 1.383 . S
C807 H815 0.929 1_556 S
C808 C807 1.383 . S
C808 C809 1.377 . S
C809 H793 0.930 . S
C809 C808 1.377 . S
C809 C810 1.379 . S
C810 H794 0.931 . S
C810 C804 1.383 . S
C810 C809 1.379 . S
H811 C805 0.959 . S
H812 C805 0.961 . S
H813 C805 0.960 . S
H814 C806 0.930 1_554 S
H815 C807 0.929 1_554 S
H816 C824 0.929 . S
H817 C826 0.930 . S
H818 C828 0.930 . S
H819 C831 0.964 . S
H820 C834 0.930 . S
H821 C836 0.960 . S
H822 C836 0.960 . S
H823 C836 0.960 . S
C824 H816 0.929 . S
C824 C825 1.377 . S
C824 C826 1.384 . S
C825 C824 1.377 . S
C825 C831 1.390 . S
C826 H817 0.930 . S
C826 C824 1.384 . S
C826 C827 1.372 . S
C827 C826 1.372 . S
C827 C828 1.400 . S
C827 C832 1.490 . S
C828 H818 0.930 . S
C828 C827 1.400 . S
C828 C831 1.386 . S
H829 C845 0.930 . S
H830 C846 0.931 . S
C831 H819 0.964 . S
C831 C825 1.390 . S
C831 C828 1.386 . S
C832 C827 1.490 . S
C832 C834 1.395 . S
C832 C835 1.403 . S
H833 C839 0.930 . S
C834 H820 0.930 . S
C834 C832 1.395 . S
C834 C837 1.403 . S
C835 C832 1.403 . S
C835 C836 1.524 . S
C835 C839 1.400 . S
C836 H821 0.960 . S
C836 H822 0.960 . S
C836 H823 0.960 . S
C836 C835 1.524 . S
C837 C834 1.403 . S
C837 C838 1.392 . S
C837 C841 1.495 . S
C838 C837 1.392 . S
C838 C839 1.385 . S
C838 C840 1.478 . S
C839 H833 0.930 . S
C839 C835 1.400 . S
C839 C838 1.385 . S
C840 C838 1.478 . S
C840 C842 1.381 . S
C840 C846 1.383 . S
C841 C837 1.495 . S
C841 H847 0.959 . S
C841 H848 0.961 . S
C841 H849 0.960 . S
C842 C840 1.381 . S
C842 C843 1.394 . S
C842 H850 0.930 . S
C843 C842 1.394 . S
C843 C844 1.383 . S
C843 H851 0.929 . S
C844 C843 1.383 . S
C844 C845 1.377 . S
C845 H829 0.930 . S
C845 C844 1.377 . S
C845 C846 1.379 . S
C846 H830 0.931 . S
C846 C840 1.383 . S
C846 C845 1.379 . S
H847 C841 0.959 . S
H848 C841 0.961 . S
H849 C841 0.960 . S
H850 C842 0.930 . S
H851 C843 0.929 . S
H852 C860 0.929 . S
H853 C862 0.930 . S
H854 C864 0.930 . S
H855 C867 0.929 . S
H856 C870 0.930 . S
H857 C872 0.960 . S
H858 C872 0.960 . S
H859 C872 0.960 . S
C860 H852 0.929 . S
C860 C861 1.377 . S
C860 C862 1.384 . S
C861 C860 1.377 . S
C861 C867 1.390 . S
C862 H853 0.930 . S
C862 C860 1.384 . S
C862 C863 1.372 . S
C863 C862 1.372 . S
C863 C864 1.400 . S
C863 C868 1.490 . S
C864 H854 0.930 . S
C864 C863 1.400 . S
C864 C867 1.386 . S
H865 C881 0.930 . S
H866 C882 0.931 . S
C867 H855 0.929 . S
C867 C861 1.390 . S
C867 C864 1.386 . S
C868 C863 1.490 . S
C868 C870 1.395 . S
C868 C871 1.403 . S
H869 C875 0.930 . S
C870 H856 0.930 . S
C870 C868 1.395 . S
C870 C873 1.403 . S
C871 C868 1.403 . S
C871 C872 1.524 . S
C871 C875 1.400 . S
C872 H857 0.960 . S
C872 H858 0.960 . S
C872 H859 0.960 . S
C872 C871 1.524 . S
C873 C870 1.403 . S
C873 C874 1.392 . S
C873 C877 1.495 . S
C874 C873 1.392 . S
C874 C875 1.385 . S
C874 C876 1.478 . S
C875 H869 0.930 . S
C875 C871 1.400 . S
C875 C874 1.385 . S
C876 C874 1.478 . S
C876 C878 1.381 . S
C876 C882 1.383 . S
C877 C873 1.495 . S
C877 H883 0.959 . S
C877 H884 0.961 . S
C877 H885 0.960 . S
C878 C876 1.381 . S
C878 C879 1.394 . S
C878 H886 0.930 . S
C879 C878 1.394 . S
C879 C880 1.383 . S
C879 H887 0.929 . S
C880 C879 1.383 . S
C880 C881 1.377 . S
C881 H865 0.930 . S
C881 C880 1.377 . S
C881 C882 1.379 . S
C882 H866 0.931 . S
C882 C876 1.383 . S
C882 C881 1.379 . S
H883 C877 0.959 . S
H884 C877 0.961 . S
H885 C877 0.960 . S
H886 C878 0.930 . S
H887 C879 0.929 . S
H888 C896 0.929 . S
H889 C898 0.930 . S
H890 C900 0.930 . S
H891 C903 0.929 . S
H892 C906 0.930 . S
H893 C908 0.960 . S
H894 C908 0.960 . S
H895 C908 0.960 . S
C896 H888 0.929 . S
C896 C897 1.377 . S
C896 C898 1.384 . S
C897 C896 1.377 . S
C897 C903 1.390 . S
C898 H889 0.930 . S
C898 C896 1.384 . S
C898 C899 1.372 . S
C899 C898 1.372 . S
C899 C900 1.400 . S
C899 C904 1.490 . S
C900 H890 0.930 . S
C900 C899 1.400 . S
C900 C903 1.386 . S
H901 C917 0.930 . S
H902 C918 0.931 . S
C903 H891 0.929 . S
C903 C897 1.390 . S
C903 C900 1.386 . S
C904 C899 1.490 . S
C904 C906 1.395 . S
C904 C907 1.403 . S
H905 C911 0.930 . S
C906 H892 0.930 . S
C906 C904 1.395 . S
C906 C909 1.403 . S
C907 C904 1.403 . S
C907 C908 1.524 . S
C907 C911 1.400 . S
C908 H893 0.960 . S
C908 H894 0.960 . S
C908 H895 0.960 . S
C908 C907 1.524 . S
C909 C906 1.403 . S
C909 C910 1.392 . S
C909 C913 1.495 . S
C910 C909 1.392 . S
C910 C911 1.385 . S
C910 C912 1.478 . S
C911 H905 0.930 . S
C911 C907 1.400 . S
C911 C910 1.385 . S
C912 C910 1.478 . S
C912 C914 1.381 . S
C912 C918 1.383 . S
C913 C909 1.495 . S
C913 H919 0.959 . S
C913 H920 0.961 . S
C913 H921 0.960 . S
C914 C912 1.381 . S
C914 C915 1.394 . S
C914 H922 0.930 . S
C915 C914 1.394 . S
C915 C916 1.383 . S
C915 H923 0.929 . S
C916 C915 1.383 . S
C916 C917 1.377 . S
C917 H901 0.930 . S
C917 C916 1.377 . S
C917 C918 1.379 . S
C918 H902 0.931 . S
C918 C912 1.383 . S
C918 C917 1.379 . S
H919 C913 0.959 . S
H920 C913 0.961 . S
H921 C913 0.960 . S
H922 C914 0.930 . S
H923 C915 0.929 . S
H924 C932 0.929 . S
H925 C934 0.930 . S
H926 C936 0.930 . S
H927 C939 0.929 . S
H928 C942 0.930 . S
H929 C944 0.960 . S
H930 C944 0.960 . S
H931 C944 0.960 . S
C932 H924 0.929 . S
C932 C933 1.377 . S
C932 C934 1.384 . S
C933 C932 1.377 . S
C933 C939 1.390 . S
C934 H925 0.930 . S
C934 C932 1.384 . S
C934 C935 1.372 . S
C935 C934 1.372 . S
C935 C936 1.400 . S
C935 C940 1.490 . S
C936 H926 0.930 . S
C936 C935 1.400 . S
C936 C939 1.386 . S
H937 C953 0.930 . S
H938 C954 0.931 . S
C939 H927 0.929 . S
C939 C933 1.390 . S
C939 C936 1.386 . S
C940 C935 1.490 . S
C940 C942 1.395 . S
C940 C943 1.403 . S
H941 C947 0.930 . S
C942 H928 0.930 . S
C942 C940 1.395 . S
C942 C945 1.403 . S
C943 C940 1.403 . S
C943 C944 1.524 . S
C943 C947 1.400 . S
C944 H929 0.960 . S
C944 H930 0.960 . S
C944 H931 0.960 . S
C944 C943 1.524 . S
C945 C942 1.403 . S
C945 C946 1.392 . S
C945 C949 1.495 . S
C946 C945 1.392 . S
C946 C947 1.385 . S
C946 C948 1.478 . S
C947 H941 0.930 . S
C947 C943 1.400 . S
C947 C946 1.385 . S
C948 C946 1.478 . S
C948 C950 1.381 . S
C948 C954 1.383 . S
C949 C945 1.495 . S
C949 H955 0.959 . S
C949 H956 0.961 . S
C949 H957 0.960 . S
C950 C948 1.381 . S
C950 C951 1.394 . S
C950 H958 0.930 . S
C951 C950 1.394 . S
C951 C952 1.383 . S
C951 H959 0.929 . S
C952 C951 1.383 . S
C952 C953 1.377 . S
C953 H937 0.930 . S
C953 C952 1.377 . S
C953 C954 1.379 . S
C954 H938 0.931 . S
C954 C948 1.383 . S
C954 C953 1.379 . S
H955 C949 0.959 . S
H956 C949 0.961 . S
H957 C949 0.960 . S
H958 C950 0.930 . S
H959 C951 0.929 . S
H960 C968 0.929 . S
H961 C970 0.930 . S
H962 C972 0.930 . S
H963 C975 0.929 . S
H964 C978 0.930 . S
H965 C980 0.960 . S
H966 C980 0.960 . S
H967 C980 0.960 . S
C968 H960 0.929 . S
C968 C969 1.377 . S
C968 C970 1.384 . S
C969 C968 1.377 . S
C969 C975 1.390 . S
C970 H961 0.930 . S
C970 C968 1.384 . S
C970 C971 1.372 . S
C971 C970 1.372 . S
C971 C972 1.400 . S
C971 C976 1.490 . S
C972 H962 0.930 . S
C972 C971 1.400 . S
C972 C975 1.386 . S
H973 C989 0.930 . S
H974 C990 0.931 . S
C975 H963 0.929 . S
C975 C969 1.390 . S
C975 C972 1.386 . S
C976 C971 1.490 . S
C976 C978 1.395 . S
C976 C979 1.403 . S
H977 C983 0.930 . S
C978 H964 0.930 . S
C978 C976 1.395 . S
C978 C981 1.403 . S
C979 C976 1.403 . S
C979 C980 1.524 . S
C979 C983 1.400 . S
C980 H965 0.960 . S
C980 H966 0.960 . S
C980 H967 0.960 . S
C980 C979 1.524 . S
C981 C978 1.403 . S
C981 C982 1.392 . S
C981 C985 1.495 . S
C982 C981 1.392 . S
C982 C983 1.385 . S
C982 C984 1.478 . S
C983 H977 0.930 . S
C983 C979 1.400 . S
C983 C982 1.385 . S
C984 C982 1.478 . S
C984 C986 1.381 . S
C984 C990 1.383 . S
C985 C981 1.495 . S
C985 H991 0.959 . S
C985 H992 0.961 . S
C985 H993 0.960 . S
C986 C984 1.381 . S
C986 C987 1.394 . S
C986 H994 0.930 . S
C987 C986 1.394 . S
C987 C988 1.383 . S
C987 H995 0.929 . S
C988 C987 1.383 . S
C988 C989 1.377 . S
C989 H973 0.930 . S
C989 C988 1.377 . S
C989 C990 1.379 . S
C990 H974 0.931 . S
C990 C984 1.383 . S
C990 C989 1.379 . S
H991 C985 0.959 . S
H992 C985 0.961 . S
H993 C985 0.960 . S
H994 C986 0.930 . S
H995 C987 0.929 . S
H996 C1004 0.929 . S
H997 C1006 0.930 . S
H998 C1008 0.930 . S
H999 C1011 0.929 . S
H1000 C1014 0.930 . S
H1001 C1016 0.960 . S
H1002 C1016 0.960 . S
H1003 C1016 0.960 . S
C1004 H996 0.929 . S
C1004 C1005 1.377 . S
C1004 C1006 1.384 . S
C1005 C1004 1.377 . S
C1005 C1011 1.390 . S
C1006 H997 0.930 . S
C1006 C1004 1.384 . S
C1006 C1007 1.372 . S
C1007 C1006 1.372 . S
C1007 C1008 1.400 . S
C1007 C1012 1.490 . S
C1008 H998 0.930 . S
C1008 C1007 1.400 . S
C1008 C1011 1.386 . S
H1009 C1025 0.930 . S
H1010 C1026 0.931 . S
C1011 H999 0.929 . S
C1011 C1005 1.390 . S
C1011 C1008 1.386 . S
C1012 C1007 1.490 . S
C1012 C1014 1.395 . S
C1012 C1015 1.403 . S
H1013 C1019 0.930 . S
C1014 H1000 0.930 . S
C1014 C1012 1.395 . S
C1014 C1017 1.403 . S
C1015 C1012 1.403 . S
C1015 C1016 1.524 1_565 S
C1015 C1019 1.400 . S
C1016 H1001 0.960 . S
C1016 H1002 0.960 . S
C1016 H1003 0.960 . S
C1016 C1015 1.524 1_545 S
C1017 C1014 1.403 . S
C1017 C1018 1.392 . S
C1017 C1021 1.495 . S
C1018 C1017 1.392 . S
C1018 C1019 1.385 . S
C1018 C1020 1.478 . S
C1019 H1013 0.930 . S
C1019 C1015 1.400 . S
C1019 C1018 1.385 . S
C1020 C1018 1.478 . S
C1020 C1022 1.381 . S
C1020 C1026 1.383 . S
C1021 C1017 1.495 . S
C1021 H1027 0.959 . S
C1021 H1028 0.961 . S
C1021 H1029 0.960 . S
C1022 C1020 1.381 . S
C1022 C1023 1.394 . S
C1022 H1030 0.930 . S
C1023 C1022 1.394 . S
C1023 C1024 1.383 . S
C1023 H1031 0.929 . S
C1024 C1023 1.383 . S
C1024 C1025 1.377 . S
C1025 H1009 0.930 . S
C1025 C1024 1.377 . S
C1025 C1026 1.379 . S
C1026 H1010 0.931 . S
C1026 C1020 1.383 . S
C1026 C1025 1.379 . S
H1027 C1021 0.959 . S
H1028 C1021 0.961 . S
H1029 C1021 0.960 . S
H1030 C1022 0.930 . S
H1031 C1023 0.929 . S
H1032 C1040 0.929 . S
H1033 C1042 0.930 . S
H1034 C1044 0.930 . S
H1035 C1047 0.880 1_565 S
H1036 C1050 0.930 . S
H1037 C1052 0.960 . S
H1038 C1052 0.960 . S
H1039 C1052 0.960 . S
C1040 H1032 0.929 . S
C1040 C1041 1.377 . S
C1040 C1042 1.384 . S
C1041 C1040 1.377 . S
C1041 C1047 1.390 . S
C1042 H1033 0.930 . S
C1042 C1040 1.384 . S
C1042 C1043 1.372 . S
C1043 C1042 1.372 . S
C1043 C1044 1.400 . S
C1043 C1048 1.490 . S
C1044 H1034 0.930 . S
C1044 C1043 1.400 . S
C1044 C1047 1.386 . S
H1045 C1061 0.930 . S
H1046 C1062 0.931 . S
C1047 H1035 0.880 1_545 S
C1047 C1041 1.390 . S
C1047 C1044 1.386 . S
C1048 C1043 1.490 . S
C1048 C1050 1.395 . S
C1048 C1051 1.403 . S
H1049 C1055 0.930 . S
C1050 H1036 0.930 . S
C1050 C1048 1.395 . S
C1050 C1053 1.403 . S
C1051 C1048 1.403 . S
C1051 C1052 1.524 . S
C1051 C1055 1.400 . S
C1052 H1037 0.960 . S
C1052 H1038 0.960 . S
C1052 H1039 0.960 . S
C1052 C1051 1.524 . S
C1053 C1050 1.403 . S
C1053 C1054 1.392 . S
C1053 C1057 1.495 . S
C1054 C1053 1.392 . S
C1054 C1055 1.385 . S
C1054 C1056 1.478 . S
C1055 H1049 0.930 . S
C1055 C1051 1.400 . S
C1055 C1054 1.385 . S
C1056 C1054 1.478 . S
C1056 C1058 1.381 . S
C1056 C1062 1.383 . S
C1057 C1053 1.495 . S
C1057 H1063 0.959 . S
C1057 H1064 0.961 . S
C1057 H1065 0.960 . S
C1058 C1056 1.381 . S
C1058 C1059 1.394 . S
C1058 H1066 0.930 . S
C1059 C1058 1.394 . S
C1059 C1060 1.383 . S
C1059 H1067 0.929 . S
C1060 C1059 1.383 . S
C1060 C1061 1.377 . S
C1061 H1045 0.930 . S
C1061 C1060 1.377 . S
C1061 C1062 1.379 . S
C1062 H1046 0.931 . S
C1062 C1056 1.383 . S
C1062 C1061 1.379 . S
H1063 C1057 0.959 . S
H1064 C1057 0.961 . S
H1065 C1057 0.960 . S
H1066 C1058 0.930 . S
H1067 C1059 0.929 . S
H1068 C1076 0.929 . S
H1069 C1078 0.930 . S
H1070 C1080 0.930 . S
H1071 C1083 0.929 . S
H1072 C1086 0.930 . S
H1073 C1088 0.960 . S
H1074 C1088 0.960 . S
H1075 C1088 0.960 . S
C1076 H1068 0.929 . S
C1076 C1077 1.377 . S
C1076 C1078 1.384 . S
C1077 C1076 1.377 . S
C1077 C1083 1.390 . S
C1078 H1069 0.930 . S
C1078 C1076 1.384 . S
C1078 C1079 1.372 . S
C1079 C1078 1.372 . S
C1079 C1080 1.400 . S
C1079 C1084 1.490 . S
C1080 H1070 0.930 . S
C1080 C1079 1.400 . S
C1080 C1083 1.386 . S
H1081 C1097 0.930 . S
H1082 C1098 0.931 . S
C1083 H1071 0.929 . S
C1083 C1077 1.390 . S
C1083 C1080 1.386 . S
C1084 C1079 1.490 . S
C1084 C1086 1.395 . S
C1084 C1087 1.403 . S
H1085 C1091 0.930 . S
C1086 H1072 0.930 . S
C1086 C1084 1.395 . S
C1086 C1089 1.403 . S
C1087 C1084 1.403 . S
C1087 C1088 1.524 . S
C1087 C1091 1.400 . S
C1088 H1073 0.960 . S
C1088 H1074 0.960 . S
C1088 H1075 0.960 . S
C1088 C1087 1.524 . S
C1089 C1086 1.403 . S
C1089 C1090 1.392 . S
C1089 C1093 1.495 . S
C1090 C1089 1.392 . S
C1090 C1091 1.385 . S
C1090 C1092 1.478 . S
C1091 H1085 0.930 . S
C1091 C1087 1.400 . S
C1091 C1090 1.385 . S
C1092 C1090 1.478 . S
C1092 C1094 1.381 . S
C1092 C1098 1.383 . S
C1093 C1089 1.495 . S
C1093 H1099 0.959 . S
C1093 H1100 0.961 . S
C1093 H1101 0.960 . S
C1094 C1092 1.381 . S
C1094 C1095 1.394 . S
C1094 H1102 0.930 . S
C1095 C1094 1.394 . S
C1095 C1096 1.383 . S
C1095 H1103 0.929 . S
C1096 C1095 1.383 . S
C1096 C1097 1.377 . S
C1097 H1081 0.930 . S
C1097 C1096 1.377 . S
C1097 C1098 1.379 . S
C1098 H1082 0.931 . S
C1098 C1092 1.383 . S
C1098 C1097 1.379 . S
H1099 C1093 0.959 . S
H1100 C1093 0.961 . S
H1101 C1093 0.960 . S
H1102 C1094 0.930 . S
H1103 C1095 0.929 . S
H1104 C1112 0.929 . S
H1105 C1114 0.930 . S
H1106 C1116 0.930 . S
H1107 C1119 0.929 . S
H1108 C1122 0.930 . S
H1109 C1124 0.960 . S
H1110 C1124 0.960 . S
H1111 C1124 0.960 . S
C1112 H1104 0.929 . S
C1112 C1113 1.377 . S
C1112 C1114 1.384 . S
C1113 C1112 1.377 . S
C1113 C1119 1.390 . S
C1114 H1105 0.930 . S
C1114 C1112 1.384 . S
C1114 C1115 1.372 . S
C1115 C1114 1.372 . S
C1115 C1116 1.400 . S
C1115 C1120 1.490 . S
C1116 H1106 0.930 . S
C1116 C1115 1.400 . S
C1116 C1119 1.386 . S
H1117 C1133 0.930 . S
H1118 C1134 0.931 . S
C1119 H1107 0.929 . S
C1119 C1113 1.390 . S
C1119 C1116 1.386 . S
C1120 C1115 1.490 . S
C1120 C1122 1.395 . S
C1120 C1123 1.403 . S
H1121 C1127 0.930 . S
C1122 H1108 0.930 . S
C1122 C1120 1.395 . S
C1122 C1125 1.403 . S
C1123 C1120 1.403 . S
C1123 C1124 1.524 . S
C1123 C1127 1.400 . S
C1124 H1109 0.960 . S
C1124 H1110 0.960 . S
C1124 H1111 0.960 . S
C1124 C1123 1.524 . S
C1125 C1122 1.403 . S
C1125 C1126 1.392 . S
C1125 C1129 1.495 . S
C1126 C1125 1.392 . S
C1126 C1127 1.385 . S
C1126 C1128 1.478 . S
C1127 H1121 0.930 . S
C1127 C1123 1.400 . S
C1127 C1126 1.385 . S
C1128 C1126 1.478 . S
C1128 C1130 1.381 . S
C1128 C1134 1.383 . S
C1129 C1125 1.495 . S
C1129 H1135 0.959 . S
C1129 H1136 0.961 . S
C1129 H1137 0.960 . S
C1130 C1128 1.381 . S
C1130 C1131 1.394 . S
C1130 H1138 0.930 . S
C1131 C1130 1.394 . S
C1131 C1132 1.383 . S
C1131 H1139 0.929 . S
C1132 C1131 1.383 . S
C1132 C1133 1.377 . S
C1133 H1117 0.930 . S
C1133 C1132 1.377 . S
C1133 C1134 1.379 . S
C1134 H1118 0.931 . S
C1134 C1128 1.383 . S
C1134 C1133 1.379 . S
H1135 C1129 0.959 . S
H1136 C1129 0.961 . S
H1137 C1129 0.960 . S
H1138 C1130 0.930 . S
H1139 C1131 0.929 . S
H1140 C1148 0.929 . S
H1141 C1150 0.930 . S
H1142 C1152 0.930 . S
H1143 C1155 0.929 . S
H1144 C1158 0.930 . S
H1145 C1160 0.960 . S
H1146 C1160 0.960 . S
H1147 C1160 0.960 . S
C1148 H1140 0.929 . S
C1148 C1149 1.377 . S
C1148 C1150 1.384 . S
C1149 C1148 1.377 . S
C1149 C1155 1.390 . S
C1150 H1141 0.930 . S
C1150 C1148 1.384 . S
C1150 C1151 1.372 . S
C1151 C1150 1.372 . S
C1151 C1152 1.400 . S
C1151 C1156 1.490 . S
C1152 H1142 0.930 . S
C1152 C1151 1.400 . S
C1152 C1155 1.386 . S
H1153 C1169 0.930 . S
H1154 C1170 0.931 . S
C1155 H1143 0.929 . S
C1155 C1149 1.390 . S
C1155 C1152 1.386 . S
C1156 C1151 1.490 . S
C1156 C1158 1.395 . S
C1156 C1159 1.403 . S
H1157 C1163 0.930 . S
C1158 H1144 0.930 . S
C1158 C1156 1.395 . S
C1158 C1161 1.403 . S
C1159 C1156 1.403 . S
C1159 C1160 1.524 . S
C1159 C1163 1.400 . S
C1160 H1145 0.960 . S
C1160 H1146 0.960 . S
C1160 H1147 0.960 . S
C1160 C1159 1.524 . S
C1161 C1158 1.403 . S
C1161 C1162 1.392 . S
C1161 C1165 1.495 . S
C1162 C1161 1.392 . S
C1162 C1163 1.385 . S
C1162 C1164 1.478 . S
C1163 H1157 0.930 . S
C1163 C1159 1.400 . S
C1163 C1162 1.385 . S
C1164 C1162 1.478 . S
C1164 C1166 1.381 . S
C1164 C1170 1.383 . S
C1165 C1161 1.495 . S
C1165 H1171 0.959 . S
C1165 H1172 0.961 . S
C1165 H1173 0.960 . S
C1166 C1164 1.381 . S
C1166 C1167 1.394 . S
C1166 H1174 0.930 . S
C1167 C1166 1.394 . S
C1167 C1168 1.383 . S
C1167 H1175 0.929 . S
C1168 C1167 1.383 . S
C1168 C1169 1.377 . S
C1169 H1153 0.930 . S
C1169 C1168 1.377 . S
C1169 C1170 1.379 . S
C1170 H1154 0.931 . S
C1170 C1164 1.383 . S
C1170 C1169 1.379 . S
H1171 C1165 0.959 . S
H1172 C1165 0.961 . S
H1173 C1165 0.960 . S
H1174 C1166 0.930 . S
H1175 C1167 0.929 . S
H1176 C1184 0.929 . S
H1177 C1186 0.930 . S
H1178 C1188 0.930 . S
H1179 C1191 0.929 . S
H1180 C1194 0.930 . S
H1181 C1196 0.960 . S
H1182 C1196 0.960 . S
H1183 C1196 0.960 . S
C1184 H1176 0.929 . S
C1184 C1185 1.377 . S
C1184 C1186 1.384 . S
C1185 C1184 1.377 . S
C1185 C1191 1.390 . S
C1186 H1177 0.930 . S
C1186 C1184 1.384 . S
C1186 C1187 1.372 . S
C1187 C1186 1.372 . S
C1187 C1188 1.400 . S
C1187 C1192 1.490 . S
C1188 H1178 0.930 . S
C1188 C1187 1.400 . S
C1188 C1191 1.386 . S
H1189 C1205 0.930 1_455 S
H1190 C1206 0.931 1_455 S
C1191 H1179 0.929 . S
C1191 C1185 1.390 . S
C1191 C1188 1.386 . S
C1192 C1187 1.490 . S
C1192 C1194 1.395 . S
C1192 C1195 1.403 . S
H1193 C1199 0.930 . S
C1194 H1180 0.930 . S
C1194 C1192 1.395 . S
C1194 C1197 1.403 . S
C1195 C1192 1.403 . S
C1195 C1196 1.524 . S
C1195 C1199 1.400 . S
C1196 H1181 0.960 . S
C1196 H1182 0.960 . S
C1196 H1183 0.960 . S
C1196 C1195 1.524 . S
C1197 C1194 1.403 . S
C1197 C1198 1.392 . S
C1197 C1201 1.495 . S
C1198 C1197 1.392 . S
C1198 C1199 1.385 . S
C1198 C1200 1.478 . S
C1199 H1193 0.930 . S
C1199 C1195 1.400 . S
C1199 C1198 1.385 . S
C1200 C1198 1.478 . S
C1200 C1202 1.381 . S
C1200 C1206 1.383 . S
C1201 C1197 1.495 . S
C1201 H1207 0.959 . S
C1201 H1208 0.961 1_655 S
C1201 H1209 0.960 . S
C1202 C1200 1.381 . S
C1202 C1203 1.394 . S
C1202 H1210 0.930 . S
C1203 C1202 1.394 . S
C1203 C1204 1.383 . S
C1203 H1211 0.929 . S
C1204 C1203 1.383 . S
C1204 C1205 1.377 . S
C1205 H1189 0.930 1_655 S
C1205 C1204 1.377 . S
C1205 C1206 1.379 . S
C1206 H1190 0.931 1_655 S
C1206 C1200 1.383 . S
C1206 C1205 1.379 . S
H1207 C1201 0.959 . S
H1208 C1201 0.961 1_455 S
H1209 C1201 0.960 . S
H1210 C1202 0.930 . S
H1211 C1203 0.929 . S
H1212 C1220 0.929 . S
H1213 C1222 0.930 . S
H1214 C1224 0.930 . S
H1215 C1227 0.929 . S
H1216 C1230 0.930 . S
H1217 C1232 0.960 . S
H1218 C1232 0.960 . S
H1219 C1232 0.960 . S
C1220 H1212 0.929 . S
C1220 C1221 1.377 . S
C1220 C1222 1.384 . S
C1221 C1220 1.377 . S
C1221 C1227 1.390 . S
C1222 H1213 0.930 . S
C1222 C1220 1.384 . S
C1222 C1223 1.372 . S
C1223 C1222 1.372 . S
C1223 C1224 1.400 . S
C1223 C1228 1.490 . S
C1224 H1214 0.930 . S
C1224 C1223 1.400 . S
C1224 C1227 1.386 . S
H1225 C1241 0.930 . S
H1226 C1242 0.931 . S
C1227 H1215 0.929 . S
C1227 C1221 1.390 . S
C1227 C1224 1.386 . S
C1228 C1223 1.490 . S
C1228 C1230 1.395 . S
C1228 C1231 1.403 . S
H1229 C1235 0.930 . S
C1230 H1216 0.930 . S
C1230 C1228 1.395 . S
C1230 C1233 1.403 . S
C1231 C1228 1.403 . S
C1231 C1232 1.524 . S
C1231 C1235 1.400 . S
C1232 H1217 0.960 . S
C1232 H1218 0.960 . S
C1232 H1219 0.960 . S
C1232 C1231 1.524 . S
C1233 C1230 1.403 . S
C1233 C1234 1.392 . S
C1233 C1237 1.495 . S
C1234 C1233 1.392 . S
C1234 C1235 1.385 . S
C1234 C1236 1.478 . S
C1235 H1229 0.930 . S
C1235 C1231 1.400 . S
C1235 C1234 1.385 . S
C1236 C1234 1.478 . S
C1236 C1238 1.381 . S
C1236 C1242 1.383 . S
C1237 C1233 1.495 . S
C1237 H1243 0.959 . S
C1237 H1244 0.961 . S
C1237 H1245 0.960 . S
C1238 C1236 1.381 . S
C1238 C1239 1.394 . S
C1238 H1246 0.930 . S
C1239 C1238 1.394 . S
C1239 C1240 1.383 . S
C1239 H1247 0.929 . S
C1240 C1239 1.383 . S
C1240 C1241 1.377 . S
C1241 H1225 0.930 . S
C1241 C1240 1.377 . S
C1241 C1242 1.379 . S
C1242 H1226 0.931 . S
C1242 C1236 1.383 . S
C1242 C1241 1.379 . S
H1243 C1237 0.959 . S
H1244 C1237 0.961 . S
H1245 C1237 0.960 . S
H1246 C1238 0.930 . S
H1247 C1239 0.929 . S
H1248 C1256 0.929 . S
H1249 C1258 0.930 . S
H1250 C1260 0.930 . S
H1251 C1263 0.929 . S
H1252 C1266 0.930 . S
H1253 C1268 0.960 . S
H1254 C1268 0.960 . S
H1255 C1268 0.960 . S
C1256 H1248 0.929 . S
C1256 C1257 1.377 . S
C1256 C1258 1.384 . S
C1257 C1256 1.377 . S
C1257 C1263 1.390 . S
C1258 H1249 0.930 . S
C1258 C1256 1.384 . S
C1258 C1259 1.372 . S
C1259 C1258 1.372 . S
C1259 C1260 1.400 . S
C1259 C1264 1.490 . S
C1260 H1250 0.930 . S
C1260 C1259 1.400 . S
C1260 C1263 1.386 . S
H1261 C1277 0.930 . S
H1262 C1278 0.931 . S
C1263 H1251 0.929 . S
C1263 C1257 1.390 . S
C1263 C1260 1.386 . S
C1264 C1259 1.490 . S
C1264 C1266 1.395 . S
C1264 C1267 1.403 . S
H1265 C1271 0.930 . S
C1266 H1252 0.930 . S
C1266 C1264 1.395 . S
C1266 C1269 1.403 . S
C1267 C1264 1.403 . S
C1267 C1268 1.524 . S
C1267 C1271 1.400 . S
C1268 H1253 0.960 . S
C1268 H1254 0.960 . S
C1268 H1255 0.960 . S
C1268 C1267 1.524 . S
C1269 C1266 1.403 . S
C1269 C1270 1.392 . S
C1269 C1273 1.495 . S
C1270 C1269 1.392 . S
C1270 C1271 1.385 . S
C1270 C1272 1.478 . S
C1271 H1265 0.930 . S
C1271 C1267 1.400 . S
C1271 C1270 1.385 . S
C1272 C1270 1.478 . S
C1272 C1274 1.381 . S
C1272 C1278 1.383 . S
C1273 C1269 1.495 . S
C1273 H1279 0.959 . S
C1273 H1280 0.961 . S
C1273 H1281 0.960 . S
C1274 C1272 1.381 . S
C1274 C1275 1.394 . S
C1274 H1282 0.930 . S
C1275 C1274 1.394 . S
C1275 C1276 1.383 . S
C1275 H1283 0.929 . S
C1276 C1275 1.383 . S
C1276 C1277 1.377 . S
C1277 H1261 0.930 . S
C1277 C1276 1.377 . S
C1277 C1278 1.379 . S
C1278 H1262 0.931 . S
C1278 C1272 1.383 . S
C1278 C1277 1.379 . S
H1279 C1273 0.959 . S
H1280 C1273 0.961 . S
H1281 C1273 0.960 . S
H1282 C1274 0.930 . S
H1283 C1275 0.929 . S
H1284 C1292 0.929 . S
H1285 C1294 0.930 . S
H1286 C1296 0.930 . S
H1287 C1299 0.929 . S
H1288 C1302 0.930 . S
H1289 C1304 0.960 . S
H1290 C1304 0.960 . S
H1291 C1304 0.960 . S
C1292 H1284 0.929 . S
C1292 C1293 1.377 . S
C1292 C1294 1.384 . S
C1293 C1292 1.377 . S
C1293 C1299 1.390 . S
C1294 H1285 0.930 . S
C1294 C1292 1.384 . S
C1294 C1295 1.372 . S
C1295 C1294 1.372 . S
C1295 C1296 1.400 . S
C1295 C1300 1.490 . S
C1296 H1286 0.930 . S
C1296 C1295 1.400 . S
C1296 C1299 1.386 . S
H1297 C1313 0.930 . S
H1298 C1314 0.931 . S
C1299 H1287 0.929 . S
C1299 C1293 1.390 . S
C1299 C1296 1.386 . S
C1300 C1295 1.490 . S
C1300 C1302 1.395 . S
C1300 C1303 1.403 . S
H1301 C1307 0.930 . S
C1302 H1288 0.930 . S
C1302 C1300 1.395 . S
C1302 C1305 1.403 . S
C1303 C1300 1.403 . S
C1303 C1304 1.524 . S
C1303 C1307 1.400 . S
C1304 H1289 0.960 . S
C1304 H1290 0.960 . S
C1304 H1291 0.960 . S
C1304 C1303 1.524 . S
C1305 C1302 1.403 . S
C1305 C1306 1.392 . S
C1305 C1309 1.495 . S
C1306 C1305 1.392 . S
C1306 C1307 1.385 . S
C1306 C1308 1.478 . S
C1307 H1301 0.930 . S
C1307 C1303 1.400 . S
C1307 C1306 1.385 . S
C1308 C1306 1.478 . S
C1308 C1310 1.381 . S
C1308 C1314 1.383 . S
C1309 C1305 1.495 . S
C1309 H1315 0.959 . S
C1309 H1316 0.961 . S
C1309 H1317 0.960 . S
C1310 C1308 1.381 . S
C1310 C1311 1.394 . S
C1310 H1318 0.930 . S
C1311 C1310 1.394 . S
C1311 C1312 1.383 . S
C1311 H1319 0.929 . S
C1312 C1311 1.383 . S
C1312 C1313 1.377 . S
C1313 H1297 0.930 . S
C1313 C1312 1.377 . S
C1313 C1314 1.379 . S
C1314 H1298 0.931 . S
C1314 C1308 1.383 . S
C1314 C1313 1.379 . S
H1315 C1309 0.959 . S
H1316 C1309 0.961 . S
H1317 C1309 0.960 . S
H1318 C1310 0.930 . S
H1319 C1311 0.929 . S
H1320 C1328 0.929 . S
H1321 C1330 0.930 . S
H1322 C1332 0.930 . S
H1323 C1335 0.929 . S
H1324 C1338 0.930 . S
H1325 C1340 0.960 . S
H1326 C1340 0.960 . S
H1327 C1340 0.960 . S
C1328 H1320 0.929 . S
C1328 C1329 1.377 . S
C1328 C1330 1.384 . S
C1329 C1328 1.377 . S
C1329 C1335 1.390 . S
C1330 H1321 0.930 . S
C1330 C1328 1.384 . S
C1330 C1331 1.372 . S
C1331 C1330 1.372 . S
C1331 C1332 1.400 . S
C1331 C1336 1.490 . S
C1332 H1322 0.930 . S
C1332 C1331 1.400 . S
C1332 C1335 1.386 . S
H1333 C1349 0.930 . S
H1334 C1350 0.931 . S
C1335 H1323 0.929 . S
C1335 C1329 1.390 . S
C1335 C1332 1.386 . S
C1336 C1331 1.490 . S
C1336 C1338 1.395 . S
C1336 C1339 1.403 . S
H1337 C1343 0.930 . S
C1338 H1324 0.930 . S
C1338 C1336 1.395 . S
C1338 C1341 1.403 . S
C1339 C1336 1.403 . S
C1339 C1340 1.524 . S
C1339 C1343 1.400 . S
C1340 H1325 0.960 . S
C1340 H1326 0.960 . S
C1340 H1327 0.960 . S
C1340 C1339 1.524 . S
C1341 C1338 1.403 . S
C1341 C1342 1.392 . S
C1341 C1345 1.495 . S
C1342 C1341 1.392 . S
C1342 C1343 1.385 . S
C1342 C1344 1.478 . S
C1343 H1337 0.930 . S
C1343 C1339 1.400 . S
C1343 C1342 1.385 . S
C1344 C1342 1.478 . S
C1344 C1346 1.381 . S
C1344 C1350 1.383 . S
C1345 C1341 1.495 . S
C1345 H1351 0.959 . S
C1345 H1352 0.961 . S
C1345 H1353 0.960 . S
C1346 C1344 1.381 . S
C1346 C1347 1.394 . S
C1346 H1354 0.930 . S
C1347 C1346 1.394 . S
C1347 C1348 1.383 . S
C1347 H1355 0.929 . S
C1348 C1347 1.383 . S
C1348 C1349 1.377 . S
C1349 H1333 0.930 . S
C1349 C1348 1.377 . S
C1349 C1350 1.379 . S
C1350 H1334 0.931 . S
C1350 C1344 1.383 . S
C1350 C1349 1.379 . S
H1351 C1345 0.959 . S
H1352 C1345 0.961 . S
H1353 C1345 0.960 . S
H1354 C1346 0.930 . S
H1355 C1347 0.929 . S
H1356 C1364 0.929 . S
H1357 C1366 0.930 . S
H1358 C1368 0.930 . S
H1359 C1371 0.929 . S
H1360 C1374 0.930 . S
H1361 C1376 0.960 . S
H1362 C1376 0.960 . S
H1363 C1376 0.960 . S
C1364 H1356 0.929 . S
C1364 C1365 1.377 . S
C1364 C1366 1.384 . S
C1365 C1364 1.377 . S
C1365 C1371 1.390 . S
C1366 H1357 0.930 . S
C1366 C1364 1.384 . S
C1366 C1367 1.372 . S
C1367 C1366 1.372 . S
C1367 C1368 1.400 . S
C1367 C1372 1.490 . S
C1368 H1358 0.930 . S
C1368 C1367 1.400 . S
C1368 C1371 1.386 . S
H1369 C1385 0.930 . S
H1370 C1386 0.931 . S
C1371 H1359 0.929 . S
C1371 C1365 1.390 . S
C1371 C1368 1.386 . S
C1372 C1367 1.490 . S
C1372 C1374 1.395 . S
C1372 C1375 1.403 . S
H1373 C1379 0.930 . S
C1374 H1360 0.930 . S
C1374 C1372 1.395 . S
C1374 C1377 1.403 . S
C1375 C1372 1.403 . S
C1375 C1376 1.524 . S
C1375 C1379 1.400 . S
C1376 H1361 0.960 . S
C1376 H1362 0.960 . S
C1376 H1363 0.960 . S
C1376 C1375 1.524 . S
C1377 C1374 1.403 . S
C1377 C1378 1.392 . S
C1377 C1381 1.495 . S
C1378 C1377 1.392 . S
C1378 C1379 1.385 . S
C1378 C1380 1.478 . S
C1379 H1373 0.930 . S
C1379 C1375 1.400 . S
C1379 C1378 1.385 . S
C1380 C1378 1.478 . S
C1380 C1382 1.381 . S
C1380 C1386 1.383 . S
C1381 C1377 1.495 . S
C1381 H1387 0.959 . S
C1381 H1388 0.961 . S
C1381 H1389 0.960 . S
C1382 C1380 1.381 . S
C1382 C1383 1.394 . S
C1382 H1390 0.930 . S
C1383 C1382 1.394 . S
C1383 C1384 1.383 . S
C1383 H1391 0.929 . S
C1384 C1383 1.383 . S
C1384 C1385 1.377 . S
C1385 H1369 0.930 . S
C1385 C1384 1.377 . S
C1385 C1386 1.379 . S
C1386 H1370 0.931 . S
C1386 C1380 1.383 . S
C1386 C1385 1.379 . S
H1387 C1381 0.959 . S
H1388 C1381 0.961 . S
H1389 C1381 0.960 . S
H1390 C1382 0.930 . S
H1391 C1383 0.929 . S
H1392 C1400 0.929 . S
H1393 C1402 0.930 . S
H1394 C1404 0.930 . S
H1395 C1407 0.929 . S
H1396 C1410 0.930 . S
H1397 C1412 0.960 . S
H1398 C1412 0.960 . S
H1399 C1412 0.960 . S
C1400 H1392 0.929 . S
C1400 C1401 1.377 . S
C1400 C1402 1.384 1_556 S
C1401 C1400 1.377 . S
C1401 C1407 1.390 . S
C1402 H1393 0.930 . S
C1402 C1400 1.384 1_554 S
C1402 C1403 1.372 . S
C1403 C1402 1.372 . S
C1403 C1404 1.400 . S
C1403 C1408 1.490 . S
C1404 H1394 0.930 . S
C1404 C1403 1.400 . S
C1404 C1407 1.386 1_554 S
H1405 C1421 0.930 . S
H1406 C1422 0.931 . S
C1407 H1395 0.929 . S
C1407 C1401 1.390 . S
C1407 C1404 1.386 1_556 S
C1408 C1403 1.490 . S
C1408 C1410 1.395 . S
C1408 C1411 1.403 . S
H1409 C1415 0.930 . S
C1410 H1396 0.930 . S
C1410 C1408 1.395 . S
C1410 C1413 1.403 . S
C1411 C1408 1.403 . S
C1411 C1412 1.524 . S
C1411 C1415 1.400 . S
C1412 H1397 0.960 . S
C1412 H1398 0.960 . S
C1412 H1399 0.960 . S
C1412 C1411 1.524 . S
C1413 C1410 1.403 . S
C1413 C1414 1.392 . S
C1413 C1417 1.495 . S
C1414 C1413 1.392 . S
C1414 C1415 1.385 . S
C1414 C1416 1.478 . S
C1415 H1409 0.930 . S
C1415 C1411 1.400 . S
C1415 C1414 1.385 . S
C1416 C1414 1.478 . S
C1416 C1418 1.381 . S
C1416 C1422 1.383 . S
C1417 C1413 1.495 . S
C1417 H1423 0.959 . S
C1417 H1424 0.961 . S
C1417 H1425 0.960 . S
C1418 C1416 1.381 . S
C1418 C1419 1.394 . S
C1418 H1426 0.930 . S
C1419 C1418 1.394 . S
C1419 C1420 1.383 . S
C1419 H1427 0.929 . S
C1420 C1419 1.383 . S
C1420 C1421 1.377 . S
C1421 H1405 0.930 . S
C1421 C1420 1.377 . S
C1421 C1422 1.379 . S
C1422 H1406 0.931 . S
C1422 C1416 1.383 . S
C1422 C1421 1.379 . S
H1423 C1417 0.959 . S
H1424 C1417 0.961 . S
H1425 C1417 0.960 . S
H1426 C1418 0.930 . S
H1427 C1419 0.929 . S
H1428 C1436 0.929 . S
H1429 C1438 0.930 . S
H1430 C1440 0.930 . S
H1431 C1443 0.929 . S
H1432 C1446 0.930 . S
H1433 C1448 0.960 . S
H1434 C1448 0.960 . S
H1435 C1448 0.960 . S
C1436 H1428 0.929 . S
C1436 C1437 1.377 . S
C1436 C1438 1.384 . S
C1437 C1436 1.377 . S
C1437 C1443 1.390 . S
C1438 H1429 0.930 . S
C1438 C1436 1.384 . S
C1438 C1439 1.372 . S
C1439 C1438 1.372 . S
C1439 C1440 1.400 . S
C1439 C1444 1.490 . S
C1440 H1430 0.930 . S
C1440 C1439 1.400 . S
C1440 C1443 1.386 . S
H1441 C1457 0.930 . S
H1442 C1458 0.931 . S
C1443 H1431 0.929 . S
C1443 C1437 1.390 . S
C1443 C1440 1.386 . S
C1444 C1439 1.490 . S
C1444 C1446 1.395 . S
C1444 C1447 1.403 . S
H1445 C1451 0.930 . S
C1446 H1432 0.930 . S
C1446 C1444 1.395 . S
C1446 C1449 1.403 . S
C1447 C1444 1.403 . S
C1447 C1448 1.524 . S
C1447 C1451 1.400 . S
C1448 H1433 0.960 . S
C1448 H1434 0.960 . S
C1448 H1435 0.960 . S
C1448 C1447 1.524 . S
C1449 C1446 1.403 . S
C1449 C1450 1.392 . S
C1449 C1453 1.495 . S
C1450 C1449 1.392 . S
C1450 C1451 1.385 . S
C1450 C1452 1.478 . S
C1451 H1445 0.930 . S
C1451 C1447 1.400 . S
C1451 C1450 1.385 . S
C1452 C1450 1.478 . S
C1452 C1454 1.381 . S
C1452 C1458 1.383 . S
C1453 C1449 1.495 . S
C1453 H1459 0.959 . S
C1453 H1460 0.961 . S
C1453 H1461 0.960 . S
C1454 C1452 1.381 . S
C1454 C1455 1.394 . S
C1454 H1462 0.930 . S
C1455 C1454 1.394 . S
C1455 C1456 1.383 . S
C1455 H1463 0.929 . S
C1456 C1455 1.383 . S
C1456 C1457 1.377 . S
C1457 H1441 0.930 . S
C1457 C1456 1.377 . S
C1457 C1458 1.379 . S
C1458 H1442 0.931 . S
C1458 C1452 1.383 . S
C1458 C1457 1.379 . S
H1459 C1453 0.959 . S
H1460 C1453 0.961 . S
H1461 C1453 0.960 . S
H1462 C1454 0.930 . S
H1463 C1455 0.929 . S
H1464 C1472 0.929 . S
H1465 C1474 0.930 . S
H1466 C1476 0.930 . S
H1467 C1479 0.929 . S
H1468 C1482 0.930 . S
H1469 C1484 0.960 . S
H1470 C1484 0.960 . S
H1471 C1484 0.960 . S
C1472 H1464 0.929 . S
C1472 C1473 1.377 . S
C1472 C1474 1.384 . S
C1473 C1472 1.377 . S
C1473 C1479 1.390 . S
C1474 H1465 0.930 . S
C1474 C1472 1.384 . S
C1474 C1475 1.372 . S
C1475 C1474 1.372 . S
C1475 C1476 1.400 . S
C1475 C1480 1.490 . S
C1476 H1466 0.930 . S
C1476 C1475 1.400 . S
C1476 C1479 1.386 . S
H1477 C1493 0.930 . S
H1478 C1494 0.931 . S
C1479 H1467 0.929 . S
C1479 C1473 1.390 . S
C1479 C1476 1.386 . S
C1480 C1475 1.490 . S
C1480 C1482 1.395 . S
C1480 C1483 1.403 . S
H1481 C1487 0.930 . S
C1482 H1468 0.930 . S
C1482 C1480 1.395 . S
C1482 C1485 1.403 . S
C1483 C1480 1.403 . S
C1483 C1484 1.524 . S
C1483 C1487 1.400 . S
C1484 H1469 0.960 . S
C1484 H1470 0.960 . S
C1484 H1471 0.960 . S
C1484 C1483 1.524 . S
C1485 C1482 1.403 . S
C1485 C1486 1.392 . S
C1485 C1489 1.495 . S
C1486 C1485 1.392 . S
C1486 C1487 1.385 . S
C1486 C1488 1.478 . S
C1487 H1481 0.930 . S
C1487 C1483 1.400 . S
C1487 C1486 1.385 . S
C1488 C1486 1.478 . S
C1488 C1490 1.381 . S
C1488 C1494 1.383 . S
C1489 C1485 1.495 . S
C1489 H1495 0.959 . S
C1489 H1496 0.961 . S
C1489 H1497 0.960 . S
C1490 C1488 1.381 . S
C1490 C1491 1.394 . S
C1490 H1498 0.930 . S
C1491 C1490 1.394 . S
C1491 C1492 1.383 . S
C1491 H1499 0.929 . S
C1492 C1491 1.383 . S
C1492 C1493 1.377 . S
C1493 H1477 0.930 . S
C1493 C1492 1.377 . S
C1493 C1494 1.379 . S
C1494 H1478 0.931 . S
C1494 C1488 1.383 . S
C1494 C1493 1.379 . S
H1495 C1489 0.959 . S
H1496 C1489 0.961 . S
H1497 C1489 0.960 . S
H1498 C1490 0.930 . S
H1499 C1491 0.929 . S
H1500 C1508 0.929 . S
H1501 C1510 0.930 . S
H1502 C1512 0.930 . S
H1503 C1515 0.929 . S
H1504 C1518 0.930 . S
H1505 C1520 0.960 . S
H1506 C1520 0.960 . S
H1507 C1520 0.960 . S
C1508 H1500 0.929 . S
C1508 C1509 1.377 . S
C1508 C1510 1.384 . S
C1509 C1508 1.377 . S
C1509 C1515 1.390 . S
C1510 H1501 0.930 . S
C1510 C1508 1.384 . S
C1510 C1511 1.372 . S
C1511 C1510 1.372 . S
C1511 C1512 1.400 . S
C1511 C1516 1.490 . S
C1512 H1502 0.930 . S
C1512 C1511 1.400 . S
C1512 C1515 1.386 . S
H1513 C1529 0.930 . S
H1514 C1530 0.931 . S
C1515 H1503 0.929 . S
C1515 C1509 1.390 . S
C1515 C1512 1.386 . S
C1516 C1511 1.490 . S
C1516 C1518 1.395 . S
C1516 C1519 1.403 . S
H1517 C1523 0.930 . S
C1518 H1504 0.930 . S
C1518 C1516 1.395 . S
C1518 C1521 1.403 . S
C1519 C1516 1.403 . S
C1519 C1520 1.524 . S
C1519 C1523 1.400 . S
C1520 H1505 0.960 . S
C1520 H1506 0.960 . S
C1520 H1507 0.960 . S
C1520 C1519 1.524 . S
C1521 C1518 1.403 . S
C1521 C1522 1.392 . S
C1521 C1525 1.495 . S
C1522 C1521 1.392 . S
C1522 C1523 1.385 . S
C1522 C1524 1.478 . S
C1523 H1517 0.930 . S
C1523 C1519 1.400 . S
C1523 C1522 1.385 . S
C1524 C1522 1.478 . S
C1524 C1526 1.381 . S
C1524 C1530 1.383 . S
C1525 C1521 1.495 . S
C1525 H1531 0.959 . S
C1525 H1532 0.961 . S
C1525 H1533 0.960 . S
C1526 C1524 1.381 . S
C1526 C1527 1.394 1_545 S
C1526 H1534 0.930 . S
C1527 C1526 1.394 1_565 S
C1527 C1528 1.383 . S
C1527 H1535 0.929 . S
C1528 C1527 1.383 . S
C1528 C1529 1.377 . S
C1529 H1513 0.930 . S
C1529 C1528 1.377 . S
C1529 C1530 1.379 1_565 S
C1530 H1514 0.931 . S
C1530 C1524 1.383 . S
C1530 C1529 1.379 1_545 S
H1531 C1525 0.959 . S
H1532 C1525 0.961 . S
H1533 C1525 0.960 . S
H1534 C1526 0.930 . S
H1535 C1527 0.929 . S
H1536 C1544 0.929 . S
H1537 C1546 0.930 . S
H1538 C1548 0.930 . S
H1539 C1551 0.929 . S
H1540 C1554 0.930 . S
H1541 C1556 0.960 . S
H1542 C1556 0.960 . S
H1543 C1556 0.960 . S
C1544 H1536 0.929 . S
C1544 C1545 1.377 . S
C1544 C1546 1.384 . S
C1545 C1544 1.377 . S
C1545 C1551 1.390 1_655 S
C1546 H1537 0.930 . S
C1546 C1544 1.384 . S
C1546 C1547 1.372 . S
C1547 C1546 1.372 . S
C1547 C1548 1.400 1_655 S
C1547 C1552 1.490 . S
C1548 H1538 0.930 . S
C1548 C1547 1.400 1_455 S
C1548 C1551 1.386 . S
H1549 C1565 0.994 . S
H1550 C1566 0.943 . S
C1551 H1539 0.929 . S
C1551 C1545 1.390 1_455 S
C1551 C1548 1.386 . S
C1552 C1547 1.490 . S
C1552 C1554 1.395 . S
C1552 C1555 1.400 1_655 S
H1553 C1559 0.884 1_455 S
C1554 H1540 0.930 . S
C1554 C1552 1.395 . S
C1554 C1557 1.403 . S
C1555 C1552 1.400 1_455 S
C1555 C1556 1.527 . S
C1555 C1559 1.397 1_455 S
C1556 H1541 0.960 . S
C1556 H1542 0.960 . S
C1556 H1543 0.960 . S
C1556 C1555 1.527 . S
C1557 C1554 1.403 . S
C1557 C1558 1.392 . S
C1557 C1561 1.495 . S
C1558 C1557 1.392 . S
C1558 C1559 1.437 . S
C1558 C1560 1.478 . S
C1559 H1553 0.884 1_655 S
C1559 C1555 1.397 1_655 S
C1559 C1558 1.437 . S
C1560 C1558 1.478 . S
C1560 C1562 1.381 . S
C1560 C1566 1.370 1_655 S
C1561 C1557 1.495 . S
C1561 H1567 0.959 . S
C1561 H1568 0.961 . S
C1561 H1569 0.960 . S
C1562 C1560 1.381 . S
C1562 C1563 1.394 . S
C1562 H1570 0.930 . S
C1563 C1562 1.394 . S
C1563 C1564 1.383 . S
C1563 H1571 0.929 . S
C1564 C1563 1.383 . S
C1564 C1565 1.319 1_655 S
C1565 H1549 0.994 . S
C1565 C1564 1.319 1_455 S
C1565 C1566 1.378 . S
C1566 H1550 0.943 . S
C1566 C1560 1.370 1_455 S
C1566 C1565 1.378 . S
H1567 C1561 0.959 . S
H1568 C1561 0.961 . S
H1569 C1561 0.960 . S
H1570 C1562 0.930 . S
H1571 C1563 0.929 . S
H1572 C1580 0.929 . S
H1573 C1582 0.930 . S
H1574 C1584 0.930 . S
H1575 C1587 0.929 . S
H1576 C1590 0.930 . S
H1577 C1592 0.937 1_455 S
H1578 C1592 0.960 . S
H1579 C1592 0.960 . S
C1580 H1572 0.929 . S
C1580 C1581 1.377 . S
C1580 C1582 1.384 . S
C1581 C1580 1.377 . S
C1581 C1587 1.390 . S
C1582 H1573 0.930 . S
C1582 C1580 1.384 . S
C1582 C1583 1.372 . S
C1583 C1582 1.372 . S
C1583 C1584 1.400 . S
C1583 C1588 1.490 . S
C1584 H1574 0.930 . S
C1584 C1583 1.400 . S
C1584 C1587 1.386 . S
H1585 C1601 0.930 . S
H1586 C1602 0.931 . S
C1587 H1575 0.929 . S
C1587 C1581 1.390 . S
C1587 C1584 1.386 . S
C1588 C1583 1.490 . S
C1588 C1590 1.395 . S
C1588 C1591 1.403 . S
H1589 C1595 0.930 . S
C1590 H1576 0.930 . S
C1590 C1588 1.395 . S
C1590 C1593 1.403 . S
C1591 C1588 1.403 . S
C1591 C1592 1.524 . S
C1591 C1595 1.400 . S
C1592 H1577 0.937 1_655 S
C1592 H1578 0.960 . S
C1592 H1579 0.960 . S
C1592 C1591 1.524 . S
C1593 C1590 1.403 . S
C1593 C1594 1.392 . S
C1593 C1597 1.495 . S
C1594 C1593 1.392 . S
C1594 C1595 1.385 . S
C1594 C1596 1.478 . S
C1595 H1589 0.930 . S
C1595 C1591 1.400 . S
C1595 C1594 1.385 . S
C1596 C1594 1.478 . S
C1596 C1598 1.381 . S
C1596 C1602 1.383 . S
C1597 C1593 1.495 . S
C1597 H1603 0.959 . S
C1597 H1604 0.961 . S
C1597 H1605 0.960 . S
C1598 C1596 1.381 . S
C1598 C1599 1.394 . S
C1598 H1606 0.930 . S
C1599 C1598 1.394 . S
C1599 C1600 1.383 . S
C1599 H1607 0.929 . S
C1600 C1599 1.383 . S
C1600 C1601 1.377 . S
C1601 H1585 0.930 . S
C1601 C1600 1.377 . S
C1601 C1602 1.379 . S
C1602 H1586 0.931 . S
C1602 C1596 1.383 . S
C1602 C1601 1.379 . S
H1603 C1597 0.959 . S
H1604 C1597 0.961 . S
H1605 C1597 0.960 . S
H1606 C1598 0.930 . S
H1607 C1599 0.929 . S
H1608 C1616 0.929 . S
H1609 C1618 0.930 . S
H1610 C1620 0.930 . S
H1611 C1623 0.929 . S
H1612 C1626 0.930 . S
H1613 C1628 0.960 . S
H1614 C1628 0.960 . S
H1615 C1628 0.960 . S
C1616 H1608 0.929 . S
C1616 C1617 1.377 . S
C1616 C1618 1.384 . S
C1617 C1616 1.377 . S
C1617 C1623 1.390 . S
C1618 H1609 0.930 . S
C1618 C1616 1.384 . S
C1618 C1619 1.372 . S
C1619 C1618 1.372 . S
C1619 C1620 1.400 . S
C1619 C1624 1.490 . S
C1620 H1610 0.930 . S
C1620 C1619 1.400 . S
C1620 C1623 1.386 . S
H1621 C1637 0.930 . S
H1622 C1638 0.931 . S
C1623 H1611 0.929 . S
C1623 C1617 1.390 . S
C1623 C1620 1.386 . S
C1624 C1619 1.490 . S
C1624 C1626 1.395 . S
C1624 C1627 1.403 . S
H1625 C1631 0.930 . S
C1626 H1612 0.930 . S
C1626 C1624 1.395 . S
C1626 C1629 1.403 . S
C1627 C1624 1.403 . S
C1627 C1628 1.524 . S
C1627 C1631 1.400 . S
C1628 H1613 0.960 . S
C1628 H1614 0.960 . S
C1628 H1615 0.960 . S
C1628 C1627 1.524 . S
C1629 C1626 1.403 . S
C1629 C1630 1.392 . S
C1629 C1633 1.495 . S
C1630 C1629 1.392 . S
C1630 C1631 1.385 . S
C1630 C1632 1.478 . S
C1631 H1625 0.930 . S
C1631 C1627 1.400 . S
C1631 C1630 1.385 . S
C1632 C1630 1.478 . S
C1632 C1634 1.381 . S
C1632 C1638 1.383 . S
C1633 C1629 1.495 . S
C1633 H1639 0.959 . S
C1633 H1640 0.961 . S
C1633 H1641 0.960 . S
C1634 C1632 1.381 . S
C1634 C1635 1.394 . S
C1634 H1642 0.930 . S
C1635 C1634 1.394 . S
C1635 C1636 1.383 . S
C1635 H1643 0.929 . S
C1636 C1635 1.383 . S
C1636 C1637 1.377 . S
C1637 H1621 0.930 . S
C1637 C1636 1.377 . S
C1637 C1638 1.379 . S
C1638 H1622 0.931 . S
C1638 C1632 1.383 . S
C1638 C1637 1.379 . S
H1639 C1633 0.959 . S
H1640 C1633 0.961 . S
H1641 C1633 0.960 . S
H1642 C1634 0.930 . S
H1643 C1635 0.929 . S
H1644 C1652 0.929 . S
H1645 C1654 0.930 . S
H1646 C1656 0.930 . S
H1647 C1659 0.929 . S
H1648 C1662 0.930 . S
H1649 C1664 0.960 . S
H1650 C1664 0.960 . S
H1651 C1664 0.960 . S
C1652 H1644 0.929 . S
C1652 C1653 1.377 . S
C1652 C1654 1.384 . S
C1653 C1652 1.377 . S
C1653 C1659 1.390 . S
C1654 H1645 0.930 . S
C1654 C1652 1.384 . S
C1654 C1655 1.372 . S
C1655 C1654 1.372 . S
C1655 C1656 1.400 . S
C1655 C1660 1.490 . S
C1656 H1646 0.930 . S
C1656 C1655 1.400 . S
C1656 C1659 1.386 . S
H1657 C1673 0.930 . S
H1658 C1674 0.931 . S
C1659 H1647 0.929 . S
C1659 C1653 1.390 . S
C1659 C1656 1.386 . S
C1660 C1655 1.490 . S
C1660 C1662 1.395 . S
C1660 C1663 1.403 . S
H1661 C1667 0.930 . S
C1662 H1648 0.930 . S
C1662 C1660 1.395 . S
C1662 C1665 1.403 . S
C1663 C1660 1.403 . S
C1663 C1664 1.524 . S
C1663 C1667 1.400 . S
C1664 H1649 0.960 . S
C1664 H1650 0.960 . S
C1664 H1651 0.960 . S
C1664 C1663 1.524 . S
C1665 C1662 1.403 . S
C1665 C1666 1.392 . S
C1665 C1669 1.495 . S
C1666 C1665 1.392 . S
C1666 C1667 1.385 . S
C1666 C1668 1.478 . S
C1667 H1661 0.930 . S
C1667 C1663 1.400 . S
C1667 C1666 1.385 . S
C1668 C1666 1.478 . S
C1668 C1670 1.381 . S
C1668 C1674 1.383 . S
C1669 C1665 1.495 . S
C1669 H1675 0.959 . S
C1669 H1676 0.961 . S
C1669 H1677 0.960 . S
C1670 C1668 1.381 . S
C1670 C1671 1.394 . S
C1670 H1678 0.930 . S
C1671 C1670 1.394 . S
C1671 C1672 1.383 . S
C1671 H1679 0.929 . S
C1672 C1671 1.383 . S
C1672 C1673 1.377 . S
C1673 H1657 0.930 . S
C1673 C1672 1.377 . S
C1673 C1674 1.379 . S
C1674 H1658 0.931 . S
C1674 C1668 1.383 . S
C1674 C1673 1.379 . S
H1675 C1669 0.959 . S
H1676 C1669 0.961 . S
H1677 C1669 0.960 . S
H1678 C1670 0.930 . S
H1679 C1671 0.929 . S
H1680 C1688 0.929 . S
H1681 C1690 0.930 . S
H1682 C1692 0.930 . S
H1683 C1695 0.957 . S
H1684 C1698 0.897 1_545 S
H1685 C1700 0.960 . S
H1686 C1700 0.960 . S
H1687 C1700 0.960 . S
C1688 H1680 0.929 . S
C1688 C1689 1.377 . S
C1688 C1690 1.384 . S
C1689 C1688 1.377 . S
C1689 C1695 1.390 . S
C1690 H1681 0.930 . S
C1690 C1688 1.384 . S
C1690 C1691 1.372 . S
C1691 C1690 1.372 . S
C1691 C1692 1.400 . S
C1691 C1696 1.490 . S
C1692 H1682 0.930 . S
C1692 C1691 1.400 . S
C1692 C1695 1.386 . S
H1693 C1709 0.894 1_545 S
H1694 C1710 0.908 1_545 S
C1695 H1683 0.957 . S
C1695 C1689 1.390 . S
C1695 C1692 1.386 . S
C1696 C1691 1.490 . S
C1696 C1698 1.435 . S
C1696 C1699 1.403 . S
H1697 C1703 0.930 . S
C1698 H1684 0.897 1_565 S
C1698 C1696 1.435 . S
C1698 C1701 1.400 1_565 S
C1699 C1696 1.403 . S
C1699 C1700 1.524 . S
C1699 C1703 1.400 . S
C1700 H1685 0.960 . S
C1700 H1686 0.960 . S
C1700 H1687 0.960 . S
C1700 C1699 1.524 . S
C1701 C1698 1.400 1_545 S
C1701 C1702 1.392 1_545 S
C1701 C1705 1.496 . S
C1702 C1701 1.392 1_565 S
C1702 C1703 1.385 . S
C1702 C1704 1.478 . S
C1703 H1697 0.930 . S
C1703 C1699 1.400 . S
C1703 C1702 1.385 . S
C1704 C1702 1.478 . S
C1704 C1706 1.381 . S
C1704 C1710 1.406 . S
C1705 C1701 1.496 . S
C1705 H1711 0.959 . S
C1705 H1712 0.961 . S
C1705 H1713 0.960 . S
C1706 C1704 1.381 . S
C1706 C1707 1.394 . S
C1706 H1714 0.930 . S
C1707 C1706 1.394 . S
C1707 C1708 1.383 . S
C1707 H1715 0.929 . S
C1708 C1707 1.383 . S
C1708 C1709 1.423 . S
C1709 H1693 0.894 1_565 S
C1709 C1708 1.423 . S
C1709 C1710 1.379 . S
C1710 H1694 0.908 1_565 S
C1710 C1704 1.406 . S
C1710 C1709 1.379 . S
H1711 C1705 0.959 . S
H1712 C1705 0.961 . S
H1713 C1705 0.960 . S
H1714 C1706 0.930 . S
H1715 C1707 0.929 . S
H1716 C1724 0.929 . S
H1717 C1726 0.930 . S
H1718 C1728 0.930 . S
H1719 C1731 0.929 . S
H1720 C1734 0.930 . S
H1721 C1736 0.960 . S
H1722 C1736 0.960 . S
H1723 C1736 0.960 . S
C1724 H1716 0.929 . S
C1724 C1725 1.377 . S
C1724 C1726 1.384 . S
C1725 C1724 1.377 . S
C1725 C1731 1.390 . S
C1726 H1717 0.930 . S
C1726 C1724 1.384 . S
C1726 C1727 1.372 . S
C1727 C1726 1.372 . S
C1727 C1728 1.400 . S
C1727 C1732 1.490 . S
C1728 H1718 0.930 . S
C1728 C1727 1.400 . S
C1728 C1731 1.386 . S
H1729 C1745 0.930 . S
H1730 C1746 0.931 . S
C1731 H1719 0.929 . S
C1731 C1725 1.390 . S
C1731 C1728 1.386 . S
C1732 C1727 1.490 . S
C1732 C1734 1.395 . S
C1732 C1735 1.403 . S
H1733 C1739 0.930 . S
C1734 H1720 0.930 . S
C1734 C1732 1.395 . S
C1734 C1737 1.403 . S
C1735 C1732 1.403 . S
C1735 C1736 1.524 . S
C1735 C1739 1.400 . S
C1736 H1721 0.960 . S
C1736 H1722 0.960 . S
C1736 H1723 0.960 . S
C1736 C1735 1.524 . S
C1737 C1734 1.403 . S
C1737 C1738 1.392 . S
C1737 C1741 1.495 . S
C1738 C1737 1.392 . S
C1738 C1739 1.385 . S
C1738 C1740 1.478 . S
C1739 H1733 0.930 . S
C1739 C1735 1.400 . S
C1739 C1738 1.385 . S
C1740 C1738 1.478 . S
C1740 C1742 1.381 . S
C1740 C1746 1.383 . S
C1741 C1737 1.495 . S
C1741 H1747 0.959 . S
C1741 H1748 0.961 . S
C1741 H1749 0.960 . S
C1742 C1740 1.381 . S
C1742 C1743 1.394 . S
C1742 H1750 0.930 . S
C1743 C1742 1.394 . S
C1743 C1744 1.383 . S
C1743 H1751 0.929 . S
C1744 C1743 1.383 . S
C1744 C1745 1.377 . S
C1745 H1729 0.930 . S
C1745 C1744 1.377 . S
C1745 C1746 1.379 . S
C1746 H1730 0.931 . S
C1746 C1740 1.383 . S
C1746 C1745 1.379 . S
H1747 C1741 0.959 . S
H1748 C1741 0.961 . S
H1749 C1741 0.960 . S
H1750 C1742 0.930 . S
H1751 C1743 0.929 . S
H1752 C1760 0.929 . S
H1753 C1762 0.930 . S
H1754 C1764 0.930 . S
H1755 C1767 0.929 . S
H1756 C1770 0.930 . S
H1757 C1772 0.960 . S
H1758 C1772 0.960 . S
H1759 C1772 0.960 . S
C1760 H1752 0.929 . S
C1760 C1761 1.377 . S
C1760 C1762 1.384 . S
C1761 C1760 1.377 . S
C1761 C1767 1.390 . S
C1762 H1753 0.930 . S
C1762 C1760 1.384 . S
C1762 C1763 1.372 . S
C1763 C1762 1.372 . S
C1763 C1764 1.400 . S
C1763 C1768 1.490 . S
C1764 H1754 0.930 . S
C1764 C1763 1.400 . S
C1764 C1767 1.386 . S
H1765 C1781 0.930 . S
H1766 C1782 0.931 . S
C1767 H1755 0.929 . S
C1767 C1761 1.390 . S
C1767 C1764 1.386 . S
C1768 C1763 1.490 . S
C1768 C1770 1.395 . S
C1768 C1771 1.403 . S
H1769 C1775 0.930 . S
C1770 H1756 0.930 . S
C1770 C1768 1.395 . S
C1770 C1773 1.403 . S
C1771 C1768 1.403 . S
C1771 C1772 1.524 . S
C1771 C1775 1.400 . S
C1772 H1757 0.960 . S
C1772 H1758 0.960 . S
C1772 H1759 0.960 . S
C1772 C1771 1.524 . S
C1773 C1770 1.403 . S
C1773 C1774 1.392 . S
C1773 C1777 1.495 . S
C1774 C1773 1.392 . S
C1774 C1775 1.385 . S
C1774 C1776 1.478 . S
C1775 H1769 0.930 . S
C1775 C1771 1.400 . S
C1775 C1774 1.385 . S
C1776 C1774 1.478 . S
C1776 C1778 1.381 . S
C1776 C1782 1.383 . S
C1777 C1773 1.495 . S
C1777 H1783 0.959 . S
C1777 H1784 0.961 . S
C1777 H1785 0.960 . S
C1778 C1776 1.381 . S
C1778 C1779 1.394 . S
C1778 H1786 0.930 . S
C1779 C1778 1.394 . S
C1779 C1780 1.383 . S
C1779 H1787 0.929 . S
C1780 C1779 1.383 . S
C1780 C1781 1.377 . S
C1781 H1765 0.930 . S
C1781 C1780 1.377 . S
C1781 C1782 1.379 . S
C1782 H1766 0.931 . S
C1782 C1776 1.383 . S
C1782 C1781 1.379 . S
H1783 C1777 0.959 . S
H1784 C1777 0.961 . S
H1785 C1777 0.960 . S
H1786 C1778 0.930 . S
H1787 C1779 0.929 . S
H1788 C1796 0.929 . S
H1789 C1798 0.930 . S
H1790 C1800 0.930 . S
H1791 C1803 0.929 . S
H1792 C1806 0.930 . S
H1793 C1808 0.960 . S
H1794 C1808 0.960 . S
H1795 C1808 0.960 . S
C1796 H1788 0.929 . S
C1796 C1797 1.377 . S
C1796 C1798 1.384 . S
C1797 C1796 1.377 . S
C1797 C1803 1.390 . S
C1798 H1789 0.930 . S
C1798 C1796 1.384 . S
C1798 C1799 1.372 . S
C1799 C1798 1.372 . S
C1799 C1800 1.400 . S
C1799 C1804 1.490 . S
C1800 H1790 0.930 . S
C1800 C1799 1.400 . S
C1800 C1803 1.386 . S
H1801 C1817 0.930 . S
H1802 C1818 0.931 . S
C1803 H1791 0.929 . S
C1803 C1797 1.390 . S
C1803 C1800 1.386 . S
C1804 C1799 1.490 . S
C1804 C1806 1.395 . S
C1804 C1807 1.403 . S
H1805 C1811 0.930 . S
C1806 H1792 0.930 . S
C1806 C1804 1.395 . S
C1806 C1809 1.403 . S
C1807 C1804 1.403 . S
C1807 C1808 1.524 . S
C1807 C1811 1.400 . S
C1808 H1793 0.960 . S
C1808 H1794 0.960 . S
C1808 H1795 0.960 . S
C1808 C1807 1.524 . S
C1809 C1806 1.403 . S
C1809 C1810 1.392 . S
C1809 C1813 1.495 . S
C1810 C1809 1.392 . S
C1810 C1811 1.385 . S
C1810 C1812 1.478 . S
C1811 H1805 0.930 . S
C1811 C1807 1.400 . S
C1811 C1810 1.385 . S
C1812 C1810 1.478 . S
C1812 C1814 1.381 . S
C1812 C1818 1.383 . S
C1813 C1809 1.495 . S
C1813 H1819 0.959 . S
C1813 H1820 0.961 . S
C1813 H1821 0.960 . S
C1814 C1812 1.381 . S
C1814 C1815 1.394 . S
C1814 H1822 0.930 . S
C1815 C1814 1.394 . S
C1815 C1816 1.383 . S
C1815 H1823 0.929 . S
C1816 C1815 1.383 . S
C1816 C1817 1.377 . S
C1817 H1801 0.930 . S
C1817 C1816 1.377 . S
C1817 C1818 1.379 . S
C1818 H1802 0.931 . S
C1818 C1812 1.383 . S
C1818 C1817 1.379 . S
H1819 C1813 0.959 . S
H1820 C1813 0.961 . S
H1821 C1813 0.960 . S
H1822 C1814 0.930 . S
H1823 C1815 0.929 . S
H1824 C1832 0.929 . S
H1825 C1834 0.930 . S
H1826 C1836 0.930 . S
H1827 C1839 0.929 . S
H1828 C1842 0.930 . S
H1829 C1844 0.960 . S
H1830 C1844 0.960 . S
H1831 C1844 0.960 . S
C1832 H1824 0.929 . S
C1832 C1833 1.377 . S
C1832 C1834 1.384 . S
C1833 C1832 1.377 . S
C1833 C1839 1.390 . S
C1834 H1825 0.930 . S
C1834 C1832 1.384 . S
C1834 C1835 1.372 . S
C1835 C1834 1.372 . S
C1835 C1836 1.400 . S
C1835 C1840 1.490 . S
C1836 H1826 0.930 . S
C1836 C1835 1.400 . S
C1836 C1839 1.386 . S
H1837 C1853 0.930 . S
H1838 C1854 0.931 . S
C1839 H1827 0.929 . S
C1839 C1833 1.390 . S
C1839 C1836 1.386 . S
C1840 C1835 1.490 . S
C1840 C1842 1.395 . S
C1840 C1843 1.403 . S
H1841 C1847 0.930 . S
C1842 H1828 0.930 . S
C1842 C1840 1.395 . S
C1842 C1845 1.403 . S
C1843 C1840 1.403 . S
C1843 C1844 1.524 . S
C1843 C1847 1.400 . S
C1844 H1829 0.960 . S
C1844 H1830 0.960 . S
C1844 H1831 0.960 . S
C1844 C1843 1.524 . S
C1845 C1842 1.403 . S
C1845 C1846 1.392 . S
C1845 C1849 1.495 . S
C1846 C1845 1.392 . S
C1846 C1847 1.385 . S
C1846 C1848 1.478 . S
C1847 H1841 0.930 . S
C1847 C1843 1.400 . S
C1847 C1846 1.385 . S
C1848 C1846 1.478 . S
C1848 C1850 1.381 . S
C1848 C1854 1.383 . S
C1849 C1845 1.495 . S
C1849 H1855 0.959 . S
C1849 H1856 0.961 . S
C1849 H1857 0.960 . S
C1850 C1848 1.381 . S
C1850 C1851 1.394 . S
C1850 H1858 0.930 . S
C1851 C1850 1.394 . S
C1851 C1852 1.383 . S
C1851 H1859 0.929 . S
C1852 C1851 1.383 . S
C1852 C1853 1.377 . S
C1853 H1837 0.930 . S
C1853 C1852 1.377 . S
C1853 C1854 1.379 . S
C1854 H1838 0.931 . S
C1854 C1848 1.383 . S
C1854 C1853 1.379 . S
H1855 C1849 0.959 . S
H1856 C1849 0.961 . S
H1857 C1849 0.960 . S
H1858 C1850 0.930 . S
H1859 C1851 0.929 . S
H1860 C1868 0.929 . S
H1861 C1870 0.930 . S
H1862 C1872 0.930 . S
H1863 C1875 0.929 . S
H1864 C1878 0.930 . S
H1865 C1880 0.960 . S
H1866 C1880 0.960 . S
H1867 C1880 0.960 . S
C1868 H1860 0.929 . S
C1868 C1869 1.377 . S
C1868 C1870 1.384 . S
C1869 C1868 1.377 . S
C1869 C1875 1.390 . S
C1870 H1861 0.930 . S
C1870 C1868 1.384 . S
C1870 C1871 1.372 . S
C1871 C1870 1.372 . S
C1871 C1872 1.400 . S
C1871 C1876 1.490 . S
C1872 H1862 0.930 . S
C1872 C1871 1.400 . S
C1872 C1875 1.386 . S
H1873 C1889 0.930 . S
H1874 C1890 0.931 . S
C1875 H1863 0.929 . S
C1875 C1869 1.390 . S
C1875 C1872 1.386 . S
C1876 C1871 1.490 . S
C1876 C1878 1.395 . S
C1876 C1879 1.403 . S
H1877 C1883 0.930 . S
C1878 H1864 0.930 . S
C1878 C1876 1.395 . S
C1878 C1881 1.403 . S
C1879 C1876 1.403 . S
C1879 C1880 1.524 . S
C1879 C1883 1.400 . S
C1880 H1865 0.960 . S
C1880 H1866 0.960 . S
C1880 H1867 0.960 . S
C1880 C1879 1.524 . S
C1881 C1878 1.403 . S
C1881 C1882 1.392 . S
C1881 C1885 1.495 . S
C1882 C1881 1.392 . S
C1882 C1883 1.385 . S
C1882 C1884 1.478 . S
C1883 H1877 0.930 . S
C1883 C1879 1.400 . S
C1883 C1882 1.385 . S
C1884 C1882 1.478 . S
C1884 C1886 1.381 . S
C1884 C1890 1.383 . S
C1885 C1881 1.495 . S
C1885 H1891 0.959 . S
C1885 H1892 0.961 . S
C1885 H1893 0.960 . S
C1886 C1884 1.381 . S
C1886 C1887 1.394 . S
C1886 H1894 0.930 . S
C1887 C1886 1.394 . S
C1887 C1888 1.383 . S
C1887 H1895 0.929 . S
C1888 C1887 1.383 . S
C1888 C1889 1.377 . S
C1889 H1873 0.930 . S
C1889 C1888 1.377 . S
C1889 C1890 1.379 . S
C1890 H1874 0.931 . S
C1890 C1884 1.383 . S
C1890 C1889 1.379 . S
H1891 C1885 0.959 . S
H1892 C1885 0.961 . S
H1893 C1885 0.960 . S
H1894 C1886 0.930 . S
H1895 C1887 0.929 . S
H1896 C1904 0.929 . S
H1897 C1906 0.930 . S
H1898 C1908 0.930 . S
H1899 C1911 0.929 . S
H1900 C1914 0.930 . S
H1901 C1916 0.960 . S
H1902 C1916 0.960 . S
H1903 C1916 0.960 . S
C1904 H1896 0.929 . S
C1904 C1905 1.377 . S
C1904 C1906 1.384 . S
C1905 C1904 1.377 . S
C1905 C1911 1.390 . S
C1906 H1897 0.930 . S
C1906 C1904 1.384 . S
C1906 C1907 1.372 . S
C1907 C1906 1.372 . S
C1907 C1908 1.400 . S
C1907 C1912 1.490 . S
C1908 H1898 0.930 . S
C1908 C1907 1.400 . S
C1908 C1911 1.386 . S
H1909 C1925 0.930 . S
H1910 C1926 0.931 . S
C1911 H1899 0.929 . S
C1911 C1905 1.390 . S
C1911 C1908 1.386 . S
C1912 C1907 1.490 . S
C1912 C1914 1.395 . S
C1912 C1915 1.403 . S
H1913 C1919 0.930 . S
C1914 H1900 0.930 . S
C1914 C1912 1.395 . S
C1914 C1917 1.403 . S
C1915 C1912 1.403 . S
C1915 C1916 1.524 . S
C1915 C1919 1.400 . S
C1916 H1901 0.960 . S
C1916 H1902 0.960 . S
C1916 H1903 0.960 . S
C1916 C1915 1.524 . S
C1917 C1914 1.403 . S
C1917 C1918 1.392 . S
C1917 C1921 1.495 . S
C1918 C1917 1.392 . S
C1918 C1919 1.385 . S
C1918 C1920 1.478 . S
C1919 H1913 0.930 . S
C1919 C1915 1.400 . S
C1919 C1918 1.385 . S
C1920 C1918 1.478 . S
C1920 C1922 1.381 . S
C1920 C1926 1.383 . S
C1921 C1917 1.495 . S
C1921 H1927 0.959 . S
C1921 H1928 0.961 . S
C1921 H1929 0.960 . S
C1922 C1920 1.381 . S
C1922 C1923 1.394 . S
C1922 H1930 0.930 . S
C1923 C1922 1.394 . S
C1923 C1924 1.383 . S
C1923 H1931 0.929 . S
C1924 C1923 1.383 . S
C1924 C1925 1.377 . S
C1925 H1909 0.930 . S
C1925 C1924 1.377 . S
C1925 C1926 1.379 . S
C1926 H1910 0.931 . S
C1926 C1920 1.383 . S
C1926 C1925 1.379 . S
H1927 C1921 0.959 . S
H1928 C1921 0.961 . S
H1929 C1921 0.960 . S
H1930 C1922 0.930 . S
H1931 C1923 0.929 . S
H1932 C1940 0.929 . S
H1933 C1942 0.930 . S
H1934 C1944 0.971 . S
H1935 C1947 0.989 . S
H1936 C1950 0.930 . S
H1937 C1952 0.960 . S
H1938 C1952 0.960 . S
H1939 C1952 0.960 . S
C1940 H1932 0.929 . S
C1940 C1941 1.377 . S
C1940 C1942 1.384 . S
C1941 C1940 1.377 . S
C1941 C1947 1.334 1_556 S
C1942 H1933 0.930 . S
C1942 C1940 1.384 . S
C1942 C1943 1.372 . S
C1943 C1942 1.372 . S
C1943 C1944 1.359 1_556 S
C1943 C1948 1.490 . S
C1944 H1934 0.971 . S
C1944 C1943 1.359 1_554 S
C1944 C1947 1.385 . S
H1945 C1961 0.930 . S
H1946 C1962 0.931 . S
C1947 H1935 0.989 . S
C1947 C1941 1.334 1_554 S
C1947 C1944 1.385 . S
C1948 C1943 1.490 . S
C1948 C1950 1.395 . S
C1948 C1951 1.403 . S
H1949 C1955 0.930 . S
C1950 H1936 0.930 . S
C1950 C1948 1.395 . S
C1950 C1953 1.403 . S
C1951 C1948 1.403 . S
C1951 C1952 1.524 . S
C1951 C1955 1.400 . S
C1952 H1937 0.960 . S
C1952 H1938 0.960 . S
C1952 H1939 0.960 . S
C1952 C1951 1.524 . S
C1953 C1950 1.403 . S
C1953 C1954 1.392 . S
C1953 C1957 1.495 . S
C1954 C1953 1.392 . S
C1954 C1955 1.385 . S
C1954 C1956 1.478 . S
C1955 H1949 0.930 . S
C1955 C1951 1.400 . S
C1955 C1954 1.385 . S
C1956 C1954 1.478 . S
C1956 C1958 1.381 . S
C1956 C1962 1.383 1_556 S
C1957 C1953 1.495 . S
C1957 H1963 0.959 . S
C1957 H1964 0.961 1_556 S
C1957 H1965 0.960 . S
C1958 C1956 1.381 . S
C1958 C1959 1.394 . S
C1958 H1966 0.930 . S
C1959 C1958 1.394 . S
C1959 C1960 1.383 . S
C1959 H1967 0.929 . S
C1960 C1959 1.383 . S
C1960 C1961 1.377 1_556 S
C1961 H1945 0.930 . S
C1961 C1960 1.377 1_554 S
C1961 C1962 1.379 . S
C1962 H1946 0.931 . S
C1962 C1956 1.383 1_554 S
C1962 C1961 1.379 . S
H1963 C1957 0.959 . S
H1964 C1957 0.961 1_554 S
H1965 C1957 0.960 . S
H1966 C1958 0.930 . S
H1967 C1959 0.929 . S
H1968 C1976 0.929 . S
H1969 C1978 0.930 . S
H1970 C1980 0.930 . S
H1971 C1983 0.929 . S
H1972 C1986 0.930 . S
H1973 C1988 0.960 . S
H1974 C1988 0.960 . S
H1975 C1988 0.960 . S
C1976 H1968 0.929 . S
C1976 C1977 1.377 . S
C1976 C1978 1.384 . S
C1977 C1976 1.377 . S
C1977 C1983 1.390 . S
C1978 H1969 0.930 . S
C1978 C1976 1.384 . S
C1978 C1979 1.372 . S
C1979 C1978 1.372 . S
C1979 C1980 1.400 . S
C1979 C1984 1.490 . S
C1980 H1970 0.930 . S
C1980 C1979 1.400 . S
C1980 C1983 1.386 . S
H1981 C1997 0.930 . S
H1982 C1998 0.931 . S
C1983 H1971 0.929 . S
C1983 C1977 1.390 . S
C1983 C1980 1.386 . S
C1984 C1979 1.490 . S
C1984 C1986 1.395 . S
C1984 C1987 1.403 . S
H1985 C1991 0.930 . S
C1986 H1972 0.930 . S
C1986 C1984 1.395 . S
C1986 C1989 1.403 . S
C1987 C1984 1.403 . S
C1987 C1988 1.524 . S
C1987 C1991 1.400 . S
C1988 H1973 0.960 . S
C1988 H1974 0.960 . S
C1988 H1975 0.960 . S
C1988 C1987 1.524 . S
C1989 C1986 1.403 . S
C1989 C1990 1.392 . S
C1989 C1993 1.495 . S
C1990 C1989 1.392 . S
C1990 C1991 1.385 . S
C1990 C1992 1.478 . S
C1991 H1985 0.930 . S
C1991 C1987 1.400 . S
C1991 C1990 1.385 . S
C1992 C1990 1.478 . S
C1992 C1994 1.381 . S
C1992 C1998 1.383 . S
C1993 C1989 1.495 . S
C1993 H1999 0.959 . S
C1993 H2000 0.961 . S
C1993 H2001 0.960 . S
C1994 C1992 1.381 . S
C1994 C1995 1.394 . S
C1994 H2002 0.930 . S
C1995 C1994 1.394 . S
C1995 C1996 1.383 . S
C1995 H2003 0.929 . S
C1996 C1995 1.383 . S
C1996 C1997 1.377 . S
C1997 H1981 0.930 . S
C1997 C1996 1.377 . S
C1997 C1998 1.379 . S
C1998 H1982 0.931 . S
C1998 C1992 1.383 . S
C1998 C1997 1.379 . S
H1999 C1993 0.959 . S
H2000 C1993 0.961 . S
H2001 C1993 0.960 . S
H2002 C1994 0.930 . S
H2003 C1995 0.929 . S
H2004 C2012 0.929 . S
H2005 C2014 0.930 . S
H2006 C2016 0.930 . S
H2007 C2019 0.929 . S
H2008 C2022 0.930 . S
H2009 C2024 0.960 . S
H2010 C2024 0.960 . S
H2011 C2024 0.960 . S
C2012 H2004 0.929 . S
C2012 C2013 1.377 . S
C2012 C2014 1.384 . S
C2013 C2012 1.377 . S
C2013 C2019 1.390 . S
C2014 H2005 0.930 . S
C2014 C2012 1.384 . S
C2014 C2015 1.372 . S
C2015 C2014 1.372 . S
C2015 C2016 1.400 . S
C2015 C2020 1.490 . S
C2016 H2006 0.930 . S
C2016 C2015 1.400 . S
C2016 C2019 1.386 . S
H2017 C2033 0.930 . S
H2018 C2034 0.931 . S
C2019 H2007 0.929 . S
C2019 C2013 1.390 . S
C2019 C2016 1.386 . S
C2020 C2015 1.490 . S
C2020 C2022 1.395 . S
C2020 C2023 1.403 . S
H2021 C2027 0.930 . S
C2022 H2008 0.930 . S
C2022 C2020 1.395 . S
C2022 C2025 1.403 . S
C2023 C2020 1.403 . S
C2023 C2024 1.524 . S
C2023 C2027 1.400 . S
C2024 H2009 0.960 . S
C2024 H2010 0.960 . S
C2024 H2011 0.960 . S
C2024 C2023 1.524 . S
C2025 C2022 1.403 . S
C2025 C2026 1.392 . S
C2025 C2029 1.495 . S
C2026 C2025 1.392 . S
C2026 C2027 1.385 . S
C2026 C2028 1.478 . S
C2027 H2021 0.930 . S
C2027 C2023 1.400 . S
C2027 C2026 1.385 . S
C2028 C2026 1.478 . S
C2028 C2030 1.381 . S
C2028 C2034 1.383 . S
C2029 C2025 1.495 . S
C2029 H2035 0.959 . S
C2029 H2036 0.961 . S
C2029 H2037 0.960 . S
C2030 C2028 1.381 . S
C2030 C2031 1.394 . S
C2030 H2038 0.930 . S
C2031 C2030 1.394 . S
C2031 C2032 1.383 . S
C2031 H2039 0.929 . S
C2032 C2031 1.383 . S
C2032 C2033 1.377 . S
C2033 H2017 0.930 . S
C2033 C2032 1.377 . S
C2033 C2034 1.379 . S
C2034 H2018 0.931 . S
C2034 C2028 1.383 . S
C2034 C2033 1.379 . S
H2035 C2029 0.959 . S
H2036 C2029 0.961 . S
H2037 C2029 0.960 . S
H2038 C2030 0.930 . S
H2039 C2031 0.929 . S
H2040 C2048 0.929 . S
H2041 C2050 0.930 . S
H2042 C2052 0.930 . S
H2043 C2055 0.929 . S
H2044 C2058 0.930 . S
H2045 C2060 0.960 . S
H2046 C2060 0.960 . S
H2047 C2060 0.960 . S
C2048 H2040 0.929 . S
C2048 C2049 1.377 . S
C2048 C2050 1.384 . S
C2049 C2048 1.377 . S
C2049 C2055 1.390 . S
C2050 H2041 0.930 . S
C2050 C2048 1.384 . S
C2050 C2051 1.372 . S
C2051 C2050 1.372 . S
C2051 C2052 1.400 . S
C2051 C2056 1.490 . S
C2052 H2042 0.930 . S
C2052 C2051 1.400 . S
C2052 C2055 1.386 . S
H2053 C2069 0.930 . S
H2054 C2070 0.931 . S
C2055 H2043 0.929 . S
C2055 C2049 1.390 . S
C2055 C2052 1.386 . S
C2056 C2051 1.490 . S
C2056 C2058 1.395 . S
C2056 C2059 1.403 . S
H2057 C2063 0.930 . S
C2058 H2044 0.930 . S
C2058 C2056 1.395 . S
C2058 C2061 1.403 . S
C2059 C2056 1.403 . S
C2059 C2060 1.524 . S
C2059 C2063 1.400 . S
C2060 H2045 0.960 . S
C2060 H2046 0.960 . S
C2060 H2047 0.960 . S
C2060 C2059 1.524 . S
C2061 C2058 1.403 . S
C2061 C2062 1.392 . S
C2061 C2065 1.495 . S
C2062 C2061 1.392 . S
C2062 C2063 1.385 . S
C2062 C2064 1.478 . S
C2063 H2057 0.930 . S
C2063 C2059 1.400 . S
C2063 C2062 1.385 . S
C2064 C2062 1.478 . S
C2064 C2066 1.381 . S
C2064 C2070 1.383 . S
C2065 C2061 1.495 . S
C2065 H2071 0.959 . S
C2065 H2072 0.961 . S
C2065 H2073 0.960 . S
C2066 C2064 1.381 . S
C2066 C2067 1.394 . S
C2066 H2074 0.930 . S
C2067 C2066 1.394 . S
C2067 C2068 1.383 . S
C2067 H2075 0.929 . S
C2068 C2067 1.383 . S
C2068 C2069 1.377 . S
C2069 H2053 0.930 . S
C2069 C2068 1.377 . S
C2069 C2070 1.379 . S
C2070 H2054 0.931 . S
C2070 C2064 1.383 . S
C2070 C2069 1.379 . S
H2071 C2065 0.959 . S
H2072 C2065 0.961 . S
H2073 C2065 0.960 . S
H2074 C2066 0.930 . S
H2075 C2067 0.929 . S
H2076 C2084 0.929 . S
H2077 C2086 0.930 . S
H2078 C2088 0.930 . S
H2079 C2091 0.929 . S
H2080 C2094 0.930 . S
H2081 C2096 0.960 . S
H2082 C2096 0.960 . S
H2083 C2096 0.960 . S
C2084 H2076 0.929 . S
C2084 C2085 1.377 . S
C2084 C2086 1.384 . S
C2085 C2084 1.377 . S
C2085 C2091 1.390 . S
C2086 H2077 0.930 . S
C2086 C2084 1.384 . S
C2086 C2087 1.372 . S
C2087 C2086 1.372 . S
C2087 C2088 1.400 . S
C2087 C2092 1.490 . S
C2088 H2078 0.930 . S
C2088 C2087 1.400 . S
C2088 C2091 1.386 . S
H2089 C2105 0.930 . S
H2090 C2106 0.931 . S
C2091 H2079 0.929 . S
C2091 C2085 1.390 . S
C2091 C2088 1.386 . S
C2092 C2087 1.490 . S
C2092 C2094 1.395 . S
C2092 C2095 1.403 . S
H2093 C2099 0.930 . S
C2094 H2080 0.930 . S
C2094 C2092 1.395 . S
C2094 C2097 1.403 . S
C2095 C2092 1.403 . S
C2095 C2096 1.524 . S
C2095 C2099 1.400 . S
C2096 H2081 0.960 . S
C2096 H2082 0.960 . S
C2096 H2083 0.960 . S
C2096 C2095 1.524 . S
C2097 C2094 1.403 . S
C2097 C2098 1.392 . S
C2097 C2101 1.495 . S
C2098 C2097 1.392 . S
C2098 C2099 1.385 . S
C2098 C2100 1.478 . S
C2099 H2093 0.930 . S
C2099 C2095 1.400 . S
C2099 C2098 1.385 . S
C2100 C2098 1.478 . S
C2100 C2102 1.381 . S
C2100 C2106 1.383 . S
C2101 C2097 1.495 . S
C2101 H2107 0.959 . S
C2101 H2108 0.961 . S
C2101 H2109 0.960 . S
C2102 C2100 1.381 . S
C2102 C2103 1.394 . S
C2102 H2110 0.930 . S
C2103 C2102 1.394 . S
C2103 C2104 1.383 . S
C2103 H2111 0.929 . S
C2104 C2103 1.383 . S
C2104 C2105 1.377 . S
C2105 H2089 0.930 . S
C2105 C2104 1.377 . S
C2105 C2106 1.379 . S
C2106 H2090 0.931 . S
C2106 C2100 1.383 . S
C2106 C2105 1.379 . S
H2107 C2101 0.959 . S
H2108 C2101 0.961 . S
H2109 C2101 0.960 . S
H2110 C2102 0.930 . S
H2111 C2103 0.929 . S
H2112 C2120 0.929 . S
H2113 C2122 0.930 . S
H2114 C2124 0.930 . S
H2115 C2127 0.929 . S
H2116 C2130 0.930 . S
H2117 C2132 0.960 . S
H2118 C2132 0.960 . S
H2119 C2132 0.960 . S
C2120 H2112 0.929 . S
C2120 C2121 1.377 . S
C2120 C2122 1.384 . S
C2121 C2120 1.377 . S
C2121 C2127 1.390 . S
C2122 H2113 0.930 . S
C2122 C2120 1.384 . S
C2122 C2123 1.372 . S
C2123 C2122 1.372 . S
C2123 C2124 1.400 . S
C2123 C2128 1.490 . S
C2124 H2114 0.930 . S
C2124 C2123 1.400 . S
C2124 C2127 1.386 . S
H2125 C2141 0.930 . S
H2126 C2142 0.931 . S
C2127 H2115 0.929 . S
C2127 C2121 1.390 . S
C2127 C2124 1.386 . S
C2128 C2123 1.490 . S
C2128 C2130 1.395 . S
C2128 C2131 1.403 . S
H2129 C2135 0.930 . S
C2130 H2116 0.930 . S
C2130 C2128 1.395 . S
C2130 C2133 1.403 . S
C2131 C2128 1.403 . S
C2131 C2132 1.524 . S
C2131 C2135 1.400 . S
C2132 H2117 0.960 . S
C2132 H2118 0.960 . S
C2132 H2119 0.960 . S
C2132 C2131 1.524 . S
C2133 C2130 1.403 . S
C2133 C2134 1.392 . S
C2133 C2137 1.495 . S
C2134 C2133 1.392 . S
C2134 C2135 1.385 . S
C2134 C2136 1.478 . S
C2135 H2129 0.930 . S
C2135 C2131 1.400 . S
C2135 C2134 1.385 . S
C2136 C2134 1.478 . S
C2136 C2138 1.381 . S
C2136 C2142 1.383 . S
C2137 C2133 1.495 . S
C2137 H2143 0.959 . S
C2137 H2144 0.961 . S
C2137 H2145 0.960 . S
C2138 C2136 1.381 . S
C2138 C2139 1.394 . S
C2138 H2146 0.930 . S
C2139 C2138 1.394 . S
C2139 C2140 1.383 . S
C2139 H2147 0.929 . S
C2140 C2139 1.383 . S
C2140 C2141 1.377 . S
C2141 H2125 0.930 . S
C2141 C2140 1.377 . S
C2141 C2142 1.379 . S
C2142 H2126 0.931 . S
C2142 C2136 1.383 . S
C2142 C2141 1.379 . S
H2143 C2137 0.959 . S
H2144 C2137 0.961 . S
H2145 C2137 0.960 . S
H2146 C2138 0.930 . S
H2147 C2139 0.929 . S
H2148 C2156 0.929 . S
H2149 C2158 0.930 . S
H2150 C2160 0.930 . S
H2151 C2163 0.929 . S
H2152 C2166 0.930 . S
H2153 C2168 0.960 . S
H2154 C2168 0.960 . S
H2155 C2168 0.960 . S
C2156 H2148 0.929 . S
C2156 C2157 1.377 . S
C2156 C2158 1.384 . S
C2157 C2156 1.377 . S
C2157 C2163 1.390 . S
C2158 H2149 0.930 . S
C2158 C2156 1.384 . S
C2158 C2159 1.372 . S
C2159 C2158 1.372 . S
C2159 C2160 1.400 . S
C2159 C2164 1.490 . S
C2160 H2150 0.930 . S
C2160 C2159 1.400 . S
C2160 C2163 1.386 . S
H2161 C2177 0.930 . S
H2162 C2178 0.931 . S
C2163 H2151 0.929 . S
C2163 C2157 1.390 . S
C2163 C2160 1.386 . S
C2164 C2159 1.490 . S
C2164 C2166 1.395 . S
C2164 C2167 1.403 . S
H2165 C2171 0.930 . S
C2166 H2152 0.930 . S
C2166 C2164 1.395 . S
C2166 C2169 1.403 . S
C2167 C2164 1.403 . S
C2167 C2168 1.524 . S
C2167 C2171 1.400 . S
C2168 H2153 0.960 . S
C2168 H2154 0.960 . S
C2168 H2155 0.960 . S
C2168 C2167 1.524 . S
C2169 C2166 1.403 . S
C2169 C2170 1.392 . S
C2169 C2173 1.495 . S
C2170 C2169 1.392 . S
C2170 C2171 1.385 . S
C2170 C2172 1.478 . S
C2171 H2165 0.930 . S
C2171 C2167 1.400 . S
C2171 C2170 1.385 . S
C2172 C2170 1.478 . S
C2172 C2174 1.381 . S
C2172 C2178 1.383 . S
C2173 C2169 1.495 . S
C2173 H2179 0.959 . S
C2173 H2180 0.961 . S
C2173 H2181 0.960 . S
C2174 C2172 1.381 . S
C2174 C2175 1.394 . S
C2174 H2182 0.930 . S
C2175 C2174 1.394 . S
C2175 C2176 1.383 . S
C2175 H2183 0.929 . S
C2176 C2175 1.383 . S
C2176 C2177 1.377 . S
C2177 H2161 0.930 . S
C2177 C2176 1.377 . S
C2177 C2178 1.379 . S
C2178 H2162 0.931 . S
C2178 C2172 1.383 . S
C2178 C2177 1.379 . S
H2179 C2173 0.959 . S
H2180 C2173 0.961 . S
H2181 C2173 0.960 . S
H2182 C2174 0.930 . S
H2183 C2175 0.929 . S
H2184 C2192 0.929 . S
H2185 C2194 0.930 . S
H2186 C2196 0.930 . S
H2187 C2199 0.929 . S
H2188 C2202 0.930 . S
H2189 C2204 0.960 . S
H2190 C2204 0.960 . S
H2191 C2204 0.960 . S
C2192 H2184 0.929 . S
C2192 C2193 1.377 . S
C2192 C2194 1.384 . S
C2193 C2192 1.377 . S
C2193 C2199 1.390 . S
C2194 H2185 0.930 . S
C2194 C2192 1.384 . S
C2194 C2195 1.372 . S
C2195 C2194 1.372 . S
C2195 C2196 1.400 . S
C2195 C2200 1.490 . S
C2196 H2186 0.930 . S
C2196 C2195 1.400 . S
C2196 C2199 1.386 . S
H2197 C2213 0.930 . S
H2198 C2214 0.931 . S
C2199 H2187 0.929 . S
C2199 C2193 1.390 . S
C2199 C2196 1.386 . S
C2200 C2195 1.490 . S
C2200 C2202 1.395 . S
C2200 C2203 1.403 . S
H2201 C2207 0.930 . S
C2202 H2188 0.930 . S
C2202 C2200 1.395 . S
C2202 C2205 1.403 . S
C2203 C2200 1.403 . S
C2203 C2204 1.524 . S
C2203 C2207 1.400 . S
C2204 H2189 0.960 . S
C2204 H2190 0.960 . S
C2204 H2191 0.960 . S
C2204 C2203 1.524 . S
C2205 C2202 1.403 . S
C2205 C2206 1.392 . S
C2205 C2209 1.495 . S
C2206 C2205 1.392 . S
C2206 C2207 1.385 . S
C2206 C2208 1.478 . S
C2207 H2201 0.930 . S
C2207 C2203 1.400 . S
C2207 C2206 1.385 . S
C2208 C2206 1.478 . S
C2208 C2210 1.381 . S
C2208 C2214 1.383 . S
C2209 C2205 1.495 . S
C2209 H2215 0.959 . S
C2209 H2216 0.961 . S
C2209 H2217 0.960 . S
C2210 C2208 1.381 . S
C2210 C2211 1.394 . S
C2210 H2218 0.930 . S
C2211 C2210 1.394 . S
C2211 C2212 1.383 . S
C2211 H2219 0.929 . S
C2212 C2211 1.383 . S
C2212 C2213 1.377 . S
C2213 H2197 0.930 . S
C2213 C2212 1.377 . S
C2213 C2214 1.379 . S
C2214 H2198 0.931 . S
C2214 C2208 1.383 . S
C2214 C2213 1.379 . S
H2215 C2209 0.959 . S
H2216 C2209 0.961 . S
H2217 C2209 0.960 . S
H2218 C2210 0.930 . S
H2219 C2211 0.929 . S
H2220 C2228 0.929 . S
H2221 C2230 0.930 . S
H2222 C2232 0.930 . S
H2223 C2235 0.929 . S
H2224 C2238 0.930 . S
H2225 C2240 0.960 . S
H2226 C2240 0.960 . S
H2227 C2240 0.960 . S
C2228 H2220 0.929 . S
C2228 C2229 1.377 . S
C2228 C2230 1.384 . S
C2229 C2228 1.377 . S
C2229 C2235 1.390 . S
C2230 H2221 0.930 . S
C2230 C2228 1.384 . S
C2230 C2231 1.372 . S
C2231 C2230 1.372 . S
C2231 C2232 1.400 . S
C2231 C2236 1.490 . S
C2232 H2222 0.930 . S
C2232 C2231 1.400 . S
C2232 C2235 1.386 . S
H2233 C2249 0.930 . S
H2234 C2250 0.931 . S
C2235 H2223 0.929 . S
C2235 C2229 1.390 . S
C2235 C2232 1.386 . S
C2236 C2231 1.490 . S
C2236 C2238 1.395 . S
C2236 C2239 1.403 . S
H2237 C2243 0.930 . S
C2238 H2224 0.930 . S
C2238 C2236 1.395 . S
C2238 C2241 1.403 . S
C2239 C2236 1.403 . S
C2239 C2240 1.524 . S
C2239 C2243 1.400 . S
C2240 H2225 0.960 . S
C2240 H2226 0.960 . S
C2240 H2227 0.960 . S
C2240 C2239 1.524 . S
C2241 C2238 1.403 . S
C2241 C2242 1.392 . S
C2241 C2245 1.495 . S
C2242 C2241 1.392 . S
C2242 C2243 1.385 . S
C2242 C2244 1.478 . S
C2243 H2237 0.930 . S
C2243 C2239 1.400 . S
C2243 C2242 1.385 . S
C2244 C2242 1.478 . S
C2244 C2246 1.381 . S
C2244 C2250 1.383 . S
C2245 C2241 1.495 . S
C2245 H2251 0.959 . S
C2245 H2252 0.961 . S
C2245 H2253 0.960 . S
C2246 C2244 1.381 . S
C2246 C2247 1.394 . S
C2246 H2254 0.930 . S
C2247 C2246 1.394 . S
C2247 C2248 1.383 . S
C2247 H2255 0.929 . S
C2248 C2247 1.383 . S
C2248 C2249 1.377 . S
C2249 H2233 0.930 . S
C2249 C2248 1.377 . S
C2249 C2250 1.379 . S
C2250 H2234 0.931 . S
C2250 C2244 1.383 . S
C2250 C2249 1.379 . S
H2251 C2245 0.959 . S
H2252 C2245 0.961 . S
H2253 C2245 0.960 . S
H2254 C2246 0.930 . S
H2255 C2247 0.929 . S
H2256 C2264 0.929 . S
H2257 C2266 0.930 . S
H2258 C2268 0.930 . S
H2259 C2271 0.929 . S
H2260 C2274 0.930 . S
H2261 C2276 0.960 . S
H2262 C2276 0.960 . S
H2263 C2276 0.960 . S
C2264 H2256 0.929 . S
C2264 C2265 1.377 . S
C2264 C2266 1.384 . S
C2265 C2264 1.377 . S
C2265 C2271 1.390 . S
C2266 H2257 0.930 . S
C2266 C2264 1.384 . S
C2266 C2267 1.372 . S
C2267 C2266 1.372 . S
C2267 C2268 1.400 . S
C2267 C2272 1.490 . S
C2268 H2258 0.930 . S
C2268 C2267 1.400 . S
C2268 C2271 1.386 . S
H2269 C2285 0.930 . S
H2270 C2286 0.931 . S
C2271 H2259 0.929 . S
C2271 C2265 1.390 . S
C2271 C2268 1.386 . S
C2272 C2267 1.490 . S
C2272 C2274 1.395 . S
C2272 C2275 1.403 . S
H2273 C2279 0.930 . S
C2274 H2260 0.930 . S
C2274 C2272 1.395 . S
C2274 C2277 1.403 . S
C2275 C2272 1.403 . S
C2275 C2276 1.524 . S
C2275 C2279 1.400 . S
C2276 H2261 0.960 . S
C2276 H2262 0.960 . S
C2276 H2263 0.960 . S
C2276 C2275 1.524 . S
C2277 C2274 1.403 . S
C2277 C2278 1.392 . S
C2277 C2281 1.495 . S
C2278 C2277 1.392 . S
C2278 C2279 1.385 . S
C2278 C2280 1.478 . S
C2279 H2273 0.930 . S
C2279 C2275 1.400 . S
C2279 C2278 1.385 . S
C2280 C2278 1.478 . S
C2280 C2282 1.381 . S
C2280 C2286 1.383 . S
C2281 C2277 1.495 . S
C2281 H2287 0.959 . S
C2281 H2288 0.961 . S
C2281 H2289 0.960 . S
C2282 C2280 1.381 . S
C2282 C2283 1.394 . S
C2282 H2290 0.930 . S
C2283 C2282 1.394 . S
C2283 C2284 1.383 . S
C2283 H2291 0.929 . S
C2284 C2283 1.383 . S
C2284 C2285 1.377 . S
C2285 H2269 0.930 . S
C2285 C2284 1.377 . S
C2285 C2286 1.379 . S
C2286 H2270 0.931 . S
C2286 C2280 1.383 . S
C2286 C2285 1.379 . S
H2287 C2281 0.959 . S
H2288 C2281 0.961 . S
H2289 C2281 0.960 . S
H2290 C2282 0.930 . S
H2291 C2283 0.929 . S
H2292 C2300 0.929 . S
H2293 C2302 0.930 . S
H2294 C2304 0.930 . S
H2295 C2307 0.929 . S
H2296 C2310 0.930 . S
H2297 C2312 0.960 . S
H2298 C2312 0.960 . S
H2299 C2312 0.960 . S
C2300 H2292 0.929 . S
C2300 C2301 1.377 . S
C2300 C2302 1.384 . S
C2301 C2300 1.377 . S
C2301 C2307 1.390 . S
C2302 H2293 0.930 . S
C2302 C2300 1.384 . S
C2302 C2303 1.372 . S
C2303 C2302 1.372 . S
C2303 C2304 1.400 . S
C2303 C2308 1.490 . S
C2304 H2294 0.930 . S
C2304 C2303 1.400 . S
C2304 C2307 1.386 . S
H2305 C2321 0.930 . S
H2306 C2322 0.931 . S
C2307 H2295 0.929 . S
C2307 C2301 1.390 . S
C2307 C2304 1.386 . S
C2308 C2303 1.490 . S
C2308 C2310 1.395 . S
C2308 C2311 1.403 . S
H2309 C2315 0.930 . S
C2310 H2296 0.930 . S
C2310 C2308 1.395 . S
C2310 C2313 1.403 . S
C2311 C2308 1.403 . S
C2311 C2312 1.524 . S
C2311 C2315 1.400 . S
C2312 H2297 0.960 . S
C2312 H2298 0.960 . S
C2312 H2299 0.960 . S
C2312 C2311 1.524 . S
C2313 C2310 1.403 . S
C2313 C2314 1.392 . S
C2313 C2317 1.495 . S
C2314 C2313 1.392 . S
C2314 C2315 1.385 . S
C2314 C2316 1.478 . S
C2315 H2309 0.930 . S
C2315 C2311 1.400 . S
C2315 C2314 1.385 . S
C2316 C2314 1.478 . S
C2316 C2318 1.381 . S
C2316 C2322 1.383 . S
C2317 C2313 1.495 . S
C2317 H2323 0.959 . S
C2317 H2324 0.961 . S
C2317 H2325 0.960 . S
C2318 C2316 1.381 . S
C2318 C2319 1.394 . S
C2318 H2326 0.930 . S
C2319 C2318 1.394 . S
C2319 C2320 1.383 . S
C2319 H2327 0.929 . S
C2320 C2319 1.383 . S
C2320 C2321 1.377 . S
C2321 H2305 0.930 . S
C2321 C2320 1.377 . S
C2321 C2322 1.379 . S
C2322 H2306 0.931 . S
C2322 C2316 1.383 . S
C2322 C2321 1.379 . S
H2323 C2317 0.959 . S
H2324 C2317 0.961 . S
H2325 C2317 0.960 . S
H2326 C2318 0.930 . S
H2327 C2319 0.929 . S
H2328 C2336 0.929 . S
H2329 C2338 0.930 . S
H2330 C2340 0.930 . S
H2331 C2343 0.929 . S
H2332 C2346 0.930 . S
H2333 C2348 0.960 . S
H2334 C2348 0.960 . S
H2335 C2348 0.960 . S
C2336 H2328 0.929 . S
C2336 C2337 1.377 . S
C2336 C2338 1.384 . S
C2337 C2336 1.377 . S
C2337 C2343 1.390 . S
C2338 H2329 0.930 . S
C2338 C2336 1.384 . S
C2338 C2339 1.372 . S
C2339 C2338 1.372 . S
C2339 C2340 1.400 . S
C2339 C2344 1.490 . S
C2340 H2330 0.930 . S
C2340 C2339 1.400 . S
C2340 C2343 1.386 . S
H2341 C2357 0.930 . S
H2342 C2358 0.931 . S
C2343 H2331 0.929 . S
C2343 C2337 1.390 . S
C2343 C2340 1.386 . S
C2344 C2339 1.490 . S
C2344 C2346 1.395 . S
C2344 C2347 1.403 . S
H2345 C2351 0.930 . S
C2346 H2332 0.930 . S
C2346 C2344 1.395 . S
C2346 C2349 1.403 . S
C2347 C2344 1.403 . S
C2347 C2348 1.524 . S
C2347 C2351 1.400 . S
C2348 H2333 0.960 . S
C2348 H2334 0.960 . S
C2348 H2335 0.960 . S
C2348 C2347 1.524 . S
C2349 C2346 1.403 . S
C2349 C2350 1.392 . S
C2349 C2353 1.495 . S
C2350 C2349 1.392 . S
C2350 C2351 1.385 . S
C2350 C2352 1.478 . S
C2351 H2345 0.930 . S
C2351 C2347 1.400 . S
C2351 C2350 1.385 . S
C2352 C2350 1.478 . S
C2352 C2354 1.381 . S
C2352 C2358 1.383 . S
C2353 C2349 1.495 . S
C2353 H2359 0.959 . S
C2353 H2360 0.961 . S
C2353 H2361 0.960 . S
C2354 C2352 1.381 . S
C2354 C2355 1.394 . S
C2354 H2362 0.930 . S
C2355 C2354 1.394 . S
C2355 C2356 1.383 . S
C2355 H2363 0.929 . S
C2356 C2355 1.383 . S
C2356 C2357 1.377 . S
C2357 H2341 0.930 . S
C2357 C2356 1.377 . S
C2357 C2358 1.379 . S
C2358 H2342 0.931 . S
C2358 C2352 1.383 . S
C2358 C2357 1.379 . S
H2359 C2353 0.959 . S
H2360 C2353 0.961 . S
H2361 C2353 0.960 . S
H2362 C2354 0.930 . S
H2363 C2355 0.929 . S
H2364 C2372 0.929 . S
H2365 C2374 0.930 . S
H2366 C2376 0.930 . S
H2367 C2379 0.929 . S
H2368 C2382 0.930 . S
H2369 C2384 0.960 . S
H2370 C2384 0.960 . S
H2371 C2384 0.960 . S
C2372 H2364 0.929 . S
C2372 C2373 1.377 . S
C2372 C2374 1.384 . S
C2373 C2372 1.377 . S
C2373 C2379 1.390 . S
C2374 H2365 0.930 . S
C2374 C2372 1.384 . S
C2374 C2375 1.372 . S
C2375 C2374 1.372 . S
C2375 C2376 1.400 . S
C2375 C2380 1.490 . S
C2376 H2366 0.930 . S
C2376 C2375 1.400 . S
C2376 C2379 1.386 . S
H2377 C2393 0.930 . S
H2378 C2394 0.931 . S
C2379 H2367 0.929 . S
C2379 C2373 1.390 . S
C2379 C2376 1.386 . S
C2380 C2375 1.490 . S
C2380 C2382 1.395 . S
C2380 C2383 1.403 . S
H2381 C2387 0.930 . S
C2382 H2368 0.930 . S
C2382 C2380 1.395 . S
C2382 C2385 1.403 . S
C2383 C2380 1.403 . S
C2383 C2384 1.524 . S
C2383 C2387 1.400 . S
C2384 H2369 0.960 . S
C2384 H2370 0.960 . S
C2384 H2371 0.960 . S
C2384 C2383 1.524 . S
C2385 C2382 1.403 . S
C2385 C2386 1.392 . S
C2385 C2389 1.495 . S
C2386 C2385 1.392 . S
C2386 C2387 1.385 . S
C2386 C2388 1.478 . S
C2387 H2381 0.930 . S
C2387 C2383 1.400 . S
C2387 C2386 1.385 . S
C2388 C2386 1.478 . S
C2388 C2390 1.381 . S
C2388 C2394 1.383 . S
C2389 C2385 1.495 . S
C2389 H2395 0.959 . S
C2389 H2396 0.961 . S
C2389 H2397 0.960 . S
C2390 C2388 1.381 . S
C2390 C2391 1.394 . S
C2390 H2398 0.930 . S
C2391 C2390 1.394 . S
C2391 C2392 1.383 . S
C2391 H2399 0.929 . S
C2392 C2391 1.383 . S
C2392 C2393 1.377 . S
C2393 H2377 0.930 . S
C2393 C2392 1.377 . S
C2393 C2394 1.379 . S
C2394 H2378 0.931 . S
C2394 C2388 1.383 . S
C2394 C2393 1.379 . S
H2395 C2389 0.959 . S
H2396 C2389 0.961 . S
H2397 C2389 0.960 . S
H2398 C2390 0.930 . S
H2399 C2391 0.929 . S
H2400 C2408 0.929 . S
H2401 C2410 0.930 . S
H2402 C2412 0.930 . S
H2403 C2415 0.929 . S
H2404 C2418 0.930 . S
H2405 C2420 0.960 . S
H2406 C2420 0.960 . S
H2407 C2420 0.960 . S
C2408 H2400 0.929 . S
C2408 C2409 1.377 . S
C2408 C2410 1.384 . S
C2409 C2408 1.377 . S
C2409 C2415 1.390 . S
C2410 H2401 0.930 . S
C2410 C2408 1.384 . S
C2410 C2411 1.372 . S
C2411 C2410 1.372 . S
C2411 C2412 1.400 . S
C2411 C2416 1.490 . S
C2412 H2402 0.930 . S
C2412 C2411 1.400 . S
C2412 C2415 1.386 . S
H2413 C2429 0.930 . S
H2414 C2430 0.931 . S
C2415 H2403 0.929 . S
C2415 C2409 1.390 . S
C2415 C2412 1.386 . S
C2416 C2411 1.490 . S
C2416 C2418 1.395 . S
C2416 C2419 1.403 . S
H2417 C2423 0.930 . S
C2418 H2404 0.930 . S
C2418 C2416 1.395 . S
C2418 C2421 1.403 . S
C2419 C2416 1.403 . S
C2419 C2420 1.524 . S
C2419 C2423 1.400 . S
C2420 H2405 0.960 . S
C2420 H2406 0.960 . S
C2420 H2407 0.960 . S
C2420 C2419 1.524 . S
C2421 C2418 1.403 . S
C2421 C2422 1.392 . S
C2421 C2425 1.495 . S
C2422 C2421 1.392 . S
C2422 C2423 1.385 . S
C2422 C2424 1.478 . S
C2423 H2417 0.930 . S
C2423 C2419 1.400 . S
C2423 C2422 1.385 . S
C2424 C2422 1.478 . S
C2424 C2426 1.381 . S
C2424 C2430 1.383 . S
C2425 C2421 1.495 . S
C2425 H2431 0.959 . S
C2425 H2432 0.961 . S
C2425 H2433 0.960 . S
C2426 C2424 1.381 . S
C2426 C2427 1.394 . S
C2426 H2434 0.930 . S
C2427 C2426 1.394 . S
C2427 C2428 1.383 . S
C2427 H2435 0.929 . S
C2428 C2427 1.383 . S
C2428 C2429 1.377 . S
C2429 H2413 0.930 . S
C2429 C2428 1.377 . S
C2429 C2430 1.379 . S
C2430 H2414 0.931 . S
C2430 C2424 1.383 . S
C2430 C2429 1.379 . S
H2431 C2425 0.959 . S
H2432 C2425 0.961 . S
H2433 C2425 0.960 . S
H2434 C2426 0.930 . S
H2435 C2427 0.929 . S
H2436 C2444 0.929 . S
H2437 C2446 0.930 . S
H2438 C2448 0.930 . S
H2439 C2451 0.929 . S
H2440 C2454 0.930 . S
H2441 C2456 0.960 . S
H2442 C2456 0.960 . S
H2443 C2456 0.960 . S
C2444 H2436 0.929 . S
C2444 C2445 1.377 . S
C2444 C2446 1.384 . S
C2445 C2444 1.377 . S
C2445 C2451 1.390 . S
C2446 H2437 0.930 . S
C2446 C2444 1.384 . S
C2446 C2447 1.372 . S
C2447 C2446 1.372 . S
C2447 C2448 1.400 . S
C2447 C2452 1.490 . S
C2448 H2438 0.930 . S
C2448 C2447 1.400 . S
C2448 C2451 1.386 . S
H2449 C2465 0.930 . S
H2450 C2466 0.931 . S
C2451 H2439 0.929 . S
C2451 C2445 1.390 . S
C2451 C2448 1.386 . S
C2452 C2447 1.490 . S
C2452 C2454 1.395 . S
C2452 C2455 1.403 . S
H2453 C2459 0.930 . S
C2454 H2440 0.930 . S
C2454 C2452 1.395 . S
C2454 C2457 1.403 . S
C2455 C2452 1.403 . S
C2455 C2456 1.524 . S
C2455 C2459 1.400 . S
C2456 H2441 0.960 . S
C2456 H2442 0.960 . S
C2456 H2443 0.960 . S
C2456 C2455 1.524 . S
C2457 C2454 1.403 . S
C2457 C2458 1.392 . S
C2457 C2461 1.495 . S
C2458 C2457 1.392 . S
C2458 C2459 1.385 . S
C2458 C2460 1.478 . S
C2459 H2453 0.930 . S
C2459 C2455 1.400 . S
C2459 C2458 1.385 . S
C2460 C2458 1.478 . S
C2460 C2462 1.381 . S
C2460 C2466 1.383 1_455 S
C2461 C2457 1.495 . S
C2461 H2467 0.959 . S
C2461 H2468 0.961 . S
C2461 H2469 0.960 . S
C2462 C2460 1.381 . S
C2462 C2463 1.394 . S
C2462 H2470 0.930 . S
C2463 C2462 1.394 . S
C2463 C2464 1.383 1_455 S
C2463 H2471 0.929 . S
C2464 C2463 1.383 1_655 S
C2464 C2465 1.377 . S
C2465 H2449 0.930 . S
C2465 C2464 1.377 . S
C2465 C2466 1.379 . S
C2466 H2450 0.931 . S
C2466 C2460 1.383 1_655 S
C2466 C2465 1.379 . S
H2467 C2461 0.959 . S
H2468 C2461 0.961 . S
H2469 C2461 0.960 . S
H2470 C2462 0.930 . S
H2471 C2463 0.929 . S
H2472 C2480 0.929 . S
H2473 C2482 0.930 . S
H2474 C2484 0.930 . S
H2475 C2487 0.929 . S
H2476 C2490 0.930 . S
H2477 C2492 0.960 . S
H2478 C2492 0.960 . S
H2479 C2492 0.960 . S
C2480 H2472 0.929 . S
C2480 C2481 1.377 . S
C2480 C2482 1.384 . S
C2481 C2480 1.377 . S
C2481 C2487 1.390 . S
C2482 H2473 0.930 . S
C2482 C2480 1.384 . S
C2482 C2483 1.372 . S
C2483 C2482 1.372 . S
C2483 C2484 1.400 . S
C2483 C2488 1.490 . S
C2484 H2474 0.930 . S
C2484 C2483 1.400 . S
C2484 C2487 1.386 . S
H2485 C2501 0.930 . S
H2486 C2502 0.931 . S
C2487 H2475 0.929 . S
C2487 C2481 1.390 . S
C2487 C2484 1.386 . S
C2488 C2483 1.490 . S
C2488 C2490 1.395 . S
C2488 C2491 1.403 . S
H2489 C2495 0.930 . S
C2490 H2476 0.930 . S
C2490 C2488 1.395 . S
C2490 C2493 1.403 . S
C2491 C2488 1.403 . S
C2491 C2492 1.524 . S
C2491 C2495 1.400 . S
C2492 H2477 0.960 . S
C2492 H2478 0.960 . S
C2492 H2479 0.960 . S
C2492 C2491 1.524 . S
C2493 C2490 1.403 . S
C2493 C2494 1.392 . S
C2493 C2497 1.495 . S
C2494 C2493 1.392 . S
C2494 C2495 1.385 . S
C2494 C2496 1.478 . S
C2495 H2489 0.930 . S
C2495 C2491 1.400 . S
C2495 C2494 1.385 . S
C2496 C2494 1.478 . S
C2496 C2498 1.381 . S
C2496 C2502 1.383 . S
C2497 C2493 1.495 . S
C2497 H2503 0.959 . S
C2497 H2504 0.961 . S
C2497 H2505 0.960 . S
C2498 C2496 1.381 . S
C2498 C2499 1.394 . S
C2498 H2506 0.930 . S
C2499 C2498 1.394 . S
C2499 C2500 1.383 . S
C2499 H2507 0.929 . S
C2500 C2499 1.383 . S
C2500 C2501 1.377 . S
C2501 H2485 0.930 . S
C2501 C2500 1.377 . S
C2501 C2502 1.379 . S
C2502 H2486 0.931 . S
C2502 C2496 1.383 . S
C2502 C2501 1.379 . S
H2503 C2497 0.959 . S
H2504 C2497 0.961 . S
H2505 C2497 0.960 . S
H2506 C2498 0.930 . S
H2507 C2499 0.929 . S
H2508 C2516 0.929 . S
H2509 C2518 0.930 . S
H2510 C2520 0.930 . S
H2511 C2523 0.929 . S
H2512 C2526 0.930 . S
H2513 C2528 0.960 . S
H2514 C2528 0.960 . S
H2515 C2528 0.960 . S
C2516 H2508 0.929 . S
C2516 C2517 1.377 . S
C2516 C2518 1.384 . S
C2517 C2516 1.377 . S
C2517 C2523 1.390 . S
C2518 H2509 0.930 . S
C2518 C2516 1.384 . S
C2518 C2519 1.372 . S
C2519 C2518 1.372 . S
C2519 C2520 1.400 . S
C2519 C2524 1.490 . S
C2520 H2510 0.930 . S
C2520 C2519 1.400 . S
C2520 C2523 1.386 . S
H2521 C2537 0.930 . S
H2522 C2538 0.931 . S
C2523 H2511 0.929 . S
C2523 C2517 1.390 . S
C2523 C2520 1.386 . S
C2524 C2519 1.490 . S
C2524 C2526 1.395 . S
C2524 C2527 1.403 . S
H2525 C2531 0.930 . S
C2526 H2512 0.930 . S
C2526 C2524 1.395 . S
C2526 C2529 1.403 . S
C2527 C2524 1.403 . S
C2527 C2528 1.524 . S
C2527 C2531 1.400 . S
C2528 H2513 0.960 . S
C2528 H2514 0.960 . S
C2528 H2515 0.960 . S
C2528 C2527 1.524 . S
C2529 C2526 1.403 . S
C2529 C2530 1.392 . S
C2529 C2533 1.495 . S
C2530 C2529 1.392 . S
C2530 C2531 1.385 . S
C2530 C2532 1.478 . S
C2531 H2525 0.930 . S
C2531 C2527 1.400 . S
C2531 C2530 1.385 . S
C2532 C2530 1.478 . S
C2532 C2534 1.381 . S
C2532 C2538 1.383 . S
C2533 C2529 1.495 . S
C2533 H2539 0.959 . S
C2533 H2540 0.961 . S
C2533 H2541 0.960 . S
C2534 C2532 1.381 . S
C2534 C2535 1.394 . S
C2534 H2542 0.930 . S
C2535 C2534 1.394 . S
C2535 C2536 1.383 . S
C2535 H2543 0.929 . S
C2536 C2535 1.383 . S
C2536 C2537 1.377 . S
C2537 H2521 0.930 . S
C2537 C2536 1.377 . S
C2537 C2538 1.379 . S
C2538 H2522 0.931 . S
C2538 C2532 1.383 . S
C2538 C2537 1.379 . S
H2539 C2533 0.959 . S
H2540 C2533 0.961 . S
H2541 C2533 0.960 . S
H2542 C2534 0.930 . S
H2543 C2535 0.929 . S
H2544 C2552 0.929 . S
H2545 C2554 0.930 . S
H2546 C2556 0.930 . S
H2547 C2559 0.929 . S
H2548 C2562 0.930 . S
H2549 C2564 0.960 . S
H2550 C2564 0.960 . S
H2551 C2564 0.960 . S
C2552 H2544 0.929 . S
C2552 C2553 1.377 . S
C2552 C2554 1.384 . S
C2553 C2552 1.377 . S
C2553 C2559 1.390 . S
C2554 H2545 0.930 . S
C2554 C2552 1.384 . S
C2554 C2555 1.372 . S
C2555 C2554 1.372 . S
C2555 C2556 1.400 . S
C2555 C2560 1.490 . S
C2556 H2546 0.930 . S
C2556 C2555 1.400 . S
C2556 C2559 1.386 . S
H2557 C2573 0.930 . S
H2558 C2574 0.931 . S
C2559 H2547 0.929 . S
C2559 C2553 1.390 . S
C2559 C2556 1.386 . S
C2560 C2555 1.490 . S
C2560 C2562 1.395 . S
C2560 C2563 1.403 . S
H2561 C2567 0.930 . S
C2562 H2548 0.930 . S
C2562 C2560 1.395 . S
C2562 C2565 1.403 . S
C2563 C2560 1.403 . S
C2563 C2564 1.524 . S
C2563 C2567 1.400 . S
C2564 H2549 0.960 . S
C2564 H2550 0.960 . S
C2564 H2551 0.960 . S
C2564 C2563 1.524 . S
C2565 C2562 1.403 . S
C2565 C2566 1.392 . S
C2565 C2569 1.495 . S
C2566 C2565 1.392 . S
C2566 C2567 1.385 . S
C2566 C2568 1.478 . S
C2567 H2561 0.930 . S
C2567 C2563 1.400 . S
C2567 C2566 1.385 . S
C2568 C2566 1.478 . S
C2568 C2570 1.381 . S
C2568 C2574 1.383 . S
C2569 C2565 1.495 . S
C2569 H2575 0.959 . S
C2569 H2576 0.961 . S
C2569 H2577 0.960 . S
C2570 C2568 1.381 . S
C2570 C2571 1.394 . S
C2570 H2578 0.930 . S
C2571 C2570 1.394 . S
C2571 C2572 1.383 . S
C2571 H2579 0.929 . S
C2572 C2571 1.383 . S
C2572 C2573 1.377 . S
C2573 H2557 0.930 . S
C2573 C2572 1.377 . S
C2573 C2574 1.379 . S
C2574 H2558 0.931 . S
C2574 C2568 1.383 . S
C2574 C2573 1.379 . S
H2575 C2569 0.959 . S
H2576 C2569 0.961 . S
H2577 C2569 0.960 . S
H2578 C2570 0.930 . S
H2579 C2571 0.929 . S
H2580 C2588 0.929 . S
H2581 C2590 0.930 . S
H2582 C2592 0.930 . S
H2583 C2595 0.929 . S
H2584 C2598 0.930 . S
H2585 C2600 0.960 . S
H2586 C2600 0.960 . S
H2587 C2600 0.960 . S
C2588 H2580 0.929 . S
C2588 C2589 1.377 . S
C2588 C2590 1.384 . S
C2589 C2588 1.377 . S
C2589 C2595 1.390 . S
C2590 H2581 0.930 . S
C2590 C2588 1.384 . S
C2590 C2591 1.372 . S
C2591 C2590 1.372 . S
C2591 C2592 1.400 . S
C2591 C2596 1.490 . S
C2592 H2582 0.930 . S
C2592 C2591 1.400 . S
C2592 C2595 1.386 . S
H2593 C2609 0.930 . S
H2594 C2610 0.931 . S
C2595 H2583 0.929 . S
C2595 C2589 1.390 . S
C2595 C2592 1.386 . S
C2596 C2591 1.490 . S
C2596 C2598 1.395 . S
C2596 C2599 1.403 . S
H2597 C2603 0.930 . S
C2598 H2584 0.930 . S
C2598 C2596 1.395 . S
C2598 C2601 1.403 . S
C2599 C2596 1.403 . S
C2599 C2600 1.524 . S
C2599 C2603 1.400 . S
C2600 H2585 0.960 . S
C2600 H2586 0.960 . S
C2600 H2587 0.960 . S
C2600 C2599 1.524 . S
C2601 C2598 1.403 . S
C2601 C2602 1.392 . S
C2601 C2605 1.495 . S
C2602 C2601 1.392 . S
C2602 C2603 1.385 . S
C2602 C2604 1.478 . S
C2603 H2597 0.930 . S
C2603 C2599 1.400 . S
C2603 C2602 1.385 . S
C2604 C2602 1.478 . S
C2604 C2606 1.381 . S
C2604 C2610 1.383 . S
C2605 C2601 1.495 . S
C2605 H2611 0.959 . S
C2605 H2612 0.961 . S
C2605 H2613 0.960 . S
C2606 C2604 1.381 . S
C2606 C2607 1.394 . S
C2606 H2614 0.930 . S
C2607 C2606 1.394 . S
C2607 C2608 1.383 . S
C2607 H2615 0.929 . S
C2608 C2607 1.383 . S
C2608 C2609 1.377 . S
C2609 H2593 0.930 . S
C2609 C2608 1.377 . S
C2609 C2610 1.379 . S
C2610 H2594 0.931 . S
C2610 C2604 1.383 . S
C2610 C2609 1.379 . S
H2611 C2605 0.959 . S
H2612 C2605 0.961 . S
H2613 C2605 0.960 . S
H2614 C2606 0.930 . S
H2615 C2607 0.929 . S
H2616 C2624 0.929 . S
H2617 C2626 0.930 . S
H2618 C2628 0.930 . S
H2619 C2631 0.929 . S
H2620 C2634 0.930 . S
H2621 C2636 0.960 . S
H2622 C2636 0.960 . S
H2623 C2636 0.960 . S
C2624 H2616 0.929 . S
C2624 C2625 1.377 . S
C2624 C2626 1.384 . S
C2625 C2624 1.377 . S
C2625 C2631 1.390 . S
C2626 H2617 0.930 . S
C2626 C2624 1.384 . S
C2626 C2627 1.372 . S
C2627 C2626 1.372 . S
C2627 C2628 1.400 . S
C2627 C2632 1.490 . S
C2628 H2618 0.930 . S
C2628 C2627 1.400 . S
C2628 C2631 1.386 . S
H2629 C2645 0.930 . S
H2630 C2646 0.931 . S
C2631 H2619 0.929 . S
C2631 C2625 1.390 . S
C2631 C2628 1.386 . S
C2632 C2627 1.490 . S
C2632 C2634 1.395 . S
C2632 C2635 1.403 . S
H2633 C2639 0.930 . S
C2634 H2620 0.930 . S
C2634 C2632 1.395 . S
C2634 C2637 1.403 . S
C2635 C2632 1.403 . S
C2635 C2636 1.524 . S
C2635 C2639 1.400 . S
C2636 H2621 0.960 . S
C2636 H2622 0.960 . S
C2636 H2623 0.960 . S
C2636 C2635 1.524 . S
C2637 C2634 1.403 . S
C2637 C2638 1.392 . S
C2637 C2641 1.495 . S
C2638 C2637 1.392 . S
C2638 C2639 1.385 . S
C2638 C2640 1.478 . S
C2639 H2633 0.930 . S
C2639 C2635 1.400 . S
C2639 C2638 1.385 . S
C2640 C2638 1.478 . S
C2640 C2642 1.381 . S
C2640 C2646 1.383 . S
C2641 C2637 1.495 . S
C2641 H2647 0.959 . S
C2641 H2648 0.961 . S
C2641 H2649 0.960 . S
C2642 C2640 1.381 . S
C2642 C2643 1.394 . S
C2642 H2650 0.930 . S
C2643 C2642 1.394 . S
C2643 C2644 1.383 . S
C2643 H2651 0.929 . S
C2644 C2643 1.383 . S
C2644 C2645 1.377 . S
C2645 H2629 0.930 . S
C2645 C2644 1.377 . S
C2645 C2646 1.379 . S
C2646 H2630 0.931 . S
C2646 C2640 1.383 . S
C2646 C2645 1.379 . S
H2647 C2641 0.959 . S
H2648 C2641 0.961 . S
H2649 C2641 0.960 . S
H2650 C2642 0.930 . S
H2651 C2643 0.929 . S
H2652 C2660 0.929 . S
H2653 C2662 0.930 . S
H2654 C2664 0.930 . S
H2655 C2667 0.929 . S
H2656 C2670 0.930 . S
H2657 C2672 0.960 . S
H2658 C2672 0.960 . S
H2659 C2672 0.960 . S
C2660 H2652 0.929 . S
C2660 C2661 1.377 . S
C2660 C2662 1.384 . S
C2661 C2660 1.377 . S
C2661 C2667 1.390 . S
C2662 H2653 0.930 . S
C2662 C2660 1.384 . S
C2662 C2663 1.372 . S
C2663 C2662 1.372 . S
C2663 C2664 1.400 . S
C2663 C2668 1.490 . S
C2664 H2654 0.930 . S
C2664 C2663 1.400 . S
C2664 C2667 1.386 . S
H2665 C2681 0.930 . S
H2666 C2682 0.931 . S
C2667 H2655 0.929 . S
C2667 C2661 1.390 . S
C2667 C2664 1.386 . S
C2668 C2663 1.490 . S
C2668 C2670 1.395 . S
C2668 C2671 1.403 . S
H2669 C2675 0.930 . S
C2670 H2656 0.930 . S
C2670 C2668 1.395 . S
C2670 C2673 1.403 . S
C2671 C2668 1.403 . S
C2671 C2672 1.524 . S
C2671 C2675 1.400 . S
C2672 H2657 0.960 . S
C2672 H2658 0.960 . S
C2672 H2659 0.960 . S
C2672 C2671 1.524 . S
C2673 C2670 1.403 . S
C2673 C2674 1.392 . S
C2673 C2677 1.495 . S
C2674 C2673 1.392 . S
C2674 C2675 1.385 . S
C2674 C2676 1.478 . S
C2675 H2669 0.930 . S
C2675 C2671 1.400 . S
C2675 C2674 1.385 . S
C2676 C2674 1.478 . S
C2676 C2678 1.381 . S
C2676 C2682 1.383 . S
C2677 C2673 1.495 . S
C2677 H2683 0.959 . S
C2677 H2684 0.961 . S
C2677 H2685 0.960 . S
C2678 C2676 1.381 . S
C2678 C2679 1.394 . S
C2678 H2686 0.930 . S
C2679 C2678 1.394 . S
C2679 C2680 1.383 . S
C2679 H2687 0.929 . S
C2680 C2679 1.383 . S
C2680 C2681 1.377 . S
C2681 H2665 0.930 . S
C2681 C2680 1.377 . S
C2681 C2682 1.379 . S
C2682 H2666 0.931 . S
C2682 C2676 1.383 . S
C2682 C2681 1.379 . S
H2683 C2677 0.959 . S
H2684 C2677 0.961 . S
H2685 C2677 0.960 . S
H2686 C2678 0.930 . S
H2687 C2679 0.929 . S
H2688 C2696 0.929 . S
H2689 C2698 0.930 . S
H2690 C2700 0.930 . S
H2691 C2703 0.929 . S
H2692 C2706 0.930 . S
H2693 C2708 0.960 . S
H2694 C2708 0.960 . S
H2695 C2708 0.960 . S
C2696 H2688 0.929 . S
C2696 C2697 1.377 . S
C2696 C2698 1.384 . S
C2697 C2696 1.377 . S
C2697 C2703 1.390 . S
C2698 H2689 0.930 . S
C2698 C2696 1.384 . S
C2698 C2699 1.372 . S
C2699 C2698 1.372 . S
C2699 C2700 1.400 . S
C2699 C2704 1.490 . S
C2700 H2690 0.930 . S
C2700 C2699 1.400 . S
C2700 C2703 1.386 . S
H2701 C2717 0.930 . S
H2702 C2718 0.931 . S
C2703 H2691 0.929 . S
C2703 C2697 1.390 . S
C2703 C2700 1.386 . S
C2704 C2699 1.490 . S
C2704 C2706 1.395 . S
C2704 C2707 1.403 . S
H2705 C2711 0.930 . S
C2706 H2692 0.930 . S
C2706 C2704 1.395 . S
C2706 C2709 1.403 . S
C2707 C2704 1.403 . S
C2707 C2708 1.524 . S
C2707 C2711 1.400 . S
C2708 H2693 0.960 . S
C2708 H2694 0.960 . S
C2708 H2695 0.960 . S
C2708 C2707 1.524 . S
C2709 C2706 1.403 . S
C2709 C2710 1.392 . S
C2709 C2713 1.495 . S
C2710 C2709 1.392 . S
C2710 C2711 1.385 . S
C2710 C2712 1.478 . S
C2711 H2705 0.930 . S
C2711 C2707 1.400 . S
C2711 C2710 1.385 . S
C2712 C2710 1.478 . S
C2712 C2714 1.381 . S
C2712 C2718 1.383 . S
C2713 C2709 1.495 . S
C2713 H2719 0.959 . S
C2713 H2720 0.961 . S
C2713 H2721 0.960 . S
C2714 C2712 1.381 . S
C2714 C2715 1.394 . S
C2714 H2722 0.930 . S
C2715 C2714 1.394 . S
C2715 C2716 1.383 . S
C2715 H2723 0.929 . S
C2716 C2715 1.383 . S
C2716 C2717 1.377 . S
C2717 H2701 0.930 . S
C2717 C2716 1.377 . S
C2717 C2718 1.379 . S
C2718 H2702 0.931 . S
C2718 C2712 1.383 . S
C2718 C2717 1.379 . S
H2719 C2713 0.959 . S
H2720 C2713 0.961 . S
H2721 C2713 0.960 . S
H2722 C2714 0.930 . S
H2723 C2715 0.929 . S
H2724 C2732 0.929 . S
H2725 C2734 0.930 . S
H2726 C2736 0.930 . S
H2727 C2739 0.929 . S
H2728 C2742 0.930 . S
H2729 C2744 0.960 . S
H2730 C2744 0.960 . S
H2731 C2744 0.960 . S
C2732 H2724 0.929 . S
C2732 C2733 1.377 . S
C2732 C2734 1.384 . S
C2733 C2732 1.377 . S
C2733 C2739 1.390 . S
C2734 H2725 0.930 . S
C2734 C2732 1.384 . S
C2734 C2735 1.372 . S
C2735 C2734 1.372 . S
C2735 C2736 1.400 . S
C2735 C2740 1.490 . S
C2736 H2726 0.930 . S
C2736 C2735 1.400 . S
C2736 C2739 1.386 . S
H2737 C2753 0.930 . S
H2738 C2754 0.931 . S
C2739 H2727 0.929 . S
C2739 C2733 1.390 . S
C2739 C2736 1.386 . S
C2740 C2735 1.490 . S
C2740 C2742 1.395 . S
C2740 C2743 1.403 . S
H2741 C2747 0.930 . S
C2742 H2728 0.930 . S
C2742 C2740 1.395 . S
C2742 C2745 1.403 . S
C2743 C2740 1.403 . S
C2743 C2744 1.524 . S
C2743 C2747 1.400 . S
C2744 H2729 0.960 . S
C2744 H2730 0.960 . S
C2744 H2731 0.960 . S
C2744 C2743 1.524 . S
C2745 C2742 1.403 . S
C2745 C2746 1.392 . S
C2745 C2749 1.495 . S
C2746 C2745 1.392 . S
C2746 C2747 1.385 . S
C2746 C2748 1.478 . S
C2747 H2741 0.930 . S
C2747 C2743 1.400 . S
C2747 C2746 1.385 . S
C2748 C2746 1.478 . S
C2748 C2750 1.381 . S
C2748 C2754 1.383 . S
C2749 C2745 1.495 . S
C2749 H2755 0.959 . S
C2749 H2756 0.961 . S
C2749 H2757 0.960 . S
C2750 C2748 1.381 . S
C2750 C2751 1.394 . S
C2750 H2758 0.930 . S
C2751 C2750 1.394 . S
C2751 C2752 1.383 . S
C2751 H2759 0.929 . S
C2752 C2751 1.383 . S
C2752 C2753 1.377 . S
C2753 H2737 0.930 . S
C2753 C2752 1.377 . S
C2753 C2754 1.379 . S
C2754 H2738 0.931 . S
C2754 C2748 1.383 . S
C2754 C2753 1.379 . S
H2755 C2749 0.959 . S
H2756 C2749 0.961 . S
H2757 C2749 0.960 . S
H2758 C2750 0.930 . S
H2759 C2751 0.929 . S
H2760 C2768 0.929 . S
H2761 C2770 0.930 . S
H2762 C2772 0.930 . S
H2763 C2775 0.929 . S
H2764 C2778 0.930 . S
H2765 C2780 0.960 . S
H2766 C2780 0.960 . S
H2767 C2780 0.960 . S
C2768 H2760 0.929 . S
C2768 C2769 1.377 . S
C2768 C2770 1.384 . S
C2769 C2768 1.377 . S
C2769 C2775 1.390 . S
C2770 H2761 0.930 . S
C2770 C2768 1.384 . S
C2770 C2771 1.372 . S
C2771 C2770 1.372 . S
C2771 C2772 1.400 . S
C2771 C2776 1.490 . S
C2772 H2762 0.930 . S
C2772 C2771 1.400 . S
C2772 C2775 1.386 . S
H2773 C2789 0.930 . S
H2774 C2790 0.931 . S
C2775 H2763 0.929 . S
C2775 C2769 1.390 . S
C2775 C2772 1.386 . S
C2776 C2771 1.490 . S
C2776 C2778 1.395 . S
C2776 C2779 1.403 . S
H2777 C2783 0.930 . S
C2778 H2764 0.930 . S
C2778 C2776 1.395 . S
C2778 C2781 1.403 . S
C2779 C2776 1.403 . S
C2779 C2780 1.524 . S
C2779 C2783 1.400 . S
C2780 H2765 0.960 . S
C2780 H2766 0.960 . S
C2780 H2767 0.960 . S
C2780 C2779 1.524 . S
C2781 C2778 1.403 . S
C2781 C2782 1.392 . S
C2781 C2785 1.495 . S
C2782 C2781 1.392 . S
C2782 C2783 1.385 . S
C2782 C2784 1.478 . S
C2783 H2777 0.930 . S
C2783 C2779 1.400 . S
C2783 C2782 1.385 . S
C2784 C2782 1.478 . S
C2784 C2786 1.381 . S
C2784 C2790 1.383 . S
C2785 C2781 1.495 . S
C2785 H2791 0.959 . S
C2785 H2792 0.961 . S
C2785 H2793 0.960 . S
C2786 C2784 1.381 . S
C2786 C2787 1.394 1_545 S
C2786 H2794 0.930 . S
C2787 C2786 1.394 1_565 S
C2787 C2788 1.383 . S
C2787 H2795 0.929 . S
C2788 C2787 1.383 . S
C2788 C2789 1.377 . S
C2789 H2773 0.930 . S
C2789 C2788 1.377 . S
C2789 C2790 1.379 1_565 S
C2790 H2774 0.931 . S
C2790 C2784 1.383 . S
C2790 C2789 1.379 1_545 S
H2791 C2785 0.959 . S
H2792 C2785 0.961 . S
H2793 C2785 0.960 . S
H2794 C2786 0.930 . S
H2795 C2787 0.929 . S
H2796 C2804 0.929 . S
H2797 C2806 0.930 . S
H2798 C2808 0.930 . S
H2799 C2811 0.929 . S
H2800 C2814 0.930 . S
H2801 C2816 0.960 . S
H2802 C2816 0.960 . S
H2803 C2816 0.960 . S
C2804 H2796 0.929 . S
C2804 C2805 1.377 . S
C2804 C2806 1.384 . S
C2805 C2804 1.377 . S
C2805 C2811 1.390 . S
C2806 H2797 0.930 . S
C2806 C2804 1.384 . S
C2806 C2807 1.372 . S
C2807 C2806 1.372 . S
C2807 C2808 1.400 . S
C2807 C2812 1.490 . S
C2808 H2798 0.930 . S
C2808 C2807 1.400 . S
C2808 C2811 1.386 . S
H2809 C2825 0.930 . S
H2810 C2826 0.931 . S
C2811 H2799 0.929 . S
C2811 C2805 1.390 . S
C2811 C2808 1.386 . S
C2812 C2807 1.490 . S
C2812 C2814 1.395 . S
C2812 C2815 1.403 . S
H2813 C2819 0.930 . S
C2814 H2800 0.930 . S
C2814 C2812 1.395 . S
C2814 C2817 1.403 . S
C2815 C2812 1.403 . S
C2815 C2816 1.524 . S
C2815 C2819 1.400 . S
C2816 H2801 0.960 . S
C2816 H2802 0.960 . S
C2816 H2803 0.960 . S
C2816 C2815 1.524 . S
C2817 C2814 1.403 . S
C2817 C2818 1.392 . S
C2817 C2821 1.495 . S
C2818 C2817 1.392 . S
C2818 C2819 1.385 . S
C2818 C2820 1.478 . S
C2819 H2813 0.930 . S
C2819 C2815 1.400 . S
C2819 C2818 1.385 . S
C2820 C2818 1.478 . S
C2820 C2822 1.381 . S
C2820 C2826 1.383 . S
C2821 C2817 1.495 . S
C2821 H2827 0.959 . S
C2821 H2828 0.961 . S
C2821 H2829 0.960 . S
C2822 C2820 1.381 . S
C2822 C2823 1.394 . S
C2822 H2830 0.930 . S
C2823 C2822 1.394 . S
C2823 C2824 1.383 . S
C2823 H2831 0.929 . S
C2824 C2823 1.383 . S
C2824 C2825 1.377 . S
C2825 H2809 0.930 . S
C2825 C2824 1.377 . S
C2825 C2826 1.379 . S
C2826 H2810 0.931 . S
C2826 C2820 1.383 . S
C2826 C2825 1.379 . S
H2827 C2821 0.959 . S
H2828 C2821 0.961 . S
H2829 C2821 0.960 . S
H2830 C2822 0.930 . S
H2831 C2823 0.929 . S
H2832 C2840 0.929 . S
H2833 C2842 0.930 . S
H2834 C2844 0.930 . S
H2835 C2847 0.929 . S
H2836 C2850 0.930 . S
H2837 C2852 0.960 . S
H2838 C2852 0.960 . S
H2839 C2852 0.960 . S
C2840 H2832 0.929 . S
C2840 C2841 1.377 . S
C2840 C2842 1.384 . S
C2841 C2840 1.377 . S
C2841 C2847 1.390 . S
C2842 H2833 0.930 . S
C2842 C2840 1.384 . S
C2842 C2843 1.372 . S
C2843 C2842 1.372 . S
C2843 C2844 1.400 . S
C2843 C2848 1.490 . S
C2844 H2834 0.930 . S
C2844 C2843 1.400 . S
C2844 C2847 1.386 . S
H2845 C2861 0.930 . S
H2846 C2862 0.931 . S
C2847 H2835 0.929 . S
C2847 C2841 1.390 . S
C2847 C2844 1.386 . S
C2848 C2843 1.490 . S
C2848 C2850 1.395 . S
C2848 C2851 1.403 . S
H2849 C2855 0.930 . S
C2850 H2836 0.930 . S
C2850 C2848 1.395 . S
C2850 C2853 1.403 . S
C2851 C2848 1.403 . S
C2851 C2852 1.524 . S
C2851 C2855 1.400 . S
C2852 H2837 0.960 . S
C2852 H2838 0.960 . S
C2852 H2839 0.960 . S
C2852 C2851 1.524 . S
C2853 C2850 1.403 . S
C2853 C2854 1.392 . S
C2853 C2857 1.495 . S
C2854 C2853 1.392 . S
C2854 C2855 1.385 . S
C2854 C2856 1.478 . S
C2855 H2849 0.930 . S
C2855 C2851 1.400 . S
C2855 C2854 1.385 . S
C2856 C2854 1.478 . S
C2856 C2858 1.381 . S
C2856 C2862 1.383 . S
C2857 C2853 1.495 . S
C2857 H2863 0.959 . S
C2857 H2864 0.961 . S
C2857 H2865 0.960 . S
C2858 C2856 1.381 . S
C2858 C2859 1.394 . S
C2858 H2866 0.930 . S
C2859 C2858 1.394 . S
C2859 C2860 1.383 . S
C2859 H2867 0.929 . S
C2860 C2859 1.383 . S
C2860 C2861 1.377 . S
C2861 H2845 0.930 . S
C2861 C2860 1.377 . S
C2861 C2862 1.379 . S
C2862 H2846 0.931 . S
C2862 C2856 1.383 . S
C2862 C2861 1.379 . S
H2863 C2857 0.959 . S
H2864 C2857 0.961 . S
H2865 C2857 0.960 . S
H2866 C2858 0.930 . S
H2867 C2859 0.929 . S
H2868 C2876 0.929 . S
H2869 C2878 0.930 . S
H2870 C2880 0.930 . S
H2871 C2883 0.929 . S
H2872 C2886 0.930 . S
H2873 C2888 0.960 . S
H2874 C2888 0.960 . S
H2875 C2888 0.960 . S
C2876 H2868 0.929 . S
C2876 C2877 1.377 . S
C2876 C2878 1.384 . S
C2877 C2876 1.377 . S
C2877 C2883 1.390 . S
C2878 H2869 0.930 . S
C2878 C2876 1.384 . S
C2878 C2879 1.372 . S
C2879 C2878 1.372 . S
C2879 C2880 1.400 . S
C2879 C2884 1.490 . S
C2880 H2870 0.930 . S
C2880 C2879 1.400 . S
C2880 C2883 1.386 . S
H2881 C2897 0.930 . S
H2882 C2898 0.931 . S
C2883 H2871 0.929 . S
C2883 C2877 1.390 . S
C2883 C2880 1.386 . S
C2884 C2879 1.490 . S
C2884 C2886 1.395 . S
C2884 C2887 1.403 . S
H2885 C2891 0.930 . S
C2886 H2872 0.930 . S
C2886 C2884 1.395 . S
C2886 C2889 1.403 . S
C2887 C2884 1.403 . S
C2887 C2888 1.524 . S
C2887 C2891 1.400 . S
C2888 H2873 0.960 . S
C2888 H2874 0.960 . S
C2888 H2875 0.960 . S
C2888 C2887 1.524 . S
C2889 C2886 1.403 . S
C2889 C2890 1.392 . S
C2889 C2893 1.495 . S
C2890 C2889 1.392 . S
C2890 C2891 1.385 . S
C2890 C2892 1.478 . S
C2891 H2885 0.930 . S
C2891 C2887 1.400 . S
C2891 C2890 1.385 . S
C2892 C2890 1.478 . S
C2892 C2894 1.381 . S
C2892 C2898 1.383 . S
C2893 C2889 1.495 . S
C2893 H2899 0.959 . S
C2893 H2900 0.961 . S
C2893 H2901 0.960 . S
C2894 C2892 1.381 . S
C2894 C2895 1.394 . S
C2894 H2902 0.930 . S
C2895 C2894 1.394 . S
C2895 C2896 1.383 . S
C2895 H2903 0.929 . S
C2896 C2895 1.383 . S
C2896 C2897 1.377 . S
C2897 H2881 0.930 . S
C2897 C2896 1.377 . S
C2897 C2898 1.379 . S
C2898 H2882 0.931 . S
C2898 C2892 1.383 . S
C2898 C2897 1.379 . S
H2899 C2893 0.959 . S
H2900 C2893 0.961 . S
H2901 C2893 0.960 . S
H2902 C2894 0.930 . S
H2903 C2895 0.929 . S
H2904 C2912 0.929 . S
H2905 C2914 0.930 . S
H2906 C2916 0.930 . S
H2907 C2919 0.929 . S
H2908 C2922 0.930 . S
H2909 C2924 0.960 . S
H2910 C2924 0.960 . S
H2911 C2924 0.960 . S
C2912 H2904 0.929 . S
C2912 C2913 1.377 . S
C2912 C2914 1.384 . S
C2913 C2912 1.377 . S
C2913 C2919 1.390 . S
C2914 H2905 0.930 . S
C2914 C2912 1.384 . S
C2914 C2915 1.372 . S
C2915 C2914 1.372 . S
C2915 C2916 1.400 . S
C2915 C2920 1.490 . S
C2916 H2906 0.930 . S
C2916 C2915 1.400 . S
C2916 C2919 1.386 . S
H2917 C2933 0.930 . S
H2918 C2934 0.931 . S
C2919 H2907 0.929 . S
C2919 C2913 1.390 . S
C2919 C2916 1.386 . S
C2920 C2915 1.490 . S
C2920 C2922 1.395 . S
C2920 C2923 1.403 . S
H2921 C2927 0.930 . S
C2922 H2908 0.930 . S
C2922 C2920 1.395 . S
C2922 C2925 1.403 . S
C2923 C2920 1.403 . S
C2923 C2924 1.524 . S
C2923 C2927 1.400 . S
C2924 H2909 0.960 . S
C2924 H2910 0.960 . S
C2924 H2911 0.960 . S
C2924 C2923 1.524 . S
C2925 C2922 1.403 . S
C2925 C2926 1.392 . S
C2925 C2929 1.495 . S
C2926 C2925 1.392 . S
C2926 C2927 1.385 . S
C2926 C2928 1.478 . S
C2927 H2921 0.930 . S
C2927 C2923 1.400 . S
C2927 C2926 1.385 . S
C2928 C2926 1.478 . S
C2928 C2930 1.381 . S
C2928 C2934 1.383 . S
C2929 C2925 1.495 . S
C2929 H2935 0.959 . S
C2929 H2936 0.961 . S
C2929 H2937 0.960 . S
C2930 C2928 1.381 . S
C2930 C2931 1.394 . S
C2930 H2938 0.930 . S
C2931 C2930 1.394 . S
C2931 C2932 1.383 . S
C2931 H2939 0.929 . S
C2932 C2931 1.383 . S
C2932 C2933 1.377 . S
C2933 H2917 0.930 . S
C2933 C2932 1.377 . S
C2933 C2934 1.379 . S
C2934 H2918 0.931 . S
C2934 C2928 1.383 . S
C2934 C2933 1.379 . S
H2935 C2929 0.959 . S
H2936 C2929 0.961 . S
H2937 C2929 0.960 . S
H2938 C2930 0.930 . S
H2939 C2931 0.929 . S
H2940 C2948 0.929 . S
H2941 C2950 0.930 . S
H2942 C2952 0.930 . S
H2943 C2955 0.929 . S
H2944 C2958 0.930 . S
H2945 C2960 0.960 . S
H2946 C2960 0.960 . S
H2947 C2960 0.960 . S
C2948 H2940 0.929 . S
C2948 C2949 1.377 . S
C2948 C2950 1.384 . S
C2949 C2948 1.377 . S
C2949 C2955 1.390 . S
C2950 H2941 0.930 . S
C2950 C2948 1.384 . S
C2950 C2951 1.372 . S
C2951 C2950 1.372 . S
C2951 C2952 1.400 . S
C2951 C2956 1.490 . S
C2952 H2942 0.930 . S
C2952 C2951 1.400 . S
C2952 C2955 1.386 . S
H2953 C2969 0.930 . S
H2954 C2970 0.931 . S
C2955 H2943 0.929 . S
C2955 C2949 1.390 . S
C2955 C2952 1.386 . S
C2956 C2951 1.490 . S
C2956 C2958 1.395 . S
C2956 C2959 1.403 . S
H2957 C2963 0.930 . S
C2958 H2944 0.930 . S
C2958 C2956 1.395 . S
C2958 C2961 1.403 . S
C2959 C2956 1.403 . S
C2959 C2960 1.524 . S
C2959 C2963 1.400 . S
C2960 H2945 0.960 . S
C2960 H2946 0.960 . S
C2960 H2947 0.960 . S
C2960 C2959 1.524 . S
C2961 C2958 1.403 . S
C2961 C2962 1.392 . S
C2961 C2965 1.495 . S
C2962 C2961 1.392 . S
C2962 C2963 1.385 . S
C2962 C2964 1.478 . S
C2963 H2957 0.930 . S
C2963 C2959 1.400 . S
C2963 C2962 1.385 . S
C2964 C2962 1.478 . S
C2964 C2966 1.381 . S
C2964 C2970 1.383 . S
C2965 C2961 1.495 . S
C2965 H2971 0.959 . S
C2965 H2972 0.961 . S
C2965 H2973 0.960 . S
C2966 C2964 1.381 . S
C2966 C2967 1.394 . S
C2966 H2974 0.930 . S
C2967 C2966 1.394 . S
C2967 C2968 1.383 . S
C2967 H2975 0.929 . S
C2968 C2967 1.383 . S
C2968 C2969 1.377 . S
C2969 H2953 0.930 . S
C2969 C2968 1.377 . S
C2969 C2970 1.379 . S
C2970 H2954 0.931 . S
C2970 C2964 1.383 . S
C2970 C2969 1.379 . S
H2971 C2965 0.959 . S
H2972 C2965 0.961 . S
H2973 C2965 0.960 . S
H2974 C2966 0.930 . S
H2975 C2967 0.929 . S
H2976 C2984 0.929 . S
H2977 C2986 0.930 . S
H2978 C2988 0.930 . S
H2979 C2991 0.929 . S
H2980 C2994 0.930 . S
H2981 C2996 0.960 . S
H2982 C2996 0.960 . S
H2983 C2996 0.960 . S
C2984 H2976 0.929 . S
C2984 C2985 1.377 . S
C2984 C2986 1.384 . S
C2985 C2984 1.377 . S
C2985 C2991 1.390 1_556 S
C2986 H2977 0.930 . S
C2986 C2984 1.384 . S
C2986 C2987 1.372 1_556 S
C2987 C2986 1.372 1_554 S
C2987 C2988 1.400 . S
C2987 C2992 1.490 . S
C2988 H2978 0.930 . S
C2988 C2987 1.400 . S
C2988 C2991 1.386 . S
H2989 C3005 0.930 . S
H2990 C3006 0.931 . S
C2991 H2979 0.929 . S
C2991 C2985 1.390 1_554 S
C2991 C2988 1.386 . S
C2992 C2987 1.490 . S
C2992 C2994 1.395 . S
C2992 C2995 1.403 . S
H2993 C2999 0.930 . S
C2994 H2980 0.930 . S
C2994 C2992 1.395 . S
C2994 C2997 1.403 . S
C2995 C2992 1.403 . S
C2995 C2996 1.524 . S
C2995 C2999 1.400 . S
C2996 H2981 0.960 . S
C2996 H2982 0.960 . S
C2996 H2983 0.960 . S
C2996 C2995 1.524 . S
C2997 C2994 1.403 . S
C2997 C2998 1.392 . S
C2997 C3001 1.495 . S
C2998 C2997 1.392 . S
C2998 C2999 1.385 . S
C2998 C3000 1.478 . S
C2999 H2993 0.930 . S
C2999 C2995 1.400 . S
C2999 C2998 1.385 . S
C3000 C2998 1.478 . S
C3000 C3002 1.381 . S
C3000 C3006 1.383 . S
C3001 C2997 1.495 . S
C3001 H3007 0.959 . S
C3001 H3008 0.961 . S
C3001 H3009 0.960 . S
C3002 C3000 1.381 . S
C3002 C3003 1.394 . S
C3002 H3010 0.930 . S
C3003 C3002 1.394 . S
C3003 C3004 1.383 . S
C3003 H3011 0.929 . S
C3004 C3003 1.383 . S
C3004 C3005 1.377 . S
C3005 H2989 0.930 . S
C3005 C3004 1.377 . S
C3005 C3006 1.379 . S
C3006 H2990 0.931 . S
C3006 C3000 1.383 . S
C3006 C3005 1.379 . S
H3007 C3001 0.959 . S
H3008 C3001 0.961 . S
H3009 C3001 0.960 . S
H3010 C3002 0.930 . S
H3011 C3003 0.929 . S
H3012 C3020 0.929 . S
H3013 C3022 0.930 . S
H3014 C3024 0.930 . S
H3015 C3027 0.929 . S
H3016 C3030 0.930 . S
H3017 C3032 0.960 . S
H3018 C3032 0.960 . S
H3019 C3032 0.960 . S
C3020 H3012 0.929 . S
C3020 C3021 1.377 . S
C3020 C3022 1.384 . S
C3021 C3020 1.377 . S
C3021 C3027 1.390 . S
C3022 H3013 0.930 . S
C3022 C3020 1.384 . S
C3022 C3023 1.372 . S
C3023 C3022 1.372 . S
C3023 C3024 1.400 . S
C3023 C3028 1.490 . S
C3024 H3014 0.930 . S
C3024 C3023 1.400 . S
C3024 C3027 1.386 . S
H3025 C3041 0.930 . S
H3026 C3042 0.931 . S
C3027 H3015 0.929 . S
C3027 C3021 1.390 . S
C3027 C3024 1.386 . S
C3028 C3023 1.490 . S
C3028 C3030 1.395 . S
C3028 C3031 1.403 . S
H3029 C3035 0.930 . S
C3030 H3016 0.930 . S
C3030 C3028 1.395 . S
C3030 C3033 1.403 . S
C3031 C3028 1.403 . S
C3031 C3032 1.524 . S
C3031 C3035 1.400 . S
C3032 H3017 0.960 . S
C3032 H3018 0.960 . S
C3032 H3019 0.960 . S
C3032 C3031 1.524 . S
C3033 C3030 1.403 . S
C3033 C3034 1.392 . S
C3033 C3037 1.495 . S
C3034 C3033 1.392 . S
C3034 C3035 1.385 . S
C3034 C3036 1.478 . S
C3035 H3029 0.930 . S
C3035 C3031 1.400 . S
C3035 C3034 1.385 . S
C3036 C3034 1.478 . S
C3036 C3038 1.381 . S
C3036 C3042 1.383 . S
C3037 C3033 1.495 . S
C3037 H3043 0.959 . S
C3037 H3044 0.961 . S
C3037 H3045 0.960 . S
C3038 C3036 1.381 . S
C3038 C3039 1.394 . S
C3038 H3046 0.930 . S
C3039 C3038 1.394 . S
C3039 C3040 1.383 . S
C3039 H3047 0.929 . S
C3040 C3039 1.383 . S
C3040 C3041 1.377 . S
C3041 H3025 0.930 . S
C3041 C3040 1.377 . S
C3041 C3042 1.379 . S
C3042 H3026 0.931 . S
C3042 C3036 1.383 . S
C3042 C3041 1.379 . S
H3043 C3037 0.959 . S
H3044 C3037 0.961 . S
H3045 C3037 0.960 . S
H3046 C3038 0.930 . S
H3047 C3039 0.929 . S
H3048 C3056 0.929 . S
H3049 C3058 0.930 . S
H3050 C3060 0.930 . S
H3051 C3063 0.929 . S
H3052 C3066 0.930 . S
H3053 C3068 0.960 . S
H3054 C3068 0.960 . S
H3055 C3068 0.960 . S
C3056 H3048 0.929 . S
C3056 C3057 1.377 . S
C3056 C3058 1.384 . S
C3057 C3056 1.377 . S
C3057 C3063 1.390 . S
C3058 H3049 0.930 . S
C3058 C3056 1.384 . S
C3058 C3059 1.372 . S
C3059 C3058 1.372 . S
C3059 C3060 1.400 . S
C3059 C3064 1.490 . S
C3060 H3050 0.930 . S
C3060 C3059 1.400 . S
C3060 C3063 1.386 . S
H3061 C3077 0.930 . S
H3062 C3078 0.931 . S
C3063 H3051 0.929 . S
C3063 C3057 1.390 . S
C3063 C3060 1.386 . S
C3064 C3059 1.490 . S
C3064 C3066 1.395 . S
C3064 C3067 1.403 . S
H3065 C3071 0.930 . S
C3066 H3052 0.930 . S
C3066 C3064 1.395 . S
C3066 C3069 1.403 . S
C3067 C3064 1.403 . S
C3067 C3068 1.524 . S
C3067 C3071 1.400 . S
C3068 H3053 0.960 . S
C3068 H3054 0.960 . S
C3068 H3055 0.960 . S
C3068 C3067 1.524 . S
C3069 C3066 1.403 . S
C3069 C3070 1.392 . S
C3069 C3073 1.495 . S
C3070 C3069 1.392 . S
C3070 C3071 1.385 . S
C3070 C3072 1.478 . S
C3071 H3065 0.930 . S
C3071 C3067 1.400 . S
C3071 C3070 1.385 . S
C3072 C3070 1.478 . S
C3072 C3074 1.381 . S
C3072 C3078 1.383 . S
C3073 C3069 1.495 . S
C3073 H3079 0.959 . S
C3073 H3080 0.961 . S
C3073 H3081 0.960 . S
C3074 C3072 1.381 . S
C3074 C3075 1.394 . S
C3074 H3082 0.930 . S
C3075 C3074 1.394 . S
C3075 C3076 1.383 . S
C3075 H3083 0.929 . S
C3076 C3075 1.383 . S
C3076 C3077 1.377 . S
C3077 H3061 0.930 . S
C3077 C3076 1.377 . S
C3077 C3078 1.379 . S
C3078 H3062 0.931 . S
C3078 C3072 1.383 . S
C3078 C3077 1.379 . S
H3079 C3073 0.959 . S
H3080 C3073 0.961 . S
H3081 C3073 0.960 . S
H3082 C3074 0.930 . S
H3083 C3075 0.929 . S
H3084 C3092 0.929 . S
H3085 C3094 0.930 . S
H3086 C3096 0.930 . S
H3087 C3099 0.929 . S
H3088 C3102 0.930 . S
H3089 C3104 0.960 . S
H3090 C3104 0.960 . S
H3091 C3104 0.960 . S
C3092 H3084 0.929 . S
C3092 C3093 1.377 . S
C3092 C3094 1.384 . S
C3093 C3092 1.377 . S
C3093 C3099 1.390 . S
C3094 H3085 0.930 . S
C3094 C3092 1.384 . S
C3094 C3095 1.372 . S
C3095 C3094 1.372 . S
C3095 C3096 1.400 . S
C3095 C3100 1.490 . S
C3096 H3086 0.930 . S
C3096 C3095 1.400 . S
C3096 C3099 1.386 . S
H3097 C3113 0.930 . S
H3098 C3114 0.931 . S
C3099 H3087 0.929 . S
C3099 C3093 1.390 . S
C3099 C3096 1.386 . S
C3100 C3095 1.490 . S
C3100 C3102 1.395 . S
C3100 C3103 1.403 . S
H3101 C3107 0.930 . S
C3102 H3088 0.930 . S
C3102 C3100 1.395 . S
C3102 C3105 1.403 . S
C3103 C3100 1.403 . S
C3103 C3104 1.524 . S
C3103 C3107 1.400 . S
C3104 H3089 0.960 . S
C3104 H3090 0.960 . S
C3104 H3091 0.960 . S
C3104 C3103 1.524 . S
C3105 C3102 1.403 . S
C3105 C3106 1.392 . S
C3105 C3109 1.495 . S
C3106 C3105 1.392 . S
C3106 C3107 1.385 . S
C3106 C3108 1.478 . S
C3107 H3101 0.930 . S
C3107 C3103 1.400 . S
C3107 C3106 1.385 . S
C3108 C3106 1.478 . S
C3108 C3110 1.381 . S
C3108 C3114 1.383 . S
C3109 C3105 1.495 . S
C3109 H3115 0.959 . S
C3109 H3116 0.961 . S
C3109 H3117 0.960 . S
C3110 C3108 1.381 . S
C3110 C3111 1.394 . S
C3110 H3118 0.930 . S
C3111 C3110 1.394 . S
C3111 C3112 1.383 . S
C3111 H3119 0.929 . S
C3112 C3111 1.383 . S
C3112 C3113 1.377 . S
C3113 H3097 0.930 . S
C3113 C3112 1.377 . S
C3113 C3114 1.379 . S
C3114 H3098 0.931 . S
C3114 C3108 1.383 . S
C3114 C3113 1.379 . S
H3115 C3109 0.959 . S
H3116 C3109 0.961 . S
H3117 C3109 0.960 . S
H3118 C3110 0.930 . S
H3119 C3111 0.929 . S
H3120 C3128 0.929 . S
H3121 C3130 0.930 . S
H3122 C3132 0.930 . S
H3123 C3135 0.929 . S
H3124 C3138 0.930 . S
H3125 C3140 0.960 . S
H3126 C3140 0.960 . S
H3127 C3140 0.960 . S
C3128 H3120 0.929 . S
C3128 C3129 1.377 . S
C3128 C3130 1.384 . S
C3129 C3128 1.377 . S
C3129 C3135 1.390 . S
C3130 H3121 0.930 . S
C3130 C3128 1.384 . S
C3130 C3131 1.372 . S
C3131 C3130 1.372 . S
C3131 C3132 1.400 . S
C3131 C3136 1.490 . S
C3132 H3122 0.930 . S
C3132 C3131 1.400 . S
C3132 C3135 1.386 . S
H3133 C3149 0.930 . S
H3134 C3150 0.931 . S
C3135 H3123 0.929 . S
C3135 C3129 1.390 . S
C3135 C3132 1.386 . S
C3136 C3131 1.490 . S
C3136 C3138 1.395 . S
C3136 C3139 1.403 . S
H3137 C3143 0.930 . S
C3138 H3124 0.930 . S
C3138 C3136 1.395 . S
C3138 C3141 1.403 . S
C3139 C3136 1.403 . S
C3139 C3140 1.524 . S
C3139 C3143 1.400 . S
C3140 H3125 0.960 . S
C3140 H3126 0.960 . S
C3140 H3127 0.960 . S
C3140 C3139 1.524 . S
C3141 C3138 1.403 . S
C3141 C3142 1.392 . S
C3141 C3145 1.495 . S
C3142 C3141 1.392 . S
C3142 C3143 1.385 . S
C3142 C3144 1.478 . S
C3143 H3137 0.930 . S
C3143 C3139 1.400 . S
C3143 C3142 1.385 . S
C3144 C3142 1.478 . S
C3144 C3146 1.381 . S
C3144 C3150 1.383 . S
C3145 C3141 1.495 . S
C3145 H3151 0.959 . S
C3145 H3152 0.961 . S
C3145 H3153 0.960 . S
C3146 C3144 1.381 . S
C3146 C3147 1.394 . S
C3146 H3154 0.930 . S
C3147 C3146 1.394 . S
C3147 C3148 1.383 . S
C3147 H3155 0.929 . S
C3148 C3147 1.383 . S
C3148 C3149 1.377 . S
C3149 H3133 0.930 . S
C3149 C3148 1.377 . S
C3149 C3150 1.379 . S
C3150 H3134 0.931 . S
C3150 C3144 1.383 . S
C3150 C3149 1.379 . S
H3151 C3145 0.959 . S
H3152 C3145 0.961 . S
H3153 C3145 0.960 . S
H3154 C3146 0.930 . S
H3155 C3147 0.929 . S
H3156 C3164 0.929 . S
H3157 C3166 0.930 . S
H3158 C3168 0.930 . S
H3159 C3171 0.929 . S
H3160 C3174 0.930 . S
H3161 C3176 0.960 . S
H3162 C3176 0.960 . S
H3163 C3176 0.960 . S
C3164 H3156 0.929 . S
C3164 C3165 1.377 . S
C3164 C3166 1.384 . S
C3165 C3164 1.377 . S
C3165 C3171 1.390 . S
C3166 H3157 0.930 . S
C3166 C3164 1.384 . S
C3166 C3167 1.372 . S
C3167 C3166 1.372 . S
C3167 C3168 1.400 . S
C3167 C3172 1.490 . S
C3168 H3158 0.930 . S
C3168 C3167 1.400 . S
C3168 C3171 1.386 . S
H3169 C3185 0.930 . S
H3170 C3186 0.931 . S
C3171 H3159 0.929 . S
C3171 C3165 1.390 . S
C3171 C3168 1.386 . S
C3172 C3167 1.490 . S
C3172 C3174 1.395 . S
C3172 C3175 1.403 . S
H3173 C3179 0.930 . S
C3174 H3160 0.930 . S
C3174 C3172 1.395 . S
C3174 C3177 1.403 . S
C3175 C3172 1.403 . S
C3175 C3176 1.524 . S
C3175 C3179 1.400 . S
C3176 H3161 0.960 . S
C3176 H3162 0.960 . S
C3176 H3163 0.960 . S
C3176 C3175 1.524 . S
C3177 C3174 1.403 . S
C3177 C3178 1.392 . S
C3177 C3181 1.495 . S
C3178 C3177 1.392 . S
C3178 C3179 1.385 . S
C3178 C3180 1.478 . S
C3179 H3173 0.930 . S
C3179 C3175 1.400 . S
C3179 C3178 1.385 . S
C3180 C3178 1.478 . S
C3180 C3182 1.381 . S
C3180 C3186 1.383 . S
C3181 C3177 1.495 . S
C3181 H3187 0.959 . S
C3181 H3188 0.961 . S
C3181 H3189 0.960 . S
C3182 C3180 1.381 . S
C3182 C3183 1.394 . S
C3182 H3190 0.930 . S
C3183 C3182 1.394 . S
C3183 C3184 1.383 . S
C3183 H3191 0.929 . S
C3184 C3183 1.383 . S
C3184 C3185 1.377 . S
C3185 H3169 0.930 . S
C3185 C3184 1.377 . S
C3185 C3186 1.379 . S
C3186 H3170 0.931 . S
C3186 C3180 1.383 . S
C3186 C3185 1.379 . S
H3187 C3181 0.959 . S
H3188 C3181 0.961 . S
H3189 C3181 0.960 . S
H3190 C3182 0.930 . S
H3191 C3183 0.929 . S
H3192 C3200 0.929 . S
H3193 C3202 0.930 . S
H3194 C3204 0.930 . S
H3195 C3207 0.929 . S
H3196 C3210 0.930 . S
H3197 C3212 0.960 . S
H3198 C3212 0.960 . S
H3199 C3212 0.960 . S
C3200 H3192 0.929 . S
C3200 C3201 1.377 . S
C3200 C3202 1.384 . S
C3201 C3200 1.377 . S
C3201 C3207 1.390 . S
C3202 H3193 0.930 . S
C3202 C3200 1.384 . S
C3202 C3203 1.372 . S
C3203 C3202 1.372 . S
C3203 C3204 1.400 . S
C3203 C3208 1.490 . S
C3204 H3194 0.930 . S
C3204 C3203 1.400 . S
C3204 C3207 1.386 . S
H3205 C3221 0.930 . S
H3206 C3222 0.931 . S
C3207 H3195 0.929 . S
C3207 C3201 1.390 . S
C3207 C3204 1.386 . S
C3208 C3203 1.490 . S
C3208 C3210 1.395 . S
C3208 C3211 1.403 . S
H3209 C3215 0.930 . S
C3210 H3196 0.930 . S
C3210 C3208 1.395 . S
C3210 C3213 1.403 . S
C3211 C3208 1.403 . S
C3211 C3212 1.524 . S
C3211 C3215 1.400 . S
C3212 H3197 0.960 . S
C3212 H3198 0.960 . S
C3212 H3199 0.960 . S
C3212 C3211 1.524 . S
C3213 C3210 1.403 . S
C3213 C3214 1.392 . S
C3213 C3217 1.495 . S
C3214 C3213 1.392 . S
C3214 C3215 1.385 . S
C3214 C3216 1.478 . S
C3215 H3209 0.930 . S
C3215 C3211 1.400 . S
C3215 C3214 1.385 . S
C3216 C3214 1.478 . S
C3216 C3218 1.381 . S
C3216 C3222 1.383 . S
C3217 C3213 1.495 . S
C3217 H3223 0.959 . S
C3217 H3224 0.961 . S
C3217 H3225 0.960 . S
C3218 C3216 1.381 . S
C3218 C3219 1.394 . S
C3218 H3226 0.930 . S
C3219 C3218 1.394 . S
C3219 C3220 1.383 . S
C3219 H3227 0.929 . S
C3220 C3219 1.383 . S
C3220 C3221 1.377 . S
C3221 H3205 0.930 . S
C3221 C3220 1.377 . S
C3221 C3222 1.379 . S
C3222 H3206 0.931 . S
C3222 C3216 1.383 . S
C3222 C3221 1.379 . S
H3223 C3217 0.959 . S
H3224 C3217 0.961 . S
H3225 C3217 0.960 . S
H3226 C3218 0.930 . S
H3227 C3219 0.929 . S
H3228 C3236 0.929 . S
H3229 C3238 0.930 . S
H3230 C3240 0.930 . S
H3231 C3243 0.929 . S
H3232 C3246 0.930 . S
H3233 C3248 0.960 . S
H3234 C3248 0.960 . S
H3235 C3248 0.960 . S
C3236 H3228 0.929 . S
C3236 C3237 1.377 . S
C3236 C3238 1.384 . S
C3237 C3236 1.377 . S
C3237 C3243 1.390 . S
C3238 H3229 0.930 . S
C3238 C3236 1.384 . S
C3238 C3239 1.372 . S
C3239 C3238 1.372 . S
C3239 C3240 1.400 . S
C3239 C3244 1.490 . S
C3240 H3230 0.930 . S
C3240 C3239 1.400 . S
C3240 C3243 1.386 . S
H3241 C3257 0.930 . S
H3242 C3258 0.931 . S
C3243 H3231 0.929 . S
C3243 C3237 1.390 . S
C3243 C3240 1.386 . S
C3244 C3239 1.490 . S
C3244 C3246 1.395 . S
C3244 C3247 1.403 . S
H3245 C3251 0.930 . S
C3246 H3232 0.930 . S
C3246 C3244 1.395 . S
C3246 C3249 1.403 . S
C3247 C3244 1.403 . S
C3247 C3248 1.524 . S
C3247 C3251 1.400 . S
C3248 H3233 0.960 . S
C3248 H3234 0.960 . S
C3248 H3235 0.960 . S
C3248 C3247 1.524 . S
C3249 C3246 1.403 . S
C3249 C3250 1.392 . S
C3249 C3253 1.495 . S
C3250 C3249 1.392 . S
C3250 C3251 1.385 . S
C3250 C3252 1.478 . S
C3251 H3245 0.930 . S
C3251 C3247 1.400 . S
C3251 C3250 1.385 . S
C3252 C3250 1.478 . S
C3252 C3254 1.381 . S
C3252 C3258 1.383 . S
C3253 C3249 1.495 . S
C3253 H3259 0.959 . S
C3253 H3260 0.961 . S
C3253 H3261 0.960 . S
C3254 C3252 1.381 . S
C3254 C3255 1.394 . S
C3254 H3262 0.930 . S
C3255 C3254 1.394 . S
C3255 C3256 1.383 . S
C3255 H3263 0.929 . S
C3256 C3255 1.383 . S
C3256 C3257 1.377 . S
C3257 H3241 0.930 . S
C3257 C3256 1.377 . S
C3257 C3258 1.379 . S
C3258 H3242 0.931 . S
C3258 C3252 1.383 . S
C3258 C3257 1.379 . S
H3259 C3253 0.959 . S
H3260 C3253 0.961 . S
H3261 C3253 0.960 . S
H3262 C3254 0.930 . S
H3263 C3255 0.929 . S
H3264 C3272 0.929 . S
H3265 C3274 0.930 . S
H3266 C3276 0.919 1_455 S
H3267 C3279 0.958 . S
H3268 C3282 0.930 . S
H3269 C3284 0.960 . S
H3270 C3284 0.960 . S
H3271 C3284 0.960 . S
C3272 H3264 0.929 . S
C3272 C3273 1.377 . S
C3272 C3274 1.384 . S
C3273 C3272 1.377 . S
C3273 C3279 1.376 1_655 S
C3274 H3265 0.930 . S
C3274 C3272 1.384 . S
C3274 C3275 1.372 . S
C3275 C3274 1.372 . S
C3275 C3276 1.400 . S
C3275 C3280 1.490 . S
C3276 H3266 0.919 1_655 S
C3276 C3275 1.400 . S
C3276 C3279 1.375 1_655 S
H3277 C3293 0.930 . S
H3278 C3294 0.931 . S
C3279 H3267 0.958 . S
C3279 C3273 1.376 1_455 S
C3279 C3276 1.375 1_455 S
C3280 C3275 1.490 . S
C3280 C3282 1.395 . S
C3280 C3283 1.403 . S
H3281 C3287 0.877 1_455 S
C3282 H3268 0.930 . S
C3282 C3280 1.395 . S
C3282 C3285 1.403 . S
C3283 C3280 1.403 . S
C3283 C3284 1.524 1_655 S
C3283 C3287 1.400 . S
C3284 H3269 0.960 . S
C3284 H3270 0.960 . S
C3284 H3271 0.960 . S
C3284 C3283 1.524 1_455 S
C3285 C3282 1.403 . S
C3285 C3286 1.392 . S
C3285 C3289 1.495 . S
C3286 C3285 1.392 . S
C3286 C3287 1.385 . S
C3286 C3288 1.478 . S
C3287 H3281 0.877 1_655 S
C3287 C3283 1.400 . S
C3287 C3286 1.385 . S
C3288 C3286 1.478 . S
C3288 C3290 1.381 . S
C3288 C3294 1.383 . S
C3289 C3285 1.495 . S
C3289 H3295 0.959 . S
C3289 H3296 0.961 . S
C3289 H3297 0.960 . S
C3290 C3288 1.381 . S
C3290 C3291 1.394 . S
C3290 H3298 0.930 . S
C3291 C3290 1.394 . S
C3291 C3292 1.383 . S
C3291 H3299 0.929 . S
C3292 C3291 1.383 . S
C3292 C3293 1.377 . S
C3293 H3277 0.930 . S
C3293 C3292 1.377 . S
C3293 C3294 1.379 . S
C3294 H3278 0.931 . S
C3294 C3288 1.383 . S
C3294 C3293 1.379 . S
H3295 C3289 0.959 . S
H3296 C3289 0.961 . S
H3297 C3289 0.960 . S
H3298 C3290 0.930 . S
H3299 C3291 0.929 . S
H3300 C3308 0.929 . S
H3301 C3310 0.930 . S
H3302 C3312 0.930 . S
H3303 C3315 0.929 . S
H3304 C3318 0.930 . S
H3305 C3320 0.960 . S
H3306 C3320 0.960 . S
H3307 C3320 0.960 . S
C3308 H3300 0.929 . S
C3308 C3309 1.377 . S
C3308 C3310 1.384 . S
C3309 C3308 1.377 . S
C3309 C3315 1.390 . S
C3310 H3301 0.930 . S
C3310 C3308 1.384 . S
C3310 C3311 1.372 . S
C3311 C3310 1.372 . S
C3311 C3312 1.400 . S
C3311 C3316 1.490 . S
C3312 H3302 0.930 . S
C3312 C3311 1.400 . S
C3312 C3315 1.386 . S
H3313 C3329 0.930 . S
H3314 C3330 0.931 . S
C3315 H3303 0.929 . S
C3315 C3309 1.390 . S
C3315 C3312 1.386 . S
C3316 C3311 1.490 . S
C3316 C3318 1.395 . S
C3316 C3319 1.403 . S
H3317 C3323 0.930 . S
C3318 H3304 0.930 . S
C3318 C3316 1.395 . S
C3318 C3321 1.403 . S
C3319 C3316 1.403 . S
C3319 C3320 1.524 . S
C3319 C3323 1.400 . S
C3320 H3305 0.960 . S
C3320 H3306 0.960 . S
C3320 H3307 0.960 . S
C3320 C3319 1.524 . S
C3321 C3318 1.403 . S
C3321 C3322 1.392 . S
C3321 C3325 1.495 . S
C3322 C3321 1.392 . S
C3322 C3323 1.385 . S
C3322 C3324 1.478 . S
C3323 H3317 0.930 . S
C3323 C3319 1.400 . S
C3323 C3322 1.385 . S
C3324 C3322 1.478 . S
C3324 C3326 1.381 . S
C3324 C3330 1.383 . S
C3325 C3321 1.495 . S
C3325 H3331 0.959 . S
C3325 H3332 0.961 . S
C3325 H3333 0.960 . S
C3326 C3324 1.381 . S
C3326 C3327 1.394 . S
C3326 H3334 0.930 . S
C3327 C3326 1.394 . S
C3327 C3328 1.383 . S
C3327 H3335 0.929 . S
C3328 C3327 1.383 . S
C3328 C3329 1.377 . S
C3329 H3313 0.930 . S
C3329 C3328 1.377 . S
C3329 C3330 1.379 . S
C3330 H3314 0.931 . S
C3330 C3324 1.383 . S
C3330 C3329 1.379 . S
H3331 C3325 0.959 . S
H3332 C3325 0.961 . S
H3333 C3325 0.960 . S
H3334 C3326 0.930 . S
H3335 C3327 0.929 . S
H3336 C3344 0.929 . S
H3337 C3346 0.930 . S
H3338 C3348 0.930 . S
H3339 C3351 0.929 . S
H3340 C3354 0.930 . S
H3341 C3356 0.960 . S
H3342 C3356 0.960 . S
H3343 C3356 0.960 . S
C3344 H3336 0.929 . S
C3344 C3345 1.377 . S
C3344 C3346 1.384 . S
C3345 C3344 1.377 . S
C3345 C3351 1.390 . S
C3346 H3337 0.930 . S
C3346 C3344 1.384 . S
C3346 C3347 1.372 . S
C3347 C3346 1.372 . S
C3347 C3348 1.400 . S
C3347 C3352 1.490 . S
C3348 H3338 0.930 . S
C3348 C3347 1.400 . S
C3348 C3351 1.386 . S
H3349 C3365 0.930 . S
H3350 C3366 0.931 . S
C3351 H3339 0.929 . S
C3351 C3345 1.390 . S
C3351 C3348 1.386 . S
C3352 C3347 1.490 . S
C3352 C3354 1.395 . S
C3352 C3355 1.403 . S
H3353 C3359 0.930 . S
C3354 H3340 0.930 . S
C3354 C3352 1.395 . S
C3354 C3357 1.403 . S
C3355 C3352 1.403 . S
C3355 C3356 1.524 . S
C3355 C3359 1.400 . S
C3356 H3341 0.960 . S
C3356 H3342 0.960 . S
C3356 H3343 0.960 . S
C3356 C3355 1.524 . S
C3357 C3354 1.403 . S
C3357 C3358 1.392 . S
C3357 C3361 1.495 . S
C3358 C3357 1.392 . S
C3358 C3359 1.385 . S
C3358 C3360 1.478 . S
C3359 H3353 0.930 . S
C3359 C3355 1.400 . S
C3359 C3358 1.385 . S
C3360 C3358 1.478 . S
C3360 C3362 1.381 . S
C3360 C3366 1.383 . S
C3361 C3357 1.495 . S
C3361 H3367 0.959 . S
C3361 H3368 0.961 . S
C3361 H3369 0.960 . S
C3362 C3360 1.381 . S
C3362 C3363 1.394 . S
C3362 H3370 0.930 . S
C3363 C3362 1.394 . S
C3363 C3364 1.383 . S
C3363 H3371 0.929 . S
C3364 C3363 1.383 . S
C3364 C3365 1.377 . S
C3365 H3349 0.930 . S
C3365 C3364 1.377 . S
C3365 C3366 1.379 . S
C3366 H3350 0.931 . S
C3366 C3360 1.383 . S
C3366 C3365 1.379 . S
H3367 C3361 0.959 . S
H3368 C3361 0.961 . S
H3369 C3361 0.960 . S
H3370 C3362 0.930 . S
H3371 C3363 0.929 . S
H3372 C3380 0.929 . S
H3373 C3382 0.930 . S
H3374 C3384 0.930 . S
H3375 C3387 0.929 . S
H3376 C3390 0.930 1_554 S
H3377 C3392 0.960 . S
H3378 C3392 0.960 . S
H3379 C3392 0.960 . S
C3380 H3372 0.929 . S
C3380 C3381 1.377 . S
C3380 C3382 1.384 . S
C3381 C3380 1.377 . S
C3381 C3387 1.390 . S
C3382 H3373 0.930 . S
C3382 C3380 1.384 . S
C3382 C3383 1.372 . S
C3383 C3382 1.372 . S
C3383 C3384 1.400 . S
C3383 C3388 1.490 . S
C3384 H3374 0.930 . S
C3384 C3383 1.400 . S
C3384 C3387 1.386 . S
H3385 C3401 0.930 . S
H3386 C3402 0.931 . S
C3387 H3375 0.929 . S
C3387 C3381 1.390 . S
C3387 C3384 1.386 . S
C3388 C3383 1.490 . S
C3388 C3390 1.395 . S
C3388 C3391 1.403 . S
H3389 C3395 0.930 . S
C3390 H3376 0.930 1_556 S
C3390 C3388 1.395 . S
C3390 C3393 1.403 . S
C3391 C3388 1.403 . S
C3391 C3392 1.524 . S
C3391 C3395 1.400 . S
C3392 H3377 0.960 . S
C3392 H3378 0.960 . S
C3392 H3379 0.960 . S
C3392 C3391 1.524 . S
C3393 C3390 1.403 . S
C3393 C3394 1.392 . S
C3393 C3397 1.495 1_556 S
C3394 C3393 1.392 . S
C3394 C3395 1.385 . S
C3394 C3396 1.478 . S
C3395 H3389 0.930 . S
C3395 C3391 1.400 . S
C3395 C3394 1.385 . S
C3396 C3394 1.478 . S
C3396 C3398 1.381 . S
C3396 C3402 1.383 . S
C3397 C3393 1.495 1_554 S
C3397 H3403 0.959 . S
C3397 H3404 0.961 . S
C3397 H3405 0.960 . S
C3398 C3396 1.381 . S
C3398 C3399 1.394 . S
C3398 H3406 0.930 . S
C3399 C3398 1.394 . S
C3399 C3400 1.383 . S
C3399 H3407 0.929 . S
C3400 C3399 1.383 . S
C3400 C3401 1.377 . S
C3401 H3385 0.930 . S
C3401 C3400 1.377 . S
C3401 C3402 1.379 . S
C3402 H3386 0.931 . S
C3402 C3396 1.383 . S
C3402 C3401 1.379 . S
H3403 C3397 0.959 . S
H3404 C3397 0.961 . S
H3405 C3397 0.960 . S
H3406 C3398 0.930 . S
H3407 C3399 0.929 . S
H3408 C3416 0.929 . S
H3409 C3418 0.930 . S
H3410 C3420 0.930 . S
H3411 C3423 0.929 . S
H3412 C3426 0.930 . S
H3413 C3428 0.960 . S
H3414 C3428 0.960 . S
H3415 C3428 0.960 . S
C3416 H3408 0.929 . S
C3416 C3417 1.377 . S
C3416 C3418 1.384 . S
C3417 C3416 1.377 . S
C3417 C3423 1.390 . S
C3418 H3409 0.930 . S
C3418 C3416 1.384 . S
C3418 C3419 1.372 . S
C3419 C3418 1.372 . S
C3419 C3420 1.400 . S
C3419 C3424 1.490 . S
C3420 H3410 0.930 . S
C3420 C3419 1.400 . S
C3420 C3423 1.386 . S
H3421 C3437 0.930 . S
H3422 C3438 0.931 . S
C3423 H3411 0.929 . S
C3423 C3417 1.390 . S
C3423 C3420 1.386 . S
C3424 C3419 1.490 . S
C3424 C3426 1.395 . S
C3424 C3427 1.403 . S
H3425 C3431 0.930 . S
C3426 H3412 0.930 . S
C3426 C3424 1.395 . S
C3426 C3429 1.403 . S
C3427 C3424 1.403 . S
C3427 C3428 1.524 . S
C3427 C3431 1.400 . S
C3428 H3413 0.960 . S
C3428 H3414 0.960 . S
C3428 H3415 0.960 . S
C3428 C3427 1.524 . S
C3429 C3426 1.403 . S
C3429 C3430 1.392 . S
C3429 C3433 1.510 . S
C3430 C3429 1.392 . S
C3430 C3431 1.385 . S
C3430 C3432 1.478 . S
C3431 H3425 0.930 . S
C3431 C3427 1.400 . S
C3431 C3430 1.385 . S
C3432 C3430 1.478 . S
C3432 C3434 1.381 . S
C3432 C3438 1.383 . S
C3433 C3429 1.510 . S
C3433 H3439 0.950 1_655 S
C3433 H3440 0.941 1_655 S
C3433 H3441 0.975 . S
C3434 C3432 1.381 . S
C3434 C3435 1.394 . S
C3434 H3442 0.930 . S
C3435 C3434 1.394 . S
C3435 C3436 1.383 . S
C3435 H3443 0.929 . S
C3436 C3435 1.383 . S
C3436 C3437 1.377 . S
C3437 H3421 0.930 . S
C3437 C3436 1.377 . S
C3437 C3438 1.379 . S
C3438 H3422 0.931 . S
C3438 C3432 1.383 . S
C3438 C3437 1.379 . S
H3439 C3433 0.950 1_455 S
H3440 C3433 0.941 1_455 S
H3441 C3433 0.975 . S
H3442 C3434 0.930 . S
H3443 C3435 0.929 . S
H3444 C3452 0.929 . S
H3445 C3454 0.930 . S
H3446 C3456 0.930 . S
H3447 C3459 0.929 . S
H3448 C3462 0.930 . S
H3449 C3464 0.960 . S
H3450 C3464 0.960 . S
H3451 C3464 0.960 . S
C3452 H3444 0.929 . S
C3452 C3453 1.377 . S
C3452 C3454 1.384 . S
C3453 C3452 1.377 . S
C3453 C3459 1.390 . S
C3454 H3445 0.930 . S
C3454 C3452 1.384 . S
C3454 C3455 1.372 . S
C3455 C3454 1.372 . S
C3455 C3456 1.400 . S
C3455 C3460 1.490 . S
C3456 H3446 0.930 . S
C3456 C3455 1.400 . S
C3456 C3459 1.386 . S
H3457 C3473 0.930 . S
H3458 C3474 0.931 . S
C3459 H3447 0.929 . S
C3459 C3453 1.390 . S
C3459 C3456 1.386 . S
C3460 C3455 1.490 . S
C3460 C3462 1.395 . S
C3460 C3463 1.403 . S
H3461 C3467 0.930 . S
C3462 H3448 0.930 . S
C3462 C3460 1.395 . S
C3462 C3465 1.403 . S
C3463 C3460 1.403 . S
C3463 C3464 1.524 . S
C3463 C3467 1.400 . S
C3464 H3449 0.960 . S
C3464 H3450 0.960 . S
C3464 H3451 0.960 . S
C3464 C3463 1.524 . S
C3465 C3462 1.403 . S
C3465 C3466 1.392 . S
C3465 C3469 1.495 . S
C3466 C3465 1.392 . S
C3466 C3467 1.385 . S
C3466 C3468 1.478 . S
C3467 H3461 0.930 . S
C3467 C3463 1.400 . S
C3467 C3466 1.385 . S
C3468 C3466 1.478 . S
C3468 C3470 1.381 . S
C3468 C3474 1.383 . S
C3469 C3465 1.495 . S
C3469 H3475 0.959 . S
C3469 H3476 0.961 . S
C3469 H3477 0.960 . S
C3470 C3468 1.381 . S
C3470 C3471 1.394 . S
C3470 H3478 0.930 . S
C3471 C3470 1.394 . S
C3471 C3472 1.383 . S
C3471 H3479 0.929 . S
C3472 C3471 1.383 . S
C3472 C3473 1.377 . S
C3473 H3457 0.930 . S
C3473 C3472 1.377 . S
C3473 C3474 1.379 . S
C3474 H3458 0.931 . S
C3474 C3468 1.383 . S
C3474 C3473 1.379 . S
H3475 C3469 0.959 . S
H3476 C3469 0.961 . S
H3477 C3469 0.960 . S
H3478 C3470 0.930 . S
H3479 C3471 0.929 . S
H3480 C3488 0.929 . S
H3481 C3490 0.930 . S
H3482 C3492 0.930 . S
H3483 C3495 0.929 . S
H3484 C3498 0.930 . S
H3485 C3500 0.960 . S
H3486 C3500 0.960 . S
H3487 C3500 0.960 . S
C3488 H3480 0.929 . S
C3488 C3489 1.377 . S
C3488 C3490 1.384 . S
C3489 C3488 1.377 . S
C3489 C3495 1.390 . S
C3490 H3481 0.930 . S
C3490 C3488 1.384 . S
C3490 C3491 1.372 . S
C3491 C3490 1.372 . S
C3491 C3492 1.400 . S
C3491 C3496 1.490 . S
C3492 H3482 0.930 . S
C3492 C3491 1.400 . S
C3492 C3495 1.386 . S
H3493 C3509 0.930 . S
H3494 C3510 0.931 . S
C3495 H3483 0.929 . S
C3495 C3489 1.390 . S
C3495 C3492 1.386 . S
C3496 C3491 1.490 . S
C3496 C3498 1.395 . S
C3496 C3499 1.403 . S
H3497 C3503 0.930 . S
C3498 H3484 0.930 . S
C3498 C3496 1.395 . S
C3498 C3501 1.403 . S
C3499 C3496 1.403 . S
C3499 C3500 1.524 . S
C3499 C3503 1.400 . S
C3500 H3485 0.960 . S
C3500 H3486 0.960 . S
C3500 H3487 0.960 . S
C3500 C3499 1.524 . S
C3501 C3498 1.403 . S
C3501 C3502 1.392 . S
C3501 C3505 1.495 . S
C3502 C3501 1.392 . S
C3502 C3503 1.385 . S
C3502 C3504 1.478 . S
C3503 H3497 0.930 . S
C3503 C3499 1.400 . S
C3503 C3502 1.385 . S
C3504 C3502 1.478 . S
C3504 C3506 1.381 . S
C3504 C3510 1.383 . S
C3505 C3501 1.495 . S
C3505 H3511 0.959 . S
C3505 H3512 0.961 . S
C3505 H3513 0.960 . S
C3506 C3504 1.381 . S
C3506 C3507 1.394 . S
C3506 H3514 0.930 . S
C3507 C3506 1.394 . S
C3507 C3508 1.383 . S
C3507 H3515 0.929 . S
C3508 C3507 1.383 . S
C3508 C3509 1.377 . S
C3509 H3493 0.930 . S
C3509 C3508 1.377 . S
C3509 C3510 1.379 . S
C3510 H3494 0.931 . S
C3510 C3504 1.383 . S
C3510 C3509 1.379 . S
H3511 C3505 0.959 . S
H3512 C3505 0.961 . S
H3513 C3505 0.960 . S
H3514 C3506 0.930 . S
H3515 C3507 0.929 . S
H3516 C3524 0.929 . S
H3517 C3526 0.930 . S
H3518 C3528 0.930 . S
H3519 C3531 0.929 . S
H3520 C3534 0.930 . S
H3521 C3536 0.960 . S
H3522 C3536 0.960 . S
H3523 C3536 0.960 . S
C3524 H3516 0.929 . S
C3524 C3525 1.377 . S
C3524 C3526 1.384 . S
C3525 C3524 1.377 . S
C3525 C3531 1.390 . S
C3526 H3517 0.930 . S
C3526 C3524 1.384 . S
C3526 C3527 1.372 . S
C3527 C3526 1.372 . S
C3527 C3528 1.400 . S
C3527 C3532 1.490 . S
C3528 H3518 0.930 . S
C3528 C3527 1.400 . S
C3528 C3531 1.386 . S
H3529 C3545 0.930 . S
H3530 C3546 0.931 . S
C3531 H3519 0.929 . S
C3531 C3525 1.390 . S
C3531 C3528 1.386 . S
C3532 C3527 1.490 . S
C3532 C3534 1.395 . S
C3532 C3535 1.403 . S
H3533 C3539 0.930 . S
C3534 H3520 0.930 . S
C3534 C3532 1.395 . S
C3534 C3537 1.403 . S
C3535 C3532 1.403 . S
C3535 C3536 1.524 . S
C3535 C3539 1.400 . S
C3536 H3521 0.960 . S
C3536 H3522 0.960 . S
C3536 H3523 0.960 . S
C3536 C3535 1.524 . S
C3537 C3534 1.403 . S
C3537 C3538 1.392 . S
C3537 C3541 1.495 . S
C3538 C3537 1.392 . S
C3538 C3539 1.385 . S
C3538 C3540 1.478 . S
C3539 H3533 0.930 . S
C3539 C3535 1.400 . S
C3539 C3538 1.385 . S
C3540 C3538 1.478 . S
C3540 C3542 1.381 . S
C3540 C3546 1.383 . S
C3541 C3537 1.495 . S
C3541 H3547 0.959 . S
C3541 H3548 0.961 . S
C3541 H3549 0.960 . S
C3542 C3540 1.381 . S
C3542 C3543 1.394 . S
C3542 H3550 0.930 . S
C3543 C3542 1.394 . S
C3543 C3544 1.383 . S
C3543 H3551 0.929 . S
C3544 C3543 1.383 . S
C3544 C3545 1.377 . S
C3545 H3529 0.930 . S
C3545 C3544 1.377 . S
C3545 C3546 1.379 . S
C3546 H3530 0.931 . S
C3546 C3540 1.383 . S
C3546 C3545 1.379 . S
H3547 C3541 0.959 . S
H3548 C3541 0.961 . S
H3549 C3541 0.960 . S
H3550 C3542 0.930 . S
H3551 C3543 0.929 . S
H3552 C3560 0.929 . S
H3553 C3562 0.930 . S
H3554 C3564 0.930 . S
H3555 C3567 0.929 . S
H3556 C3570 0.930 1_545 S
H3557 C3572 0.960 . S
H3558 C3572 0.960 . S
H3559 C3572 0.960 . S
C3560 H3552 0.929 . S
C3560 C3561 1.377 . S
C3560 C3562 1.384 . S
C3561 C3560 1.377 . S
C3561 C3567 1.390 . S
C3562 H3553 0.930 . S
C3562 C3560 1.384 . S
C3562 C3563 1.372 . S
C3563 C3562 1.372 . S
C3563 C3564 1.400 . S
C3563 C3568 1.490 . S
C3564 H3554 0.930 . S
C3564 C3563 1.400 . S
C3564 C3567 1.386 . S
H3565 C3581 0.930 . S
H3566 C3582 0.931 . S
C3567 H3555 0.929 . S
C3567 C3561 1.390 . S
C3567 C3564 1.386 . S
C3568 C3563 1.490 . S
C3568 C3570 1.395 . S
C3568 C3571 1.403 . S
H3569 C3575 0.930 . S
C3570 H3556 0.930 1_565 S
C3570 C3568 1.395 . S
C3570 C3573 1.403 1_565 S
C3571 C3568 1.403 . S
C3571 C3572 1.524 . S
C3571 C3575 1.400 . S
C3572 H3557 0.960 . S
C3572 H3558 0.960 . S
C3572 H3559 0.960 . S
C3572 C3571 1.524 . S
C3573 C3570 1.403 1_545 S
C3573 C3574 1.392 1_545 S
C3573 C3577 1.495 . S
C3574 C3573 1.392 1_565 S
C3574 C3575 1.385 . S
C3574 C3576 1.478 . S
C3575 H3569 0.930 . S
C3575 C3571 1.400 . S
C3575 C3574 1.385 . S
C3576 C3574 1.478 . S
C3576 C3578 1.410 . S
C3576 C3582 1.383 . S
C3577 C3573 1.495 . S
C3577 H3583 0.959 . S
C3577 H3584 0.961 . S
C3577 H3585 0.960 . S
C3578 C3576 1.410 . S
C3578 C3579 1.384 1_565 S
C3578 H3586 0.911 1_565 S
C3579 C3578 1.384 1_545 S
C3579 C3580 1.372 1_545 S
C3579 H3587 0.952 . S
C3580 C3579 1.372 1_565 S
C3580 C3581 1.377 . S
C3581 H3565 0.930 . S
C3581 C3580 1.377 . S
C3581 C3582 1.379 . S
C3582 H3566 0.931 . S
C3582 C3576 1.383 . S
C3582 C3581 1.379 . S
H3583 C3577 0.959 . S
H3584 C3577 0.961 . S
H3585 C3577 0.960 . S
H3586 C3578 0.911 1_545 S
H3587 C3579 0.952 . S
H3588 C3596 0.929 . S
H3589 C3598 0.930 . S
H3590 C3600 0.930 . S
H3591 C3603 0.929 . S
H3592 C3606 0.930 1_545 S
H3593 C3608 0.960 . S
H3594 C3608 0.960 . S
H3595 C3608 0.960 . S
C3596 H3588 0.929 . S
C3596 C3597 1.377 . S
C3596 C3598 1.384 . S
C3597 C3596 1.377 . S
C3597 C3603 1.390 . S
C3598 H3589 0.930 . S
C3598 C3596 1.384 . S
C3598 C3599 1.372 . S
C3599 C3598 1.372 . S
C3599 C3600 1.400 . S
C3599 C3604 1.490 . S
C3600 H3590 0.930 . S
C3600 C3599 1.400 . S
C3600 C3603 1.386 . S
H3601 C3617 0.930 . S
H3602 C3618 0.931 . S
C3603 H3591 0.929 . S
C3603 C3597 1.390 . S
C3603 C3600 1.386 . S
C3604 C3599 1.490 . S
C3604 C3606 1.395 . S
C3604 C3607 1.403 . S
H3605 C3611 0.930 . S
C3606 H3592 0.930 1_565 S
C3606 C3604 1.395 . S
C3606 C3609 1.403 . S
C3607 C3604 1.403 . S
C3607 C3608 1.524 . S
C3607 C3611 1.400 . S
C3608 H3593 0.960 . S
C3608 H3594 0.960 . S
C3608 H3595 0.960 . S
C3608 C3607 1.524 . S
C3609 C3606 1.403 . S
C3609 C3610 1.392 . S
C3609 C3613 1.495 1_565 S
C3610 C3609 1.392 . S
C3610 C3611 1.385 . S
C3610 C3612 1.478 . S
C3611 H3605 0.930 . S
C3611 C3607 1.400 . S
C3611 C3610 1.385 . S
C3612 C3610 1.478 . S
C3612 C3614 1.381 . S
C3612 C3618 1.383 . S
C3613 C3609 1.495 1_545 S
C3613 H3619 0.959 . S
C3613 H3620 0.961 . S
C3613 H3621 0.960 . S
C3614 C3612 1.381 . S
C3614 C3615 1.394 . S
C3614 H3622 0.930 . S
C3615 C3614 1.394 . S
C3615 C3616 1.383 . S
C3615 H3623 0.929 . S
C3616 C3615 1.383 . S
C3616 C3617 1.377 . S
C3617 H3601 0.930 . S
C3617 C3616 1.377 . S
C3617 C3618 1.379 . S
C3618 H3602 0.931 . S
C3618 C3612 1.383 . S
C3618 C3617 1.379 . S
H3619 C3613 0.959 . S
H3620 C3613 0.961 . S
H3621 C3613 0.960 . S
H3622 C3614 0.930 . S
H3623 C3615 0.929 . S
H3624 C3632 0.929 . S
H3625 C3634 0.930 . S
H3626 C3636 0.930 . S
H3627 C3639 0.929 . S
H3628 C3642 0.930 . S
H3629 C3644 0.960 . S
H3630 C3644 0.960 . S
H3631 C3644 0.960 . S
C3632 H3624 0.929 . S
C3632 C3633 1.377 . S
C3632 C3634 1.384 . S
C3633 C3632 1.377 . S
C3633 C3639 1.390 . S
C3634 H3625 0.930 . S
C3634 C3632 1.384 . S
C3634 C3635 1.372 . S
C3635 C3634 1.372 . S
C3635 C3636 1.400 . S
C3635 C3640 1.490 . S
C3636 H3626 0.930 . S
C3636 C3635 1.400 . S
C3636 C3639 1.386 . S
H3637 C3653 0.930 . S
H3638 C3654 0.931 . S
C3639 H3627 0.929 . S
C3639 C3633 1.390 . S
C3639 C3636 1.386 . S
C3640 C3635 1.490 . S
C3640 C3642 1.395 . S
C3640 C3643 1.403 . S
H3641 C3647 0.930 . S
C3642 H3628 0.930 . S
C3642 C3640 1.395 . S
C3642 C3645 1.403 . S
C3643 C3640 1.403 . S
C3643 C3644 1.524 . S
C3643 C3647 1.400 . S
C3644 H3629 0.960 . S
C3644 H3630 0.960 . S
C3644 H3631 0.960 . S
C3644 C3643 1.524 . S
C3645 C3642 1.403 . S
C3645 C3646 1.392 . S
C3645 C3649 1.495 . S
C3646 C3645 1.392 . S
C3646 C3647 1.385 . S
C3646 C3648 1.478 . S
C3647 H3641 0.930 . S
C3647 C3643 1.400 . S
C3647 C3646 1.385 . S
C3648 C3646 1.478 . S
C3648 C3650 1.381 . S
C3648 C3654 1.383 . S
C3649 C3645 1.495 . S
C3649 H3655 0.959 . S
C3649 H3656 0.961 . S
C3649 H3657 0.960 . S
C3650 C3648 1.381 . S
C3650 C3651 1.394 . S
C3650 H3658 0.930 . S
C3651 C3650 1.394 . S
C3651 C3652 1.383 . S
C3651 H3659 0.929 . S
C3652 C3651 1.383 . S
C3652 C3653 1.377 . S
C3653 H3637 0.930 . S
C3653 C3652 1.377 . S
C3653 C3654 1.379 . S
C3654 H3638 0.931 . S
C3654 C3648 1.383 . S
C3654 C3653 1.379 . S
H3655 C3649 0.959 . S
H3656 C3649 0.961 . S
H3657 C3649 0.960 . S
H3658 C3650 0.930 . S
H3659 C3651 0.929 . S
H3660 C3668 0.929 . S
H3661 C3670 0.930 . S
H3662 C3672 0.930 . S
H3663 C3675 0.929 . S
H3664 C3678 0.930 . S
H3665 C3680 0.960 . S
H3666 C3680 0.960 . S
H3667 C3680 0.960 . S
C3668 H3660 0.929 . S
C3668 C3669 1.377 . S
C3668 C3670 1.384 . S
C3669 C3668 1.377 . S
C3669 C3675 1.390 . S
C3670 H3661 0.930 . S
C3670 C3668 1.384 . S
C3670 C3671 1.372 . S
C3671 C3670 1.372 . S
C3671 C3672 1.400 . S
C3671 C3676 1.490 . S
C3672 H3662 0.930 . S
C3672 C3671 1.400 . S
C3672 C3675 1.386 . S
H3673 C3689 0.930 . S
H3674 C3690 0.931 . S
C3675 H3663 0.929 . S
C3675 C3669 1.390 . S
C3675 C3672 1.386 . S
C3676 C3671 1.490 . S
C3676 C3678 1.395 . S
C3676 C3679 1.403 . S
H3677 C3683 0.930 . S
C3678 H3664 0.930 . S
C3678 C3676 1.395 . S
C3678 C3681 1.403 . S
C3679 C3676 1.403 . S
C3679 C3680 1.524 . S
C3679 C3683 1.400 . S
C3680 H3665 0.960 . S
C3680 H3666 0.960 . S
C3680 H3667 0.960 . S
C3680 C3679 1.524 . S
C3681 C3678 1.403 . S
C3681 C3682 1.392 . S
C3681 C3685 1.495 . S
C3682 C3681 1.392 . S
C3682 C3683 1.385 . S
C3682 C3684 1.478 . S
C3683 H3677 0.930 . S
C3683 C3679 1.400 . S
C3683 C3682 1.385 . S
C3684 C3682 1.478 . S
C3684 C3686 1.381 . S
C3684 C3690 1.383 . S
C3685 C3681 1.495 . S
C3685 H3691 0.959 . S
C3685 H3692 0.961 . S
C3685 H3693 0.960 . S
C3686 C3684 1.381 . S
C3686 C3687 1.394 . S
C3686 H3694 0.930 . S
C3687 C3686 1.394 . S
C3687 C3688 1.383 . S
C3687 H3695 0.929 . S
C3688 C3687 1.383 . S
C3688 C3689 1.377 . S
C3689 H3673 0.930 . S
C3689 C3688 1.377 . S
C3689 C3690 1.379 . S
C3690 H3674 0.931 . S
C3690 C3684 1.383 . S
C3690 C3689 1.379 . S
H3691 C3685 0.959 . S
H3692 C3685 0.961 . S
H3693 C3685 0.960 . S
H3694 C3686 0.930 . S
H3695 C3687 0.929 . S
H3696 C3704 0.929 . S
H3697 C3706 0.930 . S
H3698 C3708 0.922 1_554 S
H3699 C3711 0.929 . S
H3700 C3714 0.930 . S
H3701 C3716 0.960 . S
H3702 C3716 0.960 . S
H3703 C3716 0.960 . S
C3704 H3696 0.929 . S
C3704 C3705 1.377 . S
C3704 C3706 1.384 . S
C3705 C3704 1.377 . S
C3705 C3711 1.390 1_556 S
C3706 H3697 0.930 . S
C3706 C3704 1.384 . S
C3706 C3707 1.372 . S
C3707 C3706 1.372 . S
C3707 C3708 1.412 . S
C3707 C3712 1.490 . S
C3708 H3698 0.922 1_556 S
C3708 C3707 1.412 . S
C3708 C3711 1.381 1_556 S
H3709 C3725 0.930 . S
H3710 C3726 0.931 . S
C3711 H3699 0.929 . S
C3711 C3705 1.390 1_554 S
C3711 C3708 1.381 1_554 S
C3712 C3707 1.490 . S
C3712 C3714 1.395 . S
C3712 C3715 1.403 . S
H3713 C3719 0.930 . S
C3714 H3700 0.930 . S
C3714 C3712 1.395 . S
C3714 C3717 1.403 . S
C3715 C3712 1.403 . S
C3715 C3716 1.524 . S
C3715 C3719 1.400 . S
C3716 H3701 0.960 . S
C3716 H3702 0.960 . S
C3716 H3703 0.960 . S
C3716 C3715 1.524 . S
C3717 C3714 1.403 . S
C3717 C3718 1.392 . S
C3717 C3721 1.495 . S
C3718 C3717 1.392 . S
C3718 C3719 1.385 . S
C3718 C3720 1.478 . S
C3719 H3713 0.930 . S
C3719 C3715 1.400 . S
C3719 C3718 1.385 . S
C3720 C3718 1.478 . S
C3720 C3722 1.381 . S
C3720 C3726 1.383 . S
C3721 C3717 1.495 . S
C3721 H3727 0.959 . S
C3721 H3728 0.961 1_556 S
C3721 H3729 0.960 . S
C3722 C3720 1.381 . S
C3722 C3723 1.394 . S
C3722 H3730 0.930 . S
C3723 C3722 1.394 . S
C3723 C3724 1.383 . S
C3723 H3731 0.929 . S
C3724 C3723 1.383 . S
C3724 C3725 1.377 . S
C3725 H3709 0.930 . S
C3725 C3724 1.377 . S
C3725 C3726 1.379 . S
C3726 H3710 0.931 . S
C3726 C3720 1.383 . S
C3726 C3725 1.379 . S
H3727 C3721 0.959 . S
H3728 C3721 0.961 1_554 S
H3729 C3721 0.960 . S
H3730 C3722 0.930 . S
H3731 C3723 0.929 . S
H3732 C3740 0.929 . S
H3733 C3742 0.930 . S
H3734 C3744 0.930 . S
H3735 C3747 0.929 . S
H3736 C3750 0.930 . S
H3737 C3752 0.960 . S
H3738 C3752 0.960 . S
H3739 C3752 0.960 . S
C3740 H3732 0.929 . S
C3740 C3741 1.377 . S
C3740 C3742 1.384 . S
C3741 C3740 1.377 . S
C3741 C3747 1.390 . S
C3742 H3733 0.930 . S
C3742 C3740 1.384 . S
C3742 C3743 1.372 . S
C3743 C3742 1.372 . S
C3743 C3744 1.400 . S
C3743 C3748 1.490 . S
C3744 H3734 0.930 . S
C3744 C3743 1.400 . S
C3744 C3747 1.386 . S
H3745 C3761 0.930 . S
H3746 C3762 0.931 . S
C3747 H3735 0.929 . S
C3747 C3741 1.390 . S
C3747 C3744 1.386 . S
C3748 C3743 1.490 . S
C3748 C3750 1.395 . S
C3748 C3751 1.403 . S
H3749 C3755 0.930 . S
C3750 H3736 0.930 . S
C3750 C3748 1.395 . S
C3750 C3753 1.403 . S
C3751 C3748 1.403 . S
C3751 C3752 1.524 . S
C3751 C3755 1.400 . S
C3752 H3737 0.960 . S
C3752 H3738 0.960 . S
C3752 H3739 0.960 . S
C3752 C3751 1.524 . S
C3753 C3750 1.403 . S
C3753 C3754 1.392 . S
C3753 C3757 1.495 . S
C3754 C3753 1.392 . S
C3754 C3755 1.385 . S
C3754 C3756 1.478 . S
C3755 H3749 0.930 . S
C3755 C3751 1.400 . S
C3755 C3754 1.385 . S
C3756 C3754 1.478 . S
C3756 C3758 1.381 . S
C3756 C3762 1.383 . S
C3757 C3753 1.495 . S
C3757 H3763 0.959 . S
C3757 H3764 0.961 . S
C3757 H3765 0.960 . S
C3758 C3756 1.381 . S
C3758 C3759 1.394 . S
C3758 H3766 0.930 . S
C3759 C3758 1.394 . S
C3759 C3760 1.383 . S
C3759 H3767 0.929 . S
C3760 C3759 1.383 . S
C3760 C3761 1.377 . S
C3761 H3745 0.930 . S
C3761 C3760 1.377 . S
C3761 C3762 1.379 . S
C3762 H3746 0.931 . S
C3762 C3756 1.383 . S
C3762 C3761 1.379 . S
H3763 C3757 0.959 . S
H3764 C3757 0.961 . S
H3765 C3757 0.960 . S
H3766 C3758 0.930 . S
H3767 C3759 0.929 . S
H3768 C3776 0.929 . S
H3769 C3778 0.930 . S
H3770 C3780 0.930 . S
H3771 C3783 0.929 . S
H3772 C3786 0.930 . S
H3773 C3788 0.960 . S
H3774 C3788 0.960 . S
H3775 C3788 0.960 . S
C3776 H3768 0.929 . S
C3776 C3777 1.377 . S
C3776 C3778 1.384 . S
C3777 C3776 1.377 . S
C3777 C3783 1.390 . S
C3778 H3769 0.930 . S
C3778 C3776 1.384 . S
C3778 C3779 1.372 . S
C3779 C3778 1.372 . S
C3779 C3780 1.400 . S
C3779 C3784 1.490 . S
C3780 H3770 0.930 . S
C3780 C3779 1.400 . S
C3780 C3783 1.386 . S
H3781 C3797 0.930 . S
H3782 C3798 0.931 . S
C3783 H3771 0.929 . S
C3783 C3777 1.390 . S
C3783 C3780 1.386 . S
C3784 C3779 1.490 . S
C3784 C3786 1.395 . S
C3784 C3787 1.403 . S
H3785 C3791 0.930 . S
C3786 H3772 0.930 . S
C3786 C3784 1.395 . S
C3786 C3789 1.403 . S
C3787 C3784 1.403 . S
C3787 C3788 1.524 . S
C3787 C3791 1.400 . S
C3788 H3773 0.960 . S
C3788 H3774 0.960 . S
C3788 H3775 0.960 . S
C3788 C3787 1.524 . S
C3789 C3786 1.403 . S
C3789 C3790 1.392 . S
C3789 C3793 1.495 . S
C3790 C3789 1.392 . S
C3790 C3791 1.385 . S
C3790 C3792 1.478 . S
C3791 H3785 0.930 . S
C3791 C3787 1.400 . S
C3791 C3790 1.385 . S
C3792 C3790 1.478 . S
C3792 C3794 1.381 . S
C3792 C3798 1.383 . S
C3793 C3789 1.495 . S
C3793 H3799 0.959 . S
C3793 H3800 0.961 . S
C3793 H3801 0.960 . S
C3794 C3792 1.381 . S
C3794 C3795 1.394 . S
C3794 H3802 0.930 . S
C3795 C3794 1.394 . S
C3795 C3796 1.383 . S
C3795 H3803 0.929 . S
C3796 C3795 1.383 . S
C3796 C3797 1.377 . S
C3797 H3781 0.930 . S
C3797 C3796 1.377 . S
C3797 C3798 1.379 . S
C3798 H3782 0.931 . S
C3798 C3792 1.383 . S
C3798 C3797 1.379 . S
H3799 C3793 0.959 . S
H3800 C3793 0.961 . S
H3801 C3793 0.960 . S
H3802 C3794 0.930 . S
H3803 C3795 0.929 . S
H3804 C3812 0.929 . S
H3805 C3814 0.930 . S
H3806 C3816 0.930 . S
H3807 C3819 0.929 . S
H3808 C3822 0.930 . S
H3809 C3824 0.960 . S
H3810 C3824 0.960 . S
H3811 C3824 0.960 . S
C3812 H3804 0.929 . S
C3812 C3813 1.377 . S
C3812 C3814 1.384 . S
C3813 C3812 1.377 . S
C3813 C3819 1.390 . S
C3814 H3805 0.930 . S
C3814 C3812 1.384 . S
C3814 C3815 1.372 . S
C3815 C3814 1.372 . S
C3815 C3816 1.400 . S
C3815 C3820 1.490 . S
C3816 H3806 0.930 . S
C3816 C3815 1.400 . S
C3816 C3819 1.386 . S
H3817 C3833 0.930 . S
H3818 C3834 0.931 . S
C3819 H3807 0.929 . S
C3819 C3813 1.390 . S
C3819 C3816 1.386 . S
C3820 C3815 1.490 . S
C3820 C3822 1.395 . S
C3820 C3823 1.403 . S
H3821 C3827 0.930 . S
C3822 H3808 0.930 . S
C3822 C3820 1.395 . S
C3822 C3825 1.403 . S
C3823 C3820 1.403 . S
C3823 C3824 1.524 . S
C3823 C3827 1.400 . S
C3824 H3809 0.960 . S
C3824 H3810 0.960 . S
C3824 H3811 0.960 . S
C3824 C3823 1.524 . S
C3825 C3822 1.403 . S
C3825 C3826 1.392 . S
C3825 C3829 1.495 . S
C3826 C3825 1.392 . S
C3826 C3827 1.385 . S
C3826 C3828 1.478 . S
C3827 H3821 0.930 . S
C3827 C3823 1.400 . S
C3827 C3826 1.385 . S
C3828 C3826 1.478 . S
C3828 C3830 1.381 . S
C3828 C3834 1.383 . S
C3829 C3825 1.495 . S
C3829 H3835 0.959 . S
C3829 H3836 0.961 . S
C3829 H3837 0.960 . S
C3830 C3828 1.381 . S
C3830 C3831 1.394 . S
C3830 H3838 0.930 . S
C3831 C3830 1.394 . S
C3831 C3832 1.383 . S
C3831 H3839 0.929 . S
C3832 C3831 1.383 . S
C3832 C3833 1.377 . S
C3833 H3817 0.930 . S
C3833 C3832 1.377 . S
C3833 C3834 1.379 . S
C3834 H3818 0.931 . S
C3834 C3828 1.383 . S
C3834 C3833 1.379 . S
H3835 C3829 0.959 . S
H3836 C3829 0.961 . S
H3837 C3829 0.960 . S
H3838 C3830 0.930 . S
H3839 C3831 0.929 . S
H3840 C3848 0.929 . S
H3841 C3850 0.930 . S
H3842 C3852 0.930 . S
H3843 C3855 0.929 . S
H3844 C3858 0.930 . S
H3845 C3860 0.960 . S
H3846 C3860 0.960 . S
H3847 C3860 0.960 . S
C3848 H3840 0.929 . S
C3848 C3849 1.377 . S
C3848 C3850 1.384 . S
C3849 C3848 1.377 . S
C3849 C3855 1.390 . S
C3850 H3841 0.930 . S
C3850 C3848 1.384 . S
C3850 C3851 1.372 . S
C3851 C3850 1.372 . S
C3851 C3852 1.400 . S
C3851 C3856 1.490 . S
C3852 H3842 0.930 . S
C3852 C3851 1.400 . S
C3852 C3855 1.386 . S
H3853 C3869 0.930 . S
H3854 C3870 0.931 . S
C3855 H3843 0.929 . S
C3855 C3849 1.390 . S
C3855 C3852 1.386 . S
C3856 C3851 1.490 . S
C3856 C3858 1.395 . S
C3856 C3859 1.403 . S
H3857 C3863 0.930 . S
C3858 H3844 0.930 . S
C3858 C3856 1.395 . S
C3858 C3861 1.403 . S
C3859 C3856 1.403 . S
C3859 C3860 1.524 . S
C3859 C3863 1.400 . S
C3860 H3845 0.960 . S
C3860 H3846 0.960 . S
C3860 H3847 0.960 . S
C3860 C3859 1.524 . S
C3861 C3858 1.403 . S
C3861 C3862 1.392 . S
C3861 C3865 1.495 . S
C3862 C3861 1.392 . S
C3862 C3863 1.385 . S
C3862 C3864 1.478 . S
C3863 H3857 0.930 . S
C3863 C3859 1.400 . S
C3863 C3862 1.385 . S
C3864 C3862 1.478 . S
C3864 C3866 1.381 . S
C3864 C3870 1.383 . S
C3865 C3861 1.495 . S
C3865 H3871 0.959 . S
C3865 H3872 0.961 . S
C3865 H3873 0.960 . S
C3866 C3864 1.381 . S
C3866 C3867 1.394 . S
C3866 H3874 0.930 . S
C3867 C3866 1.394 . S
C3867 C3868 1.383 . S
C3867 H3875 0.929 . S
C3868 C3867 1.383 . S
C3868 C3869 1.377 . S
C3869 H3853 0.930 . S
C3869 C3868 1.377 . S
C3869 C3870 1.379 . S
C3870 H3854 0.931 . S
C3870 C3864 1.383 . S
C3870 C3869 1.379 . S
H3871 C3865 0.959 . S
H3872 C3865 0.961 . S
H3873 C3865 0.960 . S
H3874 C3866 0.930 . S
H3875 C3867 0.929 . S
H3876 C3884 0.929 . S
H3877 C3886 0.930 . S
H3878 C3888 0.930 . S
H3879 C3891 0.929 . S
H3880 C3894 0.930 . S
H3881 C3896 0.960 . S
H3882 C3896 0.960 . S
H3883 C3896 0.960 . S
C3884 H3876 0.929 . S
C3884 C3885 1.377 . S
C3884 C3886 1.384 . S
C3885 C3884 1.377 . S
C3885 C3891 1.390 . S
C3886 H3877 0.930 . S
C3886 C3884 1.384 . S
C3886 C3887 1.372 . S
C3887 C3886 1.372 . S
C3887 C3888 1.400 . S
C3887 C3892 1.490 . S
C3888 H3878 0.930 . S
C3888 C3887 1.400 . S
C3888 C3891 1.386 . S
H3889 C3905 0.930 . S
H3890 C3906 0.931 . S
C3891 H3879 0.929 . S
C3891 C3885 1.390 . S
C3891 C3888 1.386 . S
C3892 C3887 1.490 . S
C3892 C3894 1.395 . S
C3892 C3895 1.403 . S
H3893 C3899 0.930 . S
C3894 H3880 0.930 . S
C3894 C3892 1.395 . S
C3894 C3897 1.403 . S
C3895 C3892 1.403 . S
C3895 C3896 1.524 . S
C3895 C3899 1.400 . S
C3896 H3881 0.960 . S
C3896 H3882 0.960 . S
C3896 H3883 0.960 . S
C3896 C3895 1.524 . S
C3897 C3894 1.403 . S
C3897 C3898 1.392 . S
C3897 C3901 1.495 . S
C3898 C3897 1.392 . S
C3898 C3899 1.385 . S
C3898 C3900 1.478 . S
C3899 H3893 0.930 . S
C3899 C3895 1.400 . S
C3899 C3898 1.385 . S
C3900 C3898 1.478 . S
C3900 C3902 1.381 . S
C3900 C3906 1.383 . S
C3901 C3897 1.495 . S
C3901 H3907 0.959 . S
C3901 H3908 0.961 . S
C3901 H3909 0.960 . S
C3902 C3900 1.381 . S
C3902 C3903 1.394 . S
C3902 H3910 0.930 . S
C3903 C3902 1.394 . S
C3903 C3904 1.383 . S
C3903 H3911 0.929 . S
C3904 C3903 1.383 . S
C3904 C3905 1.377 . S
C3905 H3889 0.930 . S
C3905 C3904 1.377 . S
C3905 C3906 1.379 . S
C3906 H3890 0.931 . S
C3906 C3900 1.383 . S
C3906 C3905 1.379 . S
H3907 C3901 0.959 . S
H3908 C3901 0.961 . S
H3909 C3901 0.960 . S
H3910 C3902 0.930 . S
H3911 C3903 0.929 . S
H3912 C3920 0.929 . S
H3913 C3922 0.930 . S
H3914 C3924 0.930 . S
H3915 C3927 0.929 . S
H3916 C3930 0.930 . S
H3917 C3932 0.960 . S
H3918 C3932 0.960 . S
H3919 C3932 0.960 . S
C3920 H3912 0.929 . S
C3920 C3921 1.377 . S
C3920 C3922 1.384 . S
C3921 C3920 1.377 . S
C3921 C3927 1.390 . S
C3922 H3913 0.930 . S
C3922 C3920 1.384 . S
C3922 C3923 1.372 . S
C3923 C3922 1.372 . S
C3923 C3924 1.400 . S
C3923 C3928 1.490 . S
C3924 H3914 0.930 . S
C3924 C3923 1.400 . S
C3924 C3927 1.386 . S
H3925 C3941 0.930 . S
H3926 C3942 0.931 . S
C3927 H3915 0.929 . S
C3927 C3921 1.390 . S
C3927 C3924 1.386 . S
C3928 C3923 1.490 . S
C3928 C3930 1.395 . S
C3928 C3931 1.403 . S
H3929 C3935 0.930 . S
C3930 H3916 0.930 . S
C3930 C3928 1.395 . S
C3930 C3933 1.403 . S
C3931 C3928 1.403 . S
C3931 C3932 1.524 . S
C3931 C3935 1.400 . S
C3932 H3917 0.960 . S
C3932 H3918 0.960 . S
C3932 H3919 0.960 . S
C3932 C3931 1.524 . S
C3933 C3930 1.403 . S
C3933 C3934 1.392 . S
C3933 C3937 1.495 . S
C3934 C3933 1.392 . S
C3934 C3935 1.385 . S
C3934 C3936 1.478 . S
C3935 H3929 0.930 . S
C3935 C3931 1.400 . S
C3935 C3934 1.385 . S
C3936 C3934 1.478 . S
C3936 C3938 1.381 . S
C3936 C3942 1.383 . S
C3937 C3933 1.495 . S
C3937 H3943 0.959 . S
C3937 H3944 0.961 . S
C3937 H3945 0.960 . S
C3938 C3936 1.381 . S
C3938 C3939 1.394 . S
C3938 H3946 0.930 . S
C3939 C3938 1.394 . S
C3939 C3940 1.383 . S
C3939 H3947 0.929 . S
C3940 C3939 1.383 . S
C3940 C3941 1.377 . S
C3941 H3925 0.930 . S
C3941 C3940 1.377 . S
C3941 C3942 1.379 . S
C3942 H3926 0.931 . S
C3942 C3936 1.383 . S
C3942 C3941 1.379 . S
H3943 C3937 0.959 . S
H3944 C3937 0.961 . S
H3945 C3937 0.960 . S
H3946 C3938 0.930 . S
H3947 C3939 0.929 . S
H3948 C3956 0.929 . S
H3949 C3958 0.930 . S
H3950 C3960 0.930 . S
H3951 C3963 0.929 . S
H3952 C3966 0.930 . S
H3953 C3968 0.960 . S
H3954 C3968 0.960 . S
H3955 C3968 0.960 . S
C3956 H3948 0.929 . S
C3956 C3957 1.377 . S
C3956 C3958 1.384 . S
C3957 C3956 1.377 . S
C3957 C3963 1.390 . S
C3958 H3949 0.930 . S
C3958 C3956 1.384 . S
C3958 C3959 1.372 . S
C3959 C3958 1.372 . S
C3959 C3960 1.400 . S
C3959 C3964 1.490 . S
C3960 H3950 0.930 . S
C3960 C3959 1.400 . S
C3960 C3963 1.386 . S
H3961 C3977 0.930 . S
H3962 C3978 0.931 . S
C3963 H3951 0.929 . S
C3963 C3957 1.390 . S
C3963 C3960 1.386 . S
C3964 C3959 1.490 . S
C3964 C3966 1.395 . S
C3964 C3967 1.403 . S
H3965 C3971 0.930 . S
C3966 H3952 0.930 . S
C3966 C3964 1.395 . S
C3966 C3969 1.403 . S
C3967 C3964 1.403 . S
C3967 C3968 1.524 . S
C3967 C3971 1.400 . S
C3968 H3953 0.960 . S
C3968 H3954 0.960 . S
C3968 H3955 0.960 . S
C3968 C3967 1.524 . S
C3969 C3966 1.403 . S
C3969 C3970 1.392 . S
C3969 C3973 1.495 . S
C3970 C3969 1.392 . S
C3970 C3971 1.385 . S
C3970 C3972 1.478 . S
C3971 H3965 0.930 . S
C3971 C3967 1.400 . S
C3971 C3970 1.385 . S
C3972 C3970 1.478 . S
C3972 C3974 1.381 . S
C3972 C3978 1.383 . S
C3973 C3969 1.495 . S
C3973 H3979 0.959 . S
C3973 H3980 0.961 . S
C3973 H3981 0.960 . S
C3974 C3972 1.381 . S
C3974 C3975 1.394 . S
C3974 H3982 0.930 . S
C3975 C3974 1.394 . S
C3975 C3976 1.383 . S
C3975 H3983 0.929 . S
C3976 C3975 1.383 . S
C3976 C3977 1.377 . S
C3977 H3961 0.930 . S
C3977 C3976 1.377 . S
C3977 C3978 1.379 . S
C3978 H3962 0.931 . S
C3978 C3972 1.383 . S
C3978 C3977 1.379 . S
H3979 C3973 0.959 . S
H3980 C3973 0.961 . S
H3981 C3973 0.960 . S
H3982 C3974 0.930 . S
H3983 C3975 0.929 . S
H3984 C3992 0.929 . S
H3985 C3994 0.930 . S
H3986 C3996 0.930 . S
H3987 C3999 0.929 . S
H3988 C4002 0.930 . S
H3989 C4004 0.960 . S
H3990 C4004 0.960 . S
H3991 C4004 0.960 . S
C3992 H3984 0.929 . S
C3992 C3993 1.377 . S
C3992 C3994 1.384 . S
C3993 C3992 1.377 . S
C3993 C3999 1.390 . S
C3994 H3985 0.930 . S
C3994 C3992 1.384 . S
C3994 C3995 1.372 . S
C3995 C3994 1.372 . S
C3995 C3996 1.400 . S
C3995 C4000 1.490 . S
C3996 H3986 0.930 . S
C3996 C3995 1.400 . S
C3996 C3999 1.386 . S
H3997 C4013 0.930 . S
H3998 C4014 0.931 . S
C3999 H3987 0.929 . S
C3999 C3993 1.390 . S
C3999 C3996 1.386 . S
C4000 C3995 1.490 . S
C4000 C4002 1.395 . S
C4000 C4003 1.403 . S
H4001 C4007 0.930 . S
C4002 H3988 0.930 . S
C4002 C4000 1.395 . S
C4002 C4005 1.403 . S
C4003 C4000 1.403 . S
C4003 C4004 1.524 . S
C4003 C4007 1.400 . S
C4004 H3989 0.960 . S
C4004 H3990 0.960 . S
C4004 H3991 0.960 . S
C4004 C4003 1.524 . S
C4005 C4002 1.403 . S
C4005 C4006 1.392 . S
C4005 C4009 1.495 . S
C4006 C4005 1.392 . S
C4006 C4007 1.385 . S
C4006 C4008 1.478 . S
C4007 H4001 0.930 . S
C4007 C4003 1.400 . S
C4007 C4006 1.385 . S
C4008 C4006 1.478 . S
C4008 C4010 1.381 . S
C4008 C4014 1.383 . S
C4009 C4005 1.495 . S
C4009 H4015 0.959 . S
C4009 H4016 0.961 . S
C4009 H4017 0.960 . S
C4010 C4008 1.381 . S
C4010 C4011 1.394 . S
C4010 H4018 0.930 . S
C4011 C4010 1.394 . S
C4011 C4012 1.383 . S
C4011 H4019 0.929 . S
C4012 C4011 1.383 . S
C4012 C4013 1.377 . S
C4013 H3997 0.930 . S
C4013 C4012 1.377 . S
C4013 C4014 1.379 . S
C4014 H3998 0.931 . S
C4014 C4008 1.383 . S
C4014 C4013 1.379 . S
H4015 C4009 0.959 . S
H4016 C4009 0.961 . S
H4017 C4009 0.960 . S
H4018 C4010 0.930 . S
H4019 C4011 0.929 . S
H4020 C4028 0.929 . S
H4021 C4030 0.930 . S
H4022 C4032 0.930 . S
H4023 C4035 0.929 . S
H4024 C4038 0.930 . S
H4025 C4040 0.960 . S
H4026 C4040 0.960 . S
H4027 C4040 0.960 . S
C4028 H4020 0.929 . S
C4028 C4029 1.377 . S
C4028 C4030 1.384 . S
C4029 C4028 1.377 . S
C4029 C4035 1.390 . S
C4030 H4021 0.930 . S
C4030 C4028 1.384 . S
C4030 C4031 1.372 . S
C4031 C4030 1.372 . S
C4031 C4032 1.400 . S
C4031 C4036 1.490 . S
C4032 H4022 0.930 . S
C4032 C4031 1.400 . S
C4032 C4035 1.386 . S
H4033 C4049 0.930 . S
H4034 C4050 0.931 . S
C4035 H4023 0.929 . S
C4035 C4029 1.390 . S
C4035 C4032 1.386 . S
C4036 C4031 1.490 . S
C4036 C4038 1.395 . S
C4036 C4039 1.403 . S
H4037 C4043 0.930 . S
C4038 H4024 0.930 . S
C4038 C4036 1.395 . S
C4038 C4041 1.403 . S
C4039 C4036 1.403 . S
C4039 C4040 1.524 . S
C4039 C4043 1.400 . S
C4040 H4025 0.960 . S
C4040 H4026 0.960 . S
C4040 H4027 0.960 . S
C4040 C4039 1.524 . S
C4041 C4038 1.403 . S
C4041 C4042 1.392 . S
C4041 C4045 1.495 . S
C4042 C4041 1.392 . S
C4042 C4043 1.385 . S
C4042 C4044 1.478 . S
C4043 H4037 0.930 . S
C4043 C4039 1.400 . S
C4043 C4042 1.385 . S
C4044 C4042 1.478 . S
C4044 C4046 1.381 . S
C4044 C4050 1.383 . S
C4045 C4041 1.495 . S
C4045 H4051 0.959 . S
C4045 H4052 0.961 . S
C4045 H4053 0.960 . S
C4046 C4044 1.381 . S
C4046 C4047 1.394 . S
C4046 H4054 0.930 . S
C4047 C4046 1.394 . S
C4047 C4048 1.383 . S
C4047 H4055 0.929 . S
C4048 C4047 1.383 . S
C4048 C4049 1.377 . S
C4049 H4033 0.930 . S
C4049 C4048 1.377 . S
C4049 C4050 1.379 . S
C4050 H4034 0.931 . S
C4050 C4044 1.383 . S
C4050 C4049 1.379 . S
H4051 C4045 0.959 . S
H4052 C4045 0.961 . S
H4053 C4045 0.960 . S
H4054 C4046 0.930 . S
H4055 C4047 0.929 . S
H4056 C4064 0.929 . S
H4057 C4066 0.930 . S
H4058 C4068 0.930 . S
H4059 C4071 0.929 . S
H4060 C4074 0.930 . S
H4061 C4076 0.960 . S
H4062 C4076 0.960 . S
H4063 C4076 0.960 . S
C4064 H4056 0.929 . S
C4064 C4065 1.377 . S
C4064 C4066 1.384 . S
C4065 C4064 1.377 . S
C4065 C4071 1.390 . S
C4066 H4057 0.930 . S
C4066 C4064 1.384 . S
C4066 C4067 1.372 . S
C4067 C4066 1.372 . S
C4067 C4068 1.400 . S
C4067 C4072 1.490 . S
C4068 H4058 0.930 . S
C4068 C4067 1.400 . S
C4068 C4071 1.386 . S
H4069 C4085 0.930 . S
H4070 C4086 0.931 . S
C4071 H4059 0.929 . S
C4071 C4065 1.390 . S
C4071 C4068 1.386 . S
C4072 C4067 1.490 . S
C4072 C4074 1.395 . S
C4072 C4075 1.403 . S
H4073 C4079 0.930 . S
C4074 H4060 0.930 . S
C4074 C4072 1.395 . S
C4074 C4077 1.403 . S
C4075 C4072 1.403 . S
C4075 C4076 1.524 . S
C4075 C4079 1.400 . S
C4076 H4061 0.960 . S
C4076 H4062 0.960 . S
C4076 H4063 0.960 . S
C4076 C4075 1.524 . S
C4077 C4074 1.403 . S
C4077 C4078 1.392 . S
C4077 C4081 1.495 . S
C4078 C4077 1.392 . S
C4078 C4079 1.385 . S
C4078 C4080 1.478 . S
C4079 H4073 0.930 . S
C4079 C4075 1.400 . S
C4079 C4078 1.385 . S
C4080 C4078 1.478 . S
C4080 C4082 1.381 . S
C4080 C4086 1.383 . S
C4081 C4077 1.495 . S
C4081 H4087 0.959 . S
C4081 H4088 0.961 . S
C4081 H4089 0.960 . S
C4082 C4080 1.381 . S
C4082 C4083 1.394 . S
C4082 H4090 0.930 . S
C4083 C4082 1.394 . S
C4083 C4084 1.383 . S
C4083 H4091 0.929 . S
C4084 C4083 1.383 . S
C4084 C4085 1.377 . S
C4085 H4069 0.930 . S
C4085 C4084 1.377 . S
C4085 C4086 1.379 . S
C4086 H4070 0.931 . S
C4086 C4080 1.383 . S
C4086 C4085 1.379 . S
H4087 C4081 0.959 . S
H4088 C4081 0.961 . S
H4089 C4081 0.960 . S
H4090 C4082 0.930 . S
H4091 C4083 0.929 . S
H4092 C4100 0.929 . S
H4093 C4102 0.930 . S
H4094 C4104 0.930 . S
H4095 C4107 0.929 . S
H4096 C4110 0.930 . S
H4097 C4112 0.960 . S
H4098 C4112 0.960 . S
H4099 C4112 0.960 . S
C4100 H4092 0.929 . S
C4100 C4101 1.377 . S
C4100 C4102 1.384 . S
C4101 C4100 1.377 . S
C4101 C4107 1.390 . S
C4102 H4093 0.930 . S
C4102 C4100 1.384 . S
C4102 C4103 1.372 . S
C4103 C4102 1.372 . S
C4103 C4104 1.400 . S
C4103 C4108 1.490 . S
C4104 H4094 0.930 . S
C4104 C4103 1.400 . S
C4104 C4107 1.386 . S
H4105 C4121 0.930 . S
H4106 C4122 0.931 . S
C4107 H4095 0.929 . S
C4107 C4101 1.390 . S
C4107 C4104 1.386 . S
C4108 C4103 1.490 . S
C4108 C4110 1.395 . S
C4108 C4111 1.403 . S
H4109 C4115 0.930 . S
C4110 H4096 0.930 . S
C4110 C4108 1.395 . S
C4110 C4113 1.403 . S
C4111 C4108 1.403 . S
C4111 C4112 1.524 . S
C4111 C4115 1.400 . S
C4112 H4097 0.960 . S
C4112 H4098 0.960 . S
C4112 H4099 0.960 . S
C4112 C4111 1.524 . S
C4113 C4110 1.403 . S
C4113 C4114 1.392 . S
C4113 C4117 1.495 . S
C4114 C4113 1.392 . S
C4114 C4115 1.385 . S
C4114 C4116 1.478 . S
C4115 H4109 0.930 . S
C4115 C4111 1.400 . S
C4115 C4114 1.385 . S
C4116 C4114 1.478 . S
C4116 C4118 1.381 . S
C4116 C4122 1.383 . S
C4117 C4113 1.495 . S
C4117 H4123 0.959 . S
C4117 H4124 0.961 . S
C4117 H4125 0.960 . S
C4118 C4116 1.381 . S
C4118 C4119 1.394 . S
C4118 H4126 0.930 . S
C4119 C4118 1.394 . S
C4119 C4120 1.383 . S
C4119 H4127 0.929 . S
C4120 C4119 1.383 . S
C4120 C4121 1.377 . S
C4121 H4105 0.930 . S
C4121 C4120 1.377 . S
C4121 C4122 1.379 . S
C4122 H4106 0.931 . S
C4122 C4116 1.383 . S
C4122 C4121 1.379 . S
H4123 C4117 0.959 . S
H4124 C4117 0.961 . S
H4125 C4117 0.960 . S
H4126 C4118 0.930 . S
H4127 C4119 0.929 . S
C681 C3 0.932 . S
C700 C367 0.752 . S
C717 C381 0.560 . S
C736 C17 0.431 . S
C753 C31 0.813 . S
C772 C339 0.856 . S
C789 C353 0.901 . S
C808 C45 0.942 . S
C825 C59 0.915 . S
C844 C423 0.850 . S
C861 C73 0.807 . S
C880 C437 0.723 . S
C897 C87 0.997 . S
C916 C395 0.938 . S
C933 C101 0.566 . S
C952 C409 0.538 . S
C969 C171 0.791 . S
C988 C115 0.966 . S
C1005 C129 0.930 . S
C1024 C185 0.836 . S
C1041 C199 0.924 . S
C1060 C143 0.845 . S
C1077 C157 0.523 . S
C1096 C213 0.568 . S
C1113 C605 0.816 . S
C1132 C227 0.880 . S
C1149 C633 0.935 . S
C1168 C241 0.794 . S
C1185 C311 0.903 . S
C1204 C255 0.986 . S
C1221 C563 0.823 . S
C1240 C269 0.771 . S
C1257 C661 0.528 . S
C1276 C283 0.505 . S
C1293 C577 1.002 . S
C1312 C297 0.926 . S
C1329 C325 0.790 . S
C1348 C619 0.861 . S
C1365 C451 0.823 . S
C1384 C507 0.770 . S
C1401 C521 0.539 . S
C1420 C465 0.553 . S
C1437 C479 0.972 . S
C1456 C535 1.068 . S
C1473 C549 0.815 . S
C1492 C493 0.752 . S
C1509 C591 0.541 . S
C1528 C647 0.606 . S
C1545 C7 1.059 . S
C1564 C105 0.837 . S
C1581 C63 0.965 . S
C1600 C21 0.715 . S
C1617 C35 0.736 . S
C1636 C77 0.788 . S
C1653 C49 0.796 . S
C1672 C91 0.756 . S
C1689 C287 0.789 . S
C1708 C119 1.022 . S
C1725 C581 0.807 . S
C1744 C133 0.856 . S
C1761 C147 1.198 . S
C1780 C595 0.790 . S
C1797 C161 0.881 . S
C1816 C609 1.218 . S
C1833 C665 0.880 . S
C1852 C175 1.218 . S
C1869 C189 0.832 . S
C1888 C301 0.860 . S
C1905 C203 0.985 . S
C1924 C651 0.634 . S
C1941 C217 0.791 . S
C1960 C231 1.048 . S
C1977 C245 1.193 . S
C1996 C469 0.868 . S
C2013 C259 0.801 . S
C2032 C483 0.791 . S
C2049 C497 0.756 . S
C2068 C273 0.704 . S
C2085 C315 0.795 . S
C2104 C539 0.797 . S
C2121 C511 0.764 . S
C2140 C329 0.749 . S
C2157 C441 0.711 . S
C2176 C343 0.724 . S
C2193 C357 0.825 . S
C2212 C399 0.787 . S
C2229 C413 0.883 . S
C2248 C371 1.295 . S
C2265 C385 0.804 . S
C2284 C427 1.243 . S
C2301 C455 0.719 . S
C2320 C623 0.633 . S
C2337 C637 0.957 . S
C2356 C525 0.691 . S
C2373 C567 0.712 . S
C2392 C553 0.672 . S
C2409 C9 0.974 . S
C2428 C415 0.890 . S
C2445 C429 1.004 . S
C2464 C23 0.962 . S
C2481 C37 0.914 . S
C2500 C443 0.953 . S
C2517 C51 0.796 . S
C2536 C401 0.826 . S
C2553 C387 0.869 . S
C2572 C65 0.958 . S
C2589 C79 0.901 . S
C2608 C345 0.923 . S
C2625 C359 0.824 . S
C2644 C93 0.867 . S
C2661 C107 0.924 . S
C2680 C373 1.028 . S
C2697 C667 0.880 . S
C2716 C121 0.975 . S
C2733 C135 0.789 . S
C2752 C303 0.812 . S
C2769 C149 1.007 . S
C2788 C653 0.857 . S
C2805 C233 0.977 . S
C2824 C163 0.910 . S
C2841 C177 1.034 . S
C2860 C289 0.889 . S
C2877 C191 0.831 . S
C2896 C583 0.850 . S
C2913 C597 0.882 . S
C2932 C205 0.942 . S
C2949 C611 1.038 . S
C2968 C219 0.884 . S
C2985 C527 0.880 . S
C3004 C247 1.023 . S
C3021 C541 0.804 . S
C3040 C261 0.751 . S
C3057 C555 0.916 . S
C3076 C275 0.940 . S
C3093 C317 0.827 . S
C3112 C485 0.869 . S
C3129 C457 0.904 . S
C3148 C331 0.946 . S
C3165 C471 0.882 . S
C3184 C639 0.931 . S
C3201 C499 0.903 . S
C3220 C569 0.945 . S
C3237 C625 0.930 . S
C3256 C513 0.888 . S
C3273 C8 1.548 1_655 S
C3292 C316 1.575 . S
C3309 C22 1.756 . S
C3328 C568 1.791 . S
C3345 C330 1.788 . S
C3364 C36 1.779 . S
C3381 C638 1.596 . S
C3400 C50 1.651 . S
C3417 C260 1.635 . S
C3436 C64 1.560 . S
C3453 C274 1.785 . S
C3472 C78 1.770 . S
C3489 C92 1.785 . S
C3508 C624 1.788 . S
C3525 C106 1.528 . S
C3544 C246 1.513 . S
C3561 C190 1.594 . S
C3580 C120 1.532 1_565 S
C3597 C134 1.638 . S
C3616 C204 1.568 . S
C3633 C218 1.532 . S
C3652 C148 1.531 . S
C3669 C176 1.477 . S
C3688 C162 1.471 . S
C3705 C232 1.558 1_556 S
C3724 C358 1.587 . S
C3741 C428 1.536 . S
C3760 C288 1.496 . S
C3777 C386 1.652 . S
C3796 C302 1.679 . S
C3813 C344 1.801 . S
C3832 C652 1.774 . S
C3849 C666 1.486 . S
C3868 C372 1.465 . S
C3885 C596 1.653 . S
C3904 C400 1.682 . S
C3921 C610 1.475 . S
C3940 C414 1.468 . S
C3957 C582 1.790 . S
C3976 C442 1.802 . S
C3993 C526 1.755 . S
C4012 C456 1.788 . S
C4029 C540 1.694 . S
C4048 C470 1.662 . S
C4065 C484 1.787 . S
C4084 C554 1.790 . S
C4101 C498 1.785 . S
C4120 C512 1.770 . S
