# Generated by pormake.
# Topology lon, (4)-cn, num edge types: 1
# Building blocks:
#     Node 0, Type 0, BuildingBlock: QUQFOY_clean_sbu_3, # of connection points: 4
#     Node 1, Type 0, BuildingBlock: QUQFOY_clean_sbu_3, # of connection points: 4
#     Node 2, Type 0, BuildingBlock: QUQFOY_clean_sbu_3, # of connection points: 4
#     Node 3, Type 0, BuildingBlock: QUQFOY_clean_sbu_3, # of connection points: 4
#     Edge 4, Type (0, 0), BuildingBlock: ZUJKAS_clean_linker_0, # of connection points: 2
#     Edge 5, Type (0, 0), BuildingBlock: ZUJKAS_clean_linker_0, # of connection points: 2
#     Edge 6, Type (0, 0), BuildingBlock: ZUJKAS_clean_linker_0, # of connection points: 2
#     Edge 7, Type (0, 0), BuildingBlock: ZUJKAS_clean_linker_0, # of connection points: 2
#     Edge 8, Type (0, 0), BuildingBlock: ZUJKAS_clean_linker_0, # of connection points: 2
#     Edge 9, Type (0, 0), BuildingBlock: ZUJKAS_clean_linker_0, # of connection points: 2
#     Edge 10, Type (0, 0), BuildingBlock: ZUJKAS_clean_linker_0, # of connection points: 2
#     Edge 11, Type (0, 0), BuildingBlock: ZUJKAS_clean_linker_0, # of connection points: 2
# Relax obj value: 0.135
# Max RMSD: 0.173
# Mean RMSD: 0.169
data_MOF--net-lon--node1-QUQFOY_clean_sbu_3--edge1-ZUJKAS_clean_linker_0
_symmetry_space_group_name_H-M    P1
_symmetry_Int_Tables_number       1
_symmetry_cell_setting            triclinic
loop_
_symmetry_equiv_pos_as_xyz
'x, y, z'
_cell_length_a     31.028757
_cell_length_b     33.665444
_cell_length_c     54.303824
_cell_angle_alpha  90.266254
_cell_angle_beta   89.874392
_cell_angle_gamma 117.36746
loop_
_atom_site_label
_atom_site_type_symbol
_atom_site_fract_x
_atom_site_fract_y
_atom_site_fract_z
_atom_type_partial_charge
C0 C 0.2299 0.65792 0.04132 0.0
O1 O 0.23912 0.69792 0.04632 0.0
Cd2 Cd 0.31673 0.7537 0.05958 0.0
O3 O 0.26281 0.64541 0.04335 0.0
Cd4 Cd 0.3502 0.6795 0.05525 0.0
C5 C 0.32942 0.70654 0.11286 0.0
O6 O 0.37312 0.7467 0.03161 0.0
O7 O 0.42881 0.74862 0.05599 0.0
O8 O 0.36346 0.6345 0.02374 0.0
C9 C 0.41694 0.76642 0.03849 0.0
O10 O 0.32335 0.73779 0.10293 0.0
C11 C 0.38183 0.61683 0.03815 0.0
O12 O 0.33742 0.67934 0.09963 0.0
O13 O 0.38487 0.62778 0.06073 0.0
C14 C 0.5649 0.3333 0.52186 0.0
O15 O 0.56623 0.31068 0.50334 0.0
Cd16 Cd 0.6047 0.26354 0.5018 0.0
O17 O 0.58441 0.33162 0.54223 0.0
Cd18 Cd 0.62915 0.29272 0.55949 0.0
C19 C 0.72005 0.34174 0.5175 0.0
O20 O 0.58089 0.22257 0.53918 0.0
O21 O 0.64436 0.22663 0.55727 0.0
O22 O 0.5866 0.28214 0.59869 0.0
C23 C 0.6061 0.2034 0.54504 0.0
O24 O 0.69139 0.31517 0.50138 0.0
C25 C 0.62474 0.3003 0.61176 0.0
O26 O 0.70573 0.34197 0.53949 0.0
O27 O 0.66505 0.31582 0.60044 0.0
C28 C 0.21909 0.64027 0.46672 0.0
O29 O 0.24281 0.6632 0.48516 0.0
Cd30 Cd 0.32813 0.71108 0.48657 0.0
O31 O 0.2404 0.64199 0.44633 0.0
Cd32 Cd 0.32408 0.68147 0.42908 0.0
C33 C 0.36655 0.63346 0.47123 0.0
O34 O 0.34541 0.7519 0.44914 0.0
O35 O 0.40506 0.74755 0.43134 0.0
O36 O 0.29255 0.69164 0.38974 0.0
C37 C 0.38983 0.77098 0.44333 0.0
O38 O 0.36412 0.66012 0.48725 0.0
C39 C 0.31314 0.67376 0.37678 0.0
O40 O 0.35195 0.63281 0.44925 0.0
O41 O 0.33796 0.65848 0.38824 0.0
C42 C 0.5614 0.31854 0.94775 0.0
O43 O 0.53101 0.27786 0.94426 0.0
Cd44 Cd 0.55276 0.22255 0.92997 0.0
O45 O 0.60664 0.33193 0.94418 0.0
Cd46 Cd 0.66104 0.29859 0.93235 0.0
C47 C 0.6101 0.26975 0.87571 0.0
O48 O 0.61819 0.2321 0.9568 0.0
O49 O 0.67185 0.23003 0.93237 0.0
O50 O 0.71836 0.34941 0.96238 0.0
C51 C 0.6421 0.21216 0.94984 0.0
O52 O 0.5735 0.23877 0.8863 0.0
C53 C 0.75516 0.36288 0.94839 0.0
O54 O 0.64605 0.29737 0.88828 0.0
O55 O 0.74805 0.34698 0.92667 0.0
H56 H 0.35059 0.65032 0.14087 0.0
H57 H 0.34546 0.64208 0.18563 0.0
H58 H 0.29558 0.74211 0.191 0.0
H59 H 0.30168 0.75139 0.14633 0.0
H60 H 0.36599 0.75577 0.22433 0.0
H61 H 0.22487 0.57858 0.22738 0.0
H62 H 0.27688 0.58717 0.20929 0.0
H63 H 0.23885 0.61155 0.19965 0.0
C64 C 0.33836 0.67049 0.15155 0.0
C65 C 0.3264 0.70143 0.13999 0.0
C66 C 0.33511 0.66548 0.17713 0.0
C67 C 0.31922 0.69084 0.19161 0.0
C68 C 0.30764 0.72199 0.18016 0.0
H69 H 0.27096 0.71188 0.34751 0.0
H70 H 0.2714 0.71487 0.30248 0.0
C71 C 0.31118 0.72726 0.15461 0.0
C72 C 0.31622 0.68612 0.21879 0.0
H73 H 0.26396 0.61092 0.26529 0.0
C74 C 0.34346 0.72415 0.23327 0.0
C75 C 0.28679 0.6448 0.23042 0.0
C76 C 0.25482 0.60329 0.21591 0.0
C77 C 0.34258 0.72188 0.25906 0.0
C78 C 0.31347 0.68057 0.27064 0.0
C79 C 0.28631 0.64248 0.25625 0.0
C80 C 0.31082 0.67652 0.29776 0.0
C81 C 0.37332 0.76349 0.2738 0.0
C82 C 0.33185 0.65304 0.30988 0.0
C83 C 0.3318 0.65134 0.33561 0.0
C84 C 0.3103 0.6728 0.34958 0.0
C85 C 0.28791 0.6951 0.33728 0.0
C86 C 0.28825 0.69698 0.31158 0.0
H87 H 0.40041 0.79049 0.26214 0.0
H88 H 0.34954 0.77613 0.28245 0.0
H89 H 0.3927 0.75588 0.28877 0.0
H90 H 0.34928 0.63691 0.29945 0.0
H91 H 0.34922 0.6338 0.34453 0.0
H92 H 0.54415 0.26093 0.64085 0.0
H93 H 0.54081 0.25868 0.68589 0.0
H94 H 0.69607 0.3393 0.6892 0.0
H95 H 0.69988 0.34169 0.64414 0.0
H96 H 0.5948 0.22477 0.7163 0.0
H97 H 0.63895 0.40127 0.73727 0.0
H98 H 0.61599 0.3756 0.70766 0.0
H99 H 0.67821 0.39304 0.71568 0.0
C100 C 0.57755 0.2786 0.65114 0.0
C101 C 0.6223 0.3015 0.63894 0.0
C102 C 0.57554 0.2772 0.67685 0.0
C103 C 0.61812 0.29912 0.69079 0.0
C104 C 0.66275 0.32267 0.67872 0.0
H105 H 0.6862 0.32416 0.84643 0.0
H106 H 0.68737 0.33023 0.80157 0.0
C107 C 0.66485 0.32385 0.653 0.0
C108 C 0.61618 0.29526 0.71793 0.0
H109 H 0.63483 0.35549 0.77105 0.0
C110 C 0.60328 0.25324 0.72833 0.0
C111 C 0.62765 0.33258 0.73343 0.0
C112 C 0.64067 0.3782 0.72306 0.0
C113 C 0.60238 0.24764 0.75395 0.0
C114 C 0.61346 0.28491 0.76953 0.0
C115 C 0.62628 0.32696 0.75907 0.0
C116 C 0.61235 0.28107 0.79675 0.0
C117 C 0.59092 0.20213 0.76401 0.0
C118 C 0.56961 0.25181 0.80895 0.0
C119 C 0.56891 0.24794 0.83458 0.0
C120 C 0.6108 0.27378 0.84854 0.0
C121 C 0.65332 0.3037 0.83626 0.0
C122 C 0.65406 0.30727 0.81062 0.0
H123 H 0.59703 0.18105 0.75002 0.0
H124 H 0.61338 0.20499 0.78046 0.0
H125 H 0.55216 0.18464 0.76949 0.0
H126 H 0.53666 0.2321 0.79867 0.0
H127 H 0.53542 0.22494 0.84345 0.0
H128 H 0.3975 0.6016 0.99043 0.0
H129 H 0.42893 0.55162 0.97514 0.0
H130 H 0.43699 0.51114 0.04956 0.0
H131 H 0.40722 0.56243 0.06507 0.0
H132 H 0.51697 0.5267 0.02453 0.0
H133 H 0.35667 0.41834 0.96828 0.0
H134 H 0.38168 0.47604 0.9597 0.0
H135 H 0.35594 0.45881 0.98991 0.0
C136 C 0.40571 0.58187 0.00354 0.0
C137 C 0.39962 0.58569 0.02894 0.0
C138 C 0.42341 0.55312 -0.00525 0.0
C139 C 0.43435 0.52693 0.01116 0.0
C140 C 0.42854 0.53088 0.03656 0.0
H141 H 0.4737 0.29807 0.96851 0.0
H142 H 0.44501 0.3495 0.98445 0.0
C143 C 0.41145 0.5601 0.04539 0.0
C144 C 0.45292 0.49619 0.00188 0.0
H145 H 0.42791 0.40974 0.96198 0.0
C146 C 0.49739 0.50094 0.01095 0.0
C147 C 0.42702 0.46221 0.98441 0.0
C148 C 0.37746 0.45318 0.9752 0.0
C149 C 0.51691 0.47291 0.00288 0.0
C150 C 0.49197 0.44017 0.98464 0.0
C151 C 0.44731 0.43521 0.97573 0.0
C152 C 0.51043 0.40945 0.97516 0.0
C153 C 0.56335 0.47797 0.01446 0.0
C154 C 0.55667 0.42601 0.96442 0.0
C155 C 0.57353 0.39657 0.95557 0.0
C156 C 0.54396 0.35008 0.95684 0.0
C157 C 0.49734 0.33369 0.96717 0.0
C158 C 0.48086 0.36306 0.97631 0.0
H159 H 0.56979 0.49481 0.03271 0.0
H160 H 0.56279 0.445 0.01685 0.0
H161 H 0.59437 0.49884 0.00236 0.0
H162 H 0.57961 0.46168 0.96269 0.0
H163 H 0.60943 0.41021 0.94751 0.0
H164 H 0.163 0.62905 0.50743 0.0
H165 H 0.07686 0.57838 0.5125 0.0
H166 H 0.06901 0.53398 0.43727 0.0
H167 H 0.15573 0.58436 0.43201 0.0
H168 H -0.00275 0.57485 0.48595 0.0
H169 H 0.01267 0.41707 0.47727 0.0
H170 H 0.06468 0.47066 0.48245 0.0
H171 H 0.03791 0.45603 0.45236 0.0
C172 C 0.14311 0.60857 0.4919 0.0
C173 C 0.16639 0.61059 0.46934 0.0
C174 C 0.09383 0.57968 0.49485 0.0
C175 C 0.06683 0.5521 0.47537 0.0
C176 C 0.08953 0.5545 0.45266 0.0
H177 H 0.76385 0.34893 0.47278 0.0
H178 H 0.84705 0.40097 0.46118 0.0
C179 C 0.13898 0.58346 0.44966 0.0
C180 C 0.01489 0.52094 0.4791 0.0
H181 H 0.93412 0.41013 0.48284 0.0
C182 C 0.98334 0.53882 0.48518 0.0
C183 C -0.00298 0.47403 0.47803 0.0
C184 C 0.02977 0.45311 0.47236 0.0
C185 C 0.93429 0.51096 0.4904 0.0
C186 C 0.91667 0.46407 0.48988 0.0
C187 C 0.94792 0.44615 0.48325 0.0
C188 C 0.86624 0.43303 0.49689 0.0
C189 C 0.90168 0.5319 0.49634 0.0
C190 C 0.84983 0.43354 0.52093 0.0
C191 C 0.80236 0.40386 0.52766 0.0
C192 C 0.77051 0.37299 0.51048 0.0
C193 C 0.78733 0.37234 0.48646 0.0
C194 C 0.83485 0.40201 0.47977 0.0
H195 H 0.91718 0.56691 0.48965 0.0
H196 H 0.86515 0.51233 0.48807 0.0
H197 H 0.89731 0.53241 0.51661 0.0
H198 H 0.8739 0.4567 0.53453 0.0
H199 H 0.79071 0.40514 0.54634 0.0
H200 H 0.66246 0.14805 0.92935 0.0
H201 H 0.63392 0.071 0.94386 0.0
H202 H 0.56954 0.10004 0.00745 0.0
H203 H 0.59654 0.17622 0.99279 0.0
H204 H 0.64417 0.03087 0.98778 0.0
H205 H 0.45433 -0.00088 0.97276 0.0
H206 H 0.50566 0.04833 0.96124 0.0
H207 H 0.48741 0.04566 0.99293 0.0
C208 C 0.64267 0.13803 0.94654 0.0
C209 C 0.63088 0.16774 0.95973 0.0
C210 C 0.62653 0.09415 0.95482 0.0
C211 C 0.59878 0.0797 0.97643 0.0
C212 C 0.58995 0.1103 0.99043 0.0
H213 H 0.49822 0.83349 0.05947 0.0
H214 H 0.5475 0.90874 0.04293 0.0
C215 C 0.60543 0.15379 0.98204 0.0
C216 C 0.57577 0.03202 0.98354 0.0
H217 H 0.46524 0.94395 -0.00499 0.0
C218 C 0.60505 0.0116 0.98921 0.0
C219 C 0.52472 0.00686 0.98491 0.0
C220 C 0.49116 0.02593 0.97739 0.0
C221 C 0.58446 0.96678 -0.00308 0.0
C222 C 0.53344 0.94235 -0.00057 0.0
C223 C 0.50436 0.96271 0.99324 0.0
C224 C 0.50862 0.89554 0.00832 0.0
C225 C 0.61743 0.94596 0.00193 0.0
C226 C 0.47034 0.86321 -0.00554 0.0
C227 C 0.4415 0.82089 0.00413 0.0
C228 C 0.45076 0.80977 0.02773 0.0
C229 C 0.49053 0.84124 0.04117 0.0
C230 C 0.51893 0.88408 0.03164 0.0
H231 H 0.65254 0.9638 0.99205 0.0
H232 H 0.62537 0.9481 0.02194 0.0
H233 H 0.60017 0.91018 -0.00362 0.0
H234 H 0.46172 0.87125 0.97642 0.0
H235 H 0.41132 0.79708 0.99329 0.0
H236 H 0.55851 0.39026 0.55634 0.0
H237 H 0.52119 0.43999 0.55126 0.0
H238 H 0.48154 0.39272 0.47672 0.0
H239 H 0.51804 0.3428 0.48159 0.0
H240 H 0.54643 0.50834 0.51602 0.0
H241 H 0.35432 0.38081 0.50596 0.0
H242 H 0.40036 0.36797 0.51844 0.0
H243 H 0.3948 0.37182 0.48568 0.0
C244 C 0.54146 0.39016 0.53894 0.0
C245 C 0.54115 0.36244 0.51939 0.0
C246 C 0.52022 0.41859 0.53608 0.0
C247 C 0.49801 0.41944 0.51375 0.0
C248 C 0.49759 0.39183 0.49427 0.0
H249 H 0.37531 0.57049 0.44253 0.0
H250 H 0.40767 0.51952 0.45454 0.0
C251 C 0.51879 0.3635 0.49707 0.0
C252 C 0.47731 0.45073 0.51019 0.0
H253 H 0.37369 0.45514 0.49343 0.0
C254 C 0.50854 0.49682 0.51141 0.0
C255 C 0.42789 0.43543 0.50414 0.0
C256 C 0.39226 0.3863 0.50369 0.0
C257 C 0.49202 0.52813 0.50575 0.0
C258 C 0.4429 0.51276 0.49907 0.0
C259 C 0.41141 0.4667 0.49844 0.0
C260 C 0.42368 0.54391 0.49203 0.0
C261 C 0.52759 0.57728 0.50609 0.0
C262 C 0.42166 0.57416 0.50924 0.0
C263 C 0.40324 0.60337 0.50247 0.0
C264 C 0.38631 0.60267 0.47836 0.0
C265 C 0.38815 0.57203 0.46122 0.0
C266 C 0.40653 0.54282 0.46804 0.0
H267 H 0.56581 0.583 0.5065 0.0
H268 H 0.52253 0.59433 0.48971 0.0
H269 H 0.5212 0.59302 0.52276 0.0
H270 H 0.43403 0.57495 0.52797 0.0
H271 H 0.40216 0.62638 0.51617 0.0
H272 H 0.1505 0.67238 0.03736 0.0
H273 H 0.07024 0.62104 0.02171 0.0
H274 H 0.11783 0.52082 0.00896 0.0
H275 H 0.1983 0.57177 0.02498 0.0
H276 H 0.0464 0.58272 0.97537 0.0
H277 H -0.00792 0.45287 0.04798 0.0
H278 H 0.0429 0.50778 0.05152 0.0
H279 H 0.04897 0.4659 0.03332 0.0
C280 C 0.14394 0.63933 0.0314 0.0
C281 C 0.18084 0.62614 0.03251 0.0
C282 C 0.09802 0.61007 0.02242 0.0
C283 C 0.08797 0.56703 0.01443 0.0
C284 C 0.12461 0.55365 0.01547 0.0
H285 H 0.84119 0.39331 0.92354 0.0
H286 H 0.92244 0.44324 0.93904 0.0
C287 C 0.17062 0.58288 0.02453 0.0
C288 C 0.03944 0.53678 0.0044 0.0
H289 H 0.93967 0.43638 0.01356 0.0
C290 C 0.02301 0.55071 0.9837 0.0
C291 C 0.0089 0.49532 0.0155 0.0
C292 C 0.02379 0.47963 0.03844 0.0
C293 C 0.97684 0.52416 0.9737 0.0
C294 C 0.94672 0.48225 0.98448 0.0
C295 C 0.96305 0.46841 0.00525 0.0
C296 C 0.89764 0.45263 0.97485 0.0
C297 C 0.96029 0.54165 0.95207 0.0
C298 C 0.85692 0.44081 0.98999 0.0
C299 C 0.81055 0.4121 0.98127 0.0
C300 C 0.80409 0.39456 0.95724 0.0
C301 C 0.84496 0.40653 0.94208 0.0
C302 C 0.89137 0.43519 0.95086 0.0
H303 H 0.98224 0.57842 0.95003 0.0
H304 H 0.96429 0.52558 0.93492 0.0
H305 H 0.92151 0.53366 0.95399 0.0
H306 H 0.86105 0.45385 0.00859 0.0
H307 H 0.77981 0.40344 -0.00658 0.0
H308 H 0.65378 0.15345 0.55361 0.0
H309 H 0.63528 0.08023 0.53561 0.0
H310 H 0.51528 0.0805 0.49582 0.0
H311 H 0.53334 0.15309 0.51351 0.0
H312 H 0.54636 4e-05 0.53938 0.0
H313 H 0.59166 0.05193 0.44233 0.0
H314 H 0.61343 0.0911 0.46774 0.0
H315 H 0.55318 0.07288 0.45578 0.0
C316 C 0.62358 0.13788 0.54096 0.0
C317 C 0.59508 0.15902 0.5349 0.0
C318 C 0.61319 0.09623 0.53067 0.0
C319 C 0.57462 0.07559 0.51401 0.0
C320 C 0.54595 0.09647 0.50818 0.0
H321 H 0.36692 0.82204 0.47428 0.0
H322 H 0.42134 0.89457 0.492 0.0
C323 C 0.55608 0.13777 0.51849 0.0
C324 C 0.56178 0.03095 0.50362 0.0
H325 H 0.53468 0.97416 0.44903 0.0
C326 C 0.54486 -0.00565 0.51965 0.0
C327 C 0.56067 0.02374 0.4779 0.0
C328 C 0.58121 0.06208 0.45995 0.0
C329 C 0.52305 0.95044 0.51052 0.0
C330 C 0.51767 0.94326 0.48479 0.0
C331 C 0.5383 0.97983 0.46877 0.0
C332 C 0.48585 0.89874 0.47432 0.0
C333 C 0.50422 0.9121 0.52848 0.0
C334 C 0.50398 0.87774 0.45791 0.0
C335 C 0.4728 0.83616 0.44761 0.0
C336 C 0.42305 0.81541 0.4534 0.0
C337 C 0.40507 0.83705 0.46952 0.0
C338 C 0.43618 0.87832 0.47984 0.0
H339 H 0.52423 0.92201 0.54623 0.0
H340 H 0.46539 0.90179 0.53237 0.0
H341 H 0.50722 0.88281 0.52084 0.0
H342 H 0.54218 0.8934 0.4532 0.0
H343 H 0.4876 0.82028 0.43518 0.0
loop_
_geom_bond_atom_site_label_1
_geom_bond_atom_site_label_2
_geom_bond_distance
_geom_bond_site_symmetry_2
_ccdc_geom_bond_type
C0 O1 1.306 . S
C0 O3 1.160 . S
O1 C0 1.306 . S
O1 Cd2 2.228 . S
Cd2 O1 2.228 . S
Cd2 O6 2.273 . S
Cd2 O10 2.277 . S
O3 C0 1.160 . S
O3 Cd4 2.203 . S
Cd4 O3 2.203 . S
Cd4 O6 2.411 . S
Cd4 O7 2.333 . S
Cd4 O8 2.352 . S
Cd4 O12 2.277 . S
Cd4 O13 2.356 . S
C5 O10 1.209 . S
C5 O12 1.226 . S
O6 Cd2 2.273 . S
O6 Cd4 2.411 . S
O6 C9 1.320 . S
O7 Cd4 2.333 . S
O7 C9 1.214 . S
O8 Cd4 2.352 . S
O8 C11 1.258 . S
C9 O6 1.320 . S
C9 O7 1.214 . S
O10 Cd2 2.277 . S
O10 C5 1.209 . S
C11 O8 1.258 . S
C11 O13 1.282 . S
O12 Cd4 2.277 . S
O12 C5 1.226 . S
O13 Cd4 2.356 . S
O13 C11 1.282 . S
C14 O15 1.306 . S
C14 O17 1.160 . S
O15 C14 1.306 . S
O15 Cd16 2.228 . S
Cd16 O15 2.228 . S
Cd16 O20 2.273 . S
Cd16 O24 2.277 . S
O17 C14 1.160 . S
O17 Cd18 2.203 . S
Cd18 O17 2.203 . S
Cd18 O20 2.411 . S
Cd18 O21 2.333 . S
Cd18 O22 2.352 . S
Cd18 O26 2.277 . S
Cd18 O27 2.356 . S
C19 O24 1.209 . S
C19 O26 1.226 . S
O20 Cd16 2.273 . S
O20 Cd18 2.411 . S
O20 C23 1.320 . S
O21 Cd18 2.333 . S
O21 C23 1.214 . S
O22 Cd18 2.352 . S
O22 C25 1.258 . S
C23 O20 1.320 . S
C23 O21 1.214 . S
O24 Cd16 2.277 . S
O24 C19 1.209 . S
C25 O22 1.258 . S
C25 O27 1.282 . S
O26 Cd18 2.277 . S
O26 C19 1.226 . S
O27 Cd18 2.356 . S
O27 C25 1.282 . S
C28 O29 1.306 . S
C28 O31 1.160 . S
O29 C28 1.306 . S
O29 Cd30 2.228 . S
Cd30 O29 2.228 . S
Cd30 O34 2.273 . S
Cd30 O38 2.277 . S
O31 C28 1.160 . S
O31 Cd32 2.203 . S
Cd32 O31 2.203 . S
Cd32 O34 2.411 . S
Cd32 O35 2.333 . S
Cd32 O36 2.352 . S
Cd32 O40 2.277 . S
Cd32 O41 2.356 . S
C33 O38 1.209 . S
C33 O40 1.226 . S
O34 Cd30 2.273 . S
O34 Cd32 2.411 . S
O34 C37 1.320 . S
O35 Cd32 2.333 . S
O35 C37 1.214 . S
O36 Cd32 2.352 . S
O36 C39 1.258 . S
C37 O34 1.320 . S
C37 O35 1.214 . S
O38 Cd30 2.277 . S
O38 C33 1.209 . S
C39 O36 1.258 . S
C39 O41 1.282 . S
O40 Cd32 2.277 . S
O40 C33 1.226 . S
O41 Cd32 2.356 . S
O41 C39 1.282 . S
C42 O43 1.306 . S
C42 O45 1.160 . S
O43 C42 1.306 . S
O43 Cd44 2.228 . S
Cd44 O43 2.228 . S
Cd44 O48 2.273 . S
Cd44 O52 2.277 . S
O45 C42 1.160 . S
O45 Cd46 2.203 . S
Cd46 O45 2.203 . S
Cd46 O48 2.411 . S
Cd46 O49 2.333 . S
Cd46 O50 2.352 . S
Cd46 O54 2.277 . S
Cd46 O55 2.356 . S
C47 O52 1.209 . S
C47 O54 1.226 . S
O48 Cd44 2.273 . S
O48 Cd46 2.411 . S
O48 C51 1.320 . S
O49 Cd46 2.333 . S
O49 C51 1.214 . S
O50 Cd46 2.352 . S
O50 C53 1.258 . S
C51 O48 1.320 . S
C51 O49 1.214 . S
O52 Cd44 2.277 . S
O52 C47 1.209 . S
C53 O50 1.258 . S
C53 O55 1.282 . S
O54 Cd46 2.277 . S
O54 C47 1.226 . S
O55 Cd46 2.356 . S
O55 C53 1.282 . S
H56 C64 0.929 . S
H57 C66 0.930 . S
H58 C68 0.930 . S
H59 C71 0.929 . S
H60 C74 0.930 . S
H61 C76 0.960 . S
H62 C76 0.960 . S
H63 C76 0.960 . S
C64 H56 0.929 . S
C64 C65 1.377 . S
C64 C66 1.384 . S
C65 C64 1.377 . S
C65 C71 1.390 . S
C66 H57 0.930 . S
C66 C64 1.384 . S
C66 C67 1.372 . S
C67 C66 1.372 . S
C67 C68 1.400 . S
C67 C72 1.490 . S
C68 H58 0.930 . S
C68 C67 1.400 . S
C68 C71 1.386 . S
H69 C85 0.930 . S
H70 C86 0.931 . S
C71 H59 0.929 . S
C71 C65 1.390 . S
C71 C68 1.386 . S
C72 C67 1.490 . S
C72 C74 1.395 . S
C72 C75 1.403 . S
H73 C79 0.930 . S
C74 H60 0.930 . S
C74 C72 1.395 . S
C74 C77 1.403 . S
C75 C72 1.403 . S
C75 C76 1.524 . S
C75 C79 1.400 . S
C76 H61 0.960 . S
C76 H62 0.960 . S
C76 H63 0.960 . S
C76 C75 1.524 . S
C77 C74 1.403 . S
C77 C78 1.392 . S
C77 C81 1.495 . S
C78 C77 1.392 . S
C78 C79 1.385 . S
C78 C80 1.478 . S
C79 H73 0.930 . S
C79 C75 1.400 . S
C79 C78 1.385 . S
C80 C78 1.478 . S
C80 C82 1.381 . S
C80 C86 1.383 . S
C81 C77 1.495 . S
C81 H87 0.959 . S
C81 H88 0.961 . S
C81 H89 0.960 . S
C82 C80 1.381 . S
C82 C83 1.394 . S
C82 H90 0.930 . S
C83 C82 1.394 . S
C83 C84 1.383 . S
C83 H91 0.929 . S
C84 C83 1.383 . S
C84 C85 1.377 . S
C85 H69 0.930 . S
C85 C84 1.377 . S
C85 C86 1.379 . S
C86 H70 0.931 . S
C86 C80 1.383 . S
C86 C85 1.379 . S
H87 C81 0.959 . S
H88 C81 0.961 . S
H89 C81 0.960 . S
H90 C82 0.930 . S
H91 C83 0.929 . S
H92 C100 0.929 . S
H93 C102 0.930 . S
H94 C104 0.930 . S
H95 C107 0.929 . S
H96 C110 0.930 . S
H97 C112 0.960 . S
H98 C112 0.960 . S
H99 C112 0.960 . S
C100 H92 0.929 . S
C100 C101 1.377 . S
C100 C102 1.384 . S
C101 C100 1.377 . S
C101 C107 1.390 . S
C102 H93 0.930 . S
C102 C100 1.384 . S
C102 C103 1.372 . S
C103 C102 1.372 . S
C103 C104 1.400 . S
C103 C108 1.490 . S
C104 H94 0.930 . S
C104 C103 1.400 . S
C104 C107 1.386 . S
H105 C121 0.930 . S
H106 C122 0.931 . S
C107 H95 0.929 . S
C107 C101 1.390 . S
C107 C104 1.386 . S
C108 C103 1.490 . S
C108 C110 1.395 . S
C108 C111 1.403 . S
H109 C115 0.930 . S
C110 H96 0.930 . S
C110 C108 1.395 . S
C110 C113 1.403 . S
C111 C108 1.403 . S
C111 C112 1.524 . S
C111 C115 1.400 . S
C112 H97 0.960 . S
C112 H98 0.960 . S
C112 H99 0.960 . S
C112 C111 1.524 . S
C113 C110 1.403 . S
C113 C114 1.392 . S
C113 C117 1.495 . S
C114 C113 1.392 . S
C114 C115 1.385 . S
C114 C116 1.478 . S
C115 H109 0.930 . S
C115 C111 1.400 . S
C115 C114 1.385 . S
C116 C114 1.478 . S
C116 C118 1.381 . S
C116 C122 1.383 . S
C117 C113 1.495 . S
C117 H123 0.959 . S
C117 H124 0.961 . S
C117 H125 0.960 . S
C118 C116 1.381 . S
C118 C119 1.394 . S
C118 H126 0.930 . S
C119 C118 1.394 . S
C119 C120 1.383 . S
C119 H127 0.929 . S
C120 C119 1.383 . S
C120 C121 1.377 . S
C121 H105 0.930 . S
C121 C120 1.377 . S
C121 C122 1.379 . S
C122 H106 0.931 . S
C122 C116 1.383 . S
C122 C121 1.379 . S
H123 C117 0.959 . S
H124 C117 0.961 . S
H125 C117 0.960 . S
H126 C118 0.930 . S
H127 C119 0.929 . S
H128 C136 0.956 . S
H129 C138 0.930 . S
H130 C140 0.930 . S
H131 C143 0.929 . S
H132 C146 0.930 . S
H133 C148 0.960 . S
H134 C148 0.960 . S
H135 C148 0.960 1_554 S
C136 H128 0.956 . S
C136 C137 1.338 1_556 S
C136 C138 1.398 . S
C137 C136 1.338 1_554 S
C137 C143 1.390 . S
C138 H129 0.930 . S
C138 C136 1.398 . S
C138 C139 1.372 1_556 S
C139 C138 1.372 1_554 S
C139 C140 1.400 . S
C139 C144 1.490 1_554 S
C140 H130 0.930 . S
C140 C139 1.400 . S
C140 C143 1.386 . S
H141 C157 0.930 . S
H142 C158 0.931 1_554 S
C143 H131 0.929 . S
C143 C137 1.390 . S
C143 C140 1.386 . S
C144 C139 1.490 1_556 S
C144 C146 1.395 . S
C144 C147 1.403 . S
H145 C151 0.930 . S
C146 H132 0.930 . S
C146 C144 1.395 . S
C146 C149 1.403 . S
C147 C144 1.403 . S
C147 C148 1.524 . S
C147 C151 1.400 . S
C148 H133 0.960 . S
C148 H134 0.960 . S
C148 H135 0.960 1_556 S
C148 C147 1.524 . S
C149 C146 1.403 . S
C149 C150 1.392 . S
C149 C153 1.495 . S
C150 C149 1.392 . S
C150 C151 1.385 . S
C150 C152 1.478 . S
C151 H145 0.930 . S
C151 C147 1.400 . S
C151 C150 1.385 . S
C152 C150 1.478 . S
C152 C154 1.381 . S
C152 C158 1.383 . S
C153 C149 1.495 . S
C153 H159 0.959 . S
C153 H160 0.961 . S
C153 H161 0.960 . S
C154 C152 1.381 . S
C154 C155 1.394 . S
C154 H162 0.930 . S
C155 C154 1.394 . S
C155 C156 1.383 . S
C155 H163 0.929 . S
C156 C155 1.383 . S
C156 C157 1.377 . S
C157 H141 0.930 . S
C157 C156 1.377 . S
C157 C158 1.379 . S
C158 H142 0.931 1_556 S
C158 C152 1.383 . S
C158 C157 1.379 . S
H159 C153 0.959 . S
H160 C153 0.961 . S
H161 C153 0.960 . S
H162 C154 0.930 . S
H163 C155 0.929 . S
H164 C172 0.929 . S
H165 C174 0.930 . S
H166 C176 0.930 . S
H167 C179 0.929 . S
H168 C182 0.930 . S
H169 C184 0.960 1_655 S
H170 C184 0.960 . S
H171 C184 0.960 . S
C172 H164 0.929 . S
C172 C173 1.377 . S
C172 C174 1.384 . S
C173 C172 1.377 . S
C173 C179 1.390 . S
C174 H165 0.930 . S
C174 C172 1.384 . S
C174 C175 1.372 . S
C175 C174 1.372 . S
C175 C176 1.400 . S
C175 C180 1.490 . S
C176 H166 0.930 . S
C176 C175 1.400 . S
C176 C179 1.386 . S
H177 C193 0.930 . S
H178 C194 0.931 . S
C179 H167 0.929 . S
C179 C173 1.390 . S
C179 C176 1.386 . S
C180 C175 1.490 . S
C180 C182 1.395 . S
C180 C183 1.403 1_455 S
H181 C187 0.930 . S
C182 H168 0.930 . S
C182 C180 1.395 . S
C182 C185 1.403 1_455 S
C183 C180 1.403 1_655 S
C183 C184 1.524 1_655 S
C183 C187 1.400 . S
C184 H169 0.960 1_455 S
C184 H170 0.960 . S
C184 H171 0.960 . S
C184 C183 1.524 1_455 S
C185 C182 1.403 1_655 S
C185 C186 1.392 . S
C185 C189 1.495 . S
C186 C185 1.392 . S
C186 C187 1.385 . S
C186 C188 1.478 . S
C187 H181 0.930 . S
C187 C183 1.400 . S
C187 C186 1.385 . S
C188 C186 1.478 . S
C188 C190 1.381 . S
C188 C194 1.383 . S
C189 C185 1.495 . S
C189 H195 0.959 . S
C189 H196 0.961 . S
C189 H197 0.960 . S
C190 C188 1.381 . S
C190 C191 1.394 . S
C190 H198 0.930 . S
C191 C190 1.394 . S
C191 C192 1.383 . S
C191 H199 0.929 . S
C192 C191 1.383 . S
C192 C193 1.377 . S
C193 H177 0.930 . S
C193 C192 1.377 . S
C193 C194 1.379 . S
C194 H178 0.931 . S
C194 C188 1.383 . S
C194 C193 1.379 . S
H195 C189 0.959 . S
H196 C189 0.961 . S
H197 C189 0.960 . S
H198 C190 0.930 . S
H199 C191 0.929 . S
H200 C208 0.929 . S
H201 C210 0.930 . S
H202 C212 0.930 1_554 S
H203 C215 0.929 . S
H204 C218 0.930 . S
H205 C220 0.975 . S
H206 C220 0.931 1_556 S
H207 C220 0.977 . S
C208 H200 0.929 . S
C208 C209 1.377 . S
C208 C210 1.384 . S
C209 C208 1.377 . S
C209 C215 1.390 . S
C210 H201 0.930 . S
C210 C208 1.384 . S
C210 C211 1.372 . S
C211 C210 1.372 . S
C211 C212 1.400 . S
C211 C216 1.490 . S
C212 H202 0.930 1_556 S
C212 C211 1.400 . S
C212 C215 1.386 . S
H213 C229 0.930 . S
H214 C230 0.931 . S
C215 H203 0.929 . S
C215 C209 1.390 . S
C215 C212 1.386 . S
C216 C211 1.490 . S
C216 C218 1.395 . S
C216 C219 1.408 . S
H217 C223 0.930 . S
C218 H204 0.930 . S
C218 C216 1.395 . S
C218 C221 1.403 1_545 S
C219 C216 1.408 . S
C219 C220 1.523 1_556 S
C219 C223 1.395 1_546 S
C220 H205 0.975 . S
C220 H206 0.931 1_554 S
C220 H207 0.977 . S
C220 C219 1.523 1_554 S
C221 C218 1.403 1_565 S
C221 C222 1.392 1_556 S
C221 C225 1.495 . S
C222 C221 1.392 1_554 S
C222 C223 1.385 . S
C222 C224 1.478 . S
C223 H217 0.930 . S
C223 C219 1.395 1_564 S
C223 C222 1.385 . S
C224 C222 1.478 . S
C224 C226 1.381 . S
C224 C230 1.383 . S
C225 C221 1.495 . S
C225 H231 0.959 . S
C225 H232 0.961 1_556 S
C225 H233 0.960 . S
C226 C224 1.381 . S
C226 C227 1.394 . S
C226 H234 0.930 1_554 S
C227 C226 1.394 . S
C227 C228 1.383 . S
C227 H235 0.929 . S
C228 C227 1.383 . S
C228 C229 1.377 . S
C229 H213 0.930 . S
C229 C228 1.377 . S
C229 C230 1.379 . S
C230 H214 0.931 . S
C230 C224 1.383 . S
C230 C229 1.379 . S
H231 C225 0.959 . S
H232 C225 0.961 1_554 S
H233 C225 0.960 . S
H234 C226 0.930 1_556 S
H235 C227 0.929 . S
H236 C244 0.929 . S
H237 C246 0.930 . S
H238 C248 0.930 . S
H239 C251 0.929 . S
H240 C254 0.930 . S
H241 C256 0.960 . S
H242 C256 0.960 . S
H243 C256 0.960 . S
C244 H236 0.929 . S
C244 C245 1.377 . S
C244 C246 1.384 . S
C245 C244 1.377 . S
C245 C251 1.390 . S
C246 H237 0.930 . S
C246 C244 1.384 . S
C246 C247 1.372 . S
C247 C246 1.372 . S
C247 C248 1.400 . S
C247 C252 1.490 . S
C248 H238 0.930 . S
C248 C247 1.400 . S
C248 C251 1.386 . S
H249 C265 0.930 . S
H250 C266 0.931 . S
C251 H239 0.929 . S
C251 C245 1.390 . S
C251 C248 1.386 . S
C252 C247 1.490 . S
C252 C254 1.395 . S
C252 C255 1.403 . S
H253 C259 0.930 . S
C254 H240 0.930 . S
C254 C252 1.395 . S
C254 C257 1.403 . S
C255 C252 1.403 . S
C255 C256 1.524 . S
C255 C259 1.400 . S
C256 H241 0.960 . S
C256 H242 0.960 . S
C256 H243 0.960 . S
C256 C255 1.524 . S
C257 C254 1.403 . S
C257 C258 1.392 . S
C257 C261 1.495 . S
C258 C257 1.392 . S
C258 C259 1.385 . S
C258 C260 1.478 . S
C259 H253 0.930 . S
C259 C255 1.400 . S
C259 C258 1.385 . S
C260 C258 1.478 . S
C260 C262 1.381 . S
C260 C266 1.383 . S
C261 C257 1.495 . S
C261 H267 0.959 . S
C261 H268 0.961 . S
C261 H269 0.960 . S
C262 C260 1.381 . S
C262 C263 1.394 . S
C262 H270 0.930 . S
C263 C262 1.394 . S
C263 C264 1.383 . S
C263 H271 0.929 . S
C264 C263 1.383 . S
C264 C265 1.377 . S
C265 H249 0.930 . S
C265 C264 1.377 . S
C265 C266 1.379 . S
C266 H250 0.931 . S
C266 C260 1.383 . S
C266 C265 1.379 . S
H267 C261 0.959 . S
H268 C261 0.961 . S
H269 C261 0.960 . S
H270 C262 0.930 . S
H271 C263 0.929 . S
H272 C280 0.929 . S
H273 C282 0.930 . S
H274 C284 0.895 1_556 S
H275 C287 0.929 . S
H276 C290 0.930 . S
H277 C292 0.960 . S
H278 C292 0.960 . S
H279 C292 0.960 . S
C280 H272 0.929 . S
C280 C281 1.377 . S
C280 C282 1.384 . S
C281 C280 1.377 . S
C281 C287 1.390 . S
C282 H273 0.930 . S
C282 C280 1.384 . S
C282 C283 1.372 . S
C283 C282 1.372 . S
C283 C284 1.400 . S
C283 C288 1.490 . S
C284 H274 0.895 1_554 S
C284 C283 1.400 . S
C284 C287 1.386 . S
H285 C301 0.930 . S
H286 C302 0.931 . S
C287 H275 0.929 . S
C287 C281 1.390 . S
C287 C284 1.386 . S
C288 C283 1.490 . S
C288 C290 1.395 . S
C288 C291 1.403 . S
H289 C295 0.930 . S
C290 H276 0.930 . S
C290 C288 1.395 . S
C290 C293 1.403 1_455 S
C291 C288 1.403 . S
C291 C292 1.524 . S
C291 C295 1.400 1_455 S
C292 H277 0.960 . S
C292 H278 0.960 . S
C292 H279 0.960 . S
C292 C291 1.524 . S
C293 C290 1.403 1_655 S
C293 C294 1.392 . S
C293 C297 1.495 1_554 S
C294 C293 1.392 . S
C294 C295 1.385 . S
C294 C296 1.478 1_554 S
C295 H289 0.930 . S
C295 C291 1.400 1_655 S
C295 C294 1.385 . S
C296 C294 1.478 1_556 S
C296 C298 1.381 1_556 S
C296 C302 1.383 . S
C297 C293 1.495 1_556 S
C297 H303 0.959 1_556 S
C297 H304 0.964 . S
C297 H305 0.958 1_556 S
C298 C296 1.381 1_554 S
C298 C299 1.393 . S
C298 H306 0.930 . S
C299 C298 1.393 . S
C299 C300 1.387 1_554 S
C299 H307 0.927 . S
C300 C299 1.387 1_556 S
C300 C301 1.377 . S
C301 H285 0.930 . S
C301 C300 1.377 . S
C301 C302 1.379 . S
C302 H286 0.931 . S
C302 C296 1.383 . S
C302 C301 1.379 . S
H303 C297 0.959 1_554 S
H304 C297 0.964 . S
H305 C297 0.958 1_554 S
H306 C298 0.930 . S
H307 C299 0.927 . S
H308 C316 0.929 . S
H309 C318 0.930 . S
H310 C320 0.930 . S
H311 C323 0.929 . S
H312 C326 0.930 . S
H313 C328 0.960 . S
H314 C328 0.960 . S
H315 C328 0.960 . S
C316 H308 0.929 . S
C316 C317 1.377 . S
C316 C318 1.384 . S
C317 C316 1.377 . S
C317 C323 1.390 . S
C318 H309 0.930 . S
C318 C316 1.384 . S
C318 C319 1.372 . S
C319 C318 1.372 . S
C319 C320 1.400 . S
C319 C324 1.490 . S
C320 H310 0.930 . S
C320 C319 1.400 . S
C320 C323 1.386 . S
H321 C337 0.930 . S
H322 C338 0.931 . S
C323 H311 0.929 . S
C323 C317 1.390 . S
C323 C320 1.386 . S
C324 C319 1.490 . S
C324 C326 1.395 . S
C324 C327 1.403 . S
H325 C331 0.930 . S
C326 H312 0.930 . S
C326 C324 1.395 . S
C326 C329 1.403 1_545 S
C327 C324 1.403 . S
C327 C328 1.524 . S
C327 C331 1.400 1_545 S
C328 H313 0.960 . S
C328 H314 0.960 . S
C328 H315 0.960 . S
C328 C327 1.524 . S
C329 C326 1.403 1_565 S
C329 C330 1.392 . S
C329 C333 1.495 . S
C330 C329 1.392 . S
C330 C331 1.385 . S
C330 C332 1.478 . S
C331 H325 0.930 . S
C331 C327 1.400 1_565 S
C331 C330 1.385 . S
C332 C330 1.478 . S
C332 C334 1.381 . S
C332 C338 1.383 . S
C333 C329 1.495 . S
C333 H339 0.959 . S
C333 H340 0.961 . S
C333 H341 0.960 . S
C334 C332 1.381 . S
C334 C335 1.394 . S
C334 H342 0.930 . S
C335 C334 1.394 . S
C335 C336 1.383 . S
C335 H343 0.929 . S
C336 C335 1.383 . S
C336 C337 1.377 . S
C337 H321 0.930 . S
C337 C336 1.377 . S
C337 C338 1.379 . S
C338 H322 0.931 . S
C338 C332 1.383 . S
C338 C337 1.379 . S
H339 C333 0.959 . S
H340 C333 0.961 . S
H341 C333 0.960 . S
H342 C334 0.930 . S
H343 C335 0.929 . S
C65 C5 1.576 . S
C84 C39 1.568 . S
C101 C25 1.563 . S
C120 C47 1.581 . S
C137 C11 1.417 . S
C156 C42 1.430 . S
C173 C28 1.665 . S
C192 C19 1.660 . S
C209 C51 1.519 . S
C228 C9 1.513 . S
C245 C14 1.663 . S
C264 C33 1.677 . S
C281 C0 1.424 . S
C300 C53 1.408 . S
C317 C23 1.587 . S
C336 C37 1.585 . S
