# Generated by pormake.
# Topology noy, (5)-cn, num edge types: 1
# Building blocks:
#     Node 0, Type 0, BuildingBlock: BEQFEK_clean_sbu_0, # of connection points: 5
#     Node 1, Type 0, BuildingBlock: BEQFEK_clean_sbu_0, # of connection points: 5
#     Node 2, Type 0, BuildingBlock: BEQFEK_clean_sbu_0, # of connection points: 5
#     Node 3, Type 0, BuildingBlock: BEQFEK_clean_sbu_0, # of connection points: 5
#     Node 4, Type 0, BuildingBlock: BEQFEK_clean_sbu_0, # of connection points: 5
#     Node 5, Type 0, BuildingBlock: BEQFEK_clean_sbu_0, # of connection points: 5
#     Node 6, Type 0, BuildingBlock: BEQFEK_clean_sbu_0, # of connection points: 5
#     Node 7, Type 0, BuildingBlock: BEQFEK_clean_sbu_0, # of connection points: 5
#     Edge 8, Type (0, 0), None
#     Edge 9, Type (0, 0), None
#     Edge 10, Type (0, 0), None
#     Edge 11, Type (0, 0), None
#     Edge 12, Type (0, 0), None
#     Edge 13, Type (0, 0), None
#     Edge 14, Type (0, 0), None
#     Edge 15, Type (0, 0), None
#     Edge 16, Type (0, 0), None
#     Edge 17, Type (0, 0), None
#     Edge 18, Type (0, 0), None
#     Edge 19, Type (0, 0), None
#     Edge 20, Type (0, 0), None
#     Edge 21, Type (0, 0), None
#     Edge 22, Type (0, 0), None
#     Edge 23, Type (0, 0), None
#     Edge 24, Type (0, 0), None
#     Edge 25, Type (0, 0), None
#     Edge 26, Type (0, 0), None
#     Edge 27, Type (0, 0), None
# Relax obj value: 0.122
# Max RMSD: 0.096
# Mean RMSD: 0.096
data_MOF--net-noy--node1-BEQFEK_clean_sbu_0--edge1-none
_symmetry_space_group_name_H-M    P1
_symmetry_Int_Tables_number       1
_symmetry_cell_setting            triclinic
loop_
_symmetry_equiv_pos_as_xyz
'x, y, z'
_cell_length_a     20.366161
_cell_length_b     24.593095
_cell_length_c     12.240138
_cell_angle_alpha  89.999396
_cell_angle_beta   90.000001
_cell_angle_gamma 89.999191
loop_
_atom_site_label
_atom_site_type_symbol
_atom_site_fract_x
_atom_site_fract_y
_atom_site_fract_z
_atom_type_partial_charge
Co0 Co 0.37849 0.44302 0.29941 0.0
Co1 Co 0.40578 0.36736 0.1 0.0
C2 C 0.37664 0.48776 0.07057 0.0
O3 O 0.37194 0.49555 0.17343 0.0
O4 O 0.38782 0.44045 1.03212 0.0
C5 C 0.30918 0.50236 0.4761 0.0
O6 O 0.25683 0.50764 0.41449 0.0
C7 C 0.35719 0.30289 0.91608 0.0
C8 C 0.43721 0.24381 0.89101 0.0
C9 C 0.37391 0.25643 0.85773 0.0
N10 N 0.40758 0.3161 0.98212 0.0
N11 N 0.45606 0.28156 0.96427 0.0
C12 C 0.29213 0.33134 0.91787 0.0
H13 H 0.28362 0.35087 0.99826 0.0
H14 H 0.2515 0.30285 0.89848 0.0
H15 H 0.29252 0.36411 0.8556 0.0
C16 C 0.27867 0.3569 0.34787 0.0
N17 N 0.32481 0.37979 0.28322 0.0
N18 N 0.33891 0.34591 0.20323 0.0
C19 C 0.30303 0.29995 0.21678 0.0
C20 C 0.26274 0.30604 0.30717 0.0
C21 C 0.25566 0.37996 0.45422 0.0
H22 H 0.29818 0.39432 0.50256 0.0
H23 H 0.22131 0.41377 0.43785 0.0
H24 H 0.22863 0.34987 0.50366 0.0
O25 O 0.47098 0.42008 0.31911 0.0
O26 O 0.49452 0.36907 0.17464 0.0
H27 H 0.36279 0.24411 0.12782 0.0
H28 H 0.29298 0.21313 0.19448 0.0
C29 C 0.31051 0.24952 0.15015 0.0
H30 H 0.28031 0.25284 0.07537 0.0
H31 H 0.50031 0.28161 1.00724 0.0
O32 O 0.36064 0.47986 0.43937 0.0
C33 C 0.5111 0.39113 0.26506 0.0
Co34 Co 0.71278 0.57978 0.79941 0.0
Co35 Co 0.68549 0.65544 0.6 0.0
C36 C 0.71463 0.53505 0.57057 0.0
O37 O 0.71933 0.52726 0.67343 0.0
O38 O 0.70344 0.58235 0.53212 0.0
C39 C 0.78208 0.52044 0.9761 0.0
O40 O 0.83444 0.51517 0.91449 0.0
C41 C 0.73408 0.71991 0.41608 0.0
C42 C 0.65405 0.77899 0.39101 0.0
C43 C 0.71735 0.76637 0.35773 0.0
N44 N 0.68369 0.70671 0.48212 0.0
N45 N 0.63521 0.74124 0.46427 0.0
C46 C 0.79914 0.69147 0.41787 0.0
H47 H 0.80764 0.67194 0.49826 0.0
H48 H 0.83977 0.71996 0.39848 0.0
H49 H 0.79875 0.6587 0.3556 0.0
C50 C 0.8126 0.6659 0.84787 0.0
N51 N 0.76646 0.64302 0.78322 0.0
N52 N 0.75236 0.6769 0.70323 0.0
C53 C 0.78823 0.72285 0.71678 0.0
C54 C 0.82853 0.71677 0.80718 0.0
C55 C 0.83561 0.64284 0.95422 0.0
H56 H 0.79308 0.62848 1.00256 0.0
H57 H 0.86996 0.60903 0.93786 0.0
H58 H 0.86263 0.67294 1.00366 0.0
O59 O 0.62029 0.60273 0.81911 0.0
O60 O 0.59675 0.65374 0.67465 0.0
H61 H 0.72848 0.7787 0.62782 0.0
H62 H 0.79829 0.80968 0.69448 0.0
C63 C 0.78075 0.77329 0.65015 0.0
H64 H 0.81095 0.76996 0.57537 0.0
H65 H 0.59096 0.7412 0.50724 0.0
O66 O 0.73063 0.54294 0.93937 0.0
C67 C 0.58017 0.63168 0.76506 0.0
Co68 Co 0.37848 0.57978 0.76618 0.0
Co69 Co 0.40578 0.65544 0.96559 0.0
C70 C 0.37664 0.53505 0.99502 0.0
O71 O 0.37193 0.52726 0.89216 0.0
O72 O 0.38783 0.58235 0.03347 0.0
C73 C 0.30918 0.52044 0.58948 0.0
O74 O 0.25683 0.51517 0.65109 0.0
C75 C 0.35719 0.71991 0.14951 0.0
C76 C 0.43722 0.77899 0.17459 0.0
C77 C 0.37392 0.76637 0.20787 0.0
N78 N 0.40758 0.7067 0.08348 0.0
N79 N 0.45606 0.74124 0.10133 0.0
C80 C 0.29213 0.69147 0.14772 0.0
H81 H 0.28362 0.67194 0.06733 0.0
H82 H 0.2515 0.71996 0.16711 0.0
H83 H 0.29251 0.6587 0.20999 0.0
C84 C 0.27866 0.6659 0.71773 0.0
N85 N 0.32481 0.64302 0.78238 0.0
N86 N 0.33891 0.6769 0.86236 0.0
C87 C 0.30303 0.72285 0.84882 0.0
C88 C 0.26274 0.71677 0.75843 0.0
C89 C 0.25565 0.64285 0.61138 0.0
H90 H 0.29817 0.62849 0.56304 0.0
H91 H 0.2213 0.60904 0.62775 0.0
H92 H 0.22862 0.67294 0.56195 0.0
O93 O 0.47097 0.60273 0.74647 0.0
O94 O 0.49452 0.65374 0.89094 0.0
H95 H 0.36279 0.77869 0.93777 0.0
H96 H 0.29298 0.80968 0.87111 0.0
C97 C 0.31052 0.77329 0.91545 0.0
H98 H 0.28032 0.76997 0.99023 0.0
H99 H 0.50031 0.74119 0.05836 0.0
O100 O 0.36063 0.54294 0.62622 0.0
C101 C 0.51109 0.63169 0.80052 0.0
Co102 Co 0.71278 0.44302 0.26618 0.0
Co103 Co 0.68549 0.36736 0.46559 0.0
C104 C 0.71463 0.48776 0.49502 0.0
O105 O 0.71933 0.49555 0.39216 0.0
O106 O 0.70344 0.44045 0.53347 0.0
C107 C 0.78209 0.50236 0.08948 0.0
O108 O 0.83444 0.50764 0.15109 0.0
C109 C 0.73408 0.3029 0.64951 0.0
C110 C 0.65405 0.24382 0.67459 0.0
C111 C 0.71735 0.25644 0.70787 0.0
N112 N 0.68369 0.3161 0.58348 0.0
N113 N 0.6352 0.28157 0.60133 0.0
C114 C 0.79914 0.33134 0.64772 0.0
H115 H 0.80764 0.35086 0.56733 0.0
H116 H 0.83976 0.30284 0.66711 0.0
H117 H 0.79875 0.36411 0.70999 0.0
C118 C 0.8126 0.3569 0.21773 0.0
N119 N 0.76646 0.37979 0.28238 0.0
N120 N 0.75236 0.34591 0.36236 0.0
C121 C 0.78823 0.29995 0.34882 0.0
C122 C 0.82853 0.30604 0.25842 0.0
C123 C 0.83562 0.37996 0.11138 0.0
H124 H 0.79309 0.39432 0.06304 0.0
H125 H 0.86996 0.41377 0.12775 0.0
H126 H 0.86264 0.34986 0.06194 0.0
O127 O 0.6203 0.42008 0.24647 0.0
O128 O 0.59675 0.36907 0.39094 0.0
H129 H 0.72847 0.24411 0.43778 0.0
H130 H 0.79829 0.21312 0.37111 0.0
C131 C 0.78075 0.24952 0.41545 0.0
H132 H 0.81095 0.25284 0.49023 0.0
H133 H 0.59095 0.28162 0.55836 0.0
O134 O 0.73064 0.47986 0.12622 0.0
C135 C 0.58018 0.39112 0.30052 0.0
Co136 Co 0.87846 0.94302 0.29942 0.0
Co137 Co 0.9058 0.86739 0.09995 0.0
C138 C 0.87659 0.98775 0.07056 0.0
O139 O 0.87189 0.99554 0.17342 0.0
O140 O 0.88779 0.94046 1.03209 0.0
C141 C 0.80911 1.00235 0.47611 0.0
O142 O 0.75674 1.00757 0.41451 0.0
C143 C 0.85721 0.80285 0.9161 0.0
C144 C 0.93731 0.74381 0.89106 0.0
C145 C 0.87395 0.75633 0.85798 0.0
N146 N 0.90762 0.81613 0.98204 0.0
N147 N 0.95614 0.78163 0.96419 0.0
C148 C 0.79212 0.83125 0.91788 0.0
H149 H 0.7836 0.85077 0.99827 0.0
H150 H 0.75152 0.80273 0.8985 0.0
H151 H 0.79248 0.86402 0.85562 0.0
C152 C 0.77873 0.85683 0.34788 0.0
N153 N 0.82484 0.87975 0.28321 0.0
N154 N 0.83896 0.84589 0.2032 0.0
C155 C 0.80313 0.79991 0.21674 0.0
C156 C 0.76287 0.80594 0.30719 0.0
C157 C 0.75568 0.87988 0.4542 0.0
H158 H 0.79819 0.89429 0.50253 0.0
H159 H 0.7213 0.91366 0.43782 0.0
H160 H 0.72871 0.84976 0.50365 0.0
O161 O 0.97096 0.9201 0.31912 0.0
O162 O 0.99454 0.86913 0.17461 0.0
H163 H 0.8629 0.74414 0.12761 0.0
H164 H 0.79323 0.71307 0.19447 0.0
C165 C 0.81064 0.74949 0.15008 0.0
H166 H 0.78035 0.75277 0.07539 0.0
H167 H 1.00042 0.78175 1.00708 0.0
O168 O 0.86057 0.97987 0.43937 0.0
C169 C 1.0111 0.89118 0.26504 0.0
Co170 Co 0.2128 0.07979 0.79942 0.0
Co171 Co 0.18547 0.15542 0.59995 0.0
C172 C 0.21467 0.03505 0.57056 0.0
O173 O 0.21937 0.02727 0.67342 0.0
O174 O 0.20347 0.08235 0.53209 0.0
C175 C 0.28216 0.02046 0.97611 0.0
O176 O 0.33453 0.01524 0.91451 0.0
C177 C 0.23405 0.21996 0.4161 0.0
C178 C 0.15395 0.279 0.39106 0.0
C179 C 0.21731 0.26648 0.35798 0.0
N180 N 0.18365 0.20668 0.48204 0.0
N181 N 0.13512 0.24118 0.46419 0.0
C182 C 0.29914 0.19156 0.41789 0.0
H183 H 0.30767 0.17203 0.49827 0.0
H184 H 0.33974 0.22008 0.3985 0.0
H185 H 0.29879 0.15879 0.35562 0.0
C186 C 0.31254 0.16598 0.84788 0.0
N187 N 0.26643 0.14305 0.78321 0.0
N188 N 0.25231 0.17691 0.7032 0.0
C189 C 0.28814 0.2229 0.71674 0.0
C190 C 0.32839 0.21686 0.80719 0.0
C191 C 0.33558 0.14293 0.95421 0.0
H192 H 0.29308 0.12852 1.00254 0.0
H193 H 0.36997 0.10915 0.93782 0.0
H194 H 0.36256 0.17304 1.00366 0.0
O195 O 0.12031 0.10271 0.81912 0.0
O196 O 0.09673 0.15368 0.67461 0.0
H197 H 0.22836 0.27867 0.62761 0.0
H198 H 0.29804 0.30974 0.69447 0.0
C199 C 0.28063 0.27332 0.65008 0.0
H200 H 0.31092 0.27004 0.57539 0.0
H201 H 0.09084 0.24106 0.50708 0.0
O202 O 0.23069 0.04294 0.93937 0.0
C203 C 0.08017 0.13163 0.76505 0.0
Co204 Co 0.87846 0.07979 0.76617 0.0
Co205 Co 0.9058 0.15542 0.96564 0.0
C206 C 0.87659 0.03505 0.99503 0.0
O207 O 0.87189 0.02727 0.89217 0.0
O208 O 0.8878 0.08235 0.0335 0.0
C209 C 0.8091 0.02046 0.58948 0.0
O210 O 0.75673 0.01524 0.65106 0.0
C211 C 0.85721 0.21995 0.14949 0.0
C212 C 0.93732 0.27899 0.17455 0.0
C213 C 0.87396 0.26647 0.20762 0.0
N214 N 0.90762 0.20667 0.08355 0.0
N215 N 0.95615 0.24117 0.10141 0.0
C216 C 0.79212 0.19156 0.14771 0.0
H217 H 0.7836 0.17203 0.06732 0.0
H218 H 0.75152 0.22008 0.16709 0.0
H219 H 0.79248 0.15879 0.20997 0.0
C220 C 0.77872 0.16598 0.71772 0.0
N221 N 0.82483 0.14305 0.78239 0.0
N222 N 0.83896 0.17691 0.8624 0.0
C223 C 0.80313 0.2229 0.84886 0.0
C224 C 0.76287 0.21686 0.75841 0.0
C225 C 0.75567 0.14293 0.6114 0.0
H226 H 0.79818 0.12852 0.56306 0.0
H227 H 0.72129 0.10915 0.62779 0.0
H228 H 0.7287 0.17305 0.56195 0.0
O229 O 0.97095 0.10271 0.74646 0.0
O230 O 0.99454 0.15368 0.89098 0.0
H231 H 0.86291 0.27867 0.93798 0.0
H232 H 0.79323 0.30974 0.87112 0.0
C233 C 0.81064 0.27332 0.91551 0.0
H234 H 0.78035 0.27005 0.9902 0.0
H235 H 1.00043 0.24105 0.05853 0.0
O236 O 0.86057 0.04294 0.62621 0.0
C237 C 1.01109 0.13164 0.80053 0.0
Co238 Co 0.21281 0.94302 0.26617 0.0
Co239 Co 0.18547 0.86739 0.46564 0.0
C240 C 0.21468 0.98775 0.49503 0.0
O241 O 0.21938 0.99554 0.39217 0.0
O242 O 0.20347 0.94046 0.5335 0.0
C243 C 0.28216 1.00234 0.08948 0.0
O244 O 0.33454 1.00757 0.15106 0.0
C245 C 0.23405 0.80285 0.64949 0.0
C246 C 0.15395 0.74382 0.67455 0.0
C247 C 0.21731 0.75634 0.70762 0.0
N248 N 0.18364 0.81613 0.58355 0.0
N249 N 0.13512 0.78163 0.60141 0.0
C250 C 0.29914 0.83125 0.6477 0.0
H251 H 0.30767 0.85077 0.56732 0.0
H252 H 0.33974 0.80273 0.66709 0.0
H253 H 0.29879 0.86402 0.70997 0.0
C254 C 0.31254 0.85683 0.21772 0.0
N255 N 0.26643 0.87975 0.28239 0.0
N256 N 0.25231 0.84589 0.3624 0.0
C257 C 0.28814 0.79991 0.34886 0.0
C258 C 0.3284 0.80594 0.25841 0.0
C259 C 0.33559 0.87988 0.11139 0.0
H260 H 0.29309 0.89429 0.06306 0.0
H261 H 0.36998 0.91366 0.12778 0.0
H262 H 0.36257 0.84976 0.06195 0.0
O263 O 0.12031 0.9201 0.24646 0.0
O264 O 0.09673 0.86913 0.39098 0.0
H265 H 0.22836 0.74414 0.43798 0.0
H266 H 0.29804 0.71307 0.37112 0.0
C267 C 0.28062 0.74948 0.41551 0.0
H268 H 0.31091 0.75276 0.4902 0.0
H269 H 0.09084 0.78175 0.55853 0.0
O270 O 0.2307 0.97987 0.12622 0.0
C271 C 0.08018 0.89117 0.30053 0.0
loop_
_geom_bond_atom_site_label_1
_geom_bond_atom_site_label_2
_geom_bond_distance
_geom_bond_site_symmetry_2
_ccdc_geom_bond_type
Co0 O3 1.970 . S
Co0 N17 1.989 . S
Co0 O25 1.967 . S
Co0 O32 1.920 . S
Co1 O4 1.966 . S
Co1 N10 2.022 1_554 S
Co1 N18 1.993 . S
Co1 O26 1.941 . S
C2 O3 1.258 . S
C2 O4 1.263 . S
O3 Co0 1.970 . S
O3 C2 1.258 . S
O4 Co1 1.966 . S
O4 C2 1.263 . S
C5 O6 1.235 . S
C5 O32 1.289 . S
O6 C5 1.235 . S
C7 C9 1.400 . S
C7 N10 1.351 . S
C7 C12 1.501 . S
C8 C9 1.387 . S
C8 N11 1.341 1_556 S
C9 C7 1.400 . S
C9 C8 1.387 . S
N10 Co1 2.022 1_556 S
N10 C7 1.351 . S
N10 N11 1.365 1_556 S
N11 C8 1.341 1_554 S
N11 N10 1.365 1_554 S
N11 H31 0.862 . S
C12 C7 1.501 . S
C12 H13 0.961 . S
C12 H14 0.961 . S
C12 H15 0.960 . S
H13 C12 0.961 . S
H14 C12 0.961 . S
H15 C12 0.960 . S
C16 N17 1.342 . S
C16 C20 1.401 . S
C16 C21 1.499 . S
N17 Co0 1.989 . S
N17 C16 1.342 . S
N17 N18 1.388 . S
N18 Co1 1.993 . S
N18 N17 1.388 . S
N18 C19 1.346 . S
C19 N18 1.346 . S
C19 C20 1.396 . S
C19 C29 1.510 . S
C20 C16 1.401 . S
C20 C19 1.396 . S
C21 C16 1.499 . S
C21 H22 0.959 . S
C21 H23 0.960 . S
C21 H24 0.961 . S
H22 C21 0.959 . S
H23 C21 0.960 . S
H24 C21 0.961 . S
O25 Co0 1.967 . S
O25 C33 1.258 . S
O26 Co1 1.941 . S
O26 C33 1.266 . S
H27 C29 0.959 . S
H28 C29 0.961 . S
C29 C19 1.510 . S
C29 H27 0.959 . S
C29 H28 0.961 . S
C29 H30 0.960 . S
H30 C29 0.960 . S
H31 N11 0.862 . S
O32 Co0 1.920 . S
O32 C5 1.289 . S
C33 O25 1.258 . S
C33 O26 1.266 . S
Co34 O37 1.970 . S
Co34 N51 1.989 . S
Co34 O59 1.967 . S
Co34 O66 1.920 . S
Co35 O38 1.966 . S
Co35 N44 2.022 . S
Co35 N52 1.993 . S
Co35 O60 1.941 . S
C36 O37 1.258 . S
C36 O38 1.263 . S
O37 Co34 1.970 . S
O37 C36 1.258 . S
O38 Co35 1.966 . S
O38 C36 1.263 . S
C39 O40 1.235 . S
C39 O66 1.289 . S
O40 C39 1.235 . S
C41 C43 1.400 . S
C41 N44 1.351 . S
C41 C46 1.501 . S
C42 C43 1.387 . S
C42 N45 1.341 . S
C43 C41 1.400 . S
C43 C42 1.387 . S
N44 Co35 2.022 . S
N44 C41 1.351 . S
N44 N45 1.365 . S
N45 C42 1.341 . S
N45 N44 1.365 . S
N45 H65 0.862 . S
C46 C41 1.501 . S
C46 H47 0.961 . S
C46 H48 0.961 . S
C46 H49 0.960 . S
H47 C46 0.961 . S
H48 C46 0.961 . S
H49 C46 0.960 . S
C50 N51 1.342 . S
C50 C54 1.401 . S
C50 C55 1.499 . S
N51 Co34 1.989 . S
N51 C50 1.342 . S
N51 N52 1.388 . S
N52 Co35 1.993 . S
N52 N51 1.388 . S
N52 C53 1.346 . S
C53 N52 1.346 . S
C53 C54 1.396 . S
C53 C63 1.510 . S
C54 C50 1.401 . S
C54 C53 1.396 . S
C55 C50 1.499 . S
C55 H56 0.959 . S
C55 H57 0.960 1_556 S
C55 H58 0.961 1_556 S
H56 C55 0.959 . S
H57 C55 0.960 1_554 S
H58 C55 0.961 1_554 S
O59 Co34 1.967 . S
O59 C67 1.258 . S
O60 Co35 1.941 . S
O60 C67 1.266 . S
H61 C63 0.959 . S
H62 C63 0.961 . S
C63 C53 1.510 . S
C63 H61 0.959 . S
C63 H62 0.961 . S
C63 H64 0.960 . S
H64 C63 0.960 . S
H65 N45 0.862 . S
O66 Co34 1.920 . S
O66 C39 1.289 . S
C67 O59 1.258 . S
C67 O60 1.266 . S
Co68 O71 1.970 . S
Co68 N85 1.989 . S
Co68 O93 1.967 . S
Co68 O100 1.920 . S
Co69 O72 1.966 . S
Co69 N78 2.022 1_556 S
Co69 N86 1.993 . S
Co69 O94 1.941 . S
C70 O71 1.258 . S
C70 O72 1.263 . S
O71 Co68 1.970 . S
O71 C70 1.258 . S
O72 Co69 1.966 . S
O72 C70 1.263 . S
C73 O74 1.235 . S
C73 O100 1.289 . S
O74 C73 1.235 . S
C75 C77 1.400 . S
C75 N78 1.351 . S
C75 C80 1.501 . S
C76 C77 1.387 . S
C76 N79 1.341 1_554 S
C77 C75 1.400 . S
C77 C76 1.387 . S
N78 Co69 2.022 1_554 S
N78 C75 1.351 . S
N78 N79 1.365 1_554 S
N79 C76 1.341 1_556 S
N79 N78 1.365 1_556 S
N79 H99 0.862 . S
C80 C75 1.501 . S
C80 H81 0.961 . S
C80 H82 0.961 . S
C80 H83 0.960 . S
H81 C80 0.961 . S
H82 C80 0.961 . S
H83 C80 0.960 . S
C84 N85 1.342 . S
C84 C88 1.401 . S
C84 C89 1.499 . S
N85 Co68 1.989 . S
N85 C84 1.342 . S
N85 N86 1.388 . S
N86 Co69 1.993 . S
N86 N85 1.388 . S
N86 C87 1.346 . S
C87 N86 1.346 . S
C87 C88 1.396 . S
C87 C97 1.510 . S
C88 C84 1.401 . S
C88 C87 1.396 . S
C89 C84 1.499 . S
C89 H90 0.959 . S
C89 H91 0.960 . S
C89 H92 0.961 . S
H90 C89 0.959 . S
H91 C89 0.960 . S
H92 C89 0.961 . S
O93 Co68 1.967 . S
O93 C101 1.258 . S
O94 Co69 1.941 . S
O94 C101 1.266 . S
H95 C97 0.959 . S
H96 C97 0.961 . S
C97 C87 1.510 . S
C97 H95 0.959 . S
C97 H96 0.961 . S
C97 H98 0.960 . S
H98 C97 0.960 . S
H99 N79 0.862 . S
O100 Co68 1.920 . S
O100 C73 1.289 . S
C101 O93 1.258 . S
C101 O94 1.266 . S
Co102 O105 1.970 . S
Co102 N119 1.989 . S
Co102 O127 1.967 . S
Co102 O134 1.920 . S
Co103 O106 1.966 . S
Co103 N112 2.022 . S
Co103 N120 1.993 . S
Co103 O128 1.941 . S
C104 O105 1.258 . S
C104 O106 1.263 . S
O105 Co102 1.970 . S
O105 C104 1.258 . S
O106 Co103 1.966 . S
O106 C104 1.263 . S
C107 O108 1.235 . S
C107 O134 1.289 . S
O108 C107 1.235 . S
C109 C111 1.400 . S
C109 N112 1.351 . S
C109 C114 1.501 . S
C110 C111 1.387 . S
C110 N113 1.341 . S
C111 C109 1.400 . S
C111 C110 1.387 . S
N112 Co103 2.022 . S
N112 C109 1.351 . S
N112 N113 1.365 . S
N113 C110 1.341 . S
N113 N112 1.365 . S
N113 H133 0.862 . S
C114 C109 1.501 . S
C114 H115 0.961 . S
C114 H116 0.961 . S
C114 H117 0.960 . S
H115 C114 0.961 . S
H116 C114 0.961 . S
H117 C114 0.960 . S
C118 N119 1.342 . S
C118 C122 1.401 . S
C118 C123 1.499 . S
N119 Co102 1.989 . S
N119 C118 1.342 . S
N119 N120 1.388 . S
N120 Co103 1.993 . S
N120 N119 1.388 . S
N120 C121 1.346 . S
C121 N120 1.346 . S
C121 C122 1.396 . S
C121 C131 1.510 . S
C122 C118 1.401 . S
C122 C121 1.396 . S
C123 C118 1.499 . S
C123 H124 0.959 . S
C123 H125 0.960 1_554 S
C123 H126 0.961 1_554 S
H124 C123 0.959 . S
H125 C123 0.960 1_556 S
H126 C123 0.961 1_556 S
O127 Co102 1.967 . S
O127 C135 1.258 . S
O128 Co103 1.941 . S
O128 C135 1.266 . S
H129 C131 0.959 . S
H130 C131 0.961 . S
C131 C121 1.510 . S
C131 H129 0.959 . S
C131 H130 0.961 . S
C131 H132 0.960 . S
H132 C131 0.960 . S
H133 N113 0.862 . S
O134 Co102 1.920 . S
O134 C107 1.289 . S
C135 O127 1.258 . S
C135 O128 1.266 . S
Co136 O139 1.970 . S
Co136 N153 1.989 . S
Co136 O161 1.967 . S
Co136 O168 1.920 . S
Co137 O140 1.966 . S
Co137 N146 2.022 1_554 S
Co137 N154 1.993 . S
Co137 O162 1.941 . S
C138 O139 1.258 . S
C138 O140 1.263 . S
O139 Co136 1.970 . S
O139 C138 1.258 . S
O140 Co137 1.966 . S
O140 C138 1.263 . S
C141 O142 1.235 . S
C141 O168 1.289 1_545 S
O142 C141 1.235 . S
C143 C145 1.400 . S
C143 N146 1.351 . S
C143 C148 1.501 . S
C144 C145 1.387 . S
C144 N147 1.341 1_556 S
C145 C143 1.400 . S
C145 C144 1.387 . S
N146 Co137 2.022 1_556 S
N146 C143 1.351 . S
N146 N147 1.365 1_556 S
N147 C144 1.341 1_554 S
N147 N146 1.365 1_554 S
N147 H167 0.862 . S
C148 C143 1.501 . S
C148 H149 0.961 . S
C148 H150 0.961 . S
C148 H151 0.960 . S
H149 C148 0.961 . S
H150 C148 0.961 . S
H151 C148 0.960 . S
C152 N153 1.342 . S
C152 C156 1.401 . S
C152 C157 1.499 . S
N153 Co136 1.989 . S
N153 C152 1.342 . S
N153 N154 1.388 . S
N154 Co137 1.993 . S
N154 N153 1.388 . S
N154 C155 1.346 . S
C155 N154 1.346 . S
C155 C156 1.396 . S
C155 C165 1.510 . S
C156 C152 1.401 . S
C156 C155 1.396 . S
C157 C152 1.499 . S
C157 H158 0.959 . S
C157 H159 0.960 . S
C157 H160 0.961 . S
H158 C157 0.959 . S
H159 C157 0.960 . S
H160 C157 0.961 . S
O161 Co136 1.967 . S
O161 C169 1.258 . S
O162 Co137 1.941 . S
O162 C169 1.266 . S
H163 C165 0.959 . S
H164 C165 0.961 . S
C165 C155 1.510 . S
C165 H163 0.959 . S
C165 H164 0.961 . S
C165 H166 0.960 . S
H166 C165 0.960 . S
H167 N147 0.862 . S
O168 Co136 1.920 . S
O168 C141 1.289 1_565 S
C169 O161 1.258 . S
C169 O162 1.266 . S
Co170 O173 1.970 . S
Co170 N187 1.989 . S
Co170 O195 1.967 . S
Co170 O202 1.920 . S
Co171 O174 1.966 . S
Co171 N180 2.022 . S
Co171 N188 1.993 . S
Co171 O196 1.941 . S
C172 O173 1.258 . S
C172 O174 1.263 . S
O173 Co170 1.970 . S
O173 C172 1.258 . S
O174 Co171 1.966 . S
O174 C172 1.263 . S
C175 O176 1.235 . S
C175 O202 1.289 1_565 S
O176 C175 1.235 . S
C177 C179 1.400 . S
C177 N180 1.351 . S
C177 C182 1.501 . S
C178 C179 1.387 . S
C178 N181 1.341 . S
C179 C177 1.400 . S
C179 C178 1.387 . S
N180 Co171 2.022 . S
N180 C177 1.351 . S
N180 N181 1.365 . S
N181 C178 1.341 . S
N181 N180 1.365 . S
N181 H201 0.862 . S
C182 C177 1.501 . S
C182 H183 0.961 . S
C182 H184 0.961 . S
C182 H185 0.960 . S
H183 C182 0.961 . S
H184 C182 0.961 . S
H185 C182 0.960 . S
C186 N187 1.342 . S
C186 C190 1.401 . S
C186 C191 1.499 . S
N187 Co170 1.989 . S
N187 C186 1.342 . S
N187 N188 1.388 . S
N188 Co171 1.993 . S
N188 N187 1.388 . S
N188 C189 1.346 . S
C189 N188 1.346 . S
C189 C190 1.396 . S
C189 C199 1.510 . S
C190 C186 1.401 . S
C190 C189 1.396 . S
C191 C186 1.499 . S
C191 H192 0.959 . S
C191 H193 0.960 1_556 S
C191 H194 0.961 1_556 S
H192 C191 0.959 . S
H193 C191 0.960 1_554 S
H194 C191 0.961 1_554 S
O195 Co170 1.967 . S
O195 C203 1.258 . S
O196 Co171 1.941 . S
O196 C203 1.266 . S
H197 C199 0.959 . S
H198 C199 0.961 . S
C199 C189 1.510 . S
C199 H197 0.959 . S
C199 H198 0.961 . S
C199 H200 0.960 . S
H200 C199 0.960 . S
H201 N181 0.862 . S
O202 Co170 1.920 . S
O202 C175 1.289 1_545 S
C203 O195 1.258 . S
C203 O196 1.266 . S
Co204 O207 1.970 . S
Co204 N221 1.989 . S
Co204 O229 1.967 . S
Co204 O236 1.920 . S
Co205 O208 1.966 . S
Co205 N214 2.022 1_556 S
Co205 N222 1.993 . S
Co205 O230 1.941 . S
C206 O207 1.258 . S
C206 O208 1.263 . S
O207 Co204 1.970 . S
O207 C206 1.258 . S
O208 Co205 1.966 . S
O208 C206 1.263 . S
C209 O210 1.235 . S
C209 O236 1.289 1_565 S
O210 C209 1.235 . S
C211 C213 1.400 . S
C211 N214 1.351 . S
C211 C216 1.501 . S
C212 C213 1.387 . S
C212 N215 1.341 1_554 S
C213 C211 1.400 . S
C213 C212 1.387 . S
N214 Co205 2.022 1_554 S
N214 C211 1.351 . S
N214 N215 1.365 1_554 S
N215 C212 1.341 1_556 S
N215 N214 1.365 1_556 S
N215 H235 0.862 . S
C216 C211 1.501 . S
C216 H217 0.961 . S
C216 H218 0.961 . S
C216 H219 0.960 . S
H217 C216 0.961 . S
H218 C216 0.961 . S
H219 C216 0.960 . S
C220 N221 1.342 . S
C220 C224 1.401 . S
C220 C225 1.499 . S
N221 Co204 1.989 . S
N221 C220 1.342 . S
N221 N222 1.388 . S
N222 Co205 1.993 . S
N222 N221 1.388 . S
N222 C223 1.346 . S
C223 N222 1.346 . S
C223 C224 1.396 . S
C223 C233 1.510 . S
C224 C220 1.401 . S
C224 C223 1.396 . S
C225 C220 1.499 . S
C225 H226 0.959 . S
C225 H227 0.960 . S
C225 H228 0.961 . S
H226 C225 0.959 . S
H227 C225 0.960 . S
H228 C225 0.961 . S
O229 Co204 1.967 . S
O229 C237 1.258 . S
O230 Co205 1.941 . S
O230 C237 1.266 . S
H231 C233 0.959 . S
H232 C233 0.961 . S
C233 C223 1.510 . S
C233 H231 0.959 . S
C233 H232 0.961 . S
C233 H234 0.960 . S
H234 C233 0.960 . S
H235 N215 0.862 . S
O236 Co204 1.920 . S
O236 C209 1.289 1_545 S
C237 O229 1.258 . S
C237 O230 1.266 . S
Co238 O241 1.970 . S
Co238 N255 1.989 . S
Co238 O263 1.967 . S
Co238 O270 1.920 . S
Co239 O242 1.966 . S
Co239 N248 2.022 . S
Co239 N256 1.993 . S
Co239 O264 1.941 . S
C240 O241 1.258 . S
C240 O242 1.263 . S
O241 Co238 1.970 . S
O241 C240 1.258 . S
O242 Co239 1.966 . S
O242 C240 1.263 . S
C243 O244 1.235 . S
C243 O270 1.289 1_545 S
O244 C243 1.235 . S
C245 C247 1.400 . S
C245 N248 1.351 . S
C245 C250 1.501 . S
C246 C247 1.387 . S
C246 N249 1.341 . S
C247 C245 1.400 . S
C247 C246 1.387 . S
N248 Co239 2.022 . S
N248 C245 1.351 . S
N248 N249 1.365 . S
N249 C246 1.341 . S
N249 N248 1.365 . S
N249 H269 0.862 . S
C250 C245 1.501 . S
C250 H251 0.961 . S
C250 H252 0.961 . S
C250 H253 0.960 . S
H251 C250 0.961 . S
H252 C250 0.961 . S
H253 C250 0.960 . S
C254 N255 1.342 . S
C254 C258 1.401 . S
C254 C259 1.499 . S
N255 Co238 1.989 . S
N255 C254 1.342 . S
N255 N256 1.388 . S
N256 Co239 1.993 . S
N256 N255 1.388 . S
N256 C257 1.346 . S
C257 N256 1.346 . S
C257 C258 1.396 . S
C257 C267 1.510 . S
C258 C254 1.401 . S
C258 C257 1.396 . S
C259 C254 1.499 . S
C259 H260 0.959 . S
C259 H261 0.960 1_554 S
C259 H262 0.961 1_554 S
H260 C259 0.959 . S
H261 C259 0.960 1_556 S
H262 C259 0.961 1_556 S
O263 Co238 1.967 . S
O263 C271 1.258 . S
O264 Co239 1.941 . S
O264 C271 1.266 . S
H265 C267 0.959 . S
H266 C267 0.961 . S
C267 C257 1.510 . S
C267 H265 0.959 . S
C267 H266 0.961 . S
C267 H268 0.960 . S
H268 C267 0.960 . S
H269 N249 0.862 . S
O270 Co238 1.920 . S
O270 C243 1.289 1_565 S
C271 O263 1.258 . S
C271 O264 1.266 . S
C33 C135 2.136 . S
C67 C101 2.136 . S
C271 C169 2.136 1_455 S
C203 C237 2.136 1_455 S
C70 C2 2.671 1_556 S
C104 C36 2.672 . S
C39 C107 1.660 1_556 S
C5 C73 1.660 . S
C206 C138 2.671 1_546 S
C172 C240 2.672 1_545 S
C175 C243 1.660 1_566 S
C209 C141 1.660 1_565 S
C9 C190 1.465 . S
C43 C156 1.466 . S
C258 C77 1.466 . S
C111 C224 1.465 . S
C54 C145 1.466 . S
C179 C20 1.465 . S
C213 C122 1.465 . S
C247 C88 1.466 . S
