# Generated by pormake.
# Topology wkj, (6)-cn, num edge types: 1
# Building blocks:
#     Node 0, Type 0, BuildingBlock: CIFDUS_clean_sbu_1, # of connection points: 6
#     Node 1, Type 0, BuildingBlock: CIFDUS_clean_sbu_1, # of connection points: 6
#     Node 2, Type 0, BuildingBlock: CIFDUS_clean_sbu_1, # of connection points: 6
#     Node 3, Type 0, BuildingBlock: CIFDUS_clean_sbu_1, # of connection points: 6
#     Node 4, Type 0, BuildingBlock: CIFDUS_clean_sbu_1, # of connection points: 6
#     Node 5, Type 0, BuildingBlock: CIFDUS_clean_sbu_1, # of connection points: 6
#     Node 6, Type 0, BuildingBlock: CIFDUS_clean_sbu_1, # of connection points: 6
#     Node 7, Type 0, BuildingBlock: CIFDUS_clean_sbu_1, # of connection points: 6
#     Node 8, Type 0, BuildingBlock: CIFDUS_clean_sbu_1, # of connection points: 6
#     Node 9, Type 0, BuildingBlock: CIFDUS_clean_sbu_1, # of connection points: 6
#     Node 10, Type 0, BuildingBlock: CIFDUS_clean_sbu_1, # of connection points: 6
#     Node 11, Type 0, BuildingBlock: CIFDUS_clean_sbu_1, # of connection points: 6
#     Edge 12, Type (0, 0), BuildingBlock: XIVTED_clean_linker_0, # of connection points: 2
#     Edge 13, Type (0, 0), BuildingBlock: XIVTED_clean_linker_0, # of connection points: 2
#     Edge 14, Type (0, 0), BuildingBlock: XIVTED_clean_linker_0, # of connection points: 2
#     Edge 15, Type (0, 0), BuildingBlock: XIVTED_clean_linker_0, # of connection points: 2
#     Edge 16, Type (0, 0), BuildingBlock: XIVTED_clean_linker_0, # of connection points: 2
#     Edge 17, Type (0, 0), BuildingBlock: XIVTED_clean_linker_0, # of connection points: 2
#     Edge 18, Type (0, 0), BuildingBlock: XIVTED_clean_linker_0, # of connection points: 2
#     Edge 19, Type (0, 0), BuildingBlock: XIVTED_clean_linker_0, # of connection points: 2
#     Edge 20, Type (0, 0), BuildingBlock: XIVTED_clean_linker_0, # of connection points: 2
#     Edge 21, Type (0, 0), BuildingBlock: XIVTED_clean_linker_0, # of connection points: 2
#     Edge 22, Type (0, 0), BuildingBlock: XIVTED_clean_linker_0, # of connection points: 2
#     Edge 23, Type (0, 0), BuildingBlock: XIVTED_clean_linker_0, # of connection points: 2
#     Edge 24, Type (0, 0), BuildingBlock: XIVTED_clean_linker_0, # of connection points: 2
#     Edge 25, Type (0, 0), BuildingBlock: XIVTED_clean_linker_0, # of connection points: 2
#     Edge 26, Type (0, 0), BuildingBlock: XIVTED_clean_linker_0, # of connection points: 2
#     Edge 27, Type (0, 0), BuildingBlock: XIVTED_clean_linker_0, # of connection points: 2
#     Edge 28, Type (0, 0), BuildingBlock: XIVTED_clean_linker_0, # of connection points: 2
#     Edge 29, Type (0, 0), BuildingBlock: XIVTED_clean_linker_0, # of connection points: 2
#     Edge 30, Type (0, 0), BuildingBlock: XIVTED_clean_linker_0, # of connection points: 2
#     Edge 31, Type (0, 0), BuildingBlock: XIVTED_clean_linker_0, # of connection points: 2
#     Edge 32, Type (0, 0), BuildingBlock: XIVTED_clean_linker_0, # of connection points: 2
#     Edge 33, Type (0, 0), BuildingBlock: XIVTED_clean_linker_0, # of connection points: 2
#     Edge 34, Type (0, 0), BuildingBlock: XIVTED_clean_linker_0, # of connection points: 2
#     Edge 35, Type (0, 0), BuildingBlock: XIVTED_clean_linker_0, # of connection points: 2
#     Edge 36, Type (0, 0), BuildingBlock: XIVTED_clean_linker_0, # of connection points: 2
#     Edge 37, Type (0, 0), BuildingBlock: XIVTED_clean_linker_0, # of connection points: 2
#     Edge 38, Type (0, 0), BuildingBlock: XIVTED_clean_linker_0, # of connection points: 2
#     Edge 39, Type (0, 0), BuildingBlock: XIVTED_clean_linker_0, # of connection points: 2
#     Edge 40, Type (0, 0), BuildingBlock: XIVTED_clean_linker_0, # of connection points: 2
#     Edge 41, Type (0, 0), BuildingBlock: XIVTED_clean_linker_0, # of connection points: 2
#     Edge 42, Type (0, 0), BuildingBlock: XIVTED_clean_linker_0, # of connection points: 2
#     Edge 43, Type (0, 0), BuildingBlock: XIVTED_clean_linker_0, # of connection points: 2
#     Edge 44, Type (0, 0), BuildingBlock: XIVTED_clean_linker_0, # of connection points: 2
#     Edge 45, Type (0, 0), BuildingBlock: XIVTED_clean_linker_0, # of connection points: 2
#     Edge 46, Type (0, 0), BuildingBlock: XIVTED_clean_linker_0, # of connection points: 2
#     Edge 47, Type (0, 0), BuildingBlock: XIVTED_clean_linker_0, # of connection points: 2
# Relax obj value: 0.527
# Max RMSD: 0.242
# Mean RMSD: 0.242
data_MOF--net-wkj--node1-CIFDUS_clean_sbu_1--edge1-XIVTED_clean_linker_0
_symmetry_space_group_name_H-M    P1
_symmetry_Int_Tables_number       1
_symmetry_cell_setting            triclinic
loop_
_symmetry_equiv_pos_as_xyz
'x, y, z'
_cell_length_a     52.39961
_cell_length_b     52.389042
_cell_length_c     24.43077
_cell_angle_alpha  89.939731
_cell_angle_beta   90.054919
_cell_angle_gamma 120.3804
loop_
_atom_site_label
_atom_site_type_symbol
_atom_site_fract_x
_atom_site_fract_y
_atom_site_fract_z
_atom_type_partial_charge
O0 O 0.47164 0.0932 0.33411 0.0
Mn1 Mn 0.43873 0.07354 0.2739 0.0
O2 O 0.46358 0.12559 0.37957 0.0
Mn3 Mn 0.43031 0.11711 0.33976 0.0
O4 O 0.4059 0.05258 0.21288 0.0
O5 O 0.44232 0.03814 0.28105 0.0
Mn6 Mn 0.44334 0.02147 0.2204 0.0
O7 O 0.47138 0.09049 0.21194 0.0
O8 O 0.40756 0.01174 0.18836 0.0
O9 O 0.4059 0.05377 0.33378 0.0
O10 O 0.39571 0.08691 0.36809 0.0
O11 O 0.44497 -0.00117 0.27822 0.0
O12 O 0.47673 0.05179 0.18645 0.0
C13 C 0.43312 0.13403 0.26163 0.0
C14 C 0.47809 0.11247 0.37212 0.0
C15 C 0.39576 0.02792 0.18648 0.0
C16 C 0.44334 0.01805 0.30881 0.0
C17 C 0.48423 0.07914 0.18404 0.0
C18 C 0.39056 0.06062 0.36472 0.0
O19 O 0.43503 0.11045 0.26975 0.0
O20 O 0.42924 0.14651 0.30412 0.0
O21 O 0.36136 0.47862 0.66116 0.0
Mn22 Mn 0.34707 0.44698 0.59892 0.0
O23 O 0.32181 0.47076 0.71001 0.0
Mn24 Mn 0.29649 0.43629 0.67291 0.0
O25 O 0.33392 0.41478 0.53621 0.0
O26 O 0.38738 0.45273 0.59947 0.0
Mn27 Mn 0.40247 0.45438 0.53539 0.0
O28 O 0.35977 0.4803 0.53882 0.0
O29 O 0.37625 0.41786 0.50605 0.0
O30 O 0.33683 0.41392 0.65678 0.0
O31 O 0.29489 0.40259 0.69946 0.0
O32 O 0.43055 0.45864 0.58717 0.0
O33 O 0.40268 0.48666 0.50346 0.0
C34 C 0.27929 0.43824 0.59724 0.0
C35 C 0.34936 0.48534 0.70004 0.0
C36 C 0.3481 0.40521 0.50749 0.0
C37 C 0.41095 0.45623 0.6221 0.0
C38 C 0.38262 0.49366 0.50712 0.0
C39 C 0.31619 0.39817 0.69083 0.0
O40 O 0.30549 0.44125 0.60166 0.0
O41 O 0.26397 0.43315 0.64173 0.0
O42 O 0.87374 0.37173 1.0013 0.0
Mn43 Mn 0.89285 0.35767 0.94205 0.0
O44 O 0.83866 0.33156 0.0446 0.0
Mn45 Mn 0.8473 0.3062 1.00796 0.0
O46 O 0.9128 0.34488 0.88107 0.0
O47 O 0.92933 0.39678 0.94854 0.0
Mn48 Mn 0.94491 0.4139 0.88648 0.0
O49 O 0.87625 0.37354 0.88018 0.0
O50 O 0.9531 0.3873 0.85269 0.0
O51 O 0.91163 0.34411 1.003 0.0
O52 O 0.87662 0.30174 0.03938 0.0
O53 O 0.96949 0.43854 0.94201 0.0
O54 O 0.91486 0.418 0.85484 0.0
C55 C 0.8314 0.2917 0.92955 0.0
C56 C 0.85317 0.35936 0.03733 0.0
C57 C 0.93672 0.35917 0.85242 0.0
C58 C 0.95065 0.41821 0.97436 0.0
C59 C 0.88745 0.39807 0.85303 0.0
C60 C 0.90338 0.32224 0.03591 0.0
O61 O 0.8553 0.31715 0.93801 0.0
O62 O 0.81807 0.2755 0.97199 0.0
O63 O 0.48509 0.88287 0.3298 0.0
Mn64 Mn 0.51833 0.89941 0.26996 0.0
O65 O 0.48114 0.84199 0.36701 0.0
Mn66 Mn 0.51731 0.85083 0.33926 0.0
O67 O 0.55185 0.91766 0.20941 0.0
O68 O 0.51724 0.93657 0.27313 0.0
Mn69 Mn 0.51815 0.95237 0.21002 0.0
O70 O 0.48623 0.88298 0.2075 0.0
O71 O 0.55398 0.95999 0.18175 0.0
O72 O 0.55037 0.91724 0.33117 0.0
O73 O 0.54955 0.87974 0.37685 0.0
O74 O 0.51576 0.97646 0.26353 0.0
O75 O 0.48468 0.92273 0.175 0.0
C76 C 0.52057 0.83728 0.26074 0.0
C77 C 0.47234 0.86034 0.36176 0.0
C78 C 0.56388 0.94218 0.18201 0.0
C79 C 0.51541 0.95725 0.29718 0.0
C80 C 0.47524 0.89493 0.1763 0.0
C81 C 0.55986 0.90725 0.36922 0.0
O82 O 0.51956 0.86125 0.26929 0.0
O83 O 0.52005 0.8223 0.30345 0.0
O84 O 0.59666 0.49316 0.65723 0.0
Mn85 Mn 0.60877 0.52493 0.5962 0.0
O86 O 0.63449 0.51405 0.71643 0.0
Mn87 Mn 0.65916 0.54556 0.67111 0.0
O88 O 0.62014 0.55729 0.53473 0.0
O89 O 0.56743 0.51538 0.59397 0.0
Mn90 Mn 0.55193 0.51198 0.52974 0.0
O91 O 0.59986 0.49269 0.53528 0.0
O92 O 0.57659 0.54874 0.49891 0.0
O93 O 0.61338 0.55587 0.65527 0.0
O94 O 0.65949 0.58021 0.68368 0.0
O95 O 0.52375 0.50766 0.58175 0.0
O96 O 0.55481 0.48079 0.50099 0.0
C97 C 0.67935 0.54011 0.60366 0.0
C98 C 0.60868 0.49339 0.70317 0.0
C99 C 0.6047 0.56424 0.50337 0.0
C100 C 0.54417 0.5123 0.61665 0.0
C101 C 0.577 0.47691 0.50452 0.0
C102 C 0.63426 0.57749 0.68123 0.0
O103 O 0.65191 0.53424 0.60095 0.0
O104 O 0.69339 0.54942 0.64974 0.0
O105 O 0.08107 0.60211 0.99707 0.0
Mn106 Mn 0.06232 0.61548 0.93611 0.0
O107 O 0.10675 0.64162 0.0509 0.0
Mn108 Mn 0.09928 0.66628 1.00838 0.0
O109 O 0.04285 0.62808 0.87416 0.0
O110 O 0.0275 0.5751 0.93806 0.0
Mn111 Mn 0.01287 0.55949 0.87479 0.0
O112 O 0.0822 0.60262 0.87511 0.0
O113 O 0.00286 0.58572 0.84509 0.0
O114 O 0.03892 0.62484 0.99397 0.0
O115 O 0.06727 0.66926 0.02934 0.0
O116 O -0.01099 0.53233 0.92833 0.0
O117 O 0.04476 0.55908 0.84224 0.0
C118 C 0.12181 0.68429 0.93669 0.0
C119 C 0.09717 0.61463 0.03934 0.0
C120 C 0.01884 0.61389 0.84588 0.0
C121 C 0.00697 0.55227 0.96221 0.0
C122 C 0.07207 0.57938 0.84424 0.0
C123 C 0.04217 0.64644 0.02339 0.0
O124 O 0.09862 0.65755 0.93718 0.0
O125 O 0.13016 0.69903 0.9822 0.0
O126 O 0.86849 0.49552 0.36967 0.0
Mn127 Mn 0.89067 0.5277 0.42848 0.0
O128 O 0.85837 0.52095 0.3091 0.0
Mn129 Mn 0.85839 0.5481 0.35824 0.0
O130 O 0.91403 0.56023 0.48829 0.0
O131 O 0.92239 0.51806 0.42452 0.0
Mn132 Mn 0.93731 0.51615 0.48685 0.0
O133 O 0.86956 0.49616 0.49143 0.0
O134 O 0.9515 0.55362 0.5158 0.0
O135 O 0.91418 0.55939 0.36782 0.0
O136 O 0.89155 0.58464 0.34994 0.0
O137 O 0.9583 0.50987 0.43181 0.0
O138 O 0.90442 0.48584 0.52164 0.0
C139 C 0.83008 0.52665 0.42386 0.0
C140 C 0.86042 0.49858 0.32194 0.0
C141 C 0.93807 0.56827 0.51535 0.0
C142 C 0.9411 0.51365 0.39915 0.0
C143 C 0.8781 0.48156 0.52171 0.0
C144 C 0.91414 0.58179 0.34627 0.0
O145 O 0.85861 0.53862 0.42885 0.0
O146 O 0.82113 0.53488 0.3814 0.0
O147 O 0.35927 0.88645 0.69552 0.0
Mn148 Mn 0.3466 0.90477 0.75841 0.0
O149 O 0.31858 0.85036 0.65483 0.0
Mn150 Mn 0.29414 0.86079 0.69026 0.0
O151 O 0.33485 0.92449 0.82178 0.0
O152 O 0.38687 0.93995 0.75406 0.0
Mn153 Mn 0.403 0.95474 0.8171 0.0
O154 O 0.36074 0.88558 0.81817 0.0
O155 O 0.37742 0.96536 0.84717 0.0
O156 O 0.33437 0.92578 0.7002 0.0
O157 O 0.29265 0.89205 0.65923 0.0
O158 O 0.43038 0.97775 0.76365 0.0
O159 O 0.40391 0.92338 0.85093 0.0
C160 C 0.27954 0.84534 0.76937 0.0
C161 C 0.34645 0.86549 0.66032 0.0
C162 C 0.34934 0.94895 0.84888 0.0
C163 C 0.41039 0.9596 0.73001 0.0
C164 C 0.38397 0.89599 0.84893 0.0
C165 C 0.31334 0.91861 0.66575 0.0
O166 O 0.30528 0.86855 0.76 0.0
O167 O 0.26271 0.8327 0.7273 0.0
O168 O 0.46863 0.37034 0.03355 0.0
Mn169 Mn 0.43632 0.35754 0.09396 0.0
O170 O 0.45079 0.33196 0.9756 0.0
Mn171 Mn 0.41799 0.30717 0.01784 0.0
O172 O 0.40375 0.3458 0.15505 0.0
O173 O 0.44519 0.39862 0.09636 0.0
Mn174 Mn 0.44939 0.41443 0.16044 0.0
O175 O 0.46859 0.36676 0.15529 0.0
O176 O 0.41358 0.38917 0.19388 0.0
O177 O 0.40545 0.35236 0.0342 0.0
O178 O 0.38387 0.30713 1.00044 0.0
O179 O 0.45102 0.44157 0.10847 0.0
O180 O 0.48175 0.4127 0.18622 0.0
C181 C 0.42193 0.28737 0.08794 0.0
C182 C 0.47027 0.35824 0.98903 0.0
C183 C 0.39759 0.36115 0.18823 0.0
C184 C 0.44616 0.421 0.07381 0.0
C185 C 0.48524 0.39024 0.18407 0.0
C186 C 0.38534 0.33178 1.00503 0.0
O187 O 0.4273 0.31463 0.08881 0.0
O188 O 0.41391 0.2731 0.04194 0.0
O189 O 0.08272 0.4751 0.36624 0.0
Mn190 Mn 0.06201 0.44236 0.42509 0.0
O191 O 0.09617 0.45275 0.30565 0.0
Mn192 Mn 0.09734 0.42662 0.35546 0.0
O193 O 0.03978 0.41001 0.48637 0.0
O194 O 0.02862 0.4495 0.41982 0.0
Mn195 Mn 0.01376 0.45204 0.4817 0.0
O196 O 0.08187 0.47486 0.48701 0.0
O197 O 0.00156 0.41559 0.51355 0.0
O198 O 0.03949 0.40905 0.36532 0.0
O199 O 0.06692 0.38902 0.34453 0.0
O200 O -0.00842 0.45599 0.42585 0.0
O201 O 0.04597 0.4841 0.51469 0.0
C202 C 0.125 0.44718 0.42201 0.0
C203 C 0.09214 0.47376 0.31886 0.0
C204 C 0.01584 0.40178 0.5141 0.0
C205 C 0.00921 0.45258 0.39377 0.0
C206 C 0.07263 0.48939 0.51565 0.0
C207 C 0.04239 0.38835 0.34307 0.0
O208 O 0.09626 0.43411 0.42725 0.0
O209 O 0.13468 0.44133 0.37766 0.0
O210 O 0.59734 0.08994 0.69869 0.0
Mn211 Mn 0.60879 0.06934 0.75965 0.0
O212 O 0.63816 0.11644 0.64827 0.0
Mn213 Mn 0.66134 0.10675 0.69028 0.0
O214 O 0.61907 0.04762 0.82135 0.0
O215 O 0.56799 0.03592 0.75569 0.0
Mn216 Mn 0.55059 0.02121 0.81772 0.0
O217 O 0.59651 0.08959 0.8211 0.0
O218 O 0.57503 0.00946 0.84964 0.0
O219 O 0.61767 0.04589 0.70063 0.0
O220 O 0.66259 0.07428 0.66659 0.0
O221 O 0.52439 -0.0015 0.76193 0.0
O222 O 0.55113 0.05363 0.84984 0.0
C223 C 0.67834 0.12703 0.76445 0.0
C224 C 0.61096 0.10689 0.65786 0.0
C225 C 0.60328 0.02377 0.84949 0.0
C226 C 0.54559 0.01611 0.72972 0.0
C227 C 0.57271 0.08038 0.85007 0.0
C228 C 0.63922 0.04942 0.67063 0.0
O229 O 0.65138 0.10445 0.76091 0.0
O230 O 0.69423 0.13594 0.72027 0.0
O231 O 0.49054 0.60527 0.02947 0.0
Mn232 Mn 0.52185 0.61788 0.09195 0.0
O233 O 0.502 0.64537 0.97875 0.0
Mn234 Mn 0.53663 0.66916 0.01684 0.0
O235 O 0.55376 0.62938 0.15466 0.0
O236 O 0.5129 0.57652 0.09254 0.0
Mn237 Mn 0.51156 0.56161 0.15667 0.0
O238 O 0.4891 0.60762 0.15209 0.0
O239 O 0.5494 0.58617 0.18264 0.0
O240 O 0.55429 0.62541 0.03442 0.0
O241 O 0.56931 0.66831 0.99216 0.0
O242 O 0.50311 0.53202 0.10514 0.0
O243 O 0.48171 0.56494 0.19094 0.0
C244 C 0.53589 0.68766 0.09143 0.0
C245 C 0.48559 0.61803 0.98935 0.0
C246 C 0.56293 0.61438 0.18194 0.0
C247 C 0.50619 0.55189 0.07016 0.0
C248 C 0.47573 0.58568 0.18586 0.0
C249 C 0.5715 0.64568 1.00098 0.0
O250 O 0.53081 0.66062 0.08817 0.0
O251 O 0.54212 0.70285 0.04647 0.0
H252 H 0.48342 0.17735 0.21634 0.0
H253 H 0.38136 0.24489 0.15266 0.0
H254 H 0.38919 0.12575 0.19364 0.0
H255 H 0.47462 0.294 0.11759 0.0
H256 H 0.38617 0.20295 0.18171 0.0
H257 H 0.48313 0.22079 0.18015 0.0
C258 C 0.46291 0.17473 0.20044 0.0
C259 C 0.43617 0.14822 0.20892 0.0
C260 C 0.40576 0.2231 0.16875 0.0
C261 C 0.43537 0.19777 0.17084 0.0
C262 C 0.40318 0.24736 0.15401 0.0
C263 C 0.42766 0.27285 0.13315 0.0
C264 C 0.43309 0.22451 0.16265 0.0
C265 C 0.45532 0.27474 0.13421 0.0
C266 C 0.46263 0.19974 0.18143 0.0
C267 C 0.41022 0.14597 0.1882 0.0
N268 N 0.45728 0.25059 0.14769 0.0
N269 N 0.41023 0.17074 0.17197 0.0
H270 H 0.23633 0.39619 0.53549 0.0
H271 H 0.17572 0.49898 0.4381 0.0
H272 H 0.29125 0.49054 0.55318 0.0
H273 H 0.12141 0.41175 0.50542 0.0
H274 H 0.21992 0.49916 0.47162 0.0
H275 H 0.19624 0.40291 0.50188 0.0
C276 C 0.2405 0.41846 0.52915 0.0
C277 C 0.26691 0.44283 0.54737 0.0
C278 C 0.19827 0.48038 0.48051 0.0
C279 C 0.2209 0.45065 0.51208 0.0
C280 C 0.17303 0.48058 0.46282 0.0
C281 C 0.14502 0.45515 0.46862 0.0
C282 C 0.19513 0.45442 0.50341 0.0
C283 C 0.14265 0.43174 0.50009 0.0
C284 C 0.21732 0.42224 0.51185 0.0
C285 C 0.27111 0.47122 0.53928 0.0
N286 N 0.16751 0.43145 0.51467 0.0
N287 N 0.24799 0.47443 0.52334 0.0
H288 H 0.78962 0.29951 0.88083 0.0
H289 H 0.71827 0.12705 0.83347 0.0
H290 H 0.83914 0.25498 0.86378 0.0
H291 H 0.66992 0.17133 0.79751 0.0
H292 H 0.76084 0.1743 0.86019 0.0
H293 H 0.74505 0.25465 0.85022 0.0
C294 C 0.79151 0.28085 0.86726 0.0
C295 C 0.81771 0.28043 0.87652 0.0
C296 C 0.74071 0.17366 0.84759 0.0
C297 C 0.76699 0.22896 0.84453 0.0
C298 C 0.71605 0.14652 0.83435 0.0
C299 C 0.69083 0.14549 0.81269 0.0
C300 C 0.73977 0.19973 0.83978 0.0
C301 C 0.68914 0.17136 0.81399 0.0
C302 C 0.76585 0.25494 0.85162 0.0
C303 C 0.8191 0.25588 0.85819 0.0
N304 N 0.71367 0.19775 0.82571 0.0
N305 N 0.79376 0.23058 0.84522 0.0
H306 H 0.48414 0.67753 0.13372 0.0
H307 H 0.56985 0.84957 0.20507 0.0
H308 H 0.57855 0.73093 0.15233 0.0
H309 H 0.47496 0.79616 0.20132 0.0
H310 H 0.57321 0.80734 0.17271 0.0
H311 H 0.47941 0.71988 0.16078 0.0
C312 C 0.50373 0.6977 0.14676 0.0
C313 C 0.5318 0.70103 0.1402 0.0
C314 C 0.55157 0.80495 0.17769 0.0
C315 C 0.52689 0.74982 0.16769 0.0
C316 C 0.54967 0.8294 0.19417 0.0
C317 C 0.52211 0.82587 0.20746 0.0
C318 C 0.52557 0.77721 0.17357 0.0
C319 C 0.49668 0.79944 0.19243 0.0
C320 C 0.50114 0.72218 0.16028 0.0
C321 C 0.55651 0.72764 0.15678 0.0
N322 N 0.49891 0.7756 0.17826 0.0
N323 N 0.55362 0.75138 0.16821 0.0
H324 H 0.66407 0.48623 0.56045 0.0
H325 H 0.83621 0.55182 0.52338 0.0
H326 H 0.7305 0.57875 0.55666 0.0
H327 H 0.77635 0.47701 0.42503 0.0
H328 H 0.79372 0.55069 0.56723 0.0
H329 H 0.70148 0.47415 0.52872 0.0
C330 C 0.68611 0.50399 0.5503 0.0
C331 C 0.69436 0.53353 0.56049 0.0
C332 C 0.78992 0.53386 0.53734 0.0
C333 C 0.73708 0.51992 0.52916 0.0
C334 C 0.81414 0.53404 0.51342 0.0
C335 C 0.80954 0.51496 0.46982 0.0
C336 C 0.7613 0.51421 0.5177 0.0
C337 C 0.78052 0.49237 0.45815 0.0
C338 C 0.70752 0.49707 0.53384 0.0
C339 C 0.72333 0.55575 0.54865 0.0
N340 N 0.75723 0.49311 0.48074 0.0
N341 N 0.74384 0.54848 0.53482 0.0
H342 H 0.24254 0.85064 0.83836 0.0
H343 H 0.16794 0.67899 0.90307 0.0
H344 H 0.2899 0.80433 0.81415 0.0
H345 H 0.12047 0.72456 0.87073 0.0
H346 H 0.21409 0.72353 0.87651 0.0
H347 H 0.20009 0.80497 0.87157 0.0
C348 C 0.24464 0.83122 0.84326 0.0
C349 C 0.26925 0.83087 0.82211 0.0
C350 C 0.19344 0.72351 0.87377 0.0
C351 C 0.22059 0.77841 0.85701 0.0
C352 C 0.167 0.69782 0.88713 0.0
C353 C 0.14052 0.69832 0.88929 0.0
C354 C 0.19302 0.74958 0.86275 0.0
C355 C 0.14051 0.72337 0.86946 0.0
C356 C 0.22003 0.80489 0.86024 0.0
C357 C 0.27096 0.80522 0.82942 0.0
N358 N 0.16652 0.74837 0.8586 0.0
N359 N 0.24644 0.77953 0.84445 0.0
H360 H 0.53058 0.09586 0.85691 0.0
H361 H 0.48254 0.11591 0.1058 0.0
H362 H 0.60699 0.10471 0.9404 0.0
H363 H 0.53599 0.0806 0.16461 0.0
H364 H 0.51141 0.13077 0.02055 0.0
H365 H 0.51508 0.10907 0.94117 0.0
C366 C 0.5449 0.10212 0.89243 0.0
C367 C 0.57033 0.09962 0.89147 0.0
C368 C 0.51716 0.1202 0.05242 0.0
C369 C 0.55221 0.11378 0.98927 0.0
C370 C 0.50101 0.11222 0.10151 0.0
C371 C 0.50674 0.09678 0.14204 0.0
C372 C 0.53915 0.11265 0.04409 0.0
C373 C 0.53071 0.09226 0.13415 0.0
C374 C 0.53597 0.10957 0.94087 0.0
C375 C 0.58755 0.10695 0.93914 0.0
N376 N 0.54577 0.09981 0.08597 0.0
N377 N 0.57774 0.11286 0.98647 0.0
H378 H 0.48556 0.62144 0.27349 0.0
H379 H 0.34698 0.4873 0.42077 0.0
H380 H 0.41731 0.54448 0.19101 0.0
H381 H 0.42728 0.55075 0.50185 0.0
H382 H 0.36335 0.51829 0.33813 0.0
H383 H 0.45529 0.60616 0.35691 0.0
C384 C 0.46352 0.60217 0.27215 0.0
C385 C 0.45376 0.58431 0.22529 0.0
C386 C 0.3769 0.52599 0.37465 0.0
C387 C 0.41944 0.56612 0.32082 0.0
C388 C 0.36734 0.5085 0.42205 0.0
C389 C 0.38575 0.51662 0.46817 0.0
C390 C 0.40505 0.55173 0.37359 0.0
C391 C 0.41238 0.54387 0.46717 0.0
C392 C 0.44642 0.59319 0.31998 0.0
C393 C 0.42545 0.559 0.22622 0.0
N394 N 0.42143 0.56022 0.42042 0.0
N395 N 0.40948 0.5504 0.27343 0.0
H396 H 0.88263 0.4471 0.84333 0.0
H397 H 0.85811 0.42278 0.53091 0.0
H398 H 0.85317 0.36194 0.76998 0.0
H399 H 0.85821 0.49547 0.61297 0.0
H400 H 0.84692 0.39606 0.61786 0.0
H401 H 0.86542 0.46175 0.76272 0.0
C402 C 0.87161 0.43114 0.81084 0.0
C403 C 0.86925 0.40327 0.81326 0.0
C404 C 0.84826 0.41737 0.61676 0.0
C405 C 0.85058 0.42029 0.71961 0.0
C406 C 0.85428 0.43247 0.56688 0.0
C407 C 0.8588 0.46123 0.56475 0.0
C408 C 0.84774 0.43158 0.66516 0.0
C409 C 0.85447 0.47316 0.61279 0.0
C410 C 0.86187 0.43953 0.76465 0.0
C411 C 0.85516 0.38354 0.76984 0.0
N412 N 0.84999 0.45865 0.66131 0.0
N413 N 0.84703 0.39269 0.72417 0.0
H414 H 0.3476 0.86679 0.93441 0.0
H415 H 0.48031 0.86439 0.09112 0.0
H416 H 0.42924 0.885 0.8584 0.0
H417 H 0.42031 0.88763 0.16536 0.0
H418 H 0.4504 0.85051 1.00702 0.0
H419 H 0.36299 0.85272 0.01885 0.0
C420 C 0.36807 0.86638 0.93466 0.0
C421 C 0.38716 0.87693 0.88951 0.0
C422 C 0.44321 0.85763 0.04243 0.0
C423 C 0.40507 0.86142 0.98577 0.0
C424 C 0.46007 0.86523 0.09054 0.0
C425 C 0.45261 0.87702 0.13508 0.0
C426 C 0.41864 0.8616 0.03933 0.0
C427 C 0.42664 0.87847 0.13185 0.0
C428 C 0.37701 0.85872 0.983 0.0
C429 C 0.41386 0.87681 0.89236 0.0
N430 N 0.41074 0.87116 0.08459 0.0
N431 N 0.42221 0.86956 0.93991 0.0
H432 H 0.47933 0.35011 0.26261 0.0
H433 H 0.53813 0.41795 0.50491 0.0
H434 H 0.54198 0.43486 0.19423 0.0
H435 H 0.61084 0.4864 0.41391 0.0
H436 H 0.52174 0.38714 0.42352 0.0
H437 H 0.51 0.36249 0.34504 0.0
C438 C 0.50014 0.37087 0.26418 0.0
C439 C 0.50798 0.39163 0.22189 0.0
C440 C 0.54206 0.40822 0.4212 0.0
C441 C 0.54242 0.40693 0.31738 0.0
C442 C 0.5516 0.4258 0.46828 0.0
C443 C 0.57602 0.45465 0.46628 0.0
C444 C 0.55673 0.41987 0.37118 0.0
C445 C 0.59214 0.46412 0.41739 0.0
C446 C 0.5174 0.37833 0.31192 0.0
C447 C 0.53502 0.41834 0.22622 0.0
N448 N 0.58177 0.44712 0.37147 0.0
N449 N 0.55091 0.42543 0.27341 0.0
H450 H 0.10137 0.61558 0.75822 0.0
H451 H 0.09923 0.48026 0.60337 0.0
H452 H 0.08314 0.53417 0.83549 0.0
H453 H 0.08633 0.54661 0.52533 0.0
H454 H 0.11299 0.50936 0.68831 0.0
H455 H 0.1155 0.59997 0.67429 0.0
C456 C 0.10177 0.5951 0.75838 0.0
C457 C 0.09128 0.57621 0.80386 0.0
C458 C 0.10818 0.51807 0.65202 0.0
C459 C 0.10667 0.55786 0.70784 0.0
C460 C 0.10074 0.50166 0.60335 0.0
C461 C 0.09178 0.51115 0.5573 0.0
C462 C 0.10679 0.5442 0.65438 0.0
C463 C 0.09327 0.53865 0.55993 0.0
C464 C 0.10943 0.586 0.71025 0.0
C465 C 0.09133 0.54945 0.80135 0.0
N466 N 0.10019 0.554 0.60779 0.0
N467 N 0.09849 0.5409 0.75398 0.0
H468 H 0.31338 0.91496 0.93195 0.0
H469 H 0.38922 0.06072 0.10629 0.0
H470 H 0.35529 0.00294 0.86447 0.0
H471 H 0.34883 0.97261 0.17299 0.0
H472 H 0.36195 0.04008 0.02077 0.0
H473 H 0.31042 0.93496 0.02074 0.0
C474 C 0.32053 0.93826 0.93511 0.0
C475 C 0.33486 0.95739 0.8911 0.0
C476 C 0.35822 0.0253 0.05473 0.0
C477 C 0.33271 0.98069 0.99285 0.0
C478 C 0.37354 0.03719 0.10384 0.0
C479 C 0.3715 0.01829 0.14636 0.0
C480 C 0.34102 -0.00566 0.04832 0.0
C481 C 0.3512 -0.01211 0.14078 0.0
C482 C 0.31928 0.94982 0.98608 0.0
C483 C 0.34426 -0.01249 0.89768 0.0
N484 N 0.33729 0.97679 0.09227 0.0
N485 N 0.34372 -0.00165 0.9479 0.0
H486 H 0.38766 0.32292 0.27228 0.0
H487 H 0.31353 0.40128 0.42077 0.0
H488 H 0.3512 0.37019 0.19069 0.0
H489 H 0.35118 0.35522 0.50276 0.0
H490 H 0.31058 0.37479 0.33628 0.0
H491 H 0.35872 0.31895 0.35395 0.0
C492 C 0.37235 0.33107 0.27064 0.0
C493 C 0.37179 0.34692 0.22493 0.0
C494 C 0.31844 0.36956 0.37322 0.0
C495 C 0.33962 0.34372 0.31867 0.0
C496 C 0.31964 0.38437 0.42174 0.0
C497 C 0.33278 0.38052 0.46856 0.0
C498 C 0.3308 0.35112 0.37169 0.0
C499 C 0.34098 0.35883 0.4673 0.0
C500 C 0.35611 0.32922 0.31754 0.0
C501 C 0.35217 0.35776 0.2253 0.0
N502 N 0.34059 0.34552 0.41934 0.0
N503 N 0.3374 0.35658 0.27182 0.0
H504 H 0.95991 0.35565 0.52504 0.0
H505 H -0.01026 0.36258 0.83975 0.0
H506 H 0.04665 0.39467 0.59715 0.0
H507 H 0.90315 0.32488 0.76753 0.0
H508 H 0.00953 0.35862 0.75176 0.0
H509 H 0.93835 0.3291 0.61033 0.0
C510 C 0.97453 0.35758 0.55822 0.0
C511 C 0.00508 0.37744 0.55423 0.0
C512 C -0.014 0.3502 0.75535 0.0
C513 C -0.01952 0.34817 0.65298 0.0
C514 C 0.97462 0.3521 0.80587 0.0
C515 C 0.94479 0.34414 0.81077 0.0
C516 C 0.96753 0.34087 0.70911 0.0
C517 C 0.92624 0.33111 0.76551 0.0
C518 C 0.96219 0.34265 0.60718 0.0
C519 C 0.02301 0.37944 0.59851 0.0
N520 N 0.93806 0.33065 0.71613 0.0
N521 N 0.01038 0.36563 0.6466 0.0
H522 H 0.61621 -0.00651 0.17302 0.0
H523 H 0.59417 0.9682 0.85668 0.0
H524 H 0.56316 0.90858 0.09629 0.0
H525 H 0.64072 0.05366 0.93407 0.0
H526 H 0.59868 0.94543 0.94063 0.0
H527 H 0.64106 0.01388 0.08588 0.0
C528 C 0.61089 0.97875 0.13835 0.0
C529 C 0.58748 0.94936 0.14169 0.0
C530 C 0.60884 0.96927 0.9389 0.0
C531 C 0.61482 0.97286 0.04111 0.0
C532 C 0.60654 0.98232 0.89072 0.0
C533 C 0.617 0.01283 0.88864 0.0
C534 C 0.62111 -0.01321 0.98579 0.0
C535 C 0.63251 0.03009 0.93397 0.0
C536 C 0.62479 -0.00948 0.08832 0.0
C537 C 0.58116 0.93132 0.09547 0.0
N538 N 0.63341 0.01674 0.98125 0.0
N539 N 0.59413 0.94357 0.04663 0.0
H540 H 0.64423 0.57466 0.42162 0.0
H541 H 0.56915 0.65096 0.26658 0.0
H542 H 0.59489 0.61017 0.49825 0.0
H543 H 0.61083 0.60769 0.1889 0.0
H544 H 0.59539 0.6539 0.35154 0.0
H545 H 0.64928 0.60368 0.33931 0.0
C546 C 0.6358 0.58975 0.42208 0.0
C547 C 0.619 0.58996 0.46643 0.0
C548 C 0.59973 0.64478 0.31536 0.0
C549 C 0.62363 0.62232 0.37208 0.0
C550 C 0.58506 0.64353 0.26659 0.0
C551 C 0.58767 0.62883 0.221 0.0
C552 C 0.61684 0.63099 0.31831 0.0
C553 C 0.60813 0.61905 0.22346 0.0
C554 C 0.6383 0.60604 0.37484 0.0
C555 C 0.60794 0.60939 0.46463 0.0
N556 N 0.62137 0.61962 0.27166 0.0
N557 N 0.60986 0.62428 0.41781 0.0
H558 H 0.05327 0.65204 0.76594 0.0
H559 H 0.90753 0.58073 0.59103 0.0
H560 H 0.96485 0.60817 0.83142 0.0
H561 H -0.00474 0.61156 0.52868 0.0
H562 H 0.92929 0.60954 0.67467 0.0
H563 H 0.03379 0.657 0.67792 0.0
C564 C 0.02998 0.64489 0.76261 0.0
C565 C 0.01054 0.62929 0.80549 0.0
C566 C 0.94381 0.61089 0.64186 0.0
C567 C -0.01207 0.63386 0.70481 0.0
C568 C 0.93135 0.59466 0.59391 0.0
C569 C 0.94969 0.59347 0.55354 0.0
C570 C 0.97472 0.62581 0.64916 0.0
C571 C -0.01959 0.61164 0.55942 0.0
C572 C 0.01874 0.64732 0.71212 0.0
C573 C -0.01953 0.62005 0.7989 0.0
N574 N -0.00802 0.62656 0.60685 0.0
N575 N 0.96995 0.62178 0.74906 0.0
H576 H 0.40482 0.97797 0.38255 0.0
H577 H 0.5493 -0.00544 0.37861 0.0
H578 H 0.49036 0.05626 0.36987 0.0
H579 H 0.46253 0.92131 0.34332 0.0
H580 H 0.52807 0.01057 0.45066 0.0
H581 H 0.42436 0.95875 0.45154 0.0
C582 C 0.42732 -0.00799 0.3968 0.0
C583 C 0.44664 0.01796 0.36838 0.0
C584 C 0.51386 -0.01005 0.42954 0.0
C585 C 0.4695 -0.00509 0.44219 0.0
C586 C 0.52602 0.98085 0.38832 0.0
C587 C 0.50742 0.95699 0.35456 0.0
C588 C 0.48288 0.97608 0.43398 0.0
C589 C 0.47751 0.94012 0.36815 0.0
C590 C 0.43859 0.98101 0.43628 0.0
C591 C 0.47511 0.03561 0.38953 0.0
N592 N 0.46601 0.95026 0.40626 0.0
N593 N 0.4862 0.02337 0.42425 0.0
H594 H 0.42374 0.50499 0.68072 0.0
H595 H 0.53483 0.4707 0.6926 0.0
H596 H 0.4171 0.41999 0.69387 0.0
H597 H 0.54152 0.5554 0.67378 0.0
H598 H 0.49945 0.45892 0.76645 0.0
H599 H 0.46185 0.52403 0.7511 0.0
C600 C 0.42913 0.48984 0.70071 0.0
C601 C 0.41799 0.46118 0.68049 0.0
C602 C 0.50964 0.48078 0.74828 0.0
C603 C 0.46405 0.48374 0.75545 0.0
C604 C 0.5302 0.48756 0.70631 0.0
C605 C 0.53974 0.51333 0.67555 0.0
C606 C 0.49695 0.49876 0.75483 0.0
C607 C 0.53319 0.53448 0.69487 0.0
C608 C 0.45117 0.50075 0.74079 0.0
C609 C 0.42578 0.44254 0.70755 0.0
N610 N 0.5115 0.52647 0.73268 0.0
N611 N 0.44903 0.45435 0.74272 0.0
H612 H -0.0046 0.42755 0.04372 0.0
H613 H 0.96254 0.54181 0.03297 0.0
H614 H 0.91121 0.42257 0.03903 0.0
H615 H 0.04614 0.54565 0.02254 0.0
H616 H 0.94794 0.50568 0.10661 0.0
H617 H 0.01243 0.46718 0.11095 0.0
C618 C -0.02021 0.43355 0.05938 0.0
C619 C 0.95231 0.42299 0.03379 0.0
C620 C 0.97022 0.51556 0.09056 0.0
C621 C 0.97247 0.46989 0.10599 0.0
C622 C -0.0214 0.53639 0.04853 0.0
C623 C 0.00543 0.54616 0.0211 0.0
C624 C -0.01225 0.50271 0.10092 0.0
C625 C 0.02535 0.53858 0.04284 0.0
C626 C -0.01043 0.45641 0.09769 0.0
C627 C 0.93279 0.43078 0.05669 0.0
N628 N 0.01583 0.51654 0.08045 0.0
N629 N 0.94352 0.45465 0.09026 0.0
H630 H 0.04642 0.49863 0.33029 0.0
H631 H 0.9042 0.4685 0.33301 0.0
H632 H 0.96701 0.41369 0.32338 0.0
H633 H -0.01578 0.55314 0.33136 0.0
H634 H 0.92333 0.45221 0.25862 0.0
H635 H 0.02743 0.51623 0.25793 0.0
C636 C 0.02581 0.483 0.31083 0.0
C637 C 0.00775 0.45515 0.33424 0.0
C638 C 0.93639 0.47492 0.27243 0.0
C639 C -0.01599 0.4764 0.25797 0.0
C640 C 0.92506 0.48434 0.31454 0.0
C641 C 0.9432 0.51167 0.33965 0.0
C642 C 0.9668 0.49199 0.26009 0.0
C643 C 0.97015 0.53124 0.31458 0.0
C644 C 0.01447 0.49321 0.27004 0.0
C645 C -0.01901 0.43598 0.30814 0.0
N646 N -0.01833 0.52075 0.2771 0.0
N647 N 0.9693 0.44723 0.27249 0.0
H648 H 0.41952 0.91919 0.67945 0.0
H649 H 0.54064 0.05484 0.66395 0.0
H650 H 0.42057 0.00077 0.65182 0.0
H651 H 0.53917 0.97222 0.66088 0.0
H652 H 0.50338 0.03697 0.59262 0.0
H653 H 0.45694 0.93283 0.60918 0.0
C654 C 0.42656 0.93937 0.65646 0.0
C655 C 0.4176 0.95926 0.67227 0.0
C656 C 0.512 0.02295 0.60533 0.0
C657 C 0.46338 0.97692 0.59747 0.0
C658 C 0.53394 0.03362 0.6456 0.0
C659 C 0.54174 0.01442 0.67015 0.0
C660 C 0.49632 -0.00768 0.59453 0.0
C661 C 0.53228 -0.01291 0.64498 0.0
C662 C 0.44837 0.94749 0.61656 0.0
C663 C 0.42763 0.98518 0.6416 0.0
N664 N 0.50917 0.97629 0.6095 0.0
N665 N 0.45083 -0.00615 0.60685 0.0
H666 H 0.45523 0.54048 0.02121 0.0
H667 H 0.48356 0.42744 0.99102 0.0
H668 H 0.53746 0.54334 0.99079 0.0
H669 H 0.40095 0.42322 0.02336 0.0
H670 H 0.49267 0.46171 0.91622 0.0
H671 H 0.43172 0.50276 0.9507 0.0
C672 C 0.46872 0.53421 0.99764 0.0
C673 C 0.49804 0.54425 1.01273 0.0
C674 C 0.47176 0.45231 0.93776 0.0
C675 C 0.47062 0.49887 0.93691 0.0
C676 C 0.46655 0.43247 0.98041 0.0
C677 C 0.44251 0.42426 0.01532 0.0
C678 C 0.45444 0.46591 0.93525 0.0
C679 C 0.42087 0.43088 0.99932 0.0
C680 C 0.45529 0.51249 0.95737 0.0
C681 C 0.51454 0.5356 0.98096 0.0
N682 N 0.42759 0.45199 0.96074 0.0
N683 N 0.50044 0.51276 0.94532 0.0
H684 H 0.34761 0.97911 0.67202 0.0
H685 H 0.36473 0.00026 0.36083 0.0
H686 H 0.2863 0.90843 0.56632 0.0
H687 H 0.37089 0.07126 0.46044 0.0
H688 H 0.33853 0.96565 0.43582 0.0
H689 H 0.35944 0.01398 0.59608 0.0
C690 C 0.33615 0.97104 0.63337 0.0
C691 C 0.31603 0.94082 0.62544 0.0
C692 C 0.34509 -0.01127 0.44054 0.0
C693 C 0.33004 0.98024 0.53867 0.0
C694 C 0.36003 0.00844 0.39793 0.0
C695 C 0.37003 0.03865 0.40448 0.0
C696 C 0.34092 -0.00048 0.49026 0.0
C697 C 0.3635 0.04813 0.45358 0.0
C698 C 0.3429 -0.0091 0.59019 0.0
C699 C 0.30193 0.93153 0.57434 0.0
N700 N 0.34992 0.02871 0.49516 0.0
N701 N 0.30973 0.95107 0.53243 0.0
H702 H 0.41294 0.37806 0.9374 0.0
H703 H 0.27889 0.36241 0.77222 0.0
H704 H 0.32716 0.3025 0.97159 0.0
H705 H 0.36352 0.38997 0.69718 0.0
H706 H 0.29314 0.34243 0.84963 0.0
H707 H 0.39288 0.38846 0.85607 0.0
C708 C 0.38958 0.36426 0.92867 0.0
C709 C 0.37139 0.34001 0.96192 0.0
C710 C 0.30824 0.35237 0.81557 0.0
C711 C 0.34859 0.35091 0.86773 0.0
C712 C 0.30018 0.3637 0.77134 0.0
C713 C 0.32046 0.3787 0.72888 0.0
C714 C 0.33684 0.35662 0.81743 0.0
C715 C 0.34753 0.37934 0.72963 0.0
C716 C 0.37834 0.36974 0.88159 0.0
C717 C 0.34163 0.32174 0.9472 0.0
N718 N 0.35526 0.36917 0.77394 0.0
N719 N 0.33094 0.32772 0.90111 0.0
H720 H 0.88956 0.29335 0.13371 0.0
H721 H 0.05222 0.36607 0.24994 0.0
H722 H 0.96421 0.35506 0.03592 0.0
H723 H -0.017 0.36858 0.34129 0.0
H724 H 0.01816 0.34402 0.17272 0.0
H725 H 0.9228 0.3032 0.21108 0.0
C726 C 0.91303 0.30834 0.1279 0.0
C727 C 0.92414 0.32355 0.07821 0.0
C728 C 0.01039 0.34883 0.21023 0.0
C729 C 0.96201 0.33438 0.16644 0.0
C730 C 0.0296 0.36113 0.25447 0.0
C731 C 0.02034 0.36916 0.30213 0.0
C732 C -0.01841 0.34378 0.21437 0.0
C733 C -0.00905 0.36269 0.30531 0.0
C734 C 0.93184 0.31401 0.17224 0.0
C735 C 0.95475 0.34294 0.07348 0.0
N736 N 0.97252 0.35034 0.26183 0.0
N737 N 0.97271 0.34788 0.11727 0.0
H738 H 0.59791 -0.00972 0.67535 0.0
H739 H 0.59373 0.96783 0.36342 0.0
H740 H 0.66914 0.05572 0.57574 0.0
H741 H 0.57102 0.89381 0.471 0.0
H742 H 0.61935 0.00149 0.43986 0.0
H743 H 0.58474 0.9544 0.60084 0.0
C744 C 0.61113 -0.00311 0.63837 0.0
C745 C 0.63456 0.026 0.63164 0.0
C746 C 0.60925 0.97786 0.44613 0.0
C747 C 0.61923 0.98555 0.54641 0.0
C748 C 0.59465 0.95868 0.40267 0.0
C749 C 0.58013 0.92797 0.41088 0.0
C750 C 0.60861 0.96616 0.49817 0.0
C751 C 0.58191 0.91731 0.46275 0.0
C752 C 0.60364 0.97648 0.59602 0.0
C753 C 0.65093 0.03349 0.58274 0.0
N754 N 0.59532 0.93639 0.5048 0.0
N755 N 0.64254 0.01356 0.54143 0.0
H756 H 0.57385 0.59501 0.9923 0.0
H757 H 0.66463 0.63553 0.71432 0.0
H758 H 0.61074 0.68258 0.92329 0.0
H759 H 0.58815 0.55053 0.7498 0.0
H760 H 0.6552 0.65522 0.79889 0.0
H761 H 0.59205 0.58043 0.91344 0.0
C762 C 0.58629 0.61135 0.96119 0.0
C763 C 0.58989 0.63972 0.96342 0.0
C764 C 0.64038 0.63239 0.78742 0.0
C765 C 0.61085 0.62327 0.87357 0.0
C766 C 0.64553 0.62132 0.73924 0.0
C767 C 0.62654 0.5917 0.72454 0.0
C768 C 0.61681 0.61327 0.8215 0.0
C769 C 0.60256 0.57378 0.75864 0.0
C770 C 0.59649 0.60296 0.91609 0.0
C771 C 0.60688 0.66024 0.92253 0.0
N772 N 0.59854 0.58477 0.80583 0.0
N773 N 0.61646 0.6515 0.87866 0.0
H774 H -0.01276 0.59752 0.03145 0.0
H775 H 0.93795 0.63907 0.30844 0.0
H776 H 0.04186 0.68477 0.09996 0.0
H777 H 0.93358 0.55595 0.27609 0.0
H778 H 0.96576 0.65872 0.22198 0.0
H779 H 0.95383 0.58469 0.10919 0.0
C780 C -0.00812 0.61422 0.06214 0.0
C781 C 0.01792 0.64189 0.06024 0.0
C782 C 0.95873 0.63628 0.23449 0.0
C783 C -0.02031 0.62742 0.14871 0.0
C784 C 0.94322 0.62522 0.28364 0.0
C785 C 0.93417 0.59615 0.29985 0.0
C786 C 0.96394 0.6176 0.20107 0.0
C787 C 0.94091 0.57876 0.26601 0.0
C788 C 0.97286 0.60684 0.10649 0.0
C789 C 0.02236 0.66292 0.10054 0.0
N790 N 0.95511 0.58966 0.21804 0.0
N791 N 0.00363 0.65509 0.14391 0.0
H792 H 0.47849 0.12549 0.47968 0.0
H793 H 0.62368 0.11857 0.5498 0.0
H794 H 0.52896 0.11007 0.35834 0.0
H795 H 0.56014 0.10949 0.67191 0.0
H796 H 0.5938 0.12414 0.47956 0.0
H797 H 0.51283 0.12829 0.5502 0.0
C798 C 0.49709 0.1231 0.46775 0.0
C799 C 0.50079 0.11728 0.41314 0.0
C800 C 0.58645 0.12109 0.52172 0.0
C801 C 0.54009 0.12037 0.49379 0.0
C802 C 0.60358 0.11811 0.56199 0.0
C803 C 0.5942 0.11326 0.61679 0.0
C804 C 0.55984 0.11953 0.53627 0.0
C805 C 0.56795 0.1128 0.63005 0.0
C806 C 0.51652 0.12448 0.50814 0.0
C807 C 0.52515 0.11423 0.40008 0.0
N808 N 0.55157 0.11576 0.58997 0.0
N809 N 0.54385 0.1157 0.44022 0.0
H810 H 0.35653 0.53979 0.72519 0.0
H811 H 0.49171 0.58127 0.92242 0.0
H812 H 0.38345 0.47757 0.77151 0.0
H813 H 0.43368 0.615 0.95732 0.0
H814 H 0.45762 0.54958 0.85125 0.0
H815 H 0.38926 0.57386 0.79725 0.0
C816 C 0.36964 0.53359 0.75013 0.0
C817 C 0.3686 0.50665 0.74134 0.0
C818 C 0.45215 0.56369 0.87476 0.0
C819 C 0.40531 0.54475 0.82266 0.0
C820 C 0.47137 0.58146 0.91558 0.0
C821 C 0.46454 0.59942 0.94714 0.0
C822 C 0.42631 0.56457 0.86437 0.0
C823 C 0.43904 0.60058 0.93463 0.0
C824 C 0.38804 0.5528 0.79111 0.0
C825 C 0.38503 0.49891 0.77544 0.0
N826 N 0.42058 0.58318 0.89401 0.0
N827 N 0.40304 0.51803 0.81416 0.0
H828 H 0.83369 0.34554 0.14206 0.0
H829 H 0.86375 0.50724 0.21185 0.0
H830 H 0.86151 0.41512 0.02199 0.0
H831 H 0.84496 0.44037 0.33393 0.0
H832 H 0.85757 0.47212 0.14047 0.0
H833 H 0.83155 0.37804 0.21075 0.0
C834 C 0.83898 0.36759 0.12995 0.0
C835 C 0.84826 0.37787 0.07644 0.0
C836 C 0.8546 0.46502 0.1828 0.0
C837 C 0.8461 0.41527 0.15516 0.0
C838 C 0.858 0.48502 0.22362 0.0
C839 C 0.85495 0.47669 0.27893 0.0
C840 C 0.84794 0.43641 0.19729 0.0
C841 C 0.84769 0.44771 0.29179 0.0
C842 C 0.83794 0.38619 0.16935 0.0
C843 C 0.8548 0.40657 0.06308 0.0
N844 N 0.84455 0.42861 0.25121 0.0
N845 N 0.85385 0.42441 0.10238 0.0
H846 H 0.41688 0.81415 0.38627 0.0
H847 H 0.37983 0.90776 0.58845 0.0
H848 H 0.48239 0.90247 0.43462 0.0
H849 H 0.35034 0.81708 0.62961 0.0
H850 H 0.4098 0.90526 0.51432 0.0
H851 H 0.38437 0.81322 0.4606 0.0
C852 C 0.42401 0.83353 0.4117 0.0
C853 C 0.45138 0.85921 0.40257 0.0
C854 C 0.39702 0.88599 0.53994 0.0
C855 C 0.41512 0.85816 0.48663 0.0
C856 C 0.38045 0.88758 0.58262 0.0
C857 C 0.36436 0.86322 0.61687 0.0
C858 C 0.39651 0.85941 0.5302 0.0
C859 C 0.36352 0.83663 0.60498 0.0
C860 C 0.4057 0.8329 0.45402 0.0
C861 C 0.46044 0.88327 0.43783 0.0
N862 N 0.3796 0.83538 0.56237 0.0
N863 N 0.44219 0.88237 0.47787 0.0
H864 H 0.55974 0.43844 0.68709 0.0
H865 H 0.52207 0.41092 1.00602 0.0
H866 H 0.61743 0.4964 0.81363 0.0
H867 H 0.47268 0.3462 0.88105 0.0
H868 H 0.55808 0.44208 0.93651 0.0
H869 H 0.52817 0.40366 0.75779 0.0
C870 C 0.56593 0.4437 0.72969 0.0
C871 C 0.59116 0.47043 0.74445 0.0
C872 C 0.53951 0.42091 0.92446 0.0
C873 C 0.55513 0.43086 0.82558 0.0
C874 C 0.51894 0.40313 0.96413 0.0
C875 C 0.49417 0.376 0.94935 0.0
C876 C 0.53521 0.41154 0.86959 0.0
C877 C 0.49138 0.36694 0.89446 0.0
C878 C 0.54792 0.42385 0.77005 0.0
C879 C 0.59822 0.47603 0.8003 0.0
N880 N 0.51146 0.38478 0.85656 0.0
N881 N 0.58015 0.45658 0.83881 0.0
H882 H 0.09219 0.46799 0.20822 0.0
H883 H 0.10786 0.62494 0.14832 0.0
H884 H 0.10429 0.53073 0.33446 0.0
H885 H 0.09901 0.56375 0.02137 0.0
H886 H 0.11083 0.59253 0.21631 0.0
H887 H 0.09816 0.50412 0.13898 0.0
C888 C 0.09639 0.48952 0.22138 0.0
C889 C 0.09749 0.49632 0.2772 0.0
C890 C 0.10843 0.58622 0.1736 0.0
C891 C 0.10429 0.53779 0.19802 0.0
C892 C 0.10689 0.6048 0.13464 0.0
C893 C 0.10261 0.59671 0.07919 0.0
C894 C 0.10572 0.55933 0.15706 0.0
C895 C 0.10161 0.57045 0.06388 0.0
C896 C 0.09973 0.51011 0.18177 0.0
C897 C 0.10295 0.5245 0.29186 0.0
N898 N 0.10282 0.55249 0.10272 0.0
N899 N 0.10595 0.54416 0.25245 0.0
loop_
_geom_bond_atom_site_label_1
_geom_bond_atom_site_label_2
_geom_bond_distance
_geom_bond_site_symmetry_2
_ccdc_geom_bond_type
O0 Mn1 2.163 . S
O0 C14 1.244 . S
Mn1 O0 2.163 . S
Mn1 O4 2.160 . S
Mn1 O5 2.221 . S
Mn1 O7 2.163 . S
Mn1 O9 2.160 . S
Mn1 O19 2.221 . S
O2 Mn3 2.087 . S
O2 C14 1.256 . S
Mn3 O2 2.087 . S
Mn3 O10 2.089 . S
Mn3 O19 2.290 . S
Mn3 O20 2.251 . S
O4 Mn1 2.160 . S
O4 C15 1.239 . S
O5 Mn1 2.221 . S
O5 Mn6 2.290 . S
O5 C16 1.278 . S
Mn6 O5 2.290 . S
Mn6 O8 2.089 . S
Mn6 O11 2.251 . S
Mn6 O12 2.087 . S
O7 Mn1 2.163 . S
O7 C17 1.244 . S
O8 Mn6 2.089 . S
O8 C15 1.256 . S
O9 Mn1 2.160 . S
O9 C18 1.239 . S
O10 Mn3 2.089 . S
O10 C18 1.256 . S
O11 Mn6 2.251 . S
O11 C16 1.241 . S
O12 Mn6 2.087 . S
O12 C17 1.256 . S
C13 O19 1.278 . S
C13 O20 1.241 . S
C14 O0 1.244 . S
C14 O2 1.256 . S
C15 O4 1.239 . S
C15 O8 1.256 . S
C16 O5 1.278 . S
C16 O11 1.241 . S
C17 O7 1.244 . S
C17 O12 1.256 . S
C18 O9 1.239 . S
C18 O10 1.256 . S
O19 Mn1 2.221 . S
O19 Mn3 2.290 . S
O19 C13 1.278 . S
O20 Mn3 2.251 . S
O20 C13 1.241 . S
O21 Mn22 2.163 . S
O21 C35 1.244 . S
Mn22 O21 2.163 . S
Mn22 O25 2.160 . S
Mn22 O26 2.221 . S
Mn22 O28 2.163 . S
Mn22 O30 2.160 . S
Mn22 O40 2.221 . S
O23 Mn24 2.087 . S
O23 C35 1.256 . S
Mn24 O23 2.087 . S
Mn24 O31 2.089 . S
Mn24 O40 2.290 . S
Mn24 O41 2.251 . S
O25 Mn22 2.160 . S
O25 C36 1.239 . S
O26 Mn22 2.221 . S
O26 Mn27 2.290 . S
O26 C37 1.278 . S
Mn27 O26 2.290 . S
Mn27 O29 2.089 . S
Mn27 O32 2.251 . S
Mn27 O33 2.087 . S
O28 Mn22 2.163 . S
O28 C38 1.244 . S
O29 Mn27 2.089 . S
O29 C36 1.256 . S
O30 Mn22 2.160 . S
O30 C39 1.239 . S
O31 Mn24 2.089 . S
O31 C39 1.256 . S
O32 Mn27 2.251 . S
O32 C37 1.241 . S
O33 Mn27 2.087 . S
O33 C38 1.256 . S
C34 O40 1.278 . S
C34 O41 1.241 . S
C35 O21 1.244 . S
C35 O23 1.256 . S
C36 O25 1.239 . S
C36 O29 1.256 . S
C37 O26 1.278 . S
C37 O32 1.241 . S
C38 O28 1.244 . S
C38 O33 1.256 . S
C39 O30 1.239 . S
C39 O31 1.256 . S
O40 Mn22 2.221 . S
O40 Mn24 2.290 . S
O40 C34 1.278 . S
O41 Mn24 2.251 . S
O41 C34 1.241 . S
O42 Mn43 2.163 . S
O42 C56 1.244 1_556 S
Mn43 O42 2.163 . S
Mn43 O46 2.160 . S
Mn43 O47 2.221 . S
Mn43 O49 2.163 . S
Mn43 O51 2.160 . S
Mn43 O61 2.221 . S
O44 Mn45 2.087 . S
O44 C56 1.256 . S
Mn45 O44 2.087 . S
Mn45 O52 2.089 . S
Mn45 O61 2.290 1_554 S
Mn45 O62 2.251 1_554 S
O46 Mn43 2.160 . S
O46 C57 1.239 . S
O47 Mn43 2.221 . S
O47 Mn48 2.290 . S
O47 C58 1.278 . S
Mn48 O47 2.290 . S
Mn48 O50 2.089 . S
Mn48 O53 2.251 . S
Mn48 O54 2.087 . S
O49 Mn43 2.163 . S
O49 C59 1.244 . S
O50 Mn48 2.089 . S
O50 C57 1.256 . S
O51 Mn43 2.160 . S
O51 C60 1.239 1_556 S
O52 Mn45 2.089 . S
O52 C60 1.256 . S
O53 Mn48 2.251 . S
O53 C58 1.241 . S
O54 Mn48 2.087 . S
O54 C59 1.256 . S
C55 O61 1.278 . S
C55 O62 1.241 . S
C56 O42 1.244 1_554 S
C56 O44 1.256 . S
C57 O46 1.239 . S
C57 O50 1.256 . S
C58 O47 1.278 . S
C58 O53 1.241 . S
C59 O49 1.244 . S
C59 O54 1.256 . S
C60 O51 1.239 1_554 S
C60 O52 1.256 . S
O61 Mn43 2.221 . S
O61 Mn45 2.290 1_556 S
O61 C55 1.278 . S
O62 Mn45 2.251 1_556 S
O62 C55 1.241 . S
O63 Mn64 2.163 . S
O63 C77 1.244 . S
Mn64 O63 2.163 . S
Mn64 O67 2.160 . S
Mn64 O68 2.221 . S
Mn64 O70 2.163 . S
Mn64 O72 2.160 . S
Mn64 O82 2.221 . S
O65 Mn66 2.087 . S
O65 C77 1.256 . S
Mn66 O65 2.087 . S
Mn66 O73 2.089 . S
Mn66 O82 2.290 . S
Mn66 O83 2.251 . S
O67 Mn64 2.160 . S
O67 C78 1.239 . S
O68 Mn64 2.221 . S
O68 Mn69 2.290 . S
O68 C79 1.278 . S
Mn69 O68 2.290 . S
Mn69 O71 2.089 . S
Mn69 O74 2.251 . S
Mn69 O75 2.087 . S
O70 Mn64 2.163 . S
O70 C80 1.244 . S
O71 Mn69 2.089 . S
O71 C78 1.256 . S
O72 Mn64 2.160 . S
O72 C81 1.239 . S
O73 Mn66 2.089 . S
O73 C81 1.256 . S
O74 Mn69 2.251 . S
O74 C79 1.241 . S
O75 Mn69 2.087 . S
O75 C80 1.256 . S
C76 O82 1.278 . S
C76 O83 1.241 . S
C77 O63 1.244 . S
C77 O65 1.256 . S
C78 O67 1.239 . S
C78 O71 1.256 . S
C79 O68 1.278 . S
C79 O74 1.241 . S
C80 O70 1.244 . S
C80 O75 1.256 . S
C81 O72 1.239 . S
C81 O73 1.256 . S
O82 Mn64 2.221 . S
O82 Mn66 2.290 . S
O82 C76 1.278 . S
O83 Mn66 2.251 . S
O83 C76 1.241 . S
O84 Mn85 2.163 . S
O84 C98 1.244 . S
Mn85 O84 2.163 . S
Mn85 O88 2.160 . S
Mn85 O89 2.221 . S
Mn85 O91 2.163 . S
Mn85 O93 2.160 . S
Mn85 O103 2.221 . S
O86 Mn87 2.087 . S
O86 C98 1.256 . S
Mn87 O86 2.087 . S
Mn87 O94 2.089 . S
Mn87 O103 2.290 . S
Mn87 O104 2.251 . S
O88 Mn85 2.160 . S
O88 C99 1.239 . S
O89 Mn85 2.221 . S
O89 Mn90 2.290 . S
O89 C100 1.278 . S
Mn90 O89 2.290 . S
Mn90 O92 2.089 . S
Mn90 O95 2.251 . S
Mn90 O96 2.087 . S
O91 Mn85 2.163 . S
O91 C101 1.244 . S
O92 Mn90 2.089 . S
O92 C99 1.256 . S
O93 Mn85 2.160 . S
O93 C102 1.239 . S
O94 Mn87 2.089 . S
O94 C102 1.256 . S
O95 Mn90 2.251 . S
O95 C100 1.241 . S
O96 Mn90 2.087 . S
O96 C101 1.256 . S
C97 O103 1.278 . S
C97 O104 1.241 . S
C98 O84 1.244 . S
C98 O86 1.256 . S
C99 O88 1.239 . S
C99 O92 1.256 . S
C100 O89 1.278 . S
C100 O95 1.241 . S
C101 O91 1.244 . S
C101 O96 1.256 . S
C102 O93 1.239 . S
C102 O94 1.256 . S
O103 Mn85 2.221 . S
O103 Mn87 2.290 . S
O103 C97 1.278 . S
O104 Mn87 2.251 . S
O104 C97 1.241 . S
O105 Mn106 2.163 . S
O105 C119 1.244 1_556 S
Mn106 O105 2.163 . S
Mn106 O109 2.160 . S
Mn106 O110 2.221 . S
Mn106 O112 2.163 . S
Mn106 O114 2.160 . S
Mn106 O124 2.221 . S
O107 Mn108 2.087 . S
O107 C119 1.256 . S
Mn108 O107 2.087 . S
Mn108 O115 2.089 . S
Mn108 O124 2.290 1_554 S
Mn108 O125 2.251 1_554 S
O109 Mn106 2.160 . S
O109 C120 1.239 . S
O110 Mn106 2.221 . S
O110 Mn111 2.290 . S
O110 C121 1.278 . S
Mn111 O110 2.290 . S
Mn111 O113 2.089 . S
Mn111 O116 2.251 . S
Mn111 O117 2.087 . S
O112 Mn106 2.163 . S
O112 C122 1.244 . S
O113 Mn111 2.089 . S
O113 C120 1.256 . S
O114 Mn106 2.160 . S
O114 C123 1.239 1_556 S
O115 Mn108 2.089 . S
O115 C123 1.256 . S
O116 Mn111 2.251 . S
O116 C121 1.241 . S
O117 Mn111 2.087 . S
O117 C122 1.256 . S
C118 O124 1.278 . S
C118 O125 1.241 . S
C119 O105 1.244 1_554 S
C119 O107 1.256 . S
C120 O109 1.239 . S
C120 O113 1.256 . S
C121 O110 1.278 . S
C121 O116 1.241 . S
C122 O112 1.244 . S
C122 O117 1.256 . S
C123 O114 1.239 1_554 S
C123 O115 1.256 . S
O124 Mn106 2.221 . S
O124 Mn108 2.290 1_556 S
O124 C118 1.278 . S
O125 Mn108 2.251 1_556 S
O125 C118 1.241 . S
O126 Mn127 2.163 . S
O126 C140 1.244 . S
Mn127 O126 2.163 . S
Mn127 O130 2.160 . S
Mn127 O131 2.221 . S
Mn127 O133 2.163 . S
Mn127 O135 2.160 . S
Mn127 O145 2.221 . S
O128 Mn129 2.087 . S
O128 C140 1.256 . S
Mn129 O128 2.087 . S
Mn129 O136 2.089 . S
Mn129 O145 2.290 . S
Mn129 O146 2.251 . S
O130 Mn127 2.160 . S
O130 C141 1.239 . S
O131 Mn127 2.221 . S
O131 Mn132 2.290 . S
O131 C142 1.278 . S
Mn132 O131 2.290 . S
Mn132 O134 2.089 . S
Mn132 O137 2.251 . S
Mn132 O138 2.087 . S
O133 Mn127 2.163 . S
O133 C143 1.244 . S
O134 Mn132 2.089 . S
O134 C141 1.256 . S
O135 Mn127 2.160 . S
O135 C144 1.239 . S
O136 Mn129 2.089 . S
O136 C144 1.256 . S
O137 Mn132 2.251 . S
O137 C142 1.241 . S
O138 Mn132 2.087 . S
O138 C143 1.256 . S
C139 O145 1.278 . S
C139 O146 1.241 . S
C140 O126 1.244 . S
C140 O128 1.256 . S
C141 O130 1.239 . S
C141 O134 1.256 . S
C142 O131 1.278 . S
C142 O137 1.241 . S
C143 O133 1.244 . S
C143 O138 1.256 . S
C144 O135 1.239 . S
C144 O136 1.256 . S
O145 Mn127 2.221 . S
O145 Mn129 2.290 . S
O145 C139 1.278 . S
O146 Mn129 2.251 . S
O146 C139 1.241 . S
O147 Mn148 2.163 . S
O147 C161 1.244 . S
Mn148 O147 2.163 . S
Mn148 O151 2.160 . S
Mn148 O152 2.221 . S
Mn148 O154 2.163 . S
Mn148 O156 2.160 . S
Mn148 O166 2.221 . S
O149 Mn150 2.087 . S
O149 C161 1.256 . S
Mn150 O149 2.087 . S
Mn150 O157 2.089 . S
Mn150 O166 2.290 . S
Mn150 O167 2.251 . S
O151 Mn148 2.160 . S
O151 C162 1.239 . S
O152 Mn148 2.221 . S
O152 Mn153 2.290 . S
O152 C163 1.278 . S
Mn153 O152 2.290 . S
Mn153 O155 2.089 . S
Mn153 O158 2.251 . S
Mn153 O159 2.087 . S
O154 Mn148 2.163 . S
O154 C164 1.244 . S
O155 Mn153 2.089 . S
O155 C162 1.256 . S
O156 Mn148 2.160 . S
O156 C165 1.239 . S
O157 Mn150 2.089 . S
O157 C165 1.256 . S
O158 Mn153 2.251 . S
O158 C163 1.241 . S
O159 Mn153 2.087 . S
O159 C164 1.256 . S
C160 O166 1.278 . S
C160 O167 1.241 . S
C161 O147 1.244 . S
C161 O149 1.256 . S
C162 O151 1.239 . S
C162 O155 1.256 . S
C163 O152 1.278 . S
C163 O158 1.241 . S
C164 O154 1.244 . S
C164 O159 1.256 . S
C165 O156 1.239 . S
C165 O157 1.256 . S
O166 Mn148 2.221 . S
O166 Mn150 2.290 . S
O166 C160 1.278 . S
O167 Mn150 2.251 . S
O167 C160 1.241 . S
O168 Mn169 2.163 . S
O168 C182 1.244 1_554 S
Mn169 O168 2.163 . S
Mn169 O172 2.160 . S
Mn169 O173 2.221 . S
Mn169 O175 2.163 . S
Mn169 O177 2.160 . S
Mn169 O187 2.221 . S
O170 Mn171 2.087 . S
O170 C182 1.256 . S
Mn171 O170 2.087 . S
Mn171 O178 2.089 . S
Mn171 O187 2.290 1_556 S
Mn171 O188 2.251 1_556 S
O172 Mn169 2.160 . S
O172 C183 1.239 . S
O173 Mn169 2.221 . S
O173 Mn174 2.290 . S
O173 C184 1.278 . S
Mn174 O173 2.290 . S
Mn174 O176 2.089 . S
Mn174 O179 2.251 . S
Mn174 O180 2.087 . S
O175 Mn169 2.163 . S
O175 C185 1.244 . S
O176 Mn174 2.089 . S
O176 C183 1.256 . S
O177 Mn169 2.160 . S
O177 C186 1.239 1_554 S
O178 Mn171 2.089 . S
O178 C186 1.256 . S
O179 Mn174 2.251 . S
O179 C184 1.241 . S
O180 Mn174 2.087 . S
O180 C185 1.256 . S
C181 O187 1.278 . S
C181 O188 1.241 . S
C182 O168 1.244 1_556 S
C182 O170 1.256 . S
C183 O172 1.239 . S
C183 O176 1.256 . S
C184 O173 1.278 . S
C184 O179 1.241 . S
C185 O175 1.244 . S
C185 O180 1.256 . S
C186 O177 1.239 1_556 S
C186 O178 1.256 . S
O187 Mn169 2.221 . S
O187 Mn171 2.290 1_554 S
O187 C181 1.278 . S
O188 Mn171 2.251 1_554 S
O188 C181 1.241 . S
O189 Mn190 2.163 . S
O189 C203 1.244 . S
Mn190 O189 2.163 . S
Mn190 O193 2.160 . S
Mn190 O194 2.221 . S
Mn190 O196 2.163 . S
Mn190 O198 2.160 . S
Mn190 O208 2.221 . S
O191 Mn192 2.087 . S
O191 C203 1.256 . S
Mn192 O191 2.087 . S
Mn192 O199 2.089 . S
Mn192 O208 2.290 . S
Mn192 O209 2.251 . S
O193 Mn190 2.160 . S
O193 C204 1.239 . S
O194 Mn190 2.221 . S
O194 Mn195 2.290 . S
O194 C205 1.278 . S
Mn195 O194 2.290 . S
Mn195 O197 2.089 . S
Mn195 O200 2.251 . S
Mn195 O201 2.087 . S
O196 Mn190 2.163 . S
O196 C206 1.244 . S
O197 Mn195 2.089 . S
O197 C204 1.256 . S
O198 Mn190 2.160 . S
O198 C207 1.239 . S
O199 Mn192 2.089 . S
O199 C207 1.256 . S
O200 Mn195 2.251 . S
O200 C205 1.241 . S
O201 Mn195 2.087 . S
O201 C206 1.256 . S
C202 O208 1.278 . S
C202 O209 1.241 . S
C203 O189 1.244 . S
C203 O191 1.256 . S
C204 O193 1.239 . S
C204 O197 1.256 . S
C205 O194 1.278 . S
C205 O200 1.241 . S
C206 O196 1.244 . S
C206 O201 1.256 . S
C207 O198 1.239 . S
C207 O199 1.256 . S
O208 Mn190 2.221 . S
O208 Mn192 2.290 . S
O208 C202 1.278 . S
O209 Mn192 2.251 . S
O209 C202 1.241 . S
O210 Mn211 2.163 . S
O210 C224 1.244 . S
Mn211 O210 2.163 . S
Mn211 O214 2.160 . S
Mn211 O215 2.221 . S
Mn211 O217 2.163 . S
Mn211 O219 2.160 . S
Mn211 O229 2.221 . S
O212 Mn213 2.087 . S
O212 C224 1.256 . S
Mn213 O212 2.087 . S
Mn213 O220 2.089 . S
Mn213 O229 2.290 . S
Mn213 O230 2.251 . S
O214 Mn211 2.160 . S
O214 C225 1.239 . S
O215 Mn211 2.221 . S
O215 Mn216 2.290 . S
O215 C226 1.278 . S
Mn216 O215 2.290 . S
Mn216 O218 2.089 . S
Mn216 O221 2.251 . S
Mn216 O222 2.087 . S
O217 Mn211 2.163 . S
O217 C227 1.244 . S
O218 Mn216 2.089 . S
O218 C225 1.256 . S
O219 Mn211 2.160 . S
O219 C228 1.239 . S
O220 Mn213 2.089 . S
O220 C228 1.256 . S
O221 Mn216 2.251 . S
O221 C226 1.241 . S
O222 Mn216 2.087 . S
O222 C227 1.256 . S
C223 O229 1.278 . S
C223 O230 1.241 . S
C224 O210 1.244 . S
C224 O212 1.256 . S
C225 O214 1.239 . S
C225 O218 1.256 . S
C226 O215 1.278 . S
C226 O221 1.241 . S
C227 O217 1.244 . S
C227 O222 1.256 . S
C228 O219 1.239 . S
C228 O220 1.256 . S
O229 Mn211 2.221 . S
O229 Mn213 2.290 . S
O229 C223 1.278 . S
O230 Mn213 2.251 . S
O230 C223 1.241 . S
O231 Mn232 2.163 . S
O231 C245 1.244 1_554 S
Mn232 O231 2.163 . S
Mn232 O235 2.160 . S
Mn232 O236 2.221 . S
Mn232 O238 2.163 . S
Mn232 O240 2.160 . S
Mn232 O250 2.221 . S
O233 Mn234 2.087 . S
O233 C245 1.256 . S
Mn234 O233 2.087 . S
Mn234 O241 2.089 . S
Mn234 O250 2.290 1_556 S
Mn234 O251 2.251 1_556 S
O235 Mn232 2.160 . S
O235 C246 1.239 . S
O236 Mn232 2.221 . S
O236 Mn237 2.290 . S
O236 C247 1.278 . S
Mn237 O236 2.290 . S
Mn237 O239 2.089 . S
Mn237 O242 2.251 . S
Mn237 O243 2.087 . S
O238 Mn232 2.163 . S
O238 C248 1.244 . S
O239 Mn237 2.089 . S
O239 C246 1.256 . S
O240 Mn232 2.160 . S
O240 C249 1.239 1_554 S
O241 Mn234 2.089 . S
O241 C249 1.256 . S
O242 Mn237 2.251 . S
O242 C247 1.241 . S
O243 Mn237 2.087 . S
O243 C248 1.256 . S
C244 O250 1.278 . S
C244 O251 1.241 . S
C245 O231 1.244 1_556 S
C245 O233 1.256 . S
C246 O235 1.239 . S
C246 O239 1.256 . S
C247 O236 1.278 . S
C247 O242 1.241 . S
C248 O238 1.244 . S
C248 O243 1.256 . S
C249 O240 1.239 1_556 S
C249 O241 1.256 . S
O250 Mn232 2.221 . S
O250 Mn234 2.290 1_554 S
O250 C244 1.278 . S
O251 Mn234 2.251 1_554 S
O251 C244 1.241 . S
H252 C258 0.930 . S
H253 C262 0.930 . S
H254 C267 0.929 . S
H255 C265 0.929 . S
H256 C260 0.929 . S
H257 C266 0.929 . S
C258 H252 0.930 . S
C258 C259 1.367 . S
C258 C266 1.378 . S
C259 C258 1.367 . S
C259 C267 1.433 . S
C260 H256 0.929 . S
C260 C262 1.378 . S
C260 C264 1.350 . S
C261 C264 1.463 . S
C261 C266 1.350 . S
C261 N269 1.427 . S
C262 H253 0.930 . S
C262 C260 1.378 . S
C262 C263 1.367 . S
C263 C262 1.367 . S
C263 C265 1.433 . S
C264 C260 1.350 . S
C264 C261 1.463 . S
C264 N268 1.427 . S
C265 H255 0.929 . S
C265 C263 1.433 . S
C265 N268 1.384 . S
C266 H257 0.929 . S
C266 C258 1.378 . S
C266 C261 1.350 . S
C267 H254 0.929 . S
C267 C259 1.433 . S
C267 N269 1.384 . S
N268 C264 1.427 . S
N268 C265 1.384 . S
N269 C261 1.427 . S
N269 C267 1.384 . S
H270 C276 0.930 . S
H271 C280 0.930 . S
H272 C285 0.929 . S
H273 C283 0.929 . S
H274 C278 0.929 . S
H275 C284 0.929 . S
C276 H270 0.930 . S
C276 C277 1.367 . S
C276 C284 1.378 . S
C277 C276 1.367 . S
C277 C285 1.433 . S
C278 H274 0.929 . S
C278 C280 1.378 . S
C278 C282 1.350 . S
C279 C282 1.463 . S
C279 C284 1.350 . S
C279 N287 1.427 . S
C280 H271 0.930 . S
C280 C278 1.378 . S
C280 C281 1.367 . S
C281 C280 1.367 . S
C281 C283 1.433 . S
C282 C278 1.350 . S
C282 C279 1.463 . S
C282 N286 1.427 . S
C283 H273 0.929 . S
C283 C281 1.433 . S
C283 N286 1.384 . S
C284 H275 0.929 . S
C284 C276 1.378 . S
C284 C279 1.350 . S
C285 H272 0.929 . S
C285 C277 1.433 . S
C285 N287 1.384 . S
N286 C282 1.427 . S
N286 C283 1.384 . S
N287 C279 1.427 . S
N287 C285 1.384 . S
H288 C294 0.930 . S
H289 C298 0.930 . S
H290 C303 0.929 . S
H291 C301 0.929 . S
H292 C296 0.929 . S
H293 C302 0.929 . S
C294 H288 0.930 . S
C294 C295 1.367 . S
C294 C302 1.378 . S
C295 C294 1.367 . S
C295 C303 1.433 . S
C296 H292 0.929 . S
C296 C298 1.378 . S
C296 C300 1.350 . S
C297 C300 1.463 . S
C297 C302 1.350 . S
C297 N305 1.427 . S
C298 H289 0.930 . S
C298 C296 1.378 . S
C298 C299 1.367 . S
C299 C298 1.367 . S
C299 C301 1.433 . S
C300 C296 1.350 . S
C300 C297 1.463 . S
C300 N304 1.427 . S
C301 H291 0.929 . S
C301 C299 1.433 . S
C301 N304 1.384 . S
C302 H293 0.929 . S
C302 C294 1.378 . S
C302 C297 1.350 . S
C303 H290 0.929 . S
C303 C295 1.433 . S
C303 N305 1.384 . S
N304 C300 1.427 . S
N304 C301 1.384 . S
N305 C297 1.427 . S
N305 C303 1.384 . S
H306 C312 0.930 . S
H307 C316 0.930 . S
H308 C321 0.929 . S
H309 C319 0.929 . S
H310 C314 0.929 . S
H311 C320 0.929 . S
C312 H306 0.930 . S
C312 C313 1.367 . S
C312 C320 1.378 . S
C313 C312 1.367 . S
C313 C321 1.433 . S
C314 H310 0.929 . S
C314 C316 1.378 . S
C314 C318 1.350 . S
C315 C318 1.463 . S
C315 C320 1.350 . S
C315 N323 1.427 . S
C316 H307 0.930 . S
C316 C314 1.378 . S
C316 C317 1.367 . S
C317 C316 1.367 . S
C317 C319 1.433 . S
C318 C314 1.350 . S
C318 C315 1.463 . S
C318 N322 1.427 . S
C319 H309 0.929 . S
C319 C317 1.433 . S
C319 N322 1.384 . S
C320 H311 0.929 . S
C320 C312 1.378 . S
C320 C315 1.350 . S
C321 H308 0.929 . S
C321 C313 1.433 . S
C321 N323 1.384 . S
N322 C318 1.427 . S
N322 C319 1.384 . S
N323 C315 1.427 . S
N323 C321 1.384 . S
H324 C330 0.930 . S
H325 C334 0.930 . S
H326 C339 0.929 . S
H327 C337 0.929 . S
H328 C332 0.929 . S
H329 C338 0.929 . S
C330 H324 0.930 . S
C330 C331 1.367 . S
C330 C338 1.378 . S
C331 C330 1.367 . S
C331 C339 1.433 . S
C332 H328 0.929 . S
C332 C334 1.378 . S
C332 C336 1.350 . S
C333 C336 1.463 . S
C333 C338 1.350 . S
C333 N341 1.427 . S
C334 H325 0.930 . S
C334 C332 1.378 . S
C334 C335 1.367 . S
C335 C334 1.367 . S
C335 C337 1.433 . S
C336 C332 1.350 . S
C336 C333 1.463 . S
C336 N340 1.427 . S
C337 H327 0.929 . S
C337 C335 1.433 . S
C337 N340 1.384 . S
C338 H329 0.929 . S
C338 C330 1.378 . S
C338 C333 1.350 . S
C339 H326 0.929 . S
C339 C331 1.433 . S
C339 N341 1.384 . S
N340 C336 1.427 . S
N340 C337 1.384 . S
N341 C333 1.427 . S
N341 C339 1.384 . S
H342 C348 0.930 . S
H343 C352 0.930 . S
H344 C357 0.929 . S
H345 C355 0.929 . S
H346 C350 0.929 . S
H347 C356 0.929 . S
C348 H342 0.930 . S
C348 C349 1.367 . S
C348 C356 1.378 . S
C349 C348 1.367 . S
C349 C357 1.433 . S
C350 H346 0.929 . S
C350 C352 1.378 . S
C350 C354 1.350 . S
C351 C354 1.463 . S
C351 C356 1.350 . S
C351 N359 1.427 . S
C352 H343 0.930 . S
C352 C350 1.378 . S
C352 C353 1.367 . S
C353 C352 1.367 . S
C353 C355 1.433 . S
C354 C350 1.350 . S
C354 C351 1.463 . S
C354 N358 1.427 . S
C355 H345 0.929 . S
C355 C353 1.433 . S
C355 N358 1.384 . S
C356 H347 0.929 . S
C356 C348 1.378 . S
C356 C351 1.350 . S
C357 H344 0.929 . S
C357 C349 1.433 . S
C357 N359 1.384 . S
N358 C354 1.427 . S
N358 C355 1.384 . S
N359 C351 1.427 . S
N359 C357 1.384 . S
H360 C366 0.930 . S
H361 C370 0.930 . S
H362 C375 0.929 . S
H363 C373 0.929 . S
H364 C368 0.929 . S
H365 C374 0.929 . S
C366 H360 0.930 . S
C366 C367 1.367 . S
C366 C374 1.378 . S
C367 C366 1.367 . S
C367 C375 1.433 . S
C368 H364 0.929 . S
C368 C370 1.378 . S
C368 C372 1.350 . S
C369 C372 1.463 1_556 S
C369 C374 1.350 . S
C369 N377 1.427 . S
C370 H361 0.930 . S
C370 C368 1.378 . S
C370 C371 1.367 . S
C371 C370 1.367 . S
C371 C373 1.433 . S
C372 C368 1.350 . S
C372 C369 1.463 1_554 S
C372 N376 1.427 . S
C373 H363 0.929 . S
C373 C371 1.433 . S
C373 N376 1.384 . S
C374 H365 0.929 . S
C374 C366 1.378 . S
C374 C369 1.350 . S
C375 H362 0.929 . S
C375 C367 1.433 . S
C375 N377 1.384 . S
N376 C372 1.427 . S
N376 C373 1.384 . S
N377 C369 1.427 . S
N377 C375 1.384 . S
H378 C384 0.930 . S
H379 C388 0.930 . S
H380 C393 0.929 . S
H381 C391 0.929 . S
H382 C386 0.929 . S
H383 C392 0.929 . S
C384 H378 0.930 . S
C384 C385 1.367 . S
C384 C392 1.378 . S
C385 C384 1.367 . S
C385 C393 1.433 . S
C386 H382 0.929 . S
C386 C388 1.378 . S
C386 C390 1.350 . S
C387 C390 1.463 . S
C387 C392 1.350 . S
C387 N395 1.427 . S
C388 H379 0.930 . S
C388 C386 1.378 . S
C388 C389 1.367 . S
C389 C388 1.367 . S
C389 C391 1.433 . S
C390 C386 1.350 . S
C390 C387 1.463 . S
C390 N394 1.427 . S
C391 H381 0.929 . S
C391 C389 1.433 . S
C391 N394 1.384 . S
C392 H383 0.929 . S
C392 C384 1.378 . S
C392 C387 1.350 . S
C393 H380 0.929 . S
C393 C385 1.433 . S
C393 N395 1.384 . S
N394 C390 1.427 . S
N394 C391 1.384 . S
N395 C387 1.427 . S
N395 C393 1.384 . S
H396 C402 0.930 . S
H397 C406 0.930 . S
H398 C411 0.929 . S
H399 C409 0.929 . S
H400 C404 0.929 . S
H401 C410 0.929 . S
C402 H396 0.930 . S
C402 C403 1.367 . S
C402 C410 1.378 . S
C403 C402 1.367 . S
C403 C411 1.433 . S
C404 H400 0.929 . S
C404 C406 1.378 . S
C404 C408 1.350 . S
C405 C408 1.463 . S
C405 C410 1.350 . S
C405 N413 1.427 . S
C406 H397 0.930 . S
C406 C404 1.378 . S
C406 C407 1.367 . S
C407 C406 1.367 . S
C407 C409 1.433 . S
C408 C404 1.350 . S
C408 C405 1.463 . S
C408 N412 1.427 . S
C409 H399 0.929 . S
C409 C407 1.433 . S
C409 N412 1.384 . S
C410 H401 0.929 . S
C410 C402 1.378 . S
C410 C405 1.350 . S
C411 H398 0.929 . S
C411 C403 1.433 . S
C411 N413 1.384 . S
N412 C408 1.427 . S
N412 C409 1.384 . S
N413 C405 1.427 . S
N413 C411 1.384 . S
H414 C420 0.930 . S
H415 C424 0.930 . S
H416 C429 0.929 . S
H417 C427 0.929 . S
H418 C422 0.929 . S
H419 C428 0.929 . S
C420 H414 0.930 . S
C420 C421 1.367 . S
C420 C428 1.378 . S
C421 C420 1.367 . S
C421 C429 1.433 . S
C422 H418 0.929 . S
C422 C424 1.378 . S
C422 C426 1.350 . S
C423 C426 1.463 1_556 S
C423 C428 1.350 . S
C423 N431 1.427 . S
C424 H415 0.930 . S
C424 C422 1.378 . S
C424 C425 1.367 . S
C425 C424 1.367 . S
C425 C427 1.433 . S
C426 C422 1.350 . S
C426 C423 1.463 1_554 S
C426 N430 1.427 . S
C427 H417 0.929 . S
C427 C425 1.433 . S
C427 N430 1.384 . S
C428 H419 0.929 . S
C428 C420 1.378 . S
C428 C423 1.350 . S
C429 H416 0.929 . S
C429 C421 1.433 . S
C429 N431 1.384 . S
N430 C426 1.427 . S
N430 C427 1.384 . S
N431 C423 1.427 . S
N431 C429 1.384 . S
H432 C438 0.930 . S
H433 C442 0.930 . S
H434 C447 0.929 . S
H435 C445 0.929 . S
H436 C440 0.929 . S
H437 C446 0.929 . S
C438 H432 0.930 . S
C438 C439 1.367 . S
C438 C446 1.378 . S
C439 C438 1.367 . S
C439 C447 1.433 . S
C440 H436 0.929 . S
C440 C442 1.378 . S
C440 C444 1.350 . S
C441 C444 1.463 . S
C441 C446 1.350 . S
C441 N449 1.427 . S
C442 H433 0.930 . S
C442 C440 1.378 . S
C442 C443 1.367 . S
C443 C442 1.367 . S
C443 C445 1.433 . S
C444 C440 1.350 . S
C444 C441 1.463 . S
C444 N448 1.427 . S
C445 H435 0.929 . S
C445 C443 1.433 . S
C445 N448 1.384 . S
C446 H437 0.929 . S
C446 C438 1.378 . S
C446 C441 1.350 . S
C447 H434 0.929 . S
C447 C439 1.433 . S
C447 N449 1.384 . S
N448 C444 1.427 . S
N448 C445 1.384 . S
N449 C441 1.427 . S
N449 C447 1.384 . S
H450 C456 0.930 . S
H451 C460 0.930 . S
H452 C465 0.929 . S
H453 C463 0.929 . S
H454 C458 0.929 . S
H455 C464 0.929 . S
C456 H450 0.930 . S
C456 C457 1.367 . S
C456 C464 1.378 . S
C457 C456 1.367 . S
C457 C465 1.433 . S
C458 H454 0.929 . S
C458 C460 1.378 . S
C458 C462 1.350 . S
C459 C462 1.463 . S
C459 C464 1.350 . S
C459 N467 1.427 . S
C460 H451 0.930 . S
C460 C458 1.378 . S
C460 C461 1.367 . S
C461 C460 1.367 . S
C461 C463 1.433 . S
C462 C458 1.350 . S
C462 C459 1.463 . S
C462 N466 1.427 . S
C463 H453 0.929 . S
C463 C461 1.433 . S
C463 N466 1.384 . S
C464 H455 0.929 . S
C464 C456 1.378 . S
C464 C459 1.350 . S
C465 H452 0.929 . S
C465 C457 1.433 . S
C465 N467 1.384 . S
N466 C462 1.427 . S
N466 C463 1.384 . S
N467 C459 1.427 . S
N467 C465 1.384 . S
H468 C474 0.930 . S
H469 C478 0.930 . S
H470 C483 0.929 . S
H471 C481 0.929 . S
H472 C476 0.929 1_556 S
H473 C482 0.929 1_554 S
C474 H468 0.930 . S
C474 C475 1.367 . S
C474 C482 1.378 . S
C475 C474 1.367 . S
C475 C483 1.433 . S
C476 H472 0.929 1_554 S
C476 C478 1.378 . S
C476 C480 1.350 . S
C477 C480 1.463 1_566 S
C477 C482 1.350 . S
C477 N485 1.437 . S
C478 H469 0.930 . S
C478 C476 1.378 . S
C478 C479 1.367 . S
C479 C478 1.367 . S
C479 C481 1.433 . S
C480 C476 1.350 . S
C480 C477 1.463 1_544 S
C480 N484 1.437 . S
C481 H471 0.929 . S
C481 C479 1.433 . S
C481 N484 1.392 . S
C482 H473 0.929 1_556 S
C482 C474 1.378 . S
C482 C477 1.350 . S
C483 H470 0.929 . S
C483 C475 1.433 . S
C483 N485 1.393 . S
N484 C480 1.437 . S
N484 C481 1.392 . S
N485 C477 1.437 . S
N485 C483 1.393 . S
H486 C492 0.930 . S
H487 C496 0.930 . S
H488 C501 0.929 . S
H489 C499 0.929 . S
H490 C494 0.929 . S
H491 C500 0.929 . S
C492 H486 0.930 . S
C492 C493 1.367 . S
C492 C500 1.378 . S
C493 C492 1.367 . S
C493 C501 1.433 . S
C494 H490 0.929 . S
C494 C496 1.378 . S
C494 C498 1.350 . S
C495 C498 1.463 . S
C495 C500 1.350 . S
C495 N503 1.427 . S
C496 H487 0.930 . S
C496 C494 1.378 . S
C496 C497 1.367 . S
C497 C496 1.367 . S
C497 C499 1.433 . S
C498 C494 1.350 . S
C498 C495 1.463 . S
C498 N502 1.427 . S
C499 H489 0.929 . S
C499 C497 1.433 . S
C499 N502 1.384 . S
C500 H491 0.929 . S
C500 C492 1.378 . S
C500 C495 1.350 . S
C501 H488 0.929 . S
C501 C493 1.433 . S
C501 N503 1.384 . S
N502 C498 1.427 . S
N502 C499 1.384 . S
N503 C495 1.427 . S
N503 C501 1.384 . S
H504 C510 0.930 . S
H505 C514 0.930 . S
H506 C519 0.929 . S
H507 C517 0.929 . S
H508 C512 0.929 . S
H509 C518 0.967 . S
C510 H504 0.930 . S
C510 C511 1.367 . S
C510 C518 1.378 . S
C511 C510 1.367 . S
C511 C519 1.433 . S
C512 H508 0.929 . S
C512 C514 1.378 . S
C512 C516 1.350 . S
C513 C516 1.463 1_455 S
C513 C518 1.350 . S
C513 N521 1.427 . S
C514 H505 0.930 . S
C514 C512 1.378 . S
C514 C515 1.367 . S
C515 C514 1.367 . S
C515 C517 1.433 . S
C516 C512 1.350 . S
C516 C513 1.463 1_655 S
C516 N520 1.427 . S
C517 H507 0.929 . S
C517 C515 1.433 . S
C517 N520 1.384 . S
C518 H509 0.967 . S
C518 C510 1.378 . S
C518 C513 1.350 . S
C519 H506 0.929 . S
C519 C511 1.433 . S
C519 N521 1.384 . S
N520 C516 1.427 . S
N520 C517 1.384 . S
N521 C513 1.427 . S
N521 C519 1.384 . S
H522 C528 0.930 . S
H523 C532 0.930 . S
H524 C537 0.929 . S
H525 C535 0.929 . S
H526 C530 0.929 1_565 S
H527 C536 0.929 1_545 S
C528 H522 0.930 . S
C528 C529 1.367 . S
C528 C536 1.378 . S
C529 C528 1.367 . S
C529 C537 1.433 . S
C530 H526 0.929 1_545 S
C530 C532 1.378 . S
C530 C534 1.350 . S
C531 C534 1.463 1_564 S
C531 C536 1.350 . S
C531 N539 1.427 . S
C532 H523 0.930 . S
C532 C530 1.378 . S
C532 C533 1.367 . S
C533 C532 1.367 . S
C533 C535 1.433 . S
C534 C530 1.350 . S
C534 C531 1.463 1_546 S
C534 N538 1.427 . S
C535 H525 0.929 . S
C535 C533 1.433 . S
C535 N538 1.384 . S
C536 H527 0.929 1_565 S
C536 C528 1.378 . S
C536 C531 1.350 . S
C537 H524 0.929 . S
C537 C529 1.433 . S
C537 N539 1.384 . S
N538 C534 1.427 . S
N538 C535 1.384 . S
N539 C531 1.427 . S
N539 C537 1.384 . S
H540 C546 0.930 . S
H541 C550 0.930 . S
H542 C555 0.929 . S
H543 C553 0.929 . S
H544 C548 0.929 . S
H545 C554 0.929 . S
C546 H540 0.930 . S
C546 C547 1.367 . S
C546 C554 1.378 . S
C547 C546 1.367 . S
C547 C555 1.433 . S
C548 H544 0.929 . S
C548 C550 1.378 . S
C548 C552 1.350 . S
C549 C552 1.463 . S
C549 C554 1.350 . S
C549 N557 1.427 . S
C550 H541 0.930 . S
C550 C548 1.378 . S
C550 C551 1.367 . S
C551 C550 1.367 . S
C551 C553 1.433 . S
C552 C548 1.350 . S
C552 C549 1.463 . S
C552 N556 1.427 . S
C553 H543 0.929 . S
C553 C551 1.433 . S
C553 N556 1.384 . S
C554 H545 0.929 . S
C554 C546 1.378 . S
C554 C549 1.350 . S
C555 H542 0.929 . S
C555 C547 1.433 . S
C555 N557 1.384 . S
N556 C552 1.427 . S
N556 C553 1.384 . S
N557 C549 1.427 . S
N557 C555 1.384 . S
H558 C564 0.930 . S
H559 C568 0.930 . S
H560 C573 0.929 . S
H561 C571 0.929 . S
H562 C566 0.929 . S
H563 C572 0.929 . S
C564 H558 0.930 . S
C564 C565 1.367 . S
C564 C572 1.378 . S
C565 C564 1.367 . S
C565 C573 1.433 . S
C566 H562 0.929 . S
C566 C568 1.378 . S
C566 C570 1.350 . S
C567 C570 1.463 1_455 S
C567 C572 1.350 . S
C567 N575 1.427 . S
C568 H559 0.930 . S
C568 C566 1.378 . S
C568 C569 1.367 . S
C569 C568 1.367 . S
C569 C571 1.433 . S
C570 C566 1.350 . S
C570 C567 1.463 1_655 S
C570 N574 1.427 . S
C571 H561 0.929 . S
C571 C569 1.433 . S
C571 N574 1.384 . S
C572 H563 0.929 . S
C572 C564 1.378 . S
C572 C567 1.350 . S
C573 H560 0.929 . S
C573 C565 1.433 . S
C573 N575 1.384 . S
N574 C570 1.427 . S
N574 C571 1.384 . S
N575 C567 1.427 . S
N575 C573 1.384 . S
H576 C582 0.930 . S
H577 C586 0.930 . S
H578 C591 0.929 . S
H579 C589 0.929 . S
H580 C584 0.929 1_545 S
H581 C590 0.929 1_565 S
C582 H576 0.930 . S
C582 C583 1.367 . S
C582 C590 1.378 . S
C583 C582 1.367 . S
C583 C591 1.433 . S
C584 H580 0.929 1_565 S
C584 C586 1.378 . S
C584 C588 1.350 . S
C585 C588 1.463 1_545 S
C585 C590 1.350 . S
C585 N593 1.427 . S
C586 H577 0.930 . S
C586 C584 1.378 . S
C586 C587 1.367 . S
C587 C586 1.367 . S
C587 C589 1.433 . S
C588 C584 1.350 . S
C588 C585 1.463 1_565 S
C588 N592 1.427 . S
C589 H579 0.929 . S
C589 C587 1.433 . S
C589 N592 1.384 . S
C590 H581 0.929 1_545 S
C590 C582 1.378 . S
C590 C585 1.350 . S
C591 H578 0.929 . S
C591 C583 1.433 . S
C591 N593 1.384 . S
N592 C588 1.427 . S
N592 C589 1.384 . S
N593 C585 1.427 . S
N593 C591 1.384 . S
H594 C600 0.930 . S
H595 C604 0.930 . S
H596 C609 0.929 . S
H597 C607 0.929 . S
H598 C602 0.929 . S
H599 C608 0.929 . S
C600 H594 0.930 . S
C600 C601 1.367 . S
C600 C608 1.378 . S
C601 C600 1.367 . S
C601 C609 1.433 . S
C602 H598 0.929 . S
C602 C604 1.378 . S
C602 C606 1.350 . S
C603 C606 1.463 . S
C603 C608 1.350 . S
C603 N611 1.427 . S
C604 H595 0.930 . S
C604 C602 1.378 . S
C604 C605 1.367 . S
C605 C604 1.367 . S
C605 C607 1.433 . S
C606 C602 1.350 . S
C606 C603 1.463 . S
C606 N610 1.427 . S
C607 H597 0.929 . S
C607 C605 1.433 . S
C607 N610 1.384 . S
C608 H599 0.929 . S
C608 C600 1.378 . S
C608 C603 1.350 . S
C609 H596 0.929 . S
C609 C601 1.433 . S
C609 N611 1.384 . S
N610 C606 1.427 . S
N610 C607 1.384 . S
N611 C603 1.427 . S
N611 C609 1.384 . S
H612 C618 0.930 1_554 S
H613 C622 0.930 . S
H614 C627 0.929 . S
H615 C625 0.929 1_554 S
H616 C620 0.929 1_655 S
H617 C626 0.929 1_454 S
C618 H612 0.930 1_556 S
C618 C619 1.367 . S
C618 C626 1.378 . S
C619 C618 1.367 . S
C619 C627 1.433 . S
C620 H616 0.929 1_455 S
C620 C622 1.378 . S
C620 C624 1.350 . S
C621 C624 1.463 1_655 S
C621 C626 1.350 . S
C621 N629 1.427 . S
C622 H613 0.930 . S
C622 C620 1.378 . S
C622 C623 1.367 . S
C623 C622 1.367 . S
C623 C625 1.433 . S
C624 C620 1.350 . S
C624 C621 1.463 1_455 S
C624 N628 1.427 . S
C625 H615 0.929 1_556 S
C625 C623 1.433 . S
C625 N628 1.384 . S
C626 H617 0.929 1_656 S
C626 C618 1.378 . S
C626 C621 1.350 . S
C627 H614 0.929 . S
C627 C619 1.433 . S
C627 N629 1.384 . S
N628 C624 1.427 . S
N628 C625 1.384 . S
N629 C621 1.427 . S
N629 C627 1.384 . S
H630 C636 0.930 . S
H631 C640 0.930 . S
H632 C645 0.929 . S
H633 C643 0.929 . S
H634 C638 0.929 . S
H635 C644 0.929 . S
C636 H630 0.930 . S
C636 C637 1.367 . S
C636 C644 1.378 . S
C637 C636 1.367 . S
C637 C645 1.433 . S
C638 H634 0.929 . S
C638 C640 1.378 . S
C638 C642 1.350 . S
C639 C642 1.463 1_455 S
C639 C644 1.350 . S
C639 N647 1.427 . S
C640 H631 0.930 . S
C640 C638 1.378 . S
C640 C641 1.367 . S
C641 C640 1.367 . S
C641 C643 1.433 . S
C642 C638 1.350 . S
C642 C639 1.463 1_655 S
C642 N646 1.427 . S
C643 H633 0.929 . S
C643 C641 1.433 . S
C643 N646 1.384 . S
C644 H635 0.929 . S
C644 C636 1.378 . S
C644 C639 1.350 . S
C645 H632 0.929 . S
C645 C637 1.433 . S
C645 N647 1.384 . S
N646 C642 1.427 . S
N646 C643 1.384 . S
N647 C639 1.427 . S
N647 C645 1.384 . S
H648 C654 0.930 . S
H649 C658 0.930 . S
H650 C663 0.929 . S
H651 C661 0.929 . S
H652 C656 0.929 . S
H653 C662 0.929 . S
C654 H648 0.930 . S
C654 C655 1.367 . S
C654 C662 1.378 . S
C655 C654 1.367 . S
C655 C663 1.433 . S
C656 H652 0.929 . S
C656 C658 1.378 . S
C656 C660 1.350 . S
C657 C660 1.463 1_565 S
C657 C662 1.350 . S
C657 N665 1.427 . S
C658 H649 0.930 . S
C658 C656 1.378 . S
C658 C659 1.367 . S
C659 C658 1.367 . S
C659 C661 1.433 . S
C660 C656 1.350 . S
C660 C657 1.463 1_545 S
C660 N664 1.427 . S
C661 H651 0.929 . S
C661 C659 1.433 . S
C661 N664 1.384 . S
C662 H653 0.929 . S
C662 C654 1.378 . S
C662 C657 1.350 . S
C663 H650 0.929 . S
C663 C655 1.433 . S
C663 N665 1.384 . S
N664 C660 1.427 . S
N664 C661 1.384 . S
N665 C657 1.427 . S
N665 C663 1.384 . S
H666 C672 0.930 . S
H667 C676 0.930 1_556 S
H668 C681 0.929 1_556 S
H669 C679 0.929 . S
H670 C674 0.929 1_556 S
H671 C680 0.929 . S
C672 H666 0.930 . S
C672 C673 1.367 . S
C672 C680 1.378 . S
C673 C672 1.367 . S
C673 C681 1.433 . S
C674 H670 0.929 1_554 S
C674 C676 1.378 . S
C674 C678 1.350 . S
C675 C678 1.463 . S
C675 C680 1.350 . S
C675 N683 1.427 . S
C676 H667 0.930 1_554 S
C676 C674 1.378 . S
C676 C677 1.367 . S
C677 C676 1.367 . S
C677 C679 1.433 . S
C678 C674 1.350 . S
C678 C675 1.463 . S
C678 N682 1.427 . S
C679 H669 0.929 . S
C679 C677 1.433 . S
C679 N682 1.384 . S
C680 H671 0.929 . S
C680 C672 1.378 . S
C680 C675 1.350 . S
C681 H668 0.929 1_554 S
C681 C673 1.433 . S
C681 N683 1.384 . S
N682 C678 1.427 . S
N682 C679 1.384 . S
N683 C675 1.427 . S
N683 C681 1.384 . S
H684 C690 0.930 . S
H685 C694 0.930 . S
H686 C699 0.929 . S
H687 C697 0.929 . S
H688 C692 0.929 . S
H689 C698 0.929 . S
C690 H684 0.930 . S
C690 C691 1.367 . S
C690 C698 1.378 1_565 S
C691 C690 1.367 . S
C691 C699 1.433 . S
C692 H688 0.929 . S
C692 C694 1.378 1_565 S
C692 C696 1.350 1_565 S
C693 C696 1.463 1_565 S
C693 C698 1.350 1_565 S
C693 N701 1.427 . S
C694 H685 0.930 . S
C694 C692 1.378 1_545 S
C694 C695 1.367 . S
C695 C694 1.367 . S
C695 C697 1.433 . S
C696 C692 1.350 1_545 S
C696 C693 1.463 1_545 S
C696 N700 1.427 . S
C697 H687 0.929 . S
C697 C695 1.433 . S
C697 N700 1.384 . S
C698 H689 0.929 . S
C698 C690 1.378 1_545 S
C698 C693 1.350 1_545 S
C699 H686 0.929 . S
C699 C691 1.433 . S
C699 N701 1.384 . S
N700 C696 1.427 . S
N700 C697 1.384 . S
N701 C693 1.427 . S
N701 C699 1.384 . S
H702 C708 0.930 . S
H703 C712 0.930 . S
H704 C717 0.929 . S
H705 C715 0.929 . S
H706 C710 0.929 . S
H707 C716 0.929 . S
C708 H702 0.930 . S
C708 C709 1.367 . S
C708 C716 1.378 . S
C709 C708 1.367 . S
C709 C717 1.433 . S
C710 H706 0.929 . S
C710 C712 1.378 . S
C710 C714 1.350 . S
C711 C714 1.463 . S
C711 C716 1.350 . S
C711 N719 1.427 . S
C712 H703 0.930 . S
C712 C710 1.378 . S
C712 C713 1.367 . S
C713 C712 1.367 . S
C713 C715 1.433 . S
C714 C710 1.350 . S
C714 C711 1.463 . S
C714 N718 1.427 . S
C715 H705 0.929 . S
C715 C713 1.433 . S
C715 N718 1.384 . S
C716 H707 0.929 . S
C716 C708 1.378 . S
C716 C711 1.350 . S
C717 H704 0.929 . S
C717 C709 1.433 . S
C717 N719 1.384 . S
N718 C714 1.427 . S
N718 C715 1.384 . S
N719 C711 1.427 . S
N719 C717 1.384 . S
H720 C726 0.930 . S
H721 C730 0.930 . S
H722 C735 0.929 . S
H723 C733 0.929 . S
H724 C728 0.929 . S
H725 C734 0.929 . S
C726 H720 0.930 . S
C726 C727 1.367 . S
C726 C734 1.378 . S
C727 C726 1.367 . S
C727 C735 1.433 . S
C728 H724 0.929 . S
C728 C730 1.378 . S
C728 C732 1.350 . S
C729 C732 1.463 1_655 S
C729 C734 1.350 . S
C729 N737 1.427 1_655 S
C730 H721 0.930 . S
C730 C728 1.378 . S
C730 C731 1.367 . S
C731 C730 1.367 . S
C731 C733 1.433 . S
C732 C728 1.350 . S
C732 C729 1.463 1_455 S
C732 N736 1.427 1_455 S
C733 H723 0.929 . S
C733 C731 1.433 . S
C733 N736 1.384 1_455 S
C734 H725 0.929 . S
C734 C726 1.378 . S
C734 C729 1.350 . S
C735 H722 0.929 . S
C735 C727 1.433 . S
C735 N737 1.384 1_655 S
N736 C732 1.427 1_655 S
N736 C733 1.384 1_655 S
N737 C729 1.427 1_455 S
N737 C735 1.384 1_455 S
H738 C744 0.930 . S
H739 C748 0.930 . S
H740 C753 0.929 . S
H741 C751 0.929 . S
H742 C746 0.929 1_545 S
H743 C752 0.929 1_565 S
C744 H738 0.930 . S
C744 C745 1.367 . S
C744 C752 1.378 . S
C745 C744 1.367 . S
C745 C753 1.433 . S
C746 H742 0.929 1_565 S
C746 C748 1.378 . S
C746 C750 1.350 . S
C747 C750 1.463 1_545 S
C747 C752 1.350 . S
C747 N755 1.427 . S
C748 H739 0.930 . S
C748 C746 1.378 . S
C748 C749 1.367 . S
C749 C748 1.367 . S
C749 C751 1.433 . S
C750 C746 1.350 . S
C750 C747 1.463 1_565 S
C750 N754 1.427 . S
C751 H741 0.929 . S
C751 C749 1.433 . S
C751 N754 1.384 . S
C752 H743 0.929 1_545 S
C752 C744 1.378 . S
C752 C747 1.350 . S
C753 H740 0.929 . S
C753 C745 1.433 . S
C753 N755 1.384 . S
N754 C750 1.427 . S
N754 C751 1.384 . S
N755 C747 1.427 . S
N755 C753 1.384 . S
H756 C762 0.930 . S
H757 C766 0.930 . S
H758 C771 0.929 . S
H759 C769 0.929 . S
H760 C764 0.929 . S
H761 C770 0.929 . S
C762 H756 0.930 . S
C762 C763 1.367 . S
C762 C770 1.378 . S
C763 C762 1.367 . S
C763 C771 1.433 . S
C764 H760 0.929 . S
C764 C766 1.378 . S
C764 C768 1.350 . S
C765 C768 1.463 . S
C765 C770 1.350 . S
C765 N773 1.427 . S
C766 H757 0.930 . S
C766 C764 1.378 . S
C766 C767 1.367 . S
C767 C766 1.367 . S
C767 C769 1.433 . S
C768 C764 1.350 . S
C768 C765 1.463 . S
C768 N772 1.427 . S
C769 H759 0.929 . S
C769 C767 1.433 . S
C769 N772 1.384 . S
C770 H761 0.929 . S
C770 C762 1.378 . S
C770 C765 1.350 . S
C771 H758 0.929 . S
C771 C763 1.433 . S
C771 N773 1.384 . S
N772 C768 1.427 . S
N772 C769 1.384 . S
N773 C765 1.427 . S
N773 C771 1.384 . S
H774 C780 0.930 . S
H775 C784 0.930 . S
H776 C789 0.929 . S
H777 C787 0.929 . S
H778 C782 0.929 . S
H779 C788 0.929 . S
C780 H774 0.930 . S
C780 C781 1.367 . S
C780 C788 1.378 . S
C781 C780 1.367 . S
C781 C789 1.433 . S
C782 H778 0.929 . S
C782 C784 1.378 . S
C782 C786 1.350 . S
C783 C786 1.463 1_455 S
C783 C788 1.350 . S
C783 N791 1.427 . S
C784 H775 0.930 . S
C784 C782 1.378 . S
C784 C785 1.367 . S
C785 C784 1.367 . S
C785 C787 1.433 . S
C786 C782 1.350 . S
C786 C783 1.463 1_655 S
C786 N790 1.427 . S
C787 H777 0.929 . S
C787 C785 1.433 . S
C787 N790 1.384 . S
C788 H779 0.929 . S
C788 C780 1.378 . S
C788 C783 1.350 . S
C789 H776 0.929 . S
C789 C781 1.433 . S
C789 N791 1.384 . S
N790 C786 1.427 . S
N790 C787 1.384 . S
N791 C783 1.427 . S
N791 C789 1.384 . S
H792 C798 0.930 . S
H793 C802 0.930 . S
H794 C807 0.929 . S
H795 C805 0.929 . S
H796 C800 0.929 . S
H797 C806 0.929 . S
C798 H792 0.930 . S
C798 C799 1.367 . S
C798 C806 1.378 . S
C799 C798 1.367 . S
C799 C807 1.433 . S
C800 H796 0.929 . S
C800 C802 1.378 . S
C800 C804 1.350 . S
C801 C804 1.463 . S
C801 C806 1.350 . S
C801 N809 1.427 . S
C802 H793 0.930 . S
C802 C800 1.378 . S
C802 C803 1.367 . S
C803 C802 1.367 . S
C803 C805 1.433 . S
C804 C800 1.350 . S
C804 C801 1.463 . S
C804 N808 1.427 . S
C805 H795 0.929 . S
C805 C803 1.433 . S
C805 N808 1.384 . S
C806 H797 0.929 . S
C806 C798 1.378 . S
C806 C801 1.350 . S
C807 H794 0.929 . S
C807 C799 1.433 . S
C807 N809 1.384 . S
N808 C804 1.427 . S
N808 C805 1.384 . S
N809 C801 1.427 . S
N809 C807 1.384 . S
H810 C816 0.930 . S
H811 C820 0.930 . S
H812 C825 0.929 . S
H813 C823 0.929 . S
H814 C818 0.929 . S
H815 C824 0.929 . S
C816 H810 0.930 . S
C816 C817 1.367 . S
C816 C824 1.378 . S
C817 C816 1.367 . S
C817 C825 1.433 . S
C818 H814 0.929 . S
C818 C820 1.378 . S
C818 C822 1.350 . S
C819 C822 1.463 . S
C819 C824 1.350 . S
C819 N827 1.427 . S
C820 H811 0.930 . S
C820 C818 1.378 . S
C820 C821 1.367 . S
C821 C820 1.367 . S
C821 C823 1.433 . S
C822 C818 1.350 . S
C822 C819 1.463 . S
C822 N826 1.427 . S
C823 H813 0.929 . S
C823 C821 1.433 . S
C823 N826 1.384 . S
C824 H815 0.929 . S
C824 C816 1.378 . S
C824 C819 1.350 . S
C825 H812 0.929 . S
C825 C817 1.433 . S
C825 N827 1.384 . S
N826 C822 1.427 . S
N826 C823 1.384 . S
N827 C819 1.427 . S
N827 C825 1.384 . S
H828 C834 0.930 . S
H829 C838 0.930 . S
H830 C843 0.929 . S
H831 C841 0.929 . S
H832 C836 0.929 . S
H833 C842 0.929 . S
C834 H828 0.930 . S
C834 C835 1.367 . S
C834 C842 1.378 . S
C835 C834 1.367 . S
C835 C843 1.433 . S
C836 H832 0.929 . S
C836 C838 1.378 . S
C836 C840 1.350 . S
C837 C840 1.463 . S
C837 C842 1.350 . S
C837 N845 1.427 . S
C838 H829 0.930 . S
C838 C836 1.378 . S
C838 C839 1.367 . S
C839 C838 1.367 . S
C839 C841 1.433 . S
C840 C836 1.350 . S
C840 C837 1.463 . S
C840 N844 1.427 . S
C841 H831 0.929 . S
C841 C839 1.433 . S
C841 N844 1.384 . S
C842 H833 0.929 . S
C842 C834 1.378 . S
C842 C837 1.350 . S
C843 H830 0.929 . S
C843 C835 1.433 . S
C843 N845 1.384 . S
N844 C840 1.427 . S
N844 C841 1.384 . S
N845 C837 1.427 . S
N845 C843 1.384 . S
H846 C852 0.930 . S
H847 C856 0.930 . S
H848 C861 0.929 . S
H849 C859 0.929 . S
H850 C854 0.929 . S
H851 C860 0.929 . S
C852 H846 0.930 . S
C852 C853 1.367 . S
C852 C860 1.378 . S
C853 C852 1.367 . S
C853 C861 1.433 . S
C854 H850 0.929 . S
C854 C856 1.378 . S
C854 C858 1.350 . S
C855 C858 1.463 . S
C855 C860 1.350 . S
C855 N863 1.427 . S
C856 H847 0.930 . S
C856 C854 1.378 . S
C856 C857 1.367 . S
C857 C856 1.367 . S
C857 C859 1.433 . S
C858 C854 1.350 . S
C858 C855 1.463 . S
C858 N862 1.427 . S
C859 H849 0.929 . S
C859 C857 1.433 . S
C859 N862 1.384 . S
C860 H851 0.929 . S
C860 C852 1.378 . S
C860 C855 1.350 . S
C861 H848 0.929 . S
C861 C853 1.433 . S
C861 N863 1.384 . S
N862 C858 1.427 . S
N862 C859 1.384 . S
N863 C855 1.427 . S
N863 C861 1.384 . S
H864 C870 0.930 . S
H865 C874 0.930 . S
H866 C879 0.929 . S
H867 C877 0.929 . S
H868 C872 0.929 . S
H869 C878 0.929 . S
C870 H864 0.930 . S
C870 C871 1.367 . S
C870 C878 1.378 . S
C871 C870 1.367 . S
C871 C879 1.433 . S
C872 H868 0.929 . S
C872 C874 1.378 . S
C872 C876 1.350 . S
C873 C876 1.463 . S
C873 C878 1.350 . S
C873 N881 1.427 . S
C874 H865 0.930 . S
C874 C872 1.378 . S
C874 C875 1.367 . S
C875 C874 1.367 . S
C875 C877 1.433 . S
C876 C872 1.350 . S
C876 C873 1.463 . S
C876 N880 1.427 . S
C877 H867 0.929 . S
C877 C875 1.433 . S
C877 N880 1.384 . S
C878 H869 0.929 . S
C878 C870 1.378 . S
C878 C873 1.350 . S
C879 H866 0.929 . S
C879 C871 1.433 . S
C879 N881 1.384 . S
N880 C876 1.427 . S
N880 C877 1.384 . S
N881 C873 1.427 . S
N881 C879 1.384 . S
H882 C888 0.930 . S
H883 C892 0.930 . S
H884 C897 0.929 . S
H885 C895 0.929 . S
H886 C890 0.929 . S
H887 C896 0.929 . S
C888 H882 0.930 . S
C888 C889 1.367 . S
C888 C896 1.378 . S
C889 C888 1.367 . S
C889 C897 1.433 . S
C890 H886 0.929 . S
C890 C892 1.378 . S
C890 C894 1.350 . S
C891 C894 1.463 . S
C891 C896 1.350 . S
C891 N899 1.427 . S
C892 H883 0.930 . S
C892 C890 1.378 . S
C892 C893 1.367 . S
C893 C892 1.367 . S
C893 C895 1.433 . S
C894 C890 1.350 . S
C894 C891 1.463 . S
C894 N898 1.427 . S
C895 H885 0.929 . S
C895 C893 1.433 . S
C895 N898 1.384 . S
C896 H887 0.929 . S
C896 C888 1.378 . S
C896 C891 1.350 . S
C897 H884 0.929 . S
C897 C889 1.433 . S
C897 N899 1.384 . S
N898 C894 1.427 . S
N898 C895 1.384 . S
N899 C891 1.427 . S
N899 C897 1.384 . S
C259 C13 0.947 . S
C263 C181 0.949 . S
C277 C34 0.951 . S
C281 C202 0.949 . S
C295 C55 0.950 . S
C299 C223 0.953 . S
C313 C244 0.969 . S
C317 C76 0.971 . S
C331 C97 0.962 . S
C335 C139 0.964 . S
C349 C160 0.970 . S
C353 C118 0.969 . S
C367 C227 1.545 . S
C371 C17 1.524 . S
C385 C248 1.534 . S
C389 C38 1.540 . S
C403 C59 1.523 . S
C407 C143 1.543 . S
C421 C164 1.527 . S
C425 C80 1.545 . S
C439 C185 1.523 . S
C443 C101 1.545 . S
C457 C122 1.543 . S
C461 C206 1.530 . S
C475 C162 1.308 . S
C479 C15 1.324 . S
C493 C183 1.320 . S
C497 C36 1.313 . S
C511 C204 1.300 . S
C515 C57 1.326 . S
C529 C78 1.321 . S
C533 C225 1.303 . S
C547 C99 1.307 . S
C551 C246 1.325 . S
C565 C120 1.326 . S
C569 C141 1.306 . S
C583 C16 1.030 . S
C587 C79 0.996 . S
C601 C37 1.010 . S
C605 C100 1.014 . S
C619 C58 1.027 . S
C623 C121 0.999 . S
C637 C205 0.993 . S
C641 C142 1.031 . S
C655 C163 1.009 . S
C659 C226 1.015 . S
C673 C247 0.993 . S
C677 C184 1.031 . S
C691 C165 1.274 . S
C695 C18 1.277 . S
C709 C186 1.263 . S
C713 C39 1.268 . S
C727 C60 1.264 . S
C731 C207 1.265 . S
C745 C228 1.271 . S
C749 C81 1.278 . S
C763 C249 1.264 . S
C767 C102 1.274 . S
C781 C123 1.264 . S
C785 C144 1.274 . S
C799 C14 1.444 . S
C803 C224 1.444 . S
C817 C35 1.449 . S
C821 C245 1.448 . S
C835 C56 1.444 . S
C839 C140 1.444 . S
C853 C77 1.449 . S
C857 C161 1.448 . S
C871 C98 1.450 . S
C875 C182 1.449 . S
C889 C203 1.444 . S
C893 C119 1.444 . S
