# Generated by pormake.
# Topology unh, (4)-cn, num edge types: 1
# Building blocks:
#     Node 0, Type 0, BuildingBlock: ESEHIV_clean_sbu_0, # of connection points: 4
#     Node 1, Type 0, BuildingBlock: ESEHIV_clean_sbu_0, # of connection points: 4
#     Node 2, Type 0, BuildingBlock: ESEHIV_clean_sbu_0, # of connection points: 4
#     Node 3, Type 0, BuildingBlock: ESEHIV_clean_sbu_0, # of connection points: 4
#     Node 4, Type 0, BuildingBlock: ESEHIV_clean_sbu_0, # of connection points: 4
#     Node 5, Type 0, BuildingBlock: ESEHIV_clean_sbu_0, # of connection points: 4
#     Edge 6, Type (0, 0), BuildingBlock: FUNLAD_clean_linker_0, # of connection points: 2
#     Edge 7, Type (0, 0), BuildingBlock: FUNLAD_clean_linker_0, # of connection points: 2
#     Edge 8, Type (0, 0), BuildingBlock: FUNLAD_clean_linker_0, # of connection points: 2
#     Edge 9, Type (0, 0), BuildingBlock: FUNLAD_clean_linker_0, # of connection points: 2
#     Edge 10, Type (0, 0), BuildingBlock: FUNLAD_clean_linker_0, # of connection points: 2
#     Edge 11, Type (0, 0), BuildingBlock: FUNLAD_clean_linker_0, # of connection points: 2
#     Edge 12, Type (0, 0), BuildingBlock: FUNLAD_clean_linker_0, # of connection points: 2
#     Edge 13, Type (0, 0), BuildingBlock: FUNLAD_clean_linker_0, # of connection points: 2
#     Edge 14, Type (0, 0), BuildingBlock: FUNLAD_clean_linker_0, # of connection points: 2
#     Edge 15, Type (0, 0), BuildingBlock: FUNLAD_clean_linker_0, # of connection points: 2
#     Edge 16, Type (0, 0), BuildingBlock: FUNLAD_clean_linker_0, # of connection points: 2
#     Edge 17, Type (0, 0), BuildingBlock: FUNLAD_clean_linker_0, # of connection points: 2
# Relax obj value: 0.010
# Max RMSD: 0.159
# Mean RMSD: 0.159
data_MOF--net-unh--node1-ESEHIV_clean_sbu_0--edge1-FUNLAD_clean_linker_0
_symmetry_space_group_name_H-M    P1
_symmetry_Int_Tables_number       1
_symmetry_cell_setting            triclinic
loop_
_symmetry_equiv_pos_as_xyz
'x, y, z'
_cell_length_a     57.199982
_cell_length_b     57.313231
_cell_length_c     24.06589
_cell_angle_alpha  90.215429
_cell_angle_beta   89.981068
_cell_angle_gamma 119.36131
loop_
_atom_site_label
_atom_site_type_symbol
_atom_site_fract_x
_atom_site_fract_y
_atom_site_fract_z
_atom_type_partial_charge
Cu0 Cu 0.18134 0.58028 0.10023 0.0
N1 N 0.16219 0.56177 0.03678 0.0
N2 N 0.12962 0.5418 0.97321 0.0
C3 C 0.13683 0.55497 0.02247 0.0
C4 C 0.15139 0.54038 0.95613 0.0
C5 C 0.17138 0.55271 0.99529 0.0
O6 O 0.15622 0.58055 0.15477 0.0
C7 C 0.20505 0.62932 0.04055 0.0
O8 O 0.18165 0.61884 1.01548 0.0
H9 H 0.12395 0.55951 0.04787 0.0
H10 H 0.19133 0.5551 0.99356 0.0
N11 N 0.1989 0.56273 0.12937 0.0
N12 N 0.22885 0.55434 0.17182 0.0
C13 C 0.22195 0.57315 0.15887 0.0
C14 C 0.19109 0.5366 0.12315 0.0
C15 C 0.20941 0.53136 0.14925 0.0
C16 C 0.13806 0.55836 0.1742 0.0
O17 O 0.13719 0.5361 0.15747 0.0
H18 H 0.23325 0.59402 0.17088 0.0
H19 H 0.17338 0.52238 0.10071 0.0
O20 O 0.20855 0.61634 0.07945 0.0
H21 H 0.15305 0.53159 0.91749 0.0
H22 H 0.20865 0.51213 0.15057 0.0
Cu23 Cu 0.62219 0.16999 0.25348 0.0
N24 N 0.62366 0.14918 0.195 0.0
N25 N 0.61186 0.11487 0.136 0.0
C26 C 0.60511 0.12386 0.18203 0.0
C27 C 0.63561 0.13548 0.11959 0.0
C28 C 0.64277 0.15657 0.15593 0.0
O29 O 0.5975 0.14527 0.30875 0.0
C30 C 0.60275 0.20776 0.24937 0.0
O31 O 0.60073 0.20522 0.30366 0.0
H32 H 0.58675 0.11255 0.20525 0.0
H33 H 0.66058 0.17602 0.15385 0.0
N34 N 0.65649 0.19019 0.28478 0.0
N35 N 0.69187 0.2215 0.3319 0.0
C36 C 0.66601 0.21241 0.31675 0.0
C37 C 0.67694 0.18503 0.27975 0.0
C38 C 0.6987 0.20421 0.30861 0.0
C39 C 0.60434 0.12966 0.33246 0.0
O40 O 0.62773 0.1319 0.32015 0.0
H41 H 0.6543 0.22184 0.32813 0.0
H42 H 0.676 0.16827 0.25707 0.0
O43 O 0.61078 0.19407 0.22173 0.0
H44 H 0.64713 0.13538 0.08402 0.0
H45 H 0.7179 0.20499 0.3129 0.0
Cu46 Cu 0.4819 0.59965 0.46641 0.0
N47 N 0.48196 0.56737 0.45673 0.0
N48 N 0.49274 0.53959 0.41231 0.0
C49 C 0.49407 0.5637 0.41231 0.0
C50 C 0.47884 0.52727 0.45859 0.0
C51 C 0.47228 0.54459 0.4862 0.0
O52 O 0.51815 0.62739 0.44944 0.0
C53 C 0.43123 0.58531 0.42615 0.0
O54 O 0.42496 0.57013 0.47054 0.0
H55 H 0.50369 0.57865 0.38033 0.0
H56 H 0.46141 0.54086 0.52487 0.0
N57 N 0.47305 0.60749 0.53615 0.0
N58 N 0.46508 0.63251 0.59664 0.0
C59 C 0.4716 0.62997 0.54402 0.0
C60 C 0.46709 0.59503 0.58568 0.0
C61 C 0.46238 0.61063 0.62336 0.0
C62 C 0.53931 0.628 0.46839 0.0
O63 O 0.5628 0.64637 0.45014 0.0
H64 H 0.47565 0.64443 0.51144 0.0
H65 H 0.46647 0.57621 0.59397 0.0
O66 O 0.45596 0.60017 0.41448 0.0
H67 H 0.47413 0.50744 0.47195 0.0
H68 H 0.45705 0.60606 0.66667 0.0
Cu69 Cu 0.89579 0.47679 0.61293 0.0
N70 N 0.9191 0.49986 0.55868 0.0
N71 N 0.95278 0.51818 0.49716 0.0
C72 C 0.94007 0.49884 0.53567 0.0
C73 C 0.93908 0.53181 0.49601 0.0
C74 C 0.91836 0.52046 0.53381 0.0
O75 O 0.91789 0.47437 0.6716 0.0
C76 C 0.85481 0.42147 0.5998 0.0
O77 O 0.85219 0.42097 0.65408 0.0
H78 H 0.94554 0.48384 0.54631 0.0
H79 H 0.90372 0.52675 0.54239 0.0
N80 N 0.87594 0.49162 0.64423 0.0
N81 N 0.84352 0.49654 0.68582 0.0
C82 C 0.84998 0.47937 0.66022 0.0
C83 C 0.88616 0.51731 0.6601 0.0
C84 C 0.8663 0.52044 0.68546 0.0
C85 C 0.93035 0.46116 0.66797 0.0
O86 O 0.92657 0.44599 0.6241 0.0
H87 H 0.83638 0.45819 0.65482 0.0
H88 H 0.90683 0.53261 0.6545 0.0
O89 O 0.87229 0.44282 0.57638 0.0
H90 H 0.94373 0.54893 0.4701 0.0
H91 H 0.86858 0.53895 0.70246 0.0
Cu92 Cu 0.45749 0.88029 0.75847 0.0
N93 N 0.45836 0.89884 0.69399 0.0
N94 N 0.47206 0.93148 0.63042 0.0
C95 C 0.47857 0.92256 0.67681 0.0
C96 C 0.44669 0.91241 0.61826 0.0
C97 C 0.43833 0.89241 0.65746 0.0
O98 O 0.48491 0.90628 0.80804 0.0
C99 C 0.46722 0.83678 0.77638 0.0
O100 O 0.46799 0.84339 0.82896 0.0
H101 H 0.49758 0.93303 0.69837 0.0
H102 H 0.4188 0.87471 0.65997 0.0
N103 N 0.42361 0.86667 0.79099 0.0
N104 N 0.38415 0.83894 0.83044 0.0
C105 C 0.40707 0.8415 0.80845 0.0
C106 C 0.41079 0.8805 0.80215 0.0
C107 C 0.3865 0.86351 0.82645 0.0
C108 C 0.48192 0.90747 0.86023 0.0
O109 O 0.46006 0.88891 0.88412 0.0
H110 H 0.41166 0.82537 0.8045 0.0
H111 H 0.41871 0.90156 0.79353 0.0
O112 O 0.46368 0.85066 0.73954 0.0
H113 H 0.4346 0.91305 0.58438 0.0
H114 H 0.37193 0.86901 0.84086 0.0
Cu115 Cu 0.5794 0.44215 0.92 0.0
N116 N 0.55955 0.44544 0.8608 0.0
N117 N 0.54703 0.46216 0.78958 0.0
C118 C 0.56452 0.46769 0.83212 0.0
C119 C 0.53054 0.43545 0.79161 0.0
C120 C 0.53833 0.42526 0.8351 0.0
O121 O 0.57657 0.46005 0.98677 0.0
C122 C 0.6358 0.46011 0.92567 0.0
O123 O 0.63224 0.45784 0.97973 0.0
H124 H 0.58124 0.48735 0.84083 0.0
H125 H 0.52947 0.40439 0.8461 0.0
N126 N 0.56497 0.40615 0.94104 0.0
N127 N 0.56127 0.36904 0.98047 0.0
C128 C 0.57819 0.39357 0.95955 0.0
C129 C 0.5389 0.38905 0.95083 0.0
C130 C 0.53652 0.36617 0.97452 0.0
C131 C 0.57994 0.48365 0.99066 0.0
O132 O 0.58786 0.49929 0.94696 0.0
H133 H 0.59983 0.40284 0.96066 0.0
H134 H 0.52279 0.39346 0.94382 0.0
O135 O 0.61601 0.45523 0.89426 0.0
H136 H 0.51405 0.42396 0.76343 0.0
H137 H 0.51796 0.34905 0.98764 0.0
C138 C 0.09619 0.51119 0.90457 0.0
C139 C 0.10442 0.532 0.9439 0.0
C140 C 0.07239 0.50239 0.8744 0.0
C141 C 0.05601 0.51409 0.88299 0.0
C142 C 0.06415 0.53474 0.92261 0.0
C143 C 0.08795 0.54351 0.95283 0.0
C144 C 1.03123 0.50655 0.8497 0.0
C145 C 1.0179 0.48365 0.81997 0.0
C146 C 0.99426 0.47719 0.78376 0.0
C147 C 0.98802 0.45855 0.74038 0.0
C148 C 0.96685 0.45276 0.70371 0.0
C149 C 0.95119 0.46535 0.70978 0.0
H150 H 0.98128 0.50273 0.82507 0.0
C151 C 0.95672 0.48321 0.75449 0.0
C152 C 0.97792 0.48902 0.79113 0.0
H153 H 0.94491 0.49308 0.76081 0.0
H154 H 0.10819 0.50167 0.89685 0.0
H155 H 0.06745 0.48691 0.84354 0.0
H156 H 0.05216 0.54434 0.92993 0.0
H157 H 0.09373 0.55978 0.98217 0.0
H158 H 1.0241 0.52094 0.84931 0.0
H159 H 1.02499 0.46923 0.82012 0.0
H160 H 1.0 0.44886 0.73396 0.0
H161 H 0.96313 0.43883 0.66992 0.0
C162 C 0.49769 0.93326 0.94975 0.0
C163 C 0.50158 0.93107 0.89269 0.0
C164 C 0.51492 0.95649 0.97943 0.0
C165 C 0.53644 0.97823 0.95256 0.0
C166 C 0.54087 0.97556 0.89602 0.0
C167 C 0.52364 0.95235 0.86638 0.0
C168 C 0.55466 1.00397 0.98143 0.0
C169 C 0.54836 1.01227 0.02891 0.0
C170 C 0.56589 0.03875 0.05578 0.0
C171 C 0.5621 0.04206 0.11233 0.0
C172 C 0.57729 0.06683 0.13875 0.0
C173 C 0.59657 0.08909 0.1091 0.0
H174 H 0.58818 0.05972 0.98199 0.0
C175 C 0.60034 0.08579 0.05241 0.0
C176 C 0.58518 0.061 0.02602 0.0
H177 H 0.61455 0.10253 0.02785 0.0
H178 H 0.48105 0.91716 0.9715 0.0
H179 H 0.51122 0.95715 0.0233 0.0
H180 H 0.5574 0.99178 0.87425 0.0
H181 H 0.52734 0.95135 0.82251 0.0
H182 H 0.57368 1.01689 0.96137 0.0
H183 H 0.52946 0.99939 0.04937 0.0
H184 H 0.5473 0.02537 0.13631 0.0
H185 H 0.57398 0.06843 0.18252 0.0
C186 C 0.52738 0.54776 0.34197 0.0
C187 C 0.50403 0.52978 0.3707 0.0
C188 C 0.53732 0.53897 0.29838 0.0
C189 C 0.52395 0.51191 0.28173 0.0
C190 C 0.50127 0.49373 0.31209 0.0
C191 C 0.4914 0.50254 0.35611 0.0
C192 C 0.5331 0.50198 0.23335 0.0
C193 C 0.54839 0.51794 0.19162 0.0
C194 C 0.55688 0.50854 0.14139 0.0
C195 C 0.56692 0.52575 0.09542 0.0
C196 C 0.57482 0.5179 0.04699 0.0
C197 C 0.57301 0.4926 0.04324 0.0
H198 H 0.54883 0.46973 0.17283 0.0
C199 C 0.56356 0.47555 0.08962 0.0
C200 C 0.55566 0.48341 0.13815 0.0
H201 H 0.56205 0.45596 0.08839 0.0
H202 H 0.53802 0.56875 0.35322 0.0
H203 H 0.55553 0.55354 0.27818 0.0
H204 H 0.49073 0.4727 0.30089 0.0
H205 H 0.47341 0.48821 0.37746 0.0
H206 H 0.52558 0.48057 0.23085 0.0
H207 H 0.55401 0.53898 0.19237 0.0
H208 H 0.56838 0.54532 0.09663 0.0
H209 H 0.58205 0.5316 1.01225 0.0
C210 C 0.98146 0.53731 0.41364 0.0
C211 C 0.97576 0.52291 0.46374 0.0
C212 C 1.00334 0.54135 0.38072 0.0
C213 C 1.02017 0.53112 0.39713 0.0
C214 C 1.01451 0.5168 0.44711 0.0
C215 C 0.99275 0.51287 0.48013 0.0
C216 C 0.04272 0.5335 0.36194 0.0
C217 C 0.05535 0.55261 0.32316 0.0
C218 C 0.0771 0.5539 0.28678 0.0
C219 C 0.09579 0.57851 0.26333 0.0
C220 C 0.11589 0.58019 0.22748 0.0
C221 C 0.11752 0.55717 0.21369 0.0
H222 H 0.06433 0.51139 0.28849 0.0
C223 C 0.09874 0.53254 0.23696 0.0
C224 C 0.07878 0.53089 0.27291 0.0
H225 H 0.09924 0.51434 0.227 0.0
H226 H 0.96867 0.54497 0.39895 0.0
H227 H 1.00645 0.55181 0.34174 0.0
H228 H 1.02701 0.50855 0.46077 0.0
H229 H 0.98937 0.50201 0.51863 0.0
H230 H 0.04963 0.51923 0.36977 0.0
H231 H 0.05027 0.56845 0.31876 0.0
H232 H 0.09484 0.59653 0.27276 0.0
H233 H 0.12992 0.59946 0.21007 0.0
C234 C 0.59549 0.09326 0.40024 0.0
C235 C 0.58598 0.108 0.37046 0.0
C236 C 0.57823 0.07158 0.43326 0.0
C237 C 0.55089 0.06403 0.43758 0.0
C238 C 0.54138 0.07887 0.40811 0.0
C239 C 0.55876 0.10076 0.37524 0.0
C240 C 0.53166 0.03985 0.46947 0.0
C241 C 0.53909 0.02996 0.51272 0.0
C242 C 0.52062 1.00487 0.54285 0.0
C243 C 0.52722 1.00126 0.59716 0.0
C244 C 0.51127 0.97746 0.62596 0.0
C245 C 0.48838 0.95633 0.60094 0.0
H246 H 0.49235 0.98548 0.47532 0.0
C247 C 0.48184 0.95997 0.54634 0.0
C248 C 0.49771 0.98389 0.51769 0.0
H249 H 0.46475 0.94416 0.52499 0.0
H250 H 0.6163 0.09815 0.39737 0.0
H251 H 0.5863 0.0603 0.45378 0.0
H252 H 0.52039 0.07339 0.41018 0.0
H253 H 0.55074 0.11155 0.35255 0.0
H254 H 0.51068 0.03031 0.45741 0.0
H255 H 0.55956 0.04103 0.52801 0.0
H256 H 0.54484 1.01697 0.61754 0.0
H257 H 0.51696 0.97581 0.66798 0.0
C258 C 0.55545 0.50744 0.76181 0.0
C259 C 0.54643 0.48039 0.74876 0.0
C260 C 0.55405 0.52474 0.72231 0.0
C261 C 0.54372 0.51537 0.66863 0.0
C262 C 0.53524 0.48849 0.65551 0.0
C263 C 0.53641 0.47122 0.69499 0.0
C264 C 0.54235 0.53295 0.62438 0.0
C265 C 0.54127 0.55562 0.63441 0.0
C266 C 0.5397 0.57299 0.5898 0.0
C267 C 0.53046 0.59095 0.60363 0.0
C268 C 0.52977 0.60841 0.56384 0.0
C269 C 0.53813 0.60822 0.5092 0.0
H270 H 0.55656 0.56038 0.52259 0.0
C271 C 0.54785 0.59073 0.49528 0.0
C272 C 0.54845 0.57314 0.53491 0.0
H273 H 0.55512 0.59076 0.45369 0.0
H274 H 0.56326 0.51516 0.8028 0.0
H275 H 0.56147 0.54546 0.7338 0.0
H276 H 0.52751 0.48069 0.61446 0.0
H277 H 0.52972 0.45069 0.683 0.0
H278 H 0.54081 0.526 0.58182 0.0
H279 H 0.54046 0.56133 0.67713 0.0
H280 H 0.52404 0.59174 0.64562 0.0
H281 H 0.52358 0.62272 0.57626 0.0
C282 C 0.27571 0.58239 0.20572 0.0
C283 C 0.25185 0.5576 0.20321 0.0
C284 C 0.29807 0.5851 0.23539 0.0
C285 C 0.29701 0.563 0.26326 0.0
C286 C 0.27303 0.53843 0.2612 0.0
C287 C 0.25084 0.53573 0.23159 0.0
C288 C 0.31971 0.56449 0.29671 0.0
C289 C 0.34549 0.58431 0.29396 0.0
C290 C 0.36737 0.58455 0.32846 0.0
C291 C 0.39417 0.5992 0.31053 0.0
C292 C 0.41506 0.59957 0.34191 0.0
C293 C 0.40957 0.58537 0.3921 0.0
H294 H 0.34201 0.56029 0.39627 0.0
C295 C 0.38285 0.57117 0.41049 0.0
C296 C 0.36209 0.57091 0.37944 0.0
H297 H 0.37786 0.56036 0.4494 0.0
H298 H 0.27724 0.59964 0.18425 0.0
H299 H 0.31588 0.60456 0.23679 0.0
H300 H 0.27138 0.5211 0.28267 0.0
H301 H 0.23273 0.51647 0.23161 0.0
H302 H 0.31483 0.54752 0.3235 0.0
H303 H 0.35116 0.60029 0.264 0.0
H304 H 0.39896 0.61018 0.27184 0.0
H305 H 0.43543 0.61087 0.32671 0.0
C306 C 0.7369 0.25702 0.36179 0.0
C307 C 0.70878 0.24453 0.3661 0.0
C308 C 0.75342 0.2788 0.3958 0.0
C309 C 0.74228 0.28888 0.4349 0.0
C310 C 0.7142 0.27635 0.43938 0.0
C311 C 0.69764 0.25456 0.40523 0.0
C312 C 0.75926 0.3117 0.47284 0.0
C313 C 0.7848 0.33032 0.46114 0.0
C314 C 0.80209 0.35334 0.49824 0.0
C315 C 0.82406 0.37581 0.47484 0.0
C316 C 0.84114 0.39777 0.5078 0.0
C317 C 0.83689 0.39775 0.56535 0.0
H318 H 0.78172 0.33596 0.57603 0.0
C319 C 0.81515 0.37511 0.58913 0.0
C320 C 0.79793 0.35314 0.556 0.0
H321 H 0.81136 0.37437 0.63335 0.0
H322 H 0.74627 0.25004 0.33197 0.0
H323 H 0.7749 0.28723 0.39187 0.0
H324 H 0.705 0.28345 0.46945 0.0
H325 H 0.67613 0.24526 0.41033 0.0
H326 H 0.7499 0.31374 0.51041 0.0
H327 H 0.79326 0.32959 0.42123 0.0
H328 H 0.82797 0.37649 0.43064 0.0
H329 H 0.85772 0.41478 0.488 0.0
C330 C 0.46516 0.80361 0.70506 0.0
C331 C 0.46875 0.81246 0.76058 0.0
C332 C 0.46556 0.78011 0.6906 0.0
C333 C 0.46948 0.76478 0.73143 0.0
C334 C 0.4737 0.774 0.78664 0.0
C335 C 0.47317 0.79743 0.80115 0.0
C336 C 0.47023 0.7397 0.71772 0.0
C337 C 0.45747 0.72409 0.67341 0.0
C338 C 0.45882 0.69964 0.65659 0.0
C339 C 0.4513 0.69009 0.60206 0.0
C340 C 0.45289 0.66787 0.58304 0.0
C341 C 0.46183 0.65432 0.61816 0.0
H342 H 0.47238 0.69177 0.73529 0.0
C343 C 0.46848 0.66315 0.67344 0.0
C344 C 0.46707 0.68563 0.69251 0.0
H345 H 0.4754 0.65309 0.70149 0.0
H346 H 0.4619 0.81477 0.67265 0.0
H347 H 0.46321 0.77435 0.64725 0.0
H348 H 0.47709 0.76285 0.81889 0.0
H349 H 0.47613 0.80368 0.84429 0.0
H350 H 0.48151 0.73406 0.74555 0.0
H351 H 0.44583 0.72977 0.64665 0.0
H352 H 0.44453 0.70014 0.57354 0.0
H353 H 0.44708 0.66129 0.54058 0.0
C354 C 0.66525 0.46626 0.8431 0.0
C355 C 0.66212 0.46648 0.90108 0.0
C356 C 0.68972 0.47116 0.81994 0.0
C357 C 0.7117 0.47636 0.85428 0.0
C358 C 0.70869 0.47711 0.91212 0.0
C359 C 0.6842 0.47209 0.93529 0.0
C360 C 0.73827 0.48205 0.83153 0.0
C361 C 0.74169 0.47385 0.78093 0.0
C362 C 0.76835 0.47973 0.75823 0.0
C363 C 0.76937 0.46359 0.7152 0.0
C364 C 0.79393 0.46886 0.69182 0.0
C365 C 0.81813 0.49065 0.7105 0.0
H366 H 0.79278 0.51501 0.80876 0.0
C367 C 0.81707 0.50686 0.75343 0.0
C368 C 0.79256 0.50156 0.77686 0.0
H369 H 0.83523 0.52368 0.76933 0.0
H370 H 0.64874 0.46216 0.81542 0.0
H371 H 0.69135 0.47122 0.77515 0.0
H372 H 0.7253 0.48134 0.93966 0.0
H373 H 0.68257 0.4725 0.98008 0.0
H374 H 0.75545 0.4924 0.85893 0.0
H375 H 0.7242 0.4614 0.75561 0.0
H376 H 0.75108 0.4468 0.69951 0.0
H377 H 0.79388 0.45614 0.65844 0.0
C378 C 0.36542 0.79423 0.87458 0.0
C379 C 0.36186 0.81516 0.85351 0.0
C380 C 0.3438 0.77133 0.89731 0.0
C381 C 0.31806 0.76884 0.89973 0.0
C382 C 0.31451 0.78962 0.87805 0.0
C383 C 0.33609 0.81248 0.85545 0.0
C384 C 0.29418 0.74467 0.92233 0.0
C385 C 0.29555 0.72696 0.95718 0.0
C386 C 0.27156 0.70264 0.97912 0.0
C387 C 0.27459 0.6898 0.026 0.0
C388 C 0.25295 0.66635 0.04671 0.0
C389 C 0.22767 0.65505 1.02083 0.0
H390 H 0.24295 0.69994 0.91621 0.0
C391 C 0.22453 0.66794 0.97415 0.0
C392 C 0.24619 0.69134 0.95334 0.0
H393 H 0.20543 0.65967 0.9528 0.0
H394 H 0.38496 0.79559 0.87401 0.0
H395 H 0.34739 0.75555 0.91201 0.0
H396 H 0.29491 0.7882 0.87862 0.0
H397 H 0.33241 0.82789 0.8388 0.0
H398 H 0.2747 0.74216 0.91119 0.0
H399 H 0.315 0.73071 0.97205 0.0
H400 H 0.29387 0.69785 0.0466 0.0
H401 H 0.25614 0.65691 0.08262 0.0
C402 C 0.55063 0.33229 0.04733 0.0
C403 C 0.56813 0.35077 1.00807 0.0
C404 C 0.55708 0.31455 0.07411 0.0
C405 C 0.58137 0.31486 0.06268 0.0
C406 C 0.59877 0.33315 0.02312 0.0
C407 C 0.59233 0.35098 0.9964 0.0
C408 C 0.5887 0.29581 0.08948 0.0
C409 C 0.57873 0.2838 0.13881 0.0
C410 C 0.5856 0.26449 0.16588 0.0
C411 C 0.5813 0.25998 0.2233 0.0
C412 C 0.58683 0.24163 0.25035 0.0
C413 C 0.59657 0.22704 0.22053 0.0
H414 H 0.59806 0.25195 0.09139 0.0
C415 C 0.60061 0.2313 0.16291 0.0
C416 C 0.59518 0.24975 0.13587 0.0
H417 H 0.60797 0.22033 0.13851 0.0
H418 H 0.53192 0.33158 0.05793 0.0
H419 H 0.54268 0.30035 0.10296 0.0
H420 H 0.61748 0.33371 1.01291 0.0
H421 H 0.60615 0.36467 0.96601 0.0
H422 H 0.60364 0.29249 0.06858 0.0
H423 H 0.56567 0.28904 0.16197 0.0
H424 H 0.57371 0.2708 0.24752 0.0
H425 H 0.58341 0.23886 0.29469 0.0
loop_
_geom_bond_atom_site_label_1
_geom_bond_atom_site_label_2
_geom_bond_distance
_geom_bond_site_symmetry_2
_ccdc_geom_bond_type
Cu0 N1 1.999 . S
Cu0 O6 1.974 . S
Cu0 N11 1.985 . S
Cu0 O20 1.959 . S
N1 Cu0 1.999 . S
N1 C3 1.263 . S
N1 C5 1.389 1_554 S
N2 C3 1.358 1_556 S
N2 C4 1.400 . S
C3 N1 1.263 . S
C3 N2 1.358 1_554 S
C3 H9 0.930 . S
C4 N2 1.400 . S
C4 C5 1.351 . S
C4 H21 0.930 . S
C5 N1 1.389 1_556 S
C5 C4 1.351 . S
C5 H10 0.930 . S
O6 Cu0 1.974 . S
O6 C16 1.282 . S
C7 O8 1.261 . S
C7 O20 1.251 . S
O8 C7 1.261 . S
H9 C3 0.930 . S
H10 C5 0.930 . S
N11 Cu0 1.985 . S
N11 C13 1.335 . S
N11 C14 1.390 . S
N12 C13 1.345 . S
N12 C15 1.336 . S
C13 N11 1.335 . S
C13 N12 1.345 . S
C13 H18 0.930 . S
C14 N11 1.390 . S
C14 C15 1.346 . S
C14 H19 0.930 . S
C15 N12 1.336 . S
C15 C14 1.346 . S
C15 H22 0.929 . S
C16 O6 1.282 . S
C16 O17 1.216 . S
O17 C16 1.216 . S
H18 C13 0.930 . S
H19 C14 0.930 . S
O20 Cu0 1.959 . S
O20 C7 1.251 . S
H21 C4 0.930 . S
H22 C15 0.929 . S
Cu23 N24 1.999 . S
Cu23 O29 1.974 . S
Cu23 N34 1.985 . S
Cu23 O43 1.959 . S
N24 Cu23 1.999 . S
N24 C26 1.263 . S
N24 C28 1.389 . S
N25 C26 1.358 . S
N25 C27 1.400 . S
C26 N24 1.263 . S
C26 N25 1.358 . S
C26 H32 0.930 . S
C27 N25 1.400 . S
C27 C28 1.351 . S
C27 H44 0.930 . S
C28 N24 1.389 . S
C28 C27 1.351 . S
C28 H33 0.930 . S
O29 Cu23 1.974 . S
O29 C39 1.282 . S
C30 O31 1.261 . S
C30 O43 1.251 . S
O31 C30 1.261 . S
H32 C26 0.930 . S
H33 C28 0.930 . S
N34 Cu23 1.985 . S
N34 C36 1.335 . S
N34 C37 1.390 . S
N35 C36 1.345 . S
N35 C38 1.336 . S
C36 N34 1.335 . S
C36 N35 1.345 . S
C36 H41 0.930 . S
C37 N34 1.390 . S
C37 C38 1.346 . S
C37 H42 0.930 . S
C38 N35 1.336 . S
C38 C37 1.346 . S
C38 H45 0.929 . S
C39 O29 1.282 . S
C39 O40 1.216 . S
O40 C39 1.216 . S
H41 C36 0.930 . S
H42 C37 0.930 . S
O43 Cu23 1.959 . S
O43 C30 1.251 . S
H44 C27 0.930 . S
H45 C38 0.929 . S
Cu46 N47 1.999 . S
Cu46 O52 1.974 . S
Cu46 N57 1.985 . S
Cu46 O66 1.959 . S
N47 Cu46 1.999 . S
N47 C49 1.263 . S
N47 C51 1.389 . S
N48 C49 1.358 . S
N48 C50 1.400 . S
C49 N47 1.263 . S
C49 N48 1.358 . S
C49 H55 0.930 . S
C50 N48 1.400 . S
C50 C51 1.351 . S
C50 H67 0.930 . S
C51 N47 1.389 . S
C51 C50 1.351 . S
C51 H56 0.930 . S
O52 Cu46 1.974 . S
O52 C62 1.282 . S
C53 O54 1.261 . S
C53 O66 1.251 . S
O54 C53 1.261 . S
H55 C49 0.930 . S
H56 C51 0.930 . S
N57 Cu46 1.985 . S
N57 C59 1.335 . S
N57 C60 1.390 . S
N58 C59 1.345 . S
N58 C61 1.336 . S
C59 N57 1.335 . S
C59 N58 1.345 . S
C59 H64 0.930 . S
C60 N57 1.390 . S
C60 C61 1.346 . S
C60 H65 0.930 . S
C61 N58 1.336 . S
C61 C60 1.346 . S
C61 H68 0.929 . S
C62 O52 1.282 . S
C62 O63 1.216 . S
O63 C62 1.216 . S
H64 C59 0.930 . S
H65 C60 0.930 . S
O66 Cu46 1.959 . S
O66 C53 1.251 . S
H67 C50 0.930 . S
H68 C61 0.929 . S
Cu69 N70 1.999 . S
Cu69 O75 1.974 . S
Cu69 N80 1.985 . S
Cu69 O89 1.959 . S
N70 Cu69 1.999 . S
N70 C72 1.263 . S
N70 C74 1.389 . S
N71 C72 1.358 . S
N71 C73 1.400 . S
C72 N70 1.263 . S
C72 N71 1.358 . S
C72 H78 0.930 . S
C73 N71 1.400 . S
C73 C74 1.351 . S
C73 H90 0.930 . S
C74 N70 1.389 . S
C74 C73 1.351 . S
C74 H79 0.930 . S
O75 Cu69 1.974 . S
O75 C85 1.282 . S
C76 O77 1.261 . S
C76 O89 1.251 . S
O77 C76 1.261 . S
H78 C72 0.930 . S
H79 C74 0.930 . S
N80 Cu69 1.985 . S
N80 C82 1.335 . S
N80 C83 1.390 . S
N81 C82 1.345 . S
N81 C84 1.336 . S
C82 N80 1.335 . S
C82 N81 1.345 . S
C82 H87 0.930 . S
C83 N80 1.390 . S
C83 C84 1.346 . S
C83 H88 0.930 . S
C84 N81 1.336 . S
C84 C83 1.346 . S
C84 H91 0.929 . S
C85 O75 1.282 . S
C85 O86 1.216 . S
O86 C85 1.216 . S
H87 C82 0.930 . S
H88 C83 0.930 . S
O89 Cu69 1.959 . S
O89 C76 1.251 . S
H90 C73 0.930 . S
H91 C84 0.929 . S
Cu92 N93 1.999 . S
Cu92 O98 1.974 . S
Cu92 N103 1.985 . S
Cu92 O112 1.959 . S
N93 Cu92 1.999 . S
N93 C95 1.263 . S
N93 C97 1.389 . S
N94 C95 1.358 . S
N94 C96 1.400 . S
C95 N93 1.263 . S
C95 N94 1.358 . S
C95 H101 0.930 . S
C96 N94 1.400 . S
C96 C97 1.351 . S
C96 H113 0.930 . S
C97 N93 1.389 . S
C97 C96 1.351 . S
C97 H102 0.930 . S
O98 Cu92 1.974 . S
O98 C108 1.282 . S
C99 O100 1.261 . S
C99 O112 1.251 . S
O100 C99 1.261 . S
H101 C95 0.930 . S
H102 C97 0.930 . S
N103 Cu92 1.985 . S
N103 C105 1.335 . S
N103 C106 1.390 . S
N104 C105 1.345 . S
N104 C107 1.336 . S
C105 N103 1.335 . S
C105 N104 1.345 . S
C105 H110 0.930 . S
C106 N103 1.390 . S
C106 C107 1.346 . S
C106 H111 0.930 . S
C107 N104 1.336 . S
C107 C106 1.346 . S
C107 H114 0.929 . S
C108 O98 1.282 . S
C108 O109 1.216 . S
O109 C108 1.216 . S
H110 C105 0.930 . S
H111 C106 0.930 . S
O112 Cu92 1.959 . S
O112 C99 1.251 . S
H113 C96 0.930 . S
H114 C107 0.929 . S
Cu115 N116 1.999 . S
Cu115 O121 1.974 . S
Cu115 N126 1.985 . S
Cu115 O135 1.959 . S
N116 Cu115 1.999 . S
N116 C118 1.263 . S
N116 C120 1.389 . S
N117 C118 1.358 . S
N117 C119 1.400 . S
C118 N116 1.263 . S
C118 N117 1.358 . S
C118 H124 0.930 . S
C119 N117 1.400 . S
C119 C120 1.351 . S
C119 H136 0.930 . S
C120 N116 1.389 . S
C120 C119 1.351 . S
C120 H125 0.930 . S
O121 Cu115 1.974 . S
O121 C131 1.282 . S
C122 O123 1.261 . S
C122 O135 1.251 . S
O123 C122 1.261 . S
H124 C118 0.930 . S
H125 C120 0.930 . S
N126 Cu115 1.985 . S
N126 C128 1.335 . S
N126 C129 1.390 1_556 S
N127 C128 1.345 1_554 S
N127 C130 1.336 . S
C128 N126 1.335 . S
C128 N127 1.345 1_556 S
C128 H133 0.930 . S
C129 N126 1.390 1_554 S
C129 C130 1.346 . S
C129 H134 0.930 . S
C130 N127 1.336 . S
C130 C129 1.346 . S
C130 H137 0.929 . S
C131 O121 1.282 . S
C131 O132 1.216 . S
O132 C131 1.216 . S
H133 C128 0.930 . S
H134 C129 0.930 . S
O135 Cu115 1.959 . S
O135 C122 1.251 . S
H136 C119 0.930 . S
H137 C130 0.929 . S
C138 C139 1.386 . S
C138 C140 1.383 . S
C138 H154 0.951 . S
C139 C138 1.386 . S
C139 C143 1.383 . S
C140 C138 1.383 . S
C140 C141 1.402 . S
C140 H155 0.951 . S
C141 C140 1.402 . S
C141 C142 1.375 . S
C141 C144 1.481 1_455 S
C142 C141 1.375 . S
C142 C143 1.367 . S
C142 H156 0.951 . S
C143 C139 1.383 . S
C143 C142 1.367 . S
C143 H157 0.950 . S
C144 C141 1.481 1_655 S
C144 C145 1.297 . S
C144 H158 0.950 . S
C145 C144 1.297 . S
C145 C146 1.479 . S
C145 H159 0.950 . S
C146 C145 1.479 . S
C146 C147 1.375 . S
C146 C152 1.404 . S
C147 C146 1.375 . S
C147 C148 1.369 . S
C147 H160 0.950 . S
C148 C147 1.369 . S
C148 C149 1.392 . S
C148 H161 0.951 . S
C149 C148 1.392 . S
C149 C151 1.384 . S
H150 C152 0.949 . S
C151 C149 1.384 . S
C151 C152 1.385 . S
C151 H153 0.950 . S
C152 C146 1.404 . S
C152 H150 0.949 . S
C152 C151 1.385 . S
H153 C151 0.950 . S
H154 C138 0.951 . S
H155 C140 0.951 . S
H156 C142 0.951 . S
H157 C143 0.950 . S
H158 C144 0.950 . S
H159 C145 0.950 . S
H160 C147 0.950 . S
H161 C148 0.951 . S
C162 C163 1.386 . S
C162 C164 1.383 . S
C162 H178 0.951 . S
C163 C162 1.386 . S
C163 C167 1.383 . S
C164 C162 1.383 . S
C164 C165 1.402 . S
C164 H179 0.951 . S
C165 C164 1.402 . S
C165 C166 1.375 . S
C165 C168 1.481 . S
C166 C165 1.375 . S
C166 C167 1.367 . S
C166 H180 0.951 . S
C167 C163 1.383 . S
C167 C166 1.367 . S
C167 H181 0.950 . S
C168 C165 1.481 . S
C168 C169 1.297 1_565 S
C168 H182 0.950 . S
C169 C168 1.297 1_545 S
C169 C170 1.479 1_556 S
C169 H183 0.950 . S
C170 C169 1.479 1_554 S
C170 C171 1.375 . S
C170 C176 1.404 . S
C171 C170 1.375 . S
C171 C172 1.369 . S
C171 H184 0.950 . S
C172 C171 1.369 . S
C172 C173 1.392 . S
C172 H185 0.951 . S
C173 C172 1.392 . S
C173 C175 1.384 . S
H174 C176 0.949 . S
C175 C173 1.384 . S
C175 C176 1.385 . S
C175 H177 0.950 . S
C176 C170 1.404 . S
C176 H174 0.949 . S
C176 C175 1.385 . S
H177 C175 0.950 . S
H178 C162 0.951 . S
H179 C164 0.951 . S
H180 C166 0.951 . S
H181 C167 0.950 . S
H182 C168 0.950 . S
H183 C169 0.950 . S
H184 C171 0.950 . S
H185 C172 0.951 . S
C186 C187 1.386 . S
C186 C188 1.383 . S
C186 H202 0.951 . S
C187 C186 1.386 . S
C187 C191 1.383 . S
C188 C186 1.383 . S
C188 C189 1.402 . S
C188 H203 0.951 . S
C189 C188 1.402 . S
C189 C190 1.375 . S
C189 C192 1.481 . S
C190 C189 1.375 . S
C190 C191 1.367 . S
C190 H204 0.951 . S
C191 C187 1.383 . S
C191 C190 1.367 . S
C191 H205 0.950 . S
C192 C189 1.481 . S
C192 C193 1.297 . S
C192 H206 0.950 . S
C193 C192 1.297 . S
C193 C194 1.479 . S
C193 H207 0.950 . S
C194 C193 1.479 . S
C194 C195 1.375 . S
C194 C200 1.404 . S
C195 C194 1.375 . S
C195 C196 1.369 . S
C195 H208 0.950 . S
C196 C195 1.369 . S
C196 C197 1.392 . S
C196 H209 0.951 . S
C197 C196 1.392 . S
C197 C199 1.384 . S
H198 C200 0.949 . S
C199 C197 1.384 . S
C199 C200 1.385 . S
C199 H201 0.950 . S
C200 C194 1.404 . S
C200 H198 0.949 . S
C200 C199 1.385 . S
H201 C199 0.950 . S
H202 C186 0.951 . S
H203 C188 0.951 . S
H204 C190 0.951 . S
H205 C191 0.950 . S
H206 C192 0.950 . S
H207 C193 0.950 . S
H208 C195 0.950 . S
H209 C196 0.951 . S
C210 C211 1.386 . S
C210 C212 1.383 . S
C210 H226 0.951 . S
C211 C210 1.386 . S
C211 C215 1.383 . S
C212 C210 1.383 . S
C212 C213 1.402 . S
C212 H227 0.951 . S
C213 C212 1.402 . S
C213 C214 1.375 . S
C213 C216 1.481 1_655 S
C214 C213 1.375 . S
C214 C215 1.367 . S
C214 H228 0.951 1_655 S
C215 C211 1.383 . S
C215 C214 1.367 . S
C215 H229 0.950 . S
C216 C213 1.481 1_455 S
C216 C217 1.297 . S
C216 H230 0.950 . S
C217 C216 1.297 . S
C217 C218 1.479 . S
C217 H231 0.950 1_455 S
C218 C217 1.479 . S
C218 C219 1.375 . S
C218 C224 1.404 . S
C219 C218 1.375 . S
C219 C220 1.369 . S
C219 H232 0.950 . S
C220 C219 1.369 . S
C220 C221 1.392 . S
C220 H233 0.951 . S
C221 C220 1.392 . S
C221 C223 1.384 . S
H222 C224 0.949 . S
C223 C221 1.384 . S
C223 C224 1.385 . S
C223 H225 0.950 . S
C224 C218 1.404 . S
C224 H222 0.949 . S
C224 C223 1.385 . S
H225 C223 0.950 . S
H226 C210 0.951 . S
H227 C212 0.951 . S
H228 C214 0.951 1_455 S
H229 C215 0.950 . S
H230 C216 0.950 . S
H231 C217 0.950 1_655 S
H232 C219 0.950 . S
H233 C220 0.951 . S
C234 C235 1.386 . S
C234 C236 1.383 . S
C234 H250 0.951 . S
C235 C234 1.386 . S
C235 C239 1.383 . S
C236 C234 1.383 . S
C236 C237 1.402 . S
C236 H251 0.951 . S
C237 C236 1.402 . S
C237 C238 1.375 . S
C237 C240 1.481 . S
C238 C237 1.375 . S
C238 C239 1.367 . S
C238 H252 0.951 . S
C239 C235 1.383 . S
C239 C238 1.367 . S
C239 H253 0.950 . S
C240 C237 1.481 . S
C240 C241 1.297 . S
C240 H254 0.950 1_545 S
C241 C240 1.297 . S
C241 C242 1.479 1_545 S
C241 H255 0.950 . S
C242 C241 1.479 1_565 S
C242 C243 1.375 . S
C242 C248 1.404 . S
C243 C242 1.375 . S
C243 C244 1.369 . S
C243 H256 0.950 . S
C244 C243 1.369 . S
C244 C245 1.392 . S
C244 H257 0.951 . S
C245 C244 1.392 . S
C245 C247 1.384 . S
H246 C248 0.949 . S
C247 C245 1.384 . S
C247 C248 1.385 . S
C247 H249 0.950 . S
C248 C242 1.404 . S
C248 H246 0.949 . S
C248 C247 1.385 . S
H249 C247 0.950 . S
H250 C234 0.951 . S
H251 C236 0.951 . S
H252 C238 0.951 . S
H253 C239 0.950 . S
H254 C240 0.950 1_565 S
H255 C241 0.950 . S
H256 C243 0.950 . S
H257 C244 0.951 . S
C258 C259 1.386 . S
C258 C260 1.383 . S
C258 H274 0.951 . S
C259 C258 1.386 . S
C259 C263 1.383 . S
C260 C258 1.383 . S
C260 C261 1.402 . S
C260 H275 0.951 . S
C261 C260 1.402 . S
C261 C262 1.375 . S
C261 C264 1.481 . S
C262 C261 1.375 . S
C262 C263 1.367 . S
C262 H276 0.951 . S
C263 C259 1.383 . S
C263 C262 1.367 . S
C263 H277 0.950 . S
C264 C261 1.481 . S
C264 C265 1.297 . S
C264 H278 0.950 . S
C265 C264 1.297 . S
C265 C266 1.479 . S
C265 H279 0.950 . S
C266 C265 1.479 . S
C266 C267 1.375 . S
C266 C272 1.404 . S
C267 C266 1.375 . S
C267 C268 1.369 . S
C267 H280 0.950 . S
C268 C267 1.369 . S
C268 C269 1.392 . S
C268 H281 0.951 . S
C269 C268 1.392 . S
C269 C271 1.384 . S
H270 C272 0.949 . S
C271 C269 1.384 . S
C271 C272 1.385 . S
C271 H273 0.950 . S
C272 C266 1.404 . S
C272 H270 0.949 . S
C272 C271 1.385 . S
H273 C271 0.950 . S
H274 C258 0.951 . S
H275 C260 0.951 . S
H276 C262 0.951 . S
H277 C263 0.950 . S
H278 C264 0.950 . S
H279 C265 0.950 . S
H280 C267 0.950 . S
H281 C268 0.951 . S
C282 C283 1.386 . S
C282 C284 1.383 . S
C282 H298 0.951 . S
C283 C282 1.386 . S
C283 C287 1.383 . S
C284 C282 1.383 . S
C284 C285 1.402 . S
C284 H299 0.951 . S
C285 C284 1.402 . S
C285 C286 1.375 . S
C285 C288 1.481 . S
C286 C285 1.375 . S
C286 C287 1.367 . S
C286 H300 0.951 . S
C287 C283 1.383 . S
C287 C286 1.367 . S
C287 H301 0.950 . S
C288 C285 1.481 . S
C288 C289 1.297 . S
C288 H302 0.950 . S
C289 C288 1.297 . S
C289 C290 1.479 . S
C289 H303 0.950 . S
C290 C289 1.479 . S
C290 C291 1.375 . S
C290 C296 1.404 . S
C291 C290 1.375 . S
C291 C292 1.369 . S
C291 H304 0.950 . S
C292 C291 1.369 . S
C292 C293 1.392 . S
C292 H305 0.951 . S
C293 C292 1.392 . S
C293 C295 1.384 . S
H294 C296 0.949 . S
C295 C293 1.384 . S
C295 C296 1.385 . S
C295 H297 0.950 . S
C296 C290 1.404 . S
C296 H294 0.949 . S
C296 C295 1.385 . S
H297 C295 0.950 . S
H298 C282 0.951 . S
H299 C284 0.951 . S
H300 C286 0.951 . S
H301 C287 0.950 . S
H302 C288 0.950 . S
H303 C289 0.950 . S
H304 C291 0.950 . S
H305 C292 0.951 . S
C306 C307 1.386 . S
C306 C308 1.383 . S
C306 H322 0.951 . S
C307 C306 1.386 . S
C307 C311 1.383 . S
C308 C306 1.383 . S
C308 C309 1.402 . S
C308 H323 0.951 . S
C309 C308 1.402 . S
C309 C310 1.375 . S
C309 C312 1.481 . S
C310 C309 1.375 . S
C310 C311 1.367 . S
C310 H324 0.951 . S
C311 C307 1.383 . S
C311 C310 1.367 . S
C311 H325 0.950 . S
C312 C309 1.481 . S
C312 C313 1.297 . S
C312 H326 0.950 . S
C313 C312 1.297 . S
C313 C314 1.479 . S
C313 H327 0.950 . S
C314 C313 1.479 . S
C314 C315 1.375 . S
C314 C320 1.404 . S
C315 C314 1.375 . S
C315 C316 1.369 . S
C315 H328 0.950 . S
C316 C315 1.369 . S
C316 C317 1.392 . S
C316 H329 0.951 . S
C317 C316 1.392 . S
C317 C319 1.384 . S
H318 C320 0.949 . S
C319 C317 1.384 . S
C319 C320 1.385 . S
C319 H321 0.950 . S
C320 C314 1.404 . S
C320 H318 0.949 . S
C320 C319 1.385 . S
H321 C319 0.950 . S
H322 C306 0.951 . S
H323 C308 0.951 . S
H324 C310 0.951 . S
H325 C311 0.950 . S
H326 C312 0.950 . S
H327 C313 0.950 . S
H328 C315 0.950 . S
H329 C316 0.951 . S
C330 C331 1.386 . S
C330 C332 1.383 . S
C330 H346 0.951 . S
C331 C330 1.386 . S
C331 C335 1.383 . S
C332 C330 1.383 . S
C332 C333 1.402 . S
C332 H347 0.951 . S
C333 C332 1.402 . S
C333 C334 1.375 . S
C333 C336 1.481 . S
C334 C333 1.375 . S
C334 C335 1.367 . S
C334 H348 0.951 . S
C335 C331 1.383 . S
C335 C334 1.367 . S
C335 H349 0.950 . S
C336 C333 1.481 . S
C336 C337 1.297 . S
C336 H350 0.950 . S
C337 C336 1.297 . S
C337 C338 1.479 . S
C337 H351 0.950 . S
C338 C337 1.479 . S
C338 C339 1.375 . S
C338 C344 1.404 . S
C339 C338 1.375 . S
C339 C340 1.369 . S
C339 H352 0.950 . S
C340 C339 1.369 . S
C340 C341 1.392 . S
C340 H353 0.951 . S
C341 C340 1.392 . S
C341 C343 1.384 . S
H342 C344 0.949 . S
C343 C341 1.384 . S
C343 C344 1.385 . S
C343 H345 0.950 . S
C344 C338 1.404 . S
C344 H342 0.949 . S
C344 C343 1.385 . S
H345 C343 0.950 . S
H346 C330 0.951 . S
H347 C332 0.951 . S
H348 C334 0.951 . S
H349 C335 0.950 . S
H350 C336 0.950 . S
H351 C337 0.950 . S
H352 C339 0.950 . S
H353 C340 0.951 . S
C354 C355 1.386 . S
C354 C356 1.383 . S
C354 H370 0.951 . S
C355 C354 1.386 . S
C355 C359 1.383 . S
C356 C354 1.383 . S
C356 C357 1.402 . S
C356 H371 0.951 . S
C357 C356 1.402 . S
C357 C358 1.375 . S
C357 C360 1.481 . S
C358 C357 1.375 . S
C358 C359 1.367 . S
C358 H372 0.951 . S
C359 C355 1.383 . S
C359 C358 1.367 . S
C359 H373 0.950 . S
C360 C357 1.481 . S
C360 C361 1.297 . S
C360 H374 0.950 . S
C361 C360 1.297 . S
C361 C362 1.479 . S
C361 H375 0.950 . S
C362 C361 1.479 . S
C362 C363 1.375 . S
C362 C368 1.404 . S
C363 C362 1.375 . S
C363 C364 1.369 . S
C363 H376 0.950 . S
C364 C363 1.369 . S
C364 C365 1.392 . S
C364 H377 0.951 . S
C365 C364 1.392 . S
C365 C367 1.384 . S
H366 C368 0.949 . S
C367 C365 1.384 . S
C367 C368 1.385 . S
C367 H369 0.950 . S
C368 C362 1.404 . S
C368 H366 0.949 . S
C368 C367 1.385 . S
H369 C367 0.950 . S
H370 C354 0.951 . S
H371 C356 0.951 . S
H372 C358 0.951 . S
H373 C359 0.950 . S
H374 C360 0.950 . S
H375 C361 0.950 . S
H376 C363 0.950 . S
H377 C364 0.951 . S
C378 C379 1.386 . S
C378 C380 1.383 . S
C378 H394 0.951 . S
C379 C378 1.386 . S
C379 C383 1.383 . S
C380 C378 1.383 . S
C380 C381 1.402 . S
C380 H395 0.951 . S
C381 C380 1.402 . S
C381 C382 1.375 . S
C381 C384 1.481 . S
C382 C381 1.375 . S
C382 C383 1.367 . S
C382 H396 0.951 . S
C383 C379 1.383 . S
C383 C382 1.367 . S
C383 H397 0.950 . S
C384 C381 1.481 . S
C384 C385 1.297 . S
C384 H398 0.950 . S
C385 C384 1.297 . S
C385 C386 1.479 . S
C385 H399 0.950 . S
C386 C385 1.479 . S
C386 C387 1.375 . S
C386 C392 1.404 . S
C387 C386 1.375 . S
C387 C388 1.374 . S
C387 H400 0.950 . S
C388 C387 1.374 . S
C388 C389 1.389 1_556 S
C388 H401 0.949 1_556 S
C389 C388 1.389 1_554 S
C389 C391 1.384 . S
H390 C392 0.949 . S
C391 C389 1.384 . S
C391 C392 1.385 1_554 S
C391 H393 0.950 . S
C392 C386 1.404 . S
C392 H390 0.949 . S
C392 C391 1.385 1_556 S
H393 C391 0.950 . S
H394 C378 0.951 . S
H395 C380 0.951 . S
H396 C382 0.951 . S
H397 C383 0.950 . S
H398 C384 0.950 . S
H399 C385 0.950 . S
H400 C387 0.950 . S
H401 C388 0.949 1_554 S
C402 C403 1.386 . S
C402 C404 1.383 . S
C402 H418 0.951 . S
C403 C402 1.386 . S
C403 C407 1.383 1_554 S
C404 C402 1.383 . S
C404 C405 1.402 . S
C404 H419 0.951 . S
C405 C404 1.402 . S
C405 C406 1.375 . S
C405 C408 1.481 . S
C406 C405 1.375 . S
C406 C407 1.367 1_554 S
C406 H420 0.951 1_554 S
C407 C403 1.383 1_556 S
C407 C406 1.367 1_556 S
C407 H421 0.950 . S
C408 C405 1.481 . S
C408 C409 1.297 . S
C408 H422 0.950 . S
C409 C408 1.297 . S
C409 C410 1.479 . S
C409 H423 0.950 . S
C410 C409 1.479 . S
C410 C411 1.375 . S
C410 C416 1.404 . S
C411 C410 1.375 . S
C411 C412 1.369 . S
C411 H424 0.950 . S
C412 C411 1.369 . S
C412 C413 1.392 . S
C412 H425 0.951 . S
C413 C412 1.392 . S
C413 C415 1.384 . S
H414 C416 0.949 . S
C415 C413 1.384 . S
C415 C416 1.385 . S
C415 H417 0.950 . S
C416 C410 1.404 . S
C416 H414 0.949 . S
C416 C415 1.385 . S
H417 C415 0.950 . S
H418 C402 0.951 . S
H419 C404 0.951 . S
H420 C406 0.951 1_556 S
H421 C407 0.950 . S
H422 C408 0.950 . S
H423 C409 0.950 . S
H424 C411 0.950 . S
H425 C412 0.951 . S
C139 N2 1.693 . S
C149 C85 1.678 . S
C163 C108 1.741 . S
C173 N25 1.608 . S
C187 N48 1.694 . S
C197 C131 1.685 1_554 S
C211 N71 1.676 . S
C221 C16 1.679 . S
C235 C39 1.733 . S
C245 N94 1.601 . S
C259 N117 1.670 . S
C269 C62 1.725 . S
C283 N12 1.591 . S
C293 C53 1.609 . S
C307 N35 1.613 . S
C317 C76 1.631 . S
C331 C99 1.602 . S
C341 N58 1.574 . S
C355 C122 1.603 . S
C365 N81 1.569 . S
C379 N104 1.587 . S
C389 C7 1.596 . S
C403 N127 1.614 . S
C413 C30 1.598 . S
