# Generated by pormake.
# Topology atn, (4)-cn, num edge types: 1
# Building blocks:
#     Node 0, Type 0, BuildingBlock: GALJAG_clean_sbu_0, # of connection points: 4
#     Node 1, Type 0, BuildingBlock: GALJAG_clean_sbu_0, # of connection points: 4
#     Node 2, Type 0, BuildingBlock: GALJAG_clean_sbu_0, # of connection points: 4
#     Node 3, Type 0, BuildingBlock: GALJAG_clean_sbu_0, # of connection points: 4
#     Node 4, Type 0, BuildingBlock: GALJAG_clean_sbu_0, # of connection points: 4
#     Node 5, Type 0, BuildingBlock: GALJAG_clean_sbu_0, # of connection points: 4
#     Node 6, Type 0, BuildingBlock: GALJAG_clean_sbu_0, # of connection points: 4
#     Node 7, Type 0, BuildingBlock: GALJAG_clean_sbu_0, # of connection points: 4
#     Node 8, Type 0, BuildingBlock: GALJAG_clean_sbu_0, # of connection points: 4
#     Node 9, Type 0, BuildingBlock: GALJAG_clean_sbu_0, # of connection points: 4
#     Node 10, Type 0, BuildingBlock: GALJAG_clean_sbu_0, # of connection points: 4
#     Node 11, Type 0, BuildingBlock: GALJAG_clean_sbu_0, # of connection points: 4
#     Node 12, Type 0, BuildingBlock: GALJAG_clean_sbu_0, # of connection points: 4
#     Node 13, Type 0, BuildingBlock: GALJAG_clean_sbu_0, # of connection points: 4
#     Node 14, Type 0, BuildingBlock: GALJAG_clean_sbu_0, # of connection points: 4
#     Node 15, Type 0, BuildingBlock: GALJAG_clean_sbu_0, # of connection points: 4
#     Edge 16, Type (0, 0), BuildingBlock: UVAHIK_clean_linker_0, # of connection points: 2
#     Edge 17, Type (0, 0), BuildingBlock: UVAHIK_clean_linker_0, # of connection points: 2
#     Edge 18, Type (0, 0), BuildingBlock: UVAHIK_clean_linker_0, # of connection points: 2
#     Edge 19, Type (0, 0), BuildingBlock: UVAHIK_clean_linker_0, # of connection points: 2
#     Edge 20, Type (0, 0), BuildingBlock: UVAHIK_clean_linker_0, # of connection points: 2
#     Edge 21, Type (0, 0), BuildingBlock: UVAHIK_clean_linker_0, # of connection points: 2
#     Edge 22, Type (0, 0), BuildingBlock: UVAHIK_clean_linker_0, # of connection points: 2
#     Edge 23, Type (0, 0), BuildingBlock: UVAHIK_clean_linker_0, # of connection points: 2
#     Edge 24, Type (0, 0), BuildingBlock: UVAHIK_clean_linker_0, # of connection points: 2
#     Edge 25, Type (0, 0), BuildingBlock: UVAHIK_clean_linker_0, # of connection points: 2
#     Edge 26, Type (0, 0), BuildingBlock: UVAHIK_clean_linker_0, # of connection points: 2
#     Edge 27, Type (0, 0), BuildingBlock: UVAHIK_clean_linker_0, # of connection points: 2
#     Edge 28, Type (0, 0), BuildingBlock: UVAHIK_clean_linker_0, # of connection points: 2
#     Edge 29, Type (0, 0), BuildingBlock: UVAHIK_clean_linker_0, # of connection points: 2
#     Edge 30, Type (0, 0), BuildingBlock: UVAHIK_clean_linker_0, # of connection points: 2
#     Edge 31, Type (0, 0), BuildingBlock: UVAHIK_clean_linker_0, # of connection points: 2
#     Edge 32, Type (0, 0), BuildingBlock: UVAHIK_clean_linker_0, # of connection points: 2
#     Edge 33, Type (0, 0), BuildingBlock: UVAHIK_clean_linker_0, # of connection points: 2
#     Edge 34, Type (0, 0), BuildingBlock: UVAHIK_clean_linker_0, # of connection points: 2
#     Edge 35, Type (0, 0), BuildingBlock: UVAHIK_clean_linker_0, # of connection points: 2
#     Edge 36, Type (0, 0), BuildingBlock: UVAHIK_clean_linker_0, # of connection points: 2
#     Edge 37, Type (0, 0), BuildingBlock: UVAHIK_clean_linker_0, # of connection points: 2
#     Edge 38, Type (0, 0), BuildingBlock: UVAHIK_clean_linker_0, # of connection points: 2
#     Edge 39, Type (0, 0), BuildingBlock: UVAHIK_clean_linker_0, # of connection points: 2
#     Edge 40, Type (0, 0), BuildingBlock: UVAHIK_clean_linker_0, # of connection points: 2
#     Edge 41, Type (0, 0), BuildingBlock: UVAHIK_clean_linker_0, # of connection points: 2
#     Edge 42, Type (0, 0), BuildingBlock: UVAHIK_clean_linker_0, # of connection points: 2
#     Edge 43, Type (0, 0), BuildingBlock: UVAHIK_clean_linker_0, # of connection points: 2
#     Edge 44, Type (0, 0), BuildingBlock: UVAHIK_clean_linker_0, # of connection points: 2
#     Edge 45, Type (0, 0), BuildingBlock: UVAHIK_clean_linker_0, # of connection points: 2
#     Edge 46, Type (0, 0), BuildingBlock: UVAHIK_clean_linker_0, # of connection points: 2
#     Edge 47, Type (0, 0), BuildingBlock: UVAHIK_clean_linker_0, # of connection points: 2
# Relax obj value: 0.083
# Max RMSD: 0.111
# Mean RMSD: 0.111
data_MOF--net-atn--node1-GALJAG_clean_sbu_0--edge1-UVAHIK_clean_linker_0
_symmetry_space_group_name_H-M    P1
_symmetry_Int_Tables_number       1
_symmetry_cell_setting            triclinic
loop_
_symmetry_equiv_pos_as_xyz
'x, y, z'
_cell_length_a     75.497339
_cell_length_b     75.525079
_cell_length_c     36.896544
_cell_angle_alpha  89.984882
_cell_angle_beta   90.028938
_cell_angle_gamma 90.168764
loop_
_atom_site_label
_atom_site_type_symbol
_atom_site_fract_x
_atom_site_fract_y
_atom_site_fract_z
_atom_type_partial_charge
In0 In 0.1811 0.36762 0.00511 0.0
O1 O 0.15916 0.35916 0.04461 0.0
O2 O 0.1841 0.36708 0.06613 0.0
C3 C 0.16501 0.36532 0.93985 0.0
C4 C 0.18605 0.40261 0.01143 0.0
C5 C 0.2067 0.34301 -0.00022 0.0
O6 O 0.15829 0.3587 0.96814 0.0
O7 O 0.17959 0.37312 0.94472 0.0
O8 O 0.20999 0.35937 0.00093 0.0
O9 O 0.19048 0.33905 0.00116 0.0
C10 C 0.16855 0.36181 0.07248 0.0
O11 O 0.19862 0.39207 0.00504 0.0
O12 O 0.17094 0.3955 0.01392 0.0
In13 In 0.62618 0.18409 0.99652 0.0
O14 O 0.63169 0.16 0.0326 0.0
O15 O 0.63907 0.18551 0.05192 0.0
C16 C 0.62362 0.17033 0.9293 0.0
C17 C 0.59216 0.18885 0.01533 0.0
C18 C 0.64969 0.21012 0.9845 0.0
O19 O 0.6332 0.16335 0.95346 0.0
O20 O 0.61544 0.18399 0.93927 0.0
O21 O 0.63414 0.2131 0.9956 0.0
O22 O 0.65333 0.19399 0.97947 0.0
C23 C 0.63827 0.16912 0.05799 0.0
O24 O 0.60205 0.20165 0.00647 0.0
O25 O 0.59954 0.1739 0.01509 0.0
In26 In 0.80506 0.62105 -0.00015 0.0
O27 O 0.78836 0.59599 0.00036 0.0
O28 O 0.8164 0.59351 0.00563 0.0
C29 C 0.77942 0.64572 -0.00207 0.0
C30 C 0.81805 0.62597 0.06709 0.0
C31 C 0.81964 0.62369 0.9333 0.0
O32 O 0.77608 0.62934 -0.00201 0.0
O33 O 0.79567 0.64961 -0.00146 0.0
O34 O 0.82735 0.62967 0.96118 0.0
O35 O 0.80483 0.61654 0.93924 0.0
C36 C 0.80151 0.58585 0.0045 0.0
O37 O 0.82676 0.63043 0.03923 0.0
O38 O 0.80302 0.61939 0.06076 0.0
In39 In 0.36187 0.80586 -0.00213 0.0
O40 O 0.35023 0.82704 0.03548 0.0
O41 O 0.36319 0.80483 0.05896 0.0
C42 C 0.3606 0.8196 0.93068 0.0
C43 C 0.39717 0.8038 0.00223 0.0
C44 C 0.33754 0.77988 0.993 0.0
O45 O 0.35482 0.82802 0.95784 0.0
O46 O 0.36671 0.80446 0.93766 0.0
O47 O 0.35384 0.77674 -0.00311 0.0
O48 O 0.33357 0.79607 0.99183 0.0
C49 C 0.35513 0.81919 0.06405 0.0
O50 O 0.38744 0.79015 0.00131 0.0
O51 O 0.38902 0.81838 0.00128 0.0
In52 In 0.17636 0.62326 0.0038 0.0
O53 O 0.15311 0.63184 0.96775 0.0
O54 O 0.17174 0.61359 0.9465 0.0
C55 C 0.16506 0.63331 0.06995 0.0
C56 C 0.18418 0.58937 0.0188 0.0
C57 C 0.20201 0.64673 0.98835 0.0
O58 O 0.15489 0.62582 0.0475 0.0
O59 O 0.18052 0.63615 0.05857 0.0
O60 O 0.20518 0.63074 0.99595 0.0
O61 O 0.18579 0.65086 0.98815 0.0
C62 C 0.1579 0.62246 0.94118 0.0
O63 O 0.19563 0.60013 0.00705 0.0
O64 O 0.16889 0.59573 0.02284 0.0
In65 In 0.36787 0.18537 0.00092 0.0
O66 O 0.39316 0.20174 0.00412 0.0
O67 O 0.39517 0.17358 0.00685 0.0
C68 C 0.34301 0.21077 -0.00173 0.0
C69 C 0.36605 0.17195 0.93335 0.0
C70 C 0.36161 0.17146 0.06686 0.0
O71 O 0.35934 0.21431 0.00022 0.0
O72 O 0.33932 0.19448 -0.00239 0.0
O73 O 0.3578 0.16315 0.0381 0.0
O74 O 0.3683 0.18659 0.06205 0.0
C75 C 0.40307 0.18835 0.00728 0.0
O76 O 0.36005 0.16362 0.96047 0.0
O77 O 0.37285 0.18679 0.94054 0.0
In78 In 0.81308 0.36366 0.00445 0.0
O79 O 0.83598 0.35368 0.96901 0.0
O80 O 0.81826 0.37259 0.94685 0.0
C81 C 0.82384 0.35344 0.07106 0.0
C82 C 0.80635 0.39803 0.01708 0.0
C83 C 0.78661 0.34124 0.98824 0.0
O84 O 0.83419 0.36094 0.049 0.0
O85 O 0.80845 0.35073 0.05914 0.0
O86 O 0.78397 0.35715 -0.00271 0.0
O87 O 0.80269 0.33665 0.98723 0.0
C88 C 0.83164 0.36298 0.94198 0.0
O89 O 0.79446 0.38731 0.00715 0.0
O90 O 0.82155 0.39137 0.02069 0.0
In91 In 0.62247 0.80763 0.00538 0.0
O92 O 0.63258 0.82924 0.96688 0.0
O93 O 0.62025 0.80641 0.94428 0.0
C94 C 0.62688 0.82167 0.0719 0.0
C95 C 0.58707 0.80529 0.00458 0.0
C96 C 0.64644 0.78132 0.00597 0.0
O97 O 0.63169 0.82976 0.04355 0.0
O98 O 0.61997 0.80669 0.06647 0.0
O99 O 0.62998 0.7784 0.00555 0.0
O100 O 0.65074 0.79746 0.00618 0.0
C101 C 0.62767 0.82112 0.93863 0.0
O102 O 0.59687 0.79176 0.00541 0.0
O103 O 0.59517 0.81994 0.00422 0.0
In104 In 0.68765 0.86668 0.50463 0.0
O105 O 0.66612 0.85718 0.54408 0.0
O106 O 0.68939 0.86928 0.56546 0.0
C107 C 0.67384 0.86287 0.43784 0.0
C108 C 0.68961 0.90205 0.50499 0.0
C109 C 0.71348 0.84226 0.50357 0.0
O110 O 0.66576 0.85741 0.46575 0.0
O111 O 0.68868 0.86996 0.44388 0.0
O112 O 0.71676 0.85866 0.50404 0.0
O113 O 0.69725 0.83828 0.50359 0.0
C114 C 0.67457 0.86223 0.57186 0.0
O115 O 0.70331 0.89245 0.5048 0.0
O116 O 0.67506 0.89373 0.50508 0.0
In117 In 0.12526 0.6754 0.51113 0.0
O118 O 0.10243 0.69448 0.50118 0.0
O119 O 0.09837 0.66713 0.48991 0.0
C120 C 0.14878 0.70084 0.52784 0.0
C121 C 0.12164 0.65906 0.57571 0.0
C122 C 0.13729 0.6621 0.44807 0.0
O123 O 0.1331 0.70422 0.51819 0.0
O124 O 0.15256 0.68457 0.52935 0.0
O125 O 0.13 0.65243 0.4717 0.0
O126 O 0.13891 0.67814 0.45679 0.0
C127 C 0.09197 0.68254 0.49031 0.0
O128 O 0.13229 0.65355 0.55188 0.0
O129 O 0.11293 0.67255 0.56672 0.0
In130 In 0.30682 0.12416 0.50273 0.0
O131 O 0.29004 0.09919 0.50487 0.0
O132 O 0.318 0.09642 0.49902 0.0
C133 C 0.28112 0.14873 0.5063 0.0
C134 C 0.3228 0.12801 0.56764 0.0
C135 C 0.31865 0.12846 0.4344 0.0
O136 O 0.27787 0.13234 0.50661 0.0
O137 O 0.29732 0.1527 0.50422 0.0
O138 O 0.32786 0.13297 0.46153 0.0
O139 O 0.30368 0.12204 0.44194 0.0
C140 C 0.30308 0.08889 0.50145 0.0
O141 O 0.32989 0.13348 0.53867 0.0
O142 O 0.30791 0.1207 0.56359 0.0
In143 In 0.86431 0.30549 0.51111 0.0
O144 O 0.85718 0.32728 0.55193 0.0
O145 O 0.87558 0.30752 0.56779 0.0
C146 C 0.85278 0.31884 0.44763 0.0
C147 C 0.898 0.29911 0.49195 0.0
C148 C 0.84049 0.28014 0.52653 0.0
O149 O 0.85924 0.3286 0.47213 0.0
O150 O 0.85178 0.30265 0.45562 0.0
O151 O 0.85632 0.27669 0.51802 0.0
O152 O 0.83672 0.29642 0.52741 0.0
C153 C 0.86714 0.32123 0.57648 0.0
O154 O 0.88754 0.28685 0.50125 0.0
O155 O 0.89139 0.31442 0.49223 0.0
In156 In 0.67766 0.12639 0.5017 0.0
O157 O 0.69534 0.10198 0.50077 0.0
O158 O 0.66766 0.0985 0.49225 0.0
C159 C 0.70369 0.14933 0.51793 0.0
C160 C 0.6685 0.13432 0.43291 0.0
C161 C 0.6588 0.12896 0.56342 0.0
O162 O 0.70649 0.13304 0.51275 0.0
O163 O 0.68771 0.15404 0.51489 0.0
O164 O 0.65465 0.1376 0.53532 0.0
O165 O 0.67215 0.11916 0.55994 0.0
C166 C 0.68268 0.09137 0.49507 0.0
O167 O 0.65713 0.12982 0.45627 0.0
O168 O 0.68415 0.13518 0.44453 0.0
In169 In 0.86998 0.67994 0.50139 0.0
O170 O 0.8605 0.65801 0.46279 0.0
O171 O 0.87027 0.68206 0.44026 0.0
C172 C 0.86709 0.66488 0.56755 0.0
C173 C 0.9051 0.68406 0.4952 0.0
C174 C 0.84575 0.70598 0.50464 0.0
O175 O 0.86109 0.65752 0.53934 0.0
O176 O 0.87459 0.67957 0.56217 0.0
O177 O 0.86218 0.70899 0.50461 0.0
O178 O 0.84154 0.68982 0.50327 0.0
C179 C 0.86401 0.66683 0.43454 0.0
O180 O 0.89476 0.69696 0.49987 0.0
O181 O 0.89773 0.66902 0.49441 0.0
In182 In 0.30259 0.86447 0.50286 0.0
O183 O 0.32261 0.85555 0.45998 0.0
O184 O 0.29701 0.86377 0.44267 0.0
C185 C 0.32035 0.86302 0.56597 0.0
C186 C 0.29917 0.89966 0.49806 0.0
C187 C 0.27822 0.83908 0.51471 0.0
O188 O 0.32661 0.85651 0.53713 0.0
O189 O 0.30538 0.87021 0.56263 0.0
O190 O 0.27407 0.85518 0.5112 0.0
O191 O 0.29454 0.83589 0.51192 0.0
C192 C 0.31215 0.85829 0.43378 0.0
O193 O 0.28604 0.88962 0.50391 0.0
O194 O 0.31387 0.89188 0.49476 0.0
In195 In 0.11998 0.30652 0.50757 0.0
O196 O 0.09573 0.28877 0.5052 0.0
O197 O 0.09195 0.3167 0.50121 0.0
C198 C 0.14525 0.28147 0.51076 0.0
C199 C 0.12512 0.31983 0.44064 0.0
C200 C 0.1215 0.32117 0.57422 0.0
O201 O 0.12895 0.2778 0.51054 0.0
O202 O 0.1488 0.29778 0.50951 0.0
O203 O 0.1274 0.32912 0.54656 0.0
O204 O 0.11491 0.30614 0.568 0.0
C205 C 0.08501 0.30145 0.50125 0.0
O206 O 0.1296 0.32836 0.46871 0.0
O207 O 0.11839 0.30483 0.44661 0.0
C208 C 0.17476 0.55947 0.03957 0.0
C209 C 0.18807 0.57061 0.0259 0.0
C210 C 0.17788 0.54143 0.04393 0.0
C211 C 0.20489 0.50596 0.00651 0.0
H212 H 0.18333 0.4788 0.08416 0.0
C213 C 0.20558 0.42937 0.01048 0.0
C214 C 0.18887 0.42172 0.0167 0.0
C215 C 0.2082 0.4475 0.01581 0.0
C216 C 0.18945 0.48623 0.06236 0.0
H217 H 0.2153 0.57186 0.00735 0.0
H218 H 0.2208 0.54018 0.01509 0.0
H219 H 0.18362 0.51107 0.0874 0.0
H220 H 0.16188 0.42687 0.03372 0.0
H221 H 0.16645 0.45849 0.04294 0.0
H222 H 0.21029 0.48109 0.98104 0.0
C223 C 0.2079 0.54541 0.0221 0.0
C224 C 0.18962 0.50467 0.0642 0.0
C225 C 0.20478 0.56351 0.01779 0.0
C226 C 0.17489 0.43243 0.02864 0.0
C227 C 0.17755 0.45049 0.03424 0.0
C228 C 0.20479 0.4875 0.00475 0.0
C229 C 0.19439 0.53415 0.03473 0.0
C230 C 0.19684 0.51472 0.03575 0.0
C231 C 0.19421 0.4582 0.0278 0.0
C232 C 0.19659 0.47751 0.03214 0.0
H233 H 0.16176 0.56459 0.04611 0.0
H234 H 0.16711 0.53308 0.05319 0.0
H235 H 0.21041 0.51334 0.98399 0.0
H236 H 0.2166 0.42138 0.00135 0.0
H237 H 0.22118 0.45313 0.01075 0.0
C238 C 0.43108 0.20614 0.0082 0.0
C239 C 0.42242 0.18973 0.0113 0.0
C240 C 0.44951 0.2072 0.01127 0.0
C241 C 0.4892 0.17931 0.00253 0.0
H242 H 0.51293 0.2172 0.05453 0.0
C243 C 0.56303 0.17583 0.03205 0.0
C244 C 0.57306 0.19076 0.02228 0.0
C245 C 0.54465 0.17683 0.03404 0.0
C246 C 0.50644 0.20663 0.03976 0.0
H247 H 0.42608 0.16166 0.02108 0.0
H248 H 0.45809 0.16352 0.02703 0.0
H249 H 0.48052 0.21678 0.05092 0.0
H250 H 0.5719 0.2187 0.00899 0.0
H251 H 0.53955 0.22044 0.01239 0.0
H252 H 0.51496 0.16908 0.99151 0.0
C253 C 0.45077 0.17553 0.02144 0.0
C254 C 0.48794 0.2064 0.0376 0.0
C255 C 0.43242 0.17447 0.0182 0.0
C256 C 0.56445 0.20698 0.01649 0.0
C257 C 0.54598 0.20799 0.01853 0.0
C258 C 0.50759 0.17949 0.00485 0.0
C259 C 0.45955 0.19185 0.01758 0.0
C260 C 0.47914 0.19262 0.01922 0.0
C261 C 0.53592 0.19278 0.02629 0.0
C262 C 0.51639 0.19303 0.02376 0.0
H263 H 0.42366 0.21812 0.00292 0.0
H264 H 0.45592 0.21994 0.00789 0.0
H265 H 0.48285 0.16876 0.98739 0.0
H266 H 0.56933 0.16319 0.03703 0.0
H267 H 0.53721 0.16499 0.04076 0.0
C268 C 0.78618 0.42422 0.01589 0.0
C269 C 0.80301 0.41703 0.02255 0.0
C270 C 0.78342 0.44245 0.01884 0.0
C271 C 0.8033 0.48361 0.05568 0.0
H272 H 0.77908 0.50628 0.97544 0.0
C273 C 0.81441 0.55632 0.0183 0.0
C274 C 0.79962 0.56658 0.00903 0.0
C275 C 0.81267 0.53813 0.02358 0.0
C276 C 0.78562 0.50012 -0.00167 0.0
H277 H 0.83 0.4231 0.03848 0.0
H278 H 0.82529 0.45484 0.04319 0.0
H279 H 0.77964 0.47403 0.97928 0.0
H280 H 0.77142 0.56594 -0.00215 0.0
H281 H 0.76841 0.53395 0.00672 0.0
H282 H 0.80981 0.50971 0.07397 0.0
C283 C 0.81414 0.44645 0.03616 0.0
C284 C 0.78591 0.48167 0.00059 0.0
C285 C 0.81689 0.42828 0.03319 0.0
C286 C 0.78304 0.55831 0.00493 0.0
C287 C 0.78133 0.54005 0.00994 0.0
C288 C 0.80307 0.50203 0.05332 0.0
C289 C 0.79745 0.45377 0.0286 0.0
C290 C 0.79513 0.47323 0.02882 0.0
C291 C 0.79612 0.52982 0.01947 0.0
C292 C 0.79459 0.51044 0.02417 0.0
H293 H 0.77522 0.41581 0.00777 0.0
H294 H 0.77038 0.4477 0.01319 0.0
H295 H 0.81021 0.47748 0.07813 0.0
H296 H 0.82734 0.56235 0.02167 0.0
H297 H 0.82435 0.53051 0.03034 0.0
C298 C 0.55903 0.7876 0.0044 0.0
C299 C 0.5676 0.80413 0.00387 0.0
C300 C 0.54056 0.7866 0.00348 0.0
C301 C 0.50126 0.81242 0.97756 0.0
H302 H 0.47611 0.78053 0.04209 0.0
C303 C 0.4267 0.81856 0.00274 0.0
C304 C 0.41664 0.8029 0.0032 0.0
C305 C 0.44513 0.81786 0.00229 0.0
C306 C 0.48297 0.78934 0.02361 0.0
H307 H 0.56367 0.83255 0.00219 0.0
H308 H 0.53146 0.83082 0.0009 0.0
H309 H 0.50848 0.78081 0.04193 0.0
H310 H 0.41791 0.77422 0.00405 0.0
H311 H 0.45028 0.77299 0.00317 0.0
H312 H 0.47582 0.82108 0.95947 0.0
C313 C 0.53898 0.81863 0.00153 0.0
C314 C 0.50148 0.78949 0.02351 0.0
C315 C 0.55741 0.81963 0.00249 0.0
C316 C 0.42536 0.7865 0.00373 0.0
C317 C 0.44385 0.78579 0.00336 0.0
C318 C 0.4828 0.81227 0.97769 0.0
C319 C 0.53036 0.80212 0.00191 0.0
C320 C 0.51079 0.8012 0.00079 0.0
C321 C 0.4539 0.80148 0.00232 0.0
C322 C 0.47347 0.8009 0.00103 0.0
H323 H 0.56659 0.77544 0.00541 0.0
H324 H 0.53427 0.77369 0.0035 0.0
H325 H 0.50808 0.82133 0.95924 0.0
H326 H 0.42033 0.8314 0.00246 0.0
H327 H 0.45254 0.83016 0.0021 0.0
C328 C 0.70186 0.06443 0.49763 0.0
C329 C 0.68498 0.07203 0.49406 0.0
C330 C 0.70373 0.04604 0.49912 0.0
C331 C 0.67871 0.00627 0.52361 0.0
H332 H 0.71346 0.98081 0.46661 0.0
C333 C 0.67464 0.93133 0.50402 0.0
C334 C 0.69038 0.92152 0.50496 0.0
C335 C 0.67516 0.94976 0.50394 0.0
C336 C 0.70387 0.98777 0.4831 0.0
H337 H 0.65692 0.06645 0.48828 0.0
H338 H 0.6602 0.03442 0.49086 0.0
H339 H 0.71232 0.01315 0.46346 0.0
H340 H 0.71905 0.92322 0.50651 0.0
H341 H 0.71998 0.9556 0.50676 0.0
H342 H 0.67019 0.98105 0.54327 0.0
C343 C 0.67194 0.04264 0.4929 0.0
C344 C 0.70321 0.00624 0.48123 0.0
C345 C 0.67008 0.06096 0.49119 0.0
C346 C 0.70671 0.93049 0.50575 0.0
C347 C 0.70724 0.94899 0.50572 0.0
C348 C 0.67942 0.98788 0.52562 0.0
C349 C 0.68874 0.03502 0.49737 0.0
C350 C 0.69039 0.0156 0.50097 0.0
C351 C 0.69145 0.9588 0.50494 0.0
C352 C 0.69178 0.9784 0.50488 0.0
H353 H 0.71356 0.07269 0.49988 0.0
H354 H 0.71682 0.04046 0.50267 0.0
H355 H 0.66894 0.01321 0.53971 0.0
H356 H 0.66186 0.92478 0.50319 0.0
H357 H 0.66278 0.95694 0.50264 0.0
C358 C 0.9349 0.67191 0.48049 0.0
C359 C 0.92427 0.68643 0.48975 0.0
C360 C 0.95299 0.67418 0.4745 0.0
C361 C 0.99014 0.7027 0.49846 0.0
H362 H 0.0137 0.6778 0.42028 0.0
C363 C 0.06604 0.70293 0.48551 0.0
C364 C 0.07334 0.68599 0.481 0.0
C365 C 0.04793 0.70564 0.48013 0.0
C366 C 0.0073 0.68484 0.44223 0.0
H367 H 0.92413 0.71472 0.49992 0.0
H368 H 0.9559 0.71866 0.48977 0.0
H369 H 0.98142 0.67736 0.424 0.0
H370 H 0.06771 0.65882 0.46572 0.0
H371 H 0.03618 0.66347 0.45684 0.0
H372 H 0.01598 0.70958 0.5176 0.0
C373 C 0.95019 0.70554 0.48717 0.0
C374 C 0.98886 0.68457 0.44435 0.0
C375 C 0.93205 0.70328 0.49293 0.0
C376 C 0.06242 0.67202 0.46949 0.0
C377 C 0.04437 0.67472 0.4641 0.0
C378 C 0.0086 0.7029 0.49644 0.0
C379 C 0.96082 0.69101 0.47784 0.0
C380 C 0.98014 0.69312 0.47302 0.0
C381 C 0.03686 0.69147 0.47007 0.0
C382 C 0.01738 0.69358 0.46884 0.0
H383 H 0.92924 0.65878 0.47779 0.0
H384 H 0.96093 0.6627 0.46791 0.0
H385 H 0.98376 0.70929 0.521 0.0
H386 H 0.0742 0.71395 0.4942 0.0
H387 H 0.04253 0.71873 0.48454 0.0
C388 C 0.31585 0.05879 0.49302 0.0
C389 C 0.30105 0.06952 0.49963 0.0
C390 C 0.31396 0.04047 0.49051 0.0
C391 C 0.28539 0.00362 0.51781 0.0
H392 H 0.31096 0.97839 0.4428 0.0
C393 C 0.28129 0.92749 0.50071 0.0
C394 C 0.29765 0.91905 0.4955 0.0
C395 C 0.28012 0.94594 0.49882 0.0
C396 C 0.30381 0.98525 0.46399 0.0
H397 H 0.2727 0.06956 0.50903 0.0
H398 H 0.2694 0.03741 0.50472 0.0
H399 H 0.31191 0.01064 0.44432 0.0
H400 H 0.32554 0.92317 0.48408 0.0
H401 H 0.32353 0.95525 0.48112 0.0
H402 H 0.2776 0.97817 0.53793 0.0
C403 C 0.28245 0.04322 0.5016 0.0
C404 C 0.30435 0.00369 0.46486 0.0
C405 C 0.28433 0.06159 0.50394 0.0
C406 C 0.31274 0.92931 0.48812 0.0
C407 C 0.31157 0.94768 0.48616 0.0
C408 C 0.28486 0.98513 0.51699 0.0
C409 C 0.29725 0.0325 0.49467 0.0
C410 C 0.29542 0.01304 0.49216 0.0
C411 C 0.29527 0.9562 0.49154 0.0
C412 C 0.29435 0.97577 0.49046 0.0
H413 H 0.32891 0.06455 0.48965 0.0
H414 H 0.32564 0.03251 0.48572 0.0
H415 H 0.27848 0.0105 0.53931 0.0
H416 H 0.26944 0.91987 0.50639 0.0
H417 H 0.26736 0.95216 0.50284 0.0
C418 C 0.05492 0.31298 0.487 0.0
C419 C 0.0659 0.29864 0.49569 0.0
C420 C 0.03689 0.31033 0.48079 0.0
C421 C 0.0003 0.28077 0.50292 0.0
H422 H 0.9766 0.30587 0.42511 0.0
C423 C 0.92438 0.27925 0.48774 0.0
C424 C 0.9168 0.29608 0.48353 0.0
C425 C 0.9426 0.27692 0.48305 0.0
C426 C 0.98304 0.29877 0.44695 0.0
H427 H 0.06672 0.27027 0.50474 0.0
H428 H 0.03504 0.26567 0.49423 0.0
H429 H 0.00883 0.30691 0.42953 0.0
H430 H 0.92208 0.32349 0.4696 0.0
H431 H 0.95376 0.31952 0.46185 0.0
H432 H 0.97451 0.27322 0.52125 0.0
C433 C 0.04043 0.27894 0.49221 0.0
C434 C 0.00146 0.29938 0.44947 0.0
C435 C 0.05852 0.28158 0.49818 0.0
C436 C 0.92758 0.31037 0.4731 0.0
C437 C 0.94572 0.30805 0.46836 0.0
C438 C 0.98186 0.28023 0.50049 0.0
C439 C 0.02948 0.2933 0.48334 0.0
C440 C 0.01022 0.29078 0.47803 0.0
C441 C 0.95349 0.29138 0.47393 0.0
C442 C 0.97302 0.28963 0.47306 0.0
H443 H 0.06026 0.32627 0.48486 0.0
H444 H 0.02869 0.32169 0.47458 0.0
H445 H 0.00673 0.27411 0.52534 0.0
H446 H 0.91634 0.26799 0.49564 0.0
H447 H 0.94821 0.26389 0.48716 0.0
C448 C 0.2164 0.31148 -0.00336 0.0
C449 C 0.22075 0.32955 -0.00225 0.0
C450 C 0.22972 0.29871 0.99569 0.0
C451 C 0.27702 0.29241 0.9744 0.0
H452 H 0.27193 0.25071 0.03491 0.0
C453 C 0.33383 0.24255 -0.00218 0.0
C454 C 0.32923 0.22453 -0.00282 0.0
C455 C 0.32067 0.25552 -0.00277 0.0
C456 C 0.27346 0.26219 0.01758 0.0
H457 H 0.24238 0.3485 -0.00157 0.0
H458 H 0.26567 0.32619 -0.00286 0.0
H459 H 0.24873 0.27305 0.03476 0.0
H460 H 0.30734 0.20589 0.99511 0.0
H461 H 0.2844 0.2285 0.99385 0.0
H462 H 0.30181 0.28153 0.95735 0.0
C463 C 0.25198 0.32189 -0.00343 0.0
C464 C 0.26016 0.27497 0.01746 0.0
C465 C 0.23865 0.33465 -0.00249 0.0
C466 C 0.31127 0.21969 0.99575 0.0
C467 C 0.29813 0.23263 0.99523 0.0
C468 C 0.29034 0.27961 0.97455 0.0
C469 C 0.24765 0.30378 0.99585 0.0
C470 C 0.26178 0.2902 0.99582 0.0
C471 C 0.30268 0.25067 0.99609 0.0
C472 C 0.28867 0.26436 0.99608 0.0
H473 H 0.2027 0.30717 -0.00334 0.0
H474 H 0.22597 0.28487 0.99463 0.0
H475 H 0.27854 0.3039 0.95709 0.0
H476 H 0.34758 0.24665 -0.00104 0.0
H477 H 0.32456 0.26932 -0.00172 0.0
C478 C 0.77544 0.31104 0.97233 0.0
C479 C 0.77195 0.32876 0.9813 0.0
C480 C 0.76153 0.29897 0.96818 0.0
C481 C 0.71584 0.29159 -0.00208 0.0
H482 H 0.71542 0.25541 0.92336 0.0
C483 C 0.65815 0.24212 0.98474 0.0
C484 C 0.66283 0.22435 0.97911 0.0
C485 C 0.67083 0.25551 0.98137 0.0
C486 C 0.71543 0.26537 0.94448 0.0
H487 H 0.75123 0.34791 0.99178 0.0
H488 H 0.72695 0.32685 0.98437 0.0
H489 H 0.7389 0.27774 0.92373 0.0
H490 H 0.68429 0.20666 0.96482 0.0
H491 H 0.70649 0.23001 0.95949 0.0
H492 H 0.69266 0.27908 0.01919 0.0
C493 C 0.74042 0.32224 0.98099 0.0
C494 C 0.72885 0.27815 0.94466 0.0
C495 C 0.75431 0.33431 0.98505 0.0
C496 C 0.68031 0.22026 0.96929 0.0
C497 C 0.693 0.23364 0.96601 0.0
C498 C 0.70248 0.2788 -0.00219 0.0
C499 C 0.7439 0.30439 0.97301 0.0
C500 C 0.72925 0.29132 0.97153 0.0
C501 C 0.68844 0.2514 0.9724 0.0
C502 C 0.70218 0.26547 0.97124 0.0
H503 H 0.78892 0.30641 0.96926 0.0
H504 H 0.76463 0.28527 0.96236 0.0
H505 H 0.71596 0.30139 0.01935 0.0
H506 H 0.64474 0.24567 0.99213 0.0
H507 H 0.66685 0.2691 0.98594 0.0
C508 C 0.76996 0.67734 -0.00121 0.0
C509 C 0.76544 0.6593 -0.00197 0.0
C510 C 0.75677 0.69023 -9e-05 0.0
C511 C 0.70955 0.69773 0.98053 0.0
H512 H 0.7157 0.7379 0.04483 0.0
C513 C 0.65439 0.7492 0.00534 0.0
C514 C 0.65969 0.76704 0.00594 0.0
C515 C 0.66702 0.73573 0.00498 0.0
C516 C 0.71387 0.72685 0.0265 0.0
H517 H 0.74363 0.64055 -0.00243 0.0
H518 H 0.72055 0.66311 -0.00025 0.0
H519 H 0.73831 0.71496 0.04263 0.0
H520 H 0.68232 0.7848 0.00661 0.0
H521 H 0.70435 0.76131 0.00566 0.0
H522 H 0.68512 0.70968 0.96429 0.0
C523 C 0.73428 0.66728 -0.00086 0.0
C524 C 0.72681 0.71372 0.02522 0.0
C525 C 0.74748 0.65438 -0.00194 0.0
C526 C 0.67784 0.77116 0.00626 0.0
C527 C 0.69046 0.75771 0.00593 0.0
C528 C 0.69659 0.71087 0.98179 0.0
C529 C 0.7388 0.68534 0.00028 0.0
C530 C 0.72484 0.69908 0.00208 0.0
C531 C 0.68519 0.73985 0.00527 0.0
C532 C 0.69867 0.72562 0.00464 0.0
H533 H 0.7837 0.68152 -0.00132 0.0
H534 H 0.76066 0.70405 0.00022 0.0
H535 H 0.70776 0.6867 0.96211 0.0
H536 H 0.64048 0.74565 0.00515 0.0
H537 H 0.66257 0.72208 0.00486 0.0
C538 C 0.21227 0.67776 0.9774 0.0
C539 C 0.21627 0.6598 0.98264 0.0
C540 C 0.22584 0.69032 0.975 0.0
C541 C 0.27202 0.6972 0.003 0.0
H542 H 0.27011 0.73708 0.93693 0.0
C543 C 0.32904 0.74787 0.99135 0.0
C544 C 0.32411 0.76576 0.98973 0.0
C545 C 0.31625 0.73456 0.98826 0.0
C546 C 0.27075 0.72608 0.95571 0.0
H547 H 0.23755 0.64076 0.98811 0.0
H548 H 0.26124 0.66264 0.98352 0.0
H549 H 0.24705 0.71439 0.93449 0.0
H550 H 0.30201 0.7838 0.98349 0.0
H551 H 0.27968 0.76057 0.97845 0.0
H552 H 0.29559 0.70896 0.02451 0.0
C553 C 0.24763 0.66707 0.98187 0.0
C554 C 0.25756 0.7131 0.9543 0.0
C555 C 0.23407 0.65454 0.98428 0.0
C556 C 0.3062 0.77011 0.98479 0.0
C557 C 0.29342 0.75681 0.98165 0.0
C558 C 0.2852 0.71017 0.0044 0.0
C559 C 0.24366 0.68513 0.97779 0.0
C560 C 0.25801 0.69857 0.97807 0.0
C561 C 0.2983 0.73889 0.98342 0.0
C562 C 0.28465 0.7248 0.98094 0.0
H563 H 0.19865 0.68219 0.97608 0.0
H564 H 0.22235 0.70415 0.97219 0.0
H565 H 0.27257 0.68633 0.02211 0.0
H566 H 0.34277 0.74415 0.99501 0.0
H567 H 0.32043 0.72086 0.98935 0.0
C568 C 0.83784 0.73806 0.50614 0.0
C569 C 0.83249 0.72024 0.50538 0.0
C570 C 0.82526 0.75157 0.50588 0.0
C571 C 0.77895 0.76047 0.48075 0.0
H572 H 0.78431 0.80142 0.54327 0.0
C573 C 0.72289 0.81066 0.50244 0.0
C574 C 0.72746 0.82869 0.50317 0.0
C575 C 0.73602 0.79772 0.5022 0.0
C576 C 0.78275 0.79017 0.52534 0.0
H577 H 0.80983 0.70253 0.5042 0.0
H578 H 0.78785 0.72612 0.5041 0.0
H579 H 0.80667 0.77815 0.54429 0.0
H580 H 0.74931 0.84737 0.50417 0.0
H581 H 0.77235 0.8247 0.5035 0.0
H582 H 0.75502 0.77242 0.46188 0.0
C583 C 0.80176 0.72966 0.50439 0.0
C584 C 0.79554 0.77685 0.52595 0.0
C585 C 0.81434 0.71616 0.50468 0.0
C586 C 0.74542 0.83356 0.50366 0.0
C587 C 0.75859 0.82059 0.50347 0.0
C588 C 0.76618 0.77377 0.48015 0.0
C589 C 0.80709 0.74751 0.5048 0.0
C590 C 0.79371 0.76181 0.5038 0.0
C591 C 0.75401 0.80254 0.50269 0.0
C592 C 0.76789 0.78871 0.50259 0.0
H593 H 0.85176 0.74158 0.50661 0.0
H594 H 0.82977 0.7652 0.50584 0.0
H595 H 0.77735 0.7492 0.46289 0.0
H596 H 0.70914 0.80652 0.50217 0.0
H597 H 0.73208 0.78392 0.50212 0.0
C598 C 0.24689 0.82872 0.5214 0.0
C599 C 0.26509 0.82498 0.52144 0.0
C600 C 0.23452 0.81516 0.52681 0.0
C601 C 0.22993 0.76675 0.51898 0.0
H602 H 0.18687 0.77412 0.57416 0.0
C603 C 0.17972 0.71052 0.54167 0.0
C604 C 0.162 0.71488 0.53451 0.0
C605 C 0.19253 0.72381 0.54481 0.0
C606 C 0.19882 0.77191 0.55858 0.0
H607 H 0.28469 0.8043 0.52813 0.0
H608 H 0.26317 0.78073 0.53808 0.0
H609 H 0.20895 0.79777 0.57049 0.0
H610 H 0.14361 0.73652 0.52641 0.0
H611 H 0.16598 0.75973 0.53171 0.0
H612 H 0.21977 0.741 0.50673 0.0
C613 C 0.25839 0.79402 0.5332 0.0
C614 C 0.21143 0.78545 0.5564 0.0
C615 C 0.27072 0.80754 0.52766 0.0
C616 C 0.15719 0.73278 0.53188 0.0
C617 C 0.16998 0.74607 0.53513 0.0
C618 C 0.21738 0.75322 0.52126 0.0
C619 C 0.24015 0.79764 0.53247 0.0
C620 C 0.22706 0.78307 0.5363 0.0
C621 C 0.18783 0.7417 0.54097 0.0
C622 C 0.20162 0.75571 0.5408 0.0
H623 H 0.24218 0.84205 0.51666 0.0
H624 H 0.22056 0.81835 0.52566 0.0
H625 H 0.24168 0.76458 0.50276 0.0
H626 H 0.18379 0.69682 0.54399 0.0
H627 H 0.20616 0.72007 0.54979 0.0
C628 C 0.2492 0.15714 0.5099 0.0
C629 C 0.26708 0.16222 0.508 0.0
C630 C 0.2359 0.16994 0.51116 0.0
C631 C 0.22807 0.21687 0.53305 0.0
H632 H 0.18592 0.21062 0.47425 0.0
C633 C 0.17707 0.27254 0.51126 0.0
C634 C 0.15909 0.26776 0.51187 0.0
C635 C 0.19017 0.25955 0.51169 0.0
C636 C 0.19751 0.21245 0.49116 0.0
H637 H 0.28513 0.18459 0.506 0.0
H638 H 0.2619 0.20694 0.50791 0.0
H639 H 0.20896 0.18808 0.47337 0.0
H640 H 0.14067 0.24569 0.51374 0.0
H641 H 0.16357 0.22298 0.51484 0.0
H642 H 0.21663 0.24127 0.55076 0.0
C643 C 0.25815 0.19309 0.50884 0.0
C644 C 0.2107 0.19954 0.49065 0.0
C645 C 0.27144 0.1803 0.50754 0.0
C646 C 0.15444 0.24976 0.51314 0.0
C647 C 0.16754 0.23676 0.51356 0.0
C648 C 0.21487 0.22977 0.53358 0.0
C649 C 0.24024 0.18805 0.51059 0.0
C650 C 0.22614 0.20164 0.51153 0.0
C651 C 0.18555 0.24151 0.51273 0.0
C652 C 0.19947 0.22771 0.51257 0.0
H653 H 0.24546 0.14329 0.51039 0.0
H654 H 0.22223 0.16565 0.51294 0.0
H655 H 0.2397 0.21872 0.54984 0.0
H656 H 0.18103 0.28633 0.51018 0.0
H657 H 0.20393 0.26362 0.51057 0.0
C658 C 0.80934 0.27058 0.53851 0.0
C659 C 0.8272 0.26617 0.53311 0.0
C660 C 0.79655 0.2573 0.54211 0.0
C661 C 0.78876 0.2108 0.51744 0.0
H662 H 0.7483 0.21515 0.5815 0.0
C663 C 0.73574 0.15621 0.52713 0.0
C664 C 0.7181 0.162 0.52562 0.0
C665 C 0.7495 0.16834 0.53239 0.0
C666 C 0.75949 0.21381 0.56337 0.0
H667 H 0.84582 0.24449 0.52866 0.0
H668 H 0.82354 0.22129 0.53548 0.0
H669 H 0.77179 0.23745 0.5834 0.0
H670 H 0.70092 0.18488 0.52944 0.0
H671 H 0.72497 0.2061 0.53835 0.0
H672 H 0.77641 0.18733 0.49705 0.0
C673 C 0.81935 0.23499 0.53625 0.0
C674 C 0.77293 0.22657 0.56444 0.0
C675 C 0.83213 0.24827 0.53253 0.0
C676 C 0.71441 0.18005 0.53045 0.0
C677 C 0.72817 0.19218 0.53578 0.0
C678 C 0.77538 0.19805 0.51645 0.0
C679 C 0.80138 0.23936 0.54048 0.0
C680 C 0.78763 0.22529 0.54121 0.0
C681 C 0.74587 0.18647 0.53632 0.0
C682 C 0.76052 0.1995 0.53914 0.0
H683 H 0.80516 0.28429 0.53904 0.0
H684 H 0.7828 0.26112 0.54492 0.0
H685 H 0.79974 0.20959 0.49872 0.0
H686 H 0.73897 0.14235 0.52369 0.0
H687 H 0.76299 0.16353 0.53316 0.0
C688 C 0.13973 0.33996 0.39545 0.0
C689 C 0.12745 0.32653 0.4034 0.0
C690 C 0.14266 0.34514 0.35949 0.0
C691 C 0.13651 0.32841 0.26554 0.0
H692 H 0.14914 0.37646 0.23892 0.0
C693 C 0.1461 0.35017 0.11659 0.0
C694 C 0.16205 0.35919 0.10982 0.0
C695 C 0.14046 0.34725 0.15223 0.0
C696 C 0.14563 0.36299 0.24604 0.0
H697 H 0.10791 0.30868 0.38048 0.0
H698 H 0.11244 0.31813 0.31826 0.0
H699 H 0.14172 0.36964 0.30185 0.0
H700 H 0.18434 0.37266 0.13481 0.0
H701 H 0.1744 0.36772 0.19686 0.0
H702 H 0.1403 0.32183 0.20965 0.0
C703 C 0.12036 0.32424 0.33933 0.0
C704 C 0.14148 0.35904 0.2821 0.0
C705 C 0.11766 0.31889 0.37506 0.0
C706 C 0.17202 0.3656 0.13921 0.0
C707 C 0.16628 0.3629 0.17473 0.0
C708 C 0.14044 0.3324 0.22949 0.0
C709 C 0.13317 0.33715 0.3309 0.0
C710 C 0.137 0.34166 0.29238 0.0
C711 C 0.15055 0.35354 0.18162 0.0
C712 C 0.1452 0.34968 0.21944 0.0
H713 H 0.14747 0.34603 0.41686 0.0
H714 H 0.15276 0.35499 0.35406 0.0
H715 H 0.13352 0.31479 0.27244 0.0
H716 H 0.13815 0.34512 0.09442 0.0
H717 H 0.12823 0.34007 0.15685 0.0
C718 C 0.64899 0.12993 0.37872 0.0
C719 C 0.66429 0.13724 0.39437 0.0
C720 C 0.64615 0.13122 0.34131 0.0
C721 C 0.67058 0.14079 0.25553 0.0
H722 H 0.6235 0.14729 0.21578 0.0
C723 C 0.65536 0.17071 0.1155 0.0
C724 C 0.64322 0.16165 0.09341 0.0
C725 C 0.65858 0.16499 0.15083 0.0
C726 C 0.63668 0.14522 0.22656 0.0
H727 H 0.6882 0.1523 0.38378 0.0
H728 H 0.68288 0.15536 0.31917 0.0
H729 H 0.62723 0.14359 0.28109 0.0
H730 H 0.62512 0.13937 0.09041 0.0
H731 H 0.63038 0.12965 0.15303 0.0
H732 H 0.68001 0.14345 0.20101 0.0
C733 C 0.67339 0.14796 0.33517 0.0
C734 C 0.63885 0.14308 0.26395 0.0
C735 C 0.67636 0.1464 0.37233 0.0
C736 C 0.63466 0.14648 0.10689 0.0
C737 C 0.63756 0.141 0.14263 0.0
C738 C 0.66842 0.14325 0.21831 0.0
C739 C 0.65844 0.14008 0.31898 0.0
C740 C 0.65587 0.14114 0.279 0.0
C741 C 0.64941 0.15035 0.16495 0.0
C742 C 0.65149 0.14571 0.2036 0.0
H743 H 0.63956 0.12267 0.39514 0.0
H744 H 0.63456 0.12485 0.32984 0.0
H745 H 0.68384 0.13881 0.26591 0.0
H746 H 0.6621 0.18245 0.10569 0.0
H747 H 0.66768 0.17247 0.16765 0.0
C748 C 0.86835 0.66926 0.36779 0.0
C749 C 0.86101 0.66016 0.39745 0.0
C750 C 0.86509 0.66357 0.33244 0.0
C751 C 0.83207 0.64056 0.2785 0.0
H752 H 0.86896 0.63847 0.20549 0.0
C753 C 0.81624 0.61902 0.13289 0.0
C754 C 0.82467 0.62809 0.10448 0.0
C755 C 0.82177 0.62134 0.16863 0.0
C756 C 0.85847 0.63918 0.22543 0.0
H757 H 0.84476 0.6378 0.41348 0.0
H758 H 0.83876 0.62799 0.35132 0.0
H759 H 0.87671 0.64514 0.26832 0.0
H760 H 0.84569 0.6465 0.09099 0.0
H761 H 0.85505 0.65112 0.15376 0.0
H762 H 0.81371 0.63532 0.23581 0.0
C763 C 0.84709 0.6395 0.35561 0.0
C764 C 0.86294 0.6429 0.26143 0.0
C765 C 0.85056 0.64507 0.39111 0.0
C766 C 0.83899 0.63933 0.11242 0.0
C767 C 0.84439 0.64187 0.14837 0.0
C768 C 0.82757 0.63705 0.24251 0.0
C769 C 0.85425 0.64878 0.32595 0.0
C770 C 0.84976 0.6437 0.28826 0.0
C771 C 0.83571 0.63303 0.17697 0.0
C772 C 0.8407 0.63637 0.21544 0.0
H773 H 0.87653 0.6809 0.37187 0.0
H774 H 0.87063 0.67108 0.31011 0.0
H775 H 0.82161 0.64139 0.29851 0.0
H776 H 0.8053 0.61007 0.12753 0.0
H777 H 0.81505 0.61397 0.18974 0.0
C778 C 0.30616 0.86226 0.36787 0.0
C779 C 0.31717 0.85577 0.3955 0.0
C780 C 0.31075 0.86009 0.33153 0.0
C781 C 0.34863 0.8491 0.27133 0.0
H782 H 0.31132 0.83842 0.20231 0.0
C783 C 0.36099 0.81883 0.13041 0.0
C784 C 0.35168 0.82595 0.10086 0.0
C785 C 0.35736 0.82443 0.16562 0.0
C786 C 0.32184 0.84164 0.22119 0.0
H787 H 0.34161 0.84188 0.40688 0.0
H788 H 0.3494 0.83749 0.34329 0.0
H789 H 0.30382 0.84375 0.26556 0.0
H790 H 0.33145 0.84467 0.08478 0.0
H791 H 0.3248 0.85427 0.14683 0.0
H792 H 0.36668 0.84627 0.2269 0.0
C793 C 0.33741 0.84468 0.34966 0.0
C794 C 0.31757 0.84472 0.25747 0.0
C795 C 0.3329 0.84705 0.38611 0.0
C796 C 0.33882 0.83899 0.10711 0.0
C797 C 0.33498 0.84441 0.14252 0.0
C798 C 0.35291 0.84582 0.23512 0.0
C799 C 0.32637 0.85115 0.3219 0.0
C800 C 0.33092 0.84838 0.28308 0.0
C801 C 0.34417 0.8371 0.17208 0.0
C802 C 0.33956 0.84194 0.20979 0.0
H803 H 0.29403 0.8692 0.37431 0.0
H804 H 0.3021 0.86556 0.31101 0.0
H805 H 0.35922 0.85223 0.29008 0.0
H806 H 0.37102 0.8088 0.12637 0.0
H807 H 0.36451 0.81845 0.18793 0.0
C808 C 0.10778 0.65804 0.63693 0.0
C809 C 0.12021 0.65127 0.61226 0.0
C810 C 0.10761 0.65227 0.67283 0.0
C811 C 0.12435 0.61801 0.73583 0.0
H812 H 0.12495 0.65675 0.80481 0.0
C813 C 0.1557 0.61254 0.87698 0.0
C814 C 0.14885 0.62259 0.90574 0.0
C815 C 0.14845 0.61388 0.84234 0.0
C816 C 0.12439 0.6457 0.78614 0.0
H817 H 0.14157 0.63249 0.60521 0.0
H818 H 0.14141 0.62249 0.66823 0.0
H819 H 0.11905 0.66276 0.74132 0.0
H820 H 0.12841 0.64116 0.92134 0.0
H821 H 0.1155 0.64335 0.86071 0.0
H822 H 0.13014 0.601 0.7807 0.0
C823 C 0.13171 0.63216 0.6597 0.0
C824 C 0.12105 0.64916 0.74966 0.0
C825 C 0.13187 0.63795 0.62369 0.0
C826 C 0.13404 0.63337 0.89959 0.0
C827 C 0.12672 0.63467 0.86486 0.0
C828 C 0.12762 0.61452 0.77244 0.0
C829 C 0.11987 0.63961 0.68484 0.0
C830 C 0.12138 0.63542 0.72398 0.0
C831 C 0.13411 0.62524 0.83566 0.0
C832 C 0.1281 0.6284 0.79787 0.0
H833 H 0.09849 0.66821 0.62879 0.0
H834 H 0.09815 0.65804 0.69143 0.0
H835 H 0.12445 0.60713 0.71671 0.0
H836 H 0.1671 0.60407 0.88091 0.0
H837 H 0.15465 0.60661 0.82049 0.0
C838 C 0.32332 0.12179 0.63395 0.0
C839 C 0.33079 0.1304 0.60384 0.0
C840 C 0.32992 0.12481 0.66872 0.0
C841 C 0.35236 0.15871 0.72189 0.0
H842 H 0.35715 0.12131 0.79328 0.0
C843 C 0.37392 0.17413 0.8679 0.0
C844 C 0.36482 0.16531 0.89579 0.0
C845 C 0.37204 0.16873 0.83195 0.0
C846 C 0.35574 0.13192 0.77375 0.0
H847 H 0.35133 0.14858 0.58631 0.0
H848 H 0.36283 0.15404 0.64744 0.0
H849 H 0.3501 0.11382 0.73051 0.0
H850 H 0.34691 0.14368 0.90811 0.0
H851 H 0.34322 0.13445 0.84509 0.0
H852 H 0.35734 0.17687 0.76506 0.0
C853 C 0.35183 0.14495 0.644 0.0
C854 C 0.35178 0.12762 0.73779 0.0
C855 C 0.34531 0.14178 0.60906 0.0
C856 C 0.35411 0.15069 0.88714 0.0
C857 C 0.3521 0.14536 0.85104 0.0
C858 C 0.35619 0.16302 0.75785 0.0
C859 C 0.34406 0.13663 0.67421 0.0
C860 C 0.34986 0.14099 0.71158 0.0
C861 C 0.36086 0.15447 0.82295 0.0
C862 C 0.35775 0.1497 0.78433 0.0
H863 H 0.31214 0.1129 0.63074 0.0
H864 H 0.32354 0.11835 0.69146 0.0
H865 H 0.35068 0.16931 0.70243 0.0
H866 H 0.38242 0.18535 0.8738 0.0
H867 H 0.37928 0.17582 0.81116 0.0
C868 C 0.85442 0.34991 0.9005 0.0
C869 C 0.84051 0.36186 0.90642 0.0
C870 C 0.86137 0.34763 0.86567 0.0
C871 C 0.86157 0.36682 0.7724 0.0
H872 H 0.86666 0.31779 0.7433 0.0
C873 C 0.85714 0.34275 0.62391 0.0
C874 C 0.86818 0.32874 0.61334 0.0
C875 C 0.85706 0.34856 0.65991 0.0
C876 C 0.86561 0.33158 0.75107 0.0
H877 H 0.82354 0.3814 0.88102 0.0
H878 H 0.83537 0.37722 0.82047 0.0
H879 H 0.86113 0.32482 0.80651 0.0
H880 H 0.88843 0.31045 0.63157 0.0
H881 H 0.88832 0.32064 0.69417 0.0
H882 H 0.86539 0.37344 0.71644 0.0
C883 C 0.84114 0.36975 0.84256 0.0
C884 C 0.86248 0.33562 0.78739 0.0
C885 C 0.83424 0.37205 0.87729 0.0
C886 C 0.87965 0.32118 0.63899 0.0
C887 C 0.87956 0.32696 0.67488 0.0
C888 C 0.86462 0.36275 0.73597 0.0
C889 C 0.85452 0.35725 0.83615 0.0
C890 C 0.86009 0.35326 0.79841 0.0
C891 C 0.86799 0.34045 0.68592 0.0
C892 C 0.86638 0.34506 0.72486 0.0
H893 H 0.85958 0.34196 0.92252 0.0
H894 H 0.87187 0.33808 0.86172 0.0
H895 H 0.86006 0.38057 0.78009 0.0
H896 H 0.84818 0.34883 0.60468 0.0
H897 H 0.84789 0.35889 0.66768 0.0
C898 C 0.64198 0.84236 0.89534 0.0
C899 C 0.63068 0.82788 0.90161 0.0
C900 C 0.64559 0.84789 0.85991 0.0
C901 C 0.62933 0.84556 0.76573 0.0
H902 H 0.67879 0.85148 0.74023 0.0
C903 C 0.65349 0.84896 0.61694 0.0
C904 C 0.66796 0.86005 0.60923 0.0
C905 C 0.64804 0.84635 0.65281 0.0
C906 C 0.66488 0.8502 0.74692 0.0
H907 H 0.61384 0.80821 0.87598 0.0
H908 H 0.62006 0.81794 0.81429 0.0
H909 H 0.67071 0.84533 0.8028 0.0
H910 H 0.68761 0.87765 0.63265 0.0
H911 H 0.67783 0.87353 0.69481 0.0
H912 H 0.62347 0.85046 0.70986 0.0
C913 C 0.62611 0.82502 0.83664 0.0
C914 C 0.66027 0.84665 0.78283 0.0
C915 C 0.62265 0.81939 0.87195 0.0
C916 C 0.67653 0.86885 0.63782 0.0
C917 C 0.67099 0.86641 0.67351 0.0
C918 C 0.63392 0.84927 0.72981 0.0
C919 C 0.6378 0.83917 0.83021 0.0
C920 C 0.64247 0.84414 0.79255 0.0
C921 C 0.65685 0.85491 0.68157 0.0
C922 C 0.65178 0.8515 0.71991 0.0
H923 H 0.64832 0.84916 0.91772 0.0
H924 H 0.65456 0.85893 0.8557 0.0
H925 H 0.61548 0.84383 0.77257 0.0
H926 H 0.64667 0.84199 0.59539 0.0
H927 H 0.63722 0.83725 0.65803 0.0
C928 C 0.85363 0.64292 0.61049 0.0
C929 C 0.86477 0.65754 0.60437 0.0
C930 C 0.85031 0.63706 0.64583 0.0
C931 C 0.86653 0.63944 0.74043 0.0
H932 H 0.8171 0.63238 0.76497 0.0
C933 C 0.84123 0.63653 0.88867 0.0
C934 C 0.82688 0.62526 0.89626 0.0
C935 C 0.84707 0.63881 0.85294 0.0
C936 C 0.83101 0.63398 0.75856 0.0
H937 H 0.88173 0.67704 0.6302 0.0
H938 H 0.87597 0.6668 0.69172 0.0
H939 H 0.82532 0.63866 0.70259 0.0
H940 H 0.80794 0.6069 0.87281 0.0
H941 H 0.81838 0.61048 0.81093 0.0
H942 H 0.87221 0.63483 0.79652 0.0
C943 C 0.86984 0.65982 0.66933 0.0
C944 C 0.83571 0.63759 0.72273 0.0
C945 C 0.87304 0.66575 0.63408 0.0
C946 C 0.81891 0.61585 0.86774 0.0
C947 C 0.82483 0.61799 0.8322 0.0
C948 C 0.86184 0.6357 0.77632 0.0
C949 C 0.85819 0.64562 0.67565 0.0
C950 C 0.85349 0.64051 0.7133 0.0
C951 C 0.83875 0.62975 0.82419 0.0
C952 C 0.84399 0.63306 0.78588 0.0
H953 H 0.84711 0.63631 0.58809 0.0
H954 H 0.84142 0.62595 0.64987 0.0
H955 H 0.88037 0.64148 0.73389 0.0
H956 H 0.8476 0.64396 0.91015 0.0
H957 H 0.85772 0.64811 0.84776 0.0
C958 C 0.32236 0.87094 0.63134 0.0
C959 C 0.32913 0.86158 0.60155 0.0
C960 C 0.32931 0.86834 0.66595 0.0
C961 C 0.35055 0.83403 0.71935 0.0
H962 H 0.35591 0.87127 0.79095 0.0
C963 C 0.3696 0.81771 0.86594 0.0
C964 C 0.3602 0.82654 0.89333 0.0
C965 C 0.36859 0.82342 0.83008 0.0
C966 C 0.35436 0.86072 0.77132 0.0
H967 H 0.349 0.84275 0.58421 0.0
H968 H 0.36115 0.83808 0.64502 0.0
H969 H 0.34976 0.87897 0.72784 0.0
H970 H 0.34278 0.84854 0.90495 0.0
H971 H 0.34057 0.85829 0.84191 0.0
H972 H 0.35444 0.81574 0.76268 0.0
C973 C 0.35039 0.84738 0.6415 0.0
C974 C 0.35093 0.86513 0.73519 0.0
C975 C 0.3435 0.8501 0.60674 0.0
C976 C 0.35015 0.8415 0.88434 0.0
C977 C 0.34899 0.84714 0.84827 0.0
C978 C 0.35388 0.82962 0.75542 0.0
C979 C 0.34312 0.85623 0.67154 0.0
C980 C 0.34876 0.85181 0.70894 0.0
C981 C 0.358 0.83797 0.82064 0.0
C982 C 0.35561 0.84289 0.78194 0.0
H983 H 0.31132 0.87995 0.62812 0.0
H984 H 0.32332 0.87522 0.68856 0.0
H985 H 0.34863 0.82346 0.69989 0.0
H986 H 0.37765 0.80625 0.87215 0.0
H987 H 0.376 0.81629 0.80966 0.0
C988 C 0.11355 0.31991 0.63969 0.0
C989 C 0.12274 0.32832 0.6114 0.0
C990 C 0.11563 0.32557 0.67543 0.0
C991 C 0.13288 0.36228 0.73273 0.0
H992 H 0.13754 0.32492 0.80424 0.0
C993 C 0.16462 0.37229 0.87374 0.0
C994 C 0.1571 0.36338 0.90344 0.0
C995 C 0.1582 0.36946 0.83872 0.0
C996 C 0.13598 0.33553 0.78475 0.0
H997 H 0.1409 0.3496 0.5981 0.0
H998 H 0.14493 0.35929 0.6608 0.0
H999 H 0.13073 0.31737 0.74174 0.0
H1000 H 0.13658 0.34496 0.91999 0.0
H1001 H 0.12535 0.33993 0.85861 0.0
H1002 H 0.13872 0.38039 0.7759 0.0
C1003 C 0.13587 0.34848 0.65531 0.0
C1004 C 0.13206 0.33122 0.74885 0.0
C1005 C 0.13364 0.34289 0.6194 0.0
C1006 C 0.14266 0.35197 0.89759 0.0
C1007 C 0.1363 0.34904 0.86247 0.0
C1008 C 0.13691 0.3666 0.76869 0.0
C1009 C 0.12711 0.33967 0.68383 0.0
C1010 C 0.13056 0.34451 0.72231 0.0
C1011 C 0.14418 0.35756 0.83261 0.0
C1012 C 0.13863 0.35324 0.79502 0.0
H1013 H 0.10489 0.30875 0.63431 0.0
H1014 H 0.10837 0.31874 0.69654 0.0
H1015 H 0.13157 0.37287 0.71313 0.0
H1016 H 0.17576 0.3812 0.87742 0.0
H1017 H 0.16466 0.37609 0.81628 0.0
C1018 C 0.63261 0.14913 0.88048 0.0
C1019 C 0.62256 0.16373 0.89172 0.0
C1020 C 0.63249 0.14386 0.84414 0.0
C1021 C 0.62556 0.1623 0.75356 0.0
H1022 H 0.6272 0.1132 0.72317 0.0
C1023 C 0.63655 0.14367 0.60388 0.0
C1024 C 0.64966 0.13079 0.59855 0.0
C1025 C 0.62942 0.14643 0.63844 0.0
C1026 C 0.62677 0.12698 0.73124 0.0
H1027 H 0.60394 0.18382 0.87418 0.0
H1028 H 0.60371 0.1746 0.81092 0.0
H1029 H 0.62213 0.12031 0.7869 0.0
H1030 H 0.66499 0.11014 0.62465 0.0
H1031 H 0.65283 0.11508 0.68461 0.0
H1032 H 0.63088 0.16902 0.69836 0.0
C1033 C 0.61184 0.16736 0.83001 0.0
C1034 C 0.62389 0.13103 0.76771 0.0
C1035 C 0.61193 0.17259 0.86627 0.0
C1036 C 0.65493 0.12022 0.62793 0.0
C1037 C 0.64783 0.12295 0.66231 0.0
C1038 C 0.62852 0.15825 0.71716 0.0
C1039 C 0.62234 0.15313 0.81843 0.0
C1040 C 0.62361 0.14873 0.77935 0.0
C1041 C 0.63526 0.13631 0.66818 0.0
C1042 C 0.62956 0.14054 0.7057 0.0
H1043 H 0.64091 0.14205 0.89954 0.0
H1044 H 0.64085 0.13294 0.83595 0.0
H1045 H 0.62562 0.17607 0.76175 0.0
H1046 H 0.63219 0.15196 0.58165 0.0
H1047 H 0.61959 0.1567 0.64203 0.0
C1048 C 0.85578 0.3409 0.39738 0.0
C1049 C 0.84812 0.32534 0.41123 0.0
C1050 C 0.85307 0.3457 0.36115 0.0
C1051 C 0.82344 0.33948 0.28374 0.0
H1052 H 0.86524 0.34555 0.22387 0.0
C1053 C 0.81806 0.33784 0.12923 0.0
C1054 C 0.82857 0.34956 0.10898 0.0
C1055 C 0.82104 0.33561 0.16624 0.0
C1056 C 0.85341 0.34419 0.24023 0.0
H1057 H 0.83103 0.30303 0.39886 0.0
H1058 H 0.82589 0.31168 0.33601 0.0
H1059 H 0.86844 0.34185 0.28934 0.0
H1060 H 0.85071 0.36783 0.11114 0.0
H1061 H 0.85567 0.36434 0.17621 0.0
H1062 H 0.80831 0.34202 0.23518 0.0
C1063 C 0.83411 0.32006 0.35294 0.0
C1064 C 0.85527 0.34207 0.2777 0.0
C1065 C 0.83709 0.3151 0.38883 0.0
C1066 C 0.8425 0.35861 0.12616 0.0
C1067 C 0.84533 0.35659 0.16342 0.0
C1068 C 0.82155 0.34184 0.24644 0.0
C1069 C 0.84234 0.3352 0.33858 0.0
C1070 C 0.84031 0.33938 0.29964 0.0
C1071 C 0.8344 0.34529 0.18405 0.0
C1072 C 0.83652 0.34385 0.22406 0.0
H1073 H 0.86443 0.34896 0.41407 0.0
H1074 H 0.85948 0.35748 0.35066 0.0
H1075 H 0.8117 0.33761 0.30019 0.0
H1076 H 0.80732 0.33058 0.11656 0.0
H1077 H 0.81271 0.32639 0.18095 0.0
C1078 C 0.62178 0.82006 0.13856 0.0
C1079 C 0.62948 0.82875 0.10879 0.0
C1080 C 0.62496 0.82598 0.17379 0.0
C1081 C 0.65836 0.84909 0.22704 0.0
H1082 H 0.6218 0.85097 0.30077 0.0
C1083 C 0.67476 0.8706 0.3723 0.0
C1084 C 0.66682 0.86108 0.4007 0.0
C1085 C 0.66893 0.86845 0.33672 0.0
C1086 C 0.63219 0.85034 0.28059 0.0
H1087 H 0.64617 0.85072 0.09238 0.0
H1088 H 0.65192 0.86101 0.15424 0.0
H1089 H 0.61377 0.84428 0.23808 0.0
H1090 H 0.6463 0.84213 0.41436 0.0
H1091 H 0.63638 0.83789 0.35184 0.0
H1092 H 0.67687 0.85451 0.26935 0.0
C1093 C 0.64344 0.84958 0.15019 0.0
C1094 C 0.62757 0.84659 0.24468 0.0
C1095 C 0.64011 0.84375 0.11485 0.0
C1096 C 0.65264 0.84964 0.39295 0.0
C1097 C 0.64691 0.84731 0.35716 0.0
C1098 C 0.66299 0.85268 0.26291 0.0
C1099 C 0.63604 0.84063 0.18002 0.0
C1100 C 0.64064 0.84582 0.21761 0.0
C1101 C 0.65516 0.85654 0.32855 0.0
C1102 C 0.64999 0.85327 0.2902 0.0
H1103 H 0.61348 0.80848 0.13471 0.0
H1104 H 0.61923 0.81871 0.19624 0.0
H1105 H 0.66875 0.84827 0.20687 0.0
H1106 H 0.68559 0.8797 0.37754 0.0
H1107 H 0.67531 0.87608 0.31556 0.0
C1108 C 0.15348 0.66592 0.38994 0.0
C1109 C 0.14201 0.65579 0.41159 0.0
C1110 C 0.15631 0.66139 0.35379 0.0
C1111 C 0.13413 0.64127 0.27739 0.0
H1112 H 0.18083 0.64157 0.23376 0.0
C1113 C 0.14624 0.62746 0.12445 0.0
C1114 C 0.16014 0.63682 0.10788 0.0
C1115 C 0.14345 0.62886 0.16184 0.0
C1116 C 0.16766 0.64168 0.2454 0.0
H1117 H 0.12483 0.63276 0.41292 0.0
H1118 H 0.12958 0.62497 0.3491 0.0
H1119 H 0.17791 0.64457 0.29919 0.0
H1120 H 0.18128 0.65581 0.11662 0.0
H1121 H 0.17598 0.65888 0.18131 0.0
H1122 H 0.1238 0.63906 0.22353 0.0
C1123 C 0.13643 0.63634 0.36034 0.0
C1124 C 0.16604 0.64324 0.2829 0.0
C1125 C 0.13383 0.64071 0.3968 0.0
C1126 C 0.17057 0.64831 0.12883 0.0
C1127 C 0.16765 0.64991 0.16597 0.0
C1128 C 0.13574 0.63991 0.23974 0.0
C1129 C 0.14752 0.6468 0.33844 0.0
C1130 C 0.14926 0.64328 0.29919 0.0
C1131 C 0.15441 0.63981 0.18315 0.0
C1132 C 0.15253 0.64039 0.22325 0.0
H1133 H 0.15994 0.67762 0.4007 0.0
H1134 H 0.16483 0.66974 0.33741 0.0
H1135 H 0.12103 0.64146 0.28934 0.0
H1136 H 0.13809 0.61841 0.10888 0.0
H1137 H 0.13319 0.62084 0.17417 0.0
C1138 C 0.31535 0.12195 0.36857 0.0
C1139 C 0.32465 0.13048 0.39656 0.0
C1140 C 0.3204 0.12423 0.33251 0.0
C1141 C 0.3571 0.14063 0.27397 0.0
H1142 H 0.31944 0.14548 0.20309 0.0
C1143 C 0.36656 0.17258 0.13353 0.0
C1144 C 0.3586 0.1643 0.10355 0.0
C1145 C 0.3634 0.16642 0.16856 0.0
C1146 C 0.3301 0.14389 0.22247 0.0
H1147 H 0.34668 0.14788 0.40895 0.0
H1148 H 0.35523 0.15239 0.34576 0.0
H1149 H 0.31209 0.13899 0.26593 0.0
H1150 H 0.34128 0.14293 0.08657 0.0
H1151 H 0.33544 0.13228 0.14827 0.0
H1152 H 0.37503 0.14628 0.23042 0.0
C1153 C 0.34425 0.14359 0.35166 0.0
C1154 C 0.32592 0.14014 0.25853 0.0
C1155 C 0.33931 0.14112 0.38787 0.0
C1156 C 0.34757 0.14955 0.10922 0.0
C1157 C 0.3442 0.14352 0.14444 0.0
C1158 C 0.36126 0.14458 0.23794 0.0
C1159 C 0.33475 0.13529 0.32349 0.0
C1160 C 0.33935 0.13859 0.28483 0.0
C1161 C 0.35204 0.15196 0.17443 0.0
C1162 C 0.34779 0.14638 0.21193 0.0
H1163 H 0.3041 0.11349 0.3745 0.0
H1164 H 0.31302 0.1173 0.31169 0.0
H1165 H 0.3678 0.1392 0.29328 0.0
H1166 H 0.37519 0.18394 0.12996 0.0
H1167 H 0.36946 0.17329 0.19117 0.0
loop_
_geom_bond_atom_site_label_1
_geom_bond_atom_site_label_2
_geom_bond_distance
_geom_bond_site_symmetry_2
_ccdc_geom_bond_type
In0 O1 2.294 . S
In0 O2 2.326 . S
In0 O6 2.266 1_554 S
In0 O7 2.326 1_554 S
In0 O8 2.266 1_554 S
In0 O9 2.326 . S
In0 O11 2.294 . S
In0 O12 2.326 . S
O1 In0 2.294 . S
O1 C10 1.240 . S
O2 In0 2.326 . S
O2 C10 1.252 . S
C3 O6 1.252 . S
C3 O7 1.260 . S
C4 O11 1.240 . S
C4 O12 1.252 . S
C5 O8 1.252 . S
C5 O9 1.259 1_556 S
O6 In0 2.266 1_556 S
O6 C3 1.252 . S
O7 In0 2.326 1_556 S
O7 C3 1.260 . S
O8 In0 2.266 1_556 S
O8 C5 1.252 . S
O9 In0 2.326 . S
O9 C5 1.259 1_554 S
C10 O1 1.240 . S
C10 O2 1.252 . S
O11 In0 2.294 . S
O11 C4 1.240 . S
O12 In0 2.326 . S
O12 C4 1.252 . S
In13 O14 2.294 . S
In13 O15 2.326 . S
In13 O19 2.266 1_554 S
In13 O20 2.326 1_554 S
In13 O21 2.266 1_554 S
In13 O22 2.326 . S
In13 O24 2.294 . S
In13 O25 2.326 . S
O14 In13 2.294 . S
O14 C23 1.240 . S
O15 In13 2.326 . S
O15 C23 1.252 . S
C16 O19 1.252 . S
C16 O20 1.260 . S
C17 O24 1.240 . S
C17 O25 1.252 . S
C18 O21 1.252 . S
C18 O22 1.259 1_556 S
O19 In13 2.266 1_556 S
O19 C16 1.252 . S
O20 In13 2.326 1_556 S
O20 C16 1.260 . S
O21 In13 2.266 1_556 S
O21 C18 1.252 . S
O22 In13 2.326 . S
O22 C18 1.259 1_554 S
C23 O14 1.240 . S
C23 O15 1.252 . S
O24 In13 2.294 . S
O24 C17 1.240 . S
O25 In13 2.326 . S
O25 C17 1.252 . S
In26 O27 2.294 . S
In26 O28 2.326 . S
In26 O32 2.266 1_554 S
In26 O33 2.326 . S
In26 O34 2.266 1_554 S
In26 O35 2.326 1_554 S
In26 O37 2.294 . S
In26 O38 2.326 . S
O27 In26 2.294 . S
O27 C36 1.240 . S
O28 In26 2.326 . S
O28 C36 1.252 . S
C29 O32 1.252 . S
C29 O33 1.259 1_556 S
C30 O37 1.240 . S
C30 O38 1.252 . S
C31 O34 1.252 . S
C31 O35 1.260 . S
O32 In26 2.266 1_556 S
O32 C29 1.252 . S
O33 In26 2.326 . S
O33 C29 1.259 1_554 S
O34 In26 2.266 1_556 S
O34 C31 1.252 . S
O35 In26 2.326 1_556 S
O35 C31 1.260 . S
C36 O27 1.240 . S
C36 O28 1.252 . S
O37 In26 2.294 . S
O37 C30 1.240 . S
O38 In26 2.326 . S
O38 C30 1.252 . S
In39 O40 2.294 . S
In39 O41 2.326 . S
In39 O45 2.266 1_554 S
In39 O46 2.326 1_554 S
In39 O47 2.266 1_554 S
In39 O48 2.326 . S
In39 O50 2.294 . S
In39 O51 2.326 . S
O40 In39 2.294 . S
O40 C49 1.240 . S
O41 In39 2.326 . S
O41 C49 1.252 . S
C42 O45 1.252 . S
C42 O46 1.260 . S
C43 O50 1.240 . S
C43 O51 1.252 . S
C44 O47 1.252 . S
C44 O48 1.259 1_556 S
O45 In39 2.266 1_556 S
O45 C42 1.252 . S
O46 In39 2.326 1_556 S
O46 C42 1.260 . S
O47 In39 2.266 1_556 S
O47 C44 1.252 . S
O48 In39 2.326 . S
O48 C44 1.259 1_554 S
C49 O40 1.240 . S
C49 O41 1.252 . S
O50 In39 2.294 . S
O50 C43 1.240 . S
O51 In39 2.326 . S
O51 C43 1.252 . S
In52 O53 2.294 1_554 S
In52 O54 2.326 1_554 S
In52 O58 2.266 . S
In52 O59 2.326 . S
In52 O60 2.266 . S
In52 O61 2.326 . S
In52 O63 2.292 1_554 S
In52 O64 2.326 . S
O53 In52 2.294 1_556 S
O53 C62 1.240 . S
O54 In52 2.326 1_556 S
O54 C62 1.252 . S
C55 O58 1.252 . S
C55 O59 1.260 . S
C56 O63 1.240 . S
C56 O64 1.251 1_556 S
C57 O60 1.252 . S
C57 O61 1.260 . S
O58 In52 2.266 . S
O58 C55 1.252 . S
O59 In52 2.326 . S
O59 C55 1.260 . S
O60 In52 2.266 . S
O60 C57 1.252 . S
O61 In52 2.326 . S
O61 C57 1.260 . S
C62 O53 1.240 . S
C62 O54 1.252 . S
O63 In52 2.292 1_556 S
O63 C56 1.240 . S
O64 In52 2.326 . S
O64 C56 1.251 1_554 S
In65 O66 2.292 1_554 S
In65 O67 2.326 . S
In65 O71 2.266 . S
In65 O72 2.326 . S
In65 O73 2.266 . S
In65 O74 2.326 . S
In65 O76 2.294 1_554 S
In65 O77 2.326 1_554 S
O66 In65 2.292 1_556 S
O66 C75 1.240 . S
O67 In65 2.326 . S
O67 C75 1.251 1_554 S
C68 O71 1.252 . S
C68 O72 1.260 . S
C69 O76 1.240 . S
C69 O77 1.252 . S
C70 O73 1.252 . S
C70 O74 1.260 . S
O71 In65 2.266 . S
O71 C68 1.252 . S
O72 In65 2.326 . S
O72 C68 1.260 . S
O73 In65 2.266 . S
O73 C70 1.252 . S
O74 In65 2.326 . S
O74 C70 1.260 . S
C75 O66 1.240 . S
C75 O67 1.251 1_556 S
O76 In65 2.294 1_556 S
O76 C69 1.240 . S
O77 In65 2.326 1_556 S
O77 C69 1.252 . S
In78 O79 2.294 1_554 S
In78 O80 2.326 1_554 S
In78 O84 2.266 . S
In78 O85 2.326 . S
In78 O86 2.266 . S
In78 O87 2.326 . S
In78 O89 2.292 1_554 S
In78 O90 2.326 . S
O79 In78 2.294 1_556 S
O79 C88 1.240 . S
O80 In78 2.326 1_556 S
O80 C88 1.252 . S
C81 O84 1.252 . S
C81 O85 1.260 . S
C82 O89 1.240 . S
C82 O90 1.251 1_556 S
C83 O86 1.252 . S
C83 O87 1.260 . S
O84 In78 2.266 . S
O84 C81 1.252 . S
O85 In78 2.326 . S
O85 C81 1.260 . S
O86 In78 2.266 . S
O86 C83 1.252 . S
O87 In78 2.326 . S
O87 C83 1.260 . S
C88 O79 1.240 . S
C88 O80 1.252 . S
O89 In78 2.292 1_556 S
O89 C82 1.240 . S
O90 In78 2.326 . S
O90 C82 1.251 1_554 S
In91 O92 2.294 1_554 S
In91 O93 2.326 1_554 S
In91 O97 2.266 . S
In91 O98 2.326 . S
In91 O99 2.266 . S
In91 O100 2.326 . S
In91 O102 2.292 1_554 S
In91 O103 2.326 . S
O92 In91 2.294 1_556 S
O92 C101 1.240 . S
O93 In91 2.326 1_556 S
O93 C101 1.252 . S
C94 O97 1.252 . S
C94 O98 1.260 . S
C95 O102 1.240 . S
C95 O103 1.251 1_556 S
C96 O99 1.252 . S
C96 O100 1.260 . S
O97 In91 2.266 . S
O97 C94 1.252 . S
O98 In91 2.326 . S
O98 C94 1.260 . S
O99 In91 2.266 . S
O99 C96 1.252 . S
O100 In91 2.326 . S
O100 C96 1.260 . S
C101 O92 1.240 . S
C101 O93 1.252 . S
O102 In91 2.292 1_556 S
O102 C95 1.240 . S
O103 In91 2.326 . S
O103 C95 1.251 1_554 S
In104 O105 2.294 . S
In104 O106 2.326 . S
In104 O110 2.266 . S
In104 O111 2.326 . S
In104 O112 2.266 . S
In104 O113 2.326 . S
In104 O115 2.294 . S
In104 O116 2.326 . S
O105 In104 2.294 . S
O105 C114 1.240 . S
O106 In104 2.326 . S
O106 C114 1.252 . S
C107 O110 1.252 . S
C107 O111 1.260 . S
C108 O115 1.240 . S
C108 O116 1.252 . S
C109 O112 1.252 . S
C109 O113 1.260 . S
O110 In104 2.266 . S
O110 C107 1.252 . S
O111 In104 2.326 . S
O111 C107 1.260 . S
O112 In104 2.266 . S
O112 C109 1.252 . S
O113 In104 2.326 . S
O113 C109 1.260 . S
C114 O105 1.240 . S
C114 O106 1.252 . S
O115 In104 2.294 . S
O115 C108 1.240 . S
O116 In104 2.326 . S
O116 C108 1.252 . S
In117 O118 2.294 . S
In117 O119 2.326 . S
In117 O123 2.266 . S
In117 O124 2.326 . S
In117 O125 2.266 . S
In117 O126 2.326 . S
In117 O128 2.294 . S
In117 O129 2.326 . S
O118 In117 2.294 . S
O118 C127 1.240 . S
O119 In117 2.326 . S
O119 C127 1.252 . S
C120 O123 1.252 . S
C120 O124 1.260 . S
C121 O128 1.240 . S
C121 O129 1.252 . S
C122 O125 1.252 . S
C122 O126 1.260 . S
O123 In117 2.266 . S
O123 C120 1.252 . S
O124 In117 2.326 . S
O124 C120 1.260 . S
O125 In117 2.266 . S
O125 C122 1.252 . S
O126 In117 2.326 . S
O126 C122 1.260 . S
C127 O118 1.240 . S
C127 O119 1.252 . S
O128 In117 2.294 . S
O128 C121 1.240 . S
O129 In117 2.326 . S
O129 C121 1.252 . S
In130 O131 2.294 . S
In130 O132 2.326 . S
In130 O136 2.266 . S
In130 O137 2.326 . S
In130 O138 2.266 . S
In130 O139 2.326 . S
In130 O141 2.294 . S
In130 O142 2.326 . S
O131 In130 2.294 . S
O131 C140 1.240 . S
O132 In130 2.326 . S
O132 C140 1.252 . S
C133 O136 1.252 . S
C133 O137 1.260 . S
C134 O141 1.240 . S
C134 O142 1.252 . S
C135 O138 1.252 . S
C135 O139 1.260 . S
O136 In130 2.266 . S
O136 C133 1.252 . S
O137 In130 2.326 . S
O137 C133 1.260 . S
O138 In130 2.266 . S
O138 C135 1.252 . S
O139 In130 2.326 . S
O139 C135 1.260 . S
C140 O131 1.240 . S
C140 O132 1.252 . S
O141 In130 2.294 . S
O141 C134 1.240 . S
O142 In130 2.326 . S
O142 C134 1.252 . S
In143 O144 2.294 . S
In143 O145 2.326 . S
In143 O149 2.266 . S
In143 O150 2.326 . S
In143 O151 2.266 . S
In143 O152 2.326 . S
In143 O154 2.294 . S
In143 O155 2.326 . S
O144 In143 2.294 . S
O144 C153 1.240 . S
O145 In143 2.326 . S
O145 C153 1.252 . S
C146 O149 1.252 . S
C146 O150 1.260 . S
C147 O154 1.240 . S
C147 O155 1.252 . S
C148 O151 1.252 . S
C148 O152 1.260 . S
O149 In143 2.266 . S
O149 C146 1.252 . S
O150 In143 2.326 . S
O150 C146 1.260 . S
O151 In143 2.266 . S
O151 C148 1.252 . S
O152 In143 2.326 . S
O152 C148 1.260 . S
C153 O144 1.240 . S
C153 O145 1.252 . S
O154 In143 2.294 . S
O154 C147 1.240 . S
O155 In143 2.326 . S
O155 C147 1.252 . S
In156 O157 2.294 . S
In156 O158 2.326 . S
In156 O162 2.266 . S
In156 O163 2.326 . S
In156 O164 2.266 . S
In156 O165 2.326 . S
In156 O167 2.294 . S
In156 O168 2.326 . S
O157 In156 2.294 . S
O157 C166 1.240 . S
O158 In156 2.326 . S
O158 C166 1.252 . S
C159 O162 1.252 . S
C159 O163 1.260 . S
C160 O167 1.240 . S
C160 O168 1.252 . S
C161 O164 1.252 . S
C161 O165 1.260 . S
O162 In156 2.266 . S
O162 C159 1.252 . S
O163 In156 2.326 . S
O163 C159 1.260 . S
O164 In156 2.266 . S
O164 C161 1.252 . S
O165 In156 2.326 . S
O165 C161 1.260 . S
C166 O157 1.240 . S
C166 O158 1.252 . S
O167 In156 2.294 . S
O167 C160 1.240 . S
O168 In156 2.326 . S
O168 C160 1.252 . S
In169 O170 2.294 . S
In169 O171 2.326 . S
In169 O175 2.266 . S
In169 O176 2.326 . S
In169 O177 2.266 . S
In169 O178 2.326 . S
In169 O180 2.294 . S
In169 O181 2.326 . S
O170 In169 2.294 . S
O170 C179 1.240 . S
O171 In169 2.326 . S
O171 C179 1.252 . S
C172 O175 1.252 . S
C172 O176 1.260 . S
C173 O180 1.240 . S
C173 O181 1.252 . S
C174 O177 1.252 . S
C174 O178 1.260 . S
O175 In169 2.266 . S
O175 C172 1.252 . S
O176 In169 2.326 . S
O176 C172 1.260 . S
O177 In169 2.266 . S
O177 C174 1.252 . S
O178 In169 2.326 . S
O178 C174 1.260 . S
C179 O170 1.240 . S
C179 O171 1.252 . S
O180 In169 2.294 . S
O180 C173 1.240 . S
O181 In169 2.326 . S
O181 C173 1.252 . S
In182 O183 2.294 . S
In182 O184 2.326 . S
In182 O188 2.266 . S
In182 O189 2.326 . S
In182 O190 2.266 . S
In182 O191 2.326 . S
In182 O193 2.294 . S
In182 O194 2.326 . S
O183 In182 2.294 . S
O183 C192 1.240 . S
O184 In182 2.326 . S
O184 C192 1.252 . S
C185 O188 1.252 . S
C185 O189 1.260 . S
C186 O193 1.240 . S
C186 O194 1.252 . S
C187 O190 1.252 . S
C187 O191 1.260 . S
O188 In182 2.266 . S
O188 C185 1.252 . S
O189 In182 2.326 . S
O189 C185 1.260 . S
O190 In182 2.266 . S
O190 C187 1.252 . S
O191 In182 2.326 . S
O191 C187 1.260 . S
C192 O183 1.240 . S
C192 O184 1.252 . S
O193 In182 2.294 . S
O193 C186 1.240 . S
O194 In182 2.326 . S
O194 C186 1.252 . S
In195 O196 2.294 . S
In195 O197 2.326 . S
In195 O201 2.266 . S
In195 O202 2.326 . S
In195 O203 2.266 . S
In195 O204 2.326 . S
In195 O206 2.294 . S
In195 O207 2.326 . S
O196 In195 2.294 . S
O196 C205 1.240 . S
O197 In195 2.326 . S
O197 C205 1.252 . S
C198 O201 1.252 . S
C198 O202 1.260 . S
C199 O206 1.240 . S
C199 O207 1.252 . S
C200 O203 1.252 . S
C200 O204 1.260 . S
O201 In195 2.266 . S
O201 C198 1.252 . S
O202 In195 2.326 . S
O202 C198 1.260 . S
O203 In195 2.266 . S
O203 C200 1.252 . S
O204 In195 2.326 . S
O204 C200 1.260 . S
C205 O196 1.240 . S
C205 O197 1.252 . S
O206 In195 2.294 . S
O206 C199 1.240 . S
O207 In195 2.326 . S
O207 C199 1.252 . S
C208 C209 1.334 1_554 S
C208 C210 1.327 . S
C208 H233 0.950 . S
C209 C208 1.334 1_556 S
C209 C225 1.363 . S
C210 C208 1.327 . S
C210 C229 1.429 . S
C210 H234 0.950 . S
C211 C228 1.574 . S
C211 C230 1.368 1_556 S
C211 H235 0.949 . S
H212 C216 0.949 . S
C213 C214 1.349 1_556 S
C213 C215 1.327 . S
C213 H236 0.950 . S
C214 C213 1.349 1_554 S
C214 C226 1.349 . S
C215 C213 1.327 . S
C215 C231 1.429 1_556 S
C215 H237 0.950 . S
C216 H212 0.949 . S
C216 C224 1.574 . S
C216 C232 1.368 . S
H217 C225 0.950 . S
H218 C223 0.950 . S
H219 C224 0.949 . S
H220 C226 0.950 . S
H221 C227 0.950 . S
H222 C228 0.949 . S
C223 H218 0.950 . S
C223 C225 1.327 . S
C223 C229 1.429 1_556 S
C224 C216 1.574 . S
C224 H219 0.949 . S
C224 C230 1.368 . S
C225 C209 1.363 . S
C225 H217 0.950 . S
C225 C223 1.327 . S
C226 C214 1.349 . S
C226 H220 0.950 . S
C226 C227 1.327 . S
C227 H221 0.950 . S
C227 C226 1.327 . S
C227 C231 1.429 . S
C228 C211 1.574 . S
C228 H222 0.949 . S
C228 C232 1.368 1_556 S
C229 C210 1.429 . S
C229 C223 1.429 1_554 S
C229 C230 1.523 . S
C230 C211 1.368 1_554 S
C230 C224 1.368 . S
C230 C229 1.523 . S
C231 C215 1.429 1_554 S
C231 C227 1.429 . S
C231 C232 1.523 . S
C232 C216 1.368 . S
C232 C228 1.368 1_554 S
C232 C231 1.523 . S
H233 C208 0.950 . S
H234 C210 0.950 . S
H235 C211 0.949 . S
H236 C213 0.950 . S
H237 C215 0.950 . S
C238 C239 1.338 1_554 S
C238 C240 1.327 . S
C238 H263 0.950 . S
C239 C238 1.338 1_556 S
C239 C255 1.359 . S
C240 C238 1.327 . S
C240 C259 1.429 . S
C240 H264 0.950 . S
C241 C258 1.574 . S
C241 C260 1.368 1_556 S
C241 H265 0.949 . S
H242 C246 0.949 . S
C243 C244 1.349 1_556 S
C243 C245 1.327 . S
C243 H266 0.950 . S
C244 C243 1.349 1_554 S
C244 C256 1.349 . S
C245 C243 1.327 . S
C245 C261 1.429 1_556 S
C245 H267 0.950 . S
C246 H242 0.949 . S
C246 C254 1.574 . S
C246 C262 1.368 . S
H247 C255 0.950 . S
H248 C253 0.950 . S
H249 C254 0.949 . S
H250 C256 0.950 . S
H251 C257 0.950 . S
H252 C258 0.949 . S
C253 H248 0.950 . S
C253 C255 1.327 . S
C253 C259 1.429 1_556 S
C254 C246 1.574 . S
C254 H249 0.949 . S
C254 C260 1.368 . S
C255 C239 1.359 . S
C255 H247 0.950 . S
C255 C253 1.327 . S
C256 C244 1.349 . S
C256 H250 0.950 . S
C256 C257 1.327 . S
C257 H251 0.950 . S
C257 C256 1.327 . S
C257 C261 1.429 . S
C258 C241 1.574 . S
C258 H252 0.949 . S
C258 C262 1.368 1_556 S
C259 C240 1.429 . S
C259 C253 1.429 1_554 S
C259 C260 1.523 . S
C260 C241 1.368 1_554 S
C260 C254 1.368 . S
C260 C259 1.523 . S
C261 C245 1.429 1_554 S
C261 C257 1.429 . S
C261 C262 1.523 . S
C262 C246 1.368 . S
C262 C258 1.368 1_554 S
C262 C261 1.523 . S
H263 C238 0.950 . S
H264 C240 0.950 . S
H265 C241 0.949 . S
H266 C243 0.950 . S
H267 C245 0.950 . S
C268 C269 1.363 . S
C268 C270 1.327 . S
C268 H293 0.950 . S
C269 C268 1.363 . S
C269 C285 1.334 1_556 S
C270 C268 1.327 . S
C270 C289 1.429 1_556 S
C270 H294 0.950 . S
C271 C288 1.574 . S
C271 C290 1.368 . S
C271 H295 0.949 . S
H272 C276 0.949 . S
C273 C274 1.349 . S
C273 C275 1.327 . S
C273 H296 0.950 . S
C274 C273 1.349 . S
C274 C286 1.349 1_554 S
C275 C273 1.327 . S
C275 C291 1.429 . S
C275 H297 0.950 . S
C276 H272 0.949 . S
C276 C284 1.574 . S
C276 C292 1.368 1_556 S
H277 C285 0.950 . S
H278 C283 0.950 . S
H279 C284 0.949 . S
H280 C286 0.950 . S
H281 C287 0.950 . S
H282 C288 0.949 . S
C283 H278 0.950 . S
C283 C285 1.327 . S
C283 C289 1.429 . S
C284 C276 1.574 . S
C284 H279 0.949 . S
C284 C290 1.368 1_556 S
C285 C269 1.334 1_554 S
C285 H277 0.950 . S
C285 C283 1.327 . S
C286 C274 1.349 1_556 S
C286 H280 0.950 . S
C286 C287 1.327 . S
C287 H281 0.950 . S
C287 C286 1.327 . S
C287 C291 1.429 1_556 S
C288 C271 1.574 . S
C288 H282 0.949 . S
C288 C292 1.368 . S
C289 C270 1.429 1_554 S
C289 C283 1.429 . S
C289 C290 1.523 . S
C290 C271 1.368 . S
C290 C284 1.368 1_554 S
C290 C289 1.523 . S
C291 C275 1.429 . S
C291 C287 1.429 1_554 S
C291 C292 1.523 . S
C292 C276 1.368 1_554 S
C292 C288 1.368 . S
C292 C291 1.523 . S
H293 C268 0.950 . S
H294 C270 0.950 . S
H295 C271 0.949 . S
H296 C273 0.950 . S
H297 C275 0.950 . S
C298 C299 1.338 1_554 S
C298 C300 1.327 . S
C298 H323 0.950 . S
C299 C298 1.338 1_556 S
C299 C315 1.359 . S
C300 C298 1.327 . S
C300 C319 1.429 . S
C300 H324 0.950 . S
C301 C318 1.574 . S
C301 C320 1.368 1_556 S
C301 H325 0.949 . S
H302 C306 0.949 . S
C303 C304 1.349 1_556 S
C303 C305 1.327 . S
C303 H326 0.950 . S
C304 C303 1.349 1_554 S
C304 C316 1.349 . S
C305 C303 1.327 . S
C305 C321 1.429 1_556 S
C305 H327 0.950 . S
C306 H302 0.949 . S
C306 C314 1.574 . S
C306 C322 1.368 . S
H307 C315 0.950 . S
H308 C313 0.950 . S
H309 C314 0.949 . S
H310 C316 0.950 . S
H311 C317 0.950 . S
H312 C318 0.949 . S
C313 H308 0.950 . S
C313 C315 1.327 . S
C313 C319 1.429 1_556 S
C314 C306 1.574 . S
C314 H309 0.949 . S
C314 C320 1.368 . S
C315 C299 1.359 . S
C315 H307 0.950 . S
C315 C313 1.327 . S
C316 C304 1.349 . S
C316 H310 0.950 . S
C316 C317 1.327 . S
C317 H311 0.950 . S
C317 C316 1.327 . S
C317 C321 1.429 . S
C318 C301 1.574 . S
C318 H312 0.949 . S
C318 C322 1.368 1_556 S
C319 C300 1.429 . S
C319 C313 1.429 1_554 S
C319 C320 1.523 . S
C320 C301 1.368 1_554 S
C320 C314 1.368 . S
C320 C319 1.523 . S
C321 C305 1.429 1_554 S
C321 C317 1.429 . S
C321 C322 1.523 . S
C322 C306 1.368 . S
C322 C318 1.368 1_554 S
C322 C321 1.523 . S
H323 C298 0.950 . S
H324 C300 0.950 . S
H325 C301 0.949 . S
H326 C303 0.950 . S
H327 C305 0.950 . S
C328 C329 1.349 . S
C328 C330 1.327 . S
C328 H353 0.950 . S
C329 C328 1.349 . S
C329 C345 1.349 . S
C330 C328 1.327 . S
C330 C349 1.429 . S
C330 H354 0.950 . S
C331 C348 1.574 1_545 S
C331 C350 1.368 . S
C331 H355 0.949 . S
H332 C336 0.949 . S
C333 C334 1.349 . S
C333 C335 1.327 . S
C333 H356 0.950 . S
C334 C333 1.349 . S
C334 C346 1.349 . S
C335 C333 1.327 . S
C335 C351 1.429 . S
C335 H357 0.950 . S
C336 H332 0.949 . S
C336 C344 1.574 1_565 S
C336 C352 1.368 . S
H337 C345 0.950 . S
H338 C343 0.950 . S
H339 C344 0.949 . S
H340 C346 0.950 . S
H341 C347 0.950 . S
H342 C348 0.949 . S
C343 H338 0.950 . S
C343 C345 1.327 . S
C343 C349 1.429 . S
C344 C336 1.574 1_545 S
C344 H339 0.949 . S
C344 C350 1.368 . S
C345 C329 1.349 . S
C345 H337 0.950 . S
C345 C343 1.327 . S
C346 C334 1.349 . S
C346 H340 0.950 . S
C346 C347 1.327 . S
C347 H341 0.950 . S
C347 C346 1.327 . S
C347 C351 1.429 . S
C348 C331 1.574 1_565 S
C348 H342 0.949 . S
C348 C352 1.368 . S
C349 C330 1.429 . S
C349 C343 1.429 . S
C349 C350 1.523 . S
C350 C331 1.368 . S
C350 C344 1.368 . S
C350 C349 1.523 . S
C351 C335 1.429 . S
C351 C347 1.429 . S
C351 C352 1.523 . S
C352 C336 1.368 . S
C352 C348 1.368 . S
C352 C351 1.523 . S
H353 C328 0.950 . S
H354 C330 0.950 . S
H355 C331 0.949 . S
H356 C333 0.950 . S
H357 C335 0.950 . S
C358 C359 1.349 . S
C358 C360 1.327 . S
C358 H383 0.950 . S
C359 C358 1.349 . S
C359 C375 1.349 . S
C360 C358 1.327 . S
C360 C379 1.429 . S
C360 H384 0.950 . S
C361 C378 1.574 1_655 S
C361 C380 1.368 . S
C361 H385 0.949 . S
H362 C366 0.949 . S
C363 C364 1.349 . S
C363 C365 1.327 . S
C363 H386 0.950 . S
C364 C363 1.349 . S
C364 C376 1.349 . S
C365 C363 1.327 . S
C365 C381 1.429 . S
C365 H387 0.950 . S
C366 H362 0.949 . S
C366 C374 1.574 1_455 S
C366 C382 1.368 . S
H367 C375 0.950 . S
H368 C373 0.950 . S
H369 C374 0.949 . S
H370 C376 0.950 . S
H371 C377 0.950 . S
H372 C378 0.949 . S
C373 H368 0.950 . S
C373 C375 1.327 . S
C373 C379 1.429 . S
C374 C366 1.574 1_655 S
C374 H369 0.949 . S
C374 C380 1.368 . S
C375 C359 1.349 . S
C375 H367 0.950 . S
C375 C373 1.327 . S
C376 C364 1.349 . S
C376 H370 0.950 . S
C376 C377 1.327 . S
C377 H371 0.950 . S
C377 C376 1.327 . S
C377 C381 1.429 . S
C378 C361 1.574 1_455 S
C378 H372 0.949 . S
C378 C382 1.368 . S
C379 C360 1.429 . S
C379 C373 1.429 . S
C379 C380 1.523 . S
C380 C361 1.368 . S
C380 C374 1.368 . S
C380 C379 1.523 . S
C381 C365 1.429 . S
C381 C377 1.429 . S
C381 C382 1.523 . S
C382 C366 1.368 . S
C382 C378 1.368 . S
C382 C381 1.523 . S
H383 C358 0.950 . S
H384 C360 0.950 . S
H385 C361 0.949 . S
H386 C363 0.950 . S
H387 C365 0.950 . S
C388 C389 1.349 . S
C388 C390 1.327 . S
C388 H413 0.950 . S
C389 C388 1.349 . S
C389 C405 1.349 . S
C390 C388 1.327 . S
C390 C409 1.429 . S
C390 H414 0.950 . S
C391 C408 1.574 1_545 S
C391 C410 1.368 . S
C391 H415 0.949 . S
H392 C396 0.949 . S
C393 C394 1.349 . S
C393 C395 1.327 . S
C393 H416 0.950 . S
C394 C393 1.349 . S
C394 C406 1.349 . S
C395 C393 1.327 . S
C395 C411 1.429 . S
C395 H417 0.950 . S
C396 H392 0.949 . S
C396 C404 1.574 1_565 S
C396 C412 1.368 . S
H397 C405 0.950 . S
H398 C403 0.950 . S
H399 C404 0.949 . S
H400 C406 0.950 . S
H401 C407 0.950 . S
H402 C408 0.949 . S
C403 H398 0.950 . S
C403 C405 1.327 . S
C403 C409 1.429 . S
C404 C396 1.574 1_545 S
C404 H399 0.949 . S
C404 C410 1.368 . S
C405 C389 1.349 . S
C405 H397 0.950 . S
C405 C403 1.327 . S
C406 C394 1.349 . S
C406 H400 0.950 . S
C406 C407 1.327 . S
C407 H401 0.950 . S
C407 C406 1.327 . S
C407 C411 1.429 . S
C408 C391 1.574 1_565 S
C408 H402 0.949 . S
C408 C412 1.368 . S
C409 C390 1.429 . S
C409 C403 1.429 . S
C409 C410 1.523 . S
C410 C391 1.368 . S
C410 C404 1.368 . S
C410 C409 1.523 . S
C411 C395 1.429 . S
C411 C407 1.429 . S
C411 C412 1.523 . S
C412 C396 1.368 . S
C412 C408 1.368 . S
C412 C411 1.523 . S
H413 C388 0.950 . S
H414 C390 0.950 . S
H415 C391 0.949 . S
H416 C393 0.950 . S
H417 C395 0.950 . S
C418 C419 1.349 . S
C418 C420 1.327 . S
C418 H443 0.950 . S
C419 C418 1.349 . S
C419 C435 1.349 . S
C420 C418 1.327 . S
C420 C439 1.429 . S
C420 H444 0.950 . S
C421 C438 1.574 1_455 S
C421 C440 1.368 . S
C421 H445 0.949 . S
H422 C426 0.949 . S
C423 C424 1.349 . S
C423 C425 1.327 . S
C423 H446 0.950 . S
C424 C423 1.349 . S
C424 C436 1.349 . S
C425 C423 1.327 . S
C425 C441 1.429 . S
C425 H447 0.950 . S
C426 H422 0.949 . S
C426 C434 1.574 1_655 S
C426 C442 1.368 . S
H427 C435 0.950 . S
H428 C433 0.950 . S
H429 C434 0.949 . S
H430 C436 0.950 . S
H431 C437 0.950 . S
H432 C438 0.949 . S
C433 H428 0.950 . S
C433 C435 1.327 . S
C433 C439 1.429 . S
C434 C426 1.574 1_455 S
C434 H429 0.949 . S
C434 C440 1.368 . S
C435 C419 1.349 . S
C435 H427 0.950 . S
C435 C433 1.327 . S
C436 C424 1.349 . S
C436 H430 0.950 . S
C436 C437 1.327 . S
C437 H431 0.950 . S
C437 C436 1.327 . S
C437 C441 1.429 . S
C438 C421 1.574 1_655 S
C438 H432 0.949 . S
C438 C442 1.368 . S
C439 C420 1.429 . S
C439 C433 1.429 . S
C439 C440 1.523 . S
C440 C421 1.368 . S
C440 C434 1.368 . S
C440 C439 1.523 . S
C441 C425 1.429 . S
C441 C437 1.429 . S
C441 C442 1.523 . S
C442 C426 1.368 . S
C442 C438 1.368 . S
C442 C441 1.523 . S
H443 C418 0.950 . S
H444 C420 0.950 . S
H445 C421 0.949 . S
H446 C423 0.950 . S
H447 C425 0.950 . S
C448 C449 1.327 1_554 S
C448 C450 1.327 . S
C448 H473 0.950 . S
C449 C448 1.327 1_556 S
C449 C465 1.370 . S
C450 C448 1.327 . S
C450 C469 1.429 . S
C450 H474 0.950 . S
C451 C468 1.574 . S
C451 C470 1.368 1_556 S
C451 H475 0.949 . S
H452 C456 0.949 . S
C453 C454 1.349 1_556 S
C453 C455 1.327 . S
C453 H476 0.950 . S
C454 C453 1.349 1_554 S
C454 C466 1.349 . S
C455 C453 1.327 . S
C455 C471 1.429 1_556 S
C455 H477 0.950 . S
C456 H452 0.949 . S
C456 C464 1.574 . S
C456 C472 1.368 . S
H457 C465 0.950 . S
H458 C463 0.950 . S
H459 C464 0.949 . S
H460 C466 0.950 . S
H461 C467 0.950 . S
H462 C468 0.949 . S
C463 H458 0.950 . S
C463 C465 1.327 . S
C463 C469 1.429 1_556 S
C464 C456 1.574 . S
C464 H459 0.949 . S
C464 C470 1.368 . S
C465 C449 1.370 . S
C465 H457 0.950 . S
C465 C463 1.327 . S
C466 C454 1.349 . S
C466 H460 0.950 . S
C466 C467 1.327 . S
C467 H461 0.950 . S
C467 C466 1.327 . S
C467 C471 1.429 . S
C468 C451 1.574 . S
C468 H462 0.949 . S
C468 C472 1.368 1_556 S
C469 C450 1.429 . S
C469 C463 1.429 1_554 S
C469 C470 1.523 . S
C470 C451 1.368 1_554 S
C470 C464 1.368 . S
C470 C469 1.523 . S
C471 C455 1.429 1_554 S
C471 C467 1.429 . S
C471 C472 1.523 . S
C472 C456 1.368 . S
C472 C468 1.368 1_554 S
C472 C471 1.523 . S
H473 C448 0.950 . S
H474 C450 0.950 . S
H475 C451 0.949 . S
H476 C453 0.950 . S
H477 C455 0.950 . S
C478 C479 1.349 1_556 S
C478 C480 1.327 . S
C478 H503 0.950 . S
C479 C478 1.349 1_554 S
C479 C495 1.349 . S
C480 C478 1.327 . S
C480 C499 1.429 1_556 S
C480 H504 0.950 . S
C481 C498 1.574 . S
C481 C500 1.368 . S
C481 H505 0.949 . S
H482 C486 0.949 . S
C483 C484 1.327 1_554 S
C483 C485 1.327 . S
C483 H506 0.950 . S
C484 C483 1.327 1_556 S
C484 C496 1.370 . S
C485 C483 1.327 . S
C485 C501 1.429 . S
C485 H507 0.950 . S
C486 H482 0.949 . S
C486 C494 1.574 . S
C486 C502 1.368 1_556 S
H487 C495 0.950 . S
H488 C493 0.950 . S
H489 C494 0.949 . S
H490 C496 0.950 . S
H491 C497 0.950 . S
H492 C498 0.949 . S
C493 H488 0.950 . S
C493 C495 1.327 . S
C493 C499 1.429 . S
C494 C486 1.574 . S
C494 H489 0.949 . S
C494 C500 1.368 1_556 S
C495 C479 1.349 . S
C495 H487 0.950 . S
C495 C493 1.327 . S
C496 C484 1.370 . S
C496 H490 0.950 . S
C496 C497 1.327 . S
C497 H491 0.950 . S
C497 C496 1.327 . S
C497 C501 1.429 1_556 S
C498 C481 1.574 . S
C498 H492 0.949 . S
C498 C502 1.368 . S
C499 C480 1.429 1_554 S
C499 C493 1.429 . S
C499 C500 1.523 . S
C500 C481 1.368 . S
C500 C494 1.368 1_554 S
C500 C499 1.523 . S
C501 C485 1.429 . S
C501 C497 1.429 1_554 S
C501 C502 1.523 . S
C502 C486 1.368 1_554 S
C502 C498 1.368 . S
C502 C501 1.523 . S
H503 C478 0.950 . S
H504 C480 0.950 . S
H505 C481 0.949 . S
H506 C483 0.950 . S
H507 C485 0.950 . S
C508 C509 1.327 1_554 S
C508 C510 1.327 . S
C508 H533 0.950 . S
C509 C508 1.327 1_556 S
C509 C525 1.370 . S
C510 C508 1.327 . S
C510 C529 1.429 . S
C510 H534 0.950 . S
C511 C528 1.574 . S
C511 C530 1.368 1_556 S
C511 H535 0.949 . S
H512 C516 0.949 . S
C513 C514 1.349 1_556 S
C513 C515 1.327 . S
C513 H536 0.950 . S
C514 C513 1.349 1_554 S
C514 C526 1.349 . S
C515 C513 1.327 . S
C515 C531 1.429 1_556 S
C515 H537 0.950 . S
C516 H512 0.949 . S
C516 C524 1.574 . S
C516 C532 1.368 . S
H517 C525 0.950 . S
H518 C523 0.950 . S
H519 C524 0.949 . S
H520 C526 0.950 . S
H521 C527 0.950 . S
H522 C528 0.949 . S
C523 H518 0.950 . S
C523 C525 1.327 . S
C523 C529 1.429 1_556 S
C524 C516 1.574 . S
C524 H519 0.949 . S
C524 C530 1.368 . S
C525 C509 1.370 . S
C525 H517 0.950 . S
C525 C523 1.327 . S
C526 C514 1.349 . S
C526 H520 0.950 . S
C526 C527 1.327 . S
C527 H521 0.950 . S
C527 C526 1.327 . S
C527 C531 1.429 . S
C528 C511 1.574 . S
C528 H522 0.949 . S
C528 C532 1.368 1_556 S
C529 C510 1.429 . S
C529 C523 1.429 1_554 S
C529 C530 1.523 . S
C530 C511 1.368 1_554 S
C530 C524 1.368 . S
C530 C529 1.523 . S
C531 C515 1.429 1_554 S
C531 C527 1.429 . S
C531 C532 1.523 . S
C532 C516 1.368 . S
C532 C528 1.368 1_554 S
C532 C531 1.523 . S
H533 C508 0.950 . S
H534 C510 0.950 . S
H535 C511 0.949 . S
H536 C513 0.950 . S
H537 C515 0.950 . S
C538 C539 1.349 1_556 S
C538 C540 1.327 . S
C538 H563 0.950 . S
C539 C538 1.349 1_554 S
C539 C555 1.349 . S
C540 C538 1.327 . S
C540 C559 1.429 1_556 S
C540 H564 0.950 . S
C541 C558 1.574 . S
C541 C560 1.368 . S
C541 H565 0.949 . S
H542 C546 0.949 . S
C543 C544 1.328 1_554 S
C543 C545 1.327 . S
C543 H566 0.950 . S
C544 C543 1.328 1_556 S
C544 C556 1.369 . S
C545 C543 1.327 . S
C545 C561 1.429 . S
C545 H567 0.950 . S
C546 H542 0.949 . S
C546 C554 1.574 . S
C546 C562 1.368 1_556 S
H547 C555 0.950 . S
H548 C553 0.950 . S
H549 C554 0.949 . S
H550 C556 0.950 . S
H551 C557 0.950 . S
H552 C558 0.949 . S
C553 H548 0.950 . S
C553 C555 1.327 . S
C553 C559 1.429 . S
C554 C546 1.574 . S
C554 H549 0.949 . S
C554 C560 1.368 1_556 S
C555 C539 1.349 . S
C555 H547 0.950 . S
C555 C553 1.327 . S
C556 C544 1.369 . S
C556 H550 0.950 . S
C556 C557 1.327 . S
C557 H551 0.950 . S
C557 C556 1.327 . S
C557 C561 1.429 1_556 S
C558 C541 1.574 . S
C558 H552 0.949 . S
C558 C562 1.368 . S
C559 C540 1.429 1_554 S
C559 C553 1.429 . S
C559 C560 1.523 . S
C560 C541 1.368 . S
C560 C554 1.368 1_554 S
C560 C559 1.523 . S
C561 C545 1.429 . S
C561 C557 1.429 1_554 S
C561 C562 1.523 . S
C562 C546 1.368 1_554 S
C562 C558 1.368 . S
C562 C561 1.523 . S
H563 C538 0.950 . S
H564 C540 0.950 . S
H565 C541 0.949 . S
H566 C543 0.950 . S
H567 C545 0.950 . S
C568 C569 1.349 . S
C568 C570 1.327 . S
C568 H593 0.950 . S
C569 C568 1.349 . S
C569 C585 1.349 . S
C570 C568 1.327 . S
C570 C589 1.429 . S
C570 H594 0.950 . S
C571 C588 1.574 . S
C571 C590 1.368 . S
C571 H595 0.949 . S
H572 C576 0.949 . S
C573 C574 1.349 . S
C573 C575 1.327 . S
C573 H596 0.950 . S
C574 C573 1.349 . S
C574 C586 1.349 . S
C575 C573 1.327 . S
C575 C591 1.429 . S
C575 H597 0.950 . S
C576 H572 0.949 . S
C576 C584 1.574 . S
C576 C592 1.368 . S
H577 C585 0.950 . S
H578 C583 0.950 . S
H579 C584 0.949 . S
H580 C586 0.950 . S
H581 C587 0.950 . S
H582 C588 0.949 . S
C583 H578 0.950 . S
C583 C585 1.327 . S
C583 C589 1.429 . S
C584 C576 1.574 . S
C584 H579 0.949 . S
C584 C590 1.368 . S
C585 C569 1.349 . S
C585 H577 0.950 . S
C585 C583 1.327 . S
C586 C574 1.349 . S
C586 H580 0.950 . S
C586 C587 1.327 . S
C587 H581 0.950 . S
C587 C586 1.327 . S
C587 C591 1.429 . S
C588 C571 1.574 . S
C588 H582 0.949 . S
C588 C592 1.368 . S
C589 C570 1.429 . S
C589 C583 1.429 . S
C589 C590 1.523 . S
C590 C571 1.368 . S
C590 C584 1.368 . S
C590 C589 1.523 . S
C591 C575 1.429 . S
C591 C587 1.429 . S
C591 C592 1.523 . S
C592 C576 1.368 . S
C592 C588 1.368 . S
C592 C591 1.523 . S
H593 C568 0.950 . S
H594 C570 0.950 . S
H595 C571 0.949 . S
H596 C573 0.950 . S
H597 C575 0.950 . S
C598 C599 1.349 . S
C598 C600 1.327 . S
C598 H623 0.950 . S
C599 C598 1.349 . S
C599 C615 1.349 . S
C600 C598 1.327 . S
C600 C619 1.429 . S
C600 H624 0.950 . S
C601 C618 1.574 . S
C601 C620 1.368 . S
C601 H625 0.949 . S
H602 C606 0.949 . S
C603 C604 1.349 . S
C603 C605 1.327 . S
C603 H626 0.950 . S
C604 C603 1.349 . S
C604 C616 1.349 . S
C605 C603 1.327 . S
C605 C621 1.429 . S
C605 H627 0.950 . S
C606 H602 0.949 . S
C606 C614 1.574 . S
C606 C622 1.368 . S
H607 C615 0.950 . S
H608 C613 0.950 . S
H609 C614 0.949 . S
H610 C616 0.950 . S
H611 C617 0.950 . S
H612 C618 0.949 . S
C613 H608 0.950 . S
C613 C615 1.327 . S
C613 C619 1.429 . S
C614 C606 1.574 . S
C614 H609 0.949 . S
C614 C620 1.368 . S
C615 C599 1.349 . S
C615 H607 0.950 . S
C615 C613 1.327 . S
C616 C604 1.349 . S
C616 H610 0.950 . S
C616 C617 1.327 . S
C617 H611 0.950 . S
C617 C616 1.327 . S
C617 C621 1.429 . S
C618 C601 1.574 . S
C618 H612 0.949 . S
C618 C622 1.368 . S
C619 C600 1.429 . S
C619 C613 1.429 . S
C619 C620 1.523 . S
C620 C601 1.368 . S
C620 C614 1.368 . S
C620 C619 1.523 . S
C621 C605 1.429 . S
C621 C617 1.429 . S
C621 C622 1.523 . S
C622 C606 1.368 . S
C622 C618 1.368 . S
C622 C621 1.523 . S
H623 C598 0.950 . S
H624 C600 0.950 . S
H625 C601 0.949 . S
H626 C603 0.950 . S
H627 C605 0.950 . S
C628 C629 1.349 . S
C628 C630 1.327 . S
C628 H653 0.950 . S
C629 C628 1.349 . S
C629 C645 1.349 . S
C630 C628 1.327 . S
C630 C649 1.429 . S
C630 H654 0.950 . S
C631 C648 1.574 . S
C631 C650 1.368 . S
C631 H655 0.949 . S
H632 C636 0.949 . S
C633 C634 1.349 . S
C633 C635 1.327 . S
C633 H656 0.950 . S
C634 C633 1.349 . S
C634 C646 1.349 . S
C635 C633 1.327 . S
C635 C651 1.429 . S
C635 H657 0.950 . S
C636 H632 0.949 . S
C636 C644 1.574 . S
C636 C652 1.368 . S
H637 C645 0.950 . S
H638 C643 0.950 . S
H639 C644 0.949 . S
H640 C646 0.950 . S
H641 C647 0.950 . S
H642 C648 0.949 . S
C643 H638 0.950 . S
C643 C645 1.327 . S
C643 C649 1.429 . S
C644 C636 1.574 . S
C644 H639 0.949 . S
C644 C650 1.368 . S
C645 C629 1.349 . S
C645 H637 0.950 . S
C645 C643 1.327 . S
C646 C634 1.349 . S
C646 H640 0.950 . S
C646 C647 1.327 . S
C647 H641 0.950 . S
C647 C646 1.327 . S
C647 C651 1.429 . S
C648 C631 1.574 . S
C648 H642 0.949 . S
C648 C652 1.368 . S
C649 C630 1.429 . S
C649 C643 1.429 . S
C649 C650 1.523 . S
C650 C631 1.368 . S
C650 C644 1.368 . S
C650 C649 1.523 . S
C651 C635 1.429 . S
C651 C647 1.429 . S
C651 C652 1.523 . S
C652 C636 1.368 . S
C652 C648 1.368 . S
C652 C651 1.523 . S
H653 C628 0.950 . S
H654 C630 0.950 . S
H655 C631 0.949 . S
H656 C633 0.950 . S
H657 C635 0.950 . S
C658 C659 1.349 . S
C658 C660 1.327 . S
C658 H683 0.950 . S
C659 C658 1.349 . S
C659 C675 1.349 . S
C660 C658 1.327 . S
C660 C679 1.429 . S
C660 H684 0.950 . S
C661 C678 1.574 . S
C661 C680 1.368 . S
C661 H685 0.949 . S
H662 C666 0.949 . S
C663 C664 1.349 . S
C663 C665 1.327 . S
C663 H686 0.950 . S
C664 C663 1.349 . S
C664 C676 1.349 . S
C665 C663 1.327 . S
C665 C681 1.429 . S
C665 H687 0.950 . S
C666 H662 0.949 . S
C666 C674 1.574 . S
C666 C682 1.368 . S
H667 C675 0.950 . S
H668 C673 0.950 . S
H669 C674 0.949 . S
H670 C676 0.950 . S
H671 C677 0.950 . S
H672 C678 0.949 . S
C673 H668 0.950 . S
C673 C675 1.327 . S
C673 C679 1.429 . S
C674 C666 1.574 . S
C674 H669 0.949 . S
C674 C680 1.368 . S
C675 C659 1.349 . S
C675 H667 0.950 . S
C675 C673 1.327 . S
C676 C664 1.349 . S
C676 H670 0.950 . S
C676 C677 1.327 . S
C677 H671 0.950 . S
C677 C676 1.327 . S
C677 C681 1.429 . S
C678 C661 1.574 . S
C678 H672 0.949 . S
C678 C682 1.368 . S
C679 C660 1.429 . S
C679 C673 1.429 . S
C679 C680 1.523 . S
C680 C661 1.368 . S
C680 C674 1.368 . S
C680 C679 1.523 . S
C681 C665 1.429 . S
C681 C677 1.429 . S
C681 C682 1.523 . S
C682 C666 1.368 . S
C682 C678 1.368 . S
C682 C681 1.523 . S
H683 C658 0.950 . S
H684 C660 0.950 . S
H685 C661 0.949 . S
H686 C663 0.950 . S
H687 C665 0.950 . S
C688 C689 1.349 . S
C688 C690 1.327 . S
C688 H713 0.950 . S
C689 C688 1.349 . S
C689 C705 1.349 . S
C690 C688 1.327 . S
C690 C709 1.429 . S
C690 H714 0.950 . S
C691 C708 1.574 . S
C691 C710 1.368 . S
C691 H715 0.949 . S
H692 C696 0.949 . S
C693 C694 1.349 . S
C693 C695 1.327 . S
C693 H716 0.950 . S
C694 C693 1.349 . S
C694 C706 1.349 . S
C695 C693 1.327 . S
C695 C711 1.429 . S
C695 H717 0.950 . S
C696 H692 0.949 . S
C696 C704 1.574 . S
C696 C712 1.368 . S
H697 C705 0.950 . S
H698 C703 0.950 . S
H699 C704 0.949 . S
H700 C706 0.950 . S
H701 C707 0.950 . S
H702 C708 0.949 . S
C703 H698 0.950 . S
C703 C705 1.327 . S
C703 C709 1.429 . S
C704 C696 1.574 . S
C704 H699 0.949 . S
C704 C710 1.368 . S
C705 C689 1.349 . S
C705 H697 0.950 . S
C705 C703 1.327 . S
C706 C694 1.349 . S
C706 H700 0.950 . S
C706 C707 1.327 . S
C707 H701 0.950 . S
C707 C706 1.327 . S
C707 C711 1.429 . S
C708 C691 1.574 . S
C708 H702 0.949 . S
C708 C712 1.368 . S
C709 C690 1.429 . S
C709 C703 1.429 . S
C709 C710 1.523 . S
C710 C691 1.368 . S
C710 C704 1.368 . S
C710 C709 1.523 . S
C711 C695 1.429 . S
C711 C707 1.429 . S
C711 C712 1.523 . S
C712 C696 1.368 . S
C712 C708 1.368 . S
C712 C711 1.523 . S
H713 C688 0.950 . S
H714 C690 0.950 . S
H715 C691 0.949 . S
H716 C693 0.950 . S
H717 C695 0.950 . S
C718 C719 1.349 . S
C718 C720 1.327 . S
C718 H743 0.950 . S
C719 C718 1.349 . S
C719 C735 1.349 . S
C720 C718 1.327 . S
C720 C739 1.429 . S
C720 H744 0.950 . S
C721 C738 1.574 . S
C721 C740 1.368 . S
C721 H745 0.949 . S
H722 C726 0.949 . S
C723 C724 1.349 . S
C723 C725 1.327 . S
C723 H746 0.950 . S
C724 C723 1.349 . S
C724 C736 1.349 . S
C725 C723 1.327 . S
C725 C741 1.429 . S
C725 H747 0.950 . S
C726 H722 0.949 . S
C726 C734 1.574 . S
C726 C742 1.368 . S
H727 C735 0.950 . S
H728 C733 0.950 . S
H729 C734 0.949 . S
H730 C736 0.950 . S
H731 C737 0.950 . S
H732 C738 0.949 . S
C733 H728 0.950 . S
C733 C735 1.327 . S
C733 C739 1.429 . S
C734 C726 1.574 . S
C734 H729 0.949 . S
C734 C740 1.368 . S
C735 C719 1.349 . S
C735 H727 0.950 . S
C735 C733 1.327 . S
C736 C724 1.349 . S
C736 H730 0.950 . S
C736 C737 1.327 . S
C737 H731 0.950 . S
C737 C736 1.327 . S
C737 C741 1.429 . S
C738 C721 1.574 . S
C738 H732 0.949 . S
C738 C742 1.368 . S
C739 C720 1.429 . S
C739 C733 1.429 . S
C739 C740 1.523 . S
C740 C721 1.368 . S
C740 C734 1.368 . S
C740 C739 1.523 . S
C741 C725 1.429 . S
C741 C737 1.429 . S
C741 C742 1.523 . S
C742 C726 1.368 . S
C742 C738 1.368 . S
C742 C741 1.523 . S
H743 C718 0.950 . S
H744 C720 0.950 . S
H745 C721 0.949 . S
H746 C723 0.950 . S
H747 C725 0.950 . S
C748 C749 1.349 . S
C748 C750 1.327 . S
C748 H773 0.950 . S
C749 C748 1.349 . S
C749 C765 1.349 . S
C750 C748 1.327 . S
C750 C769 1.429 . S
C750 H774 0.950 . S
C751 C768 1.574 . S
C751 C770 1.368 . S
C751 H775 0.949 . S
H752 C756 0.949 . S
C753 C754 1.349 . S
C753 C755 1.327 . S
C753 H776 0.950 . S
C754 C753 1.349 . S
C754 C766 1.349 . S
C755 C753 1.327 . S
C755 C771 1.429 . S
C755 H777 0.950 . S
C756 H752 0.949 . S
C756 C764 1.574 . S
C756 C772 1.368 . S
H757 C765 0.950 . S
H758 C763 0.950 . S
H759 C764 0.949 . S
H760 C766 0.950 . S
H761 C767 0.950 . S
H762 C768 0.949 . S
C763 H758 0.950 . S
C763 C765 1.327 . S
C763 C769 1.429 . S
C764 C756 1.574 . S
C764 H759 0.949 . S
C764 C770 1.368 . S
C765 C749 1.349 . S
C765 H757 0.950 . S
C765 C763 1.327 . S
C766 C754 1.349 . S
C766 H760 0.950 . S
C766 C767 1.327 . S
C767 H761 0.950 . S
C767 C766 1.327 . S
C767 C771 1.429 . S
C768 C751 1.574 . S
C768 H762 0.949 . S
C768 C772 1.368 . S
C769 C750 1.429 . S
C769 C763 1.429 . S
C769 C770 1.523 . S
C770 C751 1.368 . S
C770 C764 1.368 . S
C770 C769 1.523 . S
C771 C755 1.429 . S
C771 C767 1.429 . S
C771 C772 1.523 . S
C772 C756 1.368 . S
C772 C768 1.368 . S
C772 C771 1.523 . S
H773 C748 0.950 . S
H774 C750 0.950 . S
H775 C751 0.949 . S
H776 C753 0.950 . S
H777 C755 0.950 . S
C778 C779 1.349 . S
C778 C780 1.327 . S
C778 H803 0.950 . S
C779 C778 1.349 . S
C779 C795 1.349 . S
C780 C778 1.327 . S
C780 C799 1.429 . S
C780 H804 0.950 . S
C781 C798 1.574 . S
C781 C800 1.368 . S
C781 H805 0.949 . S
H782 C786 0.949 . S
C783 C784 1.349 . S
C783 C785 1.327 . S
C783 H806 0.950 . S
C784 C783 1.349 . S
C784 C796 1.349 . S
C785 C783 1.327 . S
C785 C801 1.429 . S
C785 H807 0.950 . S
C786 H782 0.949 . S
C786 C794 1.574 . S
C786 C802 1.368 . S
H787 C795 0.950 . S
H788 C793 0.950 . S
H789 C794 0.949 . S
H790 C796 0.950 . S
H791 C797 0.950 . S
H792 C798 0.949 . S
C793 H788 0.950 . S
C793 C795 1.327 . S
C793 C799 1.429 . S
C794 C786 1.574 . S
C794 H789 0.949 . S
C794 C800 1.368 . S
C795 C779 1.349 . S
C795 H787 0.950 . S
C795 C793 1.327 . S
C796 C784 1.349 . S
C796 H790 0.950 . S
C796 C797 1.327 . S
C797 H791 0.950 . S
C797 C796 1.327 . S
C797 C801 1.429 . S
C798 C781 1.574 . S
C798 H792 0.949 . S
C798 C802 1.368 . S
C799 C780 1.429 . S
C799 C793 1.429 . S
C799 C800 1.523 . S
C800 C781 1.368 . S
C800 C794 1.368 . S
C800 C799 1.523 . S
C801 C785 1.429 . S
C801 C797 1.429 . S
C801 C802 1.523 . S
C802 C786 1.368 . S
C802 C798 1.368 . S
C802 C801 1.523 . S
H803 C778 0.950 . S
H804 C780 0.950 . S
H805 C781 0.949 . S
H806 C783 0.950 . S
H807 C785 0.950 . S
C808 C809 1.349 . S
C808 C810 1.327 . S
C808 H833 0.950 . S
C809 C808 1.349 . S
C809 C825 1.349 . S
C810 C808 1.327 . S
C810 C829 1.429 . S
C810 H834 0.950 . S
C811 C828 1.574 . S
C811 C830 1.368 . S
C811 H835 0.949 . S
H812 C816 0.949 . S
C813 C814 1.349 . S
C813 C815 1.327 . S
C813 H836 0.950 . S
C814 C813 1.349 . S
C814 C826 1.349 . S
C815 C813 1.327 . S
C815 C831 1.429 . S
C815 H837 0.950 . S
C816 H812 0.949 . S
C816 C824 1.574 . S
C816 C832 1.368 . S
H817 C825 0.950 . S
H818 C823 0.950 . S
H819 C824 0.949 . S
H820 C826 0.950 . S
H821 C827 0.950 . S
H822 C828 0.949 . S
C823 H818 0.950 . S
C823 C825 1.327 . S
C823 C829 1.429 . S
C824 C816 1.574 . S
C824 H819 0.949 . S
C824 C830 1.368 . S
C825 C809 1.349 . S
C825 H817 0.950 . S
C825 C823 1.327 . S
C826 C814 1.349 . S
C826 H820 0.950 . S
C826 C827 1.327 . S
C827 H821 0.950 . S
C827 C826 1.327 . S
C827 C831 1.429 . S
C828 C811 1.574 . S
C828 H822 0.949 . S
C828 C832 1.368 . S
C829 C810 1.429 . S
C829 C823 1.429 . S
C829 C830 1.523 . S
C830 C811 1.368 . S
C830 C824 1.368 . S
C830 C829 1.523 . S
C831 C815 1.429 . S
C831 C827 1.429 . S
C831 C832 1.523 . S
C832 C816 1.368 . S
C832 C828 1.368 . S
C832 C831 1.523 . S
H833 C808 0.950 . S
H834 C810 0.950 . S
H835 C811 0.949 . S
H836 C813 0.950 . S
H837 C815 0.950 . S
C838 C839 1.349 . S
C838 C840 1.327 . S
C838 H863 0.950 . S
C839 C838 1.349 . S
C839 C855 1.349 . S
C840 C838 1.327 . S
C840 C859 1.429 . S
C840 H864 0.950 . S
C841 C858 1.574 . S
C841 C860 1.368 . S
C841 H865 0.949 . S
H842 C846 0.949 . S
C843 C844 1.349 . S
C843 C845 1.327 . S
C843 H866 0.950 . S
C844 C843 1.349 . S
C844 C856 1.349 . S
C845 C843 1.327 . S
C845 C861 1.429 . S
C845 H867 0.950 . S
C846 H842 0.949 . S
C846 C854 1.574 . S
C846 C862 1.368 . S
H847 C855 0.950 . S
H848 C853 0.950 . S
H849 C854 0.949 . S
H850 C856 0.950 . S
H851 C857 0.950 . S
H852 C858 0.949 . S
C853 H848 0.950 . S
C853 C855 1.327 . S
C853 C859 1.429 . S
C854 C846 1.574 . S
C854 H849 0.949 . S
C854 C860 1.368 . S
C855 C839 1.349 . S
C855 H847 0.950 . S
C855 C853 1.327 . S
C856 C844 1.349 . S
C856 H850 0.950 . S
C856 C857 1.327 . S
C857 H851 0.950 . S
C857 C856 1.327 . S
C857 C861 1.429 . S
C858 C841 1.574 . S
C858 H852 0.949 . S
C858 C862 1.368 . S
C859 C840 1.429 . S
C859 C853 1.429 . S
C859 C860 1.523 . S
C860 C841 1.368 . S
C860 C854 1.368 . S
C860 C859 1.523 . S
C861 C845 1.429 . S
C861 C857 1.429 . S
C861 C862 1.523 . S
C862 C846 1.368 . S
C862 C858 1.368 . S
C862 C861 1.523 . S
H863 C838 0.950 . S
H864 C840 0.950 . S
H865 C841 0.949 . S
H866 C843 0.950 . S
H867 C845 0.950 . S
C868 C869 1.349 . S
C868 C870 1.327 . S
C868 H893 0.950 . S
C869 C868 1.349 . S
C869 C885 1.349 . S
C870 C868 1.327 . S
C870 C889 1.429 . S
C870 H894 0.950 . S
C871 C888 1.574 . S
C871 C890 1.368 . S
C871 H895 0.949 . S
H872 C876 0.949 . S
C873 C874 1.349 . S
C873 C875 1.327 . S
C873 H896 0.950 . S
C874 C873 1.349 . S
C874 C886 1.349 . S
C875 C873 1.327 . S
C875 C891 1.429 . S
C875 H897 0.950 . S
C876 H872 0.949 . S
C876 C884 1.574 . S
C876 C892 1.368 . S
H877 C885 0.950 . S
H878 C883 0.950 . S
H879 C884 0.949 . S
H880 C886 0.950 . S
H881 C887 0.950 . S
H882 C888 0.949 . S
C883 H878 0.950 . S
C883 C885 1.327 . S
C883 C889 1.429 . S
C884 C876 1.574 . S
C884 H879 0.949 . S
C884 C890 1.368 . S
C885 C869 1.349 . S
C885 H877 0.950 . S
C885 C883 1.327 . S
C886 C874 1.349 . S
C886 H880 0.950 . S
C886 C887 1.327 . S
C887 H881 0.950 . S
C887 C886 1.327 . S
C887 C891 1.429 . S
C888 C871 1.574 . S
C888 H882 0.949 . S
C888 C892 1.368 . S
C889 C870 1.429 . S
C889 C883 1.429 . S
C889 C890 1.523 . S
C890 C871 1.368 . S
C890 C884 1.368 . S
C890 C889 1.523 . S
C891 C875 1.429 . S
C891 C887 1.429 . S
C891 C892 1.523 . S
C892 C876 1.368 . S
C892 C888 1.368 . S
C892 C891 1.523 . S
H893 C868 0.950 . S
H894 C870 0.950 . S
H895 C871 0.949 . S
H896 C873 0.950 . S
H897 C875 0.950 . S
C898 C899 1.349 . S
C898 C900 1.327 . S
C898 H923 0.950 . S
C899 C898 1.349 . S
C899 C915 1.349 . S
C900 C898 1.327 . S
C900 C919 1.429 . S
C900 H924 0.950 . S
C901 C918 1.574 . S
C901 C920 1.368 . S
C901 H925 0.949 . S
H902 C906 0.949 . S
C903 C904 1.349 . S
C903 C905 1.327 . S
C903 H926 0.950 . S
C904 C903 1.349 . S
C904 C916 1.349 . S
C905 C903 1.327 . S
C905 C921 1.429 . S
C905 H927 0.950 . S
C906 H902 0.949 . S
C906 C914 1.574 . S
C906 C922 1.368 . S
H907 C915 0.950 . S
H908 C913 0.950 . S
H909 C914 0.949 . S
H910 C916 0.950 . S
H911 C917 0.950 . S
H912 C918 0.949 . S
C913 H908 0.950 . S
C913 C915 1.327 . S
C913 C919 1.429 . S
C914 C906 1.574 . S
C914 H909 0.949 . S
C914 C920 1.368 . S
C915 C899 1.349 . S
C915 H907 0.950 . S
C915 C913 1.327 . S
C916 C904 1.349 . S
C916 H910 0.950 . S
C916 C917 1.327 . S
C917 H911 0.950 . S
C917 C916 1.327 . S
C917 C921 1.429 . S
C918 C901 1.574 . S
C918 H912 0.949 . S
C918 C922 1.368 . S
C919 C900 1.429 . S
C919 C913 1.429 . S
C919 C920 1.523 . S
C920 C901 1.368 . S
C920 C914 1.368 . S
C920 C919 1.523 . S
C921 C905 1.429 . S
C921 C917 1.429 . S
C921 C922 1.523 . S
C922 C906 1.368 . S
C922 C918 1.368 . S
C922 C921 1.523 . S
H923 C898 0.950 . S
H924 C900 0.950 . S
H925 C901 0.949 . S
H926 C903 0.950 . S
H927 C905 0.950 . S
C928 C929 1.349 . S
C928 C930 1.327 . S
C928 H953 0.950 . S
C929 C928 1.349 . S
C929 C945 1.349 . S
C930 C928 1.327 . S
C930 C949 1.429 . S
C930 H954 0.950 . S
C931 C948 1.574 . S
C931 C950 1.368 . S
C931 H955 0.949 . S
H932 C936 0.949 . S
C933 C934 1.349 . S
C933 C935 1.327 . S
C933 H956 0.950 . S
C934 C933 1.349 . S
C934 C946 1.349 . S
C935 C933 1.327 . S
C935 C951 1.429 . S
C935 H957 0.950 . S
C936 H932 0.949 . S
C936 C944 1.574 . S
C936 C952 1.368 . S
H937 C945 0.950 . S
H938 C943 0.950 . S
H939 C944 0.949 . S
H940 C946 0.950 . S
H941 C947 0.950 . S
H942 C948 0.949 . S
C943 H938 0.950 . S
C943 C945 1.327 . S
C943 C949 1.429 . S
C944 C936 1.574 . S
C944 H939 0.949 . S
C944 C950 1.368 . S
C945 C929 1.349 . S
C945 H937 0.950 . S
C945 C943 1.327 . S
C946 C934 1.349 . S
C946 H940 0.950 . S
C946 C947 1.327 . S
C947 H941 0.950 . S
C947 C946 1.327 . S
C947 C951 1.429 . S
C948 C931 1.574 . S
C948 H942 0.949 . S
C948 C952 1.368 . S
C949 C930 1.429 . S
C949 C943 1.429 . S
C949 C950 1.523 . S
C950 C931 1.368 . S
C950 C944 1.368 . S
C950 C949 1.523 . S
C951 C935 1.429 . S
C951 C947 1.429 . S
C951 C952 1.523 . S
C952 C936 1.368 . S
C952 C948 1.368 . S
C952 C951 1.523 . S
H953 C928 0.950 . S
H954 C930 0.950 . S
H955 C931 0.949 . S
H956 C933 0.950 . S
H957 C935 0.950 . S
C958 C959 1.349 . S
C958 C960 1.327 . S
C958 H983 0.950 . S
C959 C958 1.349 . S
C959 C975 1.349 . S
C960 C958 1.327 . S
C960 C979 1.429 . S
C960 H984 0.950 . S
C961 C978 1.574 . S
C961 C980 1.368 . S
C961 H985 0.949 . S
H962 C966 0.949 . S
C963 C964 1.349 . S
C963 C965 1.327 . S
C963 H986 0.950 . S
C964 C963 1.349 . S
C964 C976 1.349 . S
C965 C963 1.327 . S
C965 C981 1.429 . S
C965 H987 0.950 . S
C966 H962 0.949 . S
C966 C974 1.574 . S
C966 C982 1.368 . S
H967 C975 0.950 . S
H968 C973 0.950 . S
H969 C974 0.949 . S
H970 C976 0.950 . S
H971 C977 0.950 . S
H972 C978 0.949 . S
C973 H968 0.950 . S
C973 C975 1.327 . S
C973 C979 1.429 . S
C974 C966 1.574 . S
C974 H969 0.949 . S
C974 C980 1.368 . S
C975 C959 1.349 . S
C975 H967 0.950 . S
C975 C973 1.327 . S
C976 C964 1.349 . S
C976 H970 0.950 . S
C976 C977 1.327 . S
C977 H971 0.950 . S
C977 C976 1.327 . S
C977 C981 1.429 . S
C978 C961 1.574 . S
C978 H972 0.949 . S
C978 C982 1.368 . S
C979 C960 1.429 . S
C979 C973 1.429 . S
C979 C980 1.523 . S
C980 C961 1.368 . S
C980 C974 1.368 . S
C980 C979 1.523 . S
C981 C965 1.429 . S
C981 C977 1.429 . S
C981 C982 1.523 . S
C982 C966 1.368 . S
C982 C978 1.368 . S
C982 C981 1.523 . S
H983 C958 0.950 . S
H984 C960 0.950 . S
H985 C961 0.949 . S
H986 C963 0.950 . S
H987 C965 0.950 . S
C988 C989 1.349 . S
C988 C990 1.327 . S
C988 H1013 0.950 . S
C989 C988 1.349 . S
C989 C1005 1.349 . S
C990 C988 1.327 . S
C990 C1009 1.429 . S
C990 H1014 0.950 . S
C991 C1008 1.574 . S
C991 C1010 1.368 . S
C991 H1015 0.949 . S
H992 C996 0.949 . S
C993 C994 1.349 . S
C993 C995 1.327 . S
C993 H1016 0.950 . S
C994 C993 1.349 . S
C994 C1006 1.349 . S
C995 C993 1.327 . S
C995 C1011 1.429 . S
C995 H1017 0.950 . S
C996 H992 0.949 . S
C996 C1004 1.574 . S
C996 C1012 1.368 . S
H997 C1005 0.950 . S
H998 C1003 0.950 . S
H999 C1004 0.949 . S
H1000 C1006 0.950 . S
H1001 C1007 0.950 . S
H1002 C1008 0.949 . S
C1003 H998 0.950 . S
C1003 C1005 1.327 . S
C1003 C1009 1.429 . S
C1004 C996 1.574 . S
C1004 H999 0.949 . S
C1004 C1010 1.368 . S
C1005 C989 1.349 . S
C1005 H997 0.950 . S
C1005 C1003 1.327 . S
C1006 C994 1.349 . S
C1006 H1000 0.950 . S
C1006 C1007 1.327 . S
C1007 H1001 0.950 . S
C1007 C1006 1.327 . S
C1007 C1011 1.429 . S
C1008 C991 1.574 . S
C1008 H1002 0.949 . S
C1008 C1012 1.368 . S
C1009 C990 1.429 . S
C1009 C1003 1.429 . S
C1009 C1010 1.523 . S
C1010 C991 1.368 . S
C1010 C1004 1.368 . S
C1010 C1009 1.523 . S
C1011 C995 1.429 . S
C1011 C1007 1.429 . S
C1011 C1012 1.523 . S
C1012 C996 1.368 . S
C1012 C1008 1.368 . S
C1012 C1011 1.523 . S
H1013 C988 0.950 . S
H1014 C990 0.950 . S
H1015 C991 0.949 . S
H1016 C993 0.950 . S
H1017 C995 0.950 . S
C1018 C1019 1.349 . S
C1018 C1020 1.327 . S
C1018 H1043 0.950 . S
C1019 C1018 1.349 . S
C1019 C1035 1.349 . S
C1020 C1018 1.327 . S
C1020 C1039 1.429 . S
C1020 H1044 0.950 . S
C1021 C1038 1.574 . S
C1021 C1040 1.368 . S
C1021 H1045 0.949 . S
H1022 C1026 0.949 . S
C1023 C1024 1.349 . S
C1023 C1025 1.327 . S
C1023 H1046 0.950 . S
C1024 C1023 1.349 . S
C1024 C1036 1.349 . S
C1025 C1023 1.327 . S
C1025 C1041 1.429 . S
C1025 H1047 0.950 . S
C1026 H1022 0.949 . S
C1026 C1034 1.574 . S
C1026 C1042 1.368 . S
H1027 C1035 0.950 . S
H1028 C1033 0.950 . S
H1029 C1034 0.949 . S
H1030 C1036 0.950 . S
H1031 C1037 0.950 . S
H1032 C1038 0.949 . S
C1033 H1028 0.950 . S
C1033 C1035 1.327 . S
C1033 C1039 1.429 . S
C1034 C1026 1.574 . S
C1034 H1029 0.949 . S
C1034 C1040 1.368 . S
C1035 C1019 1.349 . S
C1035 H1027 0.950 . S
C1035 C1033 1.327 . S
C1036 C1024 1.349 . S
C1036 H1030 0.950 . S
C1036 C1037 1.327 . S
C1037 H1031 0.950 . S
C1037 C1036 1.327 . S
C1037 C1041 1.429 . S
C1038 C1021 1.574 . S
C1038 H1032 0.949 . S
C1038 C1042 1.368 . S
C1039 C1020 1.429 . S
C1039 C1033 1.429 . S
C1039 C1040 1.523 . S
C1040 C1021 1.368 . S
C1040 C1034 1.368 . S
C1040 C1039 1.523 . S
C1041 C1025 1.429 . S
C1041 C1037 1.429 . S
C1041 C1042 1.523 . S
C1042 C1026 1.368 . S
C1042 C1038 1.368 . S
C1042 C1041 1.523 . S
H1043 C1018 0.950 . S
H1044 C1020 0.950 . S
H1045 C1021 0.949 . S
H1046 C1023 0.950 . S
H1047 C1025 0.950 . S
C1048 C1049 1.349 . S
C1048 C1050 1.327 . S
C1048 H1073 0.950 . S
C1049 C1048 1.349 . S
C1049 C1065 1.349 . S
C1050 C1048 1.327 . S
C1050 C1069 1.429 . S
C1050 H1074 0.950 . S
C1051 C1068 1.574 . S
C1051 C1070 1.368 . S
C1051 H1075 0.949 . S
H1052 C1056 0.949 . S
C1053 C1054 1.349 . S
C1053 C1055 1.327 . S
C1053 H1076 0.950 . S
C1054 C1053 1.349 . S
C1054 C1066 1.349 . S
C1055 C1053 1.327 . S
C1055 C1071 1.429 . S
C1055 H1077 0.950 . S
C1056 H1052 0.949 . S
C1056 C1064 1.574 . S
C1056 C1072 1.368 . S
H1057 C1065 0.950 . S
H1058 C1063 0.950 . S
H1059 C1064 0.949 . S
H1060 C1066 0.950 . S
H1061 C1067 0.950 . S
H1062 C1068 0.949 . S
C1063 H1058 0.950 . S
C1063 C1065 1.327 . S
C1063 C1069 1.429 . S
C1064 C1056 1.574 . S
C1064 H1059 0.949 . S
C1064 C1070 1.368 . S
C1065 C1049 1.349 . S
C1065 H1057 0.950 . S
C1065 C1063 1.327 . S
C1066 C1054 1.349 . S
C1066 H1060 0.950 . S
C1066 C1067 1.327 . S
C1067 H1061 0.950 . S
C1067 C1066 1.327 . S
C1067 C1071 1.429 . S
C1068 C1051 1.574 . S
C1068 H1062 0.949 . S
C1068 C1072 1.368 . S
C1069 C1050 1.429 . S
C1069 C1063 1.429 . S
C1069 C1070 1.523 . S
C1070 C1051 1.368 . S
C1070 C1064 1.368 . S
C1070 C1069 1.523 . S
C1071 C1055 1.429 . S
C1071 C1067 1.429 . S
C1071 C1072 1.523 . S
C1072 C1056 1.368 . S
C1072 C1068 1.368 . S
C1072 C1071 1.523 . S
H1073 C1048 0.950 . S
H1074 C1050 0.950 . S
H1075 C1051 0.949 . S
H1076 C1053 0.950 . S
H1077 C1055 0.950 . S
C1078 C1079 1.349 . S
C1078 C1080 1.327 . S
C1078 H1103 0.950 . S
C1079 C1078 1.349 . S
C1079 C1095 1.349 . S
C1080 C1078 1.327 . S
C1080 C1099 1.429 . S
C1080 H1104 0.950 . S
C1081 C1098 1.574 . S
C1081 C1100 1.368 . S
C1081 H1105 0.949 . S
H1082 C1086 0.949 . S
C1083 C1084 1.349 . S
C1083 C1085 1.327 . S
C1083 H1106 0.950 . S
C1084 C1083 1.349 . S
C1084 C1096 1.349 . S
C1085 C1083 1.327 . S
C1085 C1101 1.429 . S
C1085 H1107 0.950 . S
C1086 H1082 0.949 . S
C1086 C1094 1.574 . S
C1086 C1102 1.368 . S
H1087 C1095 0.950 . S
H1088 C1093 0.950 . S
H1089 C1094 0.949 . S
H1090 C1096 0.950 . S
H1091 C1097 0.950 . S
H1092 C1098 0.949 . S
C1093 H1088 0.950 . S
C1093 C1095 1.327 . S
C1093 C1099 1.429 . S
C1094 C1086 1.574 . S
C1094 H1089 0.949 . S
C1094 C1100 1.368 . S
C1095 C1079 1.349 . S
C1095 H1087 0.950 . S
C1095 C1093 1.327 . S
C1096 C1084 1.349 . S
C1096 H1090 0.950 . S
C1096 C1097 1.327 . S
C1097 H1091 0.950 . S
C1097 C1096 1.327 . S
C1097 C1101 1.429 . S
C1098 C1081 1.574 . S
C1098 H1092 0.949 . S
C1098 C1102 1.368 . S
C1099 C1080 1.429 . S
C1099 C1093 1.429 . S
C1099 C1100 1.523 . S
C1100 C1081 1.368 . S
C1100 C1094 1.368 . S
C1100 C1099 1.523 . S
C1101 C1085 1.429 . S
C1101 C1097 1.429 . S
C1101 C1102 1.523 . S
C1102 C1086 1.368 . S
C1102 C1098 1.368 . S
C1102 C1101 1.523 . S
H1103 C1078 0.950 . S
H1104 C1080 0.950 . S
H1105 C1081 0.949 . S
H1106 C1083 0.950 . S
H1107 C1085 0.950 . S
C1108 C1109 1.349 . S
C1108 C1110 1.327 . S
C1108 H1133 0.950 . S
C1109 C1108 1.349 . S
C1109 C1125 1.349 . S
C1110 C1108 1.327 . S
C1110 C1129 1.429 . S
C1110 H1134 0.950 . S
C1111 C1128 1.574 . S
C1111 C1130 1.368 . S
C1111 H1135 0.949 . S
H1112 C1116 0.949 . S
C1113 C1114 1.349 . S
C1113 C1115 1.327 . S
C1113 H1136 0.950 . S
C1114 C1113 1.349 . S
C1114 C1126 1.349 . S
C1115 C1113 1.327 . S
C1115 C1131 1.429 . S
C1115 H1137 0.950 . S
C1116 H1112 0.949 . S
C1116 C1124 1.574 . S
C1116 C1132 1.368 . S
H1117 C1125 0.950 . S
H1118 C1123 0.950 . S
H1119 C1124 0.949 . S
H1120 C1126 0.950 . S
H1121 C1127 0.950 . S
H1122 C1128 0.949 . S
C1123 H1118 0.950 . S
C1123 C1125 1.327 . S
C1123 C1129 1.429 . S
C1124 C1116 1.574 . S
C1124 H1119 0.949 . S
C1124 C1130 1.368 . S
C1125 C1109 1.349 . S
C1125 H1117 0.950 . S
C1125 C1123 1.327 . S
C1126 C1114 1.349 . S
C1126 H1120 0.950 . S
C1126 C1127 1.327 . S
C1127 H1121 0.950 . S
C1127 C1126 1.327 . S
C1127 C1131 1.429 . S
C1128 C1111 1.574 . S
C1128 H1122 0.949 . S
C1128 C1132 1.368 . S
C1129 C1110 1.429 . S
C1129 C1123 1.429 . S
C1129 C1130 1.523 . S
C1130 C1111 1.368 . S
C1130 C1124 1.368 . S
C1130 C1129 1.523 . S
C1131 C1115 1.429 . S
C1131 C1127 1.429 . S
C1131 C1132 1.523 . S
C1132 C1116 1.368 . S
C1132 C1128 1.368 . S
C1132 C1131 1.523 . S
H1133 C1108 0.950 . S
H1134 C1110 0.950 . S
H1135 C1111 0.949 . S
H1136 C1113 0.950 . S
H1137 C1115 0.950 . S
C1138 C1139 1.349 . S
C1138 C1140 1.327 . S
C1138 H1163 0.950 . S
C1139 C1138 1.349 . S
C1139 C1155 1.349 . S
C1140 C1138 1.327 . S
C1140 C1159 1.429 . S
C1140 H1164 0.950 . S
C1141 C1158 1.574 . S
C1141 C1160 1.368 . S
C1141 H1165 0.949 . S
H1142 C1146 0.949 . S
C1143 C1144 1.349 . S
C1143 C1145 1.327 . S
C1143 H1166 0.950 . S
C1144 C1143 1.349 . S
C1144 C1156 1.349 . S
C1145 C1143 1.327 . S
C1145 C1161 1.429 . S
C1145 H1167 0.950 . S
C1146 H1142 0.949 . S
C1146 C1154 1.574 . S
C1146 C1162 1.368 . S
H1147 C1155 0.950 . S
H1148 C1153 0.950 . S
H1149 C1154 0.949 . S
H1150 C1156 0.950 . S
H1151 C1157 0.950 . S
H1152 C1158 0.949 . S
C1153 H1148 0.950 . S
C1153 C1155 1.327 . S
C1153 C1159 1.429 . S
C1154 C1146 1.574 . S
C1154 H1149 0.949 . S
C1154 C1160 1.368 . S
C1155 C1139 1.349 . S
C1155 H1147 0.950 . S
C1155 C1153 1.327 . S
C1156 C1144 1.349 . S
C1156 H1150 0.950 . S
C1156 C1157 1.327 . S
C1157 H1151 0.950 . S
C1157 C1156 1.327 . S
C1157 C1161 1.429 . S
C1158 C1141 1.574 . S
C1158 H1152 0.949 . S
C1158 C1162 1.368 . S
C1159 C1140 1.429 . S
C1159 C1153 1.429 . S
C1159 C1160 1.523 . S
C1160 C1141 1.368 . S
C1160 C1154 1.368 . S
C1160 C1159 1.523 . S
C1161 C1145 1.429 . S
C1161 C1157 1.429 . S
C1161 C1162 1.523 . S
C1162 C1146 1.368 . S
C1162 C1158 1.368 . S
C1162 C1161 1.523 . S
H1163 C1138 0.950 . S
H1164 C1140 0.950 . S
H1165 C1141 0.949 . S
H1166 C1143 0.950 . S
H1167 C1145 0.950 . S
C209 C56 1.488 . S
C214 C4 1.488 . S
C239 C75 1.488 . S
C244 C17 1.488 . S
C269 C82 1.488 . S
C274 C36 1.488 . S
C299 C95 1.488 . S
C304 C43 1.488 . S
C329 C166 1.488 . S
C334 C108 1.488 . S
C359 C173 1.488 . S
C364 C127 1.488 . S
C389 C140 1.488 . S
C394 C186 1.488 . S
C419 C205 1.488 . S
C424 C147 1.488 . S
C449 C5 1.547 . S
C454 C68 1.547 . S
C479 C83 1.547 . S
C484 C18 1.547 . S
C509 C29 1.547 . S
C514 C96 1.547 . S
C539 C57 1.547 . S
C544 C44 1.547 . S
C569 C174 1.547 . S
C574 C109 1.547 . S
C599 C187 1.547 . S
C604 C120 1.547 . S
C629 C133 1.547 . S
C634 C198 1.547 . S
C659 C148 1.547 . S
C664 C159 1.547 . S
C689 C199 1.381 . S
C694 C10 1.381 . S
C719 C160 1.381 . S
C724 C23 1.381 . S
C749 C179 1.381 . S
C754 C30 1.381 . S
C779 C192 1.381 . S
C784 C49 1.381 . S
C809 C121 1.381 . S
C814 C62 1.381 . S
C839 C134 1.381 . S
C844 C69 1.381 . S
C869 C88 1.381 . S
C874 C153 1.381 . S
C899 C101 1.381 . S
C904 C114 1.381 . S
C929 C172 1.350 . S
C934 C31 1.350 . S
C959 C185 1.350 . S
C964 C42 1.350 . S
C989 C200 1.350 . S
C994 C3 1.350 . S
C1019 C16 1.350 . S
C1024 C161 1.350 . S
C1049 C146 1.350 . S
C1054 C81 1.350 . S
C1079 C94 1.350 . S
C1084 C107 1.350 . S
C1109 C122 1.350 . S
C1114 C55 1.350 . S
C1139 C135 1.350 . S
C1144 C70 1.350 . S
