# Generated by pormake.
# Topology uoi, (4)-cn, num edge types: 1
# Building blocks:
#     Node 0, Type 0, BuildingBlock: NAHDIM_clean_sbu_0, # of connection points: 4
#     Node 1, Type 0, BuildingBlock: NAHDIM_clean_sbu_0, # of connection points: 4
#     Node 2, Type 0, BuildingBlock: NAHDIM_clean_sbu_0, # of connection points: 4
#     Node 3, Type 0, BuildingBlock: NAHDIM_clean_sbu_0, # of connection points: 4
#     Node 4, Type 0, BuildingBlock: NAHDIM_clean_sbu_0, # of connection points: 4
#     Node 5, Type 0, BuildingBlock: NAHDIM_clean_sbu_0, # of connection points: 4
#     Node 6, Type 0, BuildingBlock: NAHDIM_clean_sbu_0, # of connection points: 4
#     Node 7, Type 0, BuildingBlock: NAHDIM_clean_sbu_0, # of connection points: 4
#     Node 8, Type 0, BuildingBlock: NAHDIM_clean_sbu_0, # of connection points: 4
#     Node 9, Type 0, BuildingBlock: NAHDIM_clean_sbu_0, # of connection points: 4
#     Node 10, Type 0, BuildingBlock: NAHDIM_clean_sbu_0, # of connection points: 4
#     Node 11, Type 0, BuildingBlock: NAHDIM_clean_sbu_0, # of connection points: 4
#     Node 12, Type 0, BuildingBlock: NAHDIM_clean_sbu_0, # of connection points: 4
#     Node 13, Type 0, BuildingBlock: NAHDIM_clean_sbu_0, # of connection points: 4
#     Node 14, Type 0, BuildingBlock: NAHDIM_clean_sbu_0, # of connection points: 4
#     Node 15, Type 0, BuildingBlock: NAHDIM_clean_sbu_0, # of connection points: 4
#     Node 16, Type 0, BuildingBlock: NAHDIM_clean_sbu_0, # of connection points: 4
#     Node 17, Type 0, BuildingBlock: NAHDIM_clean_sbu_0, # of connection points: 4
#     Node 18, Type 0, BuildingBlock: NAHDIM_clean_sbu_0, # of connection points: 4
#     Node 19, Type 0, BuildingBlock: NAHDIM_clean_sbu_0, # of connection points: 4
#     Node 20, Type 0, BuildingBlock: NAHDIM_clean_sbu_0, # of connection points: 4
#     Node 21, Type 0, BuildingBlock: NAHDIM_clean_sbu_0, # of connection points: 4
#     Node 22, Type 0, BuildingBlock: NAHDIM_clean_sbu_0, # of connection points: 4
#     Node 23, Type 0, BuildingBlock: NAHDIM_clean_sbu_0, # of connection points: 4
#     Node 24, Type 0, BuildingBlock: NAHDIM_clean_sbu_0, # of connection points: 4
#     Node 25, Type 0, BuildingBlock: NAHDIM_clean_sbu_0, # of connection points: 4
#     Node 26, Type 0, BuildingBlock: NAHDIM_clean_sbu_0, # of connection points: 4
#     Node 27, Type 0, BuildingBlock: NAHDIM_clean_sbu_0, # of connection points: 4
#     Node 28, Type 0, BuildingBlock: NAHDIM_clean_sbu_0, # of connection points: 4
#     Node 29, Type 0, BuildingBlock: NAHDIM_clean_sbu_0, # of connection points: 4
#     Node 30, Type 0, BuildingBlock: NAHDIM_clean_sbu_0, # of connection points: 4
#     Node 31, Type 0, BuildingBlock: NAHDIM_clean_sbu_0, # of connection points: 4
#     Edge 32, Type (0, 0), BuildingBlock: KIFKEQ_clean_linker_1, # of connection points: 2
#     Edge 33, Type (0, 0), BuildingBlock: KIFKEQ_clean_linker_1, # of connection points: 2
#     Edge 34, Type (0, 0), BuildingBlock: KIFKEQ_clean_linker_1, # of connection points: 2
#     Edge 35, Type (0, 0), BuildingBlock: KIFKEQ_clean_linker_1, # of connection points: 2
#     Edge 36, Type (0, 0), BuildingBlock: KIFKEQ_clean_linker_1, # of connection points: 2
#     Edge 37, Type (0, 0), BuildingBlock: KIFKEQ_clean_linker_1, # of connection points: 2
#     Edge 38, Type (0, 0), BuildingBlock: KIFKEQ_clean_linker_1, # of connection points: 2
#     Edge 39, Type (0, 0), BuildingBlock: KIFKEQ_clean_linker_1, # of connection points: 2
#     Edge 40, Type (0, 0), BuildingBlock: KIFKEQ_clean_linker_1, # of connection points: 2
#     Edge 41, Type (0, 0), BuildingBlock: KIFKEQ_clean_linker_1, # of connection points: 2
#     Edge 42, Type (0, 0), BuildingBlock: KIFKEQ_clean_linker_1, # of connection points: 2
#     Edge 43, Type (0, 0), BuildingBlock: KIFKEQ_clean_linker_1, # of connection points: 2
#     Edge 44, Type (0, 0), BuildingBlock: KIFKEQ_clean_linker_1, # of connection points: 2
#     Edge 45, Type (0, 0), BuildingBlock: KIFKEQ_clean_linker_1, # of connection points: 2
#     Edge 46, Type (0, 0), BuildingBlock: KIFKEQ_clean_linker_1, # of connection points: 2
#     Edge 47, Type (0, 0), BuildingBlock: KIFKEQ_clean_linker_1, # of connection points: 2
#     Edge 48, Type (0, 0), BuildingBlock: KIFKEQ_clean_linker_1, # of connection points: 2
#     Edge 49, Type (0, 0), BuildingBlock: KIFKEQ_clean_linker_1, # of connection points: 2
#     Edge 50, Type (0, 0), BuildingBlock: KIFKEQ_clean_linker_1, # of connection points: 2
#     Edge 51, Type (0, 0), BuildingBlock: KIFKEQ_clean_linker_1, # of connection points: 2
#     Edge 52, Type (0, 0), BuildingBlock: KIFKEQ_clean_linker_1, # of connection points: 2
#     Edge 53, Type (0, 0), BuildingBlock: KIFKEQ_clean_linker_1, # of connection points: 2
#     Edge 54, Type (0, 0), BuildingBlock: KIFKEQ_clean_linker_1, # of connection points: 2
#     Edge 55, Type (0, 0), BuildingBlock: KIFKEQ_clean_linker_1, # of connection points: 2
#     Edge 56, Type (0, 0), BuildingBlock: KIFKEQ_clean_linker_1, # of connection points: 2
#     Edge 57, Type (0, 0), BuildingBlock: KIFKEQ_clean_linker_1, # of connection points: 2
#     Edge 58, Type (0, 0), BuildingBlock: KIFKEQ_clean_linker_1, # of connection points: 2
#     Edge 59, Type (0, 0), BuildingBlock: KIFKEQ_clean_linker_1, # of connection points: 2
#     Edge 60, Type (0, 0), BuildingBlock: KIFKEQ_clean_linker_1, # of connection points: 2
#     Edge 61, Type (0, 0), BuildingBlock: KIFKEQ_clean_linker_1, # of connection points: 2
#     Edge 62, Type (0, 0), BuildingBlock: KIFKEQ_clean_linker_1, # of connection points: 2
#     Edge 63, Type (0, 0), BuildingBlock: KIFKEQ_clean_linker_1, # of connection points: 2
#     Edge 64, Type (0, 0), BuildingBlock: KIFKEQ_clean_linker_1, # of connection points: 2
#     Edge 65, Type (0, 0), BuildingBlock: KIFKEQ_clean_linker_1, # of connection points: 2
#     Edge 66, Type (0, 0), BuildingBlock: KIFKEQ_clean_linker_1, # of connection points: 2
#     Edge 67, Type (0, 0), BuildingBlock: KIFKEQ_clean_linker_1, # of connection points: 2
#     Edge 68, Type (0, 0), BuildingBlock: KIFKEQ_clean_linker_1, # of connection points: 2
#     Edge 69, Type (0, 0), BuildingBlock: KIFKEQ_clean_linker_1, # of connection points: 2
#     Edge 70, Type (0, 0), BuildingBlock: KIFKEQ_clean_linker_1, # of connection points: 2
#     Edge 71, Type (0, 0), BuildingBlock: KIFKEQ_clean_linker_1, # of connection points: 2
#     Edge 72, Type (0, 0), BuildingBlock: KIFKEQ_clean_linker_1, # of connection points: 2
#     Edge 73, Type (0, 0), BuildingBlock: KIFKEQ_clean_linker_1, # of connection points: 2
#     Edge 74, Type (0, 0), BuildingBlock: KIFKEQ_clean_linker_1, # of connection points: 2
#     Edge 75, Type (0, 0), BuildingBlock: KIFKEQ_clean_linker_1, # of connection points: 2
#     Edge 76, Type (0, 0), BuildingBlock: KIFKEQ_clean_linker_1, # of connection points: 2
#     Edge 77, Type (0, 0), BuildingBlock: KIFKEQ_clean_linker_1, # of connection points: 2
#     Edge 78, Type (0, 0), BuildingBlock: KIFKEQ_clean_linker_1, # of connection points: 2
#     Edge 79, Type (0, 0), BuildingBlock: KIFKEQ_clean_linker_1, # of connection points: 2
#     Edge 80, Type (0, 0), BuildingBlock: KIFKEQ_clean_linker_1, # of connection points: 2
#     Edge 81, Type (0, 0), BuildingBlock: KIFKEQ_clean_linker_1, # of connection points: 2
#     Edge 82, Type (0, 0), BuildingBlock: KIFKEQ_clean_linker_1, # of connection points: 2
#     Edge 83, Type (0, 0), BuildingBlock: KIFKEQ_clean_linker_1, # of connection points: 2
#     Edge 84, Type (0, 0), BuildingBlock: KIFKEQ_clean_linker_1, # of connection points: 2
#     Edge 85, Type (0, 0), BuildingBlock: KIFKEQ_clean_linker_1, # of connection points: 2
#     Edge 86, Type (0, 0), BuildingBlock: KIFKEQ_clean_linker_1, # of connection points: 2
#     Edge 87, Type (0, 0), BuildingBlock: KIFKEQ_clean_linker_1, # of connection points: 2
#     Edge 88, Type (0, 0), BuildingBlock: KIFKEQ_clean_linker_1, # of connection points: 2
#     Edge 89, Type (0, 0), BuildingBlock: KIFKEQ_clean_linker_1, # of connection points: 2
#     Edge 90, Type (0, 0), BuildingBlock: KIFKEQ_clean_linker_1, # of connection points: 2
#     Edge 91, Type (0, 0), BuildingBlock: KIFKEQ_clean_linker_1, # of connection points: 2
#     Edge 92, Type (0, 0), BuildingBlock: KIFKEQ_clean_linker_1, # of connection points: 2
#     Edge 93, Type (0, 0), BuildingBlock: KIFKEQ_clean_linker_1, # of connection points: 2
#     Edge 94, Type (0, 0), BuildingBlock: KIFKEQ_clean_linker_1, # of connection points: 2
#     Edge 95, Type (0, 0), BuildingBlock: KIFKEQ_clean_linker_1, # of connection points: 2
# Relax obj value: 0.315
# Max RMSD: 0.189
# Mean RMSD: 0.189
data_MOF--net-uoi--node1-NAHDIM_clean_sbu_0--edge1-KIFKEQ_clean_linker_1
_symmetry_space_group_name_H-M    P1
_symmetry_Int_Tables_number       1
_symmetry_cell_setting            triclinic
loop_
_symmetry_equiv_pos_as_xyz
'x, y, z'
_cell_length_a     81.613457
_cell_length_b     81.61659
_cell_length_c     19.296696
_cell_angle_alpha  89.96633
_cell_angle_beta   89.991701
_cell_angle_gamma 89.981849
loop_
_atom_site_label
_atom_site_type_symbol
_atom_site_fract_x
_atom_site_fract_y
_atom_site_fract_z
_atom_type_partial_charge
C0 C 0.14871 0.15256 0.32975 0.0
O1 O 0.16382 0.14829 0.34473 0.0
O2 O 0.17955 0.17554 0.42094 0.0
Zn3 Zn 0.15604 0.18231 0.40776 0.0
O4 O 0.15459 0.20313 0.35288 0.0
C5 C 0.15436 0.18615 0.5565 0.0
O6 O 0.16696 0.17612 0.55677 0.0
O7 O 0.14286 0.1657 0.35501 0.0
C8 C 0.16206 0.21614 0.3704 0.0
O9 O 0.17216 0.21585 0.42338 0.0
C10 C 0.19107 0.17941 0.37985 0.0
O11 O 0.18762 0.18747 0.32274 0.0
O12 O 0.1467 0.18862 0.5001 0.0
C13 C 0.09252 0.89808 0.59853 0.0
O14 O 0.09943 0.90045 0.65919 0.0
O15 O 0.06613 0.93252 0.68879 0.0
Zn16 Zn 0.06077 0.90957 0.65858 0.0
O17 O 0.03941 0.90941 0.60719 0.0
C18 C 0.06069 0.90115 0.8031 0.0
O19 O 0.07057 0.91381 0.80762 0.0
O20 O 0.07732 0.90086 0.59098 0.0
C21 C 0.02554 0.90867 0.63705 0.0
O22 O 0.02481 0.9091 0.70504 0.0
C23 C 0.06241 0.94516 0.65383 0.0
O24 O 0.05541 0.94339 0.59299 0.0
O25 O 0.05695 0.89573 0.74341 0.0
C26 C 0.34979 0.84655 0.83212 0.0
O27 O 0.33438 0.85012 0.84459 0.0
O28 O 0.32038 0.82493 0.93915 0.0
Zn29 Zn 0.34313 0.81739 0.91436 0.0
O30 O 0.34241 0.79728 0.8551 0.0
C31 C 0.34806 0.81197 0.06086 0.0
O32 O 0.33678 0.82332 0.06825 0.0
O33 O 0.35615 0.83401 0.86049 0.0
C34 C 0.33471 0.78442 0.87291 0.0
O35 O 0.32555 0.78461 0.92888 0.0
C36 C 0.30777 0.82266 0.90186 0.0
O37 O 0.30942 0.81592 0.84043 0.0
O38 O 0.35398 0.80928 0.00104 0.0
C39 C 0.40575 0.09506 0.02694 0.0
O40 O 0.41343 0.08142 0.01099 0.0
O41 O 0.42023 0.06667 0.16382 0.0
Zn42 Zn 0.42604 0.09008 0.14092 0.0
O43 O 0.44643 0.0913 0.08329 0.0
C44 C 0.43063 0.09453 0.28788 0.0
O45 O 0.42015 0.08239 0.29331 0.0
O46 O 0.40839 0.10149 0.08594 0.0
C47 C 0.46003 0.08559 0.10442 0.0
O48 O 0.46061 0.07737 0.16293 0.0
C49 C 0.42558 0.0542 0.13162 0.0
O50 O 0.43471 0.05626 0.07622 0.0
O51 O 0.43281 0.10122 0.22909 0.0
C52 C 0.15516 0.84909 0.19915 0.0
O53 O 0.17099 0.84684 0.20661 0.0
O54 O 0.18305 0.82923 0.07922 0.0
Zn55 Zn 0.15962 0.82333 0.10102 0.0
O56 O 0.15823 0.8032 0.16031 0.0
C57 C 0.15552 0.81859 0.95358 0.0
O58 O 0.16774 0.82899 0.94846 0.0
O59 O 0.14757 0.84107 0.15264 0.0
C60 C 0.1643 0.78957 0.14143 0.0
O61 O 0.17311 0.78883 0.08453 0.0
C62 C 0.19544 0.82459 0.11396 0.0
O63 O 0.19322 0.81623 0.17138 0.0
O64 O 0.14892 0.81622 0.01241 0.0
C65 C 0.4069 0.90041 0.42708 0.0
O66 O 0.40007 0.91268 0.39385 0.0
O67 O 0.42858 0.93058 0.32095 0.0
Zn68 Zn 0.43712 0.90861 0.35108 0.0
O69 O 0.45772 0.91134 0.40675 0.0
C70 C 0.44081 0.90084 0.20574 0.0
O71 O 0.42943 0.91204 0.1972 0.0
O72 O 0.4216 0.89643 0.41337 0.0
C73 C 0.47163 0.91319 0.37812 0.0
O74 O 0.47245 0.91486 0.3105 0.0
C75 C 0.43011 0.94354 0.35676 0.0
O76 O 0.4367 0.94261 0.41875 0.0
O77 O 0.44424 0.89605 0.26673 0.0
C78 C 0.3576 0.16322 0.64374 0.0
O79 O 0.36656 0.16549 0.588 0.0
O80 O 0.31395 0.1889 0.56784 0.0
Zn81 Zn 0.33777 0.19082 0.59304 0.0
O82 O 0.34095 0.21143 0.64804 0.0
C83 C 0.34462 0.19059 0.44652 0.0
O84 O 0.33156 0.1812 0.44402 0.0
O85 O 0.34503 0.17209 0.65344 0.0
C86 C 0.34164 0.22533 0.61841 0.0
O87 O 0.33956 0.22625 0.551 0.0
C88 C 0.30632 0.17537 0.56377 0.0
O89 O 0.31395 0.16171 0.57984 0.0
O90 O 0.35071 0.19411 0.50526 0.0
C91 C 0.09025 0.09924 0.92763 0.0
O92 O 0.09633 0.08638 0.89578 0.0
O93 O 0.06577 0.06989 0.82865 0.0
Zn94 Zn 0.05991 0.09335 0.84866 0.0
O95 O 0.03821 0.09491 0.89697 0.0
C96 C 0.06022 0.09808 0.70089 0.0
O97 O 0.07002 0.08531 0.70211 0.0
O98 O 0.076 0.10431 0.91208 0.0
C99 C 0.02554 0.0866 0.88193 0.0
O100 O 0.02639 0.07523 0.83392 0.0
C101 C 0.06272 0.05759 0.86685 0.0
O102 O 0.05581 0.05985 0.92761 0.0
O103 O 0.05625 0.10483 0.75783 0.0
C104 C 0.84688 0.83757 0.69564 0.0
O105 O 0.83415 0.82895 0.71579 0.0
O106 O 0.81847 0.82079 0.56483 0.0
Zn107 Zn 0.8424 0.8164 0.58319 0.0
O108 O 0.84541 0.79586 0.63907 0.0
C109 C 0.84579 0.81457 0.43508 0.0
O110 O 0.83303 0.82438 0.43591 0.0
O111 O 0.8529 0.83488 0.63593 0.0
C112 C 0.83942 0.78228 0.61923 0.0
O113 O 0.8302 0.78182 0.56343 0.0
C114 C 0.80646 0.8151 0.5991 0.0
O115 O 0.80926 0.80622 0.65466 0.0
O116 O 0.85303 0.81134 0.4918 0.0
C117 C 0.91233 0.09433 0.47399 0.0
O118 O 0.92172 0.08182 0.49022 0.0
O119 O 0.92617 0.06672 0.32973 0.0
Zn120 Zn 0.931 0.09024 0.35389 0.0
O121 O 0.95199 0.0917 0.40807 0.0
C122 C 0.93175 0.09615 0.20668 0.0
O123 O 0.92131 0.08392 0.20468 0.0
O124 O 0.91335 0.10032 0.41326 0.0
C125 C 0.9659 0.09083 0.37857 0.0
O126 O 0.96662 0.088 0.31163 0.0
C127 C 0.93248 0.05452 0.36068 0.0
O128 O 0.94195 0.05699 0.41471 0.0
O129 O 0.93561 0.10224 0.26508 0.0
C130 C 0.6456 0.15359 0.1611 0.0
O131 O 0.65568 0.14599 0.11889 0.0
O132 O 0.67895 0.17668 0.07673 0.0
Zn133 Zn 0.65589 0.18441 0.09373 0.0
O134 O 0.65627 0.20578 0.1454 0.0
C135 C 0.65205 0.18626 0.94548 0.0
O136 O 0.66504 0.17675 0.94568 0.0
O137 O 0.6436 0.16897 0.15561 0.0
C138 C 0.6566 0.2197 0.11582 0.0
O139 O 0.65775 0.22048 0.04799 0.0
C140 C 0.69079 0.18048 0.11626 0.0
O141 O 0.68786 0.18908 0.17245 0.0
O142 O 0.64492 0.18933 0.0026 0.0
C143 C 0.59596 0.90246 0.94324 0.0
O144 O 0.59413 0.91837 0.94993 0.0
O145 O 0.57535 0.93059 0.82742 0.0
Zn146 Zn 0.56984 0.9069 0.84584 0.0
O147 O 0.54937 0.90478 0.90274 0.0
C148 C 0.56736 0.90402 0.69759 0.0
O149 O 0.57795 0.91613 0.69833 0.0
O150 O 0.58756 0.89491 0.89785 0.0
C151 C 0.53581 0.91102 0.88397 0.0
O152 O 0.53524 0.92021 0.82809 0.0
C153 C 0.57017 0.94286 0.86139 0.0
O154 O 0.5614 0.94048 0.91759 0.0
O155 O 0.56387 0.89684 0.75421 0.0
C156 C 0.85964 0.16102 0.85037 0.0
O157 O 0.86949 0.16679 0.89834 0.0
O158 O 0.81375 0.18429 0.92723 0.0
Zn159 Zn 0.8375 0.18615 0.90107 0.0
O160 O 0.84039 0.20641 0.84342 0.0
C161 C 0.8448 0.18714 0.04765 0.0
O162 O 0.83232 0.17707 0.05294 0.0
O163 O 0.84531 0.16695 0.84469 0.0
C164 C 0.83966 0.22038 0.87239 0.0
O165 O 0.83622 0.22125 0.9388 0.0
C166 C 0.80573 0.17101 0.93218 0.0
O167 O 0.81287 0.15708 0.91632 0.0
O168 O 0.85035 0.19058 0.98785 0.0
C169 C 0.58985 0.09461 0.556 0.0
O170 O 0.59108 0.07859 0.56009 0.0
O171 O 0.56818 0.06683 0.67098 0.0
Zn172 Zn 0.56135 0.08957 0.64246 0.0
O173 O 0.54162 0.08927 0.58056 0.0
C174 C 0.55622 0.09596 0.78825 0.0
O175 O 0.56774 0.08492 0.79733 0.0
O176 O 0.57881 0.10192 0.59072 0.0
C177 C 0.52827 0.08241 0.59801 0.0
O178 O 0.52764 0.07376 0.65537 0.0
C179 C 0.56546 0.05385 0.63665 0.0
O180 O 0.55853 0.05491 0.57536 0.0
O181 O 0.55318 0.10106 0.72737 0.0
C182 C 0.64696 0.83954 0.33788 0.0
O183 O 0.65115 0.8467 0.39619 0.0
O184 O 0.68096 0.81401 0.42758 0.0
Zn185 Zn 0.65821 0.80779 0.39784 0.0
O186 O 0.65889 0.78658 0.34547 0.0
C187 C 0.65007 0.80672 0.54265 0.0
O188 O 0.6625 0.81687 0.54772 0.0
O189 O 0.64863 0.82415 0.33149 0.0
C190 C 0.65888 0.77266 0.37512 0.0
O191 O 0.65956 0.77189 0.44307 0.0
C192 C 0.69361 0.81194 0.39033 0.0
O193 O 0.69195 0.8061 0.32728 0.0
O194 O 0.64466 0.80312 0.48279 0.0
C195 C 0.91178 0.9018 0.0451 0.0
O196 O 0.92077 0.91433 0.02555 0.0
O197 O 0.9276 0.92947 0.18337 0.0
Zn198 Zn 0.93228 0.90587 0.16049 0.0
O199 O 0.9529 0.90407 0.10361 0.0
C200 C 0.93251 0.90048 0.30785 0.0
O201 O 0.92202 0.9127 0.30772 0.0
O202 O 0.914 0.8958 0.10522 0.0
C203 C 0.96698 0.90358 0.13179 0.0
O204 O 0.96817 0.905 0.19942 0.0
C205 C 0.93354 0.94172 0.15146 0.0
O206 O 0.94277 0.93932 0.09662 0.0
O207 O 0.93687 0.89427 0.25033 0.0
C208 C 0.65242 0.65614 0.78819 0.0
O209 O 0.66525 0.66448 0.76702 0.0
O210 O 0.68055 0.67368 0.91938 0.0
Zn211 Zn 0.65671 0.67798 0.89946 0.0
O212 O 0.65424 0.69838 0.84142 0.0
C213 C 0.65249 0.67894 0.04757 0.0
O214 O 0.665 0.6688 0.04689 0.0
O215 O 0.64639 0.65931 0.84744 0.0
C216 C 0.65391 0.71249 0.86929 0.0
O217 O 0.65587 0.71378 0.93665 0.0
C218 C 0.69242 0.68015 0.88673 0.0
O219 O 0.6894 0.68958 0.83304 0.0
O220 O 0.64575 0.68283 0.99049 0.0
C221 C 0.59721 0.40008 0.07476 0.0
O222 O 0.59808 0.41612 0.07837 0.0
O223 O 0.57465 0.4289 0.17435 0.0
Zn224 Zn 0.5689 0.40501 0.16204 0.0
O225 O 0.54806 0.40255 0.10784 0.0
C226 C 0.56571 0.40379 0.31067 0.0
O227 O 0.57496 0.41694 0.30801 0.0
O228 O 0.58633 0.3926 0.10981 0.0
C229 C 0.53476 0.40913 0.12782 0.0
O230 O 0.53479 0.41868 0.18259 0.0
C231 C 0.56931 0.44048 0.13653 0.0
O232 O 0.56005 0.43702 0.08282 0.0
O233 O 0.56332 0.39562 0.25551 0.0
C234 C 0.84555 0.34231 0.30646 0.0
O235 O 0.82955 0.3406 0.30485 0.0
O236 O 0.81944 0.3204 0.42626 0.0
Zn237 Zn 0.84318 0.31579 0.4045 0.0
O238 O 0.84544 0.29489 0.35064 0.0
C239 C 0.84798 0.31502 0.5521 0.0
O240 O 0.83549 0.32518 0.55206 0.0
O241 O 0.85388 0.33363 0.34834 0.0
C242 C 0.83848 0.28171 0.36977 0.0
O243 O 0.82868 0.28188 0.42376 0.0
C244 C 0.80719 0.31598 0.39017 0.0
O245 O 0.80963 0.30858 0.3306 0.0
O246 O 0.8545 0.31109 0.49466 0.0
C247 C 0.90897 0.59614 0.5485 0.0
O248 O 0.9174 0.58342 0.52692 0.0
O249 O 0.92474 0.56668 0.6819 0.0
Zn250 Zn 0.92986 0.59033 0.6609 0.0
O251 O 0.95015 0.59233 0.60278 0.0
C252 C 0.93361 0.59432 0.80859 0.0
O253 O 0.92318 0.5821 0.81217 0.0
O254 O 0.91159 0.60159 0.60926 0.0
C255 C 0.96366 0.58609 0.62221 0.0
O256 O 0.96412 0.57709 0.67867 0.0
C257 C 0.9297 0.55447 0.64692 0.0
O258 O 0.93796 0.55695 0.58944 0.0
O259 O 0.93628 0.60107 0.75029 0.0
C260 C 0.65581 0.33972 0.69301 0.0
O261 O 0.67141 0.33608 0.69962 0.0
O262 O 0.68169 0.32013 0.56517 0.0
Zn263 Zn 0.65818 0.31502 0.58896 0.0
O264 O 0.6569 0.29435 0.64558 0.0
C265 C 0.65261 0.31389 0.44166 0.0
O266 O 0.66507 0.32407 0.4401 0.0
O267 O 0.64753 0.33282 0.64545 0.0
C268 C 0.65718 0.28028 0.61734 0.0
O269 O 0.65917 0.27917 0.54994 0.0
C270 C 0.69394 0.31396 0.59633 0.0
O271 O 0.6915 0.30449 0.65042 0.0
O272 O 0.6464 0.31006 0.49989 0.0
C273 C 0.9048 0.4015 0.92347 0.0
O274 O 0.90515 0.41758 0.9222 0.0
O275 O 0.92764 0.42877 0.8146 0.0
Zn276 Zn 0.93291 0.4051 0.83431 0.0
O277 O 0.95336 0.40307 0.89154 0.0
C278 C 0.93483 0.40157 0.68637 0.0
O279 O 0.92403 0.41351 0.68704 0.0
O280 O 0.91492 0.39352 0.88636 0.0
C281 C 0.96665 0.41011 0.87448 0.0
O282 O 0.96688 0.41987 0.82032 0.0
C283 C 0.93164 0.44106 0.85124 0.0
O284 O 0.93917 0.43873 0.91063 0.0
O285 O 0.93872 0.39473 0.74324 0.0
C286 C 0.84599 0.66408 0.20345 0.0
O287 O 0.83344 0.67297 0.22357 0.0
O288 O 0.81819 0.67885 0.05911 0.0
Zn289 Zn 0.84129 0.68441 0.08744 0.0
O290 O 0.84145 0.70479 0.14587 0.0
C291 C 0.84857 0.68746 0.94139 0.0
O292 O 0.83679 0.67662 0.93414 0.0
O293 O 0.85178 0.66631 0.14296 0.0
C294 C 0.83945 0.71871 0.11754 0.0
O295 O 0.83622 0.71947 0.05092 0.0
C296 C 0.8056 0.6836 0.09219 0.0
O297 O 0.80746 0.69186 0.15004 0.0
O298 O 0.85378 0.69074 0.00185 0.0
C299 C 0.58494 0.5914 0.45024 0.0
O300 O 0.57567 0.57926 0.47171 0.0
O301 O 0.56483 0.56426 0.32002 0.0
Zn302 Zn 0.56291 0.58842 0.3392 0.0
O303 O 0.54284 0.59245 0.39673 0.0
C304 C 0.56101 0.59368 0.19077 0.0
O305 O 0.5709 0.58102 0.18668 0.0
O306 O 0.58231 0.59747 0.39057 0.0
C307 C 0.52958 0.58504 0.38238 0.0
O308 O 0.52948 0.57404 0.3327 0.0
C309 C 0.57814 0.55654 0.31005 0.0
O310 O 0.59216 0.56434 0.31578 0.0
O311 O 0.55791 0.59983 0.24979 0.0
C312 C 0.34681 0.3393 0.20892 0.0
O313 O 0.33443 0.33025 0.22965 0.0
O314 O 0.31833 0.32465 0.06826 0.0
Zn315 Zn 0.34183 0.31941 0.09188 0.0
O316 O 0.34313 0.29867 0.14824 0.0
C317 C 0.34769 0.31868 0.9447 0.0
O318 O 0.33522 0.32886 0.94314 0.0
O319 O 0.35227 0.33737 0.14773 0.0
C320 C 0.34304 0.28464 0.11959 0.0
O321 O 0.3413 0.28363 0.05204 0.0
C322 C 0.30605 0.31846 0.09909 0.0
O323 O 0.30844 0.30874 0.15242 0.0
O324 O 0.35371 0.31462 0.00297 0.0
C325 C 0.41211 0.59819 0.96088 0.0
O326 O 0.42201 0.5865 0.98187 0.0
O327 O 0.42658 0.56934 0.82011 0.0
Zn328 Zn 0.43138 0.59299 0.84259 0.0
O329 O 0.4523 0.59489 0.8964 0.0
C330 C 0.43368 0.59822 0.69511 0.0
O331 O 0.42343 0.58585 0.69152 0.0
O332 O 0.41334 0.60334 0.89886 0.0
C333 C 0.46535 0.58809 0.87486 0.0
O334 O 0.46486 0.57873 0.81952 0.0
C335 C 0.43122 0.55717 0.85627 0.0
O336 O 0.439 0.55974 0.91483 0.0
O337 O 0.43668 0.6046 0.7538 0.0
C338 C 0.14645 0.65767 0.67234 0.0
O339 O 0.16015 0.6521 0.64552 0.0
O340 O 0.17672 0.68087 0.57512 0.0
Zn341 Zn 0.15393 0.68829 0.59924 0.0
O342 O 0.15448 0.70872 0.65663 0.0
C343 C 0.14898 0.69289 0.45244 0.0
O344 O 0.16044 0.68168 0.44632 0.0
O345 O 0.14137 0.67185 0.65566 0.0
C346 C 0.16251 0.72145 0.63979 0.0
O347 O 0.17217 0.72107 0.58535 0.0
C348 C 0.18923 0.68272 0.61339 0.0
O349 O 0.18746 0.68905 0.67553 0.0
O350 O 0.14288 0.69571 0.51187 0.0
C351 C 0.09526 0.40161 0.42275 0.0
O352 O 0.10149 0.41488 0.39459 0.0
O353 O 0.07299 0.43157 0.31676 0.0
Zn354 Zn 0.06526 0.40902 0.34354 0.0
O355 O 0.04444 0.41061 0.39857 0.0
C356 C 0.06177 0.40225 0.19712 0.0
O357 O 0.07253 0.41409 0.18998 0.0
O358 O 0.08104 0.39687 0.405 0.0
C359 C 0.03057 0.41239 0.36953 0.0
O360 O 0.02989 0.41466 0.3022 0.0
C361 C 0.07007 0.44416 0.35332 0.0
O362 O 0.06271 0.44239 0.41342 0.0
O363 O 0.05868 0.39681 0.25746 0.0
C364 C 0.34335 0.65994 0.30622 0.0
O365 O 0.33011 0.66764 0.28511 0.0
O366 O 0.31412 0.67615 0.43729 0.0
Zn367 Zn 0.33762 0.68169 0.41536 0.0
O368 O 0.33931 0.70158 0.35467 0.0
C369 C 0.34185 0.68666 0.56249 0.0
O370 O 0.3296 0.67631 0.56815 0.0
O371 O 0.34914 0.66335 0.36566 0.0
C372 C 0.33347 0.71531 0.37352 0.0
O373 O 0.32489 0.71624 0.43101 0.0
C374 C 0.30176 0.68101 0.40295 0.0
O375 O 0.30401 0.68954 0.34596 0.0
O376 O 0.34842 0.68888 0.50352 0.0
C377 C 0.09337 0.59902 0.07544 0.0
O378 O 0.09794 0.58405 0.09137 0.0
O379 O 0.07176 0.56908 0.18111 0.0
Zn380 Zn 0.0642 0.59195 0.15834 0.0
O381 O 0.0436 0.59166 0.10206 0.0
C382 C 0.05976 0.59679 0.3057 0.0
O383 O 0.07056 0.58494 0.3118 0.0
O384 O 0.08037 0.60487 0.10194 0.0
C385 C 0.03073 0.58396 0.11967 0.0
O386 O 0.03102 0.57429 0.1741 0.0
C387 C 0.06917 0.55661 0.14336 0.0
O388 O 0.06198 0.5585 0.08298 0.0
O389 O 0.05702 0.6029 0.24622 0.0
C390 C 0.15127 0.34594 0.82669 0.0
O391 O 0.16618 0.35027 0.84458 0.0
O392 O 0.18057 0.32285 0.93137 0.0
Zn393 Zn 0.15742 0.31626 0.90849 0.0
O394 O 0.15708 0.29547 0.85336 0.0
C395 C 0.1525 0.3126 0.05602 0.0
O396 O 0.16459 0.32316 0.06088 0.0
O397 O 0.14514 0.33286 0.85136 0.0
C398 C 0.16526 0.28278 0.8693 0.0
O399 O 0.17569 0.28335 0.92108 0.0
C400 C 0.19294 0.32055 0.89267 0.0
O401 O 0.19082 0.3144 0.83039 0.0
O402 O 0.14625 0.30975 0.99693 0.0
C403 C 0.41389 0.4034 0.55201 0.0
O404 O 0.42178 0.41662 0.53219 0.0
O405 O 0.43 0.43115 0.6892 0.0
Zn406 Zn 0.43566 0.40792 0.66315 0.0
O407 O 0.45581 0.4075 0.60312 0.0
C408 C 0.43915 0.40142 0.80978 0.0
O409 O 0.42844 0.41332 0.81663 0.0
O410 O 0.41735 0.39709 0.61049 0.0
C411 C 0.46982 0.40967 0.63052 0.0
O412 O 0.47074 0.41313 0.69688 0.0
C413 C 0.43508 0.44358 0.65585 0.0
O414 O 0.44382 0.44143 0.59943 0.0
O415 O 0.44227 0.39593 0.74959 0.0
H416 H 0.28544 0.14915 0.55586 0.0
H417 H 0.28909 0.20076 0.50774 0.0
H418 H 0.25786 0.14862 0.50633 0.0
H419 H 0.26162 0.2002 0.45892 0.0
H420 H 0.21885 0.19046 0.31589 0.0
H421 H 0.24699 0.18834 0.35779 0.0
H422 H 0.2303 0.1602 0.53376 0.0
H423 H 0.2022 0.16216 0.49176 0.0
C424 C 0.28036 0.16037 0.53492 0.0
C425 C 0.28944 0.175 0.53588 0.0
C426 C 0.26457 0.16007 0.5067 0.0
C427 C 0.25764 0.17434 0.47834 0.0
C428 C 0.26673 0.18895 0.47938 0.0
C429 C 0.28243 0.18929 0.50798 0.0
C430 C 0.2212 0.18364 0.36302 0.0
C431 C 0.20828 0.17658 0.40073 0.0
C432 C 0.2373 0.18252 0.38723 0.0
C433 C 0.24081 0.17424 0.44939 0.0
C434 C 0.22798 0.16658 0.48551 0.0
C435 C 0.21188 0.16778 0.46154 0.0
H436 H 0.05584 0.97484 0.59413 0.0
H437 H 0.07404 0.95278 0.78276 0.0
H438 H 0.0577 0.00183 0.64755 0.0
H439 H 0.07608 0.97982 0.83576 0.0
H440 H 0.05527 0.02826 0.92849 0.0
H441 H 0.0569 0.00101 0.8769 0.0
H442 H 0.07758 0.0219 0.69072 0.0
H443 H 0.07578 0.04911 0.74164 0.0
C444 C 0.0604 0.97575 0.6467 0.0
C445 C 0.06472 0.96165 0.68421 0.0
C446 C 0.06155 0.99123 0.67722 0.0
C447 C 0.067 0.99295 0.74598 0.0
C448 C 0.07165 0.97887 0.783 0.0
C449 C 0.07057 0.9634 0.75241 0.0
C450 C 0.06033 0.02702 0.87686 0.0
C451 C 0.06527 0.04088 0.83905 0.0
C452 C 0.06132 0.01139 0.8474 0.0
C453 C 0.06724 0.00932 0.77949 0.0
C454 C 0.07271 0.02313 0.74268 0.0
C455 C 0.07176 0.03871 0.77213 0.0
H456 H 0.22469 0.81592 0.17272 0.0
H457 H 0.2039 0.83875 0.99062 0.0
H458 H 0.25186 0.81759 0.12071 0.0
H459 H 0.23111 0.84058 0.93911 0.0
H460 H 0.278 0.81818 0.83936 0.0
H461 H 0.25096 0.82073 0.89206 0.0
H462 H 0.27322 0.83694 0.08313 0.0
H463 H 0.30027 0.83422 0.03092 0.0
C464 C 0.22593 0.82149 0.12204 0.0
C465 C 0.21211 0.82711 0.08572 0.0
C466 C 0.24152 0.82252 0.09235 0.0
C467 C 0.24361 0.82915 0.02562 0.0
C468 C 0.22986 0.83522 0.9902 0.0
C469 C 0.21428 0.83425 0.01998 0.0
C470 C 0.27713 0.82247 0.89234 0.0
C471 C 0.2913 0.82588 0.93101 0.0
C472 C 0.26162 0.824 0.92246 0.0
C473 C 0.25997 0.82894 0.99192 0.0
C474 C 0.27412 0.83289 0.02983 0.0
C475 C 0.28961 0.83141 -0.00031 0.0
H476 H 0.41056 0.0461 0.25362 0.0
H477 H 0.43538 0.02485 0.07733 0.0
H478 H 0.40911 0.01918 0.30807 0.0
H479 H 0.43408 0.99799 0.13224 0.0
H480 H 0.43284 0.97385 0.41613 0.0
H481 H 0.4294 0.0004 0.35996 0.0
H482 H 0.4152 0.97622 0.1702 0.0
H483 H 0.41883 0.94966 0.22592 0.0
C484 C 0.41556 0.03567 0.22612 0.0
C485 C 0.42318 0.03764 0.16124 0.0
C486 C 0.41481 0.02027 0.25757 0.0
C487 C 0.42157 0.00648 0.22467 0.0
C488 C 0.42862 0.00835 0.15865 0.0
C489 C 0.42944 0.02377 0.12731 0.0
C490 C 0.4288 0.97419 0.36269 0.0
C491 C 0.42624 0.95963 0.3254 0.0
C492 C 0.42674 0.98941 0.33059 0.0
C493 C 0.42213 0.99039 0.26049 0.0
C494 C 0.41899 0.97585 0.22398 0.0
C495 C 0.42099 0.96064 0.2561 0.0
H496 H 0.70109 0.82146 0.52234 0.0
H497 H 0.72336 0.80859 0.3265 0.0
H498 H 0.72817 0.82411 0.57432 0.0
H499 H 0.75044 0.81107 0.37891 0.0
H500 H 0.77784 0.80421 0.65702 0.0
H501 H 0.75046 0.80516 0.60654 0.0
H502 H 0.76955 0.83123 0.4292 0.0
H503 H 0.79695 0.83015 0.4791 0.0
C504 C 0.71176 0.8193 0.49021 0.0
C505 C 0.71006 0.81474 0.42027 0.0
C506 C 0.72727 0.82073 0.52018 0.0
C507 C 0.74143 0.81772 0.48085 0.0
C508 C 0.73976 0.81362 0.41042 0.0
C509 C 0.72424 0.81212 0.38047 0.0
C510 C 0.77618 0.81029 0.60761 0.0
C511 C 0.7896 0.81702 0.57198 0.0
C512 C 0.76047 0.81089 0.57882 0.0
C513 C 0.75787 0.81819 0.51369 0.0
C514 C 0.77121 0.82533 0.47901 0.0
C515 C 0.78689 0.82478 0.50789 0.0
H516 H 0.91973 0.04603 0.23481 0.0
H517 H 0.94096 0.02537 0.42057 0.0
H518 H 0.91843 0.01876 0.1833 0.0
H519 H 0.93962 0.9981 0.36884 0.0
H520 H 0.92057 0.95013 0.27697 0.0
H521 H 0.91872 0.9774 0.32794 0.0
H522 H 0.93968 0.99828 0.14238 0.0
H523 H 0.94157 0.97098 0.09108 0.0
C524 C 0.92396 0.03566 0.26495 0.0
C525 C 0.93048 0.03786 0.33178 0.0
C526 C 0.92331 0.02007 0.23521 0.0
C527 C 0.92897 0.00634 0.27198 0.0
C528 C 0.93505 0.00847 0.33953 0.0
C529 C 0.93588 0.02408 0.36901 0.0
C530 C 0.92465 0.96054 0.24668 0.0
C531 C 0.93128 0.95839 0.17999 0.0
C532 C 0.92367 0.97613 0.27611 0.0
C533 C 0.92911 0.98993 0.23923 0.0
C534 C 0.93528 0.98786 0.17177 0.0
C535 C 0.93643 0.97223 0.14256 0.0
H536 H 0.78967 0.19703 0.98882 0.0
H537 H 0.78369 0.1457 0.93973 0.0
H538 H 0.76219 0.19768 0.03735 0.0
H539 H 0.75605 0.14639 0.98899 0.0
H540 H 0.70099 0.16284 0.00372 0.0
H541 H 0.72897 0.1594 0.96175 0.0
H542 H 0.7471 0.18636 0.1383 0.0
H543 H 0.71913 0.18995 0.18014 0.0
C544 C 0.78249 0.18587 0.98832 0.0
C545 C 0.78886 0.17131 0.96024 0.0
C546 C 0.76678 0.18622 0.01675 0.0
C547 C 0.75702 0.17206 0.01745 0.0
C548 C 0.7633 0.1575 0.98891 0.0
C549 C 0.77911 0.15711 0.96088 0.0
C550 C 0.71095 0.16788 0.03404 0.0
C551 C 0.70782 0.17681 0.09498 0.0
C552 C 0.72698 0.16583 0.01011 0.0
C553 C 0.7402 0.17274 0.04641 0.0
C554 C 0.73712 0.18112 0.1087 0.0
C555 C 0.7211 0.18309 0.13284 0.0
H556 H 0.58479 0.95142 0.73923 0.0
H557 H 0.56003 0.97201 0.91711 0.0
H558 H 0.58562 0.9784 0.68531 0.0
H559 H 0.56078 0.99899 0.86267 0.0
H560 H 0.57637 0.0476 0.76793 0.0
H561 H 0.57959 0.02102 0.82398 0.0
H562 H 0.56477 0.99695 0.63486 0.0
H563 H 0.56167 0.02352 0.57839 0.0
C564 C 0.57966 0.96172 0.76721 0.0
C565 C 0.57225 0.95953 0.8324 0.0
C566 C 0.58006 0.97716 0.73603 0.0
C567 C 0.57316 0.99078 0.76947 0.0
C568 C 0.56631 0.98874 0.83581 0.0
C569 C 0.56583 0.97326 0.8669 0.0
C570 C 0.57395 0.03664 0.73799 0.0
C571 C 0.56869 0.03768 0.66868 0.0
C572 C 0.57571 0.02142 0.77032 0.0
C573 C 0.57237 0.00691 0.73397 0.0
C574 C 0.56759 0.00792 0.66406 0.0
C575 C 0.56574 0.02315 0.6318 0.0
H576 H 0.72097 0.69046 0.82645 0.0
H577 H 0.70205 0.66607 0.00857 0.0
H578 H 0.74849 0.68967 0.87607 0.0
H579 H 0.72954 0.66527 0.0578 0.0
H580 H 0.77604 0.68914 0.15441 0.0
H581 H 0.74885 0.68664 0.1029 0.0
H582 H 0.77057 0.66986 0.91161 0.0
H583 H 0.79779 0.67237 0.96289 0.0
C584 C 0.7227 0.68479 0.87667 0.0
C585 C 0.70931 0.6784 0.91364 0.0
C586 C 0.73847 0.68427 0.90493 0.0
C587 C 0.74113 0.67748 0.97096 0.0
C588 C 0.72781 0.67074 0.00716 0.0
C589 C 0.71209 0.67112 0.97869 0.0
C590 C 0.77502 0.68479 0.10156 0.0
C591 C 0.78907 0.68099 0.06272 0.0
C592 C 0.75944 0.68329 0.07219 0.0
C593 C 0.75761 0.67809 0.00319 0.0
C594 C 0.77164 0.67403 0.96469 0.0
C595 C 0.78721 0.67538 0.99426 0.0
H596 H 0.55115 0.53875 0.27446 0.0
H597 H 0.6039 0.53549 0.28983 0.0
H598 H 0.55015 0.51095 0.22934 0.0
H599 H 0.60284 0.50755 0.24418 0.0
H600 H 0.58944 0.45176 0.23921 0.0
H601 H 0.59233 0.47989 0.28015 0.0
H602 H 0.55867 0.49625 0.12192 0.0
H603 H 0.55568 0.46813 0.08105 0.0
C604 C 0.56255 0.53209 0.26844 0.0
C605 C 0.57762 0.53935 0.28577 0.0
C606 C 0.56197 0.5162 0.24199 0.0
C607 C 0.57642 0.50713 0.23267 0.0
C608 C 0.59149 0.51425 0.25105 0.0
C609 C 0.5921 0.53024 0.27704 0.0
C610 C 0.58277 0.46137 0.2127 0.0
C611 C 0.57225 0.45769 0.15709 0.0
C612 C 0.58449 0.47749 0.23602 0.0
C613 C 0.57563 0.49024 0.20458 0.0
C614 C 0.56548 0.48663 0.14775 0.0
C615 C 0.56385 0.47053 0.12408 0.0
H616 H 0.77802 0.3093 0.32605 0.0
H617 H 0.79849 0.32668 0.5191 0.0
H618 H 0.75061 0.31033 0.37677 0.0
H619 H 0.77112 0.32775 0.56938 0.0
H620 H 0.72305 0.30481 0.65479 0.0
H621 H 0.75036 0.30683 0.60402 0.0
H622 H 0.7299 0.33021 0.42282 0.0
H623 H 0.70257 0.32816 0.47328 0.0
C624 C 0.77667 0.31349 0.37899 0.0
C625 C 0.79045 0.31784 0.41856 0.0
C626 C 0.76097 0.31415 0.40793 0.0
C627 C 0.75875 0.31904 0.47716 0.0
C628 C 0.77248 0.32374 0.51617 0.0
C629 C 0.78815 0.32322 0.48714 0.0
C630 C 0.72438 0.3105 0.60439 0.0
C631 C 0.71063 0.31629 0.56806 0.0
C632 C 0.74004 0.31173 0.57545 0.0
C633 C 0.74225 0.31864 0.50935 0.0
C634 C 0.72854 0.32468 0.47353 0.0
C635 C 0.71291 0.32359 0.5027 0.0
H636 H 0.93844 0.47032 0.91446 0.0
H637 H 0.91932 0.44964 0.72479 0.0
H638 H 0.93635 0.49772 0.86431 0.0
H639 H 0.91713 0.47699 0.67519 0.0
H640 H 0.93799 0.52547 0.58524 0.0
H641 H 0.9369 0.4981 0.6359 0.0
H642 H 0.91596 0.51818 0.82304 0.0
H643 H 0.91714 0.54557 0.7728 0.0
C644 C 0.93363 0.47162 0.86244 0.0
C645 C 0.92913 0.45779 0.82358 0.0
C646 C 0.93237 0.48732 0.83383 0.0
C647 C 0.92665 0.48949 0.76567 0.0
C648 C 0.92177 0.47569 0.72749 0.0
C649 C 0.92295 0.46003 0.75617 0.0
C650 C 0.93301 0.52404 0.63692 0.0
C651 C 0.92771 0.53771 0.675 0.0
C652 C 0.93232 0.50835 0.66584 0.0
C653 C 0.9264 0.50601 0.73357 0.0
C654 C 0.92076 0.51963 0.77106 0.0
C655 C 0.92135 0.5353 0.74201 0.0
H656 H 0.22234 0.31621 0.82666 0.0
H657 H 0.20128 0.33009 0.02365 0.0
H658 H 0.24968 0.31744 0.87772 0.0
H659 H 0.22858 0.33143 0.07423 0.0
H660 H 0.27696 0.30847 0.15517 0.0
H661 H 0.24969 0.31085 0.10451 0.0
H662 H 0.27007 0.33656 0.92883 0.0
H663 H 0.29739 0.33408 0.9791 0.0
C664 C 0.22354 0.31973 0.88053 0.0
C665 C 0.20961 0.32295 0.92112 0.0
C666 C 0.23921 0.3205 0.90971 0.0
C667 C 0.24126 0.32442 0.98014 0.0
C668 C 0.22737 0.32815 0.02009 0.0
C669 C 0.21173 0.32747 0.99089 0.0
C670 C 0.27562 0.31475 0.10604 0.0
C671 C 0.28936 0.32103 0.07113 0.0
C672 C 0.25998 0.31619 0.07717 0.0
C673 C 0.25775 0.32387 0.01258 0.0
C674 C 0.27144 0.33043 0.97831 0.0
C675 C 0.28706 0.32909 0.00738 0.0
H676 H 0.42146 0.45202 0.7803 0.0
H677 H 0.44249 0.47282 0.59443 0.0
H678 H 0.41861 0.47942 0.82932 0.0
H679 H 0.43974 0.50018 0.64382 0.0
H680 H 0.41966 0.54799 0.72916 0.0
H681 H 0.41874 0.52046 0.68034 0.0
H682 H 0.43791 0.50079 0.87169 0.0
H683 H 0.43872 0.5283 0.92094 0.0
C684 C 0.42536 0.46243 0.74965 0.0
C685 C 0.43226 0.46024 0.68351 0.0
C686 C 0.42381 0.47811 0.77796 0.0
C687 C 0.429 0.49193 0.74052 0.0
C688 C 0.43548 0.48978 0.67364 0.0
C689 C 0.43714 0.47409 0.64551 0.0
C690 C 0.42352 0.53779 0.76116 0.0
C691 C 0.42934 0.54035 0.8289 0.0
C692 C 0.42308 0.52203 0.73297 0.0
C693 C 0.42833 0.50849 0.77204 0.0
C694 C 0.43364 0.51098 0.84053 0.0
C695 C 0.43419 0.52675 0.86861 0.0
H696 H 0.27258 0.69001 0.34458 0.0
H697 H 0.29321 0.66667 0.52583 0.0
H698 H 0.24538 0.68832 0.39631 0.0
H699 H 0.26597 0.66482 0.57706 0.0
H700 H 0.21892 0.68695 0.67701 0.0
H701 H 0.24604 0.6845 0.62485 0.0
H702 H 0.22401 0.66887 0.43241 0.0
H703 H 0.19691 0.67149 0.48406 0.0
C704 C 0.27129 0.68433 0.39503 0.0
C705 C 0.28508 0.67856 0.43117 0.0
C706 C 0.25569 0.68329 0.42455 0.0
C707 C 0.25354 0.67649 0.49094 0.0
C708 C 0.26726 0.6703 0.52623 0.0
C709 C 0.28285 0.67128 0.49661 0.0
C710 C 0.21986 0.68281 0.62384 0.0
C711 C 0.20574 0.67954 0.58461 0.0
C712 C 0.23541 0.68134 0.59403 0.0
C713 C 0.23715 0.6766 0.52433 0.0
C714 C 0.22305 0.67278 0.48589 0.0
C715 C 0.20753 0.6742 0.51571 0.0
H716 H 0.06417 0.47375 0.41486 0.0
H717 H 0.08269 0.45201 0.22622 0.0
H718 H 0.06632 0.50084 0.36261 0.0
H719 H 0.08507 0.47917 0.17441 0.0
H720 H 0.06306 0.52706 0.08159 0.0
H721 H 0.06568 0.49989 0.13305 0.0
H722 H 0.08549 0.52146 0.31947 0.0
H723 H 0.08264 0.54863 0.26858 0.0
C724 C 0.06894 0.47476 0.36264 0.0
C725 C 0.07314 0.4607 0.3246 0.0
C726 C 0.07025 0.49031 0.33278 0.0
C727 C 0.07579 0.49215 0.26419 0.0
C728 C 0.08055 0.47813 0.22701 0.0
C729 C 0.07927 0.46258 0.25691 0.0
C730 C 0.06816 0.526 0.13321 0.0
C731 C 0.07251 0.54003 0.17113 0.0
C732 C 0.06974 0.51041 0.16261 0.0
C733 C 0.07569 0.50853 0.23056 0.0
C734 C 0.08062 0.52252 0.26743 0.0
C735 C 0.07907 0.53809 0.23804 0.0
H736 H 0.12286 0.09693 0.96086 0.0
H737 H 0.07717 0.11818 0.02924 0.0
H738 H 0.13682 0.10923 0.06006 0.0
H739 H 0.09075 0.12964 0.12967 0.0
H740 H 0.12204 0.16336 0.25862 0.0
H741 H 0.10847 0.1504 0.16157 0.0
H742 H 0.14052 0.10843 0.18143 0.0
H743 H 0.15474 0.12196 0.27695 0.0
C744 C 0.11581 0.10416 0.99725 0.0
C745 C 0.09898 0.10675 0.98677 0.0
C746 C 0.12375 0.11108 0.05453 0.0
C747 C 0.11496 0.12052 0.10307 0.0
C748 C 0.09806 0.12282 0.09277 0.0
C749 C 0.09022 0.11618 0.03511 0.0
C750 C 0.12611 0.1513 0.24283 0.0
C751 C 0.13946 0.14368 0.27563 0.0
C752 C 0.11827 0.14379 0.1871 0.0
C753 C 0.12333 0.12829 0.16337 0.0
C754 C 0.13645 0.12048 0.19736 0.0
C755 C 0.1445 0.12815 0.25261 0.0
H756 H 0.12205 0.84986 0.22002 0.0
H757 H 0.16755 0.8698 0.29728 0.0
H758 H 0.10737 0.86263 0.3153 0.0
H759 H 0.15276 0.88312 0.3915 0.0
H760 H 0.12399 0.8862 0.59672 0.0
H761 H 0.13922 0.87588 0.49695 0.0
H762 H 0.09826 0.88757 0.36377 0.0
H763 H 0.08292 0.89726 0.46339 0.0
C764 C 0.12888 0.85727 0.25653 0.0
C765 C 0.14598 0.85874 0.25123 0.0
C766 C 0.12045 0.86465 0.31123 0.0
C767 C 0.12888 0.87385 0.36157 0.0
C768 C 0.14591 0.87586 0.35457 0.0
C769 C 0.15437 0.86834 0.30017 0.0
C770 C 0.11828 0.88657 0.54609 0.0
C771 C 0.1022 0.8924 0.53819 0.0
C772 C 0.12705 0.88077 0.48872 0.0
C773 C 0.11996 0.88081 0.42215 0.0
C774 C 0.10401 0.88703 0.41429 0.0
C775 C 0.09522 0.89267 0.47155 0.0
H776 H 0.37409 0.90074 0.45762 0.0
H777 H 0.42065 0.88242 0.53054 0.0
H778 H 0.36049 0.88815 0.55701 0.0
H779 H 0.40736 0.87067 0.63122 0.0
H780 H 0.37735 0.83653 0.76475 0.0
H781 H 0.39064 0.84936 0.66642 0.0
H782 H 0.3564 0.88974 0.67758 0.0
H783 H 0.34252 0.87633 0.77423 0.0
C784 C 0.38141 0.89408 0.49501 0.0
C785 C 0.3984 0.89245 0.48586 0.0
C786 C 0.37366 0.88699 0.55243 0.0
C787 C 0.38279 0.87834 0.60251 0.0
C788 C 0.39982 0.87688 0.59325 0.0
C789 C 0.40749 0.8837 0.53544 0.0
C790 C 0.37274 0.84823 0.74673 0.0
C791 C 0.35889 0.85542 0.77739 0.0
C792 C 0.38042 0.85565 0.69025 0.0
C793 C 0.37465 0.87064 0.66363 0.0
C794 C 0.36102 0.87806 0.69563 0.0
C795 C 0.35316 0.87047 0.75156 0.0
H796 H 0.34371 0.15842 0.77106 0.0
H797 H 0.38344 0.14184 0.64056 0.0
H798 H 0.35352 0.14087 0.86452 0.0
H799 H 0.3933 0.12439 0.7344 0.0
H800 H 0.39903 0.08466 0.8958 0.0
H801 H 0.38585 0.09995 0.8029 0.0
H802 H 0.37758 0.14041 0.94277 0.0
H803 H 0.39067 0.12504 0.03627 0.0
C804 C 0.35447 0.15094 0.76206 0.0
C805 C 0.36284 0.15158 0.69835 0.0
C806 C 0.36013 0.14097 0.81584 0.0
C807 C 0.37421 0.1313 0.80697 0.0
C808 C 0.38231 0.13158 0.74262 0.0
C809 C 0.37671 0.14164 0.68894 0.0
C810 C 0.39425 0.09674 0.90711 0.0
C811 C 0.39602 0.10368 0.9734 0.0
C812 C 0.38678 0.10553 0.85366 0.0
C813 C 0.38083 0.12144 0.86528 0.0
C814 C 0.38196 0.12813 0.9323 0.0
C815 C 0.3895 0.11934 0.98583 0.0
H816 H 0.89296 0.87442 0.06466 0.0
H817 H 0.90504 0.91141 0.91264 0.0
H818 H 0.87619 0.86029 0.97897 0.0
H819 H 0.88804 0.89743 0.82742 0.0
H820 H 0.87503 0.85526 0.67616 0.0
H821 H 0.88945 0.87197 0.7613 0.0
H822 H 0.85116 0.86254 0.91071 0.0
H823 H 0.8369 0.84561 0.82617 0.0
C824 C 0.89187 0.87965 0.01327 0.0
C825 C 0.90042 0.89398 0.99539 0.0
C826 C 0.8822 0.87159 0.96422 0.0
C827 C 0.88085 0.8777 0.89625 0.0
C828 C 0.88903 0.89228 0.87901 0.0
C829 C 0.89869 0.90034 0.92804 0.0
C830 C 0.86961 0.85688 0.72693 0.0
C831 C 0.85488 0.84901 0.74451 0.0
C832 C 0.87784 0.86652 0.77566 0.0
C833 C 0.87149 0.8685 0.84295 0.0
C834 C 0.8565 0.86104 0.85971 0.0
C835 C 0.84828 0.85141 0.81105 0.0
H836 H 0.88875 0.14445 0.85089 0.0
H837 H 0.8444 0.15094 0.73155 0.0
H838 H 0.89986 0.12699 0.75975 0.0
H839 H 0.85553 0.13341 0.64057 0.0
H840 H 0.89238 0.12123 0.46128 0.0
H841 H 0.87825 0.13587 0.55418 0.0
H842 H 0.89552 0.10013 0.70222 0.0
H843 H 0.9097 0.08556 0.60988 0.0
C844 C 0.88129 0.14201 0.80562 0.0
C845 C 0.86572 0.14915 0.7984 0.0
C846 C 0.88763 0.13194 0.75353 0.0
C847 C 0.87859 0.12889 0.69287 0.0
C848 C 0.86285 0.13569 0.68639 0.0
C849 C 0.85645 0.14564 0.73876 0.0
C850 C 0.89299 0.11639 0.51349 0.0
C851 C 0.90227 0.10231 0.52821 0.0
C852 C 0.88485 0.12474 0.56665 0.0
C853 C 0.88589 0.11921 0.63557 0.0
C854 C 0.89469 0.10481 0.64979 0.0
C855 C 0.90274 0.09643 0.59672 0.0
H856 H 0.58399 0.12535 0.50681 0.0
H857 H 0.61704 0.08432 0.48519 0.0
H858 H 0.59753 0.13918 0.41155 0.0
H859 H 0.63125 0.09855 0.39157 0.0
H860 H 0.64102 0.1205 0.17667 0.0
H861 H 0.62826 0.10636 0.27439 0.0
H862 H 0.62105 0.1529 0.3771 0.0
H863 H 0.63292 0.16692 0.27845 0.0
C864 C 0.5944 0.11942 0.48263 0.0
C865 C 0.59943 0.10373 0.50358 0.0
C866 C 0.60224 0.1274 0.42794 0.0
C867 C 0.61553 0.12002 0.39345 0.0
C868 C 0.62088 0.10449 0.41588 0.0
C869 C 0.61284 0.0964 0.47006 0.0
C870 C 0.6366 0.12765 0.22008 0.0
C871 C 0.63781 0.14481 0.2195 0.0
C872 C 0.62942 0.11956 0.27645 0.0
C873 C 0.62354 0.12846 0.33387 0.0
C874 C 0.62505 0.14562 0.33336 0.0
C875 C 0.63194 0.15369 0.27672 0.0
H876 H 0.61786 0.91453 0.03748 0.0
H877 H 0.59563 0.86949 0.96703 0.0
H878 H 0.63156 0.89962 0.13053 0.0
H879 H 0.60871 0.85473 0.06129 0.0
H880 H 0.64383 0.82942 0.20415 0.0
H881 H 0.63357 0.84479 0.10566 0.0
H882 H 0.62535 0.88673 0.238 0.0
H883 H 0.63633 0.87145 0.33644 0.0
C884 C 0.61597 0.90143 0.04166 0.0
C885 C 0.60566 0.89319 0.99488 0.0
C886 C 0.62369 0.8929 0.09542 0.0
C887 C 0.62116 0.87597 0.10399 0.0
C888 C 0.61117 0.86771 0.05592 0.0
C889 C 0.60361 0.87619 0.0018 0.0
C890 C 0.63987 0.84194 0.21235 0.0
C891 C 0.64079 0.84918 0.27833 0.0
C892 C 0.63389 0.85075 0.15577 0.0
C893 C 0.62847 0.86699 0.16371 0.0
C894 C 0.6296 0.87432 0.22963 0.0
C895 C 0.63577 0.86553 0.28627 0.0
H896 H 0.59256 0.58189 0.58207 0.0
H897 H 0.60447 0.61807 0.4264 0.0
H898 H 0.61043 0.59578 0.66438 0.0
H899 H 0.6221 0.63211 0.50915 0.0
H900 H 0.66199 0.64733 0.65784 0.0
H901 H 0.64737 0.62998 0.57582 0.0
H902 H 0.60958 0.6215 0.72851 0.0
H903 H 0.62434 0.6386 0.81103 0.0
C904 C 0.59908 0.59274 0.5652 0.0
C905 C 0.59701 0.59894 0.49777 0.0
C906 C 0.60924 0.60075 0.61256 0.0
C907 C 0.61759 0.61511 0.59353 0.0
C908 C 0.61597 0.62098 0.5253 0.0
C909 C 0.6058 0.61297 0.47793 0.0
C910 C 0.65064 0.64163 0.67422 0.0
C911 C 0.64427 0.64443 0.74087 0.0
C912 C 0.64223 0.63176 0.62702 0.0
C913 C 0.62726 0.62445 0.64542 0.0
C914 C 0.62117 0.62681 0.71289 0.0
C915 C 0.62959 0.63669 0.76011 0.0
H916 H 0.59357 0.36836 0.03205 0.0
H917 H 0.62318 0.4116 -0.00037 0.0
H918 H 0.60808 0.35454 0.93829 0.0
H919 H 0.6377 0.39769 0.90581 0.0
H920 H 0.67017 0.35871 0.79246 0.0
H921 H 0.65669 0.37344 0.88677 0.0
H922 H 0.6095 0.35844 0.80814 0.0
H923 H 0.62291 0.34374 0.71377 0.0
C924 C 0.60329 0.37486 0.00549 0.0
C925 C 0.60719 0.39111 0.02317 0.0
C926 C 0.61149 0.36699 0.95139 0.0
C927 C 0.62389 0.37511 0.91434 0.0
C928 C 0.62821 0.39113 0.9336 0.0
C929 C 0.61988 0.39909 0.98724 0.0
C930 C 0.65692 0.35869 0.79489 0.0
C931 C 0.64762 0.35001 0.74576 0.0
C932 C 0.64921 0.36714 0.84882 0.0
C933 C 0.63207 0.36693 0.85513 0.0
C934 C 0.62275 0.3586 0.80506 0.0
C935 C 0.63044 0.35031 0.75071 0.0
H936 H 0.87832 0.34373 0.27815 0.0
H937 H 0.83162 0.3637 0.21453 0.0
H938 H 0.89171 0.35825 0.18334 0.0
H939 H 0.8451 0.37823 0.11955 0.0
H940 H 0.88064 0.41442 0.00511 0.0
H941 H 0.86589 0.40082 0.09918 0.0
H942 H 0.89112 0.35562 0.05308 0.0
H943 H 0.90586 0.36912 0.9592 0.0
C944 C 0.87093 0.35134 0.24442 0.0
C945 C 0.85389 0.3525 0.25372 0.0
C946 C 0.87859 0.35954 0.18977 0.0
C947 C 0.86941 0.3692 0.14365 0.0
C948 C 0.85247 0.37088 0.1544 0.0
C949 C 0.84477 0.36254 0.20871 0.0
C950 C 0.88291 0.40153 0.01455 0.0
C951 C 0.89448 0.39287 0.97489 0.0
C952 C 0.87444 0.39376 0.06833 0.0
C953 C 0.87752 0.37723 0.08391 0.0
C954 C 0.88871 0.36845 0.0429 0.0
C955 C 0.89704 0.37616 0.98876 0.0
H956 H 0.83655 0.65706 0.33586 0.0
H957 H 0.87339 0.64528 0.18283 0.0
H958 H 0.85041 0.6396 0.41979 0.0
H959 H 0.88741 0.62803 0.26732 0.0
H960 H 0.90111 0.58738 0.41625 0.0
H961 H 0.88474 0.60265 0.3328 0.0
H962 H 0.87575 0.64003 0.48663 0.0
H963 H 0.8919 0.6246 0.57069 0.0
C964 C 0.84758 0.6507 0.31999 0.0
C965 C 0.8539 0.65261 0.25265 0.0
C966 C 0.85557 0.64077 0.36831 0.0
C967 C 0.87006 0.63249 0.35042 0.0
C968 C 0.87617 0.6341 0.28257 0.0
C969 C 0.86818 0.64405 0.2342 0.0
C970 C 0.89552 0.59879 0.43257 0.0
C971 C 0.89788 0.60481 0.5001 0.0
C972 C 0.88623 0.60759 0.38451 0.0
C973 C 0.87905 0.62262 0.40283 0.0
C974 C 0.88099 0.62841 0.47101 0.0
C975 C 0.8903 0.6196 0.51915 0.0
H976 H 0.39708 0.37473 0.57188 0.0
H977 H 0.40445 0.41376 0.42363 0.0
H978 H 0.37973 0.36042 0.48868 0.0
H979 H 0.3869 0.39959 0.34107 0.0
H980 H 0.37379 0.35847 0.18586 0.0
H981 H 0.38873 0.37491 0.27021 0.0
H982 H 0.3535 0.36181 0.42791 0.0
H983 H 0.3387 0.34515 0.34394 0.0
C984 C 0.39484 0.38035 0.52191 0.0
C985 C 0.40223 0.39533 0.50425 0.0
C986 C 0.38483 0.37219 0.47433 0.0
C987 C 0.38201 0.37883 0.40809 0.0
C988 C 0.38904 0.39403 0.39125 0.0
C989 C 0.39902 0.40219 0.43879 0.0
C990 C 0.36915 0.35921 0.23835 0.0
C991 C 0.35511 0.35042 0.25824 0.0
C992 C 0.37767 0.3687 0.28665 0.0
C993 C 0.37234 0.36961 0.35588 0.0
C994 C 0.35805 0.36117 0.37525 0.0
C995 C 0.34952 0.3517 0.32696 0.0
H996 H 0.39155 0.62424 0.93895 0.0
H997 H 0.40671 0.58948 0.09541 0.0
H998 H 0.37409 0.63788 0.02381 0.0
H999 H 0.38905 0.60292 0.17968 0.0
H1000 H 0.37283 0.64462 0.3267 0.0
H1001 H 0.38849 0.62871 0.24273 0.0
H1002 H 0.34945 0.63429 0.09336 0.0
H1003 H 0.33393 0.65044 0.17671 0.0
C1004 C 0.39102 0.6194 0.99118 0.0
C1005 C 0.40059 0.60583 0.01047 0.0
C1006 C 0.38096 0.62716 0.03976 0.0
C1007 C 0.38023 0.62152 0.10862 0.0
C1008 C 0.38952 0.60772 0.12737 0.0
C1009 C 0.39957 0.59997 0.07888 0.0
C1010 C 0.36752 0.64231 0.27621 0.0
C1011 C 0.35218 0.64888 0.25829 0.0
C1012 C 0.37647 0.63314 0.22813 0.0
C1013 C 0.37026 0.63033 0.16115 0.0
C1014 C 0.3547 0.63647 0.14408 0.0
C1015 C 0.34576 0.64564 0.19209 0.0
H1016 H 0.12513 0.66998 0.76723 0.0
H1017 H 0.1495 0.62523 0.70701 0.0
H1018 H 0.11328 0.65621 0.86642 0.0
H1019 H 0.13682 0.61102 0.80467 0.0
H1020 H 0.12417 0.5939 0.0231 0.0
H1021 H 0.1371 0.60798 0.9257 0.0
H1022 H 0.09358 0.63766 0.90025 0.0
H1023 H 0.08122 0.62431 0.99938 0.0
C1024 C 0.12769 0.65707 0.77444 0.0
C1025 C 0.1382 0.64867 0.72904 0.0
C1026 C 0.12082 0.64911 0.83141 0.0
C1027 C 0.12398 0.63242 0.84387 0.0
C1028 C 0.13431 0.62394 0.79765 0.0
C1029 C 0.14145 0.63202 0.74117 0.0
C1030 C 0.1175 0.60358 0.99703 0.0
C1031 C 0.10175 0.60809 0.01931 0.0
C1032 C 0.12482 0.61155 0.94068 0.0
C1033 C 0.11642 0.624 0.90464 0.0
C1034 C 0.10064 0.62843 0.92731 0.0
C1035 C 0.09349 0.62071 0.98425 0.0
H1036 H 0.1255 0.33503 0.75001 0.0
H1037 H 0.15753 0.3767 0.77598 0.0
H1038 H 0.11262 0.34824 0.65165 0.0
H1039 H 0.14398 0.39045 0.67925 0.0
H1040 H 0.12766 0.40361 0.45949 0.0
H1041 H 0.14112 0.39045 0.55792 0.0
H1042 H 0.09489 0.36884 0.6184 0.0
H1043 H 0.08181 0.38118 0.51851 0.0
C1044 C 0.12958 0.34719 0.73553 0.0
C1045 C 0.14252 0.35484 0.77098 0.0
C1046 C 0.12213 0.35484 0.67905 0.0
C1047 C 0.12718 0.37049 0.65715 0.0
C1048 C 0.13993 0.37829 0.69363 0.0
C1049 C 0.1476 0.37049 0.74959 0.0
C1050 C 0.12046 0.39592 0.49362 0.0
C1051 C 0.10372 0.39331 0.48081 0.0
C1052 C 0.12812 0.38849 0.55052 0.0
C1053 C 0.11914 0.37852 0.59648 0.0
C1054 C 0.10235 0.37609 0.58358 0.0
C1055 C 0.0948 0.38324 0.52623 0.0
H1056 H 0.13456 0.22431 0.29898 0.0
H1057 H 0.18206 0.2428 0.35841 0.0
H1058 H 0.12911 0.24943 0.23526 0.0
H1059 H 0.17714 0.26758 0.29102 0.0
H1060 H 0.16312 0.31446 0.19051 0.0
H1061 H 0.16324 0.2924 0.27586 0.0
H1062 H 0.13671 0.26153 0.13232 0.0
H1063 H 0.13582 0.28371 0.04955 0.0
C1064 C 0.1439 0.23374 0.29783 0.0
C1065 C 0.15881 0.23155 0.3329 0.0
C1066 C 0.14081 0.24814 0.2611 0.0
C1067 C 0.15272 0.26057 0.2571 0.0
C1068 C 0.16753 0.25847 0.29364 0.0
C1069 C 0.17046 0.24418 0.33173 0.0
C1070 C 0.15693 0.30309 0.17816 0.0
C1071 C 0.14959 0.30081 0.11301 0.0
C1072 C 0.15717 0.29035 0.22673 0.0
C1073 C 0.15027 0.275 0.21079 0.0
C1074 C 0.14202 0.27316 0.14722 0.0
C1075 C 0.14156 0.28594 0.09929 0.0
H1076 H 0.95668 0.87762 0.32351 0.0
H1077 H 0.93182 0.91675 0.43188 0.0
H1078 H 0.97805 0.8776 0.41151 0.0
H1079 H 0.95337 0.91683 0.51934 0.0
H1080 H 0.99365 0.90735 0.68205 0.0
H1081 H 0.96913 0.90221 0.61218 0.0
H1082 H 0.99923 0.89892 0.42857 0.0
H1083 H 0.02356 0.90392 0.49766 0.0
C1084 C 0.95555 0.88594 0.36694 0.0
C1085 C 0.94272 0.89742 0.36988 0.0
C1086 C 0.96786 0.886 0.41709 0.0
C1087 C 0.96758 0.8975 0.47127 0.0
C1088 C 0.95393 0.90787 0.47805 0.0
C1089 C 0.94159 0.90782 0.42781 0.0
C1090 C 0.995 0.90552 0.62675 0.0
C1091 C 0.01055 0.90607 0.59538 0.0
C1092 C 0.98098 0.90257 0.58688 0.0
C1093 C 0.98229 0.89994 0.51512 0.0
C1094 C 0.99784 0.90053 0.48399 0.0
C1095 C 0.01179 0.90358 0.52356 0.0
H1096 H 0.35822 0.71561 0.55149 0.0
H1097 H 0.33136 0.68573 0.69734 0.0
H1098 H 0.35755 0.73829 0.63166 0.0
H1099 H 0.33149 0.7083 0.7802 0.0
H1100 H 0.36129 0.77593 0.79636 0.0
H1101 H 0.36585 0.75071 0.73253 0.0
H1102 H 0.31801 0.73332 0.79536 0.0
H1103 H 0.31401 0.75823 0.86305 0.0
C1104 C 0.35263 0.71369 0.60176 0.0
C1105 C 0.3447 0.69889 0.61773 0.0
C1106 C 0.35228 0.72677 0.64819 0.0
C1107 C 0.34429 0.7253 0.71251 0.0
C1108 C 0.33738 0.71006 0.73048 0.0
C1109 C 0.33748 0.69703 0.68336 0.0
C1110 C 0.35177 0.76668 0.79658 0.0
C1111 C 0.33721 0.76909 0.83391 0.0
C1112 C 0.35435 0.7522 0.75978 0.0
C1113 C 0.34225 0.73993 0.75792 0.0
C1114 C 0.32775 0.74231 0.79631 0.0
C1115 C 0.32534 0.75667 0.83453 0.0
H1116 H 0.52598 0.10967 0.7744 0.0
H1117 H 0.55849 0.08824 0.92618 0.0
H1118 H 0.50369 0.10864 0.85642 0.0
H1119 H 0.53624 0.08808 0.01068 0.0
H1120 H 0.46599 0.11162 0.02055 0.0
H1121 H 0.49071 0.11752 0.95497 0.0
H1122 H 0.51263 0.07277 0.03198 0.0
H1123 H 0.48819 0.06757 0.10125 0.0
C1124 C 0.52852 0.10522 0.8262 0.0
C1125 C 0.54399 0.09885 0.84346 0.0
C1126 C 0.51567 0.10469 0.87371 0.0
C1127 C 0.51801 0.09807 0.94035 0.0
C1128 C 0.53384 0.09285 0.9593 0.0
C1129 C 0.54667 0.09312 0.91117 0.0
C1130 C 0.47615 0.1031 0.02358 0.0
C1131 C 0.47514 0.08904 0.06522 0.0
C1132 C 0.49033 0.10644 0.98579 0.0
C1133 C 0.50371 0.09556 0.98725 0.0
C1134 C 0.50275 0.08161 0.03019 0.0
C1135 C 0.48867 0.07849 0.06938 0.0
H1136 H 0.1352 0.72316 0.46406 0.0
H1137 H 0.15863 0.69093 0.31669 0.0
H1138 H 0.13764 0.74569 0.38366 0.0
H1139 H 0.16022 0.71342 0.23359 0.0
H1140 H 0.1822 0.76137 0.14948 0.0
H1141 H 0.17595 0.73693 0.21721 0.0
H1142 H 0.13041 0.75909 0.2838 0.0
H1143 H 0.1373 0.7838 0.21994 0.0
C1144 C 0.14038 0.72073 0.41341 0.0
C1145 C 0.14688 0.70526 0.3971 0.0
C1146 C 0.14175 0.73372 0.36683 0.0
C1147 C 0.14935 0.73154 0.30202 0.0
C1148 C 0.15471 0.71572 0.28368 0.0
C1149 C 0.15361 0.70275 0.33095 0.0
C1150 C 0.17089 0.76095 0.17883 0.0
C1151 C 0.16038 0.77454 0.18049 0.0
C1152 C 0.16717 0.74687 0.21708 0.0
C1153 C 0.15266 0.74595 0.25654 0.0
C1154 C 0.14189 0.75942 0.25571 0.0
C1155 C 0.1458 0.77361 0.21891 0.0
H1156 H 0.474 0.90794 0.51731 0.0
H1157 H 0.50347 0.91451 0.33319 0.0
H1158 H 0.49868 0.90354 0.58524 0.0
H1159 H 0.52827 0.90991 0.40158 0.0
H1160 H 0.56655 0.92213 0.57821 0.0
H1161 H 0.54413 0.92341 0.49496 0.0
H1162 H 0.5204 0.88289 0.5982 0.0
H1163 H 0.54263 0.88174 0.68216 0.0
C1164 C 0.48575 0.90846 0.49128 0.0
C1165 C 0.48675 0.91158 0.4198 0.0
C1166 C 0.4999 0.90576 0.53012 0.0
C1167 C 0.51541 0.90613 0.49855 0.0
C1168 C 0.51648 0.90955 0.4273 0.0
C1169 C 0.50228 0.9122 0.38824 0.0
C1170 C 0.55676 0.91322 0.5822 0.0
C1171 C 0.55624 0.90202 0.63762 0.0
C1172 C 0.54391 0.91396 0.53439 0.0
C1173 C 0.53033 0.9035 0.54107 0.0
C1174 C 0.53051 0.89139 0.59285 0.0
C1175 C 0.54333 0.89064 0.6406 0.0
H1176 H 0.34831 0.22726 0.75658 0.0
H1177 H 0.34275 0.25713 0.57299 0.0
H1178 H 0.35319 0.25171 0.82517 0.0
H1179 H 0.34789 0.28172 0.642 0.0
H1180 H 0.33199 0.31854 0.81945 0.0
H1181 H 0.3331 0.29691 0.73281 0.0
H1182 H 0.37281 0.27389 0.84437 0.0
H1183 H 0.37152 0.29534 0.93187 0.0
C1184 C 0.34825 0.23904 0.73071 0.0
C1185 C 0.34503 0.24025 0.6594 0.0
C1186 C 0.35124 0.25307 0.76994 0.0
C1187 C 0.35106 0.26866 0.7389 0.0
C1188 C 0.34805 0.26988 0.66738 0.0
C1189 C 0.34511 0.2558 0.62794 0.0
C1190 C 0.34127 0.30913 0.82458 0.0
C1191 C 0.35142 0.30847 0.88338 0.0
C1192 C 0.34192 0.29672 0.77474 0.0
C1193 C 0.35279 0.28349 0.78269 0.0
C1194 C 0.36403 0.28373 0.83784 0.0
C1195 C 0.36336 0.29609 0.88769 0.0
H1196 H -0.0004 0.06594 0.90119 0.0
H1197 H 0.01634 0.11508 0.94349 0.0
H1198 H 0.97498 0.07104 0.96943 0.0
H1199 H 0.99139 0.12059 0.00822 0.0
H1200 H 0.95962 0.1146 0.20318 0.0
H1201 H 0.9808 0.11385 0.11582 0.0
H1202 H 0.94965 0.0843 0.98454 0.0
H1203 H 0.92863 0.08435 0.0744 0.0
C1204 C 0.99784 0.07793 0.92407 0.0
C1205 C 0.00998 0.09001 0.9181 0.0
C1206 C 0.98365 0.08094 0.96268 0.0
C1207 C 0.98117 0.09623 0.99502 0.0
C1208 C 0.99301 0.10856 0.9857 0.0
C1209 C 0.00731 0.10542 0.94838 0.0
C1210 C 0.95709 0.10822 0.15513 0.0
C1211 C 0.94252 0.09929 0.14636 0.0
C1212 C 0.96928 0.10784 0.10454 0.0
C1213 C 0.96712 0.09877 0.04323 0.0
C1214 C 0.95194 0.09103 0.03188 0.0
C1215 C 0.9398 0.09122 0.08307 0.0
H1216 H 0.86613 0.77593 0.69907 0.0
H1217 H 0.82101 0.75445 0.62614 0.0
H1218 H 0.87201 0.75127 0.76536 0.0
H1219 H 0.82622 0.73016 0.69596 0.0
H1220 H 0.84046 0.68459 0.80415 0.0
H1221 H 0.84093 0.70628 0.71722 0.0
H1222 H 0.86368 0.73877 0.8659 0.0
H1223 H 0.86413 0.71694 0.95029 0.0
C1224 C 0.85741 0.76594 0.69776 0.0
C1225 C 0.84304 0.76714 0.65812 0.0
C1226 C 0.86073 0.75179 0.73597 0.0
C1227 C 0.84955 0.73866 0.73691 0.0
C1228 C 0.83531 0.73981 0.69583 0.0
C1229 C 0.83219 0.75383 0.65629 0.0
C1230 C 0.84598 0.69624 0.81739 0.0
C1231 C 0.85208 0.69907 0.88437 0.0
C1232 C 0.84606 0.70877 0.76785 0.0
C1233 C 0.852 0.72448 0.78465 0.0
C1234 C 0.85912 0.72688 0.85029 0.0
C1235 C 0.85932 0.71429 0.89919 0.0
H1236 H 0.03742 0.12225 0.6826 0.0
H1237 H 0.0595 0.08071 0.57969 0.0
H1238 H 0.01576 0.12273 0.59584 0.0
H1239 H 0.03766 0.08103 0.49384 0.0
H1240 H 0.99767 0.08981 0.33269 0.0
H1241 H 0.02255 0.09485 0.39996 0.0
H1242 H 0.9931 0.10334 0.58249 0.0
H1243 H 0.96836 0.09855 0.5156 0.0
C1244 C 0.03789 0.11347 0.6406 0.0
C1245 C 0.05001 0.10123 0.63892 0.0
C1246 C 0.02539 0.11366 0.5912 0.0
C1247 C 0.02477 0.10165 0.53912 0.0
C1248 C 0.03776 0.09043 0.53343 0.0
C1249 C 0.05029 0.09024 0.5828 0.0
C1250 C 0.99653 0.09281 0.38715 0.0
C1251 C 0.98103 0.09373 0.41887 0.0
C1252 C 0.01078 0.09569 0.42559 0.0
C1253 C 0.00979 0.09965 0.49634 0.0
C1254 C 0.99428 0.10067 0.52774 0.0
C1255 C 0.98008 0.09774 0.48952 0.0
H1256 H 0.62909 0.29024 0.42951 0.0
H1257 H 0.66855 0.31349 0.31686 0.0
H1258 H 0.62808 0.26858 0.34292 0.0
H1259 H 0.66769 0.29164 0.23098 0.0
H1260 H 0.65664 0.25158 0.07064 0.0
H1261 H 0.65259 0.27632 0.1402 0.0
H1262 H 0.64805 0.24649 0.32422 0.0
H1263 H 0.65189 0.22192 0.25527 0.0
C1264 C 0.6373 0.29095 0.38549 0.0
C1265 C 0.64911 0.30343 0.38083 0.0
C1266 C 0.6368 0.27846 0.33617 0.0
C1267 C 0.64808 0.2782 0.28115 0.0
C1268 C 0.65886 0.29148 0.27288 0.0
C1269 C 0.65935 0.304 0.32224 0.0
C1270 C 0.65476 0.25033 0.12595 0.0
C1271 C 0.65461 0.23478 0.15744 0.0
C1272 C 0.65243 0.26449 0.16568 0.0
C1273 C 0.6498 0.26334 0.2375 0.0
C1274 C 0.64967 0.24778 0.26877 0.0
C1275 C 0.65206 0.23369 0.22928 0.0
H1276 H 0.47066 0.88599 0.21593 0.0
H1277 H 0.43803 0.9088 0.06827 0.0
H1278 H 0.49262 0.88685 0.13217 0.0
H1279 H 0.45989 0.90878 0.98211 0.0
H1280 H 0.50786 0.92931 0.89122 0.0
H1281 H 0.48362 0.92395 0.96138 0.0
H1282 H 0.5052 0.87843 0.0316 0.0
H1283 H 0.52976 0.88442 0.9649 0.0
C1284 C 0.468 0.89071 0.16468 0.0
C1285 C 0.45263 0.89757 0.14922 0.0
C1286 C 0.48066 0.89114 0.11616 0.0
C1287 C 0.4782 0.89814 0.0503 0.0
C1288 C 0.4624 0.90374 0.03292 0.0
C1289 C 0.44979 0.90357 0.08202 0.0
C1290 C 0.50735 0.91816 0.92168 0.0
C1291 C 0.52076 0.90742 0.92353 0.0
C1292 C 0.49338 0.91496 0.96141 0.0
C1293 C 0.49238 0.90075 0.00273 0.0
C1294 C 0.50561 0.88969 0.00198 0.0
C1295 C 0.5197 0.89309 0.96354 0.0
H1296 H 0.83078 0.31416 0.67368 0.0
H1297 H 0.87188 0.29186 0.5684 0.0
H1298 H 0.83104 0.29215 0.75877 0.0
H1299 H 0.87233 0.27003 0.65451 0.0
H1300 H 0.84792 0.22273 0.73573 0.0
H1301 H 0.85308 0.24744 0.66895 0.0
H1302 H 0.84472 0.27692 0.85151 0.0
H1303 H 0.83927 0.2521 0.91846 0.0
C1304 C 0.84021 0.30486 0.66989 0.0
C1305 C 0.85108 0.30458 0.61339 0.0
C1306 C 0.84037 0.29224 0.71884 0.0
C1307 C 0.85146 0.27915 0.71237 0.0
C1308 C 0.86336 0.27974 0.65977 0.0
C1309 C 0.86318 0.29232 0.61076 0.0
C1310 C 0.84723 0.23446 0.76181 0.0
C1311 C 0.84308 0.23544 0.83229 0.0
C1312 C 0.85037 0.24864 0.72367 0.0
C1313 C 0.84944 0.26415 0.75508 0.0
C1314 C 0.84546 0.26515 0.82581 0.0
C1315 C 0.84235 0.25093 0.86408 0.0
H1316 H 0.46058 0.10889 0.27417 0.0
H1317 H 0.42945 0.08463 0.42342 0.0
H1318 H 0.48345 0.10692 0.35306 0.0
H1319 H 0.45225 0.08353 0.50505 0.0
H1320 H 0.50082 0.06338 0.58947 0.0
H1321 H 0.47625 0.06856 0.521 0.0
H1322 H 0.49689 0.11462 0.45206 0.0
H1323 H 0.52174 0.10879 0.51669 0.0
C1324 C 0.45846 0.10363 0.32495 0.0
C1325 C 0.4432 0.0968 0.34229 0.0
C1326 C 0.47165 0.10252 0.37062 0.0
C1327 C 0.46987 0.09487 0.43556 0.0
C1328 C 0.45425 0.0891 0.45483 0.0
C1329 C 0.4411 0.08993 0.40844 0.0
C1330 C 0.50006 0.07455 0.55934 0.0
C1331 C 0.51326 0.08555 0.55748 0.0
C1332 C 0.48589 0.07766 0.52066 0.0
C1333 C 0.48448 0.09204 0.48052 0.0
C1334 C 0.4976 0.10324 0.48072 0.0
C1335 C 0.51187 0.09993 0.51799 0.0
H1336 H 0.65398 0.77055 0.23581 0.0
H1337 H 0.65884 0.74075 0.41996 0.0
H1338 H 0.64967 0.74607 0.16682 0.0
H1339 H 0.65439 0.71608 0.35026 0.0
H1340 H 0.66933 0.67903 0.17029 0.0
H1341 H 0.6692 0.70074 0.25696 0.0
H1342 H 0.62898 0.72425 0.15073 0.0
H1343 H 0.62921 0.70271 0.06352 0.0
C1344 C 0.65411 0.75877 0.26167 0.0
C1345 C 0.65679 0.75761 0.33341 0.0
C1346 C 0.65145 0.74473 0.22217 0.0
C1347 C 0.65146 0.72917 0.2533 0.0
C1348 C 0.65429 0.72793 0.32495 0.0
C1349 C 0.65685 0.74204 0.36474 0.0
C1350 C 0.66016 0.68858 0.16639 0.0
C1351 C 0.6495 0.68931 0.10917 0.0
C1352 C 0.66008 0.70102 0.21618 0.0
C1353 C 0.64934 0.71438 0.20963 0.0
C1354 C 0.63767 0.71429 0.1561 0.0
C1355 C 0.63773 0.70187 0.10642 0.0
H1356 H 0.06063 0.91487 0.93239 0.0
H1357 H 0.03646 0.878 0.80835 0.0
H1358 H 0.03875 0.91315 0.0177 0.0
H1359 H 0.01474 0.87607 0.89454 0.0
H1360 H 0.9686 0.89941 0.99164 0.0
H1361 H 0.99289 0.89549 0.9207 0.0
H1362 H 0.02328 0.89754 0.10383 0.0
H1363 H 0.99889 0.90174 0.17508 0.0
C1364 C 0.05092 0.90603 0.92428 0.0
C1365 C 0.05014 0.89681 0.86282 0.0
C1366 C 0.03836 0.90503 0.97336 0.0
C1367 C 0.02481 0.89475 0.96208 0.0
C1368 C 0.02482 0.88442 0.90381 0.0
C1369 C 0.03736 0.88542 0.85472 0.0
C1370 C 0.98044 0.89897 0.01693 0.0
C1371 C 0.9818 0.90098 0.08899 0.0
C1372 C 0.99437 0.89654 0.9763 0.0
C1373 C 0.01003 0.89607 0.00668 0.0
C1374 C 0.0114 0.89793 0.07886 0.0
C1375 C 0.99743 0.90032 0.11962 0.0
H1376 H 0.6274 0.78203 0.54667 0.0
H1377 H 0.66387 0.8065 0.67178 0.0
H1378 H 0.62579 0.7601 0.63206 0.0
H1379 H 0.6625 0.78441 0.75621 0.0
H1380 H 0.65176 0.74435 0.9127 0.0
H1381 H 0.64722 0.76871 0.84174 0.0
H1382 H 0.6452 0.73839 0.65846 0.0
H1383 H 0.64941 0.71409 0.72922 0.0
C1384 C 0.63481 0.78294 0.59308 0.0
C1385 C 0.64598 0.79589 0.60177 0.0
C1386 C 0.634 0.77028 0.64171 0.0
C1387 C 0.6443 0.77031 0.70008 0.0
C1388 C 0.65439 0.78399 0.71183 0.0
C1389 C 0.65519 0.79667 0.66324 0.0
C1390 C 0.65027 0.74289 0.85727 0.0
C1391 C 0.65102 0.72728 0.82656 0.0
C1392 C 0.64768 0.75685 0.81666 0.0
C1393 C 0.64576 0.7555 0.7445 0.0
C1394 C 0.64631 0.73985 0.71404 0.0
C1395 C 0.6489 0.72592 0.75456 0.0
H1396 H 0.43671 0.41026 0.94638 0.0
H1397 H 0.46819 0.38504 0.80141 0.0
H1398 H 0.45849 0.40955 0.03284 0.0
H1399 H 0.49012 0.38518 0.88532 0.0
H1400 H 0.52732 0.38217 0.05137 0.0
H1401 H 0.50233 0.37678 0.9866 0.0
H1402 H 0.4829 0.42363 0.05204 0.0
H1403 H 0.50752 0.4284 0.12039 0.0
C1404 C 0.44818 0.40436 0.93332 0.0
C1405 C 0.45076 0.39788 0.86677 0.0
C1406 C 0.46076 0.40412 0.98258 0.0
C1407 C 0.47626 0.39762 0.96593 0.0
C1408 C 0.47838 0.39016 0.9008 0.0
C1409 C 0.46575 0.39014 0.85218 0.0
C1410 C 0.51762 0.39124 0.05217 0.0
C1411 C 0.5194 0.40579 0.09018 0.0
C1412 C 0.5033 0.3882 0.01483 0.0
C1413 C 0.49056 0.39982 0.01315 0.0
C1414 C 0.49225 0.41423 0.05277 0.0
C1415 C 0.50645 0.41708 0.09145 0.0
H1416 H 0.86575 0.27369 0.29626 0.0
H1417 H 0.81862 0.25497 0.35947 0.0
H1418 H 0.87095 0.24868 0.23137 0.0
H1419 H 0.8232 0.23037 0.29088 0.0
H1420 H 0.83546 0.1843 0.18356 0.0
H1421 H 0.83661 0.20565 0.27175 0.0
H1422 H 0.86301 0.23686 0.12892 0.0
H1423 H 0.86275 0.21531 0.04343 0.0
C1424 C 0.85645 0.26423 0.29576 0.0
C1425 C 0.8417 0.26632 0.33216 0.0
C1426 C 0.85938 0.24988 0.25835 0.0
C1427 C 0.84745 0.23746 0.25492 0.0
C1428 C 0.83284 0.23946 0.29299 0.0
C1429 C 0.83009 0.25366 0.33179 0.0
C1430 C 0.84193 0.19556 0.17196 0.0
C1431 C 0.8488 0.19817 0.10613 0.0
C1432 C 0.84241 0.20791 0.2222 0.0
C1433 C 0.84955 0.22322 0.20725 0.0
C1434 C 0.85749 0.22528 0.14309 0.0
C1435 C 0.85728 0.21286 0.09353 0.0
H1436 H 0.99132 0.5674 0.61484 0.0
H1437 H 0.9702 0.61279 0.54276 0.0
H1438 H 0.01578 0.57262 0.54595 0.0
H1439 H 0.995 0.61868 0.47758 0.0
H1440 H 0.03001 0.61171 0.29512 0.0
H1441 H 0.00777 0.61059 0.3774 0.0
H1442 H 0.03976 0.58738 0.52696 0.0
H1443 H 0.06191 0.58763 0.44203 0.0
C1444 C 0.99204 0.57862 0.58498 0.0
C1445 C 0.9788 0.58956 0.58316 0.0
C1446 C 0.00615 0.58175 0.54601 0.0
C1447 C 0.00745 0.59608 0.50561 0.0
C1448 C 0.99436 0.60732 0.50642 0.0
C1449 C 0.98013 0.60399 0.54399 0.0
C1450 C 0.03245 0.60666 0.34602 0.0
C1451 C 0.04771 0.59959 0.36171 0.0
C1452 C 0.01963 0.60606 0.39369 0.0
C1453 C 0.0218 0.59867 0.45896 0.0
C1454 C 0.03747 0.59274 0.47657 0.0
C1455 C 0.05025 0.59307 0.42823 0.0
H1456 H 0.65726 0.2483 0.57424 0.0
H1457 H 0.65123 0.27855 0.75629 0.0
H1458 H 0.65291 0.2238 0.64474 0.0
H1459 H 0.64712 0.25415 0.82646 0.0
H1460 H 0.62858 0.21001 0.93275 0.0
H1461 H 0.62772 0.23174 0.84631 0.0
H1462 H 0.66774 0.20891 0.73622 0.0
H1463 H 0.66845 0.18701 0.82187 0.0
C1464 C 0.65501 0.24973 0.62922 0.0
C1465 C 0.65465 0.26538 0.65971 0.0
C1466 C 0.65253 0.23569 0.66954 0.0
C1467 C 0.64954 0.23703 0.74104 0.0
C1468 C 0.64906 0.2527 0.77127 0.0
C1469 C 0.6516 0.26669 0.73112 0.0
C1470 C 0.63692 0.20937 0.88917 0.0
C1471 C 0.64878 0.19691 0.88491 0.0
C1472 C 0.63651 0.22192 0.83995 0.0
C1473 C 0.64791 0.22224 0.78536 0.0
C1474 C 0.6588 0.20903 0.77769 0.0
C1475 C 0.65922 0.19647 0.82696 0.0
H1476 H 0.97367 0.38339 0.95351 0.0
H1477 H 0.99379 0.42947 0.88423 0.0
H1478 H 0.99836 0.37811 0.02048 0.0
H1479 H 0.01812 0.42478 0.95454 0.0
H1480 H 0.06424 0.41099 0.06044 0.0
H1481 H 0.04243 0.41048 0.9741 0.0
H1482 H 0.01057 0.38654 0.12199 0.0
H1483 H 0.03253 0.38619 0.2059 0.0
C1484 C 0.98336 0.39246 0.95314 0.0
C1485 C 0.98177 0.40692 0.91425 0.0
C1486 C 0.99752 0.38947 0.99174 0.0
C1487 C 0.01029 0.40105 0.9937 0.0
C1488 C 0.00875 0.4154 0.95357 0.0
C1489 C 0.99471 0.41821 0.91375 0.0
C1490 C 0.0527 0.40522 0.07366 0.0
C1491 C 0.05008 0.3988 0.1403 0.0
C1492 C 0.0401 0.40511 0.02446 0.0
C1493 C 0.02454 0.3988 0.04123 0.0
C1494 C 0.02235 0.3914 0.10647 0.0
C1495 C 0.03501 0.39125 0.15506 0.0
H1496 H 0.8469 0.72134 0.25491 0.0
H1497 H 0.83732 0.75042 0.07202 0.0
H1498 H 0.85104 0.74623 0.32179 0.0
H1499 H 0.84174 0.77541 0.13907 0.0
H1500 H 0.82787 0.81283 0.31556 0.0
H1501 H 0.82796 0.79047 0.2322 0.0
H1502 H 0.86995 0.76921 0.33468 0.0
H1503 H 0.86969 0.7914 0.41901 0.0
C1504 C 0.84575 0.73305 0.22887 0.0
C1505 C 0.84172 0.73389 0.15821 0.0
C1506 C 0.8483 0.74733 0.26706 0.0
C1507 C 0.84689 0.7628 0.23555 0.0
C1508 C 0.84286 0.76367 0.16484 0.0
C1509 C 0.84033 0.74935 0.12651 0.0
C1510 C 0.83739 0.80363 0.31934 0.0
C1511 C 0.84858 0.80373 0.37477 0.0
C1512 C 0.83745 0.7908 0.27142 0.0
C1513 C 0.84873 0.77787 0.27785 0.0
C1514 C 0.86084 0.77878 0.32949 0.0
C1515 C 0.86077 0.79158 0.37745 0.0
H1516 H 0.50227 0.56613 0.39664 0.0
H1517 H 0.52242 0.61328 0.45132 0.0
H1518 H 0.47766 0.5723 0.46269 0.0
H1519 H 0.49742 0.61997 0.51399 0.0
H1520 H 0.46265 0.61481 0.70019 0.0
H1521 H 0.48476 0.61338 0.61725 0.0
H1522 H 0.45335 0.58706 0.47514 0.0
H1523 H 0.43137 0.5877 0.56071 0.0
C1524 C 0.50131 0.57793 0.422 0.0
C1525 C 0.51434 0.58912 0.41975 0.0
C1526 C 0.48709 0.58158 0.45929 0.0
C1527 C 0.48545 0.59667 0.49407 0.0
C1528 C 0.49832 0.6081 0.48931 0.0
C1529 C 0.51266 0.60429 0.45323 0.0
C1530 C 0.46029 0.60903 0.65067 0.0
C1531 C 0.4453 0.60113 0.63754 0.0
C1532 C 0.47303 0.60825 0.60264 0.0
C1533 C 0.47103 0.59982 0.53963 0.0
C1534 C 0.45553 0.59322 0.52396 0.0
C1535 C 0.44284 0.59375 0.57264 0.0
H1536 H 0.32973 0.19129 0.31952 0.0
H1537 H 0.36869 0.21382 0.43755 0.0
H1538 H 0.33157 0.21316 0.23409 0.0
H1539 H 0.3707 0.23552 0.3513 0.0
H1540 H 0.34818 0.28265 0.25907 0.0
H1541 H 0.35175 0.25811 0.32892 0.0
H1542 H 0.34715 0.22811 0.14559 0.0
H1543 H 0.34332 0.25275 0.07541 0.0
C1544 C 0.33904 0.20061 0.32622 0.0
C1545 C 0.34884 0.20097 0.38613 0.0
C1546 C 0.3401 0.21316 0.27708 0.0
C1547 C 0.35102 0.22627 0.2868 0.0
C1548 C 0.36188 0.22579 0.34332 0.0
C1549 C 0.36082 0.21326 0.39243 0.0
C1550 C 0.34798 0.27084 0.23349 0.0
C1551 C 0.34538 0.26966 0.16171 0.0
C1552 C 0.35021 0.25676 0.27346 0.0
C1553 C 0.34988 0.24115 0.24271 0.0
C1554 C 0.3474 0.23995 0.17081 0.0
C1555 C 0.34522 0.25407 0.13068 0.0
H1556 H 0.53326 0.61221 0.19426 0.0
H1557 H 0.56326 0.58335 0.05589 0.0
H1558 H 0.51156 0.61261 0.10961 0.0
H1559 H 0.54175 0.58461 0.96829 0.0
H1560 H 0.49163 0.56762 0.88441 0.0
H1561 H 0.51664 0.57189 0.95081 0.0
H1562 H 0.49975 0.62037 0.00731 0.0
H1563 H 0.47432 0.61547 0.94503 0.0
C1564 C 0.53547 0.60641 0.14463 0.0
C1565 C 0.54991 0.59749 0.13234 0.0
C1566 C 0.52296 0.60671 0.09551 0.0
C1567 C 0.52468 0.59839 0.03206 0.0
C1568 C 0.53976 0.59073 0.01733 0.0
C1569 C 0.55219 0.59017 0.06719 0.0
C1570 C 0.49335 0.57918 0.91102 0.0
C1571 C 0.48097 0.59109 0.91082 0.0
C1572 C 0.50778 0.58175 0.94851 0.0
C1573 C 0.51028 0.59647 0.98519 0.0
C1574 C 0.49815 0.6087 0.98154 0.0
C1575 C 0.48357 0.60594 0.94564 0.0
H1576 H 0.16634 0.81977 0.81923 0.0
H1577 H 0.13883 0.78976 0.96245 0.0
H1578 H 0.16618 0.79743 0.73526 0.0
H1579 H 0.13943 0.76731 0.88105 0.0
H1580 H 0.18345 0.74742 0.65162 0.0
H1581 H 0.17949 0.77225 0.71992 0.0
H1582 H 0.13119 0.75536 0.77873 0.0
H1583 H 0.13567 0.73022 0.71417 0.0
C1584 C 0.16006 0.8085 0.8324 0.0
C1585 C 0.15268 0.80653 0.89765 0.0
C1586 C 0.16014 0.7956 0.78462 0.0
C1587 C 0.15303 0.78039 0.8015 0.0
C1588 C 0.14487 0.77882 0.8654 0.0
C1589 C 0.14456 0.79176 0.91252 0.0
C1590 C 0.17202 0.74908 0.6793 0.0
C1591 C 0.15999 0.73681 0.67862 0.0
C1592 C 0.16964 0.76339 0.71789 0.0
C1593 C 0.15503 0.76587 0.75542 0.0
C1594 C 0.14277 0.75377 0.75215 0.0
C1595 C 0.1453 0.73935 0.71493 0.0
H1596 H 0.02796 0.40611 0.50784 0.0
H1597 H 0.99883 0.41346 0.32331 0.0
H1598 H 0.00319 0.40107 0.57431 0.0
H1599 H 0.97392 0.40819 0.39021 0.0
H1600 H 0.93546 0.41978 0.56727 0.0
H1601 H 0.95784 0.42119 0.48391 0.0
H1602 H 0.98154 0.38038 0.58529 0.0
H1603 H 0.95935 0.37912 0.66946 0.0
C1604 C 0.01627 0.40664 0.48139 0.0
C1605 C 0.01538 0.4102 0.41027 0.0
C1606 C 0.00206 0.40357 0.51938 0.0
C1607 C 0.98661 0.40399 0.48727 0.0
C1608 C 0.98566 0.40778 0.41633 0.0
C1609 C -8e-05 0.41081 0.37812 0.0
C1610 C 0.94522 0.41082 0.57076 0.0
C1611 C 0.94578 0.39954 0.62587 0.0
C1612 C 0.95805 0.41164 0.52288 0.0
C1613 C 0.97163 0.40116 0.52914 0.0
C1614 C 0.97143 0.3889 0.58032 0.0
C1615 C 0.95864 0.38809 0.62819 0.0
H1616 H 0.35984 0.72059 0.29047 0.0
H1617 H 0.31593 0.74375 0.36758 0.0
H1618 H 0.36654 0.74517 0.22527 0.0
H1619 H 0.32195 0.76805 0.29872 0.0
H1620 H 0.33933 0.81385 0.19771 0.0
H1621 H 0.33794 0.79129 0.28048 0.0
H1622 H 0.35871 0.75879 0.12665 0.0
H1623 H 0.36097 0.78139 0.04646 0.0
C1624 C 0.3515 0.73091 0.29271 0.0
C1625 C 0.33728 0.73022 0.33345 0.0
C1626 C 0.35531 0.74502 0.25514 0.0
C1627 C 0.34475 0.75866 0.25594 0.0
C1628 C 0.33057 0.75797 0.29756 0.0
C1629 C 0.32698 0.74397 0.33649 0.0
C1630 C 0.34399 0.80196 0.18249 0.0
C1631 C 0.35018 0.79942 0.11545 0.0
C1632 C 0.343 0.78895 0.22958 0.0
C1633 C 0.34793 0.77306 0.21018 0.0
C1634 C 0.35496 0.77081 0.14428 0.0
C1635 C 0.35623 0.78384 0.09785 0.0
H1636 H 0.96241 0.61112 0.80279 0.0
H1637 H 0.93217 0.58264 0.94166 0.0
H1638 H 0.9848 0.60975 0.88426 0.0
H1639 H 0.95445 0.58203 0.02591 0.0
H1640 H 0.0044 0.56351 0.10619 0.0
H1641 H 0.97948 0.56838 0.03945 0.0
H1642 H 0.99692 0.61692 0.98733 0.0
H1643 H 0.02214 0.61153 0.05003 0.0
C1644 C 0.96034 0.60502 0.85187 0.0
C1645 C 0.94554 0.59683 0.86533 0.0
C1646 C 0.97324 0.60427 0.89907 0.0
C1647 C 0.9716 0.59558 0.96172 0.0
C1648 C 0.95634 0.58845 0.97747 0.0
C1649 C 0.94348 0.58897 0.92956 0.0
C1650 C 0.00284 0.57519 0.08029 0.0
C1651 C 0.01529 0.58701 0.08212 0.0
C1652 C 0.98847 0.57809 0.04263 0.0
C1653 C 0.98613 0.59304 0.00733 0.0
C1654 C 0.9984 0.6051 0.01206 0.0
C1655 C 0.01287 0.60204 0.04821 0.0
H1656 H 0.18625 0.25707 0.85093 0.0
H1657 H 0.13712 0.27345 0.80579 0.0
H1658 H 0.18138 0.23214 0.78438 0.0
H1659 H 0.13177 0.24819 0.7433 0.0
H1660 H 0.1366 0.21441 0.55575 0.0
H1661 H 0.13813 0.23658 0.63821 0.0
H1662 H 0.16842 0.20675 0.77225 0.0
H1663 H 0.16762 0.18473 0.68685 0.0
C1664 C 0.17433 0.25519 0.82756 0.0
C1665 C 0.16217 0.26728 0.83235 0.0
C1666 C 0.17144 0.24082 0.79 0.0
C1667 C 0.15617 0.2381 0.75778 0.0
C1668 C 0.14381 0.24997 0.7656 0.0
C1669 C 0.14684 0.26446 0.80164 0.0
C1670 C 0.14332 0.2124 0.60341 0.0
C1671 C 0.15215 0.19784 0.6143 0.0
C1672 C 0.14416 0.22517 0.65119 0.0
C1673 C 0.15359 0.22363 0.71191 0.0
C1674 C 0.1614 0.20857 0.72527 0.0
C1675 C 0.16078 0.19585 0.67673 0.0
H1676 H 0.5016 0.41246 0.67402 0.0
H1677 H 0.47218 0.4018 0.49336 0.0
H1678 H 0.52647 0.40838 0.60579 0.0
H1679 H 0.49696 0.398 0.42519 0.0
H1680 H 0.5426 0.37983 0.32757 0.0
H1681 H 0.52036 0.37959 0.41171 0.0
H1682 H 0.54095 0.42224 0.51146 0.0
H1683 H 0.56337 0.42233 0.42827 0.0
C1684 C 0.50043 0.40929 0.61976 0.0
C1685 C 0.48491 0.40751 0.58904 0.0
C1686 C 0.51468 0.40696 0.58072 0.0
C1687 C 0.51369 0.40275 0.51024 0.0
C1688 C 0.49816 0.40092 0.47971 0.0
C1689 C 0.48393 0.40327 0.51863 0.0
C1690 C 0.54263 0.38892 0.36844 0.0
C1691 C 0.55464 0.40126 0.37051 0.0
C1692 C 0.52979 0.38887 0.41628 0.0
C1693 C 0.5287 0.40111 0.46726 0.0
C1694 C 0.54143 0.41263 0.47283 0.0
C1695 C 0.55429 0.41269 0.42498 0.0
loop_
_geom_bond_atom_site_label_1
_geom_bond_atom_site_label_2
_geom_bond_distance
_geom_bond_site_symmetry_2
_ccdc_geom_bond_type
C0 O1 1.160 . S
C0 O7 1.185 . S
O1 C0 1.160 . S
O2 Zn3 1.899 . S
O2 C10 1.284 . S
Zn3 O2 1.899 . S
Zn3 O4 2.032 . S
Zn3 O7 2.086 . S
Zn3 O12 1.977 . S
O4 Zn3 2.032 . S
O4 C8 1.278 . S
C5 O6 1.203 . S
C5 O12 1.267 . S
O6 C5 1.203 . S
O7 C0 1.185 . S
O7 Zn3 2.086 . S
C8 O4 1.278 . S
C8 O9 1.211 . S
O9 C8 1.211 . S
C10 O2 1.284 . S
C10 O11 1.273 . S
O11 C10 1.273 . S
O12 Zn3 1.977 . S
O12 C5 1.267 . S
C13 O14 1.160 . S
C13 O20 1.185 . S
O14 C13 1.160 . S
O15 Zn16 1.899 . S
O15 C23 1.284 . S
Zn16 O15 1.899 . S
Zn16 O17 2.032 . S
Zn16 O20 2.086 . S
Zn16 O25 1.977 . S
O17 Zn16 2.032 . S
O17 C21 1.278 . S
C18 O19 1.203 . S
C18 O25 1.267 . S
O19 C18 1.203 . S
O20 C13 1.185 . S
O20 Zn16 2.086 . S
C21 O17 1.278 . S
C21 O22 1.211 . S
O22 C21 1.211 . S
C23 O15 1.284 . S
C23 O24 1.273 . S
O24 C23 1.273 . S
O25 Zn16 1.977 . S
O25 C18 1.267 . S
C26 O27 1.160 . S
C26 O33 1.185 . S
O27 C26 1.160 . S
O28 Zn29 1.899 . S
O28 C36 1.284 . S
Zn29 O28 1.899 . S
Zn29 O30 2.032 . S
Zn29 O33 2.086 . S
Zn29 O38 1.977 . S
O30 Zn29 2.032 . S
O30 C34 1.278 . S
C31 O32 1.203 . S
C31 O38 1.267 . S
O32 C31 1.203 . S
O33 C26 1.185 . S
O33 Zn29 2.086 . S
C34 O30 1.278 . S
C34 O35 1.211 . S
O35 C34 1.211 . S
C36 O28 1.284 . S
C36 O37 1.273 . S
O37 C36 1.273 . S
O38 Zn29 1.977 . S
O38 C31 1.267 . S
C39 O40 1.160 . S
C39 O46 1.185 . S
O40 C39 1.160 . S
O41 Zn42 1.899 . S
O41 C49 1.284 . S
Zn42 O41 1.899 . S
Zn42 O43 2.032 . S
Zn42 O46 2.086 . S
Zn42 O51 1.977 . S
O43 Zn42 2.032 . S
O43 C47 1.278 . S
C44 O45 1.203 . S
C44 O51 1.267 . S
O45 C44 1.203 . S
O46 C39 1.185 . S
O46 Zn42 2.086 . S
C47 O43 1.278 . S
C47 O48 1.211 . S
O48 C47 1.211 . S
C49 O41 1.284 . S
C49 O50 1.273 . S
O50 C49 1.273 . S
O51 Zn42 1.977 . S
O51 C44 1.267 . S
C52 O53 1.160 . S
C52 O59 1.185 . S
O53 C52 1.160 . S
O54 Zn55 1.899 . S
O54 C62 1.284 . S
Zn55 O54 1.899 . S
Zn55 O56 2.032 . S
Zn55 O59 2.086 . S
Zn55 O64 1.977 . S
O56 Zn55 2.032 . S
O56 C60 1.278 . S
C57 O58 1.203 . S
C57 O64 1.267 . S
O58 C57 1.203 . S
O59 C52 1.185 . S
O59 Zn55 2.086 . S
C60 O56 1.278 . S
C60 O61 1.211 . S
O61 C60 1.211 . S
C62 O54 1.284 . S
C62 O63 1.273 . S
O63 C62 1.273 . S
O64 Zn55 1.977 . S
O64 C57 1.267 . S
C65 O66 1.160 . S
C65 O72 1.185 . S
O66 C65 1.160 . S
O67 Zn68 1.899 . S
O67 C75 1.284 . S
Zn68 O67 1.899 . S
Zn68 O69 2.032 . S
Zn68 O72 2.086 . S
Zn68 O77 1.977 . S
O69 Zn68 2.032 . S
O69 C73 1.278 . S
C70 O71 1.203 . S
C70 O77 1.267 . S
O71 C70 1.203 . S
O72 C65 1.185 . S
O72 Zn68 2.086 . S
C73 O69 1.278 . S
C73 O74 1.211 . S
O74 C73 1.211 . S
C75 O67 1.284 . S
C75 O76 1.273 . S
O76 C75 1.273 . S
O77 Zn68 1.977 . S
O77 C70 1.267 . S
C78 O79 1.160 . S
C78 O85 1.185 . S
O79 C78 1.160 . S
O80 Zn81 1.899 . S
O80 C88 1.284 . S
Zn81 O80 1.899 . S
Zn81 O82 2.032 . S
Zn81 O85 2.086 . S
Zn81 O90 1.977 . S
O82 Zn81 2.032 . S
O82 C86 1.278 . S
C83 O84 1.203 . S
C83 O90 1.267 . S
O84 C83 1.203 . S
O85 C78 1.185 . S
O85 Zn81 2.086 . S
C86 O82 1.278 . S
C86 O87 1.211 . S
O87 C86 1.211 . S
C88 O80 1.284 . S
C88 O89 1.273 . S
O89 C88 1.273 . S
O90 Zn81 1.977 . S
O90 C83 1.267 . S
C91 O92 1.160 . S
C91 O98 1.185 . S
O92 C91 1.160 . S
O93 Zn94 1.899 . S
O93 C101 1.284 . S
Zn94 O93 1.899 . S
Zn94 O95 2.032 . S
Zn94 O98 2.086 . S
Zn94 O103 1.977 . S
O95 Zn94 2.032 . S
O95 C99 1.278 . S
C96 O97 1.203 . S
C96 O103 1.267 . S
O97 C96 1.203 . S
O98 C91 1.185 . S
O98 Zn94 2.086 . S
C99 O95 1.278 . S
C99 O100 1.211 . S
O100 C99 1.211 . S
C101 O93 1.284 . S
C101 O102 1.273 . S
O102 C101 1.273 . S
O103 Zn94 1.977 . S
O103 C96 1.267 . S
C104 O105 1.160 . S
C104 O111 1.185 . S
O105 C104 1.160 . S
O106 Zn107 1.899 . S
O106 C114 1.284 . S
Zn107 O106 1.899 . S
Zn107 O108 2.032 . S
Zn107 O111 2.086 . S
Zn107 O116 1.977 . S
O108 Zn107 2.032 . S
O108 C112 1.278 . S
C109 O110 1.203 . S
C109 O116 1.267 . S
O110 C109 1.203 . S
O111 C104 1.185 . S
O111 Zn107 2.086 . S
C112 O108 1.278 . S
C112 O113 1.211 . S
O113 C112 1.211 . S
C114 O106 1.284 . S
C114 O115 1.273 . S
O115 C114 1.273 . S
O116 Zn107 1.977 . S
O116 C109 1.267 . S
C117 O118 1.160 . S
C117 O124 1.185 . S
O118 C117 1.160 . S
O119 Zn120 1.899 . S
O119 C127 1.284 . S
Zn120 O119 1.899 . S
Zn120 O121 2.032 . S
Zn120 O124 2.086 . S
Zn120 O129 1.977 . S
O121 Zn120 2.032 . S
O121 C125 1.278 . S
C122 O123 1.203 . S
C122 O129 1.267 . S
O123 C122 1.203 . S
O124 C117 1.185 . S
O124 Zn120 2.086 . S
C125 O121 1.278 . S
C125 O126 1.211 . S
O126 C125 1.211 . S
C127 O119 1.284 . S
C127 O128 1.273 . S
O128 C127 1.273 . S
O129 Zn120 1.977 . S
O129 C122 1.267 . S
C130 O131 1.160 . S
C130 O137 1.185 . S
O131 C130 1.160 . S
O132 Zn133 1.899 . S
O132 C140 1.284 . S
Zn133 O132 1.899 . S
Zn133 O134 2.032 . S
Zn133 O137 2.086 . S
Zn133 O142 1.977 . S
O134 Zn133 2.032 . S
O134 C138 1.278 . S
C135 O136 1.203 . S
C135 O142 1.267 . S
O136 C135 1.203 . S
O137 C130 1.185 . S
O137 Zn133 2.086 . S
C138 O134 1.278 . S
C138 O139 1.211 . S
O139 C138 1.211 . S
C140 O132 1.284 . S
C140 O141 1.273 . S
O141 C140 1.273 . S
O142 Zn133 1.977 . S
O142 C135 1.267 . S
C143 O144 1.160 . S
C143 O150 1.185 . S
O144 C143 1.160 . S
O145 Zn146 1.899 . S
O145 C153 1.284 . S
Zn146 O145 1.899 . S
Zn146 O147 2.032 . S
Zn146 O150 2.086 . S
Zn146 O155 1.977 . S
O147 Zn146 2.032 . S
O147 C151 1.278 . S
C148 O149 1.203 . S
C148 O155 1.267 . S
O149 C148 1.203 . S
O150 C143 1.185 . S
O150 Zn146 2.086 . S
C151 O147 1.278 . S
C151 O152 1.211 . S
O152 C151 1.211 . S
C153 O145 1.284 . S
C153 O154 1.273 . S
O154 C153 1.273 . S
O155 Zn146 1.977 . S
O155 C148 1.267 . S
C156 O157 1.160 . S
C156 O163 1.185 . S
O157 C156 1.160 . S
O158 Zn159 1.899 . S
O158 C166 1.284 . S
Zn159 O158 1.899 . S
Zn159 O160 2.032 . S
Zn159 O163 2.086 . S
Zn159 O168 1.977 . S
O160 Zn159 2.032 . S
O160 C164 1.278 . S
C161 O162 1.203 . S
C161 O168 1.267 . S
O162 C161 1.203 . S
O163 C156 1.185 . S
O163 Zn159 2.086 . S
C164 O160 1.278 . S
C164 O165 1.211 . S
O165 C164 1.211 . S
C166 O158 1.284 . S
C166 O167 1.273 . S
O167 C166 1.273 . S
O168 Zn159 1.977 . S
O168 C161 1.267 . S
C169 O170 1.160 . S
C169 O176 1.185 . S
O170 C169 1.160 . S
O171 Zn172 1.899 . S
O171 C179 1.284 . S
Zn172 O171 1.899 . S
Zn172 O173 2.032 . S
Zn172 O176 2.086 . S
Zn172 O181 1.977 . S
O173 Zn172 2.032 . S
O173 C177 1.278 . S
C174 O175 1.203 . S
C174 O181 1.267 . S
O175 C174 1.203 . S
O176 C169 1.185 . S
O176 Zn172 2.086 . S
C177 O173 1.278 . S
C177 O178 1.211 . S
O178 C177 1.211 . S
C179 O171 1.284 . S
C179 O180 1.273 . S
O180 C179 1.273 . S
O181 Zn172 1.977 . S
O181 C174 1.267 . S
C182 O183 1.160 . S
C182 O189 1.185 . S
O183 C182 1.160 . S
O184 Zn185 1.899 . S
O184 C192 1.284 . S
Zn185 O184 1.899 . S
Zn185 O186 2.032 . S
Zn185 O189 2.086 . S
Zn185 O194 1.977 . S
O186 Zn185 2.032 . S
O186 C190 1.278 . S
C187 O188 1.203 . S
C187 O194 1.267 . S
O188 C187 1.203 . S
O189 C182 1.185 . S
O189 Zn185 2.086 . S
C190 O186 1.278 . S
C190 O191 1.211 . S
O191 C190 1.211 . S
C192 O184 1.284 . S
C192 O193 1.273 . S
O193 C192 1.273 . S
O194 Zn185 1.977 . S
O194 C187 1.267 . S
C195 O196 1.160 . S
C195 O202 1.185 . S
O196 C195 1.160 . S
O197 Zn198 1.899 . S
O197 C205 1.284 . S
Zn198 O197 1.899 . S
Zn198 O199 2.032 . S
Zn198 O202 2.086 . S
Zn198 O207 1.977 . S
O199 Zn198 2.032 . S
O199 C203 1.278 . S
C200 O201 1.203 . S
C200 O207 1.267 . S
O201 C200 1.203 . S
O202 C195 1.185 . S
O202 Zn198 2.086 . S
C203 O199 1.278 . S
C203 O204 1.211 . S
O204 C203 1.211 . S
C205 O197 1.284 . S
C205 O206 1.273 . S
O206 C205 1.273 . S
O207 Zn198 1.977 . S
O207 C200 1.267 . S
C208 O209 1.160 . S
C208 O215 1.185 . S
O209 C208 1.160 . S
O210 Zn211 1.899 . S
O210 C218 1.284 . S
Zn211 O210 1.899 . S
Zn211 O212 2.032 . S
Zn211 O215 2.086 . S
Zn211 O220 1.977 . S
O212 Zn211 2.032 . S
O212 C216 1.278 . S
C213 O214 1.203 . S
C213 O220 1.267 . S
O214 C213 1.203 . S
O215 C208 1.185 . S
O215 Zn211 2.086 . S
C216 O212 1.278 . S
C216 O217 1.211 . S
O217 C216 1.211 . S
C218 O210 1.284 . S
C218 O219 1.273 . S
O219 C218 1.273 . S
O220 Zn211 1.977 . S
O220 C213 1.267 . S
C221 O222 1.160 . S
C221 O228 1.185 . S
O222 C221 1.160 . S
O223 Zn224 1.899 . S
O223 C231 1.284 . S
Zn224 O223 1.899 . S
Zn224 O225 2.032 . S
Zn224 O228 2.086 . S
Zn224 O233 1.977 . S
O225 Zn224 2.032 . S
O225 C229 1.278 . S
C226 O227 1.203 . S
C226 O233 1.267 . S
O227 C226 1.203 . S
O228 C221 1.185 . S
O228 Zn224 2.086 . S
C229 O225 1.278 . S
C229 O230 1.211 . S
O230 C229 1.211 . S
C231 O223 1.284 . S
C231 O232 1.273 . S
O232 C231 1.273 . S
O233 Zn224 1.977 . S
O233 C226 1.267 . S
C234 O235 1.160 . S
C234 O241 1.185 . S
O235 C234 1.160 . S
O236 Zn237 1.899 . S
O236 C244 1.284 . S
Zn237 O236 1.899 . S
Zn237 O238 2.032 . S
Zn237 O241 2.086 . S
Zn237 O246 1.977 . S
O238 Zn237 2.032 . S
O238 C242 1.278 . S
C239 O240 1.203 . S
C239 O246 1.267 . S
O240 C239 1.203 . S
O241 C234 1.185 . S
O241 Zn237 2.086 . S
C242 O238 1.278 . S
C242 O243 1.211 . S
O243 C242 1.211 . S
C244 O236 1.284 . S
C244 O245 1.273 . S
O245 C244 1.273 . S
O246 Zn237 1.977 . S
O246 C239 1.267 . S
C247 O248 1.160 . S
C247 O254 1.185 . S
O248 C247 1.160 . S
O249 Zn250 1.899 . S
O249 C257 1.284 . S
Zn250 O249 1.899 . S
Zn250 O251 2.032 . S
Zn250 O254 2.086 . S
Zn250 O259 1.977 . S
O251 Zn250 2.032 . S
O251 C255 1.278 . S
C252 O253 1.203 . S
C252 O259 1.267 . S
O253 C252 1.203 . S
O254 C247 1.185 . S
O254 Zn250 2.086 . S
C255 O251 1.278 . S
C255 O256 1.211 . S
O256 C255 1.211 . S
C257 O249 1.284 . S
C257 O258 1.273 . S
O258 C257 1.273 . S
O259 Zn250 1.977 . S
O259 C252 1.267 . S
C260 O261 1.160 . S
C260 O267 1.185 . S
O261 C260 1.160 . S
O262 Zn263 1.899 . S
O262 C270 1.284 . S
Zn263 O262 1.899 . S
Zn263 O264 2.032 . S
Zn263 O267 2.086 . S
Zn263 O272 1.977 . S
O264 Zn263 2.032 . S
O264 C268 1.278 . S
C265 O266 1.203 . S
C265 O272 1.267 . S
O266 C265 1.203 . S
O267 C260 1.185 . S
O267 Zn263 2.086 . S
C268 O264 1.278 . S
C268 O269 1.211 . S
O269 C268 1.211 . S
C270 O262 1.284 . S
C270 O271 1.273 . S
O271 C270 1.273 . S
O272 Zn263 1.977 . S
O272 C265 1.267 . S
C273 O274 1.160 . S
C273 O280 1.185 . S
O274 C273 1.160 . S
O275 Zn276 1.899 . S
O275 C283 1.284 . S
Zn276 O275 1.899 . S
Zn276 O277 2.032 . S
Zn276 O280 2.086 . S
Zn276 O285 1.977 . S
O277 Zn276 2.032 . S
O277 C281 1.278 . S
C278 O279 1.203 . S
C278 O285 1.267 . S
O279 C278 1.203 . S
O280 C273 1.185 . S
O280 Zn276 2.086 . S
C281 O277 1.278 . S
C281 O282 1.211 . S
O282 C281 1.211 . S
C283 O275 1.284 . S
C283 O284 1.273 . S
O284 C283 1.273 . S
O285 Zn276 1.977 . S
O285 C278 1.267 . S
C286 O287 1.160 . S
C286 O293 1.185 . S
O287 C286 1.160 . S
O288 Zn289 1.899 . S
O288 C296 1.284 . S
Zn289 O288 1.899 . S
Zn289 O290 2.032 . S
Zn289 O293 2.086 . S
Zn289 O298 1.977 . S
O290 Zn289 2.032 . S
O290 C294 1.278 . S
C291 O292 1.203 . S
C291 O298 1.267 . S
O292 C291 1.203 . S
O293 C286 1.185 . S
O293 Zn289 2.086 . S
C294 O290 1.278 . S
C294 O295 1.211 . S
O295 C294 1.211 . S
C296 O288 1.284 . S
C296 O297 1.273 . S
O297 C296 1.273 . S
O298 Zn289 1.977 . S
O298 C291 1.267 . S
C299 O300 1.160 . S
C299 O306 1.185 . S
O300 C299 1.160 . S
O301 Zn302 1.899 . S
O301 C309 1.284 . S
Zn302 O301 1.899 . S
Zn302 O303 2.032 . S
Zn302 O306 2.086 . S
Zn302 O311 1.977 . S
O303 Zn302 2.032 . S
O303 C307 1.278 . S
C304 O305 1.203 . S
C304 O311 1.267 . S
O305 C304 1.203 . S
O306 C299 1.185 . S
O306 Zn302 2.086 . S
C307 O303 1.278 . S
C307 O308 1.211 . S
O308 C307 1.211 . S
C309 O301 1.284 . S
C309 O310 1.273 . S
O310 C309 1.273 . S
O311 Zn302 1.977 . S
O311 C304 1.267 . S
C312 O313 1.160 . S
C312 O319 1.185 . S
O313 C312 1.160 . S
O314 Zn315 1.899 . S
O314 C322 1.284 . S
Zn315 O314 1.899 . S
Zn315 O316 2.032 . S
Zn315 O319 2.086 . S
Zn315 O324 1.977 . S
O316 Zn315 2.032 . S
O316 C320 1.278 . S
C317 O318 1.203 . S
C317 O324 1.267 . S
O318 C317 1.203 . S
O319 C312 1.185 . S
O319 Zn315 2.086 . S
C320 O316 1.278 . S
C320 O321 1.211 . S
O321 C320 1.211 . S
C322 O314 1.284 . S
C322 O323 1.273 . S
O323 C322 1.273 . S
O324 Zn315 1.977 . S
O324 C317 1.267 . S
C325 O326 1.160 . S
C325 O332 1.185 . S
O326 C325 1.160 . S
O327 Zn328 1.899 . S
O327 C335 1.284 . S
Zn328 O327 1.899 . S
Zn328 O329 2.032 . S
Zn328 O332 2.086 . S
Zn328 O337 1.977 . S
O329 Zn328 2.032 . S
O329 C333 1.278 . S
C330 O331 1.203 . S
C330 O337 1.267 . S
O331 C330 1.203 . S
O332 C325 1.185 . S
O332 Zn328 2.086 . S
C333 O329 1.278 . S
C333 O334 1.211 . S
O334 C333 1.211 . S
C335 O327 1.284 . S
C335 O336 1.273 . S
O336 C335 1.273 . S
O337 Zn328 1.977 . S
O337 C330 1.267 . S
C338 O339 1.160 . S
C338 O345 1.185 . S
O339 C338 1.160 . S
O340 Zn341 1.899 . S
O340 C348 1.284 . S
Zn341 O340 1.899 . S
Zn341 O342 2.032 . S
Zn341 O345 2.086 . S
Zn341 O350 1.977 . S
O342 Zn341 2.032 . S
O342 C346 1.278 . S
C343 O344 1.203 . S
C343 O350 1.267 . S
O344 C343 1.203 . S
O345 C338 1.185 . S
O345 Zn341 2.086 . S
C346 O342 1.278 . S
C346 O347 1.211 . S
O347 C346 1.211 . S
C348 O340 1.284 . S
C348 O349 1.273 . S
O349 C348 1.273 . S
O350 Zn341 1.977 . S
O350 C343 1.267 . S
C351 O352 1.160 . S
C351 O358 1.185 . S
O352 C351 1.160 . S
O353 Zn354 1.899 . S
O353 C361 1.284 . S
Zn354 O353 1.899 . S
Zn354 O355 2.032 . S
Zn354 O358 2.086 . S
Zn354 O363 1.977 . S
O355 Zn354 2.032 . S
O355 C359 1.278 . S
C356 O357 1.203 . S
C356 O363 1.267 . S
O357 C356 1.203 . S
O358 C351 1.185 . S
O358 Zn354 2.086 . S
C359 O355 1.278 . S
C359 O360 1.211 . S
O360 C359 1.211 . S
C361 O353 1.284 . S
C361 O362 1.273 . S
O362 C361 1.273 . S
O363 Zn354 1.977 . S
O363 C356 1.267 . S
C364 O365 1.160 . S
C364 O371 1.185 . S
O365 C364 1.160 . S
O366 Zn367 1.899 . S
O366 C374 1.284 . S
Zn367 O366 1.899 . S
Zn367 O368 2.032 . S
Zn367 O371 2.086 . S
Zn367 O376 1.977 . S
O368 Zn367 2.032 . S
O368 C372 1.278 . S
C369 O370 1.203 . S
C369 O376 1.267 . S
O370 C369 1.203 . S
O371 C364 1.185 . S
O371 Zn367 2.086 . S
C372 O368 1.278 . S
C372 O373 1.211 . S
O373 C372 1.211 . S
C374 O366 1.284 . S
C374 O375 1.273 . S
O375 C374 1.273 . S
O376 Zn367 1.977 . S
O376 C369 1.267 . S
C377 O378 1.160 . S
C377 O384 1.185 . S
O378 C377 1.160 . S
O379 Zn380 1.899 . S
O379 C387 1.284 . S
Zn380 O379 1.899 . S
Zn380 O381 2.032 . S
Zn380 O384 2.086 . S
Zn380 O389 1.977 . S
O381 Zn380 2.032 . S
O381 C385 1.278 . S
C382 O383 1.203 . S
C382 O389 1.267 . S
O383 C382 1.203 . S
O384 C377 1.185 . S
O384 Zn380 2.086 . S
C385 O381 1.278 . S
C385 O386 1.211 . S
O386 C385 1.211 . S
C387 O379 1.284 . S
C387 O388 1.273 . S
O388 C387 1.273 . S
O389 Zn380 1.977 . S
O389 C382 1.267 . S
C390 O391 1.160 . S
C390 O397 1.185 . S
O391 C390 1.160 . S
O392 Zn393 1.899 . S
O392 C400 1.284 . S
Zn393 O392 1.899 . S
Zn393 O394 2.032 . S
Zn393 O397 2.086 . S
Zn393 O402 1.977 . S
O394 Zn393 2.032 . S
O394 C398 1.278 . S
C395 O396 1.203 . S
C395 O402 1.267 . S
O396 C395 1.203 . S
O397 C390 1.185 . S
O397 Zn393 2.086 . S
C398 O394 1.278 . S
C398 O399 1.211 . S
O399 C398 1.211 . S
C400 O392 1.284 . S
C400 O401 1.273 . S
O401 C400 1.273 . S
O402 Zn393 1.977 . S
O402 C395 1.267 . S
C403 O404 1.160 . S
C403 O410 1.185 . S
O404 C403 1.160 . S
O405 Zn406 1.899 . S
O405 C413 1.284 . S
Zn406 O405 1.899 . S
Zn406 O407 2.032 . S
Zn406 O410 2.086 . S
Zn406 O415 1.977 . S
O407 Zn406 2.032 . S
O407 C411 1.278 . S
C408 O409 1.203 . S
C408 O415 1.267 . S
O409 C408 1.203 . S
O410 C403 1.185 . S
O410 Zn406 2.086 . S
C411 O407 1.278 . S
C411 O412 1.211 . S
O412 C411 1.211 . S
C413 O405 1.284 . S
C413 O414 1.273 . S
O414 C413 1.273 . S
O415 Zn406 1.977 . S
O415 C408 1.267 . S
H416 C424 0.950 . S
H417 C429 0.950 . S
H418 C426 0.950 . S
H419 C428 0.950 . S
H420 C430 0.950 . S
H421 C432 0.950 . S
H422 C434 0.950 . S
H423 C435 0.950 . S
C424 H416 0.950 . S
C424 C425 1.386 . S
C424 C426 1.391 . S
C425 C424 1.386 . S
C425 C429 1.393 . S
C426 H418 0.950 . S
C426 C424 1.391 . S
C426 C427 1.400 . S
C427 C426 1.400 . S
C427 C428 1.398 . S
C427 C433 1.491 . S
C428 H419 0.950 . S
C428 C427 1.398 . S
C428 C429 1.391 . S
C429 H417 0.950 . S
C429 C425 1.393 . S
C429 C428 1.391 . S
C430 H420 0.950 . S
C430 C431 1.386 . S
C430 C432 1.391 . S
C431 C430 1.386 . S
C431 C435 1.393 . S
C432 H421 0.950 . S
C432 C430 1.391 . S
C432 C433 1.400 . S
C433 C427 1.491 . S
C433 C432 1.400 . S
C433 C434 1.398 . S
C434 H422 0.950 . S
C434 C433 1.398 . S
C434 C435 1.391 . S
C435 H423 0.950 . S
C435 C431 1.393 . S
C435 C434 1.391 . S
H436 C444 0.950 . S
H437 C449 0.950 . S
H438 C446 0.950 . S
H439 C448 0.950 . S
H440 C450 0.950 . S
H441 C452 0.950 . S
H442 C454 0.950 . S
H443 C455 0.950 . S
C444 H436 0.950 . S
C444 C445 1.386 . S
C444 C446 1.391 . S
C445 C444 1.386 . S
C445 C449 1.393 . S
C446 H438 0.950 . S
C446 C444 1.391 . S
C446 C447 1.400 . S
C447 C446 1.400 . S
C447 C448 1.398 . S
C447 C453 1.491 1_565 S
C448 H439 0.950 . S
C448 C447 1.398 . S
C448 C449 1.391 . S
C449 H437 0.950 . S
C449 C445 1.393 . S
C449 C448 1.391 . S
C450 H440 0.950 . S
C450 C451 1.386 . S
C450 C452 1.391 . S
C451 C450 1.386 . S
C451 C455 1.393 . S
C452 H441 0.950 . S
C452 C450 1.391 . S
C452 C453 1.400 . S
C453 C447 1.491 1_545 S
C453 C452 1.400 . S
C453 C454 1.398 . S
C454 H442 0.950 . S
C454 C453 1.398 . S
C454 C455 1.391 . S
C455 H443 0.950 . S
C455 C451 1.393 . S
C455 C454 1.391 . S
H456 C464 0.950 . S
H457 C469 0.950 1_556 S
H458 C466 0.950 . S
H459 C468 0.950 . S
H460 C470 0.950 . S
H461 C472 0.950 . S
H462 C474 0.950 . S
H463 C475 0.950 1_554 S
C464 H456 0.950 . S
C464 C465 1.386 . S
C464 C466 1.391 . S
C465 C464 1.386 . S
C465 C469 1.393 . S
C466 H458 0.950 . S
C466 C464 1.391 . S
C466 C467 1.400 . S
C467 C466 1.400 . S
C467 C468 1.398 1_554 S
C467 C473 1.491 1_554 S
C468 H459 0.950 . S
C468 C467 1.398 1_556 S
C468 C469 1.391 1_556 S
C469 H457 0.950 1_554 S
C469 C465 1.393 . S
C469 C468 1.391 1_554 S
C470 H460 0.950 . S
C470 C471 1.386 . S
C470 C472 1.391 . S
C471 C470 1.386 . S
C471 C475 1.393 . S
C472 H461 0.950 . S
C472 C470 1.391 . S
C472 C473 1.400 . S
C473 C467 1.491 1_556 S
C473 C472 1.400 . S
C473 C474 1.398 1_556 S
C474 H462 0.950 . S
C474 C473 1.398 1_554 S
C474 C475 1.391 1_554 S
C475 H463 0.950 1_556 S
C475 C471 1.393 . S
C475 C474 1.391 1_556 S
H476 C484 0.950 . S
H477 C489 0.950 . S
H478 C486 0.950 . S
H479 C488 0.950 . S
H480 C490 0.950 . S
H481 C492 0.950 . S
H482 C494 0.950 . S
H483 C495 0.950 . S
C484 H476 0.950 . S
C484 C485 1.386 . S
C484 C486 1.391 . S
C485 C484 1.386 . S
C485 C489 1.393 . S
C486 H478 0.950 . S
C486 C484 1.391 . S
C486 C487 1.400 . S
C487 C486 1.400 . S
C487 C488 1.398 . S
C487 C493 1.491 1_545 S
C488 H479 0.950 . S
C488 C487 1.398 . S
C488 C489 1.391 . S
C489 H477 0.950 . S
C489 C485 1.393 . S
C489 C488 1.391 . S
C490 H480 0.950 . S
C490 C491 1.386 . S
C490 C492 1.391 . S
C491 C490 1.386 . S
C491 C495 1.393 . S
C492 H481 0.950 . S
C492 C490 1.391 . S
C492 C493 1.400 . S
C493 C487 1.491 1_565 S
C493 C492 1.400 . S
C493 C494 1.398 . S
C494 H482 0.950 . S
C494 C493 1.398 . S
C494 C495 1.391 . S
C495 H483 0.950 . S
C495 C491 1.393 . S
C495 C494 1.391 . S
H496 C504 0.950 . S
H497 C509 0.950 . S
H498 C506 0.950 . S
H499 C508 0.950 . S
H500 C510 0.950 . S
H501 C512 0.950 . S
H502 C514 0.950 . S
H503 C515 0.950 . S
C504 H496 0.950 . S
C504 C505 1.386 . S
C504 C506 1.391 . S
C505 C504 1.386 . S
C505 C509 1.393 . S
C506 H498 0.950 . S
C506 C504 1.391 . S
C506 C507 1.400 . S
C507 C506 1.400 . S
C507 C508 1.398 . S
C507 C513 1.491 . S
C508 H499 0.950 . S
C508 C507 1.398 . S
C508 C509 1.391 . S
C509 H497 0.950 . S
C509 C505 1.393 . S
C509 C508 1.391 . S
C510 H500 0.950 . S
C510 C511 1.386 . S
C510 C512 1.391 . S
C511 C510 1.386 . S
C511 C515 1.393 . S
C512 H501 0.950 . S
C512 C510 1.391 . S
C512 C513 1.400 . S
C513 C507 1.491 . S
C513 C512 1.400 . S
C513 C514 1.398 . S
C514 H502 0.950 . S
C514 C513 1.398 . S
C514 C515 1.391 . S
C515 H503 0.950 . S
C515 C511 1.393 . S
C515 C514 1.391 . S
H516 C524 0.950 . S
H517 C529 0.950 . S
H518 C526 0.950 . S
H519 C528 0.950 . S
H520 C530 0.950 . S
H521 C532 0.950 . S
H522 C534 0.950 . S
H523 C535 0.950 . S
C524 H516 0.950 . S
C524 C525 1.386 . S
C524 C526 1.391 . S
C525 C524 1.386 . S
C525 C529 1.393 . S
C526 H518 0.950 . S
C526 C524 1.391 . S
C526 C527 1.400 . S
C527 C526 1.400 . S
C527 C528 1.398 . S
C527 C533 1.491 1_545 S
C528 H519 0.950 . S
C528 C527 1.398 . S
C528 C529 1.391 . S
C529 H517 0.950 . S
C529 C525 1.393 . S
C529 C528 1.391 . S
C530 H520 0.950 . S
C530 C531 1.386 . S
C530 C532 1.391 . S
C531 C530 1.386 . S
C531 C535 1.393 . S
C532 H521 0.950 . S
C532 C530 1.391 . S
C532 C533 1.400 . S
C533 C527 1.491 1_565 S
C533 C532 1.400 . S
C533 C534 1.398 . S
C534 H522 0.950 . S
C534 C533 1.398 . S
C534 C535 1.391 . S
C535 H523 0.950 . S
C535 C531 1.393 . S
C535 C534 1.391 . S
H536 C544 0.950 . S
H537 C549 0.950 . S
H538 C546 0.950 . S
H539 C548 0.950 . S
H540 C550 0.950 . S
H541 C552 0.950 . S
H542 C554 0.950 . S
H543 C555 0.950 . S
C544 H536 0.950 . S
C544 C545 1.386 . S
C544 C546 1.391 1_556 S
C545 C544 1.386 . S
C545 C549 1.393 . S
C546 H538 0.950 . S
C546 C544 1.391 1_554 S
C546 C547 1.400 1_554 S
C547 C546 1.400 1_556 S
C547 C548 1.398 . S
C547 C553 1.491 1_556 S
C548 H539 0.950 . S
C548 C547 1.398 . S
C548 C549 1.391 . S
C549 H537 0.950 . S
C549 C545 1.393 . S
C549 C548 1.391 . S
C550 H540 0.950 . S
C550 C551 1.386 . S
C550 C552 1.391 1_554 S
C551 C550 1.386 . S
C551 C555 1.393 . S
C552 H541 0.950 . S
C552 C550 1.391 1_556 S
C552 C553 1.400 1_556 S
C553 C547 1.491 1_554 S
C553 C552 1.400 1_554 S
C553 C554 1.398 . S
C554 H542 0.950 . S
C554 C553 1.398 . S
C554 C555 1.391 . S
C555 H543 0.950 . S
C555 C551 1.393 . S
C555 C554 1.391 . S
H556 C564 0.950 . S
H557 C569 0.950 . S
H558 C566 0.950 . S
H559 C568 0.950 . S
H560 C570 0.950 . S
H561 C572 0.950 . S
H562 C574 0.950 . S
H563 C575 0.950 . S
C564 H556 0.950 . S
C564 C565 1.386 . S
C564 C566 1.391 . S
C565 C564 1.386 . S
C565 C569 1.393 . S
C566 H558 0.950 . S
C566 C564 1.391 . S
C566 C567 1.400 . S
C567 C566 1.400 . S
C567 C568 1.398 . S
C567 C573 1.491 1_565 S
C568 H559 0.950 . S
C568 C567 1.398 . S
C568 C569 1.391 . S
C569 H557 0.950 . S
C569 C565 1.393 . S
C569 C568 1.391 . S
C570 H560 0.950 . S
C570 C571 1.386 . S
C570 C572 1.391 . S
C571 C570 1.386 . S
C571 C575 1.393 . S
C572 H561 0.950 . S
C572 C570 1.391 . S
C572 C573 1.400 . S
C573 C567 1.491 1_545 S
C573 C572 1.400 . S
C573 C574 1.398 . S
C574 H562 0.950 . S
C574 C573 1.398 . S
C574 C575 1.391 . S
C575 H563 0.950 . S
C575 C571 1.393 . S
C575 C574 1.391 . S
H576 C584 0.950 . S
H577 C589 0.950 1_554 S
H578 C586 0.950 . S
H579 C588 0.950 . S
H580 C590 0.950 . S
H581 C592 0.950 . S
H582 C594 0.950 . S
H583 C595 0.950 1_556 S
C584 H576 0.950 . S
C584 C585 1.386 . S
C584 C586 1.391 . S
C585 C584 1.386 . S
C585 C589 1.393 . S
C586 H578 0.950 . S
C586 C584 1.391 . S
C586 C587 1.400 . S
C587 C586 1.400 . S
C587 C588 1.398 1_556 S
C587 C593 1.491 1_556 S
C588 H579 0.950 . S
C588 C587 1.398 1_554 S
C588 C589 1.391 1_554 S
C589 H577 0.950 1_556 S
C589 C585 1.393 . S
C589 C588 1.391 1_556 S
C590 H580 0.950 . S
C590 C591 1.386 . S
C590 C592 1.391 . S
C591 C590 1.386 . S
C591 C595 1.393 . S
C592 H581 0.950 . S
C592 C590 1.391 . S
C592 C593 1.400 . S
C593 C587 1.491 1_554 S
C593 C592 1.400 . S
C593 C594 1.398 1_554 S
C594 H582 0.950 . S
C594 C593 1.398 1_556 S
C594 C595 1.391 1_556 S
C595 H583 0.950 1_554 S
C595 C591 1.393 . S
C595 C594 1.391 1_554 S
H596 C604 0.950 . S
H597 C609 0.950 . S
H598 C606 0.950 . S
H599 C608 0.950 . S
H600 C610 0.950 . S
H601 C612 0.950 . S
H602 C614 0.950 . S
H603 C615 0.950 . S
C604 H596 0.950 . S
C604 C605 1.386 . S
C604 C606 1.391 . S
C605 C604 1.386 . S
C605 C609 1.393 . S
C606 H598 0.950 . S
C606 C604 1.391 . S
C606 C607 1.400 . S
C607 C606 1.400 . S
C607 C608 1.398 . S
C607 C613 1.491 . S
C608 H599 0.950 . S
C608 C607 1.398 . S
C608 C609 1.391 . S
C609 H597 0.950 . S
C609 C605 1.393 . S
C609 C608 1.391 . S
C610 H600 0.950 . S
C610 C611 1.386 . S
C610 C612 1.391 . S
C611 C610 1.386 . S
C611 C615 1.393 . S
C612 H601 0.950 . S
C612 C610 1.391 . S
C612 C613 1.400 . S
C613 C607 1.491 . S
C613 C612 1.400 . S
C613 C614 1.398 . S
C614 H602 0.950 . S
C614 C613 1.398 . S
C614 C615 1.391 . S
C615 H603 0.950 . S
C615 C611 1.393 . S
C615 C614 1.391 . S
H616 C624 0.950 . S
H617 C629 0.950 . S
H618 C626 0.950 . S
H619 C628 0.950 . S
H620 C630 0.950 . S
H621 C632 0.950 . S
H622 C634 0.950 . S
H623 C635 0.950 . S
C624 H616 0.950 . S
C624 C625 1.386 . S
C624 C626 1.391 . S
C625 C624 1.386 . S
C625 C629 1.393 . S
C626 H618 0.950 . S
C626 C624 1.391 . S
C626 C627 1.400 . S
C627 C626 1.400 . S
C627 C628 1.398 . S
C627 C633 1.491 . S
C628 H619 0.950 . S
C628 C627 1.398 . S
C628 C629 1.391 . S
C629 H617 0.950 . S
C629 C625 1.393 . S
C629 C628 1.391 . S
C630 H620 0.950 . S
C630 C631 1.386 . S
C630 C632 1.391 . S
C631 C630 1.386 . S
C631 C635 1.393 . S
C632 H621 0.950 . S
C632 C630 1.391 . S
C632 C633 1.400 . S
C633 C627 1.491 . S
C633 C632 1.400 . S
C633 C634 1.398 . S
C634 H622 0.950 . S
C634 C633 1.398 . S
C634 C635 1.391 . S
C635 H623 0.950 . S
C635 C631 1.393 . S
C635 C634 1.391 . S
H636 C644 0.950 . S
H637 C649 0.950 . S
H638 C646 0.950 . S
H639 C648 0.950 . S
H640 C650 0.950 . S
H641 C652 0.950 . S
H642 C654 0.950 . S
H643 C655 0.950 . S
C644 H636 0.950 . S
C644 C645 1.386 . S
C644 C646 1.391 . S
C645 C644 1.386 . S
C645 C649 1.393 . S
C646 H638 0.950 . S
C646 C644 1.391 . S
C646 C647 1.400 . S
C647 C646 1.400 . S
C647 C648 1.398 . S
C647 C653 1.491 . S
C648 H639 0.950 . S
C648 C647 1.398 . S
C648 C649 1.391 . S
C649 H637 0.950 . S
C649 C645 1.393 . S
C649 C648 1.391 . S
C650 H640 0.950 . S
C650 C651 1.386 . S
C650 C652 1.391 . S
C651 C650 1.386 . S
C651 C655 1.393 . S
C652 H641 0.950 . S
C652 C650 1.391 . S
C652 C653 1.400 . S
C653 C647 1.491 . S
C653 C652 1.400 . S
C653 C654 1.398 . S
C654 H642 0.950 . S
C654 C653 1.398 . S
C654 C655 1.391 . S
C655 H643 0.950 . S
C655 C651 1.393 . S
C655 C654 1.391 . S
H656 C664 0.950 . S
H657 C669 0.950 1_554 S
H658 C666 0.950 . S
H659 C668 0.950 . S
H660 C670 0.950 . S
H661 C672 0.950 . S
H662 C674 0.950 . S
H663 C675 0.950 1_556 S
C664 H656 0.950 . S
C664 C665 1.386 . S
C664 C666 1.391 . S
C665 C664 1.386 . S
C665 C669 1.393 . S
C666 H658 0.950 . S
C666 C664 1.391 . S
C666 C667 1.400 . S
C667 C666 1.400 . S
C667 C668 1.398 1_556 S
C667 C673 1.491 1_556 S
C668 H659 0.950 . S
C668 C667 1.398 1_554 S
C668 C669 1.391 1_554 S
C669 H657 0.950 1_556 S
C669 C665 1.393 . S
C669 C668 1.391 1_556 S
C670 H660 0.950 . S
C670 C671 1.386 . S
C670 C672 1.391 . S
C671 C670 1.386 . S
C671 C675 1.393 . S
C672 H661 0.950 . S
C672 C670 1.391 . S
C672 C673 1.400 . S
C673 C667 1.491 1_554 S
C673 C672 1.400 . S
C673 C674 1.398 1_554 S
C674 H662 0.950 . S
C674 C673 1.398 1_556 S
C674 C675 1.391 1_556 S
C675 H663 0.950 1_554 S
C675 C671 1.393 . S
C675 C674 1.391 1_554 S
H676 C684 0.950 . S
H677 C689 0.950 . S
H678 C686 0.950 . S
H679 C688 0.950 . S
H680 C690 0.950 . S
H681 C692 0.950 . S
H682 C694 0.950 . S
H683 C695 0.950 . S
C684 H676 0.950 . S
C684 C685 1.386 . S
C684 C686 1.391 . S
C685 C684 1.386 . S
C685 C689 1.393 . S
C686 H678 0.950 . S
C686 C684 1.391 . S
C686 C687 1.400 . S
C687 C686 1.400 . S
C687 C688 1.398 . S
C687 C693 1.491 . S
C688 H679 0.950 . S
C688 C687 1.398 . S
C688 C689 1.391 . S
C689 H677 0.950 . S
C689 C685 1.393 . S
C689 C688 1.391 . S
C690 H680 0.950 . S
C690 C691 1.386 . S
C690 C692 1.391 . S
C691 C690 1.386 . S
C691 C695 1.393 . S
C692 H681 0.950 . S
C692 C690 1.391 . S
C692 C693 1.400 . S
C693 C687 1.491 . S
C693 C692 1.400 . S
C693 C694 1.398 . S
C694 H682 0.950 . S
C694 C693 1.398 . S
C694 C695 1.391 . S
C695 H683 0.950 . S
C695 C691 1.393 . S
C695 C694 1.391 . S
H696 C704 0.950 . S
H697 C709 0.950 . S
H698 C706 0.950 . S
H699 C708 0.950 . S
H700 C710 0.950 . S
H701 C712 0.950 . S
H702 C714 0.950 . S
H703 C715 0.950 . S
C704 H696 0.950 . S
C704 C705 1.386 . S
C704 C706 1.391 . S
C705 C704 1.386 . S
C705 C709 1.393 . S
C706 H698 0.950 . S
C706 C704 1.391 . S
C706 C707 1.400 . S
C707 C706 1.400 . S
C707 C708 1.398 . S
C707 C713 1.491 . S
C708 H699 0.950 . S
C708 C707 1.398 . S
C708 C709 1.391 . S
C709 H697 0.950 . S
C709 C705 1.393 . S
C709 C708 1.391 . S
C710 H700 0.950 . S
C710 C711 1.386 . S
C710 C712 1.391 . S
C711 C710 1.386 . S
C711 C715 1.393 . S
C712 H701 0.950 . S
C712 C710 1.391 . S
C712 C713 1.400 . S
C713 C707 1.491 . S
C713 C712 1.400 . S
C713 C714 1.398 . S
C714 H702 0.950 . S
C714 C713 1.398 . S
C714 C715 1.391 . S
C715 H703 0.950 . S
C715 C711 1.393 . S
C715 C714 1.391 . S
H716 C724 0.950 . S
H717 C729 0.950 . S
H718 C726 0.950 . S
H719 C728 0.950 . S
H720 C730 0.950 . S
H721 C732 0.950 . S
H722 C734 0.950 . S
H723 C735 0.950 . S
C724 H716 0.950 . S
C724 C725 1.386 . S
C724 C726 1.391 . S
C725 C724 1.386 . S
C725 C729 1.393 . S
C726 H718 0.950 . S
C726 C724 1.391 . S
C726 C727 1.400 . S
C727 C726 1.400 . S
C727 C728 1.398 . S
C727 C733 1.491 . S
C728 H719 0.950 . S
C728 C727 1.398 . S
C728 C729 1.391 . S
C729 H717 0.950 . S
C729 C725 1.393 . S
C729 C728 1.391 . S
C730 H720 0.950 . S
C730 C731 1.386 . S
C730 C732 1.391 . S
C731 C730 1.386 . S
C731 C735 1.393 . S
C732 H721 0.950 . S
C732 C730 1.391 . S
C732 C733 1.400 . S
C733 C727 1.491 . S
C733 C732 1.400 . S
C733 C734 1.398 . S
C734 H722 0.950 . S
C734 C733 1.398 . S
C734 C735 1.391 . S
C735 H723 0.950 . S
C735 C731 1.393 . S
C735 C734 1.391 . S
H736 C744 0.950 1_556 S
H737 C749 0.950 . S
H738 C746 0.950 . S
H739 C748 0.950 . S
H740 C750 0.950 . S
H741 C752 0.950 . S
H742 C754 0.950 . S
H743 C755 0.950 . S
C744 H736 0.950 1_554 S
C744 C745 1.386 1_554 S
C744 C746 1.391 . S
C745 C744 1.386 1_556 S
C745 C749 1.393 . S
C746 H738 0.950 . S
C746 C744 1.391 . S
C746 C747 1.400 . S
C747 C746 1.400 . S
C747 C748 1.398 . S
C747 C753 1.491 . S
C748 H739 0.950 . S
C748 C747 1.398 . S
C748 C749 1.391 1_554 S
C749 H737 0.950 . S
C749 C745 1.393 . S
C749 C748 1.391 1_556 S
C750 H740 0.950 . S
C750 C751 1.386 . S
C750 C752 1.391 . S
C751 C750 1.386 . S
C751 C755 1.393 . S
C752 H741 0.950 . S
C752 C750 1.391 . S
C752 C753 1.400 . S
C753 C747 1.491 . S
C753 C752 1.400 . S
C753 C754 1.398 . S
C754 H742 0.950 . S
C754 C753 1.398 . S
C754 C755 1.391 . S
C755 H743 0.950 . S
C755 C751 1.393 . S
C755 C754 1.391 . S
H756 C764 0.950 . S
H757 C769 0.950 . S
H758 C766 0.950 . S
H759 C768 0.950 . S
H760 C770 0.950 . S
H761 C772 0.950 . S
H762 C774 0.950 . S
H763 C775 0.950 . S
C764 H756 0.950 . S
C764 C765 1.386 . S
C764 C766 1.391 . S
C765 C764 1.386 . S
C765 C769 1.393 . S
C766 H758 0.950 . S
C766 C764 1.391 . S
C766 C767 1.400 . S
C767 C766 1.400 . S
C767 C768 1.398 . S
C767 C773 1.491 . S
C768 H759 0.950 . S
C768 C767 1.398 . S
C768 C769 1.391 . S
C769 H757 0.950 . S
C769 C765 1.393 . S
C769 C768 1.391 . S
C770 H760 0.950 . S
C770 C771 1.386 . S
C770 C772 1.391 . S
C771 C770 1.386 . S
C771 C775 1.393 . S
C772 H761 0.950 . S
C772 C770 1.391 . S
C772 C773 1.400 . S
C773 C767 1.491 . S
C773 C772 1.400 . S
C773 C774 1.398 . S
C774 H762 0.950 . S
C774 C773 1.398 . S
C774 C775 1.391 . S
C775 H763 0.950 . S
C775 C771 1.393 . S
C775 C774 1.391 . S
H776 C784 0.950 . S
H777 C789 0.950 . S
H778 C786 0.950 . S
H779 C788 0.950 . S
H780 C790 0.950 . S
H781 C792 0.950 . S
H782 C794 0.950 . S
H783 C795 0.950 . S
C784 H776 0.950 . S
C784 C785 1.386 . S
C784 C786 1.391 . S
C785 C784 1.386 . S
C785 C789 1.393 . S
C786 H778 0.950 . S
C786 C784 1.391 . S
C786 C787 1.400 . S
C787 C786 1.400 . S
C787 C788 1.398 . S
C787 C793 1.491 . S
C788 H779 0.950 . S
C788 C787 1.398 . S
C788 C789 1.391 . S
C789 H777 0.950 . S
C789 C785 1.393 . S
C789 C788 1.391 . S
C790 H780 0.950 . S
C790 C791 1.386 . S
C790 C792 1.391 . S
C791 C790 1.386 . S
C791 C795 1.393 . S
C792 H781 0.950 . S
C792 C790 1.391 . S
C792 C793 1.400 . S
C793 C787 1.491 . S
C793 C792 1.400 . S
C793 C794 1.398 . S
C794 H782 0.950 . S
C794 C793 1.398 . S
C794 C795 1.391 . S
C795 H783 0.950 . S
C795 C791 1.393 . S
C795 C794 1.391 . S
H796 C804 0.950 . S
H797 C809 0.950 . S
H798 C806 0.950 . S
H799 C808 0.950 . S
H800 C810 0.950 . S
H801 C812 0.950 . S
H802 C814 0.950 . S
H803 C815 0.950 . S
C804 H796 0.950 . S
C804 C805 1.386 . S
C804 C806 1.391 . S
C805 C804 1.386 . S
C805 C809 1.393 . S
C806 H798 0.950 . S
C806 C804 1.391 . S
C806 C807 1.400 . S
C807 C806 1.400 . S
C807 C808 1.398 . S
C807 C813 1.491 . S
C808 H799 0.950 . S
C808 C807 1.398 . S
C808 C809 1.391 . S
C809 H797 0.950 . S
C809 C805 1.393 . S
C809 C808 1.391 . S
C810 H800 0.950 . S
C810 C811 1.386 1_556 S
C810 C812 1.391 . S
C811 C810 1.386 1_554 S
C811 C815 1.393 . S
C812 H801 0.950 . S
C812 C810 1.391 . S
C812 C813 1.400 . S
C813 C807 1.491 . S
C813 C812 1.400 . S
C813 C814 1.398 . S
C814 H802 0.950 . S
C814 C813 1.398 . S
C814 C815 1.391 1_556 S
C815 H803 0.950 . S
C815 C811 1.393 . S
C815 C814 1.391 1_554 S
H816 C824 0.950 . S
H817 C829 0.950 . S
H818 C826 0.950 . S
H819 C828 0.950 . S
H820 C830 0.950 . S
H821 C832 0.950 . S
H822 C834 0.950 . S
H823 C835 0.950 . S
C824 H816 0.950 . S
C824 C825 1.386 . S
C824 C826 1.391 1_554 S
C825 C824 1.386 . S
C825 C829 1.393 1_554 S
C826 H818 0.950 . S
C826 C824 1.391 1_556 S
C826 C827 1.400 . S
C827 C826 1.400 . S
C827 C828 1.398 . S
C827 C833 1.491 . S
C828 H819 0.950 . S
C828 C827 1.398 . S
C828 C829 1.391 . S
C829 H817 0.950 . S
C829 C825 1.393 1_556 S
C829 C828 1.391 . S
C830 H820 0.950 . S
C830 C831 1.386 . S
C830 C832 1.391 . S
C831 C830 1.386 . S
C831 C835 1.393 . S
C832 H821 0.950 . S
C832 C830 1.391 . S
C832 C833 1.400 . S
C833 C827 1.491 . S
C833 C832 1.400 . S
C833 C834 1.398 . S
C834 H822 0.950 . S
C834 C833 1.398 . S
C834 C835 1.391 . S
C835 H823 0.950 . S
C835 C831 1.393 . S
C835 C834 1.391 . S
H836 C844 0.950 . S
H837 C849 0.950 . S
H838 C846 0.950 . S
H839 C848 0.950 . S
H840 C850 0.950 . S
H841 C852 0.950 . S
H842 C854 0.950 . S
H843 C855 0.950 . S
C844 H836 0.950 . S
C844 C845 1.386 . S
C844 C846 1.391 . S
C845 C844 1.386 . S
C845 C849 1.393 . S
C846 H838 0.950 . S
C846 C844 1.391 . S
C846 C847 1.400 . S
C847 C846 1.400 . S
C847 C848 1.398 . S
C847 C853 1.491 . S
C848 H839 0.950 . S
C848 C847 1.398 . S
C848 C849 1.391 . S
C849 H837 0.950 . S
C849 C845 1.393 . S
C849 C848 1.391 . S
C850 H840 0.950 . S
C850 C851 1.386 . S
C850 C852 1.391 . S
C851 C850 1.386 . S
C851 C855 1.393 . S
C852 H841 0.950 . S
C852 C850 1.391 . S
C852 C853 1.400 . S
C853 C847 1.491 . S
C853 C852 1.400 . S
C853 C854 1.398 . S
C854 H842 0.950 . S
C854 C853 1.398 . S
C854 C855 1.391 . S
C855 H843 0.950 . S
C855 C851 1.393 . S
C855 C854 1.391 . S
H856 C864 0.950 . S
H857 C869 0.950 . S
H858 C866 0.950 . S
H859 C868 0.950 . S
H860 C870 0.950 . S
H861 C872 0.950 . S
H862 C874 0.950 . S
H863 C875 0.950 . S
C864 H856 0.950 . S
C864 C865 1.386 . S
C864 C866 1.391 . S
C865 C864 1.386 . S
C865 C869 1.393 . S
C866 H858 0.950 . S
C866 C864 1.391 . S
C866 C867 1.400 . S
C867 C866 1.400 . S
C867 C868 1.398 . S
C867 C873 1.491 . S
C868 H859 0.950 . S
C868 C867 1.398 . S
C868 C869 1.391 . S
C869 H857 0.950 . S
C869 C865 1.393 . S
C869 C868 1.391 . S
C870 H860 0.950 . S
C870 C871 1.386 . S
C870 C872 1.391 . S
C871 C870 1.386 . S
C871 C875 1.393 . S
C872 H861 0.950 . S
C872 C870 1.391 . S
C872 C873 1.400 . S
C873 C867 1.491 . S
C873 C872 1.400 . S
C873 C874 1.398 . S
C874 H862 0.950 . S
C874 C873 1.398 . S
C874 C875 1.391 . S
C875 H863 0.950 . S
C875 C871 1.393 . S
C875 C874 1.391 . S
H876 C884 0.950 1_556 S
H877 C889 0.950 1_556 S
H878 C886 0.950 . S
H879 C888 0.950 . S
H880 C890 0.950 . S
H881 C892 0.950 . S
H882 C894 0.950 . S
H883 C895 0.950 . S
C884 H876 0.950 1_554 S
C884 C885 1.386 1_554 S
C884 C886 1.391 . S
C885 C884 1.386 1_556 S
C885 C889 1.393 1_556 S
C886 H878 0.950 . S
C886 C884 1.391 . S
C886 C887 1.400 . S
C887 C886 1.400 . S
C887 C888 1.398 . S
C887 C893 1.491 . S
C888 H879 0.950 . S
C888 C887 1.398 . S
C888 C889 1.391 . S
C889 H877 0.950 1_554 S
C889 C885 1.393 1_554 S
C889 C888 1.391 . S
C890 H880 0.950 . S
C890 C891 1.386 . S
C890 C892 1.391 . S
C891 C890 1.386 . S
C891 C895 1.393 . S
C892 H881 0.950 . S
C892 C890 1.391 . S
C892 C893 1.400 . S
C893 C887 1.491 . S
C893 C892 1.400 . S
C893 C894 1.398 . S
C894 H882 0.950 . S
C894 C893 1.398 . S
C894 C895 1.391 . S
C895 H883 0.950 . S
C895 C891 1.393 . S
C895 C894 1.391 . S
H896 C904 0.950 . S
H897 C909 0.950 . S
H898 C906 0.950 . S
H899 C908 0.950 . S
H900 C910 0.950 . S
H901 C912 0.950 . S
H902 C914 0.950 . S
H903 C915 0.950 . S
C904 H896 0.950 . S
C904 C905 1.386 . S
C904 C906 1.391 . S
C905 C904 1.386 . S
C905 C909 1.393 . S
C906 H898 0.950 . S
C906 C904 1.391 . S
C906 C907 1.400 . S
C907 C906 1.400 . S
C907 C908 1.398 . S
C907 C913 1.491 . S
C908 H899 0.950 . S
C908 C907 1.398 . S
C908 C909 1.391 . S
C909 H897 0.950 . S
C909 C905 1.393 . S
C909 C908 1.391 . S
C910 H900 0.950 . S
C910 C911 1.386 . S
C910 C912 1.391 . S
C911 C910 1.386 . S
C911 C915 1.393 . S
C912 H901 0.950 . S
C912 C910 1.391 . S
C912 C913 1.400 . S
C913 C907 1.491 . S
C913 C912 1.400 . S
C913 C914 1.398 . S
C914 H902 0.950 . S
C914 C913 1.398 . S
C914 C915 1.391 . S
C915 H903 0.950 . S
C915 C911 1.393 . S
C915 C914 1.391 . S
H916 C924 0.950 . S
H917 C929 0.950 . S
H918 C926 0.950 . S
H919 C928 0.950 . S
H920 C930 0.950 . S
H921 C932 0.950 . S
H922 C934 0.950 . S
H923 C935 0.950 . S
C924 H916 0.950 . S
C924 C925 1.386 . S
C924 C926 1.391 1_554 S
C925 C924 1.386 . S
C925 C929 1.393 1_554 S
C926 H918 0.950 . S
C926 C924 1.391 1_556 S
C926 C927 1.400 . S
C927 C926 1.400 . S
C927 C928 1.398 . S
C927 C933 1.491 . S
C928 H919 0.950 . S
C928 C927 1.398 . S
C928 C929 1.391 . S
C929 H917 0.950 . S
C929 C925 1.393 1_556 S
C929 C928 1.391 . S
C930 H920 0.950 . S
C930 C931 1.386 . S
C930 C932 1.391 . S
C931 C930 1.386 . S
C931 C935 1.393 . S
C932 H921 0.950 . S
C932 C930 1.391 . S
C932 C933 1.400 . S
C933 C927 1.491 . S
C933 C932 1.400 . S
C933 C934 1.398 . S
C934 H922 0.950 . S
C934 C933 1.398 . S
C934 C935 1.391 . S
C935 H923 0.950 . S
C935 C931 1.393 . S
C935 C934 1.391 . S
H936 C944 0.950 . S
H937 C949 0.950 . S
H938 C946 0.950 . S
H939 C948 0.950 . S
H940 C950 0.950 . S
H941 C952 0.950 . S
H942 C954 0.950 . S
H943 C955 0.950 . S
C944 H936 0.950 . S
C944 C945 1.386 . S
C944 C946 1.391 . S
C945 C944 1.386 . S
C945 C949 1.393 . S
C946 H938 0.950 . S
C946 C944 1.391 . S
C946 C947 1.400 . S
C947 C946 1.400 . S
C947 C948 1.398 . S
C947 C953 1.491 . S
C948 H939 0.950 . S
C948 C947 1.398 . S
C948 C949 1.391 . S
C949 H937 0.950 . S
C949 C945 1.393 . S
C949 C948 1.391 . S
C950 H940 0.950 . S
C950 C951 1.386 . S
C950 C952 1.391 1_556 S
C951 C950 1.386 . S
C951 C955 1.393 1_556 S
C952 H941 0.950 . S
C952 C950 1.391 1_554 S
C952 C953 1.400 . S
C953 C947 1.491 . S
C953 C952 1.400 . S
C953 C954 1.398 . S
C954 H942 0.950 . S
C954 C953 1.398 . S
C954 C955 1.391 . S
C955 H943 0.950 . S
C955 C951 1.393 1_554 S
C955 C954 1.391 . S
H956 C964 0.950 . S
H957 C969 0.950 . S
H958 C966 0.950 . S
H959 C968 0.950 . S
H960 C970 0.950 . S
H961 C972 0.950 . S
H962 C974 0.950 . S
H963 C975 0.950 . S
C964 H956 0.950 . S
C964 C965 1.386 . S
C964 C966 1.391 . S
C965 C964 1.386 . S
C965 C969 1.393 . S
C966 H958 0.950 . S
C966 C964 1.391 . S
C966 C967 1.400 . S
C967 C966 1.400 . S
C967 C968 1.398 . S
C967 C973 1.491 . S
C968 H959 0.950 . S
C968 C967 1.398 . S
C968 C969 1.391 . S
C969 H957 0.950 . S
C969 C965 1.393 . S
C969 C968 1.391 . S
C970 H960 0.950 . S
C970 C971 1.386 . S
C970 C972 1.391 . S
C971 C970 1.386 . S
C971 C975 1.393 . S
C972 H961 0.950 . S
C972 C970 1.391 . S
C972 C973 1.400 . S
C973 C967 1.491 . S
C973 C972 1.400 . S
C973 C974 1.398 . S
C974 H962 0.950 . S
C974 C973 1.398 . S
C974 C975 1.391 . S
C975 H963 0.950 . S
C975 C971 1.393 . S
C975 C974 1.391 . S
H976 C984 0.950 . S
H977 C989 0.950 . S
H978 C986 0.950 . S
H979 C988 0.950 . S
H980 C990 0.950 . S
H981 C992 0.950 . S
H982 C994 0.950 . S
H983 C995 0.950 . S
C984 H976 0.950 . S
C984 C985 1.386 . S
C984 C986 1.391 . S
C985 C984 1.386 . S
C985 C989 1.393 . S
C986 H978 0.950 . S
C986 C984 1.391 . S
C986 C987 1.400 . S
C987 C986 1.400 . S
C987 C988 1.398 . S
C987 C993 1.491 . S
C988 H979 0.950 . S
C988 C987 1.398 . S
C988 C989 1.391 . S
C989 H977 0.950 . S
C989 C985 1.393 . S
C989 C988 1.391 . S
C990 H980 0.950 . S
C990 C991 1.386 . S
C990 C992 1.391 . S
C991 C990 1.386 . S
C991 C995 1.393 . S
C992 H981 0.950 . S
C992 C990 1.391 . S
C992 C993 1.400 . S
C993 C987 1.491 . S
C993 C992 1.400 . S
C993 C994 1.398 . S
C994 H982 0.950 . S
C994 C993 1.398 . S
C994 C995 1.391 . S
C995 H983 0.950 . S
C995 C991 1.393 . S
C995 C994 1.391 . S
H996 C1004 0.950 . S
H997 C1009 0.950 . S
H998 C1006 0.950 . S
H999 C1008 0.950 . S
H1000 C1010 0.950 . S
H1001 C1012 0.950 . S
H1002 C1014 0.950 . S
H1003 C1015 0.950 . S
C1004 H996 0.950 . S
C1004 C1005 1.386 . S
C1004 C1006 1.391 1_556 S
C1005 C1004 1.386 . S
C1005 C1009 1.393 1_556 S
C1006 H998 0.950 . S
C1006 C1004 1.391 1_554 S
C1006 C1007 1.400 . S
C1007 C1006 1.400 . S
C1007 C1008 1.398 . S
C1007 C1013 1.491 . S
C1008 H999 0.950 . S
C1008 C1007 1.398 . S
C1008 C1009 1.391 . S
C1009 H997 0.950 . S
C1009 C1005 1.393 1_554 S
C1009 C1008 1.391 . S
C1010 H1000 0.950 . S
C1010 C1011 1.386 . S
C1010 C1012 1.391 . S
C1011 C1010 1.386 . S
C1011 C1015 1.393 . S
C1012 H1001 0.950 . S
C1012 C1010 1.391 . S
C1012 C1013 1.400 . S
C1013 C1007 1.491 . S
C1013 C1012 1.400 . S
C1013 C1014 1.398 . S
C1014 H1002 0.950 . S
C1014 C1013 1.398 . S
C1014 C1015 1.391 . S
C1015 H1003 0.950 . S
C1015 C1011 1.393 . S
C1015 C1014 1.391 . S
H1016 C1024 0.950 . S
H1017 C1029 0.950 . S
H1018 C1026 0.950 . S
H1019 C1028 0.950 . S
H1020 C1030 0.950 1_554 S
H1021 C1032 0.950 . S
H1022 C1034 0.950 . S
H1023 C1035 0.949 . S
C1024 H1016 0.950 . S
C1024 C1025 1.386 . S
C1024 C1026 1.391 . S
C1025 C1024 1.386 . S
C1025 C1029 1.393 . S
C1026 H1018 0.950 . S
C1026 C1024 1.391 . S
C1026 C1027 1.400 . S
C1027 C1026 1.400 . S
C1027 C1028 1.398 . S
C1027 C1033 1.491 . S
C1028 H1019 0.950 . S
C1028 C1027 1.398 . S
C1028 C1029 1.391 . S
C1029 H1017 0.950 . S
C1029 C1025 1.393 . S
C1029 C1028 1.391 . S
C1030 H1020 0.950 1_556 S
C1030 C1031 1.386 1_556 S
C1030 C1032 1.391 . S
C1031 C1030 1.386 1_554 S
C1031 C1035 1.392 . S
C1032 H1021 0.950 . S
C1032 C1030 1.391 . S
C1032 C1033 1.400 . S
C1033 C1027 1.491 . S
C1033 C1032 1.400 . S
C1033 C1034 1.398 . S
C1034 H1022 0.950 . S
C1034 C1033 1.398 . S
C1034 C1035 1.392 1_556 S
C1035 H1023 0.949 . S
C1035 C1031 1.392 . S
C1035 C1034 1.392 1_554 S
H1036 C1044 0.950 . S
H1037 C1049 0.950 . S
H1038 C1046 0.950 . S
H1039 C1048 0.950 . S
H1040 C1050 0.950 . S
H1041 C1052 0.950 . S
H1042 C1054 0.950 . S
H1043 C1055 0.950 . S
C1044 H1036 0.950 . S
C1044 C1045 1.386 . S
C1044 C1046 1.391 . S
C1045 C1044 1.386 . S
C1045 C1049 1.393 . S
C1046 H1038 0.950 . S
C1046 C1044 1.391 . S
C1046 C1047 1.400 . S
C1047 C1046 1.400 . S
C1047 C1048 1.398 . S
C1047 C1053 1.491 . S
C1048 H1039 0.950 . S
C1048 C1047 1.398 . S
C1048 C1049 1.391 . S
C1049 H1037 0.950 . S
C1049 C1045 1.393 . S
C1049 C1048 1.391 . S
C1050 H1040 0.950 . S
C1050 C1051 1.386 . S
C1050 C1052 1.391 . S
C1051 C1050 1.386 . S
C1051 C1055 1.393 . S
C1052 H1041 0.950 . S
C1052 C1050 1.391 . S
C1052 C1053 1.400 . S
C1053 C1047 1.491 . S
C1053 C1052 1.400 . S
C1053 C1054 1.398 . S
C1054 H1042 0.950 . S
C1054 C1053 1.398 . S
C1054 C1055 1.391 . S
C1055 H1043 0.950 . S
C1055 C1051 1.393 . S
C1055 C1054 1.391 . S
H1056 C1064 0.950 . S
H1057 C1069 0.950 . S
H1058 C1066 0.950 . S
H1059 C1068 0.950 . S
H1060 C1070 0.950 . S
H1061 C1072 0.950 . S
H1062 C1074 0.950 . S
H1063 C1075 0.950 1_556 S
C1064 H1056 0.950 . S
C1064 C1065 1.386 . S
C1064 C1066 1.391 . S
C1065 C1064 1.386 . S
C1065 C1069 1.393 . S
C1066 H1058 0.950 . S
C1066 C1064 1.391 . S
C1066 C1067 1.400 . S
C1067 C1066 1.400 . S
C1067 C1068 1.398 . S
C1067 C1073 1.491 . S
C1068 H1059 0.950 . S
C1068 C1067 1.398 . S
C1068 C1069 1.391 . S
C1069 H1057 0.950 . S
C1069 C1065 1.393 . S
C1069 C1068 1.391 . S
C1070 H1060 0.950 . S
C1070 C1071 1.386 . S
C1070 C1072 1.391 . S
C1071 C1070 1.386 . S
C1071 C1075 1.393 . S
C1072 H1061 0.950 . S
C1072 C1070 1.391 . S
C1072 C1073 1.400 . S
C1073 C1067 1.491 . S
C1073 C1072 1.400 . S
C1073 C1074 1.398 . S
C1074 H1062 0.950 . S
C1074 C1073 1.398 . S
C1074 C1075 1.391 . S
C1075 H1063 0.950 1_554 S
C1075 C1071 1.393 . S
C1075 C1074 1.391 . S
H1076 C1084 0.950 . S
H1077 C1089 0.950 . S
H1078 C1086 0.950 . S
H1079 C1088 0.950 . S
H1080 C1090 0.950 . S
H1081 C1092 0.900 1_655 S
H1082 C1094 0.950 . S
H1083 C1095 0.950 . S
C1084 H1076 0.950 . S
C1084 C1085 1.386 . S
C1084 C1086 1.391 . S
C1085 C1084 1.386 . S
C1085 C1089 1.393 . S
C1086 H1078 0.950 . S
C1086 C1084 1.391 . S
C1086 C1087 1.400 . S
C1087 C1086 1.400 . S
C1087 C1088 1.398 . S
C1087 C1093 1.491 1_655 S
C1088 H1079 0.950 . S
C1088 C1087 1.398 . S
C1088 C1089 1.391 . S
C1089 H1077 0.950 . S
C1089 C1085 1.393 . S
C1089 C1088 1.391 . S
C1090 H1080 0.950 . S
C1090 C1091 1.386 . S
C1090 C1092 1.391 . S
C1091 C1090 1.386 . S
C1091 C1095 1.393 . S
C1092 H1081 0.900 1_455 S
C1092 C1090 1.391 . S
C1092 C1093 1.400 . S
C1093 C1087 1.491 1_455 S
C1093 C1092 1.400 . S
C1093 C1094 1.398 . S
C1094 H1082 0.950 . S
C1094 C1093 1.398 . S
C1094 C1095 1.391 . S
C1095 H1083 0.950 . S
C1095 C1091 1.393 . S
C1095 C1094 1.391 . S
H1096 C1104 0.950 . S
H1097 C1109 0.950 . S
H1098 C1106 0.950 . S
H1099 C1108 0.950 . S
H1100 C1110 0.950 . S
H1101 C1112 0.950 . S
H1102 C1114 0.950 . S
H1103 C1115 0.950 . S
C1104 H1096 0.950 . S
C1104 C1105 1.386 . S
C1104 C1106 1.391 . S
C1105 C1104 1.386 . S
C1105 C1109 1.393 . S
C1106 H1098 0.950 . S
C1106 C1104 1.391 . S
C1106 C1107 1.400 . S
C1107 C1106 1.400 . S
C1107 C1108 1.398 . S
C1107 C1113 1.491 . S
C1108 H1099 0.950 . S
C1108 C1107 1.398 . S
C1108 C1109 1.391 . S
C1109 H1097 0.950 . S
C1109 C1105 1.393 . S
C1109 C1108 1.391 . S
C1110 H1100 0.950 . S
C1110 C1111 1.386 . S
C1110 C1112 1.391 . S
C1111 C1110 1.386 . S
C1111 C1115 1.393 . S
C1112 H1101 0.950 . S
C1112 C1110 1.391 . S
C1112 C1113 1.400 . S
C1113 C1107 1.491 . S
C1113 C1112 1.400 . S
C1113 C1114 1.398 . S
C1114 H1102 0.950 . S
C1114 C1113 1.398 . S
C1114 C1115 1.391 . S
C1115 H1103 0.950 . S
C1115 C1111 1.393 . S
C1115 C1114 1.391 . S
H1116 C1124 0.950 . S
H1117 C1129 0.950 . S
H1118 C1126 0.950 . S
H1119 C1128 0.950 . S
H1120 C1130 0.950 . S
H1121 C1132 0.950 . S
H1122 C1134 0.950 . S
H1123 C1135 0.950 . S
C1124 H1116 0.950 . S
C1124 C1125 1.386 . S
C1124 C1126 1.391 . S
C1125 C1124 1.386 . S
C1125 C1129 1.393 . S
C1126 H1118 0.950 . S
C1126 C1124 1.391 . S
C1126 C1127 1.400 . S
C1127 C1126 1.400 . S
C1127 C1128 1.398 . S
C1127 C1133 1.491 . S
C1128 H1119 0.950 . S
C1128 C1127 1.398 . S
C1128 C1129 1.391 . S
C1129 H1117 0.950 . S
C1129 C1125 1.393 . S
C1129 C1128 1.391 . S
C1130 H1120 0.950 . S
C1130 C1131 1.386 1_554 S
C1130 C1132 1.391 1_554 S
C1131 C1130 1.386 1_556 S
C1131 C1135 1.393 . S
C1132 H1121 0.950 . S
C1132 C1130 1.391 1_556 S
C1132 C1133 1.400 . S
C1133 C1127 1.491 . S
C1133 C1132 1.400 . S
C1133 C1134 1.398 . S
C1134 H1122 0.950 . S
C1134 C1133 1.398 . S
C1134 C1135 1.391 . S
C1135 H1123 0.950 . S
C1135 C1131 1.393 . S
C1135 C1134 1.391 . S
H1136 C1144 0.950 . S
H1137 C1149 0.950 . S
H1138 C1146 0.950 . S
H1139 C1148 0.950 . S
H1140 C1150 0.950 . S
H1141 C1152 0.950 . S
H1142 C1154 0.950 . S
H1143 C1155 0.950 . S
C1144 H1136 0.950 . S
C1144 C1145 1.386 . S
C1144 C1146 1.391 . S
C1145 C1144 1.386 . S
C1145 C1149 1.393 . S
C1146 H1138 0.950 . S
C1146 C1144 1.391 . S
C1146 C1147 1.400 . S
C1147 C1146 1.400 . S
C1147 C1148 1.398 . S
C1147 C1153 1.491 . S
C1148 H1139 0.950 . S
C1148 C1147 1.398 . S
C1148 C1149 1.391 . S
C1149 H1137 0.950 . S
C1149 C1145 1.393 . S
C1149 C1148 1.391 . S
C1150 H1140 0.950 . S
C1150 C1151 1.386 . S
C1150 C1152 1.391 . S
C1151 C1150 1.386 . S
C1151 C1155 1.393 . S
C1152 H1141 0.950 . S
C1152 C1150 1.391 . S
C1152 C1153 1.400 . S
C1153 C1147 1.491 . S
C1153 C1152 1.400 . S
C1153 C1154 1.398 . S
C1154 H1142 0.950 . S
C1154 C1153 1.398 . S
C1154 C1155 1.391 . S
C1155 H1143 0.950 . S
C1155 C1151 1.393 . S
C1155 C1154 1.391 . S
H1156 C1164 0.950 . S
H1157 C1169 0.950 . S
H1158 C1166 0.950 . S
H1159 C1168 0.950 . S
H1160 C1170 0.950 . S
H1161 C1172 0.950 . S
H1162 C1174 0.950 . S
H1163 C1175 0.950 . S
C1164 H1156 0.950 . S
C1164 C1165 1.386 . S
C1164 C1166 1.391 . S
C1165 C1164 1.386 . S
C1165 C1169 1.393 . S
C1166 H1158 0.950 . S
C1166 C1164 1.391 . S
C1166 C1167 1.400 . S
C1167 C1166 1.400 . S
C1167 C1168 1.398 . S
C1167 C1173 1.491 . S
C1168 H1159 0.950 . S
C1168 C1167 1.398 . S
C1168 C1169 1.391 . S
C1169 H1157 0.950 . S
C1169 C1165 1.393 . S
C1169 C1168 1.391 . S
C1170 H1160 0.950 . S
C1170 C1171 1.386 . S
C1170 C1172 1.391 . S
C1171 C1170 1.386 . S
C1171 C1175 1.393 . S
C1172 H1161 0.950 . S
C1172 C1170 1.391 . S
C1172 C1173 1.400 . S
C1173 C1167 1.491 . S
C1173 C1172 1.400 . S
C1173 C1174 1.398 . S
C1174 H1162 0.950 . S
C1174 C1173 1.398 . S
C1174 C1175 1.391 . S
C1175 H1163 0.950 . S
C1175 C1171 1.393 . S
C1175 C1174 1.391 . S
H1176 C1184 0.950 . S
H1177 C1189 0.950 . S
H1178 C1186 0.950 . S
H1179 C1188 0.950 . S
H1180 C1190 0.950 1_554 S
H1181 C1192 0.950 . S
H1182 C1194 0.950 . S
H1183 C1195 0.950 . S
C1184 H1176 0.950 . S
C1184 C1185 1.386 . S
C1184 C1186 1.391 . S
C1185 C1184 1.386 . S
C1185 C1189 1.393 . S
C1186 H1178 0.950 . S
C1186 C1184 1.391 . S
C1186 C1187 1.400 . S
C1187 C1186 1.400 . S
C1187 C1188 1.398 . S
C1187 C1193 1.491 . S
C1188 H1179 0.950 . S
C1188 C1187 1.398 . S
C1188 C1189 1.391 . S
C1189 H1177 0.950 . S
C1189 C1185 1.393 . S
C1189 C1188 1.391 . S
C1190 H1180 0.950 1_556 S
C1190 C1191 1.386 . S
C1190 C1192 1.391 . S
C1191 C1190 1.386 . S
C1191 C1195 1.393 . S
C1192 H1181 0.950 . S
C1192 C1190 1.391 . S
C1192 C1193 1.400 . S
C1193 C1187 1.491 . S
C1193 C1192 1.400 . S
C1193 C1194 1.398 . S
C1194 H1182 0.950 . S
C1194 C1193 1.398 . S
C1194 C1195 1.391 . S
C1195 H1183 0.950 . S
C1195 C1191 1.393 . S
C1195 C1194 1.391 . S
H1196 C1204 0.950 1_556 S
H1197 C1209 0.950 . S
H1198 C1206 0.950 1_655 S
H1199 C1208 0.950 . S
H1200 C1210 0.950 . S
H1201 C1212 0.950 . S
H1202 C1214 0.950 . S
H1203 C1215 0.950 . S
C1204 H1196 0.950 1_554 S
C1204 C1205 1.386 . S
C1204 C1206 1.391 . S
C1205 C1204 1.386 . S
C1205 C1209 1.393 . S
C1206 H1198 0.950 1_455 S
C1206 C1204 1.391 . S
C1206 C1207 1.400 . S
C1207 C1206 1.400 . S
C1207 C1208 1.398 . S
C1207 C1213 1.491 1_455 S
C1208 H1199 0.950 . S
C1208 C1207 1.398 . S
C1208 C1209 1.391 . S
C1209 H1197 0.950 . S
C1209 C1205 1.393 . S
C1209 C1208 1.391 . S
C1210 H1200 0.950 . S
C1210 C1211 1.386 . S
C1210 C1212 1.391 . S
C1211 C1210 1.386 . S
C1211 C1215 1.393 . S
C1212 H1201 0.950 . S
C1212 C1210 1.391 . S
C1212 C1213 1.400 . S
C1213 C1207 1.491 1_655 S
C1213 C1212 1.400 . S
C1213 C1214 1.398 . S
C1214 H1202 0.950 . S
C1214 C1213 1.398 . S
C1214 C1215 1.391 . S
C1215 H1203 0.950 . S
C1215 C1211 1.393 . S
C1215 C1214 1.391 . S
H1216 C1224 0.950 . S
H1217 C1229 0.950 . S
H1218 C1226 0.950 . S
H1219 C1228 0.950 . S
H1220 C1230 0.950 . S
H1221 C1232 0.950 . S
H1222 C1234 0.950 . S
H1223 C1235 0.950 1_554 S
C1224 H1216 0.950 . S
C1224 C1225 1.386 . S
C1224 C1226 1.391 . S
C1225 C1224 1.386 . S
C1225 C1229 1.393 . S
C1226 H1218 0.950 . S
C1226 C1224 1.391 . S
C1226 C1227 1.400 . S
C1227 C1226 1.400 . S
C1227 C1228 1.398 . S
C1227 C1233 1.491 . S
C1228 H1219 0.950 . S
C1228 C1227 1.398 . S
C1228 C1229 1.391 . S
C1229 H1217 0.950 . S
C1229 C1225 1.393 . S
C1229 C1228 1.391 . S
C1230 H1220 0.950 . S
C1230 C1231 1.386 . S
C1230 C1232 1.391 . S
C1231 C1230 1.386 . S
C1231 C1235 1.393 . S
C1232 H1221 0.950 . S
C1232 C1230 1.391 . S
C1232 C1233 1.400 . S
C1233 C1227 1.491 . S
C1233 C1232 1.400 . S
C1233 C1234 1.398 . S
C1234 H1222 0.950 . S
C1234 C1233 1.398 . S
C1234 C1235 1.391 . S
C1235 H1223 0.950 1_556 S
C1235 C1231 1.393 . S
C1235 C1234 1.391 . S
H1236 C1244 0.950 . S
H1237 C1249 0.950 . S
H1238 C1246 0.921 1_655 S
H1239 C1248 0.950 . S
H1240 C1250 0.950 . S
H1241 C1252 0.950 1_455 S
H1242 C1254 0.950 . S
H1243 C1255 0.950 . S
C1244 H1236 0.950 . S
C1244 C1245 1.386 . S
C1244 C1246 1.391 . S
C1245 C1244 1.386 . S
C1245 C1249 1.393 . S
C1246 H1238 0.921 1_455 S
C1246 C1244 1.391 . S
C1246 C1247 1.400 . S
C1247 C1246 1.400 . S
C1247 C1248 1.398 . S
C1247 C1253 1.491 1_455 S
C1248 H1239 0.950 . S
C1248 C1247 1.398 . S
C1248 C1249 1.391 . S
C1249 H1237 0.950 . S
C1249 C1245 1.393 . S
C1249 C1248 1.391 . S
C1250 H1240 0.950 . S
C1250 C1251 1.386 . S
C1250 C1252 1.391 . S
C1251 C1250 1.386 . S
C1251 C1255 1.393 . S
C1252 H1241 0.950 1_655 S
C1252 C1250 1.391 . S
C1252 C1253 1.400 . S
C1253 C1247 1.491 1_655 S
C1253 C1252 1.400 . S
C1253 C1254 1.398 . S
C1254 H1242 0.950 . S
C1254 C1253 1.398 . S
C1254 C1255 1.391 . S
C1255 H1243 0.950 . S
C1255 C1251 1.393 . S
C1255 C1254 1.391 . S
H1256 C1264 0.950 . S
H1257 C1269 0.950 . S
H1258 C1266 0.950 . S
H1259 C1268 0.950 . S
H1260 C1270 0.950 . S
H1261 C1272 0.950 . S
H1262 C1274 0.950 . S
H1263 C1275 0.950 . S
C1264 H1256 0.950 . S
C1264 C1265 1.386 . S
C1264 C1266 1.391 . S
C1265 C1264 1.386 . S
C1265 C1269 1.393 . S
C1266 H1258 0.950 . S
C1266 C1264 1.391 . S
C1266 C1267 1.400 . S
C1267 C1266 1.400 . S
C1267 C1268 1.398 . S
C1267 C1273 1.491 . S
C1268 H1259 0.950 . S
C1268 C1267 1.398 . S
C1268 C1269 1.391 . S
C1269 H1257 0.950 . S
C1269 C1265 1.393 . S
C1269 C1268 1.391 . S
C1270 H1260 0.950 . S
C1270 C1271 1.386 . S
C1270 C1272 1.391 . S
C1271 C1270 1.386 . S
C1271 C1275 1.393 . S
C1272 H1261 0.950 . S
C1272 C1270 1.391 . S
C1272 C1273 1.400 . S
C1273 C1267 1.491 . S
C1273 C1272 1.400 . S
C1273 C1274 1.398 . S
C1274 H1262 0.950 . S
C1274 C1273 1.398 . S
C1274 C1275 1.391 . S
C1275 H1263 0.950 . S
C1275 C1271 1.393 . S
C1275 C1274 1.391 . S
H1276 C1284 0.950 . S
H1277 C1289 0.950 . S
H1278 C1286 0.950 . S
H1279 C1288 0.950 . S
H1280 C1290 0.950 . S
H1281 C1292 0.950 . S
H1282 C1294 0.950 . S
H1283 C1295 0.950 . S
C1284 H1276 0.950 . S
C1284 C1285 1.386 . S
C1284 C1286 1.391 . S
C1285 C1284 1.386 . S
C1285 C1289 1.393 . S
C1286 H1278 0.950 . S
C1286 C1284 1.391 . S
C1286 C1287 1.400 . S
C1287 C1286 1.400 . S
C1287 C1288 1.398 . S
C1287 C1293 1.491 . S
C1288 H1279 0.950 . S
C1288 C1287 1.398 . S
C1288 C1289 1.391 . S
C1289 H1277 0.950 . S
C1289 C1285 1.393 . S
C1289 C1288 1.391 . S
C1290 H1280 0.950 . S
C1290 C1291 1.386 1_556 S
C1290 C1292 1.391 1_556 S
C1291 C1290 1.386 1_554 S
C1291 C1295 1.393 . S
C1292 H1281 0.950 . S
C1292 C1290 1.391 1_554 S
C1292 C1293 1.400 . S
C1293 C1287 1.491 . S
C1293 C1292 1.400 . S
C1293 C1294 1.398 . S
C1294 H1282 0.950 . S
C1294 C1293 1.398 . S
C1294 C1295 1.391 . S
C1295 H1283 0.950 . S
C1295 C1291 1.393 . S
C1295 C1294 1.391 . S
H1296 C1304 0.950 . S
H1297 C1309 0.950 . S
H1298 C1306 0.950 . S
H1299 C1308 0.950 . S
H1300 C1310 0.950 . S
H1301 C1312 0.950 . S
H1302 C1314 0.950 . S
H1303 C1315 0.950 . S
C1304 H1296 0.950 . S
C1304 C1305 1.386 . S
C1304 C1306 1.391 . S
C1305 C1304 1.386 . S
C1305 C1309 1.393 . S
C1306 H1298 0.950 . S
C1306 C1304 1.391 . S
C1306 C1307 1.400 . S
C1307 C1306 1.400 . S
C1307 C1308 1.398 . S
C1307 C1313 1.491 . S
C1308 H1299 0.950 . S
C1308 C1307 1.398 . S
C1308 C1309 1.391 . S
C1309 H1297 0.950 . S
C1309 C1305 1.393 . S
C1309 C1308 1.391 . S
C1310 H1300 0.950 . S
C1310 C1311 1.386 . S
C1310 C1312 1.391 . S
C1311 C1310 1.386 . S
C1311 C1315 1.393 . S
C1312 H1301 0.950 . S
C1312 C1310 1.391 . S
C1312 C1313 1.400 . S
C1313 C1307 1.491 . S
C1313 C1312 1.400 . S
C1313 C1314 1.398 . S
C1314 H1302 0.950 . S
C1314 C1313 1.398 . S
C1314 C1315 1.391 . S
C1315 H1303 0.950 . S
C1315 C1311 1.393 . S
C1315 C1314 1.391 . S
H1316 C1324 0.950 . S
H1317 C1329 0.950 . S
H1318 C1326 0.950 . S
H1319 C1328 0.950 . S
H1320 C1330 0.950 . S
H1321 C1332 0.950 . S
H1322 C1334 0.950 . S
H1323 C1335 0.950 . S
C1324 H1316 0.950 . S
C1324 C1325 1.386 . S
C1324 C1326 1.391 . S
C1325 C1324 1.386 . S
C1325 C1329 1.393 . S
C1326 H1318 0.950 . S
C1326 C1324 1.391 . S
C1326 C1327 1.400 . S
C1327 C1326 1.400 . S
C1327 C1328 1.398 . S
C1327 C1333 1.491 . S
C1328 H1319 0.950 . S
C1328 C1327 1.398 . S
C1328 C1329 1.391 . S
C1329 H1317 0.950 . S
C1329 C1325 1.393 . S
C1329 C1328 1.391 . S
C1330 H1320 0.950 . S
C1330 C1331 1.386 . S
C1330 C1332 1.391 . S
C1331 C1330 1.386 . S
C1331 C1335 1.393 . S
C1332 H1321 0.950 . S
C1332 C1330 1.391 . S
C1332 C1333 1.400 . S
C1333 C1327 1.491 . S
C1333 C1332 1.400 . S
C1333 C1334 1.398 . S
C1334 H1322 0.950 . S
C1334 C1333 1.398 . S
C1334 C1335 1.391 . S
C1335 H1323 0.950 . S
C1335 C1331 1.393 . S
C1335 C1334 1.391 . S
H1336 C1344 0.950 . S
H1337 C1349 0.950 . S
H1338 C1346 0.950 . S
H1339 C1348 0.950 . S
H1340 C1350 0.950 . S
H1341 C1352 0.950 . S
H1342 C1354 0.950 . S
H1343 C1355 0.950 . S
C1344 H1336 0.950 . S
C1344 C1345 1.386 . S
C1344 C1346 1.391 . S
C1345 C1344 1.386 . S
C1345 C1349 1.393 . S
C1346 H1338 0.950 . S
C1346 C1344 1.391 . S
C1346 C1347 1.400 . S
C1347 C1346 1.400 . S
C1347 C1348 1.398 . S
C1347 C1353 1.491 . S
C1348 H1339 0.950 . S
C1348 C1347 1.398 . S
C1348 C1349 1.391 . S
C1349 H1337 0.950 . S
C1349 C1345 1.393 . S
C1349 C1348 1.391 . S
C1350 H1340 0.950 . S
C1350 C1351 1.386 . S
C1350 C1352 1.391 . S
C1351 C1350 1.386 . S
C1351 C1355 1.393 . S
C1352 H1341 0.950 . S
C1352 C1350 1.391 . S
C1352 C1353 1.400 . S
C1353 C1347 1.491 . S
C1353 C1352 1.400 . S
C1353 C1354 1.398 . S
C1354 H1342 0.950 . S
C1354 C1353 1.398 . S
C1354 C1355 1.391 . S
C1355 H1343 0.950 . S
C1355 C1351 1.393 . S
C1355 C1354 1.391 . S
H1356 C1364 0.950 . S
H1357 C1369 0.950 . S
H1358 C1366 0.950 . S
H1359 C1368 0.950 . S
H1360 C1370 0.950 . S
H1361 C1372 0.950 . S
H1362 C1374 0.950 1_455 S
H1363 C1375 0.950 . S
C1364 H1356 0.950 . S
C1364 C1365 1.386 . S
C1364 C1366 1.391 . S
C1365 C1364 1.386 . S
C1365 C1369 1.393 . S
C1366 H1358 0.950 . S
C1366 C1364 1.391 . S
C1366 C1367 1.400 . S
C1367 C1366 1.400 . S
C1367 C1368 1.398 . S
C1367 C1373 1.491 1_455 S
C1368 H1359 0.950 . S
C1368 C1367 1.398 . S
C1368 C1369 1.391 . S
C1369 H1357 0.950 . S
C1369 C1365 1.393 . S
C1369 C1368 1.391 . S
C1370 H1360 0.950 . S
C1370 C1371 1.386 . S
C1370 C1372 1.391 . S
C1371 C1370 1.386 . S
C1371 C1375 1.393 1_556 S
C1372 H1361 0.950 . S
C1372 C1370 1.391 . S
C1372 C1373 1.400 . S
C1373 C1367 1.491 1_655 S
C1373 C1372 1.400 . S
C1373 C1374 1.398 . S
C1374 H1362 0.950 1_655 S
C1374 C1373 1.398 . S
C1374 C1375 1.391 1_556 S
C1375 H1363 0.950 . S
C1375 C1371 1.393 1_554 S
C1375 C1374 1.391 1_554 S
H1376 C1384 0.950 . S
H1377 C1389 0.950 . S
H1378 C1386 0.950 . S
H1379 C1388 0.950 . S
H1380 C1390 0.950 . S
H1381 C1392 0.950 . S
H1382 C1394 0.950 . S
H1383 C1395 0.950 . S
C1384 H1376 0.950 . S
C1384 C1385 1.386 . S
C1384 C1386 1.391 . S
C1385 C1384 1.386 . S
C1385 C1389 1.393 . S
C1386 H1378 0.950 . S
C1386 C1384 1.391 . S
C1386 C1387 1.400 . S
C1387 C1386 1.400 . S
C1387 C1388 1.398 . S
C1387 C1393 1.491 . S
C1388 H1379 0.950 . S
C1388 C1387 1.398 . S
C1388 C1389 1.391 . S
C1389 H1377 0.950 . S
C1389 C1385 1.393 . S
C1389 C1388 1.391 . S
C1390 H1380 0.950 . S
C1390 C1391 1.386 . S
C1390 C1392 1.391 . S
C1391 C1390 1.386 . S
C1391 C1395 1.393 . S
C1392 H1381 0.950 . S
C1392 C1390 1.391 . S
C1392 C1393 1.400 . S
C1393 C1387 1.491 . S
C1393 C1392 1.400 . S
C1393 C1394 1.398 . S
C1394 H1382 0.950 . S
C1394 C1393 1.398 . S
C1394 C1395 1.391 . S
C1395 H1383 0.950 . S
C1395 C1391 1.393 . S
C1395 C1394 1.391 . S
H1396 C1404 0.950 . S
H1397 C1409 0.950 . S
H1398 C1406 0.950 . S
H1399 C1408 0.950 . S
H1400 C1410 0.950 . S
H1401 C1412 0.950 . S
H1402 C1414 0.950 . S
H1403 C1415 0.950 . S
C1404 H1396 0.950 . S
C1404 C1405 1.386 . S
C1404 C1406 1.391 . S
C1405 C1404 1.386 . S
C1405 C1409 1.393 . S
C1406 H1398 0.950 . S
C1406 C1404 1.391 . S
C1406 C1407 1.400 . S
C1407 C1406 1.400 . S
C1407 C1408 1.398 . S
C1407 C1413 1.491 . S
C1408 H1399 0.950 . S
C1408 C1407 1.398 . S
C1408 C1409 1.391 . S
C1409 H1397 0.950 . S
C1409 C1405 1.393 . S
C1409 C1408 1.391 . S
C1410 H1400 0.950 . S
C1410 C1411 1.386 . S
C1410 C1412 1.391 . S
C1411 C1410 1.386 . S
C1411 C1415 1.393 1_556 S
C1412 H1401 0.950 . S
C1412 C1410 1.391 . S
C1412 C1413 1.400 . S
C1413 C1407 1.491 . S
C1413 C1412 1.400 . S
C1413 C1414 1.398 . S
C1414 H1402 0.950 . S
C1414 C1413 1.398 . S
C1414 C1415 1.391 1_556 S
C1415 H1403 0.950 . S
C1415 C1411 1.393 1_554 S
C1415 C1414 1.391 1_554 S
H1416 C1424 0.950 . S
H1417 C1429 0.950 . S
H1418 C1426 0.950 . S
H1419 C1428 0.950 . S
H1420 C1430 0.950 . S
H1421 C1432 0.950 . S
H1422 C1434 0.950 . S
H1423 C1435 0.941 1_556 S
C1424 H1416 0.950 . S
C1424 C1425 1.386 . S
C1424 C1426 1.391 . S
C1425 C1424 1.386 . S
C1425 C1429 1.393 . S
C1426 H1418 0.950 . S
C1426 C1424 1.391 . S
C1426 C1427 1.400 . S
C1427 C1426 1.400 . S
C1427 C1428 1.398 . S
C1427 C1433 1.491 . S
C1428 H1419 0.950 . S
C1428 C1427 1.398 . S
C1428 C1429 1.391 . S
C1429 H1417 0.950 . S
C1429 C1425 1.393 . S
C1429 C1428 1.391 . S
C1430 H1420 0.950 . S
C1430 C1431 1.386 . S
C1430 C1432 1.391 . S
C1431 C1430 1.386 . S
C1431 C1435 1.397 . S
C1432 H1421 0.950 . S
C1432 C1430 1.391 . S
C1432 C1433 1.400 . S
C1433 C1427 1.491 . S
C1433 C1432 1.400 . S
C1433 C1434 1.398 . S
C1434 H1422 0.950 . S
C1434 C1433 1.398 . S
C1434 C1435 1.396 . S
C1435 H1423 0.941 1_554 S
C1435 C1431 1.397 . S
C1435 C1434 1.396 . S
H1436 C1444 0.950 . S
H1437 C1449 0.950 . S
H1438 C1446 0.950 1_455 S
H1439 C1448 0.950 . S
H1440 C1450 0.950 . S
H1441 C1452 0.950 1_655 S
H1442 C1454 0.950 . S
H1443 C1455 0.950 . S
C1444 H1436 0.950 . S
C1444 C1445 1.386 . S
C1444 C1446 1.391 . S
C1445 C1444 1.386 . S
C1445 C1449 1.393 . S
C1446 H1438 0.950 1_655 S
C1446 C1444 1.391 . S
C1446 C1447 1.400 . S
C1447 C1446 1.400 . S
C1447 C1448 1.398 . S
C1447 C1453 1.491 1_655 S
C1448 H1439 0.950 . S
C1448 C1447 1.398 . S
C1448 C1449 1.391 . S
C1449 H1437 0.950 . S
C1449 C1445 1.393 . S
C1449 C1448 1.391 . S
C1450 H1440 0.950 . S
C1450 C1451 1.386 . S
C1450 C1452 1.391 . S
C1451 C1450 1.386 . S
C1451 C1455 1.393 . S
C1452 H1441 0.950 1_455 S
C1452 C1450 1.391 . S
C1452 C1453 1.400 . S
C1453 C1447 1.491 1_455 S
C1453 C1452 1.400 . S
C1453 C1454 1.398 . S
C1454 H1442 0.950 . S
C1454 C1453 1.398 . S
C1454 C1455 1.391 . S
C1455 H1443 0.950 . S
C1455 C1451 1.393 . S
C1455 C1454 1.391 . S
H1456 C1464 0.950 . S
H1457 C1469 0.950 . S
H1458 C1466 0.950 . S
H1459 C1468 0.950 . S
H1460 C1470 0.950 . S
H1461 C1472 0.950 . S
H1462 C1474 0.950 . S
H1463 C1475 0.950 1_554 S
C1464 H1456 0.950 . S
C1464 C1465 1.386 . S
C1464 C1466 1.391 . S
C1465 C1464 1.386 . S
C1465 C1469 1.393 . S
C1466 H1458 0.950 . S
C1466 C1464 1.391 . S
C1466 C1467 1.400 . S
C1467 C1466 1.400 . S
C1467 C1468 1.398 . S
C1467 C1473 1.491 . S
C1468 H1459 0.950 . S
C1468 C1467 1.398 . S
C1468 C1469 1.391 . S
C1469 H1457 0.950 . S
C1469 C1465 1.393 . S
C1469 C1468 1.391 . S
C1470 H1460 0.950 . S
C1470 C1471 1.386 . S
C1470 C1472 1.391 . S
C1471 C1470 1.386 . S
C1471 C1475 1.393 . S
C1472 H1461 0.950 . S
C1472 C1470 1.391 . S
C1472 C1473 1.400 . S
C1473 C1467 1.491 . S
C1473 C1472 1.400 . S
C1473 C1474 1.398 . S
C1474 H1462 0.950 . S
C1474 C1473 1.398 . S
C1474 C1475 1.391 . S
C1475 H1463 0.950 1_556 S
C1475 C1471 1.393 . S
C1475 C1474 1.391 . S
H1476 C1484 0.950 . S
H1477 C1489 0.950 . S
H1478 C1486 0.950 . S
H1479 C1488 0.950 1_455 S
H1480 C1490 0.950 . S
H1481 C1492 0.950 . S
H1482 C1494 0.950 1_655 S
H1483 C1495 0.950 . S
C1484 H1476 0.950 . S
C1484 C1485 1.386 . S
C1484 C1486 1.391 . S
C1485 C1484 1.386 . S
C1485 C1489 1.393 1_554 S
C1486 H1478 0.950 . S
C1486 C1484 1.391 . S
C1486 C1487 1.400 . S
C1487 C1486 1.400 . S
C1487 C1488 1.398 . S
C1487 C1493 1.491 1_655 S
C1488 H1479 0.950 1_655 S
C1488 C1487 1.398 . S
C1488 C1489 1.391 1_554 S
C1489 H1477 0.950 . S
C1489 C1485 1.393 1_556 S
C1489 C1488 1.391 1_556 S
C1490 H1480 0.950 . S
C1490 C1491 1.386 . S
C1490 C1492 1.391 . S
C1491 C1490 1.386 . S
C1491 C1495 1.393 . S
C1492 H1481 0.950 . S
C1492 C1490 1.391 . S
C1492 C1493 1.400 . S
C1493 C1487 1.491 1_455 S
C1493 C1492 1.400 . S
C1493 C1494 1.398 . S
C1494 H1482 0.950 1_455 S
C1494 C1493 1.398 . S
C1494 C1495 1.391 . S
C1495 H1483 0.950 . S
C1495 C1491 1.393 . S
C1495 C1494 1.391 . S
H1496 C1504 0.950 . S
H1497 C1509 0.950 . S
H1498 C1506 0.950 . S
H1499 C1508 0.950 . S
H1500 C1510 0.950 . S
H1501 C1512 0.950 . S
H1502 C1514 0.950 . S
H1503 C1515 0.950 . S
C1504 H1496 0.950 . S
C1504 C1505 1.386 . S
C1504 C1506 1.391 . S
C1505 C1504 1.386 . S
C1505 C1509 1.393 . S
C1506 H1498 0.950 . S
C1506 C1504 1.391 . S
C1506 C1507 1.400 . S
C1507 C1506 1.400 . S
C1507 C1508 1.398 . S
C1507 C1513 1.491 . S
C1508 H1499 0.950 . S
C1508 C1507 1.398 . S
C1508 C1509 1.391 . S
C1509 H1497 0.950 . S
C1509 C1505 1.393 . S
C1509 C1508 1.391 . S
C1510 H1500 0.950 . S
C1510 C1511 1.386 . S
C1510 C1512 1.391 . S
C1511 C1510 1.386 . S
C1511 C1515 1.393 . S
C1512 H1501 0.950 . S
C1512 C1510 1.391 . S
C1512 C1513 1.400 . S
C1513 C1507 1.491 . S
C1513 C1512 1.400 . S
C1513 C1514 1.398 . S
C1514 H1502 0.950 . S
C1514 C1513 1.398 . S
C1514 C1515 1.391 . S
C1515 H1503 0.950 . S
C1515 C1511 1.393 . S
C1515 C1514 1.391 . S
H1516 C1524 0.950 . S
H1517 C1529 0.950 . S
H1518 C1526 0.950 . S
H1519 C1528 0.950 . S
H1520 C1530 0.950 . S
H1521 C1532 0.950 . S
H1522 C1534 0.950 . S
H1523 C1535 0.950 . S
C1524 H1516 0.950 . S
C1524 C1525 1.386 . S
C1524 C1526 1.391 . S
C1525 C1524 1.386 . S
C1525 C1529 1.393 . S
C1526 H1518 0.950 . S
C1526 C1524 1.391 . S
C1526 C1527 1.400 . S
C1527 C1526 1.400 . S
C1527 C1528 1.398 . S
C1527 C1533 1.491 . S
C1528 H1519 0.950 . S
C1528 C1527 1.398 . S
C1528 C1529 1.391 . S
C1529 H1517 0.950 . S
C1529 C1525 1.393 . S
C1529 C1528 1.391 . S
C1530 H1520 0.950 . S
C1530 C1531 1.386 . S
C1530 C1532 1.391 . S
C1531 C1530 1.386 . S
C1531 C1535 1.393 . S
C1532 H1521 0.950 . S
C1532 C1530 1.391 . S
C1532 C1533 1.400 . S
C1533 C1527 1.491 . S
C1533 C1532 1.400 . S
C1533 C1534 1.398 . S
C1534 H1522 0.950 . S
C1534 C1533 1.398 . S
C1534 C1535 1.391 . S
C1535 H1523 0.950 . S
C1535 C1531 1.393 . S
C1535 C1534 1.391 . S
H1536 C1544 0.950 . S
H1537 C1549 0.950 . S
H1538 C1546 0.950 . S
H1539 C1548 0.950 . S
H1540 C1550 0.950 . S
H1541 C1552 0.950 . S
H1542 C1554 0.950 . S
H1543 C1555 0.950 . S
C1544 H1536 0.950 . S
C1544 C1545 1.386 . S
C1544 C1546 1.391 . S
C1545 C1544 1.386 . S
C1545 C1549 1.393 . S
C1546 H1538 0.950 . S
C1546 C1544 1.391 . S
C1546 C1547 1.400 . S
C1547 C1546 1.400 . S
C1547 C1548 1.398 . S
C1547 C1553 1.491 . S
C1548 H1539 0.950 . S
C1548 C1547 1.398 . S
C1548 C1549 1.391 . S
C1549 H1537 0.950 . S
C1549 C1545 1.393 . S
C1549 C1548 1.391 . S
C1550 H1540 0.950 . S
C1550 C1551 1.386 . S
C1550 C1552 1.391 . S
C1551 C1550 1.386 . S
C1551 C1555 1.393 . S
C1552 H1541 0.950 . S
C1552 C1550 1.391 . S
C1552 C1553 1.400 . S
C1553 C1547 1.491 . S
C1553 C1552 1.400 . S
C1553 C1554 1.398 . S
C1554 H1542 0.950 . S
C1554 C1553 1.398 . S
C1554 C1555 1.391 . S
C1555 H1543 0.950 . S
C1555 C1551 1.393 . S
C1555 C1554 1.391 . S
H1556 C1564 0.950 . S
H1557 C1569 0.950 . S
H1558 C1566 0.950 . S
H1559 C1568 0.950 . S
H1560 C1570 0.950 . S
H1561 C1572 0.950 . S
H1562 C1574 0.950 . S
H1563 C1575 0.950 . S
C1564 H1556 0.950 . S
C1564 C1565 1.386 . S
C1564 C1566 1.391 . S
C1565 C1564 1.386 . S
C1565 C1569 1.393 . S
C1566 H1558 0.950 . S
C1566 C1564 1.391 . S
C1566 C1567 1.400 . S
C1567 C1566 1.400 . S
C1567 C1568 1.398 . S
C1567 C1573 1.491 . S
C1568 H1559 0.950 . S
C1568 C1567 1.398 . S
C1568 C1569 1.391 . S
C1569 H1557 0.950 . S
C1569 C1565 1.393 . S
C1569 C1568 1.391 . S
C1570 H1560 0.950 . S
C1570 C1571 1.386 1_556 S
C1570 C1572 1.391 1_556 S
C1571 C1570 1.386 1_554 S
C1571 C1575 1.393 . S
C1572 H1561 0.950 . S
C1572 C1570 1.391 1_554 S
C1572 C1573 1.400 . S
C1573 C1567 1.491 . S
C1573 C1572 1.400 . S
C1573 C1574 1.398 . S
C1574 H1562 0.950 . S
C1574 C1573 1.398 . S
C1574 C1575 1.391 . S
C1575 H1563 0.950 . S
C1575 C1571 1.393 . S
C1575 C1574 1.391 . S
H1576 C1584 0.950 . S
H1577 C1589 0.950 1_554 S
H1578 C1586 0.950 . S
H1579 C1588 0.950 . S
H1580 C1590 0.950 . S
H1581 C1592 0.950 . S
H1582 C1594 0.950 . S
H1583 C1595 0.950 . S
C1584 H1576 0.950 . S
C1584 C1585 1.386 . S
C1584 C1586 1.391 . S
C1585 C1584 1.386 . S
C1585 C1589 1.393 . S
C1586 H1578 0.950 . S
C1586 C1584 1.391 . S
C1586 C1587 1.400 . S
C1587 C1586 1.400 . S
C1587 C1588 1.398 . S
C1587 C1593 1.491 . S
C1588 H1579 0.950 . S
C1588 C1587 1.398 . S
C1588 C1589 1.391 . S
C1589 H1577 0.950 1_556 S
C1589 C1585 1.393 . S
C1589 C1588 1.391 . S
C1590 H1580 0.950 . S
C1590 C1591 1.386 . S
C1590 C1592 1.391 . S
C1591 C1590 1.386 . S
C1591 C1595 1.393 . S
C1592 H1581 0.950 . S
C1592 C1590 1.391 . S
C1592 C1593 1.400 . S
C1593 C1587 1.491 . S
C1593 C1592 1.400 . S
C1593 C1594 1.398 . S
C1594 H1582 0.950 . S
C1594 C1593 1.398 . S
C1594 C1595 1.391 . S
C1595 H1583 0.950 . S
C1595 C1591 1.393 . S
C1595 C1594 1.391 . S
H1596 C1604 0.950 . S
H1597 C1609 0.950 . S
H1598 C1606 0.950 . S
H1599 C1608 0.950 1_655 S
H1600 C1610 0.950 . S
H1601 C1612 0.950 . S
H1602 C1614 0.950 . S
H1603 C1615 0.950 . S
C1604 H1596 0.950 . S
C1604 C1605 1.386 . S
C1604 C1606 1.391 . S
C1605 C1604 1.386 . S
C1605 C1609 1.393 . S
C1606 H1598 0.950 . S
C1606 C1604 1.391 . S
C1606 C1607 1.400 . S
C1607 C1606 1.400 . S
C1607 C1608 1.398 . S
C1607 C1613 1.491 1_455 S
C1608 H1599 0.950 1_455 S
C1608 C1607 1.398 . S
C1608 C1609 1.391 . S
C1609 H1597 0.950 . S
C1609 C1605 1.393 . S
C1609 C1608 1.391 . S
C1610 H1600 0.950 . S
C1610 C1611 1.386 . S
C1610 C1612 1.391 . S
C1611 C1610 1.386 . S
C1611 C1615 1.393 . S
C1612 H1601 0.950 . S
C1612 C1610 1.391 . S
C1612 C1613 1.400 . S
C1613 C1607 1.491 1_655 S
C1613 C1612 1.400 . S
C1613 C1614 1.398 . S
C1614 H1602 0.950 . S
C1614 C1613 1.398 . S
C1614 C1615 1.391 . S
C1615 H1603 0.950 . S
C1615 C1611 1.393 . S
C1615 C1614 1.391 . S
H1616 C1624 0.950 . S
H1617 C1629 0.950 . S
H1618 C1626 0.950 . S
H1619 C1628 0.950 . S
H1620 C1630 0.950 . S
H1621 C1632 0.950 . S
H1622 C1634 0.950 . S
H1623 C1635 0.950 . S
C1624 H1616 0.950 . S
C1624 C1625 1.386 . S
C1624 C1626 1.391 . S
C1625 C1624 1.386 . S
C1625 C1629 1.393 . S
C1626 H1618 0.950 . S
C1626 C1624 1.391 . S
C1626 C1627 1.400 . S
C1627 C1626 1.400 . S
C1627 C1628 1.398 . S
C1627 C1633 1.491 . S
C1628 H1619 0.950 . S
C1628 C1627 1.398 . S
C1628 C1629 1.391 . S
C1629 H1617 0.950 . S
C1629 C1625 1.393 . S
C1629 C1628 1.391 . S
C1630 H1620 0.950 . S
C1630 C1631 1.386 . S
C1630 C1632 1.391 . S
C1631 C1630 1.386 . S
C1631 C1635 1.393 . S
C1632 H1621 0.950 . S
C1632 C1630 1.391 . S
C1632 C1633 1.400 . S
C1633 C1627 1.491 . S
C1633 C1632 1.400 . S
C1633 C1634 1.398 . S
C1634 H1622 0.950 . S
C1634 C1633 1.398 . S
C1634 C1635 1.391 . S
C1635 H1623 0.950 . S
C1635 C1631 1.393 . S
C1635 C1634 1.391 . S
H1636 C1644 0.950 . S
H1637 C1649 0.950 . S
H1638 C1646 0.950 . S
H1639 C1648 0.950 . S
H1640 C1650 0.950 1_554 S
H1641 C1652 0.950 1_655 S
H1642 C1654 0.950 . S
H1643 C1655 0.950 . S
C1644 H1636 0.950 . S
C1644 C1645 1.386 . S
C1644 C1646 1.391 . S
C1645 C1644 1.386 . S
C1645 C1649 1.393 . S
C1646 H1638 0.950 . S
C1646 C1644 1.391 . S
C1646 C1647 1.400 . S
C1647 C1646 1.400 . S
C1647 C1648 1.398 . S
C1647 C1653 1.491 1_655 S
C1648 H1639 0.950 . S
C1648 C1647 1.398 . S
C1648 C1649 1.391 . S
C1649 H1637 0.950 . S
C1649 C1645 1.393 . S
C1649 C1648 1.391 . S
C1650 H1640 0.950 1_556 S
C1650 C1651 1.386 . S
C1650 C1652 1.391 . S
C1651 C1650 1.386 . S
C1651 C1655 1.393 . S
C1652 H1641 0.950 1_455 S
C1652 C1650 1.391 . S
C1652 C1653 1.400 . S
C1653 C1647 1.491 1_455 S
C1653 C1652 1.400 . S
C1653 C1654 1.398 . S
C1654 H1642 0.950 . S
C1654 C1653 1.398 . S
C1654 C1655 1.391 . S
C1655 H1643 0.950 . S
C1655 C1651 1.393 . S
C1655 C1654 1.391 . S
H1656 C1664 0.950 . S
H1657 C1669 0.950 . S
H1658 C1666 0.950 . S
H1659 C1668 0.950 . S
H1660 C1670 0.950 . S
H1661 C1672 0.950 . S
H1662 C1674 0.950 . S
H1663 C1675 0.950 . S
C1664 H1656 0.950 . S
C1664 C1665 1.386 . S
C1664 C1666 1.391 . S
C1665 C1664 1.386 . S
C1665 C1669 1.393 . S
C1666 H1658 0.950 . S
C1666 C1664 1.391 . S
C1666 C1667 1.400 . S
C1667 C1666 1.400 . S
C1667 C1668 1.398 . S
C1667 C1673 1.491 . S
C1668 H1659 0.950 . S
C1668 C1667 1.398 . S
C1668 C1669 1.391 . S
C1669 H1657 0.950 . S
C1669 C1665 1.393 . S
C1669 C1668 1.391 . S
C1670 H1660 0.950 . S
C1670 C1671 1.386 . S
C1670 C1672 1.391 . S
C1671 C1670 1.386 . S
C1671 C1675 1.393 . S
C1672 H1661 0.950 . S
C1672 C1670 1.391 . S
C1672 C1673 1.400 . S
C1673 C1667 1.491 . S
C1673 C1672 1.400 . S
C1673 C1674 1.398 . S
C1674 H1662 0.950 . S
C1674 C1673 1.398 . S
C1674 C1675 1.391 . S
C1675 H1663 0.950 . S
C1675 C1671 1.393 . S
C1675 C1674 1.391 . S
H1676 C1684 0.950 . S
H1677 C1689 0.950 . S
H1678 C1686 0.950 . S
H1679 C1688 0.950 . S
H1680 C1690 0.950 . S
H1681 C1692 0.950 . S
H1682 C1694 0.950 . S
H1683 C1695 0.950 . S
C1684 H1676 0.950 . S
C1684 C1685 1.386 . S
C1684 C1686 1.391 . S
C1685 C1684 1.386 . S
C1685 C1689 1.393 . S
C1686 H1678 0.950 . S
C1686 C1684 1.391 . S
C1686 C1687 1.400 . S
C1687 C1686 1.400 . S
C1687 C1688 1.398 . S
C1687 C1693 1.491 . S
C1688 H1679 0.950 . S
C1688 C1687 1.398 . S
C1688 C1689 1.391 . S
C1689 H1677 0.950 . S
C1689 C1685 1.393 . S
C1689 C1688 1.391 . S
C1690 H1680 0.950 . S
C1690 C1691 1.386 . S
C1690 C1692 1.391 . S
C1691 C1690 1.386 . S
C1691 C1695 1.393 . S
C1692 H1681 0.950 . S
C1692 C1690 1.391 . S
C1692 C1693 1.400 . S
C1693 C1687 1.491 . S
C1693 C1692 1.400 . S
C1693 C1694 1.398 . S
C1694 H1682 0.950 . S
C1694 C1693 1.398 . S
C1694 C1695 1.391 . S
C1695 H1683 0.950 . S
C1695 C1691 1.393 . S
C1695 C1694 1.391 . S
C425 C88 1.260 . S
C431 C10 1.269 . S
C445 C23 1.258 . S
C451 C101 1.271 . S
C465 C62 1.251 . S
C471 C36 1.277 . S
C485 C49 1.258 . S
C491 C75 1.267 . S
C505 C192 1.266 . S
C511 C114 1.263 . S
C525 C127 1.255 . S
C531 C205 1.274 . S
C545 C166 1.255 . S
C551 C140 1.270 . S
C565 C153 1.251 . S
C571 C179 1.275 . S
C585 C218 1.251 . S
C591 C296 1.277 . S
C605 C309 1.272 . S
C611 C231 1.254 . S
C625 C244 1.252 . S
C631 C270 1.276 . S
C645 C283 1.259 . S
C651 C257 1.271 . S
C665 C400 1.274 . S
C671 C322 1.255 . S
C685 C413 1.250 . S
C691 C335 1.276 . S
C705 C374 1.277 . S
C711 C348 1.251 . S
C725 C361 1.275 . S
C731 C387 1.253 . S
C745 C91 1.417 . S
C751 C0 1.417 . S
C765 C52 1.391 . S
C771 C13 1.389 . S
C785 C65 1.415 . S
C791 C26 1.418 . S
C805 C78 1.389 . S
C811 C39 1.397 . S
C825 C195 1.392 . S
C831 C104 1.404 . S
C845 C156 1.392 . S
C851 C117 1.389 . S
C865 C169 1.413 . S
C871 C130 1.418 . S
C885 C143 1.392 . S
C891 C182 1.389 . S
C905 C299 1.406 . S
C911 C208 1.416 . S
C925 C221 1.399 . S
C931 C260 1.389 . S
C945 C234 1.399 . S
C951 C273 1.390 . S
C965 C286 1.397 . S
C971 C247 1.410 . S
C985 C403 1.394 . S
C991 C312 1.406 . S
C1005 C325 1.392 . S
C1011 C364 1.404 . S
C1025 C338 1.416 . S
C1031 C377 1.417 . S
C1045 C390 1.416 . S
C1051 C351 1.417 . S
C1065 C8 0.991 . S
C1071 C395 0.944 1_554 S
C1085 C200 0.962 . S
C1091 C21 1.024 . S
C1105 C369 0.968 . S
C1111 C34 1.028 . S
C1125 C174 0.966 . S
C1131 C47 1.027 1_556 S
C1145 C343 0.941 . S
C1151 C60 1.002 . S
C1165 C73 1.005 . S
C1171 C148 0.943 . S
C1185 C86 1.003 . S
C1191 C317 0.980 1_556 S
C1205 C99 1.036 1_554 S
C1211 C122 0.994 . S
C1225 C112 1.032 . S
C1231 C291 1.000 1_556 S
C1245 C96 0.996 . S
C1251 C125 1.019 . S
C1265 C265 0.966 . S
C1271 C138 1.027 . S
C1285 C70 1.000 . S
C1291 C151 1.033 1_554 S
C1305 C239 0.971 . S
C1311 C164 0.997 . S
C1325 C44 0.974 . S
C1331 C177 1.031 . S
C1345 C190 1.033 . S
C1351 C213 0.979 1_554 S
C1365 C18 0.951 . S
C1371 C203 1.015 1_556 S
C1385 C187 0.958 . S
C1391 C216 0.992 . S
C1405 C408 1.000 . S
C1411 C229 1.026 1_556 S
C1425 C242 0.998 . S
C1431 C161 0.940 1_554 S
C1445 C255 1.027 . S
C1451 C382 1.000 . S
C1465 C268 1.027 . S
C1471 C135 0.966 1_556 S
C1485 C281 0.998 1_554 S
C1491 C356 0.940 . S
C1505 C294 1.016 . S
C1511 C109 0.952 . S
C1525 C307 1.029 . S
C1531 C330 1.001 . S
C1545 C83 0.942 . S
C1551 C320 1.004 . S
C1565 C304 1.000 . S
C1571 C333 1.033 1_554 S
C1585 C57 0.960 1_556 S
C1591 C346 1.023 . S
C1605 C359 1.004 . S
C1611 C278 0.982 . S
C1625 C372 1.036 . S
C1631 C31 0.989 1_554 S
C1645 C252 0.993 . S
C1651 C385 1.036 1_556 S
C1665 C398 1.007 . S
C1671 C5 0.944 . S
C1685 C411 1.019 . S
C1691 C226 0.956 . S
