# Generated by pormake.
# Topology etd, (3)-cn, num edge types: 1
# Building blocks:
#     Node 0, Type 0, BuildingBlock: OLANEW_clean_sbu_2, # of connection points: 3
#     Node 1, Type 0, BuildingBlock: OLANEW_clean_sbu_2, # of connection points: 3
#     Node 2, Type 0, BuildingBlock: OLANEW_clean_sbu_2, # of connection points: 3
#     Node 3, Type 0, BuildingBlock: OLANEW_clean_sbu_2, # of connection points: 3
#     Node 4, Type 0, BuildingBlock: OLANEW_clean_sbu_2, # of connection points: 3
#     Node 5, Type 0, BuildingBlock: OLANEW_clean_sbu_2, # of connection points: 3
#     Node 6, Type 0, BuildingBlock: OLANEW_clean_sbu_2, # of connection points: 3
#     Node 7, Type 0, BuildingBlock: OLANEW_clean_sbu_2, # of connection points: 3
#     Node 8, Type 0, BuildingBlock: OLANEW_clean_sbu_2, # of connection points: 3
#     Node 9, Type 0, BuildingBlock: OLANEW_clean_sbu_2, # of connection points: 3
#     Node 10, Type 0, BuildingBlock: OLANEW_clean_sbu_2, # of connection points: 3
#     Node 11, Type 0, BuildingBlock: OLANEW_clean_sbu_2, # of connection points: 3
#     Edge 12, Type (0, 0), BuildingBlock: XUDNAN_clean_linker_2, # of connection points: 2
#     Edge 13, Type (0, 0), BuildingBlock: XUDNAN_clean_linker_2, # of connection points: 2
#     Edge 14, Type (0, 0), BuildingBlock: XUDNAN_clean_linker_2, # of connection points: 2
#     Edge 15, Type (0, 0), BuildingBlock: XUDNAN_clean_linker_2, # of connection points: 2
#     Edge 16, Type (0, 0), BuildingBlock: XUDNAN_clean_linker_2, # of connection points: 2
#     Edge 17, Type (0, 0), BuildingBlock: XUDNAN_clean_linker_2, # of connection points: 2
#     Edge 18, Type (0, 0), BuildingBlock: XUDNAN_clean_linker_2, # of connection points: 2
#     Edge 19, Type (0, 0), BuildingBlock: XUDNAN_clean_linker_2, # of connection points: 2
#     Edge 20, Type (0, 0), BuildingBlock: XUDNAN_clean_linker_2, # of connection points: 2
#     Edge 21, Type (0, 0), BuildingBlock: XUDNAN_clean_linker_2, # of connection points: 2
#     Edge 22, Type (0, 0), BuildingBlock: XUDNAN_clean_linker_2, # of connection points: 2
#     Edge 23, Type (0, 0), BuildingBlock: XUDNAN_clean_linker_2, # of connection points: 2
#     Edge 24, Type (0, 0), BuildingBlock: XUDNAN_clean_linker_2, # of connection points: 2
#     Edge 25, Type (0, 0), BuildingBlock: XUDNAN_clean_linker_2, # of connection points: 2
#     Edge 26, Type (0, 0), BuildingBlock: XUDNAN_clean_linker_2, # of connection points: 2
#     Edge 27, Type (0, 0), BuildingBlock: XUDNAN_clean_linker_2, # of connection points: 2
#     Edge 28, Type (0, 0), BuildingBlock: XUDNAN_clean_linker_2, # of connection points: 2
#     Edge 29, Type (0, 0), BuildingBlock: XUDNAN_clean_linker_2, # of connection points: 2
# Relax obj value: 0.002
# Max RMSD: 0.049
# Mean RMSD: 0.049
data_MOF--net-etd--node1-OLANEW_clean_sbu_2--edge1-XUDNAN_clean_linker_2
_symmetry_space_group_name_H-M    P1
_symmetry_Int_Tables_number       1
_symmetry_cell_setting            triclinic
loop_
_symmetry_equiv_pos_as_xyz
'x, y, z'
_cell_length_a     61.593961
_cell_length_b     61.611366
_cell_length_c     45.289611
_cell_angle_alpha  89.980004
_cell_angle_beta   90.196153
_cell_angle_gamma 119.99016
loop_
_atom_site_label
_atom_site_type_symbol
_atom_site_fract_x
_atom_site_fract_y
_atom_site_fract_z
_atom_type_partial_charge
O0 O 0.49948 0.08882 0.15129 0.0
Cd1 Cd 0.49226 0.09278 0.09886 0.0
O2 O 0.46062 0.0751 0.16534 0.0
Cd3 Cd 0.44994 0.08168 0.12172 0.0
O4 O 0.44327 0.10007 0.08441 0.0
C5 C 0.44747 0.12222 0.08881 0.0
O6 O 0.45536 0.1324 0.11498 0.0
C7 C 0.48301 0.0808 0.17152 0.0
C8 C 0.4779 0.04846 0.06783 0.0
O9 O 0.501 0.06389 0.07358 0.0
O10 O 0.46147 0.05393 0.07669 0.0
O11 O 0.43279 0.49721 0.23866 0.0
Cd12 Cd 0.42809 0.48912 0.18548 0.0
O13 O 0.39706 0.49676 0.23733 0.0
Cd14 Cd 0.36721 0.50333 0.25294 0.0
O15 O 0.33525 0.50917 0.25881 0.0
C16 C 0.31726 0.4951 0.27578 0.0
O17 O 0.31834 0.47724 0.2904 0.0
C18 C 0.41606 0.49976 0.25194 0.0
C19 C 0.44662 0.4591 0.16412 0.0
O20 O 0.46124 0.48253 0.16895 0.0
O21 O 0.42328 0.44969 0.17002 0.0
O22 O 0.92934 0.42351 0.52042 0.0
Cd23 Cd 0.93898 0.41304 0.472 0.0
O24 O 0.89704 0.38555 0.52092 0.0
Cd25 Cd 0.86136 0.35395 0.53555 0.0
O26 O 0.82497 0.31958 0.53232 0.0
C27 C 0.80901 0.31952 0.51442 0.0
O28 O 0.81473 0.34021 0.5 0.0
C29 C 0.91004 0.40668 0.53354 0.0
C30 C 0.98252 0.4519 0.44741 0.0
O31 O 0.9612 0.45037 0.4432 0.0
O32 O 0.98324 0.43513 0.46345 0.0
O33 O 0.51845 0.89714 0.65007 0.0
Cd34 Cd 0.5386 0.88988 0.60788 0.0
O35 O 0.51935 0.8694 0.67986 0.0
Cd36 Cd 0.53683 0.85725 0.64683 0.0
O37 O 0.5484 0.838 0.61553 0.0
C38 C 0.53786 0.81427 0.6171 0.0
O39 O 0.52075 0.8025 0.63744 0.0
C40 C 0.51357 0.88621 0.67498 0.0
C41 C 0.55708 0.93157 0.57105 0.0
O42 O 0.53414 0.91404 0.56953 0.0
O43 O 0.57154 0.92915 0.58952 0.0
O44 O 0.58106 0.49854 0.76452 0.0
Cd45 Cd 0.61042 0.53646 0.73781 0.0
O46 O 0.60716 0.50499 0.80126 0.0
Cd47 Cd 0.64123 0.53459 0.78087 0.0
O48 O 0.68121 0.54801 0.77508 0.0
C49 C 0.69605 0.55854 0.7967 0.0
O50 O 0.68723 0.56285 0.82101 0.0
C51 C 0.58548 0.49245 0.78972 0.0
C52 C 0.58386 0.55287 0.70303 0.0
O53 O 0.59274 0.53988 0.69173 0.0
O54 O 0.58782 0.55838 0.73053 0.0
O55 O 0.11133 0.57945 0.00396 0.0
Cd56 Cd 0.11276 0.58547 0.95031 0.0
O57 O 0.12237 0.6186 0.01396 0.0
Cd58 Cd 0.1283 0.63198 0.96854 0.0
O59 O 0.15041 0.66158 0.93691 0.0
C60 C 0.16887 0.68094 0.94816 0.0
O61 O 0.17276 0.68138 0.97676 0.0
C62 C 0.1162 0.59666 0.02272 0.0
C63 C 0.06813 0.57736 0.92407 0.0
O64 O 0.07213 0.55913 0.92874 0.0
O65 O 0.08498 0.59932 0.93238 0.0
O66 O 0.8722 0.46845 0.73788 0.0
Cd67 Cd 0.86699 0.49076 0.7795 0.0
O68 O 0.88068 0.49822 0.70542 0.0
Cd69 Cd 0.86914 0.51874 0.73473 0.0
O70 O 0.84382 0.53199 0.7487 0.0
C71 C 0.8467 0.54496 0.77172 0.0
O72 O 0.8662 0.55127 0.78892 0.0
C73 C 0.87856 0.47716 0.7119 0.0
C74 C 0.91153 0.51713 0.81174 0.0
O75 O 0.8963 0.49385 0.81667 0.0
O76 O 0.90567 0.52799 0.79168 0.0
O77 O 0.40592 0.87087 0.85573 0.0
Cd78 Cd 0.37993 0.86055 0.89998 0.0
O79 O 0.3902 0.89207 0.83436 0.0
Cd80 Cd 0.35868 0.87635 0.86487 0.0
O81 O 0.32268 0.84587 0.88011 0.0
C82 C 0.30681 0.83281 0.86029 0.0
O83 O 0.31255 0.839 0.83246 0.0
C84 C 0.4062 0.88476 0.83478 0.0
C85 C 0.40444 0.89836 0.942 0.0
O86 O 0.40904 0.88032 0.93969 0.0
O87 O 0.38788 0.89834 0.92476 0.0
O88 O 0.497 0.35359 0.9449 0.0
Cd89 Cd 0.48359 0.32572 0.98774 0.0
O90 O 0.46486 0.32956 0.91635 0.0
Cd91 Cd 0.45191 0.29847 0.94745 0.0
O92 O 0.44636 0.26554 0.97194 0.0
C93 C 0.43977 0.24534 0.95782 0.0
O94 O 0.4358 0.2448 0.92924 0.0
C95 C 0.48508 0.35012 0.92076 0.0
C96 C 0.48125 0.35234 0.03631 0.0
O97 O 0.50161 0.35263 0.0297 0.0
O98 O 0.4618 0.33892 0.02039 0.0
O99 O 0.13418 0.62252 0.24764 0.0
Cd100 Cd 0.14116 0.63497 0.29951 0.0
O101 O 0.15231 0.60014 0.25459 0.0
Cd102 Cd 0.16965 0.57757 0.24385 0.0
O103 O 0.19227 0.5593 0.24662 0.0
C104 C 0.18643 0.54201 0.26554 0.0
O105 O 0.16649 0.53511 0.28197 0.0
C106 C 0.1413 0.60792 0.23737 0.0
C107 C 0.11248 0.59418 0.33605 0.0
O108 O 0.10368 0.60763 0.32582 0.0
O109 O 0.13495 0.60013 0.32913 0.0
O110 O 0.55684 0.10605 0.39013 0.0
Cd111 Cd 0.58151 0.12004 0.43564 0.0
O112 O 0.58937 0.11978 0.36067 0.0
Cd113 Cd 0.61629 0.13604 0.39697 0.0
O114 O 0.64634 0.15888 0.42815 0.0
C115 C 0.65622 0.18254 0.42634 0.0
O116 O 0.64768 0.19191 0.40638 0.0
C117 C 0.56575 0.10867 0.36426 0.0
C118 C 0.58424 0.08082 0.46262 0.0
O119 O 0.56533 0.08385 0.46652 0.0
O120 O 0.60204 0.09645 0.44604 0.0
O121 O 0.46473 0.58692 0.46454 0.0
Cd122 Cd 0.48476 0.61785 0.50418 0.0
O123 O 0.49844 0.60509 0.43671 0.0
Cd124 Cd 0.51855 0.63595 0.46781 0.0
O125 O 0.52893 0.66844 0.49612 0.0
C126 C 0.54506 0.69033 0.48768 0.0
O127 O 0.55627 0.69308 0.46219 0.0
C128 C 0.47596 0.58759 0.44071 0.0
C129 C 0.50054 0.60141 0.55283 0.0
O130 O 0.47949 0.60092 0.553 0.0
O131 O 0.51396 0.60925 0.52946 0.0
H132 H 0.53027 0.09714 0.19342 0.0
H133 H 0.4522 0.06204 0.21969 0.0
H134 H 0.46471 0.06283 0.27171 0.0
H135 H 0.54958 0.06582 0.24787 0.0
H136 H 0.57973 0.0934 0.25374 0.0
H137 H 0.56439 0.08802 0.21836 0.0
H138 H 0.56754 0.13151 0.22146 0.0
H139 H 0.58277 0.13698 0.25686 0.0
H140 H 0.55466 0.13895 0.25301 0.0
H141 H 0.48597 0.07009 0.32115 0.0
H142 H 0.51435 0.08324 0.36429 0.0
H143 H 0.57851 0.11381 0.30558 0.0
C144 C 0.51573 0.08922 0.21001 0.0
C145 C 0.49022 0.07943 0.20242 0.0
C146 C 0.47185 0.06958 0.22492 0.0
C147 C 0.47876 0.06991 0.25454 0.0
C148 C 0.50411 0.08008 0.26129 0.0
C149 C 0.5223 0.08947 0.23965 0.0
C150 C 0.54832 0.10058 0.25287 0.0
C151 C 0.56126 0.08608 0.2426 0.0
C152 C 0.56425 0.12867 0.24562 0.0
C153 C 0.54197 0.09642 0.28538 0.0
C154 C 0.51637 0.08438 0.28977 0.0
C155 C 0.50605 0.07933 0.31798 0.0
C156 C 0.52234 0.08692 0.34235 0.0
C157 C 0.54869 0.09953 0.33838 0.0
C158 C 0.55849 0.10408 0.30943 0.0
H159 H 0.49553 0.58136 0.38926 0.0
H160 H 0.42582 0.55264 0.43771 0.0
H161 H 0.40287 0.52505 0.3956 0.0
H162 H 0.47181 0.58403 0.31999 0.0
H163 H 0.49059 0.5744 0.29945 0.0
H164 H 0.50175 0.59027 0.33427 0.0
H165 H 0.5067 0.55347 0.35397 0.0
H166 H 0.4957 0.53753 0.3191 0.0
H167 H 0.48027 0.52205 0.35283 0.0
H168 H 0.38711 0.50329 0.34626 0.0
H169 H 0.38031 0.48764 0.29479 0.0
H170 H 0.46044 0.53025 0.27944 0.0
C171 C 0.47549 0.56901 0.39126 0.0
C172 C 0.46249 0.56919 0.41683 0.0
C173 C 0.43623 0.55278 0.41842 0.0
C174 C 0.42301 0.53705 0.39459 0.0
C175 C 0.43636 0.53775 0.36947 0.0
C176 C 0.46207 0.55311 0.36782 0.0
C177 C 0.47193 0.55102 0.33802 0.0
C178 C 0.48477 0.57644 0.322 0.0
C179 C 0.4897 0.54038 0.34118 0.0
C180 C 0.44771 0.53253 0.3229 0.0
C181 C 0.42737 0.52503 0.34136 0.0
C182 C 0.40292 0.50891 0.33169 0.0
C183 C 0.39921 0.50034 0.30235 0.0
C184 C 0.41982 0.50794 0.28312 0.0
C185 C 0.44435 0.52395 0.29376 0.0
H186 H 0.89935 0.49288 0.65705 0.0
H187 H 0.86618 0.42783 0.71453 0.0
H188 H 0.87031 0.40249 0.67505 0.0
H189 H 0.87065 0.46092 0.59008 0.0
H190 H 0.89783 0.47968 0.56763 0.0
H191 H 0.89259 0.4928 0.60053 0.0
H192 H 0.93648 0.50388 0.62034 0.0
H193 H 0.94192 0.49094 0.58741 0.0
H194 H 0.94463 0.47962 0.62316 0.0
H195 H 0.87657 0.38383 0.62842 0.0
H196 H 0.88731 0.37414 0.57944 0.0
H197 H 0.91732 0.45163 0.55323 0.0
C198 C 0.89304 0.47333 0.66143 0.0
C199 C 0.88238 0.46233 0.68888 0.0
C200 C 0.87447 0.43671 0.69371 0.0
C201 C 0.87666 0.42213 0.67139 0.0
C202 C 0.887 0.4335 0.64447 0.0
C203 C 0.89531 0.45859 0.63953 0.0
C204 C 0.90595 0.46636 0.60877 0.0
C205 C 0.89085 0.47547 0.59069 0.0
C206 C 0.93391 0.48638 0.61001 0.0
C207 C 0.90218 0.4417 0.5971 0.0
C208 C 0.89105 0.42291 0.61793 0.0
C209 C 0.88529 0.3984 0.61194 0.0
C210 C 0.8912 0.393 0.58398 0.0
C211 C 0.90286 0.41207 0.5625 0.0
C212 C 0.90845 0.4367 0.56929 0.0
H213 H 0.49875 0.8655 0.73013 0.0
H214 H 0.49741 0.92026 0.67085 0.0
H215 H 0.47221 0.92807 0.70697 0.0
H216 H 0.43665 0.83895 0.75423 0.0
H217 H 0.44307 0.83427 0.79184 0.0
H218 H 0.46286 0.83457 0.76253 0.0
H219 H 0.50181 0.86997 0.78915 0.0
H220 H 0.48212 0.86974 0.81863 0.0
H221 H 0.50218 0.89846 0.79924 0.0
H222 H 0.44419 0.92735 0.74762 0.0
H223 H 0.4162 0.91872 0.79033 0.0
H224 H 0.43649 0.86503 0.82332 0.0
C225 C 0.4935 0.87942 0.72489 0.0
C226 C 0.50011 0.89228 0.69763 0.0
C227 C 0.49264 0.91019 0.69159 0.0
C228 C 0.47834 0.9148 0.71199 0.0
C229 C 0.4718 0.9015 0.73842 0.0
C230 C 0.47928 0.8843 0.74501 0.0
C231 C 0.4688 0.87168 0.77437 0.0
C232 C 0.45184 0.84319 0.77049 0.0
C233 C 0.49 0.87784 0.79667 0.0
C234 C 0.45381 0.88405 0.78293 0.0
C235 C 0.45588 0.90129 0.762 0.0
C236 C 0.44267 0.91412 0.76435 0.0
C237 C 0.42677 0.90905 0.78865 0.0
C238 C 0.42425 0.89131 0.81027 0.0
C239 C 0.43823 0.87893 0.8074 0.0
H240 H 0.53009 0.39393 0.92112 0.0
H241 H 0.46292 0.35086 0.86825 0.0
H242 H 0.48045 0.38347 0.82955 0.0
H243 H 0.54046 0.45549 0.90198 0.0
H244 H 0.57406 0.46933 0.90115 0.0
H245 H 0.55563 0.44315 0.9251 0.0
H246 H 0.57507 0.41856 0.90121 0.0
H247 H 0.59354 0.44464 0.8772 0.0
H248 H 0.57312 0.41405 0.86175 0.0
H249 H 0.50612 0.42059 0.79599 0.0
H250 H 0.5381 0.45843 0.77005 0.0
H251 H 0.58824 0.47632 0.84518 0.0
C252 C 0.51892 0.39138 0.90154 0.0
C253 C 0.49508 0.36984 0.89778 0.0
C254 C 0.48122 0.36721 0.87166 0.0
C255 C 0.491 0.38565 0.84958 0.0
C256 C 0.51464 0.40658 0.85396 0.0
C257 C 0.5284 0.40949 0.87931 0.0
C258 C 0.55366 0.43322 0.87832 0.0
C259 C 0.55608 0.45137 0.90311 0.0
C260 C 0.5751 0.42725 0.87969 0.0
C261 C 0.5521 0.44314 0.84833 0.0
C262 C 0.52942 0.42765 0.83465 0.0
C263 C 0.52392 0.43289 0.80655 0.0
C264 C 0.5422 0.45443 0.792 0.0
C265 C 0.56571 0.47037 0.80553 0.0
C266 C 0.5705 0.46459 0.83416 0.0
H267 H 0.12202 0.62832 0.06819 0.0
H268 H 0.11198 0.5547 0.04976 0.0
H269 H 0.117 0.54908 0.10297 0.0
H270 H 0.16919 0.64611 0.12225 0.0
H271 H 0.15802 0.66242 0.14509 0.0
H272 H 0.15224 0.65997 0.10592 0.0
H273 H 0.10449 0.63975 0.11516 0.0
H274 H 0.11014 0.64237 0.15439 0.0
H275 H 0.08889 0.61233 0.13821 0.0
H276 H 0.1255 0.55277 0.15841 0.0
H277 H 0.13392 0.56435 0.21125 0.0
H278 H 0.13832 0.63545 0.19229 0.0
C279 C 0.12058 0.61086 0.07529 0.0
C280 C 0.1166 0.59195 0.05476 0.0
C281 C 0.11489 0.56942 0.06508 0.0
C282 C 0.11781 0.56609 0.09524 0.0
C283 C 0.12226 0.58539 0.11478 0.0
C284 C 0.12334 0.60721 0.10519 0.0
C285 C 0.12867 0.6253 0.13039 0.0
C286 C 0.15351 0.6499 0.12562 0.0
C287 C 0.10674 0.63021 0.13479 0.0
C288 C 0.13067 0.6104 0.1557 0.0
C289 C 0.127 0.58745 0.14635 0.0
C290 C 0.12842 0.57071 0.16593 0.0
C291 C 0.13353 0.57757 0.19584 0.0
C292 C 0.13716 0.60095 0.20578 0.0
C293 C 0.13562 0.61744 0.18534 0.0
H294 H 0.45502 0.1699 0.09173 0.0
H295 H 0.43155 0.1069 0.03195 0.0
H296 H 0.42583 0.13112 0.99222 0.0
H297 H 0.41212 0.18943 0.06507 0.0
H298 H 0.43441 0.22235 0.06931 0.0
H299 H 0.43611 0.19982 0.09313 0.0
H300 H 0.48231 0.21671 0.07774 0.0
H301 H 0.48077 0.2393 0.05392 0.0
H302 H 0.4899 0.21789 0.03915 0.0
H303 H 0.42358 0.16268 0.95876 0.0
H304 H 0.42525 0.19919 0.93398 0.0
H305 H 0.45009 0.24133 0.01595 0.0
C306 C 0.44859 0.16111 0.07033 0.0
C307 C 0.44371 0.13647 0.06496 0.0
C308 C 0.43539 0.12573 0.0366 0.0
C309 C 0.43206 0.13934 0.0139 0.0
C310 C 0.43709 0.1636 0.01996 0.0
C311 C 0.44517 0.17438 0.04749 0.0
C312 C 0.44968 0.20089 0.04819 0.0
C313 C 0.43202 0.20325 0.07023 0.0
C314 C 0.4773 0.21981 0.05515 0.0
C315 C 0.44304 0.20343 0.01667 0.0
C316 C 0.43576 0.18171 0.00076 0.0
C317 C 0.42916 0.17976 0.97103 0.0
C318 C 0.43018 0.20061 0.95715 0.0
C319 C 0.43776 0.22313 0.97301 0.0
C320 C 0.44411 0.22438 0.00322 0.0
H321 H 0.23149 0.55516 0.23916 0.0
H322 H 0.17788 0.50347 0.30265 0.0
H323 H 0.20534 0.48567 0.31194 0.0
H324 H 0.24994 0.51238 0.20899 0.0
H325 H 0.28234 0.53628 0.20491 0.0
H326 H 0.25811 0.54447 0.2027 0.0
H327 H 0.27994 0.57726 0.24435 0.0
H328 H 0.30417 0.5691 0.24678 0.0
H329 H 0.28654 0.56755 0.27918 0.0
H330 H 0.239 0.47397 0.315 0.0
H331 H 0.27625 0.46897 0.31122 0.0
H332 H 0.30801 0.52856 0.24607 0.0
C333 C 0.22541 0.53998 0.25487 0.0
C334 C 0.20248 0.53069 0.27014 0.0
C335 C 0.19534 0.5109 0.29066 0.0
C336 C 0.21081 0.50066 0.2961 0.0
C337 C 0.23338 0.5104 0.28087 0.0
C338 C 0.24065 0.52958 0.26064 0.0
C339 C 0.26601 0.53692 0.24757 0.0
C340 C 0.26396 0.53222 0.21406 0.0
C341 C 0.2853 0.56433 0.25492 0.0
C342 C 0.2719 0.51893 0.2637 0.0
C343 C 0.25283 0.50376 0.28277 0.0
C344 C 0.25405 0.48571 0.30011 0.0
C345 C 0.27531 0.48304 0.29782 0.0
C346 C 0.29509 0.49837 0.27838 0.0
C347 C 0.29326 0.51656 0.26119 0.0
H348 H 0.77185 0.31337 0.47615 0.0
H349 H 0.79254 0.27267 0.5377 0.0
H350 H 0.75429 0.23323 0.52395 0.0
H351 H 0.70404 0.27645 0.48793 0.0
H352 H 0.69702 0.27807 0.4496 0.0
H353 H 0.72501 0.30321 0.46602 0.0
H354 H 0.75185 0.29826 0.4255 0.0
H355 H 0.724 0.27307 0.40904 0.0
H356 H 0.74939 0.26814 0.4199 0.0
H357 H 0.71512 0.19778 0.50078 0.0
H358 H 0.67802 0.16946 0.47072 0.0
H359 H 0.68331 0.23377 0.42475 0.0
C360 C 0.76822 0.29624 0.48707 0.0
C361 C 0.7852 0.29613 0.50805 0.0
C362 C 0.77978 0.27324 0.52163 0.0
C363 C 0.75809 0.25074 0.51398 0.0
C364 C 0.74197 0.25148 0.49284 0.0
C365 C 0.74671 0.27369 0.47973 0.0
C366 C 0.72702 0.26936 0.4568 0.0
C367 C 0.71241 0.28255 0.46563 0.0
C368 C 0.73877 0.27769 0.426 0.0
C369 C 0.71069 0.24117 0.4586 0.0
C370 C 0.71949 0.23118 0.47962 0.0
C371 C 0.70794 0.20543 0.48444 0.0
C372 C 0.6869 0.18949 0.46723 0.0
C373 C 0.6777 0.19938 0.44541 0.0
C374 C 0.68973 0.22559 0.44134 0.0
H375 H 0.52171 0.69122 0.53877 0.0
H376 H 0.57863 0.73968 0.47611 0.0
H377 H 0.5844 0.7768 0.50369 0.0
H378 H 0.49349 0.72848 0.54709 0.0
H379 H 0.48722 0.72223 0.58594 0.0
H380 H 0.48885 0.69949 0.56254 0.0
H381 H 0.52312 0.70005 0.59642 0.0
H382 H 0.52153 0.72273 0.62003 0.0
H383 H 0.55109 0.72942 0.60434 0.0
H384 H 0.58228 0.80868 0.53663 0.0
H385 H 0.57273 0.83281 0.5727 0.0
H386 H 0.51715 0.7633 0.61352 0.0
C387 C 0.53563 0.70961 0.53101 0.0
C388 C 0.54976 0.71253 0.50529 0.0
C389 C 0.56761 0.73696 0.49578 0.0
C390 C 0.57104 0.75817 0.51131 0.0
C391 C 0.55654 0.75462 0.53633 0.0
C392 C 0.53926 0.73095 0.54619 0.0
C393 C 0.52536 0.73223 0.57302 0.0
C394 C 0.49706 0.71988 0.56676 0.0
C395 C 0.5306 0.72041 0.60005 0.0
C396 C 0.53726 0.76033 0.57649 0.0
C397 C 0.55529 0.77294 0.55522 0.0
C398 C 0.56833 0.79901 0.55352 0.0
C399 C 0.56274 0.81255 0.57408 0.0
C400 C 0.54423 0.79997 0.59598 0.0
C401 C 0.53149 0.77351 0.59716 0.0
H402 H 0.71749 0.54382 0.75396 0.0
H403 H 0.73301 0.58243 0.83823 0.0
H404 H 0.77462 0.58567 0.83958 0.0
H405 H 0.74403 0.50693 0.77141 0.0
H406 H 0.75677 0.5083 0.73523 0.0
H407 H 0.72944 0.51148 0.73924 0.0
H408 H 0.75185 0.55403 0.71177 0.0
H409 H 0.77923 0.5509 0.70747 0.0
H410 H 0.7819 0.57844 0.72488 0.0
H411 H 0.81323 0.58167 0.83358 0.0
H412 H 0.84583 0.57118 0.82032 0.0
H413 H 0.80456 0.53485 0.74032 0.0
C414 C 0.72981 0.55343 0.77242 0.0
C415 C 0.72201 0.56297 0.79593 0.0
C416 C 0.7386 0.57504 0.8199 0.0
C417 C 0.76229 0.577 0.82087 0.0
C418 C 0.76915 0.56686 0.79766 0.0
C419 C 0.75345 0.55544 0.7738 0.0
C420 C 0.76462 0.54474 0.75256 0.0
C421 C 0.74771 0.51617 0.74945 0.0
C422 C 0.7697 0.55782 0.72239 0.0
C423 C 0.78881 0.55144 0.7685 0.0
C424 C 0.79122 0.56438 0.79433 0.0
C425 C 0.81165 0.57175 0.81325 0.0
C426 C 0.83005 0.56567 0.80556 0.0
C427 C 0.82781 0.55223 0.77927 0.0
C428 C 0.80694 0.54524 0.76051 0.0
H429 H 0.2109 0.72378 0.96603 0.0
H430 H 0.16587 0.68687 0.88841 0.0
H431 H 0.19531 0.72274 0.85771 0.0
H432 H 0.22791 0.78721 0.94551 0.0
H433 H 0.25918 0.80054 0.96039 0.0
H434 H 0.23399 0.77244 0.97631 0.0
H435 H 0.25909 0.7495 0.96796 0.0
H436 H 0.28435 0.7775 0.95206 0.0
H437 H 0.27016 0.74859 0.93143 0.0
H438 H 0.23054 0.76209 0.83536 0.0
H439 H 0.26907 0.80147 0.82285 0.0
H440 H 0.29087 0.81236 0.91533 0.0
C441 C 0.20707 0.72325 0.94261 0.0
C442 C 0.18603 0.70252 0.92962 0.0
C443 C 0.18185 0.70256 0.89885 0.0
C444 C 0.19844 0.72287 0.88125 0.0
C445 C 0.21906 0.74295 0.89479 0.0
C446 C 0.22341 0.74329 0.92477 0.0
C447 C 0.24731 0.76673 0.93381 0.0
C448 C 0.24175 0.78267 0.95527 0.0
C449 C 0.26635 0.76018 0.94709 0.0
C450 C 0.25592 0.77946 0.90416 0.0
C451 C 0.23931 0.76553 0.88195 0.0
C452 C 0.2436 0.77322 0.85259 0.0
C453 C 0.26556 0.79562 0.84572 0.0
C454 C 0.28299 0.81005 0.86811 0.0
C455 C 0.27788 0.80187 0.89773 0.0
H456 H 0.43472 0.02012 0.0361 0.0
H457 H 0.50457 0.02423 0.06206 0.0
H458 H 0.49251 0.98526 0.03433 0.0
H459 H 0.3954 0.95256 0.03832 0.0
H460 H 0.37763 0.95121 0.00597 0.0
H461 H 0.39111 0.97866 0.02918 0.0
H462 H 0.41425 0.0064 0.98403 0.0
H463 H 0.40083 0.97906 0.96069 0.0
H464 H 0.43436 0.99925 0.9623 0.0
H465 H 0.47274 0.94575 0.00415 0.0
H466 H 0.44819 0.9102 0.97039 0.0
H467 H 0.39234 0.93316 0.96162 0.0
C468 C 0.44736 0.01267 0.03615 0.0
C469 C 0.4705 0.02504 0.0514 0.0
C470 C 0.48675 0.01501 0.05053 0.0
C471 C 0.48003 0.99286 0.03494 0.0
C472 C 0.45712 0.98115 0.02006 0.0
C473 C 0.44114 0.99082 0.02026 0.0
C474 C 0.41822 0.97529 0.00119 0.0
C475 C 0.39417 0.96374 0.01978 0.0
C476 C 0.41685 0.99094 0.97553 0.0
C477 C 0.42383 0.95539 0.99021 0.0
C478 C 0.44621 0.95894 0.00166 0.0
C479 C 0.45523 0.94282 0.99497 0.0
C480 C 0.44112 0.92265 0.97584 0.0
C481 C 0.41842 0.91897 0.9633 0.0
C482 C 0.40969 0.93556 0.97073 0.0
H483 H 0.44018 0.35299 0.05851 0.0
H484 H 0.52089 0.38773 0.06846 0.0
H485 H 0.52037 0.41682 0.10554 0.0
H486 H 0.43691 0.40777 0.06231 0.0
H487 H 0.40816 0.3944 0.08305 0.0
H488 H 0.4145 0.37476 0.05947 0.0
H489 H 0.40868 0.34564 0.10369 0.0
H490 H 0.4022 0.36518 0.12744 0.0
H491 H 0.4269 0.35875 0.13685 0.0
H492 H 0.51171 0.4451 0.13713 0.0
H493 H 0.49515 0.46911 0.16293 0.0
H494 H 0.41993 0.41487 0.13409 0.0
C495 C 0.4577 0.36643 0.06884 0.0
C496 C 0.48058 0.36808 0.06058 0.0
C497 C 0.50311 0.38604 0.07451 0.0
C498 C 0.50302 0.40265 0.09561 0.0
C499 C 0.4802 0.40084 0.10283 0.0
C500 C 0.45791 0.383 0.09013 0.0
C501 C 0.4361 0.38571 0.10078 0.0
C502 C 0.42317 0.39098 0.07486 0.0
C503 C 0.41736 0.36244 0.11824 0.0
C504 C 0.4497 0.40833 0.12077 0.0
C505 C 0.47512 0.41674 0.12173 0.0
C506 C 0.49178 0.43844 0.13699 0.0
C507 C 0.48223 0.45199 0.15148 0.0
C508 C 0.45625 0.4437 0.15076 0.0
C509 C 0.43981 0.42139 0.13552 0.0
H510 H 0.06288 0.5743 0.35009 0.0
H511 H 0.12712 0.56443 0.36479 0.0
H512 H 0.10112 0.52752 0.39598 0.0
H513 H 0.03638 0.55624 0.4231 0.0
H514 H 0.00447 0.5402 0.40986 0.0
H515 H 0.02835 0.56625 0.38942 0.0
H516 H 0.01707 0.53837 0.34265 0.0
H517 H 0.99316 0.51225 0.36293 0.0
H518 H 0.0174 0.5093 0.34436 0.0
H519 H 0.06793 0.4914 0.42512 0.0
H520 H 0.02978 0.45816 0.44913 0.0
H521 H 0.98725 0.49147 0.41462 0.0
C522 C 0.07155 0.56448 0.35999 0.0
C523 C 0.09706 0.5723 0.35509 0.0
C524 C 0.10762 0.5588 0.36827 0.0
C525 C 0.09302 0.53784 0.38604 0.0
C526 C 0.06791 0.5306 0.39035 0.0
C527 C 0.05725 0.54348 0.37765 0.0
C528 C 0.0297 0.53151 0.38515 0.0
C529 C 0.02443 0.54963 0.40294 0.0
C530 C 0.01338 0.52231 0.35711 0.0
C531 C 0.02648 0.5098 0.40396 0.0
C532 C 0.04876 0.50967 0.40682 0.0
C533 C 0.05038 0.49132 0.42307 0.0
C534 C 0.02862 0.47254 0.43663 0.0
C535 C 0.00553 0.4722 0.43375 0.0
C536 C 0.00459 0.49118 0.41725 0.0
H537 H 0.54524 0.03781 0.48494 0.0
H538 H 0.62583 0.07653 0.47247 0.0
H539 H 0.62774 0.0419 0.49775 0.0
H540 H 0.54388 0.01322 0.55627 0.0
H541 H 0.51582 0.98367 0.54939 0.0
H542 H 0.52092 0.01135 0.53003 0.0
H543 H 0.51573 0.98882 0.47998 0.0
H544 H 0.51062 0.96105 0.4992 0.0
H545 H 0.53511 0.97527 0.47202 0.0
H546 H 0.62094 0.00415 0.52734 0.0
H547 H 0.60562 0.96498 0.556 0.0
H548 H 0.52928 0.95005 0.54602 0.0
C549 C 0.5633 0.03899 0.48749 0.0
C550 C 0.58542 0.05988 0.47693 0.0
C551 C 0.60865 0.06065 0.4804 0.0
C552 C 0.60992 0.0411 0.49475 0.0
C553 C 0.58774 0.02081 0.50504 0.0
C554 C 0.56484 0.01951 0.50128 0.0
C555 C 0.54373 0.99559 0.51411 0.0
C556 C 0.53031 0.00131 0.53892 0.0
C557 C 0.52521 0.97922 0.48988 0.0
C558 C 0.55836 0.98378 0.52613 0.0
C559 C 0.58373 0.99866 0.52085 0.0
C560 C 0.60108 0.9922 0.53126 0.0
C561 C 0.59224 0.96998 0.54755 0.0
C562 C 0.56628 0.9544 0.5529 0.0
C563 C 0.54919 0.96137 0.54181 0.0
H564 H 0.58418 0.558 0.64281 0.0
H565 H 0.55003 0.56582 0.72275 0.0
H566 H 0.52422 0.57805 0.69289 0.0
H567 H 0.58801 0.61173 0.60592 0.0
H568 H 0.58155 0.59743 0.56985 0.0
H569 H 0.59672 0.58851 0.59746 0.0
H570 H 0.56206 0.54202 0.59151 0.0
H571 H 0.54674 0.55082 0.56396 0.0
H572 H 0.52967 0.53344 0.59607 0.0
H573 H 0.50106 0.58794 0.65422 0.0
H574 H 0.48501 0.59871 0.6098 0.0
H575 H 0.53619 0.58716 0.5553 0.0
C576 C 0.57121 0.56223 0.65399 0.0
C577 C 0.56897 0.56082 0.68507 0.0
C578 C 0.55206 0.56682 0.69896 0.0
C579 C 0.53725 0.57368 0.68219 0.0
C580 C 0.53985 0.5748 0.65159 0.0
C581 C 0.55663 0.56956 0.63763 0.0
C582 C 0.55647 0.57313 0.60453 0.0
C583 C 0.58222 0.59394 0.59382 0.0
C584 C 0.54824 0.54837 0.58806 0.0
C585 C 0.53687 0.58104 0.60206 0.0
C586 C 0.52731 0.58159 0.62943 0.0
C587 C 0.50853 0.58774 0.63269 0.0
C588 C 0.49947 0.59373 0.60734 0.0
C589 C 0.50944 0.59388 0.57916 0.0
C590 C 0.52835 0.58739 0.57659 0.0
H591 H 0.93488 0.49754 0.84504 0.0
H592 H 0.94199 0.56795 0.81605 0.0
H593 H 0.98192 0.59108 0.84358 0.0
H594 H 0.96134 0.51774 0.91831 0.0
H595 H 0.97758 0.5002 0.91773 0.0
H596 H 0.94894 0.48924 0.89703 0.0
H597 H 0.97168 0.48859 0.84929 0.0
H598 H 0.00037 0.49951 0.86983 0.0
H599 H 0.99966 0.51666 0.83794 0.0
H600 H 0.02122 0.60649 0.87403 0.0
H601 H 0.05828 0.61309 0.90259 0.0
H602 H 0.02628 0.53255 0.91003 0.0
C603 C 0.94472 0.51783 0.8447 0.0
C604 C 0.93526 0.53097 0.82856 0.0
C605 C 0.94889 0.55751 0.82829 0.0
C606 C 0.97153 0.5708 0.84394 0.0
C607 C 0.98038 0.55727 0.85955 0.0
C608 C 0.96749 0.53138 0.85988 0.0
C609 C 0.98165 0.52133 0.87724 0.0
C610 C 0.96647 0.50624 0.90417 0.0
C611 C 0.98876 0.5056 0.85738 0.0
C612 C 0.00457 0.54562 0.88652 0.0
C613 C 0.00335 0.56614 0.87636 0.0
C614 C 0.02238 0.59057 0.88211 0.0
C615 C 0.04333 0.59412 0.8984 0.0
C616 C 0.04522 0.57335 0.90851 0.0
C617 C 0.02543 0.54881 0.90258 0.0
loop_
_geom_bond_atom_site_label_1
_geom_bond_atom_site_label_2
_geom_bond_distance
_geom_bond_site_symmetry_2
_ccdc_geom_bond_type
O0 Cd1 2.300 . S
O0 C7 1.275 . S
Cd1 O0 2.300 . S
Cd1 O9 2.381 . S
Cd1 O10 2.378 . S
O2 Cd3 2.385 . S
O2 C7 1.255 . S
Cd3 O2 2.385 . S
Cd3 O4 2.317 . S
O4 Cd3 2.317 . S
O4 C5 1.232 . S
C5 O4 1.232 . S
C5 O6 1.218 . S
O6 C5 1.218 . S
C7 O0 1.275 . S
C7 O2 1.255 . S
C8 O9 1.258 . S
C8 O10 1.256 . S
O9 Cd1 2.381 . S
O9 C8 1.258 . S
O10 Cd1 2.378 . S
O10 C8 1.256 . S
O11 Cd12 2.300 . S
O11 C18 1.275 . S
Cd12 O11 2.300 . S
Cd12 O20 2.381 . S
Cd12 O21 2.378 . S
O13 Cd14 2.385 . S
O13 C18 1.255 . S
Cd14 O13 2.385 . S
Cd14 O15 2.317 . S
O15 Cd14 2.317 . S
O15 C16 1.232 . S
C16 O15 1.232 . S
C16 O17 1.218 . S
O17 C16 1.218 . S
C18 O11 1.275 . S
C18 O13 1.255 . S
C19 O20 1.258 . S
C19 O21 1.256 . S
O20 Cd12 2.381 . S
O20 C19 1.258 . S
O21 Cd12 2.378 . S
O21 C19 1.256 . S
O22 Cd23 2.300 . S
O22 C29 1.275 . S
Cd23 O22 2.300 . S
Cd23 O31 2.381 . S
Cd23 O32 2.378 . S
O24 Cd25 2.385 . S
O24 C29 1.255 . S
Cd25 O24 2.385 . S
Cd25 O26 2.317 . S
O26 Cd25 2.317 . S
O26 C27 1.232 . S
C27 O26 1.232 . S
C27 O28 1.218 . S
O28 C27 1.218 . S
C29 O22 1.275 . S
C29 O24 1.255 . S
C30 O31 1.258 . S
C30 O32 1.256 . S
O31 Cd23 2.381 . S
O31 C30 1.258 . S
O32 Cd23 2.378 . S
O32 C30 1.256 . S
O33 Cd34 2.300 . S
O33 C40 1.275 . S
Cd34 O33 2.300 . S
Cd34 O42 2.381 . S
Cd34 O43 2.378 . S
O35 Cd36 2.385 . S
O35 C40 1.255 . S
Cd36 O35 2.385 . S
Cd36 O37 2.317 . S
O37 Cd36 2.317 . S
O37 C38 1.232 . S
C38 O37 1.232 . S
C38 O39 1.218 . S
O39 C38 1.218 . S
C40 O33 1.275 . S
C40 O35 1.255 . S
C41 O42 1.258 . S
C41 O43 1.256 . S
O42 Cd34 2.381 . S
O42 C41 1.258 . S
O43 Cd34 2.378 . S
O43 C41 1.256 . S
O44 Cd45 2.300 . S
O44 C51 1.275 . S
Cd45 O44 2.300 . S
Cd45 O53 2.381 . S
Cd45 O54 2.378 . S
O46 Cd47 2.385 . S
O46 C51 1.255 . S
Cd47 O46 2.385 . S
Cd47 O48 2.317 . S
O48 Cd47 2.317 . S
O48 C49 1.232 . S
C49 O48 1.232 . S
C49 O50 1.218 . S
O50 C49 1.218 . S
C51 O44 1.275 . S
C51 O46 1.255 . S
C52 O53 1.258 . S
C52 O54 1.256 . S
O53 Cd45 2.381 . S
O53 C52 1.258 . S
O54 Cd45 2.378 . S
O54 C52 1.256 . S
O55 Cd56 2.300 . S
O55 C62 1.275 . S
Cd56 O55 2.300 . S
Cd56 O64 2.381 . S
Cd56 O65 2.378 . S
O57 Cd58 2.385 . S
O57 C62 1.255 . S
Cd58 O57 2.385 . S
Cd58 O59 2.317 . S
O59 Cd58 2.317 . S
O59 C60 1.232 . S
C60 O59 1.232 . S
C60 O61 1.218 . S
O61 C60 1.218 . S
C62 O55 1.275 . S
C62 O57 1.255 . S
C63 O64 1.258 . S
C63 O65 1.256 . S
O64 Cd56 2.381 . S
O64 C63 1.258 . S
O65 Cd56 2.378 . S
O65 C63 1.256 . S
O66 Cd67 2.300 . S
O66 C73 1.275 . S
Cd67 O66 2.300 . S
Cd67 O75 2.381 . S
Cd67 O76 2.378 . S
O68 Cd69 2.385 . S
O68 C73 1.255 . S
Cd69 O68 2.385 . S
Cd69 O70 2.317 . S
O70 Cd69 2.317 . S
O70 C71 1.232 . S
C71 O70 1.232 . S
C71 O72 1.218 . S
O72 C71 1.218 . S
C73 O66 1.275 . S
C73 O68 1.255 . S
C74 O75 1.258 . S
C74 O76 1.256 . S
O75 Cd67 2.381 . S
O75 C74 1.258 . S
O76 Cd67 2.378 . S
O76 C74 1.256 . S
O77 Cd78 2.300 . S
O77 C84 1.275 . S
Cd78 O77 2.300 . S
Cd78 O86 2.381 . S
Cd78 O87 2.378 . S
O79 Cd80 2.385 . S
O79 C84 1.255 . S
Cd80 O79 2.385 . S
Cd80 O81 2.317 . S
O81 Cd80 2.317 . S
O81 C82 1.232 . S
C82 O81 1.232 . S
C82 O83 1.218 . S
O83 C82 1.218 . S
C84 O77 1.275 . S
C84 O79 1.255 . S
C85 O86 1.258 . S
C85 O87 1.256 . S
O86 Cd78 2.381 . S
O86 C85 1.258 . S
O87 Cd78 2.378 . S
O87 C85 1.256 . S
O88 Cd89 2.300 . S
O88 C95 1.275 . S
Cd89 O88 2.300 . S
Cd89 O97 2.381 . S
Cd89 O98 2.378 . S
O90 Cd91 2.385 . S
O90 C95 1.255 . S
Cd91 O90 2.385 . S
Cd91 O92 2.317 . S
O92 Cd91 2.317 . S
O92 C93 1.232 . S
C93 O92 1.232 . S
C93 O94 1.218 . S
O94 C93 1.218 . S
C95 O88 1.275 . S
C95 O90 1.255 . S
C96 O97 1.258 . S
C96 O98 1.256 . S
O97 Cd89 2.381 . S
O97 C96 1.258 . S
O98 Cd89 2.378 . S
O98 C96 1.256 . S
O99 Cd100 2.300 . S
O99 C106 1.275 . S
Cd100 O99 2.300 . S
Cd100 O108 2.381 . S
Cd100 O109 2.378 . S
O101 Cd102 2.385 . S
O101 C106 1.255 . S
Cd102 O101 2.385 . S
Cd102 O103 2.317 . S
O103 Cd102 2.317 . S
O103 C104 1.232 . S
C104 O103 1.232 . S
C104 O105 1.218 . S
O105 C104 1.218 . S
C106 O99 1.275 . S
C106 O101 1.255 . S
C107 O108 1.258 . S
C107 O109 1.256 . S
O108 Cd100 2.381 . S
O108 C107 1.258 . S
O109 Cd100 2.378 . S
O109 C107 1.256 . S
O110 Cd111 2.300 . S
O110 C117 1.275 . S
Cd111 O110 2.300 . S
Cd111 O119 2.381 . S
Cd111 O120 2.378 . S
O112 Cd113 2.385 . S
O112 C117 1.255 . S
Cd113 O112 2.385 . S
Cd113 O114 2.317 . S
O114 Cd113 2.317 . S
O114 C115 1.232 . S
C115 O114 1.232 . S
C115 O116 1.218 . S
O116 C115 1.218 . S
C117 O110 1.275 . S
C117 O112 1.255 . S
C118 O119 1.258 . S
C118 O120 1.256 . S
O119 Cd111 2.381 . S
O119 C118 1.258 . S
O120 Cd111 2.378 . S
O120 C118 1.256 . S
O121 Cd122 2.300 . S
O121 C128 1.275 . S
Cd122 O121 2.300 . S
Cd122 O130 2.381 . S
Cd122 O131 2.378 . S
O123 Cd124 2.385 . S
O123 C128 1.255 . S
Cd124 O123 2.385 . S
Cd124 O125 2.317 . S
O125 Cd124 2.317 . S
O125 C126 1.232 . S
C126 O125 1.232 . S
C126 O127 1.218 . S
O127 C126 1.218 . S
C128 O121 1.275 . S
C128 O123 1.255 . S
C129 O130 1.258 . S
C129 O131 1.256 . S
O130 Cd122 2.381 . S
O130 C129 1.258 . S
O131 Cd122 2.378 . S
O131 C129 1.256 . S
H132 C144 0.930 . S
H133 C146 0.930 . S
H134 C147 0.930 . S
H135 C151 0.959 . S
H136 C151 0.959 . S
H137 C151 0.961 . S
H138 C152 0.960 . S
H139 C152 0.961 . S
H140 C152 0.959 . S
H141 C155 0.929 . S
H142 C156 0.931 . S
H143 C158 0.930 . S
C144 H132 0.930 . S
C144 C145 1.399 . S
C144 C149 1.399 . S
C145 C144 1.399 . S
C145 C146 1.376 . S
C146 H133 0.930 . S
C146 C145 1.376 . S
C146 C147 1.388 . S
C147 H134 0.930 . S
C147 C146 1.388 . S
C147 C148 1.390 . S
C148 C147 1.390 . S
C148 C149 1.394 . S
C148 C154 1.465 . S
C149 C144 1.399 . S
C149 C148 1.394 . S
C149 C150 1.516 . S
C150 C149 1.516 . S
C150 C151 1.502 . S
C150 C152 1.561 . S
C150 C153 1.526 . S
C151 H135 0.959 . S
C151 H136 0.959 . S
C151 H137 0.961 . S
C151 C150 1.502 . S
C152 H138 0.960 . S
C152 H139 0.961 . S
C152 H140 0.959 . S
C152 C150 1.561 . S
C153 C150 1.526 . S
C153 C154 1.396 . S
C153 C158 1.390 . S
C154 C148 1.465 . S
C154 C153 1.396 . S
C154 C155 1.399 . S
C155 H141 0.929 . S
C155 C154 1.399 . S
C155 C156 1.385 . S
C156 H142 0.931 . S
C156 C155 1.385 . S
C156 C157 1.389 . S
C157 C156 1.389 . S
C157 C158 1.387 . S
C158 H143 0.930 . S
C158 C153 1.390 . S
C158 C157 1.387 . S
H159 C171 0.930 . S
H160 C173 0.930 . S
H161 C174 0.930 . S
H162 C178 0.959 . S
H163 C178 0.959 . S
H164 C178 0.961 . S
H165 C179 0.960 . S
H166 C179 0.961 . S
H167 C179 0.959 . S
H168 C182 0.929 . S
H169 C183 0.931 . S
H170 C185 0.930 . S
C171 H159 0.930 . S
C171 C172 1.399 . S
C171 C176 1.399 . S
C172 C171 1.399 . S
C172 C173 1.376 . S
C173 H160 0.930 . S
C173 C172 1.376 . S
C173 C174 1.388 . S
C174 H161 0.930 . S
C174 C173 1.388 . S
C174 C175 1.390 . S
C175 C174 1.390 . S
C175 C176 1.394 . S
C175 C181 1.465 . S
C176 C171 1.399 . S
C176 C175 1.394 . S
C176 C177 1.516 . S
C177 C176 1.516 . S
C177 C178 1.502 . S
C177 C179 1.561 . S
C177 C180 1.526 . S
C178 H162 0.959 . S
C178 H163 0.959 . S
C178 H164 0.961 . S
C178 C177 1.502 . S
C179 H165 0.960 . S
C179 H166 0.961 . S
C179 H167 0.959 . S
C179 C177 1.561 . S
C180 C177 1.526 . S
C180 C181 1.396 . S
C180 C185 1.390 . S
C181 C175 1.465 . S
C181 C180 1.396 . S
C181 C182 1.399 . S
C182 H168 0.929 . S
C182 C181 1.399 . S
C182 C183 1.385 . S
C183 H169 0.931 . S
C183 C182 1.385 . S
C183 C184 1.389 . S
C184 C183 1.389 . S
C184 C185 1.387 . S
C185 H170 0.930 . S
C185 C180 1.390 . S
C185 C184 1.387 . S
H186 C198 0.930 . S
H187 C200 0.930 . S
H188 C201 0.930 . S
H189 C205 0.959 . S
H190 C205 0.959 . S
H191 C205 0.961 . S
H192 C206 0.960 . S
H193 C206 0.961 . S
H194 C206 0.959 . S
H195 C209 0.929 . S
H196 C210 0.931 . S
H197 C212 0.930 . S
C198 H186 0.930 . S
C198 C199 1.399 . S
C198 C203 1.399 . S
C199 C198 1.399 . S
C199 C200 1.376 . S
C200 H187 0.930 . S
C200 C199 1.376 . S
C200 C201 1.388 . S
C201 H188 0.930 . S
C201 C200 1.388 . S
C201 C202 1.390 . S
C202 C201 1.390 . S
C202 C203 1.394 . S
C202 C208 1.465 . S
C203 C198 1.399 . S
C203 C202 1.394 . S
C203 C204 1.516 . S
C204 C203 1.516 . S
C204 C205 1.502 . S
C204 C206 1.561 . S
C204 C207 1.526 . S
C205 H189 0.959 . S
C205 H190 0.959 . S
C205 H191 0.961 . S
C205 C204 1.502 . S
C206 H192 0.960 . S
C206 H193 0.961 . S
C206 H194 0.959 . S
C206 C204 1.561 . S
C207 C204 1.526 . S
C207 C208 1.396 . S
C207 C212 1.390 . S
C208 C202 1.465 . S
C208 C207 1.396 . S
C208 C209 1.399 . S
C209 H195 0.929 . S
C209 C208 1.399 . S
C209 C210 1.385 . S
C210 H196 0.931 . S
C210 C209 1.385 . S
C210 C211 1.389 . S
C211 C210 1.389 . S
C211 C212 1.387 . S
C212 H197 0.930 . S
C212 C207 1.390 . S
C212 C211 1.387 . S
H213 C225 0.930 . S
H214 C227 0.930 . S
H215 C228 0.930 . S
H216 C232 0.959 . S
H217 C232 0.959 . S
H218 C232 0.961 . S
H219 C233 0.960 . S
H220 C233 0.961 . S
H221 C233 0.959 . S
H222 C236 0.929 . S
H223 C237 0.931 . S
H224 C239 0.930 . S
C225 H213 0.930 . S
C225 C226 1.399 . S
C225 C230 1.399 . S
C226 C225 1.399 . S
C226 C227 1.376 . S
C227 H214 0.930 . S
C227 C226 1.376 . S
C227 C228 1.388 . S
C228 H215 0.930 . S
C228 C227 1.388 . S
C228 C229 1.390 . S
C229 C228 1.390 . S
C229 C230 1.394 . S
C229 C235 1.465 . S
C230 C225 1.399 . S
C230 C229 1.394 . S
C230 C231 1.516 . S
C231 C230 1.516 . S
C231 C232 1.502 . S
C231 C233 1.561 . S
C231 C234 1.526 . S
C232 H216 0.959 . S
C232 H217 0.959 . S
C232 H218 0.961 . S
C232 C231 1.502 . S
C233 H219 0.960 . S
C233 H220 0.961 . S
C233 H221 0.959 . S
C233 C231 1.561 . S
C234 C231 1.526 . S
C234 C235 1.396 . S
C234 C239 1.390 . S
C235 C229 1.465 . S
C235 C234 1.396 . S
C235 C236 1.399 . S
C236 H222 0.929 . S
C236 C235 1.399 . S
C236 C237 1.385 . S
C237 H223 0.931 . S
C237 C236 1.385 . S
C237 C238 1.389 . S
C238 C237 1.389 . S
C238 C239 1.387 . S
C239 H224 0.930 . S
C239 C234 1.390 . S
C239 C238 1.387 . S
H240 C252 0.930 . S
H241 C254 0.930 . S
H242 C255 0.930 . S
H243 C259 0.959 . S
H244 C259 0.959 . S
H245 C259 0.961 . S
H246 C260 0.960 . S
H247 C260 0.961 . S
H248 C260 0.959 . S
H249 C263 0.929 . S
H250 C264 0.931 . S
H251 C266 0.930 . S
C252 H240 0.930 . S
C252 C253 1.399 . S
C252 C257 1.399 . S
C253 C252 1.399 . S
C253 C254 1.376 . S
C254 H241 0.930 . S
C254 C253 1.376 . S
C254 C255 1.388 . S
C255 H242 0.930 . S
C255 C254 1.388 . S
C255 C256 1.390 . S
C256 C255 1.390 . S
C256 C257 1.394 . S
C256 C262 1.465 . S
C257 C252 1.399 . S
C257 C256 1.394 . S
C257 C258 1.516 . S
C258 C257 1.516 . S
C258 C259 1.502 . S
C258 C260 1.561 . S
C258 C261 1.526 . S
C259 H243 0.959 . S
C259 H244 0.959 . S
C259 H245 0.961 . S
C259 C258 1.502 . S
C260 H246 0.960 . S
C260 H247 0.961 . S
C260 H248 0.959 . S
C260 C258 1.561 . S
C261 C258 1.526 . S
C261 C262 1.396 . S
C261 C266 1.390 . S
C262 C256 1.465 . S
C262 C261 1.396 . S
C262 C263 1.399 . S
C263 H249 0.929 . S
C263 C262 1.399 . S
C263 C264 1.385 . S
C264 H250 0.931 . S
C264 C263 1.385 . S
C264 C265 1.389 . S
C265 C264 1.389 . S
C265 C266 1.387 . S
C266 H251 0.930 . S
C266 C261 1.390 . S
C266 C265 1.387 . S
H267 C279 0.930 . S
H268 C281 0.930 . S
H269 C282 0.930 . S
H270 C286 0.959 . S
H271 C286 0.959 . S
H272 C286 0.961 . S
H273 C287 0.960 . S
H274 C287 0.961 . S
H275 C287 0.959 . S
H276 C290 0.929 . S
H277 C291 0.931 . S
H278 C293 0.930 . S
C279 H267 0.930 . S
C279 C280 1.399 . S
C279 C284 1.399 . S
C280 C279 1.399 . S
C280 C281 1.376 . S
C281 H268 0.930 . S
C281 C280 1.376 . S
C281 C282 1.388 . S
C282 H269 0.930 . S
C282 C281 1.388 . S
C282 C283 1.390 . S
C283 C282 1.390 . S
C283 C284 1.394 . S
C283 C289 1.465 . S
C284 C279 1.399 . S
C284 C283 1.394 . S
C284 C285 1.516 . S
C285 C284 1.516 . S
C285 C286 1.502 . S
C285 C287 1.561 . S
C285 C288 1.526 . S
C286 H270 0.959 . S
C286 H271 0.959 . S
C286 H272 0.961 . S
C286 C285 1.502 . S
C287 H273 0.960 . S
C287 H274 0.961 . S
C287 H275 0.959 . S
C287 C285 1.561 . S
C288 C285 1.526 . S
C288 C289 1.396 . S
C288 C293 1.390 . S
C289 C283 1.465 . S
C289 C288 1.396 . S
C289 C290 1.399 . S
C290 H276 0.929 . S
C290 C289 1.399 . S
C290 C291 1.385 . S
C291 H277 0.931 . S
C291 C290 1.385 . S
C291 C292 1.389 . S
C292 C291 1.389 . S
C292 C293 1.387 . S
C293 H278 0.930 . S
C293 C288 1.390 . S
C293 C292 1.387 . S
H294 C306 0.930 . S
H295 C308 0.930 . S
H296 C309 0.930 . S
H297 C313 0.959 . S
H298 C313 0.959 . S
H299 C313 0.961 . S
H300 C314 0.960 . S
H301 C314 0.961 . S
H302 C314 0.959 . S
H303 C317 0.929 . S
H304 C318 0.931 . S
H305 C320 0.930 . S
C306 H294 0.930 . S
C306 C307 1.399 . S
C306 C311 1.399 . S
C307 C306 1.399 . S
C307 C308 1.376 . S
C308 H295 0.930 . S
C308 C307 1.376 . S
C308 C309 1.388 . S
C309 H296 0.930 . S
C309 C308 1.388 . S
C309 C310 1.390 . S
C310 C309 1.390 . S
C310 C311 1.394 . S
C310 C316 1.465 . S
C311 C306 1.399 . S
C311 C310 1.394 . S
C311 C312 1.516 . S
C312 C311 1.516 . S
C312 C313 1.502 . S
C312 C314 1.561 . S
C312 C315 1.526 . S
C313 H297 0.959 . S
C313 H298 0.959 . S
C313 H299 0.961 . S
C313 C312 1.502 . S
C314 H300 0.960 . S
C314 H301 0.961 . S
C314 H302 0.959 . S
C314 C312 1.561 . S
C315 C312 1.526 . S
C315 C316 1.396 . S
C315 C320 1.390 . S
C316 C310 1.465 . S
C316 C315 1.396 . S
C316 C317 1.399 . S
C317 H303 0.929 . S
C317 C316 1.399 . S
C317 C318 1.385 . S
C318 H304 0.931 . S
C318 C317 1.385 . S
C318 C319 1.389 . S
C319 C318 1.389 . S
C319 C320 1.387 . S
C320 H305 0.930 . S
C320 C315 1.390 . S
C320 C319 1.387 . S
H321 C333 0.930 . S
H322 C335 0.930 . S
H323 C336 0.930 . S
H324 C340 0.959 . S
H325 C340 0.959 . S
H326 C340 0.961 . S
H327 C341 0.960 . S
H328 C341 0.961 . S
H329 C341 0.959 . S
H330 C344 0.929 . S
H331 C345 0.931 . S
H332 C347 0.930 . S
C333 H321 0.930 . S
C333 C334 1.399 . S
C333 C338 1.399 . S
C334 C333 1.399 . S
C334 C335 1.376 . S
C335 H322 0.930 . S
C335 C334 1.376 . S
C335 C336 1.388 . S
C336 H323 0.930 . S
C336 C335 1.388 . S
C336 C337 1.390 . S
C337 C336 1.390 . S
C337 C338 1.394 . S
C337 C343 1.465 . S
C338 C333 1.399 . S
C338 C337 1.394 . S
C338 C339 1.516 . S
C339 C338 1.516 . S
C339 C340 1.502 . S
C339 C341 1.561 . S
C339 C342 1.526 . S
C340 H324 0.959 . S
C340 H325 0.959 . S
C340 H326 0.961 . S
C340 C339 1.502 . S
C341 H327 0.960 . S
C341 H328 0.961 . S
C341 H329 0.959 . S
C341 C339 1.561 . S
C342 C339 1.526 . S
C342 C343 1.396 . S
C342 C347 1.390 . S
C343 C337 1.465 . S
C343 C342 1.396 . S
C343 C344 1.399 . S
C344 H330 0.929 . S
C344 C343 1.399 . S
C344 C345 1.385 . S
C345 H331 0.931 . S
C345 C344 1.385 . S
C345 C346 1.389 . S
C346 C345 1.389 . S
C346 C347 1.387 . S
C347 H332 0.930 . S
C347 C342 1.390 . S
C347 C346 1.387 . S
H348 C360 0.930 . S
H349 C362 0.930 . S
H350 C363 0.930 . S
H351 C367 0.959 . S
H352 C367 0.959 . S
H353 C367 0.961 . S
H354 C368 0.960 . S
H355 C368 0.961 . S
H356 C368 0.959 . S
H357 C371 0.929 . S
H358 C372 0.931 . S
H359 C374 0.930 . S
C360 H348 0.930 . S
C360 C361 1.399 . S
C360 C365 1.399 . S
C361 C360 1.399 . S
C361 C362 1.376 . S
C362 H349 0.930 . S
C362 C361 1.376 . S
C362 C363 1.388 . S
C363 H350 0.930 . S
C363 C362 1.388 . S
C363 C364 1.390 . S
C364 C363 1.390 . S
C364 C365 1.394 . S
C364 C370 1.465 . S
C365 C360 1.399 . S
C365 C364 1.394 . S
C365 C366 1.516 . S
C366 C365 1.516 . S
C366 C367 1.502 . S
C366 C368 1.561 . S
C366 C369 1.526 . S
C367 H351 0.959 . S
C367 H352 0.959 . S
C367 H353 0.961 . S
C367 C366 1.502 . S
C368 H354 0.960 . S
C368 H355 0.961 . S
C368 H356 0.959 . S
C368 C366 1.561 . S
C369 C366 1.526 . S
C369 C370 1.396 . S
C369 C374 1.390 . S
C370 C364 1.465 . S
C370 C369 1.396 . S
C370 C371 1.399 . S
C371 H357 0.929 . S
C371 C370 1.399 . S
C371 C372 1.385 . S
C372 H358 0.931 . S
C372 C371 1.385 . S
C372 C373 1.389 . S
C373 C372 1.389 . S
C373 C374 1.387 . S
C374 H359 0.930 . S
C374 C369 1.390 . S
C374 C373 1.387 . S
H375 C387 0.930 . S
H376 C389 0.930 . S
H377 C390 0.930 . S
H378 C394 0.959 . S
H379 C394 0.959 . S
H380 C394 0.961 . S
H381 C395 0.960 . S
H382 C395 0.961 . S
H383 C395 0.959 . S
H384 C398 0.929 . S
H385 C399 0.931 . S
H386 C401 0.930 . S
C387 H375 0.930 . S
C387 C388 1.399 . S
C387 C392 1.399 . S
C388 C387 1.399 . S
C388 C389 1.376 . S
C389 H376 0.930 . S
C389 C388 1.376 . S
C389 C390 1.388 . S
C390 H377 0.930 . S
C390 C389 1.388 . S
C390 C391 1.390 . S
C391 C390 1.390 . S
C391 C392 1.394 . S
C391 C397 1.465 . S
C392 C387 1.399 . S
C392 C391 1.394 . S
C392 C393 1.516 . S
C393 C392 1.516 . S
C393 C394 1.502 . S
C393 C395 1.561 . S
C393 C396 1.526 . S
C394 H378 0.959 . S
C394 H379 0.959 . S
C394 H380 0.961 . S
C394 C393 1.502 . S
C395 H381 0.960 . S
C395 H382 0.961 . S
C395 H383 0.959 . S
C395 C393 1.561 . S
C396 C393 1.526 . S
C396 C397 1.396 . S
C396 C401 1.390 . S
C397 C391 1.465 . S
C397 C396 1.396 . S
C397 C398 1.399 . S
C398 H384 0.929 . S
C398 C397 1.399 . S
C398 C399 1.385 . S
C399 H385 0.931 . S
C399 C398 1.385 . S
C399 C400 1.389 . S
C400 C399 1.389 . S
C400 C401 1.387 . S
C401 H386 0.930 . S
C401 C396 1.390 . S
C401 C400 1.387 . S
H402 C414 0.930 . S
H403 C416 0.930 . S
H404 C417 0.930 . S
H405 C421 0.959 . S
H406 C421 0.959 . S
H407 C421 0.961 . S
H408 C422 0.960 . S
H409 C422 0.961 . S
H410 C422 0.959 . S
H411 C425 0.929 . S
H412 C426 0.931 . S
H413 C428 0.930 . S
C414 H402 0.930 . S
C414 C415 1.399 . S
C414 C419 1.399 . S
C415 C414 1.399 . S
C415 C416 1.376 . S
C416 H403 0.930 . S
C416 C415 1.376 . S
C416 C417 1.388 . S
C417 H404 0.930 . S
C417 C416 1.388 . S
C417 C418 1.390 . S
C418 C417 1.390 . S
C418 C419 1.394 . S
C418 C424 1.465 . S
C419 C414 1.399 . S
C419 C418 1.394 . S
C419 C420 1.516 . S
C420 C419 1.516 . S
C420 C421 1.502 . S
C420 C422 1.561 . S
C420 C423 1.526 . S
C421 H405 0.959 . S
C421 H406 0.959 . S
C421 H407 0.961 . S
C421 C420 1.502 . S
C422 H408 0.960 . S
C422 H409 0.961 . S
C422 H410 0.959 . S
C422 C420 1.561 . S
C423 C420 1.526 . S
C423 C424 1.396 . S
C423 C428 1.390 . S
C424 C418 1.465 . S
C424 C423 1.396 . S
C424 C425 1.399 . S
C425 H411 0.929 . S
C425 C424 1.399 . S
C425 C426 1.385 . S
C426 H412 0.931 . S
C426 C425 1.385 . S
C426 C427 1.389 . S
C427 C426 1.389 . S
C427 C428 1.387 . S
C428 H413 0.930 . S
C428 C423 1.390 . S
C428 C427 1.387 . S
H429 C441 0.930 . S
H430 C443 0.930 . S
H431 C444 0.930 . S
H432 C448 0.959 . S
H433 C448 0.959 . S
H434 C448 0.961 . S
H435 C449 0.960 . S
H436 C449 0.961 . S
H437 C449 0.959 . S
H438 C452 0.929 . S
H439 C453 0.931 . S
H440 C455 0.930 . S
C441 H429 0.930 . S
C441 C442 1.399 . S
C441 C446 1.399 . S
C442 C441 1.399 . S
C442 C443 1.376 . S
C443 H430 0.930 . S
C443 C442 1.376 . S
C443 C444 1.388 . S
C444 H431 0.930 . S
C444 C443 1.388 . S
C444 C445 1.390 . S
C445 C444 1.390 . S
C445 C446 1.394 . S
C445 C451 1.465 . S
C446 C441 1.399 . S
C446 C445 1.394 . S
C446 C447 1.516 . S
C447 C446 1.516 . S
C447 C448 1.502 . S
C447 C449 1.561 . S
C447 C450 1.526 . S
C448 H432 0.959 . S
C448 H433 0.959 . S
C448 H434 0.961 . S
C448 C447 1.502 . S
C449 H435 0.960 . S
C449 H436 0.961 . S
C449 H437 0.959 . S
C449 C447 1.561 . S
C450 C447 1.526 . S
C450 C451 1.396 . S
C450 C455 1.390 . S
C451 C445 1.465 . S
C451 C450 1.396 . S
C451 C452 1.399 . S
C452 H438 0.929 . S
C452 C451 1.399 . S
C452 C453 1.385 . S
C453 H439 0.931 . S
C453 C452 1.385 . S
C453 C454 1.389 . S
C454 C453 1.389 . S
C454 C455 1.387 . S
C455 H440 0.930 . S
C455 C450 1.390 . S
C455 C454 1.387 . S
H456 C468 0.930 1_556 S
H457 C470 0.930 . S
H458 C471 0.930 . S
H459 C475 0.959 . S
H460 C475 0.959 . S
H461 C475 0.961 . S
H462 C476 0.960 . S
H463 C476 0.961 . S
H464 C476 0.959 . S
H465 C479 0.929 . S
H466 C480 0.931 1_554 S
H467 C482 0.930 . S
C468 H456 0.930 1_554 S
C468 C469 1.399 . S
C468 C473 1.399 1_554 S
C469 C468 1.399 . S
C469 C470 1.376 . S
C470 H457 0.930 . S
C470 C469 1.376 . S
C470 C471 1.388 . S
C471 H458 0.930 . S
C471 C470 1.388 . S
C471 C472 1.390 . S
C472 C471 1.390 . S
C472 C473 1.394 1_554 S
C472 C478 1.465 1_545 S
C473 C468 1.399 1_556 S
C473 C472 1.394 1_556 S
C473 C474 1.516 . S
C474 C473 1.516 . S
C474 C475 1.502 . S
C474 C476 1.561 . S
C474 C477 1.526 1_545 S
C475 H459 0.959 . S
C475 H460 0.959 . S
C475 H461 0.961 . S
C475 C474 1.502 . S
C476 H462 0.960 . S
C476 H463 0.961 . S
C476 H464 0.959 . S
C476 C474 1.561 . S
C477 C474 1.526 1_565 S
C477 C478 1.396 1_556 S
C477 C482 1.390 . S
C478 C472 1.465 1_565 S
C478 C477 1.396 1_554 S
C478 C479 1.399 . S
C479 H465 0.929 . S
C479 C478 1.399 . S
C479 C480 1.385 1_554 S
C480 H466 0.931 1_556 S
C480 C479 1.385 1_556 S
C480 C481 1.389 . S
C481 C480 1.389 . S
C481 C482 1.387 . S
C482 H467 0.930 . S
C482 C477 1.390 . S
C482 C481 1.387 . S
H483 C495 0.930 . S
H484 C497 0.930 . S
H485 C498 0.930 . S
H486 C502 0.959 . S
H487 C502 0.959 . S
H488 C502 0.961 . S
H489 C503 0.960 . S
H490 C503 0.961 . S
H491 C503 0.959 . S
H492 C506 0.929 . S
H493 C507 0.931 . S
H494 C509 0.930 . S
C495 H483 0.930 . S
C495 C496 1.399 . S
C495 C500 1.399 . S
C496 C495 1.399 . S
C496 C497 1.376 . S
C497 H484 0.930 . S
C497 C496 1.376 . S
C497 C498 1.388 . S
C498 H485 0.930 . S
C498 C497 1.388 . S
C498 C499 1.390 . S
C499 C498 1.390 . S
C499 C500 1.394 . S
C499 C505 1.465 . S
C500 C495 1.399 . S
C500 C499 1.394 . S
C500 C501 1.516 . S
C501 C500 1.516 . S
C501 C502 1.502 . S
C501 C503 1.561 . S
C501 C504 1.526 . S
C502 H486 0.959 . S
C502 H487 0.959 . S
C502 H488 0.961 . S
C502 C501 1.502 . S
C503 H489 0.960 . S
C503 H490 0.961 . S
C503 H491 0.959 . S
C503 C501 1.561 . S
C504 C501 1.526 . S
C504 C505 1.396 . S
C504 C509 1.390 . S
C505 C499 1.465 . S
C505 C504 1.396 . S
C505 C506 1.399 . S
C506 H492 0.929 . S
C506 C505 1.399 . S
C506 C507 1.385 . S
C507 H493 0.931 . S
C507 C506 1.385 . S
C507 C508 1.389 . S
C508 C507 1.389 . S
C508 C509 1.387 . S
C509 H494 0.930 . S
C509 C504 1.390 . S
C509 C508 1.387 . S
H510 C522 0.930 . S
H511 C524 0.930 . S
H512 C525 0.930 . S
H513 C529 0.959 . S
H514 C529 0.959 . S
H515 C529 0.961 . S
H516 C530 0.960 . S
H517 C530 0.961 . S
H518 C530 0.959 . S
H519 C533 0.929 . S
H520 C534 0.931 . S
H521 C536 0.930 . S
C522 H510 0.930 . S
C522 C523 1.399 . S
C522 C527 1.399 . S
C523 C522 1.399 . S
C523 C524 1.376 . S
C524 H511 0.930 . S
C524 C523 1.376 . S
C524 C525 1.388 . S
C525 H512 0.930 . S
C525 C524 1.388 . S
C525 C526 1.390 . S
C526 C525 1.390 . S
C526 C527 1.394 . S
C526 C532 1.465 1_455 S
C527 C522 1.399 . S
C527 C526 1.394 . S
C527 C528 1.516 . S
C528 C527 1.516 . S
C528 C529 1.502 . S
C528 C530 1.561 . S
C528 C531 1.526 1_455 S
C529 H513 0.959 . S
C529 H514 0.959 . S
C529 H515 0.961 . S
C529 C528 1.502 . S
C530 H516 0.960 . S
C530 H517 0.961 . S
C530 H518 0.959 . S
C530 C528 1.561 . S
C531 C528 1.526 1_655 S
C531 C532 1.396 . S
C531 C536 1.390 . S
C532 C526 1.465 1_655 S
C532 C531 1.396 . S
C532 C533 1.399 . S
C533 H519 0.929 . S
C533 C532 1.399 . S
C533 C534 1.385 . S
C534 H520 0.931 . S
C534 C533 1.385 . S
C534 C535 1.389 . S
C535 C534 1.389 . S
C535 C536 1.387 . S
C536 H521 0.930 . S
C536 C531 1.390 . S
C536 C535 1.387 . S
H537 C549 0.930 . S
H538 C551 0.930 . S
H539 C552 0.930 . S
H540 C556 0.959 . S
H541 C556 0.959 . S
H542 C556 0.961 . S
H543 C557 0.960 . S
H544 C557 0.961 . S
H545 C557 0.959 . S
H546 C560 0.929 . S
H547 C561 0.931 . S
H548 C563 0.930 . S
C549 H537 0.930 . S
C549 C550 1.399 . S
C549 C554 1.399 . S
C550 C549 1.399 . S
C550 C551 1.376 . S
C551 H538 0.930 . S
C551 C550 1.376 . S
C551 C552 1.388 . S
C552 H539 0.930 . S
C552 C551 1.388 . S
C552 C553 1.390 . S
C553 C552 1.390 . S
C553 C554 1.394 . S
C553 C559 1.465 1_545 S
C554 C549 1.399 . S
C554 C553 1.394 . S
C554 C555 1.516 . S
C555 C554 1.516 . S
C555 C556 1.502 . S
C555 C557 1.561 . S
C555 C558 1.526 1_545 S
C556 H540 0.959 . S
C556 H541 0.959 . S
C556 H542 0.961 . S
C556 C555 1.502 . S
C557 H543 0.960 . S
C557 H544 0.961 . S
C557 H545 0.959 . S
C557 C555 1.561 . S
C558 C555 1.526 1_565 S
C558 C559 1.396 . S
C558 C563 1.390 . S
C559 C553 1.465 1_565 S
C559 C558 1.396 . S
C559 C560 1.399 . S
C560 H546 0.929 . S
C560 C559 1.399 . S
C560 C561 1.385 . S
C561 H547 0.931 . S
C561 C560 1.385 . S
C561 C562 1.389 . S
C562 C561 1.389 . S
C562 C563 1.387 . S
C563 H548 0.930 . S
C563 C558 1.390 . S
C563 C562 1.387 . S
H564 C576 0.930 . S
H565 C578 0.930 . S
H566 C579 0.930 . S
H567 C583 0.959 . S
H568 C583 0.959 . S
H569 C583 0.961 . S
H570 C584 0.960 . S
H571 C584 0.961 . S
H572 C584 0.959 . S
H573 C587 0.929 . S
H574 C588 0.931 . S
H575 C590 0.930 . S
C576 H564 0.930 . S
C576 C577 1.399 . S
C576 C581 1.399 . S
C577 C576 1.399 . S
C577 C578 1.376 . S
C578 H565 0.930 . S
C578 C577 1.376 . S
C578 C579 1.388 . S
C579 H566 0.930 . S
C579 C578 1.388 . S
C579 C580 1.390 . S
C580 C579 1.390 . S
C580 C581 1.394 . S
C580 C586 1.465 . S
C581 C576 1.399 . S
C581 C580 1.394 . S
C581 C582 1.516 . S
C582 C581 1.516 . S
C582 C583 1.502 . S
C582 C584 1.561 . S
C582 C585 1.526 . S
C583 H567 0.959 . S
C583 H568 0.959 . S
C583 H569 0.961 . S
C583 C582 1.502 . S
C584 H570 0.960 . S
C584 H571 0.961 . S
C584 H572 0.959 . S
C584 C582 1.561 . S
C585 C582 1.526 . S
C585 C586 1.396 . S
C585 C590 1.390 . S
C586 C580 1.465 . S
C586 C585 1.396 . S
C586 C587 1.399 . S
C587 H573 0.929 . S
C587 C586 1.399 . S
C587 C588 1.385 . S
C588 H574 0.931 . S
C588 C587 1.385 . S
C588 C589 1.389 . S
C589 C588 1.389 . S
C589 C590 1.387 . S
C590 H575 0.930 . S
C590 C585 1.390 . S
C590 C589 1.387 . S
H591 C603 0.930 . S
H592 C605 0.930 . S
H593 C606 0.930 . S
H594 C610 0.959 . S
H595 C610 0.959 . S
H596 C610 0.961 . S
H597 C611 0.960 . S
H598 C611 0.961 . S
H599 C611 0.959 . S
H600 C614 0.929 . S
H601 C615 0.931 . S
H602 C617 0.930 . S
C603 H591 0.930 . S
C603 C604 1.399 . S
C603 C608 1.399 . S
C604 C603 1.399 . S
C604 C605 1.376 . S
C605 H592 0.930 . S
C605 C604 1.376 . S
C605 C606 1.388 . S
C606 H593 0.930 . S
C606 C605 1.388 . S
C606 C607 1.390 . S
C607 C606 1.390 . S
C607 C608 1.394 . S
C607 C613 1.465 1_655 S
C608 C603 1.399 . S
C608 C607 1.394 . S
C608 C609 1.516 . S
C609 C608 1.516 . S
C609 C610 1.502 . S
C609 C611 1.561 . S
C609 C612 1.526 1_655 S
C610 H594 0.959 . S
C610 H595 0.959 . S
C610 H596 0.961 . S
C610 C609 1.502 . S
C611 H597 0.960 . S
C611 H598 0.961 . S
C611 H599 0.959 . S
C611 C609 1.561 . S
C612 C609 1.526 1_455 S
C612 C613 1.396 . S
C612 C617 1.390 . S
C613 C607 1.465 1_455 S
C613 C612 1.396 . S
C613 C614 1.399 . S
C614 H600 0.929 . S
C614 C613 1.399 . S
C614 C615 1.385 . S
C615 H601 0.931 . S
C615 C614 1.385 . S
C615 C616 1.389 . S
C616 C615 1.389 . S
C616 C617 1.387 . S
C617 H602 0.930 . S
C617 C612 1.390 . S
C617 C616 1.387 . S
C145 C7 1.490 . S
C157 C117 1.523 . S
C172 C128 1.509 . S
C184 C18 1.493 . S
C199 C73 1.558 . S
C211 C29 1.508 . S
C226 C40 1.580 . S
C238 C84 1.552 . S
C253 C95 1.562 1_556 S
C265 C51 1.579 . S
C280 C62 1.510 1_554 S
C292 C106 1.493 . S
C307 C5 1.400 . S
C319 C93 1.317 . S
C334 C104 1.398 . S
C346 C16 1.341 . S
C361 C27 1.245 . S
C373 C115 1.337 . S
C388 C126 1.252 . S
C400 C38 1.358 . S
C415 C49 1.325 . S
C427 C71 1.399 . S
C442 C60 1.400 . S
C454 C82 1.326 . S
C469 C8 1.584 . S
C481 C85 1.607 . S
C496 C96 1.581 . S
C508 C19 1.607 . S
C523 C107 1.565 . S
C535 C30 1.597 . S
C550 C118 1.564 . S
C562 C41 1.596 . S
C577 C52 1.570 . S
C589 C129 1.601 . S
C604 C74 1.563 . S
C616 C63 1.596 . S
