# Generated by pormake.
# Topology snz, (6)-cn, num edge types: 1
# Building blocks:
#     Node 0, Type 0, BuildingBlock: KUMBOL_clean_sbu_0, # of connection points: 6
#     Node 1, Type 0, BuildingBlock: KUMBOL_clean_sbu_0, # of connection points: 6
#     Node 2, Type 0, BuildingBlock: KUMBOL_clean_sbu_0, # of connection points: 6
#     Node 3, Type 0, BuildingBlock: KUMBOL_clean_sbu_0, # of connection points: 6
#     Node 4, Type 0, BuildingBlock: KUMBOL_clean_sbu_0, # of connection points: 6
#     Node 5, Type 0, BuildingBlock: KUMBOL_clean_sbu_0, # of connection points: 6
#     Node 6, Type 0, BuildingBlock: KUMBOL_clean_sbu_0, # of connection points: 6
#     Node 7, Type 0, BuildingBlock: KUMBOL_clean_sbu_0, # of connection points: 6
#     Node 8, Type 0, BuildingBlock: KUMBOL_clean_sbu_0, # of connection points: 6
#     Edge 9, Type (0, 0), BuildingBlock: CIFDUS_clean_linker_0, # of connection points: 2
#     Edge 10, Type (0, 0), BuildingBlock: CIFDUS_clean_linker_0, # of connection points: 2
#     Edge 11, Type (0, 0), BuildingBlock: CIFDUS_clean_linker_0, # of connection points: 2
#     Edge 12, Type (0, 0), BuildingBlock: CIFDUS_clean_linker_0, # of connection points: 2
#     Edge 13, Type (0, 0), BuildingBlock: CIFDUS_clean_linker_0, # of connection points: 2
#     Edge 14, Type (0, 0), BuildingBlock: CIFDUS_clean_linker_0, # of connection points: 2
#     Edge 15, Type (0, 0), BuildingBlock: CIFDUS_clean_linker_0, # of connection points: 2
#     Edge 16, Type (0, 0), BuildingBlock: CIFDUS_clean_linker_0, # of connection points: 2
#     Edge 17, Type (0, 0), BuildingBlock: CIFDUS_clean_linker_0, # of connection points: 2
#     Edge 18, Type (0, 0), BuildingBlock: CIFDUS_clean_linker_0, # of connection points: 2
#     Edge 19, Type (0, 0), BuildingBlock: CIFDUS_clean_linker_0, # of connection points: 2
#     Edge 20, Type (0, 0), BuildingBlock: CIFDUS_clean_linker_0, # of connection points: 2
#     Edge 21, Type (0, 0), BuildingBlock: CIFDUS_clean_linker_0, # of connection points: 2
#     Edge 22, Type (0, 0), BuildingBlock: CIFDUS_clean_linker_0, # of connection points: 2
#     Edge 23, Type (0, 0), BuildingBlock: CIFDUS_clean_linker_0, # of connection points: 2
#     Edge 24, Type (0, 0), BuildingBlock: CIFDUS_clean_linker_0, # of connection points: 2
#     Edge 25, Type (0, 0), BuildingBlock: CIFDUS_clean_linker_0, # of connection points: 2
#     Edge 26, Type (0, 0), BuildingBlock: CIFDUS_clean_linker_0, # of connection points: 2
#     Edge 27, Type (0, 0), BuildingBlock: CIFDUS_clean_linker_0, # of connection points: 2
#     Edge 28, Type (0, 0), BuildingBlock: CIFDUS_clean_linker_0, # of connection points: 2
#     Edge 29, Type (0, 0), BuildingBlock: CIFDUS_clean_linker_0, # of connection points: 2
#     Edge 30, Type (0, 0), BuildingBlock: CIFDUS_clean_linker_0, # of connection points: 2
#     Edge 31, Type (0, 0), BuildingBlock: CIFDUS_clean_linker_0, # of connection points: 2
#     Edge 32, Type (0, 0), BuildingBlock: CIFDUS_clean_linker_0, # of connection points: 2
#     Edge 33, Type (0, 0), BuildingBlock: CIFDUS_clean_linker_0, # of connection points: 2
#     Edge 34, Type (0, 0), BuildingBlock: CIFDUS_clean_linker_0, # of connection points: 2
#     Edge 35, Type (0, 0), BuildingBlock: CIFDUS_clean_linker_0, # of connection points: 2
# Relax obj value: 0.315
# Max RMSD: 0.310
# Mean RMSD: 0.210
data_MOF--net-snz--node1-KUMBOL_clean_sbu_0--edge1-CIFDUS_clean_linker_0
_symmetry_space_group_name_H-M    P1
_symmetry_Int_Tables_number       1
_symmetry_cell_setting            triclinic
loop_
_symmetry_equiv_pos_as_xyz
'x, y, z'
_cell_length_a     54.895688
_cell_length_b     49.737256
_cell_length_c     14.834908
_cell_angle_alpha  93.443776
_cell_angle_beta   94.884019
_cell_angle_gamma 120.50536
loop_
_atom_site_label
_atom_site_type_symbol
_atom_site_fract_x
_atom_site_fract_y
_atom_site_fract_z
_atom_type_partial_charge
Gd0 Gd 0.05053 0.47655 0.20202 0.0
Gd1 Gd 0.11772 0.48 0.24 0.0
C2 C 0.19137 0.58241 0.31537 0.0
C3 C 0.21442 0.59279 0.17882 0.0
C4 C 0.17332 0.54102 0.18914 0.0
C5 C 0.1713 0.55126 0.27566 0.0
C6 C 0.19574 0.56141 0.14174 0.0
C7 C 0.21222 0.60327 0.26543 0.0
C8 C 0.19036 0.59166 0.40494 0.0
C9 C 0.17048 0.56992 0.45412 0.0
N10 N 0.15081 0.53055 0.32276 0.0
C11 C 0.15114 0.5394 0.4127 0.0
H12 H 0.1367 0.52387 0.45513 0.0
C13 C 0.1612 0.498 0.08098 0.0
N14 N 0.15519 0.51047 0.15486 0.0
C15 C 0.18293 0.51725 1.03158 0.0
C16 C 0.19978 0.5493 1.06066 0.0
H17 H 0.14882 0.47307 1.05834 0.0
H18 H 0.22736 0.62732 0.29446 0.0
H19 H 0.02206 0.42416 1.01557 0.0
H20 H 0.20536 0.61524 0.43768 0.0
H21 H 0.16999 0.57664 0.52443 0.0
H22 H 0.23138 0.60881 0.14256 0.0
H23 H 0.02694 0.50187 0.36771 0.0
H24 H 0.95041 0.33937 0.07638 0.0
H25 H 0.98246 0.36989 0.96677 0.0
H26 H 0.93644 0.36953 0.37064 0.0
H27 H 0.18675 0.50727 0.97142 0.0
H28 H 0.21677 0.56417 1.02263 0.0
H29 H 0.93427 0.3389 0.23035 0.0
H30 H 0.98965 0.48034 0.46941 0.0
N31 N 0.01308 0.42438 0.15225 0.0
C32 C 0.9678 0.36321 0.09826 0.0
C33 C 0.98573 0.38042 1.03608 0.0
C34 C 0.97144 0.37771 0.18614 0.0
C35 C 0.99435 0.40888 0.21078 0.0
C36 C 0.0082 0.41124 1.06413 0.0
N37 N 0.01552 0.45699 0.30224 0.0
C38 C 0.99568 0.42588 0.28939 0.0
C39 C 0.99135 0.46466 0.41998 0.0
C40 C 0.97266 0.43223 0.41385 0.0
C41 C 0.01248 0.47677 0.36242 0.0
C42 C 0.974 0.41248 0.34578 0.0
H43 H 0.95621 0.42292 0.45811 0.0
O44 O 0.04126 0.51444 0.19389 0.0
O45 O 0.09825 0.51025 0.22159 0.0
O46 O 0.10258 0.47679 0.38767 0.0
O47 O 0.05717 0.4694 0.36107 0.0
O48 O 0.0738 0.52055 0.29973 0.0
O49 O 0.02345 0.47687 0.08613 0.0
O50 O 0.13244 0.44816 0.19818 0.0
O51 O 0.07213 0.44982 0.17776 0.0
O52 O 0.06456 0.47746 1.05231 0.0
O53 O 0.10635 0.47625 0.07575 0.0
O54 O 0.08678 0.43062 0.27002 0.0
O55 O 0.14642 0.47311 0.33355 0.0
C56 C 0.09917 0.53094 0.2801 0.0
C57 C 0.95293 0.38045 0.3271 0.0
C58 C 0.95167 0.36302 0.24716 0.0
C59 C 0.02363 0.50165 0.11917 0.0
C60 C 0.99532 0.49871 0.11883 0.0
C61 C 0.97398 0.4742 0.15894 0.0
C62 C 0.98908 0.51975 0.07718 0.0
C63 C 0.96206 0.51674 0.07923 0.0
C64 C 0.94757 0.47151 0.16243 0.0
C65 C 0.94169 0.49274 0.12357 0.0
C66 C 0.07894 0.47259 0.42128 0.0
C67 C 0.06553 0.42463 0.21175 0.0
C68 C 0.14777 0.45309 0.27636 0.0
C69 C 0.17605 0.45554 0.27641 0.0
C70 C 0.199 0.48231 0.24964 0.0
C71 C 0.18058 0.43144 0.30567 0.0
C72 C 0.20754 0.43388 0.30454 0.0
C73 C 0.22539 0.48469 0.24774 0.0
C74 C 0.22958 0.4607 0.27411 0.0
C75 C 0.08607 0.47658 1.0166 0.0
H76 H 0.9775 0.4568 0.18667 0.0
H77 H 0.00503 0.53828 1.04361 0.0
H78 H 0.93145 0.45262 0.19437 0.0
H79 H 0.9208 0.48982 0.12566 0.0
H80 H 0.1967 0.50161 0.2309 0.0
H81 H 0.16324 0.41088 0.32838 0.0
H82 H 0.24283 0.50545 0.22624 0.0
H83 H 0.25043 0.46345 0.27261 0.0
Gd84 Gd 0.63975 0.47019 0.11239 0.0
Gd85 Gd 0.63472 0.5401 0.13921 0.0
C86 C 0.5411 0.50979 0.15535 0.0
C87 C 0.52385 0.50926 0.99906 0.0
C88 C 0.57372 0.52579 1.04296 0.0
C89 C 0.56838 0.5192 0.13047 0.0
C90 C 0.5519 0.52314 0.9783 0.0
C91 C 0.51844 0.50263 0.08796 0.0
C92 C 0.53794 0.51039 0.24776 0.0
C93 C 0.56195 0.52216 0.31262 0.0
N94 N 0.59096 0.52717 0.19419 0.0
C95 C 0.58843 0.5309 0.28464 0.0
H96 H 0.60664 0.54092 0.33654 0.0
C97 C 0.60899 0.55958 0.95851 0.0
N98 N 0.6013 0.54074 1.0272 0.0
C99 C 0.58826 0.55738 0.89167 0.0
C100 C 0.55946 0.53779 0.89937 0.0
H101 H 0.63126 0.57519 0.95232 0.0
H102 H 0.49719 0.49434 0.10538 0.0
H103 H 0.68742 0.49661 0.96021 0.0
H104 H 0.51745 0.50357 0.26965 0.0
H105 H 0.56011 0.52441 0.38437 0.0
H106 H 0.50671 0.50619 0.94936 0.0
H107 H 0.62096 0.42709 0.2911 0.0
H108 H 0.76303 0.49996 0.07174 0.0
H109 H 0.73578 0.50874 0.94867 0.0
H110 H 0.73897 0.45329 0.34719 0.0
H111 H 0.59455 0.57092 0.83462 0.0
H112 H 0.54344 0.5365 0.84836 0.0
H113 H 0.76443 0.48049 0.2224 0.0
H114 H 0.64225 0.40854 0.40503 0.0
N115 N 0.68662 0.48246 0.09367 0.0
C116 C 0.74155 0.49461 0.07832 0.0
C117 C 0.72607 0.49906 1.00782 0.0
C118 C 0.72883 0.4825 0.15533 0.0
C119 C 0.70083 0.47617 0.16067 0.0
C120 C 0.69845 0.49246 1.01583 0.0
N121 N 0.65889 0.45277 0.22979 0.0
C122 C 0.68652 0.4608 0.23073 0.0
C123 C 0.65498 0.4232 0.35642 0.0
C124 C 0.68377 0.43289 0.36133 0.0
C125 C 0.64283 0.4333 0.29012 0.0
C126 C 0.69983 0.45151 0.29742 0.0
H127 H 0.6932 0.42521 0.41322 0.0
O128 O 0.63641 0.42651 1.05841 0.0
O129 O 0.61206 0.4888 0.14485 0.0
O130 O 0.63953 0.52873 0.29224 0.0
O131 O 0.64806 0.48758 0.27517 0.0
O132 O 0.59814 0.44351 0.1706 0.0
O133 O 0.60323 0.43541 1.01439 0.0
O134 O 0.66189 0.5882 0.10766 0.0
O135 O 0.6615 0.52105 0.09312 0.0
O136 O 0.64134 0.48577 0.96086 0.0
O137 O 0.63433 0.52794 0.97664 0.0
O138 O 0.68138 0.5589 0.18914 0.0
O139 O 0.63935 0.57994 0.22388 0.0
C140 C 0.59158 0.46489 0.17344 0.0
C141 C 0.72832 0.45982 0.29583 0.0
C142 C 0.74281 0.4753 0.22484 0.0
C143 C 0.61109 0.41476 1.01301 0.0
C144 C 0.58926 0.38223 1.028 0.0
C145 C 0.58711 0.37419 0.11713 0.0
C146 C 0.57042 0.35904 0.95527 0.0
C147 C 0.54951 0.32867 0.9736 0.0
C148 C 0.56675 0.34443 0.13519 0.0
C149 C 0.54803 0.32187 1.0642 0.0
C150 C 0.645 0.50815 0.33124 0.0
C151 C 0.68608 0.54179 0.13299 0.0
C152 C 0.65744 0.60099 0.17837 0.0
C153 C 0.68229 0.62862 0.23312 0.0
C154 C 0.69836 0.62495 0.30491 0.0
C155 C 0.68856 0.65907 0.21829 0.0
C156 C 0.71035 0.68564 0.27575 0.0
C157 C 0.72038 0.65124 0.36071 0.0
C158 C 0.72631 0.68137 0.34658 0.0
C159 C 0.6379 0.50764 0.92098 0.0
H160 H 0.60126 0.39094 0.17323 0.0
H161 H 0.57174 0.36462 0.88572 0.0
H162 H 0.56552 0.33882 0.20467 0.0
H163 H 0.53244 0.29878 0.08006 0.0
H164 H 0.69354 0.6018 0.31921 0.0
H165 H 0.67586 0.662 0.1641 0.0
H166 H 0.73266 0.64822 0.41596 0.0
H167 H 0.74344 0.70139 0.39089 0.0
Gd168 Gd 0.61657 0.11549 0.91095 0.0
Gd169 Gd 0.55529 0.04003 0.8722 0.0
C170 C 0.5469 0.95326 0.98961 0.0
C171 C 0.57709 0.94201 0.90384 0.0
C172 C 0.57209 0.98692 0.87714 0.0
C173 C 0.55423 0.97987 0.94358 0.0
C174 C 0.58385 0.96811 0.85691 0.0
C175 C 0.55858 0.93454 0.96982 0.0
C176 C 0.52776 0.94602 1.05342 0.0
C177 C 0.51592 0.96466 0.06845 0.0
N178 N 0.54387 0.99887 0.9629 0.0
C179 C 0.52384 0.99074 1.02119 0.0
H180 H 0.51376 0.00437 1.03092 0.0
C181 C 0.59672 0.02068 0.76955 0.0
N182 N 0.57866 0.01271 0.83426 0.0
C183 C 0.60889 0.00278 0.74733 0.0
C184 C 0.6024 0.97634 0.79105 0.0
H185 H 0.60251 0.04131 0.73632 0.0
H186 H 0.55338 0.91419 1.005 0.0
H187 H 0.58575 0.13189 0.72437 0.0
H188 H 0.52152 0.92574 0.08989 0.0
H189 H 0.50042 0.95875 0.11559 0.0
H190 H 0.58606 0.92744 0.88955 0.0
H191 H 0.65397 0.14544 0.12085 0.0
H192 H 0.57471 0.20748 0.80876 0.0
H193 H 0.56933 0.16735 0.68971 0.0
H194 H 0.61909 0.23954 0.11781 0.0
H195 H 0.6234 0.0095 0.69672 0.0
H196 H 0.61199 0.96261 0.77401 0.0
H197 H 0.59292 0.23387 0.96832 0.0
H198 H 0.66541 0.18768 0.24095 0.0
N199 N 0.60131 0.15062 0.86492 0.0
C200 C 0.58236 0.19187 0.8251 0.0
C201 C 0.5794 0.16937 0.75776 0.0
C202 C 0.59566 0.19437 0.91224 0.0
C203 C 0.60512 0.17328 0.93033 0.0
C204 C 0.5892 0.14916 0.77845 0.0
N205 N 0.62921 0.15648 1.02902 0.0
C206 C 0.61959 0.17635 1.01468 0.0
C207 C 0.65253 0.18484 0.17765 0.0
C208 C 0.64172 0.20454 0.16527 0.0
C209 C 0.64635 0.16115 0.10832 0.0
C210 C 0.62533 0.20072 0.08282 0.0
H211 H 0.64654 0.22291 0.21913 0.0
O212 O 0.65954 0.15617 0.90765 0.0
O213 O 0.60148 0.0648 0.9078 0.0
O214 O 0.56225 0.05307 1.03429 0.0
O215 O 0.60029 0.10472 1.06035 0.0
O216 O 0.63128 0.09416 1.01754 0.0
O217 O 0.64987 0.11137 0.84919 0.0
O218 O 0.52722 0.00574 0.75693 0.0
O219 O 0.56956 0.08954 0.85002 0.0
O220 O 0.60694 0.10289 0.74841 0.0
O221 O 0.56444 0.05473 0.72007 0.0
O222 O 0.5387 0.06905 0.933 0.0
O223 O 0.50913 0.01705 0.86544 0.0
C224 C 0.61628 0.06557 0.97981 0.0
C225 C 0.61512 0.22095 1.06603 0.0
C226 C 0.60025 0.21773 0.98096 0.0
C227 C 0.67007 0.14042 0.87166 0.0
C228 C 0.69851 0.14647 0.91763 0.0
C229 C 0.70158 0.14545 1.01186 0.0
C230 C 0.72266 0.15342 0.87096 0.0
C231 C 0.74934 0.16035 0.92034 0.0
C232 C 0.72734 0.15218 1.05985 0.0
C233 C 0.7509 0.15977 1.0151 0.0
C234 C 0.58014 0.07891 0.09438 0.0
C235 C 0.55012 0.09214 0.88509 0.0
C236 C 0.50435 0.99716 0.79568 0.0
C237 C 0.48681 0.96353 0.80876 0.0
C238 C 0.49576 0.94238 0.78484 0.0
C239 C 0.46279 0.95316 0.85539 0.0
C240 C 0.44888 0.92266 0.88143 0.0
C241 C 0.48177 0.91204 0.80997 0.0
C242 C 0.45866 0.9023 0.85886 0.0
C243 C 0.58597 0.07952 0.68689 0.0
H244 H 0.68391 0.13935 1.04911 0.0
H245 H 0.72084 0.15376 0.79785 0.0
H246 H 0.72902 0.15135 0.13275 0.0
H247 H 0.77044 0.1645 1.05498 0.0
H248 H 0.51417 0.94954 0.74939 0.0
H249 H 0.45563 0.96913 0.87459 0.0
H250 H 0.48915 0.89617 0.79267 0.0
H251 H 0.44819 0.87873 0.87838 0.0
Gd252 Gd 0.75109 0.91953 0.37229 0.0
Gd253 Gd 0.81583 0.91725 0.38691 0.0
C254 C 0.9034 0.00892 0.44216 0.0
C255 C 0.92337 0.00828 0.30281 0.0
C256 C 0.87629 0.96536 0.32298 0.0
C257 C 0.87831 0.98008 0.40753 0.0
C258 C 0.89909 0.97893 0.27057 0.0
C259 C 0.92554 0.02324 0.38853 0.0
C260 C 0.90562 0.02252 0.52988 0.0
C261 C 0.88322 0.00748 0.58086 0.0
N262 N 0.85611 0.966 0.45669 0.0
C263 C 0.85867 0.97921 0.54349 0.0
H264 H 0.84172 0.9693 0.58454 0.0
C265 C 0.85202 0.91927 0.21806 0.0
N266 N 0.85278 0.93686 0.29419 0.0
C267 C 0.87382 0.93188 0.16321 0.0
C268 C 0.89726 0.96211 0.18873 0.0
H269 H 0.83412 0.89567 0.19836 0.0
H270 H 0.94465 0.0456 0.41342 0.0
H271 H 0.71615 0.86163 0.19855 0.0
H272 H 0.92446 0.04461 0.55875 0.0
H273 H 0.88464 0.01791 0.64874 0.0
H274 H 0.94091 0.0192 0.26307 0.0
H275 H 0.73657 0.95299 0.55022 0.0
H276 H 0.64896 0.78187 0.29808 0.0
H277 H 0.67651 0.80645 0.17265 0.0
H278 H 0.64544 0.82415 0.59151 0.0
H279 H 0.87259 0.91819 0.10158 0.0
H280 H 0.91426 0.97178 0.14651 0.0
H281 H 0.63799 0.78853 0.45596 0.0
H282 H 0.70435 0.93582 0.66842 0.0
N283 N 0.71227 0.86765 0.33881 0.0
C284 C 0.6665 0.80604 0.31003 0.0
C285 C 0.68189 0.81987 0.23894 0.0
C286 C 0.67273 0.82423 0.39383 0.0
C287 C 0.69584 0.85557 0.40588 0.0
C288 C 0.70437 0.85116 0.25397 0.0
N289 N 0.72045 0.90649 0.48633 0.0
C290 C 0.70001 0.87566 0.4821 0.0
C291 C 0.70303 0.91863 0.61678 0.0
C292 C 0.68348 0.8867 0.61759 0.0
C293 C 0.72103 0.92827 0.54929 0.0
C294 C 0.68122 0.86486 0.54834 0.0
H295 H 0.66944 0.87932 0.66968 0.0
O296 O 0.7342 0.95085 0.37664 0.0
O297 O 0.7982 0.94748 0.41692 0.0
O298 O 0.80568 0.91908 0.54069 0.0
O299 O 0.7637 0.92027 0.53392 0.0
O300 O 0.78035 0.9711 0.36405 0.0
O301 O 0.72617 0.9205 0.25251 0.0
O302 O 0.80827 0.88039 0.47312 0.0
O303 O 0.76876 0.88812 0.36836 0.0
O304 O 0.76049 0.91526 0.21856 0.0
O305 O 0.80668 0.92489 0.22968 0.0
O306 O 0.78912 0.87758 0.27532 0.0
O307 O 0.84417 0.89832 0.40026 0.0
C308 C 0.80421 0.97385 0.39229 0.0
C309 C 0.65976 0.83298 0.54051 0.0
C310 C 0.65553 0.81268 0.46333 0.0
C311 C 0.72158 0.94131 0.29258 0.0
C312 C 0.69241 0.93554 0.27339 0.0
C313 C 0.66949 0.91002 0.30479 0.0
C314 C 0.68728 0.95506 0.2196 0.0
C315 C 0.65933 0.94924 0.19751 0.0
C316 C 0.6418 0.90397 0.28296 0.0
C317 C 0.63669 0.9233 0.22974 0.0
C318 C 0.78523 0.9197 0.58479 0.0
C319 C 0.7649 0.86785 0.30418 0.0
C320 C 0.82902 0.87716 0.45112 0.0
C321 C 0.82194 0.84438 0.42542 0.0
C322 C 0.8101 0.82956 0.33611 0.0
C323 C 0.82631 0.82729 0.49115 0.0
C324 C 0.8181 0.79549 0.46826 0.0
C325 C 0.80141 0.79802 0.31377 0.0
C326 C 0.80505 0.78096 0.3794 0.0
C327 C 0.78328 0.92067 0.17656 0.0
H328 H 0.67296 0.89461 0.34535 0.0
H329 H 0.70509 0.97491 0.19589 0.0
H330 H 0.62416 0.88409 0.30701 0.0
H331 H 0.6149 0.9177 0.21307 0.0
H332 H 0.8076 0.84225 0.2832 0.0
H333 H 0.83619 0.83871 0.55969 0.0
H334 H 0.79215 0.78683 0.24478 0.0
H335 H 0.79883 0.75677 0.35948 0.0
Gd336 Gd 0.23369 0.78473 0.42702 0.0
Gd337 Gd 0.17292 0.78495 0.44783 0.0
C338 C 0.13878 0.78966 0.16127 0.0
C339 C 0.14691 0.84253 0.17225 0.0
C340 C 0.16088 0.82395 0.30408 0.0
C341 C 0.1517 0.79545 0.2525 0.0
C342 C 0.15791 0.84749 0.26462 0.0
C343 C 0.13717 0.81361 0.12088 0.0
C344 C 0.12742 0.75979 0.11355 0.0
C345 C 0.12789 0.73611 0.1579 0.0
N346 N 0.15326 0.77251 0.29322 0.0
C347 C 0.14034 0.74272 0.2487 0.0
H348 H 0.13926 0.7238 0.28289 0.0
C349 C 0.17387 0.8528 0.45009 0.0
N350 N 0.17021 0.82759 0.3944 0.0
C351 C 0.17211 0.87708 0.41362 0.0
C352 C 0.16461 0.87471 0.32015 0.0
H353 H 0.1784 0.85435 0.52327 0.0
H354 H 0.12783 0.80973 1.05051 0.0
H355 H 0.26911 0.84619 0.5936 0.0
H356 H 0.11753 0.75453 1.04337 0.0
H357 H 0.11827 0.71261 0.12264 0.0
H358 H 0.14477 0.86048 0.14086 0.0
H359 H 0.22695 0.71432 0.35184 0.0
H360 H 0.28864 0.81365 0.83224 0.0
H361 H 0.28969 0.85647 0.75339 0.0
H362 H 0.2575 0.70658 0.73518 0.0
H363 H 0.17599 0.89734 0.45794 0.0
H364 H 0.1627 0.8933 0.29227 0.0
H365 H 0.27622 0.75779 0.82509 0.0
H366 H 0.22696 0.67033 0.41781 0.0
N367 N 0.25336 0.79699 0.58199 0.0
C368 C 0.2789 0.80875 0.76195 0.0
C369 C 0.27941 0.83293 0.71786 0.0
C370 C 0.2667 0.77879 0.71394 0.0
C371 C 0.25401 0.77347 0.62251 0.0
C372 C 0.26711 0.82679 0.627 0.0
N373 N 0.2348 0.74114 0.48048 0.0
C374 C 0.24378 0.74457 0.57111 0.0
C375 C 0.23117 0.69072 0.4621 0.0
C376 C 0.238 0.69278 0.55578 0.0
C377 C 0.23065 0.71559 0.42516 0.0
C378 C 0.24554 0.72037 0.61103 0.0
H379 H 0.23897 0.6737 0.58401 0.0
O380 O 0.26936 0.77829 0.40982 0.0
O381 O 0.1988 0.78438 0.32456 0.0
O382 O 0.1641 0.73457 0.44875 0.0
O383 O 0.1976 0.73654 0.36449 0.0
O384 O 0.22882 0.77916 0.26923 0.0
O385 O 0.27339 0.82261 0.38833 0.0
O386 O 0.13984 0.7911 0.50037 0.0
O387 O 0.2078 0.78568 0.55078 0.0
O388 O 0.24691 0.8363 0.43429 0.0
O389 O 0.20997 0.83492 0.49904 0.0
O390 O 0.17702 0.79011 0.60546 0.0
O391 O 0.13031 0.74466 0.45434 0.0
C392 C 0.2082 0.78351 0.24243 0.0
C393 C 0.25631 0.72502 0.70349 0.0
C394 C 0.2671 0.75423 0.75457 0.0
C395 C 0.2841 0.8047 0.37699 0.0
C396 C 0.29317 0.80246 0.28668 0.0
C397 C 0.27721 0.77447 0.22632 0.0
C398 C 0.31719 0.82819 0.25879 0.0
C399 C 0.32441 0.82613 0.17047 0.0
C400 C 0.28401 0.77265 0.13876 0.0
C401 C 0.30731 0.79831 0.11069 0.0
C402 C 0.17404 0.72003 0.40012 0.0
C403 C 0.19815 0.78658 0.63253 0.0
C404 C 0.12045 0.76138 0.48879 0.0
C405 C 0.09085 0.75278 0.45344 0.0
C406 C 0.08432 0.75542 0.36228 0.0
C407 C 0.06909 0.74274 0.51116 0.0
C408 C 0.04131 0.73612 0.4776 0.0
C409 C 0.05703 0.74856 0.32867 0.0
C410 C 0.03581 0.73914 0.38548 0.0
C411 C 0.23564 0.851 0.47367 0.0
H412 H 0.25908 0.75396 0.24609 0.0
H413 H 0.33006 0.84966 0.3051 0.0
H414 H 0.27128 0.75115 0.09264 0.0
H415 H 0.31252 0.79605 1.04286 0.0
H416 H 0.10033 0.76291 0.31691 0.0
H417 H 0.07391 0.74076 0.58194 0.0
H418 H 0.05231 0.75067 0.258 0.0
H419 H 0.01483 0.7339 0.35682 0.0
Gd420 Gd 0.31729 0.3193 0.4751 0.0
Gd421 Gd 0.24552 0.25313 0.45105 0.0
C422 C 0.2362 0.15575 0.4482 0.0
C423 C 0.21262 0.1318 0.2947 0.0
C424 C 0.22274 0.18414 0.34864 0.0
C425 C 0.23544 0.18307 0.43174 0.0
C426 C 0.21037 0.15812 0.28028 0.0
C427 C 0.22555 0.13064 0.37853 0.0
C428 C 0.24696 0.15403 0.53483 0.0
C429 C 0.25562 0.17851 0.60358 0.0
N430 N 0.24567 0.20787 0.49783 0.0
C431 C 0.25463 0.20514 0.58435 0.0
H432 H 0.26234 0.22342 0.63989 0.0
C433 C 0.20443 0.20969 0.26135 0.0
N434 N 0.22075 0.20975 0.33669 0.0
C435 C 0.19177 0.18449 0.19195 0.0
C436 C 0.19524 0.15884 0.2006 0.0
H437 H 0.2018 0.22958 0.2537 0.0
H438 H 0.22642 0.1098 0.3898 0.0
H439 H 0.31028 0.3634 0.3271 0.0
H440 H 0.24807 0.13364 0.54978 0.0
H441 H 0.26355 0.17715 0.67149 0.0
H442 H 0.20366 0.11184 0.2425 0.0
H443 H 0.36434 0.33227 0.65752 0.0
H444 H 0.31881 0.4453 0.47319 0.0
H445 H 0.30911 0.41247 0.32743 0.0
H446 H 0.36017 0.44566 0.77061 0.0
H447 H 0.17951 0.18499 0.13162 0.0
H448 H 0.18543 0.13932 0.14671 0.0
H449 H 0.33725 0.4571 0.64081 0.0
H450 H 0.38855 0.36941 0.79782 0.0
N451 N 0.31778 0.36694 0.47123 0.0
C452 C 0.31882 0.42353 0.47342 0.0
C453 C 0.31348 0.40515 0.39102 0.0
C454 C 0.32671 0.41498 0.55398 0.0
C455 C 0.3264 0.38639 0.5501 0.0
C456 C 0.31397 0.37727 0.39114 0.0
N457 N 0.34231 0.35477 0.60958 0.0
C458 C 0.33939 0.38015 0.62231 0.0
C459 C 0.37457 0.37257 0.74941 0.0
C460 C 0.37001 0.39748 0.76648 0.0
C461 C 0.36084 0.3516 0.66965 0.0
C462 C 0.35285 0.40203 0.7014 0.0
H463 H 0.38083 0.41383 0.82796 0.0
O464 O 0.34389 0.34273 0.3701 0.0
O465 O 0.29123 0.26629 0.45214 0.0
O466 O 0.26069 0.26613 0.61258 0.0
O467 O 0.30446 0.31281 0.6278 0.0
O468 O 0.32821 0.28676 0.54282 0.0
O469 O 0.36019 0.3265 0.47535 0.0
O470 O 0.19899 0.22664 0.44187 0.0
O471 O 0.27118 0.30569 0.45761 0.0
O472 O 0.30182 0.3062 0.31263 0.0
O473 O 0.2583 0.25912 0.29748 0.0
O474 O 0.23632 0.28073 0.35545 0.0
O475 O 0.22285 0.26758 0.53934 0.0
C476 C 0.30695 0.26022 0.50576 0.0
C477 C 0.35045 0.42885 0.70972 0.0
C478 C 0.33733 0.43533 0.6359 0.0
C479 C 0.36606 0.34218 0.40538 0.0
C480 C 0.3941 0.3724 0.4147 0.0
C481 C 0.39888 0.39742 0.4771 0.0
C482 C 0.41612 0.37685 0.36184 0.0
C483 C 0.44275 0.40587 0.374 0.0
C484 C 0.42477 0.42587 0.48886 0.0
C485 C 0.44647 0.43006 0.43835 0.0
C486 C 0.28315 0.29012 0.66782 0.0
C487 C 0.2562 0.30836 0.39133 0.0
C488 C 0.19742 0.24527 0.50333 0.0
C489 C 0.17456 0.23062 0.56369 0.0
C490 C 0.17232 0.2061 0.61113 0.0
C491 C 0.15391 0.23984 0.57085 0.0
C492 C 0.13126 0.22423 0.62422 0.0
C493 C 0.1502 0.19083 0.66357 0.0
C494 C 0.1299 0.19969 0.66988 0.0
C495 C 0.27968 0.28177 0.2572 0.0
H496 H 0.38249 0.39508 0.51677 0.0
H497 H 0.4127 0.35783 0.31279 0.0
H498 H 0.42802 0.44491 0.53742 0.0
H499 H 0.4662 0.45264 0.44876 0.0
H500 H 0.1876 0.19854 0.60687 0.0
H501 H 0.15536 0.25881 0.53487 0.0
H502 H 0.14873 0.17187 0.69961 0.0
H503 H 0.1131 0.18744 0.71153 0.0
Gd504 Gd 0.35806 0.10037 0.72415 0.0
Gd505 Gd 0.40038 0.11447 0.53362 0.0
C506 C 0.48036 0.10745 0.53323 0.0
C507 C 0.51796 0.16233 0.5485 0.0
C508 C 0.46821 0.14792 0.53912 0.0
C509 C 0.45979 0.11648 0.53601 0.0
C510 C 0.49732 0.17107 0.54215 0.0
C511 C 0.50948 0.13052 0.54361 0.0
C512 C 0.47102 0.07555 0.51548 0.0
C513 C 0.44187 0.05359 0.49948 0.0
N514 N 0.43142 0.09465 0.5266 0.0
C515 C 0.4223 0.06356 0.50439 0.0
H516 H 0.40009 0.04598 0.4893 0.0
C517 C 0.4547 0.18533 0.51425 0.0
N518 N 0.44774 0.15556 0.53041 0.0
C519 C 0.48324 0.2091 0.51755 0.0
C520 C 0.50471 0.2021 0.53378 0.0
H521 H 0.43835 0.19117 0.50263 0.0
H522 H 0.52554 0.12396 0.54402 0.0
H523 H 0.29096 0.03818 0.66872 0.0
H524 H 0.48611 0.06771 0.51167 0.0
H525 H 0.43441 0.02889 0.48321 0.0
H526 H 0.54044 0.17984 0.5526 0.0
H527 H 0.40157 0.15605 0.90383 0.0
H528 H 0.26562 0.98945 0.9027 0.0
H529 H 0.25528 0.99418 0.74081 0.0
H530 H 0.34121 0.05787 0.13954 0.0
H531 H 0.48866 0.23282 0.50804 0.0
H532 H 0.52681 0.22053 0.53591 0.0
H533 H 0.29815 0.01311 1.05091 0.0
H534 H 0.41281 0.15793 1.0674 0.0
N535 N 0.32207 0.05763 0.78721 0.0
C536 C 0.28144 0.00883 0.87128 0.0
C537 C 0.27552 0.01143 0.78003 0.0
C538 C 0.30703 0.0323 0.92221 0.0
C539 C 0.32676 0.05728 0.87818 0.0
C540 C 0.29593 0.03643 0.73942 0.0
N541 N 0.36671 0.10847 0.88569 0.0
C542 C 0.35004 0.08325 0.9287 0.0
C543 C 0.39497 0.13684 1.02922 0.0
C544 C 0.37895 0.11051 0.07286 0.0
C545 C 0.38829 0.13562 0.93555 0.0
C546 C 0.35549 0.08378 1.02365 0.0
H547 H 0.38474 0.11106 0.14448 0.0
O548 O 0.3375 0.1262 0.75915 0.0
O549 O 0.39171 0.0948 0.66368 0.0
O550 O 0.36872 0.06042 0.53027 0.0
O551 O 0.34085 0.05174 0.64824 0.0
O552 O 0.39464 0.09875 0.80396 0.0
O553 O 0.32206 0.09418 0.63291 0.0
O554 O 0.36593 0.09354 0.42086 0.0
O555 O 0.37009 0.12303 0.5996 0.0
O556 O 0.3943 0.15126 0.74607 0.0
O557 O 0.427 0.15478 0.64829 0.0
O558 O 0.38842 0.15145 0.50275 0.0
O559 O 0.40989 0.11726 0.39445 0.0
C560 C 0.40722 0.0966 0.73615 0.0
C561 C 0.33723 0.05785 1.06669 0.0
C562 C 0.31282 0.0323 1.01621 0.0
C563 C 0.31756 0.11209 0.68859 0.0
C564 C 0.28772 0.09953 0.70435 0.0
C565 C 0.26658 0.09281 0.6316 0.0
C566 C 0.28001 0.09386 0.79157 0.0
C567 C 0.25167 0.08203 0.80708 0.0
C568 C 0.23818 0.08072 0.64677 0.0
C569 C 0.23067 0.07547 0.73465 0.0
C570 C 0.34732 0.04125 0.57512 0.0
C571 C 0.36997 0.14485 0.55838 0.0
C572 C 0.38346 0.10709 0.362 0.0
C573 C 0.37821 0.12825 0.30897 0.0
C574 C 0.40089 0.15771 0.29408 0.0
C575 C 0.35011 0.11975 0.27737 0.0
C576 C 0.34448 0.13975 0.22814 0.0
C577 C 0.39551 0.17801 0.2474 0.0
C578 C 0.36762 0.16909 0.21393 0.0
C579 C 0.41973 0.1664 0.71724 0.0
H580 H 0.27205 0.09696 0.56328 0.0
H581 H 0.29611 0.0988 0.84833 0.0
H582 H 0.22202 0.07563 0.59038 0.0
H583 H 0.20877 0.0665 0.74606 0.0
H584 H 0.4228 0.16517 0.31845 0.0
H585 H 0.33269 0.09738 0.29101 0.0
H586 H 0.41309 0.20051 0.23543 0.0
H587 H 0.36446 0.18483 0.17393 0.0
Gd588 Gd 0.93734 0.22564 0.66447 0.0
Gd589 Gd 0.94981 0.1858 0.83937 0.0
C590 C 0.04085 0.20975 0.93864 0.0
C591 C 0.049 0.17991 0.82219 0.0
C592 C 0.00395 0.17886 0.81124 0.0
C593 C 0.01344 0.19904 0.89144 0.0
C594 C 0.0215 0.16859 0.77682 0.0
C595 C 0.05872 0.2006 0.9026 0.0
C596 C 0.04922 0.22859 1.02223 0.0
C597 C 0.02997 0.23501 1.05921 0.0
N598 N 0.99553 0.20713 0.92544 0.0
C599 C 0.0029 0.22337 1.01098 0.0
H600 H 0.98776 0.22726 1.04283 0.0
C601 C 0.96739 0.14833 0.68905 0.0
N602 N 0.97764 0.16921 0.7668 0.0
C603 C 0.98369 0.13692 0.65397 0.0
C604 C 0.01093 0.14721 0.69773 0.0
H605 H 0.94674 0.14026 0.65249 0.0
H606 H 0.07989 0.20885 0.9375 0.0
H607 H 0.8663 0.17527 0.60489 0.0
H608 H 0.07008 0.23731 1.06028 0.0
H609 H 0.03577 0.24847 0.12564 0.0
H610 H 0.06288 0.17267 0.79585 0.0
H611 H 0.9852 0.30164 0.64795 0.0
H612 H 0.82301 0.22273 0.67735 0.0
H613 H 0.82182 0.17518 0.61135 0.0
H614 H 0.89865 0.3292 0.75938 0.0
H615 H 0.97531 0.12048 0.59238 0.0
H616 H 0.0237 0.13871 0.66955 0.0
H617 H 0.85204 0.27999 0.73777 0.0
H618 H 0.99044 0.35368 0.68464 0.0
N619 N 0.89312 0.22246 0.66858 0.0
C620 C 0.84281 0.22304 0.67438 0.0
C621 C 0.84205 0.19619 0.63682 0.0
C622 C 0.86916 0.25051 0.70252 0.0
C623 C 0.89431 0.24971 0.69625 0.0
C624 C 0.86753 0.19632 0.63406 0.0
N625 N 0.94359 0.27626 0.68698 0.0
C626 C 0.92048 0.27749 0.70687 0.0
C627 C 0.97077 0.33246 0.6923 0.0
C628 C 0.94815 0.33429 0.72228 0.0
C629 C 0.96775 0.30302 0.67165 0.0
C630 C 0.92222 0.30659 0.72624 0.0
H631 H 0.95039 0.3571 0.737 0.0
O632 O 0.9234 0.23713 0.53842 0.0
O633 O 0.96469 0.20616 0.71094 0.0
O634 O 0.97133 0.23729 0.90091 0.0
O635 O 0.96349 0.26291 0.78544 0.0
O636 O 0.98559 0.25121 0.67458 0.0
O637 O 0.95026 0.2174 0.53636 0.0
O638 O 0.91943 0.13683 0.84836 0.0
O639 O 0.91747 0.19647 0.77535 0.0
O640 O 0.90782 0.17262 0.62036 0.0
O641 O 0.91535 0.14736 0.73719 0.0
O642 O 0.92479 0.20254 0.91612 0.0
O643 O 0.94947 0.16557 0.96633 0.0
C644 C 0.98937 0.22934 0.70292 0.0
C645 C 0.89764 0.30711 0.74268 0.0
C646 C 0.87109 0.27909 0.73042 0.0
C647 C 0.93381 0.22433 0.48801 0.0
C648 C 0.91379 0.2008 0.41213 0.0
C649 C 0.89722 0.20798 0.35258 0.0
C650 C 0.91096 0.17109 0.3988 0.0
C651 C 0.89281 0.14911 0.3242 0.0
C652 C 0.87834 0.1859 0.28023 0.0
C653 C 0.87628 0.15679 0.26543 0.0
C654 C 0.97476 0.26303 0.86812 0.0
C655 C 0.90966 0.20383 0.84652 0.0
C656 C 0.93044 0.13727 0.92956 0.0
C657 C 0.9366 0.1121 0.94361 0.0
C658 C 0.94305 0.09729 0.87371 0.0
C659 C 0.93429 0.1015 1.02876 0.0
C660 C 0.93745 0.07579 1.04514 0.0
C661 C 0.94711 0.07224 0.89026 0.0
C662 C 0.94415 0.06129 0.97589 0.0
C663 C 0.90275 0.14689 0.6571 0.0
H664 H 0.89895 0.23069 0.36196 0.0
H665 H 0.92333 0.1653 0.44575 0.0
H666 H 0.86574 0.19166 0.23413 0.0
H667 H 0.86256 0.1409 0.20586 0.0
H668 H 0.94449 0.1046 0.80636 0.0
H669 H 0.92916 0.11286 0.0824 0.0
H670 H 0.95205 0.06097 0.8361 0.0
H671 H 0.94672 0.04154 0.98764 0.0
Gd672 Gd 0.8877 0.67611 0.88609 0.0
Gd673 Gd 0.84272 0.60534 0.72665 0.0
C674 C 0.7577 0.52335 0.78203 0.0
C675 C 0.76798 0.48141 0.78969 0.0
C676 C 0.80513 0.53376 0.76456 0.0
C677 C 0.78641 0.54461 0.7713 0.0
C678 C 0.7959 0.5019 0.77243 0.0
C679 C 0.74881 0.49196 0.79293 0.0
C680 C 0.73827 0.53367 0.77617 0.0
C681 C 0.74722 0.56394 0.75518 0.0
N682 N 0.79526 0.57484 0.7571 0.0
C683 C 0.77574 0.58406 0.74394 0.0
H684 H 0.78172 0.60693 0.72515 0.0
C685 C 0.84845 0.5421 0.71847 0.0
N686 N 0.83136 0.55342 0.7412 0.0
C687 C 0.84066 0.51114 0.72896 0.0
C688 C 0.81441 0.49104 0.75724 0.0
H689 H 0.86857 0.55723 0.69476 0.0
H690 H 0.72688 0.47541 0.80144 0.0
H691 H 0.95078 0.67928 0.89347 0.0
H692 H 0.71607 0.51805 0.78389 0.0
H693 H 0.7321 0.57177 0.74687 0.0
H694 H 0.76058 0.45693 0.79611 0.0
H695 H 0.85769 0.72042 0.91046 0.0
H696 H 0.01103 0.76645 0.80611 0.0
H697 H 0.99928 0.71562 0.85956 0.0
H698 H 0.96079 0.82151 0.78413 0.0
H699 H 0.85473 0.50267 0.71389 0.0
H700 H 0.80813 0.46681 0.76322 0.0
H701 H 0.99621 0.80545 0.77571 0.0
H702 H 0.86881 0.77385 0.88591 0.0
N703 N 0.93455 0.70836 0.8546 0.0
C704 C 0.98958 0.75049 0.8203 0.0
C705 C 0.98306 0.72185 0.85069 0.0
C706 C 0.96877 0.75886 0.81298 0.0
C707 C 0.94113 0.73723 0.83215 0.0
C708 C 0.95543 0.70119 0.86925 0.0
N709 N 0.89536 0.726 0.86273 0.0
C710 C 0.92111 0.74641 0.83719 0.0
C711 C 0.88353 0.76631 0.871 0.0
C712 C 0.9089 0.78681 0.83824 0.0
C713 C 0.87726 0.73599 0.8845 0.0
C714 C 0.92831 0.77723 0.82264 0.0
H715 H 0.91371 0.81031 0.82804 0.0
O716 O 0.87862 0.67369 1.02604 0.0
O717 O 0.84704 0.62873 0.86496 0.0
O718 O 0.82928 0.64213 0.71444 0.0
O719 O 0.87139 0.68921 0.76324 0.0
O720 O 0.84418 0.6658 0.91982 0.0
O721 O 0.92114 0.70576 0.99854 0.0
O722 O 0.81975 0.57196 0.60495 0.0
O723 O 0.88483 0.64952 0.75524 0.0
O724 O 0.90208 0.64169 0.91301 0.0
O725 O 0.86643 0.59311 0.83438 0.0
O726 O 0.88375 0.61244 0.68076 0.0
O727 O 0.8424 0.62171 0.59418 0.0
C728 C 0.82993 0.63574 0.89654 0.0
C729 C 0.95507 0.79792 0.79692 0.0
C730 C 0.97524 0.78875 0.792 0.0
C731 C 0.90281 0.69917 1.05579 0.0
C732 C 0.9008 0.72561 0.09781 0.0
C733 C 0.92101 0.75714 0.08977 0.0
C734 C 0.87638 0.71897 0.13725 0.0
C735 C 0.87149 0.74295 0.16673 0.0
C736 C 0.91647 0.78126 0.12027 0.0
C737 C 0.89185 0.77427 0.1591 0.0
C738 C 0.84547 0.6732 0.71788 0.0
C739 C 0.90018 0.64133 0.71589 0.0
C740 C 0.82338 0.59377 0.55415 0.0
C741 C 0.79747 0.59066 0.50313 0.0
C742 C 0.77011 0.56427 0.50405 0.0
C743 C 0.80013 0.61504 0.45433 0.0
C744 C 0.77605 0.61386 0.40815 0.0
C745 C 0.74608 0.56262 0.45695 0.0
C746 C 0.74897 0.58724 0.40893 0.0
C747 C 0.88978 0.61087 0.8936 0.0
H748 H 0.93995 0.76313 1.05829 0.0
H749 H 0.86104 0.69482 0.14581 0.0
H750 H 0.93208 0.80542 0.11372 0.0
H751 H 0.88885 0.79317 0.18403 0.0
H752 H 0.76721 0.545 0.54128 0.0
H753 H 0.82125 0.63501 0.45161 0.0
H754 H 0.72513 0.54221 0.45784 0.0
H755 H 0.73014 0.58556 0.37301 0.0
H756 H 0.0475 0.47182 0.85248 0.0
H757 H 0.12838 0.47835 0.91594 0.0
H758 H 0.13419 0.47851 0.75489 0.0
H759 H 0.11733 0.47693 0.58525 0.0
H760 H 0.03525 0.46715 0.52062 0.0
H761 H 0.02975 0.46804 0.6821 0.0
C762 C 0.06668 0.47335 0.83292 0.0
C763 C 0.08771 0.47566 0.90598 0.0
C764 C 0.06995 0.47279 0.73398 0.0
C765 C 0.11157 0.47711 0.86956 0.0
C766 C 0.11496 0.47704 0.77385 0.0
C767 C 0.09794 0.47487 0.60465 0.0
C768 C 0.07675 0.47215 0.53148 0.0
C769 C 0.09448 0.47495 0.70345 0.0
C770 C 0.05244 0.46955 0.56754 0.0
C771 C 0.04918 0.47001 0.66335 0.0
H772 H 0.65521 0.48032 0.7698 0.0
H773 H 0.62315 0.54244 0.80858 0.0
H774 H 0.62191 0.54813 0.64691 0.0
H775 H 0.62923 0.53608 0.4834 0.0
H776 H 0.66526 0.47781 0.44465 0.0
H777 H 0.66537 0.47077 0.60653 0.0
C778 C 0.64774 0.4952 0.74455 0.0
C779 C 0.63865 0.51041 0.81072 0.0
C780 C 0.64765 0.49924 0.64543 0.0
C781 C 0.62993 0.52962 0.76751 0.0
C782 C 0.62931 0.53309 0.67143 0.0
C783 C 0.63727 0.52169 0.50856 0.0
C784 C 0.64648 0.50677 0.44224 0.0
C785 C 0.63799 0.51811 0.6077 0.0
C786 C 0.6568 0.48893 0.48566 0.0
C787 C 0.65719 0.48509 0.58177 0.0
H788 H 0.54865 0.03984 0.51431 0.0
H789 H 0.62731 0.12743 0.59989 0.0
H790 H 0.63299 0.136 0.44056 0.0
H791 H 0.61684 0.11965 0.26711 0.0
H792 H 0.53803 0.0322 0.1824 0.0
H793 H 0.53229 0.02381 0.34128 0.0
C794 C 0.56728 0.06103 0.4999 0.0
C795 C 0.58751 0.08273 0.57769 0.0
C796 C 0.57077 0.06632 0.40276 0.0
C797 C 0.6109 0.10959 0.54846 0.0
C798 C 0.6143 0.11472 0.45426 0.0
C799 C 0.59808 0.09863 0.28161 0.0
C800 C 0.57791 0.07677 0.20384 0.0
C801 C 0.59454 0.09345 0.37889 0.0
C802 C 0.55446 0.05007 0.23341 0.0
C803 C 0.551 0.04505 0.32754 0.0
H804 H 0.74767 0.91577 0.72649 0.0
H805 H 0.82962 0.9255 0.70957 0.0
H806 H 0.83707 0.92701 0.87513 0.0
H807 H 0.82141 0.9256 1.03548 0.0
H808 H 0.73908 0.91504 1.05167 0.0
H809 H 0.73189 0.91404 0.88632 0.0
C810 C 0.76742 0.91833 0.7573 0.0
C811 C 0.78794 0.92057 0.69651 0.0
C812 C 0.77193 0.91908 0.85834 0.0
C813 C 0.81281 0.92363 0.74681 0.0
C814 C 0.81727 0.92454 0.84483 0.0
C815 C 0.80168 0.92309 1.00452 0.0
C816 C 0.78098 0.9205 1.06509 0.0
C817 C 0.79716 0.92229 0.9034 0.0
C818 C 0.75603 0.91721 1.01462 0.0
C819 C 0.75171 0.9166 0.91673 0.0
H820 H 0.19497 0.81959 0.80458 0.0
H821 H 0.20925 0.74413 0.73469 0.0
H822 H 0.21307 0.73721 0.89692 0.0
H823 H 0.21168 0.75073 0.07065 0.0
H824 H 0.19657 0.82561 0.14027 0.0
H825 H 0.19315 0.83279 0.97814 0.0
C826 C 0.1997 0.8018 0.82264 0.0
C827 C 0.20422 0.78448 0.74587 0.0
C828 C 0.20067 0.79668 0.92265 0.0
C829 C 0.20822 0.76067 0.78252 0.0
C830 C 0.20959 0.75594 0.87945 0.0
C831 C 0.20683 0.76842 1.05252 0.0
C832 C 0.20216 0.78564 0.12918 0.0
C833 C 0.20579 0.77349 0.9525 0.0
C834 C 0.19794 0.80929 0.09251 0.0
C835 C 0.19672 0.81413 0.99564 0.0
H836 H 0.24978 0.24575 0.79914 0.0
H837 H 0.3206 0.3399 0.80362 0.0
H838 H 0.32687 0.34614 0.97022 0.0
H839 H 0.31293 0.32605 0.12579 0.0
H840 H 0.24149 0.23218 0.12142 0.0
H841 H 0.23552 0.22583 0.95477 0.0
C842 C 0.2668 0.26794 0.83501 0.0
C843 C 0.28496 0.29221 0.77978 0.0
C844 C 0.27039 0.2718 0.93685 0.0
C845 C 0.30628 0.32006 0.83633 0.0
C846 C 0.30984 0.32383 0.935 0.0
C847 C 0.29587 0.30388 0.08995 0.0
C848 C 0.2777 0.27965 0.14523 0.0
C849 C 0.29222 0.30003 0.98814 0.0
C850 C 0.25615 0.25189 0.08874 0.0
C851 C 0.25266 0.24808 0.99002 0.0
H852 H 0.30305 0.07965 0.16002 0.0
H853 H 0.31926 0.17453 0.19192 0.0
H854 H 0.28014 0.15983 0.07162 0.0
H855 H 0.2534 0.12501 0.92949 0.0
H856 H 0.23975 0.03168 0.89581 0.0
H857 H 0.26395 0.03991 1.04939 0.0
C858 C 0.29746 0.09698 0.14431 0.0
C859 C 0.31526 0.12866 0.18171 0.0
C860 C 0.27517 0.08848 0.07445 0.0
C861 C 0.30697 0.15035 0.16069 0.0
C862 C 0.28441 0.14192 0.0923 0.0
C863 C 0.25412 0.10586 0.95846 0.0
C864 C 0.24584 0.07824 0.90153 0.0
C865 C 0.27 0.11174 1.04396 0.0
C866 C 0.24642 0.05329 0.93878 0.0
C867 C 0.26092 0.05833 1.0257 0.0
H868 H 0.93885 0.14184 0.35116 0.0
H869 H 0.84906 0.09075 0.2456 0.0
H870 H 0.85412 0.04916 0.17074 0.0
H871 H 0.88688 0.03676 0.10212 0.0
H872 H 0.97658 0.0916 0.1961 0.0
H873 H 0.96828 0.11944 0.31929 0.0
C874 C 0.91997 0.12112 0.3154 0.0
C875 C 0.89379 0.12014 0.30119 0.0
C876 C 0.92305 0.09743 0.2722 0.0
C877 C 0.86975 0.09284 0.25417 0.0
C878 C 0.87254 0.06883 0.21213 0.0
C879 C 0.90433 0.05349 0.15335 0.0
C880 C 0.93245 0.06487 0.13546 0.0
C881 C 0.89948 0.07198 0.21588 0.0
C882 C 0.95477 0.08418 0.20537 0.0
C883 C 0.95012 0.10092 0.27388 0.0
H884 H 0.80991 0.6758 0.46301 0.0
H885 H 0.75208 0.6105 0.23483 0.0
H886 H 0.77202 0.65182 0.13453 0.0
H887 H 0.81539 0.70089 0.10942 0.0
H888 H 0.87394 0.76432 0.34045 0.0
H889 H 0.84365 0.72995 0.44291 0.0
C890 C 0.80063 0.67102 0.39254 0.0
C891 C 0.78029 0.64002 0.35572 0.0
C892 C 0.8125 0.6947 0.33598 0.0
C893 C 0.76836 0.63403 0.26398 0.0
C894 C 0.77978 0.65768 0.2068 0.0
C895 C 0.82039 0.70808 0.18238 0.0
C896 C 0.8472 0.73437 0.21793 0.0
C897 C 0.80328 0.68744 0.24125 0.0
C898 C 0.85354 0.74399 0.31185 0.0
C899 C 0.83628 0.72408 0.37077 0.0
H900 H 0.2406 0.34315 0.49991 0.0
H901 H 0.25943 0.33035 0.2302 0.0
H902 H 0.24592 0.36727 0.17914 0.0
H903 H 0.2275 0.40241 0.20853 0.0
H904 H 0.20289 0.41134 0.47132 0.0
H905 H 0.21925 0.37678 0.52704 0.0
C906 C 0.24251 0.34925 0.43089 0.0
C907 C 0.25276 0.33537 0.3704 0.0
C908 C 0.23295 0.36935 0.4 0.0
C909 C 0.25298 0.34176 0.27924 0.0
C910 C 0.2449 0.36263 0.2496 0.0
C911 C 0.22546 0.39657 0.27784 0.0
C912 C 0.21379 0.40943 0.33537 0.0
C913 C 0.23458 0.37636 0.3089 0.0
C914 C 0.21136 0.4015 0.42501 0.0
C915 C 0.22103 0.38195 0.45718 0.0
H916 H 0.71482 0.73005 0.40365 0.0
H917 H 0.71959 0.71334 0.11899 0.0
H918 H 0.73356 0.7677 0.10005 0.0
H919 H 0.74884 0.82129 0.1681 0.0
H920 H 0.74348 0.83779 0.45229 0.0
H921 H 0.72487 0.78222 0.46762 0.0
C922 C 0.71872 0.73831 0.33737 0.0
C923 C 0.71645 0.71783 0.26294 0.0
C924 C 0.72652 0.76951 0.32693 0.0
C925 C 0.72116 0.72865 0.17717 0.0
C926 C 0.72919 0.75973 0.1664 0.0
C927 C 0.74287 0.81245 0.23271 0.0
C928 C 0.7475 0.83355 0.30885 0.0
C929 C 0.73244 0.78052 0.24115 0.0
C930 C 0.73991 0.82198 0.39249 0.0
C931 C 0.72952 0.79025 0.40146 0.0
H932 H 0.44618 0.90942 1.05594 0.0
H933 H 0.39595 0.91022 0.81788 0.0
H934 H 0.35265 0.88329 0.89133 0.0
H935 H 0.32866 0.85418 1.01642 0.0
H936 H 0.37892 0.85406 0.25577 0.0
H937 H 0.42278 0.88678 0.19024 0.0
C938 C 0.42577 0.90421 1.0213 0.0
C939 C 0.424 0.9115 0.93178 0.0
C940 C 0.40109 0.88887 1.06418 0.0
C941 C 0.39764 0.90481 0.88698 0.0
C942 C 0.37295 0.88933 0.9288 0.0
C943 C 0.3493 0.86196 1.05491 0.0
C944 C 0.35064 0.85162 0.14047 0.0
C945 C 0.37432 0.88049 1.01638 0.0
C946 C 0.37742 0.86191 0.19008 0.0
C947 C 0.40245 0.88034 0.15221 0.0
H948 H 0.5331 0.13609 0.91059 0.0
H949 H 0.51419 0.05386 0.73537 0.0
H950 H 0.46782 0.04588 0.67772 0.0
H951 H 0.43027 0.06017 0.68454 0.0
H952 H 0.4525 0.14757 0.83704 0.0
H953 H 0.49946 0.15624 0.89259 0.0
C954 C 0.51951 0.11731 0.85644 0.0
C955 C 0.52761 0.09548 0.82841 0.0
C956 C 0.49316 0.11399 0.81791 0.0
C957 C 0.50895 0.07102 0.75928 0.0
C958 C 0.48216 0.06642 0.72581 0.0
C959 C 0.44594 0.08208 0.72502 0.0
C960 C 0.43786 0.10399 0.75147 0.0
C961 C 0.47371 0.0875 0.7551 0.0
C962 C 0.45808 0.13079 0.81172 0.0
C963 C 0.48509 0.13569 0.84449 0.0
H964 H 0.98126 0.28021 1.05443 0.0
H965 H 0.01283 0.31692 0.80626 0.0
H966 H 0.04381 0.36922 0.88884 0.0
H967 H 0.06187 0.40555 1.03146 0.0
H968 H 0.02979 0.37043 0.28013 0.0
H969 H 0.99997 0.31704 0.19926 0.0
C970 C 0.99499 0.29966 1.01864 0.0
C971 C 0.99409 0.29451 0.92328 0.0
C972 C 0.01297 0.3302 1.06719 0.0
C973 C 0.01223 0.32015 0.87861 0.0
C974 C 0.03032 0.35016 0.92619 0.0
C975 C 0.04824 0.38621 1.06781 0.0
C976 C 0.04743 0.39221 0.16137 0.0
C977 C 0.03076 0.35562 1.02032 0.0
C978 C 0.03034 0.36663 0.20785 0.0
C979 C 0.01327 0.33605 0.16146 0.0
H980 H 0.77774 0.63044 0.88674 0.0
H981 H 0.82705 0.59534 1.01873 0.0
H982 H 0.78872 0.56588 0.11098 0.0
H983 H 0.74045 0.55027 0.15531 0.0
H984 H 0.68756 0.57495 0.99246 0.0
H985 H 0.72733 0.60794 0.91202 0.0
C986 C 0.77986 0.6158 0.93438 0.0
C987 C 0.80515 0.61477 0.94442 0.0
C988 C 0.75682 0.59697 0.98211 0.0
C989 C 0.80763 0.59606 1.00781 0.0
C990 C 0.78571 0.57931 1.06101 0.0
C991 C 0.73744 0.56222 0.1006 0.0
C992 C 0.71058 0.55949 0.07966 0.0
C993 C 0.76005 0.57946 1.04873 0.0
C994 C 0.70759 0.57608 1.01012 0.0
C995 C 0.73047 0.59509 0.96371 0.0
H996 H 0.91201 0.57815 0.81823 0.0
H997 H 0.89904 0.61069 0.07519 0.0
H998 H 0.92187 0.58606 0.15655 0.0
H999 H 0.94403 0.55359 0.15404 0.0
H1000 H 0.96022 0.52406 0.89853 0.0
H1001 H 0.9383 0.54966 0.81696 0.0
C1002 C 0.91418 0.57969 0.89197 0.0
C1003 C 0.90345 0.59563 0.94092 0.0
C1004 C 0.92822 0.56636 0.93835 0.0
C1005 C 0.90691 0.59821 1.03642 0.0
C1006 C 0.92003 0.58424 0.08282 0.0
C1007 C 0.94318 0.55329 0.08063 0.0
C1008 C 0.95378 0.53708 1.03225 0.0
C1009 C 0.93065 0.56813 1.03452 0.0
C1010 C 0.95252 0.53674 0.93721 0.0
C1011 C 0.93972 0.55108 0.89057 0.0
H1012 H 0.49219 0.29856 0.95846 0.0
H1013 H 0.56053 0.30008 0.83199 0.0
H1014 H 0.5263 0.24984 0.73905 0.0
H1015 H 0.47739 0.20277 0.70693 0.0
H1016 H 0.40966 0.20298 0.83474 0.0
H1017 H 0.44322 0.25461 0.91553 0.0
C1018 C 0.49946 0.28824 0.9088 0.0
C1019 C 0.52878 0.30307 0.90155 0.0
C1020 C 0.47982 0.2592 0.85752 0.0
C1021 C 0.53801 0.28936 0.8377 0.0
C1022 C 0.51848 0.26043 0.78559 0.0
C1023 C 0.46982 0.21438 0.75064 0.0
C1024 C 0.44077 0.19866 0.76377 0.0
C1025 C 0.48938 0.24468 0.79673 0.0
C1026 C 0.43172 0.21402 0.82302 0.0
C1027 C 0.45094 0.24381 0.8693 0.0
H1028 H 0.85427 0.15533 0.78117 0.0
H1029 H 0.90124 0.24627 0.94031 0.0
H1030 H 0.85646 0.24238 0.97086 0.0
H1031 H 0.80358 0.21207 0.95908 0.0
H1032 H 0.7559 0.12219 0.7943 0.0
H1033 H 0.80067 0.12703 0.75715 0.0
C1034 C 0.85468 0.17454 0.82105 0.0
C1035 C 0.88146 0.20162 0.85594 0.0
C1036 C 0.82844 0.17231 0.83724 0.0
C1037 C 0.88125 0.2256 0.91053 0.0
C1038 C 0.8555 0.22333 0.92814 0.0
C1039 C 0.80287 0.19386 0.91294 0.0
C1040 C 0.77594 0.16691 0.8786 0.0
C1041 C 0.82891 0.19678 0.89225 0.0
C1042 C 0.7759 0.14347 0.82029 0.0
C1043 C 0.80169 0.14604 0.80022 0.0
H1044 H 0.64877 0.04106 0.93594 0.0
H1045 H 0.59006 0.03419 0.12115 0.0
H1046 H 0.59768 0.99785 0.20085 0.0
H1047 H 0.62275 0.96967 0.22528 0.0
H1048 H 0.68295 0.97626 1.04613 0.0
H1049 H 0.67334 0.01086 0.95824 0.0
C1050 C 0.63721 0.03098 0.99248 0.0
C1051 C 0.61786 0.03964 1.01946 0.0
C1052 C 0.64236 0.01024 1.04055 0.0
C1053 C 0.60427 0.02763 0.09597 0.0
C1054 C 0.6088 0.00673 0.14262 0.0
C1055 C 0.63355 0.97825 0.16628 0.0
C1056 C 0.65355 0.97022 0.14269 0.0
C1057 C 0.62799 0.99812 0.11628 0.0
C1058 C 0.66771 0.98229 1.06689 0.0
C1059 C 0.66208 0.00196 1.01615 0.0
H1060 H 0.17551 0.67971 0.26432 0.0
H1061 H 0.13874 0.67963 0.51009 0.0
H1062 H 0.1154 0.62248 0.49838 0.0
H1063 H 0.10416 0.57203 0.418 0.0
H1064 H 0.1363 0.56998 0.16452 0.0
H1065 H 0.16308 0.62788 0.18055 0.0
C1066 C 0.16242 0.6672 0.31545 0.0
C1067 C 0.15906 0.68448 0.38841 0.0
C1068 C 0.14844 0.63373 0.30745 0.0
C1069 C 0.14171 0.66744 0.45304 0.0
C1070 C 0.12841 0.63457 0.44662 0.0
C1071 C 0.11731 0.58419 0.3665 0.0
C1072 C 0.11886 0.56628 0.29158 0.0
C1073 C 0.13152 0.61743 0.3742 0.0
C1074 C 0.13539 0.58278 0.22455 0.0
C1075 C 0.15044 0.61604 0.23329 0.0
H1076 H 0.53575 0.44037 0.10011 0.0
H1077 H 0.59093 0.47164 0.35522 0.0
H1078 H 0.55036 0.45482 0.43854 0.0
H1079 H 0.49882 0.43118 0.44067 0.0
H1080 H 0.44189 0.39617 0.18798 0.0
H1081 H 0.48288 0.41385 0.10255 0.0
C1082 C 0.53889 0.44444 0.17391 0.0
C1083 C 0.56701 0.46025 0.22106 0.0
C1084 C 0.51482 0.43322 0.22203 0.0
C1085 C 0.57021 0.46241 0.31674 0.0
C1086 C 0.54673 0.45199 0.36472 0.0
C1087 C 0.49527 0.42719 0.3668 0.0
C1088 C 0.46709 0.4123 0.32116 0.0
C1089 C 0.51894 0.4375 0.31828 0.0
C1090 C 0.46314 0.40717 0.2253 0.0
C1091 C 0.48669 0.4176 0.17634 0.0
H1092 H 0.8763 0.73346 0.68208 0.0
H1093 H 0.78973 0.65523 0.65477 0.0
H1094 H 0.77284 0.68725 0.58378 0.0
H1095 H 0.78371 0.73674 0.51866 0.0
H1096 H 0.87041 0.81509 0.55815 0.0
H1097 H 0.88614 0.78408 0.63883 0.0
C1098 C 0.85361 0.72343 0.66287 0.0
C1099 C 0.83438 0.69184 0.67412 0.0
C1100 C 0.84409 0.74222 0.62517 0.0
C1101 C 0.80511 0.67932 0.64657 0.0
C1102 C 0.79542 0.69778 0.60678 0.0
C1103 C 0.80592 0.74715 0.54677 0.0
C1104 C 0.82593 0.77823 0.53216 0.0
C1105 C 0.81483 0.72912 0.59401 0.0
C1106 C 0.8546 0.79144 0.56911 0.0
C1107 C 0.86364 0.77361 0.61466 0.0
H1108 H 0.30265 0.99444 0.65064 0.0
H1109 H 0.35143 0.00671 0.42807 0.0
H1110 H 0.32243 0.95002 0.37859 0.0
H1111 H 0.28214 0.89606 0.3973 0.0
H1112 H 0.23098 0.88641 0.61208 0.0
H1113 H 0.26115 0.94261 0.66332 0.0
C1114 C 0.30686 0.98525 0.59032 0.0
C1115 C 0.32963 0.00588 0.54388 0.0
C1116 C 0.28924 0.95256 0.56 0.0
C1117 C 0.33455 0.99217 0.46673 0.0
C1118 C 0.3177 0.95947 0.43781 0.0
C1119 C 0.27746 0.90623 0.4551 0.0
C1120 C 0.25391 0.88637 0.50038 0.0
C1121 C 0.29483 0.93928 0.48369 0.0
C1122 C 0.24849 0.90055 0.57492 0.0
C1123 C 0.26596 0.93291 0.60478 0.0
H1124 H 0.04582 0.26076 0.78121 0.0
H1125 H 0.98853 0.19378 0.55438 0.0
H1126 H 0.02734 0.18827 0.5044 0.0
H1127 H 0.07727 0.19951 0.53111 0.0
H1128 H 0.13501 0.26737 0.75553 0.0
H1129 H 0.0969 0.27532 0.80041 0.0
C1130 C 0.04186 0.24491 0.72099 0.0
C1131 C 0.01379 0.22659 0.67408 0.0
C1132 C 0.06462 0.24204 0.69193 0.0
C1133 C 0.00949 0.20718 0.59407 0.0
C1134 C 0.03184 0.20421 0.56494 0.0
C1135 C 0.08172 0.21671 0.58825 0.0
C1136 C 0.10939 0.23342 0.63841 0.0
C1137 C 0.05944 0.22106 0.61411 0.0
C1138 C 0.1143 0.25482 0.71413 0.0
C1139 C 0.09234 0.25915 0.74038 0.0
H1140 H 0.33472 0.15078 0.42784 0.0
H1141 H 0.37247 0.1826 0.70845 0.0
H1142 H 0.35408 0.2179 0.71704 0.0
H1143 H 0.33071 0.24366 0.64247 0.0
H1144 H 0.2935 0.21397 0.361 0.0
H1145 H 0.3075 0.17405 0.35555 0.0
C1146 C 0.33834 0.16488 0.49167 0.0
C1147 C 0.35441 0.16271 0.56869 0.0
C1148 C 0.32782 0.18595 0.49562 0.0
C1149 C 0.35951 0.18227 0.6492 0.0
C1150 C 0.34915 0.20299 0.65376 0.0
C1151 C 0.32518 0.22811 0.58001 0.0
C1152 C 0.31054 0.23184 0.50256 0.0
C1153 C 0.33371 0.20548 0.57719 0.0
C1154 C 0.30412 0.21157 0.42224 0.0
C1155 C 0.31246 0.18886 0.41901 0.0
H1156 H 0.8032 0.00608 0.54314 0.0
H1157 H 0.85489 0.01318 0.33309 0.0
H1158 H 0.89113 0.06665 0.40137 0.0
H1159 H 0.90572 0.11397 0.50883 0.0
H1160 H 0.85169 0.10806 0.71002 0.0
H1161 H 0.81758 0.05298 0.65154 0.0
C1162 C 0.82249 0.01947 0.51228 0.0
C1163 C 0.82728 0.00513 0.43648 0.0
C1164 C 0.84176 0.05134 0.54557 0.0
C1165 C 0.85149 0.02314 0.39427 0.0
C1166 C 0.87169 0.05413 0.43101 0.0
C1167 C 0.88609 0.1008 0.53799 0.0
C1168 C 0.88064 0.11537 0.61134 0.0
C1169 C 0.86669 0.06889 0.50464 0.0
C1170 C 0.85583 0.09762 0.65157 0.0
C1171 C 0.83649 0.06602 0.6188 0.0
H1172 H 0.92604 0.69742 0.64164 0.0
H1173 H 0.94041 0.62573 0.73533 0.0
H1174 H 0.98664 0.65 0.67876 0.0
H1175 H 0.0215 0.68911 0.58989 0.0
H1176 H 0.00677 0.7603 0.49335 0.0
H1177 H 0.96311 0.73944 0.56447 0.0
C1178 C 0.93966 0.68765 0.65159 0.0
C1179 C 0.93004 0.6602 0.695 0.0
C1180 C 0.96628 0.70156 0.6172 0.0
C1181 C 0.94754 0.64719 0.70409 0.0
C1182 C 0.97399 0.661 0.67125 0.0
C1183 C 0.00906 0.70045 0.58606 0.0
C1184 C 0.01751 0.72619 0.53542 0.0
C1185 C 0.98345 0.68789 0.62607 0.0
C1186 C 1.00077 0.74029 0.53084 0.0
C1187 C 0.97564 0.72829 0.57136 0.0
loop_
_geom_bond_atom_site_label_1
_geom_bond_atom_site_label_2
_geom_bond_distance
_geom_bond_site_symmetry_2
_ccdc_geom_bond_type
Gd0 N31 2.661 . S
Gd0 N37 2.601 . S
Gd0 O44 2.545 . S
Gd0 O45 2.606 1_655 S
Gd0 O47 2.429 1_655 S
Gd0 O48 2.545 1_655 S
Gd0 O49 2.412 . S
Gd0 O51 2.362 1_655 S
Gd0 O52 2.324 1_655 S
Gd0 C59 2.828 . S
Gd1 N10 2.661 . S
Gd1 N14 2.601 . S
Gd1 O45 2.362 . S
Gd1 O46 2.324 . S
Gd1 O50 2.545 . S
Gd1 O51 2.606 . S
Gd1 O53 2.429 . S
Gd1 O54 2.545 . S
Gd1 O55 2.412 . S
Gd1 C68 2.828 . S
C2 C5 1.417 . S
C2 C7 1.431 . S
C2 C8 1.412 . S
C3 C6 1.437 . S
C3 C7 1.317 . S
C3 H22 0.929 . S
C4 C5 1.426 . S
C4 C6 1.413 . S
C4 N14 1.359 . S
C5 C2 1.417 . S
C5 C4 1.426 . S
C5 N10 1.350 . S
C6 C3 1.437 . S
C6 C4 1.413 . S
C6 C16 1.391 . S
C7 C2 1.431 . S
C7 C3 1.317 . S
C7 H18 0.930 . S
C8 C2 1.412 . S
C8 C9 1.355 . S
C8 H20 0.930 . S
C9 C8 1.355 . S
C9 C11 1.402 . S
C9 H21 0.930 . S
N10 Gd1 2.661 . S
N10 C5 1.350 . S
N10 C11 1.307 . S
C11 C9 1.402 . S
C11 N10 1.307 . S
C11 H12 0.930 . S
H12 C11 0.930 . S
C13 N14 1.334 . S
C13 C15 1.394 . S
C13 H17 0.930 . S
N14 Gd1 2.601 . S
N14 C4 1.359 . S
N14 C13 1.334 . S
C15 C13 1.394 . S
C15 C16 1.359 . S
C15 H27 0.930 1_554 S
C16 C6 1.391 . S
C16 C15 1.359 . S
C16 H28 0.929 . S
H17 C13 0.930 . S
H18 C7 0.930 . S
H19 C36 0.930 1_556 S
H20 C8 0.930 . S
H21 C9 0.930 . S
H22 C3 0.929 . S
H23 C41 0.930 . S
H24 C32 0.930 . S
H25 C33 0.930 . S
H26 C57 0.929 . S
H27 C15 0.930 1_556 S
H28 C16 0.929 . S
H29 C58 0.930 . S
H30 C39 0.930 . S
N31 Gd0 2.661 . S
N31 C35 1.350 . S
N31 C36 1.307 . S
C32 H24 0.930 . S
C32 C33 1.355 . S
C32 C34 1.412 1_556 S
C33 H25 0.930 . S
C33 C32 1.355 . S
C33 C36 1.402 1_556 S
C34 C32 1.412 1_554 S
C34 C35 1.417 . S
C34 C58 1.431 . S
C35 N31 1.350 . S
C35 C34 1.417 . S
C35 C38 1.426 . S
C36 H19 0.930 1_554 S
C36 N31 1.307 . S
C36 C33 1.402 1_554 S
N37 Gd0 2.601 . S
N37 C38 1.359 . S
N37 C41 1.334 . S
C38 C35 1.426 . S
C38 N37 1.359 . S
C38 C42 1.413 . S
C39 H30 0.930 . S
C39 C40 1.359 . S
C39 C41 1.394 . S
C40 C39 1.359 . S
C40 C42 1.391 . S
C40 H43 0.929 . S
C41 H23 0.930 . S
C41 N37 1.334 . S
C41 C39 1.394 . S
C42 C38 1.413 . S
C42 C40 1.391 . S
C42 C57 1.437 . S
H43 C40 0.929 . S
O44 Gd0 2.545 . S
O44 C59 1.258 . S
O45 Gd0 2.606 1_455 S
O45 Gd1 2.362 . S
O45 C56 1.284 . S
O46 Gd1 2.324 . S
O46 C66 1.254 . S
O47 Gd0 2.429 1_455 S
O47 C66 1.268 . S
O48 Gd0 2.545 1_455 S
O48 C56 1.250 . S
O49 Gd0 2.412 . S
O49 C59 1.252 . S
O50 Gd1 2.545 . S
O50 C68 1.258 . S
O51 Gd0 2.362 1_455 S
O51 Gd1 2.606 . S
O51 C67 1.284 . S
O52 Gd0 2.324 1_455 S
O52 C75 1.254 . S
O53 Gd1 2.429 . S
O53 C75 1.268 . S
O54 Gd1 2.545 . S
O54 C67 1.250 . S
O55 Gd1 2.412 . S
O55 C68 1.252 . S
C56 O45 1.284 . S
C56 O48 1.250 . S
C57 H26 0.929 . S
C57 C42 1.437 . S
C57 C58 1.317 . S
C58 H29 0.930 . S
C58 C34 1.431 . S
C58 C57 1.317 . S
C59 Gd0 2.828 . S
C59 O44 1.258 . S
C59 O49 1.252 . S
C59 C60 1.497 . S
C60 C59 1.497 . S
C60 C61 1.395 . S
C60 C62 1.380 . S
C61 C60 1.395 . S
C61 C64 1.398 . S
C61 H76 0.930 . S
C62 C60 1.380 . S
C62 C63 1.391 . S
C62 H77 0.930 . S
C63 C62 1.391 . S
C63 C65 1.387 . S
C64 C61 1.398 . S
C64 C65 1.380 . S
C64 H78 0.930 . S
C65 C63 1.387 . S
C65 C64 1.380 . S
C65 H79 0.930 . S
C66 O46 1.254 . S
C66 O47 1.268 . S
C67 O51 1.284 . S
C67 O54 1.250 . S
C68 Gd1 2.828 . S
C68 O50 1.258 . S
C68 O55 1.252 . S
C68 C69 1.497 . S
C69 C68 1.497 . S
C69 C70 1.395 . S
C69 C71 1.380 . S
C70 C69 1.395 . S
C70 C73 1.398 . S
C70 H80 0.930 . S
C71 C69 1.380 . S
C71 C72 1.391 . S
C71 H81 0.930 . S
C72 C71 1.391 . S
C72 C74 1.387 . S
C73 C70 1.398 . S
C73 C74 1.380 . S
C73 H82 0.930 . S
C74 C72 1.387 . S
C74 C73 1.380 . S
C74 H83 0.930 . S
C75 O52 1.254 . S
C75 O53 1.268 . S
H76 C61 0.930 . S
H77 C62 0.930 . S
H78 C64 0.930 . S
H79 C65 0.930 . S
H80 C70 0.930 . S
H81 C71 0.930 . S
H82 C73 0.930 . S
H83 C74 0.930 . S
Gd84 N115 2.661 . S
Gd84 N121 2.601 . S
Gd84 O128 2.545 . S
Gd84 O129 2.606 . S
Gd84 O131 2.429 . S
Gd84 O132 2.545 . S
Gd84 O133 2.412 . S
Gd84 O135 2.362 . S
Gd84 O136 2.324 1_554 S
Gd84 C143 2.828 . S
Gd85 N94 2.661 . S
Gd85 N98 2.601 . S
Gd85 O129 2.362 . S
Gd85 O130 2.324 . S
Gd85 O134 2.545 . S
Gd85 O135 2.606 . S
Gd85 O137 2.429 1_554 S
Gd85 O138 2.545 . S
Gd85 O139 2.412 . S
Gd85 C152 2.828 . S
C86 C89 1.417 . S
C86 C91 1.431 . S
C86 C92 1.412 . S
C87 C90 1.437 . S
C87 C91 1.317 . S
C87 H106 0.929 . S
C88 C89 1.426 . S
C88 C90 1.413 . S
C88 N98 1.359 . S
C89 C86 1.417 . S
C89 C88 1.426 . S
C89 N94 1.350 . S
C90 C87 1.437 . S
C90 C88 1.413 . S
C90 C100 1.391 1_554 S
C91 C86 1.431 . S
C91 C87 1.317 . S
C91 H102 0.930 . S
C92 C86 1.412 . S
C92 C93 1.355 . S
C92 H104 0.930 . S
C93 C92 1.355 . S
C93 C95 1.402 . S
C93 H105 0.930 . S
N94 Gd85 2.661 . S
N94 C89 1.350 . S
N94 C95 1.307 . S
C95 C93 1.402 . S
C95 N94 1.307 . S
C95 H96 0.930 . S
H96 C95 0.930 . S
C97 N98 1.334 1_556 S
C97 C99 1.394 . S
C97 H101 0.930 . S
N98 Gd85 2.601 . S
N98 C88 1.359 . S
N98 C97 1.334 1_554 S
C99 C97 1.394 . S
C99 C100 1.359 . S
C99 H111 0.930 . S
C100 C90 1.391 1_556 S
C100 C99 1.359 . S
C100 H112 0.929 . S
H101 C97 0.930 . S
H102 C91 0.930 . S
H103 C120 0.930 . S
H104 C92 0.930 . S
H105 C93 0.930 . S
H106 C87 0.929 . S
H107 C125 0.930 . S
H108 C116 0.930 . S
H109 C117 0.930 . S
H110 C141 0.929 . S
H111 C99 0.930 . S
H112 C100 0.929 . S
H113 C142 0.930 . S
H114 C123 0.930 . S
N115 Gd84 2.661 . S
N115 C119 1.350 . S
N115 C120 1.307 1_554 S
C116 H108 0.930 . S
C116 C117 1.355 . S
C116 C118 1.412 1_556 S
C117 H109 0.930 . S
C117 C116 1.355 . S
C117 C120 1.402 . S
C118 C116 1.412 1_554 S
C118 C119 1.417 . S
C118 C142 1.431 . S
C119 N115 1.350 . S
C119 C118 1.417 . S
C119 C122 1.426 . S
C120 H103 0.930 . S
C120 N115 1.307 1_556 S
C120 C117 1.402 . S
N121 Gd84 2.601 . S
N121 C122 1.359 . S
N121 C125 1.334 . S
C122 C119 1.426 . S
C122 N121 1.359 . S
C122 C126 1.413 . S
C123 H114 0.930 . S
C123 C124 1.359 . S
C123 C125 1.394 . S
C124 C123 1.359 . S
C124 C126 1.391 . S
C124 H127 0.929 . S
C125 H107 0.930 . S
C125 N121 1.334 . S
C125 C123 1.394 . S
C126 C122 1.413 . S
C126 C124 1.391 . S
C126 C141 1.437 . S
H127 C124 0.929 . S
O128 Gd84 2.545 . S
O128 C143 1.258 . S
O129 Gd84 2.606 . S
O129 Gd85 2.362 . S
O129 C140 1.284 . S
O130 Gd85 2.324 . S
O130 C150 1.254 . S
O131 Gd84 2.429 . S
O131 C150 1.268 . S
O132 Gd84 2.545 . S
O132 C140 1.250 . S
O133 Gd84 2.412 . S
O133 C143 1.252 . S
O134 Gd85 2.545 . S
O134 C152 1.258 . S
O135 Gd84 2.362 . S
O135 Gd85 2.606 . S
O135 C151 1.284 . S
O136 Gd84 2.324 1_556 S
O136 C159 1.254 . S
O137 Gd85 2.429 1_556 S
O137 C159 1.268 . S
O138 Gd85 2.545 . S
O138 C151 1.250 . S
O139 Gd85 2.412 . S
O139 C152 1.252 . S
C140 O129 1.284 . S
C140 O132 1.250 . S
C141 H110 0.929 . S
C141 C126 1.437 . S
C141 C142 1.317 . S
C142 H113 0.930 . S
C142 C118 1.431 . S
C142 C141 1.317 . S
C143 Gd84 2.828 . S
C143 O128 1.258 . S
C143 O133 1.252 . S
C143 C144 1.497 . S
C144 C143 1.497 . S
C144 C145 1.395 . S
C144 C146 1.380 1_554 S
C145 C144 1.395 . S
C145 C148 1.398 . S
C145 H160 0.930 . S
C146 C144 1.380 1_556 S
C146 C147 1.391 . S
C146 H161 0.930 . S
C147 C146 1.391 . S
C147 C149 1.387 1_556 S
C148 C145 1.398 . S
C148 C149 1.380 . S
C148 H162 0.930 . S
C149 C147 1.387 1_554 S
C149 C148 1.380 . S
C149 H163 0.930 1_554 S
C150 O130 1.254 . S
C150 O131 1.268 . S
C151 O135 1.284 . S
C151 O138 1.250 . S
C152 Gd85 2.828 . S
C152 O134 1.258 . S
C152 O139 1.252 . S
C152 C153 1.497 . S
C153 C152 1.497 . S
C153 C154 1.395 . S
C153 C155 1.380 . S
C154 C153 1.395 . S
C154 C157 1.398 . S
C154 H164 0.930 . S
C155 C153 1.380 . S
C155 C156 1.391 . S
C155 H165 0.930 . S
C156 C155 1.391 . S
C156 C158 1.387 . S
C157 C154 1.398 . S
C157 C158 1.380 . S
C157 H166 0.930 . S
C158 C156 1.387 . S
C158 C157 1.380 . S
C158 H167 0.930 . S
C159 O136 1.254 . S
C159 O137 1.268 . S
H160 C145 0.930 . S
H161 C146 0.930 . S
H162 C148 0.930 . S
H163 C149 0.930 1_556 S
H164 C154 0.930 . S
H165 C155 0.930 . S
H166 C157 0.930 . S
H167 C158 0.930 . S
Gd168 N199 2.661 1_554 S
Gd168 N205 2.601 . S
Gd168 O212 2.545 . S
Gd168 O213 2.606 . S
Gd168 O215 2.429 . S
Gd168 O216 2.545 . S
Gd168 O217 2.412 1_554 S
Gd168 O219 2.362 1_554 S
Gd168 O220 2.324 1_554 S
Gd168 C227 2.828 . S
Gd169 N178 2.661 1_556 S
Gd169 N182 2.601 . S
Gd169 O213 2.362 1_556 S
Gd169 O214 2.324 1_556 S
Gd169 O218 2.545 . S
Gd169 O219 2.606 . S
Gd169 O221 2.429 . S
Gd169 O222 2.545 . S
Gd169 O223 2.412 1_556 S
Gd169 C236 2.828 . S
C170 C173 1.417 . S
C170 C175 1.431 . S
C170 C176 1.412 . S
C171 C174 1.437 . S
C171 C175 1.317 1_556 S
C171 H190 0.929 . S
C172 C173 1.426 1_556 S
C172 C174 1.413 . S
C172 N182 1.359 1_565 S
C173 C170 1.417 . S
C173 C172 1.426 1_554 S
C173 N178 1.350 1_565 S
C174 C171 1.437 . S
C174 C172 1.413 . S
C174 C184 1.391 . S
C175 C170 1.431 . S
C175 C171 1.317 1_554 S
C175 H186 0.930 . S
C176 C170 1.412 . S
C176 C177 1.355 1_565 S
C176 H188 0.930 . S
C177 C176 1.355 1_545 S
C177 C179 1.402 . S
C177 H189 0.930 . S
N178 Gd169 2.661 1_554 S
N178 C173 1.350 1_545 S
N178 C179 1.307 . S
C179 C177 1.402 . S
C179 N178 1.307 . S
C179 H180 0.930 . S
H180 C179 0.930 . S
C181 N182 1.334 1_565 S
C181 C183 1.394 . S
C181 H185 0.930 1_565 S
N182 Gd169 2.601 . S
N182 C172 1.359 1_545 S
N182 C181 1.334 1_545 S
C183 C181 1.394 . S
C183 C184 1.359 . S
C183 H195 0.930 . S
C184 C174 1.391 . S
C184 C183 1.359 . S
C184 H196 0.929 . S
H185 C181 0.930 1_545 S
H186 C175 0.930 . S
H187 C204 0.930 . S
H188 C176 0.930 . S
H189 C177 0.930 . S
H190 C171 0.929 . S
H191 C209 0.930 . S
H192 C200 0.930 . S
H193 C201 0.930 . S
H194 C225 0.929 . S
H195 C183 0.930 . S
H196 C184 0.929 . S
H197 C226 0.930 . S
H198 C207 0.930 . S
N199 Gd168 2.661 1_556 S
N199 C203 1.350 . S
N199 C204 1.307 . S
C200 H192 0.930 . S
C200 C201 1.355 . S
C200 C202 1.412 . S
C201 H193 0.930 . S
C201 C200 1.355 . S
C201 C204 1.402 . S
C202 C200 1.412 . S
C202 C203 1.417 . S
C202 C226 1.431 . S
C203 N199 1.350 . S
C203 C202 1.417 . S
C203 C206 1.426 1_556 S
C204 H187 0.930 . S
C204 N199 1.307 . S
C204 C201 1.402 . S
N205 Gd168 2.601 . S
N205 C206 1.359 . S
N205 C209 1.334 . S
C206 C203 1.426 1_554 S
C206 N205 1.359 . S
C206 C210 1.413 . S
C207 H198 0.930 . S
C207 C208 1.359 . S
C207 C209 1.394 . S
C208 C207 1.359 . S
C208 C210 1.391 . S
C208 H211 0.929 . S
C209 H191 0.930 . S
C209 N205 1.334 . S
C209 C207 1.394 . S
C210 C206 1.413 . S
C210 C208 1.391 . S
C210 C225 1.437 . S
H211 C208 0.929 . S
O212 Gd168 2.545 . S
O212 C227 1.258 . S
O213 Gd168 2.606 . S
O213 Gd169 2.362 1_554 S
O213 C224 1.284 . S
O214 Gd169 2.324 1_554 S
O214 C234 1.254 . S
O215 Gd168 2.429 . S
O215 C234 1.268 . S
O216 Gd168 2.545 . S
O216 C224 1.250 . S
O217 Gd168 2.412 1_556 S
O217 C227 1.252 1_556 S
O218 Gd169 2.545 . S
O218 C236 1.258 . S
O219 Gd168 2.362 1_556 S
O219 Gd169 2.606 . S
O219 C235 1.284 . S
O220 Gd168 2.324 1_556 S
O220 C243 1.254 . S
O221 Gd169 2.429 . S
O221 C243 1.268 . S
O222 Gd169 2.545 . S
O222 C235 1.250 . S
O223 Gd169 2.412 1_554 S
O223 C236 1.252 1_554 S
C224 O213 1.284 . S
C224 O216 1.250 . S
C225 H194 0.929 . S
C225 C210 1.437 . S
C225 C226 1.317 1_554 S
C226 H197 0.930 . S
C226 C202 1.431 . S
C226 C225 1.317 1_556 S
C227 Gd168 2.828 . S
C227 O212 1.258 . S
C227 O217 1.252 1_554 S
C227 C228 1.497 . S
C228 C227 1.497 . S
C228 C229 1.395 . S
C228 C230 1.380 1_554 S
C229 C228 1.395 . S
C229 C232 1.398 . S
C229 H244 0.930 . S
C230 C228 1.380 1_556 S
C230 C231 1.391 . S
C230 H245 0.930 . S
C231 C230 1.391 . S
C231 C233 1.387 . S
C232 C229 1.398 . S
C232 C233 1.380 1_554 S
C232 H246 0.930 . S
C233 C231 1.387 . S
C233 C232 1.380 1_556 S
C233 H247 0.930 . S
C234 O214 1.254 . S
C234 O215 1.268 . S
C235 O219 1.284 . S
C235 O222 1.250 . S
C236 Gd169 2.828 . S
C236 O218 1.258 . S
C236 O223 1.252 1_556 S
C236 C237 1.497 1_545 S
C237 C236 1.497 1_565 S
C237 C238 1.395 . S
C237 C239 1.380 1_566 S
C238 C237 1.395 . S
C238 C241 1.398 . S
C238 H248 0.930 . S
C239 C237 1.380 1_544 S
C239 C240 1.391 1_545 S
C239 H249 0.930 . S
C240 C239 1.391 1_565 S
C240 C242 1.387 . S
C241 C238 1.398 . S
C241 C242 1.380 1_556 S
C241 H250 0.930 . S
C242 C240 1.387 . S
C242 C241 1.380 1_554 S
C242 H251 0.930 . S
C243 O220 1.254 . S
C243 O221 1.268 . S
H244 C229 0.930 . S
H245 C230 0.930 . S
H246 C232 0.930 . S
H247 C233 0.930 . S
H248 C238 0.930 . S
H249 C239 0.930 . S
H250 C241 0.930 . S
H251 C242 0.930 . S
Gd252 N283 2.661 . S
Gd252 N289 2.601 . S
Gd252 O296 2.545 . S
Gd252 O297 2.606 . S
Gd252 O299 2.429 . S
Gd252 O300 2.545 . S
Gd252 O301 2.412 . S
Gd252 O303 2.362 . S
Gd252 O304 2.324 . S
Gd252 C311 2.828 . S
Gd253 N262 2.661 . S
Gd253 N266 2.601 . S
Gd253 O297 2.362 . S
Gd253 O298 2.324 . S
Gd253 O302 2.545 . S
Gd253 O303 2.606 . S
Gd253 O305 2.429 . S
Gd253 O306 2.545 . S
Gd253 O307 2.412 . S
Gd253 C320 2.828 . S
C254 C257 1.417 1_545 S
C254 C259 1.431 . S
C254 C260 1.412 . S
C255 C258 1.437 1_545 S
C255 C259 1.317 . S
C255 H274 0.929 1_655 S
C256 C257 1.426 . S
C256 C258 1.413 . S
C256 N266 1.359 . S
C257 C254 1.417 1_565 S
C257 C256 1.426 . S
C257 N262 1.350 . S
C258 C255 1.437 1_565 S
C258 C256 1.413 . S
C258 C268 1.391 . S
C259 C254 1.431 . S
C259 C255 1.317 . S
C259 H270 0.930 . S
C260 C254 1.412 . S
C260 C261 1.355 . S
C260 H272 0.930 . S
C261 C260 1.355 . S
C261 C263 1.402 1_545 S
C261 H273 0.930 . S
N262 Gd253 2.661 . S
N262 C257 1.350 . S
N262 C263 1.307 . S
C263 C261 1.402 1_565 S
C263 N262 1.307 . S
C263 H264 0.930 . S
H264 C263 0.930 . S
C265 N266 1.334 . S
C265 C267 1.394 . S
C265 H269 0.930 . S
N266 Gd253 2.601 . S
N266 C256 1.359 . S
N266 C265 1.334 . S
C267 C265 1.394 . S
C267 C268 1.359 . S
C267 H279 0.930 . S
C268 C258 1.391 . S
C268 C267 1.359 . S
C268 H280 0.929 . S
H269 C265 0.930 . S
H270 C259 0.930 . S
H271 C288 0.930 . S
H272 C260 0.930 . S
H273 C261 0.930 . S
H274 C255 0.929 1_455 S
H275 C293 0.930 . S
H276 C284 0.930 . S
H277 C285 0.930 1_556 S
H278 C309 0.929 . S
H279 C267 0.930 . S
H280 C268 0.929 . S
H281 C310 0.930 . S
H282 C291 0.930 . S
N283 Gd252 2.661 . S
N283 C287 1.350 . S
N283 C288 1.307 . S
C284 H276 0.930 . S
C284 C285 1.355 . S
C284 C286 1.412 . S
C285 H277 0.930 1_554 S
C285 C284 1.355 . S
C285 C288 1.402 . S
C286 C284 1.412 . S
C286 C287 1.417 . S
C286 C310 1.431 . S
C287 N283 1.350 . S
C287 C286 1.417 . S
C287 C290 1.426 . S
C288 H271 0.930 . S
C288 N283 1.307 . S
C288 C285 1.402 . S
N289 Gd252 2.601 . S
N289 C290 1.359 . S
N289 C293 1.334 . S
C290 C287 1.426 . S
C290 N289 1.359 . S
C290 C294 1.413 . S
C291 H282 0.930 . S
C291 C292 1.359 . S
C291 C293 1.394 . S
C292 C291 1.359 . S
C292 C294 1.391 . S
C292 H295 0.929 . S
C293 H275 0.930 . S
C293 N289 1.334 . S
C293 C291 1.394 . S
C294 C290 1.413 . S
C294 C292 1.391 . S
C294 C309 1.437 . S
H295 C292 0.929 . S
O296 Gd252 2.545 . S
O296 C311 1.258 . S
O297 Gd252 2.606 . S
O297 Gd253 2.362 . S
O297 C308 1.284 . S
O298 Gd253 2.324 . S
O298 C318 1.254 . S
O299 Gd252 2.429 . S
O299 C318 1.268 . S
O300 Gd252 2.545 . S
O300 C308 1.250 . S
O301 Gd252 2.412 . S
O301 C311 1.252 . S
O302 Gd253 2.545 . S
O302 C320 1.258 . S
O303 Gd252 2.362 . S
O303 Gd253 2.606 . S
O303 C319 1.284 . S
O304 Gd252 2.324 . S
O304 C327 1.254 . S
O305 Gd253 2.429 . S
O305 C327 1.268 . S
O306 Gd253 2.545 . S
O306 C319 1.250 . S
O307 Gd253 2.412 . S
O307 C320 1.252 . S
C308 O297 1.284 . S
C308 O300 1.250 . S
C309 H278 0.929 . S
C309 C294 1.437 . S
C309 C310 1.317 . S
C310 H281 0.930 . S
C310 C286 1.431 . S
C310 C309 1.317 . S
C311 Gd252 2.828 . S
C311 O296 1.258 . S
C311 O301 1.252 . S
C311 C312 1.497 . S
C312 C311 1.497 . S
C312 C313 1.395 . S
C312 C314 1.380 . S
C313 C312 1.395 . S
C313 C316 1.398 . S
C313 H328 0.930 . S
C314 C312 1.380 . S
C314 C315 1.391 1_565 S
C314 H329 0.930 . S
C315 C314 1.391 1_545 S
C315 C317 1.387 . S
C316 C313 1.398 . S
C316 C317 1.380 1_565 S
C316 H330 0.930 . S
C317 C315 1.387 . S
C317 C316 1.380 1_545 S
C317 H331 0.930 . S
C318 O298 1.254 . S
C318 O299 1.268 . S
C319 O303 1.284 . S
C319 O306 1.250 . S
C320 Gd253 2.828 . S
C320 O302 1.258 . S
C320 O307 1.252 . S
C320 C321 1.497 . S
C321 C320 1.497 . S
C321 C322 1.395 . S
C321 C323 1.380 . S
C322 C321 1.395 . S
C322 C325 1.398 . S
C322 H332 0.930 . S
C323 C321 1.380 . S
C323 C324 1.391 . S
C323 H333 0.930 . S
C324 C323 1.391 . S
C324 C326 1.387 . S
C325 C322 1.398 . S
C325 C326 1.380 . S
C325 H334 0.930 . S
C326 C324 1.387 . S
C326 C325 1.380 . S
C326 H335 0.930 . S
C327 O304 1.254 . S
C327 O305 1.268 . S
H328 C313 0.930 . S
H329 C314 0.930 . S
H330 C316 0.930 . S
H331 C317 0.930 . S
H332 C322 0.930 . S
H333 C323 0.930 . S
H334 C325 0.930 . S
H335 C326 0.930 . S
Gd336 N367 2.661 . S
Gd336 N373 2.601 . S
Gd336 O380 2.545 . S
Gd336 O381 2.606 . S
Gd336 O383 2.429 . S
Gd336 O384 2.545 . S
Gd336 O385 2.412 . S
Gd336 O387 2.362 . S
Gd336 O388 2.324 . S
Gd336 C395 2.828 . S
Gd337 N346 2.661 . S
Gd337 N350 2.601 . S
Gd337 O381 2.362 . S
Gd337 O382 2.324 . S
Gd337 O386 2.545 . S
Gd337 O387 2.606 . S
Gd337 O389 2.429 . S
Gd337 O390 2.545 . S
Gd337 O391 2.412 . S
Gd337 C404 2.828 . S
C338 C341 1.417 1_556 S
C338 C343 1.431 . S
C338 C344 1.412 . S
C339 C342 1.437 1_556 S
C339 C343 1.317 . S
C339 H358 0.929 . S
C340 C341 1.426 . S
C340 C342 1.413 . S
C340 N350 1.359 . S
C341 C338 1.417 1_554 S
C341 C340 1.426 . S
C341 N346 1.350 . S
C342 C339 1.437 1_554 S
C342 C340 1.413 . S
C342 C352 1.391 . S
C343 C338 1.431 . S
C343 C339 1.317 . S
C343 H354 0.930 . S
C344 C338 1.412 . S
C344 C345 1.355 . S
C344 H356 0.930 . S
C345 C344 1.355 . S
C345 C347 1.402 1_556 S
C345 H357 0.930 . S
N346 Gd337 2.661 . S
N346 C341 1.350 . S
N346 C347 1.307 . S
C347 C345 1.402 1_554 S
C347 N346 1.307 . S
C347 H348 0.930 . S
H348 C347 0.930 . S
C349 N350 1.334 . S
C349 C351 1.394 . S
C349 H353 0.930 . S
N350 Gd337 2.601 . S
N350 C340 1.359 . S
N350 C349 1.334 . S
C351 C349 1.394 . S
C351 C352 1.359 . S
C351 H363 0.930 . S
C352 C342 1.391 . S
C352 C351 1.359 . S
C352 H364 0.929 . S
H353 C349 0.930 . S
H354 C343 0.930 . S
H355 C372 0.930 . S
H356 C344 0.930 . S
H357 C345 0.930 . S
H358 C339 0.929 . S
H359 C377 0.930 . S
H360 C368 0.930 . S
H361 C369 0.930 . S
H362 C393 0.929 . S
H363 C351 0.930 . S
H364 C352 0.929 . S
H365 C394 0.930 . S
H366 C375 0.930 . S
N367 Gd336 2.661 . S
N367 C371 1.350 . S
N367 C372 1.307 . S
C368 H360 0.930 . S
C368 C369 1.355 . S
C368 C370 1.412 . S
C369 H361 0.930 . S
C369 C368 1.355 . S
C369 C372 1.402 . S
C370 C368 1.412 . S
C370 C371 1.417 . S
C370 C394 1.431 . S
C371 N367 1.350 . S
C371 C370 1.417 . S
C371 C374 1.426 . S
C372 H355 0.930 . S
C372 N367 1.307 . S
C372 C369 1.402 . S
N373 Gd336 2.601 . S
N373 C374 1.359 . S
N373 C377 1.334 . S
C374 C371 1.426 . S
C374 N373 1.359 . S
C374 C378 1.413 . S
C375 H366 0.930 . S
C375 C376 1.359 . S
C375 C377 1.394 . S
C376 C375 1.359 . S
C376 C378 1.391 . S
C376 H379 0.929 . S
C377 H359 0.930 . S
C377 N373 1.334 . S
C377 C375 1.394 . S
C378 C374 1.413 . S
C378 C376 1.391 . S
C378 C393 1.437 . S
H379 C376 0.929 . S
O380 Gd336 2.545 . S
O380 C395 1.258 . S
O381 Gd336 2.606 . S
O381 Gd337 2.362 . S
O381 C392 1.284 . S
O382 Gd337 2.324 . S
O382 C402 1.254 . S
O383 Gd336 2.429 . S
O383 C402 1.268 . S
O384 Gd336 2.545 . S
O384 C392 1.250 . S
O385 Gd336 2.412 . S
O385 C395 1.252 . S
O386 Gd337 2.545 . S
O386 C404 1.258 . S
O387 Gd336 2.362 . S
O387 Gd337 2.606 . S
O387 C403 1.284 . S
O388 Gd336 2.324 . S
O388 C411 1.254 . S
O389 Gd337 2.429 . S
O389 C411 1.268 . S
O390 Gd337 2.545 . S
O390 C403 1.250 . S
O391 Gd337 2.412 . S
O391 C404 1.252 . S
C392 O381 1.284 . S
C392 O384 1.250 . S
C393 H362 0.929 . S
C393 C378 1.437 . S
C393 C394 1.317 . S
C394 H365 0.930 . S
C394 C370 1.431 . S
C394 C393 1.317 . S
C395 Gd336 2.828 . S
C395 O380 1.258 . S
C395 O385 1.252 . S
C395 C396 1.497 . S
C396 C395 1.497 . S
C396 C397 1.395 . S
C396 C398 1.380 . S
C397 C396 1.395 . S
C397 C400 1.398 . S
C397 H412 0.930 . S
C398 C396 1.380 . S
C398 C399 1.391 . S
C398 H413 0.930 . S
C399 C398 1.391 . S
C399 C401 1.387 . S
C400 C397 1.398 . S
C400 C401 1.380 . S
C400 H414 0.930 . S
C401 C399 1.387 . S
C401 C400 1.380 . S
C401 H415 0.930 . S
C402 O382 1.254 . S
C402 O383 1.268 . S
C403 O387 1.284 . S
C403 O390 1.250 . S
C404 Gd337 2.828 . S
C404 O386 1.258 . S
C404 O391 1.252 . S
C404 C405 1.497 . S
C405 C404 1.497 . S
C405 C406 1.395 . S
C405 C407 1.380 . S
C406 C405 1.395 . S
C406 C409 1.398 . S
C406 H416 0.930 . S
C407 C405 1.380 . S
C407 C408 1.375 1_455 S
C407 H417 0.930 . S
C408 C407 1.375 1_655 S
C408 C410 1.403 . S
C409 C406 1.398 . S
C409 C410 1.380 1_455 S
C409 H418 0.930 1_455 S
C410 C408 1.403 . S
C410 C409 1.380 1_655 S
C410 H419 0.930 . S
C411 O388 1.254 . S
C411 O389 1.268 . S
H412 C397 0.930 . S
H413 C398 0.930 . S
H414 C400 0.930 . S
H415 C401 0.930 . S
H416 C406 0.930 . S
H417 C407 0.930 . S
H418 C409 0.930 1_655 S
H419 C410 0.930 . S
Gd420 N451 2.661 . S
Gd420 N457 2.601 . S
Gd420 O464 2.545 . S
Gd420 O465 2.606 . S
Gd420 O467 2.429 . S
Gd420 O468 2.545 . S
Gd420 O469 2.412 . S
Gd420 O471 2.362 . S
Gd420 O472 2.324 . S
Gd420 C479 2.828 . S
Gd421 N430 2.661 . S
Gd421 N434 2.601 . S
Gd421 O465 2.362 . S
Gd421 O466 2.324 . S
Gd421 O470 2.545 . S
Gd421 O471 2.606 . S
Gd421 O473 2.429 . S
Gd421 O474 2.545 . S
Gd421 O475 2.412 . S
Gd421 C488 2.828 . S
C422 C425 1.417 . S
C422 C427 1.431 . S
C422 C428 1.412 . S
C423 C426 1.437 . S
C423 C427 1.317 . S
C423 H442 0.929 . S
C424 C425 1.426 . S
C424 C426 1.413 . S
C424 N434 1.359 . S
C425 C422 1.417 . S
C425 C424 1.426 . S
C425 N430 1.350 . S
C426 C423 1.437 . S
C426 C424 1.413 . S
C426 C436 1.391 . S
C427 C422 1.431 . S
C427 C423 1.317 . S
C427 H438 0.930 . S
C428 C422 1.412 . S
C428 C429 1.355 . S
C428 H440 0.930 . S
C429 C428 1.355 . S
C429 C431 1.402 . S
C429 H441 0.930 . S
N430 Gd421 2.661 . S
N430 C425 1.350 . S
N430 C431 1.307 . S
C431 C429 1.402 . S
C431 N430 1.307 . S
C431 H432 0.930 . S
H432 C431 0.930 . S
C433 N434 1.334 . S
C433 C435 1.394 1_554 S
C433 H437 0.930 . S
N434 Gd421 2.601 . S
N434 C424 1.359 . S
N434 C433 1.334 . S
C435 C433 1.394 1_556 S
C435 C436 1.359 1_556 S
C435 H447 0.930 . S
C436 C426 1.391 . S
C436 C435 1.359 1_554 S
C436 H448 0.929 1_554 S
H437 C433 0.930 . S
H438 C427 0.930 . S
H439 C456 0.930 . S
H440 C428 0.930 . S
H441 C429 0.930 . S
H442 C423 0.929 . S
H443 C461 0.930 . S
H444 C452 0.930 . S
H445 C453 0.930 . S
H446 C477 0.929 . S
H447 C435 0.930 . S
H448 C436 0.929 1_556 S
H449 C478 0.930 . S
H450 C459 0.930 . S
N451 Gd420 2.661 . S
N451 C455 1.350 . S
N451 C456 1.307 . S
C452 H444 0.930 . S
C452 C453 1.355 . S
C452 C454 1.412 . S
C453 H445 0.930 . S
C453 C452 1.355 . S
C453 C456 1.402 . S
C454 C452 1.412 . S
C454 C455 1.417 . S
C454 C478 1.431 . S
C455 N451 1.350 . S
C455 C454 1.417 . S
C455 C458 1.426 . S
C456 H439 0.930 . S
C456 N451 1.307 . S
C456 C453 1.402 . S
N457 Gd420 2.601 . S
N457 C458 1.359 . S
N457 C461 1.334 . S
C458 C455 1.426 . S
C458 N457 1.359 . S
C458 C462 1.413 . S
C459 H450 0.930 . S
C459 C460 1.359 . S
C459 C461 1.394 . S
C460 C459 1.359 . S
C460 C462 1.391 . S
C460 H463 0.929 . S
C461 H443 0.930 . S
C461 N457 1.334 . S
C461 C459 1.394 . S
C462 C458 1.413 . S
C462 C460 1.391 . S
C462 C477 1.437 . S
H463 C460 0.929 . S
O464 Gd420 2.545 . S
O464 C479 1.258 . S
O465 Gd420 2.606 . S
O465 Gd421 2.362 . S
O465 C476 1.284 . S
O466 Gd421 2.324 . S
O466 C486 1.254 . S
O467 Gd420 2.429 . S
O467 C486 1.268 . S
O468 Gd420 2.545 . S
O468 C476 1.250 . S
O469 Gd420 2.412 . S
O469 C479 1.252 . S
O470 Gd421 2.545 . S
O470 C488 1.258 . S
O471 Gd420 2.362 . S
O471 Gd421 2.606 . S
O471 C487 1.284 . S
O472 Gd420 2.324 . S
O472 C495 1.254 . S
O473 Gd421 2.429 . S
O473 C495 1.268 . S
O474 Gd421 2.545 . S
O474 C487 1.250 . S
O475 Gd421 2.412 . S
O475 C488 1.252 . S
C476 O465 1.284 . S
C476 O468 1.250 . S
C477 H446 0.929 . S
C477 C462 1.437 . S
C477 C478 1.317 . S
C478 H449 0.930 . S
C478 C454 1.431 . S
C478 C477 1.317 . S
C479 Gd420 2.828 . S
C479 O464 1.258 . S
C479 O469 1.252 . S
C479 C480 1.497 . S
C480 C479 1.497 . S
C480 C481 1.395 . S
C480 C482 1.380 . S
C481 C480 1.395 . S
C481 C484 1.398 . S
C481 H496 0.930 . S
C482 C480 1.380 . S
C482 C483 1.391 . S
C482 H497 0.930 . S
C483 C482 1.391 . S
C483 C485 1.387 . S
C484 C481 1.398 . S
C484 C485 1.380 . S
C484 H498 0.930 . S
C485 C483 1.387 . S
C485 C484 1.380 . S
C485 H499 0.930 . S
C486 O466 1.254 . S
C486 O467 1.268 . S
C487 O471 1.284 . S
C487 O474 1.250 . S
C488 Gd421 2.828 . S
C488 O470 1.258 . S
C488 O475 1.252 . S
C488 C489 1.497 . S
C489 C488 1.497 . S
C489 C490 1.395 . S
C489 C491 1.380 . S
C490 C489 1.395 . S
C490 C493 1.398 . S
C490 H500 0.930 . S
C491 C489 1.380 . S
C491 C492 1.391 . S
C491 H501 0.930 . S
C492 C491 1.391 . S
C492 C494 1.387 . S
C493 C490 1.398 . S
C493 C494 1.380 . S
C493 H502 0.930 . S
C494 C492 1.387 . S
C494 C493 1.380 . S
C494 H503 0.930 . S
C495 O472 1.254 . S
C495 O473 1.268 . S
H496 C481 0.930 . S
H497 C482 0.930 . S
H498 C484 0.930 . S
H499 C485 0.930 . S
H500 C490 0.930 . S
H501 C491 0.930 . S
H502 C493 0.930 . S
H503 C494 0.930 . S
Gd504 N535 2.661 . S
Gd504 N541 2.601 . S
Gd504 O548 2.545 . S
Gd504 O549 2.606 . S
Gd504 O551 2.429 . S
Gd504 O552 2.545 . S
Gd504 O553 2.412 . S
Gd504 O555 2.362 . S
Gd504 O556 2.324 . S
Gd504 C563 2.828 . S
Gd505 N514 2.661 . S
Gd505 N518 2.601 . S
Gd505 O549 2.362 . S
Gd505 O550 2.324 . S
Gd505 O554 2.545 . S
Gd505 O555 2.606 . S
Gd505 O557 2.429 . S
Gd505 O558 2.545 . S
Gd505 O559 2.412 . S
Gd505 C572 2.828 . S
C506 C509 1.417 . S
C506 C511 1.431 . S
C506 C512 1.412 . S
C507 C510 1.437 . S
C507 C511 1.317 . S
C507 H526 0.929 . S
C508 C509 1.426 . S
C508 C510 1.413 . S
C508 N518 1.359 . S
C509 C506 1.417 . S
C509 C508 1.426 . S
C509 N514 1.350 . S
C510 C507 1.437 . S
C510 C508 1.413 . S
C510 C520 1.391 . S
C511 C506 1.431 . S
C511 C507 1.317 . S
C511 H522 0.930 . S
C512 C506 1.412 . S
C512 C513 1.355 . S
C512 H524 0.930 . S
C513 C512 1.355 . S
C513 C515 1.402 . S
C513 H525 0.930 . S
N514 Gd505 2.661 . S
N514 C509 1.350 . S
N514 C515 1.307 . S
C515 C513 1.402 . S
C515 N514 1.307 . S
C515 H516 0.930 . S
H516 C515 0.930 . S
C517 N518 1.334 . S
C517 C519 1.394 . S
C517 H521 0.930 . S
N518 Gd505 2.601 . S
N518 C508 1.359 . S
N518 C517 1.334 . S
C519 C517 1.394 . S
C519 C520 1.359 . S
C519 H531 0.930 . S
C520 C510 1.391 . S
C520 C519 1.359 . S
C520 H532 0.929 . S
H521 C517 0.930 . S
H522 C511 0.930 . S
H523 C540 0.930 . S
H524 C512 0.930 . S
H525 C513 0.930 . S
H526 C507 0.929 . S
H527 C545 0.930 . S
H528 C536 0.930 . S
H529 C537 0.930 . S
H530 C561 0.929 . S
H531 C519 0.930 . S
H532 C520 0.929 . S
H533 C562 0.930 . S
H534 C543 0.930 . S
N535 Gd504 2.661 . S
N535 C539 1.350 . S
N535 C540 1.307 . S
C536 H528 0.930 . S
C536 C537 1.355 . S
C536 C538 1.412 . S
C537 H529 0.930 . S
C537 C536 1.355 . S
C537 C540 1.402 . S
C538 C536 1.412 . S
C538 C539 1.417 . S
C538 C562 1.431 . S
C539 N535 1.350 . S
C539 C538 1.417 . S
C539 C542 1.426 . S
C540 H523 0.930 . S
C540 N535 1.307 . S
C540 C537 1.402 . S
N541 Gd504 2.601 . S
N541 C542 1.359 . S
N541 C545 1.334 . S
C542 C539 1.426 . S
C542 N541 1.359 . S
C542 C546 1.413 . S
C543 H534 0.930 . S
C543 C544 1.359 . S
C543 C545 1.394 . S
C544 C543 1.359 . S
C544 C546 1.391 . S
C544 H547 0.929 . S
C545 H527 0.930 . S
C545 N541 1.334 . S
C545 C543 1.394 . S
C546 C542 1.413 . S
C546 C544 1.391 . S
C546 C561 1.437 . S
H547 C544 0.929 . S
O548 Gd504 2.545 . S
O548 C563 1.258 . S
O549 Gd504 2.606 . S
O549 Gd505 2.362 . S
O549 C560 1.284 . S
O550 Gd505 2.324 . S
O550 C570 1.254 . S
O551 Gd504 2.429 . S
O551 C570 1.268 . S
O552 Gd504 2.545 . S
O552 C560 1.250 . S
O553 Gd504 2.412 . S
O553 C563 1.252 . S
O554 Gd505 2.545 . S
O554 C572 1.258 . S
O555 Gd504 2.362 . S
O555 Gd505 2.606 . S
O555 C571 1.284 . S
O556 Gd504 2.324 . S
O556 C579 1.254 . S
O557 Gd505 2.429 . S
O557 C579 1.268 . S
O558 Gd505 2.545 . S
O558 C571 1.250 . S
O559 Gd505 2.412 . S
O559 C572 1.252 . S
C560 O549 1.284 . S
C560 O552 1.250 . S
C561 H530 0.929 . S
C561 C546 1.437 . S
C561 C562 1.317 . S
C562 H533 0.930 . S
C562 C538 1.431 . S
C562 C561 1.317 . S
C563 Gd504 2.828 . S
C563 O548 1.258 . S
C563 O553 1.252 . S
C563 C564 1.497 . S
C564 C563 1.497 . S
C564 C565 1.395 . S
C564 C566 1.380 . S
C565 C564 1.395 . S
C565 C568 1.398 . S
C565 H580 0.930 . S
C566 C564 1.380 . S
C566 C567 1.391 1_556 S
C566 H581 0.930 . S
C567 C566 1.391 1_554 S
C567 C569 1.387 . S
C568 C565 1.398 . S
C568 C569 1.380 1_556 S
C568 H582 0.930 1_556 S
C569 C567 1.387 . S
C569 C568 1.380 1_554 S
C569 H583 0.930 . S
C570 O550 1.254 . S
C570 O551 1.268 . S
C571 O555 1.284 . S
C571 O558 1.250 . S
C572 Gd505 2.828 . S
C572 O554 1.258 . S
C572 O559 1.252 . S
C572 C573 1.497 . S
C573 C572 1.497 . S
C573 C574 1.395 . S
C573 C575 1.380 . S
C574 C573 1.395 . S
C574 C577 1.398 . S
C574 H584 0.930 . S
C575 C573 1.380 . S
C575 C576 1.391 . S
C575 H585 0.930 . S
C576 C575 1.391 . S
C576 C578 1.387 . S
C577 C574 1.398 . S
C577 C578 1.380 . S
C577 H586 0.930 . S
C578 C576 1.387 . S
C578 C577 1.380 . S
C578 H587 0.930 1_554 S
C579 O556 1.254 . S
C579 O557 1.268 . S
H580 C565 0.930 . S
H581 C566 0.930 . S
H582 C568 0.930 1_554 S
H583 C569 0.930 . S
H584 C574 0.930 . S
H585 C575 0.930 . S
H586 C577 0.930 . S
H587 C578 0.930 1_556 S
Gd588 N619 2.661 . S
Gd588 N625 2.601 . S
Gd588 O632 2.545 . S
Gd588 O633 2.606 . S
Gd588 O635 2.429 . S
Gd588 O636 2.545 . S
Gd588 O637 2.412 . S
Gd588 O639 2.362 . S
Gd588 O640 2.324 . S
Gd588 C647 2.828 . S
Gd589 N598 2.661 1_655 S
Gd589 N602 2.601 . S
Gd589 O633 2.362 . S
Gd589 O634 2.324 . S
Gd589 O638 2.545 . S
Gd589 O639 2.606 . S
Gd589 O641 2.429 . S
Gd589 O642 2.545 . S
Gd589 O643 2.412 . S
Gd589 C656 2.828 . S
C590 C593 1.417 . S
C590 C595 1.431 . S
C590 C596 1.412 . S
C591 C594 1.437 . S
C591 C595 1.317 . S
C591 H610 0.929 . S
C592 C593 1.426 . S
C592 C594 1.413 . S
C592 N602 1.359 1_455 S
C593 C590 1.417 . S
C593 C592 1.426 . S
C593 N598 1.350 . S
C594 C591 1.437 . S
C594 C592 1.413 . S
C594 C604 1.391 1_455 S
C595 C590 1.431 . S
C595 C591 1.317 . S
C595 H606 0.930 . S
C596 C590 1.412 . S
C596 C597 1.355 . S
C596 H608 0.930 . S
C597 C596 1.355 . S
C597 C599 1.402 . S
C597 H609 0.930 . S
N598 Gd589 2.661 1_455 S
N598 C593 1.350 . S
N598 C599 1.307 . S
C599 C597 1.402 . S
C599 N598 1.307 . S
C599 H600 0.930 . S
H600 C599 0.930 . S
C601 N602 1.334 . S
C601 C603 1.394 . S
C601 H605 0.930 . S
N602 Gd589 2.601 . S
N602 C592 1.359 1_655 S
N602 C601 1.334 . S
C603 C601 1.394 . S
C603 C604 1.359 . S
C603 H615 0.930 . S
C604 C594 1.391 1_655 S
C604 C603 1.359 . S
C604 H616 0.929 1_655 S
H605 C601 0.930 . S
H606 C595 0.930 . S
H607 C624 0.930 . S
H608 C596 0.930 . S
H609 C597 0.930 . S
H610 C591 0.929 . S
H611 C629 0.930 . S
H612 C620 0.930 . S
H613 C621 0.930 . S
H614 C645 0.929 . S
H615 C603 0.930 . S
H616 C604 0.929 1_455 S
H617 C646 0.930 . S
H618 C627 0.930 . S
N619 Gd588 2.661 . S
N619 C623 1.350 . S
N619 C624 1.307 . S
C620 H612 0.930 . S
C620 C621 1.355 . S
C620 C622 1.412 . S
C621 H613 0.930 . S
C621 C620 1.355 . S
C621 C624 1.402 . S
C622 C620 1.412 . S
C622 C623 1.417 . S
C622 C646 1.431 . S
C623 N619 1.350 . S
C623 C622 1.417 . S
C623 C626 1.426 . S
C624 H607 0.930 . S
C624 N619 1.307 . S
C624 C621 1.402 . S
N625 Gd588 2.601 . S
N625 C626 1.359 . S
N625 C629 1.334 . S
C626 C623 1.426 . S
C626 N625 1.359 . S
C626 C630 1.413 . S
C627 H618 0.930 . S
C627 C628 1.359 . S
C627 C629 1.394 . S
C628 C627 1.359 . S
C628 C630 1.391 . S
C628 H631 0.929 . S
C629 H611 0.930 . S
C629 N625 1.334 . S
C629 C627 1.394 . S
C630 C626 1.413 . S
C630 C628 1.391 . S
C630 C645 1.437 . S
H631 C628 0.929 . S
O632 Gd588 2.545 . S
O632 C647 1.258 . S
O633 Gd588 2.606 . S
O633 Gd589 2.362 . S
O633 C644 1.284 . S
O634 Gd589 2.324 . S
O634 C654 1.254 . S
O635 Gd588 2.429 . S
O635 C654 1.268 . S
O636 Gd588 2.545 . S
O636 C644 1.250 . S
O637 Gd588 2.412 . S
O637 C647 1.252 . S
O638 Gd589 2.545 . S
O638 C656 1.258 . S
O639 Gd588 2.362 . S
O639 Gd589 2.606 . S
O639 C655 1.284 . S
O640 Gd588 2.324 . S
O640 C663 1.254 . S
O641 Gd589 2.429 . S
O641 C663 1.268 . S
O642 Gd589 2.545 . S
O642 C655 1.250 . S
O643 Gd589 2.412 . S
O643 C656 1.252 . S
C644 O633 1.284 . S
C644 O636 1.250 . S
C645 H614 0.929 . S
C645 C630 1.437 . S
C645 C646 1.317 . S
C646 H617 0.930 . S
C646 C622 1.431 . S
C646 C645 1.317 . S
C647 Gd588 2.828 . S
C647 O632 1.258 . S
C647 O637 1.252 . S
C647 C648 1.497 . S
C648 C647 1.497 . S
C648 C649 1.395 . S
C648 C650 1.380 . S
C649 C648 1.395 . S
C649 C652 1.398 . S
C649 H664 0.930 . S
C650 C648 1.380 . S
C650 C651 1.391 . S
C650 H665 0.930 . S
C651 C650 1.391 . S
C651 C653 1.387 . S
C652 C649 1.398 . S
C652 C653 1.380 . S
C652 H666 0.930 . S
C653 C651 1.387 . S
C653 C652 1.380 . S
C653 H667 0.930 . S
C654 O634 1.254 . S
C654 O635 1.268 . S
C655 O639 1.284 . S
C655 O642 1.250 . S
C656 Gd589 2.828 . S
C656 O638 1.258 . S
C656 O643 1.252 . S
C656 C657 1.497 1_556 S
C657 C656 1.497 1_554 S
C657 C658 1.395 . S
C657 C659 1.380 . S
C658 C657 1.395 . S
C658 C661 1.398 . S
C658 H668 0.930 . S
C659 C657 1.380 . S
C659 C660 1.391 . S
C659 H669 0.930 . S
C660 C659 1.391 . S
C660 C662 1.387 . S
C661 C658 1.398 . S
C661 C662 1.380 . S
C661 H670 0.930 . S
C662 C660 1.387 . S
C662 C661 1.380 . S
C662 H671 0.930 . S
C663 O640 1.254 . S
C663 O641 1.268 . S
H664 C649 0.930 . S
H665 C650 0.930 . S
H666 C652 0.930 . S
H667 C653 0.930 . S
H668 C658 0.930 . S
H669 C659 0.930 . S
H670 C661 0.930 . S
H671 C662 0.930 . S
Gd672 N703 2.661 . S
Gd672 N709 2.601 . S
Gd672 O716 2.545 1_556 S
Gd672 O717 2.606 . S
Gd672 O719 2.429 . S
Gd672 O720 2.545 . S
Gd672 O721 2.412 1_556 S
Gd672 O723 2.362 . S
Gd672 O724 2.324 . S
Gd672 C731 2.828 1_556 S
Gd673 N682 2.661 . S
Gd673 N686 2.601 . S
Gd673 O717 2.362 . S
Gd673 O718 2.324 . S
Gd673 O722 2.545 . S
Gd673 O723 2.606 . S
Gd673 O725 2.429 . S
Gd673 O726 2.545 . S
Gd673 O727 2.412 . S
Gd673 C740 2.828 . S
C674 C677 1.417 . S
C674 C679 1.431 . S
C674 C680 1.412 . S
C675 C678 1.437 . S
C675 C679 1.317 . S
C675 H694 0.929 . S
C676 C677 1.426 . S
C676 C678 1.413 . S
C676 N686 1.359 . S
C677 C674 1.417 . S
C677 C676 1.426 . S
C677 N682 1.350 . S
C678 C675 1.437 . S
C678 C676 1.413 . S
C678 C688 1.391 . S
C679 C674 1.431 . S
C679 C675 1.317 . S
C679 H690 0.930 . S
C680 C674 1.412 . S
C680 C681 1.355 . S
C680 H692 0.930 . S
C681 C680 1.355 . S
C681 C683 1.402 . S
C681 H693 0.930 . S
N682 Gd673 2.661 . S
N682 C677 1.350 . S
N682 C683 1.307 . S
C683 C681 1.402 . S
C683 N682 1.307 . S
C683 H684 0.930 . S
H684 C683 0.930 . S
C685 N686 1.334 . S
C685 C687 1.394 . S
C685 H689 0.930 . S
N686 Gd673 2.601 . S
N686 C676 1.359 . S
N686 C685 1.334 . S
C687 C685 1.394 . S
C687 C688 1.359 . S
C687 H699 0.930 . S
C688 C678 1.391 . S
C688 C687 1.359 . S
C688 H700 0.929 . S
H689 C685 0.930 . S
H690 C679 0.930 . S
H691 C708 0.930 . S
H692 C680 0.930 . S
H693 C681 0.930 . S
H694 C675 0.929 . S
H695 C713 0.930 . S
H696 C704 0.930 . S
H697 C705 0.930 . S
H698 C729 0.929 1_455 S
H699 C687 0.930 . S
H700 C688 0.929 . S
H701 C730 0.930 . S
H702 C711 0.930 . S
N703 Gd672 2.661 . S
N703 C707 1.350 . S
N703 C708 1.307 . S
C704 H696 0.930 . S
C704 C705 1.355 1_455 S
C704 C706 1.412 1_455 S
C705 H697 0.930 . S
C705 C704 1.355 1_655 S
C705 C708 1.402 . S
C706 C704 1.412 1_655 S
C706 C707 1.417 . S
C706 C730 1.431 1_655 S
C707 N703 1.350 . S
C707 C706 1.417 . S
C707 C710 1.426 . S
C708 H691 0.930 . S
C708 N703 1.307 . S
C708 C705 1.402 . S
N709 Gd672 2.601 . S
N709 C710 1.359 . S
N709 C713 1.334 . S
C710 C707 1.426 . S
C710 N709 1.359 . S
C710 C714 1.413 . S
C711 H702 0.930 . S
C711 C712 1.359 . S
C711 C713 1.394 . S
C712 C711 1.359 . S
C712 C714 1.391 . S
C712 H715 0.929 . S
C713 H695 0.930 . S
C713 N709 1.334 . S
C713 C711 1.394 . S
C714 C710 1.413 . S
C714 C712 1.391 . S
C714 C729 1.437 . S
H715 C712 0.929 . S
O716 Gd672 2.545 1_554 S
O716 C731 1.258 . S
O717 Gd672 2.606 . S
O717 Gd673 2.362 . S
O717 C728 1.284 . S
O718 Gd673 2.324 . S
O718 C738 1.254 . S
O719 Gd672 2.429 . S
O719 C738 1.268 . S
O720 Gd672 2.545 . S
O720 C728 1.250 . S
O721 Gd672 2.412 1_554 S
O721 C731 1.252 . S
O722 Gd673 2.545 . S
O722 C740 1.258 . S
O723 Gd672 2.362 . S
O723 Gd673 2.606 . S
O723 C739 1.284 . S
O724 Gd672 2.324 . S
O724 C747 1.254 . S
O725 Gd673 2.429 . S
O725 C747 1.268 . S
O726 Gd673 2.545 . S
O726 C739 1.250 . S
O727 Gd673 2.412 . S
O727 C740 1.252 . S
C728 O717 1.284 . S
C728 O720 1.250 . S
C729 H698 0.929 1_655 S
C729 C714 1.437 . S
C729 C730 1.317 1_655 S
C730 H701 0.930 . S
C730 C706 1.431 1_455 S
C730 C729 1.317 1_455 S
C731 Gd672 2.828 1_554 S
C731 O716 1.258 . S
C731 O721 1.252 . S
C731 C732 1.497 . S
C732 C731 1.497 . S
C732 C733 1.395 . S
C732 C734 1.380 . S
C733 C732 1.395 . S
C733 C736 1.398 . S
C733 H748 0.930 . S
C734 C732 1.380 . S
C734 C735 1.391 . S
C734 H749 0.930 . S
C735 C734 1.391 . S
C735 C737 1.387 . S
C736 C733 1.398 . S
C736 C737 1.380 . S
C736 H750 0.930 . S
C737 C735 1.387 . S
C737 C736 1.380 . S
C737 H751 0.930 . S
C738 O718 1.254 . S
C738 O719 1.268 . S
C739 O723 1.284 . S
C739 O726 1.250 . S
C740 Gd673 2.828 . S
C740 O722 1.258 . S
C740 O727 1.252 . S
C740 C741 1.497 . S
C741 C740 1.497 . S
C741 C742 1.395 . S
C741 C743 1.380 . S
C742 C741 1.395 . S
C742 C745 1.398 . S
C742 H752 0.930 . S
C743 C741 1.380 . S
C743 C744 1.391 . S
C743 H753 0.930 . S
C744 C743 1.391 . S
C744 C746 1.387 . S
C745 C742 1.398 . S
C745 C746 1.380 . S
C745 H754 0.930 . S
C746 C744 1.387 . S
C746 C745 1.380 . S
C746 H755 0.930 . S
C747 O724 1.254 . S
C747 O725 1.268 . S
H748 C733 0.930 . S
H749 C734 0.930 . S
H750 C736 0.930 . S
H751 C737 0.930 . S
H752 C742 0.930 . S
H753 C743 0.930 . S
H754 C745 0.930 . S
H755 C746 0.930 . S
H756 C762 0.930 . S
H757 C765 0.930 . S
H758 C766 0.930 . S
H759 C767 0.930 . S
H760 C770 0.930 . S
H761 C771 0.930 . S
C762 H756 0.930 . S
C762 C763 1.355 . S
C762 C764 1.415 . S
C763 C762 1.355 . S
C763 C765 1.419 . S
C764 C762 1.415 . S
C764 C769 1.425 . S
C764 C771 1.409 . S
C765 H757 0.930 . S
C765 C763 1.419 . S
C765 C766 1.362 . S
C766 H758 0.930 . S
C766 C765 1.362 . S
C766 C769 1.409 . S
C767 H759 0.930 . S
C767 C768 1.355 . S
C767 C769 1.415 . S
C768 C767 1.355 . S
C768 C770 1.419 . S
C769 C764 1.425 . S
C769 C766 1.409 . S
C769 C767 1.415 . S
C770 H760 0.930 . S
C770 C768 1.419 . S
C770 C771 1.362 . S
C771 H761 0.930 . S
C771 C764 1.409 . S
C771 C770 1.362 . S
H772 C778 0.930 . S
H773 C781 0.930 . S
H774 C782 0.930 . S
H775 C783 0.930 . S
H776 C786 0.930 . S
H777 C787 0.930 . S
C778 H772 0.930 . S
C778 C779 1.355 . S
C778 C780 1.415 . S
C779 C778 1.355 . S
C779 C781 1.419 . S
C780 C778 1.415 . S
C780 C785 1.425 . S
C780 C787 1.409 . S
C781 H773 0.930 . S
C781 C779 1.419 . S
C781 C782 1.362 . S
C782 H774 0.930 . S
C782 C781 1.362 . S
C782 C785 1.409 . S
C783 H775 0.930 . S
C783 C784 1.355 . S
C783 C785 1.415 . S
C784 C783 1.355 . S
C784 C786 1.419 . S
C785 C780 1.425 . S
C785 C782 1.409 . S
C785 C783 1.415 . S
C786 H776 0.930 . S
C786 C784 1.419 . S
C786 C787 1.362 . S
C787 H777 0.930 . S
C787 C780 1.409 . S
C787 C786 1.362 . S
H788 C794 0.930 . S
H789 C797 0.930 . S
H790 C798 0.930 . S
H791 C799 0.930 . S
H792 C802 0.930 . S
H793 C803 0.930 . S
C794 H788 0.930 . S
C794 C795 1.355 . S
C794 C796 1.415 . S
C795 C794 1.355 . S
C795 C797 1.419 . S
C796 C794 1.415 . S
C796 C801 1.425 . S
C796 C803 1.409 . S
C797 H789 0.930 . S
C797 C795 1.419 . S
C797 C798 1.362 . S
C798 H790 0.930 . S
C798 C797 1.362 . S
C798 C801 1.409 . S
C799 H791 0.930 . S
C799 C800 1.355 . S
C799 C801 1.415 . S
C800 C799 1.355 . S
C800 C802 1.419 . S
C801 C796 1.425 . S
C801 C798 1.409 . S
C801 C799 1.415 . S
C802 H792 0.930 . S
C802 C800 1.419 . S
C802 C803 1.362 . S
C803 H793 0.930 . S
C803 C796 1.409 . S
C803 C802 1.362 . S
H804 C810 0.930 . S
H805 C813 0.930 . S
H806 C814 0.930 . S
H807 C815 0.930 . S
H808 C818 0.930 . S
H809 C819 0.930 . S
C810 H804 0.930 . S
C810 C811 1.355 . S
C810 C812 1.415 . S
C811 C810 1.355 . S
C811 C813 1.419 . S
C812 C810 1.415 . S
C812 C817 1.425 . S
C812 C819 1.409 . S
C813 H805 0.930 . S
C813 C811 1.419 . S
C813 C814 1.362 . S
C814 H806 0.930 . S
C814 C813 1.362 . S
C814 C817 1.409 . S
C815 H807 0.930 . S
C815 C816 1.355 . S
C815 C817 1.415 . S
C816 C815 1.355 . S
C816 C818 1.419 . S
C817 C812 1.425 . S
C817 C814 1.409 . S
C817 C815 1.415 . S
C818 H808 0.930 . S
C818 C816 1.419 . S
C818 C819 1.362 . S
C819 H809 0.930 . S
C819 C812 1.409 . S
C819 C818 1.362 . S
H820 C826 0.930 . S
H821 C829 0.930 . S
H822 C830 0.930 . S
H823 C831 0.930 . S
H824 C834 0.930 . S
H825 C835 0.930 . S
C826 H820 0.930 . S
C826 C827 1.355 . S
C826 C828 1.415 . S
C827 C826 1.355 . S
C827 C829 1.419 . S
C828 C826 1.415 . S
C828 C833 1.425 . S
C828 C835 1.409 . S
C829 H821 0.930 . S
C829 C827 1.419 . S
C829 C830 1.362 . S
C830 H822 0.930 . S
C830 C829 1.362 . S
C830 C833 1.409 . S
C831 H823 0.930 . S
C831 C832 1.355 . S
C831 C833 1.415 . S
C832 C831 1.355 . S
C832 C834 1.419 . S
C833 C828 1.425 . S
C833 C830 1.409 . S
C833 C831 1.415 . S
C834 H824 0.930 . S
C834 C832 1.419 . S
C834 C835 1.362 . S
C835 H825 0.930 . S
C835 C828 1.409 . S
C835 C834 1.362 . S
H836 C842 0.930 . S
H837 C845 0.930 . S
H838 C846 0.930 . S
H839 C847 0.930 . S
H840 C850 0.930 . S
H841 C851 0.930 . S
C842 H836 0.930 . S
C842 C843 1.355 . S
C842 C844 1.415 . S
C843 C842 1.355 . S
C843 C845 1.419 . S
C844 C842 1.415 . S
C844 C849 1.425 . S
C844 C851 1.409 . S
C845 H837 0.930 . S
C845 C843 1.419 . S
C845 C846 1.362 . S
C846 H838 0.930 . S
C846 C845 1.362 . S
C846 C849 1.409 . S
C847 H839 0.930 . S
C847 C848 1.355 . S
C847 C849 1.415 . S
C848 C847 1.355 . S
C848 C850 1.419 . S
C849 C844 1.425 . S
C849 C846 1.409 . S
C849 C847 1.415 . S
C850 H840 0.930 . S
C850 C848 1.419 . S
C850 C851 1.362 . S
C851 H841 0.930 . S
C851 C844 1.409 . S
C851 C850 1.362 . S
H852 C858 0.930 . S
H853 C861 0.930 . S
H854 C862 0.930 . S
H855 C863 0.930 1_556 S
H856 C866 0.930 . S
H857 C867 0.930 . S
C858 H852 0.930 . S
C858 C859 1.355 . S
C858 C860 1.415 . S
C859 C858 1.355 . S
C859 C861 1.419 1_554 S
C860 C858 1.415 . S
C860 C865 1.425 . S
C860 C867 1.409 . S
C861 H853 0.930 . S
C861 C859 1.419 1_556 S
C861 C862 1.362 . S
C862 H854 0.930 . S
C862 C861 1.362 . S
C862 C865 1.409 1_556 S
C863 H855 0.930 1_554 S
C863 C864 1.355 . S
C863 C865 1.415 . S
C864 C863 1.355 . S
C864 C866 1.419 . S
C865 C860 1.425 . S
C865 C862 1.409 1_554 S
C865 C863 1.415 . S
C866 H856 0.930 . S
C866 C864 1.419 . S
C866 C867 1.362 . S
C867 H857 0.930 . S
C867 C860 1.409 . S
C867 C866 1.362 . S
H868 C874 0.930 . S
H869 C877 0.930 . S
H870 C878 0.930 . S
H871 C879 0.930 . S
H872 C882 0.930 . S
H873 C883 0.930 . S
C874 H868 0.930 . S
C874 C875 1.355 . S
C874 C876 1.415 . S
C875 C874 1.355 . S
C875 C877 1.419 . S
C876 C874 1.415 . S
C876 C881 1.425 . S
C876 C883 1.409 . S
C877 H869 0.930 . S
C877 C875 1.419 . S
C877 C878 1.362 . S
C878 H870 0.930 . S
C878 C877 1.362 . S
C878 C881 1.409 . S
C879 H871 0.930 . S
C879 C880 1.355 . S
C879 C881 1.415 . S
C880 C879 1.355 . S
C880 C882 1.419 . S
C881 C876 1.425 . S
C881 C878 1.409 . S
C881 C879 1.415 . S
C882 H872 0.930 . S
C882 C880 1.419 . S
C882 C883 1.362 . S
C883 H873 0.930 . S
C883 C876 1.409 . S
C883 C882 1.362 . S
H884 C890 0.930 . S
H885 C893 0.930 . S
H886 C894 0.930 . S
H887 C895 0.930 . S
H888 C898 0.930 . S
H889 C899 0.930 . S
C890 H884 0.930 . S
C890 C891 1.355 . S
C890 C892 1.415 . S
C891 C890 1.355 . S
C891 C893 1.419 . S
C892 C890 1.415 . S
C892 C897 1.425 . S
C892 C899 1.409 . S
C893 H885 0.930 . S
C893 C891 1.419 . S
C893 C894 1.362 . S
C894 H886 0.930 . S
C894 C893 1.362 . S
C894 C897 1.409 . S
C895 H887 0.930 . S
C895 C896 1.355 . S
C895 C897 1.415 . S
C896 C895 1.355 . S
C896 C898 1.419 . S
C897 C892 1.425 . S
C897 C894 1.409 . S
C897 C895 1.415 . S
C898 H888 0.930 . S
C898 C896 1.419 . S
C898 C899 1.362 . S
C899 H889 0.930 . S
C899 C892 1.409 . S
C899 C898 1.362 . S
H900 C906 0.930 . S
H901 C909 0.930 . S
H902 C910 0.930 . S
H903 C911 0.930 . S
H904 C914 0.930 . S
H905 C915 0.930 . S
C906 H900 0.930 . S
C906 C907 1.355 . S
C906 C908 1.415 . S
C907 C906 1.355 . S
C907 C909 1.419 . S
C908 C906 1.415 . S
C908 C913 1.425 . S
C908 C915 1.409 . S
C909 H901 0.930 . S
C909 C907 1.419 . S
C909 C910 1.362 . S
C910 H902 0.930 . S
C910 C909 1.362 . S
C910 C913 1.409 . S
C911 H903 0.930 . S
C911 C912 1.355 . S
C911 C913 1.415 . S
C912 C911 1.355 . S
C912 C914 1.419 . S
C913 C908 1.425 . S
C913 C910 1.409 . S
C913 C911 1.415 . S
C914 H904 0.930 . S
C914 C912 1.419 . S
C914 C915 1.362 . S
C915 H905 0.930 . S
C915 C908 1.409 . S
C915 C914 1.362 . S
H916 C922 0.930 . S
H917 C925 0.930 . S
H918 C926 0.930 . S
H919 C927 0.930 . S
H920 C930 0.930 . S
H921 C931 0.930 . S
C922 H916 0.930 . S
C922 C923 1.355 . S
C922 C924 1.415 . S
C923 C922 1.355 . S
C923 C925 1.419 . S
C924 C922 1.415 . S
C924 C929 1.425 . S
C924 C931 1.409 . S
C925 H917 0.930 . S
C925 C923 1.419 . S
C925 C926 1.362 . S
C926 H918 0.930 . S
C926 C925 1.362 . S
C926 C929 1.409 . S
C927 H919 0.930 . S
C927 C928 1.355 . S
C927 C929 1.415 . S
C928 C927 1.355 . S
C928 C930 1.419 . S
C929 C924 1.425 . S
C929 C926 1.409 . S
C929 C927 1.415 . S
C930 H920 0.930 . S
C930 C928 1.419 . S
C930 C931 1.362 . S
C931 H921 0.930 . S
C931 C924 1.409 . S
C931 C930 1.362 . S
H932 C938 0.930 . S
H933 C941 0.930 1_545 S
H934 C942 0.930 . S
H935 C943 0.930 . S
H936 C946 0.930 . S
H937 C947 0.930 . S
C938 H932 0.930 . S
C938 C939 1.355 . S
C938 C940 1.415 . S
C939 C938 1.355 . S
C939 C941 1.419 . S
C940 C938 1.415 . S
C940 C945 1.425 . S
C940 C947 1.409 . S
C941 H933 0.930 1_565 S
C941 C939 1.419 . S
C941 C942 1.362 . S
C942 H934 0.930 . S
C942 C941 1.362 . S
C942 C945 1.409 . S
C943 H935 0.930 . S
C943 C944 1.355 . S
C943 C945 1.415 . S
C944 C943 1.355 . S
C944 C946 1.419 . S
C945 C940 1.425 . S
C945 C942 1.409 . S
C945 C943 1.415 . S
C946 H936 0.930 . S
C946 C944 1.419 . S
C946 C947 1.362 . S
C947 H937 0.930 . S
C947 C940 1.409 . S
C947 C946 1.362 . S
H948 C954 0.930 . S
H949 C957 0.930 . S
H950 C958 0.930 . S
H951 C959 0.930 . S
H952 C962 0.930 . S
H953 C963 0.930 . S
C954 H948 0.930 . S
C954 C955 1.355 . S
C954 C956 1.415 . S
C955 C954 1.355 . S
C955 C957 1.419 . S
C956 C954 1.415 . S
C956 C961 1.425 . S
C956 C963 1.409 . S
C957 H949 0.930 . S
C957 C955 1.419 . S
C957 C958 1.362 . S
C958 H950 0.930 . S
C958 C957 1.362 . S
C958 C961 1.409 . S
C959 H951 0.930 . S
C959 C960 1.355 . S
C959 C961 1.415 . S
C960 C959 1.355 . S
C960 C962 1.419 . S
C961 C956 1.425 . S
C961 C958 1.409 . S
C961 C959 1.415 . S
C962 H952 0.930 . S
C962 C960 1.419 . S
C962 C963 1.362 . S
C963 H953 0.930 . S
C963 C956 1.409 . S
C963 C962 1.362 . S
H964 C970 0.930 . S
H965 C973 0.930 . S
H966 C974 0.930 . S
H967 C975 0.930 . S
H968 C978 0.930 1_455 S
H969 C979 0.930 . S
C970 H964 0.930 . S
C970 C971 1.355 . S
C970 C972 1.415 . S
C971 C970 1.355 . S
C971 C973 1.419 . S
C972 C970 1.415 . S
C972 C977 1.425 . S
C972 C979 1.409 1_556 S
C973 H965 0.930 . S
C973 C971 1.419 . S
C973 C974 1.362 . S
C974 H966 0.930 . S
C974 C973 1.362 . S
C974 C977 1.409 . S
C975 H967 0.930 . S
C975 C976 1.358 . S
C975 C977 1.415 1_554 S
C976 C975 1.358 . S
C976 C978 1.411 . S
C977 C972 1.425 . S
C977 C974 1.409 . S
C977 C975 1.415 1_556 S
C978 H968 0.930 1_655 S
C978 C976 1.411 . S
C978 C979 1.362 . S
C979 H969 0.930 . S
C979 C972 1.409 1_554 S
C979 C978 1.362 . S
H980 C986 0.930 . S
H981 C989 0.930 . S
H982 C990 0.930 . S
H983 C991 0.930 . S
H984 C994 0.930 . S
H985 C995 0.930 . S
C986 H980 0.930 . S
C986 C987 1.355 . S
C986 C988 1.415 . S
C987 C986 1.355 . S
C987 C989 1.419 1_556 S
C988 C986 1.415 . S
C988 C993 1.425 1_556 S
C988 C995 1.409 . S
C989 H981 0.930 . S
C989 C987 1.419 1_554 S
C989 C990 1.362 . S
C990 H982 0.930 . S
C990 C989 1.362 . S
C990 C993 1.409 . S
C991 H983 0.930 . S
C991 C992 1.355 . S
C991 C993 1.415 . S
C992 C991 1.355 . S
C992 C994 1.419 . S
C993 C988 1.425 1_554 S
C993 C990 1.409 . S
C993 C991 1.415 . S
C994 H984 0.930 . S
C994 C992 1.419 . S
C994 C995 1.362 1_554 S
C995 H985 0.930 . S
C995 C988 1.409 . S
C995 C994 1.362 1_556 S
H996 C1002 0.930 . S
H997 C1005 0.930 . S
H998 C1006 0.930 . S
H999 C1007 0.930 . S
H1000 C1010 0.930 . S
H1001 C1011 0.930 . S
C1002 H996 0.930 . S
C1002 C1003 1.355 . S
C1002 C1004 1.415 . S
C1003 C1002 1.355 . S
C1003 C1005 1.419 . S
C1004 C1002 1.415 . S
C1004 C1009 1.425 . S
C1004 C1011 1.409 1_556 S
C1005 H997 0.930 . S
C1005 C1003 1.419 . S
C1005 C1006 1.362 . S
C1006 H998 0.930 . S
C1006 C1005 1.362 . S
C1006 C1009 1.409 . S
C1007 H999 0.930 . S
C1007 C1008 1.355 1_556 S
C1007 C1009 1.415 . S
C1008 C1007 1.355 1_554 S
C1008 C1010 1.419 . S
C1009 C1004 1.425 . S
C1009 C1006 1.409 . S
C1009 C1007 1.415 . S
C1010 H1000 0.930 . S
C1010 C1008 1.419 . S
C1010 C1011 1.362 . S
C1011 H1001 0.930 . S
C1011 C1004 1.409 1_554 S
C1011 C1010 1.362 . S
H1012 C1018 0.930 . S
H1013 C1021 0.930 . S
H1014 C1022 0.930 . S
H1015 C1023 0.930 . S
H1016 C1026 0.930 . S
H1017 C1027 0.930 . S
C1018 H1012 0.930 . S
C1018 C1019 1.355 . S
C1018 C1020 1.415 . S
C1019 C1018 1.355 . S
C1019 C1021 1.419 . S
C1020 C1018 1.415 . S
C1020 C1025 1.425 . S
C1020 C1027 1.409 . S
C1021 H1013 0.930 . S
C1021 C1019 1.419 . S
C1021 C1022 1.362 . S
C1022 H1014 0.930 . S
C1022 C1021 1.362 . S
C1022 C1025 1.409 . S
C1023 H1015 0.930 . S
C1023 C1024 1.355 . S
C1023 C1025 1.415 . S
C1024 C1023 1.355 . S
C1024 C1026 1.419 . S
C1025 C1020 1.425 . S
C1025 C1022 1.409 . S
C1025 C1023 1.415 . S
C1026 H1016 0.930 . S
C1026 C1024 1.419 . S
C1026 C1027 1.362 . S
C1027 H1017 0.930 . S
C1027 C1020 1.409 . S
C1027 C1026 1.362 . S
H1028 C1034 0.930 . S
H1029 C1037 0.930 . S
H1030 C1038 0.930 . S
H1031 C1039 0.930 . S
H1032 C1042 0.930 . S
H1033 C1043 0.930 . S
C1034 H1028 0.930 . S
C1034 C1035 1.355 . S
C1034 C1036 1.415 . S
C1035 C1034 1.355 . S
C1035 C1037 1.419 . S
C1036 C1034 1.415 . S
C1036 C1041 1.425 . S
C1036 C1043 1.409 . S
C1037 H1029 0.930 . S
C1037 C1035 1.419 . S
C1037 C1038 1.362 . S
C1038 H1030 0.930 . S
C1038 C1037 1.362 . S
C1038 C1041 1.409 . S
C1039 H1031 0.930 . S
C1039 C1040 1.355 . S
C1039 C1041 1.415 . S
C1040 C1039 1.355 . S
C1040 C1042 1.419 . S
C1041 C1036 1.425 . S
C1041 C1038 1.409 . S
C1041 C1039 1.415 . S
C1042 H1032 0.930 . S
C1042 C1040 1.419 . S
C1042 C1043 1.362 . S
C1043 H1033 0.930 . S
C1043 C1036 1.409 . S
C1043 C1042 1.362 . S
H1044 C1050 0.930 . S
H1045 C1053 0.930 1_556 S
H1046 C1054 0.930 . S
H1047 C1055 0.930 . S
H1048 C1058 0.895 1_565 S
H1049 C1059 0.930 1_565 S
C1050 H1044 0.930 . S
C1050 C1051 1.355 . S
C1050 C1052 1.415 . S
C1051 C1050 1.355 . S
C1051 C1053 1.419 . S
C1052 C1050 1.415 . S
C1052 C1057 1.425 . S
C1052 C1059 1.409 . S
C1053 H1045 0.930 1_554 S
C1053 C1051 1.419 . S
C1053 C1054 1.362 . S
C1054 H1046 0.930 . S
C1054 C1053 1.362 . S
C1054 C1057 1.409 . S
C1055 H1047 0.930 . S
C1055 C1056 1.355 . S
C1055 C1057 1.415 . S
C1056 C1055 1.355 . S
C1056 C1058 1.431 . S
C1057 C1052 1.425 . S
C1057 C1054 1.409 . S
C1057 C1055 1.415 . S
C1058 H1048 0.895 1_545 S
C1058 C1056 1.431 . S
C1058 C1059 1.387 . S
C1059 H1049 0.930 1_545 S
C1059 C1052 1.409 . S
C1059 C1058 1.387 . S
H1060 C1066 0.930 . S
H1061 C1069 0.930 . S
H1062 C1070 0.930 . S
H1063 C1071 0.930 . S
H1064 C1074 0.930 . S
H1065 C1075 0.930 . S
C1066 H1060 0.930 . S
C1066 C1067 1.355 . S
C1066 C1068 1.415 . S
C1067 C1066 1.355 . S
C1067 C1069 1.419 . S
C1068 C1066 1.415 . S
C1068 C1073 1.425 . S
C1068 C1075 1.409 . S
C1069 H1061 0.930 . S
C1069 C1067 1.419 . S
C1069 C1070 1.362 . S
C1070 H1062 0.930 . S
C1070 C1069 1.362 . S
C1070 C1073 1.409 . S
C1071 H1063 0.930 . S
C1071 C1072 1.355 . S
C1071 C1073 1.415 . S
C1072 C1071 1.355 . S
C1072 C1074 1.419 . S
C1073 C1068 1.425 . S
C1073 C1070 1.409 . S
C1073 C1071 1.415 . S
C1074 H1064 0.930 . S
C1074 C1072 1.419 . S
C1074 C1075 1.362 . S
C1075 H1065 0.930 . S
C1075 C1068 1.409 . S
C1075 C1074 1.362 . S
H1076 C1082 0.930 . S
H1077 C1085 0.930 . S
H1078 C1086 0.930 . S
H1079 C1087 0.930 . S
H1080 C1090 0.930 . S
H1081 C1091 0.930 . S
C1082 H1076 0.930 . S
C1082 C1083 1.355 . S
C1082 C1084 1.415 . S
C1083 C1082 1.355 . S
C1083 C1085 1.419 . S
C1084 C1082 1.415 . S
C1084 C1089 1.425 . S
C1084 C1091 1.409 . S
C1085 H1077 0.930 . S
C1085 C1083 1.419 . S
C1085 C1086 1.362 . S
C1086 H1078 0.930 . S
C1086 C1085 1.362 . S
C1086 C1089 1.409 . S
C1087 H1079 0.930 . S
C1087 C1088 1.355 . S
C1087 C1089 1.415 . S
C1088 C1087 1.355 . S
C1088 C1090 1.419 . S
C1089 C1084 1.425 . S
C1089 C1086 1.409 . S
C1089 C1087 1.415 . S
C1090 H1080 0.930 . S
C1090 C1088 1.419 . S
C1090 C1091 1.362 . S
C1091 H1081 0.930 . S
C1091 C1084 1.409 . S
C1091 C1090 1.362 . S
H1092 C1098 0.930 . S
H1093 C1101 0.930 . S
H1094 C1102 0.930 . S
H1095 C1103 0.930 . S
H1096 C1106 0.930 . S
H1097 C1107 0.930 . S
C1098 H1092 0.930 . S
C1098 C1099 1.355 . S
C1098 C1100 1.415 . S
C1099 C1098 1.355 . S
C1099 C1101 1.419 . S
C1100 C1098 1.415 . S
C1100 C1105 1.425 . S
C1100 C1107 1.409 . S
C1101 H1093 0.930 . S
C1101 C1099 1.419 . S
C1101 C1102 1.362 . S
C1102 H1094 0.930 . S
C1102 C1101 1.362 . S
C1102 C1105 1.409 . S
C1103 H1095 0.930 . S
C1103 C1104 1.355 . S
C1103 C1105 1.415 . S
C1104 C1103 1.355 . S
C1104 C1106 1.419 . S
C1105 C1100 1.425 . S
C1105 C1102 1.409 . S
C1105 C1103 1.415 . S
C1106 H1096 0.930 . S
C1106 C1104 1.419 . S
C1106 C1107 1.362 . S
C1107 H1097 0.930 . S
C1107 C1100 1.409 . S
C1107 C1106 1.362 . S
H1108 C1114 0.930 . S
H1109 C1117 0.930 . S
H1110 C1118 0.930 . S
H1111 C1119 0.930 . S
H1112 C1122 0.930 . S
H1113 C1123 0.930 . S
C1114 H1108 0.930 . S
C1114 C1115 1.355 . S
C1114 C1116 1.415 1_545 S
C1115 C1114 1.355 . S
C1115 C1117 1.419 1_545 S
C1116 C1114 1.415 1_565 S
C1116 C1121 1.425 . S
C1116 C1123 1.409 . S
C1117 H1109 0.930 . S
C1117 C1115 1.419 1_565 S
C1117 C1118 1.362 . S
C1118 H1110 0.930 . S
C1118 C1117 1.362 . S
C1118 C1121 1.409 . S
C1119 H1111 0.930 . S
C1119 C1120 1.355 . S
C1119 C1121 1.415 . S
C1120 C1119 1.355 . S
C1120 C1122 1.419 . S
C1121 C1116 1.425 . S
C1121 C1118 1.409 . S
C1121 C1119 1.415 . S
C1122 H1112 0.930 . S
C1122 C1120 1.419 . S
C1122 C1123 1.362 . S
C1123 H1113 0.930 . S
C1123 C1116 1.409 . S
C1123 C1122 1.362 . S
H1124 C1130 0.930 . S
H1125 C1133 0.930 . S
H1126 C1134 0.930 . S
H1127 C1135 0.930 . S
H1128 C1138 0.930 . S
H1129 C1139 0.930 . S
C1130 H1124 0.930 . S
C1130 C1131 1.355 . S
C1130 C1132 1.415 . S
C1131 C1130 1.355 . S
C1131 C1133 1.419 1_455 S
C1132 C1130 1.415 . S
C1132 C1137 1.425 . S
C1132 C1139 1.409 . S
C1133 H1125 0.930 . S
C1133 C1131 1.419 1_655 S
C1133 C1134 1.362 . S
C1134 H1126 0.930 . S
C1134 C1133 1.362 . S
C1134 C1137 1.409 1_655 S
C1135 H1127 0.930 . S
C1135 C1136 1.355 . S
C1135 C1137 1.415 . S
C1136 C1135 1.355 . S
C1136 C1138 1.419 . S
C1137 C1132 1.425 . S
C1137 C1134 1.409 1_455 S
C1137 C1135 1.415 . S
C1138 H1128 0.930 . S
C1138 C1136 1.419 . S
C1138 C1139 1.362 . S
C1139 H1129 0.930 . S
C1139 C1132 1.409 . S
C1139 C1138 1.362 . S
H1140 C1146 0.930 . S
H1141 C1149 0.930 . S
H1142 C1150 0.930 . S
H1143 C1151 0.930 . S
H1144 C1154 0.930 . S
H1145 C1155 0.930 . S
C1146 H1140 0.930 . S
C1146 C1147 1.355 . S
C1146 C1148 1.415 . S
C1147 C1146 1.355 . S
C1147 C1149 1.419 . S
C1148 C1146 1.415 . S
C1148 C1153 1.425 . S
C1148 C1155 1.409 . S
C1149 H1141 0.930 . S
C1149 C1147 1.419 . S
C1149 C1150 1.362 . S
C1150 H1142 0.930 . S
C1150 C1149 1.362 . S
C1150 C1153 1.409 . S
C1151 H1143 0.930 . S
C1151 C1152 1.355 . S
C1151 C1153 1.415 . S
C1152 C1151 1.355 . S
C1152 C1154 1.419 . S
C1153 C1148 1.425 . S
C1153 C1150 1.409 . S
C1153 C1151 1.415 . S
C1154 H1144 0.930 . S
C1154 C1152 1.419 . S
C1154 C1155 1.362 . S
C1155 H1145 0.930 . S
C1155 C1148 1.409 . S
C1155 C1154 1.362 . S
H1156 C1162 0.930 . S
H1157 C1165 0.930 . S
H1158 C1166 0.930 . S
H1159 C1167 0.930 . S
H1160 C1170 0.930 . S
H1161 C1171 0.930 . S
C1162 H1156 0.930 . S
C1162 C1163 1.355 . S
C1162 C1164 1.415 . S
C1163 C1162 1.355 . S
C1163 C1165 1.419 . S
C1164 C1162 1.415 . S
C1164 C1169 1.425 . S
C1164 C1171 1.409 . S
C1165 H1157 0.930 . S
C1165 C1163 1.419 . S
C1165 C1166 1.362 . S
C1166 H1158 0.930 . S
C1166 C1165 1.362 . S
C1166 C1169 1.409 . S
C1167 H1159 0.930 . S
C1167 C1168 1.355 . S
C1167 C1169 1.415 . S
C1168 C1167 1.355 . S
C1168 C1170 1.419 . S
C1169 C1164 1.425 . S
C1169 C1166 1.409 . S
C1169 C1167 1.415 . S
C1170 H1160 0.930 . S
C1170 C1168 1.419 . S
C1170 C1171 1.362 . S
C1171 H1161 0.930 . S
C1171 C1164 1.409 . S
C1171 C1170 1.362 . S
H1172 C1178 0.930 . S
H1173 C1181 0.930 . S
H1174 C1182 0.930 . S
H1175 C1183 0.930 1_455 S
H1176 C1186 0.930 . S
H1177 C1187 0.930 . S
C1178 H1172 0.930 . S
C1178 C1179 1.355 . S
C1178 C1180 1.415 . S
C1179 C1178 1.355 . S
C1179 C1181 1.419 . S
C1180 C1178 1.415 . S
C1180 C1185 1.425 . S
C1180 C1187 1.409 . S
C1181 H1173 0.930 . S
C1181 C1179 1.419 . S
C1181 C1182 1.362 . S
C1182 H1174 0.930 . S
C1182 C1181 1.362 . S
C1182 C1185 1.409 . S
C1183 H1175 0.930 1_655 S
C1183 C1184 1.355 . S
C1183 C1185 1.415 . S
C1184 C1183 1.355 . S
C1184 C1186 1.419 . S
C1185 C1180 1.425 . S
C1185 C1182 1.409 . S
C1185 C1183 1.415 . S
C1186 H1176 0.930 . S
C1186 C1184 1.419 . S
C1186 C1187 1.362 . S
C1187 H1177 0.930 . S
C1187 C1180 1.409 . S
C1187 C1186 1.362 . S
C763 C75 3.321 1_556 S
C768 C66 3.321 . S
C779 C159 3.393 . S
C784 C150 3.393 . S
C795 C243 3.402 . S
C800 C234 3.402 . S
C811 C318 3.294 . S
C816 C327 3.294 1_556 S
C827 C403 3.470 . S
C832 C392 3.470 1_556 S
C843 C486 3.329 . S
C848 C495 3.329 1_556 S
C859 C576 2.626 . S
C864 C567 2.626 . S
C875 C651 1.709 . S
C880 C660 1.709 . S
C891 C744 1.242 . S
C896 C735 1.242 . S
C907 C487 1.886 . S
C912 C72 1.584 . S
C923 C156 1.378 . S
C928 C319 1.747 . S
C939 C240 1.090 . S
C944 C399 1.191 . S
C955 C235 2.064 . S
C960 C560 2.373 . S
C971 C654 1.920 . S
C976 C67 1.659 1_655 S
C987 C728 1.845 . S
C992 C151 1.679 . S
C1003 C747 0.955 . S
C1008 C63 0.928 . S
C1019 C147 1.457 . S
C1024 C579 1.492 . S
C1035 C655 1.726 . S
C1040 C231 1.726 . S
C1051 C224 1.722 . S
C1056 C315 1.455 . S
C1067 C402 2.499 . S
C1072 C56 2.441 . S
C1083 C140 1.859 . S
C1088 C483 1.643 . S
C1099 C738 1.764 . S
C1104 C324 1.757 . S
C1115 C570 1.948 . S
C1120 C411 1.859 . S
C1131 C644 1.783 1_455 S
C1136 C492 1.929 . S
C1147 C571 2.101 . S
C1152 C476 2.132 . S
C1163 C308 1.430 1_545 S
C1168 C663 1.483 . S
C1179 C739 1.354 . S
C1184 C408 1.382 . S
