# Generated by pormake.
# Topology wkl, (6)-cn, num edge types: 1
# Building blocks:
#     Node 0, Type 0, BuildingBlock: OJICUG_clean_sbu_0, # of connection points: 6
#     Node 1, Type 0, BuildingBlock: OJICUG_clean_sbu_0, # of connection points: 6
#     Node 2, Type 0, BuildingBlock: OJICUG_clean_sbu_0, # of connection points: 6
#     Node 3, Type 0, BuildingBlock: OJICUG_clean_sbu_0, # of connection points: 6
#     Node 4, Type 0, BuildingBlock: OJICUG_clean_sbu_0, # of connection points: 6
#     Node 5, Type 0, BuildingBlock: OJICUG_clean_sbu_0, # of connection points: 6
#     Node 6, Type 0, BuildingBlock: OJICUG_clean_sbu_0, # of connection points: 6
#     Node 7, Type 0, BuildingBlock: OJICUG_clean_sbu_0, # of connection points: 6
#     Node 8, Type 0, BuildingBlock: OJICUG_clean_sbu_0, # of connection points: 6
#     Node 9, Type 0, BuildingBlock: OJICUG_clean_sbu_0, # of connection points: 6
#     Node 10, Type 0, BuildingBlock: OJICUG_clean_sbu_0, # of connection points: 6
#     Node 11, Type 0, BuildingBlock: OJICUG_clean_sbu_0, # of connection points: 6
#     Edge 12, Type (0, 0), BuildingBlock: ZUJKAS_clean_linker_0, # of connection points: 2
#     Edge 13, Type (0, 0), BuildingBlock: ZUJKAS_clean_linker_0, # of connection points: 2
#     Edge 14, Type (0, 0), BuildingBlock: ZUJKAS_clean_linker_0, # of connection points: 2
#     Edge 15, Type (0, 0), BuildingBlock: ZUJKAS_clean_linker_0, # of connection points: 2
#     Edge 16, Type (0, 0), BuildingBlock: ZUJKAS_clean_linker_0, # of connection points: 2
#     Edge 17, Type (0, 0), BuildingBlock: ZUJKAS_clean_linker_0, # of connection points: 2
#     Edge 18, Type (0, 0), BuildingBlock: ZUJKAS_clean_linker_0, # of connection points: 2
#     Edge 19, Type (0, 0), BuildingBlock: ZUJKAS_clean_linker_0, # of connection points: 2
#     Edge 20, Type (0, 0), BuildingBlock: ZUJKAS_clean_linker_0, # of connection points: 2
#     Edge 21, Type (0, 0), BuildingBlock: ZUJKAS_clean_linker_0, # of connection points: 2
#     Edge 22, Type (0, 0), BuildingBlock: ZUJKAS_clean_linker_0, # of connection points: 2
#     Edge 23, Type (0, 0), BuildingBlock: ZUJKAS_clean_linker_0, # of connection points: 2
#     Edge 24, Type (0, 0), BuildingBlock: ZUJKAS_clean_linker_0, # of connection points: 2
#     Edge 25, Type (0, 0), BuildingBlock: ZUJKAS_clean_linker_0, # of connection points: 2
#     Edge 26, Type (0, 0), BuildingBlock: ZUJKAS_clean_linker_0, # of connection points: 2
#     Edge 27, Type (0, 0), BuildingBlock: ZUJKAS_clean_linker_0, # of connection points: 2
#     Edge 28, Type (0, 0), BuildingBlock: ZUJKAS_clean_linker_0, # of connection points: 2
#     Edge 29, Type (0, 0), BuildingBlock: ZUJKAS_clean_linker_0, # of connection points: 2
#     Edge 30, Type (0, 0), BuildingBlock: ZUJKAS_clean_linker_0, # of connection points: 2
#     Edge 31, Type (0, 0), BuildingBlock: ZUJKAS_clean_linker_0, # of connection points: 2
#     Edge 32, Type (0, 0), BuildingBlock: ZUJKAS_clean_linker_0, # of connection points: 2
#     Edge 33, Type (0, 0), BuildingBlock: ZUJKAS_clean_linker_0, # of connection points: 2
#     Edge 34, Type (0, 0), BuildingBlock: ZUJKAS_clean_linker_0, # of connection points: 2
#     Edge 35, Type (0, 0), BuildingBlock: ZUJKAS_clean_linker_0, # of connection points: 2
#     Edge 36, Type (0, 0), BuildingBlock: ZUJKAS_clean_linker_0, # of connection points: 2
#     Edge 37, Type (0, 0), BuildingBlock: ZUJKAS_clean_linker_0, # of connection points: 2
#     Edge 38, Type (0, 0), BuildingBlock: ZUJKAS_clean_linker_0, # of connection points: 2
#     Edge 39, Type (0, 0), BuildingBlock: ZUJKAS_clean_linker_0, # of connection points: 2
#     Edge 40, Type (0, 0), BuildingBlock: ZUJKAS_clean_linker_0, # of connection points: 2
#     Edge 41, Type (0, 0), BuildingBlock: ZUJKAS_clean_linker_0, # of connection points: 2
#     Edge 42, Type (0, 0), BuildingBlock: ZUJKAS_clean_linker_0, # of connection points: 2
#     Edge 43, Type (0, 0), BuildingBlock: ZUJKAS_clean_linker_0, # of connection points: 2
#     Edge 44, Type (0, 0), BuildingBlock: ZUJKAS_clean_linker_0, # of connection points: 2
#     Edge 45, Type (0, 0), BuildingBlock: ZUJKAS_clean_linker_0, # of connection points: 2
#     Edge 46, Type (0, 0), BuildingBlock: ZUJKAS_clean_linker_0, # of connection points: 2
#     Edge 47, Type (0, 0), BuildingBlock: ZUJKAS_clean_linker_0, # of connection points: 2
# Relax obj value: 0.345
# Max RMSD: 0.288
# Mean RMSD: 0.288
data_MOF--net-wkl--node1-OJICUG_clean_sbu_0--edge1-ZUJKAS_clean_linker_0
_symmetry_space_group_name_H-M    P1
_symmetry_Int_Tables_number       1
_symmetry_cell_setting            triclinic
loop_
_symmetry_equiv_pos_as_xyz
'x, y, z'
_cell_length_a     91.839233
_cell_length_b     91.841386
_cell_length_c     20.183186
_cell_angle_alpha  89.9988
_cell_angle_beta   89.994612
_cell_angle_gamma 119.98891
loop_
_atom_site_label
_atom_site_type_symbol
_atom_site_fract_x
_atom_site_fract_y
_atom_site_fract_z
_atom_type_partial_charge
Sc0 Sc 0.45984 0.10073 0.03777 0.0
Sc1 Sc 0.47984 0.13641 0.9369 0.0
Sc2 Sc 0.43814 0.12118 0.98795 0.0
O3 O 0.45929 0.11945 0.98752 0.0
C4 C 0.42313 0.08142 0.9812 0.0
C5 C 0.48059 0.10313 0.90666 0.0
C6 C 0.44949 0.12933 0.83858 0.0
C7 C 0.49606 0.131 0.06872 0.0
C8 C 0.43972 0.1118 0.13676 0.0
C9 C 0.46723 0.15979 0.99591 0.0
O10 O 0.43703 0.08201 0.99218 0.0
O11 O 0.48234 0.11708 0.8874 0.0
O12 O 0.43777 0.12178 0.88089 0.0
O13 O 0.48272 0.11792 0.08747 0.0
O14 O 0.43724 0.12072 0.09493 0.0
O15 O 0.47926 0.15725 0.98201 0.0
O16 O 0.44623 0.10287 0.12105 0.0
O17 O 0.49718 0.13828 0.0137 0.0
O18 O 0.4519 0.14823 0.99381 0.0
O19 O 0.47379 0.09635 0.9616 0.0
O20 O 0.42139 0.0943 0.98379 0.0
O21 O 0.46502 0.13641 0.85378 0.0
Sc22 Sc 0.35844 0.46332 0.19336 0.0
Sc23 Sc 0.34283 0.48313 0.09009 0.0
Sc24 Sc 0.31623 0.44111 0.14137 0.0
O25 O 0.33917 0.46251 0.14147 0.0
C26 C 0.34099 0.42613 0.13725 0.0
C27 C 0.3775 0.48407 0.0637 0.0
C28 C 0.32042 0.45278 0.99035 0.0
C29 C 0.36349 0.49964 0.2226 0.0
C30 C 0.32717 0.44342 0.29225 0.0
C31 C 0.30612 0.46978 0.14663 0.0
O32 O 0.35395 0.43973 0.15445 0.0
O33 O 0.36599 0.48723 0.04749 0.0
O34 O 0.31469 0.44121 0.0341 0.0
O35 O 0.36482 0.48695 0.23816 0.0
O36 O 0.31576 0.43925 0.2485 0.0
O37 O 0.32023 0.48164 0.12714 0.0
O38 O 0.34276 0.45133 0.2782 0.0
O39 O 0.3563 0.50037 0.16987 0.0
O40 O 0.30287 0.45466 0.15132 0.0
O41 O 0.37662 0.47571 0.11526 0.0
O42 O 0.32646 0.42455 0.13311 0.0
O43 O 0.33002 0.46822 0.00446 0.0
Sc44 Sc 0.89321 0.35953 0.38589 0.0
Sc45 Sc 0.85774 0.34499 0.28422 0.0
Sc46 Sc 0.87187 0.31746 0.3346 0.0
O47 O 0.87426 0.34066 0.33482 0.0
C48 C 0.91177 0.34152 0.32703 0.0
C49 C 0.89145 0.37892 0.25684 0.0
C50 C 0.86414 0.32144 0.18485 0.0
C51 C 0.86325 0.36595 0.41799 0.0
C52 C 0.88164 0.32804 0.4836 0.0
C53 C 0.83354 0.30892 0.342 0.0
O54 O 0.91155 0.35496 0.33983 0.0
O55 O 0.87737 0.36702 0.23707 0.0
O56 O 0.87091 0.31643 0.22749 0.0
O57 O 0.87629 0.36552 0.43604 0.0
O58 O 0.87258 0.31682 0.44151 0.0
O59 O 0.83642 0.32349 0.32621 0.0
O60 O 0.89072 0.34349 0.46844 0.0
O61 O 0.8559 0.36005 0.36285 0.0
O62 O 0.84487 0.30481 0.34223 0.0
O63 O 0.89816 0.37831 0.31111 0.0
O64 O 0.89866 0.32704 0.32865 0.0
O65 O 0.85788 0.33064 0.19979 0.0
Sc66 Sc 0.5326 0.89605 0.5557 0.0
Sc67 Sc 0.51253 0.86061 0.45267 0.0
Sc68 Sc 0.55426 0.87524 0.5054 0.0
O69 O 0.53314 0.87731 0.50455 0.0
C70 C 0.56991 0.91502 0.49976 0.0
C71 C 0.51245 0.89475 0.4251 0.0
C72 C 0.54282 0.86782 0.35397 0.0
C73 C 0.49583 0.86531 0.58386 0.0
C74 C 0.55187 0.8842 0.65591 0.0
C75 C 0.52505 0.83672 0.51078 0.0
O76 O 0.55649 0.91475 0.51729 0.0
O77 O 0.50903 0.87998 0.4093 0.0
O78 O 0.55429 0.87336 0.39811 0.0
O79 O 0.50856 0.87933 0.59916 0.0
O80 O 0.55607 0.87693 0.61244 0.0
O81 O 0.51349 0.83927 0.48992 0.0
O82 O 0.54407 0.89198 0.64146 0.0
O83 O 0.49533 0.85712 0.53225 0.0
O84 O 0.54025 0.84837 0.51655 0.0
O85 O 0.52068 0.90217 0.47693 0.0
O86 O 0.5712 0.90191 0.49597 0.0
O87 O 0.52742 0.8624 0.36755 0.0
Sc88 Sc 0.63393 0.53081 0.74428 0.0
Sc89 Sc 0.64966 0.51206 0.63597 0.0
Sc90 Sc 0.67609 0.55373 0.69111 0.0
O91 O 0.65323 0.53222 0.69037 0.0
C92 C 0.65107 0.56842 0.69138 0.0
C93 C 0.61509 0.51136 0.61201 0.0
C94 C 0.67237 0.54294 0.53898 0.0
C95 C 0.62861 0.49419 0.76666 0.0
C96 C 0.66521 0.55056 0.84297 0.0
C97 C 0.6862 0.52503 0.69337 0.0
O98 O 0.63835 0.55473 0.70975 0.0
O99 O 0.62674 0.50864 0.5935 0.0
O100 O 0.6779 0.55427 0.58364 0.0
O101 O 0.62753 0.50682 0.78535 0.0
O102 O 0.67655 0.55533 0.79854 0.0
O103 O 0.67215 0.51329 0.67273 0.0
O104 O 0.64961 0.54219 0.82955 0.0
O105 O 0.63583 0.49403 0.71312 0.0
O106 O 0.68945 0.54013 0.69984 0.0
O107 O 0.61571 0.51886 0.66581 0.0
O108 O 0.66556 0.57007 0.68389 0.0
O109 O 0.66275 0.52744 0.55192 0.0
Sc110 Sc 0.10036 0.63605 0.87607 0.0
Sc111 Sc 0.13648 0.65153 0.77698 0.0
Sc112 Sc 0.12154 0.67838 0.82707 0.0
O113 O 0.11946 0.6553 0.82668 0.0
C114 C 0.0817 0.65427 0.81941 0.0
C115 C 0.10282 0.6175 0.74599 0.0
C116 C 0.12965 0.67478 0.67751 0.0
C117 C 0.13056 0.62975 0.90864 0.0
C118 C 0.11182 0.66718 0.97589 0.0
C119 C 0.16007 0.68767 0.83537 0.0
O120 O 0.08193 0.64083 0.83187 0.0
O121 O 0.11728 0.6293 0.72911 0.0
O122 O 0.12265 0.67957 0.72 0.0
O123 O 0.11696 0.62931 0.92468 0.0
O124 O 0.12058 0.67863 0.93402 0.0
O125 O 0.15748 0.67318 0.81993 0.0
O126 O 0.10303 0.65171 0.96028 0.0
O127 O 0.13858 0.63674 0.85577 0.0
O128 O 0.14852 0.69145 0.83497 0.0
O129 O 0.09549 0.61792 0.79881 0.0
O130 O 0.0948 0.66872 0.82083 0.0
O131 O 0.13615 0.6658 0.69256 0.0
Sc132 Sc 0.87446 0.55604 0.85854 0.0
Sc133 Sc 0.85981 0.51456 0.91172 0.0
Sc134 Sc 0.89549 0.5347 0.8106 0.0
O135 O 0.87658 0.53509 0.86031 0.0
C136 C 0.88395 0.55411 0.70985 0.0
C137 C 0.83603 0.52648 0.85078 0.0
C138 C 0.86552 0.49812 0.78125 0.0
C139 C 0.86622 0.54496 0.00837 0.0
C140 C 0.91429 0.57166 0.8659 0.0
C141 C 0.89345 0.5145 0.94292 0.0
O142 O 0.87521 0.55686 0.75163 0.0
O143 O 0.83875 0.51469 0.86689 0.0
O144 O 0.87862 0.51143 0.7625 0.0
O145 O 0.87353 0.55662 0.96561 0.0
O146 O 0.91399 0.55792 0.8544 0.0
O147 O 0.87932 0.51243 0.96142 0.0
O148 O 0.90124 0.57312 0.86388 0.0
O149 O 0.85962 0.52943 0.99407 0.0
O150 O 0.9003 0.52138 0.88816 0.0
O151 O 0.84744 0.54188 0.85108 0.0
O152 O 0.89286 0.54761 0.72589 0.0
O153 O 0.85807 0.49713 0.83567 0.0
Sc154 Sc 0.31741 0.87355 0.02499 0.0
Sc155 Sc 0.34448 0.85887 0.07673 0.0
Sc156 Sc 0.35967 0.89416 0.97296 0.0
O157 O 0.34053 0.87553 0.0249 0.0
C158 C 0.32824 0.88193 0.8739 0.0
C159 C 0.30791 0.83491 0.02178 0.0
C160 C 0.36584 0.86355 0.9452 0.0
C161 C 0.32164 0.86641 0.17603 0.0
C162 C 0.34159 0.91338 0.02752 0.0
C163 C 0.37855 0.89306 0.10392 0.0
O164 O 0.31686 0.87438 0.91759 0.0
O165 O 0.32234 0.83748 0.03831 0.0
O166 O 0.3667 0.87732 0.92879 0.0
O167 O 0.31616 0.87254 0.13246 0.0
O168 O 0.35479 0.91302 0.01184 0.0
O169 O 0.36711 0.87844 0.12097 0.0
O170 O 0.32716 0.90029 0.03067 0.0
O171 O 0.33106 0.86036 0.16166 0.0
O172 O 0.37789 0.90019 0.05095 0.0
O173 O 0.30434 0.84658 0.01848 0.0
O174 O 0.34383 0.89012 0.88813 0.0
O175 O 0.35854 0.85562 0.99781 0.0
Sc176 Sc 0.4396 0.31697 0.20865 0.0
Sc177 Sc 0.48135 0.34322 0.25878 0.0
Sc178 Sc 0.4616 0.3589 0.15671 0.0
O179 O 0.46086 0.33971 0.20814 0.0
C180 C 0.44134 0.32741 0.0593 0.0
C181 C 0.46836 0.30693 0.20357 0.0
C182 C 0.49757 0.36416 0.12573 0.0
C183 C 0.4509 0.32046 0.35771 0.0
C184 C 0.42487 0.34203 0.21189 0.0
C185 C 0.48249 0.37752 0.28722 0.0
O186 O 0.43891 0.31613 0.10165 0.0
O187 O 0.48053 0.32159 0.2149 0.0
O188 O 0.4843 0.36402 0.1069 0.0
O189 O 0.43914 0.31649 0.31573 0.0
O190 O 0.43891 0.35525 0.20188 0.0
O191 O 0.48406 0.36525 0.30716 0.0
O192 O 0.42304 0.32736 0.21008 0.0
O193 O 0.46642 0.32863 0.34216 0.0
O194 O 0.47577 0.37745 0.232 0.0
O195 O 0.45308 0.30333 0.20598 0.0
O196 O 0.44779 0.34289 0.07439 0.0
O197 O 0.49876 0.35833 0.18145 0.0
Sc198 Sc 0.11962 0.44082 0.34157 0.0
Sc199 Sc 0.13502 0.48257 0.3935 0.0
Sc200 Sc 0.09903 0.46269 0.29328 0.0
O201 O 0.11788 0.46204 0.3428 0.0
C202 C 0.11022 0.44299 0.19248 0.0
C203 C 0.15827 0.46984 0.33304 0.0
C204 C 0.12949 0.49921 0.26333 0.0
C205 C 0.12812 0.45221 0.4913 0.0
C206 C 0.07986 0.42559 0.34894 0.0
C207 C 0.10141 0.48298 0.42539 0.0
O208 O 0.11844 0.43965 0.23466 0.0
O209 O 0.15589 0.48179 0.34996 0.0
O210 O 0.11586 0.4862 0.24651 0.0
O211 O 0.12094 0.44052 0.4486 0.0
O212 O 0.08032 0.43931 0.33523 0.0
O213 O 0.11583 0.4855 0.44212 0.0
O214 O 0.09284 0.42404 0.34891 0.0
O215 O 0.13466 0.46772 0.47687 0.0
O216 O 0.09414 0.47562 0.37191 0.0
O217 O 0.14658 0.45456 0.33251 0.0
O218 O 0.10185 0.45013 0.20799 0.0
O219 O 0.13739 0.49991 0.31611 0.0
Sc220 Sc 0.67617 0.12261 0.51224 0.0
Sc221 Sc 0.64862 0.13676 0.56419 0.0
Sc222 Sc 0.63388 0.1014 0.46107 0.0
O223 O 0.65289 0.12026 0.51258 0.0
C224 C 0.66521 0.11337 0.3619 0.0
C225 C 0.68491 0.16098 0.50609 0.0
C226 C 0.62752 0.13176 0.43164 0.0
C227 C 0.67199 0.13002 0.6633 0.0
C228 C 0.65227 0.08276 0.5186 0.0
C229 C 0.61459 0.10264 0.59093 0.0
O230 O 0.67659 0.1212 0.4052 0.0
O231 O 0.67063 0.15826 0.52563 0.0
O232 O 0.62703 0.11818 0.41502 0.0
O233 O 0.67782 0.12429 0.61952 0.0
O234 O 0.63896 0.08286 0.50223 0.0
O235 O 0.62607 0.11718 0.6085 0.0
O236 O 0.66665 0.09595 0.52083 0.0
O237 O 0.6621 0.13553 0.64925 0.0
O238 O 0.61542 0.09554 0.53816 0.0
O239 O 0.68873 0.14949 0.50193 0.0
O240 O 0.64966 0.1051 0.37645 0.0
O241 O 0.63433 0.13959 0.48503 0.0
Sc242 Sc 0.55203 0.67692 0.67128 0.0
Sc243 Sc 0.51014 0.6501 0.72195 0.0
Sc244 Sc 0.53061 0.63457 0.62173 0.0
O245 O 0.53091 0.65385 0.67171 0.0
C246 C 0.5504 0.66564 0.522 0.0
C247 C 0.52291 0.68638 0.66348 0.0
C248 C 0.49408 0.6286 0.59032 0.0
C249 C 0.54023 0.67325 0.82127 0.0
C250 C 0.56761 0.65268 0.67878 0.0
C251 C 0.50972 0.61589 0.75195 0.0
O252 O 0.55364 0.67713 0.5644 0.0
O253 O 0.51107 0.67211 0.6815 0.0
O254 O 0.50707 0.62779 0.5747 0.0
O255 O 0.55195 0.67842 0.77831 0.0
O256 O 0.55404 0.63942 0.66354 0.0
O257 O 0.50666 0.62749 0.7678 0.0
O258 O 0.56896 0.66713 0.67994 0.0
O259 O 0.52477 0.66387 0.80684 0.0
O260 O 0.51788 0.61654 0.70004 0.0
O261 O 0.53817 0.68996 0.66114 0.0
O262 O 0.54315 0.65011 0.53695 0.0
O263 O 0.49315 0.63575 0.64286 0.0
H264 H 0.41997 0.10759 0.77545 0.0
H265 H 0.41491 0.10463 0.65554 0.0
H266 H 0.46412 0.14744 0.62167 0.0
H267 H 0.46942 0.15029 0.74071 0.0
H268 H 0.41589 0.12602 0.5512 0.0
H269 H 0.46568 0.10901 0.52495 0.0
H270 H 0.45717 0.10999 0.60432 0.0
H271 H 0.4728 0.12894 0.56457 0.0
C272 C 0.4296 0.11653 0.7425 0.0
C273 C 0.44521 0.12901 0.76757 0.0
C274 C 0.42669 0.11482 0.67403 0.0
C275 C 0.43929 0.12559 0.62976 0.0
C276 C 0.45438 0.13876 0.65494 0.0
H277 H 0.43742 0.13674 0.20246 0.0
H278 H 0.43517 0.1393 0.32234 0.0
C279 C 0.45737 0.14038 0.72306 0.0
C280 C 0.43728 0.12242 0.55738 0.0
H281 H 0.455 0.11382 0.4256 0.0
C282 C 0.42435 0.12326 0.5236 0.0
C283 C 0.44817 0.11853 0.52176 0.0
C284 C 0.46163 0.11639 0.55576 0.0
C285 C 0.4223 0.12071 0.45466 0.0
C286 C 0.43365 0.1175 0.41873 0.0
C287 C 0.44635 0.11637 0.45297 0.0
C288 C 0.43275 0.11517 0.34568 0.0
C289 C 0.40787 0.12121 0.42125 0.0
C290 C 0.43214 0.10078 0.31875 0.0
C291 C 0.43373 0.09944 0.2506 0.0
C292 C 0.43586 0.11241 0.20764 0.0
C293 C 0.43566 0.12648 0.2342 0.0
C294 C 0.43428 0.12791 0.30274 0.0
H295 H 0.3977 0.11879 0.457 0.0
H296 H 0.41247 0.13388 0.39963 0.0
H297 H 0.4025 0.11181 0.38069 0.0
H298 H 0.43095 0.09078 0.35081 0.0
H299 H 0.4337 0.08838 0.23171 0.0
H300 H 0.30053 0.42141 0.93501 0.0
H301 H 0.29549 0.4144 0.81682 0.0
H302 H 0.32645 0.46684 0.76712 0.0
H303 H 0.33125 0.47399 0.88397 0.0
H304 H 0.29761 0.45128 0.69246 0.0
H305 H 0.33048 0.41418 0.69294 0.0
H306 H 0.31306 0.40731 0.74899 0.0
H307 H 0.33173 0.42726 0.76183 0.0
C308 C 0.30618 0.43145 0.89892 0.0
C309 C 0.3164 0.44826 0.91929 0.0
C310 C 0.30335 0.42741 0.83136 0.0
C311 C 0.31079 0.44007 0.78308 0.0
C312 C 0.32058 0.45685 0.80341 0.0
H313 H 0.34818 0.45076 0.39824 0.0
H314 H 0.34098 0.44689 0.51516 0.0
C315 C 0.32336 0.4609 0.87053 0.0
C316 C 0.30905 0.43616 0.71111 0.0
H317 H 0.32155 0.41874 0.59023 0.0
C318 C 0.30259 0.44394 0.67002 0.0
C319 C 0.31565 0.42665 0.68205 0.0
C320 C 0.32324 0.41844 0.72343 0.0
C321 C 0.30332 0.44319 0.60065 0.0
C322 C 0.3104 0.43412 0.57157 0.0
C323 C 0.31606 0.42562 0.61268 0.0
C324 C 0.31414 0.43517 0.49955 0.0
C325 C 0.2975 0.45301 0.55924 0.0
C326 C 0.30141 0.42959 0.45144 0.0
C327 C 0.3055 0.4319 0.38383 0.0
C328 C 0.32241 0.43973 0.36326 0.0
C329 C 0.33502 0.44474 0.41184 0.0
C330 C 0.33093 0.44249 0.479 0.0
H331 H 0.29517 0.46172 0.58968 0.0
H332 H 0.30697 0.46044 0.52069 0.0
H333 H 0.2856 0.44414 0.53387 0.0
H334 H 0.28833 0.42363 0.46615 0.0
H335 H 0.29545 0.42779 0.34787 0.0
H336 H 0.90565 0.34442 0.57752 0.0
H337 H 0.90327 0.3393 0.69667 0.0
H338 H 0.85349 0.29675 0.6696 0.0
H339 H 0.85603 0.30149 0.54967 0.0
H340 H 0.88139 0.34203 0.77171 0.0
H341 H 0.87215 0.27807 0.80454 0.0
H342 H 0.87952 0.28958 0.72776 0.0
H343 H 0.85746 0.27864 0.74748 0.0
C344 C 0.89432 0.33376 0.59675 0.0
C345 C 0.88099 0.3234 0.55423 0.0
C346 C 0.89299 0.33083 0.66491 0.0
C347 C 0.87825 0.31759 0.69226 0.0
C348 C 0.86514 0.30682 0.64969 0.0
H349 H 0.84431 0.32217 0.08589 0.0
H350 H 0.84717 0.31946 0.96705 0.0
C351 C 0.86656 0.3096 0.58112 0.0
C352 C 0.87599 0.31638 0.76537 0.0
H353 H 0.86582 0.28997 0.89835 0.0
C354 C 0.87811 0.33066 0.7993 0.0
C355 C 0.87184 0.30161 0.80162 0.0
C356 C 0.87027 0.28616 0.76861 0.0
C357 C 0.876 0.33055 0.86806 0.0
C358 C 0.87113 0.31557 0.90396 0.0
C359 C 0.86932 0.30136 0.87052 0.0
C360 C 0.86786 0.31466 0.97623 0.0
C361 C 0.87922 0.34658 0.90169 0.0
C362 C 0.87794 0.31192 0.02104 0.0
C363 C 0.87622 0.31327 0.0894 0.0
C364 C 0.86442 0.31746 0.11383 0.0
C365 C 0.85371 0.3192 0.06876 0.0
C366 C 0.85533 0.31768 1.00075 0.0
H367 H 0.88724 0.35782 0.87086 0.0
H368 H 0.86706 0.34615 0.90996 0.0
H369 H 0.88542 0.34813 0.95047 0.0
H370 H 0.88763 0.30947 0.00306 0.0
H371 H 0.88464 0.31183 0.1228 0.0
H372 H 0.5743 0.87981 0.29871 0.0
H373 H 0.58134 0.8819 0.18046 0.0
H374 H 0.52878 0.85927 0.13086 0.0
H375 H 0.52161 0.8568 0.24768 0.0
H376 H 0.54499 0.84669 0.05588 0.0
H377 H 0.58041 0.9167 0.05711 0.0
H378 H 0.58768 0.90645 0.11294 0.0
H379 H 0.56748 0.90459 0.12589 0.0
C380 C 0.56424 0.87516 0.26262 0.0
C381 C 0.54739 0.86825 0.283 0.0
C382 C 0.5683 0.87645 0.19503 0.0
C383 C 0.5556 0.87096 0.14677 0.0
C384 C 0.5388 0.86361 0.16714 0.0
H385 H 0.54381 0.89725 0.76209 0.0
H386 H 0.54775 0.89396 0.87905 0.0
C387 C 0.53473 0.86227 0.23425 0.0
C388 C 0.55948 0.87328 0.07478 0.0
H389 H 0.57602 0.90335 0.95417 0.0
C390 C 0.55201 0.85906 0.03354 0.0
C391 C 0.56856 0.88944 0.04586 0.0
C392 C 0.57642 0.90521 0.08744 0.0
C393 C 0.55263 0.86058 0.96418 0.0
C394 C 0.56127 0.87678 0.93526 0.0
C395 C 0.56946 0.89095 0.97649 0.0
C396 C 0.5601 0.87944 0.86328 0.0
C397 C 0.54313 0.84492 0.92268 0.0
C398 C 0.566 0.8726 0.8151 0.0
C399 C 0.56365 0.87435 0.74752 0.0
C400 C 0.55547 0.8831 0.72701 0.0
C401 C 0.55011 0.89038 0.77566 0.0
C402 C 0.5524 0.88856 0.84282 0.0
H403 H 0.53463 0.83377 0.95307 0.0
H404 H 0.53553 0.84671 0.88419 0.0
H405 H 0.55222 0.8422 0.89723 0.0
H406 H 0.57226 0.86576 0.82972 0.0
H407 H 0.56804 0.86867 0.71151 0.0
H408 H 0.64436 0.54307 0.94962 0.0
H409 H 0.6518 0.54801 0.06609 0.0
H410 H 0.7044 0.57178 0.01574 0.0
H411 H 0.69704 0.56661 0.89777 0.0
H412 H 0.6961 0.54888 0.11482 0.0
H413 H 0.67067 0.59042 0.17526 0.0
H414 H 0.65509 0.57177 0.13438 0.0
H415 H 0.67405 0.5862 0.09095 0.0
C416 C 0.65756 0.54951 0.96277 0.0
C417 C 0.6701 0.55447 0.91385 0.0
C418 C 0.6618 0.55246 0.02972 0.0
C419 C 0.67867 0.56061 0.04977 0.0
C420 C 0.69129 0.56564 1.00135 0.0
H421 H 0.6899 0.5747 0.48399 0.0
H422 H 0.69545 0.58189 0.36595 0.0
C423 C 0.68705 0.56268 0.93393 0.0
C424 C 0.68277 0.56258 0.12166 0.0
H425 H 0.67259 0.57432 0.26715 0.0
C426 C 0.69129 0.55477 0.14802 0.0
C427 C 0.67685 0.57058 0.16515 0.0
C428 C 0.66883 0.58037 0.13983 0.0
C429 C 0.69284 0.55359 0.2168 0.0
C430 C 0.68538 0.56009 0.26033 0.0
C431 C 0.67807 0.56908 0.23393 0.0
C432 C 0.68335 0.55607 0.33229 0.0
C433 C 0.7021 0.54501 0.24209 0.0
C434 C 0.67461 0.53922 0.35258 0.0
C435 C 0.67143 0.53508 0.41953 0.0
C436 C 0.67677 0.54771 0.46825 0.0
C437 C 0.68567 0.56465 0.44798 0.0
C438 C 0.68884 0.56878 0.38053 0.0
H439 H 0.71195 0.54641 0.20649 0.0
H440 H 0.70809 0.55014 0.29083 0.0
H441 H 0.6931 0.53137 0.24783 0.0
H442 H 0.66981 0.52917 0.31635 0.0
H443 H 0.6645 0.5219 0.43284 0.0
H444 H 0.10844 0.68335 0.61482 0.0
H445 H 0.10539 0.68543 0.49496 0.0
H446 H 0.14716 0.67739 0.4602 0.0
H447 H 0.15007 0.67493 0.5792 0.0
H448 H 0.12666 0.70523 0.3903 0.0
H449 H 0.10815 0.63805 0.36415 0.0
H450 H 0.10957 0.64768 0.44358 0.0
H451 H 0.12825 0.65047 0.40304 0.0
C452 C 0.11714 0.68229 0.58167 0.0
C453 C 0.12932 0.6787 0.60648 0.0
C454 C 0.11537 0.68348 0.51323 0.0
C455 C 0.12581 0.68118 0.46874 0.0
C456 C 0.13872 0.6788 0.49364 0.0
H457 H 0.1369 0.69424 0.04169 0.0
H458 H 0.13947 0.699 0.16158 0.0
C459 C 0.14038 0.67743 0.56173 0.0
C460 C 0.12254 0.68005 0.39644 0.0
H461 H 0.11333 0.65361 0.26469 0.0
C462 C 0.12365 0.69394 0.3627 0.0
C463 C 0.11831 0.66518 0.36082 0.0
C464 C 0.11582 0.64943 0.39477 0.0
C465 C 0.12105 0.69348 0.29382 0.0
C466 C 0.11754 0.67884 0.25786 0.0
C467 C 0.11612 0.66488 0.29207 0.0
C468 C 0.11521 0.67745 0.1848 0.0
C469 C 0.12182 0.70855 0.26052 0.0
C470 C 0.10075 0.66378 0.15778 0.0
C471 C 0.09941 0.66085 0.08962 0.0
C472 C 0.11245 0.67163 0.04677 0.0
C473 C 0.12658 0.6858 0.07339 0.0
C474 C 0.12802 0.68859 0.14193 0.0
H475 H 0.11951 0.71636 0.29632 0.0
H476 H 0.13455 0.7165 0.2392 0.0
H477 H 0.11249 0.70469 0.21978 0.0
H478 H 0.0907 0.65502 0.18977 0.0
H479 H 0.08831 0.6499 0.07064 0.0
H480 H 0.84357 0.5259 0.10293 0.0
H481 H 0.84544 0.53098 0.22204 0.0
H482 H 0.89101 0.57845 0.19349 0.0
H483 H 0.88889 0.57366 0.07354 0.0
H484 H 0.87001 0.53287 0.29561 0.0
H485 H 0.86741 0.59138 0.33005 0.0
H486 H 0.86144 0.57968 0.25338 0.0
H487 H 0.88326 0.59369 0.27215 0.0
C488 C 0.85381 0.53759 0.12183 0.0
C489 C 0.86614 0.54935 0.07889 0.0
C490 C 0.85486 0.54049 0.18997 0.0
C491 C 0.86832 0.55513 0.21689 0.0
C492 C 0.88031 0.56723 0.17391 0.0
H493 H 0.90576 0.5573 0.61156 0.0
H494 H 0.90241 0.55926 0.49255 0.0
C495 C 0.87913 0.56444 0.10535 0.0
C496 C 0.87071 0.55664 0.2899 0.0
H497 H 0.8765 0.5819 0.42342 0.0
C498 C 0.87131 0.54356 0.32347 0.0
C499 C 0.87229 0.57052 0.32647 0.0
C500 C 0.8709 0.58454 0.29381 0.0
C501 C 0.87359 0.544 0.3922 0.0
C502 C 0.87585 0.55816 0.42845 0.0
C503 C 0.87499 0.57116 0.39533 0.0
C504 C 0.87903 0.55947 0.50085 0.0
C505 C 0.87329 0.52911 0.42545 0.0
C506 C 0.86746 0.55986 0.54522 0.0
C507 C 0.86943 0.55892 0.61364 0.0
C508 C 0.88299 0.55752 0.63863 0.0
C509 C 0.89504 0.5581 0.59401 0.0
C510 C 0.89314 0.55919 0.5259 0.0
H511 H 0.8669 0.51762 0.39428 0.0
H512 H 0.88639 0.53194 0.43394 0.0
H513 H 0.8668 0.5264 0.4741 0.0
H514 H 0.85653 0.56016 0.52684 0.0
H515 H 0.85994 0.55853 0.64665 0.0
H516 H 0.34909 0.89701 0.76845 0.0
H517 H 0.34198 0.89404 0.65153 0.0
H518 H 0.28964 0.86156 0.69914 0.0
H519 H 0.2967 0.8642 0.81746 0.0
H520 H 0.29991 0.84849 0.60176 0.0
H521 H 0.3205 0.91446 0.53945 0.0
H522 H 0.33695 0.91297 0.58109 0.0
H523 H 0.31755 0.90704 0.62395 0.0
C524 C 0.336 0.88935 0.75458 0.0
C525 C 0.32347 0.88086 0.80283 0.0
C526 C 0.33194 0.88779 0.68738 0.0
C527 C 0.31523 0.87787 0.66642 0.0
C528 C 0.30261 0.86944 0.71421 0.0
H529 H 0.30286 0.87906 0.23254 0.0
H530 H 0.29755 0.88051 0.3509 0.0
C531 C 0.30667 0.87097 0.78184 0.0
C532 C 0.31139 0.87541 0.59433 0.0
H533 H 0.32012 0.89699 0.44829 0.0
C534 C 0.30402 0.85907 0.5683 0.0
C535 C 0.31638 0.88914 0.55047 0.0
C536 C 0.32311 0.90686 0.57531 0.0
C537 C 0.30266 0.85623 0.49959 0.0
C538 C 0.30918 0.87012 0.45572 0.0
C539 C 0.31538 0.88634 0.48175 0.0
C540 C 0.31122 0.86828 0.38363 0.0
C541 C 0.29455 0.83837 0.47476 0.0
C542 C 0.32077 0.86107 0.36266 0.0
C543 C 0.32379 0.8602 0.29544 0.0
C544 C 0.31749 0.86669 0.24717 0.0
C545 C 0.30785 0.87387 0.26818 0.0
C546 C 0.3048 0.87472 0.33583 0.0
H547 H 0.28508 0.82951 0.51063 0.0
H548 H 0.28833 0.83695 0.42611 0.0
H549 H 0.30433 0.83473 0.46903 0.0
H550 H 0.32629 0.85647 0.39849 0.0
H551 H 0.33136 0.85467 0.28158 0.0
H552 H 0.438 0.29943 0.99578 0.0
H553 H 0.43634 0.2945 0.87578 0.0
H554 H 0.43453 0.33996 0.8431 0.0
H555 H 0.43648 0.34515 0.96217 0.0
H556 H 0.41383 0.2921 0.77166 0.0
H557 H 0.47738 0.34816 0.74613 0.0
H558 H 0.46867 0.33866 0.82527 0.0
H559 H 0.46252 0.35243 0.78678 0.0
C560 C 0.43696 0.30822 0.96307 0.0
C561 C 0.43765 0.32283 0.98842 0.0
C562 C 0.43601 0.30538 0.89458 0.0
C563 C 0.43566 0.31706 0.85064 0.0
C564 C 0.43515 0.33099 0.87615 0.0
H565 H 0.42219 0.31432 0.42339 0.0
H566 H 0.41731 0.3113 0.54325 0.0
C567 C 0.43625 0.33392 0.94426 0.0
C568 C 0.4372 0.31552 0.77822 0.0
H569 H 0.46252 0.33609 0.64672 0.0
C570 C 0.4245 0.30164 0.74418 0.0
C571 C 0.45127 0.32786 0.7428 0.0
C572 C 0.46583 0.34253 0.7771 0.0
C573 C 0.42533 0.3 0.67514 0.0
C574 C 0.4391 0.3127 0.63945 0.0
C575 C 0.45191 0.32639 0.67394 0.0
C576 C 0.44079 0.31223 0.56641 0.0
C577 C 0.41162 0.28458 0.64132 0.0
C578 C 0.45557 0.31375 0.53946 0.0
C579 C 0.45851 0.31578 0.47139 0.0
C580 C 0.44668 0.31623 0.42853 0.0
C581 C 0.4315 0.3139 0.45508 0.0
C582 C 0.42865 0.31208 0.52358 0.0
H583 H 0.40484 0.27404 0.67679 0.0
H584 H 0.40235 0.28762 0.61967 0.0
H585 H 0.41678 0.28034 0.6007 0.0
H586 H 0.46512 0.31389 0.57147 0.0
H587 H 0.47027 0.31739 0.4525 0.0
H588 H 0.13407 0.43829 0.12964 0.0
H589 H 0.13752 0.43666 0.00983 0.0
H590 H 0.09182 0.4379 0.97523 0.0
H591 H 0.08847 0.43991 0.09423 0.0
H592 H 0.11776 0.41519 0.90616 0.0
H593 H 0.12739 0.47947 0.87752 0.0
H594 H 0.12735 0.47061 0.95731 0.0
H595 H 0.10783 0.46516 0.9167 0.0
C596 C 0.12463 0.43797 0.09654 0.0
C597 C 0.11114 0.43951 0.12138 0.0
C598 C 0.12662 0.43704 0.02813 0.0
C599 C 0.11513 0.43754 0.98368 0.0
C600 C 0.10106 0.4379 0.00864 0.0
H601 H 0.1055 0.42348 0.55642 0.0
H602 H 0.10336 0.41867 0.67635 0.0
C603 C 0.09915 0.43902 0.07671 0.0
C604 C 0.11836 0.4389 0.91134 0.0
H605 H 0.12424 0.46426 0.77869 0.0
C606 C 0.11927 0.42594 0.87815 0.0
C607 C 0.12064 0.45309 0.87519 0.0
C608 C 0.12093 0.46796 0.90852 0.0
C609 C 0.12201 0.42663 0.80931 0.0
C610 C 0.12358 0.44051 0.77284 0.0
C611 C 0.12294 0.45356 0.80648 0.0
C612 C 0.12598 0.44205 0.69984 0.0
C613 C 0.12346 0.41264 0.7766 0.0
C614 C 0.1394 0.45674 0.67298 0.0
C615 C 0.14045 0.45965 0.60486 0.0
C616 C 0.12817 0.44786 0.56188 0.0
C617 C 0.11522 0.43273 0.58827 0.0
C618 C 0.11404 0.42993 0.65682 0.0
H619 H 0.12701 0.40584 0.81281 0.0
H620 H 0.11112 0.40345 0.75501 0.0
H621 H 0.13292 0.41753 0.73613 0.0
H622 H 0.14878 0.46627 0.70509 0.0
H623 H 0.15065 0.47138 0.586 0.0
H624 H 0.69207 0.11878 0.71887 0.0
H625 H 0.69703 0.11679 0.83714 0.0
H626 H 0.66581 0.13801 0.88643 0.0
H627 H 0.66111 0.1404 0.76952 0.0
H628 H 0.69436 0.15126 0.96193 0.0
H629 H 0.6621 0.08135 0.96007 0.0
H630 H 0.67963 0.09206 0.90465 0.0
H631 H 0.6609 0.09321 0.89115 0.0
C632 C 0.68637 0.12314 0.75489 0.0
C633 C 0.67609 0.12964 0.73437 0.0
C634 C 0.68914 0.1219 0.82251 0.0
C635 C 0.68159 0.12702 0.87071 0.0
C636 C 0.67177 0.13396 0.85022 0.0
H637 H 0.64419 0.09926 0.25618 0.0
H638 H 0.65129 0.10276 0.13911 0.0
C639 C 0.66905 0.13527 0.78306 0.0
C640 C 0.68322 0.12477 0.94273 0.0
H641 H 0.67091 0.09473 0.06307 0.0
C642 C 0.68947 0.13893 0.98413 0.0
C643 C 0.67674 0.10864 0.97151 0.0
C644 C 0.66934 0.0929 0.92984 0.0
C645 C 0.68867 0.13737 0.05348 0.0
C646 C 0.68176 0.12119 0.08227 0.0
C647 C 0.67628 0.10711 0.04087 0.0
C648 C 0.67808 0.11839 0.15435 0.0
C649 C 0.69426 0.15292 0.09512 0.0
C650 C 0.69084 0.12576 0.20232 0.0
C651 C 0.6868 0.12389 0.26998 0.0
C652 C 0.66993 0.11449 0.2908 0.0
C653 C 0.65731 0.10665 0.24238 0.0
C654 C 0.66135 0.10858 0.17514 0.0
H655 H 0.6963 0.1639 0.0649 0.0
H656 H 0.68481 0.15068 0.13402 0.0
H657 H 0.70628 0.1562 0.12004 0.0
H658 H 0.70388 0.13312 0.18746 0.0
H659 H 0.69685 0.13002 0.3058 0.0
H660 H 0.55661 0.64837 0.42733 0.0
H661 H 0.55954 0.65364 0.30829 0.0
H662 H 0.55503 0.69778 0.33688 0.0
H663 H 0.55269 0.69289 0.45673 0.0
H664 H 0.53563 0.65236 0.23358 0.0
H665 H 0.59226 0.71507 0.20203 0.0
H666 H 0.58757 0.70341 0.27861 0.0
H667 H 0.57736 0.71526 0.25904 0.0
C668 C 0.55657 0.6594 0.40843 0.0
C669 C 0.55435 0.67018 0.45133 0.0
C670 C 0.55827 0.66241 0.34035 0.0
C671 C 0.55761 0.67616 0.31347 0.0
C672 C 0.55597 0.68731 0.35643 0.0
H673 H 0.52008 0.67354 0.91962 0.0
H674 H 0.52557 0.67616 0.03853 0.0
C675 C 0.55454 0.68444 0.42492 0.0
C676 C 0.55668 0.67758 0.24044 0.0
H677 H 0.57394 0.70399 0.10806 0.0
C678 C 0.54412 0.66363 0.20623 0.0
C679 C 0.56781 0.69222 0.20451 0.0
C680 C 0.58211 0.70728 0.23782 0.0
C681 C 0.54224 0.66393 0.1375 0.0
C682 C 0.55287 0.67881 0.10192 0.0
C683 C 0.56566 0.69269 0.13564 0.0
C684 C 0.55071 0.67995 0.02968 0.0
C685 C 0.529 0.64819 0.10355 0.0
C686 C 0.56341 0.68221 0.98505 0.0
C687 C 0.56038 0.68094 0.91666 0.0
C688 C 0.54457 0.67729 0.89211 0.0
C689 C 0.53229 0.67608 0.93696 0.0
C690 C 0.53539 0.67754 0.00497 0.0
H691 H 0.52531 0.63681 0.13412 0.0
H692 H 0.51759 0.64921 0.09541 0.0
H693 H 0.53348 0.64645 0.05469 0.0
H694 H 0.57536 0.68418 0.00318 0.0
H695 H 0.5701 0.68196 0.88337 0.0
H696 H 0.42191 0.05337 0.93085 0.0
H697 H 0.39813 0.02473 0.93427 0.0
H698 H 0.36679 0.04288 0.01636 0.0
H699 H 0.39058 0.07175 0.01234 0.0
H700 H 0.37021 0.01843 0.09463 0.0
H701 H 0.35251 0.99724 0.83564 0.0
H702 H 0.37488 0.00874 0.84773 0.0
H703 H 0.36289 0.01916 0.85941 0.0
C704 C 0.40985 0.05133 0.94798 0.0
C705 C 0.4081 0.06475 0.97167 0.0
C706 C 0.39624 0.03499 0.94943 0.0
C707 C 0.38071 0.03176 0.97499 0.0
C708 C 0.37866 0.0452 0.99577 0.0
H709 H 0.31761 0.92208 0.0041 0.0
H710 H 0.32181 0.95065 1.00067 0.0
C711 C 0.39224 0.06164 0.99335 0.0
C712 C 0.36777 0.01423 0.98912 0.0
H713 H 0.34833 0.97568 0.91579 0.0
C714 C 0.3649 0.00908 0.05562 0.0
C715 C 0.36074 0.00211 0.93822 0.0
C716 C 0.36276 0.0071 0.8662 0.0
C717 C 0.35673 0.99199 0.07231 0.0
C718 C 0.35138 0.97991 0.02119 0.0
C719 C 0.3526 0.98502 0.95492 0.0
C720 C 0.3476 0.96258 0.03422 0.0
C721 C 0.35491 0.98699 0.1443 0.0
C722 C 0.36067 0.95994 0.05501 0.0
C723 C 0.35842 0.94378 0.05604 0.0
C724 C 0.343 0.92996 0.03678 0.0
C725 C 0.32959 0.93251 0.01965 0.0
C726 C 0.33195 0.94877 0.01756 0.0
H727 H 0.3547 0.99671 0.17648 0.0
H728 H 0.34325 0.97478 0.15274 0.0
H729 H 0.3658 0.98564 0.1593 0.0
H730 H 0.37292 0.97049 0.06699 0.0
H731 H 0.36894 0.94217 0.06962 0.0
H732 H 0.39202 0.31813 0.18919 0.0
H733 H 0.36815 0.32291 0.17799 0.0
H734 H 0.39989 0.37465 0.23573 0.0
H735 H 0.42373 0.37007 0.24698 0.0
H736 H 0.36463 0.35666 0.28877 0.0
H737 H 0.37093 0.35345 0.01484 0.0
H738 H 0.36871 0.33645 0.06643 0.0
H739 H 0.38767 0.35644 0.06995 0.0
C740 C 0.39381 0.33041 0.20117 0.0
C741 C 0.40981 0.34381 0.21812 0.0
C742 C 0.38017 0.33311 0.19449 0.0
C743 C 0.38238 0.34916 0.20535 0.0
C744 C 0.398 0.36218 0.22709 0.0
H745 H 0.36935 0.42545 0.10466 0.0
H746 H 0.37388 0.40152 0.11298 0.0
C747 C 0.41162 0.35955 0.23323 0.0
C748 C 0.36932 0.35328 0.18716 0.0
H749 H 0.35662 0.36689 0.05372 0.0
C750 C 0.3623 0.35836 0.23743 0.0
C751 C 0.36645 0.35549 0.12002 0.0
C752 C 0.37381 0.35023 0.06435 0.0
C753 C 0.35367 0.36693 0.22234 0.0
C754 C 0.35209 0.37044 0.15534 0.0
C755 C 0.35783 0.36407 0.10493 0.0
C756 C 0.34807 0.38364 0.13818 0.0
C757 C 0.34769 0.37358 0.27816 0.0
C758 C 0.33189 0.38127 0.14697 0.0
C759 C 0.32923 0.39496 0.14187 0.0
C760 C 0.3428 0.41116 0.1287 0.0
C761 C 0.35871 0.41316 0.11551 0.0
C762 C 0.3613 0.3995 0.11997 0.0
H763 H 0.35038 0.37016 0.32766 0.0
H764 H 0.35388 0.38749 0.27493 0.0
H765 H 0.33393 0.36844 0.27382 0.0
H766 H 0.32154 0.36905 0.16078 0.0
H767 H 0.31683 0.39305 0.15236 0.0
H768 H 0.07114 0.39253 0.33467 0.0
H769 H 0.04257 0.36814 0.33396 0.0
H770 H 0.02264 0.40036 0.38537 0.0
H771 H 0.05094 0.42467 0.38605 0.0
H772 H 0.00752 0.36635 0.45224 0.0
H773 H 0.01075 0.36637 0.17608 0.0
H774 H 0.02699 0.36604 0.22513 0.0
H775 H 0.02528 0.38464 0.22305 0.0
C776 C 0.06069 0.39433 0.34731 0.0
C777 C 0.06324 0.41054 0.35961 0.0
C778 C 0.04442 0.38041 0.34668 0.0
C779 C 0.0306 0.38256 0.35908 0.0
C780 C 0.03322 0.39851 0.37569 0.0
H781 H 0.94051 0.36893 0.28483 0.0
H782 H 0.96878 0.37284 0.28596 0.0
C783 C 0.04938 0.41239 0.37574 0.0
C784 C 0.01321 0.36889 0.34812 0.0
H785 H 0.98397 0.35357 0.22468 0.0
C786 C 0.00233 0.36294 0.40267 0.0
C787 C 0.00664 0.36458 0.28323 0.0
C788 C 0.01793 0.37069 0.22319 0.0
C789 C 0.98486 0.35411 0.39381 0.0
C790 C 0.97827 0.35126 0.32878 0.0
C791 C 0.98916 0.35578 0.27436 0.0
C792 C 0.96086 0.3474 0.31702 0.0
C793 C 0.97357 0.34939 0.45377 0.0
C794 C 0.94706 0.3316 0.33182 0.0
C795 C 0.9308 0.32929 0.33094 0.0
C796 C 0.92826 0.34284 0.31598 0.0
C797 C 0.94208 0.35832 0.29722 0.0
C798 C 0.95822 0.36055 0.29752 0.0
H799 H 0.98077 0.35277 0.50095 0.0
H800 H 0.96609 0.35585 0.45197 0.0
H801 H 0.96463 0.33565 0.45368 0.0
H802 H 0.94892 0.32132 0.34676 0.0
H803 H 0.92037 0.31722 0.34565 0.0
H804 H 0.5709 0.94314 0.45224 0.0
H805 H 0.59507 0.97159 0.45071 0.0
H806 H 0.62687 0.95295 0.52322 0.0
H807 H 0.60268 0.92423 0.52369 0.0
H808 H 0.62466 0.97877 0.60312 0.0
H809 H 0.6397 0.997 0.33981 0.0
H810 H 0.6175 0.98553 0.35628 0.0
H811 H 0.62976 0.97539 0.36762 0.0
C812 C 0.58312 0.94504 0.46626 0.0
C813 C 0.58494 0.93154 0.48833 0.0
C814 C 0.59692 0.96125 0.46493 0.0
C815 C 0.61273 0.96428 0.48627 0.0
C816 C 0.61478 0.95077 0.50582 0.0
H817 H 0.67629 0.07407 0.49631 0.0
H818 H 0.67233 0.04558 0.49759 0.0
C819 C 0.60099 0.93443 0.50599 0.0
C820 C 0.62612 0.9818 0.497 0.0
H821 H 0.64506 0.01946 0.41692 0.0
C822 C 0.62968 0.98767 0.56248 0.0
C823 C 0.63274 0.99331 0.44394 0.0
C824 C 0.62987 0.98748 0.37288 0.0
C825 C 0.63809 0.00494 0.57616 0.0
C826 C 0.64299 0.01643 0.52301 0.0
C827 C 0.64115 0.01058 0.45762 0.0
C828 C 0.64672 0.03385 0.53325 0.0
C829 C 0.64057 0.01076 0.64721 0.0
C830 C 0.63368 0.03657 0.5536 0.0
C831 C 0.63578 0.05267 0.55185 0.0
C832 C 0.65103 0.06634 0.53029 0.0
C833 C 0.66444 0.06375 0.51357 0.0
C834 C 0.66222 0.04753 0.51421 0.0
H835 H 0.64101 0.00139 0.68076 0.0
H836 H 0.65234 0.02302 0.65307 0.0
H837 H 0.62987 0.01237 0.66268 0.0
H838 H 0.62154 0.02609 0.56739 0.0
H839 H 0.62527 0.05433 0.56518 0.0
H840 H 0.67537 0.60114 0.66446 0.0
H841 H 0.67185 0.62599 0.66485 0.0
H842 H 0.61889 0.59422 0.703 0.0
H843 H 0.62208 0.56951 0.70225 0.0
H844 H 0.64193 0.62861 0.58362 0.0
H845 H 0.64399 0.6336 0.85761 0.0
H846 H 0.65532 0.62549 0.81151 0.0
H847 H 0.63316 0.61242 0.82632 0.0
C848 C 0.66294 0.59944 0.67214 0.0
C849 C 0.64902 0.58332 0.68381 0.0
C850 C 0.66101 0.61364 0.67254 0.0
C851 C 0.64518 0.61182 0.6849 0.0
C852 C 0.63124 0.59578 0.69408 0.0
H853 H 0.56855 0.62427 0.7082 0.0
H854 H 0.59322 0.62097 0.71436 0.0
C855 C 0.6331 0.58167 0.69344 0.0
C856 C 0.64261 0.62637 0.68949 0.0
H857 H 0.6264 0.64233 0.80074 0.0
C858 C 0.63927 0.63236 0.631 0.0
C859 C 0.63925 0.63118 0.75147 0.0
C860 C 0.64325 0.62547 0.81547 0.0
C861 C 0.63065 0.64137 0.63294 0.0
C862 C 0.62533 0.64426 0.69478 0.0
C863 C 0.6305 0.64003 0.75343 0.0
C864 C 0.61108 0.64731 0.69841 0.0
C865 C 0.62554 0.64601 0.56887 0.0
C866 C 0.6131 0.66332 0.68892 0.0
C867 C 0.59895 0.66529 0.68563 0.0
C868 C 0.58267 0.65121 0.69111 0.0
C869 C 0.58087 0.63533 0.70329 0.0
C870 C 0.59495 0.63343 0.70705 0.0
H871 H 0.63201 0.64437 0.52541 0.0
H872 H 0.61176 0.63797 0.56192 0.0
H873 H 0.62846 0.65928 0.57071 0.0
H874 H 0.62551 0.67414 0.68218 0.0
H875 H 0.60073 0.67768 0.67609 0.0
H876 H 0.05309 0.62744 0.77256 0.0
H877 H 0.0248 0.62353 0.77504 0.0
H878 H 0.0445 0.674 0.84896 0.0
H879 H 0.07302 0.67812 0.84589 0.0
H880 H 0.01963 0.64745 0.93059 0.0
H881 H -0.00169 0.64192 0.67086 0.0
H882 H 0.00921 0.63056 0.6859 0.0
H883 H 0.02028 0.65309 0.69406 0.0
C884 C 0.05147 0.63786 0.78771 0.0
C885 C 0.06522 0.65304 0.80938 0.0
C886 C 0.03532 0.63567 0.78861 0.0
C887 C 0.03264 0.64855 0.81159 0.0
C888 C 0.04641 0.66401 0.83037 0.0
H889 H 0.92333 0.60412 0.83589 0.0
H890 H 0.95199 0.62827 0.83189 0.0
C891 C 0.06265 0.66632 0.8285 0.0
C892 C 0.01527 0.64464 0.82519 0.0
H893 H 0.97666 0.6257 0.75255 0.0
C894 C 0.01024 0.64322 0.89165 0.0
C895 C 0.00313 0.63935 0.77436 0.0
C896 C 0.00802 0.64147 0.70222 0.0
C897 C 0.99317 0.63489 0.90871 0.0
C898 C 0.981 0.62786 0.858 0.0
C899 C 0.98605 0.63098 0.79143 0.0
C900 C 0.96356 0.61468 0.87221 0.0
C901 C 0.98827 0.63265 0.98086 0.0
C902 C 0.96066 0.5992 0.89718 0.0
C903 C 0.94444 0.58539 0.89862 0.0
C904 C 0.93082 0.58687 0.87549 0.0
C905 C 0.9336 0.60266 0.85443 0.0
C906 C 0.94992 0.61645 0.85202 0.0
H907 H -0.00194 0.64295 0.01145 0.0
H908 H 0.97609 0.63224 0.98826 0.0
H909 H 0.98692 0.62061 0.99879 0.0
H910 H 0.97108 0.59752 0.91186 0.0
H911 H 0.94265 0.57339 0.91527 0.0
H912 H 0.48723 0.10674 0.77404 0.0
H913 H 0.50537 0.099 0.7133 0.0
H914 H 0.5112 0.0758 0.88957 0.0
H915 H 0.49255 0.08291 0.94975 0.0
H916 H 0.53695 0.11252 0.74579 0.0
H917 H 0.50962 0.04353 0.75223 0.0
H918 H 0.49745 0.05351 0.7712 0.0
H919 H 0.5107 0.05198 0.83333 0.0
C920 C 0.49198 0.09954 0.79925 0.0
C921 C 0.4886 0.09555 0.86676 0.0
C922 C 0.50231 0.09509 0.76449 0.0
C923 C 0.50963 0.08676 0.79672 0.0
C924 C 0.50543 0.08186 0.86307 0.0
H925 H 0.61005 0.10888 0.71919 0.0
H926 H 0.58337 0.10186 0.77173 0.0
C927 C 0.49484 0.08605 0.89762 0.0
C928 C 0.52369 0.08584 0.76471 0.0
H929 H 0.53954 0.05993 0.73143 0.0
C930 C 0.53735 0.10094 0.74187 0.0
C931 C 0.52426 0.07076 0.75947 0.0
C932 C 0.50963 0.05401 0.77976 0.0
C933 C 0.55169 0.10149 0.71554 0.0
C934 C 0.55265 0.08661 0.71359 0.0
C935 C 0.53885 0.07136 0.7343 0.0
C936 C 0.56804 0.08701 0.6895 0.0
C937 C 0.56574 0.11806 0.69006 0.0
C938 C 0.5681 0.08002 0.62784 0.0
C939 C 0.58335 0.08388 0.59781 0.0
C940 C 0.5987 0.09491 0.629 0.0
C941 C 0.59845 0.10055 0.69352 0.0
C942 C 0.58323 0.09655 0.72364 0.0
H943 H 0.5614 0.12718 0.68028 0.0
H944 H 0.57589 0.12364 0.72774 0.0
H945 H 0.57117 0.11627 0.64367 0.0
H946 H 0.55647 0.07259 0.6009 0.0
H947 H 0.58313 0.07931 0.54814 0.0
H948 H 0.40592 0.4816 0.08181 0.0
H949 H 0.43319 0.49838 0.02717 0.0
H950 H 0.41212 0.52169 0.90445 0.0
H951 H 0.38491 0.50473 0.95658 0.0
H952 H 0.43413 0.51606 0.83623 0.0
H953 H 0.46208 0.54732 0.07692 0.0
H954 H 0.4538 0.52501 0.07276 0.0
H955 H 0.43981 0.53333 0.06717 0.0
C956 C 0.40703 0.49008 0.04235 0.0
C957 C 0.39326 0.49201 0.02444 0.0
C958 C 0.42266 0.49974 0.01151 0.0
C959 C 0.4248 0.51159 0.96292 0.0
C960 C 0.41081 0.51269 0.94208 0.0
H961 H 0.48924 0.6088 0.85954 0.0
H962 H 0.47226 0.58169 0.91251 0.0
C963 C 0.39522 0.50299 0.97224 0.0
C964 C 0.44162 0.52396 0.93683 0.0
H965 H 0.47768 0.55961 0.98132 0.0
C966 C 0.44386 0.52541 0.86786 0.0
C967 C 0.45426 0.53612 0.97845 0.0
C968 C 0.45243 0.53553 0.05291 0.0
C969 C 0.45765 0.53943 0.8391 0.0
C970 C 0.46982 0.55208 0.88071 0.0
C971 C 0.46832 0.54988 0.94969 0.0
C972 C 0.48226 0.56885 0.85447 0.0
C973 C 0.45827 0.54123 0.76462 0.0
C974 C 0.49407 0.57087 0.80594 0.0
C975 C 0.50374 0.58643 0.77462 0.0
C976 C 0.50186 0.60026 0.792 0.0
C977 C 0.49094 0.59844 0.84427 0.0
C978 C 0.48123 0.58291 0.87492 0.0
H979 H 0.44646 0.53161 0.74061 0.0
H980 H 0.46055 0.55386 0.7502 0.0
H981 H 0.46874 0.53976 0.74488 0.0
H982 H 0.49539 0.56028 0.7906 0.0
H983 H 0.51218 0.58743 0.73514 0.0
H984 H 0.88951 0.50769 0.07533 0.0
H985 H 0.89672 0.48912 0.13578 0.0
H986 H 0.9206 0.48377 0.96069 0.0
H987 H 0.91398 0.50282 0.90076 0.0
H988 H 0.88281 0.45758 0.09932 0.0
H989 H 0.95173 0.48402 0.10127 0.0
H990 H 0.94217 0.4966 0.08268 0.0
H991 H 0.94389 0.48368 0.01958 0.0
C992 C 0.89678 0.50299 0.05038 0.0
C993 C 0.90105 0.50658 0.98317 0.0
C994 C 0.90091 0.4924 0.08498 0.0
C995 C 0.90922 0.48505 0.05288 0.0
C996 C 0.91452 0.48954 0.98705 0.0
H997 H 0.88533 0.38369 0.12851 0.0
H998 H 0.8926 0.41046 0.07617 0.0
C999 C 0.91063 0.50038 0.95266 0.0
C1000 C 0.90963 0.47064 0.08412 0.0
H1001 H 0.93482 0.45412 0.12027 0.0
C1002 C 0.89425 0.45697 0.10462 0.0
C1003 C 0.92454 0.4698 0.09109 0.0
C1004 C 0.94153 0.48439 0.07309 0.0
C1005 C 0.89326 0.44239 0.13056 0.0
C1006 C 0.908 0.44121 0.1345 0.0
C1007 C 0.92351 0.45499 0.1159 0.0
C1008 C 0.90723 0.42567 0.15903 0.0
C1009 C 0.8764 0.42837 0.15376 0.0
C1010 C 0.914 0.4255 0.22108 0.0
C1011 C 0.91 0.41021 0.251 0.0
C1012 C 0.89905 0.3949 0.21934 0.0
C1013 C 0.89358 0.39525 0.15461 0.0
C1014 C 0.89772 0.41052 0.1246 0.0
H1015 H 0.86733 0.43284 0.16238 0.0
H1016 H 0.87103 0.41842 0.11529 0.0
H1017 H 0.87769 0.42267 0.20031 0.0
H1018 H 0.92142 0.4371 0.24825 0.0
H1019 H 0.91447 0.41038 0.3008 0.0
H1020 H 0.50434 0.91822 0.4659 0.0
H1021 H 0.48465 0.92498 0.41118 0.0
H1022 H 0.48278 0.8955 0.24175 0.0
H1023 H 0.50215 0.8884 0.29641 0.0
H1024 H 0.48057 0.93749 0.28097 0.0
H1025 H 0.43535 0.8701 0.33037 0.0
H1026 H 0.45596 0.88103 0.36752 0.0
H1027 H 0.45347 0.87374 0.28336 0.0
C1028 C 0.50016 0.91361 0.41612 0.0
C1029 C 0.5045 0.90249 0.38594 0.0
C1030 C 0.48892 0.9175 0.38496 0.0
C1031 C 0.48206 0.91045 0.32314 0.0
C1032 C 0.48779 0.90086 0.28996 0.0
H1033 H 0.41056 0.91405 0.06124 0.0
H1034 H 0.43642 0.92165 0.12175 0.0
C1035 C 0.49884 0.8968 0.32127 0.0
C1036 C 0.46711 0.91078 0.29814 0.0
H1037 H 0.42563 0.88473 0.26445 0.0
C1038 C 0.4685 0.92602 0.27759 0.0
C1039 C 0.45133 0.89584 0.29555 0.0
C1040 C 0.44883 0.87927 0.32094 0.0
C1041 C 0.45452 0.92657 0.25208 0.0
C1042 C 0.43892 0.91144 0.24633 0.0
C1043 C 0.43755 0.89634 0.26881 0.0
C1044 C 0.42392 0.91047 0.21442 0.0
C1045 C 0.45656 0.94331 0.23207 0.0
C1046 C 0.40827 0.90191 0.24652 0.0
C1047 C 0.39346 0.89717 0.21154 0.0
C1048 C 0.39405 0.90113 0.14405 0.0
C1049 C 0.40975 0.91095 0.1134 0.0
C1050 C 0.42458 0.91541 0.14812 0.0
H1051 H 0.46697 0.95379 0.2598 0.0
H1052 H 0.45968 0.94541 0.17854 0.0
H1053 H 0.44482 0.94372 0.2406 0.0
H1054 H 0.40745 0.89799 0.29767 0.0
H1055 H 0.38152 0.88972 0.23649 0.0
H1056 H 0.58335 0.50216 0.6549 0.0
H1057 H 0.55698 0.4825 0.59958 0.0
H1058 H 0.5847 0.48262 0.42703 0.0
H1059 H 0.61109 0.50203 0.48204 0.0
H1060 H 0.54043 0.47933 0.46732 0.0
H1061 H 0.56331 0.43446 0.51246 0.0
H1062 H 0.57248 0.45473 0.55231 0.0
H1063 H 0.57772 0.4531 0.46788 0.0
C1064 C 0.58381 0.49844 0.60437 0.0
C1065 C 0.59931 0.50337 0.57327 0.0
C1066 C 0.56872 0.48721 0.57288 0.0
C1067 C 0.56899 0.48093 0.50983 0.0
C1068 C 0.58431 0.48721 0.47608 0.0
H1069 H 0.49446 0.40973 0.24408 0.0
H1070 H 0.51296 0.4355 0.30465 0.0
C1071 C 0.59936 0.49827 0.50764 0.0
C1072 C 0.55385 0.46601 0.48376 0.0
H1073 H 0.53888 0.42473 0.44718 0.0
C1074 C 0.53997 0.46734 0.46313 0.0
C1075 C 0.55321 0.45033 0.47991 0.0
C1076 C 0.56739 0.44795 0.50484 0.0
C1077 C 0.5256 0.45339 0.4365 0.0
C1078 C 0.52531 0.4379 0.42982 0.0
C1079 C 0.53907 0.43658 0.45226 0.0
C1080 C 0.51137 0.42293 0.39738 0.0
C1081 C 0.51086 0.45534 0.41629 0.0
C1082 C 0.50409 0.40727 0.42948 0.0
C1083 C 0.49382 0.3925 0.39458 0.0
C1084 C 0.49049 0.39312 0.32701 0.0
C1085 C 0.49671 0.40886 0.29622 0.0
C1086 C 0.50722 0.42365 0.33096 0.0
H1087 H 0.51072 0.46576 0.4438 0.0
H1088 H 0.51186 0.45839 0.3627 0.0
H1089 H 0.49875 0.44358 0.42492 0.0
H1090 H 0.50711 0.40641 0.48071 0.0
H1091 H 0.48908 0.38056 0.41978 0.0
H1092 H 0.10572 0.48984 0.55765 0.0
H1093 H 0.09841 0.50822 0.61904 0.0
H1094 H 0.07398 0.51336 0.44525 0.0
H1095 H 0.08063 0.49444 0.38457 0.0
H1096 H 0.11198 0.53959 0.58388 0.0
H1097 H 0.04306 0.513 0.58618 0.0
H1098 H 0.05266 0.50051 0.56638 0.0
H1099 H 0.05082 0.51355 0.50414 0.0
C1100 C 0.0983 0.49445 0.53325 0.0
C1101 C 0.09387 0.49084 0.46621 0.0
C1102 C 0.09412 0.50493 0.56836 0.0
C1103 C 0.08562 0.51218 0.53686 0.0
C1104 C 0.08019 0.50766 0.47118 0.0
H1105 H 0.10984 0.61347 0.61805 0.0
H1106 H 0.10272 0.58696 0.56368 0.0
C1107 C 0.08411 0.49691 0.43635 0.0
C1108 C 0.08516 0.52652 0.56847 0.0
H1109 H 0.05991 0.54294 0.60492 0.0
C1110 C 0.10052 0.54017 0.58921 0.0
C1111 C 0.07024 0.52732 0.5755 0.0
C1112 C 0.05325 0.51272 0.55747 0.0
C1113 C 0.10147 0.5547 0.61552 0.0
C1114 C 0.08672 0.55587 0.61938 0.0
C1115 C 0.07124 0.54209 0.60051 0.0
C1116 C 0.08743 0.57132 0.64453 0.0
C1117 C 0.11831 0.56864 0.63938 0.0
C1118 C 0.0802 0.57119 0.70585 0.0
C1119 C 0.08408 0.58633 0.7368 0.0
C1120 C 0.09538 0.60178 0.70694 0.0
C1121 C 0.10132 0.60178 0.64277 0.0
C1122 C 0.09728 0.58665 0.61164 0.0
H1123 H 0.12729 0.56408 0.64851 0.0
H1124 H 0.12384 0.57862 0.60103 0.0
H1125 H 0.11694 0.57433 0.68581 0.0
H1126 H 0.0725 0.55945 0.73179 0.0
H1127 H 0.07924 0.5859 0.78614 0.0
H1128 H 0.44502 0.16972 0.03411 0.0
H1129 H 0.45131 0.19731 0.07352 0.0
H1130 H 0.50433 0.21595 0.04729 0.0
H1131 H 0.49823 0.18826 0.00722 0.0
H1132 H 0.4737 0.21506 0.18701 0.0
H1133 H 0.49346 0.24993 0.94729 0.0
H1134 H 0.48071 0.22729 0.95001 0.0
H1135 H 0.50253 0.2373 0.97184 0.0
C1136 C 0.45804 0.17965 0.03622 0.0
C1137 C 0.47112 0.17675 0.01739 0.0
C1138 C 0.46159 0.19539 0.05893 0.0
C1139 C 0.47825 0.20858 0.06297 0.0
C1140 C 0.49139 0.20589 0.04388 0.0
H1141 H 0.499 0.30981 0.17669 0.0
H1142 H 0.50464 0.28715 0.14821 0.0
C1143 C 0.48786 0.19007 0.02117 0.0
C1144 C 0.48157 0.22496 0.08859 0.0
H1145 H 0.48994 0.26384 0.03825 0.0
C1146 C 0.47755 0.22586 0.15491 0.0
C1147 C 0.48674 0.23899 0.04651 0.0
C1148 C 0.49108 0.23846 0.9748 0.0
C1149 C 0.4777 0.24018 0.17947 0.0
C1150 C 0.48171 0.25375 0.13617 0.0
C1151 C 0.48682 0.25332 0.07105 0.0
C1152 C 0.47864 0.26747 0.15515 0.0
C1153 C 0.473 0.24045 0.2509 0.0
C1154 C 0.46214 0.26382 0.16742 0.0
C1155 C 0.45884 0.27665 0.18327 0.0
C1156 C 0.47201 0.2934 0.18706 0.0
C1157 C 0.48858 0.29703 0.17452 0.0
C1158 C 0.49185 0.28414 0.15824 0.0
H1159 H 0.47524 0.23174 0.28172 0.0
H1160 H 0.48022 0.25331 0.27201 0.0
H1161 H 0.45942 0.23635 0.25385 0.0
H1162 H 0.45176 0.25103 0.16398 0.0
H1163 H 0.44594 0.27339 0.19248 0.0
H1164 H 0.16736 0.44868 0.27563 0.0
H1165 H 0.19547 0.45496 0.24302 0.0
H1166 H 0.21591 0.50605 0.31031 0.0
H1167 H 0.18772 0.49996 0.3434 0.0
H1168 H 0.21944 0.48346 0.15229 0.0
H1169 H 0.24179 0.48431 0.41017 0.0
H1170 H 0.21966 0.47355 0.39011 0.0
H1171 H 0.23142 0.49607 0.3911 0.0
C1172 C 0.17778 0.46127 0.28364 0.0
C1173 C 0.1753 0.47379 0.31252 0.0
C1174 C 0.19381 0.46484 0.26466 0.0
C1175 C 0.20764 0.48092 0.27455 0.0
C1176 C 0.2053 0.49355 0.30264 0.0
H1177 H 0.30617 0.49946 0.12953 0.0
H1178 H 0.28397 0.50556 0.1608 0.0
C1179 C 0.18921 0.49002 0.3214 0.0
C1180 C 0.2245 0.48408 0.25666 0.0
H1181 H 0.25891 0.48467 0.32301 0.0
C1182 C 0.22831 0.48413 0.18938 0.0
C1183 C 0.23585 0.48485 0.30558 0.0
C1184 C 0.23208 0.48466 0.37844 0.0
C1185 C 0.24292 0.4841 0.16965 0.0
C1186 C 0.25385 0.48402 0.21864 0.0
C1187 C 0.25045 0.48481 0.28584 0.0
C1188 C 0.26757 0.48084 0.20136 0.0
C1189 C 0.24609 0.4831 0.0969 0.0
C1190 C 0.26561 0.46499 0.21446 0.0
C1191 C 0.27813 0.46141 0.19655 0.0
C1192 C 0.29291 0.4737 0.16552 0.0
C1193 C 0.29492 0.4897 0.15324 0.0
C1194 C 0.2823 0.49323 0.17095 0.0
H1195 H 0.23579 0.48225 0.06528 0.0
H1196 H 0.25801 0.49444 0.08215 0.0
H1197 H 0.24751 0.47197 0.08725 0.0
H1198 H 0.25427 0.4553 0.23792 0.0
H1199 H 0.2762 0.44901 0.20717 0.0
H1200 H 0.68513 0.19033 0.53335 0.0
H1201 H 0.70692 0.21894 0.50357 0.0
H1202 H 0.73511 0.19916 0.4059 0.0
H1203 H 0.71358 0.17065 0.43532 0.0
H1204 H 0.74233 0.23363 0.54074 0.0
H1205 H 0.73265 0.23215 0.26913 0.0
H1206 H 0.71648 0.21794 0.32561 0.0
H1207 H 0.73299 0.21401 0.30054 0.0
C1208 C 0.6959 0.19207 0.50504 0.0
C1209 C 0.69767 0.17823 0.48686 0.0
C1210 C 0.70829 0.20839 0.4881 0.0
C1211 C 0.72241 0.21103 0.45183 0.0
C1212 C 0.72411 0.19728 0.43298 0.0
H1213 H 0.82368 0.27926 0.40583 0.0
H1214 H 0.79518 0.25788 0.43626 0.0
C1215 C 0.71187 0.18102 0.45036 0.0
C1216 C 0.73614 0.22816 0.4374 0.0
H1217 H 0.75994 0.25284 0.30962 0.0
C1218 C 0.746 0.23806 0.49034 0.0
C1219 C 0.74072 0.23391 0.37164 0.0
C1220 C 0.73007 0.22403 0.31342 0.0
C1221 C 0.7611 0.25303 0.47883 0.0
C1222 C 0.76637 0.25804 0.4129 0.0
C1223 C 0.75587 0.24883 0.36013 0.0
C1224 C 0.78353 0.27158 0.39759 0.0
C1225 C 0.77166 0.26301 0.53708 0.0
C1226 C 0.78629 0.28621 0.36503 0.0
C1227 C 0.8026 0.2985 0.34756 0.0
C1228 C 0.81631 0.29616 0.36148 0.0
C1229 C 0.81341 0.28143 0.39413 0.0
C1230 C 0.79716 0.26927 0.41207 0.0
H1231 H 0.76399 0.26023 0.58284 0.0
H1232 H 0.78155 0.25966 0.54625 0.0
H1233 H 0.77796 0.27672 0.52693 0.0
H1234 H 0.77583 0.28806 0.35297 0.0
H1235 H 0.80442 0.3097 0.32226 0.0
H1236 H 0.49584 0.80744 0.48422 0.0
H1237 H 0.48909 0.7788 0.51256 0.0
H1238 H 0.53742 0.7983 0.60689 0.0
H1239 H 0.54434 0.82689 0.57901 0.0
H1240 H 0.50899 0.7639 0.47207 0.0
H1241 H 0.50287 0.76531 0.74497 0.0
H1242 H 0.50098 0.77986 0.69023 0.0
H1243 H 0.52138 0.78321 0.71247 0.0
C1244 C 0.50498 0.80565 0.5115 0.0
C1245 C 0.52066 0.81944 0.52925 0.0
C1246 C 0.50108 0.7893 0.52763 0.0
C1247 C 0.51267 0.78656 0.56254 0.0
C1248 C 0.52822 0.80026 0.58091 0.0
H1249 H 0.54288 0.71551 0.59676 0.0
H1250 H 0.53664 0.73764 0.56868 0.0
C1251 C 0.53219 0.81656 0.56441 0.0
C1252 C 0.50921 0.76936 0.57599 0.0
H1253 H 0.50837 0.74414 0.70147 0.0
C1254 C 0.50848 0.75938 0.52215 0.0
C1255 C 0.50835 0.76349 0.64135 0.0
C1256 C 0.50827 0.77345 0.70063 0.0
C1257 C 0.50815 0.74413 0.53219 0.0
C1258 C 0.50865 0.73892 0.59756 0.0
C1259 C 0.50813 0.7483 0.65139 0.0
C1260 C 0.51166 0.7249 0.61104 0.0
C1261 C 0.5079 0.734 0.47292 0.0
C1262 C 0.49969 0.71054 0.6448 0.0
C1263 C 0.50319 0.69782 0.66096 0.0
C1264 C 0.51884 0.69946 0.6445 0.0
C1265 C 0.53074 0.71388 0.6104 0.0
C1266 C 0.52716 0.72648 0.59381 0.0
H1267 H 0.50286 0.73706 0.42829 0.0
H1268 H 0.52092 0.73694 0.46179 0.0
H1269 H 0.5002 0.72031 0.48297 0.0
H1270 H 0.48772 0.70925 0.65896 0.0
H1271 H 0.49379 0.68688 0.68744 0.0
H1272 H 0.80675 0.49657 0.868 0.0
H1273 H 0.7783 0.48997 0.83684 0.0
H1274 H 0.79815 0.53991 0.75708 0.0
H1275 H 0.82652 0.54667 0.78786 0.0
H1276 H 0.76256 0.50893 0.88228 0.0
H1277 H 0.767 0.50769 0.60855 0.0
H1278 H 0.78099 0.50488 0.66333 0.0
H1279 H 0.78445 0.5256 0.64657 0.0
C1280 C 0.80507 0.5061 0.84331 0.0
C1281 C 0.81888 0.52217 0.83057 0.0
C1282 C 0.78884 0.50229 0.82557 0.0
C1283 C 0.78626 0.51439 0.79394 0.0
C1284 C 0.79999 0.53033 0.78049 0.0
H1285 H 0.71486 0.54434 0.76396 0.0
H1286 H 0.73703 0.53803 0.79065 0.0
C1287 C 0.81617 0.53421 0.79866 0.0
C1288 C 0.76915 0.51098 0.77891 0.0
H1289 H 0.74522 0.51221 0.6524 0.0
C1290 C 0.75856 0.50926 0.83199 0.0
C1291 C 0.76398 0.51125 0.71324 0.0
C1292 C 0.77463 0.51229 0.65454 0.0
C1293 C 0.74338 0.50903 0.82122 0.0
C1294 C 0.73886 0.51065 0.7559 0.0
C1295 C 0.74885 0.51112 0.70249 0.0
C1296 C 0.72487 0.51372 0.74258 0.0
C1297 C 0.73259 0.5077 0.87982 0.0
C1298 C 0.71086 0.50218 0.70603 0.0
C1299 C 0.69812 0.50572 0.69069 0.0
C1300 C 0.69939 0.52099 0.71083 0.0
C1301 C 0.71351 0.5325 0.7475 0.0
C1302 C 0.72612 0.52887 0.76326 0.0
H1303 H 0.73529 0.50205 0.92341 0.0
H1304 H 0.73523 0.52048 0.89391 0.0
H1305 H 0.71903 0.50004 0.86739 0.0
H1306 H 0.70983 0.4905 0.68921 0.0
H1307 H 0.68743 0.49663 0.66216 0.0
H1308 H 0.17031 0.71981 0.87448 0.0
H1309 H 0.1982 0.7411 0.91101 0.0
H1310 H 0.21646 0.70651 0.88125 0.0
H1311 H 0.18848 0.68495 0.84393 0.0
H1312 H 0.21692 0.73744 0.02082 0.0
H1313 H 0.24965 0.75033 0.77673 0.0
H1314 H 0.22704 0.74023 0.78261 0.0
H1315 H 0.23751 0.72888 0.80457 0.0
C1316 C 0.18021 0.71667 0.8753 0.0
C1317 C 0.17714 0.70066 0.85607 0.0
C1318 C 0.19614 0.72886 0.89638 0.0
C1319 C 0.20932 0.72534 0.89843 0.0
C1320 C 0.20642 0.70945 0.8793 0.0
H1321 H 0.31109 0.80701 0.00269 0.0
H1322 H 0.28857 0.77831 0.97805 0.0
C1323 C 0.19043 0.69717 0.85817 0.0
C1324 C 0.22597 0.7385 0.92147 0.0
H1325 H 0.26441 0.76847 0.86483 0.0
C1326 C 0.22745 0.74403 0.98716 0.0
C1327 C 0.23964 0.74692 0.87736 0.0
C1328 C 0.2385 0.74142 0.80622 0.0
C1329 C 0.24196 0.75844 0.00895 0.0
C1330 C 0.25514 0.76755 0.96356 0.0
C1331 C 0.25418 0.76138 0.89922 0.0
C1332 C 0.26882 0.78461 0.97927 0.0
C1333 C 0.24281 0.76423 0.07951 0.0
C1334 C 0.26507 0.79754 0.98692 0.0
C1335 C 0.2778 0.81386 1.00042 0.0
C1336 C 0.29455 0.81756 0.00663 0.0
C1337 C 0.29829 0.80455 0.99856 0.0
C1338 C 0.2855 0.78818 0.98448 0.0
H1339 H 0.23414 0.75371 0.11226 0.0
H1340 H 0.25579 0.76982 0.09936 0.0
H1341 H 0.23906 0.77399 0.08099 0.0
H1342 H 0.25226 0.79499 0.98202 0.0
H1343 H 0.27445 0.82355 0.00632 0.0
H1344 H 0.52894 0.15103 0.03166 0.0
H1345 H 0.55391 0.15627 0.09453 0.0
H1346 H 0.52268 0.12984 0.26206 0.0
H1347 H 0.49765 0.12424 0.19941 0.0
H1348 H 0.56854 0.17055 0.22136 0.0
H1349 H 0.54446 0.10184 0.20657 0.0
H1350 H 0.53572 0.11212 0.15803 0.0
H1351 H 0.53008 0.1073 0.24383 0.0
C1352 C 0.52741 0.14662 0.08235 0.0
C1353 C 0.51129 0.13693 0.11014 0.0
C1354 C 0.54169 0.14965 0.11819 0.0
C1355 C 0.54006 0.14314 0.18233 0.0
C1356 C 0.52414 0.13468 0.21209 0.0
H1357 H 0.61449 0.15174 0.46701 0.0
H1358 H 0.59511 0.15706 0.40221 0.0
C1359 C 0.50986 0.1315 0.1762 0.0
C1360 C 0.55463 0.14353 0.21538 0.0
H1361 H 0.56857 0.11773 0.27245 0.0
C1362 C 0.56863 0.15905 0.23248 0.0
C1363 C 0.55479 0.12849 0.22853 0.0
C1364 C 0.54055 0.11149 0.20778 0.0
C1365 C 0.58269 0.15986 0.26389 0.0
C1366 C 0.58257 0.14476 0.27904 0.0
C1367 C 0.56864 0.12931 0.26092 0.0
C1368 C 0.59653 0.14436 0.31415 0.0
C1369 C 0.59762 0.17683 0.27965 0.0
C1370 C 0.60393 0.13564 0.28597 0.0
C1371 C 0.61475 0.13235 0.32316 0.0
C1372 C 0.61847 0.13778 0.38926 0.0
C1373 C 0.61193 0.14747 0.41608 0.0
C1374 C 0.60092 0.1506 0.37897 0.0
H1375 H 0.59777 0.1869 0.2486 0.0
H1376 H 0.59694 0.17991 0.33232 0.0
H1377 H 0.6096 0.17684 0.27214 0.0
H1378 H 0.60072 0.13072 0.23602 0.0
H1379 H 0.61971 0.12499 0.30088 0.0
H1380 H 0.36891 0.50032 0.35525 0.0
H1381 H 0.38722 0.52482 0.42262 0.0
H1382 H 0.39639 0.5571 0.25372 0.0
H1383 H 0.37754 0.53264 0.18669 0.0
H1384 H 0.41944 0.54255 0.39584 0.0
H1385 H 0.39367 0.58566 0.39928 0.0
H1386 H 0.3813 0.56391 0.37449 0.0
H1387 H 0.39559 0.57947 0.31691 0.0
C1388 C 0.37447 0.51269 0.33298 0.0
C1389 C 0.37193 0.51459 0.26565 0.0
C1390 C 0.3849 0.52668 0.37153 0.0
C1391 C 0.39316 0.54282 0.34335 0.0
C1392 C 0.38989 0.54485 0.27701 0.0
H1393 H 0.49252 0.61818 0.46252 0.0
H1394 H 0.46732 0.59902 0.40024 0.0
C1395 C 0.37919 0.53084 0.2386 0.0
C1396 C 0.407 0.55689 0.3802 0.0
H1397 H 0.42277 0.59763 0.42984 0.0
C1398 C 0.42003 0.55452 0.4038 0.0
C1399 C 0.40777 0.5725 0.3908 0.0
C1400 C 0.39374 0.5755 0.36962 0.0
C1401 C 0.43393 0.56733 0.43674 0.0
C1402 C 0.4351 0.58318 0.44464 0.0
C1403 C 0.42193 0.58553 0.42258 0.0
C1404 C 0.44997 0.59724 0.4766 0.0
C1405 C 0.44718 0.56372 0.46331 0.0
C1406 C 0.44846 0.60331 0.53845 0.0
C1407 C 0.46286 0.61441 0.57404 0.0
C1408 C 0.47895 0.61948 0.54831 0.0
C1409 C 0.48032 0.6143 0.48419 0.0
C1410 C 0.46595 0.60336 0.44851 0.0
H1411 H 0.44233 0.55 0.46831 0.0
H1412 H 0.45799 0.56888 0.4286 0.0
H1413 H 0.45181 0.56971 0.51244 0.0
H1414 H 0.4362 0.59876 0.56074 0.0
H1415 H 0.46137 0.61822 0.62319 0.0
H1416 H 0.86867 0.37203 0.55047 0.0
H1417 H 0.86311 0.39088 0.61721 0.0
H1418 H 0.83986 0.4 0.44871 0.0
H1419 H 0.84493 0.38074 0.38211 0.0
H1420 H 0.87764 0.42336 0.58879 0.0
H1421 H 0.80868 0.39707 0.59596 0.0
H1422 H 0.81815 0.38474 0.57161 0.0
H1423 H 0.8166 0.39874 0.51336 0.0
C1424 C 0.86201 0.37773 0.52804 0.0
C1425 C 0.85736 0.37501 0.46089 0.0
C1426 C 0.85881 0.38848 0.56629 0.0
C1427 C 0.851 0.3968 0.5381 0.0
C1428 C 0.84556 0.39344 0.47199 0.0
H1429 H 0.87381 0.4961 0.65294 0.0
H1430 H 0.86809 0.47078 0.59236 0.0
C1431 C 0.84857 0.38251 0.43383 0.0
C1432 C 0.85079 0.41066 0.57487 0.0
H1433 H 0.82571 0.42618 0.62594 0.0
C1434 C 0.86624 0.42385 0.59743 0.0
C1435 C 0.83592 0.41129 0.58634 0.0
C1436 C 0.81888 0.39712 0.56613 0.0
C1437 C 0.8673 0.43778 0.63008 0.0
C1438 C 0.85255 0.43878 0.63898 0.0
C1439 C 0.83701 0.42545 0.61799 0.0
C1440 C 0.8533 0.45365 0.67064 0.0
C1441 C 0.88421 0.45127 0.65518 0.0
C1442 C 0.84609 0.45229 0.73321 0.0
C1443 C 0.84924 0.46675 0.76794 0.0
C1444 C 0.85971 0.48278 0.74058 0.0
C1445 C 0.86591 0.48397 0.67589 0.0
C1446 C 0.86266 0.46953 0.64115 0.0
H1447 H 0.89329 0.44665 0.65923 0.0
H1448 H 0.88951 0.46202 0.62011 0.0
H1449 H 0.88303 0.45595 0.70448 0.0
H1450 H 0.83878 0.44011 0.75658 0.0
H1451 H 0.84421 0.46539 0.81754 0.0
H1452 H 0.36706 0.83435 0.9594 0.0
H1453 H 0.3846 0.826 0.89688 0.0
H1454 H 0.40284 0.87047 0.77595 0.0
H1455 H 0.38514 0.87862 0.83616 0.0
H1456 H 0.39723 0.84329 0.70332 0.0
H1457 H 0.43483 0.84904 0.92851 0.0
H1458 H 0.41275 0.83399 0.93235 0.0
H1459 H 0.41966 0.85603 0.92717 0.0
C1460 C 0.37465 0.84224 0.91894 0.0
C1461 C 0.37484 0.85728 0.90347 0.0
C1462 C 0.38473 0.83748 0.88353 0.0
C1463 C 0.39528 0.84779 0.83268 0.0
C1464 C 0.39484 0.86234 0.81514 0.0
H1465 H 0.49096 0.88096 0.68942 0.0
H1466 H 0.46507 0.87227 0.75027 0.0
C1467 C 0.38472 0.86701 0.84992 0.0
C1468 C 0.40768 0.84434 0.79977 0.0
H1469 H 0.44486 0.84536 0.82717 0.0
C1470 C 0.40751 0.84342 0.73032 0.0
C1471 C 0.42108 0.84457 0.83534 0.0
C1472 C 0.42226 0.84607 0.9099 0.0
C1473 C 0.42094 0.84392 0.69516 0.0
C1474 C 0.43468 0.84487 0.73068 0.0
C1475 C 0.43428 0.84459 0.80021 0.0
C1476 C 0.45062 0.84884 0.69723 0.0
C1477 C 0.42084 0.84468 0.62044 0.0
C1478 C 0.45125 0.83832 0.64822 0.0
C1479 C 0.46609 0.84337 0.61247 0.0
C1480 C 0.48058 0.85893 0.62578 0.0
C1481 C 0.48007 0.86895 0.67742 0.0
C1482 C 0.46525 0.86397 0.71254 0.0
H1483 H 0.41069 0.84679 0.60145 0.0
H1484 H 0.43307 0.85492 0.60167 0.0
H1485 H 0.41883 0.83262 0.59978 0.0
H1486 H 0.4402 0.82641 0.63664 0.0
H1487 H 0.46609 0.83526 0.57353 0.0
H1488 H 0.61774 0.46181 0.72659 0.0
H1489 H 0.59773 0.43604 0.78485 0.0
H1490 H 0.59884 0.46546 0.9532 0.0
H1491 H 0.61863 0.49122 0.89551 0.0
H1492 H 0.59607 0.42131 0.92036 0.0
H1493 H 0.54982 0.44236 0.87423 0.0
H1494 H 0.56964 0.45116 0.83099 0.0
H1495 H 0.56885 0.4577 0.91419 0.0
C1496 C 0.61406 0.46277 0.77667 0.0
C1497 C 0.61952 0.47857 0.80602 0.0
C1498 C 0.60265 0.44803 0.80983 0.0
C1499 C 0.59667 0.44895 0.87273 0.0
C1500 C 0.6032 0.46457 0.90428 0.0
H1501 H 0.53061 0.37865 0.1621 0.0
H1502 H 0.55512 0.39681 0.09422 0.0
C1503 C 0.61447 0.47927 0.87116 0.0
C1504 C 0.58215 0.43404 0.90217 0.0
H1505 H 0.54136 0.41927 0.94672 0.0
C1506 C 0.58404 0.42072 0.92579 0.0
C1507 C 0.56642 0.43322 0.90775 0.0
C1508 C 0.56344 0.44678 0.87994 0.0
C1509 C 0.57066 0.4068 0.95735 0.0
C1510 C 0.55518 0.40643 0.96606 0.0
C1511 C 0.55323 0.41955 0.94027 0.0
C1512 C 0.54092 0.39308 0.00398 0.0
C1513 C 0.5732 0.39263 0.98073 0.0
C1514 C 0.52477 0.38485 0.97587 0.0
C1515 C 0.51073 0.37478 0.01486 0.0
C1516 C 0.51256 0.37263 0.0827 0.0
C1517 C 0.52881 0.38 0.10989 0.0
C1518 C 0.54287 0.39029 0.07098 0.0
H1519 H 0.58323 0.3921 0.95189 0.0
H1520 H 0.57714 0.39474 0.03346 0.0
H1521 H 0.56143 0.38032 0.97665 0.0
H1522 H 0.52297 0.38683 0.9243 0.0
H1523 H 0.49838 0.36913 0.99234 0.0
H1524 H 0.11487 0.50333 0.1524 0.0
H1525 H 0.12316 0.52917 0.09187 0.0
H1526 H 0.16652 0.55576 0.21821 0.0
H1527 H 0.15807 0.5299 0.28069 0.0
H1528 H 0.14948 0.57201 0.2097 0.0
H1529 H 0.15858 0.55557 0.95663 0.0
H1530 H 0.13851 0.53986 0.98752 0.0
H1531 H 0.15745 0.5431 0.02773 0.0
C1532 C 0.12634 0.51457 0.16689 0.0
C1533 C 0.13576 0.5145 0.22175 0.0
C1534 C 0.13116 0.52935 0.13167 0.0
C1535 C 0.14563 0.54436 0.14968 0.0
C1536 C 0.15537 0.54428 0.20314 0.0
H1537 H 0.1592 0.62762 0.89395 0.0
H1538 H 0.16728 0.61008 0.95752 0.0
C1539 C 0.15051 0.52948 0.23877 0.0
C1540 C 0.14938 0.56032 0.11693 0.0
H1541 H 0.15012 0.57684 0.96485 0.0
C1542 C 0.15003 0.57325 0.15618 0.0
C1543 C 0.15052 0.56218 0.04723 0.0
C1544 C 0.15142 0.54949 0.00252 0.0
C1545 C 0.15036 0.58731 0.12738 0.0
C1546 C 0.14959 0.58822 0.0576 0.0
C1547 C 0.15039 0.57601 0.01841 0.0
C1548 C 0.14608 0.60056 0.02451 0.0
C1549 C 0.15109 0.60082 0.17215 0.0
C1550 C 0.13155 0.60114 0.04135 0.0
C1551 C 0.12695 0.61119 0.0055 0.0
C1552 C 0.13662 0.6207 0.95117 0.0
C1553 C 0.15144 0.62045 0.93542 0.0
C1554 C 0.15609 0.61043 0.97168 0.0
H1555 H 0.158 0.60175 0.21858 0.0
H1556 H 0.15726 0.61328 0.14741 0.0
H1557 H 0.13811 0.59754 0.18617 0.0
H1558 H 0.12336 0.59329 0.08062 0.0
H1559 H 0.11543 0.61098 0.01899 0.0
loop_
_geom_bond_atom_site_label_1
_geom_bond_atom_site_label_2
_geom_bond_distance
_geom_bond_site_symmetry_2
_ccdc_geom_bond_type
Sc0 O3 2.025 . S
Sc0 O10 2.105 . S
Sc0 O13 2.105 . S
Sc0 O16 2.105 . S
Sc0 O19 2.105 1_554 S
Sc1 O3 2.025 1_556 S
Sc1 O11 2.105 . S
Sc1 O15 2.105 1_556 S
Sc1 O17 2.105 1_556 S
Sc1 O21 2.105 . S
Sc2 O3 2.025 . S
Sc2 O12 2.105 1_554 S
Sc2 O14 2.105 . S
Sc2 O18 2.105 . S
Sc2 O20 2.105 . S
O3 Sc0 2.025 . S
O3 Sc1 2.025 1_554 S
O3 Sc2 2.025 . S
C4 O10 1.268 . S
C4 O20 1.268 . S
C5 O11 1.268 . S
C5 O19 1.268 . S
C6 O12 1.268 . S
C6 O21 1.268 . S
C7 O13 1.268 . S
C7 O17 1.268 . S
C8 O14 1.268 . S
C8 O16 1.268 . S
C9 O15 1.268 . S
C9 O18 1.268 . S
O10 Sc0 2.105 . S
O10 C4 1.268 . S
O11 Sc1 2.105 . S
O11 C5 1.268 . S
O12 Sc2 2.105 1_556 S
O12 C6 1.268 . S
O13 Sc0 2.105 . S
O13 C7 1.268 . S
O14 Sc2 2.105 . S
O14 C8 1.268 . S
O15 Sc1 2.105 1_554 S
O15 C9 1.268 . S
O16 Sc0 2.105 . S
O16 C8 1.268 . S
O17 Sc1 2.105 1_554 S
O17 C7 1.268 . S
O18 Sc2 2.105 . S
O18 C9 1.268 . S
O19 Sc0 2.105 1_556 S
O19 C5 1.268 . S
O20 Sc2 2.105 . S
O20 C4 1.268 . S
O21 Sc1 2.105 . S
O21 C6 1.268 . S
Sc22 O25 2.025 . S
Sc22 O32 2.105 . S
Sc22 O35 2.105 . S
Sc22 O38 2.105 . S
Sc22 O41 2.105 . S
Sc23 O25 2.025 . S
Sc23 O33 2.105 . S
Sc23 O37 2.105 . S
Sc23 O39 2.105 . S
Sc23 O43 2.105 . S
Sc24 O25 2.025 . S
Sc24 O34 2.105 . S
Sc24 O36 2.105 . S
Sc24 O40 2.105 . S
Sc24 O42 2.105 . S
O25 Sc22 2.025 . S
O25 Sc23 2.025 . S
O25 Sc24 2.025 . S
C26 O32 1.268 . S
C26 O42 1.268 . S
C27 O33 1.268 . S
C27 O41 1.268 . S
C28 O34 1.268 . S
C28 O43 1.268 . S
C29 O35 1.268 . S
C29 O39 1.268 . S
C30 O36 1.268 . S
C30 O38 1.268 . S
C31 O37 1.268 . S
C31 O40 1.268 . S
O32 Sc22 2.105 . S
O32 C26 1.268 . S
O33 Sc23 2.105 . S
O33 C27 1.268 . S
O34 Sc24 2.105 . S
O34 C28 1.268 . S
O35 Sc22 2.105 . S
O35 C29 1.268 . S
O36 Sc24 2.105 . S
O36 C30 1.268 . S
O37 Sc23 2.105 . S
O37 C31 1.268 . S
O38 Sc22 2.105 . S
O38 C30 1.268 . S
O39 Sc23 2.105 . S
O39 C29 1.268 . S
O40 Sc24 2.105 . S
O40 C31 1.268 . S
O41 Sc22 2.105 . S
O41 C27 1.268 . S
O42 Sc24 2.105 . S
O42 C26 1.268 . S
O43 Sc23 2.105 . S
O43 C28 1.268 . S
Sc44 O47 2.025 . S
Sc44 O54 2.105 . S
Sc44 O57 2.105 . S
Sc44 O60 2.105 . S
Sc44 O63 2.105 . S
Sc45 O47 2.025 . S
Sc45 O55 2.105 . S
Sc45 O59 2.105 . S
Sc45 O61 2.105 . S
Sc45 O65 2.105 . S
Sc46 O47 2.025 . S
Sc46 O56 2.105 . S
Sc46 O58 2.105 . S
Sc46 O62 2.105 . S
Sc46 O64 2.105 . S
O47 Sc44 2.025 . S
O47 Sc45 2.025 . S
O47 Sc46 2.025 . S
C48 O54 1.268 . S
C48 O64 1.268 . S
C49 O55 1.268 . S
C49 O63 1.268 . S
C50 O56 1.268 . S
C50 O65 1.268 . S
C51 O57 1.268 . S
C51 O61 1.268 . S
C52 O58 1.268 . S
C52 O60 1.268 . S
C53 O59 1.268 . S
C53 O62 1.268 . S
O54 Sc44 2.105 . S
O54 C48 1.268 . S
O55 Sc45 2.105 . S
O55 C49 1.268 . S
O56 Sc46 2.105 . S
O56 C50 1.268 . S
O57 Sc44 2.105 . S
O57 C51 1.268 . S
O58 Sc46 2.105 . S
O58 C52 1.268 . S
O59 Sc45 2.105 . S
O59 C53 1.268 . S
O60 Sc44 2.105 . S
O60 C52 1.268 . S
O61 Sc45 2.105 . S
O61 C51 1.268 . S
O62 Sc46 2.105 . S
O62 C53 1.268 . S
O63 Sc44 2.105 . S
O63 C49 1.268 . S
O64 Sc46 2.105 . S
O64 C48 1.268 . S
O65 Sc45 2.105 . S
O65 C50 1.268 . S
Sc66 O69 2.025 . S
Sc66 O76 2.105 . S
Sc66 O79 2.105 . S
Sc66 O82 2.105 . S
Sc66 O85 2.105 . S
Sc67 O69 2.025 . S
Sc67 O77 2.105 . S
Sc67 O81 2.105 . S
Sc67 O83 2.105 . S
Sc67 O87 2.105 . S
Sc68 O69 2.025 . S
Sc68 O78 2.105 . S
Sc68 O80 2.105 . S
Sc68 O84 2.105 . S
Sc68 O86 2.105 . S
O69 Sc66 2.025 . S
O69 Sc67 2.025 . S
O69 Sc68 2.025 . S
C70 O76 1.268 . S
C70 O86 1.268 . S
C71 O77 1.268 . S
C71 O85 1.268 . S
C72 O78 1.268 . S
C72 O87 1.268 . S
C73 O79 1.268 . S
C73 O83 1.268 . S
C74 O80 1.268 . S
C74 O82 1.268 . S
C75 O81 1.268 . S
C75 O84 1.268 . S
O76 Sc66 2.105 . S
O76 C70 1.268 . S
O77 Sc67 2.105 . S
O77 C71 1.268 . S
O78 Sc68 2.105 . S
O78 C72 1.268 . S
O79 Sc66 2.105 . S
O79 C73 1.268 . S
O80 Sc68 2.105 . S
O80 C74 1.268 . S
O81 Sc67 2.105 . S
O81 C75 1.268 . S
O82 Sc66 2.105 . S
O82 C74 1.268 . S
O83 Sc67 2.105 . S
O83 C73 1.268 . S
O84 Sc68 2.105 . S
O84 C75 1.268 . S
O85 Sc66 2.105 . S
O85 C71 1.268 . S
O86 Sc68 2.105 . S
O86 C70 1.268 . S
O87 Sc67 2.105 . S
O87 C72 1.268 . S
Sc88 O91 2.025 . S
Sc88 O98 2.105 . S
Sc88 O101 2.105 . S
Sc88 O104 2.105 . S
Sc88 O107 2.105 . S
Sc89 O91 2.025 . S
Sc89 O99 2.105 . S
Sc89 O103 2.105 . S
Sc89 O105 2.105 . S
Sc89 O109 2.105 . S
Sc90 O91 2.025 . S
Sc90 O100 2.105 . S
Sc90 O102 2.105 . S
Sc90 O106 2.105 . S
Sc90 O108 2.105 . S
O91 Sc88 2.025 . S
O91 Sc89 2.025 . S
O91 Sc90 2.025 . S
C92 O98 1.268 . S
C92 O108 1.268 . S
C93 O99 1.268 . S
C93 O107 1.268 . S
C94 O100 1.268 . S
C94 O109 1.268 . S
C95 O101 1.268 . S
C95 O105 1.268 . S
C96 O102 1.268 . S
C96 O104 1.268 . S
C97 O103 1.268 . S
C97 O106 1.268 . S
O98 Sc88 2.105 . S
O98 C92 1.268 . S
O99 Sc89 2.105 . S
O99 C93 1.268 . S
O100 Sc90 2.105 . S
O100 C94 1.268 . S
O101 Sc88 2.105 . S
O101 C95 1.268 . S
O102 Sc90 2.105 . S
O102 C96 1.268 . S
O103 Sc89 2.105 . S
O103 C97 1.268 . S
O104 Sc88 2.105 . S
O104 C96 1.268 . S
O105 Sc89 2.105 . S
O105 C95 1.268 . S
O106 Sc90 2.105 . S
O106 C97 1.268 . S
O107 Sc88 2.105 . S
O107 C93 1.268 . S
O108 Sc90 2.105 . S
O108 C92 1.268 . S
O109 Sc89 2.105 . S
O109 C94 1.268 . S
Sc110 O113 2.025 . S
Sc110 O120 2.105 . S
Sc110 O123 2.105 . S
Sc110 O126 2.105 . S
Sc110 O129 2.105 . S
Sc111 O113 2.025 . S
Sc111 O121 2.105 . S
Sc111 O125 2.105 . S
Sc111 O127 2.105 . S
Sc111 O131 2.105 . S
Sc112 O113 2.025 . S
Sc112 O122 2.105 . S
Sc112 O124 2.105 . S
Sc112 O128 2.105 . S
Sc112 O130 2.105 . S
O113 Sc110 2.025 . S
O113 Sc111 2.025 . S
O113 Sc112 2.025 . S
C114 O120 1.268 . S
C114 O130 1.268 . S
C115 O121 1.268 . S
C115 O129 1.268 . S
C116 O122 1.268 . S
C116 O131 1.268 . S
C117 O123 1.268 . S
C117 O127 1.268 . S
C118 O124 1.268 1_554 S
C118 O126 1.268 1_554 S
C119 O125 1.268 . S
C119 O128 1.268 . S
O120 Sc110 2.105 . S
O120 C114 1.268 . S
O121 Sc111 2.105 . S
O121 C115 1.268 . S
O122 Sc112 2.105 . S
O122 C116 1.268 . S
O123 Sc110 2.105 . S
O123 C117 1.268 . S
O124 Sc112 2.105 . S
O124 C118 1.268 1_556 S
O125 Sc111 2.105 . S
O125 C119 1.268 . S
O126 Sc110 2.105 . S
O126 C118 1.268 1_556 S
O127 Sc111 2.105 . S
O127 C117 1.268 . S
O128 Sc112 2.105 . S
O128 C119 1.268 . S
O129 Sc110 2.105 . S
O129 C115 1.268 . S
O130 Sc112 2.105 . S
O130 C114 1.268 . S
O131 Sc111 2.105 . S
O131 C116 1.268 . S
Sc132 O135 2.025 . S
Sc132 O142 2.105 . S
Sc132 O145 2.105 . S
Sc132 O148 2.105 . S
Sc132 O151 2.105 . S
Sc133 O135 2.025 . S
Sc133 O143 2.105 . S
Sc133 O147 2.105 . S
Sc133 O149 2.105 . S
Sc133 O153 2.105 . S
Sc134 O135 2.025 . S
Sc134 O144 2.105 . S
Sc134 O146 2.105 . S
Sc134 O150 2.105 . S
Sc134 O152 2.105 . S
O135 Sc132 2.025 . S
O135 Sc133 2.025 . S
O135 Sc134 2.025 . S
C136 O142 1.268 . S
C136 O152 1.268 . S
C137 O143 1.268 . S
C137 O151 1.268 . S
C138 O144 1.268 . S
C138 O153 1.268 . S
C139 O145 1.268 . S
C139 O149 1.268 . S
C140 O146 1.268 . S
C140 O148 1.268 . S
C141 O147 1.268 . S
C141 O150 1.268 . S
O142 Sc132 2.105 . S
O142 C136 1.268 . S
O143 Sc133 2.105 . S
O143 C137 1.268 . S
O144 Sc134 2.105 . S
O144 C138 1.268 . S
O145 Sc132 2.105 . S
O145 C139 1.268 . S
O146 Sc134 2.105 . S
O146 C140 1.268 . S
O147 Sc133 2.105 . S
O147 C141 1.268 . S
O148 Sc132 2.105 . S
O148 C140 1.268 . S
O149 Sc133 2.105 . S
O149 C139 1.268 . S
O150 Sc134 2.105 . S
O150 C141 1.268 . S
O151 Sc132 2.105 . S
O151 C137 1.268 . S
O152 Sc134 2.105 . S
O152 C136 1.268 . S
O153 Sc133 2.105 . S
O153 C138 1.268 . S
Sc154 O157 2.025 . S
Sc154 O164 2.105 . S
Sc154 O167 2.105 1_556 S
Sc154 O170 2.105 1_556 S
Sc154 O173 2.105 . S
Sc155 O157 2.025 1_554 S
Sc155 O165 2.105 . S
Sc155 O169 2.105 . S
Sc155 O171 2.105 . S
Sc155 O175 2.105 1_554 S
Sc156 O157 2.025 . S
Sc156 O166 2.105 . S
Sc156 O168 2.105 . S
Sc156 O172 2.105 1_556 S
Sc156 O174 2.105 . S
O157 Sc154 2.025 . S
O157 Sc155 2.025 1_556 S
O157 Sc156 2.025 . S
C158 O164 1.268 . S
C158 O174 1.268 . S
C159 O165 1.268 1_556 S
C159 O173 1.268 . S
C160 O166 1.268 . S
C160 O175 1.268 . S
C161 O167 1.268 . S
C161 O171 1.268 . S
C162 O168 1.268 1_554 S
C162 O170 1.268 . S
C163 O169 1.268 . S
C163 O172 1.268 . S
O164 Sc154 2.105 . S
O164 C158 1.268 . S
O165 Sc155 2.105 . S
O165 C159 1.268 1_554 S
O166 Sc156 2.105 . S
O166 C160 1.268 . S
O167 Sc154 2.105 1_554 S
O167 C161 1.268 . S
O168 Sc156 2.105 . S
O168 C162 1.268 1_556 S
O169 Sc155 2.105 . S
O169 C163 1.268 . S
O170 Sc154 2.105 1_554 S
O170 C162 1.268 . S
O171 Sc155 2.105 . S
O171 C161 1.268 . S
O172 Sc156 2.105 1_554 S
O172 C163 1.268 . S
O173 Sc154 2.105 . S
O173 C159 1.268 . S
O174 Sc156 2.105 . S
O174 C158 1.268 . S
O175 Sc155 2.105 1_556 S
O175 C160 1.268 . S
Sc176 O179 2.025 . S
Sc176 O186 2.105 . S
Sc176 O189 2.105 . S
Sc176 O192 2.105 . S
Sc176 O195 2.105 . S
Sc177 O179 2.025 . S
Sc177 O187 2.105 . S
Sc177 O191 2.105 . S
Sc177 O193 2.105 . S
Sc177 O197 2.105 . S
Sc178 O179 2.025 . S
Sc178 O188 2.105 . S
Sc178 O190 2.105 . S
Sc178 O194 2.105 . S
Sc178 O196 2.105 . S
O179 Sc176 2.025 . S
O179 Sc177 2.025 . S
O179 Sc178 2.025 . S
C180 O186 1.268 . S
C180 O196 1.268 . S
C181 O187 1.268 . S
C181 O195 1.268 . S
C182 O188 1.268 . S
C182 O197 1.268 . S
C183 O189 1.268 . S
C183 O193 1.268 . S
C184 O190 1.268 . S
C184 O192 1.268 . S
C185 O191 1.268 . S
C185 O194 1.268 . S
O186 Sc176 2.105 . S
O186 C180 1.268 . S
O187 Sc177 2.105 . S
O187 C181 1.268 . S
O188 Sc178 2.105 . S
O188 C182 1.268 . S
O189 Sc176 2.105 . S
O189 C183 1.268 . S
O190 Sc178 2.105 . S
O190 C184 1.268 . S
O191 Sc177 2.105 . S
O191 C185 1.268 . S
O192 Sc176 2.105 . S
O192 C184 1.268 . S
O193 Sc177 2.105 . S
O193 C183 1.268 . S
O194 Sc178 2.105 . S
O194 C185 1.268 . S
O195 Sc176 2.105 . S
O195 C181 1.268 . S
O196 Sc178 2.105 . S
O196 C180 1.268 . S
O197 Sc177 2.105 . S
O197 C182 1.268 . S
Sc198 O201 2.025 . S
Sc198 O208 2.105 . S
Sc198 O211 2.105 . S
Sc198 O214 2.105 . S
Sc198 O217 2.105 . S
Sc199 O201 2.025 . S
Sc199 O209 2.105 . S
Sc199 O213 2.105 . S
Sc199 O215 2.105 . S
Sc199 O219 2.105 . S
Sc200 O201 2.025 . S
Sc200 O210 2.105 . S
Sc200 O212 2.105 . S
Sc200 O216 2.105 . S
Sc200 O218 2.105 . S
O201 Sc198 2.025 . S
O201 Sc199 2.025 . S
O201 Sc200 2.025 . S
C202 O208 1.268 . S
C202 O218 1.268 . S
C203 O209 1.268 . S
C203 O217 1.268 . S
C204 O210 1.268 . S
C204 O219 1.268 . S
C205 O211 1.268 . S
C205 O215 1.268 . S
C206 O212 1.268 . S
C206 O214 1.268 . S
C207 O213 1.268 . S
C207 O216 1.268 . S
O208 Sc198 2.105 . S
O208 C202 1.268 . S
O209 Sc199 2.105 . S
O209 C203 1.268 . S
O210 Sc200 2.105 . S
O210 C204 1.268 . S
O211 Sc198 2.105 . S
O211 C205 1.268 . S
O212 Sc200 2.105 . S
O212 C206 1.268 . S
O213 Sc199 2.105 . S
O213 C207 1.268 . S
O214 Sc198 2.105 . S
O214 C206 1.268 . S
O215 Sc199 2.105 . S
O215 C205 1.268 . S
O216 Sc200 2.105 . S
O216 C207 1.268 . S
O217 Sc198 2.105 . S
O217 C203 1.268 . S
O218 Sc200 2.105 . S
O218 C202 1.268 . S
O219 Sc199 2.105 . S
O219 C204 1.268 . S
Sc220 O223 2.025 . S
Sc220 O230 2.105 . S
Sc220 O233 2.105 . S
Sc220 O236 2.105 . S
Sc220 O239 2.105 . S
Sc221 O223 2.025 . S
Sc221 O231 2.105 . S
Sc221 O235 2.105 . S
Sc221 O237 2.105 . S
Sc221 O241 2.105 . S
Sc222 O223 2.025 . S
Sc222 O232 2.105 . S
Sc222 O234 2.105 . S
Sc222 O238 2.105 . S
Sc222 O240 2.105 . S
O223 Sc220 2.025 . S
O223 Sc221 2.025 . S
O223 Sc222 2.025 . S
C224 O230 1.268 . S
C224 O240 1.268 . S
C225 O231 1.268 . S
C225 O239 1.268 . S
C226 O232 1.268 . S
C226 O241 1.268 . S
C227 O233 1.268 . S
C227 O237 1.268 . S
C228 O234 1.268 . S
C228 O236 1.268 . S
C229 O235 1.268 . S
C229 O238 1.268 . S
O230 Sc220 2.105 . S
O230 C224 1.268 . S
O231 Sc221 2.105 . S
O231 C225 1.268 . S
O232 Sc222 2.105 . S
O232 C226 1.268 . S
O233 Sc220 2.105 . S
O233 C227 1.268 . S
O234 Sc222 2.105 . S
O234 C228 1.268 . S
O235 Sc221 2.105 . S
O235 C229 1.268 . S
O236 Sc220 2.105 . S
O236 C228 1.268 . S
O237 Sc221 2.105 . S
O237 C227 1.268 . S
O238 Sc222 2.105 . S
O238 C229 1.268 . S
O239 Sc220 2.105 . S
O239 C225 1.268 . S
O240 Sc222 2.105 . S
O240 C224 1.268 . S
O241 Sc221 2.105 . S
O241 C226 1.268 . S
Sc242 O245 2.025 . S
Sc242 O252 2.105 . S
Sc242 O255 2.105 . S
Sc242 O258 2.105 . S
Sc242 O261 2.105 . S
Sc243 O245 2.025 . S
Sc243 O253 2.105 . S
Sc243 O257 2.105 . S
Sc243 O259 2.105 . S
Sc243 O263 2.105 . S
Sc244 O245 2.025 . S
Sc244 O254 2.105 . S
Sc244 O256 2.105 . S
Sc244 O260 2.105 . S
Sc244 O262 2.105 . S
O245 Sc242 2.025 . S
O245 Sc243 2.025 . S
O245 Sc244 2.025 . S
C246 O252 1.268 . S
C246 O262 1.268 . S
C247 O253 1.268 . S
C247 O261 1.268 . S
C248 O254 1.268 . S
C248 O263 1.268 . S
C249 O255 1.268 . S
C249 O259 1.268 . S
C250 O256 1.268 . S
C250 O258 1.268 . S
C251 O257 1.268 . S
C251 O260 1.268 . S
O252 Sc242 2.105 . S
O252 C246 1.268 . S
O253 Sc243 2.105 . S
O253 C247 1.268 . S
O254 Sc244 2.105 . S
O254 C248 1.268 . S
O255 Sc242 2.105 . S
O255 C249 1.268 . S
O256 Sc244 2.105 . S
O256 C250 1.268 . S
O257 Sc243 2.105 . S
O257 C251 1.268 . S
O258 Sc242 2.105 . S
O258 C250 1.268 . S
O259 Sc243 2.105 . S
O259 C249 1.268 . S
O260 Sc244 2.105 . S
O260 C251 1.268 . S
O261 Sc242 2.105 . S
O261 C247 1.268 . S
O262 Sc244 2.105 . S
O262 C246 1.268 . S
O263 Sc243 2.105 . S
O263 C248 1.268 . S
H264 C272 0.929 . S
H265 C274 0.930 . S
H266 C276 0.930 . S
H267 C279 0.929 . S
H268 C282 0.930 . S
H269 C284 0.960 . S
H270 C284 0.960 . S
H271 C284 0.960 . S
C272 H264 0.929 . S
C272 C273 1.377 . S
C272 C274 1.384 . S
C273 C272 1.377 . S
C273 C279 1.390 . S
C274 H265 0.930 . S
C274 C272 1.384 . S
C274 C275 1.372 . S
C275 C274 1.372 . S
C275 C276 1.400 . S
C275 C280 1.490 . S
C276 H266 0.930 . S
C276 C275 1.400 . S
C276 C279 1.386 . S
H277 C293 0.930 . S
H278 C294 0.931 . S
C279 H267 0.929 . S
C279 C273 1.390 . S
C279 C276 1.386 . S
C280 C275 1.490 . S
C280 C282 1.395 . S
C280 C283 1.403 . S
H281 C287 0.930 . S
C282 H268 0.930 . S
C282 C280 1.395 . S
C282 C285 1.403 . S
C283 C280 1.403 . S
C283 C284 1.524 . S
C283 C287 1.400 . S
C284 H269 0.960 . S
C284 H270 0.960 . S
C284 H271 0.960 . S
C284 C283 1.524 . S
C285 C282 1.403 . S
C285 C286 1.392 . S
C285 C289 1.495 . S
C286 C285 1.392 . S
C286 C287 1.385 . S
C286 C288 1.478 . S
C287 H281 0.930 . S
C287 C283 1.400 . S
C287 C286 1.385 . S
C288 C286 1.478 . S
C288 C290 1.381 . S
C288 C294 1.383 . S
C289 C285 1.495 . S
C289 H295 0.959 . S
C289 H296 0.961 . S
C289 H297 0.960 . S
C290 C288 1.381 . S
C290 C291 1.394 . S
C290 H298 0.930 . S
C291 C290 1.394 . S
C291 C292 1.383 . S
C291 H299 0.929 . S
C292 C291 1.383 . S
C292 C293 1.377 . S
C293 H277 0.930 . S
C293 C292 1.377 . S
C293 C294 1.379 . S
C294 H278 0.931 . S
C294 C288 1.383 . S
C294 C293 1.379 . S
H295 C289 0.959 . S
H296 C289 0.961 . S
H297 C289 0.960 . S
H298 C290 0.930 . S
H299 C291 0.929 . S
H300 C308 0.929 . S
H301 C310 0.930 . S
H302 C312 0.930 . S
H303 C315 0.929 . S
H304 C318 0.930 . S
H305 C320 0.960 . S
H306 C320 0.960 . S
H307 C320 0.960 . S
C308 H300 0.929 . S
C308 C309 1.377 . S
C308 C310 1.384 . S
C309 C308 1.377 . S
C309 C315 1.390 . S
C310 H301 0.930 . S
C310 C308 1.384 . S
C310 C311 1.372 . S
C311 C310 1.372 . S
C311 C312 1.400 . S
C311 C316 1.490 . S
C312 H302 0.930 . S
C312 C311 1.400 . S
C312 C315 1.386 . S
H313 C329 0.930 . S
H314 C330 0.931 . S
C315 H303 0.929 . S
C315 C309 1.390 . S
C315 C312 1.386 . S
C316 C311 1.490 . S
C316 C318 1.395 . S
C316 C319 1.403 . S
H317 C323 0.930 . S
C318 H304 0.930 . S
C318 C316 1.395 . S
C318 C321 1.403 . S
C319 C316 1.403 . S
C319 C320 1.524 . S
C319 C323 1.400 . S
C320 H305 0.960 . S
C320 H306 0.960 . S
C320 H307 0.960 . S
C320 C319 1.524 . S
C321 C318 1.403 . S
C321 C322 1.392 . S
C321 C325 1.495 . S
C322 C321 1.392 . S
C322 C323 1.385 . S
C322 C324 1.478 . S
C323 H317 0.930 . S
C323 C319 1.400 . S
C323 C322 1.385 . S
C324 C322 1.478 . S
C324 C326 1.381 . S
C324 C330 1.383 . S
C325 C321 1.495 . S
C325 H331 0.959 . S
C325 H332 0.961 . S
C325 H333 0.960 . S
C326 C324 1.381 . S
C326 C327 1.394 . S
C326 H334 0.930 . S
C327 C326 1.394 . S
C327 C328 1.383 . S
C327 H335 0.929 . S
C328 C327 1.383 . S
C328 C329 1.377 . S
C329 H313 0.930 . S
C329 C328 1.377 . S
C329 C330 1.379 . S
C330 H314 0.931 . S
C330 C324 1.383 . S
C330 C329 1.379 . S
H331 C325 0.959 . S
H332 C325 0.961 . S
H333 C325 0.960 . S
H334 C326 0.930 . S
H335 C327 0.929 . S
H336 C344 0.929 . S
H337 C346 0.930 . S
H338 C348 0.930 . S
H339 C351 0.929 . S
H340 C354 0.930 . S
H341 C356 0.960 . S
H342 C356 0.960 . S
H343 C356 0.960 . S
C344 H336 0.929 . S
C344 C345 1.377 . S
C344 C346 1.384 . S
C345 C344 1.377 . S
C345 C351 1.390 . S
C346 H337 0.930 . S
C346 C344 1.384 . S
C346 C347 1.372 . S
C347 C346 1.372 . S
C347 C348 1.400 . S
C347 C352 1.490 . S
C348 H338 0.930 . S
C348 C347 1.400 . S
C348 C351 1.386 . S
H349 C365 0.930 . S
H350 C366 0.942 . S
C351 H339 0.929 . S
C351 C345 1.390 . S
C351 C348 1.386 . S
C352 C347 1.490 . S
C352 C354 1.395 . S
C352 C355 1.403 . S
H353 C359 0.930 . S
C354 H340 0.930 . S
C354 C352 1.395 . S
C354 C357 1.403 . S
C355 C352 1.403 . S
C355 C356 1.524 . S
C355 C359 1.400 . S
C356 H341 0.960 . S
C356 H342 0.960 . S
C356 H343 0.960 . S
C356 C355 1.524 . S
C357 C354 1.403 . S
C357 C358 1.392 . S
C357 C361 1.495 . S
C358 C357 1.392 . S
C358 C359 1.385 . S
C358 C360 1.478 . S
C359 H353 0.930 . S
C359 C355 1.400 . S
C359 C358 1.385 . S
C360 C358 1.478 . S
C360 C362 1.381 1_556 S
C360 C366 1.382 1_556 S
C361 C357 1.495 . S
C361 H367 0.959 . S
C361 H368 0.961 . S
C361 H369 0.960 . S
C362 C360 1.381 1_554 S
C362 C363 1.394 . S
C362 H370 0.930 . S
C363 C362 1.394 . S
C363 C364 1.383 . S
C363 H371 0.929 . S
C364 C363 1.383 . S
C364 C365 1.377 . S
C365 H349 0.930 . S
C365 C364 1.377 . S
C365 C366 1.379 . S
C366 H350 0.942 . S
C366 C360 1.382 1_554 S
C366 C365 1.379 . S
H367 C361 0.959 . S
H368 C361 0.961 . S
H369 C361 0.960 . S
H370 C362 0.930 . S
H371 C363 0.929 . S
H372 C380 0.929 . S
H373 C382 0.930 . S
H374 C384 0.930 . S
H375 C387 0.929 . S
H376 C390 0.930 . S
H377 C392 0.960 . S
H378 C392 0.960 . S
H379 C392 0.960 . S
C380 H372 0.929 . S
C380 C381 1.377 . S
C380 C382 1.384 . S
C381 C380 1.377 . S
C381 C387 1.390 . S
C382 H373 0.930 . S
C382 C380 1.384 . S
C382 C383 1.372 . S
C383 C382 1.372 . S
C383 C384 1.400 . S
C383 C388 1.490 . S
C384 H374 0.930 . S
C384 C383 1.400 . S
C384 C387 1.386 . S
H385 C401 0.930 . S
H386 C402 0.931 . S
C387 H375 0.929 . S
C387 C381 1.390 . S
C387 C384 1.386 . S
C388 C383 1.490 . S
C388 C390 1.395 . S
C388 C391 1.403 . S
H389 C395 0.930 . S
C390 H376 0.930 . S
C390 C388 1.395 . S
C390 C393 1.403 1_554 S
C391 C388 1.403 . S
C391 C392 1.524 . S
C391 C395 1.400 1_554 S
C392 H377 0.960 . S
C392 H378 0.960 . S
C392 H379 0.960 . S
C392 C391 1.524 . S
C393 C390 1.403 1_556 S
C393 C394 1.392 . S
C393 C397 1.495 . S
C394 C393 1.392 . S
C394 C395 1.385 . S
C394 C396 1.478 . S
C395 H389 0.930 . S
C395 C391 1.400 1_556 S
C395 C394 1.385 . S
C396 C394 1.478 . S
C396 C398 1.381 . S
C396 C402 1.383 . S
C397 C393 1.495 . S
C397 H403 0.959 . S
C397 H404 0.961 . S
C397 H405 0.960 . S
C398 C396 1.381 . S
C398 C399 1.394 . S
C398 H406 0.930 . S
C399 C398 1.394 . S
C399 C400 1.383 . S
C399 H407 0.929 . S
C400 C399 1.383 . S
C400 C401 1.377 . S
C401 H385 0.930 . S
C401 C400 1.377 . S
C401 C402 1.379 . S
C402 H386 0.931 . S
C402 C396 1.383 . S
C402 C401 1.379 . S
H403 C397 0.959 . S
H404 C397 0.961 . S
H405 C397 0.960 . S
H406 C398 0.930 . S
H407 C399 0.929 . S
H408 C416 0.929 . S
H409 C418 0.930 . S
H410 C420 0.930 . S
H411 C423 0.929 . S
H412 C426 0.930 . S
H413 C428 0.960 . S
H414 C428 0.960 . S
H415 C428 0.960 . S
C416 H408 0.929 . S
C416 C417 1.377 . S
C416 C418 1.384 1_556 S
C417 C416 1.377 . S
C417 C423 1.390 . S
C418 H409 0.930 . S
C418 C416 1.384 1_554 S
C418 C419 1.372 . S
C419 C418 1.372 . S
C419 C420 1.400 . S
C419 C424 1.490 . S
C420 H410 0.930 . S
C420 C419 1.400 . S
C420 C423 1.386 1_554 S
H421 C437 0.930 . S
H422 C438 0.931 . S
C423 H411 0.929 . S
C423 C417 1.390 . S
C423 C420 1.386 1_556 S
C424 C419 1.490 . S
C424 C426 1.395 . S
C424 C427 1.403 . S
H425 C431 0.930 . S
C426 H412 0.930 . S
C426 C424 1.395 . S
C426 C429 1.403 . S
C427 C424 1.403 . S
C427 C428 1.524 . S
C427 C431 1.400 . S
C428 H413 0.960 . S
C428 H414 0.960 . S
C428 H415 0.960 . S
C428 C427 1.524 . S
C429 C426 1.403 . S
C429 C430 1.392 . S
C429 C433 1.495 . S
C430 C429 1.392 . S
C430 C431 1.385 . S
C430 C432 1.478 . S
C431 H425 0.930 . S
C431 C427 1.400 . S
C431 C430 1.385 . S
C432 C430 1.478 . S
C432 C434 1.381 . S
C432 C438 1.383 . S
C433 C429 1.495 . S
C433 H439 0.959 . S
C433 H440 0.961 . S
C433 H441 0.960 . S
C434 C432 1.381 . S
C434 C435 1.394 . S
C434 H442 0.930 . S
C435 C434 1.394 . S
C435 C436 1.383 . S
C435 H443 0.929 . S
C436 C435 1.383 . S
C436 C437 1.377 . S
C437 H421 0.930 . S
C437 C436 1.377 . S
C437 C438 1.379 . S
C438 H422 0.931 . S
C438 C432 1.383 . S
C438 C437 1.379 . S
H439 C433 0.959 . S
H440 C433 0.961 . S
H441 C433 0.960 . S
H442 C434 0.930 . S
H443 C435 0.929 . S
H444 C452 0.929 . S
H445 C454 0.930 . S
H446 C456 0.930 . S
H447 C459 0.929 . S
H448 C462 0.930 . S
H449 C464 0.960 . S
H450 C464 0.960 . S
H451 C464 0.960 . S
C452 H444 0.929 . S
C452 C453 1.377 . S
C452 C454 1.384 . S
C453 C452 1.377 . S
C453 C459 1.390 . S
C454 H445 0.930 . S
C454 C452 1.384 . S
C454 C455 1.372 . S
C455 C454 1.372 . S
C455 C456 1.400 . S
C455 C460 1.490 . S
C456 H446 0.930 . S
C456 C455 1.400 . S
C456 C459 1.386 . S
H457 C473 0.930 . S
H458 C474 0.931 . S
C459 H447 0.929 . S
C459 C453 1.390 . S
C459 C456 1.386 . S
C460 C455 1.490 . S
C460 C462 1.395 . S
C460 C463 1.403 . S
H461 C467 0.930 . S
C462 H448 0.930 . S
C462 C460 1.395 . S
C462 C465 1.403 . S
C463 C460 1.403 . S
C463 C464 1.524 . S
C463 C467 1.400 . S
C464 H449 0.960 . S
C464 H450 0.960 . S
C464 H451 0.960 . S
C464 C463 1.524 . S
C465 C462 1.403 . S
C465 C466 1.392 . S
C465 C469 1.495 . S
C466 C465 1.392 . S
C466 C467 1.385 . S
C466 C468 1.478 . S
C467 H461 0.930 . S
C467 C463 1.400 . S
C467 C466 1.385 . S
C468 C466 1.478 . S
C468 C470 1.381 . S
C468 C474 1.383 . S
C469 C465 1.495 . S
C469 H475 0.959 . S
C469 H476 0.961 . S
C469 H477 0.960 . S
C470 C468 1.381 . S
C470 C471 1.394 . S
C470 H478 0.930 . S
C471 C470 1.394 . S
C471 C472 1.383 . S
C471 H479 0.929 . S
C472 C471 1.383 . S
C472 C473 1.377 . S
C473 H457 0.930 . S
C473 C472 1.377 . S
C473 C474 1.379 . S
C474 H458 0.931 . S
C474 C468 1.383 . S
C474 C473 1.379 . S
H475 C469 0.959 . S
H476 C469 0.961 . S
H477 C469 0.960 . S
H478 C470 0.930 . S
H479 C471 0.929 . S
H480 C488 0.929 . S
H481 C490 0.930 . S
H482 C492 0.930 . S
H483 C495 0.929 . S
H484 C498 0.930 . S
H485 C500 0.960 . S
H486 C500 0.960 . S
H487 C500 0.960 . S
C488 H480 0.929 . S
C488 C489 1.377 . S
C488 C490 1.384 . S
C489 C488 1.377 . S
C489 C495 1.390 . S
C490 H481 0.930 . S
C490 C488 1.384 . S
C490 C491 1.372 . S
C491 C490 1.372 . S
C491 C492 1.400 . S
C491 C496 1.490 . S
C492 H482 0.930 . S
C492 C491 1.400 . S
C492 C495 1.386 . S
H493 C509 0.930 . S
H494 C510 0.931 . S
C495 H483 0.929 . S
C495 C489 1.390 . S
C495 C492 1.386 . S
C496 C491 1.490 . S
C496 C498 1.395 . S
C496 C499 1.403 . S
H497 C503 0.930 . S
C498 H484 0.930 . S
C498 C496 1.395 . S
C498 C501 1.403 . S
C499 C496 1.403 . S
C499 C500 1.524 . S
C499 C503 1.400 . S
C500 H485 0.960 . S
C500 H486 0.960 . S
C500 H487 0.960 . S
C500 C499 1.524 . S
C501 C498 1.403 . S
C501 C502 1.392 . S
C501 C505 1.495 . S
C502 C501 1.392 . S
C502 C503 1.385 . S
C502 C504 1.478 . S
C503 H497 0.930 . S
C503 C499 1.400 . S
C503 C502 1.385 . S
C504 C502 1.478 . S
C504 C506 1.381 . S
C504 C510 1.383 . S
C505 C501 1.495 . S
C505 H511 0.959 . S
C505 H512 0.961 . S
C505 H513 0.960 . S
C506 C504 1.381 . S
C506 C507 1.394 . S
C506 H514 0.930 . S
C507 C506 1.394 . S
C507 C508 1.383 . S
C507 H515 0.929 . S
C508 C507 1.383 . S
C508 C509 1.377 . S
C509 H493 0.930 . S
C509 C508 1.377 . S
C509 C510 1.379 . S
C510 H494 0.931 . S
C510 C504 1.383 . S
C510 C509 1.379 . S
H511 C505 0.959 . S
H512 C505 0.961 . S
H513 C505 0.960 . S
H514 C506 0.930 . S
H515 C507 0.929 . S
H516 C524 0.929 . S
H517 C526 0.930 . S
H518 C528 0.930 . S
H519 C531 0.929 . S
H520 C534 0.930 . S
H521 C536 0.960 . S
H522 C536 0.960 . S
H523 C536 0.960 . S
C524 H516 0.929 . S
C524 C525 1.377 . S
C524 C526 1.384 . S
C525 C524 1.377 . S
C525 C531 1.390 . S
C526 H517 0.930 . S
C526 C524 1.384 . S
C526 C527 1.372 . S
C527 C526 1.372 . S
C527 C528 1.400 . S
C527 C532 1.490 . S
C528 H518 0.930 . S
C528 C527 1.400 . S
C528 C531 1.386 . S
H529 C545 0.930 . S
H530 C546 0.931 . S
C531 H519 0.929 . S
C531 C525 1.390 . S
C531 C528 1.386 . S
C532 C527 1.490 . S
C532 C534 1.395 . S
C532 C535 1.403 . S
H533 C539 0.930 . S
C534 H520 0.930 . S
C534 C532 1.395 . S
C534 C537 1.403 . S
C535 C532 1.403 . S
C535 C536 1.524 . S
C535 C539 1.400 . S
C536 H521 0.960 . S
C536 H522 0.960 . S
C536 H523 0.960 . S
C536 C535 1.524 . S
C537 C534 1.403 . S
C537 C538 1.392 . S
C537 C541 1.495 . S
C538 C537 1.392 . S
C538 C539 1.385 . S
C538 C540 1.478 . S
C539 H533 0.930 . S
C539 C535 1.400 . S
C539 C538 1.385 . S
C540 C538 1.478 . S
C540 C542 1.381 . S
C540 C546 1.383 . S
C541 C537 1.495 . S
C541 H547 0.959 . S
C541 H548 0.961 . S
C541 H549 0.960 . S
C542 C540 1.381 . S
C542 C543 1.394 . S
C542 H550 0.930 . S
C543 C542 1.394 . S
C543 C544 1.383 . S
C543 H551 0.929 . S
C544 C543 1.383 . S
C544 C545 1.377 . S
C545 H529 0.930 . S
C545 C544 1.377 . S
C545 C546 1.379 . S
C546 H530 0.931 . S
C546 C540 1.383 . S
C546 C545 1.379 . S
H547 C541 0.959 . S
H548 C541 0.961 . S
H549 C541 0.960 . S
H550 C542 0.930 . S
H551 C543 0.929 . S
H552 C560 0.929 . S
H553 C562 0.930 . S
H554 C564 0.930 . S
H555 C567 0.929 . S
H556 C570 0.930 . S
H557 C572 0.960 . S
H558 C572 0.960 . S
H559 C572 0.960 . S
C560 H552 0.929 . S
C560 C561 1.377 . S
C560 C562 1.384 . S
C561 C560 1.377 . S
C561 C567 1.390 . S
C562 H553 0.930 . S
C562 C560 1.384 . S
C562 C563 1.372 . S
C563 C562 1.372 . S
C563 C564 1.400 . S
C563 C568 1.490 . S
C564 H554 0.930 . S
C564 C563 1.400 . S
C564 C567 1.386 . S
H565 C581 0.930 . S
H566 C582 0.931 . S
C567 H555 0.929 . S
C567 C561 1.390 . S
C567 C564 1.386 . S
C568 C563 1.490 . S
C568 C570 1.395 . S
C568 C571 1.403 . S
H569 C575 0.930 . S
C570 H556 0.930 . S
C570 C568 1.395 . S
C570 C573 1.403 . S
C571 C568 1.403 . S
C571 C572 1.524 . S
C571 C575 1.400 . S
C572 H557 0.960 . S
C572 H558 0.960 . S
C572 H559 0.960 . S
C572 C571 1.524 . S
C573 C570 1.403 . S
C573 C574 1.392 . S
C573 C577 1.495 . S
C574 C573 1.392 . S
C574 C575 1.385 . S
C574 C576 1.478 . S
C575 H569 0.930 . S
C575 C571 1.400 . S
C575 C574 1.385 . S
C576 C574 1.478 . S
C576 C578 1.381 . S
C576 C582 1.383 . S
C577 C573 1.495 . S
C577 H583 0.959 . S
C577 H584 0.961 . S
C577 H585 0.960 . S
C578 C576 1.381 . S
C578 C579 1.394 . S
C578 H586 0.930 . S
C579 C578 1.394 . S
C579 C580 1.383 . S
C579 H587 0.929 . S
C580 C579 1.383 . S
C580 C581 1.377 . S
C581 H565 0.930 . S
C581 C580 1.377 . S
C581 C582 1.379 . S
C582 H566 0.931 . S
C582 C576 1.383 . S
C582 C581 1.379 . S
H583 C577 0.959 . S
H584 C577 0.961 . S
H585 C577 0.960 . S
H586 C578 0.930 . S
H587 C579 0.929 . S
H588 C596 0.929 . S
H589 C598 0.930 1_556 S
H590 C600 0.930 . S
H591 C603 0.929 . S
H592 C606 0.930 . S
H593 C608 0.960 . S
H594 C608 0.960 . S
H595 C608 0.960 . S
C596 H588 0.929 . S
C596 C597 1.377 . S
C596 C598 1.384 . S
C597 C596 1.377 . S
C597 C603 1.390 . S
C598 H589 0.930 1_554 S
C598 C596 1.384 . S
C598 C599 1.372 1_554 S
C599 C598 1.372 1_556 S
C599 C600 1.400 . S
C599 C604 1.490 . S
C600 H590 0.930 . S
C600 C599 1.400 . S
C600 C603 1.386 1_556 S
H601 C617 0.930 . S
H602 C618 0.931 . S
C603 H591 0.929 . S
C603 C597 1.390 . S
C603 C600 1.386 1_554 S
C604 C599 1.490 . S
C604 C606 1.395 . S
C604 C607 1.403 . S
H605 C611 0.930 . S
C606 H592 0.930 . S
C606 C604 1.395 . S
C606 C609 1.403 . S
C607 C604 1.403 . S
C607 C608 1.524 . S
C607 C611 1.400 . S
C608 H593 0.960 . S
C608 H594 0.960 . S
C608 H595 0.960 . S
C608 C607 1.524 . S
C609 C606 1.403 . S
C609 C610 1.392 . S
C609 C613 1.495 . S
C610 C609 1.392 . S
C610 C611 1.385 . S
C610 C612 1.478 . S
C611 H605 0.930 . S
C611 C607 1.400 . S
C611 C610 1.385 . S
C612 C610 1.478 . S
C612 C614 1.381 . S
C612 C618 1.383 . S
C613 C609 1.495 . S
C613 H619 0.959 . S
C613 H620 0.961 . S
C613 H621 0.960 . S
C614 C612 1.381 . S
C614 C615 1.394 . S
C614 H622 0.930 . S
C615 C614 1.394 . S
C615 C616 1.383 . S
C615 H623 0.929 . S
C616 C615 1.383 . S
C616 C617 1.377 . S
C617 H601 0.930 . S
C617 C616 1.377 . S
C617 C618 1.379 . S
C618 H602 0.931 . S
C618 C612 1.383 . S
C618 C617 1.379 . S
H619 C613 0.959 . S
H620 C613 0.961 . S
H621 C613 0.960 . S
H622 C614 0.930 . S
H623 C615 0.929 . S
H624 C632 0.929 . S
H625 C634 0.930 . S
H626 C636 0.930 . S
H627 C639 0.929 . S
H628 C642 0.930 . S
H629 C644 0.960 . S
H630 C644 0.960 . S
H631 C644 0.960 . S
C632 H624 0.929 . S
C632 C633 1.377 . S
C632 C634 1.384 . S
C633 C632 1.377 . S
C633 C639 1.390 . S
C634 H625 0.930 . S
C634 C632 1.384 . S
C634 C635 1.372 . S
C635 C634 1.372 . S
C635 C636 1.400 . S
C635 C640 1.490 . S
C636 H626 0.930 . S
C636 C635 1.400 . S
C636 C639 1.386 . S
H637 C653 0.930 . S
H638 C654 0.931 . S
C639 H627 0.929 . S
C639 C633 1.390 . S
C639 C636 1.386 . S
C640 C635 1.490 . S
C640 C642 1.395 . S
C640 C643 1.403 . S
H641 C647 0.930 . S
C642 H628 0.930 . S
C642 C640 1.395 . S
C642 C645 1.403 1_556 S
C643 C640 1.403 . S
C643 C644 1.524 . S
C643 C647 1.400 1_556 S
C644 H629 0.960 . S
C644 H630 0.960 . S
C644 H631 0.960 . S
C644 C643 1.524 . S
C645 C642 1.403 1_554 S
C645 C646 1.392 . S
C645 C649 1.495 . S
C646 C645 1.392 . S
C646 C647 1.385 . S
C646 C648 1.478 . S
C647 H641 0.930 . S
C647 C643 1.400 1_554 S
C647 C646 1.385 . S
C648 C646 1.478 . S
C648 C650 1.381 . S
C648 C654 1.383 . S
C649 C645 1.495 . S
C649 H655 0.959 . S
C649 H656 0.961 . S
C649 H657 0.960 . S
C650 C648 1.381 . S
C650 C651 1.394 . S
C650 H658 0.930 . S
C651 C650 1.394 . S
C651 C652 1.383 . S
C651 H659 0.929 . S
C652 C651 1.383 . S
C652 C653 1.377 . S
C653 H637 0.930 . S
C653 C652 1.377 . S
C653 C654 1.379 . S
C654 H638 0.931 . S
C654 C648 1.383 . S
C654 C653 1.379 . S
H655 C649 0.959 . S
H656 C649 0.961 . S
H657 C649 0.960 . S
H658 C650 0.930 . S
H659 C651 0.929 . S
H660 C668 0.929 . S
H661 C670 0.930 . S
H662 C672 0.930 . S
H663 C675 0.929 . S
H664 C678 0.930 . S
H665 C680 0.960 . S
H666 C680 0.960 . S
H667 C680 0.960 . S
C668 H660 0.929 . S
C668 C669 1.377 . S
C668 C670 1.384 . S
C669 C668 1.377 . S
C669 C675 1.390 . S
C670 H661 0.930 . S
C670 C668 1.384 . S
C670 C671 1.372 . S
C671 C670 1.372 . S
C671 C672 1.400 . S
C671 C676 1.490 . S
C672 H662 0.930 . S
C672 C671 1.400 . S
C672 C675 1.386 . S
H673 C689 0.930 . S
H674 C690 0.931 1_554 S
C675 H663 0.929 . S
C675 C669 1.390 . S
C675 C672 1.386 . S
C676 C671 1.490 . S
C676 C678 1.395 . S
C676 C679 1.403 . S
H677 C683 0.930 . S
C678 H664 0.930 . S
C678 C676 1.395 . S
C678 C681 1.403 . S
C679 C676 1.403 . S
C679 C680 1.524 . S
C679 C683 1.400 . S
C680 H665 0.960 . S
C680 H666 0.960 . S
C680 H667 0.960 . S
C680 C679 1.524 . S
C681 C678 1.403 . S
C681 C682 1.392 . S
C681 C685 1.495 . S
C682 C681 1.392 . S
C682 C683 1.385 . S
C682 C684 1.478 . S
C683 H677 0.930 . S
C683 C679 1.400 . S
C683 C682 1.385 . S
C684 C682 1.478 . S
C684 C686 1.381 1_554 S
C684 C690 1.383 1_554 S
C685 C681 1.495 . S
C685 H691 0.959 . S
C685 H692 0.961 . S
C685 H693 0.960 . S
C686 C684 1.381 1_556 S
C686 C687 1.394 . S
C686 H694 0.930 . S
C687 C686 1.394 . S
C687 C688 1.383 . S
C687 H695 0.929 . S
C688 C687 1.383 . S
C688 C689 1.377 . S
C689 H673 0.930 . S
C689 C688 1.377 . S
C689 C690 1.379 . S
C690 H674 0.931 1_556 S
C690 C684 1.383 1_556 S
C690 C689 1.379 . S
H691 C685 0.959 . S
H692 C685 0.961 . S
H693 C685 0.960 . S
H694 C686 0.930 . S
H695 C687 0.929 . S
H696 C704 0.929 . S
H697 C706 0.930 . S
H698 C708 0.930 . S
H699 C711 0.929 . S
H700 C714 0.930 . S
H701 C716 0.960 . S
H702 C716 0.960 . S
H703 C716 0.960 . S
C704 H696 0.929 . S
C704 C705 1.377 1_554 S
C704 C706 1.384 . S
C705 C704 1.377 1_556 S
C705 C711 1.390 . S
C706 H697 0.930 . S
C706 C704 1.384 . S
C706 C707 1.370 1_554 S
C707 C706 1.370 1_556 S
C707 C708 1.403 . S
C707 C712 1.489 1_556 S
C708 H698 0.930 . S
C708 C707 1.403 . S
C708 C711 1.386 . S
H709 C725 0.930 . S
H710 C726 0.931 . S
C711 H699 0.929 . S
C711 C705 1.390 . S
C711 C708 1.386 . S
C712 C707 1.489 1_554 S
C712 C714 1.395 . S
C712 C715 1.403 1_554 S
H713 C719 0.930 . S
C714 H700 0.930 . S
C714 C712 1.395 . S
C714 C717 1.403 1_545 S
C715 C712 1.403 1_556 S
C715 C716 1.524 . S
C715 C719 1.400 1_545 S
C716 H701 0.960 . S
C716 H702 0.960 . S
C716 H703 0.960 . S
C716 C715 1.524 . S
C717 C714 1.403 1_565 S
C717 C718 1.392 . S
C717 C721 1.495 . S
C718 C717 1.392 . S
C718 C719 1.385 1_554 S
C718 C720 1.478 . S
C719 H713 0.930 . S
C719 C715 1.400 1_565 S
C719 C718 1.385 1_556 S
C720 C718 1.478 . S
C720 C722 1.381 . S
C720 C726 1.383 . S
C721 C717 1.495 . S
C721 H727 0.959 . S
C721 H728 0.961 . S
C721 H729 0.960 . S
C722 C720 1.381 . S
C722 C723 1.394 . S
C722 H730 0.930 . S
C723 C722 1.394 . S
C723 C724 1.383 . S
C723 H731 0.929 . S
C724 C723 1.383 . S
C724 C725 1.377 . S
C725 H709 0.930 . S
C725 C724 1.377 . S
C725 C726 1.379 . S
C726 H710 0.931 . S
C726 C720 1.383 . S
C726 C725 1.379 . S
H727 C721 0.959 . S
H728 C721 0.961 . S
H729 C721 0.960 . S
H730 C722 0.930 . S
H731 C723 0.929 . S
H732 C740 0.929 . S
H733 C742 0.930 . S
H734 C744 0.930 . S
H735 C747 0.929 . S
H736 C750 0.930 . S
H737 C752 0.960 . S
H738 C752 0.960 . S
H739 C752 0.960 . S
C740 H732 0.929 . S
C740 C741 1.377 . S
C740 C742 1.384 . S
C741 C740 1.377 . S
C741 C747 1.390 . S
C742 H733 0.930 . S
C742 C740 1.384 . S
C742 C743 1.372 . S
C743 C742 1.372 . S
C743 C744 1.400 . S
C743 C748 1.490 . S
C744 H734 0.930 . S
C744 C743 1.400 . S
C744 C747 1.386 . S
H745 C761 0.930 . S
H746 C762 0.931 . S
C747 H735 0.929 . S
C747 C741 1.390 . S
C747 C744 1.386 . S
C748 C743 1.490 . S
C748 C750 1.395 . S
C748 C751 1.403 . S
H749 C755 0.930 . S
C750 H736 0.930 . S
C750 C748 1.395 . S
C750 C753 1.403 . S
C751 C748 1.403 . S
C751 C752 1.524 . S
C751 C755 1.400 . S
C752 H737 0.960 . S
C752 H738 0.960 . S
C752 H739 0.960 . S
C752 C751 1.524 . S
C753 C750 1.403 . S
C753 C754 1.392 . S
C753 C757 1.495 . S
C754 C753 1.392 . S
C754 C755 1.385 . S
C754 C756 1.478 . S
C755 H749 0.930 . S
C755 C751 1.400 . S
C755 C754 1.385 . S
C756 C754 1.478 . S
C756 C758 1.381 . S
C756 C762 1.383 . S
C757 C753 1.495 . S
C757 H763 0.959 . S
C757 H764 0.961 . S
C757 H765 0.960 . S
C758 C756 1.381 . S
C758 C759 1.394 . S
C758 H766 0.930 . S
C759 C758 1.394 . S
C759 C760 1.383 . S
C759 H767 0.929 . S
C760 C759 1.383 . S
C760 C761 1.377 . S
C761 H745 0.930 . S
C761 C760 1.377 . S
C761 C762 1.379 . S
C762 H746 0.931 . S
C762 C756 1.383 . S
C762 C761 1.379 . S
H763 C757 0.959 . S
H764 C757 0.961 . S
H765 C757 0.960 . S
H766 C758 0.930 . S
H767 C759 0.929 . S
H768 C776 0.929 . S
H769 C778 0.930 . S
H770 C780 0.930 . S
H771 C783 0.929 . S
H772 C786 0.930 . S
H773 C788 0.960 . S
H774 C788 0.960 . S
H775 C788 0.960 . S
C776 H768 0.929 . S
C776 C777 1.377 . S
C776 C778 1.384 . S
C777 C776 1.377 . S
C777 C783 1.390 . S
C778 H769 0.930 . S
C778 C776 1.384 . S
C778 C779 1.372 . S
C779 C778 1.372 . S
C779 C780 1.400 . S
C779 C784 1.490 . S
C780 H770 0.930 . S
C780 C779 1.400 . S
C780 C783 1.386 . S
H781 C797 0.930 . S
H782 C798 0.931 . S
C783 H771 0.929 . S
C783 C777 1.390 . S
C783 C780 1.386 . S
C784 C779 1.490 . S
C784 C786 1.395 . S
C784 C787 1.403 . S
H785 C791 0.930 . S
C786 H772 0.930 . S
C786 C784 1.395 . S
C786 C789 1.403 1_455 S
C787 C784 1.403 . S
C787 C788 1.524 . S
C787 C791 1.400 1_455 S
C788 H773 0.960 . S
C788 H774 0.960 . S
C788 H775 0.960 . S
C788 C787 1.524 . S
C789 C786 1.403 1_655 S
C789 C790 1.392 . S
C789 C793 1.495 . S
C790 C789 1.392 . S
C790 C791 1.385 . S
C790 C792 1.478 . S
C791 H785 0.930 . S
C791 C787 1.400 1_655 S
C791 C790 1.385 . S
C792 C790 1.478 . S
C792 C794 1.381 . S
C792 C798 1.383 . S
C793 C789 1.495 . S
C793 H799 0.959 . S
C793 H800 0.961 . S
C793 H801 0.960 . S
C794 C792 1.381 . S
C794 C795 1.394 . S
C794 H802 0.930 . S
C795 C794 1.394 . S
C795 C796 1.383 . S
C795 H803 0.929 . S
C796 C795 1.383 . S
C796 C797 1.377 . S
C797 H781 0.930 . S
C797 C796 1.377 . S
C797 C798 1.379 . S
C798 H782 0.931 . S
C798 C792 1.383 . S
C798 C797 1.379 . S
H799 C793 0.959 . S
H800 C793 0.961 . S
H801 C793 0.960 . S
H802 C794 0.930 . S
H803 C795 0.929 . S
H804 C812 0.929 . S
H805 C814 0.930 . S
H806 C816 0.930 . S
H807 C819 0.929 . S
H808 C822 0.930 . S
H809 C824 0.960 . S
H810 C824 0.960 . S
H811 C824 0.960 . S
C812 H804 0.929 . S
C812 C813 1.377 . S
C812 C814 1.384 . S
C813 C812 1.377 . S
C813 C819 1.390 . S
C814 H805 0.930 . S
C814 C812 1.384 . S
C814 C815 1.372 . S
C815 C814 1.372 . S
C815 C816 1.400 . S
C815 C820 1.490 . S
C816 H806 0.930 . S
C816 C815 1.400 . S
C816 C819 1.386 . S
H817 C833 0.930 . S
H818 C834 0.931 . S
C819 H807 0.929 . S
C819 C813 1.390 . S
C819 C816 1.386 . S
C820 C815 1.490 . S
C820 C822 1.395 . S
C820 C823 1.403 . S
H821 C827 0.930 . S
C822 H808 0.930 . S
C822 C820 1.395 . S
C822 C825 1.403 1_565 S
C823 C820 1.403 . S
C823 C824 1.524 . S
C823 C827 1.400 1_565 S
C824 H809 0.960 . S
C824 H810 0.960 . S
C824 H811 0.960 . S
C824 C823 1.524 . S
C825 C822 1.403 1_545 S
C825 C826 1.392 . S
C825 C829 1.495 . S
C826 C825 1.392 . S
C826 C827 1.385 . S
C826 C828 1.478 . S
C827 H821 0.930 . S
C827 C823 1.400 1_545 S
C827 C826 1.385 . S
C828 C826 1.478 . S
C828 C830 1.381 . S
C828 C834 1.383 . S
C829 C825 1.495 . S
C829 H835 0.959 . S
C829 H836 0.961 . S
C829 H837 0.960 . S
C830 C828 1.381 . S
C830 C831 1.394 . S
C830 H838 0.930 . S
C831 C830 1.394 . S
C831 C832 1.383 . S
C831 H839 0.929 . S
C832 C831 1.383 . S
C832 C833 1.377 . S
C833 H817 0.930 . S
C833 C832 1.377 . S
C833 C834 1.379 . S
C834 H818 0.931 . S
C834 C828 1.383 . S
C834 C833 1.379 . S
H835 C829 0.959 . S
H836 C829 0.961 . S
H837 C829 0.960 . S
H838 C830 0.930 . S
H839 C831 0.929 . S
H840 C848 0.929 . S
H841 C850 0.930 . S
H842 C852 0.930 . S
H843 C855 0.929 . S
H844 C858 0.930 . S
H845 C860 0.960 . S
H846 C860 0.960 . S
H847 C860 0.960 . S
C848 H840 0.929 . S
C848 C849 1.377 . S
C848 C850 1.384 . S
C849 C848 1.377 . S
C849 C855 1.390 . S
C850 H841 0.930 . S
C850 C848 1.384 . S
C850 C851 1.372 . S
C851 C850 1.372 . S
C851 C852 1.400 . S
C851 C856 1.490 . S
C852 H842 0.930 . S
C852 C851 1.400 . S
C852 C855 1.386 . S
H853 C869 0.930 . S
H854 C870 0.931 . S
C855 H843 0.929 . S
C855 C849 1.390 . S
C855 C852 1.386 . S
C856 C851 1.490 . S
C856 C858 1.395 . S
C856 C859 1.403 . S
H857 C863 0.930 . S
C858 H844 0.930 . S
C858 C856 1.395 . S
C858 C861 1.403 . S
C859 C856 1.403 . S
C859 C860 1.524 . S
C859 C863 1.400 . S
C860 H845 0.960 . S
C860 H846 0.960 . S
C860 H847 0.960 . S
C860 C859 1.524 . S
C861 C858 1.403 . S
C861 C862 1.392 . S
C861 C865 1.495 . S
C862 C861 1.392 . S
C862 C863 1.385 . S
C862 C864 1.478 . S
C863 H857 0.930 . S
C863 C859 1.400 . S
C863 C862 1.385 . S
C864 C862 1.478 . S
C864 C866 1.381 . S
C864 C870 1.383 . S
C865 C861 1.495 . S
C865 H871 0.959 . S
C865 H872 0.961 . S
C865 H873 0.960 . S
C866 C864 1.381 . S
C866 C867 1.394 . S
C866 H874 0.930 . S
C867 C866 1.394 . S
C867 C868 1.383 . S
C867 H875 0.929 . S
C868 C867 1.383 . S
C868 C869 1.377 . S
C869 H853 0.930 . S
C869 C868 1.377 . S
C869 C870 1.379 . S
C870 H854 0.931 . S
C870 C864 1.383 . S
C870 C869 1.379 . S
H871 C865 0.959 . S
H872 C865 0.961 . S
H873 C865 0.960 . S
H874 C866 0.930 . S
H875 C867 0.929 . S
H876 C884 0.929 . S
H877 C886 0.930 . S
H878 C888 0.930 . S
H879 C891 0.929 . S
H880 C894 0.930 . S
H881 C896 0.960 . S
H882 C896 0.960 . S
H883 C896 0.960 . S
C884 H876 0.929 . S
C884 C885 1.377 . S
C884 C886 1.384 . S
C885 C884 1.377 . S
C885 C891 1.390 . S
C886 H877 0.930 . S
C886 C884 1.384 . S
C886 C887 1.372 . S
C887 C886 1.372 . S
C887 C888 1.400 . S
C887 C892 1.490 . S
C888 H878 0.930 . S
C888 C887 1.400 . S
C888 C891 1.386 . S
H889 C905 0.930 . S
H890 C906 0.931 . S
C891 H879 0.929 . S
C891 C885 1.390 . S
C891 C888 1.386 . S
C892 C887 1.490 . S
C892 C894 1.395 . S
C892 C895 1.403 . S
H893 C899 0.930 . S
C894 H880 0.930 . S
C894 C892 1.395 . S
C894 C897 1.403 1_455 S
C895 C892 1.403 . S
C895 C896 1.524 . S
C895 C899 1.400 1_455 S
C896 H881 0.960 . S
C896 H882 0.960 . S
C896 H883 0.960 . S
C896 C895 1.524 . S
C897 C894 1.403 1_655 S
C897 C898 1.392 . S
C897 C901 1.495 . S
C898 C897 1.392 . S
C898 C899 1.385 . S
C898 C900 1.478 . S
C899 H893 0.930 . S
C899 C895 1.400 1_655 S
C899 C898 1.385 . S
C900 C898 1.478 . S
C900 C902 1.381 . S
C900 C906 1.383 . S
C901 C897 1.495 . S
C901 H907 0.959 . S
C901 H908 0.961 . S
C901 H909 0.960 . S
C902 C900 1.381 . S
C902 C903 1.394 . S
C902 H910 0.930 . S
C903 C902 1.394 . S
C903 C904 1.383 . S
C903 H911 0.929 . S
C904 C903 1.383 . S
C904 C905 1.377 . S
C905 H889 0.930 . S
C905 C904 1.377 . S
C905 C906 1.379 . S
C906 H890 0.931 . S
C906 C900 1.383 . S
C906 C905 1.379 . S
H907 C901 0.959 . S
H908 C901 0.961 . S
H909 C901 0.960 . S
H910 C902 0.930 . S
H911 C903 0.929 . S
H912 C920 0.929 . S
H913 C922 0.930 . S
H914 C924 0.930 . S
H915 C927 0.929 . S
H916 C930 0.930 . S
H917 C932 0.960 . S
H918 C932 0.960 . S
H919 C932 0.960 . S
C920 H912 0.929 . S
C920 C921 1.377 . S
C920 C922 1.384 . S
C921 C920 1.377 . S
C921 C927 1.390 . S
C922 H913 0.930 . S
C922 C920 1.384 . S
C922 C923 1.372 . S
C923 C922 1.372 . S
C923 C924 1.400 . S
C923 C928 1.490 . S
C924 H914 0.930 . S
C924 C923 1.400 . S
C924 C927 1.386 . S
H925 C941 0.930 . S
H926 C942 0.931 . S
C927 H915 0.929 . S
C927 C921 1.390 . S
C927 C924 1.386 . S
C928 C923 1.490 . S
C928 C930 1.395 . S
C928 C931 1.403 . S
H929 C935 0.930 . S
C930 H916 0.930 . S
C930 C928 1.395 . S
C930 C933 1.403 . S
C931 C928 1.403 . S
C931 C932 1.524 . S
C931 C935 1.400 . S
C932 H917 0.960 . S
C932 H918 0.960 . S
C932 H919 0.960 . S
C932 C931 1.524 . S
C933 C930 1.403 . S
C933 C934 1.392 . S
C933 C937 1.495 . S
C934 C933 1.392 . S
C934 C935 1.385 . S
C934 C936 1.478 . S
C935 H929 0.930 . S
C935 C931 1.400 . S
C935 C934 1.385 . S
C936 C934 1.478 . S
C936 C938 1.381 . S
C936 C942 1.383 . S
C937 C933 1.495 . S
C937 H943 0.959 . S
C937 H944 0.961 . S
C937 H945 0.960 . S
C938 C936 1.381 . S
C938 C939 1.394 . S
C938 H946 0.930 . S
C939 C938 1.394 . S
C939 C940 1.383 . S
C939 H947 0.929 . S
C940 C939 1.383 . S
C940 C941 1.377 . S
C941 H925 0.930 . S
C941 C940 1.377 . S
C941 C942 1.379 . S
C942 H926 0.931 . S
C942 C936 1.383 . S
C942 C941 1.379 . S
H943 C937 0.959 . S
H944 C937 0.961 . S
H945 C937 0.960 . S
H946 C938 0.930 . S
H947 C939 0.929 . S
H948 C956 0.929 . S
H949 C958 0.930 . S
H950 C960 0.930 . S
H951 C963 0.929 . S
H952 C966 0.930 . S
H953 C968 0.960 . S
H954 C968 0.960 . S
H955 C968 0.960 . S
C956 H948 0.929 . S
C956 C957 1.377 . S
C956 C958 1.384 1_554 S
C957 C956 1.377 . S
C957 C963 1.390 . S
C958 H949 0.930 . S
C958 C956 1.384 1_556 S
C958 C959 1.372 . S
C959 C958 1.372 . S
C959 C960 1.400 1_556 S
C959 C964 1.490 . S
C960 H950 0.930 . S
C960 C959 1.400 1_554 S
C960 C963 1.386 . S
H961 C977 0.930 . S
H962 C978 0.931 . S
C963 H951 0.929 . S
C963 C957 1.390 . S
C963 C960 1.386 . S
C964 C959 1.490 . S
C964 C966 1.395 . S
C964 C967 1.403 . S
H965 C971 0.930 . S
C966 H952 0.930 . S
C966 C964 1.395 . S
C966 C969 1.403 . S
C967 C964 1.403 . S
C967 C968 1.524 1_556 S
C967 C971 1.400 . S
C968 H953 0.960 . S
C968 H954 0.960 . S
C968 H955 0.960 . S
C968 C967 1.524 1_554 S
C969 C966 1.403 . S
C969 C970 1.392 . S
C969 C973 1.495 . S
C970 C969 1.392 . S
C970 C971 1.385 . S
C970 C972 1.478 . S
C971 H965 0.930 . S
C971 C967 1.400 . S
C971 C970 1.385 . S
C972 C970 1.478 . S
C972 C974 1.381 . S
C972 C978 1.383 . S
C973 C969 1.495 . S
C973 H979 0.959 . S
C973 H980 0.961 . S
C973 H981 0.960 . S
C974 C972 1.381 . S
C974 C975 1.394 . S
C974 H982 0.930 . S
C975 C974 1.394 . S
C975 C976 1.383 . S
C975 H983 0.929 . S
C976 C975 1.383 . S
C976 C977 1.377 . S
C977 H961 0.930 . S
C977 C976 1.377 . S
C977 C978 1.379 . S
C978 H962 0.931 . S
C978 C972 1.383 . S
C978 C977 1.379 . S
H979 C973 0.959 . S
H980 C973 0.961 . S
H981 C973 0.960 . S
H982 C974 0.930 . S
H983 C975 0.929 . S
H984 C992 0.929 . S
H985 C994 0.930 . S
H986 C996 0.930 . S
H987 C999 0.929 . S
H988 C1002 0.930 . S
H989 C1004 0.960 . S
H990 C1004 0.960 . S
H991 C1004 0.960 . S
C992 H984 0.929 . S
C992 C993 1.377 1_554 S
C992 C994 1.384 . S
C993 C992 1.377 1_556 S
C993 C999 1.390 . S
C994 H985 0.930 . S
C994 C992 1.384 . S
C994 C995 1.372 . S
C995 C994 1.372 . S
C995 C996 1.400 1_554 S
C995 C1000 1.490 . S
C996 H986 0.930 . S
C996 C995 1.400 1_556 S
C996 C999 1.386 . S
H997 C1013 0.930 . S
H998 C1014 0.931 . S
C999 H987 0.929 . S
C999 C993 1.390 . S
C999 C996 1.386 . S
C1000 C995 1.490 . S
C1000 C1002 1.395 . S
C1000 C1003 1.403 . S
H1001 C1007 0.930 . S
C1002 H988 0.930 . S
C1002 C1000 1.395 . S
C1002 C1005 1.403 . S
C1003 C1000 1.403 . S
C1003 C1004 1.524 1_554 S
C1003 C1007 1.400 . S
C1004 H989 0.960 . S
C1004 H990 0.960 . S
C1004 H991 0.960 . S
C1004 C1003 1.524 1_556 S
C1005 C1002 1.403 . S
C1005 C1006 1.392 . S
C1005 C1009 1.495 . S
C1006 C1005 1.392 . S
C1006 C1007 1.385 . S
C1006 C1008 1.478 . S
C1007 H1001 0.930 . S
C1007 C1003 1.400 . S
C1007 C1006 1.385 . S
C1008 C1006 1.478 . S
C1008 C1010 1.381 . S
C1008 C1014 1.383 . S
C1009 C1005 1.495 . S
C1009 H1015 0.959 . S
C1009 H1016 0.961 . S
C1009 H1017 0.960 . S
C1010 C1008 1.381 . S
C1010 C1011 1.394 . S
C1010 H1018 0.930 . S
C1011 C1010 1.394 . S
C1011 C1012 1.383 . S
C1011 H1019 0.929 . S
C1012 C1011 1.383 . S
C1012 C1013 1.377 . S
C1013 H997 0.930 . S
C1013 C1012 1.377 . S
C1013 C1014 1.379 . S
C1014 H998 0.931 . S
C1014 C1008 1.383 . S
C1014 C1013 1.379 . S
H1015 C1009 0.959 . S
H1016 C1009 0.961 . S
H1017 C1009 0.960 . S
H1018 C1010 0.930 . S
H1019 C1011 0.929 . S
H1020 C1028 0.929 . S
H1021 C1030 0.930 . S
H1022 C1032 0.930 . S
H1023 C1035 0.929 . S
H1024 C1038 0.930 . S
H1025 C1040 0.960 . S
H1026 C1040 0.960 . S
H1027 C1040 0.960 . S
C1028 H1020 0.929 . S
C1028 C1029 1.377 . S
C1028 C1030 1.384 . S
C1029 C1028 1.377 . S
C1029 C1035 1.390 . S
C1030 H1021 0.930 . S
C1030 C1028 1.384 . S
C1030 C1031 1.372 . S
C1031 C1030 1.372 . S
C1031 C1032 1.400 . S
C1031 C1036 1.490 . S
C1032 H1022 0.930 . S
C1032 C1031 1.400 . S
C1032 C1035 1.386 . S
H1033 C1049 0.930 . S
H1034 C1050 0.931 . S
C1035 H1023 0.929 . S
C1035 C1029 1.390 . S
C1035 C1032 1.386 . S
C1036 C1031 1.490 . S
C1036 C1038 1.395 . S
C1036 C1039 1.403 . S
H1037 C1043 0.930 . S
C1038 H1024 0.930 . S
C1038 C1036 1.395 . S
C1038 C1041 1.403 . S
C1039 C1036 1.403 . S
C1039 C1040 1.524 . S
C1039 C1043 1.400 . S
C1040 H1025 0.960 . S
C1040 H1026 0.960 . S
C1040 H1027 0.960 . S
C1040 C1039 1.524 . S
C1041 C1038 1.403 . S
C1041 C1042 1.392 . S
C1041 C1045 1.495 . S
C1042 C1041 1.392 . S
C1042 C1043 1.385 . S
C1042 C1044 1.478 . S
C1043 H1037 0.930 . S
C1043 C1039 1.400 . S
C1043 C1042 1.385 . S
C1044 C1042 1.478 . S
C1044 C1046 1.381 . S
C1044 C1050 1.383 . S
C1045 C1041 1.495 . S
C1045 H1051 0.959 . S
C1045 H1052 0.961 . S
C1045 H1053 0.960 . S
C1046 C1044 1.381 . S
C1046 C1047 1.394 . S
C1046 H1054 0.930 . S
C1047 C1046 1.394 . S
C1047 C1048 1.383 . S
C1047 H1055 0.929 . S
C1048 C1047 1.383 . S
C1048 C1049 1.377 . S
C1049 H1033 0.930 . S
C1049 C1048 1.377 . S
C1049 C1050 1.379 . S
C1050 H1034 0.931 . S
C1050 C1044 1.383 . S
C1050 C1049 1.379 . S
H1051 C1045 0.959 . S
H1052 C1045 0.961 . S
H1053 C1045 0.960 . S
H1054 C1046 0.930 . S
H1055 C1047 0.929 . S
H1056 C1064 0.929 . S
H1057 C1066 0.930 . S
H1058 C1068 0.930 . S
H1059 C1071 0.929 . S
H1060 C1074 0.930 . S
H1061 C1076 0.960 . S
H1062 C1076 0.960 . S
H1063 C1076 0.960 . S
C1064 H1056 0.929 . S
C1064 C1065 1.377 . S
C1064 C1066 1.384 . S
C1065 C1064 1.377 . S
C1065 C1071 1.390 . S
C1066 H1057 0.930 . S
C1066 C1064 1.384 . S
C1066 C1067 1.372 . S
C1067 C1066 1.372 . S
C1067 C1068 1.400 . S
C1067 C1072 1.490 . S
C1068 H1058 0.930 . S
C1068 C1067 1.400 . S
C1068 C1071 1.386 . S
H1069 C1085 0.930 . S
H1070 C1086 0.931 . S
C1071 H1059 0.929 . S
C1071 C1065 1.390 . S
C1071 C1068 1.386 . S
C1072 C1067 1.490 . S
C1072 C1074 1.395 . S
C1072 C1075 1.403 . S
H1073 C1079 0.930 . S
C1074 H1060 0.930 . S
C1074 C1072 1.395 . S
C1074 C1077 1.403 . S
C1075 C1072 1.403 . S
C1075 C1076 1.524 . S
C1075 C1079 1.400 . S
C1076 H1061 0.960 . S
C1076 H1062 0.960 . S
C1076 H1063 0.960 . S
C1076 C1075 1.524 . S
C1077 C1074 1.403 . S
C1077 C1078 1.392 . S
C1077 C1081 1.495 . S
C1078 C1077 1.392 . S
C1078 C1079 1.385 . S
C1078 C1080 1.478 . S
C1079 H1073 0.930 . S
C1079 C1075 1.400 . S
C1079 C1078 1.385 . S
C1080 C1078 1.478 . S
C1080 C1082 1.381 . S
C1080 C1086 1.383 . S
C1081 C1077 1.495 . S
C1081 H1087 0.959 . S
C1081 H1088 0.961 . S
C1081 H1089 0.960 . S
C1082 C1080 1.381 . S
C1082 C1083 1.394 . S
C1082 H1090 0.930 . S
C1083 C1082 1.394 . S
C1083 C1084 1.383 . S
C1083 H1091 0.929 . S
C1084 C1083 1.383 . S
C1084 C1085 1.377 . S
C1085 H1069 0.930 . S
C1085 C1084 1.377 . S
C1085 C1086 1.379 . S
C1086 H1070 0.931 . S
C1086 C1080 1.383 . S
C1086 C1085 1.379 . S
H1087 C1081 0.959 . S
H1088 C1081 0.961 . S
H1089 C1081 0.960 . S
H1090 C1082 0.930 . S
H1091 C1083 0.929 . S
H1092 C1100 0.929 . S
H1093 C1102 0.930 . S
H1094 C1104 0.930 . S
H1095 C1107 0.929 . S
H1096 C1110 0.930 . S
H1097 C1112 0.960 . S
H1098 C1112 0.960 . S
H1099 C1112 0.960 . S
C1100 H1092 0.929 . S
C1100 C1101 1.377 . S
C1100 C1102 1.384 . S
C1101 C1100 1.377 . S
C1101 C1107 1.390 . S
C1102 H1093 0.930 . S
C1102 C1100 1.384 . S
C1102 C1103 1.372 . S
C1103 C1102 1.372 . S
C1103 C1104 1.400 . S
C1103 C1108 1.490 . S
C1104 H1094 0.930 . S
C1104 C1103 1.400 . S
C1104 C1107 1.386 . S
H1105 C1121 0.930 . S
H1106 C1122 0.931 . S
C1107 H1095 0.929 . S
C1107 C1101 1.390 . S
C1107 C1104 1.386 . S
C1108 C1103 1.490 . S
C1108 C1110 1.395 . S
C1108 C1111 1.403 . S
H1109 C1115 0.930 . S
C1110 H1096 0.930 . S
C1110 C1108 1.395 . S
C1110 C1113 1.403 . S
C1111 C1108 1.403 . S
C1111 C1112 1.524 . S
C1111 C1115 1.400 . S
C1112 H1097 0.960 . S
C1112 H1098 0.960 . S
C1112 H1099 0.960 . S
C1112 C1111 1.524 . S
C1113 C1110 1.403 . S
C1113 C1114 1.392 . S
C1113 C1117 1.495 . S
C1114 C1113 1.392 . S
C1114 C1115 1.385 . S
C1114 C1116 1.478 . S
C1115 H1109 0.930 . S
C1115 C1111 1.400 . S
C1115 C1114 1.385 . S
C1116 C1114 1.478 . S
C1116 C1118 1.381 . S
C1116 C1122 1.383 . S
C1117 C1113 1.495 . S
C1117 H1123 0.959 . S
C1117 H1124 0.961 . S
C1117 H1125 0.960 . S
C1118 C1116 1.381 . S
C1118 C1119 1.394 . S
C1118 H1126 0.930 . S
C1119 C1118 1.394 . S
C1119 C1120 1.383 . S
C1119 H1127 0.929 . S
C1120 C1119 1.383 . S
C1120 C1121 1.377 . S
C1121 H1105 0.930 . S
C1121 C1120 1.377 . S
C1121 C1122 1.379 . S
C1122 H1106 0.931 . S
C1122 C1116 1.383 . S
C1122 C1121 1.379 . S
H1123 C1117 0.959 . S
H1124 C1117 0.961 . S
H1125 C1117 0.960 . S
H1126 C1118 0.930 . S
H1127 C1119 0.929 . S
H1128 C1136 0.929 1_556 S
H1129 C1138 0.930 1_556 S
H1130 C1140 0.930 . S
H1131 C1143 0.929 . S
H1132 C1146 0.930 . S
H1133 C1148 0.960 . S
H1134 C1148 0.960 . S
H1135 C1148 0.960 . S
C1136 H1128 0.929 1_554 S
C1136 C1137 1.377 . S
C1136 C1138 1.384 . S
C1137 C1136 1.377 . S
C1137 C1143 1.390 . S
C1138 H1129 0.930 1_554 S
C1138 C1136 1.384 . S
C1138 C1139 1.372 . S
C1139 C1138 1.372 . S
C1139 C1140 1.400 . S
C1139 C1144 1.490 . S
C1140 H1130 0.930 . S
C1140 C1139 1.400 . S
C1140 C1143 1.386 . S
H1141 C1157 0.930 . S
H1142 C1158 0.931 . S
C1143 H1131 0.929 . S
C1143 C1137 1.390 . S
C1143 C1140 1.386 . S
C1144 C1139 1.490 . S
C1144 C1146 1.395 . S
C1144 C1147 1.403 . S
H1145 C1151 0.930 . S
C1146 H1132 0.930 . S
C1146 C1144 1.395 . S
C1146 C1149 1.403 . S
C1147 C1144 1.403 . S
C1147 C1148 1.524 . S
C1147 C1151 1.400 . S
C1148 H1133 0.960 . S
C1148 H1134 0.960 . S
C1148 H1135 0.960 . S
C1148 C1147 1.524 . S
C1149 C1146 1.403 . S
C1149 C1150 1.392 . S
C1149 C1153 1.495 . S
C1150 C1149 1.392 . S
C1150 C1151 1.385 . S
C1150 C1152 1.478 . S
C1151 H1145 0.930 . S
C1151 C1147 1.400 . S
C1151 C1150 1.385 . S
C1152 C1150 1.478 . S
C1152 C1154 1.381 . S
C1152 C1158 1.383 . S
C1153 C1149 1.495 . S
C1153 H1159 0.959 . S
C1153 H1160 0.961 . S
C1153 H1161 0.960 . S
C1154 C1152 1.381 . S
C1154 C1155 1.394 . S
C1154 H1162 0.930 . S
C1155 C1154 1.394 . S
C1155 C1156 1.383 . S
C1155 H1163 0.929 . S
C1156 C1155 1.383 . S
C1156 C1157 1.377 . S
C1157 H1141 0.930 . S
C1157 C1156 1.377 . S
C1157 C1158 1.379 . S
C1158 H1142 0.931 . S
C1158 C1152 1.383 . S
C1158 C1157 1.379 . S
H1159 C1153 0.959 . S
H1160 C1153 0.961 . S
H1161 C1153 0.960 . S
H1162 C1154 0.930 . S
H1163 C1155 0.929 . S
H1164 C1172 0.929 . S
H1165 C1174 0.930 . S
H1166 C1176 0.930 . S
H1167 C1179 0.929 . S
H1168 C1182 0.930 . S
H1169 C1184 0.960 . S
H1170 C1184 0.960 . S
H1171 C1184 0.960 . S
C1172 H1164 0.929 . S
C1172 C1173 1.377 . S
C1172 C1174 1.384 . S
C1173 C1172 1.377 . S
C1173 C1179 1.390 . S
C1174 H1165 0.930 . S
C1174 C1172 1.384 . S
C1174 C1175 1.372 . S
C1175 C1174 1.372 . S
C1175 C1176 1.400 . S
C1175 C1180 1.490 . S
C1176 H1166 0.930 . S
C1176 C1175 1.400 . S
C1176 C1179 1.386 . S
H1177 C1193 0.930 . S
H1178 C1194 0.931 . S
C1179 H1167 0.929 . S
C1179 C1173 1.390 . S
C1179 C1176 1.386 . S
C1180 C1175 1.490 . S
C1180 C1182 1.395 . S
C1180 C1183 1.403 . S
H1181 C1187 0.930 . S
C1182 H1168 0.930 . S
C1182 C1180 1.395 . S
C1182 C1185 1.403 . S
C1183 C1180 1.403 . S
C1183 C1184 1.524 . S
C1183 C1187 1.400 . S
C1184 H1169 0.960 . S
C1184 H1170 0.960 . S
C1184 H1171 0.960 . S
C1184 C1183 1.524 . S
C1185 C1182 1.403 . S
C1185 C1186 1.392 . S
C1185 C1189 1.495 . S
C1186 C1185 1.392 . S
C1186 C1187 1.385 . S
C1186 C1188 1.478 . S
C1187 H1181 0.930 . S
C1187 C1183 1.400 . S
C1187 C1186 1.385 . S
C1188 C1186 1.478 . S
C1188 C1190 1.381 . S
C1188 C1194 1.383 . S
C1189 C1185 1.495 . S
C1189 H1195 0.959 . S
C1189 H1196 0.961 . S
C1189 H1197 0.960 . S
C1190 C1188 1.381 . S
C1190 C1191 1.394 . S
C1190 H1198 0.930 . S
C1191 C1190 1.394 . S
C1191 C1192 1.383 . S
C1191 H1199 0.929 . S
C1192 C1191 1.383 . S
C1192 C1193 1.377 . S
C1193 H1177 0.930 . S
C1193 C1192 1.377 . S
C1193 C1194 1.379 . S
C1194 H1178 0.931 . S
C1194 C1188 1.383 . S
C1194 C1193 1.379 . S
H1195 C1189 0.959 . S
H1196 C1189 0.961 . S
H1197 C1189 0.960 . S
H1198 C1190 0.930 . S
H1199 C1191 0.929 . S
H1200 C1208 0.929 . S
H1201 C1210 0.930 . S
H1202 C1212 0.930 . S
H1203 C1215 0.929 . S
H1204 C1218 0.930 . S
H1205 C1220 0.960 . S
H1206 C1220 0.960 . S
H1207 C1220 0.960 . S
C1208 H1200 0.929 . S
C1208 C1209 1.377 . S
C1208 C1210 1.384 . S
C1209 C1208 1.377 . S
C1209 C1215 1.390 . S
C1210 H1201 0.930 . S
C1210 C1208 1.384 . S
C1210 C1211 1.372 . S
C1211 C1210 1.372 . S
C1211 C1212 1.400 . S
C1211 C1216 1.490 . S
C1212 H1202 0.930 . S
C1212 C1211 1.400 . S
C1212 C1215 1.386 . S
H1213 C1229 0.930 . S
H1214 C1230 0.931 . S
C1215 H1203 0.929 . S
C1215 C1209 1.390 . S
C1215 C1212 1.386 . S
C1216 C1211 1.490 . S
C1216 C1218 1.395 . S
C1216 C1219 1.403 . S
H1217 C1223 0.930 . S
C1218 H1204 0.930 . S
C1218 C1216 1.395 . S
C1218 C1221 1.403 . S
C1219 C1216 1.403 . S
C1219 C1220 1.524 . S
C1219 C1223 1.400 . S
C1220 H1205 0.960 . S
C1220 H1206 0.960 . S
C1220 H1207 0.960 . S
C1220 C1219 1.524 . S
C1221 C1218 1.403 . S
C1221 C1222 1.392 . S
C1221 C1225 1.495 . S
C1222 C1221 1.392 . S
C1222 C1223 1.385 . S
C1222 C1224 1.478 . S
C1223 H1217 0.930 . S
C1223 C1219 1.400 . S
C1223 C1222 1.385 . S
C1224 C1222 1.478 . S
C1224 C1226 1.381 . S
C1224 C1230 1.383 . S
C1225 C1221 1.495 . S
C1225 H1231 0.959 . S
C1225 H1232 0.961 . S
C1225 H1233 0.960 . S
C1226 C1224 1.381 . S
C1226 C1227 1.394 . S
C1226 H1234 0.930 . S
C1227 C1226 1.394 . S
C1227 C1228 1.383 . S
C1227 H1235 0.929 . S
C1228 C1227 1.383 . S
C1228 C1229 1.377 . S
C1229 H1213 0.930 . S
C1229 C1228 1.377 . S
C1229 C1230 1.379 . S
C1230 H1214 0.931 . S
C1230 C1224 1.383 . S
C1230 C1229 1.379 . S
H1231 C1225 0.959 . S
H1232 C1225 0.961 . S
H1233 C1225 0.960 . S
H1234 C1226 0.930 . S
H1235 C1227 0.929 . S
H1236 C1244 0.929 . S
H1237 C1246 0.930 . S
H1238 C1248 0.930 . S
H1239 C1251 0.929 . S
H1240 C1254 0.930 . S
H1241 C1256 0.960 . S
H1242 C1256 0.960 . S
H1243 C1256 0.960 . S
C1244 H1236 0.929 . S
C1244 C1245 1.377 . S
C1244 C1246 1.384 . S
C1245 C1244 1.377 . S
C1245 C1251 1.390 . S
C1246 H1237 0.930 . S
C1246 C1244 1.384 . S
C1246 C1247 1.372 . S
C1247 C1246 1.372 . S
C1247 C1248 1.400 . S
C1247 C1252 1.490 . S
C1248 H1238 0.930 . S
C1248 C1247 1.400 . S
C1248 C1251 1.386 . S
H1249 C1265 0.930 . S
H1250 C1266 0.931 . S
C1251 H1239 0.929 . S
C1251 C1245 1.390 . S
C1251 C1248 1.386 . S
C1252 C1247 1.490 . S
C1252 C1254 1.395 . S
C1252 C1255 1.403 . S
H1253 C1259 0.930 . S
C1254 H1240 0.930 . S
C1254 C1252 1.395 . S
C1254 C1257 1.403 . S
C1255 C1252 1.403 . S
C1255 C1256 1.524 . S
C1255 C1259 1.400 . S
C1256 H1241 0.960 . S
C1256 H1242 0.960 . S
C1256 H1243 0.960 . S
C1256 C1255 1.524 . S
C1257 C1254 1.403 . S
C1257 C1258 1.392 . S
C1257 C1261 1.495 . S
C1258 C1257 1.392 . S
C1258 C1259 1.385 . S
C1258 C1260 1.478 . S
C1259 H1253 0.930 . S
C1259 C1255 1.400 . S
C1259 C1258 1.385 . S
C1260 C1258 1.478 . S
C1260 C1262 1.381 . S
C1260 C1266 1.383 . S
C1261 C1257 1.495 . S
C1261 H1267 0.959 . S
C1261 H1268 0.961 . S
C1261 H1269 0.960 . S
C1262 C1260 1.381 . S
C1262 C1263 1.394 . S
C1262 H1270 0.930 . S
C1263 C1262 1.394 . S
C1263 C1264 1.383 . S
C1263 H1271 0.929 . S
C1264 C1263 1.383 . S
C1264 C1265 1.377 . S
C1265 H1249 0.930 . S
C1265 C1264 1.377 . S
C1265 C1266 1.379 . S
C1266 H1250 0.931 . S
C1266 C1260 1.383 . S
C1266 C1265 1.379 . S
H1267 C1261 0.959 . S
H1268 C1261 0.961 . S
H1269 C1261 0.960 . S
H1270 C1262 0.930 . S
H1271 C1263 0.929 . S
H1272 C1280 0.929 . S
H1273 C1282 0.930 . S
H1274 C1284 0.930 . S
H1275 C1287 0.929 . S
H1276 C1290 0.930 . S
H1277 C1292 0.960 . S
H1278 C1292 0.960 . S
H1279 C1292 0.960 . S
C1280 H1272 0.929 . S
C1280 C1281 1.377 . S
C1280 C1282 1.384 . S
C1281 C1280 1.377 . S
C1281 C1287 1.390 . S
C1282 H1273 0.930 . S
C1282 C1280 1.384 . S
C1282 C1283 1.372 . S
C1283 C1282 1.372 . S
C1283 C1284 1.400 . S
C1283 C1288 1.490 . S
C1284 H1274 0.930 . S
C1284 C1283 1.400 . S
C1284 C1287 1.386 . S
H1285 C1301 0.930 . S
H1286 C1302 0.931 . S
C1287 H1275 0.929 . S
C1287 C1281 1.390 . S
C1287 C1284 1.386 . S
C1288 C1283 1.490 . S
C1288 C1290 1.395 . S
C1288 C1291 1.403 . S
H1289 C1295 0.930 . S
C1290 H1276 0.930 . S
C1290 C1288 1.395 . S
C1290 C1293 1.403 . S
C1291 C1288 1.403 . S
C1291 C1292 1.524 . S
C1291 C1295 1.400 . S
C1292 H1277 0.960 . S
C1292 H1278 0.960 . S
C1292 H1279 0.960 . S
C1292 C1291 1.524 . S
C1293 C1290 1.403 . S
C1293 C1294 1.392 . S
C1293 C1297 1.495 . S
C1294 C1293 1.392 . S
C1294 C1295 1.385 . S
C1294 C1296 1.478 . S
C1295 H1289 0.930 . S
C1295 C1291 1.400 . S
C1295 C1294 1.385 . S
C1296 C1294 1.478 . S
C1296 C1298 1.381 . S
C1296 C1302 1.383 . S
C1297 C1293 1.495 . S
C1297 H1303 0.959 . S
C1297 H1304 0.961 . S
C1297 H1305 0.960 . S
C1298 C1296 1.381 . S
C1298 C1299 1.394 . S
C1298 H1306 0.930 . S
C1299 C1298 1.394 . S
C1299 C1300 1.383 . S
C1299 H1307 0.929 . S
C1300 C1299 1.383 . S
C1300 C1301 1.377 . S
C1301 H1285 0.930 . S
C1301 C1300 1.377 . S
C1301 C1302 1.379 . S
C1302 H1286 0.931 . S
C1302 C1296 1.383 . S
C1302 C1301 1.379 . S
H1303 C1297 0.959 . S
H1304 C1297 0.961 . S
H1305 C1297 0.960 . S
H1306 C1298 0.930 . S
H1307 C1299 0.929 . S
H1308 C1316 0.929 . S
H1309 C1318 0.930 . S
H1310 C1320 0.930 . S
H1311 C1323 0.929 . S
H1312 C1326 0.930 1_554 S
H1313 C1328 0.960 . S
H1314 C1328 0.960 . S
H1315 C1328 0.960 . S
C1316 H1308 0.929 . S
C1316 C1317 1.377 . S
C1316 C1318 1.384 . S
C1317 C1316 1.377 . S
C1317 C1323 1.390 . S
C1318 H1309 0.930 . S
C1318 C1316 1.384 . S
C1318 C1319 1.372 . S
C1319 C1318 1.372 . S
C1319 C1320 1.400 . S
C1319 C1324 1.490 . S
C1320 H1310 0.930 . S
C1320 C1319 1.400 . S
C1320 C1323 1.386 . S
H1321 C1337 0.930 . S
H1322 C1338 0.931 . S
C1323 H1311 0.929 . S
C1323 C1317 1.390 . S
C1323 C1320 1.386 . S
C1324 C1319 1.490 . S
C1324 C1326 1.395 . S
C1324 C1327 1.403 . S
H1325 C1331 0.930 . S
C1326 H1312 0.930 1_556 S
C1326 C1324 1.395 . S
C1326 C1329 1.403 . S
C1327 C1324 1.403 . S
C1327 C1328 1.524 . S
C1327 C1331 1.400 . S
C1328 H1313 0.960 . S
C1328 H1314 0.960 . S
C1328 H1315 0.960 . S
C1328 C1327 1.524 . S
C1329 C1326 1.403 . S
C1329 C1330 1.392 . S
C1329 C1333 1.495 1_556 S
C1330 C1329 1.392 . S
C1330 C1331 1.385 . S
C1330 C1332 1.478 . S
C1331 H1325 0.930 . S
C1331 C1327 1.400 . S
C1331 C1330 1.385 . S
C1332 C1330 1.478 . S
C1332 C1334 1.381 . S
C1332 C1338 1.383 . S
C1333 C1329 1.495 1_554 S
C1333 H1339 0.959 . S
C1333 H1340 0.961 . S
C1333 H1341 0.960 . S
C1334 C1332 1.381 . S
C1334 C1335 1.394 . S
C1334 H1342 0.930 . S
C1335 C1334 1.394 . S
C1335 C1336 1.383 . S
C1335 H1343 0.929 . S
C1336 C1335 1.383 . S
C1336 C1337 1.377 . S
C1337 H1321 0.930 . S
C1337 C1336 1.377 . S
C1337 C1338 1.379 . S
C1338 H1322 0.931 . S
C1338 C1332 1.383 . S
C1338 C1337 1.379 . S
H1339 C1333 0.959 . S
H1340 C1333 0.961 . S
H1341 C1333 0.960 . S
H1342 C1334 0.930 . S
H1343 C1335 0.929 . S
H1344 C1352 0.929 . S
H1345 C1354 0.930 . S
H1346 C1356 0.930 . S
H1347 C1359 0.929 . S
H1348 C1362 0.930 . S
H1349 C1364 0.960 . S
H1350 C1364 0.960 . S
H1351 C1364 0.960 . S
C1352 H1344 0.929 . S
C1352 C1353 1.377 . S
C1352 C1354 1.384 . S
C1353 C1352 1.377 . S
C1353 C1359 1.390 . S
C1354 H1345 0.930 . S
C1354 C1352 1.384 . S
C1354 C1355 1.372 . S
C1355 C1354 1.372 . S
C1355 C1356 1.400 . S
C1355 C1360 1.490 . S
C1356 H1346 0.930 . S
C1356 C1355 1.400 . S
C1356 C1359 1.386 . S
H1357 C1373 0.930 . S
H1358 C1374 0.931 . S
C1359 H1347 0.929 . S
C1359 C1353 1.390 . S
C1359 C1356 1.386 . S
C1360 C1355 1.490 . S
C1360 C1362 1.395 . S
C1360 C1363 1.403 . S
H1361 C1367 0.930 . S
C1362 H1348 0.930 . S
C1362 C1360 1.395 . S
C1362 C1365 1.403 . S
C1363 C1360 1.403 . S
C1363 C1364 1.524 . S
C1363 C1367 1.400 . S
C1364 H1349 0.960 . S
C1364 H1350 0.960 . S
C1364 H1351 0.960 . S
C1364 C1363 1.524 . S
C1365 C1362 1.403 . S
C1365 C1366 1.392 . S
C1365 C1369 1.495 . S
C1366 C1365 1.392 . S
C1366 C1367 1.385 . S
C1366 C1368 1.478 . S
C1367 H1361 0.930 . S
C1367 C1363 1.400 . S
C1367 C1366 1.385 . S
C1368 C1366 1.478 . S
C1368 C1370 1.381 . S
C1368 C1374 1.383 . S
C1369 C1365 1.495 . S
C1369 H1375 0.959 . S
C1369 H1376 0.961 . S
C1369 H1377 0.960 . S
C1370 C1368 1.381 . S
C1370 C1371 1.394 . S
C1370 H1378 0.930 . S
C1371 C1370 1.394 . S
C1371 C1372 1.383 . S
C1371 H1379 0.929 . S
C1372 C1371 1.383 . S
C1372 C1373 1.377 . S
C1373 H1357 0.930 . S
C1373 C1372 1.377 . S
C1373 C1374 1.379 . S
C1374 H1358 0.931 . S
C1374 C1368 1.383 . S
C1374 C1373 1.379 . S
H1375 C1369 0.959 . S
H1376 C1369 0.961 . S
H1377 C1369 0.960 . S
H1378 C1370 0.930 . S
H1379 C1371 0.929 . S
H1380 C1388 0.929 . S
H1381 C1390 0.930 . S
H1382 C1392 0.930 . S
H1383 C1395 0.929 . S
H1384 C1398 0.930 . S
H1385 C1400 0.960 . S
H1386 C1400 0.960 . S
H1387 C1400 0.960 . S
C1388 H1380 0.929 . S
C1388 C1389 1.377 . S
C1388 C1390 1.384 . S
C1389 C1388 1.377 . S
C1389 C1395 1.390 . S
C1390 H1381 0.930 . S
C1390 C1388 1.384 . S
C1390 C1391 1.372 . S
C1391 C1390 1.372 . S
C1391 C1392 1.400 . S
C1391 C1396 1.490 . S
C1392 H1382 0.930 . S
C1392 C1391 1.400 . S
C1392 C1395 1.386 . S
H1393 C1409 0.930 . S
H1394 C1410 0.931 . S
C1395 H1383 0.929 . S
C1395 C1389 1.390 . S
C1395 C1392 1.386 . S
C1396 C1391 1.490 . S
C1396 C1398 1.395 . S
C1396 C1399 1.403 . S
H1397 C1403 0.930 . S
C1398 H1384 0.930 . S
C1398 C1396 1.395 . S
C1398 C1401 1.403 . S
C1399 C1396 1.403 . S
C1399 C1400 1.524 . S
C1399 C1403 1.400 . S
C1400 H1385 0.960 . S
C1400 H1386 0.960 . S
C1400 H1387 0.960 . S
C1400 C1399 1.524 . S
C1401 C1398 1.403 . S
C1401 C1402 1.392 . S
C1401 C1405 1.495 . S
C1402 C1401 1.392 . S
C1402 C1403 1.385 . S
C1402 C1404 1.478 . S
C1403 H1397 0.930 . S
C1403 C1399 1.400 . S
C1403 C1402 1.385 . S
C1404 C1402 1.478 . S
C1404 C1406 1.381 . S
C1404 C1410 1.383 . S
C1405 C1401 1.495 . S
C1405 H1411 0.959 . S
C1405 H1412 0.961 . S
C1405 H1413 0.960 . S
C1406 C1404 1.381 . S
C1406 C1407 1.394 . S
C1406 H1414 0.930 . S
C1407 C1406 1.394 . S
C1407 C1408 1.383 . S
C1407 H1415 0.929 . S
C1408 C1407 1.383 . S
C1408 C1409 1.377 . S
C1409 H1393 0.930 . S
C1409 C1408 1.377 . S
C1409 C1410 1.379 . S
C1410 H1394 0.931 . S
C1410 C1404 1.383 . S
C1410 C1409 1.379 . S
H1411 C1405 0.959 . S
H1412 C1405 0.961 . S
H1413 C1405 0.960 . S
H1414 C1406 0.930 . S
H1415 C1407 0.929 . S
H1416 C1424 0.929 . S
H1417 C1426 0.930 . S
H1418 C1428 0.930 . S
H1419 C1431 0.929 . S
H1420 C1434 0.930 . S
H1421 C1436 0.960 . S
H1422 C1436 0.960 . S
H1423 C1436 0.960 . S
C1424 H1416 0.929 . S
C1424 C1425 1.377 . S
C1424 C1426 1.384 . S
C1425 C1424 1.377 . S
C1425 C1431 1.390 . S
C1426 H1417 0.930 . S
C1426 C1424 1.384 . S
C1426 C1427 1.372 . S
C1427 C1426 1.372 . S
C1427 C1428 1.400 . S
C1427 C1432 1.490 . S
C1428 H1418 0.930 . S
C1428 C1427 1.400 . S
C1428 C1431 1.386 . S
H1429 C1445 0.930 . S
H1430 C1446 0.931 . S
C1431 H1419 0.929 . S
C1431 C1425 1.390 . S
C1431 C1428 1.386 . S
C1432 C1427 1.490 . S
C1432 C1434 1.395 . S
C1432 C1435 1.403 . S
H1433 C1439 0.930 . S
C1434 H1420 0.930 . S
C1434 C1432 1.395 . S
C1434 C1437 1.403 . S
C1435 C1432 1.403 . S
C1435 C1436 1.524 . S
C1435 C1439 1.400 . S
C1436 H1421 0.960 . S
C1436 H1422 0.960 . S
C1436 H1423 0.960 . S
C1436 C1435 1.524 . S
C1437 C1434 1.403 . S
C1437 C1438 1.392 . S
C1437 C1441 1.495 . S
C1438 C1437 1.392 . S
C1438 C1439 1.385 . S
C1438 C1440 1.478 . S
C1439 H1433 0.930 . S
C1439 C1435 1.400 . S
C1439 C1438 1.385 . S
C1440 C1438 1.478 . S
C1440 C1442 1.381 . S
C1440 C1446 1.383 . S
C1441 C1437 1.495 . S
C1441 H1447 0.959 . S
C1441 H1448 0.961 . S
C1441 H1449 0.960 . S
C1442 C1440 1.381 . S
C1442 C1443 1.394 . S
C1442 H1450 0.930 . S
C1443 C1442 1.394 . S
C1443 C1444 1.383 . S
C1443 H1451 0.929 . S
C1444 C1443 1.383 . S
C1444 C1445 1.377 . S
C1445 H1429 0.930 . S
C1445 C1444 1.377 . S
C1445 C1446 1.379 . S
C1446 H1430 0.931 . S
C1446 C1440 1.383 . S
C1446 C1445 1.379 . S
H1447 C1441 0.959 . S
H1448 C1441 0.961 . S
H1449 C1441 0.960 . S
H1450 C1442 0.930 . S
H1451 C1443 0.929 . S
H1452 C1460 0.929 . S
H1453 C1462 0.930 . S
H1454 C1464 0.930 . S
H1455 C1467 0.929 . S
H1456 C1470 0.930 . S
H1457 C1472 0.960 . S
H1458 C1472 0.960 . S
H1459 C1472 0.960 . S
C1460 H1452 0.929 . S
C1460 C1461 1.377 . S
C1460 C1462 1.384 . S
C1461 C1460 1.377 . S
C1461 C1467 1.390 . S
C1462 H1453 0.930 . S
C1462 C1460 1.384 . S
C1462 C1463 1.372 . S
C1463 C1462 1.372 . S
C1463 C1464 1.400 . S
C1463 C1468 1.490 . S
C1464 H1454 0.930 . S
C1464 C1463 1.400 . S
C1464 C1467 1.386 . S
H1465 C1481 0.930 . S
H1466 C1482 0.931 . S
C1467 H1455 0.929 . S
C1467 C1461 1.390 . S
C1467 C1464 1.386 . S
C1468 C1463 1.490 . S
C1468 C1470 1.395 . S
C1468 C1471 1.403 . S
H1469 C1475 0.930 . S
C1470 H1456 0.930 . S
C1470 C1468 1.395 . S
C1470 C1473 1.403 . S
C1471 C1468 1.403 . S
C1471 C1472 1.524 . S
C1471 C1475 1.400 . S
C1472 H1457 0.960 . S
C1472 H1458 0.960 . S
C1472 H1459 0.960 . S
C1472 C1471 1.524 . S
C1473 C1470 1.403 . S
C1473 C1474 1.392 . S
C1473 C1477 1.495 . S
C1474 C1473 1.392 . S
C1474 C1475 1.385 . S
C1474 C1476 1.478 . S
C1475 H1469 0.930 . S
C1475 C1471 1.400 . S
C1475 C1474 1.385 . S
C1476 C1474 1.478 . S
C1476 C1478 1.381 . S
C1476 C1482 1.383 . S
C1477 C1473 1.495 . S
C1477 H1483 0.959 . S
C1477 H1484 0.961 . S
C1477 H1485 0.960 . S
C1478 C1476 1.381 . S
C1478 C1479 1.394 . S
C1478 H1486 0.930 . S
C1479 C1478 1.394 . S
C1479 C1480 1.383 . S
C1479 H1487 0.929 . S
C1480 C1479 1.383 . S
C1480 C1481 1.377 . S
C1481 H1465 0.930 . S
C1481 C1480 1.377 . S
C1481 C1482 1.379 . S
C1482 H1466 0.931 . S
C1482 C1476 1.383 . S
C1482 C1481 1.379 . S
H1483 C1477 0.959 . S
H1484 C1477 0.961 . S
H1485 C1477 0.960 . S
H1486 C1478 0.930 . S
H1487 C1479 0.929 . S
H1488 C1496 0.929 . S
H1489 C1498 0.930 . S
H1490 C1500 0.930 . S
H1491 C1503 0.929 . S
H1492 C1506 0.930 . S
H1493 C1508 0.960 . S
H1494 C1508 0.960 . S
H1495 C1508 0.960 . S
C1496 H1488 0.929 . S
C1496 C1497 1.377 . S
C1496 C1498 1.384 . S
C1497 C1496 1.377 . S
C1497 C1503 1.390 . S
C1498 H1489 0.930 . S
C1498 C1496 1.384 . S
C1498 C1499 1.372 . S
C1499 C1498 1.372 . S
C1499 C1500 1.400 . S
C1499 C1504 1.490 . S
C1500 H1490 0.930 . S
C1500 C1499 1.400 . S
C1500 C1503 1.386 . S
H1501 C1517 0.930 . S
H1502 C1518 0.931 . S
C1503 H1491 0.929 . S
C1503 C1497 1.390 . S
C1503 C1500 1.386 . S
C1504 C1499 1.490 . S
C1504 C1506 1.395 . S
C1504 C1507 1.403 . S
H1505 C1511 0.930 . S
C1506 H1492 0.930 . S
C1506 C1504 1.395 . S
C1506 C1509 1.403 . S
C1507 C1504 1.403 . S
C1507 C1508 1.524 . S
C1507 C1511 1.400 . S
C1508 H1493 0.960 . S
C1508 H1494 0.960 . S
C1508 H1495 0.960 . S
C1508 C1507 1.524 . S
C1509 C1506 1.403 . S
C1509 C1510 1.392 . S
C1509 C1513 1.495 . S
C1510 C1509 1.392 . S
C1510 C1511 1.385 . S
C1510 C1512 1.478 . S
C1511 H1505 0.930 . S
C1511 C1507 1.400 . S
C1511 C1510 1.385 . S
C1512 C1510 1.478 . S
C1512 C1514 1.381 . S
C1512 C1518 1.383 1_556 S
C1513 C1509 1.495 . S
C1513 H1519 0.959 . S
C1513 H1520 0.961 1_556 S
C1513 H1521 0.960 . S
C1514 C1512 1.381 . S
C1514 C1515 1.394 . S
C1514 H1522 0.930 . S
C1515 C1514 1.394 . S
C1515 C1516 1.383 1_556 S
C1515 H1523 0.929 . S
C1516 C1515 1.383 1_554 S
C1516 C1517 1.377 . S
C1517 H1501 0.930 . S
C1517 C1516 1.377 . S
C1517 C1518 1.379 . S
C1518 H1502 0.931 . S
C1518 C1512 1.383 1_554 S
C1518 C1517 1.379 . S
H1519 C1513 0.959 . S
H1520 C1513 0.961 1_554 S
H1521 C1513 0.960 . S
H1522 C1514 0.930 . S
H1523 C1515 0.929 . S
H1524 C1532 0.929 . S
H1525 C1534 0.930 . S
H1526 C1536 0.930 . S
H1527 C1539 0.929 . S
H1528 C1542 0.930 . S
H1529 C1544 0.960 1_556 S
H1530 C1544 0.960 . S
H1531 C1544 0.960 . S
C1532 H1524 0.929 . S
C1532 C1533 1.377 . S
C1532 C1534 1.384 . S
C1533 C1532 1.377 . S
C1533 C1539 1.390 . S
C1534 H1525 0.930 . S
C1534 C1532 1.384 . S
C1534 C1535 1.372 . S
C1535 C1534 1.372 . S
C1535 C1536 1.400 . S
C1535 C1540 1.490 . S
C1536 H1526 0.930 . S
C1536 C1535 1.400 . S
C1536 C1539 1.386 . S
H1537 C1553 0.930 . S
H1538 C1554 0.931 . S
C1539 H1527 0.929 . S
C1539 C1533 1.390 . S
C1539 C1536 1.386 . S
C1540 C1535 1.490 . S
C1540 C1542 1.395 . S
C1540 C1543 1.403 . S
H1541 C1547 0.930 1_556 S
C1542 H1528 0.930 . S
C1542 C1540 1.395 . S
C1542 C1545 1.403 . S
C1543 C1540 1.403 . S
C1543 C1544 1.524 . S
C1543 C1547 1.400 . S
C1544 H1529 0.960 1_554 S
C1544 H1530 0.960 . S
C1544 H1531 0.960 . S
C1544 C1543 1.524 . S
C1545 C1542 1.403 . S
C1545 C1546 1.392 . S
C1545 C1549 1.495 . S
C1546 C1545 1.392 . S
C1546 C1547 1.385 . S
C1546 C1548 1.478 . S
C1547 H1541 0.930 1_554 S
C1547 C1543 1.400 . S
C1547 C1546 1.385 . S
C1548 C1546 1.478 . S
C1548 C1550 1.381 . S
C1548 C1554 1.383 . S
C1549 C1545 1.495 . S
C1549 H1555 0.959 . S
C1549 H1556 0.961 . S
C1549 H1557 0.960 . S
C1550 C1548 1.381 . S
C1550 C1551 1.394 . S
C1550 H1558 0.930 . S
C1551 C1550 1.394 . S
C1551 C1552 1.383 1_554 S
C1551 H1559 0.929 . S
C1552 C1551 1.383 1_556 S
C1552 C1553 1.377 . S
C1553 H1537 0.930 . S
C1553 C1552 1.377 . S
C1553 C1554 1.379 1_556 S
C1554 H1538 0.931 . S
C1554 C1548 1.383 . S
C1554 C1553 1.379 1_554 S
H1555 C1549 0.959 . S
H1556 C1549 0.961 . S
H1557 C1549 0.960 . S
H1558 C1550 0.930 . S
H1559 C1551 0.929 . S
C273 C6 1.546 . S
C292 C8 1.559 . S
C309 C28 1.550 1_556 S
C328 C30 1.557 . S
C345 C52 1.554 . S
C364 C50 1.535 . S
C381 C72 1.550 . S
C400 C74 1.547 . S
C417 C96 1.551 . S
C436 C94 1.534 . S
C453 C116 1.548 . S
C472 C118 1.560 . S
C489 C139 1.550 1_554 S
C508 C136 1.541 . S
C525 C158 1.552 . S
C544 C161 1.531 . S
C561 C180 1.551 1_556 S
C580 C183 1.556 . S
C597 C202 1.550 . S
C616 C205 1.550 . S
C633 C227 1.550 . S
C652 C224 1.546 . S
C669 C246 1.554 . S
C688 C249 1.534 . S
C705 C4 1.425 1_556 S
C724 C162 1.444 . S
C741 C184 1.417 . S
C760 C26 1.400 . S
C777 C206 1.425 . S
C796 C48 1.396 . S
C813 C70 1.427 . S
C832 C228 1.436 . S
C849 C92 1.416 . S
C868 C250 1.424 . S
C885 C114 1.427 . S
C904 C140 1.429 . S
C921 C5 0.948 . S
C940 C229 0.902 . S
C957 C27 0.946 . S
C976 C251 0.910 . S
C993 C141 0.950 . S
C1012 C49 0.898 . S
C1029 C71 0.933 . S
C1048 C163 0.973 . S
C1065 C93 0.933 . S
C1084 C185 0.982 . S
C1101 C207 0.950 . S
C1120 C115 0.897 . S
C1137 C9 1.059 . S
C1156 C181 1.049 . S
C1173 C203 1.061 . S
C1192 C31 1.037 . S
C1209 C225 1.071 . S
C1228 C53 1.089 . S
C1245 C75 1.070 . S
C1264 C247 1.085 . S
C1281 C137 1.070 . S
C1300 C97 1.088 . S
C1317 C119 1.061 . S
C1336 C159 1.036 . S
C1353 C7 0.969 . S
C1372 C226 1.027 . S
C1389 C29 0.988 . S
C1408 C248 0.939 . S
C1425 C51 0.987 . S
C1444 C138 0.943 . S
C1461 C160 0.984 . S
C1480 C73 0.940 . S
C1497 C95 0.970 . S
C1516 C182 1.004 . S
C1533 C204 0.973 . S
C1552 C117 1.012 . S
