# Generated by pormake.
# Topology hcp, (12)-cn, num edge types: 1
# Building blocks:
#     Node 0, Type 0, BuildingBlock: QEWDON_clean_sbu_0, # of connection points: 12
#     Node 1, Type 0, BuildingBlock: QEWDON_clean_sbu_0, # of connection points: 12
#     Edge 2, Type (0, 0), BuildingBlock: EZIPEK_clean_linker_0, # of connection points: 2
#     Edge 3, Type (0, 0), BuildingBlock: EZIPEK_clean_linker_0, # of connection points: 2
#     Edge 4, Type (0, 0), BuildingBlock: EZIPEK_clean_linker_0, # of connection points: 2
#     Edge 5, Type (0, 0), BuildingBlock: EZIPEK_clean_linker_0, # of connection points: 2
#     Edge 6, Type (0, 0), BuildingBlock: EZIPEK_clean_linker_0, # of connection points: 2
#     Edge 7, Type (0, 0), BuildingBlock: EZIPEK_clean_linker_0, # of connection points: 2
#     Edge 8, Type (0, 0), BuildingBlock: EZIPEK_clean_linker_0, # of connection points: 2
#     Edge 9, Type (0, 0), BuildingBlock: EZIPEK_clean_linker_0, # of connection points: 2
#     Edge 10, Type (0, 0), BuildingBlock: EZIPEK_clean_linker_0, # of connection points: 2
#     Edge 11, Type (0, 0), BuildingBlock: EZIPEK_clean_linker_0, # of connection points: 2
#     Edge 12, Type (0, 0), BuildingBlock: EZIPEK_clean_linker_0, # of connection points: 2
#     Edge 13, Type (0, 0), BuildingBlock: EZIPEK_clean_linker_0, # of connection points: 2
# Relax obj value: 0.198
# Max RMSD: 0.274
# Mean RMSD: 0.274
data_MOF--net-hcp--node1-QEWDON_clean_sbu_0--edge1-EZIPEK_clean_linker_0
_symmetry_space_group_name_H-M    P1
_symmetry_Int_Tables_number       1
_symmetry_cell_setting            triclinic
loop_
_symmetry_equiv_pos_as_xyz
'x, y, z'
_cell_length_a     15.602502
_cell_length_b     15.316288
_cell_length_c     25.292715
_cell_angle_alpha  87.314379
_cell_angle_beta   88.813571
_cell_angle_gamma 123.51788
loop_
_atom_site_label
_atom_site_type_symbol
_atom_site_fract_x
_atom_site_fract_y
_atom_site_fract_z
_atom_type_partial_charge
Zn0 Zn 0.72282 0.32657 0.30748 0.0
Zn1 Zn 0.81627 0.42809 0.19113 0.0
O2 O 0.68775 0.37347 0.23858 0.0
H3 H 0.65075 0.40715 0.23671 0.0
C4 C 0.57747 0.97204 0.22646 0.0
O5 O 0.6398 0.03682 0.18714 0.0
Zn6 Zn 0.47961 0.44885 0.23416 0.0
Zn7 Zn 0.3677 0.23899 0.31269 0.0
O8 O 0.46293 0.30986 0.24745 0.0
H9 H 0.47525 0.27024 0.22347 0.0
Zn10 Zn 0.48263 0.08359 0.20018 0.0
O11 O 0.60883 0.22448 0.17197 0.0
Zn12 Zn 0.56168 0.27289 0.11035 0.0
H13 H 0.67687 0.23797 0.17387 0.0
Zn14 Zn 0.64198 0.40548 0.42575 0.0
O15 O 0.62912 0.44297 0.35121 0.0
H16 H 0.57919 0.39439 0.32781 0.0
Zn17 Zn 0.76335 0.58021 0.33241 0.0
C18 C 0.47834 0.28827 0.50416 0.0
O19 O 0.39925 0.20842 0.53176 0.0
O20 O 0.86071 0.33917 0.29981 0.0
O21 O 0.89376 0.36321 0.21245 0.0
O22 O 0.28282 0.29978 0.32664 0.0
O23 O 0.35336 0.43311 0.26599 0.0
O24 O 0.41834 0.01232 0.13323 0.0
O25 O 0.45236 0.14474 0.0763 0.0
C26 C 0.90123 0.62239 0.23555 0.0
O27 O 0.78983 0.47038 0.44417 0.0
O28 O 0.87092 0.6128 0.38753 0.0
O29 O 0.26739 0.08044 0.30813 0.0
C30 C 0.91482 0.3481 0.25894 0.0
O31 O 0.62217 0.23114 0.37313 0.0
C32 C 0.49502 0.42979 0.12094 0.0
O33 O 0.50541 0.9801 0.24405 0.0
C34 C 0.28387 0.3746 0.30218 0.0
O35 O 0.52356 0.27238 0.46746 0.0
C36 C 0.76794 0.39896 0.0662 0.0
O37 O 0.91676 0.58296 0.19665 0.0
O38 O 0.82117 0.56334 0.26574 0.0
C39 C 0.4175 0.04814 0.08705 0.0
O40 O 0.47833 0.47844 0.15468 0.0
O41 O 0.52131 0.36862 0.13758 0.0
C42 C 0.65018 0.6516 0.2867 0.0
O43 O 0.67535 0.34773 0.0532 0.0
O44 O 0.78629 0.41005 0.1148 0.0
C45 C 0.87105 0.55589 0.42626 0.0
O46 O 0.72735 0.68571 0.31548 0.0
O47 O 0.60607 0.55797 0.27235 0.0
C48 C 0.20765 0.05581 0.27029 0.0
O49 O 0.21713 0.13024 0.23757 0.0
C50 C 0.53618 0.14378 0.37091 0.0
O51 O 0.498 0.11246 0.3246 0.0
Zn52 Zn 0.45032 0.56228 0.79402 0.0
Zn53 Zn 0.57961 0.73572 0.69477 0.0
O54 O 0.45033 0.6722 0.74299 0.0
H55 H 0.44146 0.61904 0.76888 0.0
C56 C 0.25123 0.27625 0.66007 0.0
O57 O 0.22233 0.30665 0.70054 0.0
Zn58 Zn 0.25226 0.81615 0.66403 0.0
Zn59 Zn 0.14941 0.58731 0.72032 0.0
O60 O 0.26883 0.69552 0.67044 0.0
H61 H 0.33795 0.71494 0.67649 0.0
Zn62 Zn 0.23021 0.43509 0.61125 0.0
O63 O 0.33751 0.5743 0.63684 0.0
Zn64 Zn 0.38046 0.67555 0.57266 0.0
H65 H 0.38231 0.5776 0.66343 0.0
Zn66 Zn 0.31536 0.7046 0.86045 0.0
O67 O 0.32262 0.78697 0.79333 0.0
H68 H 0.28157 0.75014 0.76434 0.0
Zn69 Zn 0.46464 0.92263 0.78829 0.0
C70 C 0.0961 0.57082 0.90231 0.0
O71 O 0.07717 0.53665 0.85454 0.0
O72 O 0.57847 0.559 0.78124 0.0
O73 O 0.67507 0.70966 0.73194 0.0
O74 O 0.08721 0.6533 0.75971 0.0
O75 O 0.1076 0.76433 0.69273 0.0
O76 O 0.14921 0.45964 0.5572 0.0
O77 O 0.28384 0.60153 0.51402 0.0
C78 C 0.63779 0.94472 0.715 0.0
O79 O 0.44906 0.79119 0.8974 0.0
O80 O 0.50048 0.94975 0.86352 0.0
O81 O 0.02661 0.44375 0.69706 0.0
C82 C 0.66469 0.63346 0.7603 0.0
O83 O 0.43071 0.55328 0.87683 0.0
C84 C 0.34412 0.86349 0.56062 0.0
O85 O 0.25752 0.31618 0.61376 0.0
C86 C 0.05978 0.70758 0.73543 0.0
O87 O 0.18776 0.63918 0.91334 0.0
C88 C 0.55854 0.67092 0.5761 0.0
O89 O 0.66202 0.89416 0.68682 0.0
O90 O 0.55151 0.89373 0.7413 0.0
C91 C 0.1873 0.53201 0.51998 0.0
O92 O 0.29801 0.89155 0.59036 0.0
O93 O 0.35175 0.78985 0.58037 0.0
C94 C 0.38985 0.00867 0.72328 0.0
O95 O 0.53025 0.72909 0.55786 0.0
O96 O 0.56865 0.66414 0.62583 0.0
C97 C 0.48453 0.88716 0.9031 0.0
O98 O 0.45554 0.04287 0.75828 0.0
O99 O 0.35362 0.91607 0.71086 0.0
C100 C -0.00093 0.36182 0.72641 0.0
O101 O 0.05723 0.36926 0.7651 0.0
C102 C 0.43731 0.48067 0.89872 0.0
O103 O 0.44409 0.41677 0.86874 0.0
C104 C 0.37019 0.91905 0.95776 0.0
C105 C 0.45754 0.91189 0.95362 0.0
C106 C 0.51296 0.98736 0.03815 0.0
C107 C 0.42461 0.99253 0.04326 0.0
N108 N 0.26034 0.94711 0.01394 0.0
N109 N 0.59381 0.91035 -0.0047 0.0
C110 C 0.35019 0.95311 0.00487 0.0
C111 C 0.52229 0.9355 -0.00406 0.0
N112 N 0.30782 0.89548 0.91626 0.0
N113 N 0.59221 0.03946 0.07097 0.0
H114 H 0.6041 0.87463 0.96387 0.0
H115 H 0.63569 0.91561 0.02795 0.0
H116 H 0.59402 0.08719 0.09949 0.0
H117 H 0.66174 0.04542 0.06608 0.0
H118 H 0.25298 0.91392 0.91372 0.0
H119 H 0.3135 0.86117 0.88297 0.0
H120 H 0.19842 0.91036 0.9897 0.0
H121 H 0.24469 0.97223 0.04831 0.0
C122 C 0.62787 0.56109 0.55537 0.0
C123 C 0.56129 0.5942 0.54254 0.0
C124 C 0.45288 0.4356 0.49576 0.0
C125 C 0.51207 0.39695 0.51361 0.0
N126 N 0.66999 0.43072 0.54797 0.0
N127 N 0.45166 0.59014 0.47517 0.0
C128 C 0.60532 0.46315 0.53873 0.0
C129 C 0.48592 0.54005 0.50499 0.0
N130 N 0.71211 0.62383 0.58359 0.0
N131 N 0.36491 0.37271 0.47007 0.0
H132 H 0.48465 0.67046 0.47519 0.0
H133 H 0.40267 0.55615 0.44436 0.0
H134 H 0.3411 0.29764 0.45973 0.0
H135 H 0.31253 0.39291 0.4619 0.0
H136 H 0.75874 0.60161 0.59951 0.0
H137 H 0.73609 0.7005 0.59077 0.0
H138 H 0.74181 0.47653 0.56354 0.0
H139 H 0.65383 0.3581 0.5378 0.0
C140 C 0.86565 0.37452 -0.00516 0.0
C141 C 0.85335 0.44322 0.02509 0.0
C142 C -0.00542 0.59478 0.97174 0.0
C143 C 0.01194 0.52673 0.94419 0.0
N144 N -0.02103 0.35415 0.93752 0.0
N145 N 0.91836 0.61938 0.04918 0.0
C146 C 0.95126 0.41704 0.95771 0.0
C147 C 0.92193 0.55358 0.01584 0.0
N148 N 0.79611 0.26842 0.00187 0.0
N149 N 0.04353 0.69796 0.95408 0.0
H150 H 0.86384 0.59318 0.0807 0.0
H151 H -0.02556 0.69964 0.04802 0.0
H152 H 0.09552 0.73072 0.9212 0.0
H153 H 0.02492 0.74836 0.9686 0.0
H154 H 0.79335 0.21538 0.97649 0.0
H155 H 0.73687 0.23356 0.03131 0.0
H156 H 0.94448 0.27555 0.95028 0.0
H157 H 0.04317 0.38254 0.9116 0.0
C158 C 0.32984 0.95483 0.4781 0.0
C159 C 0.38164 0.9149 0.50502 0.0
C160 C 0.53493 0.02733 0.44509 0.0
C161 C 0.48531 0.07058 0.41929 0.0
N162 N 0.34146 0.08798 0.41643 0.0
N163 N 0.50815 0.87456 0.49284 0.0
C164 C 0.38348 0.03642 0.43669 0.0
C165 C 0.47786 0.94109 0.48311 0.0
N166 N 0.22712 0.9091 0.48974 0.0
N167 N 0.63661 0.06749 0.43351 0.0
H168 H 0.45387 0.79849 0.50739 0.0
H169 H 0.57503 0.88513 0.47595 0.0
H170 H 0.68109 0.12553 0.40346 0.0
H171 H 0.67867 0.04721 0.45644 0.0
H172 H 0.18149 0.92704 0.46874 0.0
H173 H 0.18466 0.84378 0.51663 0.0
H174 H 0.27192 0.07492 0.43058 0.0
H175 H 0.38212 0.15251 0.38901 0.0
C176 C 0.38102 0.40853 0.04705 0.0
C177 C 0.481 0.44385 0.06392 0.0
C178 C 0.5528 0.50772 0.97259 0.0
C179 C 0.45367 0.47665 0.95616 0.0
N180 N 0.27715 0.41434 0.97835 0.0
N181 N 0.66453 0.54692 0.04551 0.0
C182 C 0.36896 0.43269 -0.0063 0.0
C183 C 0.56765 0.49875 0.02742 0.0
N184 N 0.29706 0.34799 0.08151 0.0
N185 N 0.63281 0.54498 0.93566 0.0
H186 H 0.67837 0.542 0.08536 0.0
H187 H 0.73098 0.59877 0.02187 0.0
H188 H 0.6273 0.55964 0.89561 0.0
H189 H 0.70304 0.55597 0.94417 0.0
H190 H 0.22139 0.31051 0.07036 0.0
H191 H 0.30259 0.32776 0.12066 0.0
H192 H 0.21545 0.39286 0.00475 0.0
H193 H 0.2652 0.42873 0.93936 0.0
C194 C -0.00383 0.60819 0.49718 0.0
C195 C -0.03093 0.57673 0.44518 0.0
C196 C 0.09169 0.52417 0.44054 0.0
C197 C 0.11684 0.55268 0.49287 0.0
N198 N 0.10636 0.63527 0.56949 0.0
N199 N 0.0016 0.52269 0.36359 0.0
C200 C 0.0734 0.59941 0.52067 0.0
C201 C 0.02103 0.54131 0.41558 0.0
N202 N 0.94517 0.64296 0.52441 0.0
N203 N 0.13027 0.47438 0.416 0.0
H204 H 0.94659 0.52898 0.34444 0.0
H205 H 0.04591 0.50953 0.33825 0.0
H206 H 0.18471 0.46329 0.43237 0.0
H207 H 0.10241 0.43697 0.38135 0.0
H208 H 0.95222 0.65697 0.56442 0.0
H209 H 0.8925 0.65534 0.50676 0.0
H210 H 0.08733 0.68063 0.58948 0.0
H211 H 0.15839 0.62482 0.58911 0.0
C212 C 0.57286 0.81179 0.20539 0.0
C213 C 0.58146 0.88067 0.24364 0.0
C214 C 0.60307 0.7768 0.31184 0.0
C215 C 0.6137 0.72053 0.27199 0.0
N216 N 0.62301 0.69637 0.1786 0.0
N217 N 0.61657 0.93645 0.33256 0.0
C218 C 0.60128 0.74015 0.21814 0.0
C219 C 0.59884 0.86485 0.29685 0.0
N220 N 0.53537 0.81313 0.1572 0.0
N221 N 0.59435 0.7445 0.36408 0.0
H222 H 0.61411 0.00205 0.32319 0.0
H223 H 0.64285 0.93544 0.36995 0.0
H224 H 0.59247 0.67749 0.37647 0.0
H225 H 0.57774 0.77738 0.39449 0.0
H226 H 0.5184 0.75782 0.12971 0.0
H227 H 0.51056 0.86223 0.14708 0.0
H228 H 0.62712 0.71846 0.13855 0.0
H229 H 0.64534 0.64439 0.18548 0.0
C230 C 0.87476 0.60278 0.71707 0.0
C231 C 0.95449 0.6772 0.74798 0.0
C232 C 0.83382 0.69954 0.7981 0.0
C233 C 0.75585 0.63015 0.76514 0.0
N234 N 0.69126 0.49124 0.70592 0.0
N235 N 0.0035 0.76498 0.82932 0.0
C236 C 0.7728 0.57328 0.72882 0.0
C237 C 0.93208 0.71559 0.79239 0.0
N238 N 0.89688 0.56175 0.67611 0.0
N239 N 0.81448 0.75215 0.83352 0.0
H240 H 0.07554 0.77568 0.82653 0.0
H241 H -0.01168 0.7872 0.86475 0.0
H242 H 0.74133 0.73765 0.84033 0.0
H243 H 0.87147 0.81297 0.85428 0.0
H244 H 0.8444 0.51642 0.64847 0.0
H245 H -0.03023 0.57675 0.66801 0.0
H246 H 0.69715 0.43989 0.68301 0.0
H247 H 0.61556 0.46834 0.71411 0.0
C248 C 0.15757 0.87155 0.26033 0.0
C249 C 0.12883 0.94452 0.2627 0.0
C250 C 0.9537 0.80865 0.24127 0.0
C251 C -0.02144 0.73283 0.24614 0.0
N252 N 0.10164 0.68954 0.26674 0.0
N253 N -0.0064 0.97685 0.26652 0.0
C254 C 0.07983 0.76359 0.2577 0.0
C255 C 0.02513 0.91159 0.25637 0.0
N256 N 0.25921 0.90561 0.25752 0.0
N257 N 0.86476 0.78438 0.21914 0.0
H258 H 0.04246 0.05165 0.27976 0.0
H259 H 0.91654 0.95235 0.26714 0.0
H260 H 0.81314 0.71071 0.20548 0.0
H261 H 0.84769 0.83998 0.20975 0.0
H262 H 0.28446 0.85683 0.24997 0.0
H263 H 0.31911 0.98451 0.25716 0.0
H264 H 0.17056 0.70595 0.28148 0.0
H265 H 0.047 0.61001 0.26378 0.0
C266 C 0.21309 0.10252 0.69595 0.0
C267 C 0.28349 0.20238 0.66977 0.0
C268 C 0.41755 0.16485 0.66959 0.0
C269 C 0.35103 0.07145 0.70174 0.0
N270 N 0.19212 0.96236 0.75469 0.0
N271 N 0.4586 0.33714 0.64074 0.0
C272 C 0.25017 0.04258 0.71708 0.0
C273 C 0.3872 0.23569 0.6585 0.0
N274 N 0.11048 0.06422 0.7001 0.0
N275 N 0.50934 0.18552 0.64935 0.0
H276 H 0.44094 0.39277 0.63291 0.0
H277 H 0.53703 0.3682 0.63838 0.0
H278 H 0.53379 0.1352 0.65689 0.0
H279 H 0.55652 0.24733 0.62141 0.0
H280 H 0.05438 0.98747 0.71419 0.0
H281 H 0.08061 0.10585 0.68462 0.0
H282 H 0.12382 0.94737 0.77213 0.0
H283 H 0.21711 0.91765 0.77205 0.0
C284 C 0.09368 0.28792 0.32327 0.0
C285 C 0.19081 0.37858 0.30547 0.0
C286 C 0.10725 0.445 0.25251 0.0
C287 C 0.00988 0.35132 0.26734 0.0
N288 N 0.91142 0.17567 0.30876 0.0
N289 N 0.28294 0.56139 0.27685 0.0
C290 C 0.00338 0.27057 0.30069 0.0
C291 C 0.19541 0.46274 0.27715 0.0
N292 N 0.08685 0.2248 0.36538 0.0
N293 N 0.11731 0.51607 0.21395 0.0
H294 H 0.34556 0.57704 0.29864 0.0
H295 H 0.28818 0.62841 0.26112 0.0
H296 H 0.05635 0.50867 0.19399 0.0
H297 H 0.18866 0.57907 0.19832 0.0
H298 H 0.01742 0.16131 0.38246 0.0
H299 H 0.14913 0.24574 0.38853 0.0
H300 H 0.90366 0.10983 0.32798 0.0
H301 H 0.84462 0.15971 0.29126 0.0
C302 C 0.83406 0.20763 0.76916 0.0
C303 C 0.89628 0.26231 0.72214 0.0
C304 C 0.76284 0.12315 0.67091 0.0
C305 C 0.71401 0.05919 0.71843 0.0
N306 N 0.71618 0.03718 0.81377 0.0
N307 N 0.92294 0.26515 0.62731 0.0
C308 C 0.75208 0.10069 0.768 0.0
C309 C 0.86092 0.2191 0.67249 0.0
N310 N 0.85141 0.25818 0.81476 0.0
N311 N 0.71532 0.09192 0.6243 0.0
H312 H -0.00289 0.33241 0.62688 0.0
H313 H 0.90454 0.23078 0.59114 0.0
H314 H 0.64248 0.023 0.62237 0.0
H315 H 0.74294 0.13952 0.5891 0.0
H316 H 0.80272 0.22348 0.84886 0.0
H317 H 0.90646 0.33831 0.81646 0.0
H318 H 0.74972 0.06247 0.84988 0.0
H319 H 0.65993 0.95703 0.81503 0.0
loop_
_geom_bond_atom_site_label_1
_geom_bond_atom_site_label_2
_geom_bond_distance
_geom_bond_site_symmetry_2
_ccdc_geom_bond_type
Zn0 O2 1.933 . S
Zn0 O20 1.985 . S
Zn0 O31 1.955 . S
Zn1 O2 1.911 . S
Zn1 O21 1.970 1_655 S
Zn1 O37 1.945 1_655 S
Zn1 O44 1.981 . S
O2 Zn0 1.933 . S
O2 Zn1 1.911 . S
O2 H3 0.841 . S
H3 O2 0.841 . S
C4 O5 1.246 . S
C4 O33 1.276 1_545 S
O5 C4 1.246 . S
Zn6 O8 1.911 . S
Zn6 O23 1.970 . S
Zn6 O40 1.945 . S
Zn6 O47 1.981 . S
Zn7 O8 1.933 . S
Zn7 O22 1.985 . S
Zn7 O29 1.955 . S
O8 Zn6 1.911 . S
O8 Zn7 1.933 . S
O8 H9 0.841 . S
H9 O8 0.841 . S
Zn10 O11 1.933 . S
Zn10 O24 1.985 . S
Zn10 O33 1.955 1_545 S
O11 Zn10 1.933 . S
O11 Zn12 1.911 . S
O11 H13 0.841 . S
Zn12 O11 1.911 . S
Zn12 O25 1.970 . S
Zn12 O41 1.981 . S
Zn12 O43 1.945 . S
H13 O11 0.841 . S
Zn14 O15 1.933 . S
Zn14 O27 1.985 . S
Zn14 O35 1.955 . S
O15 Zn14 1.933 . S
O15 H16 0.841 . S
O15 Zn17 1.911 . S
H16 O15 0.841 . S
Zn17 O15 1.911 . S
Zn17 O28 1.970 . S
Zn17 O38 1.981 . S
Zn17 O46 1.945 . S
C18 O19 1.246 . S
C18 O35 1.276 . S
O19 C18 1.246 . S
O20 Zn0 1.985 . S
O20 C30 1.245 . S
O21 Zn1 1.970 1_455 S
O21 C30 1.263 1_455 S
O22 Zn7 1.985 . S
O22 C34 1.245 . S
O23 Zn6 1.970 . S
O23 C34 1.263 . S
O24 Zn10 1.985 . S
O24 C39 1.245 . S
O25 Zn12 1.970 . S
O25 C39 1.263 . S
C26 O37 1.262 1_655 S
C26 O38 1.245 . S
O27 Zn14 1.985 . S
O27 C45 1.245 . S
O28 Zn17 1.970 . S
O28 C45 1.263 . S
O29 Zn7 1.955 . S
O29 C48 1.276 . S
C30 O20 1.245 . S
C30 O21 1.263 1_655 S
O31 Zn0 1.955 . S
O31 C50 1.276 . S
C32 O40 1.262 . S
C32 O41 1.245 . S
O33 C4 1.276 1_565 S
O33 Zn10 1.955 1_565 S
C34 O22 1.245 . S
C34 O23 1.263 . S
O35 Zn14 1.955 . S
O35 C18 1.276 . S
C36 O43 1.262 . S
C36 O44 1.245 . S
O37 Zn1 1.945 1_455 S
O37 C26 1.262 1_455 S
O38 Zn17 1.981 . S
O38 C26 1.245 . S
C39 O24 1.245 . S
C39 O25 1.263 . S
O40 Zn6 1.945 . S
O40 C32 1.262 . S
O41 Zn12 1.981 . S
O41 C32 1.245 . S
C42 O46 1.262 . S
C42 O47 1.245 . S
O43 Zn12 1.945 . S
O43 C36 1.262 . S
O44 Zn1 1.981 . S
O44 C36 1.245 . S
C45 O27 1.245 . S
C45 O28 1.263 . S
O46 Zn17 1.945 . S
O46 C42 1.262 . S
O47 Zn6 1.981 . S
O47 C42 1.245 . S
C48 O29 1.276 . S
C48 O49 1.246 . S
O49 C48 1.246 . S
C50 O31 1.276 . S
C50 O51 1.246 . S
O51 C50 1.246 . S
Zn52 O54 1.933 . S
Zn52 O72 1.985 . S
Zn52 O83 1.955 . S
Zn53 O54 1.911 . S
Zn53 O73 1.970 . S
Zn53 O89 1.945 . S
Zn53 O96 1.981 . S
O54 Zn52 1.933 . S
O54 Zn53 1.911 . S
O54 H55 0.841 . S
H55 O54 0.841 . S
C56 O57 1.246 . S
C56 O85 1.276 . S
O57 C56 1.246 . S
Zn58 O60 1.911 . S
Zn58 O75 1.970 . S
Zn58 O92 1.945 . S
Zn58 O99 1.981 . S
Zn59 O60 1.933 . S
Zn59 O74 1.985 1_455 S
Zn59 O81 1.955 1_455 S
O60 Zn58 1.911 . S
O60 Zn59 1.933 . S
O60 H61 0.841 . S
H61 O60 0.841 . S
Zn62 O63 1.933 . S
Zn62 O76 1.985 . S
Zn62 O85 1.955 . S
O63 Zn62 1.933 . S
O63 Zn64 1.911 . S
O63 H65 0.841 . S
Zn64 O63 1.911 . S
Zn64 O77 1.970 . S
Zn64 O93 1.981 . S
Zn64 O95 1.945 . S
H65 O63 0.841 . S
Zn66 O67 1.933 . S
Zn66 O79 1.985 . S
Zn66 O87 1.955 . S
O67 Zn66 1.933 . S
O67 H68 0.841 . S
O67 Zn69 1.911 . S
H68 O67 0.841 . S
Zn69 O67 1.911 . S
Zn69 O80 1.970 . S
Zn69 O90 1.981 . S
Zn69 O98 1.945 1_565 S
C70 O71 1.246 . S
C70 O87 1.276 . S
O71 C70 1.246 . S
O72 Zn52 1.985 . S
O72 C82 1.245 . S
O73 Zn53 1.970 . S
O73 C82 1.263 . S
O74 Zn59 1.985 1_655 S
O74 C86 1.245 1_655 S
O75 Zn58 1.970 . S
O75 C86 1.263 . S
O76 Zn62 1.985 . S
O76 C91 1.245 . S
O77 Zn64 1.970 . S
O77 C91 1.263 . S
C78 O89 1.262 . S
C78 O90 1.245 . S
O79 Zn66 1.985 . S
O79 C97 1.245 . S
O80 Zn69 1.970 . S
O80 C97 1.263 . S
O81 Zn59 1.955 1_655 S
O81 C100 1.276 1_655 S
C82 O72 1.245 . S
C82 O73 1.263 . S
O83 Zn52 1.955 . S
O83 C102 1.276 . S
C84 O92 1.262 . S
C84 O93 1.245 . S
O85 C56 1.276 . S
O85 Zn62 1.955 . S
C86 O74 1.245 1_455 S
C86 O75 1.263 . S
O87 Zn66 1.955 . S
O87 C70 1.276 . S
C88 O95 1.262 . S
C88 O96 1.245 . S
O89 Zn53 1.945 . S
O89 C78 1.262 . S
O90 Zn69 1.981 . S
O90 C78 1.245 . S
C91 O76 1.245 . S
C91 O77 1.263 . S
O92 Zn58 1.945 . S
O92 C84 1.262 . S
O93 Zn64 1.981 . S
O93 C84 1.245 . S
C94 O98 1.262 . S
C94 O99 1.245 1_545 S
O95 Zn64 1.945 . S
O95 C88 1.262 . S
O96 Zn53 1.981 . S
O96 C88 1.245 . S
C97 O79 1.245 . S
C97 O80 1.263 . S
O98 Zn69 1.945 1_545 S
O98 C94 1.262 . S
O99 Zn58 1.981 . S
O99 C94 1.245 1_565 S
C100 O81 1.276 1_455 S
C100 O101 1.246 . S
O101 C100 1.246 . S
C102 O83 1.276 . S
C102 O103 1.246 . S
O103 C102 1.246 . S
C104 C105 1.363 . S
C104 C110 1.379 1_565 S
C104 N112 1.356 . S
C105 C104 1.363 . S
C105 C111 1.363 1_556 S
C106 C107 1.363 . S
C106 C111 1.379 1_545 S
C106 N113 1.356 . S
C107 C106 1.363 . S
C107 C110 1.363 1_554 S
N108 C110 1.356 . S
N108 H120 0.984 . S
N108 H121 0.985 1_556 S
N109 C111 1.356 . S
N109 H114 0.984 1_554 S
N109 H115 0.985 1_565 S
C110 C104 1.379 1_545 S
C110 C107 1.363 1_556 S
C110 N108 1.356 . S
C111 C105 1.363 1_554 S
C111 C106 1.379 1_565 S
C111 N109 1.356 . S
N112 C104 1.356 . S
N112 H118 0.984 . S
N112 H119 0.984 . S
N113 C106 1.356 . S
N113 H116 0.984 . S
N113 H117 0.985 . S
H114 N109 0.984 1_556 S
H115 N109 0.985 1_545 S
H116 N113 0.984 . S
H117 N113 0.985 . S
H118 N112 0.984 . S
H119 N112 0.984 . S
H120 N108 0.984 . S
H121 N108 0.985 1_554 S
C122 C123 1.363 . S
C122 C128 1.379 . S
C122 N130 1.356 . S
C123 C122 1.363 . S
C123 C129 1.363 . S
C124 C125 1.363 . S
C124 C129 1.379 . S
C124 N131 1.356 . S
C125 C124 1.363 . S
C125 C128 1.363 . S
N126 C128 1.356 . S
N126 H138 0.984 . S
N126 H139 0.985 . S
N127 C129 1.356 . S
N127 H132 0.984 . S
N127 H133 0.985 . S
C128 C122 1.379 . S
C128 C125 1.363 . S
C128 N126 1.356 . S
C129 C123 1.363 . S
C129 C124 1.379 . S
C129 N127 1.356 . S
N130 C122 1.356 . S
N130 H136 0.984 . S
N130 H137 0.984 . S
N131 C124 1.356 . S
N131 H134 0.984 . S
N131 H135 0.985 . S
H132 N127 0.984 . S
H133 N127 0.985 . S
H134 N131 0.984 . S
H135 N131 0.985 . S
H136 N130 0.984 . S
H137 N130 0.984 . S
H138 N126 0.984 . S
H139 N126 0.985 . S
C140 C141 1.363 . S
C140 C146 1.379 1_654 S
C140 N148 1.356 . S
C141 C140 1.363 . S
C141 C147 1.363 . S
C142 C143 1.363 . S
C142 C147 1.379 1_456 S
C142 N149 1.356 . S
C143 C142 1.363 . S
C143 C146 1.363 . S
N144 C146 1.356 . S
N144 H156 0.984 . S
N144 H157 0.985 . S
N145 C147 1.356 . S
N145 H150 0.984 . S
N145 H151 0.985 . S
C146 C140 1.379 1_456 S
C146 C143 1.363 . S
C146 N144 1.356 . S
C147 C141 1.363 . S
C147 C142 1.379 1_654 S
C147 N145 1.356 . S
N148 C140 1.356 . S
N148 H154 0.984 . S
N148 H155 0.984 . S
N149 C142 1.356 . S
N149 H152 0.984 . S
N149 H153 0.985 . S
H150 N145 0.984 . S
H151 N145 0.985 . S
H152 N149 0.984 . S
H153 N149 0.985 . S
H154 N148 0.984 . S
H155 N148 0.984 . S
H156 N144 0.984 . S
H157 N144 0.985 . S
C158 C159 1.363 1_545 S
C158 C164 1.379 . S
C158 N166 1.356 . S
C159 C158 1.363 1_565 S
C159 C165 1.363 . S
C160 C161 1.363 1_565 S
C160 C165 1.379 . S
C160 N167 1.356 . S
C161 C160 1.363 1_545 S
C161 C164 1.363 . S
N162 C164 1.356 . S
N162 H174 0.984 . S
N162 H175 0.985 . S
N163 C165 1.356 . S
N163 H168 0.984 . S
N163 H169 0.985 . S
C164 C158 1.379 . S
C164 C161 1.363 . S
C164 N162 1.356 . S
C165 C159 1.363 . S
C165 C160 1.379 . S
C165 N163 1.356 . S
N166 C158 1.356 . S
N166 H172 0.984 . S
N166 H173 0.984 1_545 S
N167 C160 1.356 . S
N167 H170 0.984 1_565 S
N167 H171 0.985 . S
H168 N163 0.984 . S
H169 N163 0.985 . S
H170 N167 0.984 1_545 S
H171 N167 0.985 . S
H172 N166 0.984 . S
H173 N166 0.984 1_565 S
H174 N162 0.984 . S
H175 N162 0.985 . S
C176 C177 1.363 . S
C176 C182 1.379 . S
C176 N184 1.356 . S
C177 C176 1.363 . S
C177 C183 1.363 1_554 S
C178 C179 1.363 . S
C178 C183 1.379 . S
C178 N185 1.356 . S
C179 C178 1.363 . S
C179 C182 1.363 1_556 S
N180 C182 1.356 . S
N180 H192 0.984 . S
N180 H193 0.985 1_554 S
N181 C183 1.356 . S
N181 H186 0.984 1_556 S
N181 H187 0.985 . S
C182 C176 1.379 . S
C182 C179 1.363 1_554 S
C182 N180 1.356 . S
C183 C177 1.363 1_556 S
C183 C178 1.379 . S
C183 N181 1.356 . S
N184 C176 1.356 . S
N184 H190 0.984 . S
N184 H191 0.984 . S
N185 C178 1.356 . S
N185 H188 0.984 . S
N185 H189 0.985 . S
H186 N181 0.984 1_554 S
H187 N181 0.985 . S
H188 N185 0.984 . S
H189 N185 0.985 . S
H190 N184 0.984 . S
H191 N184 0.984 . S
H192 N180 0.984 . S
H193 N180 0.985 1_556 S
C194 C195 1.363 1_455 S
C194 C200 1.379 . S
C194 N202 1.356 . S
C195 C194 1.363 1_655 S
C195 C201 1.363 . S
C196 C197 1.363 1_655 S
C196 C201 1.379 . S
C196 N203 1.356 . S
C197 C196 1.363 1_455 S
C197 C200 1.363 . S
N198 C200 1.356 . S
N198 H210 0.984 . S
N198 H211 0.985 . S
N199 C201 1.356 . S
N199 H204 0.984 . S
N199 H205 0.985 . S
C200 C194 1.379 . S
C200 C197 1.363 . S
C200 N198 1.356 . S
C201 C195 1.363 . S
C201 C196 1.379 . S
C201 N199 1.356 . S
N202 C194 1.356 . S
N202 H208 0.984 . S
N202 H209 0.984 1_455 S
N203 C196 1.356 . S
N203 H206 0.984 1_655 S
N203 H207 0.985 . S
H204 N199 0.984 . S
H205 N199 0.985 . S
H206 N203 0.984 1_455 S
H207 N203 0.985 . S
H208 N202 0.984 . S
H209 N202 0.984 1_655 S
H210 N198 0.984 . S
H211 N198 0.985 . S
C212 C213 1.363 . S
C212 C218 1.379 . S
C212 N220 1.356 . S
C213 C212 1.363 . S
C213 C219 1.363 . S
C214 C215 1.363 . S
C214 C219 1.379 . S
C214 N221 1.356 . S
C215 C214 1.363 . S
C215 C218 1.363 . S
N216 C218 1.356 . S
N216 H228 0.984 . S
N216 H229 0.985 . S
N217 C219 1.356 . S
N217 H222 0.984 1_565 S
N217 H223 0.985 . S
C218 C212 1.379 . S
C218 C215 1.363 . S
C218 N216 1.356 . S
C219 C213 1.363 . S
C219 C214 1.379 . S
C219 N217 1.356 . S
N220 C212 1.356 . S
N220 H226 0.984 . S
N220 H227 0.984 . S
N221 C214 1.356 . S
N221 H224 0.984 . S
N221 H225 0.985 . S
H222 N217 0.984 1_545 S
H223 N217 0.985 . S
H224 N221 0.984 . S
H225 N221 0.985 . S
H226 N220 0.984 . S
H227 N220 0.984 . S
H228 N216 0.984 . S
H229 N216 0.985 . S
C230 C231 1.363 . S
C230 C236 1.379 . S
C230 N238 1.356 1_655 S
C231 C230 1.363 . S
C231 C237 1.363 . S
C232 C233 1.363 . S
C232 C237 1.379 . S
C232 N239 1.356 . S
C233 C232 1.363 . S
C233 C236 1.363 . S
N234 C236 1.356 . S
N234 H246 0.984 . S
N234 H247 0.985 . S
N235 C237 1.356 . S
N235 H240 0.984 . S
N235 H241 0.985 . S
C236 C230 1.379 . S
C236 C233 1.363 . S
C236 N234 1.356 . S
C237 C231 1.363 . S
C237 C232 1.379 . S
C237 N235 1.356 . S
N238 C230 1.356 1_455 S
N238 H244 0.984 . S
N238 H245 0.984 . S
N239 C232 1.356 . S
N239 H242 0.984 . S
N239 H243 0.985 . S
H240 N235 0.984 . S
H241 N235 0.985 . S
H242 N239 0.984 . S
H243 N239 0.985 . S
H244 N238 0.984 . S
H245 N238 0.984 . S
H246 N234 0.984 . S
H247 N234 0.985 . S
C248 C249 1.363 . S
C248 C254 1.379 . S
C248 N256 1.356 . S
C249 C248 1.363 . S
C249 C255 1.363 . S
C250 C251 1.363 . S
C250 C255 1.379 . S
C250 N257 1.356 . S
C251 C250 1.363 . S
C251 C254 1.363 . S
N252 C254 1.356 . S
N252 H264 0.984 . S
N252 H265 0.985 . S
N253 C255 1.356 . S
N253 H258 0.984 1_565 S
N253 H259 0.985 1_565 S
C254 C248 1.379 . S
C254 C251 1.363 . S
C254 N252 1.356 . S
C255 C249 1.363 . S
C255 C250 1.379 . S
C255 N253 1.356 . S
N256 C248 1.356 . S
N256 H262 0.984 . S
N256 H263 0.984 . S
N257 C250 1.356 . S
N257 H260 0.984 1_455 S
N257 H261 0.985 1_455 S
H258 N253 0.984 1_545 S
H259 N253 0.985 1_545 S
H260 N257 0.984 1_655 S
H261 N257 0.985 1_655 S
H262 N256 0.984 . S
H263 N256 0.984 . S
H264 N252 0.984 . S
H265 N252 0.985 . S
C266 C267 1.363 . S
C266 C272 1.379 . S
C266 N274 1.356 . S
C267 C266 1.363 . S
C267 C273 1.363 . S
C268 C269 1.363 . S
C268 C273 1.379 . S
C268 N275 1.356 . S
C269 C268 1.363 . S
C269 C272 1.363 . S
N270 C272 1.356 . S
N270 H282 0.984 . S
N270 H283 0.985 . S
N271 C273 1.356 . S
N271 H276 0.984 . S
N271 H277 0.985 . S
C272 C266 1.379 . S
C272 C269 1.363 . S
C272 N270 1.356 . S
C273 C267 1.363 . S
C273 C268 1.379 . S
C273 N271 1.356 . S
N274 C266 1.356 . S
N274 H280 0.984 . S
N274 H281 0.984 . S
N275 C268 1.356 . S
N275 H278 0.984 1_545 S
N275 H279 0.985 . S
H276 N271 0.984 . S
H277 N271 0.985 . S
H278 N275 0.984 1_565 S
H279 N275 0.985 . S
H280 N274 0.984 . S
H281 N274 0.984 . S
H282 N270 0.984 . S
H283 N270 0.985 . S
C284 C285 1.363 . S
C284 C290 1.379 . S
C284 N292 1.356 . S
C285 C284 1.363 . S
C285 C291 1.363 . S
C286 C287 1.363 . S
C286 C291 1.379 . S
C286 N293 1.356 . S
C287 C286 1.363 . S
C287 C290 1.363 . S
N288 C290 1.356 . S
N288 H300 0.984 . S
N288 H301 0.985 1_455 S
N289 C291 1.356 . S
N289 H294 0.984 . S
N289 H295 0.985 . S
C290 C284 1.379 . S
C290 C287 1.363 . S
C290 N288 1.356 . S
C291 C285 1.363 . S
C291 C286 1.379 . S
C291 N289 1.356 . S
N292 C284 1.356 . S
N292 H298 0.984 . S
N292 H299 0.984 . S
N293 C286 1.356 . S
N293 H296 0.984 1_455 S
N293 H297 0.985 . S
H294 N289 0.984 . S
H295 N289 0.985 . S
H296 N293 0.984 1_655 S
H297 N293 0.985 . S
H298 N292 0.984 . S
H299 N292 0.984 . S
H300 N288 0.984 . S
H301 N288 0.985 1_655 S
C302 C303 1.363 . S
C302 C308 1.379 . S
C302 N310 1.356 1_655 S
C303 C302 1.363 . S
C303 C309 1.363 . S
C304 C305 1.363 . S
C304 C309 1.379 . S
C304 N311 1.356 . S
C305 C304 1.363 . S
C305 C308 1.363 . S
N306 C308 1.356 . S
N306 H318 0.984 . S
N306 H319 0.985 1_545 S
N307 C309 1.356 . S
N307 H312 0.984 . S
N307 H313 0.985 . S
C308 C302 1.379 . S
C308 C305 1.363 . S
C308 N306 1.356 . S
C309 C303 1.363 . S
C309 C304 1.379 . S
C309 N307 1.356 . S
N310 C302 1.356 1_455 S
N310 H316 0.984 . S
N310 H317 0.984 . S
N311 C304 1.356 . S
N311 H314 0.984 . S
N311 H315 0.985 . S
H312 N307 0.984 . S
H313 N307 0.985 . S
H314 N311 0.984 . S
H315 N311 0.985 . S
H316 N310 0.984 . S
H317 N310 0.984 . S
H318 N306 0.984 . S
H319 N306 0.985 1_565 S
C105 C97 0.859 . S
C107 C39 0.859 . S
C123 C88 2.736 . S
C125 C18 2.706 . S
C141 C36 1.758 . S
C143 C70 1.743 . S
C159 C84 2.879 . S
C161 C50 2.886 . S
C177 C32 1.788 . S
C179 C102 1.771 . S
C195 C45 2.317 . S
C197 C91 2.319 . S
C213 C4 1.437 1_565 S
C215 C42 1.447 . S
C231 C86 0.986 1_655 S
C233 C82 0.987 . S
C249 C48 1.443 1_565 S
C251 C26 1.453 1_455 S
C267 C56 1.437 . S
C269 C94 1.447 . S
C285 C34 0.985 . S
C287 C30 0.986 1_455 S
C303 C100 1.443 1_655 S
C305 C78 1.453 1_545 S
