# Generated by pormake.
# Topology fnd, (5)-cn, num edge types: 1
# Building blocks:
#     Node 0, Type 0, BuildingBlock: BEQFEK_clean_sbu_0, # of connection points: 5
#     Node 1, Type 0, BuildingBlock: BEQFEK_clean_sbu_0, # of connection points: 5
#     Node 2, Type 0, BuildingBlock: BEQFEK_clean_sbu_0, # of connection points: 5
#     Node 3, Type 0, BuildingBlock: BEQFEK_clean_sbu_0, # of connection points: 5
#     Node 4, Type 0, BuildingBlock: BEQFEK_clean_sbu_0, # of connection points: 5
#     Node 5, Type 0, BuildingBlock: BEQFEK_clean_sbu_0, # of connection points: 5
#     Node 6, Type 0, BuildingBlock: BEQFEK_clean_sbu_0, # of connection points: 5
#     Node 7, Type 0, BuildingBlock: BEQFEK_clean_sbu_0, # of connection points: 5
#     Node 8, Type 0, BuildingBlock: BEQFEK_clean_sbu_0, # of connection points: 5
#     Node 9, Type 0, BuildingBlock: BEQFEK_clean_sbu_0, # of connection points: 5
#     Node 10, Type 0, BuildingBlock: BEQFEK_clean_sbu_0, # of connection points: 5
#     Node 11, Type 0, BuildingBlock: BEQFEK_clean_sbu_0, # of connection points: 5
#     Node 12, Type 0, BuildingBlock: BEQFEK_clean_sbu_0, # of connection points: 5
#     Node 13, Type 0, BuildingBlock: BEQFEK_clean_sbu_0, # of connection points: 5
#     Node 14, Type 0, BuildingBlock: BEQFEK_clean_sbu_0, # of connection points: 5
#     Node 15, Type 0, BuildingBlock: BEQFEK_clean_sbu_0, # of connection points: 5
#     Node 16, Type 0, BuildingBlock: BEQFEK_clean_sbu_0, # of connection points: 5
#     Node 17, Type 0, BuildingBlock: BEQFEK_clean_sbu_0, # of connection points: 5
#     Edge 18, Type (0, 0), BuildingBlock: CIFDUS_clean_linker_0, # of connection points: 2
#     Edge 19, Type (0, 0), BuildingBlock: CIFDUS_clean_linker_0, # of connection points: 2
#     Edge 20, Type (0, 0), BuildingBlock: CIFDUS_clean_linker_0, # of connection points: 2
#     Edge 21, Type (0, 0), BuildingBlock: CIFDUS_clean_linker_0, # of connection points: 2
#     Edge 22, Type (0, 0), BuildingBlock: CIFDUS_clean_linker_0, # of connection points: 2
#     Edge 23, Type (0, 0), BuildingBlock: CIFDUS_clean_linker_0, # of connection points: 2
#     Edge 24, Type (0, 0), BuildingBlock: CIFDUS_clean_linker_0, # of connection points: 2
#     Edge 25, Type (0, 0), BuildingBlock: CIFDUS_clean_linker_0, # of connection points: 2
#     Edge 26, Type (0, 0), BuildingBlock: CIFDUS_clean_linker_0, # of connection points: 2
#     Edge 27, Type (0, 0), BuildingBlock: CIFDUS_clean_linker_0, # of connection points: 2
#     Edge 28, Type (0, 0), BuildingBlock: CIFDUS_clean_linker_0, # of connection points: 2
#     Edge 29, Type (0, 0), BuildingBlock: CIFDUS_clean_linker_0, # of connection points: 2
#     Edge 30, Type (0, 0), BuildingBlock: CIFDUS_clean_linker_0, # of connection points: 2
#     Edge 31, Type (0, 0), BuildingBlock: CIFDUS_clean_linker_0, # of connection points: 2
#     Edge 32, Type (0, 0), BuildingBlock: CIFDUS_clean_linker_0, # of connection points: 2
#     Edge 33, Type (0, 0), BuildingBlock: CIFDUS_clean_linker_0, # of connection points: 2
#     Edge 34, Type (0, 0), BuildingBlock: CIFDUS_clean_linker_0, # of connection points: 2
#     Edge 35, Type (0, 0), BuildingBlock: CIFDUS_clean_linker_0, # of connection points: 2
#     Edge 36, Type (0, 0), BuildingBlock: CIFDUS_clean_linker_0, # of connection points: 2
#     Edge 37, Type (0, 0), BuildingBlock: CIFDUS_clean_linker_0, # of connection points: 2
#     Edge 38, Type (0, 0), BuildingBlock: CIFDUS_clean_linker_0, # of connection points: 2
#     Edge 39, Type (0, 0), BuildingBlock: CIFDUS_clean_linker_0, # of connection points: 2
#     Edge 40, Type (0, 0), BuildingBlock: CIFDUS_clean_linker_0, # of connection points: 2
#     Edge 41, Type (0, 0), BuildingBlock: CIFDUS_clean_linker_0, # of connection points: 2
#     Edge 42, Type (0, 0), BuildingBlock: CIFDUS_clean_linker_0, # of connection points: 2
#     Edge 43, Type (0, 0), BuildingBlock: CIFDUS_clean_linker_0, # of connection points: 2
#     Edge 44, Type (0, 0), BuildingBlock: CIFDUS_clean_linker_0, # of connection points: 2
#     Edge 45, Type (0, 0), BuildingBlock: CIFDUS_clean_linker_0, # of connection points: 2
#     Edge 46, Type (0, 0), BuildingBlock: CIFDUS_clean_linker_0, # of connection points: 2
#     Edge 47, Type (0, 0), BuildingBlock: CIFDUS_clean_linker_0, # of connection points: 2
#     Edge 48, Type (0, 0), BuildingBlock: CIFDUS_clean_linker_0, # of connection points: 2
#     Edge 49, Type (0, 0), BuildingBlock: CIFDUS_clean_linker_0, # of connection points: 2
#     Edge 50, Type (0, 0), BuildingBlock: CIFDUS_clean_linker_0, # of connection points: 2
#     Edge 51, Type (0, 0), BuildingBlock: CIFDUS_clean_linker_0, # of connection points: 2
#     Edge 52, Type (0, 0), BuildingBlock: CIFDUS_clean_linker_0, # of connection points: 2
#     Edge 53, Type (0, 0), BuildingBlock: CIFDUS_clean_linker_0, # of connection points: 2
#     Edge 54, Type (0, 0), BuildingBlock: CIFDUS_clean_linker_0, # of connection points: 2
#     Edge 55, Type (0, 0), BuildingBlock: CIFDUS_clean_linker_0, # of connection points: 2
#     Edge 56, Type (0, 0), BuildingBlock: CIFDUS_clean_linker_0, # of connection points: 2
#     Edge 57, Type (0, 0), BuildingBlock: CIFDUS_clean_linker_0, # of connection points: 2
#     Edge 58, Type (0, 0), BuildingBlock: CIFDUS_clean_linker_0, # of connection points: 2
#     Edge 59, Type (0, 0), BuildingBlock: CIFDUS_clean_linker_0, # of connection points: 2
#     Edge 60, Type (0, 0), BuildingBlock: CIFDUS_clean_linker_0, # of connection points: 2
#     Edge 61, Type (0, 0), BuildingBlock: CIFDUS_clean_linker_0, # of connection points: 2
#     Edge 62, Type (0, 0), BuildingBlock: CIFDUS_clean_linker_0, # of connection points: 2
# Relax obj value: 0.145
# Max RMSD: 0.197
# Mean RMSD: 0.197
data_MOF--net-fnd--node1-BEQFEK_clean_sbu_0--edge1-CIFDUS_clean_linker_0
_symmetry_space_group_name_H-M    P1
_symmetry_Int_Tables_number       1
_symmetry_cell_setting            triclinic
loop_
_symmetry_equiv_pos_as_xyz
'x, y, z'
_cell_length_a     70.69159
_cell_length_b     70.698269
_cell_length_c     17.405594
_cell_angle_alpha  89.911353
_cell_angle_beta   90.071128
_cell_angle_gamma 120.01563
loop_
_atom_site_label
_atom_site_type_symbol
_atom_site_fract_x
_atom_site_fract_y
_atom_site_fract_z
_atom_type_partial_charge
Co0 Co 0.10791 0.21856 0.52989 0.0
Co1 Co 0.10322 0.2075 0.35384 0.0
C2 C 0.12593 0.19185 0.45669 0.0
O3 O 0.12163 0.20055 0.51296 0.0
O4 O 0.12034 0.1934 0.38812 0.0
C5 C 0.12978 0.23129 0.67809 0.0
O6 O 0.14708 0.23317 0.643 0.0
C7 C 0.10855 0.2061 0.18191 0.0
C8 C 0.07669 0.20227 0.14758 0.0
C9 C 0.09581 0.20437 0.11811 0.0
N10 N 0.09733 0.20521 0.24579 0.0
N11 N 0.07832 0.20284 0.22429 0.0
C12 C 0.13051 0.20781 0.18254 0.0
H13 H 0.1336 0.20251 0.2389 0.0
H14 H 0.14332 0.22505 0.17279 0.0
H15 H 0.13162 0.19776 0.13572 0.0
C16 C 0.12907 0.26401 0.46726 0.0
N17 N 0.11911 0.24214 0.45883 0.0
N18 N 0.11712 0.23739 0.38501 0.0
C19 C 0.12563 0.25609 0.34421 0.0
C20 C 0.13366 0.27359 0.39475 0.0
C21 C 0.13456 0.27528 0.54343 0.0
H22 H 0.14437 0.26996 0.57732 0.0
H23 H 0.14389 0.29331 0.53719 0.0
H24 H 0.11925 0.27032 0.5757 0.0
O25 O 0.07579 0.20025 0.52011 0.0
O26 O 0.0734 0.19134 0.39746 0.0
H27 H 0.13012 0.27386 0.23732 0.0
H28 H 0.1349 0.25109 0.23267 0.0
C29 C 0.12458 0.2571 0.25845 0.0
H30 H 0.10752 0.24648 0.23911 0.0
H31 H 0.06653 0.20205 0.26214 0.0
O32 O 0.11296 0.22736 0.63919 0.0
C33 C 0.06442 0.19004 0.46187 0.0
Co34 Co 0.77979 0.8871 0.57224 0.0
Co35 Co 0.79305 0.89415 0.39677 0.0
C36 C 0.80823 0.93204 0.50096 0.0
O37 O 0.79837 0.91866 0.55545 0.0
O38 O 0.80757 0.9254 0.43212 0.0
C39 C 0.76805 0.89688 0.72135 0.0
O40 O 0.76782 0.91333 0.68707 0.0
C41 C 0.79604 0.90101 0.22373 0.0
C42 C 0.796 0.87075 0.19176 0.0
C43 C 0.79604 0.88879 0.16072 0.0
N44 N 0.79561 0.89027 0.28859 0.0
N45 N 0.7958 0.87235 0.26842 0.0
C46 C 0.79701 0.92264 0.22262 0.0
H47 H 0.80324 0.93118 0.27825 0.0
H48 H 0.7804 0.92014 0.2132 0.0
H49 H 0.80761 0.93287 0.17487 0.0
C50 C 0.73515 0.8631 0.50315 0.0
N51 N 0.7571 0.87514 0.49814 0.0
N52 N 0.76279 0.87848 0.4251 0.0
C53 C 0.74459 0.86868 0.38157 0.0
C54 C 0.72651 0.85847 0.42926 0.0
C55 C 0.72289 0.85572 0.57725 0.0
H56 H 0.73204 0.85135 0.61866 0.0
H57 H 0.72147 0.86939 0.6022 0.0
H58 H 0.70625 0.84155 0.56838 0.0
O59 O 0.79795 0.87336 0.56494 0.0
O60 O 0.80854 0.87993 0.44355 0.0
H61 H 0.75105 0.86035 0.27042 0.0
H62 H 0.72772 0.8643 0.27296 0.0
C63 C 0.74439 0.87018 0.29585 0.0
H64 H 0.7548 0.88742 0.27839 0.0
H65 H 0.79523 0.86083 0.30726 0.0
O66 O 0.77044 0.88315 0.6815 0.0
C67 C 0.80887 0.87217 0.50918 0.0
Co68 Co 0.11277 0.89333 0.55834 0.0
Co69 Co 0.10577 0.89919 0.38492 0.0
C70 C 0.06785 0.87603 0.49099 0.0
O71 O 0.08082 0.87964 0.54688 0.0
O72 O 0.07504 0.88229 0.42307 0.0
C73 C 0.10417 0.87401 0.70861 0.0
O74 O 0.08459 0.86087 0.68092 0.0
C75 C 0.09538 0.88768 0.22185 0.0
C76 C 0.11896 0.91899 0.16715 0.0
C77 C 0.10361 0.89747 0.15119 0.0
N78 N 0.1058 0.9027 0.2769 0.0
N79 N 0.11952 0.92147 0.24372 0.0
C80 C 0.07969 0.86408 0.23774 0.0
H81 H 0.08148 0.85991 0.29784 0.0
H82 H 0.08234 0.85354 0.19709 0.0
H83 H 0.06278 0.86092 0.22979 0.0
C84 C 0.13617 0.8721 0.49164 0.0
N85 N 0.12444 0.88227 0.48462 0.0
N86 N 0.12207 0.8852 0.41127 0.0
C87 C 0.13268 0.87735 0.36932 0.0
C88 C 0.14171 0.86856 0.41868 0.0
C89 C 0.14141 0.86553 0.5669 0.0
H90 H 0.1264 0.85721 0.60244 0.0
H91 H 0.14816 0.85448 0.55911 0.0
H92 H 0.15343 0.8804 0.59822 0.0
O93 O 0.12641 0.92549 0.54886 0.0
O94 O 0.12048 0.92927 0.42635 0.0
H95 H 0.13911 0.89637 0.26643 0.0
H96 H 0.15025 0.87844 0.26605 0.0
C97 C 0.13609 0.88006 0.28422 0.0
H98 H 0.12134 0.86731 0.25456 0.0
H99 H 0.13005 0.93572 0.27353 0.0
O100 O 0.11887 0.88799 0.66454 0.0
C101 C 0.12805 0.93752 0.49189 0.0
Co102 Co 0.22124 0.11211 0.40739 0.0
Co103 Co 0.20929 0.10588 0.58323 0.0
C104 C 0.19353 0.1288 0.48089 0.0
O105 O 0.20281 0.12527 0.42461 0.0
O106 O 0.19478 0.12271 0.54901 0.0
C107 C 0.23348 0.1339 0.25846 0.0
O108 O 0.23447 0.15092 0.2927 0.0
C109 C 0.20787 0.11118 0.75517 0.0
C110 C 0.20321 0.07904 0.78986 0.0
C111 C 0.20592 0.09841 0.81925 0.0
N112 N 0.20658 0.09975 0.69138 0.0
N113 N 0.20367 0.08055 0.7131 0.0
C114 C 0.2101 0.13336 0.7541 0.0
H115 H 0.20488 0.13652 0.69771 0.0
H116 H 0.22744 0.14593 0.76346 0.0
H117 H 0.20025 0.1348 0.80092 0.0
C118 C 0.26637 0.13331 0.47235 0.0
N119 N 0.24446 0.12309 0.47983 0.0
N120 N 0.2394 0.12034 0.55344 0.0
C121 C 0.25796 0.12852 0.59499 0.0
C122 C 0.27567 0.1372 0.5452 0.0
C123 C 0.27796 0.13955 0.39675 0.0
H124 H 0.27123 0.14778 0.3609 0.0
H125 H 0.2958 0.15056 0.40398 0.0
H126 H 0.27493 0.12453 0.3661 0.0
O127 O 0.2032 0.08 0.41526 0.0
O128 O 0.1937 0.0762 0.53768 0.0
H129 H 0.24746 0.10919 0.69745 0.0
H130 H 0.27526 0.13097 0.70122 0.0
C131 C 0.25868 0.12634 0.68039 0.0
H132 H 0.25331 0.13691 0.70845 0.0
H133 H 0.20247 0.06856 0.67538 0.0
O134 O 0.2303 0.11744 0.29813 0.0
C135 C 0.19287 0.06796 0.4721 0.0
Co136 Co 0.89305 0.10762 0.48796 0.0
Co137 Co 0.89756 0.0984 0.66096 0.0
C138 C 0.87697 0.06203 0.54803 0.0
O139 O 0.88095 0.07584 0.49478 0.0
O140 O 0.88191 0.06808 0.61778 0.0
C141 C 0.87365 0.09904 0.33822 0.0
O142 O 0.86036 0.07966 0.36714 0.0
C143 C 0.88608 0.0871 0.82496 0.0
C144 C 0.91729 0.1113 0.87862 0.0
C145 C 0.89594 0.09566 0.89541 0.0
N146 N 0.90089 0.09775 0.76932 0.0
N147 N 0.9196 0.11178 0.80205 0.0
C148 C 0.86259 0.07084 0.80991 0.0
H149 H 0.85822 0.07209 0.74957 0.0
H150 H 0.85187 0.07333 0.85015 0.0
H151 H 0.85992 0.05415 0.81935 0.0
C152 C 0.86856 0.12744 0.55729 0.0
N153 N 0.88013 0.11706 0.56301 0.0
N154 N 0.88269 0.11399 0.63609 0.0
C155 C 0.87332 0.12294 0.67916 0.0
C156 C 0.86376 0.1314 0.63086 0.0
C157 C 0.86166 0.13261 0.4826 0.0
H158 H 0.85456 0.11796 0.44518 0.0
H159 H 0.84947 0.13794 0.49096 0.0
H160 H 0.87624 0.14572 0.45296 0.0
O161 O 0.92525 0.12268 0.5008 0.0
O162 O 0.92788 0.11467 0.62195 0.0
H163 H 0.8729 0.13911 0.78396 0.0
H164 H 0.86251 0.11027 0.79214 0.0
C165 C 0.87525 0.12547 0.76467 0.0
H166 H 0.89158 0.12887 0.78376 0.0
H167 H 0.93368 0.12258 0.77195 0.0
O168 O 0.88774 0.11389 0.38162 0.0
C169 C 0.93675 0.12371 0.55865 0.0
Co170 Co 0.89247 0.78044 0.44246 0.0
Co171 Co 0.89928 0.79489 0.61484 0.0
C172 C 0.93724 0.80913 0.5084 0.0
O173 O 0.92436 0.79907 0.45302 0.0
O174 O 0.92996 0.80872 0.57577 0.0
C175 C 0.90095 0.77019 0.29112 0.0
O176 O 0.92076 0.77728 0.31776 0.0
C177 C 0.9097 0.79397 0.77799 0.0
C178 C 0.88745 0.80346 0.83258 0.0
C179 C 0.90199 0.79625 0.84872 0.0
N180 N 0.89976 0.79917 0.72279 0.0
N181 N 0.88686 0.80528 0.75589 0.0
C182 C 0.9243 0.78475 0.76229 0.0
H183 H 0.92215 0.7787 0.70229 0.0
H184 H 0.92088 0.77134 0.80316 0.0
H185 H 0.94154 0.79781 0.77008 0.0
C186 C 0.86938 0.73638 0.51508 0.0
N187 N 0.88109 0.75835 0.5191 0.0
N188 N 0.88301 0.7644 0.59155 0.0
C189 C 0.87188 0.74643 0.63569 0.0
C190 C 0.8632 0.72806 0.58902 0.0
C191 C 0.86455 0.7238 0.44172 0.0
H192 H 0.85078 0.72408 0.41211 0.0
H193 H 0.87899 0.7316 0.40336 0.0
H194 H 0.8601 0.70658 0.45248 0.0
O195 O 0.87861 0.79883 0.44944 0.0
O196 O 0.88421 0.80959 0.57091 0.0
H197 H 0.8649 0.7609 0.73199 0.0
H198 H 0.85194 0.73169 0.73655 0.0
C199 C 0.86708 0.74678 0.71931 0.0
H200 H 0.88079 0.74798 0.75398 0.0
H201 H 0.87678 0.80961 0.726 0.0
O202 O 0.88613 0.76858 0.33653 0.0
C203 C 0.87667 0.80955 0.50452 0.0
Co204 Co 0.77408 0.5539 0.91002 0.0
Co205 Co 0.77058 0.54303 0.73419 0.0
C206 C 0.7912 0.52591 0.83846 0.0
O207 O 0.78693 0.53506 0.89339 0.0
O208 O 0.78629 0.52759 0.76899 0.0
C209 C 0.79582 0.56576 0.05777 0.0
O210 O 0.81286 0.56724 0.02201 0.0
C211 C 0.77439 0.54041 0.56142 0.0
C212 C 0.74615 0.54423 0.53005 0.0
C213 C 0.76277 0.54177 0.49897 0.0
N214 N 0.76498 0.54219 0.62635 0.0
N215 N 0.74813 0.54439 0.60661 0.0
C216 C 0.79354 0.53687 0.55956 0.0
H217 H 0.79528 0.53026 0.61532 0.0
H218 H 0.80865 0.55267 0.54884 0.0
H219 H 0.79167 0.52556 0.51218 0.0
C220 C 0.79747 0.5995 0.84811 0.0
N221 N 0.78648 0.57759 0.84 0.0
N222 N 0.78563 0.57276 0.7666 0.0
C223 C 0.79631 0.59139 0.72583 0.0
C224 C 0.80397 0.60901 0.77575 0.0
C225 C 0.80136 0.61092 0.92362 0.0
H226 H 0.78736 0.60136 0.96269 0.0
H227 H 0.8162 0.6122 0.95049 0.0
H228 H 0.80385 0.62761 0.916 0.0
O229 O 0.74206 0.53645 0.89819 0.0
O230 O 0.74045 0.52752 0.77583 0.0
H231 H 0.78614 0.58866 0.60866 0.0
H232 H 0.81466 0.60833 0.62385 0.0
C233 C 0.80098 0.59218 0.64166 0.0
H234 H 0.8054 0.57962 0.62781 0.0
H235 H 0.73806 0.54633 0.64575 0.0
O236 O 0.7791 0.56237 0.01935 0.0
C237 C 0.73105 0.5264 0.83917 0.0
Co238 Co 0.44993 0.22731 0.85958 0.0
Co239 Co 0.46297 0.23234 0.68641 0.0
C240 C 0.48002 0.27129 0.78736 0.0
O241 O 0.46979 0.25898 0.84391 0.0
O242 O 0.47884 0.26342 0.72053 0.0
C243 C 0.44226 0.23858 0.01008 0.0
O244 O 0.45187 0.25856 0.98268 0.0
C245 C 0.46578 0.24329 0.52174 0.0
C246 C 0.46437 0.21393 0.47123 0.0
C247 C 0.4645 0.23304 0.45238 0.0
N248 N 0.46588 0.23049 0.57877 0.0
N249 N 0.46553 0.21324 0.5481 0.0
C250 C 0.4644 0.26351 0.53441 0.0
H251 H 0.45846 0.26366 0.59324 0.0
H252 H 0.45338 0.26465 0.49151 0.0
H253 H 0.48092 0.27802 0.52772 0.0
C254 C 0.40531 0.20569 0.79195 0.0
N255 N 0.42724 0.21603 0.78564 0.0
N256 N 0.43263 0.21835 0.71248 0.0
C257 C 0.41421 0.20957 0.66978 0.0
C258 C 0.39627 0.20118 0.71864 0.0
C259 C 0.39342 0.19976 0.86702 0.0
H260 H 0.40083 0.19286 0.90618 0.0
H261 H 0.3952 0.21476 0.89419 0.0
H262 H 0.37581 0.18773 0.85944 0.0
O263 O 0.46691 0.21209 0.85455 0.0
O264 O 0.47664 0.21627 0.7321 0.0
H265 H 0.42136 0.20154 0.55912 0.0
H266 H 0.39717 0.20404 0.56052 0.0
C267 C 0.41387 0.21068 0.5839 0.0
H268 H 0.42349 0.22793 0.56567 0.0
H269 H 0.465 0.20045 0.57986 0.0
O270 O 0.43854 0.22282 0.9657 0.0
C271 C 0.47683 0.20914 0.79909 0.0
Co272 Co 0.7762 0.22703 0.84917 0.0
Co273 Co 0.76976 0.23055 0.6729 0.0
C274 C 0.73137 0.20855 0.77436 0.0
O275 O 0.74449 0.21327 0.83066 0.0
O276 O 0.7384 0.21363 0.70548 0.0
C277 C 0.767 0.2052 0.99709 0.0
O278 O 0.75204 0.1877 0.96148 0.0
C279 C 0.76356 0.22609 0.50069 0.0
C280 C 0.79427 0.25593 0.46859 0.0
C281 C 0.77589 0.23825 0.43795 0.0
N282 N 0.77443 0.23623 0.56531 0.0
N283 N 0.79269 0.25403 0.54519 0.0
C284 C 0.74173 0.20568 0.49949 0.0
H285 H 0.73304 0.20364 0.55457 0.0
H286 H 0.74405 0.1914 0.49161 0.0
H287 H 0.73176 0.20607 0.45084 0.0
C288 C 0.80121 0.20629 0.79069 0.0
N289 N 0.78875 0.2156 0.78076 0.0
N290 N 0.78558 0.21676 0.70675 0.0
C291 C 0.79584 0.20814 0.6673 0.0
C292 C 0.80624 0.2014 0.71891 0.0
C293 C 0.80879 0.20304 0.86723 0.0
H294 H 0.81299 0.21727 0.9048 0.0
H295 H 0.79529 0.18834 0.89495 0.0
H296 H 0.82315 0.20074 0.86136 0.0
O297 O 0.79011 0.25901 0.83749 0.0
O298 O 0.7834 0.26065 0.71442 0.0
H299 H 0.80522 0.22153 0.55438 0.0
H300 H 0.80042 0.19403 0.56335 0.0
C301 C 0.79481 0.20541 0.58188 0.0
H302 H 0.77776 0.19889 0.56228 0.0
H303 H 0.80432 0.26482 0.58405 0.0
O304 O 0.77962 0.22221 0.95862 0.0
C305 C 0.79121 0.27002 0.77823 0.0
Co306 Co 0.88104 0.44161 0.79869 0.0
Co307 Co 0.87129 0.43706 0.97616 0.0
C308 C 0.85244 0.45698 0.87614 0.0
O309 O 0.8611 0.45277 0.81965 0.0
O310 O 0.85537 0.45272 0.94507 0.0
C311 C 0.88833 0.46356 0.65373 0.0
O312 O 0.88313 0.47629 0.69212 0.0
C313 C 0.87391 0.44402 0.14711 0.0
C314 C 0.8708 0.41253 0.18246 0.0
C315 C 0.8749 0.43251 0.21083 0.0
N316 N 0.87006 0.43145 0.08426 0.0
N317 N 0.86778 0.41255 0.1065 0.0
C318 C 0.87845 0.46706 0.14433 0.0
H319 H 0.8819 0.47337 0.0845 0.0
H320 H 0.89242 0.47764 0.18229 0.0
H321 H 0.86387 0.46753 0.16517 0.0
C322 C 0.92674 0.46608 0.85575 0.0
N323 N 0.905 0.45437 0.86756 0.0
N324 N 0.90105 0.45247 0.94203 0.0
C325 C 0.92031 0.46276 0.97974 0.0
C326 C 0.9371 0.47191 0.92656 0.0
C327 C 0.93711 0.47226 0.7781 0.0
H328 H 0.93164 0.48264 0.74869 0.0
H329 H 0.9552 0.48127 0.7819 0.0
H330 H 0.93151 0.4573 0.74299 0.0
O331 O 0.86469 0.40941 0.80853 0.0
O332 O 0.8562 0.40721 0.93181 0.0
H333 H 0.94009 0.46828 0.08142 0.0
H334 H 0.91856 0.4746 0.09061 0.0
C335 C 0.92299 0.46302 0.06508 0.0
H336 H 0.91228 0.44648 0.08879 0.0
H337 H 0.86532 0.39999 0.06923 0.0
O338 O 0.88992 0.44867 0.68936 0.0
C339 C 0.85505 0.39811 0.8677 0.0
Co340 Co 0.55958 0.43992 0.85722 0.0
Co341 Co 0.56353 0.43383 0.03181 0.0
C342 C 0.54356 0.39539 0.92954 0.0
O343 O 0.54727 0.40806 0.87251 0.0
O344 O 0.54873 0.4029 0.99756 0.0
C345 C 0.53933 0.42891 0.70919 0.0
O346 O 0.52723 0.40938 0.73898 0.0
C347 C 0.55379 0.42309 0.19607 0.0
C348 C 0.58094 0.45303 0.24729 0.0
C349 C 0.56218 0.43366 0.26546 0.0
N350 N 0.56686 0.43597 0.1396 0.0
N351 N 0.58324 0.4536 0.17071 0.0
C352 C 0.53267 0.40239 0.18258 0.0
H353 H 0.53525 0.38829 0.19096 0.0
H354 H 0.52685 0.40186 0.12297 0.0
H355 H 0.52006 0.40089 0.22398 0.0
C356 C 0.53618 0.46216 0.9148 0.0
N357 N 0.54688 0.45108 0.92588 0.0
N358 N 0.54789 0.44794 -0.00012 0.0
C359 C 0.53756 0.45669 0.03842 0.0
C360 C 0.52989 0.46613 0.98586 0.0
C361 C 0.53309 0.46965 0.83774 0.0
H362 H 0.54831 0.47592 0.8036 0.0
H363 H 0.51988 0.45553 0.80651 0.0
H364 H 0.52875 0.48266 0.84295 0.0
O365 O 0.59172 0.45545 0.8691 0.0
O366 O 0.59396 0.44999 0.99316 0.0
H367 H 0.54961 0.46465 0.15354 0.0
H368 H 0.52221 0.46005 0.14174 0.0
C369 C 0.53382 0.45473 0.12342 0.0
H370 H 0.52692 0.43746 0.14061 0.0
H371 H 0.59551 0.46647 0.13932 0.0
O372 O 0.55352 0.44427 0.7505 0.0
C373 C 0.60306 0.45786 0.9289 0.0
Co374 Co 0.55561 0.11258 0.7416 0.0
Co375 Co 0.56347 0.12775 0.9137 0.0
C376 C 0.60082 0.14143 0.80477 0.0
O377 O 0.58753 0.1311 0.7507 0.0
O378 O 0.59403 0.14141 0.87272 0.0
C379 C 0.5638 0.10203 0.59035 0.0
O380 O 0.58349 0.1087 0.61737 0.0
C381 C 0.57423 0.12741 0.07749 0.0
C382 C 0.55165 0.13658 0.13123 0.0
C383 C 0.56633 0.12959 0.14803 0.0
N384 N 0.56421 0.13238 0.02182 0.0
N385 N 0.55114 0.13834 0.05449 0.0
C386 C 0.5891 0.11847 0.06241 0.0
H387 H 0.58715 0.11243 0.00245 0.0
H388 H 0.5858 0.10512 0.10342 0.0
H389 H 0.60626 0.13169 0.07053 0.0
C390 C 0.53222 0.06886 0.81615 0.0
N391 N 0.54435 0.09081 0.81932 0.0
N392 N 0.54699 0.0971 0.89169 0.0
C393 C 0.53613 0.07924 0.93668 0.0
C394 C 0.52671 0.06079 0.89055 0.0
C395 C 0.52614 0.05604 0.74307 0.0
H396 H 0.51311 0.05774 0.71385 0.0
H397 H 0.54049 0.06273 0.70421 0.0
H398 H 0.5202 0.03848 0.754 0.0
O399 O 0.54212 0.1312 0.7487 0.0
O400 O 0.54829 0.14249 0.86959 0.0
H401 H 0.53 0.09367 0.03508 0.0
H402 H 0.51767 0.06451 0.04042 0.0
C403 C 0.53236 0.07973 0.02114 0.0
H404 H 0.54664 0.08133 0.05314 0.0
H405 H 0.54095 0.14246 0.02427 0.0
O406 O 0.549 0.10055 0.63567 0.0
C407 C 0.54053 0.14225 0.80336 0.0
Co408 Co 0.44341 0.88527 0.20159 0.0
Co409 Co 0.43385 0.87489 0.02501 0.0
C410 C 0.45708 0.85691 0.11339 0.0
O411 O 0.45509 0.86603 0.1734 0.0
O412 O 0.45002 0.85907 0.04832 0.0
C413 C 0.46316 0.889 0.35017 0.0
O414 O 0.47366 0.8806 0.31491 0.0
C415 C 0.43866 0.8754 0.85402 0.0
C416 C 0.40901 0.87638 0.82046 0.0
C417 C 0.42771 0.8775 0.79058 0.0
N418 N 0.42714 0.87383 0.91781 0.0
N419 N 0.40924 0.87394 0.89684 0.0
C420 C 0.46051 0.87681 0.85561 0.0
H421 H 0.46725 0.88003 0.91479 0.0
H422 H 0.47206 0.88991 0.81645 0.0
H423 H 0.45865 0.86105 0.83603 0.0
C424 C 0.46501 0.93093 0.14221 0.0
N425 N 0.45368 0.9091 0.13216 0.0
N426 N 0.45009 0.90477 0.05824 0.0
C427 C 0.45924 0.92377 0.01894 0.0
C428 C 0.46887 0.94103 0.07069 0.0
C429 C 0.47154 0.94173 0.21911 0.0
H430 H 0.45822 0.93265 0.26118 0.0
H431 H 0.4862 0.9413 0.23949 0.0
H432 H 0.47536 0.95897 0.21617 0.0
O433 O 0.41134 0.8681 0.19954 0.0
O434 O 0.40463 0.85972 0.07623 0.0
H435 H 0.44394 0.9186 0.90874 0.0
H436 H 0.47107 0.94219 0.9121 0.0
C437 C 0.46057 0.9253 0.93312 0.0
H438 H 0.46775 0.91557 0.91196 0.0
H439 H 0.39762 0.87334 0.93518 0.0
O440 O 0.45103 0.894 0.31117 0.0
C441 C 0.39796 0.85857 0.14493 0.0
Co442 Co 0.1176 0.56032 0.16129 0.0
Co443 Co 0.13064 0.56331 0.9887 0.0
C444 C 0.14572 0.60353 0.08392 0.0
O445 O 0.13588 0.59208 0.14259 0.0
O446 O 0.14503 0.59461 0.01963 0.0
C447 C 0.11037 0.57114 0.31323 0.0
O448 O 0.12083 0.59133 0.28772 0.0
C449 C 0.13185 0.57366 0.82526 0.0
C450 C 0.1348 0.54682 0.77251 0.0
C451 C 0.13217 0.5645 0.75522 0.0
N452 N 0.13383 0.56166 0.88126 0.0
N453 N 0.13603 0.54592 0.84938 0.0
C454 C 0.12716 0.59179 0.83955 0.0
H455 H 0.12008 0.59023 0.89766 0.0
H456 H 0.11576 0.59176 0.79557 0.0
H457 H 0.14267 0.60763 0.83621 0.0
C458 C 0.07304 0.53547 0.09421 0.0
N459 N 0.09495 0.54712 0.08756 0.0
N460 N 0.10036 0.54808 0.01473 0.0
C461 C 0.08197 0.5368 0.97272 0.0
C462 C 0.06409 0.52845 0.02162 0.0
C463 C 0.06119 0.53032 0.16929 0.0
H464 H 0.06788 0.52268 0.20841 0.0
H465 H 0.06412 0.54574 0.19648 0.0
H466 H 0.04338 0.51915 0.16205 0.0
O467 O 0.13605 0.54657 0.1594 0.0
O468 O 0.14545 0.54876 0.03698 0.0
H469 H 0.0916 0.52741 0.86962 0.0
H470 H 0.06467 0.52427 0.86465 0.0
C471 C 0.08146 0.53457 0.88709 0.0
H472 H 0.08827 0.55093 0.86068 0.0
H473 H 0.13738 0.53398 0.88023 0.0
O474 O 0.10598 0.55555 0.26712 0.0
C475 C 0.14609 0.54301 0.1058 0.0
Co476 Co 0.44236 0.55742 0.26164 0.0
Co477 Co 0.44164 0.56676 0.08474 0.0
C478 C 0.40032 0.54238 0.17427 0.0
O479 O 0.41135 0.54481 0.23494 0.0
O480 O 0.40965 0.54954 0.10943 0.0
C481 C 0.42786 0.53669 0.41012 0.0
O482 O 0.4091 0.52468 0.37506 0.0
C483 C 0.43827 0.5596 0.91527 0.0
C484 C 0.46335 0.59252 0.87661 0.0
C485 C 0.44923 0.57161 0.85017 0.0
N486 N 0.44605 0.57285 0.97692 0.0
N487 N 0.46073 0.59256 0.95295 0.0
C488 C 0.4222 0.53568 0.92049 0.0
H489 H 0.42121 0.52979 0.98035 0.0
H490 H 0.42684 0.52638 0.88089 0.0
H491 H 0.40582 0.53275 0.90347 0.0
C492 C 0.46699 0.53649 0.20412 0.0
N493 N 0.45617 0.54743 0.19258 0.0
N494 N 0.45655 0.55188 0.11882 0.0
C495 C 0.46818 0.54434 0.08151 0.0
C496 C 0.47488 0.53408 0.13397 0.0
C497 C 0.46903 0.52802 0.28064 0.0
H498 H 0.45307 0.52043 0.31073 0.0
H499 H 0.47448 0.51585 0.27484 0.0
H500 H 0.48101 0.5419 0.31618 0.0
O501 O 0.45653 0.58959 0.25798 0.0
O502 O 0.45483 0.59595 0.13424 0.0
H503 H 0.48941 0.54725 0.98727 0.0
H504 H 0.46119 0.53649 0.96255 0.0
C505 C 0.47471 0.54864 0.99872 0.0
H506 H 0.47839 0.56527 0.98244 0.0
H507 H 0.46965 0.60587 0.98916 0.0
O508 O 0.44433 0.55033 0.3712 0.0
C509 C 0.46013 0.60278 0.20283 0.0
Co510 Co 0.5489 0.77911 0.163 0.0
Co511 Co 0.53456 0.76913 0.33524 0.0
C512 C 0.51863 0.79248 0.23364 0.0
O513 O 0.52921 0.79118 0.17677 0.0
O514 O 0.51931 0.78479 0.29925 0.0
C515 C 0.55699 0.79738 0.01087 0.0
O516 O 0.54734 0.80788 0.03657 0.0
C517 C 0.53345 0.77892 0.49853 0.0
C518 C 0.52857 0.74845 0.55238 0.0
C519 C 0.53259 0.7693 0.56903 0.0
N520 N 0.53053 0.7645 0.44299 0.0
N521 N 0.52715 0.74618 0.4756 0.0
C522 C 0.53937 0.80207 0.48332 0.0
H523 H 0.54579 0.80695 0.42406 0.0
H524 H 0.55166 0.81324 0.52552 0.0
H525 H 0.52452 0.80352 0.48916 0.0
C526 C 0.59298 0.80218 0.23591 0.0
N527 N 0.57101 0.79006 0.23958 0.0
N528 N 0.56502 0.78544 0.31199 0.0
C529 C 0.58309 0.7942 0.35646 0.0
C530 C 0.6013 0.80533 0.31004 0.0
C531 C 0.6055 0.81098 0.16289 0.0
H532 H 0.59802 0.81879 0.12854 0.0
H533 H 0.62293 0.823 0.17415 0.0
H534 H 0.60438 0.79724 0.12855 0.0
O535 O 0.53167 0.74676 0.16688 0.0
O536 O 0.52127 0.73974 0.2885 0.0
H537 H 0.59958 0.79387 0.46086 0.0
H538 H 0.57944 0.80203 0.47204 0.0
C539 C 0.58331 0.79069 0.44124 0.0
H540 H 0.57108 0.77365 0.45618 0.0
H541 H 0.52498 0.73251 0.44531 0.0
O542 O 0.56091 0.78582 0.05718 0.0
C543 C 0.52154 0.73322 0.22067 0.0
Co544 Co 0.2217 0.77332 0.11373 0.0
Co545 Co 0.2315 0.77079 0.28672 0.0
C546 C 0.20781 0.73036 0.19274 0.0
O547 O 0.20915 0.74168 0.13391 0.0
O548 O 0.21572 0.7394 0.25719 0.0
C549 C 0.20384 0.76132 0.96204 0.0
O550 O 0.19532 0.74125 0.98801 0.0
C551 C 0.22387 0.76035 0.45093 0.0
C552 C 0.25161 0.78988 0.50173 0.0
C553 C 0.23285 0.77053 0.5203 0.0
N554 N 0.2366 0.77333 0.39404 0.0
N555 N 0.25337 0.79072 0.42478 0.0
C556 C 0.20231 0.74005 0.43821 0.0
H557 H 0.19563 0.74044 0.38093 0.0
H558 H 0.19043 0.73819 0.48338 0.0
H559 H 0.20466 0.72568 0.44064 0.0
C560 C 0.20009 0.79658 0.17857 0.0
N561 N 0.21144 0.78603 0.18614 0.0
N562 N 0.21513 0.78463 0.25944 0.0
C563 C 0.206 0.79408 0.30109 0.0
C564 C 0.19624 0.80207 0.25127 0.0
C565 C 0.1938 0.80185 0.10279 0.0
H566 H 0.20782 0.80803 0.06259 0.0
H567 H 0.18018 0.7867 0.07786 0.0
H568 H 0.18869 0.81427 0.10868 0.0
O569 O 0.25389 0.788 0.11568 0.0
O570 O 0.26096 0.78613 0.2385 0.0
H571 H 0.22193 0.80366 0.41037 0.0
H572 H 0.19489 0.80037 0.40972 0.0
C573 C 0.20515 0.79389 0.38708 0.0
H574 H 0.19808 0.7769 0.40775 0.0
H575 H 0.26549 0.80362 0.39306 0.0
O576 O 0.21437 0.77723 0.00767 0.0
C577 C 0.26745 0.79194 0.16982 0.0
Co578 Co 0.22627 0.4472 0.0771 0.0
Co579 Co 0.23012 0.46074 0.24971 0.0
C580 C 0.26982 0.47623 0.15175 0.0
O581 O 0.25807 0.46603 0.0941 0.0
O582 O 0.26126 0.47561 0.21681 0.0
C583 C 0.23713 0.4399 0.92545 0.0
O584 O 0.25724 0.45004 0.95164 0.0
C585 C 0.24098 0.46351 0.41411 0.0
C586 C 0.21246 0.46375 0.46503 0.0
C587 C 0.2311 0.46293 0.48364 0.0
N588 N 0.22842 0.46413 0.35722 0.0
N589 N 0.21168 0.46477 0.3881 0.0
C590 C 0.26051 0.46092 0.40124 0.0
H591 H 0.26004 0.45439 0.34294 0.0
H592 H 0.26126 0.44988 0.44498 0.0
H593 H 0.27552 0.47714 0.40624 0.0
C594 C 0.20344 0.40278 0.14658 0.0
N595 N 0.21386 0.42473 0.15193 0.0
N596 N 0.21549 0.43033 0.22475 0.0
C597 C 0.20608 0.41204 0.26816 0.0
C598 C 0.1981 0.39396 0.22013 0.0
C599 C 0.19845 0.39067 0.0721 0.0
H600 H 0.19161 0.39767 0.0309 0.0
H601 H 0.21384 0.39279 0.04726 0.0
H602 H 0.18666 0.373 0.07984 0.0
O603 O 0.21221 0.46532 0.07954 0.0
O604 O 0.2151 0.47514 0.20162 0.0
H605 H 0.19801 0.42055 0.37635 0.0
H606 H 0.19843 0.39526 0.37868 0.0
C607 C 0.20635 0.41194 0.35421 0.0
H608 H 0.22347 0.42058 0.37427 0.0
H609 H 0.19916 0.46483 0.35648 0.0
O610 O 0.22145 0.43557 0.97116 0.0
C611 C 0.20896 0.47554 0.1332 0.0
H612 H 0.17481 0.14385 0.58371 0.0
H613 H 0.18397 0.13911 0.34063 0.0
H614 H 0.16369 0.15764 0.31148 0.0
H615 H 0.14352 0.17564 0.35417 0.0
H616 H 0.13493 0.18106 0.59719 0.0
H617 H 0.15465 0.16192 0.62646 0.0
C618 C 0.17233 0.14683 0.5244 0.0
C619 C 0.18096 0.14005 0.46476 0.0
C620 C 0.1607 0.15768 0.50762 0.0
C621 C 0.17762 0.14416 0.38808 0.0
C622 C 0.16596 0.15476 0.37108 0.0
C623 C 0.14589 0.17257 0.4135 0.0
C624 C 0.1377 0.17982 0.4731 0.0
C625 C 0.15745 0.16165 0.43031 0.0
C626 C 0.14106 0.17575 0.54981 0.0
C627 C 0.15236 0.16477 0.56684 0.0
H628 H 0.85757 0.02684 0.64383 0.0
H629 H 0.87118 0.04447 0.40444 0.0
H630 H 0.85147 0.00604 0.36814 0.0
H631 H 0.82957 0.96717 0.40392 0.0
H632 H 0.81554 0.95 0.64377 0.0
H633 H 0.83606 0.98825 0.67952 0.0
C634 C 0.85636 0.02228 0.58378 0.0
C635 C 0.86585 0.03856 0.52721 0.0
C636 C 0.84477 1.00012 0.56297 0.0
C637 C 0.86397 0.03231 0.44946 0.0
C638 C 0.85268 0.0103 0.42845 0.0
C639 C 0.83103 0.9718 0.46394 0.0
C640 C 0.82092 0.95561 0.52068 0.0
C641 C 0.84286 0.99402 0.48465 0.0
C642 C 0.82301 0.962 0.59838 0.0
C643 C 0.83482 0.98395 0.61924 0.0
H644 H 0.97057 0.82732 0.61252 0.0
H645 H 0.9575 0.81899 0.36879 0.0
H646 H 0.99651 0.83916 0.34175 0.0
H647 H 0.03451 0.85897 0.38681 0.0
H648 H 0.04761 0.86671 0.63059 0.0
H649 H 0.00858 0.84708 0.65759 0.0
C650 C 0.97624 0.82997 0.5535 0.0
C651 C 0.96105 0.8216 0.49297 0.0
C652 C 0.99878 0.8415 0.5381 0.0
C653 C 0.96876 0.82512 0.41675 0.0
C654 C 0.99111 0.83672 0.40105 0.0
C655 C 0.02883 0.85643 0.44583 0.0
C656 C 0.04403 0.86433 0.50639 0.0
C657 C 0.00629 0.84495 0.46123 0.0
C658 C 0.03633 0.86076 0.58262 0.0
C659 C 0.01397 0.84954 0.59829 0.0
H660 H 0.82618 0.85788 0.39942 0.0
H661 H 0.82088 0.86203 0.64524 0.0
H662 H 0.84195 0.84369 0.6651 0.0
H663 H 0.86128 0.82593 0.61313 0.0
H664 H 0.86549 0.82039 0.36753 0.0
H665 H 0.84546 0.83986 0.34728 0.0
C666 C 0.82972 0.85487 0.45735 0.0
C667 C 0.82198 0.86136 0.52071 0.0
C668 C 0.84161 0.84404 0.46846 0.0
C669 C 0.82656 0.85715 0.59539 0.0
C670 C 0.83865 0.84669 0.60686 0.0
C671 C 0.85794 0.82907 0.55509 0.0
C672 C 0.86494 0.82175 0.49197 0.0
C673 C 0.84617 0.83998 0.54386 0.0
C674 C 0.86026 0.8258 0.41719 0.0
C675 C 0.84882 0.83695 0.40554 0.0
H676 H 0.1765 0.03717 0.58479 0.0
H677 H 0.18081 0.04467 0.33809 0.0
H678 H 0.16059 0.00502 0.32272 0.0
H679 H 0.14234 0.96829 0.37917 0.0
H680 H 0.13928 0.96081 0.62588 0.0
H681 H 0.1584 0.00046 0.64124 0.0
C682 C 0.17295 0.03017 0.52759 0.0
C683 C 0.18016 0.04392 0.4627 0.0
C684 C 0.16159 0.00736 0.51914 0.0
C685 C 0.17552 0.0345 0.38905 0.0
C686 C 0.16394 0.01182 0.38019 0.0
C687 C 0.14575 0.9753 0.43637 0.0
C688 C 0.13933 0.96156 0.50127 0.0
C689 C 0.15699 0.9981 0.44481 0.0
C690 C 0.14407 0.97098 0.57491 0.0
C691 C 0.15498 0.99365 0.58377 0.0
H692 H 0.96167 0.13648 0.4291 0.0
H693 H 0.96614 0.13838 0.67661 0.0
H694 H 0.00591 0.15904 0.66883 0.0
H695 H 0.03953 0.17693 0.59184 0.0
H696 H 0.03499 0.17377 0.34428 0.0
H697 H 0.99527 0.15328 0.35222 0.0
C698 C 0.97134 0.14144 0.48133 0.0
C699 C 0.9609 0.13595 0.55324 0.0
C700 C 0.99425 0.15311 0.47655 0.0
C701 C 0.97372 0.14233 0.6204 0.0
C702 C 0.99649 0.15419 0.61608 0.0
C703 C 0.02986 0.17175 0.53963 0.0
C704 C 0.04029 0.17701 0.46765 0.0
C705 C 0.00695 0.15972 0.54447 0.0
C706 C 0.02746 0.16998 0.40056 0.0
C707 C 0.00469 0.15827 0.40494 0.0
H708 H 0.83888 0.4778 0.9755 0.0
H709 H 0.8367 0.46012 0.73693 0.0
H710 H 0.81757 0.47956 0.70404 0.0
H711 H 0.80228 0.50259 0.74153 0.0
H712 H 0.80463 0.52059 0.97988 0.0
H713 H 0.82271 0.50015 0.01356 0.0
C714 C 0.83404 0.47804 0.91651 0.0
C715 C 0.83936 0.46758 0.85901 0.0
C716 C 0.82312 0.48947 0.89744 0.0
C717 C 0.83301 0.46816 0.78261 0.0
C718 C 0.82203 0.47929 0.76347 0.0
C719 C 0.80672 0.50203 0.80082 0.0
C720 C 0.8021 0.51321 0.8577 0.0
C721 C 0.81719 0.49022 0.82021 0.0
C722 C 0.80796 0.51221 0.93446 0.0
C723 C 0.81833 0.50048 0.95408 0.0
H724 H 0.49175 0.29234 0.92459 0.0
H725 H 0.4983 0.30398 0.67985 0.0
H726 H 0.51903 0.34337 0.70261 0.0
H727 H 0.53438 0.37439 0.79183 0.0
H728 H 0.52772 0.36259 0.03657 0.0
H729 H 0.50793 0.32324 0.01365 0.0
C730 C 0.49765 0.30344 0.87604 0.0
C731 C 0.4933 0.29517 0.80054 0.0
C732 C 0.50954 0.32602 0.88953 0.0
C733 C 0.50138 0.30986 0.73852 0.0
C734 C 0.5132 0.3324 0.7515 0.0
C735 C 0.52864 0.36325 0.84031 0.0
C736 C 0.53246 0.3715 0.9159 0.0
C737 C 0.51724 0.34065 0.82676 0.0
C738 C 0.52504 0.35675 0.97785 0.0
C739 C 0.51367 0.33423 0.96479 0.0
H740 H 0.69715 0.19034 0.67287 0.0
H741 H 0.71208 0.20056 0.9152 0.0
H742 H 0.67336 0.18114 0.94598 0.0
H743 H 0.63504 0.1608 0.90509 0.0
H744 H 0.61994 0.14996 0.66313 0.0
H745 H 0.65869 0.16994 0.6319 0.0
C746 C 0.69193 0.18838 0.73235 0.0
C747 C 0.70761 0.19694 0.79134 0.0
C748 C 0.6695 0.17698 0.75012 0.0
C749 C 0.70047 0.19413 0.86827 0.0
C750 C 0.67826 0.18301 0.8862 0.0
C751 C 0.64021 0.16284 0.84554 0.0
C752 C 0.62451 0.15381 0.78681 0.0
C753 C 0.66261 0.1743 0.82768 0.0
C754 C 0.63159 0.15659 0.70984 0.0
C755 C 0.65381 0.16809 0.6917 0.0
H756 H 0.49269 0.19263 0.69205 0.0
H757 H 0.48775 0.19867 0.93705 0.0
H758 H 0.50743 0.179 0.95984 0.0
H759 H 0.5258 0.15985 0.91043 0.0
H760 H 0.52965 0.15276 0.6655 0.0
H761 H 0.51067 0.17311 0.64269 0.0
C762 C 0.49597 0.18972 0.75047 0.0
C763 C 0.48878 0.19718 0.81269 0.0
C764 C 0.50709 0.17819 0.76327 0.0
C765 C 0.49303 0.19307 0.88801 0.0
C766 C 0.50433 0.18185 0.90116 0.0
C767 C 0.52258 0.16282 0.85202 0.0
C768 C 0.52921 0.15482 0.78981 0.0
C769 C 0.51141 0.17431 0.83924 0.0
C770 C 0.5247 0.15867 0.71452 0.0
C771 C 0.51386 0.17034 0.70136 0.0
H772 H 0.8035 0.29553 0.90629 0.0
H773 H 0.80438 0.29886 0.6585 0.0
H774 H 0.82428 0.33866 0.66402 0.0
H775 H 0.84198 0.37265 0.73909 0.0
H776 H 0.83991 0.36914 0.98688 0.0
H777 H 0.82001 0.32941 0.98119 0.0
C778 C 0.80801 0.30495 0.85347 0.0
C779 C 0.80251 0.29417 0.78219 0.0
C780 C 0.81932 0.32786 0.85693 0.0
C781 C 0.80835 0.30668 0.71429 0.0
C782 C 0.8198 0.32948 0.7173 0.0
C783 C 0.83719 0.3632 0.79183 0.0
C784 C 0.8426 0.37394 0.86322 0.0
C785 C 0.82547 0.34026 0.78829 0.0
C786 C 0.83605 0.36138 0.93102 0.0
C787 C 0.82464 0.33861 0.92793 0.0
H788 H 0.62855 0.47124 0.80054 0.0
H789 H 0.63196 0.4729 0.04837 0.0
H790 H 0.67171 0.49438 0.04259 0.0
H791 H 0.70559 0.51293 0.96745 0.0
H792 H 0.70223 0.51041 0.71968 0.0
H793 H 0.66246 0.48908 0.72541 0.0
C794 C 0.63797 0.4763 0.85331 0.0
C795 C 0.62723 0.47048 0.9247 0.0
C796 C 0.66089 0.48853 0.84971 0.0
C797 C 0.63976 0.47707 0.99252 0.0
C798 C 0.66252 0.48941 0.98936 0.0
C799 C 0.69616 0.50775 0.9147 0.0
C800 C 0.70691 0.51333 0.84333 0.0
C801 C 0.67326 0.49528 0.9183 0.0
C802 C 0.69442 0.50632 0.77551 0.0
C803 C 0.67164 0.49413 0.77865 0.0
H804 H 0.46496 0.84163 0.2451 0.0
H805 H 0.47346 0.84231 -0.00066 0.0
H806 H 0.49293 0.822 0.01496 0.0
H807 H 0.5084 0.8051 0.09904 0.0
H808 H 0.49959 0.80465 0.34477 0.0
H809 H 0.47934 0.82396 0.32824 0.0
C810 C 0.47111 0.83743 0.19475 0.0
C811 C 0.46794 0.8437 0.12115 0.0
C812 C 0.48224 0.82584 0.20419 0.0
C813 C 0.47568 0.83772 0.05662 0.0
C814 C 0.48687 0.82617 0.06557 0.0
C815 C 0.50207 0.80921 0.14907 0.0
C816 C 0.50566 0.80351 0.22316 0.0
C817 C 0.49039 0.82031 0.13918 0.0
C818 C 0.4971 0.8088 0.28714 0.0
C819 C 0.48554 0.81988 0.27777 0.0
H820 H 0.19687 0.70646 0.06122 0.0
H821 H 0.19368 0.70003 0.3083 0.0
H822 H 0.17429 0.66027 0.29615 0.0
H823 H 0.15782 0.62743 0.21553 0.0
H824 H 0.16155 0.63389 0.96845 0.0
H825 H 0.18121 0.67365 0.98065 0.0
C826 C 0.1919 0.6964 0.11252 0.0
C827 C 0.19662 0.70626 0.18559 0.0
C828 C 0.18086 0.67357 0.10513 0.0
C829 C 0.19029 0.69291 0.25136 0.0
C830 C 0.17916 0.67017 0.24446 0.0
C831 C 0.16288 0.6375 0.16425 0.0
C832 C 0.15809 0.62765 0.09114 0.0
C833 C 0.17428 0.66033 0.17165 0.0
C834 C 0.16502 0.64101 0.02541 0.0
C835 C 0.17623 0.66375 0.03232 0.0
H836 H 0.36979 0.5262 0.0592 0.0
H837 H 0.37655 0.53314 0.30581 0.0
H838 H 0.33709 0.51382 0.32036 0.0
H839 H 0.30052 0.49431 0.2642 0.0
H840 H 0.29327 0.48662 0.01806 0.0
H841 H 0.33287 0.5068 0.00259 0.0
C842 C 0.36262 0.52356 0.11603 0.0
C843 C 0.3762 0.53107 0.18115 0.0
C844 C 0.33975 0.51222 0.12435 0.0
C845 C 0.36658 0.52742 0.2545 0.0
C846 C 0.34395 0.51639 0.26306 0.0
C847 C 0.30757 0.49711 0.20711 0.0
C848 C 0.29388 0.48889 0.14255 0.0
C849 C 0.33037 0.50861 0.19851 0.0
C850 C 0.30337 0.49262 0.06898 0.0
C851 C 0.32606 0.50422 0.05995 0.0
H852 H 0.16258 0.52565 0.00469 0.0
H853 H 0.15678 0.53433 0.24736 0.0
H854 H 0.17601 0.51459 0.27712 0.0
H855 H 0.19398 0.49439 0.23449 0.0
H856 H 0.19888 0.48492 0.99181 0.0
H857 H 0.18047 0.50543 0.96211 0.0
C858 C 0.1656 0.52334 0.06412 0.0
C859 C 0.15826 0.53152 0.12362 0.0
C860 C 0.17646 0.51175 0.08095 0.0
C861 C 0.1622 0.52819 0.20033 0.0
C862 C 0.17321 0.5169 0.21747 0.0
C863 C 0.19109 0.49685 0.17507 0.0
C864 C 0.19784 0.48811 0.11556 0.0
C865 C 0.18033 0.50853 0.15826 0.0
C866 C 0.19383 0.49139 0.03888 0.0
C867 C 0.18332 0.50316 0.02174 0.0
H868 H 0.50423 0.69983 0.32393 0.0
H869 H 0.51323 0.71318 0.08043 0.0
H870 H 0.49471 0.67407 0.05352 0.0
H871 H 0.47627 0.63612 0.099 0.0
H872 H 0.46814 0.62288 0.3427 0.0
H873 H 0.48601 0.66194 0.36937 0.0
C874 C 0.50209 0.69422 0.2649 0.0
C875 C 0.5101 0.70947 0.20435 0.0
C876 C 0.4916 0.67172 0.24978 0.0
C877 C 0.50728 0.70184 0.12825 0.0
C878 C 0.49667 0.67947 0.11273 0.0
C879 C 0.47833 0.64174 0.15797 0.0
C880 C 0.47082 0.62653 0.21869 0.0
C881 C 0.4888 0.66426 0.17305 0.0
C882 C 0.47378 0.63418 0.29477 0.0
C883 C 0.48399 0.65654 0.31015 0.0
H884 H 0.36416 0.84101 0.04276 0.0
H885 H 0.37836 0.84795 0.28586 0.0
H886 H 0.33942 0.82769 0.3148 0.0
H887 H 0.30129 0.80833 0.27158 0.0
H888 H 0.287 0.80201 0.0286 0.0
H889 H 0.32597 0.82165 -0.0005 0.0
C890 C 0.35876 0.83804 0.10209 0.0
C891 C 0.37423 0.84602 0.16193 0.0
C892 C 0.33629 0.82649 0.11853 0.0
C893 C 0.36687 0.84209 0.23851 0.0
C894 C 0.34457 0.83046 0.25524 0.0
C895 C 0.30667 0.81117 0.21222 0.0
C896 C 0.29117 0.80366 0.15248 0.0
C897 C 0.32913 0.82264 0.19575 0.0
C898 C 0.29851 0.80763 0.07587 0.0
C899 C 0.32083 0.81886 0.05907 0.0
H900 H 0.16856 0.29604 0.30228 0.0
H901 H 0.12183 0.30312 0.43959 0.0
H902 H 0.13718 0.34096 0.39538 0.0
H903 H 0.16325 0.37159 0.31417 0.0
H904 H 0.21033 0.36458 0.17854 0.0
H905 H 0.19501 0.32682 0.22298 0.0
C906 C 0.16186 0.30598 0.32263 0.0
C907 C 0.14418 0.29699 0.37404 0.0
C908 C 0.17055 0.3275 0.29605 0.0
C909 C 0.1356 0.30988 0.40055 0.0
C910 C 0.14424 0.33139 0.37474 0.0
C911 C 0.17015 0.36175 0.29473 0.0
C912 C 0.18787 0.37074 0.2434 0.0
C913 C 0.16158 0.34029 0.32194 0.0
C914 C 0.19655 0.35786 0.21758 0.0
C915 C 0.18793 0.33639 0.2435 0.0
H916 H 0.63498 0.79918 0.27164 0.0
H917 H 0.61829 0.83926 0.40935 0.0
H918 H 0.65536 0.8587 0.46228 0.0
H919 H 0.69269 0.8643 0.46902 0.0
H920 H 0.70915 0.82371 0.33311 0.0
H921 H 0.67209 0.80427 0.2804 0.0
C922 C 0.63965 0.81235 0.31255 0.0
C923 C 0.6242 0.81803 0.33621 0.0
C924 C 0.66085 0.82314 0.34368 0.0
C925 C 0.63012 0.83481 0.39022 0.0
C926 C 0.65122 0.84581 0.42068 0.0
C927 C 0.68798 0.851 0.42867 0.0
C928 C 0.70347 0.84538 0.40473 0.0
C929 C 0.6667 0.84004 0.39819 0.0
C930 C 0.69738 0.82828 0.35197 0.0
C931 C 0.67626 0.81724 0.32165 0.0
H932 H 0.20859 0.83635 0.34788 0.0
H933 H 0.15579 0.79206 0.20106 0.0
H934 H 0.13425 0.80886 0.23966 0.0
H935 H 0.13009 0.83549 0.31826 0.0
H936 H 0.18214 0.87865 0.46961 0.0
H937 H 0.20414 0.86251 0.42841 0.0
C938 C 0.1923 0.83034 0.3248 0.0
C939 C 0.18372 0.813 0.27191 0.0
C940 C 0.17983 0.83966 0.34898 0.0
C941 C 0.16278 0.80554 0.24133 0.0
C942 C 0.15042 0.815 0.26387 0.0
C943 C 0.14626 0.84129 0.3421 0.0
C944 C 0.15455 0.85811 0.39691 0.0
C945 C 0.15872 0.83195 0.31809 0.0
C946 C 0.17542 0.86552 0.42793 0.0
C947 C 0.18801 0.85642 0.40399 0.0
H948 H 0.37422 0.16752 0.6198 0.0
H949 H 0.36628 0.21186 0.76788 0.0
H950 H 0.32829 0.19626 0.72586 0.0
H951 H 0.29761 0.17053 0.64455 0.0
H952 H 0.30569 0.12666 0.4946 0.0
H953 H 0.34365 0.14208 0.53729 0.0
C954 C 0.36413 0.17378 0.6425 0.0
C955 C 0.37295 0.19082 0.69658 0.0
C956 C 0.34252 0.16507 0.61671 0.0
C957 C 0.35973 0.19862 0.72661 0.0
C958 C 0.33811 0.18985 0.70211 0.0
C959 C 0.30777 0.16443 0.62127 0.0
C960 C 0.29902 0.14757 0.56657 0.0
C961 C 0.3294 0.17319 0.64679 0.0
C962 C 0.31224 0.13981 0.53622 0.0
C963 C 0.33383 0.14848 0.5611 0.0
H964 H 0.80177 0.16308 0.76935 0.0
H965 H 0.84142 0.21849 0.6246 0.0
H966 H 0.86268 0.20167 0.58302 0.0
H967 H 0.8695 0.17073 0.58606 0.0
H968 H 0.82954 0.11508 0.7295 0.0
H969 H 0.80891 0.13233 0.77365 0.0
C970 C 0.81525 0.17149 0.72945 0.0
C971 C 0.82011 0.1919 0.69987 0.0
C972 C 0.82719 0.16159 0.70518 0.0
C973 C 0.83742 0.20268 0.64769 0.0
C974 C 0.84952 0.19307 0.62385 0.0
C975 C 0.85613 0.16237 0.6264 0.0
C976 C 0.8509 0.14169 0.65429 0.0
C977 C 0.8444 0.17241 0.65154 0.0
C978 C 0.83381 0.13107 0.70748 0.0
C979 C 0.82204 0.14091 0.73272 0.0
H980 H 0.79472 0.62956 0.66337 0.0
H981 H 0.84183 0.64072 0.84053 0.0
H982 H 0.86444 0.67863 0.79778 0.0
H983 H 0.87149 0.70804 0.70614 0.0
H984 H 0.82447 0.69672 0.5284 0.0
H985 H 0.80147 0.65909 0.5731 0.0
C986 C 0.80996 0.64034 0.69251 0.0
C987 C 0.81668 0.63243 0.7548 0.0
C988 C 0.82303 0.66188 0.66649 0.0
C989 C 0.83625 0.64655 0.79293 0.0
C990 C 0.84926 0.66813 0.768 0.0
C991 C 0.85615 0.69731 0.67751 0.0
C992 C 0.84969 0.70502 0.61386 0.0
C993 C 0.84292 0.67587 0.70429 0.0
C994 C 0.82992 0.691 0.5767 0.0
C995 C 0.81669 0.66959 0.60272 0.0
H996 H 0.03184 0.53766 0.0471 0.0
H997 H 0.04464 0.48943 0.94771 0.0
H998 H 0.00662 0.46815 0.90447 0.0
H999 H 0.96954 0.46324 0.89578 0.0
H1000 H 0.95655 0.5109 0.99894 0.0
H1001 H 0.99477 0.53261 0.03944 0.0
C1002 C 0.02615 0.5224 0.01647 0.0
C1003 C 0.04083 0.51505 0.00021 0.0
C1004 C 0.00434 0.51033 0.99187 0.0
C1005 C 0.03349 0.49535 0.9603 0.0
C1006 C 0.01183 0.48325 0.93552 0.0
C1007 C 0.97528 0.47854 0.92621 0.0
C1008 C 0.96056 0.48574 0.94375 0.0
C1009 C 0.99713 0.49063 0.95062 0.0
C1010 C 0.96783 0.5053 0.98443 0.0
C1011 C 0.98958 0.51759 0.00788 0.0
H1012 H 0.46564 0.50309 0.02693 0.0
H1013 H 0.51233 0.54065 0.20294 0.0
H1014 H 0.53402 0.52347 0.17058 0.0
H1015 H 0.53984 0.49811 0.0906 0.0
H1016 H 0.4923 0.45946 0.91822 0.0
H1017 H 0.47109 0.47722 0.9487 0.0
C1018 C 0.48059 0.50746 0.05802 0.0
C1019 C 0.48745 0.52301 0.1172 0.0
C1020 C 0.49289 0.49755 0.03899 0.0
C1021 C 0.50669 0.52853 0.15769 0.0
C1022 C 0.51913 0.51884 0.13884 0.0
C1023 C 0.52474 0.4935 0.06021 0.0
C1024 C 0.51756 0.4775 0.00244 0.0
C1025 C 0.5124 0.50337 0.07947 0.0
C1026 C 0.49821 0.47189 0.96244 0.0
C1027 C 0.48602 0.48191 0.98026 0.0
H1028 H 0.53705 0.0397 0.99746 0.0
H1029 H 0.48574 0.03104 0.84254 0.0
H1030 H 0.46245 0.99373 0.89017 0.0
H1031 H 0.45693 0.96356 0.97529 0.0
H1032 H 0.50921 0.97127 0.12345 0.0
H1033 H 0.53161 0.00931 0.0819 0.0
C1034 C 0.52076 0.02956 0.97426 0.0
C1035 C 0.51307 0.03791 0.9164 0.0
C1036 C 0.50758 0.00817 0.00172 0.0
C1037 C 0.49202 0.02475 0.88639 0.0
C1038 C 0.47869 0.00354 0.91406 0.0
C1039 C 0.47326 0.9736 0.99826 0.0
C1040 C 0.4815 0.96464 0.05189 0.0
C1041 C 0.48632 0.99508 0.9716 0.0
C1042 C 0.50248 0.97788 0.08251 0.0
C1043 C 0.51536 0.99953 0.05812 0.0
H1044 H 0.0934 0.20559 0.75828 0.0
H1045 H 0.16216 0.25107 0.78652 0.0
H1046 H 0.15836 0.24589 0.92655 0.0
H1047 H 0.13473 0.22922 0.04095 0.0
H1048 H 0.06642 0.18216 0.00743 0.0
H1049 H 0.07087 0.18706 0.86917 0.0
C1050 C 0.10755 0.21453 0.79505 0.0
C1051 C 0.12793 0.22904 0.76252 0.0
C1052 C 0.10535 0.21099 0.87445 0.0
C1053 C 0.14624 0.24001 0.81061 0.0
C1054 C 0.14408 0.23697 0.89048 0.0
C1055 C 0.121 0.21959 0.00339 0.0
C1056 C 0.10028 0.20526 0.0347 0.0
C1057 C 0.12365 0.2225 0.92315 0.0
C1058 C 0.08253 0.19336 0.98492 0.0
C1059 C 0.08501 0.19618 0.90577 0.0
H1060 H 0.79063 0.88196 0.80072 0.0
H1061 H 0.75204 0.91309 0.83099 0.0
H1062 H 0.75822 0.91473 0.97038 0.0
H1063 H 0.77395 0.90618 0.08387 0.0
H1064 H 0.81431 0.87705 0.04861 0.0
H1065 H 0.8082 0.87594 0.91082 0.0
C1066 C 0.78336 0.88892 0.83781 0.0
C1067 C 0.77053 0.89698 0.80586 0.0
C1068 C 0.78755 0.89041 0.91696 0.0
C1069 C 0.76177 0.90652 0.85447 0.0
C1070 C 0.76539 0.90755 0.93404 0.0
C1071 C 0.78192 0.90019 0.04601 0.0
C1072 C 0.79473 0.89186 0.07687 0.0
C1073 C 0.77832 0.89956 0.96603 0.0
C1074 C 0.80436 0.88355 0.0266 0.0
C1075 C 0.80082 0.88281 0.94769 0.0
H1076 H 0.07367 0.85669 0.82205 0.0
H1077 H 0.14318 0.89578 0.78314 0.0
H1078 H 0.14909 0.90487 0.91936 0.0
H1079 H 0.13423 0.9052 0.04563 0.0
H1080 H 0.06481 0.86741 0.08523 0.0
H1081 H 0.0591 0.8541 0.95254 0.0
C1082 C 0.09015 0.86682 0.84363 0.0
C1083 C 0.10794 0.87579 0.7924 0.0
C1084 C 0.0934 0.87241 0.92183 0.0
C1085 C 0.12919 0.88887 0.82127 0.0
C1086 C 0.13259 0.89414 0.89908 0.0
C1087 C 0.11786 0.89391 0.02528 0.0
C1088 C 0.09994 0.88737 0.07458 0.0
C1089 C 0.11475 0.88662 0.94918 0.0
C1090 C 0.07885 0.87251 0.04828 0.0
C1091 C 0.0756 0.86503 0.97238 0.0
H1092 H 0.23069 0.13764 0.89541 0.0
H1093 H 0.1847 0.06915 0.9316 0.0
H1094 H 0.19003 0.07402 0.06954 0.0
H1095 H 0.20844 0.09704 0.17963 0.0
H1096 H 0.25254 0.166 0.1487 0.0
H1097 H 0.24721 0.1617 0.00881 0.0
C1098 C 0.22137 0.12394 0.93338 0.0
C1099 C 0.20721 0.10306 0.90278 0.0
C1100 C 0.22445 0.12684 0.01353 0.0
C1101 C 0.19576 0.08538 0.95336 0.0
C1102 C 0.19882 0.0881 0.03239 0.0
C1103 C 0.21706 0.11113 0.14228 0.0
C1104 C 0.23122 0.13172 0.17405 0.0
C1105 C 0.21338 0.10863 0.06294 0.0
C1106 C 0.24175 0.14993 0.12522 0.0
C1107 C 0.23863 0.14747 0.04543 0.0
H1108 H 0.90399 0.12688 0.99874 0.0
H1109 H 0.86593 0.05724 0.96456 0.0
H1110 H 0.85307 0.05241 0.09776 0.0
H1111 H 0.85605 0.06785 0.2271 0.0
H1112 H 0.89558 0.13755 0.26055 0.0
H1113 H 0.90427 0.14254 0.12386 0.0
C1114 C 0.89274 0.11064 0.02033 0.0
C1115 C 0.88601 0.09241 0.97234 0.0
C1116 C 0.88575 0.10804 0.09674 0.0
C1117 C 0.8712 0.07152 0.00037 0.0
C1118 C 0.86397 0.06877 0.0766 0.0
C1119 C 0.86621 0.08417 0.20425 0.0
C1120 C 0.87537 0.10229 0.2541 0.0
C1121 C 0.87157 0.08689 0.12578 0.0
C1122 C 0.8885 0.12332 0.22355 0.0
C1123 C 0.89353 0.12619 0.14546 0.0
H1124 H 0.93113 0.78286 0.17656 0.0
H1125 H 0.86195 0.75484 0.21728 0.0
H1126 H 0.85617 0.75913 0.08176 0.0
H1127 H 0.87119 0.77443 0.95539 0.0
H1128 H 0.9403 0.80328 0.91396 0.0
H1129 H 0.94571 0.79495 0.04613 0.0
C1130 C 0.91473 0.77729 0.15558 0.0
C1131 C 0.89704 0.7688 0.20727 0.0
C1132 C 0.91156 0.78021 0.07773 0.0
C1133 C 0.87588 0.76162 0.17896 0.0
C1134 C 0.87257 0.76415 0.1015 0.0
C1135 C 0.88742 0.77875 0.97526 0.0
C1136 C 0.90535 0.78954 0.9255 0.0
C1137 C 0.89037 0.77407 0.05107 0.0
C1138 C 0.92624 0.7948 0.95122 0.0
C1139 C 0.92934 0.79015 0.02684 0.0
H1140 H 0.7589 0.54363 0.13995 0.0
H1141 H 0.82888 0.58197 0.1646 0.0
H1142 H 0.82527 0.57661 0.30446 0.0
H1143 H 0.80166 0.56197 0.42001 0.0
H1144 H 0.73184 0.52258 0.39047 0.0
H1145 H 0.73598 0.52718 0.25184 0.0
C1146 C 0.7734 0.55099 0.17584 0.0
C1147 C 0.7941 0.56353 0.14228 0.0
C1148 C 0.77121 0.54739 0.25521 0.0
C1149 C 0.81274 0.57245 0.18939 0.0
C1150 C 0.81067 0.5693 0.26919 0.0
C1151 C 0.78746 0.55391 0.38306 0.0
C1152 C 0.76647 0.54181 0.41543 0.0
C1153 C 0.78994 0.5568 0.30283 0.0
C1154 C 0.74815 0.53196 0.36685 0.0
C1155 C 0.75048 0.53466 0.28761 0.0
H1156 H 0.43714 0.20508 0.34676 0.0
H1157 H 0.48305 0.27339 0.38388 0.0
H1158 H 0.47766 0.2816 0.25166 0.0
H1159 H 0.46251 0.26869 0.12262 0.0
H1160 H 0.41799 0.19996 0.08507 0.0
H1161 H 0.41998 0.19259 0.22098 0.0
C1162 C 0.4459 0.22179 0.32593 0.0
C1163 C 0.46047 0.23862 0.3747 0.0
C1164 C 0.44294 0.22627 0.24996 0.0
C1165 C 0.47154 0.26021 0.34758 0.0
C1166 C 0.46855 0.26487 0.27191 0.0
C1167 C 0.45289 0.25216 0.14447 0.0
C1168 C 0.44025 0.23486 0.09381 0.0
C1169 C 0.45458 0.24796 0.22223 0.0
C1170 C 0.42795 0.21353 0.12288 0.0
C1171 C 0.42916 0.20928 0.20045 0.0
H1172 H 0.7591 0.19937 0.35963 0.0
H1173 H 0.78551 0.26871 0.32905 0.0
H1174 H 0.7856 0.26453 0.19044 0.0
H1175 H 0.77994 0.24184 0.07881 0.0
H1176 H 0.75221 0.17225 0.10432 0.0
H1177 H 0.75084 0.17582 0.24436 0.0
C1178 C 0.76428 0.21342 0.3225 0.0
C1179 C 0.77216 0.23431 0.35456 0.0
C1180 C 0.76445 0.21093 0.24225 0.0
C1181 C 0.77939 0.25247 0.3057 0.0
C1182 C 0.77954 0.25013 0.22646 0.0
C1183 C 0.77373 0.22742 0.1149 0.0
C1184 C 0.76657 0.20686 0.08157 0.0
C1185 C 0.77253 0.22955 0.19432 0.0
C1186 C 0.75803 0.18829 0.12895 0.0
C1187 C 0.75718 0.19033 0.20884 0.0
H1188 H 0.90271 0.44325 0.55817 0.0
H1189 H 0.87356 0.48422 0.5584 0.0
H1190 H 0.86804 0.47964 0.41955 0.0
H1191 H 0.8679 0.46061 0.30042 0.0
H1192 H 0.89754 0.42 0.30235 0.0
H1193 H 0.90616 0.42764 0.43779 0.0
C1194 C 0.89542 0.45142 0.52774 0.0
C1195 C 0.88835 0.46383 0.56873 0.0
C1196 C 0.89208 0.44855 0.4482 0.0
C1197 C 0.87914 0.47452 0.52827 0.0
C1198 C 0.87584 0.4718 0.44884 0.0
C1199 C 0.87674 0.45391 0.32982 0.0
C1200 C 0.88195 0.43968 0.29098 0.0
C1201 C 0.88173 0.45838 0.40842 0.0
C1202 C 0.89302 0.43078 0.3309 0.0
C1203 C 0.89807 0.43518 0.40847 0.0
H1204 H 0.52782 0.39836 0.59771 0.0
H1205 H 0.552 0.46707 0.63446 0.0
H1206 H 0.55907 0.47405 0.49716 0.0
H1207 H 0.56237 0.46136 0.37051 0.0
H1208 H 0.54086 0.39322 0.33401 0.0
H1209 H 0.52845 0.38514 0.46744 0.0
C1210 C 0.53417 0.41476 0.57528 0.0
C1211 C 0.53956 0.43223 0.62579 0.0
C1212 C 0.53888 0.41875 0.49672 0.0
C1213 C 0.54792 0.45344 0.59643 0.0
C1214 C 0.55202 0.45743 0.51815 0.0
C1215 C 0.55482 0.4447 0.39167 0.0
C1216 C 0.55254 0.42791 0.34286 0.0
C1217 C 0.54827 0.44034 0.4684 0.0
C1218 C 0.54252 0.40637 0.37037 0.0
C1219 C 0.53558 0.40178 0.44676 0.0
H1220 H 0.59429 0.115 0.47671 0.0
H1221 H 0.52506 0.08744 0.51524 0.0
H1222 H 0.51977 0.09233 0.37975 0.0
H1223 H 0.53522 0.10783 0.25397 0.0
H1224 H 0.60439 0.1363 0.21485 0.0
H1225 H 0.60931 0.12754 0.34701 0.0
C1226 C 0.57797 0.10967 0.45525 0.0
C1227 C 0.56013 0.10109 0.50635 0.0
C1228 C 0.57509 0.11294 0.37744 0.0
C1229 C 0.53911 0.09425 0.4774 0.0
C1230 C 0.53607 0.09713 0.39996 0.0
C1231 C 0.55136 0.112 0.27431 0.0
C1232 C 0.56944 0.12277 0.2251 0.0
C1233 C 0.55402 0.10707 0.35014 0.0
C1234 C 0.59021 0.12783 0.25156 0.0
C1235 C 0.59302 0.12293 0.3272 0.0
H1236 H 0.44286 0.90466 0.44104 0.0
H1237 H 0.48029 0.87169 0.45062 0.0
H1238 H 0.47332 0.86566 0.58834 0.0
H1239 H 0.4537 0.86677 0.70344 0.0
H1240 H 0.41698 0.90052 0.69308 0.0
H1241 H 0.42612 0.90863 0.55806 0.0
C1242 C 0.44976 0.89641 0.47334 0.0
C1243 C 0.46192 0.88851 0.43524 0.0
C1244 C 0.4455 0.89277 0.55235 0.0
C1245 C 0.47083 0.87795 0.47829 0.0
C1246 C 0.46674 0.87436 0.55712 0.0
C1247 C 0.44819 0.87641 0.67261 0.0
C1248 C 0.43477 0.8831 0.70924 0.0
C1249 C 0.45369 0.88128 0.59451 0.0
C1250 C 0.42719 0.89495 0.66665 0.0
C1251 C 0.4325 0.89974 0.58927 0.0
H1252 H 0.12827 0.60075 0.42892 0.0
H1253 H 0.08788 0.53165 0.38487 0.0
H1254 H 0.09012 0.52374 0.51992 0.0
H1255 H 0.10664 0.53614 0.64692 0.0
H1256 H 0.14787 0.60499 0.69095 0.0
H1257 H 0.14217 0.61336 0.55933 0.0
C1258 C 0.1196 0.58398 0.44908 0.0
C1259 C 0.10815 0.56679 0.3967 0.0
C1260 C 0.12135 0.5795 0.52649 0.0
C1261 C 0.09697 0.54517 0.42387 0.0
C1262 C 0.09832 0.54061 0.501 0.0
C1263 C 0.11427 0.55298 0.62765 0.0
C1264 C 0.12769 0.56994 0.67805 0.0
C1265 C 0.11104 0.5576 0.55212 0.0
C1266 C 0.1373 0.5917 0.65316 0.0
C1267 C 0.13413 0.59646 0.5779 0.0
H1268 H 0.41433 0.54073 0.76635 0.0
H1269 H 0.48343 0.58699 0.75236 0.0
H1270 H 0.48341 0.57871 0.61677 0.0
H1271 H 0.46346 0.56057 0.50001 0.0
H1272 H 0.3943 0.51445 0.51187 0.0
H1273 H 0.39485 0.51991 0.65059 0.0
C1274 C 0.42947 0.54857 0.73427 0.0
C1275 C 0.44884 0.56444 0.76981 0.0
C1276 C 0.42937 0.5438 0.65564 0.0
C1277 C 0.46821 0.57485 0.72642 0.0
C1278 C 0.46827 0.57009 0.64879 0.0
C1279 C 0.44854 0.55146 0.53296 0.0
C1280 C 0.42885 0.5373 0.49527 0.0
C1281 C 0.44888 0.55493 0.61244 0.0
C1282 C 0.40971 0.52554 0.5392 0.0
C1283 C 0.40997 0.52873 0.61862 0.0
H1284 H 0.54045 0.81087 0.89547 0.0
H1285 H 0.57683 0.77777 0.93827 0.0
H1286 H 0.5735 0.76736 0.8033 0.0
H1287 H 0.5571 0.76442 0.67674 0.0
H1288 H 0.5199 0.79652 0.63371 0.0
H1289 H 0.52678 0.81067 0.76526 0.0
C1290 C 0.54802 0.80173 0.87507 0.0
C1291 C 0.55866 0.79489 0.92718 0.0
C1292 C 0.54565 0.79539 0.79762 0.0
C1293 C 0.5684 0.7831 0.89959 0.0
C1294 C 0.56642 0.77704 0.82247 0.0
C1295 C 0.5506 0.77462 0.69615 0.0
C1296 C 0.53795 0.77938 0.64601 0.0
C1297 C 0.5545 0.78251 0.77167 0.0
C1298 C 0.52985 0.79282 0.6712 0.0
C1299 C 0.53369 0.8008 0.74647 0.0
H1300 H 0.23202 0.79731 0.62777 0.0
H1301 H 0.21286 0.72995 0.58639 0.0
H1302 H 0.19916 0.72052 0.71806 0.0
H1303 H 0.19577 0.7322 0.84758 0.0
H1304 H 0.21641 0.8 0.88954 0.0
H1305 H 0.22606 0.80846 0.75433 0.0
C1306 C 0.22476 0.78055 0.64764 0.0
C1307 C 0.22343 0.76433 0.5979 0.0
C1308 C 0.21715 0.77536 0.72324 0.0
C1309 C 0.2138 0.74264 0.62362 0.0
C1310 C 0.20608 0.73729 0.6989 0.0
C1311 C 0.20197 0.74874 0.82689 0.0
C1312 C 0.20558 0.76549 0.8786 0.0
C1313 C 0.20801 0.7536 0.74954 0.0
C1314 C 0.21365 0.78685 0.85092 0.0
C1315 C 0.21927 0.79173 0.77375 0.0
H1316 H 0.20286 0.43641 0.59059 0.0
H1317 H 0.2715 0.48029 0.5507 0.0
H1318 H 0.27975 0.47449 0.68233 0.0
H1319 H 0.26697 0.45947 0.81148 0.0
H1320 H 0.19801 0.41678 0.85193 0.0
H1321 H 0.19037 0.41932 0.71672 0.0
C1322 C 0.21964 0.44464 0.61073 0.0
C1323 C 0.23656 0.45875 0.5613 0.0
C1324 C 0.22417 0.4414 0.68636 0.0
C1325 C 0.25824 0.46914 0.58752 0.0
C1326 C 0.26293 0.46591 0.66283 0.0
C1327 C 0.25031 0.45037 0.79048 0.0
C1328 C 0.23305 0.4381 0.84183 0.0
C1329 C 0.24597 0.45235 0.7131 0.0
C1330 C 0.21156 0.42645 0.81367 0.0
C1331 C 0.20716 0.42798 0.73648 0.0
loop_
_geom_bond_atom_site_label_1
_geom_bond_atom_site_label_2
_geom_bond_distance
_geom_bond_site_symmetry_2
_ccdc_geom_bond_type
Co0 O3 1.970 . S
Co0 N17 1.989 . S
Co0 O25 1.967 . S
Co0 O32 1.920 . S
Co1 O4 1.966 . S
Co1 N10 2.022 . S
Co1 N18 1.993 . S
Co1 O26 1.941 . S
C2 O3 1.258 . S
C2 O4 1.263 . S
O3 Co0 1.970 . S
O3 C2 1.258 . S
O4 Co1 1.966 . S
O4 C2 1.263 . S
C5 O6 1.235 . S
C5 O32 1.289 . S
O6 C5 1.235 . S
C7 C9 1.400 . S
C7 N10 1.351 . S
C7 C12 1.501 . S
C8 C9 1.387 . S
C8 N11 1.341 . S
C9 C7 1.400 . S
C9 C8 1.387 . S
N10 Co1 2.022 . S
N10 C7 1.351 . S
N10 N11 1.365 . S
N11 C8 1.341 . S
N11 N10 1.365 . S
N11 H31 0.862 . S
C12 C7 1.501 . S
C12 H13 0.961 . S
C12 H14 0.961 . S
C12 H15 0.960 . S
H13 C12 0.961 . S
H14 C12 0.961 . S
H15 C12 0.960 . S
C16 N17 1.342 . S
C16 C20 1.401 . S
C16 C21 1.499 . S
N17 Co0 1.989 . S
N17 C16 1.342 . S
N17 N18 1.388 . S
N18 Co1 1.993 . S
N18 N17 1.388 . S
N18 C19 1.346 . S
C19 N18 1.346 . S
C19 C20 1.396 . S
C19 C29 1.510 . S
C20 C16 1.401 . S
C20 C19 1.396 . S
C21 C16 1.499 . S
C21 H22 0.959 . S
C21 H23 0.960 . S
C21 H24 0.961 . S
H22 C21 0.959 . S
H23 C21 0.960 . S
H24 C21 0.961 . S
O25 Co0 1.967 . S
O25 C33 1.258 . S
O26 Co1 1.941 . S
O26 C33 1.266 . S
H27 C29 0.959 . S
H28 C29 0.961 . S
C29 C19 1.510 . S
C29 H27 0.959 . S
C29 H28 0.961 . S
C29 H30 0.960 . S
H30 C29 0.960 . S
H31 N11 0.862 . S
O32 Co0 1.920 . S
O32 C5 1.289 . S
C33 O25 1.258 . S
C33 O26 1.266 . S
Co34 O37 1.970 . S
Co34 N51 1.989 . S
Co34 O59 1.967 . S
Co34 O66 1.920 . S
Co35 O38 1.966 . S
Co35 N44 2.022 . S
Co35 N52 1.993 . S
Co35 O60 1.941 . S
C36 O37 1.258 . S
C36 O38 1.263 . S
O37 Co34 1.970 . S
O37 C36 1.258 . S
O38 Co35 1.966 . S
O38 C36 1.263 . S
C39 O40 1.235 . S
C39 O66 1.289 . S
O40 C39 1.235 . S
C41 C43 1.400 . S
C41 N44 1.351 . S
C41 C46 1.501 . S
C42 C43 1.387 . S
C42 N45 1.341 . S
C43 C41 1.400 . S
C43 C42 1.387 . S
N44 Co35 2.022 . S
N44 C41 1.351 . S
N44 N45 1.365 . S
N45 C42 1.341 . S
N45 N44 1.365 . S
N45 H65 0.862 . S
C46 C41 1.501 . S
C46 H47 0.961 . S
C46 H48 0.961 . S
C46 H49 0.960 . S
H47 C46 0.961 . S
H48 C46 0.961 . S
H49 C46 0.960 . S
C50 N51 1.342 . S
C50 C54 1.401 . S
C50 C55 1.499 . S
N51 Co34 1.989 . S
N51 C50 1.342 . S
N51 N52 1.388 . S
N52 Co35 1.993 . S
N52 N51 1.388 . S
N52 C53 1.346 . S
C53 N52 1.346 . S
C53 C54 1.396 . S
C53 C63 1.510 . S
C54 C50 1.401 . S
C54 C53 1.396 . S
C55 C50 1.499 . S
C55 H56 0.959 . S
C55 H57 0.960 . S
C55 H58 0.961 . S
H56 C55 0.959 . S
H57 C55 0.960 . S
H58 C55 0.961 . S
O59 Co34 1.967 . S
O59 C67 1.258 . S
O60 Co35 1.941 . S
O60 C67 1.266 . S
H61 C63 0.959 . S
H62 C63 0.961 . S
C63 C53 1.510 . S
C63 H61 0.959 . S
C63 H62 0.961 . S
C63 H64 0.960 . S
H64 C63 0.960 . S
H65 N45 0.862 . S
O66 Co34 1.920 . S
O66 C39 1.289 . S
C67 O59 1.258 . S
C67 O60 1.266 . S
Co68 O71 1.970 . S
Co68 N85 1.989 . S
Co68 O93 1.967 . S
Co68 O100 1.920 . S
Co69 O72 1.966 . S
Co69 N78 2.022 . S
Co69 N86 1.993 . S
Co69 O94 1.941 . S
C70 O71 1.258 . S
C70 O72 1.263 . S
O71 Co68 1.970 . S
O71 C70 1.258 . S
O72 Co69 1.966 . S
O72 C70 1.263 . S
C73 O74 1.235 . S
C73 O100 1.289 . S
O74 C73 1.235 . S
C75 C77 1.400 . S
C75 N78 1.351 . S
C75 C80 1.501 . S
C76 C77 1.387 . S
C76 N79 1.341 . S
C77 C75 1.400 . S
C77 C76 1.387 . S
N78 Co69 2.022 . S
N78 C75 1.351 . S
N78 N79 1.365 . S
N79 C76 1.341 . S
N79 N78 1.365 . S
N79 H99 0.862 . S
C80 C75 1.501 . S
C80 H81 0.961 . S
C80 H82 0.961 . S
C80 H83 0.960 . S
H81 C80 0.961 . S
H82 C80 0.961 . S
H83 C80 0.960 . S
C84 N85 1.342 . S
C84 C88 1.401 . S
C84 C89 1.499 . S
N85 Co68 1.989 . S
N85 C84 1.342 . S
N85 N86 1.388 . S
N86 Co69 1.993 . S
N86 N85 1.388 . S
N86 C87 1.346 . S
C87 N86 1.346 . S
C87 C88 1.396 . S
C87 C97 1.510 . S
C88 C84 1.401 . S
C88 C87 1.396 . S
C89 C84 1.499 . S
C89 H90 0.959 . S
C89 H91 0.960 . S
C89 H92 0.961 . S
H90 C89 0.959 . S
H91 C89 0.960 . S
H92 C89 0.961 . S
O93 Co68 1.967 . S
O93 C101 1.258 . S
O94 Co69 1.941 . S
O94 C101 1.266 . S
H95 C97 0.959 . S
H96 C97 0.961 . S
C97 C87 1.510 . S
C97 H95 0.959 . S
C97 H96 0.961 . S
C97 H98 0.960 . S
H98 C97 0.960 . S
H99 N79 0.862 . S
O100 Co68 1.920 . S
O100 C73 1.289 . S
C101 O93 1.258 . S
C101 O94 1.266 . S
Co102 O105 1.970 . S
Co102 N119 1.989 . S
Co102 O127 1.967 . S
Co102 O134 1.920 . S
Co103 O106 1.966 . S
Co103 N112 2.022 . S
Co103 N120 1.993 . S
Co103 O128 1.941 . S
C104 O105 1.258 . S
C104 O106 1.263 . S
O105 Co102 1.970 . S
O105 C104 1.258 . S
O106 Co103 1.966 . S
O106 C104 1.263 . S
C107 O108 1.235 . S
C107 O134 1.289 . S
O108 C107 1.235 . S
C109 C111 1.400 . S
C109 N112 1.351 . S
C109 C114 1.501 . S
C110 C111 1.387 . S
C110 N113 1.341 . S
C111 C109 1.400 . S
C111 C110 1.387 . S
N112 Co103 2.022 . S
N112 C109 1.351 . S
N112 N113 1.365 . S
N113 C110 1.341 . S
N113 N112 1.365 . S
N113 H133 0.862 . S
C114 C109 1.501 . S
C114 H115 0.961 . S
C114 H116 0.961 . S
C114 H117 0.960 . S
H115 C114 0.961 . S
H116 C114 0.961 . S
H117 C114 0.960 . S
C118 N119 1.342 . S
C118 C122 1.401 . S
C118 C123 1.499 . S
N119 Co102 1.989 . S
N119 C118 1.342 . S
N119 N120 1.388 . S
N120 Co103 1.993 . S
N120 N119 1.388 . S
N120 C121 1.346 . S
C121 N120 1.346 . S
C121 C122 1.396 . S
C121 C131 1.510 . S
C122 C118 1.401 . S
C122 C121 1.396 . S
C123 C118 1.499 . S
C123 H124 0.959 . S
C123 H125 0.960 . S
C123 H126 0.961 . S
H124 C123 0.959 . S
H125 C123 0.960 . S
H126 C123 0.961 . S
O127 Co102 1.967 . S
O127 C135 1.258 . S
O128 Co103 1.941 . S
O128 C135 1.266 . S
H129 C131 0.959 . S
H130 C131 0.961 . S
C131 C121 1.510 . S
C131 H129 0.959 . S
C131 H130 0.961 . S
C131 H132 0.960 . S
H132 C131 0.960 . S
H133 N113 0.862 . S
O134 Co102 1.920 . S
O134 C107 1.289 . S
C135 O127 1.258 . S
C135 O128 1.266 . S
Co136 O139 1.970 . S
Co136 N153 1.989 . S
Co136 O161 1.967 . S
Co136 O168 1.920 . S
Co137 O140 1.966 . S
Co137 N146 2.022 . S
Co137 N154 1.993 . S
Co137 O162 1.941 . S
C138 O139 1.258 . S
C138 O140 1.263 . S
O139 Co136 1.970 . S
O139 C138 1.258 . S
O140 Co137 1.966 . S
O140 C138 1.263 . S
C141 O142 1.235 . S
C141 O168 1.289 . S
O142 C141 1.235 . S
C143 C145 1.400 . S
C143 N146 1.351 . S
C143 C148 1.501 . S
C144 C145 1.387 . S
C144 N147 1.341 . S
C145 C143 1.400 . S
C145 C144 1.387 . S
N146 Co137 2.022 . S
N146 C143 1.351 . S
N146 N147 1.365 . S
N147 C144 1.341 . S
N147 N146 1.365 . S
N147 H167 0.862 . S
C148 C143 1.501 . S
C148 H149 0.961 . S
C148 H150 0.961 . S
C148 H151 0.960 . S
H149 C148 0.961 . S
H150 C148 0.961 . S
H151 C148 0.960 . S
C152 N153 1.342 . S
C152 C156 1.401 . S
C152 C157 1.499 . S
N153 Co136 1.989 . S
N153 C152 1.342 . S
N153 N154 1.388 . S
N154 Co137 1.993 . S
N154 N153 1.388 . S
N154 C155 1.346 . S
C155 N154 1.346 . S
C155 C156 1.396 . S
C155 C165 1.510 . S
C156 C152 1.401 . S
C156 C155 1.396 . S
C157 C152 1.499 . S
C157 H158 0.959 . S
C157 H159 0.960 . S
C157 H160 0.961 . S
H158 C157 0.959 . S
H159 C157 0.960 . S
H160 C157 0.961 . S
O161 Co136 1.967 . S
O161 C169 1.258 . S
O162 Co137 1.941 . S
O162 C169 1.266 . S
H163 C165 0.959 . S
H164 C165 0.961 . S
C165 C155 1.510 . S
C165 H163 0.959 . S
C165 H164 0.961 . S
C165 H166 0.960 . S
H166 C165 0.960 . S
H167 N147 0.862 . S
O168 Co136 1.920 . S
O168 C141 1.289 . S
C169 O161 1.258 . S
C169 O162 1.266 . S
Co170 O173 1.970 . S
Co170 N187 1.989 . S
Co170 O195 1.967 . S
Co170 O202 1.920 . S
Co171 O174 1.966 . S
Co171 N180 2.022 . S
Co171 N188 1.993 . S
Co171 O196 1.941 . S
C172 O173 1.258 . S
C172 O174 1.263 . S
O173 Co170 1.970 . S
O173 C172 1.258 . S
O174 Co171 1.966 . S
O174 C172 1.263 . S
C175 O176 1.235 . S
C175 O202 1.289 . S
O176 C175 1.235 . S
C177 C179 1.400 . S
C177 N180 1.351 . S
C177 C182 1.501 . S
C178 C179 1.387 . S
C178 N181 1.341 . S
C179 C177 1.400 . S
C179 C178 1.387 . S
N180 Co171 2.022 . S
N180 C177 1.351 . S
N180 N181 1.365 . S
N181 C178 1.341 . S
N181 N180 1.365 . S
N181 H201 0.862 . S
C182 C177 1.501 . S
C182 H183 0.961 . S
C182 H184 0.961 . S
C182 H185 0.960 . S
H183 C182 0.961 . S
H184 C182 0.961 . S
H185 C182 0.960 . S
C186 N187 1.342 . S
C186 C190 1.401 . S
C186 C191 1.499 . S
N187 Co170 1.989 . S
N187 C186 1.342 . S
N187 N188 1.388 . S
N188 Co171 1.993 . S
N188 N187 1.388 . S
N188 C189 1.346 . S
C189 N188 1.346 . S
C189 C190 1.396 . S
C189 C199 1.510 . S
C190 C186 1.401 . S
C190 C189 1.396 . S
C191 C186 1.499 . S
C191 H192 0.959 . S
C191 H193 0.960 . S
C191 H194 0.961 . S
H192 C191 0.959 . S
H193 C191 0.960 . S
H194 C191 0.961 . S
O195 Co170 1.967 . S
O195 C203 1.258 . S
O196 Co171 1.941 . S
O196 C203 1.266 . S
H197 C199 0.959 . S
H198 C199 0.961 . S
C199 C189 1.510 . S
C199 H197 0.959 . S
C199 H198 0.961 . S
C199 H200 0.960 . S
H200 C199 0.960 . S
H201 N181 0.862 . S
O202 Co170 1.920 . S
O202 C175 1.289 . S
C203 O195 1.258 . S
C203 O196 1.266 . S
Co204 O207 1.970 . S
Co204 N221 1.989 . S
Co204 O229 1.967 . S
Co204 O236 1.920 . S
Co205 O208 1.966 . S
Co205 N214 2.022 . S
Co205 N222 1.993 . S
Co205 O230 1.941 . S
C206 O207 1.258 . S
C206 O208 1.263 . S
O207 Co204 1.970 . S
O207 C206 1.258 . S
O208 Co205 1.966 . S
O208 C206 1.263 . S
C209 O210 1.235 . S
C209 O236 1.289 . S
O210 C209 1.235 . S
C211 C213 1.400 . S
C211 N214 1.351 . S
C211 C216 1.501 . S
C212 C213 1.387 . S
C212 N215 1.341 . S
C213 C211 1.400 . S
C213 C212 1.387 . S
N214 Co205 2.022 . S
N214 C211 1.351 . S
N214 N215 1.365 . S
N215 C212 1.341 . S
N215 N214 1.365 . S
N215 H235 0.862 . S
C216 C211 1.501 . S
C216 H217 0.961 . S
C216 H218 0.961 . S
C216 H219 0.960 . S
H217 C216 0.961 . S
H218 C216 0.961 . S
H219 C216 0.960 . S
C220 N221 1.342 . S
C220 C224 1.401 . S
C220 C225 1.499 . S
N221 Co204 1.989 . S
N221 C220 1.342 . S
N221 N222 1.388 . S
N222 Co205 1.993 . S
N222 N221 1.388 . S
N222 C223 1.346 . S
C223 N222 1.346 . S
C223 C224 1.396 . S
C223 C233 1.510 . S
C224 C220 1.401 . S
C224 C223 1.396 . S
C225 C220 1.499 . S
C225 H226 0.959 . S
C225 H227 0.960 . S
C225 H228 0.961 . S
H226 C225 0.959 . S
H227 C225 0.960 . S
H228 C225 0.961 . S
O229 Co204 1.967 . S
O229 C237 1.258 . S
O230 Co205 1.941 . S
O230 C237 1.266 . S
H231 C233 0.959 . S
H232 C233 0.961 . S
C233 C223 1.510 . S
C233 H231 0.959 . S
C233 H232 0.961 . S
C233 H234 0.960 . S
H234 C233 0.960 . S
H235 N215 0.862 . S
O236 Co204 1.920 . S
O236 C209 1.289 . S
C237 O229 1.258 . S
C237 O230 1.266 . S
Co238 O241 1.970 . S
Co238 N255 1.989 . S
Co238 O263 1.967 . S
Co238 O270 1.920 . S
Co239 O242 1.966 . S
Co239 N248 2.022 . S
Co239 N256 1.993 . S
Co239 O264 1.941 . S
C240 O241 1.258 . S
C240 O242 1.263 . S
O241 Co238 1.970 . S
O241 C240 1.258 . S
O242 Co239 1.966 . S
O242 C240 1.263 . S
C243 O244 1.235 . S
C243 O270 1.289 . S
O244 C243 1.235 . S
C245 C247 1.400 . S
C245 N248 1.351 . S
C245 C250 1.501 . S
C246 C247 1.387 . S
C246 N249 1.341 . S
C247 C245 1.400 . S
C247 C246 1.387 . S
N248 Co239 2.022 . S
N248 C245 1.351 . S
N248 N249 1.365 . S
N249 C246 1.341 . S
N249 N248 1.365 . S
N249 H269 0.862 . S
C250 C245 1.501 . S
C250 H251 0.961 . S
C250 H252 0.961 . S
C250 H253 0.960 . S
H251 C250 0.961 . S
H252 C250 0.961 . S
H253 C250 0.960 . S
C254 N255 1.342 . S
C254 C258 1.401 . S
C254 C259 1.499 . S
N255 Co238 1.989 . S
N255 C254 1.342 . S
N255 N256 1.388 . S
N256 Co239 1.993 . S
N256 N255 1.388 . S
N256 C257 1.346 . S
C257 N256 1.346 . S
C257 C258 1.396 . S
C257 C267 1.510 . S
C258 C254 1.401 . S
C258 C257 1.396 . S
C259 C254 1.499 . S
C259 H260 0.959 . S
C259 H261 0.960 . S
C259 H262 0.961 . S
H260 C259 0.959 . S
H261 C259 0.960 . S
H262 C259 0.961 . S
O263 Co238 1.967 . S
O263 C271 1.258 . S
O264 Co239 1.941 . S
O264 C271 1.266 . S
H265 C267 0.959 . S
H266 C267 0.961 . S
C267 C257 1.510 . S
C267 H265 0.959 . S
C267 H266 0.961 . S
C267 H268 0.960 . S
H268 C267 0.960 . S
H269 N249 0.862 . S
O270 Co238 1.920 . S
O270 C243 1.289 . S
C271 O263 1.258 . S
C271 O264 1.266 . S
Co272 O275 1.970 . S
Co272 N289 1.989 . S
Co272 O297 1.967 . S
Co272 O304 1.920 . S
Co273 O276 1.966 . S
Co273 N282 2.022 . S
Co273 N290 1.993 . S
Co273 O298 1.941 . S
C274 O275 1.258 . S
C274 O276 1.263 . S
O275 Co272 1.970 . S
O275 C274 1.258 . S
O276 Co273 1.966 . S
O276 C274 1.263 . S
C277 O278 1.235 . S
C277 O304 1.289 . S
O278 C277 1.235 . S
C279 C281 1.400 . S
C279 N282 1.351 . S
C279 C284 1.501 . S
C280 C281 1.387 . S
C280 N283 1.341 . S
C281 C279 1.400 . S
C281 C280 1.387 . S
N282 Co273 2.022 . S
N282 C279 1.351 . S
N282 N283 1.365 . S
N283 C280 1.341 . S
N283 N282 1.365 . S
N283 H303 0.862 . S
C284 C279 1.501 . S
C284 H285 0.961 . S
C284 H286 0.961 . S
C284 H287 0.960 . S
H285 C284 0.961 . S
H286 C284 0.961 . S
H287 C284 0.960 . S
C288 N289 1.342 . S
C288 C292 1.401 . S
C288 C293 1.499 . S
N289 Co272 1.989 . S
N289 C288 1.342 . S
N289 N290 1.388 . S
N290 Co273 1.993 . S
N290 N289 1.388 . S
N290 C291 1.346 . S
C291 N290 1.346 . S
C291 C292 1.396 . S
C291 C301 1.510 . S
C292 C288 1.401 . S
C292 C291 1.396 . S
C293 C288 1.499 . S
C293 H294 0.959 . S
C293 H295 0.960 . S
C293 H296 0.961 . S
H294 C293 0.959 . S
H295 C293 0.960 . S
H296 C293 0.961 . S
O297 Co272 1.967 . S
O297 C305 1.258 . S
O298 Co273 1.941 . S
O298 C305 1.266 . S
H299 C301 0.959 . S
H300 C301 0.961 . S
C301 C291 1.510 . S
C301 H299 0.959 . S
C301 H300 0.961 . S
C301 H302 0.960 . S
H302 C301 0.960 . S
H303 N283 0.862 . S
O304 Co272 1.920 . S
O304 C277 1.289 . S
C305 O297 1.258 . S
C305 O298 1.266 . S
Co306 O309 1.970 . S
Co306 N323 1.989 . S
Co306 O331 1.967 . S
Co306 O338 1.920 . S
Co307 O310 1.966 . S
Co307 N316 2.022 1_556 S
Co307 N324 1.993 . S
Co307 O332 1.941 . S
C308 O309 1.258 . S
C308 O310 1.263 . S
O309 Co306 1.970 . S
O309 C308 1.258 . S
O310 Co307 1.966 . S
O310 C308 1.263 . S
C311 O312 1.235 . S
C311 O338 1.289 . S
O312 C311 1.235 . S
C313 C315 1.400 . S
C313 N316 1.351 . S
C313 C318 1.501 . S
C314 C315 1.387 . S
C314 N317 1.341 . S
C315 C313 1.400 . S
C315 C314 1.387 . S
N316 Co307 2.022 1_554 S
N316 C313 1.351 . S
N316 N317 1.365 . S
N317 C314 1.341 . S
N317 N316 1.365 . S
N317 H337 0.862 . S
C318 C313 1.501 . S
C318 H319 0.961 . S
C318 H320 0.961 . S
C318 H321 0.960 . S
H319 C318 0.961 . S
H320 C318 0.961 . S
H321 C318 0.960 . S
C322 N323 1.342 . S
C322 C326 1.401 . S
C322 C327 1.499 . S
N323 Co306 1.989 . S
N323 C322 1.342 . S
N323 N324 1.388 . S
N324 Co307 1.993 . S
N324 N323 1.388 . S
N324 C325 1.346 . S
C325 N324 1.346 . S
C325 C326 1.396 . S
C325 C335 1.510 1_556 S
C326 C322 1.401 . S
C326 C325 1.396 . S
C327 C322 1.499 . S
C327 H328 0.959 . S
C327 H329 0.960 . S
C327 H330 0.961 . S
H328 C327 0.959 . S
H329 C327 0.960 . S
H330 C327 0.961 . S
O331 Co306 1.967 . S
O331 C339 1.258 . S
O332 Co307 1.941 . S
O332 C339 1.266 . S
H333 C335 0.959 . S
H334 C335 0.961 . S
C335 C325 1.510 1_554 S
C335 H333 0.959 . S
C335 H334 0.961 . S
C335 H336 0.960 . S
H336 C335 0.960 . S
H337 N317 0.862 . S
O338 Co306 1.920 . S
O338 C311 1.289 . S
C339 O331 1.258 . S
C339 O332 1.266 . S
Co340 O343 1.970 . S
Co340 N357 1.989 . S
Co340 O365 1.967 . S
Co340 O372 1.920 . S
Co341 O344 1.966 . S
Co341 N350 2.022 1_556 S
Co341 N358 1.993 . S
Co341 O366 1.941 . S
C342 O343 1.258 . S
C342 O344 1.263 . S
O343 Co340 1.970 . S
O343 C342 1.258 . S
O344 Co341 1.966 . S
O344 C342 1.263 . S
C345 O346 1.235 . S
C345 O372 1.289 . S
O346 C345 1.235 . S
C347 C349 1.400 . S
C347 N350 1.351 . S
C347 C352 1.501 . S
C348 C349 1.387 . S
C348 N351 1.341 . S
C349 C347 1.400 . S
C349 C348 1.387 . S
N350 Co341 2.022 1_554 S
N350 C347 1.351 . S
N350 N351 1.365 . S
N351 C348 1.341 . S
N351 N350 1.365 . S
N351 H371 0.862 . S
C352 C347 1.501 . S
C352 H353 0.961 . S
C352 H354 0.961 . S
C352 H355 0.960 . S
H353 C352 0.961 . S
H354 C352 0.961 . S
H355 C352 0.960 . S
C356 N357 1.342 . S
C356 C360 1.401 . S
C356 C361 1.499 . S
N357 Co340 1.989 . S
N357 C356 1.342 . S
N357 N358 1.388 . S
N358 Co341 1.993 . S
N358 N357 1.388 . S
N358 C359 1.346 . S
C359 N358 1.346 . S
C359 C360 1.396 . S
C359 C369 1.510 1_556 S
C360 C356 1.401 . S
C360 C359 1.396 . S
C361 C356 1.499 . S
C361 H362 0.959 . S
C361 H363 0.960 . S
C361 H364 0.961 . S
H362 C361 0.959 . S
H363 C361 0.960 . S
H364 C361 0.961 . S
O365 Co340 1.967 . S
O365 C373 1.258 . S
O366 Co341 1.941 . S
O366 C373 1.266 . S
H367 C369 0.959 . S
H368 C369 0.961 . S
C369 C359 1.510 1_554 S
C369 H367 0.959 . S
C369 H368 0.961 . S
C369 H370 0.960 . S
H370 C369 0.960 . S
H371 N351 0.862 . S
O372 Co340 1.920 . S
O372 C345 1.289 . S
C373 O365 1.258 . S
C373 O366 1.266 . S
Co374 O377 1.970 . S
Co374 N391 1.989 . S
Co374 O399 1.967 . S
Co374 O406 1.920 . S
Co375 O378 1.966 . S
Co375 N384 2.022 1_556 S
Co375 N392 1.993 . S
Co375 O400 1.941 . S
C376 O377 1.258 . S
C376 O378 1.263 . S
O377 Co374 1.970 . S
O377 C376 1.258 . S
O378 Co375 1.966 . S
O378 C376 1.263 . S
C379 O380 1.235 . S
C379 O406 1.289 . S
O380 C379 1.235 . S
C381 C383 1.400 . S
C381 N384 1.351 . S
C381 C386 1.501 . S
C382 C383 1.387 . S
C382 N385 1.341 . S
C383 C381 1.400 . S
C383 C382 1.387 . S
N384 Co375 2.022 1_554 S
N384 C381 1.351 . S
N384 N385 1.365 . S
N385 C382 1.341 . S
N385 N384 1.365 . S
N385 H405 0.862 . S
C386 C381 1.501 . S
C386 H387 0.961 . S
C386 H388 0.961 . S
C386 H389 0.960 . S
H387 C386 0.961 . S
H388 C386 0.961 . S
H389 C386 0.960 . S
C390 N391 1.342 . S
C390 C394 1.401 . S
C390 C395 1.499 . S
N391 Co374 1.989 . S
N391 C390 1.342 . S
N391 N392 1.388 . S
N392 Co375 1.993 . S
N392 N391 1.388 . S
N392 C393 1.346 . S
C393 N392 1.346 . S
C393 C394 1.396 . S
C393 C403 1.510 1_556 S
C394 C390 1.401 . S
C394 C393 1.396 . S
C395 C390 1.499 . S
C395 H396 0.959 . S
C395 H397 0.960 . S
C395 H398 0.961 . S
H396 C395 0.959 . S
H397 C395 0.960 . S
H398 C395 0.961 . S
O399 Co374 1.967 . S
O399 C407 1.258 . S
O400 Co375 1.941 . S
O400 C407 1.266 . S
H401 C403 0.959 . S
H402 C403 0.961 . S
C403 C393 1.510 1_554 S
C403 H401 0.959 . S
C403 H402 0.961 . S
C403 H404 0.960 . S
H404 C403 0.960 . S
H405 N385 0.862 . S
O406 Co374 1.920 . S
O406 C379 1.289 . S
C407 O399 1.258 . S
C407 O400 1.266 . S
Co408 O411 1.970 . S
Co408 N425 1.989 . S
Co408 O433 1.967 . S
Co408 O440 1.920 . S
Co409 O412 1.966 . S
Co409 N418 2.022 1_554 S
Co409 N426 1.993 . S
Co409 O434 1.941 . S
C410 O411 1.258 . S
C410 O412 1.263 . S
O411 Co408 1.970 . S
O411 C410 1.258 . S
O412 Co409 1.966 . S
O412 C410 1.263 . S
C413 O414 1.235 . S
C413 O440 1.289 . S
O414 C413 1.235 . S
C415 C417 1.400 . S
C415 N418 1.351 . S
C415 C420 1.501 . S
C416 C417 1.387 . S
C416 N419 1.341 . S
C417 C415 1.400 . S
C417 C416 1.387 . S
N418 Co409 2.022 1_556 S
N418 C415 1.351 . S
N418 N419 1.365 . S
N419 C416 1.341 . S
N419 N418 1.365 . S
N419 H439 0.862 . S
C420 C415 1.501 . S
C420 H421 0.961 . S
C420 H422 0.961 . S
C420 H423 0.960 . S
H421 C420 0.961 . S
H422 C420 0.961 . S
H423 C420 0.960 . S
C424 N425 1.342 . S
C424 C428 1.401 . S
C424 C429 1.499 . S
N425 Co408 1.989 . S
N425 C424 1.342 . S
N425 N426 1.388 . S
N426 Co409 1.993 . S
N426 N425 1.388 . S
N426 C427 1.346 . S
C427 N426 1.346 . S
C427 C428 1.396 . S
C427 C437 1.510 1_554 S
C428 C424 1.401 . S
C428 C427 1.396 . S
C429 C424 1.499 . S
C429 H430 0.959 . S
C429 H431 0.960 . S
C429 H432 0.961 . S
H430 C429 0.959 . S
H431 C429 0.960 . S
H432 C429 0.961 . S
O433 Co408 1.967 . S
O433 C441 1.258 . S
O434 Co409 1.941 . S
O434 C441 1.266 . S
H435 C437 0.959 . S
H436 C437 0.961 . S
C437 C427 1.510 1_556 S
C437 H435 0.959 . S
C437 H436 0.961 . S
C437 H438 0.960 . S
H438 C437 0.960 . S
H439 N419 0.862 . S
O440 Co408 1.920 . S
O440 C413 1.289 . S
C441 O433 1.258 . S
C441 O434 1.266 . S
Co442 O445 1.970 . S
Co442 N459 1.989 . S
Co442 O467 1.967 . S
Co442 O474 1.920 . S
Co443 O446 1.966 . S
Co443 N452 2.022 1_554 S
Co443 N460 1.993 . S
Co443 O468 1.941 . S
C444 O445 1.258 . S
C444 O446 1.263 . S
O445 Co442 1.970 . S
O445 C444 1.258 . S
O446 Co443 1.966 . S
O446 C444 1.263 . S
C447 O448 1.235 . S
C447 O474 1.289 . S
O448 C447 1.235 . S
C449 C451 1.400 . S
C449 N452 1.351 . S
C449 C454 1.501 . S
C450 C451 1.387 . S
C450 N453 1.341 . S
C451 C449 1.400 . S
C451 C450 1.387 . S
N452 Co443 2.022 1_556 S
N452 C449 1.351 . S
N452 N453 1.365 . S
N453 C450 1.341 . S
N453 N452 1.365 . S
N453 H473 0.862 . S
C454 C449 1.501 . S
C454 H455 0.961 . S
C454 H456 0.961 . S
C454 H457 0.960 . S
H455 C454 0.961 . S
H456 C454 0.961 . S
H457 C454 0.960 . S
C458 N459 1.342 . S
C458 C462 1.401 . S
C458 C463 1.499 . S
N459 Co442 1.989 . S
N459 C458 1.342 . S
N459 N460 1.388 . S
N460 Co443 1.993 . S
N460 N459 1.388 . S
N460 C461 1.346 . S
C461 N460 1.346 . S
C461 C462 1.396 . S
C461 C471 1.510 1_554 S
C462 C458 1.401 . S
C462 C461 1.396 . S
C463 C458 1.499 . S
C463 H464 0.959 . S
C463 H465 0.960 . S
C463 H466 0.961 . S
H464 C463 0.959 . S
H465 C463 0.960 . S
H466 C463 0.961 . S
O467 Co442 1.967 . S
O467 C475 1.258 . S
O468 Co443 1.941 . S
O468 C475 1.266 . S
H469 C471 0.959 . S
H470 C471 0.961 . S
C471 C461 1.510 1_556 S
C471 H469 0.959 . S
C471 H470 0.961 . S
C471 H472 0.960 . S
H472 C471 0.960 . S
H473 N453 0.862 . S
O474 Co442 1.920 . S
O474 C447 1.289 . S
C475 O467 1.258 . S
C475 O468 1.266 . S
Co476 O479 1.970 . S
Co476 N493 1.989 . S
Co476 O501 1.967 . S
Co476 O508 1.920 . S
Co477 O480 1.966 . S
Co477 N486 2.022 1_554 S
Co477 N494 1.993 . S
Co477 O502 1.941 . S
C478 O479 1.258 . S
C478 O480 1.263 . S
O479 Co476 1.970 . S
O479 C478 1.258 . S
O480 Co477 1.966 . S
O480 C478 1.263 . S
C481 O482 1.235 . S
C481 O508 1.289 . S
O482 C481 1.235 . S
C483 C485 1.400 . S
C483 N486 1.351 . S
C483 C488 1.501 . S
C484 C485 1.387 . S
C484 N487 1.341 . S
C485 C483 1.400 . S
C485 C484 1.387 . S
N486 Co477 2.022 1_556 S
N486 C483 1.351 . S
N486 N487 1.365 . S
N487 C484 1.341 . S
N487 N486 1.365 . S
N487 H507 0.862 . S
C488 C483 1.501 . S
C488 H489 0.961 . S
C488 H490 0.961 . S
C488 H491 0.960 . S
H489 C488 0.961 . S
H490 C488 0.961 . S
H491 C488 0.960 . S
C492 N493 1.342 . S
C492 C496 1.401 . S
C492 C497 1.499 . S
N493 Co476 1.989 . S
N493 C492 1.342 . S
N493 N494 1.388 . S
N494 Co477 1.993 . S
N494 N493 1.388 . S
N494 C495 1.346 . S
C495 N494 1.346 . S
C495 C496 1.396 . S
C495 C505 1.510 1_554 S
C496 C492 1.401 . S
C496 C495 1.396 . S
C497 C492 1.499 . S
C497 H498 0.959 . S
C497 H499 0.960 . S
C497 H500 0.961 . S
H498 C497 0.959 . S
H499 C497 0.960 . S
H500 C497 0.961 . S
O501 Co476 1.967 . S
O501 C509 1.258 . S
O502 Co477 1.941 . S
O502 C509 1.266 . S
H503 C505 0.959 . S
H504 C505 0.961 . S
C505 C495 1.510 1_556 S
C505 H503 0.959 . S
C505 H504 0.961 . S
C505 H506 0.960 . S
H506 C505 0.960 . S
H507 N487 0.862 . S
O508 Co476 1.920 . S
O508 C481 1.289 . S
C509 O501 1.258 . S
C509 O502 1.266 . S
Co510 O513 1.970 . S
Co510 N527 1.989 . S
Co510 O535 1.967 . S
Co510 O542 1.920 . S
Co511 O514 1.966 . S
Co511 N520 2.022 . S
Co511 N528 1.993 . S
Co511 O536 1.941 . S
C512 O513 1.258 . S
C512 O514 1.263 . S
O513 Co510 1.970 . S
O513 C512 1.258 . S
O514 Co511 1.966 . S
O514 C512 1.263 . S
C515 O516 1.235 . S
C515 O542 1.289 . S
O516 C515 1.235 . S
C517 C519 1.400 . S
C517 N520 1.351 . S
C517 C522 1.501 . S
C518 C519 1.387 . S
C518 N521 1.341 . S
C519 C517 1.400 . S
C519 C518 1.387 . S
N520 Co511 2.022 . S
N520 C517 1.351 . S
N520 N521 1.365 . S
N521 C518 1.341 . S
N521 N520 1.365 . S
N521 H541 0.862 . S
C522 C517 1.501 . S
C522 H523 0.961 . S
C522 H524 0.961 . S
C522 H525 0.960 . S
H523 C522 0.961 . S
H524 C522 0.961 . S
H525 C522 0.960 . S
C526 N527 1.342 . S
C526 C530 1.401 . S
C526 C531 1.499 . S
N527 Co510 1.989 . S
N527 C526 1.342 . S
N527 N528 1.388 . S
N528 Co511 1.993 . S
N528 N527 1.388 . S
N528 C529 1.346 . S
C529 N528 1.346 . S
C529 C530 1.396 . S
C529 C539 1.510 . S
C530 C526 1.401 . S
C530 C529 1.396 . S
C531 C526 1.499 . S
C531 H532 0.959 . S
C531 H533 0.960 . S
C531 H534 0.961 . S
H532 C531 0.959 . S
H533 C531 0.960 . S
H534 C531 0.961 . S
O535 Co510 1.967 . S
O535 C543 1.258 . S
O536 Co511 1.941 . S
O536 C543 1.266 . S
H537 C539 0.959 . S
H538 C539 0.961 . S
C539 C529 1.510 . S
C539 H537 0.959 . S
C539 H538 0.961 . S
C539 H540 0.960 . S
H540 C539 0.960 . S
H541 N521 0.862 . S
O542 Co510 1.920 . S
O542 C515 1.289 . S
C543 O535 1.258 . S
C543 O536 1.266 . S
Co544 O547 1.970 . S
Co544 N561 1.989 . S
Co544 O569 1.967 . S
Co544 O576 1.920 . S
Co545 O548 1.966 . S
Co545 N554 2.022 . S
Co545 N562 1.993 . S
Co545 O570 1.941 . S
C546 O547 1.258 . S
C546 O548 1.263 . S
O547 Co544 1.970 . S
O547 C546 1.258 . S
O548 Co545 1.966 . S
O548 C546 1.263 . S
C549 O550 1.235 . S
C549 O576 1.289 . S
O550 C549 1.235 . S
C551 C553 1.400 . S
C551 N554 1.351 . S
C551 C556 1.501 . S
C552 C553 1.387 . S
C552 N555 1.341 . S
C553 C551 1.400 . S
C553 C552 1.387 . S
N554 Co545 2.022 . S
N554 C551 1.351 . S
N554 N555 1.365 . S
N555 C552 1.341 . S
N555 N554 1.365 . S
N555 H575 0.862 . S
C556 C551 1.501 . S
C556 H557 0.961 . S
C556 H558 0.961 . S
C556 H559 0.960 . S
H557 C556 0.961 . S
H558 C556 0.961 . S
H559 C556 0.960 . S
C560 N561 1.342 . S
C560 C564 1.401 . S
C560 C565 1.499 . S
N561 Co544 1.989 . S
N561 C560 1.342 . S
N561 N562 1.388 . S
N562 Co545 1.993 . S
N562 N561 1.388 . S
N562 C563 1.346 . S
C563 N562 1.346 . S
C563 C564 1.396 . S
C563 C573 1.510 . S
C564 C560 1.401 . S
C564 C563 1.396 . S
C565 C560 1.499 . S
C565 H566 0.959 . S
C565 H567 0.960 . S
C565 H568 0.961 . S
H566 C565 0.959 . S
H567 C565 0.960 . S
H568 C565 0.961 . S
O569 Co544 1.967 . S
O569 C577 1.258 . S
O570 Co545 1.941 . S
O570 C577 1.266 . S
H571 C573 0.959 . S
H572 C573 0.961 . S
C573 C563 1.510 . S
C573 H571 0.959 . S
C573 H572 0.961 . S
C573 H574 0.960 . S
H574 C573 0.960 . S
H575 N555 0.862 . S
O576 Co544 1.920 . S
O576 C549 1.289 . S
C577 O569 1.258 . S
C577 O570 1.266 . S
Co578 O581 1.970 . S
Co578 N595 1.989 . S
Co578 O603 1.967 . S
Co578 O610 1.920 . S
Co579 O582 1.966 . S
Co579 N588 2.022 . S
Co579 N596 1.993 . S
Co579 O604 1.941 . S
C580 O581 1.258 . S
C580 O582 1.263 . S
O581 Co578 1.970 . S
O581 C580 1.258 . S
O582 Co579 1.966 . S
O582 C580 1.263 . S
C583 O584 1.235 . S
C583 O610 1.289 . S
O584 C583 1.235 . S
C585 C587 1.400 . S
C585 N588 1.351 . S
C585 C590 1.501 . S
C586 C587 1.387 . S
C586 N589 1.341 . S
C587 C585 1.400 . S
C587 C586 1.387 . S
N588 Co579 2.022 . S
N588 C585 1.351 . S
N588 N589 1.365 . S
N589 C586 1.341 . S
N589 N588 1.365 . S
N589 H609 0.862 . S
C590 C585 1.501 . S
C590 H591 0.961 . S
C590 H592 0.961 . S
C590 H593 0.960 . S
H591 C590 0.961 . S
H592 C590 0.961 . S
H593 C590 0.960 . S
C594 N595 1.342 . S
C594 C598 1.401 . S
C594 C599 1.499 . S
N595 Co578 1.989 . S
N595 C594 1.342 . S
N595 N596 1.388 . S
N596 Co579 1.993 . S
N596 N595 1.388 . S
N596 C597 1.346 . S
C597 N596 1.346 . S
C597 C598 1.396 . S
C597 C607 1.510 . S
C598 C594 1.401 . S
C598 C597 1.396 . S
C599 C594 1.499 . S
C599 H600 0.959 . S
C599 H601 0.960 . S
C599 H602 0.961 . S
H600 C599 0.959 . S
H601 C599 0.960 . S
H602 C599 0.961 . S
O603 Co578 1.967 . S
O603 C611 1.258 . S
O604 Co579 1.941 . S
O604 C611 1.266 . S
H605 C607 0.959 . S
H606 C607 0.961 . S
C607 C597 1.510 . S
C607 H605 0.959 . S
C607 H606 0.961 . S
C607 H608 0.960 . S
H608 C607 0.960 . S
H609 N589 0.862 . S
O610 Co578 1.920 . S
O610 C583 1.289 . S
C611 O603 1.258 . S
C611 O604 1.266 . S
H612 C618 0.930 . S
H613 C621 0.930 . S
H614 C622 0.930 . S
H615 C623 0.930 . S
H616 C626 0.930 . S
H617 C627 0.930 . S
C618 H612 0.930 . S
C618 C619 1.355 . S
C618 C620 1.415 . S
C619 C618 1.355 . S
C619 C621 1.419 . S
C620 C618 1.415 . S
C620 C625 1.425 . S
C620 C627 1.409 . S
C621 H613 0.930 . S
C621 C619 1.419 . S
C621 C622 1.362 . S
C622 H614 0.930 . S
C622 C621 1.362 . S
C622 C625 1.409 . S
C623 H615 0.930 . S
C623 C624 1.355 . S
C623 C625 1.415 . S
C624 C623 1.355 . S
C624 C626 1.419 . S
C625 C620 1.425 . S
C625 C622 1.409 . S
C625 C623 1.415 . S
C626 H616 0.930 . S
C626 C624 1.419 . S
C626 C627 1.362 . S
C627 H617 0.930 . S
C627 C620 1.409 . S
C627 C626 1.362 . S
H628 C634 0.930 . S
H629 C637 0.930 . S
H630 C638 0.930 . S
H631 C639 0.930 . S
H632 C642 0.930 . S
H633 C643 0.930 . S
C634 H628 0.930 . S
C634 C635 1.355 . S
C634 C636 1.418 . S
C635 C634 1.355 . S
C635 C637 1.419 . S
C636 C634 1.418 . S
C636 C641 1.425 1_545 S
C636 C643 1.406 1_545 S
C637 H629 0.930 . S
C637 C635 1.419 . S
C637 C638 1.362 . S
C638 H630 0.930 . S
C638 C637 1.362 . S
C638 C641 1.406 1_545 S
C639 H631 0.930 . S
C639 C640 1.355 . S
C639 C641 1.418 . S
C640 C639 1.355 . S
C640 C642 1.419 . S
C641 C636 1.425 1_565 S
C641 C638 1.406 1_565 S
C641 C639 1.418 . S
C642 H632 0.930 . S
C642 C640 1.419 . S
C642 C643 1.362 . S
C643 H633 0.930 . S
C643 C636 1.406 1_565 S
C643 C642 1.362 . S
H644 C650 0.930 . S
H645 C653 0.930 . S
H646 C654 0.930 . S
H647 C655 0.930 . S
H648 C658 0.930 . S
H649 C659 0.930 . S
C650 H644 0.930 . S
C650 C651 1.355 . S
C650 C652 1.415 . S
C651 C650 1.355 . S
C651 C653 1.419 . S
C652 C650 1.415 . S
C652 C657 1.425 1_655 S
C652 C659 1.409 1_655 S
C653 H645 0.930 . S
C653 C651 1.419 . S
C653 C654 1.362 . S
C654 H646 0.930 . S
C654 C653 1.362 . S
C654 C657 1.409 1_655 S
C655 H647 0.930 . S
C655 C656 1.355 . S
C655 C657 1.415 . S
C656 C655 1.355 . S
C656 C658 1.419 . S
C657 C652 1.425 1_455 S
C657 C654 1.409 1_455 S
C657 C655 1.415 . S
C658 H648 0.930 . S
C658 C656 1.419 . S
C658 C659 1.362 . S
C659 H649 0.930 . S
C659 C652 1.409 1_455 S
C659 C658 1.362 . S
H660 C666 0.930 . S
H661 C669 0.930 . S
H662 C670 0.930 . S
H663 C671 0.930 . S
H664 C674 0.930 . S
H665 C675 0.930 . S
C666 H660 0.930 . S
C666 C667 1.355 . S
C666 C668 1.415 . S
C667 C666 1.355 . S
C667 C669 1.419 . S
C668 C666 1.415 . S
C668 C673 1.425 . S
C668 C675 1.409 . S
C669 H661 0.930 . S
C669 C667 1.419 . S
C669 C670 1.362 . S
C670 H662 0.930 . S
C670 C669 1.362 . S
C670 C673 1.409 . S
C671 H663 0.930 . S
C671 C672 1.355 . S
C671 C673 1.415 . S
C672 C671 1.355 . S
C672 C674 1.419 . S
C673 C668 1.425 . S
C673 C670 1.409 . S
C673 C671 1.415 . S
C674 H664 0.930 . S
C674 C672 1.419 . S
C674 C675 1.362 . S
C675 H665 0.930 . S
C675 C668 1.409 . S
C675 C674 1.362 . S
H676 C682 0.930 . S
H677 C685 0.930 . S
H678 C686 0.930 . S
H679 C687 0.930 . S
H680 C690 0.930 . S
H681 C691 0.930 . S
C682 H676 0.930 . S
C682 C683 1.355 . S
C682 C684 1.452 . S
C683 C682 1.355 . S
C683 C685 1.419 . S
C684 C682 1.452 . S
C684 C689 1.449 1_545 S
C684 C691 1.363 1_545 S
C685 H677 0.930 . S
C685 C683 1.419 . S
C685 C686 1.362 . S
C686 H678 0.930 . S
C686 C685 1.362 . S
C686 C689 1.362 1_545 S
C687 H679 0.930 . S
C687 C688 1.355 . S
C687 C689 1.452 . S
C688 C687 1.355 . S
C688 C690 1.419 . S
C689 C684 1.449 1_565 S
C689 C686 1.362 1_565 S
C689 C687 1.452 . S
C690 H680 0.930 . S
C690 C688 1.419 . S
C690 C691 1.362 . S
C691 H681 0.930 . S
C691 C684 1.363 1_565 S
C691 C690 1.362 . S
H692 C698 0.930 . S
H693 C701 0.930 . S
H694 C702 0.930 . S
H695 C703 0.930 . S
H696 C706 0.930 . S
H697 C707 0.930 . S
C698 H692 0.930 . S
C698 C699 1.355 . S
C698 C700 1.415 . S
C699 C698 1.355 . S
C699 C701 1.419 . S
C700 C698 1.415 . S
C700 C705 1.425 1_655 S
C700 C707 1.409 1_655 S
C701 H693 0.930 . S
C701 C699 1.419 . S
C701 C702 1.362 . S
C702 H694 0.930 . S
C702 C701 1.362 . S
C702 C705 1.409 1_655 S
C703 H695 0.930 . S
C703 C704 1.355 . S
C703 C705 1.415 . S
C704 C703 1.355 . S
C704 C706 1.419 . S
C705 C700 1.425 1_455 S
C705 C702 1.409 1_455 S
C705 C703 1.415 . S
C706 H696 0.930 . S
C706 C704 1.419 . S
C706 C707 1.362 . S
C707 H697 0.930 . S
C707 C700 1.409 1_455 S
C707 C706 1.362 . S
H708 C714 0.930 . S
H709 C717 0.930 . S
H710 C718 0.930 . S
H711 C719 0.930 . S
H712 C722 0.930 . S
H713 C723 0.930 . S
C714 H708 0.930 . S
C714 C715 1.355 . S
C714 C716 1.415 . S
C715 C714 1.355 . S
C715 C717 1.419 . S
C716 C714 1.415 . S
C716 C721 1.425 . S
C716 C723 1.409 . S
C717 H709 0.930 . S
C717 C715 1.419 . S
C717 C718 1.362 . S
C718 H710 0.930 . S
C718 C717 1.362 . S
C718 C721 1.409 . S
C719 H711 0.930 . S
C719 C720 1.355 . S
C719 C721 1.415 . S
C720 C719 1.355 . S
C720 C722 1.419 . S
C721 C716 1.425 . S
C721 C718 1.409 . S
C721 C719 1.415 . S
C722 H712 0.930 . S
C722 C720 1.419 . S
C722 C723 1.362 . S
C723 H713 0.930 . S
C723 C716 1.409 . S
C723 C722 1.362 . S
H724 C730 0.930 . S
H725 C733 0.930 . S
H726 C734 0.930 . S
H727 C735 0.930 . S
H728 C738 0.930 . S
H729 C739 0.930 . S
C730 H724 0.930 . S
C730 C731 1.355 . S
C730 C732 1.415 . S
C731 C730 1.355 . S
C731 C733 1.419 . S
C732 C730 1.415 . S
C732 C737 1.425 . S
C732 C739 1.409 . S
C733 H725 0.930 . S
C733 C731 1.419 . S
C733 C734 1.362 . S
C734 H726 0.930 . S
C734 C733 1.362 . S
C734 C737 1.409 . S
C735 H727 0.930 . S
C735 C736 1.355 . S
C735 C737 1.415 . S
C736 C735 1.355 . S
C736 C738 1.419 . S
C737 C732 1.425 . S
C737 C734 1.409 . S
C737 C735 1.415 . S
C738 H728 0.930 . S
C738 C736 1.419 . S
C738 C739 1.362 . S
C739 H729 0.930 . S
C739 C732 1.409 . S
C739 C738 1.362 . S
H740 C746 0.930 . S
H741 C749 0.930 . S
H742 C750 0.930 . S
H743 C751 0.930 . S
H744 C754 0.930 . S
H745 C755 0.930 . S
C746 H740 0.930 . S
C746 C747 1.355 . S
C746 C748 1.415 . S
C747 C746 1.355 . S
C747 C749 1.419 . S
C748 C746 1.415 . S
C748 C753 1.425 . S
C748 C755 1.409 . S
C749 H741 0.930 . S
C749 C747 1.419 . S
C749 C750 1.362 . S
C750 H742 0.930 . S
C750 C749 1.362 . S
C750 C753 1.409 . S
C751 H743 0.930 . S
C751 C752 1.355 . S
C751 C753 1.415 . S
C752 C751 1.355 . S
C752 C754 1.419 . S
C753 C748 1.425 . S
C753 C750 1.409 . S
C753 C751 1.415 . S
C754 H744 0.930 . S
C754 C752 1.419 . S
C754 C755 1.362 . S
C755 H745 0.930 . S
C755 C748 1.409 . S
C755 C754 1.362 . S
H756 C762 0.930 . S
H757 C765 0.930 . S
H758 C766 0.930 . S
H759 C767 0.930 . S
H760 C770 0.930 . S
H761 C771 0.930 . S
C762 H756 0.930 . S
C762 C763 1.355 . S
C762 C764 1.415 . S
C763 C762 1.355 . S
C763 C765 1.419 . S
C764 C762 1.415 . S
C764 C769 1.425 . S
C764 C771 1.409 . S
C765 H757 0.930 . S
C765 C763 1.419 . S
C765 C766 1.362 . S
C766 H758 0.930 . S
C766 C765 1.362 . S
C766 C769 1.409 . S
C767 H759 0.930 . S
C767 C768 1.355 . S
C767 C769 1.415 . S
C768 C767 1.355 . S
C768 C770 1.419 . S
C769 C764 1.425 . S
C769 C766 1.409 . S
C769 C767 1.415 . S
C770 H760 0.930 . S
C770 C768 1.419 . S
C770 C771 1.362 . S
C771 H761 0.930 . S
C771 C764 1.409 . S
C771 C770 1.362 . S
H772 C778 0.930 . S
H773 C781 0.930 . S
H774 C782 0.930 . S
H775 C783 0.930 . S
H776 C786 0.930 . S
H777 C787 0.930 . S
C778 H772 0.930 . S
C778 C779 1.355 . S
C778 C780 1.415 . S
C779 C778 1.355 . S
C779 C781 1.419 . S
C780 C778 1.415 . S
C780 C785 1.425 . S
C780 C787 1.409 . S
C781 H773 0.930 . S
C781 C779 1.419 . S
C781 C782 1.362 . S
C782 H774 0.930 . S
C782 C781 1.362 . S
C782 C785 1.409 . S
C783 H775 0.930 . S
C783 C784 1.355 . S
C783 C785 1.415 . S
C784 C783 1.355 . S
C784 C786 1.419 . S
C785 C780 1.425 . S
C785 C782 1.409 . S
C785 C783 1.415 . S
C786 H776 0.930 . S
C786 C784 1.419 . S
C786 C787 1.362 . S
C787 H777 0.930 . S
C787 C780 1.409 . S
C787 C786 1.362 . S
H788 C794 0.930 . S
H789 C797 0.930 . S
H790 C798 0.930 . S
H791 C799 0.930 . S
H792 C802 0.930 . S
H793 C803 0.930 . S
C794 H788 0.930 . S
C794 C795 1.355 . S
C794 C796 1.415 . S
C795 C794 1.355 . S
C795 C797 1.419 . S
C796 C794 1.415 . S
C796 C801 1.425 . S
C796 C803 1.409 . S
C797 H789 0.930 . S
C797 C795 1.419 . S
C797 C798 1.362 . S
C798 H790 0.930 . S
C798 C797 1.362 . S
C798 C801 1.409 . S
C799 H791 0.930 . S
C799 C800 1.355 . S
C799 C801 1.415 . S
C800 C799 1.355 . S
C800 C802 1.419 . S
C801 C796 1.425 . S
C801 C798 1.409 . S
C801 C799 1.415 . S
C802 H792 0.930 . S
C802 C800 1.419 . S
C802 C803 1.362 . S
C803 H793 0.930 . S
C803 C796 1.409 . S
C803 C802 1.362 . S
H804 C810 0.930 . S
H805 C813 0.930 . S
H806 C814 0.930 . S
H807 C815 0.930 . S
H808 C818 0.930 . S
H809 C819 0.930 . S
C810 H804 0.930 . S
C810 C811 1.355 . S
C810 C812 1.415 . S
C811 C810 1.355 . S
C811 C813 1.419 . S
C812 C810 1.415 . S
C812 C817 1.425 . S
C812 C819 1.409 . S
C813 H805 0.930 . S
C813 C811 1.419 . S
C813 C814 1.362 . S
C814 H806 0.930 . S
C814 C813 1.362 . S
C814 C817 1.409 . S
C815 H807 0.930 . S
C815 C816 1.355 . S
C815 C817 1.415 . S
C816 C815 1.355 . S
C816 C818 1.419 . S
C817 C812 1.425 . S
C817 C814 1.409 . S
C817 C815 1.415 . S
C818 H808 0.930 . S
C818 C816 1.419 . S
C818 C819 1.362 . S
C819 H809 0.930 . S
C819 C812 1.409 . S
C819 C818 1.362 . S
H820 C826 0.930 . S
H821 C829 0.930 . S
H822 C830 0.930 . S
H823 C831 0.930 . S
H824 C834 0.930 . S
H825 C835 0.930 . S
C826 H820 0.930 . S
C826 C827 1.355 . S
C826 C828 1.415 . S
C827 C826 1.355 . S
C827 C829 1.419 . S
C828 C826 1.415 . S
C828 C833 1.425 . S
C828 C835 1.409 . S
C829 H821 0.930 . S
C829 C827 1.419 . S
C829 C830 1.362 . S
C830 H822 0.930 . S
C830 C829 1.362 . S
C830 C833 1.409 . S
C831 H823 0.930 . S
C831 C832 1.355 . S
C831 C833 1.415 . S
C832 C831 1.355 . S
C832 C834 1.419 . S
C833 C828 1.425 . S
C833 C830 1.409 . S
C833 C831 1.415 . S
C834 H824 0.930 . S
C834 C832 1.419 . S
C834 C835 1.362 . S
C835 H825 0.930 . S
C835 C828 1.409 . S
C835 C834 1.362 . S
H836 C842 0.930 . S
H837 C845 0.930 . S
H838 C846 0.930 . S
H839 C847 0.930 . S
H840 C850 0.930 . S
H841 C851 0.930 . S
C842 H836 0.930 . S
C842 C843 1.355 . S
C842 C844 1.415 . S
C843 C842 1.355 . S
C843 C845 1.419 . S
C844 C842 1.415 . S
C844 C849 1.425 . S
C844 C851 1.409 . S
C845 H837 0.930 . S
C845 C843 1.419 . S
C845 C846 1.362 . S
C846 H838 0.930 . S
C846 C845 1.362 . S
C846 C849 1.409 . S
C847 H839 0.930 . S
C847 C848 1.355 . S
C847 C849 1.415 . S
C848 C847 1.355 . S
C848 C850 1.419 . S
C849 C844 1.425 . S
C849 C846 1.409 . S
C849 C847 1.415 . S
C850 H840 0.930 . S
C850 C848 1.419 . S
C850 C851 1.362 . S
C851 H841 0.930 . S
C851 C844 1.409 . S
C851 C850 1.362 . S
H852 C858 0.930 . S
H853 C861 0.930 . S
H854 C862 0.930 . S
H855 C863 0.930 . S
H856 C866 0.930 . S
H857 C867 0.930 . S
C858 H852 0.930 . S
C858 C859 1.355 . S
C858 C860 1.415 . S
C859 C858 1.355 . S
C859 C861 1.419 . S
C860 C858 1.415 . S
C860 C865 1.425 . S
C860 C867 1.409 . S
C861 H853 0.930 . S
C861 C859 1.419 . S
C861 C862 1.362 . S
C862 H854 0.930 . S
C862 C861 1.362 . S
C862 C865 1.409 . S
C863 H855 0.930 . S
C863 C864 1.355 . S
C863 C865 1.415 . S
C864 C863 1.355 . S
C864 C866 1.419 . S
C865 C860 1.425 . S
C865 C862 1.409 . S
C865 C863 1.415 . S
C866 H856 0.930 . S
C866 C864 1.419 . S
C866 C867 1.362 . S
C867 H857 0.930 . S
C867 C860 1.409 . S
C867 C866 1.362 . S
H868 C874 0.930 . S
H869 C877 0.930 . S
H870 C878 0.930 . S
H871 C879 0.930 . S
H872 C882 0.930 . S
H873 C883 0.930 . S
C874 H868 0.930 . S
C874 C875 1.355 . S
C874 C876 1.415 . S
C875 C874 1.355 . S
C875 C877 1.419 . S
C876 C874 1.415 . S
C876 C881 1.425 . S
C876 C883 1.409 . S
C877 H869 0.930 . S
C877 C875 1.419 . S
C877 C878 1.362 . S
C878 H870 0.930 . S
C878 C877 1.362 . S
C878 C881 1.409 . S
C879 H871 0.930 . S
C879 C880 1.355 . S
C879 C881 1.415 . S
C880 C879 1.355 . S
C880 C882 1.419 . S
C881 C876 1.425 . S
C881 C878 1.409 . S
C881 C879 1.415 . S
C882 H872 0.930 . S
C882 C880 1.419 . S
C882 C883 1.362 . S
C883 H873 0.930 . S
C883 C876 1.409 . S
C883 C882 1.362 . S
H884 C890 0.930 . S
H885 C893 0.930 . S
H886 C894 0.930 . S
H887 C895 0.930 . S
H888 C898 0.930 . S
H889 C899 0.930 . S
C890 H884 0.930 . S
C890 C891 1.355 . S
C890 C892 1.415 . S
C891 C890 1.355 . S
C891 C893 1.419 . S
C892 C890 1.415 . S
C892 C897 1.425 . S
C892 C899 1.409 . S
C893 H885 0.930 . S
C893 C891 1.419 . S
C893 C894 1.362 . S
C894 H886 0.930 . S
C894 C893 1.362 . S
C894 C897 1.409 . S
C895 H887 0.930 . S
C895 C896 1.355 . S
C895 C897 1.415 . S
C896 C895 1.355 . S
C896 C898 1.419 . S
C897 C892 1.425 . S
C897 C894 1.409 . S
C897 C895 1.415 . S
C898 H888 0.930 . S
C898 C896 1.419 . S
C898 C899 1.362 . S
C899 H889 0.930 . S
C899 C892 1.409 . S
C899 C898 1.362 . S
H900 C906 0.930 . S
H901 C909 0.930 . S
H902 C910 0.930 . S
H903 C911 0.930 . S
H904 C914 0.930 . S
H905 C915 0.930 . S
C906 H900 0.930 . S
C906 C907 1.355 . S
C906 C908 1.415 . S
C907 C906 1.355 . S
C907 C909 1.419 . S
C908 C906 1.415 . S
C908 C913 1.425 . S
C908 C915 1.409 . S
C909 H901 0.930 . S
C909 C907 1.419 . S
C909 C910 1.362 . S
C910 H902 0.930 . S
C910 C909 1.362 . S
C910 C913 1.409 . S
C911 H903 0.930 . S
C911 C912 1.355 . S
C911 C913 1.415 . S
C912 C911 1.355 . S
C912 C914 1.419 . S
C913 C908 1.425 . S
C913 C910 1.409 . S
C913 C911 1.415 . S
C914 H904 0.930 . S
C914 C912 1.419 . S
C914 C915 1.362 . S
C915 H905 0.930 . S
C915 C908 1.409 . S
C915 C914 1.362 . S
H916 C922 0.930 . S
H917 C925 0.930 . S
H918 C926 0.930 . S
H919 C927 0.930 . S
H920 C930 0.930 . S
H921 C931 0.930 . S
C922 H916 0.930 . S
C922 C923 1.355 . S
C922 C924 1.415 . S
C923 C922 1.355 . S
C923 C925 1.419 . S
C924 C922 1.415 . S
C924 C929 1.425 . S
C924 C931 1.409 . S
C925 H917 0.930 . S
C925 C923 1.419 . S
C925 C926 1.362 . S
C926 H918 0.930 . S
C926 C925 1.362 . S
C926 C929 1.409 . S
C927 H919 0.930 . S
C927 C928 1.355 . S
C927 C929 1.415 . S
C928 C927 1.355 . S
C928 C930 1.419 . S
C929 C924 1.425 . S
C929 C926 1.409 . S
C929 C927 1.415 . S
C930 H920 0.930 . S
C930 C928 1.419 . S
C930 C931 1.362 . S
C931 H921 0.930 . S
C931 C924 1.409 . S
C931 C930 1.362 . S
H932 C938 0.930 . S
H933 C941 0.930 . S
H934 C942 0.930 . S
H935 C943 0.930 . S
H936 C946 0.930 . S
H937 C947 0.930 . S
C938 H932 0.930 . S
C938 C939 1.355 . S
C938 C940 1.415 . S
C939 C938 1.355 . S
C939 C941 1.419 . S
C940 C938 1.415 . S
C940 C945 1.425 . S
C940 C947 1.409 . S
C941 H933 0.930 . S
C941 C939 1.419 . S
C941 C942 1.362 . S
C942 H934 0.930 . S
C942 C941 1.362 . S
C942 C945 1.409 . S
C943 H935 0.930 . S
C943 C944 1.355 . S
C943 C945 1.415 . S
C944 C943 1.355 . S
C944 C946 1.419 . S
C945 C940 1.425 . S
C945 C942 1.409 . S
C945 C943 1.415 . S
C946 H936 0.930 . S
C946 C944 1.419 . S
C946 C947 1.362 . S
C947 H937 0.930 . S
C947 C940 1.409 . S
C947 C946 1.362 . S
H948 C954 0.930 . S
H949 C957 0.930 . S
H950 C958 0.930 . S
H951 C959 0.930 . S
H952 C962 0.930 . S
H953 C963 0.930 . S
C954 H948 0.930 . S
C954 C955 1.355 . S
C954 C956 1.415 . S
C955 C954 1.355 . S
C955 C957 1.419 . S
C956 C954 1.415 . S
C956 C961 1.425 . S
C956 C963 1.409 . S
C957 H949 0.930 . S
C957 C955 1.419 . S
C957 C958 1.362 . S
C958 H950 0.930 . S
C958 C957 1.362 . S
C958 C961 1.409 . S
C959 H951 0.930 . S
C959 C960 1.355 . S
C959 C961 1.415 . S
C960 C959 1.355 . S
C960 C962 1.419 . S
C961 C956 1.425 . S
C961 C958 1.409 . S
C961 C959 1.415 . S
C962 H952 0.930 . S
C962 C960 1.419 . S
C962 C963 1.362 . S
C963 H953 0.930 . S
C963 C956 1.409 . S
C963 C962 1.362 . S
H964 C970 0.930 . S
H965 C973 0.930 . S
H966 C974 0.930 . S
H967 C975 0.930 . S
H968 C978 0.930 . S
H969 C979 0.930 . S
C970 H964 0.930 . S
C970 C971 1.355 . S
C970 C972 1.415 . S
C971 C970 1.355 . S
C971 C973 1.419 . S
C972 C970 1.415 . S
C972 C977 1.425 . S
C972 C979 1.409 . S
C973 H965 0.930 . S
C973 C971 1.419 . S
C973 C974 1.362 . S
C974 H966 0.930 . S
C974 C973 1.362 . S
C974 C977 1.409 . S
C975 H967 0.930 . S
C975 C976 1.355 . S
C975 C977 1.415 . S
C976 C975 1.355 . S
C976 C978 1.419 . S
C977 C972 1.425 . S
C977 C974 1.409 . S
C977 C975 1.415 . S
C978 H968 0.930 . S
C978 C976 1.419 . S
C978 C979 1.362 . S
C979 H969 0.930 . S
C979 C972 1.409 . S
C979 C978 1.362 . S
H980 C986 0.930 . S
H981 C989 0.930 . S
H982 C990 0.930 . S
H983 C991 0.930 . S
H984 C994 0.930 . S
H985 C995 0.930 . S
C986 H980 0.930 . S
C986 C987 1.355 . S
C986 C988 1.415 . S
C987 C986 1.355 . S
C987 C989 1.419 . S
C988 C986 1.415 . S
C988 C993 1.425 . S
C988 C995 1.409 . S
C989 H981 0.930 . S
C989 C987 1.419 . S
C989 C990 1.362 . S
C990 H982 0.930 . S
C990 C989 1.362 . S
C990 C993 1.409 . S
C991 H983 0.930 . S
C991 C992 1.355 . S
C991 C993 1.415 . S
C992 C991 1.355 . S
C992 C994 1.419 . S
C993 C988 1.425 . S
C993 C990 1.409 . S
C993 C991 1.415 . S
C994 H984 0.930 . S
C994 C992 1.419 . S
C994 C995 1.362 . S
C995 H985 0.930 . S
C995 C988 1.409 . S
C995 C994 1.362 . S
H996 C1002 0.930 . S
H997 C1005 0.930 . S
H998 C1006 0.930 . S
H999 C1007 0.930 . S
H1000 C1010 0.930 . S
H1001 C1011 0.930 . S
C1002 H996 0.930 . S
C1002 C1003 1.355 . S
C1002 C1004 1.415 . S
C1003 C1002 1.355 . S
C1003 C1005 1.419 1_554 S
C1004 C1002 1.415 . S
C1004 C1009 1.425 1_454 S
C1004 C1011 1.409 1_455 S
C1005 H997 0.930 . S
C1005 C1003 1.419 1_556 S
C1005 C1006 1.362 . S
C1006 H998 0.930 . S
C1006 C1005 1.362 . S
C1006 C1009 1.409 1_455 S
C1007 H999 0.930 . S
C1007 C1008 1.355 . S
C1007 C1009 1.415 . S
C1008 C1007 1.355 . S
C1008 C1010 1.419 1_556 S
C1009 C1004 1.425 1_656 S
C1009 C1006 1.409 1_655 S
C1009 C1007 1.415 . S
C1010 H1000 0.930 . S
C1010 C1008 1.419 1_554 S
C1010 C1011 1.362 . S
C1011 H1001 0.930 . S
C1011 C1004 1.409 1_655 S
C1011 C1010 1.362 . S
H1012 C1018 0.930 . S
H1013 C1021 0.930 . S
H1014 C1022 0.930 . S
H1015 C1023 0.930 . S
H1016 C1026 0.930 . S
H1017 C1027 0.930 . S
C1018 H1012 0.930 . S
C1018 C1019 1.355 1_556 S
C1018 C1020 1.415 . S
C1019 C1018 1.355 1_554 S
C1019 C1021 1.419 . S
C1020 C1018 1.415 . S
C1020 C1025 1.425 1_556 S
C1020 C1027 1.409 . S
C1021 H1013 0.930 . S
C1021 C1019 1.419 . S
C1021 C1022 1.362 . S
C1022 H1014 0.930 . S
C1022 C1021 1.362 . S
C1022 C1025 1.409 . S
C1023 H1015 0.930 . S
C1023 C1024 1.355 1_554 S
C1023 C1025 1.415 . S
C1024 C1023 1.355 1_556 S
C1024 C1026 1.419 . S
C1025 C1020 1.425 1_554 S
C1025 C1022 1.409 . S
C1025 C1023 1.415 . S
C1026 H1016 0.930 . S
C1026 C1024 1.419 . S
C1026 C1027 1.362 . S
C1027 H1017 0.930 . S
C1027 C1020 1.409 . S
C1027 C1026 1.362 . S
H1028 C1034 0.930 . S
H1029 C1037 0.930 . S
H1030 C1038 0.930 . S
H1031 C1039 0.930 . S
H1032 C1042 0.930 . S
H1033 C1043 0.930 . S
C1034 H1028 0.930 . S
C1034 C1035 1.355 . S
C1034 C1036 1.415 . S
C1035 C1034 1.355 . S
C1035 C1037 1.419 . S
C1036 C1034 1.415 . S
C1036 C1041 1.425 1_546 S
C1036 C1043 1.409 1_545 S
C1037 H1029 0.930 . S
C1037 C1035 1.419 . S
C1037 C1038 1.362 1_556 S
C1038 H1030 0.930 . S
C1038 C1037 1.362 1_554 S
C1038 C1041 1.409 1_545 S
C1039 H1031 0.930 . S
C1039 C1040 1.355 . S
C1039 C1041 1.415 . S
C1040 C1039 1.355 . S
C1040 C1042 1.419 . S
C1041 C1036 1.425 1_564 S
C1041 C1038 1.409 1_565 S
C1041 C1039 1.415 . S
C1042 H1032 0.930 . S
C1042 C1040 1.419 . S
C1042 C1043 1.362 1_554 S
C1043 H1033 0.930 . S
C1043 C1036 1.409 1_565 S
C1043 C1042 1.362 1_556 S
H1044 C1050 0.930 . S
H1045 C1053 0.930 . S
H1046 C1054 0.930 . S
H1047 C1055 0.928 1_554 S
H1048 C1058 0.930 1_554 S
H1049 C1059 0.930 . S
C1050 H1044 0.930 . S
C1050 C1051 1.355 . S
C1050 C1052 1.415 . S
C1051 C1050 1.355 . S
C1051 C1053 1.419 . S
C1052 C1050 1.415 . S
C1052 C1057 1.425 . S
C1052 C1059 1.409 . S
C1053 H1045 0.930 . S
C1053 C1051 1.419 . S
C1053 C1054 1.362 . S
C1054 H1046 0.930 . S
C1054 C1053 1.362 . S
C1054 C1057 1.409 . S
C1055 H1047 0.928 1_556 S
C1055 C1056 1.355 1_556 S
C1055 C1057 1.415 . S
C1056 C1055 1.355 1_554 S
C1056 C1058 1.419 1_554 S
C1057 C1052 1.425 . S
C1057 C1054 1.409 . S
C1057 C1055 1.415 . S
C1058 H1048 0.930 1_556 S
C1058 C1056 1.419 1_556 S
C1058 C1059 1.362 . S
C1059 H1049 0.930 . S
C1059 C1052 1.409 . S
C1059 C1058 1.362 . S
H1060 C1066 0.930 . S
H1061 C1069 0.930 . S
H1062 C1070 0.930 . S
H1063 C1071 0.930 . S
H1064 C1074 0.930 1_554 S
H1065 C1075 0.930 . S
C1066 H1060 0.930 . S
C1066 C1067 1.355 . S
C1066 C1068 1.415 . S
C1067 C1066 1.355 . S
C1067 C1069 1.419 . S
C1068 C1066 1.415 . S
C1068 C1073 1.425 . S
C1068 C1075 1.409 . S
C1069 H1061 0.930 . S
C1069 C1067 1.419 . S
C1069 C1070 1.362 . S
C1070 H1062 0.930 . S
C1070 C1069 1.362 . S
C1070 C1073 1.409 . S
C1071 H1063 0.930 . S
C1071 C1072 1.355 1_556 S
C1071 C1073 1.415 . S
C1072 C1071 1.355 1_554 S
C1072 C1074 1.419 1_554 S
C1073 C1068 1.425 . S
C1073 C1070 1.409 . S
C1073 C1071 1.415 . S
C1074 H1064 0.930 1_556 S
C1074 C1072 1.419 1_556 S
C1074 C1075 1.362 . S
C1075 H1065 0.930 . S
C1075 C1068 1.409 . S
C1075 C1074 1.362 . S
H1076 C1082 0.930 . S
H1077 C1085 0.930 . S
H1078 C1086 0.930 . S
H1079 C1087 0.934 . S
H1080 C1090 0.930 1_554 S
H1081 C1091 0.930 . S
C1082 H1076 0.930 . S
C1082 C1083 1.355 . S
C1082 C1084 1.415 . S
C1083 C1082 1.355 . S
C1083 C1085 1.419 . S
C1084 C1082 1.415 . S
C1084 C1089 1.425 . S
C1084 C1091 1.409 . S
C1085 H1077 0.930 . S
C1085 C1083 1.419 . S
C1085 C1086 1.362 . S
C1086 H1078 0.930 . S
C1086 C1085 1.362 . S
C1086 C1089 1.409 . S
C1087 H1079 0.934 . S
C1087 C1088 1.355 1_556 S
C1087 C1089 1.415 . S
C1088 C1087 1.355 1_554 S
C1088 C1090 1.419 1_554 S
C1089 C1084 1.425 . S
C1089 C1086 1.409 . S
C1089 C1087 1.415 . S
C1090 H1080 0.930 1_556 S
C1090 C1088 1.419 1_556 S
C1090 C1091 1.362 . S
C1091 H1081 0.930 . S
C1091 C1084 1.409 . S
C1091 C1090 1.362 . S
H1092 C1098 0.930 . S
H1093 C1101 0.930 . S
H1094 C1102 0.930 . S
H1095 C1103 0.930 . S
H1096 C1106 0.930 . S
H1097 C1107 0.930 . S
C1098 H1092 0.930 . S
C1098 C1099 1.355 1_554 S
C1098 C1100 1.415 . S
C1099 C1098 1.355 1_556 S
C1099 C1101 1.419 . S
C1100 C1098 1.415 . S
C1100 C1105 1.425 . S
C1100 C1107 1.409 . S
C1101 H1093 0.930 . S
C1101 C1099 1.419 . S
C1101 C1102 1.362 1_556 S
C1102 H1094 0.930 . S
C1102 C1101 1.362 1_554 S
C1102 C1105 1.409 . S
C1103 H1095 0.930 . S
C1103 C1104 1.355 . S
C1103 C1105 1.415 . S
C1104 C1103 1.355 . S
C1104 C1106 1.419 . S
C1105 C1100 1.425 . S
C1105 C1102 1.409 . S
C1105 C1103 1.415 . S
C1106 H1096 0.930 . S
C1106 C1104 1.419 . S
C1106 C1107 1.362 . S
C1107 H1097 0.930 . S
C1107 C1100 1.409 . S
C1107 C1106 1.362 . S
H1108 C1114 0.930 1_556 S
H1109 C1117 0.930 1_556 S
H1110 C1118 0.930 . S
H1111 C1119 0.930 . S
H1112 C1122 0.930 . S
H1113 C1123 0.930 . S
C1114 H1108 0.930 1_554 S
C1114 C1115 1.355 1_554 S
C1114 C1116 1.415 . S
C1115 C1114 1.355 1_556 S
C1115 C1117 1.419 1_556 S
C1116 C1114 1.415 . S
C1116 C1121 1.425 . S
C1116 C1123 1.409 . S
C1117 H1109 0.930 1_554 S
C1117 C1115 1.419 1_554 S
C1117 C1118 1.362 . S
C1118 H1110 0.930 . S
C1118 C1117 1.362 . S
C1118 C1121 1.409 . S
C1119 H1111 0.930 . S
C1119 C1120 1.355 . S
C1119 C1121 1.415 . S
C1120 C1119 1.355 . S
C1120 C1122 1.419 . S
C1121 C1116 1.425 . S
C1121 C1118 1.409 . S
C1121 C1119 1.415 . S
C1122 H1112 0.930 . S
C1122 C1120 1.419 . S
C1122 C1123 1.362 . S
C1123 H1113 0.930 . S
C1123 C1116 1.409 . S
C1123 C1122 1.362 . S
H1124 C1130 0.930 . S
H1125 C1133 0.930 . S
H1126 C1134 0.930 . S
H1127 C1135 0.930 1_556 S
H1128 C1138 0.930 1_556 S
H1129 C1139 0.930 . S
C1130 H1124 0.930 . S
C1130 C1131 1.355 . S
C1130 C1132 1.415 . S
C1131 C1130 1.355 . S
C1131 C1133 1.419 . S
C1132 C1130 1.415 . S
C1132 C1137 1.425 . S
C1132 C1139 1.409 . S
C1133 H1125 0.930 . S
C1133 C1131 1.419 . S
C1133 C1134 1.362 . S
C1134 H1126 0.930 . S
C1134 C1133 1.362 . S
C1134 C1137 1.409 . S
C1135 H1127 0.930 1_554 S
C1135 C1136 1.355 1_554 S
C1135 C1137 1.415 . S
C1136 C1135 1.355 1_556 S
C1136 C1138 1.419 1_556 S
C1137 C1132 1.425 . S
C1137 C1134 1.409 . S
C1137 C1135 1.415 . S
C1138 H1128 0.930 1_554 S
C1138 C1136 1.419 1_554 S
C1138 C1139 1.362 . S
C1139 H1129 0.930 . S
C1139 C1132 1.409 . S
C1139 C1138 1.362 . S
H1140 C1146 0.930 . S
H1141 C1149 0.930 . S
H1142 C1150 0.930 . S
H1143 C1151 0.930 . S
H1144 C1154 0.930 . S
H1145 C1155 0.930 . S
C1146 H1140 0.930 . S
C1146 C1147 1.355 . S
C1146 C1148 1.415 . S
C1147 C1146 1.355 . S
C1147 C1149 1.419 . S
C1148 C1146 1.415 . S
C1148 C1153 1.425 . S
C1148 C1155 1.409 . S
C1149 H1141 0.930 . S
C1149 C1147 1.419 . S
C1149 C1150 1.362 . S
C1150 H1142 0.930 . S
C1150 C1149 1.362 . S
C1150 C1153 1.409 . S
C1151 H1143 0.930 . S
C1151 C1152 1.355 . S
C1151 C1153 1.415 . S
C1152 C1151 1.355 . S
C1152 C1154 1.419 . S
C1153 C1148 1.425 . S
C1153 C1150 1.409 . S
C1153 C1151 1.415 . S
C1154 H1144 0.930 . S
C1154 C1152 1.419 . S
C1154 C1155 1.362 . S
C1155 H1145 0.930 . S
C1155 C1148 1.409 . S
C1155 C1154 1.362 . S
H1156 C1162 0.930 . S
H1157 C1165 0.930 . S
H1158 C1166 0.930 . S
H1159 C1167 0.930 . S
H1160 C1170 0.930 . S
H1161 C1171 0.930 . S
C1162 H1156 0.930 . S
C1162 C1163 1.355 . S
C1162 C1164 1.415 . S
C1163 C1162 1.355 . S
C1163 C1165 1.419 . S
C1164 C1162 1.415 . S
C1164 C1169 1.425 . S
C1164 C1171 1.409 . S
C1165 H1157 0.930 . S
C1165 C1163 1.419 . S
C1165 C1166 1.362 . S
C1166 H1158 0.930 . S
C1166 C1165 1.362 . S
C1166 C1169 1.409 . S
C1167 H1159 0.930 . S
C1167 C1168 1.355 . S
C1167 C1169 1.415 . S
C1168 C1167 1.355 . S
C1168 C1170 1.419 . S
C1169 C1164 1.425 . S
C1169 C1166 1.409 . S
C1169 C1167 1.415 . S
C1170 H1160 0.930 . S
C1170 C1168 1.419 . S
C1170 C1171 1.362 . S
C1171 H1161 0.930 . S
C1171 C1164 1.409 . S
C1171 C1170 1.362 . S
H1172 C1178 0.930 . S
H1173 C1181 0.930 . S
H1174 C1182 0.930 . S
H1175 C1183 0.930 . S
H1176 C1186 0.930 . S
H1177 C1187 0.930 . S
C1178 H1172 0.930 . S
C1178 C1179 1.355 . S
C1178 C1180 1.415 . S
C1179 C1178 1.355 . S
C1179 C1181 1.419 . S
C1180 C1178 1.415 . S
C1180 C1185 1.425 . S
C1180 C1187 1.409 . S
C1181 H1173 0.930 . S
C1181 C1179 1.419 . S
C1181 C1182 1.362 . S
C1182 H1174 0.930 . S
C1182 C1181 1.362 . S
C1182 C1185 1.409 . S
C1183 H1175 0.930 . S
C1183 C1184 1.355 . S
C1183 C1185 1.415 . S
C1184 C1183 1.355 . S
C1184 C1186 1.419 . S
C1185 C1180 1.425 . S
C1185 C1182 1.409 . S
C1185 C1183 1.415 . S
C1186 H1176 0.930 . S
C1186 C1184 1.419 . S
C1186 C1187 1.362 . S
C1187 H1177 0.930 . S
C1187 C1180 1.409 . S
C1187 C1186 1.362 . S
H1188 C1194 0.930 . S
H1189 C1197 0.930 . S
H1190 C1198 0.930 . S
H1191 C1199 0.930 . S
H1192 C1202 0.930 . S
H1193 C1203 0.930 . S
C1194 H1188 0.930 . S
C1194 C1195 1.355 . S
C1194 C1196 1.415 . S
C1195 C1194 1.355 . S
C1195 C1197 1.419 . S
C1196 C1194 1.415 . S
C1196 C1201 1.425 . S
C1196 C1203 1.409 . S
C1197 H1189 0.930 . S
C1197 C1195 1.419 . S
C1197 C1198 1.362 . S
C1198 H1190 0.930 . S
C1198 C1197 1.362 . S
C1198 C1201 1.409 . S
C1199 H1191 0.930 . S
C1199 C1200 1.355 . S
C1199 C1201 1.415 . S
C1200 C1199 1.355 . S
C1200 C1202 1.419 . S
C1201 C1196 1.425 . S
C1201 C1198 1.409 . S
C1201 C1199 1.415 . S
C1202 H1192 0.930 . S
C1202 C1200 1.419 . S
C1202 C1203 1.362 . S
C1203 H1193 0.930 . S
C1203 C1196 1.409 . S
C1203 C1202 1.362 . S
H1204 C1210 0.930 . S
H1205 C1213 0.930 . S
H1206 C1214 0.930 . S
H1207 C1215 0.930 . S
H1208 C1218 0.930 . S
H1209 C1219 0.930 . S
C1210 H1204 0.930 . S
C1210 C1211 1.355 . S
C1210 C1212 1.415 . S
C1211 C1210 1.355 . S
C1211 C1213 1.419 . S
C1212 C1210 1.415 . S
C1212 C1217 1.425 . S
C1212 C1219 1.409 . S
C1213 H1205 0.930 . S
C1213 C1211 1.419 . S
C1213 C1214 1.362 . S
C1214 H1206 0.930 . S
C1214 C1213 1.362 . S
C1214 C1217 1.409 . S
C1215 H1207 0.930 . S
C1215 C1216 1.355 . S
C1215 C1217 1.415 . S
C1216 C1215 1.355 . S
C1216 C1218 1.419 . S
C1217 C1212 1.425 . S
C1217 C1214 1.409 . S
C1217 C1215 1.415 . S
C1218 H1208 0.930 . S
C1218 C1216 1.419 . S
C1218 C1219 1.362 . S
C1219 H1209 0.930 . S
C1219 C1212 1.409 . S
C1219 C1218 1.362 . S
H1220 C1226 0.930 . S
H1221 C1229 0.930 . S
H1222 C1230 0.930 . S
H1223 C1231 0.930 . S
H1224 C1234 0.930 . S
H1225 C1235 0.930 . S
C1226 H1220 0.930 . S
C1226 C1227 1.355 . S
C1226 C1228 1.415 . S
C1227 C1226 1.355 . S
C1227 C1229 1.419 . S
C1228 C1226 1.415 . S
C1228 C1233 1.425 . S
C1228 C1235 1.409 . S
C1229 H1221 0.930 . S
C1229 C1227 1.419 . S
C1229 C1230 1.362 . S
C1230 H1222 0.930 . S
C1230 C1229 1.362 . S
C1230 C1233 1.409 . S
C1231 H1223 0.930 . S
C1231 C1232 1.355 . S
C1231 C1233 1.415 . S
C1232 C1231 1.355 . S
C1232 C1234 1.419 . S
C1233 C1228 1.425 . S
C1233 C1230 1.409 . S
C1233 C1231 1.415 . S
C1234 H1224 0.930 . S
C1234 C1232 1.419 . S
C1234 C1235 1.362 . S
C1235 H1225 0.930 . S
C1235 C1228 1.409 . S
C1235 C1234 1.362 . S
H1236 C1242 0.930 . S
H1237 C1245 0.930 . S
H1238 C1246 0.930 . S
H1239 C1247 0.930 . S
H1240 C1250 0.930 . S
H1241 C1251 0.930 . S
C1242 H1236 0.930 . S
C1242 C1243 1.355 . S
C1242 C1244 1.415 . S
C1243 C1242 1.355 . S
C1243 C1245 1.419 . S
C1244 C1242 1.415 . S
C1244 C1249 1.425 . S
C1244 C1251 1.409 . S
C1245 H1237 0.930 . S
C1245 C1243 1.419 . S
C1245 C1246 1.362 . S
C1246 H1238 0.930 . S
C1246 C1245 1.362 . S
C1246 C1249 1.409 . S
C1247 H1239 0.930 . S
C1247 C1248 1.355 . S
C1247 C1249 1.415 . S
C1248 C1247 1.355 . S
C1248 C1250 1.419 . S
C1249 C1244 1.425 . S
C1249 C1246 1.409 . S
C1249 C1247 1.415 . S
C1250 H1240 0.930 . S
C1250 C1248 1.419 . S
C1250 C1251 1.362 . S
C1251 H1241 0.930 . S
C1251 C1244 1.409 . S
C1251 C1250 1.362 . S
H1252 C1258 0.930 . S
H1253 C1261 0.930 . S
H1254 C1262 0.930 . S
H1255 C1263 0.930 . S
H1256 C1266 0.930 . S
H1257 C1267 0.930 . S
C1258 H1252 0.930 . S
C1258 C1259 1.355 . S
C1258 C1260 1.415 . S
C1259 C1258 1.355 . S
C1259 C1261 1.419 . S
C1260 C1258 1.415 . S
C1260 C1265 1.425 . S
C1260 C1267 1.409 . S
C1261 H1253 0.930 . S
C1261 C1259 1.419 . S
C1261 C1262 1.362 . S
C1262 H1254 0.930 . S
C1262 C1261 1.362 . S
C1262 C1265 1.409 . S
C1263 H1255 0.930 . S
C1263 C1264 1.355 . S
C1263 C1265 1.415 . S
C1264 C1263 1.355 . S
C1264 C1266 1.419 . S
C1265 C1260 1.425 . S
C1265 C1262 1.409 . S
C1265 C1263 1.415 . S
C1266 H1256 0.930 . S
C1266 C1264 1.419 . S
C1266 C1267 1.362 . S
C1267 H1257 0.930 . S
C1267 C1260 1.409 . S
C1267 C1266 1.362 . S
H1268 C1274 0.930 . S
H1269 C1277 0.930 . S
H1270 C1278 0.930 . S
H1271 C1279 0.930 . S
H1272 C1282 0.930 . S
H1273 C1283 0.930 . S
C1274 H1268 0.930 . S
C1274 C1275 1.355 . S
C1274 C1276 1.415 . S
C1275 C1274 1.355 . S
C1275 C1277 1.419 . S
C1276 C1274 1.415 . S
C1276 C1281 1.425 . S
C1276 C1283 1.409 . S
C1277 H1269 0.930 . S
C1277 C1275 1.419 . S
C1277 C1278 1.362 . S
C1278 H1270 0.930 . S
C1278 C1277 1.362 . S
C1278 C1281 1.409 . S
C1279 H1271 0.930 . S
C1279 C1280 1.355 . S
C1279 C1281 1.415 . S
C1280 C1279 1.355 . S
C1280 C1282 1.419 . S
C1281 C1276 1.425 . S
C1281 C1278 1.409 . S
C1281 C1279 1.415 . S
C1282 H1272 0.930 . S
C1282 C1280 1.419 . S
C1282 C1283 1.362 . S
C1283 H1273 0.930 . S
C1283 C1276 1.409 . S
C1283 C1282 1.362 . S
H1284 C1290 0.930 . S
H1285 C1293 0.930 . S
H1286 C1294 0.930 . S
H1287 C1295 0.930 . S
H1288 C1298 0.930 . S
H1289 C1299 0.930 . S
C1290 H1284 0.930 . S
C1290 C1291 1.355 . S
C1290 C1292 1.415 . S
C1291 C1290 1.355 . S
C1291 C1293 1.419 . S
C1292 C1290 1.415 . S
C1292 C1297 1.425 . S
C1292 C1299 1.409 . S
C1293 H1285 0.930 . S
C1293 C1291 1.419 . S
C1293 C1294 1.362 . S
C1294 H1286 0.930 . S
C1294 C1293 1.362 . S
C1294 C1297 1.409 . S
C1295 H1287 0.930 . S
C1295 C1296 1.355 . S
C1295 C1297 1.415 . S
C1296 C1295 1.355 . S
C1296 C1298 1.419 . S
C1297 C1292 1.425 . S
C1297 C1294 1.409 . S
C1297 C1295 1.415 . S
C1298 H1288 0.930 . S
C1298 C1296 1.419 . S
C1298 C1299 1.362 . S
C1299 H1289 0.930 . S
C1299 C1292 1.409 . S
C1299 C1298 1.362 . S
H1300 C1306 0.930 . S
H1301 C1309 0.930 . S
H1302 C1310 0.930 . S
H1303 C1311 0.930 . S
H1304 C1314 0.930 . S
H1305 C1315 0.930 . S
C1306 H1300 0.930 . S
C1306 C1307 1.355 . S
C1306 C1308 1.415 . S
C1307 C1306 1.355 . S
C1307 C1309 1.419 . S
C1308 C1306 1.415 . S
C1308 C1313 1.425 . S
C1308 C1315 1.409 . S
C1309 H1301 0.930 . S
C1309 C1307 1.419 . S
C1309 C1310 1.362 . S
C1310 H1302 0.930 . S
C1310 C1309 1.362 . S
C1310 C1313 1.409 . S
C1311 H1303 0.930 . S
C1311 C1312 1.355 . S
C1311 C1313 1.415 . S
C1312 C1311 1.355 . S
C1312 C1314 1.419 . S
C1313 C1308 1.425 . S
C1313 C1310 1.409 . S
C1313 C1311 1.415 . S
C1314 H1304 0.930 . S
C1314 C1312 1.419 . S
C1314 C1315 1.362 . S
C1315 H1305 0.930 . S
C1315 C1308 1.409 . S
C1315 C1314 1.362 . S
H1316 C1322 0.930 . S
H1317 C1325 0.930 . S
H1318 C1326 0.930 . S
H1319 C1327 0.930 . S
H1320 C1330 0.930 . S
H1321 C1331 0.930 . S
C1322 H1316 0.930 . S
C1322 C1323 1.355 . S
C1322 C1324 1.415 . S
C1323 C1322 1.355 . S
C1323 C1325 1.419 . S
C1324 C1322 1.415 . S
C1324 C1329 1.425 . S
C1324 C1331 1.409 . S
C1325 H1317 0.930 . S
C1325 C1323 1.419 . S
C1325 C1326 1.362 . S
C1326 H1318 0.930 . S
C1326 C1325 1.362 . S
C1326 C1329 1.409 . S
C1327 H1319 0.930 . S
C1327 C1328 1.355 . S
C1327 C1329 1.415 . S
C1328 C1327 1.355 . S
C1328 C1330 1.419 . S
C1329 C1324 1.425 . S
C1329 C1326 1.409 . S
C1329 C1327 1.415 . S
C1330 H1320 0.930 . S
C1330 C1328 1.419 . S
C1330 C1331 1.362 . S
C1331 H1321 0.930 . S
C1331 C1324 1.409 . S
C1331 C1330 1.362 . S
C619 C104 1.655 . S
C624 C2 1.666 . S
C635 C138 1.667 . S
C640 C36 1.654 . S
C651 C172 1.685 . S
C656 C70 1.655 . S
C667 C67 1.211 . S
C672 C203 1.222 . S
C683 C135 1.209 . S
C688 C101 1.206 . S
C699 C169 1.222 . S
C704 C33 1.211 . S
C715 C308 1.688 . S
C720 C206 1.657 . S
C731 C240 1.697 . S
C736 C342 1.666 . S
C747 C274 1.653 . S
C752 C376 1.672 . S
C763 C271 1.206 . S
C768 C407 1.216 . S
C779 C305 1.226 . S
C784 C339 1.218 . S
C795 C373 1.219 . S
C800 C237 1.226 . S
C811 C410 1.672 . S
C816 C512 1.699 . S
C827 C546 1.695 . S
C832 C444 1.692 . S
C843 C478 1.658 . S
C848 C580 1.661 . S
C859 C475 1.208 . S
C864 C611 1.219 . S
C875 C543 1.210 . S
C880 C509 1.206 . S
C891 C441 1.212 . S
C896 C577 1.206 . S
C907 C20 1.763 . S
C912 C598 1.765 . S
C923 C530 1.752 . S
C928 C54 1.757 . S
C939 C564 1.747 . S
C944 C88 1.772 . S
C955 C258 1.749 . S
C960 C122 1.772 . S
C971 C292 1.767 . S
C976 C156 1.746 . S
C987 C224 1.746 . S
C992 C190 1.770 . S
C1003 C462 1.768 . S
C1008 C326 1.746 . S
C1019 C496 1.768 . S
C1024 C360 1.758 . S
C1035 C394 1.772 . S
C1040 C428 1.747 . S
C1051 C5 1.399 . S
C1056 C9 1.294 . S
C1067 C39 1.395 . S
C1072 C43 1.286 . S
C1083 C73 1.399 . S
C1088 C77 1.361 . S
C1099 C111 1.266 . S
C1104 C107 1.371 . S
C1115 C145 1.367 . S
C1120 C141 1.415 . S
C1131 C175 1.417 . S
C1136 C179 1.351 . S
C1147 C209 1.395 1_554 S
C1152 C213 1.286 . S
C1163 C247 1.340 . S
C1168 C243 1.415 1_554 S
C1179 C281 1.268 . S
C1184 C277 1.370 1_554 S
C1195 C311 1.369 . S
C1200 C315 1.272 . S
C1211 C345 1.417 . S
C1216 C349 1.348 . S
C1227 C379 1.406 . S
C1232 C383 1.367 . S
C1243 C413 1.375 . S
C1248 C417 1.265 . S
C1259 C447 1.407 . S
C1264 C451 1.368 . S
C1275 C485 1.274 . S
C1280 C481 1.368 . S
C1291 C515 1.417 1_556 S
C1296 C519 1.349 . S
C1307 C553 1.367 . S
C1312 C549 1.415 1_556 S
C1323 C587 1.365 . S
C1328 C583 1.403 1_556 S
