# Generated by pormake.
# Topology wkd, (5)-cn, num edge types: 1
# Building blocks:
#     Node 0, Type 0, BuildingBlock: XOMCOT_clean_sbu_1, # of connection points: 5
#     Node 1, Type 0, BuildingBlock: XOMCOT_clean_sbu_1, # of connection points: 5
#     Node 2, Type 0, BuildingBlock: XOMCOT_clean_sbu_1, # of connection points: 5
#     Node 3, Type 0, BuildingBlock: XOMCOT_clean_sbu_1, # of connection points: 5
#     Node 4, Type 0, BuildingBlock: XOMCOT_clean_sbu_1, # of connection points: 5
#     Node 5, Type 0, BuildingBlock: XOMCOT_clean_sbu_1, # of connection points: 5
#     Node 6, Type 0, BuildingBlock: XOMCOT_clean_sbu_1, # of connection points: 5
#     Node 7, Type 0, BuildingBlock: XOMCOT_clean_sbu_1, # of connection points: 5
#     Node 8, Type 0, BuildingBlock: XOMCOT_clean_sbu_1, # of connection points: 5
#     Node 9, Type 0, BuildingBlock: XOMCOT_clean_sbu_1, # of connection points: 5
#     Node 10, Type 0, BuildingBlock: XOMCOT_clean_sbu_1, # of connection points: 5
#     Node 11, Type 0, BuildingBlock: XOMCOT_clean_sbu_1, # of connection points: 5
#     Edge 12, Type (0, 0), BuildingBlock: EYOCIG_clean_linker_4, # of connection points: 2
#     Edge 13, Type (0, 0), BuildingBlock: EYOCIG_clean_linker_4, # of connection points: 2
#     Edge 14, Type (0, 0), BuildingBlock: EYOCIG_clean_linker_4, # of connection points: 2
#     Edge 15, Type (0, 0), BuildingBlock: EYOCIG_clean_linker_4, # of connection points: 2
#     Edge 16, Type (0, 0), BuildingBlock: EYOCIG_clean_linker_4, # of connection points: 2
#     Edge 17, Type (0, 0), BuildingBlock: EYOCIG_clean_linker_4, # of connection points: 2
#     Edge 18, Type (0, 0), BuildingBlock: EYOCIG_clean_linker_4, # of connection points: 2
#     Edge 19, Type (0, 0), BuildingBlock: EYOCIG_clean_linker_4, # of connection points: 2
#     Edge 20, Type (0, 0), BuildingBlock: EYOCIG_clean_linker_4, # of connection points: 2
#     Edge 21, Type (0, 0), BuildingBlock: EYOCIG_clean_linker_4, # of connection points: 2
#     Edge 22, Type (0, 0), BuildingBlock: EYOCIG_clean_linker_4, # of connection points: 2
#     Edge 23, Type (0, 0), BuildingBlock: EYOCIG_clean_linker_4, # of connection points: 2
#     Edge 24, Type (0, 0), BuildingBlock: EYOCIG_clean_linker_4, # of connection points: 2
#     Edge 25, Type (0, 0), BuildingBlock: EYOCIG_clean_linker_4, # of connection points: 2
#     Edge 26, Type (0, 0), BuildingBlock: EYOCIG_clean_linker_4, # of connection points: 2
#     Edge 27, Type (0, 0), BuildingBlock: EYOCIG_clean_linker_4, # of connection points: 2
#     Edge 28, Type (0, 0), BuildingBlock: EYOCIG_clean_linker_4, # of connection points: 2
#     Edge 29, Type (0, 0), BuildingBlock: EYOCIG_clean_linker_4, # of connection points: 2
#     Edge 30, Type (0, 0), BuildingBlock: EYOCIG_clean_linker_4, # of connection points: 2
#     Edge 31, Type (0, 0), BuildingBlock: EYOCIG_clean_linker_4, # of connection points: 2
#     Edge 32, Type (0, 0), BuildingBlock: EYOCIG_clean_linker_4, # of connection points: 2
#     Edge 33, Type (0, 0), BuildingBlock: EYOCIG_clean_linker_4, # of connection points: 2
#     Edge 34, Type (0, 0), BuildingBlock: EYOCIG_clean_linker_4, # of connection points: 2
#     Edge 35, Type (0, 0), BuildingBlock: EYOCIG_clean_linker_4, # of connection points: 2
#     Edge 36, Type (0, 0), BuildingBlock: EYOCIG_clean_linker_4, # of connection points: 2
#     Edge 37, Type (0, 0), BuildingBlock: EYOCIG_clean_linker_4, # of connection points: 2
#     Edge 38, Type (0, 0), BuildingBlock: EYOCIG_clean_linker_4, # of connection points: 2
#     Edge 39, Type (0, 0), BuildingBlock: EYOCIG_clean_linker_4, # of connection points: 2
#     Edge 40, Type (0, 0), BuildingBlock: EYOCIG_clean_linker_4, # of connection points: 2
#     Edge 41, Type (0, 0), BuildingBlock: EYOCIG_clean_linker_4, # of connection points: 2
# Relax obj value: 0.117
# Max RMSD: 0.171
# Mean RMSD: 0.170
data_MOF--net-wkd--node1-XOMCOT_clean_sbu_1--edge1-EYOCIG_clean_linker_4
_symmetry_space_group_name_H-M    P1
_symmetry_Int_Tables_number       1
_symmetry_cell_setting            triclinic
loop_
_symmetry_equiv_pos_as_xyz
'x, y, z'
_cell_length_a     20.896575
_cell_length_b     20.90419
_cell_length_c     83.002302
_cell_angle_alpha  90.000653
_cell_angle_beta   90.007096
_cell_angle_gamma 119.89104
loop_
_atom_site_label
_atom_site_type_symbol
_atom_site_fract_x
_atom_site_fract_y
_atom_site_fract_z
_atom_type_partial_charge
C0 C 0.05822 0.2812 0.12399 0.0
C1 C 0.06779 0.23042 0.1327 0.0
N2 N 0.01888 0.16284 0.12729 0.0
N3 N 1.00355 0.24552 0.11316 0.0
C4 C 0.98046 0.17305 0.1155 0.0
H5 H 0.09014 0.34055 0.12522 0.0
Co6 Co 0.97515 0.29289 0.09801 0.0
C7 C 0.90273 0.18176 0.07204 0.0
O8 O 0.93866 0.23349 0.06127 0.0
N9 N 0.94488 0.3415 0.08312 0.0
C10 C 0.86481 0.36396 0.07002 0.0
C11 C 0.87436 0.31158 0.07784 0.0
C12 C 0.97631 0.41355 0.07878 0.0
N13 N 0.92874 0.42773 0.07073 0.0
O14 O 0.89646 0.28216 0.11188 0.0
H15 H 0.83065 0.25627 0.08052 0.0
H16 H 0.03039 0.45623 0.08252 0.0
O17 O 0.91119 0.19723 0.08711 0.0
C18 C 0.92154 0.34332 0.11942 0.0
O19 O 0.99137 0.39326 0.11765 0.0
N20 N 0.058 0.31158 0.08553 0.0
C21 C 0.19425 0.35798 0.07099 0.0
C22 C 0.14052 0.28315 0.07102 0.0
C23 C 0.07285 0.26066 0.07874 0.0
C24 C 0.11215 0.3836 0.08645 0.0
C25 C 0.18005 0.40834 0.07895 0.0
H26 H 0.0338 0.20238 0.07963 0.0
H27 H 0.10373 0.42174 0.09365 0.0
H28 H 0.93756 0.1286 0.10855 0.0
H29 H 0.10832 0.24218 0.14206 0.0
H30 H 0.8136 0.35704 0.06518 0.0
H31 H 0.15117 0.24252 0.06544 0.0
H32 H 0.2217 0.46621 0.07968 0.0
C33 C 0.78859 0.05364 0.29086 0.0
C34 C 0.84877 0.06295 0.2996 0.0
N35 N 0.86748 0.01395 0.29419 0.0
N36 N 0.76978 0.99905 0.28001 0.0
C37 C 0.81907 0.97574 0.28238 0.0
H38 H 0.76118 0.08568 0.29207 0.0
Co39 Co 0.69431 0.97097 0.26481 0.0
C40 C 0.73357 0.89906 0.23881 0.0
O41 O 0.71787 0.93527 0.22807 0.0
N42 N 0.61569 0.94099 0.24988 0.0
C43 C 0.51362 0.86114 0.23669 0.0
C44 C 0.57544 0.87059 0.24454 0.0
C45 C 0.57495 0.97244 0.24556 0.0
N46 N 0.51348 0.925 0.23745 0.0
O47 O 0.6264 0.89208 0.27861 0.0
H48 H 0.58718 0.82686 0.2472 0.0
H49 H 0.58604 0.0264 0.24935 0.0
O50 O 0.72631 0.90718 0.25389 0.0
C51 C 0.59005 0.91693 0.28616 0.0
O52 O 0.60963 0.98675 0.28446 0.0
N53 N 0.75843 0.05397 0.2524 0.0
C54 C 0.84827 0.19022 0.23791 0.0
C55 C 0.86951 0.13646 0.23801 0.0
C56 C 0.82433 0.06881 0.2457 0.0
C57 C 0.7404 0.10815 0.25327 0.0
C58 C 0.78357 0.17606 0.2458 0.0
H59 H 0.84363 0.02972 0.24664 0.0
H60 H 0.69371 0.09976 0.26041 0.0
H61 H 0.8207 0.93282 0.27542 0.0
H62 H 0.87738 0.10336 0.30897 0.0
H63 H 0.46958 0.81002 0.23181 0.0
H64 H 0.92088 0.14708 0.2325 0.0
H65 H 0.76722 0.21773 0.24648 0.0
C66 C 0.74642 0.7807 0.45771 0.0
C67 C 0.79723 0.84092 0.46641 0.0
N68 N 0.86479 0.85975 0.46091 0.0
N69 N 0.78208 0.76196 0.44679 0.0
C70 C 0.85455 0.81136 0.44908 0.0
H71 H 0.68707 0.75322 0.45899 0.0
Co72 Co 0.73466 0.68654 0.4316 0.0
C73 C 0.8457 0.72548 0.40558 0.0
O74 O 0.79386 0.7099 0.39483 0.0
N75 N 0.68599 0.60801 0.41667 0.0
C76 C 0.66354 0.50579 0.40348 0.0
C77 C 0.716 0.56756 0.41129 0.0
C78 C 0.61382 0.56743 0.41241 0.0
N79 N 0.59964 0.50588 0.40431 0.0
O80 O 0.74555 0.61841 0.4454 0.0
H81 H 0.77143 0.57912 0.4139 0.0
H82 H 0.57108 0.57869 0.41626 0.0
O83 O 0.83031 0.71822 0.42066 0.0
C84 C 0.68441 0.58232 0.45294 0.0
O85 O 0.63437 0.60229 0.45125 0.0
N86 N 0.71581 0.75085 0.41919 0.0
C87 C 0.66926 0.84082 0.4047 0.0
C88 C 0.74416 0.86183 0.40476 0.0
C89 C 0.76672 0.81659 0.41245 0.0
C90 C 0.64373 0.73307 0.42011 0.0
C91 C 0.61892 0.77631 0.41263 0.0
H92 H 0.82502 0.83571 0.41336 0.0
H93 H 0.60558 0.68653 0.42727 0.0
H94 H 0.89898 0.81312 0.44205 0.0
H95 H 0.78548 0.8695 0.47581 0.0
H96 H 0.67052 0.46162 0.39858 0.0
H97 H 0.78478 0.91306 0.39921 0.0
H98 H 0.56099 0.76015 0.41334 0.0
C99 C 0.9734 0.73918 0.62398 0.0
C100 C 0.96381 0.78996 0.63269 0.0
N101 N 1.01272 0.85754 0.62729 0.0
N102 N 0.02808 0.77487 0.61315 0.0
C103 C 0.05115 0.84734 0.61551 0.0
H104 H 0.94148 0.67983 0.62521 0.0
Co105 Co 0.0565 0.72752 0.59801 0.0
C106 C 0.12894 0.83865 0.57205 0.0
O107 O 0.09302 0.78693 0.56127 0.0
N108 N 0.0868 0.67892 0.58313 0.0
C109 C 0.16689 0.65648 0.57003 0.0
C110 C 0.15732 0.70885 0.57785 0.0
C111 C 0.05538 0.60687 0.57878 0.0
N112 N 0.10297 0.59271 0.57073 0.0
O113 O 0.13518 0.73824 0.61189 0.0
H114 H 0.20103 0.76416 0.58054 0.0
H115 H 1.0013 0.56419 0.58251 0.0
O116 O 0.12046 0.82319 0.58712 0.0
C117 C 0.11007 0.67706 0.61942 0.0
O118 O 0.04024 0.62713 0.61765 0.0
N119 N 0.97367 0.70883 0.58552 0.0
C120 C 0.83741 0.66242 0.57097 0.0
C121 C 0.89114 0.73725 0.57101 0.0
C122 C 0.95881 0.75975 0.57873 0.0
C123 C 0.91953 0.63681 0.58644 0.0
C124 C 0.85162 0.61206 0.57893 0.0
H125 H 0.99786 0.81802 0.57963 0.0
H126 H 0.92794 0.59866 0.59363 0.0
H127 H 0.09406 0.8918 0.60855 0.0
H128 H 0.92327 0.77819 0.64204 0.0
H129 H 0.21811 0.66341 0.5652 0.0
H130 H 0.88049 0.77789 0.56543 0.0
H131 H 0.80998 0.55419 0.57966 0.0
C132 C 0.24282 0.96659 0.79086 0.0
C133 C 0.18265 0.95725 0.7996 0.0
N134 N 0.16394 1.00627 0.7942 0.0
N135 N 0.26165 0.02121 0.78002 0.0
C136 C 0.21236 0.04452 0.78239 0.0
H137 H 0.27024 0.93454 0.79207 0.0
Co138 Co 0.33713 0.04933 0.76483 0.0
C139 C 0.29786 0.12129 0.73883 0.0
O140 O 0.31356 0.08511 0.72809 0.0
N141 N 0.41574 0.07937 0.7499 0.0
C142 C 0.51781 0.15927 0.73672 0.0
C143 C 0.456 0.14979 0.74457 0.0
C144 C 0.45649 0.04793 0.74557 0.0
N145 N 0.51796 0.0954 0.73746 0.0
O146 O 0.40503 0.12819 0.77864 0.0
H147 H 0.44425 0.19351 0.74724 0.0
H148 H 0.4454 0.99396 0.74934 0.0
O149 O 0.30511 0.11315 0.75391 0.0
C150 C 0.44137 0.10332 0.78619 0.0
O151 O 0.42179 0.03351 0.78447 0.0
N152 N 0.27301 0.96636 0.7524 0.0
C153 C 0.18316 0.83013 0.7379 0.0
C154 C 0.16192 0.88388 0.73801 0.0
C155 C 0.2071 0.95153 0.7457 0.0
C156 C 0.29105 0.9122 0.75326 0.0
C157 C 0.24788 0.84429 0.74578 0.0
H158 H 0.1878 0.99061 0.74665 0.0
H159 H 0.33775 0.92058 0.7604 0.0
H160 H 0.21073 0.08746 0.77544 0.0
H161 H 0.15403 0.91681 0.80896 0.0
H162 H 0.56185 0.2104 0.73184 0.0
H163 H 0.11054 0.87327 0.7325 0.0
H164 H 0.26423 0.80262 0.74646 0.0
C165 C 0.28514 0.23951 0.95773 0.0
C166 C 0.23434 0.1793 0.96643 0.0
N167 N 0.16677 0.16047 0.96093 0.0
N168 N 0.24948 0.25824 0.94681 0.0
C169 C 0.177 0.20885 0.9491 0.0
H170 H 0.3445 0.26699 0.95901 0.0
Co171 Co 0.29688 0.33365 0.93162 0.0
C172 C 0.18582 0.29467 0.9056 0.0
O173 O 0.23764 0.31024 0.89485 0.0
N174 N 0.34553 0.41216 0.91669 0.0
C175 C 0.36796 0.51436 0.9035 0.0
C176 C 0.31552 0.4526 0.9113 0.0
C177 C 0.41771 0.45274 0.91243 0.0
N178 N 0.43187 0.51428 0.90432 0.0
O179 O 0.28599 0.40179 0.94541 0.0
H180 H 0.26008 0.44104 0.91391 0.0
H181 H 0.46044 0.44149 0.91628 0.0
O182 O 0.20122 0.30195 0.92068 0.0
C183 C 0.34713 0.43789 0.95296 0.0
O184 O 0.39718 0.41794 0.95127 0.0
N185 N 0.31572 0.26932 0.91921 0.0
C186 C 0.36225 0.17934 0.90473 0.0
C187 C 0.28736 0.15833 0.90478 0.0
C188 C 0.26481 0.20357 0.91248 0.0
C189 C 0.38781 0.28711 0.92013 0.0
C190 C 0.41261 0.24387 0.91266 0.0
H191 H 0.20651 0.18446 0.91338 0.0
H192 H 0.42597 0.33366 0.92729 0.0
H193 H 0.13257 0.20709 0.94206 0.0
H194 H 0.2461 0.15074 0.97584 0.0
H195 H 0.36098 0.55852 0.89859 0.0
H196 H 0.24673 0.10709 0.89924 0.0
H197 H 0.47054 0.26003 0.91337 0.0
C198 C 0.7445 0.96746 0.82313 0.0
C199 C 0.79528 0.95787 0.81441 0.0
N200 N 0.8629 1.00685 0.8198 0.0
N201 N 0.78024 0.0222 0.83394 0.0
C202 C 0.85273 0.04532 0.83157 0.0
H203 H 0.68512 0.93551 0.82192 0.0
Co204 Co 0.7329 0.05067 0.84908 0.0
C205 C 0.84409 0.12312 0.87504 0.0
O206 O 0.79234 0.08722 0.88582 0.0
N207 N 0.68433 0.08101 0.86396 0.0
C208 C 0.66194 0.16113 0.87705 0.0
C209 C 0.71428 0.15153 0.86923 0.0
C210 C 0.61227 0.04961 0.86832 0.0
N211 N 0.59814 0.09722 0.87636 0.0
O212 O 0.74363 0.12928 0.83519 0.0
H213 H 0.76961 0.19521 0.86652 0.0
H214 H 0.56956 0.99553 0.8646 0.0
O215 O 0.82862 0.11462 0.85997 0.0
C216 C 0.68243 0.10418 0.82766 0.0
O217 O 0.63246 0.03439 0.82944 0.0
N218 N 0.71422 0.96789 0.86158 0.0
C219 C 0.66784 0.83171 0.87613 0.0
C220 C 0.7427 0.88542 0.87609 0.0
C221 C 0.76518 0.95305 0.86836 0.0
C222 C 0.64216 0.91377 0.86067 0.0
C223 C 0.61743 0.8459 0.86817 0.0
H224 H 0.82347 0.99208 0.86746 0.0
H225 H 0.60398 0.92216 0.85348 0.0
H226 H 0.89723 0.08828 0.83851 0.0
H227 H 0.78347 0.9173 0.80507 0.0
H228 H 0.66888 0.21235 0.88188 0.0
H229 H 0.78336 0.87479 0.88166 0.0
H230 H 0.55954 0.80427 0.86746 0.0
C231 C 0.78655 0.74086 0.98939 0.0
C232 C 0.84676 0.79167 0.98069 0.0
N233 N 0.86556 0.8592 0.98619 0.0
N234 N 0.76779 0.77648 1.00032 0.0
C235 C 0.81716 0.84894 0.99802 0.0
H236 H 0.7591 0.68152 0.98811 0.0
Co237 Co 0.69238 0.72905 1.01551 0.0
C238 C 0.73133 0.84008 1.04152 0.0
O239 O 0.71579 0.7883 1.05228 0.0
N240 N 0.61385 0.68038 1.03043 0.0
C241 C 0.5116 0.65788 1.04363 0.0
C242 C 0.57337 0.71033 1.03583 0.0
C243 C 0.57331 0.60823 1.03469 0.0
N244 N 0.51173 0.59402 1.0428 0.0
O245 O 0.62418 0.7399 1.00172 0.0
H246 H 0.58489 0.76574 1.03322 0.0
H247 H 0.5846 0.56553 1.03084 0.0
O248 O 0.72405 0.82466 1.02645 0.0
C249 C 0.58808 0.67879 0.99417 0.0
O250 O 0.60808 0.62879 0.99585 0.0
N251 N 0.75675 0.71024 1.02791 0.0
C252 C 0.84676 0.6637 1.04239 0.0
C253 C 0.86775 0.73857 1.04235 0.0
C254 C 0.8225 0.76112 1.03466 0.0
C255 C 0.73899 0.63819 1.02698 0.0
C256 C 0.78224 0.61339 1.03445 0.0
H257 H 0.8416 0.8194 1.03376 0.0
H258 H 0.69244 0.60007 1.01981 0.0
H259 H 0.8189 0.89334 1.00506 0.0
H260 H 0.87535 0.77995 0.97128 0.0
H261 H 0.46741 0.66482 1.04854 0.0
H262 H 0.91899 0.77917 1.04791 0.0
H263 H 0.7661 0.55549 1.03373 0.0
C264 C 0.05893 0.78277 0.15612 0.0
C265 C 0.06827 0.84294 0.14738 0.0
N266 N 0.01934 0.86173 0.1528 0.0
N267 N 1.0044 0.76403 0.16698 0.0
C268 C 0.98115 0.81337 0.16462 0.0
H269 H 0.09093 0.75531 0.15489 0.0
Co270 Co 0.97634 0.68862 0.18218 0.0
C271 C 0.90441 0.72791 0.20818 0.0
O272 O 0.94067 0.71226 0.21892 0.0
N273 N 0.94639 0.61007 0.19712 0.0
C274 C 0.86654 0.50805 0.21031 0.0
C275 C 0.87597 0.56984 0.20247 0.0
C276 C 0.97786 0.56934 0.20144 0.0
N277 N 0.93042 0.5079 0.20955 0.0
O278 O 0.89743 0.62068 0.16838 0.0
H279 H 0.83222 0.58157 0.19981 0.0
H280 H 0.03181 0.58041 0.19764 0.0
O281 O 0.91251 0.72061 0.1931 0.0
C282 C 0.92232 0.58435 0.16084 0.0
O283 O 0.99217 0.60396 0.16254 0.0
N284 N 0.05936 0.75278 0.1946 0.0
C285 C 0.19566 0.8427 0.20908 0.0
C286 C 0.14186 0.8639 0.20897 0.0
C287 C 0.07418 0.81869 0.20128 0.0
C288 C 0.11358 0.73478 0.19374 0.0
C289 C 0.18151 0.77799 0.20121 0.0
H290 H 0.03506 0.83795 0.20033 0.0
H291 H 0.10521 0.68808 0.18661 0.0
H292 H 0.9383 0.81508 0.1716 0.0
H293 H 0.10867 0.8715 0.138 0.0
H294 H 0.81541 0.46404 0.2152 0.0
H295 H 0.15246 0.91528 0.21447 0.0
H296 H 0.22321 0.76167 0.20054 0.0
C297 C 0.28691 0.05265 0.32311 0.0
C298 C 0.23613 0.06225 0.31439 0.0
N299 N 0.16851 0.01329 0.31978 0.0
N300 N 0.25119 0.99793 0.33392 0.0
C301 C 0.17869 0.97483 0.33156 0.0
H302 H 0.34629 0.0846 0.3219 0.0
Co303 Co 0.29853 0.96946 0.34906 0.0
C304 C 0.18738 0.89702 0.37502 0.0
O305 O 0.23914 0.93291 0.38579 0.0
N306 N 0.34712 0.93912 0.36394 0.0
C307 C 0.36953 0.859 0.37702 0.0
C308 C 0.31717 0.8686 0.3692 0.0
C309 C 0.41919 0.97052 0.36829 0.0
N310 N 0.43333 0.92291 0.37634 0.0
O311 O 0.2878 0.89084 0.33517 0.0
H312 H 0.26185 0.82492 0.3665 0.0
H313 H 0.4619 0.02459 0.36458 0.0
O314 O 0.20282 0.90551 0.35995 0.0
C315 C 0.34899 0.91595 0.32764 0.0
O316 O 0.39895 0.98574 0.32942 0.0
N317 N 0.31723 0.05224 0.36156 0.0
C318 C 0.36363 0.18842 0.37612 0.0
C319 C 0.28877 0.13471 0.37607 0.0
C320 C 0.26628 0.06708 0.36834 0.0
C321 C 0.38929 0.10636 0.36065 0.0
C322 C 0.41402 0.17423 0.36816 0.0
H323 H 0.20799 0.02805 0.36744 0.0
H324 H 0.42746 0.09796 0.35346 0.0
H325 H 0.1342 0.93187 0.33849 0.0
H326 H 0.24793 0.10282 0.30505 0.0
H327 H 0.36259 0.80778 0.38185 0.0
H328 H 0.24811 0.14536 0.38164 0.0
H329 H 0.47192 0.21586 0.36744 0.0
C330 C 0.24495 0.27942 0.48939 0.0
C331 C 0.18474 0.22859 0.48068 0.0
N332 N 0.16598 0.16106 0.48618 0.0
N333 N 0.26376 0.24382 0.50031 0.0
C334 C 0.21441 0.17135 0.49801 0.0
H335 H 0.27239 0.33875 0.48811 0.0
Co336 Co 0.3392 0.29128 0.5155 0.0
C337 C 0.3003 0.18029 0.54152 0.0
O338 O 0.31587 0.2321 0.55227 0.0
N339 N 0.41776 0.33997 0.53042 0.0
C340 C 0.52003 0.36249 0.54362 0.0
C341 C 0.45826 0.31002 0.53582 0.0
C342 C 0.45831 0.41213 0.53467 0.0
N343 N 0.5199 0.42635 0.54279 0.0
O344 O 0.40737 0.28039 0.50171 0.0
H345 H 0.44672 0.25461 0.53321 0.0
H346 H 0.44702 0.45482 0.53083 0.0
O347 O 0.30755 0.19568 0.52644 0.0
C348 C 0.44346 0.34149 0.49415 0.0
O349 O 0.42346 0.39149 0.49584 0.0
N350 N 0.27486 0.31012 0.5279 0.0
C351 C 0.18491 0.35671 0.54238 0.0
C352 C 0.1639 0.28184 0.54235 0.0
C353 C 0.20913 0.25926 0.53465 0.0
C354 C 0.29262 0.38217 0.52696 0.0
C355 C 0.2494 0.407 0.53443 0.0
H356 H 0.19002 0.20097 0.53376 0.0
H357 H 0.33916 0.42027 0.51978 0.0
H358 H 0.21271 0.12696 0.50505 0.0
H359 H 0.15612 0.24029 0.47128 0.0
H360 H 0.56423 0.35556 0.54852 0.0
H361 H 0.11268 0.24126 0.54791 0.0
H362 H 0.26555 0.46489 0.53371 0.0
C363 C 0.97248 0.23749 0.65612 0.0
C364 C 0.96316 0.17733 0.64738 0.0
N365 N 1.01212 0.15857 0.65281 0.0
N366 N 0.02703 0.25626 0.66699 0.0
C367 C 0.05031 0.20695 0.66463 0.0
H368 H 0.94045 0.26493 0.65489 0.0
Co369 Co 0.05507 0.33169 0.68218 0.0
C370 C 0.12697 0.2924 0.70819 0.0
O371 O 0.09071 0.30807 0.71894 0.0
N372 N 0.08501 0.41025 0.69712 0.0
C373 C 0.16485 0.51227 0.71032 0.0
C374 C 0.15542 0.45048 0.70248 0.0
C375 C 0.05355 0.45099 0.70143 0.0
N376 N 0.10098 0.51243 0.70955 0.0
O377 O 0.134 0.39961 0.66839 0.0
H378 H 0.19918 0.43874 0.69983 0.0
H379 H 0.9996 0.43992 0.69763 0.0
O380 O 0.11889 0.2997 0.69312 0.0
C381 C 0.10913 0.43594 0.66084 0.0
O382 O 0.03928 0.41634 0.66253 0.0
N383 N 0.97203 0.26754 0.69459 0.0
C384 C 0.83574 0.17768 0.70907 0.0
C385 C 0.88952 0.15646 0.70897 0.0
C386 C 0.9572 0.20165 0.70128 0.0
C387 C 0.91783 0.28556 0.69373 0.0
C388 C 0.84989 0.24237 0.7012 0.0
H389 H 0.99631 0.18238 0.70034 0.0
H390 H 0.9262 0.33224 0.6866 0.0
H391 H 0.09318 0.20527 0.67161 0.0
H392 H 0.92277 0.14875 0.63801 0.0
H393 H 0.21598 0.55629 0.71521 0.0
H394 H 0.87892 0.10509 0.71447 0.0
H395 H 0.8082 0.2587 0.70052 0.0
C396 C 0.7896 0.97588 1.053 0.0
C397 C 0.76329 0.91527 1.04699 0.0
C398 C 0.8248 0.04599 0.06059 0.0
C399 C 0.85931 0.1066 0.06659 0.0
C400 C 0.82669 0.78613 0.21968 0.0
C401 C 0.86108 0.75985 0.21365 0.0
C402 C 0.79166 0.82124 0.2273 0.0
C403 C 0.76543 0.85568 0.23333 0.0
C404 C 0.98151 0.78382 0.39409 0.0
C405 C 0.9209 0.75748 0.40011 0.0
C406 C 0.05161 0.81905 0.38648 0.0
C407 C 0.1122 0.85356 0.38047 0.0
C408 C 0.24204 0.04451 0.553 0.0
C409 C 0.26835 0.10512 0.54699 0.0
C410 C 0.20685 0.97441 0.5606 0.0
C411 C 0.17235 0.91382 0.5666 0.0
C412 C 0.23974 0.1991 0.72733 0.0
C413 C 0.26597 0.16467 0.73336 0.0
C414 C 0.20469 0.2342 0.71971 0.0
C415 C 0.1703 0.26048 0.71368 0.0
C416 C 0.97988 0.20109 0.8865 0.0
C417 C 0.91927 0.16657 0.88049 0.0
C418 C 0.04999 0.23633 0.89411 0.0
C419 C 0.11061 0.26267 0.90013 0.0
C420 C 1.00921 0.03937 0.13719 0.0
C421 C 1.01262 0.09573 0.13241 0.0
C422 C 1.00932 0.97534 0.14289 0.0
C423 C 1.01291 0.92249 0.14767 0.0
C424 C 0.98103 1.0038 0.30414 0.0
C425 C 0.92821 1.00744 0.29934 0.0
C426 C 0.04504 1.00365 0.30985 0.0
C427 C 0.10139 1.00704 0.31465 0.0
C428 C 0.05231 0.03757 0.47637 0.0
C429 C 0.10519 0.09395 0.48111 0.0
C430 C 0.98826 0.97349 0.47072 0.0
C431 C 0.93189 0.92058 0.46598 0.0
C432 C 0.02221 0.045 0.64289 0.0
C433 C 0.01859 0.09784 0.64768 0.0
C434 C 0.02235 0.98099 0.63719 0.0
C435 C 0.01896 0.92464 0.63241 0.0
C436 C 0.05038 0.01639 0.80415 0.0
C437 C 0.10321 0.01276 0.79935 0.0
C438 C 0.98637 0.01652 0.80987 0.0
C439 C 0.93002 0.01312 0.81466 0.0
C440 C 0.97925 0.98267 0.97638 0.0
C441 C 0.92636 0.9263 0.98112 0.0
C442 C 0.04331 0.04674 0.97074 0.0
C443 C 0.09968 0.09965 0.966 0.0
C444 C 0.39663 0.47157 1.05186 0.0
C445 C 0.45228 0.52533 1.04731 0.0
C446 C 0.32625 0.41897 0.05771 0.0
C447 C 0.26485 0.38469 0.06326 0.0
C448 C 0.93744 0.39259 0.21874 0.0
C449 C 0.93953 0.44834 0.21413 0.0
C450 C 0.91943 0.32218 0.22464 0.0
C451 C 0.89218 0.2608 0.23021 0.0
C452 C 0.55569 0.92993 0.38553 0.0
C453 C 0.50198 0.93199 0.38093 0.0
C454 C 0.60823 0.91197 0.39142 0.0
C455 C 0.6425 0.88475 0.39698 0.0
C456 C 0.7054 0.60142 0.55769 0.0
C457 C 0.76681 0.63571 0.56324 0.0
C458 C 0.63502 0.54882 0.55184 0.0
C459 C 0.57936 0.49505 0.5473 0.0
C460 C 0.09396 0.62775 0.71872 0.0
C461 C 0.09187 0.572 0.71412 0.0
C462 C 0.11198 0.69817 0.72463 0.0
C463 C 0.13924 0.75956 0.73019 0.0
C464 C 0.42327 0.10817 0.89145 0.0
C465 C 0.38901 0.13541 0.89701 0.0
C466 C 0.4758 0.0902 0.88556 0.0
C467 C 0.5295 0.08814 0.88096 0.0
C468 C 0.60689 0.69977 0.88941 0.0
C469 C 0.64115 0.76115 0.88386 0.0
C470 C 0.55432 0.62941 0.89527 0.0
C471 C 0.50056 0.57375 0.89981 0.0
C472 C 0.93583 0.55009 0.06155 0.0
C473 C 0.93786 0.49638 0.06614 0.0
C474 C 0.9179 0.60265 1.05567 0.0
C475 C 0.89069 0.63693 1.05011 0.0
C476 C 0.39812 0.93201 0.22826 0.0
C477 C 0.45389 0.93411 0.23286 0.0
C478 C 0.32767 0.91395 0.22235 0.0
C479 C 0.26626 0.88666 0.21678 0.0
C480 C 0.47718 0.39075 0.39525 0.0
C481 C 0.53094 0.44641 0.39979 0.0
C482 C 0.4246 0.32038 0.38939 0.0
C483 C 0.39033 0.259 0.38384 0.0
C484 C 0.0959 0.47036 0.56155 0.0
C485 C 0.09386 0.52407 0.56614 0.0
C486 C 0.11381 0.4178 0.55566 0.0
C487 C 0.14101 0.38351 0.5501 0.0
C488 C 0.6333 0.08843 0.72825 0.0
C489 C 0.57754 0.08632 0.73287 0.0
C490 C 0.70374 0.10648 0.72234 0.0
C491 C 0.76514 0.13375 0.71678 0.0
C492 C 0.85735 0.46091 0.14455 0.0
C493 C 0.876 0.51692 0.15217 0.0
C494 C 0.85713 0.40233 0.13579 0.0
C495 C 0.87546 0.36473 0.12814 0.0
C496 C 0.46661 0.85192 0.30247 0.0
C497 C 0.52262 0.8706 0.29484 0.0
C498 C 0.40802 0.85165 0.31123 0.0
C499 C 0.3704 0.86993 0.31889 0.0
C500 C 0.56709 0.40029 0.47791 0.0
C501 C 0.51107 0.36279 0.48551 0.0
C502 C 0.62559 0.45876 0.4692 0.0
C503 C 0.66311 0.51475 0.4616 0.0
C504 C 0.17442 0.61801 0.63581 0.0
C505 C 0.15613 0.65564 0.62816 0.0
C506 C 0.17416 0.5594 0.64456 0.0
C507 C 0.15548 0.50339 0.65218 0.0
C508 C 0.5648 0.16828 0.8025 0.0
C509 C 0.50879 0.14962 0.79487 0.0
C510 C 0.6234 0.16852 0.81126 0.0
C511 C 0.66101 0.15022 0.81892 0.0
C512 C 0.46444 0.61997 0.97792 0.0
C513 C 0.52046 0.65748 0.98552 0.0
C514 C 0.40593 0.56147 0.96921 0.0
C515 C 0.36842 0.50547 0.96161 0.0
loop_
_geom_bond_atom_site_label_1
_geom_bond_atom_site_label_2
_geom_bond_distance
_geom_bond_site_symmetry_2
_ccdc_geom_bond_type
C0 C1 1.351 . S
C0 N3 1.368 1_455 S
C0 H5 0.931 . S
C1 C0 1.351 . S
C1 N2 1.373 . S
C1 H29 0.930 . S
N2 C1 1.373 . S
N2 C4 1.340 1_455 S
N3 C0 1.368 1_655 S
N3 C4 1.321 . S
N3 Co6 2.135 . S
C4 N2 1.340 1_655 S
C4 N3 1.321 . S
C4 H28 0.930 . S
H5 C0 0.931 . S
Co6 N3 2.135 . S
Co6 N9 2.121 . S
Co6 O14 2.055 . S
Co6 O17 2.039 . S
Co6 N20 2.140 1_655 S
C7 O8 1.227 . S
C7 O17 1.265 . S
O8 C7 1.227 . S
N9 Co6 2.121 . S
N9 C11 1.375 . S
N9 C12 1.313 . S
C10 C11 1.351 . S
C10 N13 1.395 . S
C10 H30 0.904 1_554 S
C11 N9 1.375 . S
C11 C10 1.351 . S
C11 H15 0.931 . S
C12 N9 1.313 . S
C12 N13 1.344 . S
C12 H16 0.930 . S
N13 C10 1.395 . S
N13 C12 1.344 . S
O14 Co6 2.055 . S
O14 C18 1.253 . S
H15 C11 0.931 . S
H16 C12 0.930 . S
O17 Co6 2.039 . S
O17 C7 1.265 . S
C18 O14 1.253 . S
C18 O19 1.227 1_655 S
O19 C18 1.227 1_455 S
N20 Co6 2.140 1_455 S
N20 C23 1.346 . S
N20 C24 1.345 . S
C21 C22 1.387 . S
C21 C25 1.391 . S
C22 C21 1.387 . S
C22 C23 1.369 . S
C22 H31 0.929 . S
C23 N20 1.346 . S
C23 C22 1.369 . S
C23 H26 0.928 . S
C24 N20 1.345 . S
C24 C25 1.371 . S
C24 H27 0.931 . S
C25 C21 1.391 . S
C25 C24 1.371 . S
C25 H32 0.930 . S
H26 C23 0.928 . S
H27 C24 0.931 . S
H28 C4 0.930 . S
H29 C1 0.930 . S
H30 C10 0.904 1_556 S
H31 C22 0.929 . S
H32 C25 0.930 . S
C33 C34 1.351 . S
C33 N36 1.368 1_545 S
C33 H38 0.931 . S
C34 C33 1.351 . S
C34 N35 1.373 . S
C34 H62 0.930 . S
N35 C34 1.373 . S
N35 C37 1.340 1_545 S
N36 C33 1.368 1_565 S
N36 C37 1.321 . S
N36 Co39 2.135 . S
C37 N35 1.340 1_565 S
C37 N36 1.321 . S
C37 H61 0.930 . S
H38 C33 0.931 . S
Co39 N36 2.135 . S
Co39 N42 2.121 . S
Co39 O47 2.055 . S
Co39 O50 2.039 . S
Co39 N53 2.140 1_565 S
C40 O41 1.227 . S
C40 O50 1.265 . S
O41 C40 1.227 . S
N42 Co39 2.121 . S
N42 C44 1.375 . S
N42 C45 1.313 . S
C43 C44 1.338 . S
C43 N46 1.377 . S
C43 H63 0.930 . S
C44 N42 1.375 . S
C44 C43 1.338 . S
C44 H48 0.931 . S
C45 N42 1.313 . S
C45 N46 1.344 . S
C45 H49 0.930 . S
N46 C43 1.377 . S
N46 C45 1.344 . S
O47 Co39 2.055 . S
O47 C51 1.253 . S
H48 C44 0.931 . S
H49 C45 0.930 . S
O50 Co39 2.039 . S
O50 C40 1.265 . S
C51 O47 1.253 . S
C51 O52 1.227 1_565 S
O52 C51 1.227 1_545 S
N53 Co39 2.140 1_545 S
N53 C56 1.346 . S
N53 C57 1.345 . S
C54 C55 1.387 . S
C54 C58 1.391 . S
C55 C54 1.387 . S
C55 C56 1.369 . S
C55 H64 0.929 . S
C56 N53 1.346 . S
C56 C55 1.369 . S
C56 H59 0.928 . S
C57 N53 1.345 . S
C57 C58 1.371 . S
C57 H60 0.931 . S
C58 C54 1.391 . S
C58 C57 1.371 . S
C58 H65 0.930 . S
H59 C56 0.928 . S
H60 C57 0.931 . S
H61 C37 0.930 . S
H62 C34 0.930 . S
H63 C43 0.930 . S
H64 C55 0.929 . S
H65 C58 0.930 . S
C66 C67 1.351 . S
C66 N69 1.368 . S
C66 H71 0.931 . S
C67 C66 1.351 . S
C67 N68 1.373 . S
C67 H95 0.930 . S
N68 C67 1.373 . S
N68 C70 1.340 . S
N69 C66 1.368 . S
N69 C70 1.321 . S
N69 Co72 2.135 . S
C70 N68 1.340 . S
C70 N69 1.321 . S
C70 H94 0.930 . S
H71 C66 0.931 . S
Co72 N69 2.135 . S
Co72 N75 2.121 . S
Co72 O80 2.055 . S
Co72 O83 2.039 . S
Co72 N86 2.140 . S
C73 O74 1.227 . S
C73 O83 1.265 . S
O74 C73 1.227 . S
N75 Co72 2.121 . S
N75 C77 1.375 . S
N75 C78 1.313 . S
C76 C77 1.338 . S
C76 N79 1.377 . S
C76 H96 0.930 . S
C77 N75 1.375 . S
C77 C76 1.338 . S
C77 H81 0.931 . S
C78 N75 1.313 . S
C78 N79 1.344 . S
C78 H82 0.930 . S
N79 C76 1.377 . S
N79 C78 1.344 . S
O80 Co72 2.055 . S
O80 C84 1.253 . S
H81 C77 0.931 . S
H82 C78 0.930 . S
O83 Co72 2.039 . S
O83 C73 1.265 . S
C84 O80 1.253 . S
C84 O85 1.227 . S
O85 C84 1.227 . S
N86 Co72 2.140 . S
N86 C89 1.346 . S
N86 C90 1.345 . S
C87 C88 1.387 . S
C87 C91 1.391 . S
C88 C87 1.387 . S
C88 C89 1.369 . S
C88 H97 0.929 . S
C89 N86 1.346 . S
C89 C88 1.369 . S
C89 H92 0.928 . S
C90 N86 1.345 . S
C90 C91 1.371 . S
C90 H93 0.931 . S
C91 C87 1.391 . S
C91 C90 1.371 . S
C91 H98 0.930 . S
H92 C89 0.928 . S
H93 C90 0.931 . S
H94 C70 0.930 . S
H95 C67 0.930 . S
H96 C76 0.930 . S
H97 C88 0.929 . S
H98 C91 0.930 . S
C99 C100 1.351 . S
C99 N102 1.368 1_655 S
C99 H104 0.931 . S
C100 C99 1.351 . S
C100 N101 1.373 . S
C100 H128 0.930 . S
N101 C100 1.373 . S
N101 C103 1.340 1_655 S
N102 C99 1.368 1_455 S
N102 C103 1.321 . S
N102 Co105 2.135 . S
C103 N101 1.340 1_455 S
C103 N102 1.321 . S
C103 H127 0.930 . S
H104 C99 0.931 . S
Co105 N102 2.135 . S
Co105 N108 2.121 . S
Co105 O113 2.055 . S
Co105 O116 2.039 . S
Co105 N119 2.140 1_455 S
C106 O107 1.227 . S
C106 O116 1.265 . S
O107 C106 1.227 . S
N108 Co105 2.121 . S
N108 C110 1.375 . S
N108 C111 1.313 . S
C109 C110 1.338 . S
C109 N112 1.377 . S
C109 H129 0.930 . S
C110 N108 1.375 . S
C110 C109 1.338 . S
C110 H114 0.931 . S
C111 N108 1.313 . S
C111 N112 1.344 . S
C111 H115 0.930 . S
N112 C109 1.377 . S
N112 C111 1.344 . S
O113 Co105 2.055 . S
O113 C117 1.253 . S
H114 C110 0.931 . S
H115 C111 0.930 . S
O116 Co105 2.039 . S
O116 C106 1.265 . S
C117 O113 1.253 . S
C117 O118 1.227 1_455 S
O118 C117 1.227 1_655 S
N119 Co105 2.140 1_655 S
N119 C122 1.346 . S
N119 C123 1.345 . S
C120 C121 1.387 . S
C120 C124 1.391 . S
C121 C120 1.387 . S
C121 C122 1.369 . S
C121 H130 0.929 . S
C122 N119 1.346 . S
C122 C121 1.369 . S
C122 H125 0.928 . S
C123 N119 1.345 . S
C123 C124 1.371 . S
C123 H126 0.931 . S
C124 C120 1.391 . S
C124 C123 1.371 . S
C124 H131 0.930 . S
H125 C122 0.928 . S
H126 C123 0.931 . S
H127 C103 0.930 . S
H128 C100 0.930 . S
H129 C109 0.930 . S
H130 C121 0.929 . S
H131 C124 0.930 . S
C132 C133 1.351 . S
C132 N135 1.368 1_565 S
C132 H137 0.931 . S
C133 C132 1.351 . S
C133 N134 1.373 . S
C133 H161 0.930 . S
N134 C133 1.373 . S
N134 C136 1.340 1_565 S
N135 C132 1.368 1_545 S
N135 C136 1.321 . S
N135 Co138 2.135 . S
C136 N134 1.340 1_545 S
C136 N135 1.321 . S
C136 H160 0.930 . S
H137 C132 0.931 . S
Co138 N135 2.135 . S
Co138 N141 2.121 . S
Co138 O146 2.055 . S
Co138 O149 2.039 . S
Co138 N152 2.140 1_545 S
C139 O140 1.227 . S
C139 O149 1.265 . S
O140 C139 1.227 . S
N141 Co138 2.121 . S
N141 C143 1.375 . S
N141 C144 1.313 . S
C142 C143 1.338 . S
C142 N145 1.377 . S
C142 H162 0.930 . S
C143 N141 1.375 . S
C143 C142 1.338 . S
C143 H147 0.931 . S
C144 N141 1.313 . S
C144 N145 1.344 . S
C144 H148 0.930 . S
N145 C142 1.377 . S
N145 C144 1.344 . S
O146 Co138 2.055 . S
O146 C150 1.253 . S
H147 C143 0.931 . S
H148 C144 0.930 . S
O149 Co138 2.039 . S
O149 C139 1.265 . S
C150 O146 1.253 . S
C150 O151 1.227 1_545 S
O151 C150 1.227 1_565 S
N152 Co138 2.140 1_565 S
N152 C155 1.346 . S
N152 C156 1.345 . S
C153 C154 1.387 . S
C153 C157 1.391 . S
C154 C153 1.387 . S
C154 C155 1.369 . S
C154 H163 0.929 . S
C155 N152 1.346 . S
C155 C154 1.369 . S
C155 H158 0.928 . S
C156 N152 1.345 . S
C156 C157 1.371 . S
C156 H159 0.931 . S
C157 C153 1.391 . S
C157 C156 1.371 . S
C157 H164 0.930 . S
H158 C155 0.928 . S
H159 C156 0.931 . S
H160 C136 0.930 . S
H161 C133 0.930 . S
H162 C142 0.930 . S
H163 C154 0.929 . S
H164 C157 0.930 . S
C165 C166 1.351 . S
C165 N168 1.368 . S
C165 H170 0.931 . S
C166 C165 1.351 . S
C166 N167 1.373 . S
C166 H194 0.930 . S
N167 C166 1.373 . S
N167 C169 1.340 . S
N168 C165 1.368 . S
N168 C169 1.321 . S
N168 Co171 2.135 . S
C169 N167 1.340 . S
C169 N168 1.321 . S
C169 H193 0.930 . S
H170 C165 0.931 . S
Co171 N168 2.135 . S
Co171 N174 2.121 . S
Co171 O179 2.055 . S
Co171 O182 2.039 . S
Co171 N185 2.140 . S
C172 O173 1.227 . S
C172 O182 1.265 . S
O173 C172 1.227 . S
N174 Co171 2.121 . S
N174 C176 1.375 . S
N174 C177 1.313 . S
C175 C176 1.338 . S
C175 N178 1.377 . S
C175 H195 0.930 . S
C176 N174 1.375 . S
C176 C175 1.338 . S
C176 H180 0.931 . S
C177 N174 1.313 . S
C177 N178 1.344 . S
C177 H181 0.930 . S
N178 C175 1.377 . S
N178 C177 1.344 . S
O179 Co171 2.055 . S
O179 C183 1.253 . S
H180 C176 0.931 . S
H181 C177 0.930 . S
O182 Co171 2.039 . S
O182 C172 1.265 . S
C183 O179 1.253 . S
C183 O184 1.227 . S
O184 C183 1.227 . S
N185 Co171 2.140 . S
N185 C188 1.346 . S
N185 C189 1.345 . S
C186 C187 1.387 . S
C186 C190 1.391 . S
C187 C186 1.387 . S
C187 C188 1.369 . S
C187 H196 0.929 . S
C188 N185 1.346 . S
C188 C187 1.369 . S
C188 H191 0.928 . S
C189 N185 1.345 . S
C189 C190 1.371 . S
C189 H192 0.931 . S
C190 C186 1.391 . S
C190 C189 1.371 . S
C190 H197 0.930 . S
H191 C188 0.928 . S
H192 C189 0.931 . S
H193 C169 0.930 . S
H194 C166 0.930 . S
H195 C175 0.930 . S
H196 C187 0.929 . S
H197 C190 0.930 . S
C198 C199 1.351 . S
C198 N201 1.368 1_565 S
C198 H203 0.931 . S
C199 C198 1.351 . S
C199 N200 1.373 . S
C199 H227 0.930 . S
N200 C199 1.373 . S
N200 C202 1.340 1_565 S
N201 C198 1.368 1_545 S
N201 C202 1.321 . S
N201 Co204 2.135 . S
C202 N200 1.340 1_545 S
C202 N201 1.321 . S
C202 H226 0.930 . S
H203 C198 0.931 . S
Co204 N201 2.135 . S
Co204 N207 2.121 . S
Co204 O212 2.055 . S
Co204 O215 2.039 . S
Co204 N218 2.140 1_545 S
C205 O206 1.227 . S
C205 O215 1.265 . S
O206 C205 1.227 . S
N207 Co204 2.121 . S
N207 C209 1.375 . S
N207 C210 1.313 . S
C208 C209 1.338 . S
C208 N211 1.377 . S
C208 H228 0.930 . S
C209 N207 1.375 . S
C209 C208 1.338 . S
C209 H213 0.931 . S
C210 N207 1.313 . S
C210 N211 1.344 . S
C210 H214 0.930 . S
N211 C208 1.377 . S
N211 C210 1.344 . S
O212 Co204 2.055 . S
O212 C216 1.253 . S
H213 C209 0.931 . S
H214 C210 0.930 . S
O215 Co204 2.039 . S
O215 C205 1.265 . S
C216 O212 1.253 . S
C216 O217 1.227 1_545 S
O217 C216 1.227 1_565 S
N218 Co204 2.140 1_565 S
N218 C221 1.346 . S
N218 C222 1.345 . S
C219 C220 1.387 . S
C219 C223 1.391 . S
C220 C219 1.387 . S
C220 C221 1.369 . S
C220 H229 0.929 . S
C221 N218 1.346 . S
C221 C220 1.369 . S
C221 H224 0.928 . S
C222 N218 1.345 . S
C222 C223 1.371 . S
C222 H225 0.931 . S
C223 C219 1.391 . S
C223 C222 1.371 . S
C223 H230 0.930 . S
H224 C221 0.928 . S
H225 C222 0.931 . S
H226 C202 0.930 . S
H227 C199 0.930 . S
H228 C208 0.930 . S
H229 C220 0.929 . S
H230 C223 0.930 . S
C231 C232 1.351 . S
C231 N234 1.368 . S
C231 H236 0.931 . S
C232 C231 1.351 . S
C232 N233 1.373 . S
C232 H260 0.930 . S
N233 C232 1.373 . S
N233 C235 1.340 . S
N234 C231 1.368 . S
N234 C235 1.321 . S
N234 Co237 2.135 . S
C235 N233 1.340 . S
C235 N234 1.321 . S
C235 H259 0.930 . S
H236 C231 0.931 . S
Co237 N234 2.135 . S
Co237 N240 2.121 . S
Co237 O245 2.055 . S
Co237 O248 2.039 . S
Co237 N251 2.140 . S
C238 O239 1.227 . S
C238 O248 1.265 . S
O239 C238 1.227 . S
N240 Co237 2.121 . S
N240 C242 1.375 . S
N240 C243 1.313 . S
C241 C242 1.339 . S
C241 N244 1.379 . S
C241 H261 0.927 1_556 S
C242 N240 1.375 . S
C242 C241 1.339 . S
C242 H246 0.931 . S
C243 N240 1.313 . S
C243 N244 1.344 . S
C243 H247 0.930 . S
N244 C241 1.379 . S
N244 C243 1.344 . S
O245 Co237 2.055 . S
O245 C249 1.253 . S
H246 C242 0.931 . S
H247 C243 0.930 . S
O248 Co237 2.039 . S
O248 C238 1.265 . S
C249 O245 1.253 . S
C249 O250 1.227 . S
O250 C249 1.227 . S
N251 Co237 2.140 . S
N251 C254 1.346 . S
N251 C255 1.345 . S
C252 C253 1.387 . S
C252 C256 1.391 . S
C253 C252 1.387 . S
C253 C254 1.369 . S
C253 H262 0.929 . S
C254 N251 1.346 . S
C254 C253 1.369 . S
C254 H257 0.928 . S
C255 N251 1.345 . S
C255 C256 1.371 . S
C255 H258 0.931 . S
C256 C252 1.391 . S
C256 C255 1.371 . S
C256 H263 0.930 . S
H257 C254 0.928 . S
H258 C255 0.931 . S
H259 C235 0.930 . S
H260 C232 0.930 . S
H261 C241 0.927 1_554 S
H262 C253 0.929 . S
H263 C256 0.930 . S
C264 C265 1.351 . S
C264 N267 1.368 1_455 S
C264 H269 0.931 . S
C265 C264 1.351 . S
C265 N266 1.373 . S
C265 H293 0.930 . S
N266 C265 1.373 . S
N266 C268 1.340 1_455 S
N267 C264 1.368 1_655 S
N267 C268 1.321 . S
N267 Co270 2.135 . S
C268 N266 1.340 1_655 S
C268 N267 1.321 . S
C268 H292 0.930 . S
H269 C264 0.931 . S
Co270 N267 2.135 . S
Co270 N273 2.121 . S
Co270 O278 2.055 . S
Co270 O281 2.039 . S
Co270 N284 2.140 1_655 S
C271 O272 1.227 . S
C271 O281 1.265 . S
O272 C271 1.227 . S
N273 Co270 2.121 . S
N273 C275 1.375 . S
N273 C276 1.313 . S
C274 C275 1.338 . S
C274 N277 1.377 . S
C274 H294 0.930 . S
C275 N273 1.375 . S
C275 C274 1.338 . S
C275 H279 0.931 . S
C276 N273 1.313 . S
C276 N277 1.344 . S
C276 H280 0.930 . S
N277 C274 1.377 . S
N277 C276 1.344 . S
O278 Co270 2.055 . S
O278 C282 1.253 . S
H279 C275 0.931 . S
H280 C276 0.930 . S
O281 Co270 2.039 . S
O281 C271 1.265 . S
C282 O278 1.253 . S
C282 O283 1.227 1_655 S
O283 C282 1.227 1_455 S
N284 Co270 2.140 1_455 S
N284 C287 1.346 . S
N284 C288 1.345 . S
C285 C286 1.387 . S
C285 C289 1.391 . S
C286 C285 1.387 . S
C286 C287 1.369 . S
C286 H295 0.929 . S
C287 N284 1.346 . S
C287 C286 1.369 . S
C287 H290 0.928 . S
C288 N284 1.345 . S
C288 C289 1.371 . S
C288 H291 0.931 . S
C289 C285 1.391 . S
C289 C288 1.371 . S
C289 H296 0.930 . S
H290 C287 0.928 . S
H291 C288 0.931 . S
H292 C268 0.930 . S
H293 C265 0.930 . S
H294 C274 0.930 . S
H295 C286 0.929 . S
H296 C289 0.930 . S
C297 C298 1.351 . S
C297 N300 1.368 1_545 S
C297 H302 0.931 . S
C298 C297 1.351 . S
C298 N299 1.373 . S
C298 H326 0.930 . S
N299 C298 1.373 . S
N299 C301 1.340 1_545 S
N300 C297 1.368 1_565 S
N300 C301 1.321 . S
N300 Co303 2.135 . S
C301 N299 1.340 1_565 S
C301 N300 1.321 . S
C301 H325 0.930 . S
H302 C297 0.931 . S
Co303 N300 2.135 . S
Co303 N306 2.121 . S
Co303 O311 2.055 . S
Co303 O314 2.039 . S
Co303 N317 2.140 1_565 S
C304 O305 1.227 . S
C304 O314 1.265 . S
O305 C304 1.227 . S
N306 Co303 2.121 . S
N306 C308 1.375 . S
N306 C309 1.313 . S
C307 C308 1.338 . S
C307 N310 1.377 . S
C307 H327 0.930 . S
C308 N306 1.375 . S
C308 C307 1.338 . S
C308 H312 0.931 . S
C309 N306 1.313 . S
C309 N310 1.344 . S
C309 H313 0.930 . S
N310 C307 1.377 . S
N310 C309 1.344 . S
O311 Co303 2.055 . S
O311 C315 1.253 . S
H312 C308 0.931 . S
H313 C309 0.930 . S
O314 Co303 2.039 . S
O314 C304 1.265 . S
C315 O311 1.253 . S
C315 O316 1.227 1_565 S
O316 C315 1.227 1_545 S
N317 Co303 2.140 1_545 S
N317 C320 1.346 . S
N317 C321 1.345 . S
C318 C319 1.387 . S
C318 C322 1.391 . S
C319 C318 1.387 . S
C319 C320 1.369 . S
C319 H328 0.929 . S
C320 N317 1.346 . S
C320 C319 1.369 . S
C320 H323 0.928 . S
C321 N317 1.345 . S
C321 C322 1.371 . S
C321 H324 0.931 . S
C322 C318 1.391 . S
C322 C321 1.371 . S
C322 H329 0.930 . S
H323 C320 0.928 . S
H324 C321 0.931 . S
H325 C301 0.930 . S
H326 C298 0.930 . S
H327 C307 0.930 . S
H328 C319 0.929 . S
H329 C322 0.930 . S
C330 C331 1.351 . S
C330 N333 1.368 . S
C330 H335 0.931 . S
C331 C330 1.351 . S
C331 N332 1.373 . S
C331 H359 0.930 . S
N332 C331 1.373 . S
N332 C334 1.340 . S
N333 C330 1.368 . S
N333 C334 1.321 . S
N333 Co336 2.135 . S
C334 N332 1.340 . S
C334 N333 1.321 . S
C334 H358 0.930 . S
H335 C330 0.931 . S
Co336 N333 2.135 . S
Co336 N339 2.121 . S
Co336 O344 2.055 . S
Co336 O347 2.039 . S
Co336 N350 2.140 . S
C337 O338 1.227 . S
C337 O347 1.265 . S
O338 C337 1.227 . S
N339 Co336 2.121 . S
N339 C341 1.375 . S
N339 C342 1.313 . S
C340 C341 1.338 . S
C340 N343 1.377 . S
C340 H360 0.930 . S
C341 N339 1.375 . S
C341 C340 1.338 . S
C341 H345 0.931 . S
C342 N339 1.313 . S
C342 N343 1.344 . S
C342 H346 0.930 . S
N343 C340 1.377 . S
N343 C342 1.344 . S
O344 Co336 2.055 . S
O344 C348 1.253 . S
H345 C341 0.931 . S
H346 C342 0.930 . S
O347 Co336 2.039 . S
O347 C337 1.265 . S
C348 O344 1.253 . S
C348 O349 1.227 . S
O349 C348 1.227 . S
N350 Co336 2.140 . S
N350 C353 1.346 . S
N350 C354 1.345 . S
C351 C352 1.387 . S
C351 C355 1.391 . S
C352 C351 1.387 . S
C352 C353 1.369 . S
C352 H361 0.929 . S
C353 N350 1.346 . S
C353 C352 1.369 . S
C353 H356 0.928 . S
C354 N350 1.345 . S
C354 C355 1.371 . S
C354 H357 0.931 . S
C355 C351 1.391 . S
C355 C354 1.371 . S
C355 H362 0.930 . S
H356 C353 0.928 . S
H357 C354 0.931 . S
H358 C334 0.930 . S
H359 C331 0.930 . S
H360 C340 0.930 . S
H361 C352 0.929 . S
H362 C355 0.930 . S
C363 C364 1.351 . S
C363 N366 1.368 1_655 S
C363 H368 0.931 . S
C364 C363 1.351 . S
C364 N365 1.373 . S
C364 H392 0.930 . S
N365 C364 1.373 . S
N365 C367 1.340 1_655 S
N366 C363 1.368 1_455 S
N366 C367 1.321 . S
N366 Co369 2.135 . S
C367 N365 1.340 1_455 S
C367 N366 1.321 . S
C367 H391 0.930 . S
H368 C363 0.931 . S
Co369 N366 2.135 . S
Co369 N372 2.121 . S
Co369 O377 2.055 . S
Co369 O380 2.039 . S
Co369 N383 2.140 1_455 S
C370 O371 1.227 . S
C370 O380 1.265 . S
O371 C370 1.227 . S
N372 Co369 2.121 . S
N372 C374 1.375 . S
N372 C375 1.313 . S
C373 C374 1.338 . S
C373 N376 1.377 . S
C373 H393 0.930 . S
C374 N372 1.375 . S
C374 C373 1.338 . S
C374 H378 0.931 . S
C375 N372 1.313 . S
C375 N376 1.344 . S
C375 H379 0.930 . S
N376 C373 1.377 . S
N376 C375 1.344 . S
O377 Co369 2.055 . S
O377 C381 1.253 . S
H378 C374 0.931 . S
H379 C375 0.930 . S
O380 Co369 2.039 . S
O380 C370 1.265 . S
C381 O377 1.253 . S
C381 O382 1.227 1_455 S
O382 C381 1.227 1_655 S
N383 Co369 2.140 1_655 S
N383 C386 1.346 . S
N383 C387 1.345 . S
C384 C385 1.387 . S
C384 C388 1.391 . S
C385 C384 1.387 . S
C385 C386 1.369 . S
C385 H394 0.929 . S
C386 N383 1.346 . S
C386 C385 1.369 . S
C386 H389 0.928 . S
C387 N383 1.345 . S
C387 C388 1.371 . S
C387 H390 0.931 . S
C388 C384 1.391 . S
C388 C387 1.371 . S
C388 H395 0.930 . S
H389 C386 0.928 . S
H390 C387 0.931 . S
H391 C367 0.930 . S
H392 C364 0.930 . S
H393 C373 0.930 . S
H394 C385 0.929 . S
H395 C388 0.930 . S
C396 C397 1.170 . S
C396 C398 1.380 1_566 S
C397 C396 1.170 . S
C398 C396 1.380 1_544 S
C398 C399 1.170 . S
C399 C398 1.170 . S
C400 C401 1.170 . S
C400 C402 1.380 . S
C401 C400 1.170 . S
C402 C400 1.380 . S
C402 C403 1.170 . S
C403 C402 1.170 . S
C404 C405 1.170 . S
C404 C406 1.380 1_655 S
C405 C404 1.170 . S
C406 C404 1.380 1_455 S
C406 C407 1.170 . S
C407 C406 1.170 . S
C408 C409 1.170 . S
C408 C410 1.380 1_545 S
C409 C408 1.170 . S
C410 C408 1.380 1_565 S
C410 C411 1.170 . S
C411 C410 1.170 . S
C412 C413 1.170 . S
C412 C414 1.380 . S
C413 C412 1.170 . S
C414 C412 1.380 . S
C414 C415 1.170 . S
C415 C414 1.170 . S
C416 C417 1.170 . S
C416 C418 1.380 1_655 S
C417 C416 1.170 . S
C418 C416 1.380 1_455 S
C418 C419 1.170 . S
C419 C418 1.170 . S
C420 C421 1.170 . S
C420 C422 1.380 1_545 S
C421 C420 1.170 . S
C422 C420 1.380 1_565 S
C422 C423 1.170 . S
C423 C422 1.170 . S
C424 C425 1.181 . S
C424 C426 1.370 1_655 S
C425 C424 1.181 . S
C426 C424 1.370 1_455 S
C426 C427 1.170 . S
C427 C426 1.170 . S
C428 C429 1.170 . S
C428 C430 1.380 1_445 S
C429 C428 1.170 . S
C430 C428 1.380 1_665 S
C430 C431 1.170 . S
C431 C430 1.170 . S
C432 C433 1.170 . S
C432 C434 1.380 1_545 S
C433 C432 1.170 . S
C434 C432 1.380 1_565 S
C434 C435 1.170 . S
C435 C434 1.170 . S
C436 C437 1.170 . S
C436 C438 1.380 1_455 S
C437 C436 1.170 . S
C438 C436 1.380 1_655 S
C438 C439 1.170 . S
C439 C438 1.170 . S
C440 C441 1.170 . S
C440 C442 1.380 1_665 S
C441 C440 1.170 . S
C442 C440 1.380 1_445 S
C442 C443 1.170 . S
C443 C442 1.170 . S
C444 C445 1.190 . S
C444 C446 1.362 1_556 S
C445 C444 1.190 . S
C446 C444 1.362 1_554 S
C446 C447 1.170 . S
C447 C446 1.170 . S
C448 C449 1.170 . S
C448 C450 1.380 . S
C449 C448 1.170 . S
C450 C448 1.380 . S
C450 C451 1.170 . S
C451 C450 1.170 . S
C452 C453 1.170 . S
C452 C454 1.380 . S
C453 C452 1.170 . S
C454 C452 1.380 . S
C454 C455 1.170 . S
C455 C454 1.170 . S
C456 C457 1.170 . S
C456 C458 1.380 . S
C457 C456 1.170 . S
C458 C456 1.380 . S
C458 C459 1.170 . S
C459 C458 1.170 . S
C460 C461 1.170 . S
C460 C462 1.380 . S
C461 C460 1.170 . S
C462 C460 1.380 . S
C462 C463 1.170 . S
C463 C462 1.170 . S
C464 C465 1.170 . S
C464 C466 1.380 . S
C465 C464 1.170 . S
C466 C464 1.380 . S
C466 C467 1.170 . S
C467 C466 1.170 . S
C468 C469 1.170 . S
C468 C470 1.380 . S
C469 C468 1.170 . S
C470 C468 1.380 . S
C470 C471 1.170 . S
C471 C470 1.170 . S
C472 C473 1.195 . S
C472 C474 1.359 1_554 S
C473 C472 1.195 . S
C474 C472 1.359 1_556 S
C474 C475 1.170 . S
C475 C474 1.170 . S
C476 C477 1.170 . S
C476 C478 1.380 . S
C477 C476 1.170 . S
C478 C476 1.380 . S
C478 C479 1.170 . S
C479 C478 1.170 . S
C480 C481 1.170 . S
C480 C482 1.380 . S
C481 C480 1.170 . S
C482 C480 1.380 . S
C482 C483 1.170 . S
C483 C482 1.170 . S
C484 C485 1.170 . S
C484 C486 1.380 . S
C485 C484 1.170 . S
C486 C484 1.380 . S
C486 C487 1.170 . S
C487 C486 1.170 . S
C488 C489 1.170 . S
C488 C490 1.380 . S
C489 C488 1.170 . S
C490 C488 1.380 . S
C490 C491 1.170 . S
C491 C490 1.170 . S
C492 C493 1.170 . S
C492 C494 1.380 . S
C493 C492 1.170 . S
C494 C492 1.380 . S
C494 C495 1.170 . S
C495 C494 1.170 . S
C496 C497 1.170 . S
C496 C498 1.380 . S
C497 C496 1.170 . S
C498 C496 1.380 . S
C498 C499 1.170 . S
C499 C498 1.170 . S
C500 C501 1.170 . S
C500 C502 1.380 . S
C501 C500 1.170 . S
C502 C500 1.380 . S
C502 C503 1.170 . S
C503 C502 1.170 . S
C504 C505 1.170 . S
C504 C506 1.380 . S
C505 C504 1.170 . S
C506 C504 1.380 . S
C506 C507 1.170 . S
C507 C506 1.170 . S
C508 C509 1.170 . S
C508 C510 1.380 . S
C509 C508 1.170 . S
C510 C508 1.380 . S
C510 C511 1.170 . S
C511 C510 1.170 . S
C512 C513 1.170 . S
C512 C514 1.380 . S
C513 C512 1.170 . S
C514 C512 1.380 . S
C514 C515 1.170 . S
C515 C514 1.170 . S
C397 C238 1.559 . S
C399 C7 1.558 . S
C401 C271 1.567 . S
C403 C40 1.564 . S
C405 C73 1.583 . S
C407 C304 1.577 . S
C409 C337 1.567 . S
C411 C106 1.558 . S
C413 C139 1.560 . S
C415 C370 1.546 . S
C417 C205 1.563 . S
C419 C172 1.576 . S
C421 N2 1.692 . S
C423 N266 1.662 . S
C425 N35 1.685 . S
C427 N299 1.670 . S
C429 N332 1.667 . S
C431 N68 1.658 . S
C433 N365 1.690 . S
C435 N101 1.662 . S
C437 N134 1.678 . S
C439 N200 1.677 . S
C441 N233 1.652 . S
C443 N167 1.672 . S
C445 N244 1.163 . S
C447 C21 1.190 . S
C449 N277 1.191 . S
C451 C54 1.199 . S
C453 N310 1.214 . S
C455 C87 1.211 . S
C457 C120 1.188 . S
C459 N343 1.180 . S
C461 N376 1.209 . S
C463 C153 1.198 . S
C465 C186 1.222 . S
C467 N211 1.193 . S
C469 C219 1.183 . S
C471 N178 1.187 . S
C473 N13 1.196 . S
C475 C252 1.228 . S
C477 N46 1.183 . S
C479 C285 1.210 . S
C481 N79 1.177 . S
C483 C318 1.189 . S
C485 N112 1.192 . S
C487 C351 1.222 . S
C489 N145 1.183 . S
C491 C384 1.207 . S
C493 C282 1.539 . S
C495 C18 1.529 . S
C497 C51 1.521 . S
C499 C315 1.518 . S
C501 C348 1.571 . S
C503 C84 1.567 . S
C505 C117 1.542 . S
C507 C381 1.538 . S
C509 C150 1.519 . S
C511 C216 1.519 . S
C513 C249 1.549 . S
C515 C183 1.547 . S
