# Generated by pormake.
# Topology bsn, (6)-cn, num edge types: 1
# Building blocks:
#     Node 0, Type 0, BuildingBlock: UKALOJ_clean_sbu_0, # of connection points: 6
#     Node 1, Type 0, BuildingBlock: UKALOJ_clean_sbu_0, # of connection points: 6
#     Node 2, Type 0, BuildingBlock: UKALOJ_clean_sbu_0, # of connection points: 6
#     Node 3, Type 0, BuildingBlock: UKALOJ_clean_sbu_0, # of connection points: 6
#     Edge 4, Type (0, 0), BuildingBlock: TEMPAE_clean_linker_10, # of connection points: 2
#     Edge 5, Type (0, 0), BuildingBlock: TEMPAE_clean_linker_10, # of connection points: 2
#     Edge 6, Type (0, 0), BuildingBlock: TEMPAE_clean_linker_10, # of connection points: 2
#     Edge 7, Type (0, 0), BuildingBlock: TEMPAE_clean_linker_10, # of connection points: 2
#     Edge 8, Type (0, 0), BuildingBlock: TEMPAE_clean_linker_10, # of connection points: 2
#     Edge 9, Type (0, 0), BuildingBlock: TEMPAE_clean_linker_10, # of connection points: 2
#     Edge 10, Type (0, 0), BuildingBlock: TEMPAE_clean_linker_10, # of connection points: 2
#     Edge 11, Type (0, 0), BuildingBlock: TEMPAE_clean_linker_10, # of connection points: 2
#     Edge 12, Type (0, 0), BuildingBlock: TEMPAE_clean_linker_10, # of connection points: 2
#     Edge 13, Type (0, 0), BuildingBlock: TEMPAE_clean_linker_10, # of connection points: 2
#     Edge 14, Type (0, 0), BuildingBlock: TEMPAE_clean_linker_10, # of connection points: 2
#     Edge 15, Type (0, 0), BuildingBlock: TEMPAE_clean_linker_10, # of connection points: 2
# Relax obj value: 0.177
# Max RMSD: 0.166
# Mean RMSD: 0.152
data_MOF--net-bsn--node1-UKALOJ_clean_sbu_0--edge1-TEMPAE_clean_linker_10
_symmetry_space_group_name_H-M    P1
_symmetry_Int_Tables_number       1
_symmetry_cell_setting            triclinic
loop_
_symmetry_equiv_pos_as_xyz
'x, y, z'
_cell_length_a     31.435336
_cell_length_b     36.577931
_cell_length_c     15.265139
_cell_angle_alpha  89.957449
_cell_angle_beta   97.250069
_cell_angle_gamma 90.46014
loop_
_atom_site_label
_atom_site_type_symbol
_atom_site_fract_x
_atom_site_fract_y
_atom_site_fract_z
_atom_type_partial_charge
Zn0 Zn 0.03741 0.31462 0.32575 0.0
O1 O 0.96889 0.31827 0.31442 0.0
C2 C 0.0441 0.29146 0.50642 0.0
Zn3 Zn 0.03491 0.25276 0.33226 0.0
C4 C 0.94724 0.28898 0.32046 0.0
O5 O 0.96664 0.25848 0.32938 0.0
C6 C 0.125 0.27865 0.33609 0.0
O7 O 0.02778 0.24632 0.19481 0.0
O8 O 0.03397 0.30648 0.19162 0.0
N9 N 0.02806 0.19695 0.35465 0.0
C10 C 0.04167 0.1654 0.32135 0.0
C11 C 1.00555 0.15096 0.42536 0.0
N12 N 1.00555 0.18762 0.41895 0.0
N13 N 0.02793 0.13599 0.36495 0.0
C14 C 0.03062 0.4014 0.34171 0.0
C15 C 0.06652 0.41775 0.23882 0.0
N16 N 0.04421 0.37052 0.30534 0.0
N17 N 0.06657 0.38099 0.2417 0.0
N18 N 0.04428 0.43156 0.30094 0.0
H19 H 0.98403 0.37568 0.41436 0.0
H20 H 0.98011 0.42503 0.40581 0.0
H21 H 1.02285 0.40431 0.47839 0.0
C22 C 1.00247 0.40161 0.41383 0.0
C23 C 0.06982 0.16384 0.24939 0.0
H24 H 0.08726 0.19006 0.24447 0.0
H25 H 0.04956 0.15896 0.18548 0.0
H26 H 0.093 0.14111 0.26124 0.0
O27 O 0.10334 0.24904 0.33677 0.0
O28 O 0.1057 0.30921 0.33407 0.0
C29 C 0.03037 0.27593 0.15205 0.0
O30 O 0.04148 0.32103 0.46243 0.0
O31 O 0.0427 0.2608 0.46741 0.0
Zn32 Zn 0.99831 0.78339 0.34075 0.0
O33 O 0.99879 0.7245 0.34697 0.0
C34 C 0.0353 0.78511 0.52605 0.0
Zn35 Zn 0.06962 0.78335 0.35907 0.0
C36 C 0.03378 0.70684 0.35331 0.0
O37 O 0.06889 0.72472 0.35824 0.0
C38 C 0.03498 0.85986 0.34383 0.0
O39 O 0.06751 0.78404 0.22334 0.0
O40 O 0.99665 0.78009 0.20586 0.0
N41 N 0.13508 0.78264 0.37686 0.0
C42 C 0.1628 0.79649 0.44346 0.0
C43 C 0.19871 0.7632 0.36545 0.0
N44 N 0.15748 0.76213 0.32814 0.0
N45 N 0.2028 0.78428 0.43847 0.0
C46 C 0.9088 0.76699 0.38786 0.0
C47 C 0.87356 0.81356 0.33792 0.0
N48 N 0.93297 0.7848 0.33438 0.0
N49 N 0.91077 0.81353 0.30244 0.0
N50 N 0.87179 0.78478 0.3925 0.0
H51 H 0.92502 0.71062 0.38352 0.0
H52 H 0.89519 0.72136 0.47183 0.0
H53 H 0.95106 0.73431 0.47879 0.0
C54 C 0.9207 0.73153 0.43391 0.0
C55 C 0.15114 0.82298 0.51162 0.0
H56 H 0.12342 0.83984 0.48562 0.0
H57 H 0.17866 0.84132 0.53398 0.0
H58 H 0.1425 0.80773 0.56974 0.0
O59 O 0.06974 0.84201 0.35753 0.0
O60 O 0.99961 0.84223 0.33336 0.0
C61 C 0.03196 0.78179 0.17377 0.0
O62 O 1.00043 0.78731 0.47554 0.0
O63 O 0.07027 0.78211 0.49421 0.0
Zn64 Zn 0.57473 0.81542 0.82018 0.0
O65 O 0.50736 0.81981 0.80993 0.0
C66 C 0.57986 0.78494 -0.00271 0.0
Zn67 Zn 0.57098 0.75454 0.81941 0.0
C68 C 0.48529 0.79051 0.80893 0.0
O69 O 0.50439 0.76001 0.81712 0.0
C70 C 0.65961 0.77842 0.81716 0.0
O71 O 0.56296 0.75584 0.68246 0.0
O72 O 0.57137 0.8159 0.68491 0.0
N73 N 0.56286 0.699 0.81997 0.0
C74 C 0.578 0.67429 0.88142 0.0
C75 C 0.52986 0.64749 0.79301 0.0
N76 N 0.53322 0.68219 0.76451 0.0
N77 N 0.55744 0.64196 0.86671 0.0
C78 C 0.55889 0.9 0.83143 0.0
C79 C 0.62244 0.91772 0.87737 0.0
N80 N 0.58474 0.87082 0.8291 0.0
N81 N 0.62422 0.88217 0.85659 0.0
N82 N 0.58174 0.92976 0.86338 0.0
H83 H 0.50666 0.88185 0.73688 0.0
H84 H 0.50117 0.92772 0.77681 0.0
H85 H 0.49339 0.88903 0.84706 0.0
C86 C 0.51227 0.89977 0.79588 0.0
C87 C 0.6136 0.68135 0.95477 0.0
H88 H 0.63576 0.70283 0.9362 0.0
H89 H 0.63181 0.65589 -0.02832 0.0
H90 H 0.59997 0.69048 0.01449 0.0
O91 O 0.63716 0.74939 0.81611 0.0
O92 O 0.64183 0.80903 0.82587 0.0
C93 C 0.5659 0.78605 0.64244 0.0
O94 O 0.57801 0.81482 0.95548 0.0
O95 O 0.57883 0.75486 0.9563 0.0
Zn96 Zn 0.53504 0.25479 0.30521 0.0
O97 O 0.541 0.25446 0.44206 0.0
C98 C 0.44595 0.28203 0.30854 0.0
Zn99 Zn 0.53408 0.31565 0.30893 0.0
C100 C 0.54409 0.28431 0.48489 0.0
O101 O 0.5433 0.31486 0.44538 0.0
C102 C 0.5244 0.28551 0.12869 0.0
O103 O 0.60237 0.31793 0.30963 0.0
O104 O 0.60361 0.25805 0.30734 0.0
N105 N 0.53093 0.37139 0.30741 0.0
C106 C 0.54902 0.39624 0.25786 0.0
C107 C 0.50432 0.42454 0.32659 0.0
N108 N 0.50342 0.38909 0.35057 0.0
N109 N 0.53293 0.42974 0.26899 0.0
C110 C 0.52103 0.17517 0.23941 0.0
C111 C 0.57415 0.14841 0.31207 0.0
N112 N 0.53959 0.19914 0.30003 0.0
N113 N 0.57231 0.18231 0.34565 0.0
N114 N 0.54273 0.14329 0.24434 0.0
H115 H 0.45825 0.19909 0.21205 0.0
H116 H 0.46382 0.15644 0.1577 0.0
H117 H 0.48799 0.19738 0.11941 0.0
C118 C 0.4805 0.1824 0.1788 0.0
C119 C 0.57982 0.38764 0.19319 0.0
H120 H 0.58278 0.35809 0.18179 0.0
H121 H 0.61203 0.39842 0.21909 0.0
H122 H 0.56963 0.40134 0.12915 0.0
O123 O 0.52389 0.31538 0.17045 0.0
O124 O 0.52902 0.25576 0.17062 0.0
C125 C 0.62353 0.2885 0.30868 0.0
O126 O 0.46685 0.25267 0.30288 0.0
O127 O 0.46592 0.31252 0.31243 0.0
C128 C 0.03251 0.49374 0.24083 0.0
C129 C 0.0376 0.47024 0.31413 0.0
C130 C 0.03039 0.53186 0.25074 0.0
C131 C 0.03346 0.54731 0.33639 0.0
C132 C 0.03773 0.52375 0.41088 0.0
C133 C 0.04003 0.48555 0.39894 0.0
C134 C 0.02591 0.55569 0.1693 0.0
C135 C 0.04106 0.53897 0.50334 0.0
C136 C 0.07235 0.6466 0.35647 0.0
C137 C 0.03374 0.66593 0.35334 0.0
C138 C 0.07278 0.6081 0.35323 0.0
C139 C 0.03367 0.58812 0.34722 0.0
C140 C 0.99468 0.6074 0.34604 0.0
C141 C 0.99517 0.64592 0.34866 0.0
C142 C 0.11511 0.58883 0.35404 0.0
C143 C 0.95227 0.58733 0.34015 0.0
H144 H 0.03078 0.48214 0.17516 0.0
H145 H 0.04532 0.46788 0.45607 0.0
H146 H 0.99742 0.57345 0.16832 0.0
H147 H 0.05439 0.57389 0.17047 0.0
H148 H 1.0227 0.53942 0.10736 0.0
H149 H 0.04124 0.5171 0.55392 0.0
H150 H 0.07097 0.55537 0.5175 0.0
H151 H 1.01385 0.55753 0.50955 0.0
H152 H 0.10241 0.66159 0.36013 0.0
H153 H 0.96511 0.66032 0.34598 0.0
H154 H 0.11567 0.57391 0.29093 0.0
H155 H 0.11911 0.56829 0.4079 0.0
H156 H 0.14283 0.60809 0.36301 0.0
H157 H 0.9461 0.57276 0.27604 0.0
H158 H 0.9251 0.60605 0.34596 0.0
H159 H 0.95321 0.56642 0.39303 0.0
C160 C 0.71771 0.74467 0.75525 0.0
C161 C 0.70204 0.77763 0.78499 0.0
C162 C 0.7498 0.74467 0.69919 0.0
C163 C 0.76645 0.77838 0.67258 0.0
C164 C 0.75386 0.81144 0.70941 0.0
C165 C 0.72198 0.81065 0.76578 0.0
C166 C 0.76344 0.7088 0.66312 0.0
C167 C 0.77125 0.84792 0.68333 0.0
C168 C 0.86405 0.78058 0.55029 0.0
C169 C 0.84515 0.78242 0.46208 0.0
C170 C 0.83893 0.77844 0.61956 0.0
C171 C 0.79379 0.77936 0.60016 0.0
C172 C 0.77451 0.78205 0.51117 0.0
C173 C 0.80057 0.78361 0.44301 0.0
C174 C 0.86082 0.77575 0.71325 0.0
C175 C 0.7264 0.78341 0.48803 0.0
H176 H 0.70279 0.719 0.77037 0.0
H177 H 0.71038 0.83626 0.78904 0.0
H178 H 0.75064 0.7066 0.59214 0.0
H179 H 0.79891 0.70746 0.66804 0.0
H180 H 0.75158 0.68497 0.69845 0.0
H181 H 0.76193 0.87058 0.72523 0.0
H182 H 0.80673 0.84729 0.68798 0.0
H183 H 0.75872 0.85389 0.61357 0.0
H184 H 0.8987 0.78106 0.56498 0.0
H185 H 0.78628 0.78563 0.37477 0.0
H186 H 0.84532 0.75445 0.75049 0.0
H187 H 0.85799 0.80218 0.74754 0.0
H188 H 0.8954 0.76925 0.71563 0.0
H189 H 0.7115 0.75829 0.51179 0.0
H190 H 0.71668 0.7859 0.41578 0.0
H191 H 0.71335 0.80699 0.52145 0.0
C192 C 0.57829 0.47562 0.20668 0.0
C193 C 0.53754 0.4619 0.21701 0.0
C194 C 0.58316 0.50505 0.1497 0.0
C195 C 0.54631 0.52104 0.10241 0.0
C196 C 0.505 0.50772 0.11426 0.0
C197 C 0.50114 0.47835 0.17186 0.0
C198 C 0.62767 0.51885 0.13962 0.0
C199 C 0.46494 0.52408 0.06507 0.0
C200 C 0.55267 0.6176 0.01523 0.0
C201 C 0.55656 0.61152 0.92597 0.0
C202 C 0.55028 0.5884 0.07375 0.0
C203 C 0.5508 0.55217 0.04167 0.0
C204 C 0.55422 0.5458 0.95124 0.0
C205 C 0.55691 0.57568 0.89425 0.0
C206 C 0.54639 0.59637 0.1695 0.0
C207 C 0.55452 0.50748 0.91466 0.0
H208 H 0.60627 0.46316 0.24305 0.0
H209 H 0.46971 0.46742 0.1798 0.0
H210 H 0.63345 0.51663 0.06962 0.0
H211 H 0.63066 0.5482 0.15794 0.0
H212 H 0.65297 0.50342 0.18125 0.0
H213 H 0.43526 0.5106 0.08206 0.0
H214 H 0.46347 0.55366 0.08034 0.0
H215 H 0.46569 0.52158 -0.00715 0.0
H216 H 0.55028 0.64529 0.03886 0.0
H217 H 0.55927 0.57118 0.82488 0.0
H218 H 0.57197 0.58207 0.21291 0.0
H219 H 0.51519 0.58591 0.18619 0.0
H220 H 0.54867 0.62608 0.18461 0.0
H221 H 0.58107 0.4917 0.9512 0.0
H222 H 0.55829 0.50721 0.84327 0.0
H223 H 0.52415 0.49317 0.9239 0.0
C224 C 0.8794 0.26709 0.37408 0.0
C225 C 0.89989 0.29013 0.3187 0.0
C226 C 0.83461 0.26783 0.37398 0.0
C227 C 0.80929 0.29108 0.31435 0.0
C228 C 0.82987 0.31403 0.25728 0.0
C229 C 0.87495 0.31383 0.26148 0.0
C230 C 0.81443 0.24393 0.43833 0.0
C231 C 0.8042 0.33823 0.19044 0.0
C232 C 0.69117 0.26385 0.26078 0.0
C233 C 0.67084 0.28959 0.30905 0.0
C234 C 0.73593 0.26472 0.2598 0.0
C235 C 0.76135 0.29103 0.31129 0.0
C236 C 0.74092 0.31679 0.36114 0.0
C237 C 0.69591 0.31623 0.35794 0.0
C238 C 0.75597 0.2376 0.20311 0.0
C239 C 0.7667 0.34443 0.41951 0.0
H240 H 0.89861 0.24896 0.41899 0.0
H241 H 0.89065 0.33148 0.21811 0.0
H242 H 0.79469 0.26079 0.47791 0.0
H243 H 0.79272 0.2235 0.40193 0.0
H244 H 0.83873 0.22917 0.48409 0.0
H245 H 0.82485 0.35353 0.14889 0.0
H246 H 0.78085 0.32141 0.14676 0.0
H247 H 0.78554 0.35816 0.22444 0.0
H248 H 0.67188 0.24343 0.22222 0.0
H249 H 0.68035 0.33603 0.39582 0.0
H250 H 0.77767 0.21922 0.24535 0.0
H251 H 0.7757 0.25222 0.15861 0.0
H252 H 0.73158 0.22061 0.16234 0.0
H253 H 0.79009 0.33012 0.46808 0.0
H254 H 0.74614 0.36191 0.45596 0.0
H255 H 0.78532 0.36228 0.37934 0.0
C256 C 0.38047 0.30426 0.36952 0.0
C257 C 0.39902 0.28069 0.31294 0.0
C258 C 0.33621 0.30276 0.37628 0.0
C259 C 0.30941 0.27808 0.32252 0.0
C260 C 0.32803 0.25455 0.26428 0.0
C261 C 0.37268 0.25563 0.26156 0.0
C262 C 0.31819 0.32743 0.4415 0.0
C263 C 0.30066 0.22879 0.20342 0.0
C264 C 0.19822 0.25252 0.38227 0.0
C265 C 0.17203 0.27794 0.33286 0.0
C266 C 0.24301 0.25258 0.38071 0.0
C267 C 0.26186 0.27764 0.32555 0.0
C268 C 0.23519 0.30266 0.27373 0.0
C269 C 0.19085 0.30298 0.27938 0.0
C270 C 0.27026 0.22631 0.43937 0.0
C271 C 0.25342 0.32894 0.21157 0.0
H272 H 0.40083 0.32337 0.41014 0.0
H273 H 0.38688 0.23749 0.2174 0.0
H274 H 0.29541 0.347 0.40592 0.0
H275 H 0.30004 0.31098 0.48563 0.0
H276 H 0.34363 0.34319 0.48272 0.0
H277 H 0.31986 0.21288 0.16067 0.0
H278 H 0.28336 0.20938 0.24243 0.0
H279 H 0.27608 0.24449 0.16067 0.0
H280 H 0.1838 0.23325 0.42399 0.0
H281 H 0.17063 0.32239 0.24024 0.0
H282 H 0.29483 0.24171 0.48365 0.0
H283 H 0.28759 0.20784 0.39873 0.0
H284 H 0.25096 0.2094 0.48047 0.0
H285 H 0.27612 0.34821 0.24952 0.0
H286 H 0.22809 0.34504 0.17181 0.0
H287 H 0.2717 0.31372 0.16594 0.0
C288 C 0.41683 0.75816 0.75707 0.0
C289 C 0.43851 0.79105 0.781 0.0
C290 C 0.37576 0.75817 0.70939 0.0
C291 C 0.35555 0.79188 0.68673 0.0
C292 C 0.37552 0.82503 0.71786 0.0
C293 C 0.41699 0.82425 0.76426 0.0
C294 C 0.35561 0.7222 0.67722 0.0
C295 C 0.35428 0.86143 0.69727 0.0
C296 C 0.28081 0.79247 0.4715 0.0
C297 C 0.24075 0.78821 0.50115 0.0
C298 C 0.31842 0.79446 0.53149 0.0
C299 C 0.31569 0.7924 0.62335 0.0
C300 C 0.27526 0.7885 0.65374 0.0
C301 C 0.23837 0.78568 0.59214 0.0
C302 C 0.36112 0.79789 0.4965 0.0
C303 C 0.27103 0.78639 0.75107 0.0
H304 H 0.43304 0.73231 0.77013 0.0
H305 H 0.43328 0.84974 0.78334 0.0
H306 H 0.32201 0.72029 0.69189 0.0
H307 H 0.35485 0.72041 0.60446 0.0
H308 H 0.37356 0.69837 0.70758 0.0
H309 H 0.37114 0.88402 0.7364 0.0
H310 H 0.35416 0.8677 0.62612 0.0
H311 H 0.32039 0.86047 0.71059 0.0
H312 H 0.2826 0.79392 0.40115 0.0
H313 H 0.2078 0.78043 0.61535 0.0
H314 H 0.38124 0.77386 0.51734 0.0
H315 H 0.37857 0.82254 0.52454 0.0
H316 H 0.35761 0.79978 0.42331 0.0
H317 H 0.28496 0.76045 0.77872 0.0
H318 H 0.23705 0.78761 0.7639 0.0
H319 H 0.28913 0.8091 0.78715 0.0
C320 C 0.59716 0.99334 0.90889 0.0
C321 C 0.56812 0.96387 0.89793 0.0
C322 C 0.58956 1.02373 0.96038 0.0
C323 C 0.55099 1.0255 -0.00108 0.0
C324 C 0.51995 0.99733 -0.01752 0.0
C325 C 0.52942 0.96636 0.93457 0.0
C326 C 0.62422 0.05257 -0.02129 0.0
C327 C 0.47765 0.99897 0.0194 0.0
C328 C 0.55437 0.07842 0.21329 0.0
C329 C 0.54031 0.11302 0.18328 0.0
C330 C 0.55758 0.04958 0.15405 0.0
C331 C 0.54502 0.05512 0.06261 0.0
C332 C 0.52934 0.08954 0.03203 0.0
C333 C 0.52864 0.11837 0.09226 0.0
C334 C 0.57608 1.01366 0.18901 0.0
C335 C 0.51443 0.0963 0.93544 0.0
H336 H 0.62722 0.99154 0.88139 0.0
H337 H 0.50739 0.94347 0.93079 0.0
H338 H 0.61119 0.08009 0.9617 0.0
H339 H 0.63626 0.05277 0.05028 0.0
H340 H 0.65172 0.04777 0.94117 0.0
H341 H 0.45425 0.97851 -0.01214 0.0
H342 H 0.48279 0.99347 0.09139 0.0
H343 H 0.4635 1.02661 0.00987 0.0
H344 H 0.56418 0.07432 0.28321 0.0
H345 H 0.52043 0.14532 0.06696 0.0
H346 H 0.6051 1.00726 0.15753 0.0
H347 H 0.55263 0.99119 0.17208 0.0
H348 H 0.58497 1.01405 0.2618 0.0
H349 H 0.54244 0.09735 0.89803 0.0
H350 H 0.49683 0.12247 0.9247 0.0
H351 H 0.49321 0.07366 0.90754 0.0
C352 C 0.0748 0.91999 0.3441 0.0
C353 C 0.03575 0.9007 0.34036 0.0
C354 C 0.07606 0.95852 0.34244 0.0
C355 C 0.03741 0.97853 0.33768 0.0
C356 C 0.99787 0.95921 0.33276 0.0
C357 C 0.99751 0.92068 0.33384 0.0
C358 C 0.1189 0.97785 0.34727 0.0
C359 C 0.95588 0.97928 0.32842 0.0
C360 C 0.03936 0.07506 0.43246 0.0
C361 C 0.03482 0.09707 0.35644 0.0
C362 C 0.04114 0.03675 0.4272 0.0
C363 C 0.03835 1.01954 0.34359 0.0
C364 C 0.03487 0.04156 0.26639 0.0
C365 C 0.03285 0.08001 0.27366 0.0
C366 C 0.04477 1.01463 0.51137 0.0
C367 C 0.03197 1.02443 0.17595 0.0
H368 H 0.10457 0.90496 0.34873 0.0
H369 H 0.96714 0.9062 0.33085 0.0
H370 H 0.11882 0.99739 0.29161 0.0
H371 H 0.12479 0.99393 0.40927 0.0
H372 H 0.14581 0.95849 0.34528 0.0
H373 H 0.9278 0.9604 0.32123 0.0
H374 H 0.95529 0.99566 0.38941 0.0
H375 H 0.95258 0.99861 0.27199 0.0
H376 H 0.0408 0.08799 0.49662 0.0
H377 H 0.02803 0.09649 0.21443 0.0
H378 H 0.07292 0.99635 0.51515 0.0
H379 H 1.0159 0.997 0.51171 0.0
H380 H 0.04801 1.03216 0.57128 0.0
H381 H 0.05882 1.00515 0.173 0.0
H382 H 0.03275 0.04519 0.123 0.0
H383 H 1.00172 1.00843 0.16259 0.0
C384 C 0.06603 0.29779 0.02841 0.0
C385 C 0.03438 0.27564 0.05834 0.0
C386 C 0.06958 0.30053 0.93869 0.0
C387 C 0.03996 0.2813 0.87805 0.0
C388 C 1.00815 0.25846 0.90803 0.0
C389 C 1.00613 0.25544 -0.00114 0.0
C390 C 0.10471 0.32417 0.90889 0.0
C391 C 0.97579 0.23806 0.84422 0.0
C392 C 1.02374 0.31735 0.6448 0.0
C393 C 0.04665 0.29168 0.60229 0.0
C394 C 1.02095 0.31413 0.73519 0.0
C395 C 0.04252 0.28515 0.78311 0.0
C396 C 0.06723 0.26015 0.74089 0.0
C397 C 0.0686 0.26351 0.65035 0.0
C398 C 0.99402 0.34098 0.7788 0.0
C399 C 0.09169 0.22965 0.79097 0.0
H400 H 0.08811 0.31301 0.07556 0.0
H401 H 0.98165 0.23853 0.02312 0.0
H402 H 0.12425 0.30795 0.86758 0.0
H403 H 0.09044 0.34699 0.86753 0.0
H404 H 0.12629 0.33587 -0.03465 0.0
H405 H 0.95299 0.22168 0.87853 0.0
H406 H 0.95729 0.25772 0.79927 0.0
H407 H 0.99244 0.21948 0.80259 0.0
H408 H 1.00645 0.33882 0.60673 0.0
H409 H 0.08648 0.24384 0.61675 0.0
H410 H 1.01399 0.35531 0.83353 0.0
H411 H 0.96828 0.32612 0.80798 0.0
H412 H 0.97904 0.36173 0.73172 0.0
H413 H 0.11373 0.24104 0.84699 0.0
H414 H 0.11074 0.21349 0.74843 0.0
H415 H 0.06906 0.21092 0.81918 0.0
C416 C 1.00255 0.80381 0.65685 0.0
C417 C 0.03479 0.78506 0.62078 0.0
C418 C 1.00126 0.80363 0.74767 0.0
C419 C 0.03228 0.78334 0.80195 0.0
C420 C 0.06445 0.7638 0.76552 0.0
C421 C 0.06574 0.76541 0.67476 0.0
C422 C 0.96747 0.82571 0.78555 0.0
C423 C 0.09711 0.74103 0.82215 0.0
C424 C 0.05766 0.80732 0.04151 0.0
C425 C 0.03173 0.78215 0.07915 0.0
C426 C 0.05734 0.8086 0.9503 0.0
C427 C 0.03168 0.78313 0.8974 0.0
C428 C 1.00585 0.75728 0.93552 0.0
C429 C 1.00559 0.75757 0.02672 0.0
C430 C 0.08414 0.83721 0.91064 0.0
C431 C 0.97908 0.7292 0.88025 0.0
H432 H 0.97883 0.81911 0.61418 0.0
H433 H 0.09026 0.75061 0.64575 0.0
H434 H 0.94947 0.80834 0.82797 0.0
H435 H 0.98318 0.84786 0.82789 0.0
H436 H 0.94426 0.8382 0.73331 0.0
H437 H 0.1186 0.72608 0.78234 0.0
H438 H 0.11711 0.75876 0.8701 0.0
H439 H 0.08058 0.72088 0.86078 0.0
H440 H 0.07741 0.82646 0.08335 0.0
H441 H 0.98585 0.7381 0.05735 0.0
H442 H 0.0636 0.85354 0.86091 0.0
H443 H 0.10878 0.82384 0.87594 0.0
H444 H 0.10056 0.85607 0.96127 0.0
H445 H 0.95511 0.74302 0.83209 0.0
H446 H 0.96189 0.71034 0.92106 0.0
H447 H 0.99984 0.71283 0.84184 0.0
C448 C 0.55244 0.80986 0.12795 0.0
C449 C 0.5792 0.78524 0.09192 0.0
C450 C 0.54912 0.80934 0.218 0.0
C451 C 0.5743 0.78437 0.27239 0.0
C452 C 0.60209 0.75992 0.23641 0.0
C453 C 0.60369 0.76026 0.14551 0.0
C454 C 0.51839 0.8351 0.25464 0.0
C455 C 0.63018 0.73373 0.29382 0.0
C456 C 0.59497 0.80992 0.51181 0.0
C457 C 0.56679 0.78614 0.5478 0.0
C458 C 0.59845 0.80902 0.42185 0.0
C459 C 0.57214 0.78448 0.36748 0.0
C460 C 0.54315 0.76074 0.40343 0.0
C461 C 0.54129 0.76148 0.49421 0.0
C462 C 0.63014 0.83428 0.38511 0.0
C463 C 0.51392 0.73499 0.34605 0.0
H464 H 0.53319 0.82878 0.08522 0.0
H465 H 0.62455 0.74154 0.11653 0.0
H466 H 0.49549 0.81936 0.28997 0.0
H467 H 0.53626 0.85393 0.30324 0.0
H468 H 0.49989 0.85169 0.20223 0.0
H469 H 0.6518 0.7181 0.25568 0.0
H470 H 0.64998 0.74893 0.34736 0.0
H471 H 0.60994 0.71406 0.32571 0.0
H472 H 0.61511 0.82853 0.55445 0.0
H473 H 0.51957 0.74322 0.52319 0.0
H474 H 0.61262 0.85517 0.34227 0.0
H475 H 0.65024 0.81875 0.34358 0.0
H476 H 0.65149 0.84858 0.43801 0.0
H477 H 0.49368 0.75071 0.29458 0.0
H478 H 0.49263 0.71891 0.38469 0.0
H479 H 0.5332 0.71574 0.3115 0.0
C480 C 0.57444 0.29828 0.63787 0.0
C481 C 0.54133 0.28373 0.5785 0.0
C482 C 0.5707 0.29897 0.72804 0.0
C483 C 0.5323 0.28605 0.75718 0.0
C484 C 0.49839 0.27216 0.69649 0.0
C485 C 0.50367 0.27061 0.60734 0.0
C486 C 0.60783 0.31296 0.79201 0.0
C487 C 0.45663 0.25915 0.72561 0.0
C488 C 0.537 0.25401 -0.00838 0.0
C489 C 0.52337 0.28525 0.03287 0.0
C490 C 0.54 0.25395 0.90144 0.0
C491 C 0.52825 0.28566 0.85172 0.0
C492 C 0.51312 0.3169 0.89224 0.0
C493 C 0.51126 0.31646 -0.01684 0.0
C494 C 0.55683 0.22034 0.85999 0.0
C495 C 0.49936 0.35077 0.8398 0.0
H496 H 0.60327 0.30858 0.6138 0.0
H497 H 0.47797 0.26006 0.55968 0.0
H498 H 0.59756 0.33651 0.82972 0.0
H499 H 0.61861 0.29129 0.84051 0.0
H500 H 0.63552 0.32167 0.75817 0.0
H501 H 0.43265 0.25116 0.66892 0.0
H502 H 0.46244 0.23527 0.77021 0.0
H503 H 0.44279 0.28101 0.7634 0.0
H504 H 0.54667 0.22991 0.03026 0.0
H505 H 0.50058 0.34053 0.01534 0.0
H506 H 0.58638 0.22746 0.83069 0.0
H507 H 0.53295 0.21007 0.80572 0.0
H508 H 0.56431 0.19789 0.90843 0.0
H509 H 0.52704 0.36263 0.81094 0.0
H510 H 0.48633 0.37199 0.88088 0.0
H511 H 0.47451 0.34358 0.7841 0.0
loop_
_geom_bond_atom_site_label_1
_geom_bond_atom_site_label_2
_geom_bond_distance
_geom_bond_site_symmetry_2
_ccdc_geom_bond_type
Zn0 O1 2.055 1_455 S
Zn0 O8 2.046 . S
Zn0 N16 2.036 . S
Zn0 O28 2.053 . S
Zn0 O30 2.066 . S
O1 Zn0 2.055 1_655 S
O1 C4 1.259 . S
C2 O30 1.256 . S
C2 O31 1.244 . S
Zn3 O5 2.046 1_455 S
Zn3 O7 2.055 . S
Zn3 N9 2.036 . S
Zn3 O27 2.066 . S
Zn3 O31 2.053 . S
C4 O1 1.259 . S
C4 O5 1.254 . S
O5 Zn3 2.046 1_655 S
O5 C4 1.254 . S
C6 O27 1.256 . S
C6 O28 1.244 . S
O7 Zn3 2.055 . S
O7 C29 1.259 . S
O8 Zn0 2.046 . S
O8 C29 1.254 . S
N9 Zn3 2.036 . S
N9 C10 1.298 . S
N9 N12 1.398 . S
C10 N9 1.298 . S
C10 N13 1.367 . S
C10 C23 1.481 . S
C11 N12 1.299 . S
C11 N13 1.379 . S
N12 N9 1.398 . S
N12 C11 1.299 . S
N13 C10 1.367 . S
N13 C11 1.379 . S
C14 N16 1.298 . S
C14 N18 1.367 . S
C14 C22 1.481 1_455 S
C15 N17 1.299 . S
C15 N18 1.379 . S
N16 Zn0 2.036 . S
N16 C14 1.298 . S
N16 N17 1.398 . S
N17 C15 1.299 . S
N17 N16 1.398 . S
N18 C14 1.367 . S
N18 C15 1.379 . S
H19 C22 0.980 . S
H20 C22 0.981 . S
H21 C22 0.981 . S
C22 C14 1.481 1_655 S
C22 H19 0.980 . S
C22 H20 0.981 . S
C22 H21 0.981 . S
C23 C10 1.481 . S
C23 H24 0.980 . S
C23 H25 0.981 . S
C23 H26 0.981 . S
H24 C23 0.980 . S
H25 C23 0.981 . S
H26 C23 0.981 . S
O27 Zn3 2.066 . S
O27 C6 1.256 . S
O28 Zn0 2.053 . S
O28 C6 1.244 . S
C29 O7 1.259 . S
C29 O8 1.254 . S
O30 Zn0 2.066 . S
O30 C2 1.256 . S
O31 C2 1.244 . S
O31 Zn3 2.053 . S
Zn32 O33 2.055 . S
Zn32 O40 2.046 . S
Zn32 N48 2.036 . S
Zn32 O60 2.053 . S
Zn32 O62 2.066 . S
O33 Zn32 2.055 . S
O33 C36 1.259 1_655 S
C34 O62 1.256 1_455 S
C34 O63 1.244 . S
Zn35 O37 2.046 . S
Zn35 O39 2.055 . S
Zn35 N41 2.036 . S
Zn35 O59 2.066 . S
Zn35 O63 2.053 . S
C36 O33 1.259 1_455 S
C36 O37 1.254 . S
O37 Zn35 2.046 . S
O37 C36 1.254 . S
C38 O59 1.256 . S
C38 O60 1.244 1_455 S
O39 Zn35 2.055 . S
O39 C61 1.259 . S
O40 Zn32 2.046 . S
O40 C61 1.254 1_655 S
N41 Zn35 2.036 . S
N41 C42 1.298 . S
N41 N44 1.398 . S
C42 N41 1.298 . S
C42 N45 1.367 . S
C42 C55 1.481 . S
C43 N44 1.299 . S
C43 N45 1.379 . S
N44 N41 1.398 . S
N44 C43 1.299 . S
N45 C42 1.367 . S
N45 C43 1.379 . S
C46 N48 1.298 . S
C46 N50 1.367 . S
C46 C54 1.481 . S
C47 N49 1.299 . S
C47 N50 1.379 . S
N48 Zn32 2.036 . S
N48 C46 1.298 . S
N48 N49 1.398 . S
N49 C47 1.299 . S
N49 N48 1.398 . S
N50 C46 1.367 . S
N50 C47 1.379 . S
H51 C54 0.980 . S
H52 C54 0.981 . S
H53 C54 0.981 . S
C54 C46 1.481 . S
C54 H51 0.980 . S
C54 H52 0.981 . S
C54 H53 0.981 . S
C55 C42 1.481 . S
C55 H56 0.980 . S
C55 H57 0.981 . S
C55 H58 0.981 . S
H56 C55 0.980 . S
H57 C55 0.981 . S
H58 C55 0.981 . S
O59 Zn35 2.066 . S
O59 C38 1.256 . S
O60 Zn32 2.053 . S
O60 C38 1.244 1_655 S
C61 O39 1.259 . S
C61 O40 1.254 1_455 S
O62 Zn32 2.066 . S
O62 C34 1.256 1_655 S
O63 C34 1.244 . S
O63 Zn35 2.053 . S
Zn64 O65 2.055 . S
Zn64 O72 2.046 . S
Zn64 N80 2.036 . S
Zn64 O92 2.053 . S
Zn64 O94 2.066 . S
O65 Zn64 2.055 . S
O65 C68 1.259 . S
C66 O94 1.256 1_554 S
C66 O95 1.244 1_554 S
Zn67 O69 2.046 . S
Zn67 O71 2.055 . S
Zn67 N73 2.036 . S
Zn67 O91 2.066 . S
Zn67 O95 2.053 . S
C68 O65 1.259 . S
C68 O69 1.254 . S
O69 Zn67 2.046 . S
O69 C68 1.254 . S
C70 O91 1.256 . S
C70 O92 1.244 . S
O71 Zn67 2.055 . S
O71 C93 1.259 . S
O72 Zn64 2.046 . S
O72 C93 1.254 . S
N73 Zn67 2.036 . S
N73 C74 1.298 . S
N73 N76 1.398 . S
C74 N73 1.298 . S
C74 N77 1.367 . S
C74 C87 1.481 . S
C75 N76 1.299 . S
C75 N77 1.379 . S
N76 N73 1.398 . S
N76 C75 1.299 . S
N77 C74 1.367 . S
N77 C75 1.379 . S
C78 N80 1.298 . S
C78 N82 1.367 . S
C78 C86 1.481 . S
C79 N81 1.299 . S
C79 N82 1.379 . S
N80 Zn64 2.036 . S
N80 C78 1.298 . S
N80 N81 1.398 . S
N81 C79 1.299 . S
N81 N80 1.398 . S
N82 C78 1.367 . S
N82 C79 1.379 . S
H83 C86 0.980 . S
H84 C86 0.981 . S
H85 C86 0.981 . S
C86 C78 1.481 . S
C86 H83 0.980 . S
C86 H84 0.981 . S
C86 H85 0.981 . S
C87 C74 1.481 . S
C87 H88 0.980 . S
C87 H89 0.981 . S
C87 H90 0.981 . S
H88 C87 0.980 . S
H89 C87 0.981 . S
H90 C87 0.981 . S
O91 Zn67 2.066 . S
O91 C70 1.256 . S
O92 Zn64 2.053 . S
O92 C70 1.244 . S
C93 O71 1.259 . S
C93 O72 1.254 . S
O94 Zn64 2.066 . S
O94 C66 1.256 1_556 S
O95 C66 1.244 1_556 S
O95 Zn67 2.053 . S
Zn96 O97 2.055 . S
Zn96 O104 2.046 . S
Zn96 N112 2.036 . S
Zn96 O124 2.053 . S
Zn96 O126 2.066 . S
O97 Zn96 2.055 . S
O97 C100 1.259 . S
C98 O126 1.256 . S
C98 O127 1.244 . S
Zn99 O101 2.046 . S
Zn99 O103 2.055 . S
Zn99 N105 2.036 . S
Zn99 O123 2.066 . S
Zn99 O127 2.053 . S
C100 O97 1.259 . S
C100 O101 1.254 . S
O101 Zn99 2.046 . S
O101 C100 1.254 . S
C102 O123 1.256 1_556 S
C102 O124 1.244 1_556 S
O103 Zn99 2.055 . S
O103 C125 1.259 . S
O104 Zn96 2.046 . S
O104 C125 1.254 . S
N105 Zn99 2.036 . S
N105 C106 1.298 . S
N105 N108 1.398 . S
C106 N105 1.298 . S
C106 N109 1.367 . S
C106 C119 1.481 . S
C107 N108 1.299 . S
C107 N109 1.379 . S
N108 N105 1.398 . S
N108 C107 1.299 . S
N109 C106 1.367 . S
N109 C107 1.379 . S
C110 N112 1.298 . S
C110 N114 1.367 . S
C110 C118 1.481 . S
C111 N113 1.299 . S
C111 N114 1.379 . S
N112 Zn96 2.036 . S
N112 C110 1.298 . S
N112 N113 1.398 . S
N113 C111 1.299 . S
N113 N112 1.398 . S
N114 C110 1.367 . S
N114 C111 1.379 . S
H115 C118 0.980 . S
H116 C118 0.981 . S
H117 C118 0.981 . S
C118 C110 1.481 . S
C118 H115 0.980 . S
C118 H116 0.981 . S
C118 H117 0.981 . S
C119 C106 1.481 . S
C119 H120 0.980 . S
C119 H121 0.981 . S
C119 H122 0.981 . S
H120 C119 0.980 . S
H121 C119 0.981 . S
H122 C119 0.981 . S
O123 Zn99 2.066 . S
O123 C102 1.256 1_554 S
O124 Zn96 2.053 . S
O124 C102 1.244 1_554 S
C125 O103 1.259 . S
C125 O104 1.254 . S
O126 Zn96 2.066 . S
O126 C98 1.256 . S
O127 C98 1.244 . S
O127 Zn99 2.053 . S
C128 C129 1.391 . S
C128 C130 1.394 . S
C128 H144 0.931 . S
C129 C128 1.391 . S
C129 C133 1.380 . S
C130 C128 1.394 . S
C130 C131 1.369 . S
C130 C134 1.531 . S
C131 C130 1.369 . S
C131 C132 1.410 1_455 S
C131 C139 1.503 . S
C132 C131 1.410 1_655 S
C132 C133 1.391 1_655 S
C132 C135 1.511 . S
C133 C129 1.380 . S
C133 C132 1.391 1_455 S
C133 H145 0.926 1_455 S
C134 C130 1.531 . S
C134 H146 0.960 . S
C134 H147 0.962 . S
C134 H148 0.960 . S
C135 C132 1.511 . S
C135 H149 0.961 . S
C135 H150 0.961 . S
C135 H151 0.961 . S
C136 C137 1.370 . S
C136 C138 1.363 . S
C136 H152 0.931 . S
C137 C136 1.370 . S
C137 C141 1.408 1_455 S
C138 C136 1.363 . S
C138 C139 1.370 . S
C138 C142 1.524 . S
C139 C131 1.503 . S
C139 C138 1.370 . S
C139 C140 1.403 1_455 S
C140 C139 1.403 1_655 S
C140 C141 1.404 . S
C140 C143 1.539 . S
C141 C137 1.408 1_655 S
C141 C140 1.404 . S
C141 H153 0.930 . S
C142 C138 1.524 . S
C142 H154 0.956 . S
C142 H155 0.961 . S
C142 H156 0.961 . S
C143 C140 1.539 . S
C143 H157 0.958 . S
C143 H158 0.961 . S
C143 H159 0.960 . S
H144 C128 0.931 . S
H145 C133 0.926 1_655 S
H146 C134 0.960 . S
H147 C134 0.962 . S
H148 C134 0.960 . S
H149 C135 0.961 . S
H150 C135 0.961 . S
H151 C135 0.961 . S
H152 C136 0.931 . S
H153 C141 0.930 . S
H154 C142 0.956 . S
H155 C142 0.961 . S
H156 C142 0.961 . S
H157 C143 0.958 . S
H158 C143 0.961 . S
H159 C143 0.960 . S
C160 C161 1.391 . S
C160 C162 1.394 . S
C160 H176 0.931 . S
C161 C160 1.391 . S
C161 C165 1.376 . S
C162 C160 1.394 . S
C162 C163 1.369 . S
C162 C166 1.531 . S
C163 C162 1.369 . S
C163 C164 1.410 . S
C163 C171 1.503 . S
C164 C163 1.410 . S
C164 C165 1.392 . S
C164 C167 1.511 . S
C165 C161 1.376 . S
C165 C164 1.392 . S
C165 H177 0.929 . S
C166 C162 1.531 . S
C166 H178 0.960 . S
C166 H179 0.962 . S
C166 H180 0.960 . S
C167 C164 1.511 . S
C167 H181 0.961 . S
C167 H182 0.961 . S
C167 H183 0.961 . S
C168 C169 1.370 . S
C168 C170 1.363 . S
C168 H184 0.931 . S
C169 C168 1.370 . S
C169 C173 1.408 . S
C170 C168 1.363 . S
C170 C171 1.370 . S
C170 C174 1.524 . S
C171 C163 1.503 . S
C171 C170 1.370 . S
C171 C172 1.403 . S
C172 C171 1.403 . S
C172 C173 1.404 . S
C172 C175 1.539 . S
C173 C169 1.408 . S
C173 C172 1.404 . S
C173 H185 0.930 . S
C174 C170 1.524 . S
C174 H186 0.956 . S
C174 H187 0.961 . S
C174 H188 0.961 . S
C175 C172 1.539 . S
C175 H189 0.958 . S
C175 H190 0.961 . S
C175 H191 0.960 . S
H176 C160 0.931 . S
H177 C165 0.929 . S
H178 C166 0.960 . S
H179 C166 0.962 . S
H180 C166 0.960 . S
H181 C167 0.961 . S
H182 C167 0.961 . S
H183 C167 0.961 . S
H184 C168 0.931 . S
H185 C173 0.930 . S
H186 C174 0.956 . S
H187 C174 0.961 . S
H188 C174 0.961 . S
H189 C175 0.958 . S
H190 C175 0.961 . S
H191 C175 0.960 . S
C192 C193 1.391 . S
C192 C194 1.394 . S
C192 H208 0.931 . S
C193 C192 1.391 . S
C193 C197 1.376 . S
C194 C192 1.394 . S
C194 C195 1.369 1_554 S
C194 C198 1.531 . S
C195 C194 1.369 1_556 S
C195 C196 1.410 . S
C195 C203 1.503 . S
C196 C195 1.410 . S
C196 C197 1.392 1_556 S
C196 C199 1.511 . S
C197 C193 1.376 . S
C197 C196 1.392 1_554 S
C197 H209 0.929 . S
C198 C194 1.531 . S
C198 H210 0.960 . S
C198 H211 0.962 . S
C198 H212 0.960 . S
C199 C196 1.511 . S
C199 H213 0.961 . S
C199 H214 0.961 . S
C199 H215 0.961 . S
C200 C201 1.370 . S
C200 C202 1.363 . S
C200 H216 0.931 . S
C201 C200 1.370 . S
C201 C205 1.408 . S
C202 C200 1.363 . S
C202 C203 1.370 . S
C202 C206 1.524 1_556 S
C203 C195 1.503 . S
C203 C202 1.370 . S
C203 C204 1.403 . S
C204 C203 1.403 . S
C204 C205 1.404 . S
C204 C207 1.539 . S
C205 C201 1.408 . S
C205 C204 1.404 . S
C205 H217 0.930 . S
C206 C202 1.524 1_554 S
C206 H218 0.956 . S
C206 H219 0.961 . S
C206 H220 0.961 . S
C207 C204 1.539 . S
C207 H221 0.958 . S
C207 H222 0.961 . S
C207 H223 0.960 . S
H208 C192 0.931 . S
H209 C197 0.929 . S
H210 C198 0.960 . S
H211 C198 0.962 . S
H212 C198 0.960 . S
H213 C199 0.961 . S
H214 C199 0.961 . S
H215 C199 0.961 . S
H216 C200 0.931 . S
H217 C205 0.930 . S
H218 C206 0.956 . S
H219 C206 0.961 . S
H220 C206 0.961 . S
H221 C207 0.958 . S
H222 C207 0.961 . S
H223 C207 0.960 . S
C224 C225 1.391 . S
C224 C226 1.394 . S
C224 H240 0.931 . S
C225 C224 1.391 . S
C225 C229 1.376 . S
C226 C224 1.394 . S
C226 C227 1.369 . S
C226 C230 1.531 . S
C227 C226 1.369 . S
C227 C228 1.410 . S
C227 C235 1.503 . S
C228 C227 1.410 . S
C228 C229 1.392 . S
C228 C231 1.511 . S
C229 C225 1.376 . S
C229 C228 1.392 . S
C229 H241 0.929 . S
C230 C226 1.531 . S
C230 H242 0.960 . S
C230 H243 0.962 . S
C230 H244 0.960 . S
C231 C228 1.511 . S
C231 H245 0.961 . S
C231 H246 0.961 . S
C231 H247 0.961 . S
C232 C233 1.370 . S
C232 C234 1.363 . S
C232 H248 0.931 . S
C233 C232 1.370 . S
C233 C237 1.408 . S
C234 C232 1.363 . S
C234 C235 1.370 . S
C234 C238 1.524 . S
C235 C227 1.503 . S
C235 C234 1.370 . S
C235 C236 1.403 . S
C236 C235 1.403 . S
C236 C237 1.404 . S
C236 C239 1.539 . S
C237 C233 1.408 . S
C237 C236 1.404 . S
C237 H249 0.930 . S
C238 C234 1.524 . S
C238 H250 0.956 . S
C238 H251 0.961 . S
C238 H252 0.961 . S
C239 C236 1.539 . S
C239 H253 0.958 . S
C239 H254 0.961 . S
C239 H255 0.960 . S
H240 C224 0.931 . S
H241 C229 0.929 . S
H242 C230 0.960 . S
H243 C230 0.962 . S
H244 C230 0.960 . S
H245 C231 0.961 . S
H246 C231 0.961 . S
H247 C231 0.961 . S
H248 C232 0.931 . S
H249 C237 0.930 . S
H250 C238 0.956 . S
H251 C238 0.961 . S
H252 C238 0.961 . S
H253 C239 0.958 . S
H254 C239 0.961 . S
H255 C239 0.960 . S
C256 C257 1.391 . S
C256 C258 1.394 . S
C256 H272 0.931 . S
C257 C256 1.391 . S
C257 C261 1.376 . S
C258 C256 1.394 . S
C258 C259 1.369 . S
C258 C262 1.531 . S
C259 C258 1.369 . S
C259 C260 1.410 . S
C259 C267 1.503 . S
C260 C259 1.410 . S
C260 C261 1.392 . S
C260 C263 1.511 . S
C261 C257 1.376 . S
C261 C260 1.392 . S
C261 H273 0.929 . S
C262 C258 1.531 . S
C262 H274 0.960 . S
C262 H275 0.962 . S
C262 H276 0.960 . S
C263 C260 1.511 . S
C263 H277 0.961 . S
C263 H278 0.961 . S
C263 H279 0.961 . S
C264 C265 1.370 . S
C264 C266 1.363 . S
C264 H280 0.931 . S
C265 C264 1.370 . S
C265 C269 1.408 . S
C266 C264 1.363 . S
C266 C267 1.370 . S
C266 C270 1.524 . S
C267 C259 1.503 . S
C267 C266 1.370 . S
C267 C268 1.403 . S
C268 C267 1.403 . S
C268 C269 1.404 . S
C268 C271 1.539 . S
C269 C265 1.408 . S
C269 C268 1.404 . S
C269 H281 0.930 . S
C270 C266 1.524 . S
C270 H282 0.956 . S
C270 H283 0.961 . S
C270 H284 0.961 . S
C271 C268 1.539 . S
C271 H285 0.958 . S
C271 H286 0.961 . S
C271 H287 0.960 . S
H272 C256 0.931 . S
H273 C261 0.929 . S
H274 C262 0.960 . S
H275 C262 0.962 . S
H276 C262 0.960 . S
H277 C263 0.961 . S
H278 C263 0.961 . S
H279 C263 0.961 . S
H280 C264 0.931 . S
H281 C269 0.930 . S
H282 C270 0.956 . S
H283 C270 0.961 . S
H284 C270 0.961 . S
H285 C271 0.958 . S
H286 C271 0.961 . S
H287 C271 0.960 . S
C288 C289 1.391 . S
C288 C290 1.394 . S
C288 H304 0.931 . S
C289 C288 1.391 . S
C289 C293 1.376 . S
C290 C288 1.394 . S
C290 C291 1.369 . S
C290 C294 1.531 . S
C291 C290 1.369 . S
C291 C292 1.410 . S
C291 C299 1.503 . S
C292 C291 1.410 . S
C292 C293 1.392 . S
C292 C295 1.511 . S
C293 C289 1.376 . S
C293 C292 1.392 . S
C293 H305 0.929 . S
C294 C290 1.531 . S
C294 H306 0.960 . S
C294 H307 0.962 . S
C294 H308 0.960 . S
C295 C292 1.511 . S
C295 H309 0.961 . S
C295 H310 0.961 . S
C295 H311 0.961 . S
C296 C297 1.370 . S
C296 C298 1.363 . S
C296 H312 0.931 . S
C297 C296 1.370 . S
C297 C301 1.408 . S
C298 C296 1.363 . S
C298 C299 1.370 . S
C298 C302 1.524 . S
C299 C291 1.503 . S
C299 C298 1.370 . S
C299 C300 1.403 . S
C300 C299 1.403 . S
C300 C301 1.404 . S
C300 C303 1.539 . S
C301 C297 1.408 . S
C301 C300 1.404 . S
C301 H313 0.930 . S
C302 C298 1.524 . S
C302 H314 0.956 . S
C302 H315 0.961 . S
C302 H316 0.961 . S
C303 C300 1.539 . S
C303 H317 0.958 . S
C303 H318 0.961 . S
C303 H319 0.960 . S
H304 C288 0.931 . S
H305 C293 0.929 . S
H306 C294 0.960 . S
H307 C294 0.962 . S
H308 C294 0.960 . S
H309 C295 0.961 . S
H310 C295 0.961 . S
H311 C295 0.961 . S
H312 C296 0.931 . S
H313 C301 0.930 . S
H314 C302 0.956 . S
H315 C302 0.961 . S
H316 C302 0.961 . S
H317 C303 0.958 . S
H318 C303 0.961 . S
H319 C303 0.960 . S
C320 C321 1.391 . S
C320 C322 1.394 . S
C320 H336 0.931 . S
C321 C320 1.391 . S
C321 C325 1.376 . S
C322 C320 1.394 . S
C322 C323 1.369 1_556 S
C322 C326 1.531 1_565 S
C323 C322 1.369 1_554 S
C323 C324 1.410 . S
C323 C331 1.503 1_565 S
C324 C323 1.410 . S
C324 C325 1.392 1_554 S
C324 C327 1.511 . S
C325 C321 1.376 . S
C325 C324 1.392 1_556 S
C325 H337 0.929 1_556 S
C326 C322 1.531 1_545 S
C326 H338 0.960 . S
C326 H339 0.962 . S
C326 H340 0.960 . S
C327 C324 1.511 . S
C327 H341 0.961 . S
C327 H342 0.961 . S
C327 H343 0.961 . S
C328 C329 1.370 . S
C328 C330 1.363 . S
C328 H344 0.931 . S
C329 C328 1.370 . S
C329 C333 1.408 . S
C330 C328 1.363 . S
C330 C331 1.370 . S
C330 C334 1.524 . S
C331 C323 1.503 1_545 S
C331 C330 1.370 . S
C331 C332 1.403 . S
C332 C331 1.403 . S
C332 C333 1.404 . S
C332 C335 1.539 1_554 S
C333 C329 1.408 . S
C333 C332 1.404 . S
C333 H345 0.930 . S
C334 C330 1.524 . S
C334 H346 0.956 1_545 S
C334 H347 0.961 1_545 S
C334 H348 0.961 . S
C335 C332 1.539 1_556 S
C335 H349 0.958 . S
C335 H350 0.961 . S
C335 H351 0.960 . S
H336 C320 0.931 . S
H337 C325 0.929 1_554 S
H338 C326 0.960 . S
H339 C326 0.962 . S
H340 C326 0.960 . S
H341 C327 0.961 . S
H342 C327 0.961 . S
H343 C327 0.961 . S
H344 C328 0.931 . S
H345 C333 0.930 . S
H346 C334 0.956 1_565 S
H347 C334 0.961 1_565 S
H348 C334 0.961 . S
H349 C335 0.958 . S
H350 C335 0.961 . S
H351 C335 0.960 . S
C352 C353 1.391 . S
C352 C354 1.394 . S
C352 H368 0.931 . S
C353 C352 1.391 . S
C353 C357 1.376 . S
C354 C352 1.394 . S
C354 C355 1.369 . S
C354 C358 1.531 . S
C355 C354 1.369 . S
C355 C356 1.410 . S
C355 C363 1.503 . S
C356 C355 1.410 . S
C356 C357 1.392 . S
C356 C359 1.514 . S
C357 C353 1.376 . S
C357 C356 1.392 . S
C357 H369 0.929 . S
C358 C354 1.531 . S
C358 H370 0.960 . S
C358 H371 0.962 . S
C358 H372 0.960 . S
C359 C356 1.514 . S
C359 H373 0.961 . S
C359 H374 0.965 . S
C359 H375 0.954 1_455 S
C360 C361 1.370 . S
C360 C362 1.363 1_545 S
C360 H376 0.931 . S
C361 C360 1.370 . S
C361 C365 1.408 . S
C362 C360 1.363 1_565 S
C362 C363 1.370 . S
C362 C366 1.524 . S
C363 C355 1.503 . S
C363 C362 1.370 . S
C363 C364 1.399 1_455 S
C364 C363 1.399 1_655 S
C364 C365 1.403 1_665 S
C364 C367 1.544 . S
C365 C361 1.408 . S
C365 C364 1.403 1_445 S
C365 H377 0.930 1_455 S
C366 C362 1.524 . S
C366 H378 0.956 . S
C366 H379 0.961 . S
C366 H380 0.961 . S
C367 C364 1.544 . S
C367 H381 0.958 . S
C367 H382 0.961 . S
C367 H383 0.960 . S
H368 C352 0.931 . S
H369 C357 0.929 . S
H370 C358 0.960 . S
H371 C358 0.962 . S
H372 C358 0.960 . S
H373 C359 0.961 . S
H374 C359 0.965 . S
H375 C359 0.954 1_655 S
H376 C360 0.931 . S
H377 C365 0.930 1_655 S
H378 C366 0.956 . S
H379 C366 0.961 . S
H380 C366 0.961 . S
H381 C367 0.958 . S
H382 C367 0.961 . S
H383 C367 0.960 . S
C384 C385 1.391 . S
C384 C386 1.394 1_554 S
C384 H400 0.931 . S
C385 C384 1.391 . S
C385 C389 1.376 1_455 S
C386 C384 1.394 1_556 S
C386 C387 1.369 . S
C386 C390 1.531 . S
C387 C386 1.369 . S
C387 C388 1.410 1_455 S
C387 C395 1.503 . S
C388 C387 1.410 1_655 S
C388 C389 1.392 1_556 S
C388 C391 1.511 . S
C389 C385 1.376 1_655 S
C389 C388 1.392 1_554 S
C389 H401 0.929 . S
C390 C386 1.531 . S
C390 H402 0.960 . S
C390 H403 0.962 . S
C390 H404 0.960 . S
C391 C388 1.511 . S
C391 H405 0.961 . S
C391 H406 0.961 . S
C391 H407 0.961 . S
C392 C393 1.370 . S
C392 C394 1.363 . S
C392 H408 0.931 . S
C393 C392 1.370 . S
C393 C397 1.408 . S
C394 C392 1.363 . S
C394 C395 1.370 . S
C394 C398 1.524 . S
C395 C387 1.503 . S
C395 C394 1.370 . S
C395 C396 1.403 . S
C396 C395 1.403 . S
C396 C397 1.404 . S
C396 C399 1.539 . S
C397 C393 1.408 . S
C397 C396 1.404 . S
C397 H409 0.930 . S
C398 C394 1.524 . S
C398 H410 0.956 . S
C398 H411 0.961 1_455 S
C398 H412 0.961 1_455 S
C399 C396 1.539 . S
C399 H413 0.958 . S
C399 H414 0.961 . S
C399 H415 0.960 . S
H400 C384 0.931 . S
H401 C389 0.929 . S
H402 C390 0.960 . S
H403 C390 0.962 . S
H404 C390 0.960 . S
H405 C391 0.961 . S
H406 C391 0.961 . S
H407 C391 0.961 . S
H408 C392 0.931 . S
H409 C397 0.930 . S
H410 C398 0.956 . S
H411 C398 0.961 1_655 S
H412 C398 0.961 1_655 S
H413 C399 0.958 . S
H414 C399 0.961 . S
H415 C399 0.960 . S
C416 C417 1.391 1_655 S
C416 C418 1.394 . S
C416 H432 0.931 . S
C417 C416 1.391 1_455 S
C417 C421 1.376 . S
C418 C416 1.394 . S
C418 C419 1.369 1_656 S
C418 C422 1.531 1_556 S
C419 C418 1.369 1_454 S
C419 C420 1.410 1_554 S
C419 C427 1.503 . S
C420 C419 1.410 1_556 S
C420 C421 1.392 . S
C420 C423 1.511 1_556 S
C421 C417 1.376 . S
C421 C420 1.392 . S
C421 H433 0.929 . S
C422 C418 1.531 1_554 S
C422 H434 0.960 . S
C422 H435 0.962 . S
C422 H436 0.960 1_554 S
C423 C420 1.511 1_554 S
C423 H437 0.961 . S
C423 H438 0.961 . S
C423 H439 0.961 . S
C424 C425 1.370 . S
C424 C426 1.363 . S
C424 H440 0.931 . S
C425 C424 1.370 . S
C425 C429 1.408 1_455 S
C426 C424 1.363 . S
C426 C427 1.370 . S
C426 C430 1.524 . S
C427 C419 1.503 . S
C427 C426 1.370 . S
C427 C428 1.403 1_455 S
C428 C427 1.403 1_655 S
C428 C429 1.404 . S
C428 C431 1.539 . S
C429 C425 1.408 1_655 S
C429 C428 1.404 . S
C429 H441 0.930 . S
C430 C426 1.524 . S
C430 H442 0.956 . S
C430 H443 0.961 . S
C430 H444 0.961 . S
C431 C428 1.539 . S
C431 H445 0.958 . S
C431 H446 0.961 . S
C431 H447 0.960 . S
H432 C416 0.931 . S
H433 C421 0.929 . S
H434 C422 0.960 . S
H435 C422 0.962 . S
H436 C422 0.960 1_556 S
H437 C423 0.961 . S
H438 C423 0.961 . S
H439 C423 0.961 . S
H440 C424 0.931 . S
H441 C429 0.930 . S
H442 C430 0.956 . S
H443 C430 0.961 . S
H444 C430 0.961 . S
H445 C431 0.958 . S
H446 C431 0.961 . S
H447 C431 0.960 . S
C448 C449 1.391 . S
C448 C450 1.394 . S
C448 H464 0.931 . S
C449 C448 1.391 . S
C449 C453 1.376 . S
C450 C448 1.394 . S
C450 C451 1.369 . S
C450 C454 1.531 . S
C451 C450 1.369 . S
C451 C452 1.410 . S
C451 C459 1.503 . S
C452 C451 1.410 . S
C452 C453 1.392 . S
C452 C455 1.511 . S
C453 C449 1.376 . S
C453 C452 1.392 . S
C453 H465 0.929 . S
C454 C450 1.531 . S
C454 H466 0.960 . S
C454 H467 0.962 . S
C454 H468 0.960 . S
C455 C452 1.511 . S
C455 H469 0.961 . S
C455 H470 0.961 . S
C455 H471 0.961 . S
C456 C457 1.370 . S
C456 C458 1.363 . S
C456 H472 0.931 . S
C457 C456 1.370 . S
C457 C461 1.408 . S
C458 C456 1.363 . S
C458 C459 1.370 . S
C458 C462 1.524 . S
C459 C451 1.503 . S
C459 C458 1.370 . S
C459 C460 1.403 . S
C460 C459 1.403 . S
C460 C461 1.404 . S
C460 C463 1.539 . S
C461 C457 1.408 . S
C461 C460 1.404 . S
C461 H473 0.930 . S
C462 C458 1.524 . S
C462 H474 0.956 . S
C462 H475 0.961 . S
C462 H476 0.961 . S
C463 C460 1.539 . S
C463 H477 0.958 . S
C463 H478 0.961 . S
C463 H479 0.960 . S
H464 C448 0.931 . S
H465 C453 0.929 . S
H466 C454 0.960 . S
H467 C454 0.962 . S
H468 C454 0.960 . S
H469 C455 0.961 . S
H470 C455 0.961 . S
H471 C455 0.961 . S
H472 C456 0.931 . S
H473 C461 0.930 . S
H474 C462 0.956 . S
H475 C462 0.961 . S
H476 C462 0.961 . S
H477 C463 0.958 . S
H478 C463 0.961 . S
H479 C463 0.960 . S
C480 C481 1.391 . S
C480 C482 1.394 . S
C480 H496 0.931 . S
C481 C480 1.391 . S
C481 C485 1.376 . S
C482 C480 1.394 . S
C482 C483 1.369 . S
C482 C486 1.531 . S
C483 C482 1.369 . S
C483 C484 1.410 . S
C483 C491 1.503 . S
C484 C483 1.410 . S
C484 C485 1.392 . S
C484 C487 1.511 . S
C485 C481 1.376 . S
C485 C484 1.392 . S
C485 H497 0.929 . S
C486 C482 1.531 . S
C486 H498 0.960 . S
C486 H499 0.962 . S
C486 H500 0.960 . S
C487 C484 1.511 . S
C487 H501 0.961 . S
C487 H502 0.961 . S
C487 H503 0.961 . S
C488 C489 1.370 . S
C488 C490 1.363 . S
C488 H504 0.931 . S
C489 C488 1.370 . S
C489 C493 1.408 . S
C490 C488 1.363 . S
C490 C491 1.370 . S
C490 C494 1.524 . S
C491 C483 1.503 . S
C491 C490 1.370 . S
C491 C492 1.403 . S
C492 C491 1.403 . S
C492 C493 1.404 . S
C492 C495 1.539 . S
C493 C489 1.408 . S
C493 C492 1.404 . S
C493 H505 0.930 . S
C494 C490 1.524 . S
C494 H506 0.956 . S
C494 H507 0.961 . S
C494 H508 0.961 . S
C495 C492 1.539 . S
C495 H509 0.958 . S
C495 H510 0.961 . S
C495 H511 0.960 . S
H496 C480 0.931 . S
H497 C485 0.929 . S
H498 C486 0.960 . S
H499 C486 0.962 . S
H500 C486 0.960 . S
H501 C487 0.961 . S
H502 C487 0.961 . S
H503 C487 0.961 . S
H504 C488 0.931 . S
H505 C493 0.930 . S
H506 C494 0.956 . S
H507 C494 0.961 . S
H508 C494 0.961 . S
H509 C495 0.958 . S
H510 C495 0.961 . S
H511 C495 0.960 . S
C129 N18 2.310 . S
C137 C36 2.270 . S
C161 C70 1.316 . S
C169 N50 1.344 . S
C193 N109 1.238 . S
C201 N77 1.143 . S
C225 C4 2.098 . S
C233 C125 2.094 . S
C257 C98 2.679 . S
C265 C6 2.683 . S
C289 C68 0.906 . S
C297 N45 0.873 . S
C321 N82 1.120 . S
C329 N114 1.013 . S
C353 C38 2.542 . S
C361 N13 2.378 . S
C385 C29 1.025 . S
C393 C2 1.013 . S
C417 C34 1.034 . S
C425 C61 1.008 . S
C449 C66 1.023 . S
C457 C93 1.006 . S
C481 C100 1.018 . S
C489 C102 1.015 . S
