# Generated by pormake.
# Topology crs, (6)-cn, num edge types: 1
# Building blocks:
#     Node 0, Type 0, BuildingBlock: PAMTOO_clean_sbu_0, # of connection points: 6
#     Node 1, Type 0, BuildingBlock: PAMTOO_clean_sbu_0, # of connection points: 6
#     Node 2, Type 0, BuildingBlock: PAMTOO_clean_sbu_0, # of connection points: 6
#     Node 3, Type 0, BuildingBlock: PAMTOO_clean_sbu_0, # of connection points: 6
#     Node 4, Type 0, BuildingBlock: PAMTOO_clean_sbu_0, # of connection points: 6
#     Node 5, Type 0, BuildingBlock: PAMTOO_clean_sbu_0, # of connection points: 6
#     Node 6, Type 0, BuildingBlock: PAMTOO_clean_sbu_0, # of connection points: 6
#     Node 7, Type 0, BuildingBlock: PAMTOO_clean_sbu_0, # of connection points: 6
#     Node 8, Type 0, BuildingBlock: PAMTOO_clean_sbu_0, # of connection points: 6
#     Node 9, Type 0, BuildingBlock: PAMTOO_clean_sbu_0, # of connection points: 6
#     Node 10, Type 0, BuildingBlock: PAMTOO_clean_sbu_0, # of connection points: 6
#     Node 11, Type 0, BuildingBlock: PAMTOO_clean_sbu_0, # of connection points: 6
#     Node 12, Type 0, BuildingBlock: PAMTOO_clean_sbu_0, # of connection points: 6
#     Node 13, Type 0, BuildingBlock: PAMTOO_clean_sbu_0, # of connection points: 6
#     Node 14, Type 0, BuildingBlock: PAMTOO_clean_sbu_0, # of connection points: 6
#     Node 15, Type 0, BuildingBlock: PAMTOO_clean_sbu_0, # of connection points: 6
#     Edge 16, Type (0, 0), BuildingBlock: ZUJKAS_clean_linker_0, # of connection points: 2
#     Edge 17, Type (0, 0), BuildingBlock: ZUJKAS_clean_linker_0, # of connection points: 2
#     Edge 18, Type (0, 0), BuildingBlock: ZUJKAS_clean_linker_0, # of connection points: 2
#     Edge 19, Type (0, 0), BuildingBlock: ZUJKAS_clean_linker_0, # of connection points: 2
#     Edge 20, Type (0, 0), BuildingBlock: ZUJKAS_clean_linker_0, # of connection points: 2
#     Edge 21, Type (0, 0), BuildingBlock: ZUJKAS_clean_linker_0, # of connection points: 2
#     Edge 22, Type (0, 0), BuildingBlock: ZUJKAS_clean_linker_0, # of connection points: 2
#     Edge 23, Type (0, 0), BuildingBlock: ZUJKAS_clean_linker_0, # of connection points: 2
#     Edge 24, Type (0, 0), BuildingBlock: ZUJKAS_clean_linker_0, # of connection points: 2
#     Edge 25, Type (0, 0), BuildingBlock: ZUJKAS_clean_linker_0, # of connection points: 2
#     Edge 26, Type (0, 0), BuildingBlock: ZUJKAS_clean_linker_0, # of connection points: 2
#     Edge 27, Type (0, 0), BuildingBlock: ZUJKAS_clean_linker_0, # of connection points: 2
#     Edge 28, Type (0, 0), BuildingBlock: ZUJKAS_clean_linker_0, # of connection points: 2
#     Edge 29, Type (0, 0), BuildingBlock: ZUJKAS_clean_linker_0, # of connection points: 2
#     Edge 30, Type (0, 0), BuildingBlock: ZUJKAS_clean_linker_0, # of connection points: 2
#     Edge 31, Type (0, 0), BuildingBlock: ZUJKAS_clean_linker_0, # of connection points: 2
#     Edge 32, Type (0, 0), BuildingBlock: ZUJKAS_clean_linker_0, # of connection points: 2
#     Edge 33, Type (0, 0), BuildingBlock: ZUJKAS_clean_linker_0, # of connection points: 2
#     Edge 34, Type (0, 0), BuildingBlock: ZUJKAS_clean_linker_0, # of connection points: 2
#     Edge 35, Type (0, 0), BuildingBlock: ZUJKAS_clean_linker_0, # of connection points: 2
#     Edge 36, Type (0, 0), BuildingBlock: ZUJKAS_clean_linker_0, # of connection points: 2
#     Edge 37, Type (0, 0), BuildingBlock: ZUJKAS_clean_linker_0, # of connection points: 2
#     Edge 38, Type (0, 0), BuildingBlock: ZUJKAS_clean_linker_0, # of connection points: 2
#     Edge 39, Type (0, 0), BuildingBlock: ZUJKAS_clean_linker_0, # of connection points: 2
#     Edge 40, Type (0, 0), BuildingBlock: ZUJKAS_clean_linker_0, # of connection points: 2
#     Edge 41, Type (0, 0), BuildingBlock: ZUJKAS_clean_linker_0, # of connection points: 2
#     Edge 42, Type (0, 0), BuildingBlock: ZUJKAS_clean_linker_0, # of connection points: 2
#     Edge 43, Type (0, 0), BuildingBlock: ZUJKAS_clean_linker_0, # of connection points: 2
#     Edge 44, Type (0, 0), BuildingBlock: ZUJKAS_clean_linker_0, # of connection points: 2
#     Edge 45, Type (0, 0), BuildingBlock: ZUJKAS_clean_linker_0, # of connection points: 2
#     Edge 46, Type (0, 0), BuildingBlock: ZUJKAS_clean_linker_0, # of connection points: 2
#     Edge 47, Type (0, 0), BuildingBlock: ZUJKAS_clean_linker_0, # of connection points: 2
#     Edge 48, Type (0, 0), BuildingBlock: ZUJKAS_clean_linker_0, # of connection points: 2
#     Edge 49, Type (0, 0), BuildingBlock: ZUJKAS_clean_linker_0, # of connection points: 2
#     Edge 50, Type (0, 0), BuildingBlock: ZUJKAS_clean_linker_0, # of connection points: 2
#     Edge 51, Type (0, 0), BuildingBlock: ZUJKAS_clean_linker_0, # of connection points: 2
#     Edge 52, Type (0, 0), BuildingBlock: ZUJKAS_clean_linker_0, # of connection points: 2
#     Edge 53, Type (0, 0), BuildingBlock: ZUJKAS_clean_linker_0, # of connection points: 2
#     Edge 54, Type (0, 0), BuildingBlock: ZUJKAS_clean_linker_0, # of connection points: 2
#     Edge 55, Type (0, 0), BuildingBlock: ZUJKAS_clean_linker_0, # of connection points: 2
#     Edge 56, Type (0, 0), BuildingBlock: ZUJKAS_clean_linker_0, # of connection points: 2
#     Edge 57, Type (0, 0), BuildingBlock: ZUJKAS_clean_linker_0, # of connection points: 2
#     Edge 58, Type (0, 0), BuildingBlock: ZUJKAS_clean_linker_0, # of connection points: 2
#     Edge 59, Type (0, 0), BuildingBlock: ZUJKAS_clean_linker_0, # of connection points: 2
#     Edge 60, Type (0, 0), BuildingBlock: ZUJKAS_clean_linker_0, # of connection points: 2
#     Edge 61, Type (0, 0), BuildingBlock: ZUJKAS_clean_linker_0, # of connection points: 2
#     Edge 62, Type (0, 0), BuildingBlock: ZUJKAS_clean_linker_0, # of connection points: 2
#     Edge 63, Type (0, 0), BuildingBlock: ZUJKAS_clean_linker_0, # of connection points: 2
# Relax obj value: 0.317
# Max RMSD: 0.300
# Mean RMSD: 0.252
data_MOF--net-crs--node1-PAMTOO_clean_sbu_0--edge1-ZUJKAS_clean_linker_0
_symmetry_space_group_name_H-M    P1
_symmetry_Int_Tables_number       1
_symmetry_cell_setting            triclinic
loop_
_symmetry_equiv_pos_as_xyz
'x, y, z'
_cell_length_a     75.775286
_cell_length_b     56.399514
_cell_length_c     56.402754
_cell_angle_alpha  89.913639
_cell_angle_beta   89.269433
_cell_angle_gamma 70.498945
loop_
_atom_site_label
_atom_site_type_symbol
_atom_site_fract_x
_atom_site_fract_y
_atom_site_fract_z
_atom_type_partial_charge
Dy0 Dy 0.99 0.98759 0.02961 0.0
Dy1 Dy -0.00202 0.02212 0.98663 0.0
C2 C -0.00418 0.96727 0.97636 0.0
O3 O 0.02111 0.97461 0.02494 0.0
O4 O 0.02373 0.01044 1.00834 0.0
O5 O -0.00719 0.95159 0.04533 0.0
O6 O 0.97769 0.98614 0.06399 0.0
O7 O 0.98815 0.04802 0.01795 0.0
O8 O -0.00306 0.01863 0.04736 0.0
O9 O 0.9694 0.0213 0.98004 0.0
O10 O 0.96187 0.01271 0.01785 0.0
O11 O -0.00806 0.05763 0.96836 0.0
O12 O 0.01383 0.02449 0.9553 0.0
C13 C 0.03107 0.98899 0.01939 0.0
O14 O 0.98622 0.96869 0.99616 0.0
O15 O 0.00479 0.98312 0.97189 0.0
C16 C 0.96511 0.95383 0.06583 0.0
C17 C 0.9311 0.94462 0.07194 0.0
C18 C 0.93704 0.94934 0.04925 0.0
C19 C 0.95385 0.95403 0.04624 0.0
C20 C 0.95951 0.94861 0.08843 0.0
C21 C 0.94262 0.94397 0.09148 0.0
C22 C 0.98148 0.96186 0.06292 0.0
C23 C -0.00789 0.04207 0.04028 0.0
C24 C 0.95704 0.02009 0.99607 0.0
C25 C 0.02001 0.06206 0.95403 0.0
C26 C 0.05153 0.07769 0.9548 0.0
C27 C 0.04213 0.07585 0.976 0.0
C28 C 0.02655 0.06797 0.97563 0.0
C29 C 0.0287 0.0651 0.93275 0.0
C30 C 0.04435 0.07293 0.93311 0.0
C31 C 0.00634 0.04886 0.95406 0.0
H32 H 0.92865 0.94956 0.03379 0.0
H33 H 0.95785 0.95839 0.02868 0.0
H34 H 0.96794 0.94881 0.10376 0.0
H35 H 0.93833 0.94063 0.10921 0.0
H36 H 0.04717 0.07974 0.99295 0.0
H37 H 0.02015 0.06539 0.99229 0.0
H38 H 0.02399 0.0602 0.91598 0.0
H39 H 0.0514 0.07395 0.9165 0.0
Dy40 Dy 0.98856 0.23857 0.27609 0.0
Dy41 Dy -0.00441 0.27696 0.23568 0.0
C42 C 0.95492 0.28469 0.25682 0.0
O43 O -0.00528 0.21628 0.24232 0.0
O44 O 0.98627 0.24891 0.21576 0.0
O45 O 0.97666 0.21054 0.28737 0.0
O46 O -0.00559 0.22239 0.31107 0.0
O47 O 0.02095 0.24283 0.23488 0.0
O48 O 0.01916 0.23198 0.27362 0.0
O49 O 0.00208 0.29019 0.27105 0.0
O50 O 0.98332 0.27534 0.29462 0.0
O51 O 0.01205 0.29894 0.22271 0.0
O52 O 0.9869 0.29975 0.20431 0.0
C53 C 0.99003 0.22494 0.2208 0.0
O54 O 0.96026 0.26104 0.26329 0.0
O55 O 0.9669 0.2956 0.24989 0.0
C56 C 0.96883 0.21362 0.32789 0.0
C57 C 0.94162 0.22084 0.36406 0.0
C58 C 0.93907 0.23843 0.34563 0.0
C59 C 0.95261 0.2349 0.32774 0.0
C60 C 0.97158 0.19618 0.34635 0.0
C61 C 0.95808 0.19978 0.36437 0.0
C62 C 0.98291 0.20976 0.3089 0.0
C63 C 0.02863 0.23019 0.25372 0.0
C64 C -0.00714 0.29068 0.29108 0.0
C65 C 0.01207 0.30329 0.18143 0.0
C66 C 0.03462 0.29796 0.14044 0.0
C67 C 0.03475 0.27669 0.15361 0.0
C68 C 0.02354 0.27935 0.17395 0.0
C69 C 0.01131 0.32442 0.16791 0.0
C70 C 0.02247 0.3218 0.14753 0.0
C71 C 0.00176 0.30653 0.20399 0.0
H72 H 0.92665 0.255 0.3451 0.0
H73 H 0.95039 0.24872 0.31373 0.0
H74 H 0.98409 0.17971 0.34673 0.0
H75 H 0.96034 0.18584 0.37827 0.0
H76 H 0.0441 0.25812 0.14882 0.0
H77 H 0.02426 0.26283 0.18427 0.0
H78 H 0.00245 0.34302 0.17344 0.0
H79 H 0.02187 0.33849 0.13758 0.0
Dy80 Dy 0.74294 0.23455 0.49053 0.0
Dy81 Dy 0.7434 0.27473 0.53287 0.0
C82 C 0.70565 0.26477 0.51947 0.0
O83 O 0.74714 0.26725 0.47182 0.0
O84 O 0.73474 0.29785 0.49994 0.0
O85 O 0.73342 0.22713 0.45631 0.0
O86 O 0.75239 0.19671 0.47653 0.0
O87 O 0.77061 0.26634 0.51351 0.0
O88 O 0.77298 0.22755 0.4987 0.0
O89 O 0.75175 0.23671 0.54993 0.0
O90 O 0.73814 0.21673 0.5243 0.0
O91 O 0.7563 0.28339 0.56399 0.0
O92 O 0.73084 0.31048 0.55055 0.0
C93 C 0.74029 0.29106 0.47803 0.0
O94 O 0.71289 0.25565 0.4988 0.0
O95 O 0.71574 0.26944 0.5364 0.0
C96 C 0.72777 0.18893 0.45658 0.0
C97 C 0.69836 0.1692 0.45267 0.0
C98 C 0.70481 0.17319 0.47508 0.0
C99 C 0.71929 0.1831 0.47701 0.0
C100 C 0.72193 0.18407 0.43419 0.0
C101 C 0.70734 0.17423 0.43223 0.0
C102 C 0.74094 0.20284 0.45869 0.0
C103 C 0.78051 0.24471 0.50396 0.0
C104 C 0.74536 0.21832 0.54501 0.0
C105 C 0.75318 0.32582 0.56723 0.0
C106 C 0.7738 0.35871 0.57184 0.0
C107 C 0.7721 0.34853 0.54957 0.0
C108 C 0.76189 0.33216 0.5473 0.0
C109 C 0.75415 0.33669 0.58926 0.0
C110 C 0.76438 0.35306 0.59156 0.0
C111 C 0.74452 0.30629 0.56552 0.0
H112 H 0.6984 0.16913 0.49116 0.0
H113 H 0.72343 0.18698 0.4945 0.0
H114 H 0.72817 0.18878 0.41825 0.0
H115 H 0.70257 0.1716 0.41472 0.0
H116 H 0.77941 0.35222 0.53412 0.0
H117 H 0.76136 0.32372 0.53019 0.0
H118 H 0.7475 0.3319 0.6048 0.0
H119 H 0.76531 0.36081 0.60888 0.0
Dy120 Dy 0.74523 0.02289 0.78163 0.0
Dy121 Dy 0.73463 0.9873 0.74123 0.0
C122 C 0.77712 0.9789 0.75435 0.0
O123 O 0.73813 0.04692 0.74914 0.0
O124 O 0.7421 0.01653 0.72043 0.0
O125 O 0.75871 0.04908 0.79297 0.0
O126 O 0.74028 0.03823 0.81708 0.0
O127 O 0.70981 0.0218 0.74454 0.0
O128 O 0.71443 0.0301 0.78311 0.0
O129 O 0.73102 0.97227 0.77719 0.0
O130 O 0.75196 0.98496 0.79806 0.0
O131 O 0.71714 0.96574 0.73151 0.0
O132 O 0.73971 0.96685 0.70801 0.0
C133 C 0.7404 0.03964 0.72682 0.0
O134 O 0.77265 1.0008 0.76508 0.0
O135 O 0.76477 0.96856 0.74801 0.0
C136 C 0.76573 0.04689 0.83357 0.0
C137 C 0.79203 0.04104 0.86982 0.0
C138 C 0.79357 0.0212 0.85394 0.0
C139 C 0.78051 0.0241 0.83594 0.0
C140 C 0.76394 0.06657 0.84952 0.0
C141 C 0.77698 0.06369 0.86752 0.0
C142 C 0.7521 0.05037 0.81458 0.0
C143 C 0.70354 0.03311 0.76468 0.0
C144 C 0.74185 0.97027 0.79564 0.0
C145 C 0.71242 0.96395 0.69062 0.0
C146 C 0.68643 0.97027 0.65402 0.0
C147 C 0.68477 0.98993 0.67012 0.0
C148 C 0.69772 0.98682 0.68825 0.0
C149 C 0.71449 0.94459 0.67418 0.0
C150 C 0.70161 0.94774 0.65594 0.0
C151 C 0.72514 0.95968 0.71074 0.0
H152 H 0.80512 1.00364 0.85504 0.0
H153 H 0.78202 0.0087 0.82374 0.0
H154 H 0.75251 0.08421 0.84798 0.0
H155 H 0.77526 0.07919 0.87964 0.0
H156 H 0.67333 0.00759 0.66886 0.0
H157 H 0.69603 1.00205 0.70072 0.0
H158 H 0.72579 0.92684 0.6758 0.0
H159 H 0.70313 0.93222 0.64389 0.0
Dy160 Dy 0.48502 0.73483 0.28126 0.0
Dy161 Dy 0.49454 0.77107 0.24022 0.0
C162 C 0.45359 0.78179 0.26049 0.0
O163 O 0.47941 0.72055 0.24589 0.0
O164 O 0.49882 0.73431 0.22224 0.0
O165 O 0.46688 0.71512 0.29401 0.0
O166 O 0.49174 0.71324 0.31362 0.0
O167 O 0.5224 0.74608 0.25243 0.0
O168 O 0.51395 0.71403 0.26912 0.0
O169 O 0.48867 0.79402 0.27361 0.0
O170 O 0.4948 0.76239 0.30118 0.0
O171 O 0.5072 0.79846 0.22949 0.0
O172 O 0.49025 0.78638 0.20475 0.0
C173 C 0.4889 0.71949 0.22597 0.0
O174 O 0.46055 0.76995 0.27998 0.0
O175 O 0.46373 0.77902 0.24106 0.0
C176 C 0.46495 0.71393 0.33548 0.0
C177 C 0.4416 0.7242 0.376 0.0
C178 C 0.44075 0.74336 0.35963 0.0
C179 C 0.4524 0.73829 0.33957 0.0
C180 C 0.46629 0.69496 0.3521 0.0
C181 C 0.45472 0.70007 0.3723 0.0
C182 C 0.47619 0.70809 0.31357 0.0
C183 C 0.52659 0.72311 0.26072 0.0
C184 C 0.49229 0.78591 0.29549 0.0
C185 C 0.51634 0.79515 0.18935 0.0
C186 C 0.54473 0.78865 0.15487 0.0
C187 C 0.54765 0.77255 0.17456 0.0
C188 C 0.53354 0.77571 0.19161 0.0
C189 C 0.51322 0.811 0.16957 0.0
C190 C 0.5273 0.80773 0.15237 0.0
C191 C 0.5017 0.79898 0.20761 0.0
H192 H 0.43089 0.76218 0.36218 0.0
H193 H 0.45133 0.75323 0.32699 0.0
H194 H 0.47596 0.67609 0.3492 0.0
H195 H 0.45555 0.68492 0.38453 0.0
H196 H 0.56085 0.75747 0.17677 0.0
H197 H 0.53609 0.76315 0.20667 0.0
H198 H 0.49997 0.82602 0.16754 0.0
H199 H 0.52473 0.82049 0.13745 0.0
Dy200 Dy 0.24434 0.73503 0.49202 0.0
Dy201 Dy 0.24226 0.77572 0.53487 0.0
C202 C 0.20567 0.76514 0.51782 0.0
O203 O 0.24953 0.76758 0.47426 0.0
O204 O 0.23499 0.7983 0.50145 0.0
O205 O 0.23637 0.7272 0.45703 0.0
O206 O 0.25494 0.69721 0.4781 0.0
O207 O 0.27046 0.7674 0.51815 0.0
O208 O 0.27384 0.72857 0.50258 0.0
O209 O 0.25009 0.73789 0.5522 0.0
O210 O 0.23816 0.71721 0.52513 0.0
O211 O 0.2536 0.78561 0.56677 0.0
O212 O 0.22804 0.81127 0.55208 0.0
C213 C 0.24191 0.79142 0.48006 0.0
O214 O 0.214 0.75674 0.49749 0.0
O215 O 0.21492 0.76921 0.53598 0.0
C216 C 0.23209 0.68802 0.45534 0.0
C217 C 0.20505 0.66476 0.44779 0.0
C218 C 0.2114 0.66663 0.47078 0.0
C219 C 0.2247 0.67832 0.47455 0.0
C220 C 0.22622 0.68549 0.4323 0.0
C221 C 0.21275 0.67401 0.42854 0.0
C222 C 0.24436 0.70298 0.45942 0.0
C223 C 0.28094 0.74579 0.50912 0.0
C224 C 0.24427 0.71917 0.54648 0.0
C225 C 0.24905 0.82853 0.56956 0.0
C226 C 0.26835 0.86307 0.57379 0.0
C227 C 0.26483 0.85504 0.5513 0.0
C228 C 0.25533 0.8378 0.5492 0.0
C229 C 0.25184 0.83723 0.59196 0.0
C230 C 0.26143 0.8544 0.59409 0.0
C231 C 0.24123 0.80814 0.56763 0.0
H232 H 0.2055 0.66 0.48596 0.0
H233 H 0.22877 0.68044 0.49255 0.0
H234 H 0.23165 0.69307 0.41731 0.0
H235 H 0.20814 0.67268 0.41065 0.0
H236 H 0.27023 0.8611 0.53538 0.0
H237 H 0.25346 0.83103 0.53176 0.0
H238 H 0.24714 0.83014 0.60783 0.0
H239 H 0.26385 0.86041 0.61162 0.0
Dy240 Dy 0.24222 0.52566 0.78207 0.0
Dy241 Dy 0.22826 0.49146 0.74401 0.0
C242 C 0.27109 0.47741 0.75735 0.0
O243 O 0.23279 0.54981 0.75005 0.0
O244 O 0.23747 0.51863 0.72232 0.0
O245 O 0.25807 0.5501 0.78975 0.0
O246 O 0.24046 0.54206 0.81696 0.0
O247 O 0.2038 0.52616 0.74998 0.0
O248 O 0.21152 0.53469 0.7873 0.0
O249 O 0.22467 0.47721 0.78025 0.0
O250 O 0.24637 0.48915 0.80063 0.0
O251 O 0.20874 0.47309 0.73382 0.0
O252 O 0.23315 0.46947 0.71174 0.0
C253 C 0.23532 0.54205 0.72793 0.0
O254 O 0.26807 0.50077 0.76387 0.0
O255 O 0.25729 0.46884 0.75361 0.0
C256 C 0.26796 0.54852 0.82927 0.0
C257 C 0.29651 0.54128 0.8627 0.0
C258 C 0.29799 0.52313 0.845 0.0
C259 C 0.28377 0.52669 0.82845 0.0
C260 C 0.26638 0.56657 0.84692 0.0
C261 C 0.28053 0.56298 0.86354 0.0
C262 C 0.25295 0.55261 0.81203 0.0
C263 C 0.19913 0.53721 0.77065 0.0
C264 C 0.2355 0.47533 0.79871 0.0
C265 C 0.20576 0.46933 0.69269 0.0
C266 C 0.18213 0.47659 0.65335 0.0
C267 C 0.18097 0.49676 0.66864 0.0
C268 C 0.19275 0.49317 0.68814 0.0
C269 C 0.2073 0.44934 0.67721 0.0
C270 C 0.1956 0.45294 0.65763 0.0
C271 C 0.21746 0.46485 0.71382 0.0
H272 H 0.31005 0.5061 0.84409 0.0
H273 H 0.28511 0.51245 0.81501 0.0
H274 H 0.25422 0.58349 0.84778 0.0
H275 H 0.2791 0.5774 0.87679 0.0
H276 H 0.17086 0.51525 0.6656 0.0
H277 H 0.19151 0.50887 0.69987 0.0
H278 H 0.21732 0.43083 0.6805 0.0
H279 H 0.19669 0.437 0.64631 0.0
Dy280 Dy 0.98566 0.49523 0.52327 0.0
Dy281 Dy -0.00794 0.53084 0.48011 0.0
C282 C 0.99061 0.47575 0.46983 0.0
O283 O 0.01665 0.48323 0.5177 0.0
O284 O 0.01865 0.51904 0.50011 0.0
O285 O 0.98939 0.45864 0.53826 0.0
O286 O 0.97391 0.49242 0.55775 0.0
O287 O 0.98402 0.55589 0.5123 0.0
O288 O -0.00706 0.52585 0.54128 0.0
O289 O 0.96329 0.52953 0.47543 0.0
O290 O 0.9574 0.52176 0.51402 0.0
O291 O 0.9848 0.56662 0.46205 0.0
O292 O 0.00665 0.53406 0.44789 0.0
C293 C 0.02634 0.49768 0.51121 0.0
O294 O 0.98109 0.4771 0.48967 0.0
O295 O -0.00063 0.49183 0.46532 0.0
C296 C 0.96233 0.45904 0.55936 0.0
C297 C 0.92956 0.4467 0.56596 0.0
C298 C 0.93499 0.45201 0.54317 0.0
C299 C 0.95116 0.45827 0.53993 0.0
C300 C 0.95721 0.45338 0.58206 0.0
C301 C 0.94094 0.44723 0.58535 0.0
C302 C 0.97821 0.46809 0.55621 0.0
C303 C 0.98824 0.54939 0.5345 0.0
C304 C 0.95156 0.529 0.49255 0.0
C305 C 0.01151 0.57256 0.44448 0.0
C306 C 0.04102 0.59219 0.44108 0.0
C307 C 0.03195 0.59213 0.46296 0.0
C308 C 0.01739 0.58221 0.46469 0.0
C309 C 0.01997 0.5736 0.42246 0.0
C310 C 0.03465 0.5833 0.42075 0.0
C311 C -0.00147 0.55833 0.44669 0.0
H312 H 0.92673 0.45138 0.52781 0.0
H313 H 0.95479 0.46293 0.52229 0.0
H314 H 0.96554 0.4543 0.59727 0.0
H315 H 0.93703 0.44353 0.60315 0.0
H316 H 0.03674 0.5986 0.47893 0.0
H317 H 0.01126 0.58115 0.48195 0.0
H318 H 0.01572 0.56597 0.40675 0.0
H319 H 0.04133 0.5833 0.40366 0.0
Dy320 Dy 0.24159 0.23523 0.99146 0.0
Dy321 Dy 0.23969 0.2765 0.03332 0.0
C322 C 0.2031 0.26516 0.01719 0.0
O323 O 0.23257 0.27306 0.97391 0.0
O324 O 0.24548 0.29368 0.99973 0.0
O325 O 0.23021 0.22473 0.95992 0.0
O326 O 0.25578 0.19935 0.97481 0.0
O327 O 0.27016 0.25558 0.02704 0.0
O328 O 0.26865 0.24227 0.98898 0.0
O329 O 0.23473 0.2443 0.05189 0.0
O330 O 0.24938 0.21319 0.02518 0.0
O331 O 0.24762 0.28496 0.06808 0.0
O332 O 0.22926 0.31465 0.04649 0.0
C333 C 0.23855 0.29182 0.9789 0.0
O334 O 0.21371 0.24325 1.00893 0.0
O335 O 0.21014 0.28272 0.02291 0.0
C336 C 0.23459 0.18187 0.95844 0.0
C337 C 0.21484 0.1478 0.95536 0.0
C338 C 0.21644 0.15876 0.97725 0.0
C339 C 0.22621 0.17571 0.97876 0.0
C340 C 0.23379 0.17019 0.9368 0.0
C341 C 0.22399 0.15321 0.93526 0.0
C342 C 0.24254 0.20215 0.95942 0.0
C343 C 0.27816 0.2469 1.00658 0.0
C344 C 0.24248 0.2204 0.04652 0.0
C345 C 0.25304 0.32329 0.06762 0.0
C346 C 0.28294 0.34191 0.07225 0.0
C347 C 0.27615 0.33915 0.04973 0.0
C348 C 0.26142 0.32978 0.04742 0.0
C349 C 0.25912 0.32717 0.09018 0.0
C350 C 0.27396 0.33647 0.0925 0.0
C351 C 0.24006 0.30916 0.065 0.0
H352 H 0.20931 0.15532 0.99297 0.0
H353 H 0.2266 0.18479 0.99558 0.0
H354 H 0.24017 0.17485 0.92096 0.0
H355 H 0.22311 0.14487 0.91822 0.0
H356 H 0.28256 0.34358 0.03381 0.0
H357 H 0.25711 0.32667 0.02979 0.0
H358 H 0.25298 0.32192 0.10592 0.0
H359 H 0.27899 0.33822 0.11009 0.0
Dy360 Dy 0.24552 0.02667 0.28478 0.0
Dy361 Dy 0.23752 0.98872 0.24485 0.0
C362 C 0.27822 0.98063 0.264 0.0
O363 O 0.25164 0.04012 0.24905 0.0
O364 O 0.23313 0.02494 0.22589 0.0
O365 O 0.26255 0.0478 0.29731 0.0
O366 O 0.23723 0.0493 0.31653 0.0
O367 O 0.20933 0.01274 0.25795 0.0
O368 O 0.21702 0.04636 0.27159 0.0
O369 O 0.24457 0.96646 0.27835 0.0
O370 O 0.23581 0.99897 0.30507 0.0
O371 O 0.22508 0.9609 0.23524 0.0
O372 O 0.24274 0.97179 0.21 0.0
C373 C 0.24273 0.04019 0.22914 0.0
O374 O 0.27091 0.99267 0.2835 0.0
O375 O 0.26818 0.98211 0.24496 0.0
C376 C 0.26262 0.05191 0.33869 0.0
C377 C 0.28437 0.04633 0.37974 0.0
C378 C 0.28615 0.02551 0.365 0.0
C379 C 0.27533 0.02828 0.34465 0.0
C380 C 0.26028 0.07249 0.35372 0.0
C381 C 0.27103 0.06973 0.37412 0.0
C382 C 0.25234 0.0555 0.3164 0.0
C383 C 0.20463 0.03629 0.26479 0.0
C384 C 0.23979 0.97499 0.29998 0.0
C385 C 0.21731 0.9618 0.19505 0.0
C386 C 0.19003 0.96609 0.16042 0.0
C387 C 0.18807 0.98582 0.17657 0.0
C388 C 0.20164 0.98371 0.19372 0.0
C389 C 0.21947 0.94221 0.17886 0.0
C390 C 0.20595 0.94434 0.16162 0.0
C391 C 0.23132 0.95917 0.21343 0.0
H392 H 0.29644 0.00731 0.36862 0.0
H393 H 0.27725 0.01216 0.33322 0.0
H394 H 0.2504 0.09081 0.34941 0.0
H395 H 0.26913 0.08603 0.38528 0.0
H396 H 0.17608 1.00293 0.17588 0.0
H397 H 0.19986 0.99909 0.20604 0.0
H398 H 0.23153 0.92518 0.1797 0.0
H399 H 0.20775 0.92874 0.14957 0.0
Dy400 Dy 0.47932 0.23857 0.77955 0.0
Dy401 Dy 0.49481 0.27171 0.74132 0.0
C402 C 0.45208 0.28825 0.7569 0.0
O403 O 0.47487 0.22531 0.74317 0.0
O404 O 0.49722 0.23608 0.72221 0.0
O405 O 0.45783 0.22379 0.7911 0.0
O406 O 0.48355 0.21538 0.81089 0.0
O407 O 0.52033 0.24447 0.75742 0.0
O408 O 0.50801 0.2143 0.7696 0.0
O409 O 0.48787 0.29489 0.77449 0.0
O410 O 0.49074 0.2633 0.80132 0.0
O411 O 0.51288 0.29299 0.73196 0.0
O412 O 0.49195 0.29007 0.70736 0.0
C413 C 0.4857 0.22318 0.72425 0.0
O414 O 0.45675 0.27557 0.77662 0.0
O415 O 0.46376 0.28449 0.73889 0.0
C416 C 0.45586 0.22059 0.83262 0.0
C417 C 0.43462 0.23233 0.87496 0.0
C418 C 0.434 0.25129 0.85845 0.0
C419 C 0.44461 0.24549 0.83748 0.0
C420 C 0.45683 0.20173 0.84923 0.0
C421 C 0.44632 0.20754 0.87027 0.0
C422 C 0.46669 0.21411 0.81039 0.0
C423 C 0.52235 0.22163 0.7648 0.0
C424 C 0.49 0.28641 0.79636 0.0
C425 C 0.51964 0.29353 0.69115 0.0
C426 C 0.54543 0.28593 0.65324 0.0
C427 C 0.54263 0.26526 0.66469 0.0
C428 C 0.52983 0.26904 0.68357 0.0
C429 C 0.52223 0.31414 0.67967 0.0
C430 C 0.53501 0.3104 0.66087 0.0
C431 C 0.50604 0.29798 0.71072 0.0
H432 H 0.42523 0.27058 0.8617 0.0
H433 H 0.44389 0.26037 0.82496 0.0
H434 H 0.46554 0.18245 0.84578 0.0
H435 H 0.44692 0.19249 0.88251 0.0
H436 H 0.55059 0.2462 0.65935 0.0
H437 H 0.52793 0.25292 0.69231 0.0
H438 H 0.51434 0.33316 0.68524 0.0
H439 H 0.53666 0.3267 0.6522 0.0
Dy440 Dy 0.97837 0.74522 0.77325 0.0
Dy441 Dy -0.00046 0.77416 0.73781 0.0
C442 C 0.95605 0.79364 0.7445 0.0
O443 O 0.98618 0.72076 0.74089 0.0
O444 O 0.98949 0.74967 0.71393 0.0
O445 O 0.95296 0.74205 0.78812 0.0
O446 O 0.97967 0.71488 0.79757 0.0
O447 O 0.01984 0.73645 0.74574 0.0
O448 O 0.0085 0.73309 0.78275 0.0
O449 O 0.00185 0.78857 0.77428 0.0
O450 O 0.97823 0.77911 0.79397 0.0
O451 O 0.02371 0.78465 0.72868 0.0
O452 O -0.00136 0.79753 0.70731 0.0
C453 C 0.9876 0.72782 0.71889 0.0
O454 O 0.95703 0.77052 0.74941 0.0
O455 O 0.97092 0.80042 0.74476 0.0
C456 C 0.95568 0.72563 0.82683 0.0
C457 C 0.94034 0.73039 0.87303 0.0
C458 C 0.94221 0.75145 0.86127 0.0
C459 C 0.94991 0.74907 0.83839 0.0
C460 C 0.95462 0.70441 0.8389 0.0
C461 C 0.94707 0.70674 0.86186 0.0
C462 C 0.9617 0.72329 0.80181 0.0
C463 C 0.02213 0.72662 0.76699 0.0
C464 C 0.99038 0.79118 0.7926 0.0
C465 C 0.02782 0.78951 0.68769 0.0
C466 C 0.05079 0.77779 0.64682 0.0
C467 C 0.05486 0.79154 0.66549 0.0
C468 C 0.04344 0.79739 0.68571 0.0
C469 C 0.02371 0.77566 0.66912 0.0
C470 C 0.03506 0.76999 0.64873 0.0
C471 C 0.01614 0.79597 0.70927 0.0
H472 H 0.93726 0.76986 0.86955 0.0
H473 H 0.9508 0.76566 0.82945 0.0
H474 H 0.95905 0.68618 0.83025 0.0
H475 H 0.94563 0.69024 0.87038 0.0
H476 H 0.06676 0.79807 0.66434 0.0
H477 H 0.04681 0.80811 0.69983 0.0
H478 H 0.01177 0.76921 0.67036 0.0
H479 H 0.03171 0.75924 0.63463 0.0
Dy480 Dy 0.74685 0.52304 0.28173 0.0
Dy481 Dy 0.73806 0.48624 0.24098 0.0
C482 C 0.7778 0.47333 0.26419 0.0
O483 O 0.75491 0.53479 0.24616 0.0
O484 O 0.73548 0.52206 0.22239 0.0
O485 O 0.76456 0.54357 0.29319 0.0
O486 O 0.74014 0.54477 0.31429 0.0
O487 O 0.71004 0.51274 0.25183 0.0
O488 O 0.71862 0.54447 0.26868 0.0
O489 O 0.74161 0.46462 0.27489 0.0
O490 O 0.73508 0.49712 0.30171 0.0
O491 O 0.72406 0.46081 0.2293 0.0
O492 O 0.74484 0.46846 0.20664 0.0
C493 C 0.74598 0.53603 0.22608 0.0
O494 O 0.77025 0.48685 0.28281 0.0
O495 O 0.76897 0.47632 0.244 0.0
C496 C 0.76692 0.54615 0.33492 0.0
C497 C 0.7888 0.54105 0.37604 0.0
C498 C 0.79718 0.53153 0.35408 0.0
C499 C 0.78639 0.53394 0.33382 0.0
C500 C 0.75843 0.55535 0.35685 0.0
C501 C 0.76924 0.55274 0.37724 0.0
C502 C 0.75553 0.55034 0.31326 0.0
C503 C 0.70602 0.53582 0.25989 0.0
C504 C 0.73728 0.47354 0.2965 0.0
C505 C 0.7193 0.4618 0.18824 0.0
C506 C 0.69411 0.46862 0.15056 0.0
C507 C 0.69339 0.48887 0.16553 0.0
C508 C 0.70591 0.48549 0.18422 0.0
C509 C 0.72035 0.44169 0.17314 0.0
C510 C 0.70787 0.44506 0.15441 0.0
C511 C 0.732 0.45785 0.20834 0.0
H512 H 0.81222 0.52289 0.3523 0.0
H513 H 0.79342 0.52665 0.3172 0.0
H514 H 0.74344 0.56484 0.35815 0.0
H515 H 0.76229 0.56005 0.39388 0.0
H516 H 0.68308 0.5073 0.16286 0.0
H517 H 0.70502 0.50126 0.19569 0.0
H518 H 0.73065 0.4233 0.17605 0.0
H519 H 0.70863 0.42903 0.14339 0.0
Dy520 Dy 0.74648 0.73223 0.99033 0.0
Dy521 Dy 0.74667 0.77275 0.0321 0.0
C522 C 0.70941 0.762 0.01853 0.0
O523 O 0.73763 0.77047 0.97351 0.0
O524 O 0.75193 0.79022 0.9984 0.0
O525 O 0.73362 0.72386 0.95903 0.0
O526 O 0.75871 0.69629 0.97283 0.0
O527 O 0.7769 0.75153 0.02425 0.0
O528 O 0.77405 0.73774 0.98668 0.0
O529 O 0.74244 0.7403 0.05111 0.0
O530 O 0.75522 0.70936 0.02347 0.0
O531 O 0.75661 0.7818 0.0655 0.0
O532 O 0.73467 0.81005 0.04668 0.0
C533 C 0.74434 0.78869 0.97793 0.0
O534 O 0.71948 0.74004 1.00991 0.0
O535 O 0.71686 0.77948 0.02266 0.0
C536 C 0.7355 0.68185 0.95692 0.0
C537 C 0.71176 0.65274 0.95548 0.0
C538 C 0.71926 0.65703 0.97711 0.0
C539 C 0.73092 0.67161 0.97785 0.0
C540 C 0.72893 0.67651 0.93518 0.0
C541 C 0.71715 0.66205 0.93443 0.0
C542 C 0.74491 0.70066 0.95799 0.0
C543 C 0.78422 0.74225 1.00361 0.0
C544 C 0.74949 0.71643 0.04527 0.0
C545 C 0.75629 0.82347 0.06745 0.0
C546 C 0.77698 0.85599 0.07393 0.0
C547 C 0.77369 0.84887 0.05098 0.0
C548 C 0.7635 0.83262 0.04777 0.0
C549 C 0.75923 0.83087 0.09033 0.0
C550 C 0.76956 0.84698 0.09358 0.0
C551 C 0.74635 0.80548 0.06425 0.0
H552 H 0.71559 0.64982 0.99358 0.0
H553 H 0.73574 0.67573 0.99486 0.0
H554 H 0.73217 0.68454 0.91891 0.0
H555 H 0.71145 0.65939 0.91753 0.0
H556 H 0.77952 0.85518 0.03556 0.0
H557 H 0.76153 0.82688 0.02995 0.0
H558 H 0.75377 0.82388 0.10569 0.0
H559 H 0.77187 0.85226 0.11144 0.0
Dy560 Dy 0.48497 0.9881 0.52984 0.0
Dy561 Dy 0.49098 0.02453 0.48715 0.0
C562 C 0.49047 0.96897 0.47591 0.0
O563 O 0.51594 0.97644 0.52463 0.0
O564 O 0.51767 0.01243 0.50705 0.0
O565 O 0.4881 0.95158 0.54466 0.0
O566 O 0.47325 0.98548 0.56438 0.0
O567 O 0.48205 0.04901 0.51962 0.0
O568 O 0.49227 0.01865 0.54799 0.0
O569 O 0.46279 0.02166 0.48151 0.0
O570 O 0.4566 0.0138 0.51992 0.0
O571 O 0.48278 0.06069 0.4697 0.0
O572 O 0.50574 0.02939 0.45565 0.0
C573 C 0.52549 0.99106 0.51812 0.0
O574 O 0.48165 0.96913 0.49614 0.0
O575 O 0.49822 0.9861 0.47107 0.0
C576 C 0.46023 0.95354 0.56472 0.0
C577 C 0.42563 0.94556 0.56948 0.0
C578 C 0.43229 0.94974 0.54703 0.0
C579 C 0.44937 0.95383 0.5447 0.0
C580 C 0.45393 0.94882 0.58709 0.0
C581 C 0.43675 0.9448 0.58948 0.0
C582 C 0.4768 0.9613 0.56245 0.0
C583 C 0.48689 0.04235 0.54161 0.0
C584 C 0.45099 0.0204 0.49826 0.0
C585 C 0.5088 0.069 0.45321 0.0
C586 C 0.53609 0.09253 0.4495 0.0
C587 C 0.53142 0.08475 0.47171 0.0
C588 C 0.51791 0.073 0.47353 0.0
C589 C 0.51289 0.07751 0.43117 0.0
C590 C 0.52643 0.08924 0.42931 0.0
C591 C 0.49674 0.05348 0.45457 0.0
H592 H 0.42424 0.95005 0.53123 0.0
H593 H 0.45387 0.95787 0.52729 0.0
H594 H 0.462 0.94901 0.60277 0.0
H595 H 0.43192 0.9419 0.60704 0.0
H596 H 0.53879 0.0867 0.48752 0.0
H597 H 0.51507 0.0662 0.49066 0.0
H598 H 0.50605 0.07437 0.41531 0.0
H599 H 0.52962 0.09528 0.41202 0.0
Dy600 Dy 0.49149 0.48115 0.03375 0.0
Dy601 Dy 0.49798 0.51765 0.99141 0.0
C602 C 0.49617 0.4631 0.9792 0.0
O603 O 0.51979 0.48355 0.03951 0.0
O604 O 0.52648 0.4925 1.00156 0.0
O605 O 0.4999 0.44539 0.0519 0.0
O606 O 0.47648 0.47663 0.06513 0.0
O607 O 0.50152 0.53571 0.02552 0.0
O608 O 0.48316 0.52011 0.0489 0.0
O609 O 0.46697 0.52849 0.99627 0.0
O610 O 0.46531 0.49208 0.0129 0.0
O611 O 0.49305 0.55469 0.97684 0.0
O612 O 0.51048 0.52168 0.95775 0.0
C613 C 0.53181 0.48494 0.02312 0.0
O614 O 0.50002 0.45644 1.00143 0.0
O615 O 0.49176 0.48666 0.97252 0.0
C616 C 0.4742 0.43667 0.06879 0.0
C617 C 0.44772 0.41201 0.07379 0.0
C618 C 0.45162 0.42015 0.05136 0.0
C619 C 0.46474 0.43245 0.04889 0.0
C620 C 0.47095 0.42772 0.091 0.0
C621 C 0.45781 0.41543 0.0935 0.0
C622 C 0.48584 0.4527 0.06687 0.0
C623 C 0.49171 0.53656 0.04504 0.0
C624 C 0.45753 0.51343 1.00181 0.0
C625 C 0.52009 0.55685 0.95762 0.0
C626 C 0.55079 0.57406 0.95367 0.0
C627 C 0.54675 0.56438 0.97527 0.0
C628 C 0.53156 0.55578 0.9772 0.0
C629 C 0.52392 0.56664 0.93609 0.0
C630 C 0.5392 0.57519 0.9341 0.0
C631 C 0.505 0.54613 0.95943 0.0
H632 H 0.4439 0.41811 0.0359 0.0
H633 H 0.46698 0.43954 0.03164 0.0
H634 H 0.47811 0.43099 0.10653 0.0
H635 H 0.45522 0.40911 0.11094 0.0
H636 H 0.5556 0.56289 0.99051 0.0
H637 H 0.52895 0.54787 0.99386 0.0
H638 H 0.51526 0.56736 0.92079 0.0
H639 H 0.54196 0.58269 0.91731 0.0
H640 H 0.98415 0.09289 0.03294 0.0
H641 H 0.98394 0.12501 0.06236 0.0
H642 H -0.00158 0.06845 0.11694 0.0
H643 H -0.00114 0.03633 0.08784 0.0
H644 H 0.96243 0.13977 0.1041 0.0
H645 H 0.038 0.10211 0.12484 0.0
H646 H 0.02832 0.09223 0.0991 0.0
H647 H 0.02639 0.07923 0.12777 0.0
C648 C 0.98733 0.08726 0.0512 0.0
C649 C -0.00839 0.06193 0.05793 0.0
C650 C 0.98719 0.10567 0.068 0.0
C651 C -0.00852 0.09911 0.09182 0.0
C652 C -0.00452 0.07392 0.09861 0.0
H653 H -0.00273 0.17402 0.22404 0.0
H654 H -0.00291 0.14463 0.19229 0.0
C655 C -0.00439 0.05556 0.08189 0.0
C656 C -0.00855 0.11853 0.10975 0.0
H657 H 0.01874 0.13347 0.15103 0.0
C658 C 0.97478 0.13854 0.11421 0.0
C659 C 0.00756 0.11692 0.123 0.0
C660 C 0.02614 0.09661 0.11832 0.0
C661 C 0.97363 0.15649 0.13203 0.0
C662 C 0.98968 0.15466 0.14551 0.0
C663 C 0.00641 0.13484 0.14081 0.0
C664 C 0.98939 0.17288 0.16478 0.0
C665 C 0.95507 0.17679 0.13677 0.0
C666 C 0.98528 0.19859 0.15994 0.0
C667 C 0.98534 0.21551 0.1781 0.0
C668 C 0.98962 0.20708 0.20154 0.0
C669 C -0.00616 0.18127 0.20628 0.0
C670 C -0.00622 0.16439 0.18811 0.0
H671 H 0.94324 0.1719 0.12927 0.0
H672 H 0.95255 0.18021 0.1561 0.0
H673 H 0.95518 0.19456 0.12841 0.0
H674 H 0.98225 0.20555 0.14202 0.0
H675 H 0.98217 0.23518 0.1737 0.0
H676 H 0.80341 0.20646 0.47676 0.0
H677 H 0.83403 0.20289 0.46026 0.0
H678 H 0.83291 0.26981 0.49811 0.0
H679 H 0.80191 0.27398 0.51424 0.0
H680 H 0.84076 0.27324 0.45293 0.0
H681 H 0.88632 0.18087 0.48482 0.0
H682 H 0.86604 0.17794 0.47085 0.0
H683 H 0.86336 0.19658 0.49744 0.0
C684 C 0.8098 0.22017 0.48199 0.0
C685 C 0.80016 0.24057 0.49675 0.0
C686 C 0.82742 0.21797 0.47267 0.0
C687 C 0.83593 0.23585 0.47822 0.0
C688 C 0.82666 0.25571 0.49369 0.0
H689 H 0.94599 0.21506 0.41212 0.0
H690 H 0.92137 0.22065 0.44239 0.0
C691 C 0.80893 0.25806 0.50288 0.0
C692 C 0.85337 0.23534 0.46568 0.0
H693 H 0.8966 0.19603 0.44863 0.0
C694 C 0.8531 0.25651 0.45236 0.0
C695 C 0.86963 0.21371 0.46523 0.0
C696 C 0.87143 0.19112 0.48059 0.0
C697 C 0.86817 0.2561 0.43752 0.0
C698 C 0.88371 0.23368 0.43545 0.0
C699 C 0.88452 0.21306 0.44988 0.0
C700 C 0.89865 0.23078 0.41738 0.0
C701 C 0.86716 0.27961 0.42399 0.0
C702 C 0.89405 0.23422 0.3933 0.0
C703 C 0.90801 0.23115 0.37607 0.0
C704 C 0.92689 0.22421 0.38254 0.0
C705 C 0.93154 0.22033 0.40663 0.0
C706 C 0.91752 0.22359 0.42392 0.0
H707 H 0.85809 0.29674 0.43337 0.0
H708 H 0.88127 0.2812 0.42131 0.0
H709 H 0.86097 0.27907 0.40636 0.0
H710 H 0.87965 0.23899 0.38778 0.0
H711 H 0.90404 0.23376 0.35761 0.0
H712 H 0.74297 0.08663 0.73272 0.0
H713 H 0.74407 0.11676 0.70205 0.0
H714 H 0.73952 0.06517 0.64802 0.0
H715 H 0.73892 0.03462 0.67857 0.0
H716 H 0.76589 0.08528 0.63632 0.0
H717 H 0.70156 0.162 0.6642 0.0
H718 H 0.71831 0.15213 0.68749 0.0
H719 H 0.70759 0.13056 0.67593 0.0
C720 C 0.7421 0.0817 0.71433 0.0
C721 C 0.74077 0.05819 0.70818 0.0
C722 C 0.74261 0.09907 0.69677 0.0
C723 C 0.74149 0.09352 0.67267 0.0
C724 C 0.7403 0.06999 0.66647 0.0
H725 H 0.73731 0.17467 0.54005 0.0
H726 H 0.73693 0.14418 0.57082 0.0
C727 C 0.73995 0.05252 0.684 0.0
C728 C 0.74209 0.11192 0.65389 0.0
H729 H 0.7209 0.17245 0.63524 0.0
C730 C 0.75596 0.10428 0.63603 0.0
C731 C 0.72914 0.13676 0.65341 0.0
C732 C 0.7132 0.1458 0.67114 0.0
C733 C 0.75742 0.12086 0.61804 0.0
C734 C 0.74463 0.14572 0.61778 0.0
C735 C 0.73076 0.15341 0.63557 0.0
C736 C 0.74529 0.16396 0.59902 0.0
C737 C 0.77283 0.11182 0.59962 0.0
C738 C 0.74995 0.18534 0.60468 0.0
C739 C 0.75028 0.20278 0.58711 0.0
C740 C 0.7457 0.19936 0.56353 0.0
C741 C 0.74096 0.17792 0.55797 0.0
C742 C 0.74079 0.1604 0.57552 0.0
H743 H 0.78368 0.09392 0.60487 0.0
H744 H 0.76674 0.10863 0.58262 0.0
H745 H 0.77963 0.12623 0.59649 0.0
H746 H 0.75338 0.1885 0.62273 0.0
H747 H 0.7539 0.21911 0.59209 0.0
H748 H 0.94106 0.0418 0.955 0.0
H749 H 0.91045 0.04456 0.93991 0.0
H750 H 0.89832 0.01134 1.0043 0.0
H751 H 0.92909 0.00849 0.01975 0.0
H752 H 0.89984 0.99929 0.93505 0.0
H753 H 0.8503 0.07477 0.99052 0.0
H754 H 0.87452 0.07239 0.9864 0.0
H755 H 0.86863 0.05029 1.00501 0.0
C756 C 0.93183 0.03539 0.96617 0.0
C757 C 0.93755 0.02485 0.98855 0.0
C758 C 0.91434 0.03699 0.95749 0.0
C759 C 0.90219 0.02819 0.97101 0.0
C760 C 0.90748 0.01847 0.99373 0.0
H761 H 0.80902 1.00038 0.89808 0.0
H762 H 0.8346 0.99546 0.92588 0.0
C763 C 0.92504 0.01688 1.00251 0.0
C764 C 0.88468 0.02758 0.96025 0.0
H765 H 0.83741 0.05747 0.96001 0.0
C766 C 0.88613 0.01174 0.94066 0.0
C767 C 0.86693 0.04392 0.96769 0.0
C768 C 0.86483 0.06146 0.98849 0.0
C769 C 0.87033 0.01243 0.92768 0.0
C770 C 0.85259 0.02922 0.93473 0.0
C771 C 0.85104 0.04453 0.9548 0.0
C772 C 0.83587 0.03279 0.92006 0.0
C773 C 0.87287 0.9961 0.90585 0.0
C774 C 0.82781 0.05563 0.90817 0.0
C775 C 0.81329 0.05847 0.89228 0.0
C776 C 0.80651 0.03852 0.88804 0.0
C777 C 0.81417 0.01593 0.90066 0.0
C778 C 0.82871 0.01312 0.9166 0.0
H779 H 0.88784 0.98754 0.90057 0.0
H780 H 0.8672 0.98066 0.90945 0.0
H781 H 0.86509 0.0072 0.89071 0.0
H782 H 0.83322 0.07098 0.91055 0.0
H783 H 0.80785 0.076 0.88267 0.0
H784 H 0.05731 0.01009 1.00638 0.0
H785 H 0.08762 1.00352 0.02461 0.0
H786 H 0.07853 0.94774 0.07107 0.0
H787 H 0.04842 0.9537 0.05252 0.0
H788 H 0.09196 0.01366 0.06956 0.0
H789 H 0.13248 0.91366 0.05233 0.0
H790 H 0.11135 0.93018 0.03656 0.0
H791 H 0.11006 0.91732 0.06553 0.0
C792 C 0.06193 0.99602 0.02014 0.0
C793 C 0.05043 0.98245 0.02806 0.0
C794 C 0.07927 0.9923 0.03053 0.0
C795 C 0.08544 0.97497 0.04905 0.0
C796 C 0.07428 0.96076 0.05642 0.0
H797 H 0.15221 0.9831 0.16765 0.0
H798 H 0.12785 0.98579 0.13881 0.0
C799 C 0.057 0.96431 0.04588 0.0
C800 C 0.10243 0.97381 0.06239 0.0
H801 H 0.14299 0.93327 0.08469 0.0
C802 C 0.10324 0.99612 0.07257 0.0
C803 C 0.11728 0.95101 0.06607 0.0
C804 C 0.11787 0.92675 0.05432 0.0
C805 C 0.11809 0.99609 0.08714 0.0
C806 C 0.13227 0.97303 0.09213 0.0
C807 C 0.13194 0.95088 0.08112 0.0
C808 C 0.14714 0.97142 0.10945 0.0
C809 C 0.11839 0.02079 0.09709 0.0
C810 C 0.16609 0.96179 0.10267 0.0
C811 C 0.18006 0.96009 0.11918 0.0
C812 C 0.1753 0.96797 0.14276 0.0
C813 C 0.1563 0.97737 0.14951 0.0
C814 C 0.14238 0.97893 0.13305 0.0
H815 H 0.11024 0.03689 0.08594 0.0
H816 H 0.11191 0.02359 0.11508 0.0
H817 H 0.13293 0.02103 0.09848 0.0
H818 H 0.17005 0.95577 0.08456 0.0
H819 H 0.19458 0.9529 0.11343 0.0
H820 H 0.97397 0.43932 0.47235 0.0
H821 H 0.97482 0.40735 0.44259 0.0
H822 H 0.00896 0.43595 0.39676 0.0
H823 H 0.00842 0.4677 0.42644 0.0
H824 H 0.9625 0.41337 0.39611 0.0
H825 H 0.03878 0.36111 0.39804 0.0
H826 H 0.02692 0.38361 0.42066 0.0
H827 H 0.03312 0.39417 0.39266 0.0
C828 C 0.98178 0.43874 0.45601 0.0
C829 C -0.00877 0.45606 0.45193 0.0
C830 C 0.98221 0.42044 0.43898 0.0
C831 C -0.0078 0.41892 0.41755 0.0
C832 C 0.00151 0.43632 0.41334 0.0
H833 H 0.01015 0.32645 0.29004 0.0
H834 H 0.00952 0.35746 0.32066 0.0
C835 C 0.00109 0.4546 0.43034 0.0
C836 C -0.00751 0.39961 0.39934 0.0
H837 H 0.02176 0.35057 0.36704 0.0
C838 C 0.97545 0.39953 0.38987 0.0
C839 C 0.00938 0.38157 0.39111 0.0
C840 C 0.02809 0.37988 0.40127 0.0
C841 C 0.97487 0.38233 0.37208 0.0
C842 C -0.00823 0.36433 0.36378 0.0
C843 C 0.0088 0.36436 0.37332 0.0
C844 C -0.00789 0.34534 0.34522 0.0
C845 C 0.95617 0.38404 0.36187 0.0
C846 C 0.98276 0.32789 0.3489 0.0
C847 C 0.98307 0.31014 0.3314 0.0
C848 C -0.00715 0.30927 0.30984 0.0
C849 C 0.00244 0.32654 0.30636 0.0
C850 C 0.00211 0.34431 0.32388 0.0
H851 H 0.94542 0.40272 0.36533 0.0
H852 H 0.95731 0.38061 0.34244 0.0
H853 H 0.95122 0.36955 0.37025 0.0
H854 H 0.9753 0.32789 0.3654 0.0
H855 H 0.97561 0.29708 0.33482 0.0
H856 H 0.68389 0.23999 0.49974 0.0
H857 H 0.65228 0.24215 0.51267 0.0
H858 H 0.65157 0.29888 0.56421 0.0
H859 H 0.683 0.2967 0.55165 0.0
H860 H 0.64422 0.2324 0.56178 0.0
H861 H 0.59968 0.32653 0.53161 0.0
H862 H 0.62215 0.30966 0.51811 0.0
H863 H 0.62088 0.32675 0.54534 0.0
C864 C 0.67678 0.25331 0.51346 0.0
C865 C 0.68585 0.2682 0.52474 0.0
C866 C 0.6588 0.25446 0.52083 0.0
C867 C 0.64957 0.2709 0.53915 0.0
C868 C 0.65836 0.2864 0.54975 0.0
H869 H 0.57062 0.31037 0.64692 0.0
H870 H 0.59381 0.30452 0.61512 0.0
C871 C 0.67635 0.28501 0.54267 0.0
C872 C 0.63166 0.27032 0.54929 0.0
H873 H 0.58828 0.30954 0.56556 0.0
C874 C 0.63174 0.24896 0.56212 0.0
C875 C 0.61549 0.29197 0.5496 0.0
C876 C 0.61443 0.31496 0.53523 0.0
C877 C 0.61662 0.24948 0.577 0.0
C878 C 0.60098 0.27182 0.57864 0.0
C879 C 0.60035 0.29249 0.56437 0.0
C880 C 0.58638 0.27534 0.59722 0.0
C881 C 0.61808 0.22684 0.59216 0.0
C882 C 0.57447 0.2609 0.59762 0.0
C883 C 0.56116 0.2642 0.61586 0.0
C884 C 0.55949 0.28215 0.63382 0.0
C885 C 0.57138 0.29666 0.63318 0.0
C886 C 0.58465 0.2933 0.61505 0.0
H887 H 0.63227 0.21243 0.59123 0.0
H888 H 0.61469 0.23255 0.61096 0.0
H889 H 0.60784 0.21805 0.58604 0.0
H890 H 0.57542 0.24719 0.58382 0.0
H891 H 0.55202 0.25297 0.61576 0.0
H892 H 0.7245 0.93464 0.79575 0.0
H893 H 0.72494 0.90414 0.82685 0.0
H894 H 0.76075 0.93238 0.86887 0.0
H895 H 0.76035 0.96304 0.83797 0.0
H896 H 0.75641 0.8661 0.84651 0.0
H897 H 0.71708 0.93525 0.91466 0.0
H898 H 0.71733 0.94318 0.88365 0.0
H899 H 0.73705 0.94117 0.90187 0.0
C900 C 0.73245 0.93445 0.81162 0.0
C901 C 0.74231 0.95145 0.81436 0.0
C902 C 0.7327 0.91695 0.82937 0.0
C903 C 0.74265 0.9162 0.85034 0.0
C904 C 0.75269 0.9329 0.85303 0.0
H905 H 0.75918 0.82687 0.9793 0.0
H906 H 0.75898 0.85712 0.94812 0.0
C907 C 0.75252 0.95035 0.83526 0.0
C908 C 0.74274 0.89769 0.86922 0.0
H909 H 0.72994 0.89284 0.92688 0.0
C910 C 0.75056 0.87192 0.86407 0.0
C911 C 0.73517 0.90532 0.89214 0.0
C912 C 0.72603 0.93272 0.89846 0.0
C913 C 0.75132 0.85356 0.88131 0.0
C914 C 0.74363 0.86117 0.90422 0.0
C915 C 0.73582 0.88698 0.90935 0.0
C916 C 0.74361 0.84269 0.92314 0.0
C917 C 0.76081 0.82622 0.87499 0.0
C918 C 0.73478 0.82468 0.9197 0.0
C919 C 0.73493 0.80724 0.93748 0.0
C920 C 0.74375 0.80759 0.95923 0.0
C921 C 0.75227 0.82597 0.96279 0.0
C922 C 0.75217 0.84333 0.94496 0.0
H923 H 0.77048 0.82393 0.85953 0.0
H924 H 0.76885 0.81556 0.89017 0.0
H925 H 0.75002 0.81779 0.87023 0.0
H926 H 0.72767 0.82417 0.90328 0.0
H927 H 0.72812 0.7935 0.93415 0.0
H928 H 0.18366 0.23301 1.00869 0.0
H929 H 0.15146 0.23829 0.02066 0.0
H930 H 0.14517 0.31164 0.04913 0.0
H931 H 0.17717 0.30676 0.03694 0.0
H932 H 0.13949 0.24375 0.06655 0.0
H933 H 0.09612 0.32518 0.01472 0.0
H934 H 0.12018 0.3079 1.00692 0.0
H935 H 0.11475 0.33175 0.02963 0.0
C936 C 0.17533 0.25048 0.0171 0.0
C937 C 0.18303 0.26943 0.02196 0.0
C938 C 0.15691 0.25346 0.02388 0.0
C939 C 0.14584 0.27548 0.03549 0.0
C940 C 0.1533 0.29475 0.03967 0.0
H941 H 0.05515 0.32846 0.13077 0.0
H942 H 0.08019 0.32191 0.10133 0.0
C943 C 0.17168 0.29182 0.03287 0.0
C944 C 0.12739 0.27719 0.04579 0.0
H945 H 0.08196 0.31588 0.05063 0.0
C946 C 0.12679 0.2592 0.06271 0.0
C947 C 0.11089 0.29739 0.04074 0.0
C948 C 0.11045 0.3165 0.02182 0.0
C949 C 0.11042 0.26169 0.07578 0.0
C950 C 0.09414 0.28254 0.07151 0.0
C951 C 0.09449 0.29994 0.05385 0.0
C952 C 0.07733 0.28789 0.08691 0.0
C953 C 0.11096 0.24281 0.09501 0.0
C954 C 0.06707 0.27129 0.08803 0.0
C955 C 0.05267 0.27502 0.10484 0.0
C956 C 0.04827 0.29548 0.12069 0.0
C957 C 0.05801 0.3127 0.11867 0.0
C958 C 0.07238 0.30894 0.1019 0.0
H959 H 0.12546 0.23034 0.0987 0.0
H960 H 0.10461 0.25252 0.11171 0.0
H961 H 0.10274 0.23083 0.08942 0.0
H962 H 0.07053 0.25513 0.07633 0.0
H963 H 0.04522 0.26166 0.10573 0.0
H964 H 0.74329 0.42299 0.29306 0.0
H965 H 0.74282 0.39374 0.32483 0.0
H966 H 0.72864 0.45454 0.37553 0.0
H967 H 0.72894 0.4841 0.34378 0.0
H968 H 0.7652 0.38326 0.36561 0.0
H969 H 0.68954 0.42009 0.38961 0.0
H970 H 0.69867 0.42806 0.36213 0.0
H971 H 0.70129 0.44299 0.38932 0.0
C972 C 0.73989 0.43029 0.3109 0.0
C973 C 0.73607 0.45602 0.31576 0.0
C974 C 0.73967 0.41347 0.32909 0.0
C975 C 0.73549 0.42194 0.35255 0.0
C976 C 0.73157 0.44761 0.3575 0.0
H977 H 0.73023 0.34221 0.48446 0.0
H978 H 0.72943 0.37415 0.45461 0.0
C979 C 0.73183 0.46449 0.33931 0.0
C980 C 0.73598 0.40366 0.37183 0.0
H981 H 0.70892 0.38768 0.4137 0.0
C982 C 0.75289 0.38421 0.3761 0.0
C983 C 0.71994 0.40498 0.38564 0.0
C984 C 0.70127 0.42501 0.38141 0.0
C985 C 0.75424 0.36615 0.39384 0.0
C986 C 0.73813 0.36718 0.40738 0.0
C987 C 0.72126 0.38683 0.40332 0.0
C988 C 0.73843 0.34776 0.42549 0.0
C989 C 0.77304 0.34641 0.39817 0.0
C990 C 0.74344 0.32229 0.41904 0.0
C991 C 0.74396 0.30398 0.43605 0.0
C992 C 0.7393 0.3107 0.45993 0.0
C993 C 0.73392 0.3363 0.46627 0.0
C994 C 0.73345 0.35462 0.44922 0.0
H995 H 0.78472 0.35252 0.39157 0.0
H996 H 0.7751 0.34196 0.41734 0.0
H997 H 0.77382 0.32892 0.38857 0.0
H998 H 0.74689 0.31655 0.40077 0.0
H999 H 0.74802 0.28452 0.43042 0.0
H1000 H 0.5435 0.95744 0.55215 0.0
H1001 H 0.57382 0.95272 0.56956 0.0
H1002 H 0.58216 1.00573 0.51917 0.0
H1003 H 0.55157 0.01118 0.50208 0.0
H1004 H 0.61013 0.93901 0.55382 0.0
H1005 H 0.58433 0.03932 0.58193 0.0
H1006 H 0.56904 0.02384 0.57008 0.0
H1007 H 0.58377 0.03449 0.55054 0.0
C1008 C 0.55189 0.96782 0.54452 0.0
C1009 C 0.54501 0.98498 0.52599 0.0
C1010 C 0.56922 0.9651 0.55449 0.0
C1011 C 0.58002 0.97933 0.54601 0.0
C1012 C 0.57381 0.99508 0.52638 0.0
H1013 H 0.69091 0.95741 0.60693 0.0
H1014 H 0.66626 0.95991 0.57829 0.0
C1015 C 0.55637 0.99807 0.51657 0.0
C1016 C 0.59703 0.97891 0.55885 0.0
H1017 H 0.61532 0.01574 0.59159 0.0
C1018 C 0.61137 0.95579 0.56195 0.0
C1019 C 0.59845 1.00083 0.56967 0.0
C1020 C 0.58303 0.02599 0.56812 0.0
C1021 C 0.62694 0.95387 0.57602 0.0
C1022 C 0.62835 0.97581 0.58678 0.0
C1023 C 0.61424 0.99901 0.58317 0.0
C1024 C 0.64346 0.9749 0.6035 0.0
C1025 C 0.64125 0.92824 0.5801 0.0
C1026 C 0.63878 0.98326 0.62691 0.0
C1027 C 0.65276 0.98217 0.64312 0.0
C1028 C 0.67171 0.97263 0.63627 0.0
C1029 C 0.67641 0.96459 0.61272 0.0
C1030 C 0.66237 0.96591 0.59641 0.0
H1031 H 0.6359 0.91286 0.57511 0.0
H1032 H 0.65391 0.92626 0.56911 0.0
H1033 H 0.64547 0.92583 0.59898 0.0
H1034 H 0.62428 0.99027 0.63275 0.0
H1035 H 0.64873 0.9882 0.66121 0.0
H1036 H 0.97691 0.93336 0.9777 0.0
H1037 H 0.97649 0.90254 0.94739 0.0
H1038 H 0.01417 0.92688 0.90353 0.0
H1039 H 0.01482 0.95759 0.93376 0.0
H1040 H 0.96518 0.91137 0.89996 0.0
H1041 H 0.03957 0.85034 0.90492 0.0
H1042 H 0.0283 0.87301 0.92768 0.0
H1043 H 0.03623 0.88309 0.90053 0.0
C1044 C 0.98525 0.93205 0.96171 0.0
C1045 C -0.004 0.94793 0.9583 0.0
C1046 C 0.98495 0.91443 0.94435 0.0
C1047 C -0.0045 0.91211 0.9233 0.0
C1048 C 0.0062 0.92794 0.91982 0.0
H1049 H 0.01151 0.82225 0.79482 0.0
H1050 H 0.01218 0.85135 0.82658 0.0
C1051 C 0.00648 0.94561 0.93712 0.0
C1052 C -0.00517 0.89372 0.90467 0.0
H1053 H 0.02206 0.84267 0.873 0.0
C1054 C 0.97759 0.89624 0.89416 0.0
C1055 C 0.01103 0.87402 0.89703 0.0
C1056 C 0.02982 0.86972 0.90824 0.0
C1057 C 0.97619 0.88001 0.87588 0.0
C1058 C -0.0076 0.86032 0.86821 0.0
C1059 C 0.00963 0.85773 0.87883 0.0
C1060 C -0.00811 0.84242 0.84898 0.0
C1061 C 0.95743 0.88463 0.86449 0.0
C1062 C 0.98045 0.82736 0.85104 0.0
C1063 C 0.97996 0.81072 0.83281 0.0
C1064 C -0.00894 0.80856 0.81218 0.0
C1065 C 0.00275 0.82337 0.81038 0.0
C1066 C 0.00316 0.84006 0.82857 0.0
H1067 H 0.94783 0.90413 0.8677 0.0
H1068 H 0.95901 0.88131 0.84505 0.0
H1069 H 0.95077 0.87153 0.87217 0.0
H1070 H 0.97196 0.82833 0.86683 0.0
H1071 H 0.97091 0.7995 0.83496 0.0
H1072 H 0.08031 0.05812 0.98544 0.0
H1073 H 0.11044 0.06507 0.98583 0.0
H1074 H 0.09398 0.11446 0.92566 0.0
H1075 H 0.0636 0.10791 0.9253 0.0
H1076 H 0.13092 0.0756 0.92252 0.0
H1077 H 0.11895 0.13135 1.00619 0.0
H1078 H 0.1146 0.10192 1.00749 0.0
H1079 H 0.10001 0.12703 0.98962 0.0
C1080 C 0.08295 0.07081 0.97253 0.0
C1081 C 0.06951 0.08268 0.95546 0.0
C1082 C 0.1002 0.07463 0.97272 0.0
C1083 C 0.10429 0.09041 0.9559 0.0
C1084 C 0.091 0.10221 0.93877 0.0
H1085 H 0.18955 0.15125 0.92055 0.0
H1086 H 0.16488 0.13252 0.92012 0.0
C1087 C 0.07371 0.09843 0.93857 0.0
C1088 C 0.12251 0.09449 0.95604 0.0
H1089 H 0.14846 0.12213 0.9876 0.0
C1090 C 0.13483 0.08568 0.93676 0.0
C1091 C 0.12755 0.10741 0.97479 0.0
C1092 C 0.11458 0.11767 0.99566 0.0
C1093 C 0.15209 0.08975 0.9356 0.0
C1094 C 0.15688 0.10339 0.954 0.0
C1095 C 0.14476 0.11158 0.97358 0.0
C1096 C 0.17356 0.11135 0.95246 0.0
C1097 C 0.16502 0.07944 0.91473 0.0
C1098 C 0.18669 0.10555 0.97074 0.0
C1099 C 0.20083 0.11629 0.97106 0.0
C1100 C 0.20197 0.13313 0.95317 0.0
C1101 C 0.18928 0.138 0.93435 0.0
C1102 C 0.17516 0.12729 0.93406 0.0
H1103 H 0.16234 0.06302 0.90668 0.0
H1104 H 0.16257 0.09421 0.90096 0.0
H1105 H 0.17993 0.07366 0.91999 0.0
H1106 H 0.18561 0.09336 0.98515 0.0
H1107 H 0.21051 0.11205 0.98569 0.0
H1108 H 0.68044 0.53551 0.22635 0.0
H1109 H 0.65011 0.56827 0.21976 0.0
H1110 H 0.65841 0.60827 0.28149 0.0
H1111 H 0.68886 0.57627 0.2876 0.0
H1112 H 0.61915 0.58483 0.24562 0.0
H1113 H 0.64662 0.66303 0.23294 0.0
H1114 H 0.66168 0.63057 0.23315 0.0
H1115 H 0.65451 0.64771 0.26057 0.0
C1116 C 0.67568 0.55125 0.23855 0.0
C1117 C 0.68696 0.55358 0.25736 0.0
C1118 C 0.65847 0.56997 0.23469 0.0
C1119 C 0.65235 0.59106 0.2497 0.0
C1120 C 0.66323 0.59266 0.26916 0.0
H1121 H 0.54368 0.68337 0.28888 0.0
H1122 H 0.57444 0.65165 0.28271 0.0
C1123 C 0.6805 0.57424 0.27279 0.0
C1124 C 0.63429 0.61109 0.2458 0.0
H1125 H 0.61405 0.67487 0.24568 0.0
C1126 C 0.61803 0.60451 0.24518 0.0
C1127 C 0.63289 0.63671 0.24445 0.0
C1128 C 0.64991 0.64486 0.24252 0.0
C1129 C 0.6003 0.623 0.24505 0.0
C1130 C 0.59891 0.64861 0.24646 0.0
C1131 C 0.61517 0.6552 0.24524 0.0
C1132 C 0.58081 0.66866 0.25071 0.0
C1133 C 0.58329 0.61484 0.24372 0.0
C1134 C 0.5748 0.68959 0.23566 0.0
C1135 C 0.55744 0.70814 0.23957 0.0
C1136 C 0.54588 0.70582 0.25847 0.0
C1137 C 0.55227 0.68539 0.27402 0.0
C1138 C 0.56971 0.66714 0.27035 0.0
H1139 H 0.58658 0.59663 0.23416 0.0
H1140 H 0.57864 0.61209 0.26194 0.0
H1141 H 0.57155 0.62909 0.23464 0.0
H1142 H 0.58331 0.69125 0.22059 0.0
H1143 H 0.55275 0.72366 0.22727 0.0
H1144 H 0.26778 0.90454 0.54801 0.0
H1145 H 0.29093 0.92625 0.54865 0.0
H1146 H 0.32025 0.87735 0.60473 0.0
H1147 H 0.29715 0.85584 0.60437 0.0
H1148 H 0.31858 0.92679 0.61112 0.0
H1149 H 0.34291 0.89264 0.51992 0.0
H1150 H 0.31857 0.91116 0.52268 0.0
H1151 H 0.3272 0.88097 0.53684 0.0
C1152 C 0.27908 0.89862 0.56061 0.0
C1153 C 0.28074 0.87841 0.57604 0.0
C1154 C 0.29229 0.91098 0.56092 0.0
C1155 C 0.30747 0.90306 0.57642 0.0
C1156 C 0.30863 0.88372 0.59261 0.0
H1157 H 0.4158 0.91261 0.59811 0.0
H1158 H 0.38546 0.90624 0.60074 0.0
C1159 C 0.29539 0.8715 0.59244 0.0
C1160 C 0.32286 0.91365 0.57497 0.0
H1161 H 0.35863 0.91662 0.53899 0.0
C1162 C 0.32725 0.92478 0.5953 0.0
C1163 C 0.33417 0.9109 0.55429 0.0
C1164 C 0.33064 0.8981 0.53223 0.0
C1165 C 0.34286 0.93285 0.59564 0.0
C1166 C 0.35439 0.92948 0.57518 0.0
C1167 C 0.34967 0.91917 0.55461 0.0
C1168 C 0.37211 0.93501 0.57511 0.0
C1169 C 0.34703 0.94469 0.61789 0.0
C1170 C 0.3746 0.95318 0.55972 0.0
C1171 C 0.39187 0.95696 0.55825 0.0
C1172 C 0.40703 0.94237 0.57194 0.0
C1173 C 0.40436 0.92438 0.58758 0.0
C1174 C 0.38705 0.92073 0.58912 0.0
H1175 H 0.33452 0.9517 0.6297 0.0
H1176 H 0.35821 0.93043 0.62778 0.0
H1177 H 0.35209 0.96056 0.61353 0.0
H1178 H 0.36322 0.96429 0.5487 0.0
H1179 H 0.39335 0.97128 0.54634 0.0
H1180 H 0.02994 0.69515 0.80528 0.0
H1181 H 0.05949 0.66156 0.81352 0.0
H1182 H 0.08413 0.68087 0.75022 0.0
H1183 H 0.05481 0.71434 0.74179 0.0
H1184 H 0.07814 0.62029 0.78064 0.0
H1185 H 0.12196 0.67801 0.80444 0.0
H1186 H 0.09667 0.68996 0.80582 0.0
H1187 H 0.10873 0.68801 0.77786 0.0
C1188 C 0.04172 0.69241 0.79327 0.0
C1189 C 0.04009 0.70735 0.77288 0.0
C1190 C 0.05852 0.67323 0.79799 0.0
C1191 C 0.07392 0.66905 0.78259 0.0
C1192 C 0.07241 0.68414 0.76245 0.0
H1193 H 0.1698 0.54967 0.73997 0.0
H1194 H 0.13834 0.57954 0.74687 0.0
C1195 C 0.05563 0.70314 0.75761 0.0
C1196 C 0.09138 0.64809 0.78658 0.0
H1197 H 0.13826 0.63534 0.79295 0.0
C1198 C 0.09127 0.62345 0.78377 0.0
C1199 C 0.10836 0.65242 0.79093 0.0
C1200 C 0.10899 0.67852 0.79517 0.0
C1201 C 0.108 0.60297 0.78379 0.0
C1202 C 0.12512 0.60748 0.78644 0.0
C1203 C 0.12508 0.63201 0.79069 0.0
C1204 C 0.14335 0.58743 0.78325 0.0
C1205 C 0.10725 0.57679 0.78052 0.0
C1206 C 0.15655 0.58219 0.80138 0.0
C1207 C 0.17455 0.56533 0.79745 0.0
C1208 C 0.17969 0.55358 0.77523 0.0
C1209 C 0.16627 0.55839 0.75728 0.0
C1210 C 0.14825 0.57529 0.76125 0.0
H1211 H 0.09339 0.57573 0.78594 0.0
H1212 H 0.10956 0.57152 0.7615 0.0
H1213 H 0.1183 0.56284 0.7909 0.0
H1214 H 0.15301 0.59155 0.81842 0.0
H1215 H 0.18454 0.56197 0.8117 0.0
H1216 H 0.77837 0.39541 0.54295 0.0
H1217 H 0.80317 0.41429 0.54499 0.0
H1218 H 0.82347 0.37311 0.60913 0.0
H1219 H 0.79902 0.35386 0.60708 0.0
H1220 H 0.81527 0.44113 0.58712 0.0
H1221 H 0.86655 0.35048 0.55531 0.0
H1222 H 0.84168 0.3588 0.55063 0.0
H1223 H 0.85115 0.34901 0.57941 0.0
C1224 C 0.788 0.39061 0.55762 0.0
C1225 C 0.78683 0.37305 0.57477 0.0
C1226 C 0.80204 0.40151 0.55882 0.0
C1227 C 0.81511 0.39488 0.57711 0.0
C1228 C 0.81345 0.37836 0.59488 0.0
H1229 H 0.92356 0.41127 0.59518 0.0
H1230 H 0.89491 0.40077 0.59977 0.0
C1231 C 0.79941 0.36752 0.59374 0.0
C1232 C 0.83148 0.40343 0.57654 0.0
H1233 H 0.87844 0.38272 0.56509 0.0
C1234 C 0.82911 0.42846 0.58231 0.0
C1235 C 0.84941 0.38671 0.57026 0.0
C1236 C 0.85247 0.35976 0.56338 0.0
C1237 C 0.84444 0.43719 0.58233 0.0
C1238 C 0.8624 0.42048 0.5759 0.0
C1239 C 0.86467 0.39544 0.57011 0.0
C1240 C 0.87908 0.42849 0.57459 0.0
C1241 C 0.84132 0.46401 0.58966 0.0
C1242 C 0.87964 0.44758 0.55894 0.0
C1243 C 0.89591 0.45381 0.55649 0.0
C1244 C 0.91202 0.44082 0.56939 0.0
C1245 C 0.91134 0.42185 0.58521 0.0
C1246 C 0.89502 0.41573 0.58776 0.0
H1247 H 0.82831 0.47185 0.6005 0.0
H1248 H 0.85331 0.46545 0.59996 0.0
H1249 H 0.83986 0.47581 0.57355 0.0
H1250 H 0.86764 0.45728 0.54823 0.0
H1251 H 0.89588 0.46875 0.54437 0.0
H1252 H 0.29907 0.95626 0.22608 0.0
H1253 H 0.32974 0.92332 0.22696 0.0
H1254 H 0.33167 0.93206 0.30271 0.0
H1255 H 0.301 0.96513 0.30214 0.0
H1256 H 0.36614 0.92541 0.25042 0.0
H1257 H 0.33503 0.85575 0.28622 0.0
H1258 H 0.32131 0.88345 0.27029 0.0
H1259 H 0.32847 0.88632 0.30001 0.0
C1260 C 0.3061 0.95141 0.24291 0.0
C1261 C 0.29758 0.96309 0.26408 0.0
C1262 C 0.32358 0.93266 0.24334 0.0
C1263 C 0.33268 0.92529 0.26492 0.0
C1264 C 0.32465 0.93756 0.28595 0.0
H1265 H 0.43112 0.79931 0.29925 0.0
H1266 H 0.40156 0.83431 0.30063 0.0
C1267 C 0.3072 0.95643 0.28554 0.0
C1268 C 0.35015 0.90384 0.26548 0.0
H1269 H 0.36756 0.84151 0.27905 0.0
C1270 C 0.36655 0.90705 0.25672 0.0
C1271 C 0.3504 0.88012 0.27381 0.0
C1272 C 0.33289 0.87596 0.28305 0.0
C1273 C 0.38345 0.88692 0.25612 0.0
C1274 C 0.38365 0.86298 0.26392 0.0
C1275 C 0.36724 0.8599 0.27298 0.0
C1276 C 0.4008 0.84087 0.26279 0.0
C1277 C 0.40096 0.89154 0.24748 0.0
C1278 C 0.4097 0.83253 0.24093 0.0
C1279 C 0.4266 0.81266 0.24006 0.0
C1280 C 0.43471 0.80067 0.26104 0.0
C1281 C 0.42524 0.80823 0.28279 0.0
C1282 C 0.40839 0.82823 0.28364 0.0
H1283 H 0.39947 0.91179 0.24841 0.0
H1284 H 0.41328 0.88065 0.25802 0.0
H1285 H 0.4037 0.88547 0.22869 0.0
H1286 H 0.40372 0.84169 0.2246 0.0
H1287 H 0.43348 0.80706 0.22302 0.0
H1288 H 0.28204 0.42674 0.75108 0.0
H1289 H 0.3138 0.39701 0.74959 0.0
H1290 H 0.33576 0.45795 0.7573 0.0
H1291 H 0.30382 0.48803 0.75947 0.0
H1292 H 0.34229 0.39331 0.71857 0.0
H1293 H 0.36151 0.41039 0.81024 0.0
H1294 H 0.33774 0.42214 0.79989 0.0
H1295 H 0.35404 0.43779 0.79172 0.0
C1296 C 0.29358 0.43392 0.75244 0.0
C1297 C 0.29042 0.45975 0.75551 0.0
C1298 C 0.31173 0.41687 0.75156 0.0
C1299 C 0.32707 0.42528 0.75363 0.0
C1300 C 0.32405 0.45109 0.75615 0.0
H1301 H 0.44056 0.32487 0.72335 0.0
H1302 H 0.41063 0.35906 0.72186 0.0
C1303 C 0.30582 0.46822 0.75725 0.0
C1304 C 0.34614 0.4067 0.75321 0.0
H1305 H 0.38492 0.38135 0.78691 0.0
C1306 C 0.35168 0.39073 0.73344 0.0
C1307 C 0.35818 0.40328 0.77281 0.0
C1308 C 0.35256 0.41913 0.79497 0.0
C1309 C 0.36885 0.37107 0.73288 0.0
C1310 C 0.38097 0.36781 0.75237 0.0
C1311 C 0.37557 0.38403 0.77198 0.0
C1312 C 0.39907 0.34714 0.75316 0.0
C1313 C 0.37352 0.35345 0.71184 0.0
C1314 C 0.40261 0.32949 0.77158 0.0
C1315 C 0.41978 0.31012 0.77268 0.0
C1316 C 0.43366 0.30807 0.7553 0.0
C1317 C 0.43005 0.32576 0.73684 0.0
C1318 C 0.41294 0.34527 0.7359 0.0
H1319 H 0.36082 0.35445 0.70168 0.0
H1320 H 0.3832 0.35879 0.69971 0.0
H1321 H 0.3805 0.33369 0.71749 0.0
H1322 H 0.39205 0.33071 0.7851 0.0
H1323 H 0.42218 0.29679 0.78714 0.0
H1324 H 0.18283 0.78868 0.55433 0.0
H1325 H 0.15115 0.7892 0.56285 0.0
H1326 H 0.15128 0.74913 0.49774 0.0
H1327 H 0.18335 0.7482 0.48908 0.0
H1328 H 0.11699 0.80695 0.5367 0.0
H1329 H 0.14245 0.70312 0.55096 0.0
H1330 H 0.15849 0.7206 0.54924 0.0
H1331 H 0.14722 0.71529 0.52298 0.0
C1332 C 0.17611 0.78018 0.54164 0.0
C1333 C 0.18568 0.76815 0.52117 0.0
C1334 C 0.15795 0.78063 0.54648 0.0
C1335 C 0.14899 0.769 0.53103 0.0
C1336 C 0.15808 0.75799 0.50997 0.0
H1337 H 0.04048 0.78338 0.60018 0.0
H1338 H 0.06128 0.77815 0.56532 0.0
C1339 C 0.17634 0.75759 0.50504 0.0
C1340 C 0.13081 0.76694 0.53854 0.0
H1341 H 0.11316 0.72621 0.56702 0.0
C1342 C 0.11581 0.78924 0.54266 0.0
C1343 C 0.12944 0.74373 0.54624 0.0
C1344 C 0.14522 0.71924 0.54228 0.0
C1345 C 0.10019 0.78926 0.55628 0.0
C1346 C 0.09958 0.76629 0.56572 0.0
C1347 C 0.11375 0.74372 0.55969 0.0
C1348 C 0.08677 0.76603 0.5856 0.0
C1349 C 0.08535 0.81405 0.56235 0.0
C1350 C 0.09431 0.76006 0.60829 0.0
C1351 C 0.08257 0.76298 0.62805 0.0
C1352 C 0.06305 0.77186 0.62548 0.0
C1353 C 0.05549 0.77651 0.6026 0.0
C1354 C 0.06731 0.77366 0.58275 0.0
H1355 H 0.08869 0.83034 0.55494 0.0
H1356 H 0.07172 0.81436 0.55517 0.0
H1357 H 0.08373 0.81635 0.58189 0.0
H1358 H 0.10931 0.75413 0.61084 0.0
H1359 H 0.08876 0.75889 0.64544 0.0
H1360 H 0.23008 0.98512 0.34695 0.0
H1361 H 0.22984 0.95517 0.3783 0.0
H1362 H 0.24884 0.89408 0.32806 0.0
H1363 H 0.24882 0.92384 0.29655 0.0
H1364 H 0.21991 0.89084 0.3561 0.0
H1365 H 0.27462 0.90695 0.412 0.0
H1366 H 0.25535 0.93493 0.40563 0.0
H1367 H 0.2705 0.91825 0.38193 0.0
C1368 C 0.23425 0.96531 0.34254 0.0
C1369 C 0.23951 0.95695 0.31916 0.0
C1370 C 0.23422 0.94817 0.36056 0.0
C1371 C 0.23963 0.92228 0.35567 0.0
C1372 C 0.2447 0.91393 0.33232 0.0
H1373 H 0.25237 0.78455 0.43319 0.0
H1374 H 0.25134 0.81663 0.40357 0.0
C1375 C 0.24469 0.93102 0.3143 0.0
C1376 C 0.2396 0.90386 0.37465 0.0
H1377 H 0.25875 0.88065 0.42801 0.0
C1378 C 0.22844 0.88859 0.37179 0.0
C1379 C 0.2507 0.90093 0.39519 0.0
C1380 C 0.26361 0.91595 0.39886 0.0
C1381 C 0.22795 0.87065 0.38891 0.0
C1382 C 0.23914 0.86759 0.40934 0.0
C1383 C 0.25016 0.88302 0.41236 0.0
C1384 C 0.23988 0.84812 0.42752 0.0
C1385 C 0.21524 0.85536 0.38513 0.0
C1386 C 0.2342 0.85506 0.45103 0.0
C1387 C 0.23481 0.83672 0.4681 0.0
C1388 C 0.24127 0.811 0.46204 0.0
C1389 C 0.24721 0.80413 0.43852 0.0
C1390 C 0.24654 0.82248 0.42148 0.0
H1391 H 0.20413 0.86436 0.37211 0.0
H1392 H 0.22364 0.83653 0.37815 0.0
H1393 H 0.20851 0.85271 0.40206 0.0
H1394 H 0.22914 0.87472 0.45614 0.0
H1395 H 0.23024 0.84272 0.48605 0.0
H1396 H 0.98672 0.67964 0.72181 0.0
H1397 H 0.9868 0.65096 0.68934 0.0
H1398 H 0.98745 0.70791 0.63858 0.0
H1399 H 0.98783 0.73654 0.67094 0.0
H1400 H 0.96183 0.65469 0.65459 0.0
H1401 H 0.03018 0.64876 0.61385 0.0
H1402 H 0.02283 0.66255 0.6427 0.0
H1403 H 0.01409 0.6803 0.6163 0.0
C1404 C 0.98695 0.6861 0.70375 0.0
C1405 C 0.98735 0.71045 0.69908 0.0
C1406 C 0.98699 0.66963 0.68516 0.0
C1407 C 0.98746 0.67703 0.66142 0.0
C1408 C 0.98757 0.70145 0.65669 0.0
H1409 H 0.98398 0.59935 0.52741 0.0
H1410 H 0.98325 0.63107 0.55755 0.0
C1411 C 0.98764 0.71791 0.67528 0.0
C1412 C 0.98736 0.65935 0.64176 0.0
H1413 H 0.0117 0.6295 0.59263 0.0
C1414 C 0.97277 0.64917 0.6411 0.0
C1415 C 0.0016 0.6521 0.62403 0.0
C1416 C 0.01816 0.66128 0.62431 0.0
C1417 C 0.972 0.63215 0.62326 0.0
C1418 C 0.98627 0.62484 0.60565 0.0
C1419 C 0.00073 0.63521 0.60607 0.0
C1420 C 0.9868 0.60567 0.58725 0.0
C1421 C 0.95579 0.62226 0.62327 0.0
C1422 C 0.9893 0.58077 0.59387 0.0
C1423 C 0.9898 0.56262 0.57674 0.0
C1424 C 0.9878 0.56891 0.55251 0.0
C1425 C 0.98545 0.59385 0.54588 0.0
C1426 C 0.98507 0.61201 0.56308 0.0
H1427 H 0.94382 0.63418 0.63418 0.0
H1428 H 0.95091 0.6212 0.60494 0.0
H1429 H 0.96041 0.603 0.63079 0.0
H1430 H -0.00905 0.57533 0.61235 0.0
H1431 H -0.00831 0.54364 0.58257 0.0
H1432 H 0.30436 0.71059 0.47972 0.0
H1433 H 0.3358 0.70747 0.46692 0.0
H1434 H 0.33448 0.76823 0.51411 0.0
H1435 H 0.30251 0.77218 0.52634 0.0
H1436 H 0.34519 0.77717 0.47275 0.0
H1437 H 0.38676 0.67921 0.49299 0.0
H1438 H 0.36692 0.67931 0.47606 0.0
H1439 H 0.36346 0.69386 0.50503 0.0
C1440 C 0.31086 0.72297 0.48778 0.0
C1441 C 0.30091 0.74168 0.50401 0.0
C1442 C 0.32897 0.721 0.48059 0.0
C1443 C 0.33772 0.73727 0.48988 0.0
C1444 C 0.32808 0.75535 0.5068 0.0
H1445 H 0.4482 0.71071 0.42263 0.0
H1446 H 0.42491 0.71659 0.45471 0.0
C1447 C 0.30981 0.7576 0.51376 0.0
C1448 C 0.35586 0.73728 0.47964 0.0
H1449 H 0.39783 0.69773 0.45891 0.0
C1450 C 0.35689 0.75987 0.47026 0.0
C1451 C 0.3714 0.71494 0.47685 0.0
C1452 C 0.37213 0.69057 0.48856 0.0
C1453 C 0.37231 0.76032 0.45652 0.0
C1454 C 0.38679 0.73744 0.45133 0.0
C1455 C 0.38653 0.71522 0.46238 0.0
C1456 C 0.40118 0.73569 0.43273 0.0
C1457 C 0.37269 0.78528 0.4473 0.0
C1458 C 0.39558 0.74432 0.40975 0.0
C1459 C 0.40881 0.7412 0.39158 0.0
C1460 C 0.4279 0.72893 0.39588 0.0
C1461 C 0.43355 0.72022 0.41886 0.0
C1462 C 0.42029 0.72362 0.43717 0.0
H1463 H 0.36541 0.80074 0.45983 0.0
H1464 H 0.38723 0.78519 0.44441 0.0
H1465 H 0.36517 0.78945 0.43022 0.0
H1466 H 0.3809 0.75283 0.40563 0.0
H1467 H 0.40401 0.74759 0.37393 0.0
H1468 H 0.22592 0.04589 0.18576 0.0
H1469 H 0.2267 0.07534 0.15428 0.0
H1470 H 0.26113 0.10492 0.19741 0.0
H1471 H 0.26065 0.07528 0.22895 0.0
H1472 H 0.21427 0.12707 0.15515 0.0
H1473 H 0.29042 0.09013 0.13482 0.0
H1474 H 0.27875 0.07288 0.15238 0.0
H1475 H 0.28493 0.09802 0.1655 0.0
C1476 C 0.23377 0.05854 0.18858 0.0
C1477 C 0.24331 0.05806 0.20993 0.0
C1478 C 0.23417 0.07541 0.17052 0.0
C1479 C 0.2442 0.09212 0.17329 0.0
C1480 C 0.25363 0.09185 0.19463 0.0
H1481 H 0.2303 0.22839 0.09269 0.0
H1482 H 0.23072 0.19708 0.1228 0.0
C1483 C 0.25324 0.07497 0.21273 0.0
C1484 C 0.24429 0.11027 0.1541 0.0
H1485 H 0.27308 0.12899 0.11687 0.0
C1486 C 0.22713 0.12743 0.14674 0.0
C1487 C 0.26105 0.11054 0.14287 0.0
C1488 C 0.27983 0.09176 0.14909 0.0
C1489 C 0.22628 0.14513 0.12882 0.0
C1490 C 0.24308 0.14599 0.11817 0.0
C1491 C 0.26022 0.1285 0.12518 0.0
C1492 C 0.24313 0.16498 0.09982 0.0
C1493 C 0.20736 0.16253 0.12122 0.0
C1494 C 0.25044 0.15741 0.07699 0.0
C1495 C 0.25032 0.17532 0.05966 0.0
C1496 C 0.24299 0.20121 0.06489 0.0
C1497 C 0.23595 0.20867 0.08792 0.0
C1498 C 0.23608 0.19077 0.10518 0.0
H1499 H 0.19599 0.15508 0.12627 0.0
H1500 H 0.20441 0.18104 0.13006 0.0
H1501 H 0.20703 0.16555 0.10175 0.0
H1502 H 0.25604 0.13761 0.07247 0.0
H1503 H 0.25587 0.16886 0.04215 0.0
H1504 H 0.80359 0.72306 0.96312 0.0
H1505 H 0.83565 0.71887 0.95289 0.0
H1506 H 0.84279 0.74741 0.02171 0.0
H1507 H 0.81018 0.75231 0.03208 0.0
H1508 H 0.85555 0.77032 0.98695 0.0
H1509 H 0.88465 0.66828 0.97168 0.0
H1510 H 0.86344 0.68077 0.95538 0.0
H1511 H 0.86273 0.68266 0.98734 0.0
C1512 C 0.81194 0.72821 0.9763 0.0
C1513 C 0.80426 0.738 0.99847 0.0
C1514 C 0.83041 0.72554 0.97047 0.0
C1515 C 0.84179 0.73224 0.98672 0.0
C1516 C 0.83431 0.74182 1.00901 0.0
H1517 H 0.94934 0.70145 0.91312 0.0
H1518 H 0.92911 0.70307 0.9478 0.0
C1519 C 0.81569 0.74459 0.01489 0.0
C1520 C 0.86088 0.7311 0.97918 0.0
H1521 H 0.89832 0.69395 0.94725 0.0
C1522 C 0.86519 0.75345 0.97883 0.0
C1523 C 0.87379 0.70897 0.96928 0.0
C1524 C 0.87098 0.68379 0.97122 0.0
C1525 C 0.8811 0.75482 0.96665 0.0
C1526 C 0.8926 0.7335 0.95394 0.0
C1527 C 0.88933 0.71053 0.95647 0.0
C1528 C 0.90631 0.73525 0.93552 0.0
C1529 C 0.88502 0.77933 0.96695 0.0
C1530 C 0.90041 0.75302 0.91726 0.0
C1531 C 0.91199 0.75227 0.89766 0.0
C1532 C 0.92959 0.73342 0.89562 0.0
C1533 C 0.9358 0.71613 0.91422 0.0
C1534 C 0.92428 0.71709 0.93404 0.0
H1535 H 0.88079 0.78904 0.98428 0.0
H1536 H 0.90007 0.77647 0.96363 0.0
H1537 H 0.87662 0.79194 0.95309 0.0
H1538 H 0.88641 0.76663 0.91743 0.0
H1539 H 0.90668 0.76554 0.88341 0.0
H1540 H 0.23681 0.58969 0.73292 0.0
H1541 H 0.23825 0.6191 0.70159 0.0
H1542 H 0.23655 0.56502 0.64855 0.0
H1543 H 0.23515 0.53539 0.67973 0.0
H1544 H 0.26658 0.60934 0.66322 0.0
H1545 H 0.19392 0.63189 0.63043 0.0
H1546 H 0.20084 0.61873 0.65946 0.0
H1547 H 0.20729 0.59906 0.63361 0.0
C1548 C 0.23664 0.58404 0.71461 0.0
C1549 C 0.23583 0.56013 0.70889 0.0
C1550 C 0.23751 0.60088 0.69672 0.0
C1551 C 0.23734 0.59435 0.67275 0.0
C1552 C 0.23647 0.57057 0.66694 0.0
H1553 H 0.23701 0.67503 0.54053 0.0
H1554 H 0.23611 0.64439 0.57087 0.0
C1555 C 0.23576 0.55361 0.68481 0.0
C1556 C 0.23852 0.61221 0.65385 0.0
H1557 H 0.21383 0.64901 0.60915 0.0
C1558 C 0.25505 0.61808 0.65141 0.0
C1559 C 0.22351 0.62342 0.63837 0.0
C1560 C 0.2053 0.61818 0.64057 0.0
C1561 C 0.25708 0.63462 0.63371 0.0
C1562 C 0.24194 0.64622 0.61842 0.0
C1563 C 0.22543 0.64021 0.62084 0.0
C1564 C 0.24287 0.66474 0.59993 0.0
C1565 C 0.27561 0.63897 0.63123 0.0
C1566 C 0.24679 0.68659 0.60608 0.0
C1567 C 0.2475 0.70404 0.58872 0.0
C1568 C 0.24401 0.70027 0.56481 0.0
C1569 C 0.23984 0.67854 0.55873 0.0
C1570 C 0.23928 0.66099 0.57609 0.0
H1571 H 0.28719 0.62322 0.63892 0.0
H1572 H 0.27908 0.64121 0.61236 0.0
H1573 H 0.27487 0.65638 0.64094 0.0
H1574 H 0.24908 0.69034 0.6244 0.0
H1575 H 0.25052 0.72068 0.59414 0.0
H1576 H 0.29711 0.00755 0.41153 0.0
H1577 H 0.32169 1.00182 0.44096 0.0
H1578 H 0.32591 0.07389 0.4221 0.0
H1579 H 0.30164 0.07964 0.39266 0.0
H1580 H 0.35722 0.99919 0.42927 0.0
H1581 H 0.32772 0.07618 0.49394 0.0
H1582 H 0.31326 0.06611 0.47377 0.0
H1583 H 0.32486 0.08764 0.46407 0.0
C1584 C 0.30312 0.02231 0.41389 0.0
C1585 C 0.29742 0.04404 0.39972 0.0
C1586 C 0.31705 0.01908 0.43081 0.0
C1587 C 0.3254 0.03761 0.43399 0.0
C1588 C 0.31929 0.05967 0.42045 0.0
H1589 H 0.43417 0.03614 0.45593 0.0
H1590 H 0.40277 0.03852 0.44419 0.0
C1591 C 0.30541 0.0629 0.40355 0.0
C1592 C 0.34214 0.03271 0.44898 0.0
H1593 H 0.36171 0.05999 0.49046 0.0
C1594 C 0.35807 0.01215 0.44305 0.0
C1595 C 0.3432 0.04947 0.46711 0.0
C1596 C 0.32627 0.07093 0.47527 0.0
C1597 C 0.37535 0.00898 0.45355 0.0
C1598 C 0.37673 0.02694 0.47019 0.0
C1599 C 0.36059 0.04646 0.47742 0.0
C1600 C 0.39514 0.027 0.4783 0.0
C1601 C 0.39223 0.98701 0.44609 0.0
C1602 C 0.40097 0.02039 0.50159 0.0
C1603 C 0.41898 0.019 0.50843 0.0
C1604 C 0.43132 0.02435 0.49204 0.0
C1605 C 0.42509 0.03182 0.46897 0.0
C1606 C 0.40717 0.03314 0.46219 0.0
H1607 H 0.38812 0.97185 0.4377 0.0
H1608 H 0.40065 0.99353 0.433 0.0
H1609 H 0.40124 0.97911 0.46153 0.0
H1610 H 0.3918 0.01564 0.51423 0.0
H1611 H 0.42338 0.01307 0.52631 0.0
H1612 H 0.77591 0.89877 0.05033 0.0
H1613 H 0.79869 0.92095 0.05248 0.0
H1614 H 0.82858 0.86956 0.10658 0.0
H1615 H 0.80577 0.84756 0.10475 0.0
H1616 H 0.82647 0.91917 0.11504 0.0
H1617 H 0.85063 0.8887 0.02295 0.0
H1618 H 0.8262 0.90668 0.02598 0.0
H1619 H 0.83519 0.87609 0.03932 0.0
C1620 C 0.78726 0.8924 0.06282 0.0
C1621 C 0.78921 0.87134 0.07722 0.0
C1622 C 0.80023 0.90503 0.06401 0.0
C1623 C 0.81548 0.89654 0.07935 0.0
C1624 C 0.81691 0.87634 0.0946 0.0
H1625 H 0.92291 0.91025 0.10042 0.0
H1626 H 0.89317 0.90228 0.10376 0.0
C1627 C 0.80386 0.86384 0.09357 0.0
C1628 C 0.83069 0.90745 0.07847 0.0
H1629 H 0.86561 0.91327 0.04262 0.0
C1630 C 0.83497 0.91805 0.09919 0.0
C1631 C 0.84176 0.90582 0.05774 0.0
C1632 C 0.83837 0.89353 0.03527 0.0
C1633 C 0.8502 0.92689 0.09978 0.0
C1634 C 0.86142 0.92483 0.07919 0.0
C1635 C 0.85686 0.91485 0.05832 0.0
C1636 C 0.87864 0.93152 0.07913 0.0
C1637 C 0.85426 0.93825 0.12238 0.0
C1638 C 0.88024 0.95053 0.06411 0.0
C1639 C 0.89716 0.95518 0.06222 0.0
C1640 C 0.91283 0.94067 0.07511 0.0
C1641 C 0.91104 0.92194 0.0905 0.0
C1642 C 0.89407 0.91739 0.09245 0.0
H1643 H 0.8419 0.94411 0.13454 0.0
H1644 H 0.86591 0.92408 0.13167 0.0
H1645 H 0.85863 0.95481 0.11852 0.0
H1646 H 0.86846 0.96152 0.05362 0.0
H1647 H 0.89799 0.97004 0.05053 0.0
H1648 H 0.69253 0.13521 0.42164 0.0
H1649 H 0.66438 0.12329 0.41818 0.0
H1650 H 0.63861 0.17278 0.47638 0.0
H1651 H 0.66625 0.1855 0.47936 0.0
H1652 H 0.64796 0.10123 0.45216 0.0
H1653 H 0.59879 0.19427 0.4255 0.0
H1654 H 0.62388 0.18686 0.4246 0.0
H1655 H 0.61114 0.19536 0.45218 0.0
C1656 C 0.68078 0.14375 0.4335 0.0
C1657 C 0.68163 0.16129 0.45076 0.0
C1658 C 0.66477 0.13684 0.43158 0.0
C1659 C 0.64933 0.14749 0.44676 0.0
C1660 C 0.65023 0.16474 0.46418 0.0
H1661 H 0.54416 0.12645 0.47832 0.0
H1662 H 0.57182 0.13972 0.47639 0.0
C1663 C 0.66616 0.1717 0.46607 0.0
C1664 C 0.63245 0.14007 0.44497 0.0
H1665 H 0.58513 0.16358 0.43752 0.0
C1666 C 0.63425 0.11477 0.4487 0.0
C1667 C 0.61459 0.15785 0.44049 0.0
C1668 C 0.61196 0.18506 0.43523 0.0
C1669 C 0.61854 0.1069 0.4488 0.0
C1670 C 0.60067 0.12478 0.44475 0.0
C1671 C 0.59888 0.15 0.44069 0.0
C1672 C 0.5836 0.11768 0.44511 0.0
C1673 C 0.62109 0.0797 0.45394 0.0
C1674 C 0.58097 0.10138 0.42785 0.0
C1675 C 0.56525 0.09375 0.42892 0.0
C1676 C 0.55189 0.10237 0.44727 0.0
C1677 C 0.55433 0.1193 0.46415 0.0
C1678 C 0.57004 0.12697 0.46301 0.0
H1679 H 0.63506 0.06957 0.46147 0.0
H1680 H 0.61013 0.07819 0.46653 0.0
H1681 H 0.61976 0.07013 0.43722 0.0
H1682 H 0.59121 0.09429 0.41374 0.0
H1683 H 0.56387 0.08049 0.41581 0.0
H1684 H 0.79998 0.44517 0.22898 0.0
H1685 H 0.82808 0.40846 0.23357 0.0
H1686 H 0.82309 0.41667 0.30965 0.0
H1687 H 0.79525 0.45382 0.30526 0.0
H1688 H 0.8579 0.40919 0.2946 0.0
H1689 H 0.83237 0.33802 0.2537 0.0
H1690 H 0.8292 0.36423 0.23422 0.0
H1691 H 0.81685 0.36885 0.26227 0.0
C1692 C 0.80489 0.43919 0.24668 0.0
C1693 C 0.79545 0.45234 0.26674 0.0
C1694 C 0.82078 0.41804 0.24928 0.0
C1695 C 0.82727 0.40949 0.27197 0.0
C1696 C 0.8181 0.42284 0.29202 0.0
H1697 H 0.92683 0.27282 0.27968 0.0
H1698 H 0.89471 0.30098 0.28714 0.0
C1699 C 0.8023 0.44414 0.28944 0.0
C1700 C 0.84446 0.38766 0.27454 0.0
H1701 H 0.86619 0.32798 0.25419 0.0
C1702 C 0.8596 0.39125 0.28622 0.0
C1703 C 0.8465 0.36409 0.2641 0.0
C1704 C 0.83027 0.35848 0.25312 0.0
C1705 C 0.87718 0.37252 0.28605 0.0
C1706 C 0.87965 0.34999 0.27345 0.0
C1707 C 0.86422 0.34554 0.26345 0.0
C1708 C 0.89847 0.33235 0.26818 0.0
C1709 C 0.89314 0.37735 0.29856 0.0
C1710 C 0.91078 0.34059 0.25439 0.0
C1711 C 0.92897 0.32473 0.2501 0.0
C1712 C 0.93511 0.30026 0.2594 0.0
C1713 C 0.92247 0.29162 0.27234 0.0
C1714 C 0.9042 0.30763 0.27668 0.0
H1715 H 0.88795 0.39125 0.31316 0.0
H1716 H 0.90301 0.35971 0.30597 0.0
H1717 H 0.90095 0.38516 0.28572 0.0
H1718 H 0.90636 0.35948 0.24723 0.0
H1719 H 0.93829 0.33183 0.23982 0.0
H1720 H 0.07433 0.56694 0.41953 0.0
H1721 H 0.10305 0.57765 0.41961 0.0
H1722 H 0.07462 0.64503 0.45965 0.0
H1723 H 0.04593 0.63407 0.46008 0.0
H1724 H 0.11119 0.61705 0.40242 0.0
H1725 H 0.11988 0.61285 0.49989 0.0
H1726 H 0.10316 0.60161 0.48526 0.0
H1727 H 0.09772 0.63467 0.49114 0.0
C1728 C 0.07418 0.58415 0.42818 0.0
C1729 C 0.05795 0.59968 0.43985 0.0
C1730 C 0.0906 0.59018 0.4283 0.0
C1731 C 0.09107 0.61187 0.44002 0.0
C1732 C 0.07471 0.62784 0.45106 0.0
H1733 H 0.17361 0.68547 0.42185 0.0
H1734 H 0.14668 0.67106 0.41885 0.0
C1735 C 0.05832 0.62166 0.45118 0.0
C1736 C 0.10868 0.6178 0.44053 0.0
H1737 H 0.13947 0.63052 0.47786 0.0
C1738 C 0.11744 0.61986 0.41891 0.0
C1739 C 0.11703 0.62093 0.46207 0.0
C1740 C 0.10908 0.61714 0.4859 0.0
C1741 C 0.1341 0.62556 0.41823 0.0
C1742 C 0.1419 0.62999 0.43974 0.0
C1743 C 0.13337 0.62736 0.46137 0.0
C1744 C 0.15869 0.63783 0.44032 0.0
C1745 C 0.1433 0.62639 0.3945 0.0
C1746 C 0.17426 0.62419 0.45373 0.0
C1747 C 0.18957 0.63258 0.45571 0.0
C1748 C 0.18958 0.6547 0.44423 0.0
C1749 C 0.17412 0.66809 0.4305 0.0
C1750 C 0.15875 0.65985 0.42872 0.0
H1751 H 0.13919 0.6149 0.38105 0.0
H1752 H 0.13875 0.64609 0.38808 0.0
H1753 H 0.15879 0.61948 0.39581 0.0
H1754 H 0.17447 0.6072 0.4629 0.0
H1755 H 0.20134 0.62188 0.46636 0.0
H1756 H 0.68464 0.05665 0.80429 0.0
H1757 H 0.65323 0.08785 0.80634 0.0
H1758 H 0.64766 0.08121 0.73083 0.0
H1759 H 0.67881 0.04962 0.72864 0.0
H1760 H 0.64115 0.13339 0.78428 0.0
H1761 H 0.59922 0.07472 0.75615 0.0
H1762 H 0.62336 0.06135 0.76487 0.0
H1763 H 0.61764 0.07378 0.73548 0.0
C1764 C 0.67664 0.0616 0.78816 0.0
C1765 C 0.68417 0.05063 0.76631 0.0
C1766 C 0.65873 0.07944 0.78937 0.0
C1767 C 0.6481 0.08656 0.76879 0.0
C1768 C 0.65551 0.07553 0.74699 0.0
H1769 H 0.55505 0.22337 0.74504 0.0
H1770 H 0.586 0.19101 0.74722 0.0
C1771 C 0.67335 0.05756 0.74577 0.0
C1772 C 0.6296 0.10644 0.76989 0.0
H1773 H 0.5837 0.11914 0.75629 0.0
C1774 C 0.62853 0.13027 0.77835 0.0
C1775 C 0.61321 0.10215 0.76238 0.0
C1776 C 0.61333 0.07655 0.75444 0.0
C1777 C 0.61147 0.15017 0.77909 0.0
C1778 C 0.59523 0.14616 0.7706 0.0
C1779 C 0.59625 0.12219 0.76255 0.0
C1780 C 0.57689 0.16639 0.77017 0.0
C1781 C 0.61098 0.17514 0.78922 0.0
C1782 C 0.56154 0.16303 0.78203 0.0
C1783 C 0.54388 0.18121 0.78051 0.0
C1784 C 0.54126 0.20315 0.76717 0.0
C1785 C 0.55671 0.20674 0.75562 0.0
C1786 C 0.57439 0.18835 0.75695 0.0
H1787 H 0.62309 0.17305 0.80092 0.0
H1788 H 0.61163 0.1879 0.77449 0.0
H1789 H 0.59786 0.18414 0.79953 0.0
H1790 H 0.56321 0.14618 0.7923 0.0
H1791 H 0.53225 0.178 0.78973 0.0
H1792 H 0.76606 0.56866 0.22655 0.0
H1793 H 0.76739 0.59881 0.19578 0.0
H1794 H 0.73076 0.57371 0.15212 0.0
H1795 H 0.72918 0.54379 0.18271 0.0
H1796 H 0.77911 0.59118 0.14788 0.0
H1797 H 0.70419 0.64996 0.15566 0.0
H1798 H 0.71578 0.62701 0.17772 0.0
H1799 H 0.70804 0.61717 0.15061 0.0
C1800 C 0.75828 0.56953 0.2104 0.0
C1801 C 0.74742 0.55385 0.20724 0.0
C1802 C 0.75908 0.58677 0.19281 0.0
C1803 C 0.74894 0.58881 0.17178 0.0
C1804 C 0.73841 0.57284 0.16838 0.0
H1805 H 0.76131 0.6649 0.04031 0.0
H1806 H 0.7618 0.63366 0.07077 0.0
C1807 C 0.7376 0.55562 0.1859 0.0
C1808 C 0.74933 0.60762 0.15339 0.0
H1809 H 0.72133 0.65873 0.12329 0.0
C1810 C 0.76649 0.60599 0.14253 0.0
C1811 C 0.7329 0.62713 0.14658 0.0
C1812 C 0.7142 0.63066 0.15837 0.0
C1813 C 0.7676 0.62308 0.12482 0.0
C1814 C 0.75107 0.64215 0.11755 0.0
C1815 C 0.73397 0.64397 0.12867 0.0
C1816 C 0.75122 0.6609 0.09897 0.0
C1817 C 0.78651 0.62087 0.11437 0.0
C1818 C 0.7448 0.68666 0.1045 0.0
C1819 C 0.74441 0.70455 0.08713 0.0
C1820 C 0.75037 0.69715 0.06371 0.0
C1821 C 0.75676 0.67131 0.05817 0.0
C1822 C 0.75714 0.65338 0.07561 0.0
H1823 H 0.79811 0.60953 0.1258 0.0
H1824 H 0.78816 0.61145 0.09683 0.0
H1825 H 0.78784 0.63973 0.11176 0.0
H1826 H 0.74009 0.69295 0.12235 0.0
H1827 H 0.73935 0.72424 0.09211 0.0
H1828 H 0.93486 0.54166 0.44967 0.0
H1829 H 0.90249 0.54792 0.43976 0.0
H1830 H 0.89021 0.53616 0.51287 0.0
H1831 H 0.92292 0.52913 0.52292 0.0
H1832 H 0.87652 0.50945 0.48415 0.0
H1833 H 0.85548 0.60636 0.45026 0.0
H1834 H 0.87658 0.58761 0.43551 0.0
H1835 H 0.87657 0.59276 0.46707 0.0
C1836 C 0.92527 0.54073 0.46376 0.0
C1837 C 0.93149 0.53501 0.48712 0.0
C1838 C 0.90668 0.54453 0.45809 0.0
C1839 C 0.8938 0.54309 0.47566 0.0
C1840 C 0.89987 0.53764 0.49908 0.0
H1841 H 0.78431 0.57703 0.41049 0.0
H1842 H 0.80625 0.57767 0.44159 0.0
C1843 C 0.91856 0.53367 0.50478 0.0
C1844 C 0.87447 0.54535 0.4689 0.0
H1845 H 0.83889 0.57992 0.43383 0.0
C1846 C 0.86806 0.52513 0.4736 0.0
C1847 C 0.86311 0.56611 0.45579 0.0
C1848 C 0.86823 0.58954 0.45214 0.0
C1849 C 0.85139 0.52416 0.46377 0.0
C1850 C 0.84122 0.54354 0.44826 0.0
C1851 C 0.84681 0.56476 0.44532 0.0
C1852 C 0.82619 0.54109 0.43283 0.0
C1853 C 0.84512 0.50212 0.46975 0.0
C1854 C 0.82979 0.52003 0.41794 0.0
C1855 C 0.81708 0.51936 0.40049 0.0
C1856 C 0.80068 0.54004 0.39708 0.0
C1857 C 0.79669 0.56066 0.4127 0.0
C1858 C 0.8093 0.56114 0.43042 0.0
H1859 H 0.8491 0.49554 0.48813 0.0
H1860 H 0.82974 0.50691 0.46803 0.0
H1861 H 0.85224 0.48623 0.45762 0.0
H1862 H 0.84289 0.50457 0.41893 0.0
H1863 H 0.82047 0.50298 0.38909 0.0
H1864 H 0.18934 0.4593 0.60765 0.0
H1865 H 0.16653 0.46255 0.57628 0.0
H1866 H 0.12182 0.50344 0.624 0.0
H1867 H 0.14445 0.5005 0.65518 0.0
H1868 H 0.13815 0.44395 0.57586 0.0
H1869 H 0.10953 0.54711 0.56588 0.0
H1870 H 0.13089 0.5317 0.58163 0.0
H1871 H 0.10847 0.53828 0.59627 0.0
C1872 C 0.17464 0.46916 0.61133 0.0
C1873 C 0.16867 0.47981 0.63379 0.0
C1874 C 0.16166 0.47105 0.59341 0.0
C1875 C 0.14252 0.48365 0.59767 0.0
C1876 C 0.13657 0.49431 0.62008 0.0
H1877 H 0.04407 0.46467 0.54577 0.0
H1878 H 0.07468 0.45922 0.56247 0.0
C1879 C 0.14951 0.49257 0.63791 0.0
C1880 C 0.12853 0.48433 0.57937 0.0
H1881 H 0.08964 0.52401 0.55296 0.0
C1882 C 0.12773 0.46148 0.57048 0.0
C1883 C 0.1152 0.5072 0.57192 0.0
C1884 C 0.11619 0.53245 0.57923 0.0
C1885 C 0.11324 0.46082 0.55553 0.0
C1886 C 0.09895 0.48357 0.54986 0.0
C1887 C 0.10044 0.5065 0.55755 0.0
C1888 C 0.08163 0.48415 0.53757 0.0
C1889 C 0.11333 0.43572 0.54619 0.0
C1890 C 0.07525 0.50008 0.51808 0.0
C1891 C 0.05756 0.50363 0.5088 0.0
C1892 C 0.04597 0.49119 0.51877 0.0
C1893 C 0.05274 0.47433 0.53754 0.0
C1894 C 0.07033 0.47106 0.54701 0.0
H1895 H 0.12785 0.42229 0.54448 0.0
H1896 H 0.10566 0.42753 0.55886 0.0
H1897 H 0.10652 0.43761 0.52865 0.0
H1898 H 0.0837 0.51044 0.51056 0.0
H1899 H 0.05276 0.51668 0.49426 0.0
H1900 H 0.58118 0.78225 0.16411 0.0
H1901 H 0.60666 0.77774 0.13565 0.0
H1902 H 0.56859 0.78407 0.07787 0.0
H1903 H 0.54289 0.78899 0.10639 0.0
H1904 H 0.62089 0.74163 0.10222 0.0
H1905 H 0.59308 0.83576 0.06004 0.0
H1906 H 0.58337 0.82814 0.08721 0.0
H1907 H 0.57776 0.8174 0.05923 0.0
C1908 C 0.57825 0.78261 0.14534 0.0
C1909 C 0.56007 0.78596 0.13744 0.0
C1910 C 0.59279 0.78011 0.12911 0.0
C1911 C 0.58947 0.78085 0.10465 0.0
C1912 C 0.57137 0.78399 0.09666 0.0
H1913 H 0.68814 0.7321 1.01013 0.0
H1914 H 0.65736 0.73655 0.02725 0.0
C1915 C 0.55673 0.78673 0.11294 0.0
C1916 C 0.60523 0.77778 0.08779 0.0
H1917 H 0.62167 0.80802 0.04485 0.0
C1918 C 0.62103 0.75605 0.08954 0.0
C1919 C 0.60537 0.79673 0.0714 0.0
C1920 C 0.58908 0.82093 0.06941 0.0
C1921 C 0.63721 0.75303 0.07587 0.0
C1922 C 0.63738 0.77199 0.05948 0.0
C1923 C 0.6214 0.79344 0.05726 0.0
C1924 C 0.65463 0.77095 0.04624 0.0
C1925 C 0.65426 0.73016 0.07998 0.0
C1926 C 0.66277 0.78955 0.05017 0.0
C1927 C 0.6802 0.78727 0.04017 0.0
C1928 C 0.68985 0.76625 0.02612 0.0
C1929 C 0.68117 0.74836 0.02111 0.0
C1930 C 0.66363 0.7508 0.03096 0.0
H1931 H 0.65311 0.72045 0.0968 0.0
H1932 H 0.65582 0.71659 0.06523 0.0
H1933 H 0.66715 0.73537 0.08054 0.0
H1934 H 0.65601 0.80532 0.06182 0.0
H1935 H 0.68644 0.80145 0.04433 0.0
H1936 H 0.65653 0.49347 0.15394 0.0
H1937 H 0.63278 0.49569 0.1244 0.0
H1938 H 0.67567 0.45272 0.07543 0.0
H1939 H 0.69964 0.45039 0.105 0.0
H1940 H 0.62777 0.51406 0.07773 0.0
H1941 H 0.64063 0.41095 0.08169 0.0
H1942 H 0.64999 0.42697 0.10329 0.0
H1943 H 0.66043 0.42042 0.07422 0.0
C1944 C 0.66097 0.48484 0.13676 0.0
C1945 C 0.67995 0.47163 0.13185 0.0
C1946 C 0.64737 0.48606 0.11992 0.0
C1947 C 0.65246 0.47409 0.09787 0.0
C1948 C 0.67145 0.46169 0.09252 0.0
H1949 H 0.55953 0.49535 0.99775 0.0
H1950 H 0.59102 0.49122 0.01136 0.0
C1951 C 0.68509 0.46036 0.10941 0.0
C1952 C 0.63763 0.47376 0.08119 0.0
H1953 H 0.61565 0.43514 0.05845 0.0
C1954 C 0.62525 0.4968 0.07315 0.0
C1955 C 0.6344 0.45117 0.07542 0.0
C1956 C 0.64694 0.42594 0.08418 0.0
C1957 C 0.60922 0.49798 0.06035 0.0
C1958 C 0.60569 0.47544 0.05522 0.0
C1959 C 0.61852 0.45232 0.06232 0.0
C1960 C 0.58757 0.47573 0.04554 0.0
C1961 C 0.59563 0.52339 0.05368 0.0
C1962 C 0.57553 0.46753 0.05991 0.0
C1963 C 0.55767 0.46969 0.0522 0.0
C1964 C 0.55149 0.48005 0.02988 0.0
C1965 C 0.56387 0.48728 0.01504 0.0
C1966 C 0.58181 0.48511 0.02283 0.0
H1967 H 0.59903 0.53907 0.06216 0.0
H1968 H 0.59603 0.52577 0.03417 0.0
H1969 H 0.58111 0.52484 0.05887 0.0
H1970 H 0.57974 0.46018 0.07748 0.0
H1971 H 0.54855 0.46381 0.06402 0.0
H1972 H 0.43905 0.37818 0.04548 0.0
H1973 H 0.41124 0.36531 0.04832 0.0
H1974 H 0.39349 0.41006 0.11169 0.0
H1975 H 0.42095 0.4235 0.10871 0.0
H1976 H 0.39777 0.34159 0.08731 0.0
H1977 H 0.34931 0.43701 0.0647 0.0
H1978 H 0.37424 0.42748 0.05925 0.0
H1979 H 0.36499 0.43553 0.08874 0.0
C1980 C 0.42924 0.38521 0.06005 0.0
C1981 C 0.43212 0.40193 0.07681 0.0
C1982 C 0.41345 0.37776 0.0617 0.0
C1983 C 0.40028 0.38705 0.08002 0.0
C1984 C 0.40344 0.40297 0.09727 0.0
H1985 H 0.28996 0.37424 0.10412 0.0
H1986 H 0.31884 0.38441 0.10788 0.0
C1987 C 0.41922 0.4104 0.09567 0.0
C1988 C 0.3829 0.38073 0.08062 0.0
H1989 H 0.33563 0.40616 0.07393 0.0
C1990 C 0.38416 0.35566 0.08444 0.0
C1991 C 0.36524 0.39923 0.07691 0.0
C1992 C 0.36326 0.42631 0.07198 0.0
C1993 C 0.3681 0.34856 0.08473 0.0
C1994 C 0.35046 0.367 0.08062 0.0
C1995 C 0.34919 0.39213 0.07714 0.0
C1996 C 0.33322 0.36043 0.07881 0.0
C1997 C 0.37015 0.32146 0.08961 0.0
C1998 C 0.33175 0.34388 0.06103 0.0
C1999 C 0.3154 0.33796 0.05894 0.0
C2000 C 0.30011 0.34872 0.07442 0.0
C2001 C 0.30156 0.36549 0.0921 0.0
C2002 C 0.31799 0.37138 0.0942 0.0
H2003 H 0.38333 0.31161 0.09911 0.0
H2004 H 0.35816 0.32003 0.10033 0.0
H2005 H 0.37057 0.31154 0.07253 0.0
H2006 H 0.34322 0.33564 0.04868 0.0
H2007 H 0.31482 0.3247 0.04535 0.0
H2008 H 0.05037 0.20495 0.28984 0.0
H2009 H 0.07982 0.17007 0.28662 0.0
H2010 H 0.07853 0.17694 0.21042 0.0
H2011 H 0.04912 0.21223 0.21344 0.0
H2012 H 0.08469 0.12464 0.26196 0.0
H2013 H 0.1316 0.17519 0.22777 0.0
H2014 H 0.10904 0.19148 0.24117 0.0
H2015 H 0.1105 0.17936 0.21154 0.0
C2016 C 0.05645 0.1993 0.2724 0.0
C2017 C 0.04745 0.21131 0.25189 0.0
C2018 C 0.07322 0.17932 0.2706 0.0
C2019 C 0.08125 0.17103 0.2483 0.0
C2020 C 0.07259 0.18332 0.22778 0.0
H2021 H 0.17683 0.02941 0.23791 0.0
H2022 H 0.14568 0.06028 0.23112 0.0
C2023 C 0.05583 0.20346 0.22957 0.0
C2024 C 0.09845 0.14904 0.24682 0.0
H2025 H 0.14517 0.13181 0.23465 0.0
C2026 C 0.09792 0.12604 0.25575 0.0
C2027 C 0.11555 0.15113 0.23864 0.0
C2028 C 0.11686 0.17562 0.22936 0.0
C2029 C 0.1143 0.10523 0.25771 0.0
C2030 C 0.13147 0.10759 0.25025 0.0
C2031 C 0.13187 0.13022 0.24028 0.0
C2032 C 0.14947 0.088 0.25518 0.0
C2033 C 0.11331 0.08137 0.26887 0.0
C2034 C 0.16163 0.09343 0.27111 0.0
C2035 C 0.17929 0.07606 0.27491 0.0
C2036 C 0.1851 0.05292 0.26285 0.0
C2037 C 0.17263 0.04706 0.24755 0.0
C2038 C 0.1549 0.06462 0.24363 0.0
H2039 H 0.09924 0.0838 0.27655 0.0
H2040 H 0.11656 0.06631 0.25523 0.0
H2041 H 0.12386 0.07498 0.28307 0.0
H2042 H 0.15755 0.11136 0.28028 0.0
H2043 H 0.18855 0.08102 0.28694 0.0
H2044 H 0.22313 0.29658 0.9346 0.0
H2045 H 0.22273 0.32788 0.90425 0.0
H2046 H 0.25216 0.36167 0.95105 0.0
H2047 H 0.2527 0.33052 0.98145 0.0
H2048 H 0.20738 0.38197 0.90807 0.0
H2049 H 0.28389 0.34846 0.88898 0.0
H2050 H 0.27239 0.32935 0.9042 0.0
H2051 H 0.27738 0.35411 0.91975 0.0
C2052 C 0.22955 0.31063 0.93845 0.0
C2053 C 0.238 0.31093 0.96048 0.0
C2054 C 0.22929 0.32852 0.92108 0.0
C2055 C 0.23764 0.34689 0.92527 0.0
C2056 C 0.24592 0.34741 0.94729 0.0
H2057 H 0.25351 0.46832 0.84143 0.0
H2058 H 0.25347 0.4378 0.87232 0.0
C2059 C 0.24611 0.32963 0.9647 0.0
C2060 C 0.23742 0.36579 0.90678 0.0
H2061 H 0.26583 0.38657 0.87086 0.0
C2062 C 0.22014 0.38294 0.89984 0.0
C2063 C 0.25409 0.3671 0.89619 0.0
C2064 C 0.27301 0.34868 0.90246 0.0
C2065 C 0.21909 0.40164 0.88288 0.0
C2066 C 0.23577 0.40285 0.87211 0.0
C2067 C 0.25305 0.38569 0.8791 0.0
C2068 C 0.23559 0.42157 0.85338 0.0
C2069 C 0.20014 0.42032 0.87712 0.0
C2070 C 0.22576 0.42244 0.83228 0.0
C2071 C 0.22565 0.43997 0.81465 0.0
C2072 C 0.23558 0.45685 0.81757 0.0
C2073 C 0.24566 0.45569 0.83858 0.0
C2074 C 0.24567 0.43821 0.85627 0.0
H2075 H 0.18977 0.42158 0.89159 0.0
H2076 H 0.20098 0.43936 0.874 0.0
H2077 H 0.19487 0.41417 0.8608 0.0
H2078 H 0.21828 0.40938 0.82932 0.0
H2079 H 0.21789 0.4401 0.79863 0.0
H2080 H 0.30068 0.22006 0.97133 0.0
H2081 H 0.33222 0.21864 0.96097 0.0
H2082 H 0.3325 0.26554 0.02124 0.0
H2083 H 0.30047 0.26738 0.03167 0.0
H2084 H 0.3432 0.28295 0.98013 0.0
H2085 H 0.38298 0.18201 0.98845 0.0
H2086 H 0.3623 0.18613 0.97158 0.0
H2087 H 0.36018 0.1962 1.00213 0.0
C2088 C 0.3075 0.22979 0.98266 0.0
C2089 C 0.29808 0.24382 1.00233 0.0
C2090 C 0.32564 0.22874 0.97683 0.0
C2091 C 0.33487 0.24156 0.99059 0.0
C2092 C 0.3257 0.25523 1.01057 0.0
H2093 H 0.44343 0.21633 0.92059 0.0
H2094 H 0.42187 0.22201 0.95454 0.0
C2095 C 0.30745 0.2562 0.01653 0.0
C2096 C 0.35324 0.24247 0.98224 0.0
H2097 H 0.39421 0.20447 0.95772 0.0
C2098 C 0.35462 0.26584 0.97581 0.0
C2099 C 0.36836 0.22026 0.97716 0.0
C2100 C 0.36845 0.19478 0.98547 0.0
C2101 C 0.36988 0.26736 0.96229 0.0
C2102 C 0.38381 0.24491 0.95458 0.0
C2103 C 0.38336 0.22172 0.96315 0.0
C2104 C 0.39747 0.24467 0.93541 0.0
C2105 C 0.37054 0.29298 0.95572 0.0
C2106 C 0.39097 0.25566 0.91343 0.0
C2107 C 0.40323 0.25253 0.89411 0.0
C2108 C 0.42221 0.23798 0.89625 0.0
C2109 C 0.42884 0.2275 0.9184 0.0
C2110 C 0.41657 0.23083 0.93782 0.0
H2111 H 0.36412 0.3069 0.96995 0.0
H2112 H 0.38512 0.2926 0.95244 0.0
H2113 H 0.36232 0.29956 0.9394 0.0
H2114 H 0.37622 0.26567 0.91083 0.0
H2115 H 0.39765 0.26045 0.87719 0.0
H2116 H 0.43901 0.55009 0.97049 0.0
H2117 H 0.40893 0.55576 0.95209 0.0
H2118 H 0.40216 0.49591 0.99498 0.0
H2119 H 0.43248 0.48965 0.01311 0.0
H2120 H 0.39732 0.4888 0.9491 0.0
H2121 H 0.35515 0.58643 0.97343 0.0
H2122 H 0.37717 0.58469 0.96012 0.0
H2123 H 0.37672 0.5694 0.98807 0.0
C2124 C 0.43097 0.53846 0.97639 0.0
C2125 C 0.43819 0.51935 0.99321 0.0
C2126 C 0.4137 0.54184 0.96594 0.0
C2127 C 0.40319 0.52646 0.97237 0.0
C2128 C 0.41002 0.50803 0.98982 0.0
H2129 H 0.29321 0.54982 0.91056 0.0
H2130 H 0.31843 0.545 0.93884 0.0
C2131 C 0.42736 0.5045 1.00016 0.0
C2132 C 0.3861 0.5279 0.95915 0.0
H2133 H 0.34451 0.56872 0.9399 0.0
C2134 C 0.38565 0.5062 0.94737 0.0
C2135 C 0.37078 0.5505 0.95713 0.0
C2136 C 0.36986 0.57399 0.97058 0.0
C2137 C 0.37065 0.50673 0.93286 0.0
C2138 C 0.35593 0.52972 0.9296 0.0
C2139 C 0.35596 0.55118 0.94216 0.0
C2140 C 0.3407 0.5321 0.91263 0.0
C2141 C 0.37075 0.48264 0.92113 0.0
C2142 C 0.34487 0.52667 0.88851 0.0
C2143 C 0.33054 0.52935 0.87236 0.0
C2144 C 0.31173 0.53781 0.88 0.0
C2145 C 0.30757 0.54343 0.90414 0.0
C2146 C 0.32194 0.54062 0.92032 0.0
H2147 H 0.37951 0.46586 0.93102 0.0
H2148 H 0.35637 0.48181 0.91979 0.0
H2149 H 0.37676 0.48163 0.90297 0.0
H2150 H 0.35923 0.52071 0.88211 0.0
H2151 H 0.33415 0.52533 0.85381 0.0
H2152 H 0.68267 0.66031 0.98676 0.0
H2153 H 0.65664 0.64419 0.98444 0.0
H2154 H 0.68036 0.60392 0.92032 0.0
H2155 H 0.70697 0.61921 0.923 0.0
H2156 H 0.63188 0.65381 0.94677 0.0
H2157 H 0.66682 0.55101 0.95977 0.0
H2158 H 0.67777 0.57384 0.96749 0.0
H2159 H 0.67689 0.56508 0.93705 0.0
C2160 C 0.68268 0.64744 0.97252 0.0
C2161 C 0.69697 0.64092 0.95512 0.0
C2162 C 0.66769 0.63845 0.97111 0.0
C2163 C 0.66666 0.62276 0.95232 0.0
C2164 C 0.68105 0.61572 0.93516 0.0
H2165 H 0.57698 0.56374 0.91793 0.0
H2166 H 0.60506 0.57613 0.91555 0.0
C2167 C 0.69613 0.62467 0.93659 0.0
C2168 C 0.64985 0.61527 0.95 0.0
H2169 H 0.63458 0.56478 0.95072 0.0
C2170 C 0.63246 0.63434 0.9476 0.0
C2171 C 0.65073 0.58985 0.95091 0.0
C2172 C 0.66902 0.56872 0.95413 0.0
C2173 C 0.61585 0.6287 0.94636 0.0
C2174 C 0.61668 0.60336 0.94783 0.0
C2175 C 0.63408 0.5842 0.9496 0.0
C2176 C 0.59952 0.59651 0.9488 0.0
C2177 C 0.59753 0.64988 0.94352 0.0
C2178 C 0.58725 0.60387 0.96831 0.0
C2179 C 0.57126 0.59689 0.96969 0.0
C2180 C 0.5673 0.5824 0.95159 0.0
C2181 C 0.57957 0.57519 0.93197 0.0
C2182 C 0.59564 0.58208 0.93066 0.0
H2183 H 0.59967 0.66723 0.93671 0.0
H2184 H 0.58819 0.64441 0.93126 0.0
H2185 H 0.59033 0.65432 0.96103 0.0
H2186 H 0.59017 0.61477 0.9826 0.0
H2187 H 0.56199 0.60283 0.98494 0.0
H2188 H 0.92187 0.79437 0.76044 0.0
H2189 H 0.8921 0.82849 0.75617 0.0
H2190 H 0.91945 0.8698 0.71329 0.0
H2191 H 0.94944 0.83623 0.71854 0.0
H2192 H 0.89862 0.89925 0.74517 0.0
H2193 H 0.85645 0.84843 0.70301 0.0
H2194 H 0.86613 0.83315 0.73003 0.0
H2195 H 0.88149 0.83471 0.70582 0.0
C2196 C 0.92144 0.81056 0.7498 0.0
C2197 C 0.93785 0.81275 0.73979 0.0
C2198 C 0.90442 0.82997 0.74723 0.0
C2199 C 0.9035 0.85148 0.73403 0.0
C2200 C 0.91985 0.85333 0.72349 0.0
H2201 H 0.79135 0.95654 0.71298 0.0
H2202 H 0.82343 0.92923 0.70484 0.0
C2203 C 0.93693 0.83418 0.72647 0.0
C2204 C 0.88575 0.8728 0.73279 0.0
H2205 H 0.8391 0.88686 0.72356 0.0
C2206 C 0.88563 0.89668 0.74003 0.0
C2207 C 0.8689 0.86959 0.72559 0.0
C2208 C 0.8683 0.84512 0.71542 0.0
C2209 C 0.86895 0.91717 0.74131 0.0
C2210 C 0.85188 0.91337 0.73613 0.0
C2211 C 0.85214 0.88976 0.72787 0.0
C2212 C 0.83347 0.9331 0.73994 0.0
C2213 C 0.86988 0.94259 0.7481 0.0
C2214 C 0.82857 0.94492 0.76216 0.0
C2215 C 0.81037 0.96114 0.76657 0.0
C2216 C 0.79677 0.96495 0.74906 0.0
C2217 C 0.80172 0.95366 0.72673 0.0
C2218 C 0.81999 0.93809 0.7221 0.0
H2219 H 0.88352 0.9444 0.74265 0.0
H2220 H 0.85846 0.95812 0.73989 0.0
H2221 H 0.86864 0.94475 0.76766 0.0
H2222 H 0.83855 0.94077 0.77644 0.0
H2223 H 0.80668 0.96953 0.78399 0.0
H2224 H 0.50592 0.21395 0.68257 0.0
H2225 H 0.50543 0.18469 0.65089 0.0
H2226 H 0.46435 0.16246 0.69013 0.0
H2227 H 0.46454 0.19197 0.72184 0.0
H2228 H 0.51431 0.13355 0.65222 0.0
H2229 H 0.44049 0.1778 0.62513 0.0
H2230 H 0.45219 0.19355 0.64397 0.0
H2231 H 0.44311 0.1704 0.65613 0.0
C2232 C 0.49667 0.20298 0.68448 0.0
C2233 C 0.48519 0.20549 0.70482 0.0
C2234 C 0.49644 0.18619 0.6663 0.0
C2235 C 0.48466 0.17157 0.66787 0.0
C2236 C 0.47326 0.1739 0.6882 0.0
H2237 H 0.4959 0.03517 0.58857 0.0
H2238 H 0.49546 0.0667 0.61835 0.0
C2239 C 0.47347 0.19072 0.70642 0.0
C2240 C 0.4848 0.15338 0.64859 0.0
H2241 H 0.45691 0.13745 0.60875 0.0
C2242 C 0.50176 0.13448 0.64268 0.0
C2243 C 0.4685 0.15474 0.63583 0.0
C2244 C 0.45007 0.17535 0.64038 0.0
C2245 C 0.5028 0.11665 0.6248 0.0
C2246 C 0.48636 0.11744 0.61265 0.0
C2247 C 0.46948 0.13667 0.61818 0.0
C2248 C 0.4864 0.09831 0.59436 0.0
C2249 C 0.52157 0.09733 0.61887 0.0
C2250 C 0.48098 0.10553 0.57096 0.0
C2251 C 0.48112 0.08747 0.55378 0.0
C2252 C 0.48655 0.06178 0.55969 0.0
C2253 C 0.49173 0.05471 0.58324 0.0
C2254 C 0.4916 0.07274 0.60034 0.0
H2255 H 0.5333 0.10346 0.62479 0.0
H2256 H 0.52276 0.07946 0.62805 0.0
H2257 H 0.52314 0.09355 0.5995 0.0
H2258 H 0.47682 0.12516 0.56592 0.0
H2259 H 0.47701 0.09365 0.53588 0.0
H2260 H 0.48779 0.33586 0.79328 0.0
H2261 H 0.48928 0.36413 0.82543 0.0
H2262 H 0.49583 0.30458 0.87606 0.0
H2263 H 0.49451 0.27604 0.844 0.0
H2264 H 0.46564 0.37886 0.86543 0.0
H2265 H 0.53918 0.32993 0.89205 0.0
H2266 H 0.53002 0.32366 0.86425 0.0
H2267 H 0.52462 0.31051 0.89129 0.0
C2268 C 0.48966 0.32865 0.81122 0.0
C2269 C 0.49112 0.30355 0.81595 0.0
C2270 C 0.49047 0.34491 0.82962 0.0
C2271 C 0.49292 0.33644 0.85317 0.0
C2272 C 0.4943 0.31144 0.858 0.0
H2273 H 0.50098 0.41295 0.98602 0.0
H2274 H 0.49975 0.38198 0.95615 0.0
C2275 C 0.49344 0.29516 0.83961 0.0
C2276 C 0.4935 0.35404 0.87263 0.0
H2277 H 0.52141 0.36434 0.91584 0.0
C2278 C 0.47784 0.37569 0.87642 0.0
C2279 C 0.50938 0.34985 0.88712 0.0
C2280 C 0.52684 0.32735 0.88343 0.0
C2281 C 0.47758 0.39317 0.89432 0.0
C2282 C 0.49358 0.38925 0.90854 0.0
C2283 C 0.50916 0.3674 0.90497 0.0
C2284 C 0.4946 0.40795 0.92671 0.0
C2285 C 0.46 0.41549 0.89805 0.0
C2286 C 0.49248 0.43275 0.92011 0.0
C2287 C 0.49313 0.45048 0.93711 0.0
C2288 C 0.49611 0.44382 0.96117 0.0
C2289 C 0.49865 0.41879 0.9677 0.0
C2290 C 0.49794 0.40104 0.95063 0.0
H2291 H 0.44751 0.41189 0.89097 0.0
H2292 H 0.45751 0.42038 0.91715 0.0
H2293 H 0.46148 0.43198 0.88854 0.0
H2294 H 0.49036 0.43843 0.90172 0.0
H2295 H 0.49127 0.46947 0.93131 0.0
H2296 H 0.49363 0.83364 0.29022 0.0
H2297 H 0.49415 0.86358 0.32129 0.0
H2298 H 0.49177 0.80989 0.37469 0.0
H2299 H 0.49183 0.77957 0.34373 0.0
H2300 H 0.46917 0.88589 0.35473 0.0
H2301 H 0.53453 0.82911 0.39887 0.0
H2302 H 0.52771 0.82041 0.37054 0.0
H2303 H 0.51764 0.81322 0.39755 0.0
C2304 C 0.49337 0.82808 0.30857 0.0
C2305 C 0.49286 0.80404 0.31441 0.0
C2306 C 0.49364 0.84528 0.32636 0.0
C2307 C 0.49335 0.83894 0.35045 0.0
C2308 C 0.49257 0.81507 0.35632 0.0
H2309 H 0.48032 0.92677 0.48102 0.0
H2310 H 0.48099 0.89529 0.45076 0.0
C2311 C 0.49249 0.79775 0.33854 0.0
C2312 C 0.49327 0.85761 0.36929 0.0
H2313 H 0.5158 0.8662 0.41914 0.0
C2314 C 0.47945 0.88157 0.36871 0.0
C2315 C 0.50669 0.85212 0.38761 0.0
C2316 C 0.52259 0.82742 0.3886 0.0
C2317 C 0.47856 0.89993 0.38599 0.0
C2318 C 0.49181 0.89428 0.40438 0.0
C2319 C 0.50559 0.8704 0.40508 0.0
C2320 C 0.4917 0.91318 0.42281 0.0
C2321 C 0.46334 0.92523 0.38468 0.0
C2322 C 0.4977 0.93354 0.41719 0.0
C2323 C 0.4975 0.95146 0.43447 0.0
C2324 C 0.49117 0.94949 0.45775 0.0
C2325 C 0.48525 0.92895 0.46331 0.0
C2326 C 0.48563 0.9109 0.44605 0.0
H2327 H 0.4526 0.9255 0.37136 0.0
H2328 H 0.45637 0.93048 0.40227 0.0
H2329 H 0.46965 0.93974 0.37975 0.0
H2330 H 0.50254 0.93557 0.39939 0.0
H2331 H 0.50213 0.96701 0.42948 0.0
H2332 H 0.50839 0.57295 0.04417 0.0
H2333 H 0.50751 0.60382 0.07503 0.0
H2334 H 0.47186 0.57521 0.11827 0.0
H2335 H 0.47282 0.5441 0.08771 0.0
H2336 H 0.47725 0.64172 0.09489 0.0
H2337 H 0.51373 0.57317 0.16379 0.0
H2338 H 0.51355 0.5645 0.13302 0.0
H2339 H 0.49356 0.56773 0.15186 0.0
C2340 C 0.50036 0.57317 0.06024 0.0
C2341 C 0.49075 0.55589 0.06344 0.0
C2342 C 0.49987 0.59087 0.07789 0.0
C2343 C 0.48988 0.5916 0.09918 0.0
C2344 C 0.48001 0.57468 0.10225 0.0
H2345 H 0.47067 0.6847 0.22691 0.0
H2346 H 0.47045 0.65432 0.19601 0.0
C2347 C 0.48048 0.55698 0.08464 0.0
C2348 C 0.48956 0.6103 0.118 0.0
H2349 H 0.50049 0.61577 0.17595 0.0
C2350 C 0.48241 0.63604 0.11258 0.0
C2351 C 0.49625 0.60292 0.14114 0.0
C2352 C 0.50487 0.57559 0.14782 0.0
C2353 C 0.48148 0.65457 0.1297 0.0
C2354 C 0.48819 0.64719 0.15282 0.0
C2355 C 0.4953 0.62145 0.15827 0.0
C2356 C 0.48821 0.66586 0.1715 0.0
C2357 C 0.47295 0.6819 0.12301 0.0
C2358 C 0.49845 0.68229 0.16819 0.0
C2359 C 0.4986 0.69969 0.18581 0.0
C2360 C 0.48859 0.70101 0.20725 0.0
C2361 C 0.47848 0.68434 0.21062 0.0
C2362 C 0.47836 0.66691 0.19297 0.0
H2363 H 0.46398 0.68436 0.10713 0.0
H2364 H 0.4644 0.69307 0.13785 0.0
H2365 H 0.48431 0.68961 0.11879 0.0
H2366 H 0.5065 0.6815 0.15203 0.0
H2367 H 0.50666 0.71205 0.18259 0.0
loop_
_geom_bond_atom_site_label_1
_geom_bond_atom_site_label_2
_geom_bond_distance
_geom_bond_site_symmetry_2
_ccdc_geom_bond_type
Dy0 O3 2.307 1_655 S
Dy0 O5 2.395 . S
Dy0 O6 2.379 . S
Dy0 O8 2.339 1_565 S
Dy0 O10 2.298 1_564 S
Dy0 O14 2.275 1_654 S
Dy0 C22 2.738 . S
Dy1 O4 2.298 1_546 S
Dy1 O7 2.275 1_456 S
Dy1 O9 2.307 1_455 S
Dy1 O11 2.395 . S
Dy1 O12 2.379 . S
Dy1 O15 2.339 1_545 S
Dy1 C31 2.738 . S
C2 O14 1.254 . S
C2 O15 1.257 . S
O3 Dy0 2.307 1_455 S
O3 C13 1.266 . S
O4 Dy1 2.298 1_564 S
O4 C13 1.236 . S
O5 Dy0 2.395 . S
O5 C22 1.255 . S
O6 Dy0 2.379 . S
O6 C22 1.249 . S
O7 Dy1 2.275 1_654 S
O7 C23 1.254 . S
O8 Dy0 2.339 1_545 S
O8 C23 1.257 . S
O9 Dy1 2.307 1_655 S
O9 C24 1.266 . S
O10 Dy0 2.298 1_546 S
O10 C24 1.236 . S
O11 Dy1 2.395 . S
O11 C31 1.255 . S
O12 Dy1 2.379 . S
O12 C31 1.249 . S
C13 O3 1.266 . S
C13 O4 1.236 . S
O14 Dy0 2.275 1_456 S
O14 C2 1.254 . S
O15 Dy1 2.339 1_565 S
O15 C2 1.257 . S
C16 C19 1.344 . S
C16 C20 1.328 . S
C16 C22 1.516 . S
C17 C18 1.304 . S
C17 C21 1.323 . S
C18 C17 1.304 . S
C18 C19 1.371 . S
C18 H32 0.930 1_554 S
C19 C16 1.344 . S
C19 C18 1.371 . S
C19 H33 0.931 1_554 S
C20 C16 1.328 . S
C20 C21 1.433 . S
C20 H34 0.931 . S
C21 C17 1.323 . S
C21 C20 1.433 . S
C21 H35 0.933 . S
C22 Dy0 2.738 . S
C22 O5 1.255 . S
C22 O6 1.249 . S
C22 C16 1.516 . S
C23 O7 1.254 . S
C23 O8 1.257 . S
C24 O9 1.266 . S
C24 O10 1.236 . S
C25 C28 1.344 . S
C25 C29 1.328 . S
C25 C31 1.516 . S
C26 C27 1.304 . S
C26 C30 1.323 . S
C27 C26 1.304 . S
C27 C28 1.371 . S
C27 H36 0.930 1_556 S
C28 C25 1.344 . S
C28 C27 1.371 . S
C28 H37 0.931 1_556 S
C29 C25 1.328 . S
C29 C30 1.433 . S
C29 H38 0.931 . S
C30 C26 1.323 . S
C30 C29 1.433 . S
C30 H39 0.933 . S
C31 Dy1 2.738 . S
C31 O11 1.255 . S
C31 O12 1.249 . S
C31 C25 1.516 . S
H32 C18 0.930 1_556 S
H33 C19 0.931 1_556 S
H34 C20 0.931 . S
H35 C21 0.933 . S
H36 C27 0.930 1_554 S
H37 C28 0.931 1_554 S
H38 C29 0.931 . S
H39 C30 0.933 . S
Dy40 O43 2.307 . S
Dy40 O45 2.395 . S
Dy40 O46 2.379 . S
Dy40 O48 2.339 1_655 S
Dy40 O50 2.298 . S
Dy40 O54 2.275 . S
Dy40 C62 2.738 . S
Dy41 O44 2.298 . S
Dy41 O47 2.275 . S
Dy41 O49 2.307 . S
Dy41 O51 2.395 . S
Dy41 O52 2.379 . S
Dy41 O55 2.339 1_455 S
Dy41 C71 2.738 . S
C42 O54 1.254 . S
C42 O55 1.257 . S
O43 Dy40 2.307 . S
O43 C53 1.244 1_655 S
O44 Dy41 2.298 . S
O44 C53 1.264 . S
O45 Dy40 2.395 . S
O45 C62 1.255 . S
O46 Dy40 2.379 . S
O46 C62 1.249 . S
O47 Dy41 2.275 . S
O47 C63 1.254 . S
O48 Dy40 2.339 1_455 S
O48 C63 1.257 . S
O49 Dy41 2.307 . S
O49 C64 1.253 1_455 S
O50 Dy40 2.298 . S
O50 C64 1.252 . S
O51 Dy41 2.395 . S
O51 C71 1.255 . S
O52 Dy41 2.379 . S
O52 C71 1.249 . S
C53 O43 1.244 1_455 S
C53 O44 1.264 . S
O54 Dy40 2.275 . S
O54 C42 1.254 . S
O55 Dy41 2.339 1_655 S
O55 C42 1.257 . S
C56 C59 1.344 . S
C56 C60 1.328 . S
C56 C62 1.516 . S
C57 C58 1.304 . S
C57 C61 1.323 . S
C58 C57 1.304 . S
C58 C59 1.371 . S
C58 H72 0.930 . S
C59 C56 1.344 . S
C59 C58 1.371 . S
C59 H73 0.931 . S
C60 C56 1.328 . S
C60 C61 1.433 . S
C60 H74 0.931 . S
C61 C57 1.323 . S
C61 C60 1.433 . S
C61 H75 0.933 . S
C62 Dy40 2.738 . S
C62 O45 1.255 . S
C62 O46 1.249 . S
C62 C56 1.516 . S
C63 O47 1.254 . S
C63 O48 1.257 . S
C64 O49 1.253 1_655 S
C64 O50 1.252 . S
C65 C68 1.344 . S
C65 C69 1.328 . S
C65 C71 1.516 . S
C66 C67 1.304 . S
C66 C70 1.323 . S
C67 C66 1.304 . S
C67 C68 1.371 . S
C67 H76 0.930 . S
C68 C65 1.344 . S
C68 C67 1.371 . S
C68 H77 0.931 . S
C69 C65 1.328 . S
C69 C70 1.433 . S
C69 H78 0.931 . S
C70 C66 1.323 . S
C70 C69 1.433 . S
C70 H79 0.933 . S
C71 Dy41 2.738 . S
C71 O51 1.255 . S
C71 O52 1.249 . S
C71 C65 1.516 . S
H72 C58 0.930 . S
H73 C59 0.931 . S
H74 C60 0.931 . S
H75 C61 0.933 . S
H76 C67 0.930 . S
H77 C68 0.931 . S
H78 C69 0.931 . S
H79 C70 0.933 . S
Dy80 O83 2.307 . S
Dy80 O85 2.395 . S
Dy80 O86 2.379 . S
Dy80 O88 2.339 . S
Dy80 O90 2.298 . S
Dy80 O94 2.275 . S
Dy80 C102 2.738 . S
Dy81 O84 2.298 . S
Dy81 O87 2.275 . S
Dy81 O89 2.307 . S
Dy81 O91 2.395 . S
Dy81 O92 2.379 . S
Dy81 O95 2.339 . S
Dy81 C111 2.738 . S
C82 O94 1.254 . S
C82 O95 1.257 . S
O83 Dy80 2.307 . S
O83 C93 1.266 . S
O84 Dy81 2.298 . S
O84 C93 1.236 . S
O85 Dy80 2.395 . S
O85 C102 1.255 . S
O86 Dy80 2.379 . S
O86 C102 1.249 . S
O87 Dy81 2.275 . S
O87 C103 1.254 . S
O88 Dy80 2.339 . S
O88 C103 1.257 . S
O89 Dy81 2.307 . S
O89 C104 1.266 . S
O90 Dy80 2.298 . S
O90 C104 1.236 . S
O91 Dy81 2.395 . S
O91 C111 1.255 . S
O92 Dy81 2.379 . S
O92 C111 1.249 . S
C93 O83 1.266 . S
C93 O84 1.236 . S
O94 Dy80 2.275 . S
O94 C82 1.254 . S
O95 Dy81 2.339 . S
O95 C82 1.257 . S
C96 C99 1.344 . S
C96 C100 1.328 . S
C96 C102 1.516 . S
C97 C98 1.304 . S
C97 C101 1.323 . S
C98 C97 1.304 . S
C98 C99 1.371 . S
C98 H112 0.930 . S
C99 C96 1.344 . S
C99 C98 1.371 . S
C99 H113 0.931 . S
C100 C96 1.328 . S
C100 C101 1.433 . S
C100 H114 0.931 . S
C101 C97 1.323 . S
C101 C100 1.433 . S
C101 H115 0.933 . S
C102 Dy80 2.738 . S
C102 O85 1.255 . S
C102 O86 1.249 . S
C102 C96 1.516 . S
C103 O87 1.254 . S
C103 O88 1.257 . S
C104 O89 1.266 . S
C104 O90 1.236 . S
C105 C108 1.344 . S
C105 C109 1.328 . S
C105 C111 1.516 . S
C106 C107 1.304 . S
C106 C110 1.323 . S
C107 C106 1.304 . S
C107 C108 1.371 . S
C107 H116 0.930 . S
C108 C105 1.344 . S
C108 C107 1.371 . S
C108 H117 0.931 . S
C109 C105 1.328 . S
C109 C110 1.433 . S
C109 H118 0.931 . S
C110 C106 1.323 . S
C110 C109 1.433 . S
C110 H119 0.933 . S
C111 Dy81 2.738 . S
C111 O91 1.255 . S
C111 O92 1.249 . S
C111 C105 1.516 . S
H112 C98 0.930 . S
H113 C99 0.931 . S
H114 C100 0.931 . S
H115 C101 0.933 . S
H116 C107 0.930 . S
H117 C108 0.931 . S
H118 C109 0.931 . S
H119 C110 0.933 . S
Dy120 O123 2.307 . S
Dy120 O125 2.386 1_545 S
Dy120 O126 2.379 . S
Dy120 O128 2.339 . S
Dy120 O130 2.298 1_545 S
Dy120 O134 2.275 1_545 S
Dy120 C142 2.738 . S
Dy121 O124 2.298 1_565 S
Dy121 O127 2.275 1_565 S
Dy121 O129 2.307 . S
Dy121 O131 2.395 1_565 S
Dy121 O132 2.379 . S
Dy121 O135 2.339 . S
Dy121 C151 2.738 . S
C122 O134 1.254 . S
C122 O135 1.257 . S
O123 Dy120 2.307 . S
O123 C133 1.266 . S
O124 Dy121 2.298 1_545 S
O124 C133 1.236 . S
O125 Dy120 2.386 1_565 S
O125 C142 1.226 1_565 S
O126 Dy120 2.379 . S
O126 C142 1.249 . S
O127 Dy121 2.275 1_545 S
O127 C143 1.254 . S
O128 Dy120 2.339 . S
O128 C143 1.257 . S
O129 Dy121 2.307 . S
O129 C144 1.266 . S
O130 Dy120 2.298 1_565 S
O130 C144 1.236 . S
O131 Dy121 2.395 1_545 S
O131 C151 1.255 1_545 S
O132 Dy121 2.379 . S
O132 C151 1.249 . S
C133 O123 1.266 . S
C133 O124 1.236 . S
O134 Dy120 2.275 1_565 S
O134 C122 1.254 . S
O135 Dy121 2.339 . S
O135 C122 1.257 . S
C136 C139 1.344 1_545 S
C136 C140 1.328 . S
C136 C142 1.516 . S
C137 C138 1.304 1_545 S
C137 C141 1.323 . S
C138 C137 1.304 1_565 S
C138 C139 1.371 . S
C138 H152 0.930 . S
C139 C136 1.344 1_565 S
C139 C138 1.371 . S
C139 H153 0.931 . S
C140 C136 1.328 . S
C140 C141 1.433 . S
C140 H154 0.931 . S
C141 C137 1.323 . S
C141 C140 1.433 . S
C141 H155 0.933 . S
C142 Dy120 2.738 . S
C142 O125 1.226 1_545 S
C142 O126 1.249 . S
C142 C136 1.516 . S
C143 O127 1.254 . S
C143 O128 1.257 . S
C144 O129 1.266 . S
C144 O130 1.236 . S
C145 C148 1.344 1_565 S
C145 C149 1.328 . S
C145 C151 1.516 . S
C146 C147 1.304 1_565 S
C146 C150 1.323 . S
C147 C146 1.304 1_545 S
C147 C148 1.371 . S
C147 H156 0.930 . S
C148 C145 1.344 1_545 S
C148 C147 1.371 . S
C148 H157 0.931 . S
C149 C145 1.328 . S
C149 C150 1.433 . S
C149 H158 0.931 . S
C150 C146 1.323 . S
C150 C149 1.433 . S
C150 H159 0.933 . S
C151 Dy121 2.738 . S
C151 O131 1.255 1_565 S
C151 O132 1.249 . S
C151 C145 1.516 . S
H152 C138 0.930 . S
H153 C139 0.931 . S
H154 C140 0.931 . S
H155 C141 0.933 . S
H156 C147 0.930 . S
H157 C148 0.931 . S
H158 C149 0.931 . S
H159 C150 0.933 . S
Dy160 O163 2.307 . S
Dy160 O165 2.395 . S
Dy160 O166 2.379 . S
Dy160 O168 2.339 . S
Dy160 O170 2.298 . S
Dy160 O174 2.275 . S
Dy160 C182 2.738 . S
Dy161 O164 2.298 . S
Dy161 O167 2.275 . S
Dy161 O169 2.307 . S
Dy161 O171 2.395 . S
Dy161 O172 2.379 . S
Dy161 O175 2.339 . S
Dy161 C191 2.738 . S
C162 O174 1.254 . S
C162 O175 1.257 . S
O163 Dy160 2.307 . S
O163 C173 1.266 . S
O164 Dy161 2.298 . S
O164 C173 1.236 . S
O165 Dy160 2.395 . S
O165 C182 1.255 . S
O166 Dy160 2.379 . S
O166 C182 1.249 . S
O167 Dy161 2.275 . S
O167 C183 1.254 . S
O168 Dy160 2.339 . S
O168 C183 1.257 . S
O169 Dy161 2.307 . S
O169 C184 1.266 . S
O170 Dy160 2.298 . S
O170 C184 1.236 . S
O171 Dy161 2.395 . S
O171 C191 1.255 . S
O172 Dy161 2.379 . S
O172 C191 1.249 . S
C173 O163 1.266 . S
C173 O164 1.236 . S
O174 Dy160 2.275 . S
O174 C162 1.254 . S
O175 Dy161 2.339 . S
O175 C162 1.257 . S
C176 C179 1.344 . S
C176 C180 1.328 . S
C176 C182 1.516 . S
C177 C178 1.304 . S
C177 C181 1.323 . S
C178 C177 1.304 . S
C178 C179 1.371 . S
C178 H192 0.930 . S
C179 C176 1.344 . S
C179 C178 1.371 . S
C179 H193 0.931 . S
C180 C176 1.328 . S
C180 C181 1.433 . S
C180 H194 0.931 . S
C181 C177 1.323 . S
C181 C180 1.433 . S
C181 H195 0.933 . S
C182 Dy160 2.738 . S
C182 O165 1.255 . S
C182 O166 1.249 . S
C182 C176 1.516 . S
C183 O167 1.254 . S
C183 O168 1.257 . S
C184 O169 1.266 . S
C184 O170 1.236 . S
C185 C188 1.344 . S
C185 C189 1.328 . S
C185 C191 1.516 . S
C186 C187 1.304 . S
C186 C190 1.323 . S
C187 C186 1.304 . S
C187 C188 1.371 . S
C187 H196 0.930 . S
C188 C185 1.344 . S
C188 C187 1.371 . S
C188 H197 0.931 . S
C189 C185 1.328 . S
C189 C190 1.433 . S
C189 H198 0.931 . S
C190 C186 1.323 . S
C190 C189 1.433 . S
C190 H199 0.933 . S
C191 Dy161 2.738 . S
C191 O171 1.255 . S
C191 O172 1.249 . S
C191 C185 1.516 . S
H192 C178 0.930 . S
H193 C179 0.931 . S
H194 C180 0.931 . S
H195 C181 0.933 . S
H196 C187 0.930 . S
H197 C188 0.931 . S
H198 C189 0.931 . S
H199 C190 0.933 . S
Dy200 O203 2.307 . S
Dy200 O205 2.395 . S
Dy200 O206 2.379 . S
Dy200 O208 2.339 . S
Dy200 O210 2.298 . S
Dy200 O214 2.275 . S
Dy200 C222 2.738 . S
Dy201 O204 2.298 . S
Dy201 O207 2.275 . S
Dy201 O209 2.307 . S
Dy201 O211 2.395 . S
Dy201 O212 2.379 . S
Dy201 O215 2.339 . S
Dy201 C231 2.738 . S
C202 O214 1.254 . S
C202 O215 1.257 . S
O203 Dy200 2.307 . S
O203 C213 1.266 . S
O204 Dy201 2.298 . S
O204 C213 1.236 . S
O205 Dy200 2.395 . S
O205 C222 1.255 . S
O206 Dy200 2.379 . S
O206 C222 1.249 . S
O207 Dy201 2.275 . S
O207 C223 1.254 . S
O208 Dy200 2.339 . S
O208 C223 1.257 . S
O209 Dy201 2.307 . S
O209 C224 1.266 . S
O210 Dy200 2.298 . S
O210 C224 1.236 . S
O211 Dy201 2.395 . S
O211 C231 1.255 . S
O212 Dy201 2.379 . S
O212 C231 1.249 . S
C213 O203 1.266 . S
C213 O204 1.236 . S
O214 Dy200 2.275 . S
O214 C202 1.254 . S
O215 Dy201 2.339 . S
O215 C202 1.257 . S
C216 C219 1.344 . S
C216 C220 1.328 . S
C216 C222 1.516 . S
C217 C218 1.304 . S
C217 C221 1.323 . S
C218 C217 1.304 . S
C218 C219 1.371 . S
C218 H232 0.930 . S
C219 C216 1.344 . S
C219 C218 1.371 . S
C219 H233 0.931 . S
C220 C216 1.328 . S
C220 C221 1.433 . S
C220 H234 0.931 . S
C221 C217 1.323 . S
C221 C220 1.433 . S
C221 H235 0.933 . S
C222 Dy200 2.738 . S
C222 O205 1.255 . S
C222 O206 1.249 . S
C222 C216 1.516 . S
C223 O207 1.254 . S
C223 O208 1.257 . S
C224 O209 1.266 . S
C224 O210 1.236 . S
C225 C228 1.344 . S
C225 C229 1.328 . S
C225 C231 1.516 . S
C226 C227 1.304 . S
C226 C230 1.323 . S
C227 C226 1.304 . S
C227 C228 1.371 . S
C227 H236 0.930 . S
C228 C225 1.344 . S
C228 C227 1.371 . S
C228 H237 0.931 . S
C229 C225 1.328 . S
C229 C230 1.433 . S
C229 H238 0.931 . S
C230 C226 1.323 . S
C230 C229 1.433 . S
C230 H239 0.933 . S
C231 Dy201 2.738 . S
C231 O211 1.255 . S
C231 O212 1.249 . S
C231 C225 1.516 . S
H232 C218 0.930 . S
H233 C219 0.931 . S
H234 C220 0.931 . S
H235 C221 0.933 . S
H236 C227 0.930 . S
H237 C228 0.931 . S
H238 C229 0.931 . S
H239 C230 0.933 . S
Dy240 O243 2.307 . S
Dy240 O245 2.395 . S
Dy240 O246 2.379 . S
Dy240 O248 2.339 . S
Dy240 O250 2.298 . S
Dy240 O254 2.275 . S
Dy240 C262 2.738 . S
Dy241 O244 2.298 . S
Dy241 O247 2.275 . S
Dy241 O249 2.307 . S
Dy241 O251 2.395 . S
Dy241 O252 2.379 . S
Dy241 O255 2.339 . S
Dy241 C271 2.738 . S
C242 O254 1.254 . S
C242 O255 1.257 . S
O243 Dy240 2.307 . S
O243 C253 1.266 . S
O244 Dy241 2.298 . S
O244 C253 1.236 . S
O245 Dy240 2.395 . S
O245 C262 1.255 . S
O246 Dy240 2.379 . S
O246 C262 1.249 . S
O247 Dy241 2.275 . S
O247 C263 1.254 . S
O248 Dy240 2.339 . S
O248 C263 1.257 . S
O249 Dy241 2.307 . S
O249 C264 1.266 . S
O250 Dy240 2.298 . S
O250 C264 1.236 . S
O251 Dy241 2.395 . S
O251 C271 1.255 . S
O252 Dy241 2.379 . S
O252 C271 1.249 . S
C253 O243 1.266 . S
C253 O244 1.236 . S
O254 Dy240 2.275 . S
O254 C242 1.254 . S
O255 Dy241 2.339 . S
O255 C242 1.257 . S
C256 C259 1.344 . S
C256 C260 1.328 . S
C256 C262 1.516 . S
C257 C258 1.304 . S
C257 C261 1.323 . S
C258 C257 1.304 . S
C258 C259 1.371 . S
C258 H272 0.930 . S
C259 C256 1.344 . S
C259 C258 1.371 . S
C259 H273 0.931 . S
C260 C256 1.328 . S
C260 C261 1.433 . S
C260 H274 0.931 . S
C261 C257 1.323 . S
C261 C260 1.433 . S
C261 H275 0.933 . S
C262 Dy240 2.738 . S
C262 O245 1.255 . S
C262 O246 1.249 . S
C262 C256 1.516 . S
C263 O247 1.254 . S
C263 O248 1.257 . S
C264 O249 1.266 . S
C264 O250 1.236 . S
C265 C268 1.344 . S
C265 C269 1.328 . S
C265 C271 1.516 . S
C266 C267 1.304 . S
C266 C270 1.323 . S
C267 C266 1.304 . S
C267 C268 1.371 . S
C267 H276 0.930 . S
C268 C265 1.344 . S
C268 C267 1.371 . S
C268 H277 0.931 . S
C269 C265 1.328 . S
C269 C270 1.433 . S
C269 H278 0.931 . S
C270 C266 1.323 . S
C270 C269 1.433 . S
C270 H279 0.933 . S
C271 Dy241 2.738 . S
C271 O251 1.255 . S
C271 O252 1.249 . S
C271 C265 1.516 . S
H272 C258 0.930 . S
H273 C259 0.931 . S
H274 C260 0.931 . S
H275 C261 0.933 . S
H276 C267 0.930 . S
H277 C268 0.931 . S
H278 C269 0.931 . S
H279 C270 0.933 . S
Dy280 O283 2.307 1_655 S
Dy280 O285 2.395 . S
Dy280 O286 2.379 . S
Dy280 O288 2.339 . S
Dy280 O290 2.298 . S
Dy280 O294 2.275 1_655 S
Dy280 C302 2.738 . S
Dy281 O284 2.298 . S
Dy281 O287 2.275 1_455 S
Dy281 O289 2.307 1_455 S
Dy281 O291 2.395 . S
Dy281 O292 2.379 . S
Dy281 O295 2.339 . S
Dy281 C311 2.738 . S
C282 O294 1.254 . S
C282 O295 1.257 . S
O283 Dy280 2.307 1_455 S
O283 C293 1.266 . S
O284 Dy281 2.298 . S
O284 C293 1.236 . S
O285 Dy280 2.395 . S
O285 C302 1.255 . S
O286 Dy280 2.379 . S
O286 C302 1.249 . S
O287 Dy281 2.275 1_655 S
O287 C303 1.254 . S
O288 Dy280 2.339 . S
O288 C303 1.257 . S
O289 Dy281 2.307 1_655 S
O289 C304 1.266 . S
O290 Dy280 2.298 . S
O290 C304 1.236 . S
O291 Dy281 2.395 . S
O291 C311 1.255 . S
O292 Dy281 2.379 . S
O292 C311 1.249 . S
C293 O283 1.266 . S
C293 O284 1.236 . S
O294 Dy280 2.275 1_455 S
O294 C282 1.254 . S
O295 Dy281 2.339 . S
O295 C282 1.257 . S
C296 C299 1.344 . S
C296 C300 1.328 . S
C296 C302 1.516 . S
C297 C298 1.304 . S
C297 C301 1.323 . S
C298 C297 1.304 . S
C298 C299 1.371 . S
C298 H312 0.930 . S
C299 C296 1.344 . S
C299 C298 1.371 . S
C299 H313 0.931 . S
C300 C296 1.328 . S
C300 C301 1.433 . S
C300 H314 0.931 . S
C301 C297 1.323 . S
C301 C300 1.433 . S
C301 H315 0.933 . S
C302 Dy280 2.738 . S
C302 O285 1.255 . S
C302 O286 1.249 . S
C302 C296 1.516 . S
C303 O287 1.254 . S
C303 O288 1.257 . S
C304 O289 1.266 . S
C304 O290 1.236 . S
C305 C308 1.344 . S
C305 C309 1.328 . S
C305 C311 1.516 . S
C306 C307 1.304 . S
C306 C310 1.323 . S
C307 C306 1.304 . S
C307 C308 1.371 . S
C307 H316 0.930 . S
C308 C305 1.344 . S
C308 C307 1.371 . S
C308 H317 0.931 . S
C309 C305 1.328 . S
C309 C310 1.433 . S
C309 H318 0.931 . S
C310 C306 1.323 . S
C310 C309 1.433 . S
C310 H319 0.933 . S
C311 Dy281 2.738 . S
C311 O291 1.255 . S
C311 O292 1.249 . S
C311 C305 1.516 . S
H312 C298 0.930 . S
H313 C299 0.931 . S
H314 C300 0.931 . S
H315 C301 0.933 . S
H316 C307 0.930 . S
H317 C308 0.931 . S
H318 C309 0.931 . S
H319 C310 0.933 . S
Dy320 O323 2.307 . S
Dy320 O325 2.395 . S
Dy320 O326 2.379 . S
Dy320 O328 2.339 . S
Dy320 O330 2.298 1_556 S
Dy320 O334 2.275 1_556 S
Dy320 C342 2.738 . S
Dy321 O324 2.298 1_554 S
Dy321 O327 2.275 1_554 S
Dy321 O329 2.307 . S
Dy321 O331 2.395 . S
Dy321 O332 2.379 . S
Dy321 O335 2.339 . S
Dy321 C351 2.738 . S
C322 O334 1.254 . S
C322 O335 1.257 . S
O323 Dy320 2.307 . S
O323 C333 1.266 . S
O324 Dy321 2.298 1_556 S
O324 C333 1.236 . S
O325 Dy320 2.395 . S
O325 C342 1.255 . S
O326 Dy320 2.379 . S
O326 C342 1.249 . S
O327 Dy321 2.275 1_556 S
O327 C343 1.254 . S
O328 Dy320 2.339 . S
O328 C343 1.257 . S
O329 Dy321 2.307 . S
O329 C344 1.266 . S
O330 Dy320 2.298 1_554 S
O330 C344 1.236 . S
O331 Dy321 2.395 . S
O331 C351 1.255 . S
O332 Dy321 2.379 . S
O332 C351 1.249 . S
C333 O323 1.266 . S
C333 O324 1.236 . S
O334 Dy320 2.275 1_554 S
O334 C322 1.254 . S
O335 Dy321 2.339 . S
O335 C322 1.257 . S
C336 C339 1.344 . S
C336 C340 1.328 . S
C336 C342 1.516 . S
C337 C338 1.304 . S
C337 C341 1.323 . S
C338 C337 1.304 . S
C338 C339 1.371 . S
C338 H352 0.930 1_556 S
C339 C336 1.344 . S
C339 C338 1.371 . S
C339 H353 0.931 1_556 S
C340 C336 1.328 . S
C340 C341 1.433 . S
C340 H354 0.931 . S
C341 C337 1.323 . S
C341 C340 1.433 . S
C341 H355 0.933 . S
C342 Dy320 2.738 . S
C342 O325 1.255 . S
C342 O326 1.249 . S
C342 C336 1.516 . S
C343 O327 1.254 . S
C343 O328 1.257 . S
C344 O329 1.266 . S
C344 O330 1.236 . S
C345 C348 1.344 . S
C345 C349 1.328 . S
C345 C351 1.516 . S
C346 C347 1.304 . S
C346 C350 1.323 . S
C347 C346 1.304 . S
C347 C348 1.371 . S
C347 H356 0.930 1_554 S
C348 C345 1.344 . S
C348 C347 1.371 . S
C348 H357 0.931 1_554 S
C349 C345 1.328 . S
C349 C350 1.433 . S
C349 H358 0.931 . S
C350 C346 1.323 . S
C350 C349 1.433 . S
C350 H359 0.933 . S
C351 Dy321 2.738 . S
C351 O331 1.255 . S
C351 O332 1.249 . S
C351 C345 1.516 . S
H352 C338 0.930 1_554 S
H353 C339 0.931 1_554 S
H354 C340 0.931 . S
H355 C341 0.933 . S
H356 C347 0.930 1_556 S
H357 C348 0.931 1_556 S
H358 C349 0.931 . S
H359 C350 0.933 . S
Dy360 O363 2.307 . S
Dy360 O365 2.386 1_545 S
Dy360 O366 2.379 . S
Dy360 O368 2.339 . S
Dy360 O370 2.298 1_545 S
Dy360 O374 2.275 1_545 S
Dy360 C382 2.738 . S
Dy361 O364 2.298 1_565 S
Dy361 O367 2.275 1_565 S
Dy361 O369 2.307 . S
Dy361 O371 2.395 1_565 S
Dy361 O372 2.379 . S
Dy361 O375 2.339 . S
Dy361 C391 2.738 . S
C362 O374 1.254 . S
C362 O375 1.257 . S
O363 Dy360 2.307 . S
O363 C373 1.266 . S
O364 Dy361 2.298 1_545 S
O364 C373 1.236 . S
O365 Dy360 2.386 1_565 S
O365 C382 1.226 1_565 S
O366 Dy360 2.379 . S
O366 C382 1.249 . S
O367 Dy361 2.275 1_545 S
O367 C383 1.254 . S
O368 Dy360 2.339 . S
O368 C383 1.257 . S
O369 Dy361 2.307 . S
O369 C384 1.266 . S
O370 Dy360 2.298 1_565 S
O370 C384 1.236 . S
O371 Dy361 2.395 1_545 S
O371 C391 1.255 1_545 S
O372 Dy361 2.379 . S
O372 C391 1.249 . S
C373 O363 1.266 . S
C373 O364 1.236 . S
O374 Dy360 2.275 1_565 S
O374 C362 1.254 . S
O375 Dy361 2.339 . S
O375 C362 1.257 . S
C376 C379 1.344 1_545 S
C376 C380 1.328 . S
C376 C382 1.516 . S
C377 C378 1.304 1_545 S
C377 C381 1.323 . S
C378 C377 1.304 1_565 S
C378 C379 1.371 . S
C378 H392 0.930 . S
C379 C376 1.344 1_565 S
C379 C378 1.371 . S
C379 H393 0.931 . S
C380 C376 1.328 . S
C380 C381 1.433 . S
C380 H394 0.931 . S
C381 C377 1.323 . S
C381 C380 1.433 . S
C381 H395 0.933 . S
C382 Dy360 2.738 . S
C382 O365 1.226 1_545 S
C382 O366 1.249 . S
C382 C376 1.516 . S
C383 O367 1.254 . S
C383 O368 1.257 . S
C384 O369 1.266 . S
C384 O370 1.236 . S
C385 C388 1.344 1_565 S
C385 C389 1.328 . S
C385 C391 1.516 . S
C386 C387 1.304 1_565 S
C386 C390 1.323 . S
C387 C386 1.304 1_545 S
C387 C388 1.371 . S
C387 H396 0.930 . S
C388 C385 1.344 1_545 S
C388 C387 1.371 . S
C388 H397 0.931 . S
C389 C385 1.328 . S
C389 C390 1.433 . S
C389 H398 0.931 . S
C390 C386 1.323 . S
C390 C389 1.433 . S
C390 H399 0.933 . S
C391 Dy361 2.738 . S
C391 O371 1.255 1_565 S
C391 O372 1.249 . S
C391 C385 1.516 . S
H392 C378 0.930 . S
H393 C379 0.931 . S
H394 C380 0.931 . S
H395 C381 0.933 . S
H396 C387 0.930 . S
H397 C388 0.931 . S
H398 C389 0.931 . S
H399 C390 0.933 . S
Dy400 O403 2.307 . S
Dy400 O405 2.395 . S
Dy400 O406 2.379 . S
Dy400 O408 2.339 . S
Dy400 O410 2.298 . S
Dy400 O414 2.275 . S
Dy400 C422 2.738 . S
Dy401 O404 2.298 . S
Dy401 O407 2.275 . S
Dy401 O409 2.307 . S
Dy401 O411 2.395 . S
Dy401 O412 2.379 . S
Dy401 O415 2.339 . S
Dy401 C431 2.738 . S
C402 O414 1.254 . S
C402 O415 1.257 . S
O403 Dy400 2.307 . S
O403 C413 1.266 . S
O404 Dy401 2.298 . S
O404 C413 1.236 . S
O405 Dy400 2.395 . S
O405 C422 1.255 . S
O406 Dy400 2.379 . S
O406 C422 1.249 . S
O407 Dy401 2.275 . S
O407 C423 1.254 . S
O408 Dy400 2.339 . S
O408 C423 1.257 . S
O409 Dy401 2.307 . S
O409 C424 1.266 . S
O410 Dy400 2.298 . S
O410 C424 1.236 . S
O411 Dy401 2.395 . S
O411 C431 1.255 . S
O412 Dy401 2.379 . S
O412 C431 1.249 . S
C413 O403 1.266 . S
C413 O404 1.236 . S
O414 Dy400 2.275 . S
O414 C402 1.254 . S
O415 Dy401 2.339 . S
O415 C402 1.257 . S
C416 C419 1.344 . S
C416 C420 1.328 . S
C416 C422 1.516 . S
C417 C418 1.304 . S
C417 C421 1.323 . S
C418 C417 1.304 . S
C418 C419 1.371 . S
C418 H432 0.930 . S
C419 C416 1.344 . S
C419 C418 1.371 . S
C419 H433 0.931 . S
C420 C416 1.328 . S
C420 C421 1.433 . S
C420 H434 0.931 . S
C421 C417 1.323 . S
C421 C420 1.433 . S
C421 H435 0.933 . S
C422 Dy400 2.738 . S
C422 O405 1.255 . S
C422 O406 1.249 . S
C422 C416 1.516 . S
C423 O407 1.254 . S
C423 O408 1.257 . S
C424 O409 1.266 . S
C424 O410 1.236 . S
C425 C428 1.344 . S
C425 C429 1.328 . S
C425 C431 1.516 . S
C426 C427 1.304 . S
C426 C430 1.323 . S
C427 C426 1.304 . S
C427 C428 1.371 . S
C427 H436 0.930 . S
C428 C425 1.344 . S
C428 C427 1.371 . S
C428 H437 0.931 . S
C429 C425 1.328 . S
C429 C430 1.433 . S
C429 H438 0.931 . S
C430 C426 1.323 . S
C430 C429 1.433 . S
C430 H439 0.933 . S
C431 Dy401 2.738 . S
C431 O411 1.255 . S
C431 O412 1.249 . S
C431 C425 1.516 . S
H432 C418 0.930 . S
H433 C419 0.931 . S
H434 C420 0.931 . S
H435 C421 0.933 . S
H436 C427 0.930 . S
H437 C428 0.931 . S
H438 C429 0.931 . S
H439 C430 0.933 . S
Dy440 O443 2.307 . S
Dy440 O445 2.395 . S
Dy440 O446 2.379 . S
Dy440 O448 2.339 1_655 S
Dy440 O450 2.298 . S
Dy440 O454 2.275 . S
Dy440 C462 2.738 . S
Dy441 O444 2.298 . S
Dy441 O447 2.275 . S
Dy441 O449 2.307 . S
Dy441 O451 2.395 . S
Dy441 O452 2.379 . S
Dy441 O455 2.339 1_455 S
Dy441 C471 2.738 . S
C442 O454 1.254 . S
C442 O455 1.257 . S
O443 Dy440 2.307 . S
O443 C453 1.244 1_655 S
O444 Dy441 2.298 . S
O444 C453 1.264 . S
O445 Dy440 2.395 . S
O445 C462 1.255 . S
O446 Dy440 2.379 . S
O446 C462 1.249 . S
O447 Dy441 2.275 . S
O447 C463 1.254 . S
O448 Dy440 2.339 1_455 S
O448 C463 1.257 . S
O449 Dy441 2.307 . S
O449 C464 1.253 1_455 S
O450 Dy440 2.298 . S
O450 C464 1.252 . S
O451 Dy441 2.395 . S
O451 C471 1.255 . S
O452 Dy441 2.379 . S
O452 C471 1.249 . S
C453 O443 1.244 1_455 S
C453 O444 1.264 . S
O454 Dy440 2.275 . S
O454 C442 1.254 . S
O455 Dy441 2.339 1_655 S
O455 C442 1.257 . S
C456 C459 1.344 . S
C456 C460 1.328 . S
C456 C462 1.516 . S
C457 C458 1.304 . S
C457 C461 1.323 . S
C458 C457 1.304 . S
C458 C459 1.371 . S
C458 H472 0.930 . S
C459 C456 1.344 . S
C459 C458 1.371 . S
C459 H473 0.931 . S
C460 C456 1.328 . S
C460 C461 1.433 . S
C460 H474 0.931 . S
C461 C457 1.323 . S
C461 C460 1.433 . S
C461 H475 0.933 . S
C462 Dy440 2.738 . S
C462 O445 1.255 . S
C462 O446 1.249 . S
C462 C456 1.516 . S
C463 O447 1.254 . S
C463 O448 1.257 . S
C464 O449 1.253 1_655 S
C464 O450 1.252 . S
C465 C468 1.344 . S
C465 C469 1.328 . S
C465 C471 1.516 . S
C466 C467 1.304 . S
C466 C470 1.323 . S
C467 C466 1.304 . S
C467 C468 1.371 . S
C467 H476 0.930 . S
C468 C465 1.344 . S
C468 C467 1.371 . S
C468 H477 0.931 . S
C469 C465 1.328 . S
C469 C470 1.433 . S
C469 H478 0.931 . S
C470 C466 1.323 . S
C470 C469 1.433 . S
C470 H479 0.933 . S
C471 Dy441 2.738 . S
C471 O451 1.255 . S
C471 O452 1.249 . S
C471 C465 1.516 . S
H472 C458 0.930 . S
H473 C459 0.931 . S
H474 C460 0.931 . S
H475 C461 0.933 . S
H476 C467 0.930 . S
H477 C468 0.931 . S
H478 C469 0.931 . S
H479 C470 0.933 . S
Dy480 O483 2.307 . S
Dy480 O485 2.395 . S
Dy480 O486 2.379 . S
Dy480 O488 2.339 . S
Dy480 O490 2.298 . S
Dy480 O494 2.275 . S
Dy480 C502 2.738 . S
Dy481 O484 2.298 . S
Dy481 O487 2.275 . S
Dy481 O489 2.307 . S
Dy481 O491 2.395 . S
Dy481 O492 2.379 . S
Dy481 O495 2.339 . S
Dy481 C511 2.738 . S
C482 O494 1.254 . S
C482 O495 1.257 . S
O483 Dy480 2.307 . S
O483 C493 1.266 . S
O484 Dy481 2.298 . S
O484 C493 1.236 . S
O485 Dy480 2.395 . S
O485 C502 1.255 . S
O486 Dy480 2.379 . S
O486 C502 1.249 . S
O487 Dy481 2.275 . S
O487 C503 1.254 . S
O488 Dy480 2.339 . S
O488 C503 1.257 . S
O489 Dy481 2.307 . S
O489 C504 1.266 . S
O490 Dy480 2.298 . S
O490 C504 1.236 . S
O491 Dy481 2.395 . S
O491 C511 1.255 . S
O492 Dy481 2.379 . S
O492 C511 1.249 . S
C493 O483 1.266 . S
C493 O484 1.236 . S
O494 Dy480 2.275 . S
O494 C482 1.254 . S
O495 Dy481 2.339 . S
O495 C482 1.257 . S
C496 C499 1.344 . S
C496 C500 1.328 . S
C496 C502 1.516 . S
C497 C498 1.304 . S
C497 C501 1.323 . S
C498 C497 1.304 . S
C498 C499 1.371 . S
C498 H512 0.930 . S
C499 C496 1.344 . S
C499 C498 1.371 . S
C499 H513 0.931 . S
C500 C496 1.328 . S
C500 C501 1.433 . S
C500 H514 0.931 . S
C501 C497 1.323 . S
C501 C500 1.433 . S
C501 H515 0.933 . S
C502 Dy480 2.738 . S
C502 O485 1.255 . S
C502 O486 1.249 . S
C502 C496 1.516 . S
C503 O487 1.254 . S
C503 O488 1.257 . S
C504 O489 1.266 . S
C504 O490 1.236 . S
C505 C508 1.344 . S
C505 C509 1.328 . S
C505 C511 1.516 . S
C506 C507 1.304 . S
C506 C510 1.323 . S
C507 C506 1.304 . S
C507 C508 1.371 . S
C507 H516 0.930 . S
C508 C505 1.344 . S
C508 C507 1.371 . S
C508 H517 0.931 . S
C509 C505 1.328 . S
C509 C510 1.433 . S
C509 H518 0.931 . S
C510 C506 1.323 . S
C510 C509 1.433 . S
C510 H519 0.933 . S
C511 Dy481 2.738 . S
C511 O491 1.255 . S
C511 O492 1.249 . S
C511 C505 1.516 . S
H512 C498 0.930 . S
H513 C499 0.931 . S
H514 C500 0.931 . S
H515 C501 0.933 . S
H516 C507 0.930 . S
H517 C508 0.931 . S
H518 C509 0.931 . S
H519 C510 0.933 . S
Dy520 O523 2.307 . S
Dy520 O525 2.395 . S
Dy520 O526 2.379 . S
Dy520 O528 2.339 . S
Dy520 O530 2.298 1_556 S
Dy520 O534 2.275 1_556 S
Dy520 C542 2.738 . S
Dy521 O524 2.298 1_554 S
Dy521 O527 2.275 1_554 S
Dy521 O529 2.307 . S
Dy521 O531 2.395 . S
Dy521 O532 2.379 . S
Dy521 O535 2.339 . S
Dy521 C551 2.738 . S
C522 O534 1.254 . S
C522 O535 1.257 . S
O523 Dy520 2.307 . S
O523 C533 1.266 . S
O524 Dy521 2.298 1_556 S
O524 C533 1.236 . S
O525 Dy520 2.395 . S
O525 C542 1.255 . S
O526 Dy520 2.379 . S
O526 C542 1.249 . S
O527 Dy521 2.275 1_556 S
O527 C543 1.254 . S
O528 Dy520 2.339 . S
O528 C543 1.257 . S
O529 Dy521 2.307 . S
O529 C544 1.266 . S
O530 Dy520 2.298 1_554 S
O530 C544 1.236 . S
O531 Dy521 2.395 . S
O531 C551 1.255 . S
O532 Dy521 2.379 . S
O532 C551 1.249 . S
C533 O523 1.266 . S
C533 O524 1.236 . S
O534 Dy520 2.275 1_554 S
O534 C522 1.254 . S
O535 Dy521 2.339 . S
O535 C522 1.257 . S
C536 C539 1.344 . S
C536 C540 1.328 . S
C536 C542 1.516 . S
C537 C538 1.304 . S
C537 C541 1.323 . S
C538 C537 1.304 . S
C538 C539 1.371 . S
C538 H552 0.930 1_556 S
C539 C536 1.344 . S
C539 C538 1.371 . S
C539 H553 0.931 1_556 S
C540 C536 1.328 . S
C540 C541 1.433 . S
C540 H554 0.931 . S
C541 C537 1.323 . S
C541 C540 1.433 . S
C541 H555 0.933 . S
C542 Dy520 2.738 . S
C542 O525 1.255 . S
C542 O526 1.249 . S
C542 C536 1.516 . S
C543 O527 1.254 . S
C543 O528 1.257 . S
C544 O529 1.266 . S
C544 O530 1.236 . S
C545 C548 1.344 . S
C545 C549 1.328 . S
C545 C551 1.516 . S
C546 C547 1.304 . S
C546 C550 1.323 . S
C547 C546 1.304 . S
C547 C548 1.371 . S
C547 H556 0.930 1_554 S
C548 C545 1.344 . S
C548 C547 1.371 . S
C548 H557 0.931 1_554 S
C549 C545 1.328 . S
C549 C550 1.433 . S
C549 H558 0.931 . S
C550 C546 1.323 . S
C550 C549 1.433 . S
C550 H559 0.933 . S
C551 Dy521 2.738 . S
C551 O531 1.255 . S
C551 O532 1.249 . S
C551 C545 1.516 . S
H552 C538 0.930 1_554 S
H553 C539 0.931 1_554 S
H554 C540 0.931 . S
H555 C541 0.933 . S
H556 C547 0.930 1_556 S
H557 C548 0.931 1_556 S
H558 C549 0.931 . S
H559 C550 0.933 . S
Dy560 O563 2.307 . S
Dy560 O565 2.395 . S
Dy560 O566 2.379 . S
Dy560 O568 2.339 1_565 S
Dy560 O570 2.298 1_565 S
Dy560 O574 2.275 . S
Dy560 C582 2.738 . S
Dy561 O564 2.298 1_545 S
Dy561 O567 2.275 . S
Dy561 O569 2.307 . S
Dy561 O571 2.395 . S
Dy561 O572 2.379 . S
Dy561 O575 2.339 1_545 S
Dy561 C591 2.738 . S
C562 O574 1.254 . S
C562 O575 1.257 . S
O563 Dy560 2.307 . S
O563 C573 1.266 . S
O564 Dy561 2.298 1_565 S
O564 C573 1.236 . S
O565 Dy560 2.395 . S
O565 C582 1.255 . S
O566 Dy560 2.379 . S
O566 C582 1.249 . S
O567 Dy561 2.275 . S
O567 C583 1.254 . S
O568 Dy560 2.339 1_545 S
O568 C583 1.257 . S
O569 Dy561 2.307 . S
O569 C584 1.266 . S
O570 Dy560 2.298 1_545 S
O570 C584 1.236 . S
O571 Dy561 2.395 . S
O571 C591 1.255 . S
O572 Dy561 2.379 . S
O572 C591 1.249 . S
C573 O563 1.266 . S
C573 O564 1.236 . S
O574 Dy560 2.275 . S
O574 C562 1.254 . S
O575 Dy561 2.339 1_565 S
O575 C562 1.257 . S
C576 C579 1.344 . S
C576 C580 1.328 . S
C576 C582 1.516 . S
C577 C578 1.304 . S
C577 C581 1.323 . S
C578 C577 1.304 . S
C578 C579 1.371 . S
C578 H592 0.930 . S
C579 C576 1.344 . S
C579 C578 1.371 . S
C579 H593 0.931 . S
C580 C576 1.328 . S
C580 C581 1.433 . S
C580 H594 0.931 . S
C581 C577 1.323 . S
C581 C580 1.433 . S
C581 H595 0.933 . S
C582 Dy560 2.738 . S
C582 O565 1.255 . S
C582 O566 1.249 . S
C582 C576 1.516 . S
C583 O567 1.254 . S
C583 O568 1.257 . S
C584 O569 1.266 . S
C584 O570 1.236 . S
C585 C588 1.344 . S
C585 C589 1.328 . S
C585 C591 1.516 . S
C586 C587 1.304 . S
C586 C590 1.323 . S
C587 C586 1.304 . S
C587 C588 1.371 . S
C587 H596 0.930 . S
C588 C585 1.344 . S
C588 C587 1.371 . S
C588 H597 0.931 . S
C589 C585 1.328 . S
C589 C590 1.433 . S
C589 H598 0.931 . S
C590 C586 1.323 . S
C590 C589 1.433 . S
C590 H599 0.933 . S
C591 Dy561 2.738 . S
C591 O571 1.255 . S
C591 O572 1.249 . S
C591 C585 1.516 . S
H592 C578 0.930 . S
H593 C579 0.931 . S
H594 C580 0.931 . S
H595 C581 0.933 . S
H596 C587 0.930 . S
H597 C588 0.931 . S
H598 C589 0.931 . S
H599 C590 0.933 . S
Dy600 O603 2.307 . S
Dy600 O605 2.395 . S
Dy600 O606 2.379 . S
Dy600 O608 2.339 . S
Dy600 O610 2.298 1_554 S
Dy600 O614 2.275 1_554 S
Dy600 C622 2.738 . S
Dy601 O604 2.298 1_556 S
Dy601 O607 2.275 1_556 S
Dy601 O609 2.307 . S
Dy601 O611 2.395 . S
Dy601 O612 2.379 . S
Dy601 O615 2.339 . S
Dy601 C631 2.738 . S
C602 O614 1.254 . S
C602 O615 1.257 . S
O603 Dy600 2.307 . S
O603 C613 1.266 . S
O604 Dy601 2.298 1_554 S
O604 C613 1.236 . S
O605 Dy600 2.395 . S
O605 C622 1.255 . S
O606 Dy600 2.379 . S
O606 C622 1.249 . S
O607 Dy601 2.275 1_554 S
O607 C623 1.254 . S
O608 Dy600 2.339 . S
O608 C623 1.257 . S
O609 Dy601 2.307 . S
O609 C624 1.266 . S
O610 Dy600 2.298 1_556 S
O610 C624 1.236 . S
O611 Dy601 2.395 . S
O611 C631 1.255 . S
O612 Dy601 2.379 . S
O612 C631 1.249 . S
C613 O603 1.266 . S
C613 O604 1.236 . S
O614 Dy600 2.275 1_556 S
O614 C602 1.254 . S
O615 Dy601 2.339 . S
O615 C602 1.257 . S
C616 C619 1.344 . S
C616 C620 1.328 . S
C616 C622 1.516 . S
C617 C618 1.304 . S
C617 C621 1.323 . S
C618 C617 1.304 . S
C618 C619 1.371 . S
C618 H632 0.930 1_554 S
C619 C616 1.344 . S
C619 C618 1.371 . S
C619 H633 0.931 1_554 S
C620 C616 1.328 . S
C620 C621 1.433 . S
C620 H634 0.931 . S
C621 C617 1.323 . S
C621 C620 1.433 . S
C621 H635 0.933 . S
C622 Dy600 2.738 . S
C622 O605 1.255 . S
C622 O606 1.249 . S
C622 C616 1.516 . S
C623 O607 1.254 . S
C623 O608 1.257 . S
C624 O609 1.266 . S
C624 O610 1.236 . S
C625 C628 1.344 . S
C625 C629 1.328 . S
C625 C631 1.516 . S
C626 C627 1.304 . S
C626 C630 1.323 . S
C627 C626 1.304 . S
C627 C628 1.371 . S
C627 H636 0.930 1_556 S
C628 C625 1.344 . S
C628 C627 1.371 . S
C628 H637 0.931 1_556 S
C629 C625 1.328 . S
C629 C630 1.433 . S
C629 H638 0.931 . S
C630 C626 1.323 . S
C630 C629 1.433 . S
C630 H639 0.933 . S
C631 Dy601 2.738 . S
C631 O611 1.255 . S
C631 O612 1.249 . S
C631 C625 1.516 . S
H632 C618 0.930 1_556 S
H633 C619 0.931 1_556 S
H634 C620 0.931 . S
H635 C621 0.933 . S
H636 C627 0.930 1_554 S
H637 C628 0.931 1_554 S
H638 C629 0.931 . S
H639 C630 0.933 . S
H640 C648 0.929 . S
H641 C650 0.930 . S
H642 C652 0.930 . S
H643 C655 0.929 . S
H644 C658 0.930 . S
H645 C660 0.960 . S
H646 C660 0.960 . S
H647 C660 0.960 . S
C648 H640 0.929 . S
C648 C649 1.377 . S
C648 C650 1.384 . S
C649 C648 1.377 . S
C649 C655 1.390 . S
C650 H641 0.930 . S
C650 C648 1.384 . S
C650 C651 1.372 . S
C651 C650 1.372 . S
C651 C652 1.400 . S
C651 C656 1.490 . S
C652 H642 0.930 . S
C652 C651 1.400 . S
C652 C655 1.386 . S
H653 C669 0.930 . S
H654 C670 0.931 . S
C655 H643 0.929 . S
C655 C649 1.390 . S
C655 C652 1.386 . S
C656 C651 1.490 . S
C656 C658 1.395 . S
C656 C659 1.403 1_655 S
H657 C663 0.930 . S
C658 H644 0.930 . S
C658 C656 1.395 . S
C658 C661 1.403 . S
C659 C656 1.403 1_455 S
C659 C660 1.524 . S
C659 C663 1.400 . S
C660 H645 0.960 . S
C660 H646 0.960 . S
C660 H647 0.960 . S
C660 C659 1.524 . S
C661 C658 1.403 . S
C661 C662 1.392 . S
C661 C665 1.495 . S
C662 C661 1.392 . S
C662 C663 1.385 1_655 S
C662 C664 1.478 . S
C663 H657 0.930 . S
C663 C659 1.400 . S
C663 C662 1.385 1_455 S
C664 C662 1.478 . S
C664 C666 1.381 . S
C664 C670 1.383 . S
C665 C661 1.495 . S
C665 H671 0.959 . S
C665 H672 0.961 . S
C665 H673 0.960 . S
C666 C664 1.381 . S
C666 C667 1.394 . S
C666 H674 0.930 . S
C667 C666 1.394 . S
C667 C668 1.383 . S
C667 H675 0.949 . S
C668 C667 1.383 . S
C668 C669 1.391 . S
C669 H653 0.930 . S
C669 C668 1.391 . S
C669 C670 1.379 . S
C670 H654 0.931 . S
C670 C664 1.383 . S
C670 C669 1.379 . S
H671 C665 0.959 . S
H672 C665 0.961 . S
H673 C665 0.960 . S
H674 C666 0.930 . S
H675 C667 0.949 . S
H676 C684 0.929 . S
H677 C686 0.930 . S
H678 C688 0.930 . S
H679 C691 0.929 . S
H680 C694 0.930 . S
H681 C696 0.960 . S
H682 C696 0.960 . S
H683 C696 0.960 . S
C684 H676 0.929 . S
C684 C685 1.377 . S
C684 C686 1.384 . S
C685 C684 1.377 . S
C685 C691 1.390 . S
C686 H677 0.930 . S
C686 C684 1.384 . S
C686 C687 1.372 . S
C687 C686 1.372 . S
C687 C688 1.400 . S
C687 C692 1.490 . S
C688 H678 0.930 . S
C688 C687 1.400 . S
C688 C691 1.386 . S
H689 C705 0.930 . S
H690 C706 0.931 . S
C691 H679 0.929 . S
C691 C685 1.390 . S
C691 C688 1.386 . S
C692 C687 1.490 . S
C692 C694 1.395 . S
C692 C695 1.403 . S
H693 C699 0.930 . S
C694 H680 0.930 . S
C694 C692 1.395 . S
C694 C697 1.403 . S
C695 C692 1.403 . S
C695 C696 1.524 . S
C695 C699 1.400 . S
C696 H681 0.960 . S
C696 H682 0.960 . S
C696 H683 0.960 . S
C696 C695 1.524 . S
C697 C694 1.403 . S
C697 C698 1.392 . S
C697 C701 1.495 . S
C698 C697 1.392 . S
C698 C699 1.385 . S
C698 C700 1.478 . S
C699 H693 0.930 . S
C699 C695 1.400 . S
C699 C698 1.385 . S
C700 C698 1.478 . S
C700 C702 1.381 . S
C700 C706 1.383 . S
C701 C697 1.495 . S
C701 H707 0.959 . S
C701 H708 0.961 . S
C701 H709 0.960 . S
C702 C700 1.381 . S
C702 C703 1.394 . S
C702 H710 0.930 . S
C703 C702 1.394 . S
C703 C704 1.383 . S
C703 H711 0.929 . S
C704 C703 1.383 . S
C704 C705 1.377 . S
C705 H689 0.930 . S
C705 C704 1.377 . S
C705 C706 1.379 . S
C706 H690 0.931 . S
C706 C700 1.383 . S
C706 C705 1.379 . S
H707 C701 0.959 . S
H708 C701 0.961 . S
H709 C701 0.960 . S
H710 C702 0.930 . S
H711 C703 0.929 . S
H712 C720 0.929 . S
H713 C722 0.930 . S
H714 C724 0.930 . S
H715 C727 0.929 . S
H716 C730 0.930 . S
H717 C732 0.960 . S
H718 C732 0.960 . S
H719 C732 0.960 . S
C720 H712 0.929 . S
C720 C721 1.377 . S
C720 C722 1.384 . S
C721 C720 1.377 . S
C721 C727 1.390 . S
C722 H713 0.930 . S
C722 C720 1.384 . S
C722 C723 1.372 . S
C723 C722 1.372 . S
C723 C724 1.400 . S
C723 C728 1.490 . S
C724 H714 0.930 . S
C724 C723 1.400 . S
C724 C727 1.386 . S
H725 C741 0.930 . S
H726 C742 0.931 . S
C727 H715 0.929 . S
C727 C721 1.390 . S
C727 C724 1.386 . S
C728 C723 1.490 . S
C728 C730 1.395 . S
C728 C731 1.403 . S
H729 C735 0.930 . S
C730 H716 0.930 . S
C730 C728 1.395 . S
C730 C733 1.403 . S
C731 C728 1.403 . S
C731 C732 1.524 . S
C731 C735 1.400 . S
C732 H717 0.960 . S
C732 H718 0.960 . S
C732 H719 0.960 . S
C732 C731 1.524 . S
C733 C730 1.403 . S
C733 C734 1.392 . S
C733 C737 1.495 . S
C734 C733 1.392 . S
C734 C735 1.385 . S
C734 C736 1.478 . S
C735 H729 0.930 . S
C735 C731 1.400 . S
C735 C734 1.385 . S
C736 C734 1.478 . S
C736 C738 1.381 . S
C736 C742 1.383 . S
C737 C733 1.495 . S
C737 H743 0.959 . S
C737 H744 0.961 . S
C737 H745 0.960 . S
C738 C736 1.381 . S
C738 C739 1.394 . S
C738 H746 0.930 . S
C739 C738 1.394 . S
C739 C740 1.383 . S
C739 H747 0.929 . S
C740 C739 1.383 . S
C740 C741 1.377 . S
C741 H725 0.930 . S
C741 C740 1.377 . S
C741 C742 1.379 . S
C742 H726 0.931 . S
C742 C736 1.383 . S
C742 C741 1.379 . S
H743 C737 0.959 . S
H744 C737 0.961 . S
H745 C737 0.960 . S
H746 C738 0.930 . S
H747 C739 0.929 . S
H748 C756 0.929 . S
H749 C758 0.930 . S
H750 C760 0.925 1_565 S
H751 C763 0.928 1_565 S
H752 C766 0.930 . S
H753 C768 0.960 . S
H754 C768 0.960 . S
H755 C768 0.960 . S
C756 H748 0.929 . S
C756 C757 1.377 . S
C756 C758 1.384 . S
C757 C756 1.377 . S
C757 C763 1.392 . S
C758 H749 0.930 . S
C758 C756 1.384 . S
C758 C759 1.372 . S
C759 C758 1.372 . S
C759 C760 1.403 . S
C759 C764 1.490 . S
C760 H750 0.925 1_545 S
C760 C759 1.403 . S
C760 C763 1.386 . S
H761 C777 0.930 . S
H762 C778 0.931 . S
C763 H751 0.928 1_545 S
C763 C757 1.392 . S
C763 C760 1.386 . S
C764 C759 1.490 . S
C764 C766 1.395 . S
C764 C767 1.403 . S
H765 C771 0.930 . S
C766 H752 0.930 . S
C766 C764 1.395 . S
C766 C769 1.403 . S
C767 C764 1.403 . S
C767 C768 1.524 . S
C767 C771 1.400 . S
C768 H753 0.960 . S
C768 H754 0.960 . S
C768 H755 0.960 . S
C768 C767 1.524 . S
C769 C766 1.403 . S
C769 C770 1.392 . S
C769 C773 1.495 . S
C770 C769 1.392 . S
C770 C771 1.385 . S
C770 C772 1.478 . S
C771 H765 0.930 . S
C771 C767 1.400 . S
C771 C770 1.385 . S
C772 C770 1.478 . S
C772 C774 1.381 . S
C772 C778 1.383 1_545 S
C773 C769 1.495 . S
C773 H779 0.958 1_545 S
C773 H780 0.961 1_545 S
C773 H781 0.960 . S
C774 C772 1.381 . S
C774 C775 1.394 . S
C774 H782 0.930 . S
C775 C774 1.394 . S
C775 C776 1.383 . S
C775 H783 0.929 . S
C776 C775 1.383 . S
C776 C777 1.377 1_545 S
C777 H761 0.930 . S
C777 C776 1.377 1_565 S
C777 C778 1.379 . S
C778 H762 0.931 . S
C778 C772 1.383 1_565 S
C778 C777 1.379 . S
H779 C773 0.958 1_565 S
H780 C773 0.961 1_565 S
H781 C773 0.960 . S
H782 C774 0.930 . S
H783 C775 0.929 . S
H784 C792 0.929 . S
H785 C794 0.930 . S
H786 C796 0.930 . S
H787 C799 0.929 . S
H788 C802 0.930 . S
H789 C804 0.960 . S
H790 C804 0.960 . S
H791 C804 0.960 . S
C792 H784 0.929 . S
C792 C793 1.377 . S
C792 C794 1.384 . S
C793 C792 1.377 . S
C793 C799 1.390 . S
C794 H785 0.930 . S
C794 C792 1.384 . S
C794 C795 1.372 . S
C795 C794 1.372 . S
C795 C796 1.400 . S
C795 C800 1.490 . S
C796 H786 0.930 . S
C796 C795 1.400 . S
C796 C799 1.386 . S
H797 C813 0.921 1_545 S
H798 C814 0.931 1_545 S
C799 H787 0.929 . S
C799 C793 1.390 . S
C799 C796 1.386 . S
C800 C795 1.490 . S
C800 C802 1.395 1_565 S
C800 C803 1.403 . S
H801 C807 0.930 . S
C802 H788 0.930 . S
C802 C800 1.395 1_545 S
C802 C805 1.403 . S
C803 C800 1.403 . S
C803 C804 1.524 . S
C803 C807 1.400 . S
C804 H789 0.960 . S
C804 H790 0.960 . S
C804 H791 0.960 . S
C804 C803 1.524 . S
C805 C802 1.403 . S
C805 C806 1.392 1_545 S
C805 C809 1.495 . S
C806 C805 1.392 1_565 S
C806 C807 1.385 . S
C806 C808 1.478 . S
C807 H801 0.930 . S
C807 C803 1.400 . S
C807 C806 1.385 . S
C808 C806 1.478 . S
C808 C810 1.381 . S
C808 C814 1.383 . S
C809 C805 1.495 . S
C809 H815 0.959 . S
C809 H816 0.961 . S
C809 H817 0.960 . S
C810 C808 1.381 . S
C810 C811 1.394 . S
C810 H818 0.930 . S
C811 C810 1.394 . S
C811 C812 1.383 . S
C811 H819 0.929 . S
C812 C811 1.383 . S
C812 C813 1.377 . S
C813 H797 0.921 1_565 S
C813 C812 1.377 . S
C813 C814 1.379 . S
C814 H798 0.931 1_565 S
C814 C808 1.383 . S
C814 C813 1.379 . S
H815 C809 0.959 . S
H816 C809 0.961 . S
H817 C809 0.960 . S
H818 C810 0.930 . S
H819 C811 0.929 . S
H820 C828 0.929 . S
H821 C830 0.930 . S
H822 C832 0.930 . S
H823 C835 0.929 . S
H824 C838 0.930 . S
H825 C840 0.960 . S
H826 C840 0.960 . S
H827 C840 0.960 . S
C828 H820 0.929 . S
C828 C829 1.377 1_655 S
C828 C830 1.384 . S
C829 C828 1.377 1_455 S
C829 C835 1.390 . S
C830 H821 0.930 . S
C830 C828 1.384 . S
C830 C831 1.372 1_655 S
C831 C830 1.372 1_455 S
C831 C832 1.400 . S
C831 C836 1.490 . S
C832 H822 0.930 . S
C832 C831 1.400 . S
C832 C835 1.386 . S
H833 C849 0.930 . S
H834 C850 0.931 . S
C835 H823 0.929 . S
C835 C829 1.390 . S
C835 C832 1.386 . S
C836 C831 1.490 . S
C836 C838 1.395 1_455 S
C836 C839 1.403 . S
H837 C843 0.930 . S
C838 H824 0.930 . S
C838 C836 1.395 1_655 S
C838 C841 1.403 . S
C839 C836 1.403 . S
C839 C840 1.524 . S
C839 C843 1.400 . S
C840 H825 0.960 . S
C840 H826 0.960 . S
C840 H827 0.960 . S
C840 C839 1.524 . S
C841 C838 1.403 . S
C841 C842 1.392 1_655 S
C841 C845 1.495 . S
C842 C841 1.392 1_455 S
C842 C843 1.385 . S
C842 C844 1.465 1_455 S
C843 H837 0.930 . S
C843 C839 1.400 . S
C843 C842 1.385 . S
C844 C842 1.465 1_655 S
C844 C846 1.417 . S
C844 C850 1.359 1_655 S
C845 C841 1.495 . S
C845 H851 0.959 . S
C845 H852 0.961 . S
C845 H853 0.960 . S
C846 C844 1.417 . S
C846 C847 1.394 . S
C846 H854 0.930 . S
C847 C846 1.394 . S
C847 C848 1.383 . S
C847 H855 0.929 . S
C848 C847 1.383 . S
C848 C849 1.377 1_655 S
C849 H833 0.930 . S
C849 C848 1.377 1_455 S
C849 C850 1.379 . S
C850 H834 0.931 . S
C850 C844 1.359 1_455 S
C850 C849 1.379 . S
H851 C845 0.959 . S
H852 C845 0.961 . S
H853 C845 0.960 . S
H854 C846 0.930 . S
H855 C847 0.929 . S
H856 C864 0.929 . S
H857 C866 0.930 . S
H858 C868 0.930 . S
H859 C871 0.929 . S
H860 C874 0.930 . S
H861 C876 0.960 . S
H862 C876 0.960 . S
H863 C876 0.960 . S
C864 H856 0.929 . S
C864 C865 1.377 . S
C864 C866 1.384 . S
C865 C864 1.377 . S
C865 C871 1.390 . S
C866 H857 0.930 . S
C866 C864 1.384 . S
C866 C867 1.372 . S
C867 C866 1.372 . S
C867 C868 1.400 . S
C867 C872 1.490 . S
C868 H858 0.930 . S
C868 C867 1.400 . S
C868 C871 1.386 . S
H869 C885 0.930 . S
H870 C886 0.931 . S
C871 H859 0.929 . S
C871 C865 1.390 . S
C871 C868 1.386 . S
C872 C867 1.490 . S
C872 C874 1.395 . S
C872 C875 1.403 . S
H873 C879 0.930 . S
C874 H860 0.930 . S
C874 C872 1.395 . S
C874 C877 1.403 . S
C875 C872 1.403 . S
C875 C876 1.524 . S
C875 C879 1.400 . S
C876 H861 0.960 . S
C876 H862 0.960 . S
C876 H863 0.960 . S
C876 C875 1.524 . S
C877 C874 1.403 . S
C877 C878 1.392 . S
C877 C881 1.495 . S
C878 C877 1.392 . S
C878 C879 1.385 . S
C878 C880 1.478 . S
C879 H873 0.930 . S
C879 C875 1.400 . S
C879 C878 1.385 . S
C880 C878 1.478 . S
C880 C882 1.381 . S
C880 C886 1.383 . S
C881 C877 1.495 . S
C881 H887 0.959 . S
C881 H888 0.961 . S
C881 H889 0.960 . S
C882 C880 1.381 . S
C882 C883 1.394 . S
C882 H890 0.930 . S
C883 C882 1.394 . S
C883 C884 1.383 . S
C883 H891 0.929 . S
C884 C883 1.383 . S
C884 C885 1.377 . S
C885 H869 0.930 . S
C885 C884 1.377 . S
C885 C886 1.379 . S
C886 H870 0.931 . S
C886 C880 1.383 . S
C886 C885 1.379 . S
H887 C881 0.959 . S
H888 C881 0.961 . S
H889 C881 0.960 . S
H890 C882 0.930 . S
H891 C883 0.929 . S
H892 C900 0.929 . S
H893 C902 0.930 . S
H894 C904 0.930 . S
H895 C907 0.929 . S
H896 C910 0.930 . S
H897 C912 0.960 . S
H898 C912 0.960 . S
H899 C912 0.960 . S
C900 H892 0.929 . S
C900 C901 1.377 . S
C900 C902 1.384 . S
C901 C900 1.377 . S
C901 C907 1.390 . S
C902 H893 0.930 . S
C902 C900 1.384 . S
C902 C903 1.372 . S
C903 C902 1.372 . S
C903 C904 1.400 . S
C903 C908 1.490 . S
C904 H894 0.930 . S
C904 C903 1.400 . S
C904 C907 1.386 . S
H905 C921 0.930 . S
H906 C922 0.931 . S
C907 H895 0.929 . S
C907 C901 1.390 . S
C907 C904 1.386 . S
C908 C903 1.490 . S
C908 C910 1.395 . S
C908 C911 1.403 . S
H909 C915 0.930 . S
C910 H896 0.930 . S
C910 C908 1.395 . S
C910 C913 1.403 . S
C911 C908 1.403 . S
C911 C912 1.524 . S
C911 C915 1.400 . S
C912 H897 0.960 . S
C912 H898 0.960 . S
C912 H899 0.960 . S
C912 C911 1.524 . S
C913 C910 1.403 . S
C913 C914 1.392 . S
C913 C917 1.495 . S
C914 C913 1.392 . S
C914 C915 1.385 . S
C914 C916 1.478 . S
C915 H909 0.930 . S
C915 C911 1.400 . S
C915 C914 1.385 . S
C916 C914 1.478 . S
C916 C918 1.381 . S
C916 C922 1.383 . S
C917 C913 1.495 . S
C917 H923 0.959 . S
C917 H924 0.961 . S
C917 H925 0.960 . S
C918 C916 1.381 . S
C918 C919 1.394 . S
C918 H926 0.930 . S
C919 C918 1.394 . S
C919 C920 1.383 . S
C919 H927 0.929 . S
C920 C919 1.383 . S
C920 C921 1.377 . S
C921 H905 0.930 . S
C921 C920 1.377 . S
C921 C922 1.379 . S
C922 H906 0.931 . S
C922 C916 1.383 . S
C922 C921 1.379 . S
H923 C917 0.959 . S
H924 C917 0.961 . S
H925 C917 0.960 . S
H926 C918 0.930 . S
H927 C919 0.929 . S
H928 C936 0.929 . S
H929 C938 0.930 . S
H930 C940 0.930 . S
H931 C943 0.929 . S
H932 C946 0.930 . S
H933 C948 0.960 . S
H934 C948 0.960 . S
H935 C948 0.960 . S
C936 H928 0.929 . S
C936 C937 1.377 . S
C936 C938 1.384 . S
C937 C936 1.377 . S
C937 C943 1.390 . S
C938 H929 0.930 . S
C938 C936 1.384 . S
C938 C939 1.372 . S
C939 C938 1.372 . S
C939 C940 1.400 . S
C939 C944 1.490 . S
C940 H930 0.930 . S
C940 C939 1.400 . S
C940 C943 1.386 . S
H941 C957 0.930 . S
H942 C958 0.931 . S
C943 H931 0.929 . S
C943 C937 1.390 . S
C943 C940 1.386 . S
C944 C939 1.490 . S
C944 C946 1.395 . S
C944 C947 1.403 . S
H945 C951 0.930 . S
C946 H932 0.930 . S
C946 C944 1.395 . S
C946 C949 1.403 . S
C947 C944 1.403 . S
C947 C948 1.524 . S
C947 C951 1.400 . S
C948 H933 0.960 . S
C948 H934 0.960 . S
C948 H935 0.960 . S
C948 C947 1.524 . S
C949 C946 1.403 . S
C949 C950 1.392 . S
C949 C953 1.495 . S
C950 C949 1.392 . S
C950 C951 1.385 . S
C950 C952 1.478 . S
C951 H945 0.930 . S
C951 C947 1.400 . S
C951 C950 1.385 . S
C952 C950 1.478 . S
C952 C954 1.381 . S
C952 C958 1.383 . S
C953 C949 1.495 . S
C953 H959 0.959 . S
C953 H960 0.961 . S
C953 H961 0.960 . S
C954 C952 1.381 . S
C954 C955 1.394 . S
C954 H962 0.930 . S
C955 C954 1.394 . S
C955 C956 1.383 . S
C955 H963 0.929 . S
C956 C955 1.383 . S
C956 C957 1.377 . S
C957 H941 0.930 . S
C957 C956 1.377 . S
C957 C958 1.379 . S
C958 H942 0.931 . S
C958 C952 1.383 . S
C958 C957 1.379 . S
H959 C953 0.959 . S
H960 C953 0.961 . S
H961 C953 0.960 . S
H962 C954 0.930 . S
H963 C955 0.929 . S
H964 C972 0.929 . S
H965 C974 0.930 . S
H966 C976 0.930 . S
H967 C979 0.929 . S
H968 C982 0.930 . S
H969 C984 0.960 . S
H970 C984 0.960 . S
H971 C984 0.960 . S
C972 H964 0.929 . S
C972 C973 1.377 . S
C972 C974 1.384 . S
C973 C972 1.377 . S
C973 C979 1.390 . S
C974 H965 0.930 . S
C974 C972 1.384 . S
C974 C975 1.372 . S
C975 C974 1.372 . S
C975 C976 1.400 . S
C975 C980 1.490 . S
C976 H966 0.930 . S
C976 C975 1.400 . S
C976 C979 1.386 . S
H977 C993 0.930 . S
H978 C994 0.931 . S
C979 H967 0.929 . S
C979 C973 1.390 . S
C979 C976 1.386 . S
C980 C975 1.490 . S
C980 C982 1.395 . S
C980 C983 1.403 . S
H981 C987 0.930 . S
C982 H968 0.930 . S
C982 C980 1.395 . S
C982 C985 1.403 . S
C983 C980 1.403 . S
C983 C984 1.524 . S
C983 C987 1.400 . S
C984 H969 0.960 . S
C984 H970 0.960 . S
C984 H971 0.960 . S
C984 C983 1.524 . S
C985 C982 1.403 . S
C985 C986 1.392 . S
C985 C989 1.495 . S
C986 C985 1.392 . S
C986 C987 1.385 . S
C986 C988 1.478 . S
C987 H981 0.930 . S
C987 C983 1.400 . S
C987 C986 1.385 . S
C988 C986 1.478 . S
C988 C990 1.381 . S
C988 C994 1.383 . S
C989 C985 1.495 . S
C989 H995 0.959 . S
C989 H996 0.961 . S
C989 H997 0.960 . S
C990 C988 1.381 . S
C990 C991 1.394 . S
C990 H998 0.930 . S
C991 C990 1.394 . S
C991 C992 1.383 . S
C991 H999 0.929 . S
C992 C991 1.383 . S
C992 C993 1.377 . S
C993 H977 0.930 . S
C993 C992 1.377 . S
C993 C994 1.379 . S
C994 H978 0.931 . S
C994 C988 1.383 . S
C994 C993 1.379 . S
H995 C989 0.959 . S
H996 C989 0.961 . S
H997 C989 0.960 . S
H998 C990 0.930 . S
H999 C991 0.929 . S
H1000 C1008 0.929 1_545 S
H1001 C1010 0.921 1_545 S
H1002 C1012 0.930 . S
H1003 C1015 0.929 . S
H1004 C1018 0.930 . S
H1005 C1020 0.960 . S
H1006 C1020 0.960 . S
H1007 C1020 0.960 1_565 S
C1008 H1000 0.929 1_565 S
C1008 C1009 1.377 . S
C1008 C1010 1.389 . S
C1009 C1008 1.377 . S
C1009 C1015 1.390 . S
C1010 H1001 0.921 1_565 S
C1010 C1008 1.389 . S
C1010 C1011 1.375 . S
C1011 C1010 1.375 . S
C1011 C1012 1.400 . S
C1011 C1016 1.490 . S
C1012 H1002 0.930 . S
C1012 C1011 1.400 . S
C1012 C1015 1.386 . S
H1013 C1029 0.930 . S
H1014 C1030 0.931 . S
C1015 H1003 0.929 . S
C1015 C1009 1.390 . S
C1015 C1012 1.386 . S
C1016 C1011 1.490 . S
C1016 C1018 1.395 . S
C1016 C1019 1.403 . S
H1017 C1023 0.935 . S
C1018 H1004 0.930 . S
C1018 C1016 1.395 . S
C1018 C1021 1.403 . S
C1019 C1016 1.403 . S
C1019 C1020 1.524 1_565 S
C1019 C1023 1.400 . S
C1020 H1005 0.960 . S
C1020 H1006 0.960 . S
C1020 H1007 0.960 1_545 S
C1020 C1019 1.524 1_545 S
C1021 C1018 1.403 . S
C1021 C1022 1.392 . S
C1021 C1025 1.495 . S
C1022 C1021 1.392 . S
C1022 C1023 1.385 . S
C1022 C1024 1.478 . S
C1023 H1017 0.935 . S
C1023 C1019 1.400 . S
C1023 C1022 1.385 . S
C1024 C1022 1.478 . S
C1024 C1026 1.381 1_565 S
C1024 C1030 1.383 . S
C1025 C1021 1.495 . S
C1025 H1031 0.959 . S
C1025 H1032 0.961 . S
C1025 H1033 0.960 . S
C1026 C1024 1.381 1_545 S
C1026 C1027 1.394 . S
C1026 H1034 0.930 . S
C1027 C1026 1.394 . S
C1027 C1028 1.383 1_545 S
C1027 H1035 0.929 . S
C1028 C1027 1.383 1_565 S
C1028 C1029 1.377 . S
C1029 H1013 0.930 . S
C1029 C1028 1.377 . S
C1029 C1030 1.379 . S
C1030 H1014 0.931 . S
C1030 C1024 1.383 . S
C1030 C1029 1.379 . S
H1031 C1025 0.959 . S
H1032 C1025 0.961 . S
H1033 C1025 0.960 . S
H1034 C1026 0.930 . S
H1035 C1027 0.929 . S
H1036 C1044 0.951 . S
H1037 C1046 0.930 . S
H1038 C1048 0.930 . S
H1039 C1051 0.929 . S
H1040 C1054 0.930 . S
H1041 C1056 0.960 . S
H1042 C1056 0.960 . S
H1043 C1056 0.960 . S
C1044 H1036 0.951 . S
C1044 C1045 1.344 1_655 S
C1044 C1046 1.398 . S
C1045 C1044 1.344 1_455 S
C1045 C1051 1.390 . S
C1046 H1037 0.930 . S
C1046 C1044 1.398 . S
C1046 C1047 1.372 1_655 S
C1047 C1046 1.372 1_455 S
C1047 C1048 1.400 . S
C1047 C1052 1.490 . S
C1048 H1038 0.930 . S
C1048 C1047 1.400 . S
C1048 C1051 1.386 . S
H1049 C1065 0.930 . S
H1050 C1066 0.931 . S
C1051 H1039 0.929 . S
C1051 C1045 1.390 . S
C1051 C1048 1.386 . S
C1052 C1047 1.490 . S
C1052 C1054 1.395 1_455 S
C1052 C1055 1.403 . S
H1053 C1059 0.930 . S
C1054 H1040 0.930 . S
C1054 C1052 1.395 1_655 S
C1054 C1057 1.403 . S
C1055 C1052 1.403 . S
C1055 C1056 1.524 . S
C1055 C1059 1.400 . S
C1056 H1041 0.960 . S
C1056 H1042 0.960 . S
C1056 H1043 0.960 . S
C1056 C1055 1.524 . S
C1057 C1054 1.403 . S
C1057 C1058 1.365 1_655 S
C1057 C1061 1.495 . S
C1058 C1057 1.365 1_455 S
C1058 C1059 1.437 . S
C1058 C1060 1.445 1_455 S
C1059 H1053 0.930 . S
C1059 C1055 1.400 . S
C1059 C1058 1.437 . S
C1060 C1058 1.445 1_655 S
C1060 C1062 1.424 . S
C1060 C1066 1.356 1_655 S
C1061 C1057 1.495 . S
C1061 H1067 0.959 . S
C1061 H1068 0.961 . S
C1061 H1069 0.960 . S
C1062 C1060 1.424 . S
C1062 C1063 1.394 . S
C1062 H1070 0.930 . S
C1063 C1062 1.394 . S
C1063 C1064 1.383 . S
C1063 H1071 0.929 . S
C1064 C1063 1.383 . S
C1064 C1065 1.377 1_655 S
C1065 H1049 0.930 . S
C1065 C1064 1.377 1_455 S
C1065 C1066 1.379 . S
C1066 H1050 0.931 . S
C1066 C1060 1.356 1_455 S
C1066 C1065 1.379 . S
H1067 C1061 0.959 . S
H1068 C1061 0.961 . S
H1069 C1061 0.960 . S
H1070 C1062 0.930 . S
H1071 C1063 0.929 . S
H1072 C1080 0.929 1_554 S
H1073 C1082 0.930 1_554 S
H1074 C1084 0.930 . S
H1075 C1087 0.929 . S
H1076 C1090 0.930 . S
H1077 C1092 0.960 . S
H1078 C1092 0.960 . S
H1079 C1092 0.960 . S
C1080 H1072 0.929 1_556 S
C1080 C1081 1.377 . S
C1080 C1082 1.384 . S
C1081 C1080 1.377 . S
C1081 C1087 1.390 . S
C1082 H1073 0.930 1_556 S
C1082 C1080 1.384 . S
C1082 C1083 1.372 . S
C1083 C1082 1.372 . S
C1083 C1084 1.400 . S
C1083 C1088 1.490 . S
C1084 H1074 0.930 . S
C1084 C1083 1.400 . S
C1084 C1087 1.386 . S
H1085 C1101 0.930 . S
H1086 C1102 0.931 . S
C1087 H1075 0.929 . S
C1087 C1081 1.390 . S
C1087 C1084 1.386 . S
C1088 C1083 1.490 . S
C1088 C1090 1.395 . S
C1088 C1091 1.403 . S
H1089 C1095 0.930 . S
C1090 H1076 0.930 . S
C1090 C1088 1.395 . S
C1090 C1093 1.403 . S
C1091 C1088 1.403 . S
C1091 C1092 1.524 . S
C1091 C1095 1.400 . S
C1092 H1077 0.960 . S
C1092 H1078 0.960 . S
C1092 H1079 0.960 . S
C1092 C1091 1.524 . S
C1093 C1090 1.403 . S
C1093 C1094 1.392 . S
C1093 C1097 1.509 . S
C1094 C1093 1.392 . S
C1094 C1095 1.385 . S
C1094 C1096 1.478 . S
C1095 H1089 0.930 . S
C1095 C1091 1.400 . S
C1095 C1094 1.385 . S
C1096 C1094 1.478 . S
C1096 C1098 1.381 . S
C1096 C1102 1.383 . S
C1097 C1093 1.509 . S
C1097 H1103 0.950 1_556 S
C1097 H1104 0.979 . S
C1097 H1105 0.939 1_556 S
C1098 C1096 1.381 . S
C1098 C1099 1.394 . S
C1098 H1106 0.930 1_556 S
C1099 C1098 1.394 . S
C1099 C1100 1.383 . S
C1099 H1107 0.929 1_556 S
C1100 C1099 1.383 . S
C1100 C1101 1.377 . S
C1101 H1085 0.930 . S
C1101 C1100 1.377 . S
C1101 C1102 1.379 . S
C1102 H1086 0.931 . S
C1102 C1096 1.383 . S
C1102 C1101 1.379 . S
H1103 C1097 0.950 1_554 S
H1104 C1097 0.979 . S
H1105 C1097 0.939 1_554 S
H1106 C1098 0.930 1_554 S
H1107 C1099 0.929 1_554 S
H1108 C1116 0.929 . S
H1109 C1118 0.930 . S
H1110 C1120 0.930 . S
H1111 C1123 0.929 . S
H1112 C1126 0.930 . S
H1113 C1128 0.960 . S
H1114 C1128 0.960 . S
H1115 C1128 0.960 . S
C1116 H1108 0.929 . S
C1116 C1117 1.377 . S
C1116 C1118 1.384 . S
C1117 C1116 1.377 . S
C1117 C1123 1.390 . S
C1118 H1109 0.930 . S
C1118 C1116 1.384 . S
C1118 C1119 1.372 . S
C1119 C1118 1.372 . S
C1119 C1120 1.400 . S
C1119 C1124 1.490 . S
C1120 H1110 0.930 . S
C1120 C1119 1.400 . S
C1120 C1123 1.386 . S
H1121 C1137 0.930 . S
H1122 C1138 0.931 . S
C1123 H1111 0.929 . S
C1123 C1117 1.390 . S
C1123 C1120 1.386 . S
C1124 C1119 1.490 . S
C1124 C1126 1.395 . S
C1124 C1127 1.403 . S
H1125 C1131 0.930 . S
C1126 H1112 0.930 . S
C1126 C1124 1.395 . S
C1126 C1129 1.403 . S
C1127 C1124 1.403 . S
C1127 C1128 1.524 . S
C1127 C1131 1.400 . S
C1128 H1113 0.960 . S
C1128 H1114 0.960 . S
C1128 H1115 0.960 . S
C1128 C1127 1.524 . S
C1129 C1126 1.403 . S
C1129 C1130 1.392 . S
C1129 C1133 1.495 . S
C1130 C1129 1.392 . S
C1130 C1131 1.385 . S
C1130 C1132 1.478 . S
C1131 H1125 0.930 . S
C1131 C1127 1.400 . S
C1131 C1130 1.385 . S
C1132 C1130 1.478 . S
C1132 C1134 1.381 . S
C1132 C1138 1.383 . S
C1133 C1129 1.495 . S
C1133 H1139 0.959 . S
C1133 H1140 0.961 . S
C1133 H1141 0.960 . S
C1134 C1132 1.381 . S
C1134 C1135 1.394 . S
C1134 H1142 0.930 . S
C1135 C1134 1.394 . S
C1135 C1136 1.383 . S
C1135 H1143 0.929 . S
C1136 C1135 1.383 . S
C1136 C1137 1.377 . S
C1137 H1121 0.930 . S
C1137 C1136 1.377 . S
C1137 C1138 1.379 . S
C1138 H1122 0.931 . S
C1138 C1132 1.383 . S
C1138 C1137 1.379 . S
H1139 C1133 0.959 . S
H1140 C1133 0.961 . S
H1141 C1133 0.960 . S
H1142 C1134 0.930 . S
H1143 C1135 0.929 . S
H1144 C1152 0.929 . S
H1145 C1154 0.930 . S
H1146 C1156 0.930 . S
H1147 C1159 0.929 . S
H1148 C1162 0.930 . S
H1149 C1164 0.960 . S
H1150 C1164 0.960 . S
H1151 C1164 0.960 . S
C1152 H1144 0.929 . S
C1152 C1153 1.377 . S
C1152 C1154 1.384 . S
C1153 C1152 1.377 . S
C1153 C1159 1.390 . S
C1154 H1145 0.930 . S
C1154 C1152 1.384 . S
C1154 C1155 1.372 . S
C1155 C1154 1.372 . S
C1155 C1156 1.400 . S
C1155 C1160 1.490 . S
C1156 H1146 0.930 . S
C1156 C1155 1.400 . S
C1156 C1159 1.386 . S
H1157 C1173 0.930 . S
H1158 C1174 0.931 . S
C1159 H1147 0.929 . S
C1159 C1153 1.390 . S
C1159 C1156 1.386 . S
C1160 C1155 1.490 . S
C1160 C1162 1.395 . S
C1160 C1163 1.403 . S
H1161 C1167 0.930 . S
C1162 H1148 0.930 . S
C1162 C1160 1.395 . S
C1162 C1165 1.403 . S
C1163 C1160 1.403 . S
C1163 C1164 1.524 . S
C1163 C1167 1.400 . S
C1164 H1149 0.960 . S
C1164 H1150 0.960 . S
C1164 H1151 0.960 . S
C1164 C1163 1.524 . S
C1165 C1162 1.403 . S
C1165 C1166 1.392 . S
C1165 C1169 1.495 . S
C1166 C1165 1.392 . S
C1166 C1167 1.385 . S
C1166 C1168 1.478 . S
C1167 H1161 0.930 . S
C1167 C1163 1.400 . S
C1167 C1166 1.385 . S
C1168 C1166 1.478 . S
C1168 C1170 1.381 . S
C1168 C1174 1.383 . S
C1169 C1165 1.495 . S
C1169 H1175 0.959 . S
C1169 H1176 0.961 . S
C1169 H1177 0.960 . S
C1170 C1168 1.381 . S
C1170 C1171 1.394 . S
C1170 H1178 0.930 . S
C1171 C1170 1.394 . S
C1171 C1172 1.383 . S
C1171 H1179 0.929 . S
C1172 C1171 1.383 . S
C1172 C1173 1.377 . S
C1173 H1157 0.930 . S
C1173 C1172 1.377 . S
C1173 C1174 1.379 . S
C1174 H1158 0.931 . S
C1174 C1168 1.383 . S
C1174 C1173 1.379 . S
H1175 C1169 0.959 . S
H1176 C1169 0.961 . S
H1177 C1169 0.960 . S
H1178 C1170 0.930 . S
H1179 C1171 0.929 . S
H1180 C1188 0.929 . S
H1181 C1190 0.930 . S
H1182 C1192 0.930 . S
H1183 C1195 0.929 . S
H1184 C1198 0.930 . S
H1185 C1200 0.960 . S
H1186 C1200 0.960 . S
H1187 C1200 0.960 . S
C1188 H1180 0.929 . S
C1188 C1189 1.377 . S
C1188 C1190 1.384 . S
C1189 C1188 1.377 . S
C1189 C1195 1.390 . S
C1190 H1181 0.930 . S
C1190 C1188 1.384 . S
C1190 C1191 1.372 . S
C1191 C1190 1.372 . S
C1191 C1192 1.400 . S
C1191 C1196 1.490 . S
C1192 H1182 0.930 . S
C1192 C1191 1.400 . S
C1192 C1195 1.386 . S
H1193 C1209 0.930 . S
H1194 C1210 0.931 . S
C1195 H1183 0.929 . S
C1195 C1189 1.390 . S
C1195 C1192 1.386 . S
C1196 C1191 1.490 . S
C1196 C1198 1.395 . S
C1196 C1199 1.403 . S
H1197 C1203 0.930 . S
C1198 H1184 0.930 . S
C1198 C1196 1.395 . S
C1198 C1201 1.403 . S
C1199 C1196 1.403 . S
C1199 C1200 1.524 . S
C1199 C1203 1.400 . S
C1200 H1185 0.960 . S
C1200 H1186 0.960 . S
C1200 H1187 0.960 . S
C1200 C1199 1.524 . S
C1201 C1198 1.403 . S
C1201 C1202 1.392 . S
C1201 C1205 1.495 . S
C1202 C1201 1.392 . S
C1202 C1203 1.385 . S
C1202 C1204 1.478 . S
C1203 H1197 0.930 . S
C1203 C1199 1.400 . S
C1203 C1202 1.385 . S
C1204 C1202 1.478 . S
C1204 C1206 1.381 . S
C1204 C1210 1.383 . S
C1205 C1201 1.495 . S
C1205 H1211 0.959 . S
C1205 H1212 0.961 . S
C1205 H1213 0.960 . S
C1206 C1204 1.381 . S
C1206 C1207 1.394 . S
C1206 H1214 0.930 . S
C1207 C1206 1.394 . S
C1207 C1208 1.383 . S
C1207 H1215 0.929 . S
C1208 C1207 1.383 . S
C1208 C1209 1.377 . S
C1209 H1193 0.930 . S
C1209 C1208 1.377 . S
C1209 C1210 1.379 . S
C1210 H1194 0.931 . S
C1210 C1204 1.383 . S
C1210 C1209 1.379 . S
H1211 C1205 0.959 . S
H1212 C1205 0.961 . S
H1213 C1205 0.960 . S
H1214 C1206 0.930 . S
H1215 C1207 0.929 . S
H1216 C1224 0.929 . S
H1217 C1226 0.930 . S
H1218 C1228 0.930 . S
H1219 C1231 0.929 . S
H1220 C1234 0.930 . S
H1221 C1236 0.960 . S
H1222 C1236 0.960 . S
H1223 C1236 0.960 . S
C1224 H1216 0.929 . S
C1224 C1225 1.377 . S
C1224 C1226 1.384 . S
C1225 C1224 1.377 . S
C1225 C1231 1.390 . S
C1226 H1217 0.930 . S
C1226 C1224 1.384 . S
C1226 C1227 1.372 . S
C1227 C1226 1.372 . S
C1227 C1228 1.400 . S
C1227 C1232 1.490 . S
C1228 H1218 0.930 . S
C1228 C1227 1.400 . S
C1228 C1231 1.386 . S
H1229 C1245 0.930 . S
H1230 C1246 0.931 . S
C1231 H1219 0.929 . S
C1231 C1225 1.390 . S
C1231 C1228 1.386 . S
C1232 C1227 1.490 . S
C1232 C1234 1.395 . S
C1232 C1235 1.403 . S
H1233 C1239 0.930 . S
C1234 H1220 0.930 . S
C1234 C1232 1.395 . S
C1234 C1237 1.403 . S
C1235 C1232 1.403 . S
C1235 C1236 1.524 . S
C1235 C1239 1.400 . S
C1236 H1221 0.960 . S
C1236 H1222 0.960 . S
C1236 H1223 0.960 . S
C1236 C1235 1.524 . S
C1237 C1234 1.403 . S
C1237 C1238 1.392 . S
C1237 C1241 1.495 . S
C1238 C1237 1.392 . S
C1238 C1239 1.385 . S
C1238 C1240 1.478 . S
C1239 H1233 0.930 . S
C1239 C1235 1.400 . S
C1239 C1238 1.385 . S
C1240 C1238 1.478 . S
C1240 C1242 1.381 . S
C1240 C1246 1.383 . S
C1241 C1237 1.495 . S
C1241 H1247 0.959 . S
C1241 H1248 0.961 . S
C1241 H1249 0.960 . S
C1242 C1240 1.381 . S
C1242 C1243 1.394 . S
C1242 H1250 0.930 . S
C1243 C1242 1.394 . S
C1243 C1244 1.383 . S
C1243 H1251 0.929 . S
C1244 C1243 1.383 . S
C1244 C1245 1.377 . S
C1245 H1229 0.930 . S
C1245 C1244 1.377 . S
C1245 C1246 1.379 . S
C1246 H1230 0.931 . S
C1246 C1240 1.383 . S
C1246 C1245 1.379 . S
H1247 C1241 0.959 . S
H1248 C1241 0.961 . S
H1249 C1241 0.960 . S
H1250 C1242 0.930 . S
H1251 C1243 0.929 . S
H1252 C1260 0.929 . S
H1253 C1262 0.930 . S
H1254 C1264 0.930 . S
H1255 C1267 0.929 . S
H1256 C1270 0.930 . S
H1257 C1272 0.960 . S
H1258 C1272 0.960 . S
H1259 C1272 0.960 . S
C1260 H1252 0.929 . S
C1260 C1261 1.377 . S
C1260 C1262 1.384 . S
C1261 C1260 1.377 . S
C1261 C1267 1.390 . S
C1262 H1253 0.930 . S
C1262 C1260 1.384 . S
C1262 C1263 1.372 . S
C1263 C1262 1.372 . S
C1263 C1264 1.400 . S
C1263 C1268 1.490 . S
C1264 H1254 0.930 . S
C1264 C1263 1.400 . S
C1264 C1267 1.386 . S
H1265 C1281 0.930 . S
H1266 C1282 0.931 . S
C1267 H1255 0.929 . S
C1267 C1261 1.390 . S
C1267 C1264 1.386 . S
C1268 C1263 1.490 . S
C1268 C1270 1.395 . S
C1268 C1271 1.403 . S
H1269 C1275 0.930 . S
C1270 H1256 0.930 . S
C1270 C1268 1.395 . S
C1270 C1273 1.403 . S
C1271 C1268 1.403 . S
C1271 C1272 1.524 . S
C1271 C1275 1.400 . S
C1272 H1257 0.960 . S
C1272 H1258 0.960 . S
C1272 H1259 0.960 . S
C1272 C1271 1.524 . S
C1273 C1270 1.403 . S
C1273 C1274 1.392 . S
C1273 C1277 1.495 . S
C1274 C1273 1.392 . S
C1274 C1275 1.385 . S
C1274 C1276 1.478 . S
C1275 H1269 0.930 . S
C1275 C1271 1.400 . S
C1275 C1274 1.385 . S
C1276 C1274 1.478 . S
C1276 C1278 1.381 . S
C1276 C1282 1.383 . S
C1277 C1273 1.495 . S
C1277 H1283 0.959 . S
C1277 H1284 0.961 . S
C1277 H1285 0.960 . S
C1278 C1276 1.381 . S
C1278 C1279 1.394 . S
C1278 H1286 0.930 . S
C1279 C1278 1.394 . S
C1279 C1280 1.383 . S
C1279 H1287 0.929 . S
C1280 C1279 1.383 . S
C1280 C1281 1.377 . S
C1281 H1265 0.930 . S
C1281 C1280 1.377 . S
C1281 C1282 1.379 . S
C1282 H1266 0.931 . S
C1282 C1276 1.383 . S
C1282 C1281 1.379 . S
H1283 C1277 0.959 . S
H1284 C1277 0.961 . S
H1285 C1277 0.960 . S
H1286 C1278 0.930 . S
H1287 C1279 0.929 . S
H1288 C1296 0.929 . S
H1289 C1298 0.930 . S
H1290 C1300 0.930 . S
H1291 C1303 0.929 . S
H1292 C1306 0.930 . S
H1293 C1308 0.960 . S
H1294 C1308 0.960 . S
H1295 C1308 0.960 . S
C1296 H1288 0.929 . S
C1296 C1297 1.377 . S
C1296 C1298 1.384 . S
C1297 C1296 1.377 . S
C1297 C1303 1.390 . S
C1298 H1289 0.930 . S
C1298 C1296 1.384 . S
C1298 C1299 1.372 . S
C1299 C1298 1.372 . S
C1299 C1300 1.400 . S
C1299 C1304 1.490 . S
C1300 H1290 0.930 . S
C1300 C1299 1.400 . S
C1300 C1303 1.386 . S
H1301 C1317 0.930 . S
H1302 C1318 0.931 . S
C1303 H1291 0.929 . S
C1303 C1297 1.390 . S
C1303 C1300 1.386 . S
C1304 C1299 1.490 . S
C1304 C1306 1.395 . S
C1304 C1307 1.403 . S
H1305 C1311 0.930 . S
C1306 H1292 0.930 . S
C1306 C1304 1.395 . S
C1306 C1309 1.403 . S
C1307 C1304 1.403 . S
C1307 C1308 1.524 . S
C1307 C1311 1.400 . S
C1308 H1293 0.960 . S
C1308 H1294 0.960 . S
C1308 H1295 0.960 . S
C1308 C1307 1.524 . S
C1309 C1306 1.403 . S
C1309 C1310 1.392 . S
C1309 C1313 1.495 . S
C1310 C1309 1.392 . S
C1310 C1311 1.385 . S
C1310 C1312 1.478 . S
C1311 H1305 0.930 . S
C1311 C1307 1.400 . S
C1311 C1310 1.385 . S
C1312 C1310 1.478 . S
C1312 C1314 1.381 . S
C1312 C1318 1.383 . S
C1313 C1309 1.495 . S
C1313 H1319 0.959 . S
C1313 H1320 0.961 . S
C1313 H1321 0.960 . S
C1314 C1312 1.381 . S
C1314 C1315 1.394 . S
C1314 H1322 0.930 . S
C1315 C1314 1.394 . S
C1315 C1316 1.383 . S
C1315 H1323 0.929 . S
C1316 C1315 1.383 . S
C1316 C1317 1.377 . S
C1317 H1301 0.930 . S
C1317 C1316 1.377 . S
C1317 C1318 1.379 . S
C1318 H1302 0.931 . S
C1318 C1312 1.383 . S
C1318 C1317 1.379 . S
H1319 C1313 0.959 . S
H1320 C1313 0.961 . S
H1321 C1313 0.960 . S
H1322 C1314 0.930 . S
H1323 C1315 0.929 . S
H1324 C1332 0.929 . S
H1325 C1334 0.930 . S
H1326 C1336 0.930 . S
H1327 C1339 0.929 . S
H1328 C1342 0.930 . S
H1329 C1344 0.960 . S
H1330 C1344 0.960 . S
H1331 C1344 0.960 . S
C1332 H1324 0.929 . S
C1332 C1333 1.377 . S
C1332 C1334 1.384 . S
C1333 C1332 1.377 . S
C1333 C1339 1.390 . S
C1334 H1325 0.930 . S
C1334 C1332 1.384 . S
C1334 C1335 1.372 . S
C1335 C1334 1.372 . S
C1335 C1336 1.400 . S
C1335 C1340 1.490 . S
C1336 H1326 0.930 . S
C1336 C1335 1.400 . S
C1336 C1339 1.386 . S
H1337 C1353 0.930 . S
H1338 C1354 0.931 . S
C1339 H1327 0.929 . S
C1339 C1333 1.390 . S
C1339 C1336 1.386 . S
C1340 C1335 1.490 . S
C1340 C1342 1.395 . S
C1340 C1343 1.403 . S
H1341 C1347 0.930 . S
C1342 H1328 0.930 . S
C1342 C1340 1.395 . S
C1342 C1345 1.403 . S
C1343 C1340 1.403 . S
C1343 C1344 1.524 . S
C1343 C1347 1.400 . S
C1344 H1329 0.960 . S
C1344 H1330 0.960 . S
C1344 H1331 0.960 . S
C1344 C1343 1.524 . S
C1345 C1342 1.403 . S
C1345 C1346 1.392 . S
C1345 C1349 1.495 . S
C1346 C1345 1.392 . S
C1346 C1347 1.385 . S
C1346 C1348 1.478 . S
C1347 H1341 0.930 . S
C1347 C1343 1.400 . S
C1347 C1346 1.385 . S
C1348 C1346 1.478 . S
C1348 C1350 1.381 . S
C1348 C1354 1.383 . S
C1349 C1345 1.495 . S
C1349 H1355 0.959 . S
C1349 H1356 0.961 . S
C1349 H1357 0.960 . S
C1350 C1348 1.381 . S
C1350 C1351 1.394 . S
C1350 H1358 0.930 . S
C1351 C1350 1.394 . S
C1351 C1352 1.383 . S
C1351 H1359 0.929 . S
C1352 C1351 1.383 . S
C1352 C1353 1.377 . S
C1353 H1337 0.930 . S
C1353 C1352 1.377 . S
C1353 C1354 1.379 . S
C1354 H1338 0.931 . S
C1354 C1348 1.383 . S
C1354 C1353 1.379 . S
H1355 C1349 0.959 . S
H1356 C1349 0.961 . S
H1357 C1349 0.960 . S
H1358 C1350 0.930 . S
H1359 C1351 0.929 . S
H1360 C1368 0.929 . S
H1361 C1370 0.930 . S
H1362 C1372 0.930 . S
H1363 C1375 0.929 . S
H1364 C1378 0.930 . S
H1365 C1380 0.960 . S
H1366 C1380 0.960 . S
H1367 C1380 0.960 . S
C1368 H1360 0.929 . S
C1368 C1369 1.377 . S
C1368 C1370 1.384 . S
C1369 C1368 1.377 . S
C1369 C1375 1.390 . S
C1370 H1361 0.930 . S
C1370 C1368 1.384 . S
C1370 C1371 1.372 . S
C1371 C1370 1.372 . S
C1371 C1372 1.400 . S
C1371 C1376 1.490 . S
C1372 H1362 0.930 . S
C1372 C1371 1.400 . S
C1372 C1375 1.386 . S
H1373 C1389 0.930 . S
H1374 C1390 0.931 . S
C1375 H1363 0.929 . S
C1375 C1369 1.390 . S
C1375 C1372 1.386 . S
C1376 C1371 1.490 . S
C1376 C1378 1.395 . S
C1376 C1379 1.403 . S
H1377 C1383 0.930 . S
C1378 H1364 0.930 . S
C1378 C1376 1.395 . S
C1378 C1381 1.403 . S
C1379 C1376 1.403 . S
C1379 C1380 1.524 . S
C1379 C1383 1.400 . S
C1380 H1365 0.960 . S
C1380 H1366 0.960 . S
C1380 H1367 0.960 . S
C1380 C1379 1.524 . S
C1381 C1378 1.403 . S
C1381 C1382 1.392 . S
C1381 C1385 1.495 . S
C1382 C1381 1.392 . S
C1382 C1383 1.385 . S
C1382 C1384 1.478 . S
C1383 H1377 0.930 . S
C1383 C1379 1.400 . S
C1383 C1382 1.385 . S
C1384 C1382 1.478 . S
C1384 C1386 1.381 . S
C1384 C1390 1.383 . S
C1385 C1381 1.495 . S
C1385 H1391 0.959 . S
C1385 H1392 0.961 . S
C1385 H1393 0.960 . S
C1386 C1384 1.381 . S
C1386 C1387 1.394 . S
C1386 H1394 0.930 . S
C1387 C1386 1.394 . S
C1387 C1388 1.383 . S
C1387 H1395 0.929 . S
C1388 C1387 1.383 . S
C1388 C1389 1.377 . S
C1389 H1373 0.930 . S
C1389 C1388 1.377 . S
C1389 C1390 1.379 . S
C1390 H1374 0.931 . S
C1390 C1384 1.383 . S
C1390 C1389 1.379 . S
H1391 C1385 0.959 . S
H1392 C1385 0.961 . S
H1393 C1385 0.960 . S
H1394 C1386 0.930 . S
H1395 C1387 0.929 . S
H1396 C1404 0.929 . S
H1397 C1406 0.930 . S
H1398 C1408 0.930 . S
H1399 C1411 0.929 . S
H1400 C1414 0.930 . S
H1401 C1416 0.960 . S
H1402 C1416 0.960 . S
H1403 C1416 0.960 . S
C1404 H1396 0.929 . S
C1404 C1405 1.345 1_655 S
C1404 C1406 1.384 . S
C1405 C1404 1.345 1_455 S
C1405 C1411 1.402 . S
C1406 H1397 0.930 . S
C1406 C1404 1.384 . S
C1406 C1407 1.372 . S
C1407 C1406 1.372 . S
C1407 C1408 1.400 1_655 S
C1407 C1412 1.490 . S
C1408 H1398 0.930 . S
C1408 C1407 1.400 1_455 S
C1408 C1411 1.386 . S
H1409 C1425 0.930 . S
H1410 C1426 0.931 . S
C1411 H1399 0.929 . S
C1411 C1405 1.402 . S
C1411 C1408 1.386 . S
C1412 C1407 1.490 . S
C1412 C1414 1.395 . S
C1412 C1415 1.403 1_655 S
H1413 C1419 0.930 . S
C1414 H1400 0.930 . S
C1414 C1412 1.395 . S
C1414 C1417 1.403 . S
C1415 C1412 1.403 1_455 S
C1415 C1416 1.524 . S
C1415 C1419 1.400 . S
C1416 H1401 0.960 . S
C1416 H1402 0.960 . S
C1416 H1403 0.960 . S
C1416 C1415 1.524 . S
C1417 C1414 1.403 . S
C1417 C1418 1.392 . S
C1417 C1421 1.495 . S
C1418 C1417 1.392 . S
C1418 C1419 1.385 1_655 S
C1418 C1420 1.478 . S
C1419 H1413 0.930 . S
C1419 C1415 1.400 . S
C1419 C1418 1.385 1_455 S
C1420 C1418 1.478 . S
C1420 C1422 1.381 . S
C1420 C1426 1.383 . S
C1421 C1417 1.495 . S
C1421 H1427 0.959 . S
C1421 H1428 0.961 . S
C1421 H1429 0.960 . S
C1422 C1420 1.381 . S
C1422 C1423 1.394 . S
C1422 H1430 0.930 . S
C1423 C1422 1.394 . S
C1423 C1424 1.383 . S
C1423 H1431 0.929 . S
C1424 C1423 1.383 . S
C1424 C1425 1.377 . S
C1425 H1409 0.930 . S
C1425 C1424 1.377 . S
C1425 C1426 1.379 . S
C1426 H1410 0.931 . S
C1426 C1420 1.383 . S
C1426 C1425 1.379 . S
H1427 C1421 0.959 . S
H1428 C1421 0.961 . S
H1429 C1421 0.960 . S
H1430 C1422 0.930 . S
H1431 C1423 0.929 . S
H1432 C1440 0.929 . S
H1433 C1442 0.930 . S
H1434 C1444 0.930 . S
H1435 C1447 0.929 . S
H1436 C1450 0.930 . S
H1437 C1452 0.960 . S
H1438 C1452 0.960 . S
H1439 C1452 0.960 . S
C1440 H1432 0.929 . S
C1440 C1441 1.377 . S
C1440 C1442 1.384 . S
C1441 C1440 1.377 . S
C1441 C1447 1.390 . S
C1442 H1433 0.930 . S
C1442 C1440 1.384 . S
C1442 C1443 1.372 . S
C1443 C1442 1.372 . S
C1443 C1444 1.400 . S
C1443 C1448 1.490 . S
C1444 H1434 0.930 . S
C1444 C1443 1.400 . S
C1444 C1447 1.386 . S
H1445 C1461 0.930 . S
H1446 C1462 0.931 . S
C1447 H1435 0.929 . S
C1447 C1441 1.390 . S
C1447 C1444 1.386 . S
C1448 C1443 1.490 . S
C1448 C1450 1.395 . S
C1448 C1451 1.403 . S
H1449 C1455 0.930 . S
C1450 H1436 0.930 . S
C1450 C1448 1.395 . S
C1450 C1453 1.403 . S
C1451 C1448 1.403 . S
C1451 C1452 1.524 . S
C1451 C1455 1.400 . S
C1452 H1437 0.960 . S
C1452 H1438 0.960 . S
C1452 H1439 0.960 . S
C1452 C1451 1.524 . S
C1453 C1450 1.403 . S
C1453 C1454 1.392 . S
C1453 C1457 1.495 . S
C1454 C1453 1.392 . S
C1454 C1455 1.385 . S
C1454 C1456 1.478 . S
C1455 H1449 0.930 . S
C1455 C1451 1.400 . S
C1455 C1454 1.385 . S
C1456 C1454 1.478 . S
C1456 C1458 1.381 . S
C1456 C1462 1.383 . S
C1457 C1453 1.495 . S
C1457 H1463 0.959 . S
C1457 H1464 0.961 . S
C1457 H1465 0.960 . S
C1458 C1456 1.381 . S
C1458 C1459 1.394 . S
C1458 H1466 0.930 . S
C1459 C1458 1.394 . S
C1459 C1460 1.383 . S
C1459 H1467 0.929 . S
C1460 C1459 1.383 . S
C1460 C1461 1.377 . S
C1461 H1445 0.930 . S
C1461 C1460 1.377 . S
C1461 C1462 1.379 . S
C1462 H1446 0.931 . S
C1462 C1456 1.383 . S
C1462 C1461 1.379 . S
H1463 C1457 0.959 . S
H1464 C1457 0.961 . S
H1465 C1457 0.960 . S
H1466 C1458 0.930 . S
H1467 C1459 0.929 . S
H1468 C1476 0.929 . S
H1469 C1478 0.930 . S
H1470 C1480 0.930 . S
H1471 C1483 0.929 . S
H1472 C1486 0.930 . S
H1473 C1488 0.960 . S
H1474 C1488 0.960 . S
H1475 C1488 0.960 . S
C1476 H1468 0.929 . S
C1476 C1477 1.377 . S
C1476 C1478 1.384 . S
C1477 C1476 1.377 . S
C1477 C1483 1.390 . S
C1478 H1469 0.930 . S
C1478 C1476 1.384 . S
C1478 C1479 1.372 . S
C1479 C1478 1.372 . S
C1479 C1480 1.400 . S
C1479 C1484 1.490 . S
C1480 H1470 0.930 . S
C1480 C1479 1.400 . S
C1480 C1483 1.386 . S
H1481 C1497 0.930 . S
H1482 C1498 0.931 . S
C1483 H1471 0.929 . S
C1483 C1477 1.390 . S
C1483 C1480 1.386 . S
C1484 C1479 1.490 . S
C1484 C1486 1.395 . S
C1484 C1487 1.403 . S
H1485 C1491 0.930 . S
C1486 H1472 0.930 . S
C1486 C1484 1.395 . S
C1486 C1489 1.403 . S
C1487 C1484 1.403 . S
C1487 C1488 1.524 . S
C1487 C1491 1.400 . S
C1488 H1473 0.960 . S
C1488 H1474 0.960 . S
C1488 H1475 0.960 . S
C1488 C1487 1.524 . S
C1489 C1486 1.403 . S
C1489 C1490 1.392 . S
C1489 C1493 1.495 . S
C1490 C1489 1.392 . S
C1490 C1491 1.385 . S
C1490 C1492 1.478 . S
C1491 H1485 0.930 . S
C1491 C1487 1.400 . S
C1491 C1490 1.385 . S
C1492 C1490 1.478 . S
C1492 C1494 1.381 . S
C1492 C1498 1.383 . S
C1493 C1489 1.495 . S
C1493 H1499 0.959 . S
C1493 H1500 0.961 . S
C1493 H1501 0.960 . S
C1494 C1492 1.381 . S
C1494 C1495 1.394 . S
C1494 H1502 0.930 . S
C1495 C1494 1.394 . S
C1495 C1496 1.383 . S
C1495 H1503 0.929 . S
C1496 C1495 1.383 . S
C1496 C1497 1.377 . S
C1497 H1481 0.930 . S
C1497 C1496 1.377 . S
C1497 C1498 1.379 . S
C1498 H1482 0.931 . S
C1498 C1492 1.383 . S
C1498 C1497 1.379 . S
H1499 C1493 0.959 . S
H1500 C1493 0.961 . S
H1501 C1493 0.960 . S
H1502 C1494 0.930 . S
H1503 C1495 0.929 . S
H1504 C1512 0.929 . S
H1505 C1514 0.930 . S
H1506 C1516 0.930 . S
H1507 C1519 0.929 . S
H1508 C1522 0.930 . S
H1509 C1524 0.960 . S
H1510 C1524 0.960 . S
H1511 C1524 0.960 . S
C1512 H1504 0.929 . S
C1512 C1513 1.377 . S
C1512 C1514 1.384 . S
C1513 C1512 1.377 . S
C1513 C1519 1.390 . S
C1514 H1505 0.930 . S
C1514 C1512 1.384 . S
C1514 C1515 1.372 . S
C1515 C1514 1.372 . S
C1515 C1516 1.400 . S
C1515 C1520 1.490 . S
C1516 H1506 0.930 . S
C1516 C1515 1.400 . S
C1516 C1519 1.386 . S
H1517 C1533 0.930 . S
H1518 C1534 0.931 . S
C1519 H1507 0.929 . S
C1519 C1513 1.390 . S
C1519 C1516 1.386 . S
C1520 C1515 1.490 . S
C1520 C1522 1.395 . S
C1520 C1523 1.403 . S
H1521 C1527 0.930 . S
C1522 H1508 0.930 . S
C1522 C1520 1.395 . S
C1522 C1525 1.403 . S
C1523 C1520 1.403 . S
C1523 C1524 1.524 . S
C1523 C1527 1.400 . S
C1524 H1509 0.960 . S
C1524 H1510 0.960 . S
C1524 H1511 0.960 . S
C1524 C1523 1.524 . S
C1525 C1522 1.403 . S
C1525 C1526 1.392 . S
C1525 C1529 1.495 . S
C1526 C1525 1.392 . S
C1526 C1527 1.385 . S
C1526 C1528 1.478 . S
C1527 H1521 0.930 . S
C1527 C1523 1.400 . S
C1527 C1526 1.385 . S
C1528 C1526 1.478 . S
C1528 C1530 1.381 . S
C1528 C1534 1.383 . S
C1529 C1525 1.495 . S
C1529 H1535 0.959 . S
C1529 H1536 0.961 . S
C1529 H1537 0.960 . S
C1530 C1528 1.381 . S
C1530 C1531 1.394 . S
C1530 H1538 0.930 . S
C1531 C1530 1.394 . S
C1531 C1532 1.383 . S
C1531 H1539 0.929 . S
C1532 C1531 1.383 . S
C1532 C1533 1.377 . S
C1533 H1517 0.930 . S
C1533 C1532 1.377 . S
C1533 C1534 1.379 . S
C1534 H1518 0.931 . S
C1534 C1528 1.383 . S
C1534 C1533 1.379 . S
H1535 C1529 0.959 . S
H1536 C1529 0.961 . S
H1537 C1529 0.960 . S
H1538 C1530 0.930 . S
H1539 C1531 0.929 . S
H1540 C1548 0.929 . S
H1541 C1550 0.930 . S
H1542 C1552 0.930 . S
H1543 C1555 0.929 . S
H1544 C1558 0.930 . S
H1545 C1560 0.960 . S
H1546 C1560 0.960 . S
H1547 C1560 0.960 . S
C1548 H1540 0.929 . S
C1548 C1549 1.377 . S
C1548 C1550 1.384 . S
C1549 C1548 1.377 . S
C1549 C1555 1.390 . S
C1550 H1541 0.930 . S
C1550 C1548 1.384 . S
C1550 C1551 1.372 . S
C1551 C1550 1.372 . S
C1551 C1552 1.400 . S
C1551 C1556 1.490 . S
C1552 H1542 0.930 . S
C1552 C1551 1.400 . S
C1552 C1555 1.386 . S
H1553 C1569 0.930 . S
H1554 C1570 0.931 . S
C1555 H1543 0.929 . S
C1555 C1549 1.390 . S
C1555 C1552 1.386 . S
C1556 C1551 1.490 . S
C1556 C1558 1.395 . S
C1556 C1559 1.403 . S
H1557 C1563 0.930 . S
C1558 H1544 0.930 . S
C1558 C1556 1.395 . S
C1558 C1561 1.403 . S
C1559 C1556 1.403 . S
C1559 C1560 1.524 . S
C1559 C1563 1.400 . S
C1560 H1545 0.960 . S
C1560 H1546 0.960 . S
C1560 H1547 0.960 . S
C1560 C1559 1.524 . S
C1561 C1558 1.403 . S
C1561 C1562 1.392 . S
C1561 C1565 1.495 . S
C1562 C1561 1.392 . S
C1562 C1563 1.385 . S
C1562 C1564 1.478 . S
C1563 H1557 0.930 . S
C1563 C1559 1.400 . S
C1563 C1562 1.385 . S
C1564 C1562 1.478 . S
C1564 C1566 1.381 . S
C1564 C1570 1.383 . S
C1565 C1561 1.495 . S
C1565 H1571 0.959 . S
C1565 H1572 0.961 . S
C1565 H1573 0.960 . S
C1566 C1564 1.381 . S
C1566 C1567 1.394 . S
C1566 H1574 0.930 . S
C1567 C1566 1.394 . S
C1567 C1568 1.383 . S
C1567 H1575 0.929 . S
C1568 C1567 1.383 . S
C1568 C1569 1.377 . S
C1569 H1553 0.930 . S
C1569 C1568 1.377 . S
C1569 C1570 1.379 . S
C1570 H1554 0.931 . S
C1570 C1564 1.383 . S
C1570 C1569 1.379 . S
H1571 C1565 0.959 . S
H1572 C1565 0.961 . S
H1573 C1565 0.960 . S
H1574 C1566 0.930 . S
H1575 C1567 0.929 . S
H1576 C1584 0.929 . S
H1577 C1586 0.930 . S
H1578 C1588 0.930 . S
H1579 C1591 0.929 . S
H1580 C1594 0.930 1_565 S
H1581 C1596 0.960 . S
H1582 C1596 0.960 . S
H1583 C1596 0.960 . S
C1584 H1576 0.929 . S
C1584 C1585 1.377 1_565 S
C1584 C1586 1.384 . S
C1585 C1584 1.377 1_545 S
C1585 C1591 1.390 . S
C1586 H1577 0.930 . S
C1586 C1584 1.384 . S
C1586 C1587 1.372 1_565 S
C1587 C1586 1.372 1_545 S
C1587 C1588 1.400 . S
C1587 C1592 1.490 . S
C1588 H1578 0.930 . S
C1588 C1587 1.400 . S
C1588 C1591 1.386 . S
H1589 C1605 0.930 . S
H1590 C1606 0.931 . S
C1591 H1579 0.929 . S
C1591 C1585 1.390 . S
C1591 C1588 1.386 . S
C1592 C1587 1.490 . S
C1592 C1594 1.395 . S
C1592 C1595 1.403 . S
H1593 C1599 0.930 . S
C1594 H1580 0.930 1_545 S
C1594 C1592 1.395 . S
C1594 C1597 1.403 . S
C1595 C1592 1.403 . S
C1595 C1596 1.524 . S
C1595 C1599 1.400 . S
C1596 H1581 0.960 . S
C1596 H1582 0.960 . S
C1596 H1583 0.960 . S
C1596 C1595 1.524 . S
C1597 C1594 1.403 . S
C1597 C1598 1.392 . S
C1597 C1601 1.495 1_545 S
C1598 C1597 1.392 . S
C1598 C1599 1.385 . S
C1598 C1600 1.478 . S
C1599 H1593 0.930 . S
C1599 C1595 1.400 . S
C1599 C1598 1.385 . S
C1600 C1598 1.478 . S
C1600 C1602 1.381 1_545 S
C1600 C1606 1.383 . S
C1601 C1597 1.495 1_565 S
C1601 H1607 0.959 . S
C1601 H1608 0.961 1_565 S
C1601 H1609 0.960 . S
C1602 C1600 1.381 1_565 S
C1602 C1603 1.394 . S
C1602 H1610 0.930 . S
C1603 C1602 1.394 . S
C1603 C1604 1.383 1_565 S
C1603 H1611 0.929 . S
C1604 C1603 1.383 1_545 S
C1604 C1605 1.377 . S
C1605 H1589 0.930 . S
C1605 C1604 1.377 . S
C1605 C1606 1.379 . S
C1606 H1590 0.931 . S
C1606 C1600 1.383 . S
C1606 C1605 1.379 . S
H1607 C1601 0.959 . S
H1608 C1601 0.961 1_545 S
H1609 C1601 0.960 . S
H1610 C1602 0.930 . S
H1611 C1603 0.929 . S
H1612 C1620 0.929 1_556 S
H1613 C1622 0.930 1_556 S
H1614 C1624 0.930 . S
H1615 C1627 0.929 . S
H1616 C1630 0.930 . S
H1617 C1632 0.960 . S
H1618 C1632 0.960 . S
H1619 C1632 0.960 . S
C1620 H1612 0.929 1_554 S
C1620 C1621 1.377 . S
C1620 C1622 1.384 . S
C1621 C1620 1.377 . S
C1621 C1627 1.390 . S
C1622 H1613 0.930 1_554 S
C1622 C1620 1.384 . S
C1622 C1623 1.372 . S
C1623 C1622 1.372 . S
C1623 C1624 1.400 . S
C1623 C1628 1.490 . S
C1624 H1614 0.930 . S
C1624 C1623 1.400 . S
C1624 C1627 1.386 . S
H1625 C1641 0.930 . S
H1626 C1642 0.931 . S
C1627 H1615 0.929 . S
C1627 C1621 1.390 . S
C1627 C1624 1.386 . S
C1628 C1623 1.490 . S
C1628 C1630 1.395 . S
C1628 C1631 1.403 . S
H1629 C1635 0.930 . S
C1630 H1616 0.930 . S
C1630 C1628 1.395 . S
C1630 C1633 1.403 . S
C1631 C1628 1.403 . S
C1631 C1632 1.524 . S
C1631 C1635 1.400 . S
C1632 H1617 0.960 . S
C1632 H1618 0.960 . S
C1632 H1619 0.960 . S
C1632 C1631 1.524 . S
C1633 C1630 1.403 . S
C1633 C1634 1.392 . S
C1633 C1637 1.495 . S
C1634 C1633 1.392 . S
C1634 C1635 1.385 . S
C1634 C1636 1.478 . S
C1635 H1629 0.930 . S
C1635 C1631 1.400 . S
C1635 C1634 1.385 . S
C1636 C1634 1.478 . S
C1636 C1638 1.381 . S
C1636 C1642 1.383 . S
C1637 C1633 1.495 . S
C1637 H1643 0.959 . S
C1637 H1644 0.961 . S
C1637 H1645 0.960 . S
C1638 C1636 1.381 . S
C1638 C1639 1.394 . S
C1638 H1646 0.904 1_554 S
C1639 C1638 1.394 . S
C1639 C1640 1.383 . S
C1639 H1647 0.920 1_554 S
C1640 C1639 1.383 . S
C1640 C1641 1.377 . S
C1641 H1625 0.930 . S
C1641 C1640 1.377 . S
C1641 C1642 1.379 . S
C1642 H1626 0.931 . S
C1642 C1636 1.383 . S
C1642 C1641 1.379 . S
H1643 C1637 0.959 . S
H1644 C1637 0.961 . S
H1645 C1637 0.960 . S
H1646 C1638 0.904 1_556 S
H1647 C1639 0.920 1_556 S
H1648 C1656 0.929 . S
H1649 C1658 0.930 . S
H1650 C1660 0.930 . S
H1651 C1663 0.929 . S
H1652 C1666 0.930 . S
H1653 C1668 0.960 . S
H1654 C1668 0.960 . S
H1655 C1668 0.960 . S
C1656 H1648 0.929 . S
C1656 C1657 1.377 . S
C1656 C1658 1.384 . S
C1657 C1656 1.377 . S
C1657 C1663 1.390 . S
C1658 H1649 0.930 . S
C1658 C1656 1.384 . S
C1658 C1659 1.372 . S
C1659 C1658 1.372 . S
C1659 C1660 1.400 . S
C1659 C1664 1.490 . S
C1660 H1650 0.930 . S
C1660 C1659 1.400 . S
C1660 C1663 1.386 . S
H1661 C1677 0.930 . S
H1662 C1678 0.931 . S
C1663 H1651 0.929 . S
C1663 C1657 1.390 . S
C1663 C1660 1.386 . S
C1664 C1659 1.490 . S
C1664 C1666 1.395 . S
C1664 C1667 1.403 . S
H1665 C1671 0.930 . S
C1666 H1652 0.930 . S
C1666 C1664 1.395 . S
C1666 C1669 1.403 . S
C1667 C1664 1.403 . S
C1667 C1668 1.524 . S
C1667 C1671 1.400 . S
C1668 H1653 0.960 . S
C1668 H1654 0.960 . S
C1668 H1655 0.960 . S
C1668 C1667 1.524 . S
C1669 C1666 1.403 . S
C1669 C1670 1.392 . S
C1669 C1673 1.495 . S
C1670 C1669 1.392 . S
C1670 C1671 1.385 . S
C1670 C1672 1.478 . S
C1671 H1665 0.930 . S
C1671 C1667 1.400 . S
C1671 C1670 1.385 . S
C1672 C1670 1.478 . S
C1672 C1674 1.381 . S
C1672 C1678 1.383 . S
C1673 C1669 1.495 . S
C1673 H1679 0.959 . S
C1673 H1680 0.961 . S
C1673 H1681 0.960 . S
C1674 C1672 1.381 . S
C1674 C1675 1.394 . S
C1674 H1682 0.930 . S
C1675 C1674 1.394 . S
C1675 C1676 1.383 . S
C1675 H1683 0.929 . S
C1676 C1675 1.383 . S
C1676 C1677 1.377 . S
C1677 H1661 0.930 . S
C1677 C1676 1.377 . S
C1677 C1678 1.379 . S
C1678 H1662 0.931 . S
C1678 C1672 1.383 . S
C1678 C1677 1.379 . S
H1679 C1673 0.959 . S
H1680 C1673 0.961 . S
H1681 C1673 0.960 . S
H1682 C1674 0.930 . S
H1683 C1675 0.929 . S
H1684 C1692 0.929 . S
H1685 C1694 0.930 . S
H1686 C1696 0.930 . S
H1687 C1699 0.929 . S
H1688 C1702 0.930 . S
H1689 C1704 0.960 . S
H1690 C1704 0.960 . S
H1691 C1704 0.960 . S
C1692 H1684 0.929 . S
C1692 C1693 1.377 . S
C1692 C1694 1.384 . S
C1693 C1692 1.377 . S
C1693 C1699 1.390 . S
C1694 H1685 0.930 . S
C1694 C1692 1.384 . S
C1694 C1695 1.372 . S
C1695 C1694 1.372 . S
C1695 C1696 1.400 . S
C1695 C1700 1.490 . S
C1696 H1686 0.930 . S
C1696 C1695 1.400 . S
C1696 C1699 1.386 . S
H1697 C1713 0.930 . S
H1698 C1714 0.931 . S
C1699 H1687 0.929 . S
C1699 C1693 1.390 . S
C1699 C1696 1.386 . S
C1700 C1695 1.490 . S
C1700 C1702 1.395 . S
C1700 C1703 1.403 . S
H1701 C1707 0.930 . S
C1702 H1688 0.930 . S
C1702 C1700 1.395 . S
C1702 C1705 1.403 . S
C1703 C1700 1.403 . S
C1703 C1704 1.524 . S
C1703 C1707 1.400 . S
C1704 H1689 0.960 . S
C1704 H1690 0.960 . S
C1704 H1691 0.960 . S
C1704 C1703 1.524 . S
C1705 C1702 1.403 . S
C1705 C1706 1.392 . S
C1705 C1709 1.495 . S
C1706 C1705 1.392 . S
C1706 C1707 1.385 . S
C1706 C1708 1.478 . S
C1707 H1701 0.930 . S
C1707 C1703 1.400 . S
C1707 C1706 1.385 . S
C1708 C1706 1.478 . S
C1708 C1710 1.381 . S
C1708 C1714 1.383 . S
C1709 C1705 1.495 . S
C1709 H1715 0.959 . S
C1709 H1716 0.961 . S
C1709 H1717 0.960 . S
C1710 C1708 1.381 . S
C1710 C1711 1.394 . S
C1710 H1718 0.930 . S
C1711 C1710 1.394 . S
C1711 C1712 1.383 . S
C1711 H1719 0.929 . S
C1712 C1711 1.383 . S
C1712 C1713 1.377 . S
C1713 H1697 0.930 . S
C1713 C1712 1.377 . S
C1713 C1714 1.379 . S
C1714 H1698 0.931 . S
C1714 C1708 1.383 . S
C1714 C1713 1.379 . S
H1715 C1709 0.959 . S
H1716 C1709 0.961 . S
H1717 C1709 0.960 . S
H1718 C1710 0.930 . S
H1719 C1711 0.929 . S
H1720 C1728 0.929 . S
H1721 C1730 0.930 . S
H1722 C1732 0.930 . S
H1723 C1735 0.929 . S
H1724 C1738 0.930 . S
H1725 C1740 0.960 . S
H1726 C1740 0.960 . S
H1727 C1740 0.960 . S
C1728 H1720 0.929 . S
C1728 C1729 1.377 . S
C1728 C1730 1.384 . S
C1729 C1728 1.377 . S
C1729 C1735 1.390 . S
C1730 H1721 0.930 . S
C1730 C1728 1.384 . S
C1730 C1731 1.372 . S
C1731 C1730 1.372 . S
C1731 C1732 1.400 . S
C1731 C1736 1.490 . S
C1732 H1722 0.930 . S
C1732 C1731 1.400 . S
C1732 C1735 1.386 . S
H1733 C1749 0.930 . S
H1734 C1750 0.931 . S
C1735 H1723 0.929 . S
C1735 C1729 1.390 . S
C1735 C1732 1.386 . S
C1736 C1731 1.490 . S
C1736 C1738 1.395 . S
C1736 C1739 1.403 . S
H1737 C1743 0.930 . S
C1738 H1724 0.930 . S
C1738 C1736 1.395 . S
C1738 C1741 1.403 . S
C1739 C1736 1.403 . S
C1739 C1740 1.524 . S
C1739 C1743 1.400 . S
C1740 H1725 0.960 . S
C1740 H1726 0.960 . S
C1740 H1727 0.960 . S
C1740 C1739 1.524 . S
C1741 C1738 1.403 . S
C1741 C1742 1.392 . S
C1741 C1745 1.495 . S
C1742 C1741 1.392 . S
C1742 C1743 1.385 . S
C1742 C1744 1.478 . S
C1743 H1737 0.930 . S
C1743 C1739 1.400 . S
C1743 C1742 1.385 . S
C1744 C1742 1.478 . S
C1744 C1746 1.381 . S
C1744 C1750 1.383 . S
C1745 C1741 1.495 . S
C1745 H1751 0.959 . S
C1745 H1752 0.961 . S
C1745 H1753 0.960 . S
C1746 C1744 1.381 . S
C1746 C1747 1.394 . S
C1746 H1754 0.930 . S
C1747 C1746 1.394 . S
C1747 C1748 1.383 . S
C1747 H1755 0.929 . S
C1748 C1747 1.383 . S
C1748 C1749 1.377 . S
C1749 H1733 0.930 . S
C1749 C1748 1.377 . S
C1749 C1750 1.379 . S
C1750 H1734 0.931 . S
C1750 C1744 1.383 . S
C1750 C1749 1.379 . S
H1751 C1745 0.959 . S
H1752 C1745 0.961 . S
H1753 C1745 0.960 . S
H1754 C1746 0.930 . S
H1755 C1747 0.929 . S
H1756 C1764 0.929 . S
H1757 C1766 0.930 . S
H1758 C1768 0.930 . S
H1759 C1771 0.929 . S
H1760 C1774 0.930 . S
H1761 C1776 0.960 . S
H1762 C1776 0.960 . S
H1763 C1776 0.960 . S
C1764 H1756 0.929 . S
C1764 C1765 1.377 . S
C1764 C1766 1.384 . S
C1765 C1764 1.377 . S
C1765 C1771 1.390 . S
C1766 H1757 0.930 . S
C1766 C1764 1.384 . S
C1766 C1767 1.372 . S
C1767 C1766 1.372 . S
C1767 C1768 1.400 . S
C1767 C1772 1.490 . S
C1768 H1758 0.930 . S
C1768 C1767 1.400 . S
C1768 C1771 1.386 . S
H1769 C1785 0.930 . S
H1770 C1786 0.931 . S
C1771 H1759 0.929 . S
C1771 C1765 1.390 . S
C1771 C1768 1.386 . S
C1772 C1767 1.490 . S
C1772 C1774 1.395 . S
C1772 C1775 1.403 . S
H1773 C1779 0.930 . S
C1774 H1760 0.930 . S
C1774 C1772 1.395 . S
C1774 C1777 1.403 . S
C1775 C1772 1.403 . S
C1775 C1776 1.524 . S
C1775 C1779 1.400 . S
C1776 H1761 0.960 . S
C1776 H1762 0.960 . S
C1776 H1763 0.960 . S
C1776 C1775 1.524 . S
C1777 C1774 1.403 . S
C1777 C1778 1.392 . S
C1777 C1781 1.495 . S
C1778 C1777 1.392 . S
C1778 C1779 1.385 . S
C1778 C1780 1.478 . S
C1779 H1773 0.930 . S
C1779 C1775 1.400 . S
C1779 C1778 1.385 . S
C1780 C1778 1.478 . S
C1780 C1782 1.381 . S
C1780 C1786 1.383 . S
C1781 C1777 1.495 . S
C1781 H1787 0.959 . S
C1781 H1788 0.961 . S
C1781 H1789 0.960 . S
C1782 C1780 1.381 . S
C1782 C1783 1.394 . S
C1782 H1790 0.930 . S
C1783 C1782 1.394 . S
C1783 C1784 1.383 . S
C1783 H1791 0.929 . S
C1784 C1783 1.383 . S
C1784 C1785 1.377 . S
C1785 H1769 0.930 . S
C1785 C1784 1.377 . S
C1785 C1786 1.379 . S
C1786 H1770 0.931 . S
C1786 C1780 1.383 . S
C1786 C1785 1.379 . S
H1787 C1781 0.959 . S
H1788 C1781 0.961 . S
H1789 C1781 0.960 . S
H1790 C1782 0.930 . S
H1791 C1783 0.929 . S
H1792 C1800 0.929 . S
H1793 C1802 0.930 . S
H1794 C1804 0.930 . S
H1795 C1807 0.929 . S
H1796 C1810 0.930 . S
H1797 C1812 0.960 . S
H1798 C1812 0.960 . S
H1799 C1812 0.960 . S
C1800 H1792 0.929 . S
C1800 C1801 1.377 . S
C1800 C1802 1.384 . S
C1801 C1800 1.377 . S
C1801 C1807 1.390 . S
C1802 H1793 0.930 . S
C1802 C1800 1.384 . S
C1802 C1803 1.372 . S
C1803 C1802 1.372 . S
C1803 C1804 1.400 . S
C1803 C1808 1.490 . S
C1804 H1794 0.930 . S
C1804 C1803 1.400 . S
C1804 C1807 1.386 . S
H1805 C1821 0.930 . S
H1806 C1822 0.931 . S
C1807 H1795 0.929 . S
C1807 C1801 1.390 . S
C1807 C1804 1.386 . S
C1808 C1803 1.490 . S
C1808 C1810 1.395 . S
C1808 C1811 1.403 . S
H1809 C1815 0.930 . S
C1810 H1796 0.930 . S
C1810 C1808 1.395 . S
C1810 C1813 1.403 . S
C1811 C1808 1.403 . S
C1811 C1812 1.524 . S
C1811 C1815 1.400 . S
C1812 H1797 0.960 . S
C1812 H1798 0.960 . S
C1812 H1799 0.960 . S
C1812 C1811 1.524 . S
C1813 C1810 1.403 . S
C1813 C1814 1.392 . S
C1813 C1817 1.495 . S
C1814 C1813 1.392 . S
C1814 C1815 1.385 . S
C1814 C1816 1.478 . S
C1815 H1809 0.930 . S
C1815 C1811 1.400 . S
C1815 C1814 1.385 . S
C1816 C1814 1.478 . S
C1816 C1818 1.381 . S
C1816 C1822 1.383 . S
C1817 C1813 1.495 . S
C1817 H1823 0.959 . S
C1817 H1824 0.961 . S
C1817 H1825 0.960 . S
C1818 C1816 1.381 . S
C1818 C1819 1.394 . S
C1818 H1826 0.930 . S
C1819 C1818 1.394 . S
C1819 C1820 1.383 . S
C1819 H1827 0.929 . S
C1820 C1819 1.383 . S
C1820 C1821 1.377 . S
C1821 H1805 0.930 . S
C1821 C1820 1.377 . S
C1821 C1822 1.379 . S
C1822 H1806 0.931 . S
C1822 C1816 1.383 . S
C1822 C1821 1.379 . S
H1823 C1817 0.959 . S
H1824 C1817 0.961 . S
H1825 C1817 0.960 . S
H1826 C1818 0.930 . S
H1827 C1819 0.929 . S
H1828 C1836 0.929 . S
H1829 C1838 0.930 . S
H1830 C1840 0.930 . S
H1831 C1843 0.929 . S
H1832 C1846 0.930 . S
H1833 C1848 0.960 . S
H1834 C1848 0.960 . S
H1835 C1848 0.960 . S
C1836 H1828 0.929 . S
C1836 C1837 1.377 . S
C1836 C1838 1.384 . S
C1837 C1836 1.377 . S
C1837 C1843 1.390 . S
C1838 H1829 0.930 . S
C1838 C1836 1.384 . S
C1838 C1839 1.372 . S
C1839 C1838 1.372 . S
C1839 C1840 1.400 . S
C1839 C1844 1.490 . S
C1840 H1830 0.930 . S
C1840 C1839 1.400 . S
C1840 C1843 1.386 . S
H1841 C1857 0.930 . S
H1842 C1858 0.931 . S
C1843 H1831 0.929 . S
C1843 C1837 1.390 . S
C1843 C1840 1.386 . S
C1844 C1839 1.490 . S
C1844 C1846 1.395 . S
C1844 C1847 1.403 . S
H1845 C1851 0.930 . S
C1846 H1832 0.930 . S
C1846 C1844 1.395 . S
C1846 C1849 1.403 . S
C1847 C1844 1.403 . S
C1847 C1848 1.524 . S
C1847 C1851 1.400 . S
C1848 H1833 0.960 . S
C1848 H1834 0.960 . S
C1848 H1835 0.960 . S
C1848 C1847 1.524 . S
C1849 C1846 1.403 . S
C1849 C1850 1.392 . S
C1849 C1853 1.495 . S
C1850 C1849 1.392 . S
C1850 C1851 1.385 . S
C1850 C1852 1.478 . S
C1851 H1845 0.930 . S
C1851 C1847 1.400 . S
C1851 C1850 1.385 . S
C1852 C1850 1.478 . S
C1852 C1854 1.381 . S
C1852 C1858 1.383 . S
C1853 C1849 1.495 . S
C1853 H1859 0.959 . S
C1853 H1860 0.961 . S
C1853 H1861 0.960 . S
C1854 C1852 1.381 . S
C1854 C1855 1.394 . S
C1854 H1862 0.930 . S
C1855 C1854 1.394 . S
C1855 C1856 1.383 . S
C1855 H1863 0.929 . S
C1856 C1855 1.383 . S
C1856 C1857 1.377 . S
C1857 H1841 0.930 . S
C1857 C1856 1.377 . S
C1857 C1858 1.379 . S
C1858 H1842 0.931 . S
C1858 C1852 1.383 . S
C1858 C1857 1.379 . S
H1859 C1853 0.959 . S
H1860 C1853 0.961 . S
H1861 C1853 0.960 . S
H1862 C1854 0.930 . S
H1863 C1855 0.929 . S
H1864 C1872 0.929 . S
H1865 C1874 0.930 . S
H1866 C1876 0.930 . S
H1867 C1879 0.929 . S
H1868 C1882 0.930 . S
H1869 C1884 0.960 . S
H1870 C1884 0.960 . S
H1871 C1884 0.960 . S
C1872 H1864 0.929 . S
C1872 C1873 1.377 . S
C1872 C1874 1.384 . S
C1873 C1872 1.377 . S
C1873 C1879 1.390 . S
C1874 H1865 0.930 . S
C1874 C1872 1.384 . S
C1874 C1875 1.372 . S
C1875 C1874 1.372 . S
C1875 C1876 1.400 . S
C1875 C1880 1.490 . S
C1876 H1866 0.930 . S
C1876 C1875 1.400 . S
C1876 C1879 1.386 . S
H1877 C1893 0.930 . S
H1878 C1894 0.931 . S
C1879 H1867 0.929 . S
C1879 C1873 1.390 . S
C1879 C1876 1.386 . S
C1880 C1875 1.490 . S
C1880 C1882 1.395 . S
C1880 C1883 1.403 . S
H1881 C1887 0.930 . S
C1882 H1868 0.930 . S
C1882 C1880 1.395 . S
C1882 C1885 1.403 . S
C1883 C1880 1.403 . S
C1883 C1884 1.524 . S
C1883 C1887 1.400 . S
C1884 H1869 0.960 . S
C1884 H1870 0.960 . S
C1884 H1871 0.960 . S
C1884 C1883 1.524 . S
C1885 C1882 1.403 . S
C1885 C1886 1.392 . S
C1885 C1889 1.495 . S
C1886 C1885 1.392 . S
C1886 C1887 1.385 . S
C1886 C1888 1.478 . S
C1887 H1881 0.930 . S
C1887 C1883 1.400 . S
C1887 C1886 1.385 . S
C1888 C1886 1.478 . S
C1888 C1890 1.381 . S
C1888 C1894 1.383 . S
C1889 C1885 1.495 . S
C1889 H1895 0.959 . S
C1889 H1896 0.961 . S
C1889 H1897 0.960 . S
C1890 C1888 1.381 . S
C1890 C1891 1.394 . S
C1890 H1898 0.930 . S
C1891 C1890 1.394 . S
C1891 C1892 1.383 . S
C1891 H1899 0.929 . S
C1892 C1891 1.383 . S
C1892 C1893 1.377 . S
C1893 H1877 0.930 . S
C1893 C1892 1.377 . S
C1893 C1894 1.379 . S
C1894 H1878 0.931 . S
C1894 C1888 1.383 . S
C1894 C1893 1.379 . S
H1895 C1889 0.959 . S
H1896 C1889 0.961 . S
H1897 C1889 0.960 . S
H1898 C1890 0.930 . S
H1899 C1891 0.929 . S
H1900 C1908 0.929 . S
H1901 C1910 0.930 . S
H1902 C1912 0.930 . S
H1903 C1915 0.929 . S
H1904 C1918 0.930 . S
H1905 C1920 0.960 . S
H1906 C1920 0.960 . S
H1907 C1920 0.960 . S
C1908 H1900 0.929 . S
C1908 C1909 1.377 . S
C1908 C1910 1.384 . S
C1909 C1908 1.377 . S
C1909 C1915 1.390 . S
C1910 H1901 0.930 . S
C1910 C1908 1.384 . S
C1910 C1911 1.372 . S
C1911 C1910 1.372 . S
C1911 C1912 1.400 . S
C1911 C1916 1.490 . S
C1912 H1902 0.930 . S
C1912 C1911 1.400 . S
C1912 C1915 1.386 . S
H1913 C1929 0.930 . S
H1914 C1930 0.931 . S
C1915 H1903 0.929 . S
C1915 C1909 1.390 . S
C1915 C1912 1.386 . S
C1916 C1911 1.490 . S
C1916 C1918 1.395 . S
C1916 C1919 1.403 . S
H1917 C1923 0.930 . S
C1918 H1904 0.930 . S
C1918 C1916 1.395 . S
C1918 C1921 1.403 . S
C1919 C1916 1.403 . S
C1919 C1920 1.524 . S
C1919 C1923 1.400 . S
C1920 H1905 0.960 . S
C1920 H1906 0.960 . S
C1920 H1907 0.960 . S
C1920 C1919 1.524 . S
C1921 C1918 1.403 . S
C1921 C1922 1.392 . S
C1921 C1925 1.495 . S
C1922 C1921 1.392 . S
C1922 C1923 1.385 . S
C1922 C1924 1.478 . S
C1923 H1917 0.930 . S
C1923 C1919 1.400 . S
C1923 C1922 1.385 . S
C1924 C1922 1.478 . S
C1924 C1926 1.381 . S
C1924 C1930 1.383 . S
C1925 C1921 1.495 . S
C1925 H1931 0.959 . S
C1925 H1932 0.961 . S
C1925 H1933 0.960 . S
C1926 C1924 1.381 . S
C1926 C1927 1.394 . S
C1926 H1934 0.930 . S
C1927 C1926 1.394 . S
C1927 C1928 1.383 . S
C1927 H1935 0.929 . S
C1928 C1927 1.383 . S
C1928 C1929 1.377 . S
C1929 H1913 0.930 . S
C1929 C1928 1.377 . S
C1929 C1930 1.379 . S
C1930 H1914 0.931 . S
C1930 C1924 1.383 . S
C1930 C1929 1.379 . S
H1931 C1925 0.959 . S
H1932 C1925 0.961 . S
H1933 C1925 0.960 . S
H1934 C1926 0.930 . S
H1935 C1927 0.929 . S
H1936 C1944 0.929 . S
H1937 C1946 0.930 . S
H1938 C1948 0.930 . S
H1939 C1951 0.929 . S
H1940 C1954 0.930 . S
H1941 C1956 0.960 . S
H1942 C1956 0.960 . S
H1943 C1956 0.960 . S
C1944 H1936 0.929 . S
C1944 C1945 1.377 . S
C1944 C1946 1.384 . S
C1945 C1944 1.377 . S
C1945 C1951 1.390 . S
C1946 H1937 0.930 . S
C1946 C1944 1.384 . S
C1946 C1947 1.372 . S
C1947 C1946 1.372 . S
C1947 C1948 1.400 . S
C1947 C1952 1.490 . S
C1948 H1938 0.930 . S
C1948 C1947 1.400 . S
C1948 C1951 1.386 . S
H1949 C1965 0.930 . S
H1950 C1966 0.931 . S
C1951 H1939 0.929 . S
C1951 C1945 1.390 . S
C1951 C1948 1.386 . S
C1952 C1947 1.490 . S
C1952 C1954 1.395 . S
C1952 C1955 1.403 . S
H1953 C1959 0.930 . S
C1954 H1940 0.930 . S
C1954 C1952 1.395 . S
C1954 C1957 1.403 . S
C1955 C1952 1.403 . S
C1955 C1956 1.524 . S
C1955 C1959 1.400 . S
C1956 H1941 0.960 . S
C1956 H1942 0.960 . S
C1956 H1943 0.960 . S
C1956 C1955 1.524 . S
C1957 C1954 1.403 . S
C1957 C1958 1.392 . S
C1957 C1961 1.495 . S
C1958 C1957 1.392 . S
C1958 C1959 1.385 . S
C1958 C1960 1.478 . S
C1959 H1953 0.930 . S
C1959 C1955 1.400 . S
C1959 C1958 1.385 . S
C1960 C1958 1.478 . S
C1960 C1962 1.381 . S
C1960 C1966 1.383 . S
C1961 C1957 1.495 . S
C1961 H1967 0.959 . S
C1961 H1968 0.961 . S
C1961 H1969 0.960 . S
C1962 C1960 1.381 . S
C1962 C1963 1.394 . S
C1962 H1970 0.930 . S
C1963 C1962 1.394 . S
C1963 C1964 1.383 . S
C1963 H1971 0.929 . S
C1964 C1963 1.383 . S
C1964 C1965 1.377 . S
C1965 H1949 0.930 . S
C1965 C1964 1.377 . S
C1965 C1966 1.379 . S
C1966 H1950 0.931 . S
C1966 C1960 1.383 . S
C1966 C1965 1.379 . S
H1967 C1961 0.959 . S
H1968 C1961 0.961 . S
H1969 C1961 0.960 . S
H1970 C1962 0.930 . S
H1971 C1963 0.929 . S
H1972 C1980 0.929 . S
H1973 C1982 0.930 . S
H1974 C1984 0.930 . S
H1975 C1987 0.929 . S
H1976 C1990 0.930 . S
H1977 C1992 0.960 . S
H1978 C1992 0.960 1_556 S
H1979 C1992 0.960 . S
C1980 H1972 0.929 . S
C1980 C1981 1.377 . S
C1980 C1982 1.384 . S
C1981 C1980 1.377 . S
C1981 C1987 1.390 . S
C1982 H1973 0.930 . S
C1982 C1980 1.384 . S
C1982 C1983 1.372 . S
C1983 C1982 1.372 . S
C1983 C1984 1.400 . S
C1983 C1988 1.490 . S
C1984 H1974 0.930 . S
C1984 C1983 1.400 . S
C1984 C1987 1.386 . S
H1985 C2001 0.930 . S
H1986 C2002 0.931 . S
C1987 H1975 0.929 . S
C1987 C1981 1.390 . S
C1987 C1984 1.386 . S
C1988 C1983 1.490 . S
C1988 C1990 1.395 . S
C1988 C1991 1.403 . S
H1989 C1995 0.930 . S
C1990 H1976 0.930 . S
C1990 C1988 1.395 . S
C1990 C1993 1.403 . S
C1991 C1988 1.403 . S
C1991 C1992 1.524 . S
C1991 C1995 1.400 . S
C1992 H1977 0.960 . S
C1992 H1978 0.960 1_554 S
C1992 H1979 0.960 . S
C1992 C1991 1.524 . S
C1993 C1990 1.403 . S
C1993 C1994 1.392 . S
C1993 C1997 1.495 . S
C1994 C1993 1.392 . S
C1994 C1995 1.385 . S
C1994 C1996 1.478 . S
C1995 H1989 0.930 . S
C1995 C1991 1.400 . S
C1995 C1994 1.385 . S
C1996 C1994 1.478 . S
C1996 C1998 1.381 . S
C1996 C2002 1.383 . S
C1997 C1993 1.495 . S
C1997 H2003 0.959 . S
C1997 H2004 0.961 . S
C1997 H2005 0.960 . S
C1998 C1996 1.381 . S
C1998 C1999 1.394 . S
C1998 H2006 0.930 . S
C1999 C1998 1.394 . S
C1999 C2000 1.383 . S
C1999 H2007 0.929 . S
C2000 C1999 1.383 . S
C2000 C2001 1.377 . S
C2001 H1985 0.930 . S
C2001 C2000 1.377 . S
C2001 C2002 1.379 . S
C2002 H1986 0.931 . S
C2002 C1996 1.383 . S
C2002 C2001 1.379 . S
H2003 C1997 0.959 . S
H2004 C1997 0.961 . S
H2005 C1997 0.960 . S
H2006 C1998 0.930 . S
H2007 C1999 0.929 . S
H2008 C2016 0.929 . S
H2009 C2018 0.930 . S
H2010 C2020 0.930 . S
H2011 C2023 0.929 . S
H2012 C2026 0.930 . S
H2013 C2028 0.960 . S
H2014 C2028 0.960 . S
H2015 C2028 0.960 . S
C2016 H2008 0.929 . S
C2016 C2017 1.377 . S
C2016 C2018 1.384 . S
C2017 C2016 1.377 . S
C2017 C2023 1.390 . S
C2018 H2009 0.930 . S
C2018 C2016 1.384 . S
C2018 C2019 1.372 . S
C2019 C2018 1.372 . S
C2019 C2020 1.400 . S
C2019 C2024 1.490 . S
C2020 H2010 0.930 . S
C2020 C2019 1.400 . S
C2020 C2023 1.386 . S
H2021 C2037 0.930 . S
H2022 C2038 0.931 . S
C2023 H2011 0.929 . S
C2023 C2017 1.390 . S
C2023 C2020 1.386 . S
C2024 C2019 1.490 . S
C2024 C2026 1.395 . S
C2024 C2027 1.403 . S
H2025 C2031 0.930 . S
C2026 H2012 0.930 . S
C2026 C2024 1.395 . S
C2026 C2029 1.403 . S
C2027 C2024 1.403 . S
C2027 C2028 1.524 . S
C2027 C2031 1.400 . S
C2028 H2013 0.960 . S
C2028 H2014 0.960 . S
C2028 H2015 0.960 . S
C2028 C2027 1.524 . S
C2029 C2026 1.403 . S
C2029 C2030 1.392 . S
C2029 C2033 1.495 . S
C2030 C2029 1.392 . S
C2030 C2031 1.385 . S
C2030 C2032 1.478 . S
C2031 H2025 0.930 . S
C2031 C2027 1.400 . S
C2031 C2030 1.385 . S
C2032 C2030 1.478 . S
C2032 C2034 1.381 . S
C2032 C2038 1.383 . S
C2033 C2029 1.495 . S
C2033 H2039 0.959 . S
C2033 H2040 0.961 . S
C2033 H2041 0.960 . S
C2034 C2032 1.381 . S
C2034 C2035 1.394 . S
C2034 H2042 0.930 . S
C2035 C2034 1.394 . S
C2035 C2036 1.383 . S
C2035 H2043 0.929 . S
C2036 C2035 1.383 . S
C2036 C2037 1.377 . S
C2037 H2021 0.930 . S
C2037 C2036 1.377 . S
C2037 C2038 1.379 . S
C2038 H2022 0.931 . S
C2038 C2032 1.383 . S
C2038 C2037 1.379 . S
H2039 C2033 0.959 . S
H2040 C2033 0.961 . S
H2041 C2033 0.960 . S
H2042 C2034 0.930 . S
H2043 C2035 0.929 . S
H2044 C2052 0.929 . S
H2045 C2054 0.930 . S
H2046 C2056 0.930 . S
H2047 C2059 0.929 . S
H2048 C2062 0.930 . S
H2049 C2064 0.960 . S
H2050 C2064 0.960 . S
H2051 C2064 0.960 . S
C2052 H2044 0.929 . S
C2052 C2053 1.377 . S
C2052 C2054 1.384 . S
C2053 C2052 1.377 . S
C2053 C2059 1.390 . S
C2054 H2045 0.930 . S
C2054 C2052 1.384 . S
C2054 C2055 1.372 . S
C2055 C2054 1.372 . S
C2055 C2056 1.400 . S
C2055 C2060 1.490 . S
C2056 H2046 0.930 . S
C2056 C2055 1.400 . S
C2056 C2059 1.386 . S
H2057 C2073 0.930 . S
H2058 C2074 0.931 . S
C2059 H2047 0.929 . S
C2059 C2053 1.390 . S
C2059 C2056 1.386 . S
C2060 C2055 1.490 . S
C2060 C2062 1.395 . S
C2060 C2063 1.403 . S
H2061 C2067 0.930 . S
C2062 H2048 0.930 . S
C2062 C2060 1.395 . S
C2062 C2065 1.403 . S
C2063 C2060 1.403 . S
C2063 C2064 1.524 . S
C2063 C2067 1.400 . S
C2064 H2049 0.960 . S
C2064 H2050 0.960 . S
C2064 H2051 0.960 . S
C2064 C2063 1.524 . S
C2065 C2062 1.403 . S
C2065 C2066 1.392 . S
C2065 C2069 1.495 . S
C2066 C2065 1.392 . S
C2066 C2067 1.385 . S
C2066 C2068 1.478 . S
C2067 H2061 0.930 . S
C2067 C2063 1.400 . S
C2067 C2066 1.385 . S
C2068 C2066 1.478 . S
C2068 C2070 1.381 . S
C2068 C2074 1.383 . S
C2069 C2065 1.495 . S
C2069 H2075 0.959 . S
C2069 H2076 0.961 . S
C2069 H2077 0.960 . S
C2070 C2068 1.381 . S
C2070 C2071 1.394 . S
C2070 H2078 0.930 . S
C2071 C2070 1.394 . S
C2071 C2072 1.383 . S
C2071 H2079 0.929 . S
C2072 C2071 1.383 . S
C2072 C2073 1.377 . S
C2073 H2057 0.930 . S
C2073 C2072 1.377 . S
C2073 C2074 1.379 . S
C2074 H2058 0.931 . S
C2074 C2068 1.383 . S
C2074 C2073 1.379 . S
H2075 C2069 0.959 . S
H2076 C2069 0.961 . S
H2077 C2069 0.960 . S
H2078 C2070 0.930 . S
H2079 C2071 0.929 . S
H2080 C2088 0.929 . S
H2081 C2090 0.930 . S
H2082 C2092 0.930 . S
H2083 C2095 0.929 . S
H2084 C2098 0.930 . S
H2085 C2100 0.960 . S
H2086 C2100 0.960 . S
H2087 C2100 0.960 . S
C2088 H2080 0.929 . S
C2088 C2089 1.377 . S
C2088 C2090 1.384 . S
C2089 C2088 1.377 . S
C2089 C2095 1.390 . S
C2090 H2081 0.930 . S
C2090 C2088 1.384 . S
C2090 C2091 1.372 . S
C2091 C2090 1.372 . S
C2091 C2092 1.400 . S
C2091 C2096 1.490 . S
C2092 H2082 0.930 . S
C2092 C2091 1.400 . S
C2092 C2095 1.386 . S
H2093 C2109 0.930 . S
H2094 C2110 0.931 . S
C2095 H2083 0.929 . S
C2095 C2089 1.390 . S
C2095 C2092 1.386 . S
C2096 C2091 1.490 . S
C2096 C2098 1.395 . S
C2096 C2099 1.403 . S
H2097 C2103 0.930 . S
C2098 H2084 0.930 . S
C2098 C2096 1.395 . S
C2098 C2101 1.403 . S
C2099 C2096 1.403 . S
C2099 C2100 1.524 . S
C2099 C2103 1.400 . S
C2100 H2085 0.960 . S
C2100 H2086 0.960 . S
C2100 H2087 0.960 . S
C2100 C2099 1.524 . S
C2101 C2098 1.403 . S
C2101 C2102 1.392 . S
C2101 C2105 1.495 . S
C2102 C2101 1.392 . S
C2102 C2103 1.385 . S
C2102 C2104 1.478 . S
C2103 H2097 0.930 . S
C2103 C2099 1.400 . S
C2103 C2102 1.385 . S
C2104 C2102 1.478 . S
C2104 C2106 1.381 . S
C2104 C2110 1.383 . S
C2105 C2101 1.495 . S
C2105 H2111 0.959 . S
C2105 H2112 0.961 . S
C2105 H2113 0.960 . S
C2106 C2104 1.381 . S
C2106 C2107 1.394 . S
C2106 H2114 0.930 . S
C2107 C2106 1.394 . S
C2107 C2108 1.383 . S
C2107 H2115 0.929 . S
C2108 C2107 1.383 . S
C2108 C2109 1.377 . S
C2109 H2093 0.930 . S
C2109 C2108 1.377 . S
C2109 C2110 1.379 . S
C2110 H2094 0.931 . S
C2110 C2104 1.383 . S
C2110 C2109 1.379 . S
H2111 C2105 0.959 . S
H2112 C2105 0.961 . S
H2113 C2105 0.960 . S
H2114 C2106 0.930 . S
H2115 C2107 0.929 . S
H2116 C2124 0.929 . S
H2117 C2126 0.930 . S
H2118 C2128 0.930 . S
H2119 C2131 0.929 . S
H2120 C2134 0.930 . S
H2121 C2136 0.960 . S
H2122 C2136 0.960 . S
H2123 C2136 0.960 . S
C2124 H2116 0.929 . S
C2124 C2125 1.377 . S
C2124 C2126 1.384 . S
C2125 C2124 1.377 . S
C2125 C2131 1.390 . S
C2126 H2117 0.930 . S
C2126 C2124 1.384 . S
C2126 C2127 1.372 . S
C2127 C2126 1.372 . S
C2127 C2128 1.400 . S
C2127 C2132 1.490 . S
C2128 H2118 0.930 . S
C2128 C2127 1.400 . S
C2128 C2131 1.386 . S
H2129 C2145 0.930 . S
H2130 C2146 0.931 . S
C2131 H2119 0.929 . S
C2131 C2125 1.390 . S
C2131 C2128 1.386 . S
C2132 C2127 1.490 . S
C2132 C2134 1.395 . S
C2132 C2135 1.403 . S
H2133 C2139 0.930 . S
C2134 H2120 0.930 . S
C2134 C2132 1.395 . S
C2134 C2137 1.403 . S
C2135 C2132 1.403 . S
C2135 C2136 1.524 . S
C2135 C2139 1.400 . S
C2136 H2121 0.960 . S
C2136 H2122 0.960 . S
C2136 H2123 0.960 . S
C2136 C2135 1.524 . S
C2137 C2134 1.403 . S
C2137 C2138 1.392 . S
C2137 C2141 1.495 . S
C2138 C2137 1.392 . S
C2138 C2139 1.385 . S
C2138 C2140 1.478 . S
C2139 H2133 0.930 . S
C2139 C2135 1.400 . S
C2139 C2138 1.385 . S
C2140 C2138 1.478 . S
C2140 C2142 1.381 . S
C2140 C2146 1.383 . S
C2141 C2137 1.495 . S
C2141 H2147 0.959 . S
C2141 H2148 0.961 . S
C2141 H2149 0.960 . S
C2142 C2140 1.381 . S
C2142 C2143 1.394 . S
C2142 H2150 0.930 . S
C2143 C2142 1.394 . S
C2143 C2144 1.383 . S
C2143 H2151 0.929 . S
C2144 C2143 1.383 . S
C2144 C2145 1.377 . S
C2145 H2129 0.930 . S
C2145 C2144 1.377 . S
C2145 C2146 1.379 . S
C2146 H2130 0.931 . S
C2146 C2140 1.383 . S
C2146 C2145 1.379 . S
H2147 C2141 0.959 . S
H2148 C2141 0.961 . S
H2149 C2141 0.960 . S
H2150 C2142 0.930 . S
H2151 C2143 0.929 . S
H2152 C2160 0.930 1_554 S
H2153 C2162 0.948 . S
H2154 C2164 0.930 . S
H2155 C2167 0.929 . S
H2156 C2170 0.930 . S
H2157 C2172 0.960 . S
H2158 C2172 0.960 1_554 S
H2159 C2172 0.960 . S
C2160 H2152 0.930 1_556 S
C2160 C2161 1.377 . S
C2160 C2162 1.384 . S
C2161 C2160 1.377 . S
C2161 C2167 1.390 . S
C2162 H2153 0.948 . S
C2162 C2160 1.384 . S
C2162 C2163 1.372 . S
C2163 C2162 1.372 . S
C2163 C2164 1.400 . S
C2163 C2168 1.490 . S
C2164 H2154 0.930 . S
C2164 C2163 1.400 . S
C2164 C2167 1.386 . S
H2165 C2181 0.930 . S
H2166 C2182 0.931 . S
C2167 H2155 0.929 . S
C2167 C2161 1.390 . S
C2167 C2164 1.386 . S
C2168 C2163 1.490 . S
C2168 C2170 1.395 . S
C2168 C2171 1.403 . S
H2169 C2175 0.930 . S
C2170 H2156 0.930 . S
C2170 C2168 1.395 . S
C2170 C2173 1.403 . S
C2171 C2168 1.403 . S
C2171 C2172 1.524 . S
C2171 C2175 1.400 . S
C2172 H2157 0.960 . S
C2172 H2158 0.960 1_556 S
C2172 H2159 0.960 . S
C2172 C2171 1.524 . S
C2173 C2170 1.403 . S
C2173 C2174 1.392 . S
C2173 C2177 1.495 . S
C2174 C2173 1.392 . S
C2174 C2175 1.385 . S
C2174 C2176 1.478 . S
C2175 H2169 0.930 . S
C2175 C2171 1.400 . S
C2175 C2174 1.385 . S
C2176 C2174 1.478 . S
C2176 C2178 1.381 . S
C2176 C2182 1.383 . S
C2177 C2173 1.495 . S
C2177 H2183 0.959 . S
C2177 H2184 0.961 . S
C2177 H2185 0.960 . S
C2178 C2176 1.381 . S
C2178 C2179 1.394 . S
C2178 H2186 0.930 . S
C2179 C2178 1.394 . S
C2179 C2180 1.383 . S
C2179 H2187 0.929 . S
C2180 C2179 1.383 . S
C2180 C2181 1.377 . S
C2181 H2165 0.930 . S
C2181 C2180 1.377 . S
C2181 C2182 1.379 . S
C2182 H2166 0.931 . S
C2182 C2176 1.383 . S
C2182 C2181 1.379 . S
H2183 C2177 0.959 . S
H2184 C2177 0.961 . S
H2185 C2177 0.960 . S
H2186 C2178 0.930 . S
H2187 C2179 0.929 . S
H2188 C2196 0.929 . S
H2189 C2198 0.930 . S
H2190 C2200 0.930 . S
H2191 C2203 0.929 . S
H2192 C2206 0.930 . S
H2193 C2208 0.960 . S
H2194 C2208 0.960 . S
H2195 C2208 0.960 . S
C2196 H2188 0.929 . S
C2196 C2197 1.377 . S
C2196 C2198 1.384 . S
C2197 C2196 1.377 . S
C2197 C2203 1.390 . S
C2198 H2189 0.930 . S
C2198 C2196 1.384 . S
C2198 C2199 1.372 . S
C2199 C2198 1.372 . S
C2199 C2200 1.400 . S
C2199 C2204 1.490 . S
C2200 H2190 0.930 . S
C2200 C2199 1.400 . S
C2200 C2203 1.386 . S
H2201 C2217 0.930 . S
H2202 C2218 0.931 . S
C2203 H2191 0.929 . S
C2203 C2197 1.390 . S
C2203 C2200 1.386 . S
C2204 C2199 1.490 . S
C2204 C2206 1.395 . S
C2204 C2207 1.403 . S
H2205 C2211 0.930 . S
C2206 H2192 0.930 . S
C2206 C2204 1.395 . S
C2206 C2209 1.403 . S
C2207 C2204 1.403 . S
C2207 C2208 1.524 . S
C2207 C2211 1.400 . S
C2208 H2193 0.960 . S
C2208 H2194 0.960 . S
C2208 H2195 0.960 . S
C2208 C2207 1.524 . S
C2209 C2206 1.403 . S
C2209 C2210 1.392 . S
C2209 C2213 1.495 . S
C2210 C2209 1.392 . S
C2210 C2211 1.385 . S
C2210 C2212 1.478 . S
C2211 H2205 0.930 . S
C2211 C2207 1.400 . S
C2211 C2210 1.385 . S
C2212 C2210 1.478 . S
C2212 C2214 1.381 . S
C2212 C2218 1.383 . S
C2213 C2209 1.495 . S
C2213 H2219 0.959 . S
C2213 H2220 0.961 . S
C2213 H2221 0.960 . S
C2214 C2212 1.381 . S
C2214 C2215 1.394 . S
C2214 H2222 0.930 . S
C2215 C2214 1.394 . S
C2215 C2216 1.383 . S
C2215 H2223 0.929 . S
C2216 C2215 1.383 . S
C2216 C2217 1.377 . S
C2217 H2201 0.930 . S
C2217 C2216 1.377 . S
C2217 C2218 1.379 . S
C2218 H2202 0.931 . S
C2218 C2212 1.383 . S
C2218 C2217 1.379 . S
H2219 C2213 0.959 . S
H2220 C2213 0.961 . S
H2221 C2213 0.960 . S
H2222 C2214 0.930 . S
H2223 C2215 0.929 . S
H2224 C2232 0.929 . S
H2225 C2234 0.930 . S
H2226 C2236 0.930 . S
H2227 C2239 0.929 . S
H2228 C2242 0.930 . S
H2229 C2244 0.960 . S
H2230 C2244 0.960 . S
H2231 C2244 0.960 . S
C2232 H2224 0.929 . S
C2232 C2233 1.377 . S
C2232 C2234 1.384 . S
C2233 C2232 1.377 . S
C2233 C2239 1.390 . S
C2234 H2225 0.930 . S
C2234 C2232 1.384 . S
C2234 C2235 1.372 . S
C2235 C2234 1.372 . S
C2235 C2236 1.400 . S
C2235 C2240 1.490 . S
C2236 H2226 0.930 . S
C2236 C2235 1.400 . S
C2236 C2239 1.386 . S
H2237 C2253 0.930 . S
H2238 C2254 0.931 . S
C2239 H2227 0.929 . S
C2239 C2233 1.390 . S
C2239 C2236 1.386 . S
C2240 C2235 1.490 . S
C2240 C2242 1.395 . S
C2240 C2243 1.403 . S
H2241 C2247 0.930 . S
C2242 H2228 0.930 . S
C2242 C2240 1.395 . S
C2242 C2245 1.403 . S
C2243 C2240 1.403 . S
C2243 C2244 1.524 . S
C2243 C2247 1.400 . S
C2244 H2229 0.960 . S
C2244 H2230 0.960 . S
C2244 H2231 0.960 . S
C2244 C2243 1.524 . S
C2245 C2242 1.403 . S
C2245 C2246 1.392 . S
C2245 C2249 1.495 . S
C2246 C2245 1.392 . S
C2246 C2247 1.385 . S
C2246 C2248 1.478 . S
C2247 H2241 0.930 . S
C2247 C2243 1.400 . S
C2247 C2246 1.385 . S
C2248 C2246 1.478 . S
C2248 C2250 1.381 . S
C2248 C2254 1.383 . S
C2249 C2245 1.495 . S
C2249 H2255 0.959 . S
C2249 H2256 0.961 . S
C2249 H2257 0.960 . S
C2250 C2248 1.381 . S
C2250 C2251 1.394 . S
C2250 H2258 0.930 . S
C2251 C2250 1.394 . S
C2251 C2252 1.383 . S
C2251 H2259 0.929 . S
C2252 C2251 1.383 . S
C2252 C2253 1.377 . S
C2253 H2237 0.930 . S
C2253 C2252 1.377 . S
C2253 C2254 1.379 . S
C2254 H2238 0.931 . S
C2254 C2248 1.383 . S
C2254 C2253 1.379 . S
H2255 C2249 0.959 . S
H2256 C2249 0.961 . S
H2257 C2249 0.960 . S
H2258 C2250 0.930 . S
H2259 C2251 0.929 . S
H2260 C2268 0.929 . S
H2261 C2270 0.930 . S
H2262 C2272 0.930 . S
H2263 C2275 0.929 . S
H2264 C2278 0.930 . S
H2265 C2280 0.960 . S
H2266 C2280 0.960 . S
H2267 C2280 0.960 . S
C2268 H2260 0.929 . S
C2268 C2269 1.377 . S
C2268 C2270 1.384 . S
C2269 C2268 1.377 . S
C2269 C2275 1.390 . S
C2270 H2261 0.930 . S
C2270 C2268 1.384 . S
C2270 C2271 1.372 . S
C2271 C2270 1.372 . S
C2271 C2272 1.400 . S
C2271 C2276 1.490 . S
C2272 H2262 0.930 . S
C2272 C2271 1.400 . S
C2272 C2275 1.386 . S
H2273 C2289 0.930 . S
H2274 C2290 0.931 . S
C2275 H2263 0.929 . S
C2275 C2269 1.390 . S
C2275 C2272 1.386 . S
C2276 C2271 1.490 . S
C2276 C2278 1.395 . S
C2276 C2279 1.403 . S
H2277 C2283 0.930 . S
C2278 H2264 0.930 . S
C2278 C2276 1.395 . S
C2278 C2281 1.403 . S
C2279 C2276 1.403 . S
C2279 C2280 1.524 . S
C2279 C2283 1.400 . S
C2280 H2265 0.960 . S
C2280 H2266 0.960 . S
C2280 H2267 0.960 . S
C2280 C2279 1.524 . S
C2281 C2278 1.403 . S
C2281 C2282 1.392 . S
C2281 C2285 1.495 . S
C2282 C2281 1.392 . S
C2282 C2283 1.385 . S
C2282 C2284 1.478 . S
C2283 H2277 0.930 . S
C2283 C2279 1.400 . S
C2283 C2282 1.385 . S
C2284 C2282 1.478 . S
C2284 C2286 1.381 . S
C2284 C2290 1.383 . S
C2285 C2281 1.495 . S
C2285 H2291 0.959 . S
C2285 H2292 0.961 . S
C2285 H2293 0.960 . S
C2286 C2284 1.381 . S
C2286 C2287 1.394 . S
C2286 H2294 0.930 . S
C2287 C2286 1.394 . S
C2287 C2288 1.383 . S
C2287 H2295 0.929 . S
C2288 C2287 1.383 . S
C2288 C2289 1.377 . S
C2289 H2273 0.930 . S
C2289 C2288 1.377 . S
C2289 C2290 1.379 . S
C2290 H2274 0.931 . S
C2290 C2284 1.383 . S
C2290 C2289 1.379 . S
H2291 C2285 0.959 . S
H2292 C2285 0.961 . S
H2293 C2285 0.960 . S
H2294 C2286 0.930 . S
H2295 C2287 0.929 . S
H2296 C2304 0.929 . S
H2297 C2306 0.930 . S
H2298 C2308 0.930 . S
H2299 C2311 0.929 . S
H2300 C2314 0.930 . S
H2301 C2316 0.960 . S
H2302 C2316 0.960 . S
H2303 C2316 0.960 . S
C2304 H2296 0.929 . S
C2304 C2305 1.377 . S
C2304 C2306 1.384 . S
C2305 C2304 1.377 . S
C2305 C2311 1.390 . S
C2306 H2297 0.930 . S
C2306 C2304 1.384 . S
C2306 C2307 1.372 . S
C2307 C2306 1.372 . S
C2307 C2308 1.400 . S
C2307 C2312 1.490 . S
C2308 H2298 0.930 . S
C2308 C2307 1.400 . S
C2308 C2311 1.386 . S
H2309 C2325 0.930 . S
H2310 C2326 0.931 . S
C2311 H2299 0.929 . S
C2311 C2305 1.390 . S
C2311 C2308 1.386 . S
C2312 C2307 1.490 . S
C2312 C2314 1.395 . S
C2312 C2315 1.403 . S
H2313 C2319 0.930 . S
C2314 H2300 0.930 . S
C2314 C2312 1.395 . S
C2314 C2317 1.403 . S
C2315 C2312 1.403 . S
C2315 C2316 1.524 . S
C2315 C2319 1.400 . S
C2316 H2301 0.960 . S
C2316 H2302 0.960 . S
C2316 H2303 0.960 . S
C2316 C2315 1.524 . S
C2317 C2314 1.403 . S
C2317 C2318 1.392 . S
C2317 C2321 1.495 . S
C2318 C2317 1.392 . S
C2318 C2319 1.385 . S
C2318 C2320 1.478 . S
C2319 H2313 0.930 . S
C2319 C2315 1.400 . S
C2319 C2318 1.385 . S
C2320 C2318 1.478 . S
C2320 C2322 1.381 . S
C2320 C2326 1.383 . S
C2321 C2317 1.495 . S
C2321 H2327 0.959 . S
C2321 H2328 0.961 . S
C2321 H2329 0.960 . S
C2322 C2320 1.381 . S
C2322 C2323 1.394 . S
C2322 H2330 0.930 . S
C2323 C2322 1.394 . S
C2323 C2324 1.383 . S
C2323 H2331 0.929 . S
C2324 C2323 1.383 . S
C2324 C2325 1.377 . S
C2325 H2309 0.930 . S
C2325 C2324 1.377 . S
C2325 C2326 1.379 . S
C2326 H2310 0.931 . S
C2326 C2320 1.383 . S
C2326 C2325 1.379 . S
H2327 C2321 0.959 . S
H2328 C2321 0.961 . S
H2329 C2321 0.960 . S
H2330 C2322 0.930 . S
H2331 C2323 0.929 . S
H2332 C2340 0.929 . S
H2333 C2342 0.930 . S
H2334 C2344 0.930 . S
H2335 C2347 0.929 . S
H2336 C2350 0.930 . S
H2337 C2352 0.960 . S
H2338 C2352 0.960 . S
H2339 C2352 0.960 . S
C2340 H2332 0.929 . S
C2340 C2341 1.377 . S
C2340 C2342 1.384 . S
C2341 C2340 1.377 . S
C2341 C2347 1.390 . S
C2342 H2333 0.930 . S
C2342 C2340 1.384 . S
C2342 C2343 1.372 . S
C2343 C2342 1.372 . S
C2343 C2344 1.400 . S
C2343 C2348 1.490 . S
C2344 H2334 0.930 . S
C2344 C2343 1.400 . S
C2344 C2347 1.386 . S
H2345 C2361 0.930 . S
H2346 C2362 0.931 . S
C2347 H2335 0.929 . S
C2347 C2341 1.390 . S
C2347 C2344 1.386 . S
C2348 C2343 1.490 . S
C2348 C2350 1.395 . S
C2348 C2351 1.403 . S
H2349 C2355 0.930 . S
C2350 H2336 0.930 . S
C2350 C2348 1.395 . S
C2350 C2353 1.403 . S
C2351 C2348 1.403 . S
C2351 C2352 1.524 . S
C2351 C2355 1.400 . S
C2352 H2337 0.960 . S
C2352 H2338 0.960 . S
C2352 H2339 0.960 . S
C2352 C2351 1.524 . S
C2353 C2350 1.403 . S
C2353 C2354 1.392 . S
C2353 C2357 1.495 . S
C2354 C2353 1.392 . S
C2354 C2355 1.385 . S
C2354 C2356 1.478 . S
C2355 H2349 0.930 . S
C2355 C2351 1.400 . S
C2355 C2354 1.385 . S
C2356 C2354 1.478 . S
C2356 C2358 1.381 . S
C2356 C2362 1.383 . S
C2357 C2353 1.495 . S
C2357 H2363 0.959 . S
C2357 H2364 0.961 . S
C2357 H2365 0.960 . S
C2358 C2356 1.381 . S
C2358 C2359 1.394 . S
C2358 H2366 0.930 . S
C2359 C2358 1.394 . S
C2359 C2360 1.383 . S
C2359 H2367 0.929 . S
C2360 C2359 1.383 . S
C2360 C2361 1.377 . S
C2361 H2345 0.930 . S
C2361 C2360 1.377 . S
C2361 C2362 1.379 . S
C2362 H2346 0.931 . S
C2362 C2356 1.383 . S
C2362 C2361 1.379 . S
H2363 C2357 0.959 . S
H2364 C2357 0.961 . S
H2365 C2357 0.960 . S
H2366 C2358 0.930 . S
H2367 C2359 0.929 . S
C649 C23 2.062 . S
C668 C53 2.034 1_655 S
C685 C103 0.882 . S
C704 C57 0.827 . S
C721 C133 1.846 . S
C740 C104 1.854 . S
C757 C24 0.832 . S
C776 C137 0.781 . S
C793 C13 0.830 . S
C812 C386 0.835 . S
C829 C282 2.063 . S
C848 C64 2.063 . S
C865 C82 0.877 . S
C884 C426 0.826 . S
C901 C144 1.845 . S
C920 C533 1.843 . S
C937 C322 0.879 . S
C956 C66 0.839 . S
C973 C504 1.845 . S
C992 C93 1.843 . S
C1009 C573 0.826 . S
C1028 C146 0.794 . S
C1045 C2 2.063 . S
C1064 C464 2.063 . S
C1081 C26 0.567 . S
C1100 C337 0.689 . S
C1117 C503 1.544 . S
C1136 C183 1.536 . S
C1153 C226 0.644 . S
C1172 C577 0.588 . S
C1189 C463 1.544 . S
C1208 C263 1.550 . S
C1225 C106 0.639 . S
C1244 C297 0.551 . S
C1261 C362 1.543 . S
C1280 C162 1.533 . S
C1297 C242 1.545 . S
C1316 C402 1.547 . S
C1333 C202 0.877 . S
C1352 C466 0.824 . S
C1369 C384 1.848 . S
C1388 C213 1.852 . S
C1405 C453 2.072 . S
C1424 C303 2.060 . S
C1441 C223 0.877 . S
C1460 C177 0.888 . S
C1477 C373 1.848 . S
C1496 C344 1.843 . S
C1513 C543 0.878 . S
C1532 C457 0.875 . S
C1549 C253 1.848 . S
C1568 C224 1.851 . S
C1585 C377 0.827 . S
C1604 C584 0.838 . S
C1621 C546 0.642 . S
C1640 C17 0.577 . S
C1657 C97 0.653 . S
C1676 C586 0.561 . S
C1693 C482 1.543 . S
C1712 C42 1.534 . S
C1729 C306 0.561 . S
C1748 C217 0.703 . S
C1765 C143 1.545 . S
C1784 C423 1.548 . S
C1801 C493 1.848 . S
C1820 C544 1.851 . S
C1837 C304 0.831 . S
C1856 C497 0.846 . S
C1873 C266 0.824 . S
C1892 C293 0.830 . S
C1909 C186 0.867 . S
C1928 C522 0.865 . S
C1945 C506 0.822 . S
C1964 C613 0.823 . S
C1981 C617 0.561 . S
C2000 C346 0.638 . S
C2017 C63 1.546 . S
C2036 C383 1.544 . S
C2053 C333 1.852 . S
C2072 C264 1.837 . S
C2089 C343 0.878 . S
C2108 C417 0.869 . S
C2125 C624 0.834 . S
C2144 C257 0.791 . S
C2161 C537 0.646 . S
C2180 C626 0.610 . S
C2197 C442 1.546 . S
C2216 C122 1.550 . S
C2233 C413 2.069 . S
C2252 C583 2.050 . S
C2269 C424 2.068 . S
C2288 C602 2.058 . S
C2305 C184 2.068 . S
C2324 C562 2.047 . S
C2341 C623 2.059 . S
C2360 C173 2.073 . S
