# Generated by pormake.
# Topology crs, (6)-cn, num edge types: 1
# Building blocks:
#     Node 0, Type 0, BuildingBlock: UKALOJ_clean_sbu_0, # of connection points: 6
#     Node 1, Type 0, BuildingBlock: UKALOJ_clean_sbu_0, # of connection points: 6
#     Node 2, Type 0, BuildingBlock: UKALOJ_clean_sbu_0, # of connection points: 6
#     Node 3, Type 0, BuildingBlock: UKALOJ_clean_sbu_0, # of connection points: 6
#     Node 4, Type 0, BuildingBlock: UKALOJ_clean_sbu_0, # of connection points: 6
#     Node 5, Type 0, BuildingBlock: UKALOJ_clean_sbu_0, # of connection points: 6
#     Node 6, Type 0, BuildingBlock: UKALOJ_clean_sbu_0, # of connection points: 6
#     Node 7, Type 0, BuildingBlock: UKALOJ_clean_sbu_0, # of connection points: 6
#     Node 8, Type 0, BuildingBlock: UKALOJ_clean_sbu_0, # of connection points: 6
#     Node 9, Type 0, BuildingBlock: UKALOJ_clean_sbu_0, # of connection points: 6
#     Node 10, Type 0, BuildingBlock: UKALOJ_clean_sbu_0, # of connection points: 6
#     Node 11, Type 0, BuildingBlock: UKALOJ_clean_sbu_0, # of connection points: 6
#     Node 12, Type 0, BuildingBlock: UKALOJ_clean_sbu_0, # of connection points: 6
#     Node 13, Type 0, BuildingBlock: UKALOJ_clean_sbu_0, # of connection points: 6
#     Node 14, Type 0, BuildingBlock: UKALOJ_clean_sbu_0, # of connection points: 6
#     Node 15, Type 0, BuildingBlock: UKALOJ_clean_sbu_0, # of connection points: 6
#     Edge 16, Type (0, 0), None
#     Edge 17, Type (0, 0), None
#     Edge 18, Type (0, 0), None
#     Edge 19, Type (0, 0), None
#     Edge 20, Type (0, 0), None
#     Edge 21, Type (0, 0), None
#     Edge 22, Type (0, 0), None
#     Edge 23, Type (0, 0), None
#     Edge 24, Type (0, 0), None
#     Edge 25, Type (0, 0), None
#     Edge 26, Type (0, 0), None
#     Edge 27, Type (0, 0), None
#     Edge 28, Type (0, 0), None
#     Edge 29, Type (0, 0), None
#     Edge 30, Type (0, 0), None
#     Edge 31, Type (0, 0), None
#     Edge 32, Type (0, 0), None
#     Edge 33, Type (0, 0), None
#     Edge 34, Type (0, 0), None
#     Edge 35, Type (0, 0), None
#     Edge 36, Type (0, 0), None
#     Edge 37, Type (0, 0), None
#     Edge 38, Type (0, 0), None
#     Edge 39, Type (0, 0), None
#     Edge 40, Type (0, 0), None
#     Edge 41, Type (0, 0), None
#     Edge 42, Type (0, 0), None
#     Edge 43, Type (0, 0), None
#     Edge 44, Type (0, 0), None
#     Edge 45, Type (0, 0), None
#     Edge 46, Type (0, 0), None
#     Edge 47, Type (0, 0), None
#     Edge 48, Type (0, 0), None
#     Edge 49, Type (0, 0), None
#     Edge 50, Type (0, 0), None
#     Edge 51, Type (0, 0), None
#     Edge 52, Type (0, 0), None
#     Edge 53, Type (0, 0), None
#     Edge 54, Type (0, 0), None
#     Edge 55, Type (0, 0), None
#     Edge 56, Type (0, 0), None
#     Edge 57, Type (0, 0), None
#     Edge 58, Type (0, 0), None
#     Edge 59, Type (0, 0), None
#     Edge 60, Type (0, 0), None
#     Edge 61, Type (0, 0), None
#     Edge 62, Type (0, 0), None
#     Edge 63, Type (0, 0), None
# Relax obj value: 0.798
# Max RMSD: 0.443
# Mean RMSD: 0.289
data_MOF--net-crs--node1-UKALOJ_clean_sbu_0--edge1-none
_symmetry_space_group_name_H-M    P1
_symmetry_Int_Tables_number       1
_symmetry_cell_setting            triclinic
loop_
_symmetry_equiv_pos_as_xyz
'x, y, z'
_cell_length_a     23.853167
_cell_length_b     23.853179
_cell_length_c     18.952126
_cell_angle_alpha  82.323196
_cell_angle_beta   97.671334
_cell_angle_gamma 110.54395
loop_
_atom_site_label
_atom_site_type_symbol
_atom_site_fract_x
_atom_site_fract_y
_atom_site_fract_z
_atom_type_partial_charge
Zn0 Zn 0.01792 0.02999 0.0327 0.0
O1 O 0.08016 0.00334 0.11605 0.0
C2 C 0.12772 0.1277 0.9781 0.0
Zn3 Zn 0.05802 0.00391 0.94893 0.0
C4 C 0.12249 0.98698 0.10135 0.0
O5 O 0.12438 0.98024 0.03549 0.0
C6 C 0.95145 0.04964 0.88487 0.0
O7 O 0.9912 0.91818 0.96344 0.0
O8 O 0.95289 0.94393 0.0474 0.0
N9 N 0.081 0.96982 0.86731 0.0
C10 C 0.06754 0.91061 0.86045 0.0
C11 C 0.05524 0.9532 0.75629 0.0
N12 N 0.07413 -0.00393 0.80219 0.0
N13 N 0.04885 0.89872 0.79164 0.0
C14 C 0.01644 0.11042 0.14465 0.0
C15 C 0.92995 0.11915 0.11594 0.0
N16 N 0.98482 0.06646 0.10235 0.0
N17 N 0.93084 0.07146 0.08562 0.0
N18 N 0.98333 0.1443 0.15274 0.0
H19 H 0.10383 0.10035 0.14667 0.0
H20 H 0.09611 0.13854 0.21749 0.0
H21 H 0.10272 0.17596 0.12966 0.0
C22 C 0.08344 0.13162 0.16027 0.0
C23 C 0.06941 0.86436 0.92184 0.0
H24 H 0.08367 0.88477 0.97324 0.0
H25 H 0.10213 0.8431 0.91344 0.0
H26 H 0.02466 0.82867 0.92437 0.0
O27 O 0.9905 0.03024 0.86635 0.0
O28 O 0.95392 0.05584 0.95081 0.0
C29 C 0.95261 0.90454 0.00783 0.0
O30 O 0.08505 0.11446 0.0171 0.0
O31 O 0.12721 0.09088 0.93489 0.0
Zn32 Zn 0.07056 0.2742 0.2959 0.0
O33 O 0.04423 0.20369 0.23497 0.0
C34 C 0.14693 0.32794 0.16422 0.0
Zn35 Zn 0.02279 0.32196 0.21109 0.0
C36 C 0.00284 0.19619 0.18453 0.0
O37 O 0.9821 0.23831 0.163 0.0
C38 C 0.07656 0.39834 0.34274 0.0
O39 O 0.9523 0.29566 0.27205 0.0
O40 O 0.98692 0.23352 0.34402 0.0
N41 N 0.96581 0.35612 0.135 0.0
C42 C 0.94367 0.40125 0.13526 0.0
C43 C 0.88168 0.33903 0.06647 0.0
N44 N 0.92705 0.31807 0.09152 0.0
N45 N 0.89098 0.39121 0.09328 0.0
C46 C 0.14985 0.19508 0.37178 0.0
C47 C 0.08761 0.1331 0.44059 0.0
N48 N 0.10471 0.21722 0.37201 0.0
N49 N 0.06666 0.17846 0.41549 0.0
N50 N 0.1398 0.14239 0.41379 0.0
H51 H 0.18852 0.22549 0.27351 0.0
H52 H 0.2374 0.20275 0.34472 0.0
H53 H 0.22375 0.27303 0.34334 0.0
C54 C 0.20341 0.22543 0.33116 0.0
C55 C 0.97402 0.4548 0.1759 0.0
H56 H 0.97406 0.4399 0.23354 0.0
H57 H 0.95136 0.4888 0.16233 0.0
H58 H 0.02163 0.47513 0.16374 0.0
O59 O 0.05839 0.40344 0.27554 0.0
O60 O 0.09164 0.35177 0.36599 0.0
C61 C 0.94481 0.25428 0.32251 0.0
O62 O 0.15203 0.30978 0.23142 0.0
O63 O 0.10036 0.34303 0.14097 0.0
Zn64 Zn 0.75255 0.30941 0.55817 0.0
O65 O 0.66681 0.24259 0.54368 0.0
C66 C 0.79829 0.20283 0.62216 0.0
Zn67 Zn 0.77862 0.26936 0.47437 0.0
C68 C 0.65317 0.20402 0.49926 0.0
O69 O 0.69256 0.20433 0.45967 0.0
C70 C 0.87635 0.37913 0.52897 0.0
O71 O 0.75196 0.33163 0.39106 0.0
O72 O 0.72885 0.3758 0.47165 0.0
N73 N 0.81506 0.23627 0.40467 0.0
C74 C 0.85905 0.2679 0.36242 0.0
C75 C 0.86774 0.18139 0.39108 0.0
N76 N 0.82003 0.18227 0.42137 0.0
N77 N 0.89294 0.23479 0.35435 0.0
C78 C 0.65926 0.31887 0.64672 0.0
C79 C 0.70184 0.30649 0.75086 0.0
N80 N 0.71847 0.33236 0.63985 0.0
N81 N 0.74472 0.32543 0.70496 0.0
N82 N 0.64737 0.30012 0.71553 0.0
H83 H 0.63342 0.33505 0.53394 0.0
H84 H 0.59178 0.35352 0.59377 0.0
H85 H 0.5773 0.27604 0.5828 0.0
C86 C 0.61301 0.32078 0.58535 0.0
C87 C 0.88026 0.33491 0.3468 0.0
H88 H 0.84898 0.35529 0.36041 0.0
H89 H 0.88719 0.34758 0.28959 0.0
H90 H 0.9246 0.35418 0.37742 0.0
O91 O 0.86309 0.33647 0.48996 0.0
O92 O 0.83952 0.37862 0.57219 0.0
C93 C 0.73559 0.37393 0.40579 0.0
O94 O 0.7789 0.24188 0.64071 0.0
O95 O 0.80448 0.20532 0.55621 0.0
Zn96 Zn 0.76446 0.04985 0.79771 0.0
O97 O 0.78508 0.13935 0.73518 0.0
C98 C 0.66656 0.00976 0.67688 0.0
Zn99 Zn 0.79855 0.01583 0.70922 0.0
C100 C 0.80381 0.14917 0.67285 0.0
O101 O 0.81835 0.10793 0.65031 0.0
C102 C 0.75843 0.91787 0.82997 0.0
O103 O 0.88801 0.03645 0.77181 0.0
O104 O 0.85653 0.06966 0.85667 0.0
N105 N 0.82571 0.97698 0.62937 0.0
C106 C 0.86091 0.94192 0.63645 0.0
C107 C 0.81993 0.93886 0.52926 0.0
N108 N 0.80031 0.97449 0.56255 0.0
N109 N 0.85686 0.91665 0.57513 0.0
C110 C 0.69049 0.11211 0.87054 0.0
C111 C 0.68739 0.07103 0.9777 0.0
N112 N 0.72555 0.07691 0.87758 0.0
N113 N 0.72304 0.05146 0.94438 0.0
N114 N 0.6652 0.108 0.93187 0.0
H115 H 0.72836 0.18949 0.79914 0.0
H116 H 0.65086 0.1747 0.81053 0.0
H117 H 0.67151 0.12883 0.75709 0.0
C118 C 0.68436 0.15341 0.80556 0.0
C119 C 0.90216 0.93577 0.70148 0.0
H120 H 0.93824 0.97977 0.70793 0.0
H121 H 0.92346 0.90227 0.69653 0.0
H122 H 0.87754 0.9229 0.74992 0.0
O123 O 0.77602 0.9274 0.7677 0.0
O124 O 0.74627 0.95945 0.85439 0.0
C125 C 0.8978 0.05515 0.83415 0.0
O126 O 0.67606 0.02733 0.73916 0.0
O127 O 0.70816 -0.00237 0.65247 0.0
Zn128 Zn 0.62867 0.83383 0.2955 0.0
O129 O 0.58903 0.75633 0.23734 0.0
C130 C 0.7016 0.90543 0.18373 0.0
Zn131 Zn 0.5822 0.88015 0.2107 0.0
C132 C 0.55359 0.75904 0.18158 0.0
O133 O 0.54957 0.80889 0.15529 0.0
C134 C 0.6536 0.95321 0.32236 0.0
O135 O 0.50477 0.84032 0.26898 0.0
O136 O 0.55745 0.80097 0.35099 0.0
N137 N 0.53527 0.92018 0.135 0.0
C138 C 0.52209 0.97091 0.13101 0.0
C139 C 0.45891 0.91469 0.05792 0.0
N140 N 0.49725 0.88637 0.08729 0.0
N141 N 0.47264 0.96748 0.08554 0.0
C142 C 0.71958 0.77381 0.37497 0.0
C143 C 0.66377 0.71121 0.44891 0.0
N144 N 0.66896 0.78717 0.37127 0.0
N145 N 0.63543 0.74953 0.41948 0.0
N146 N 0.71631 0.7246 0.42081 0.0
H147 H 0.78617 0.85544 0.33791 0.0
H148 H 0.75762 0.80071 0.27422 0.0
H149 H 0.80958 0.79003 0.34875 0.0
C150 C 0.7714 0.80665 0.33152 0.0
C151 C 0.5553 0.02302 0.17389 0.0
H152 H 0.54932 0.00974 0.23126 0.0
H153 H 0.53899 0.06134 0.15614 0.0
H154 H 0.60407 0.03735 0.16752 0.0
O155 O 0.61699 0.95059 0.2668 0.0
O156 O 0.66528 0.90678 0.34976 0.0
C157 C 0.50755 0.80491 0.32476 0.0
O158 O 0.69904 0.86885 0.23932 0.0
O159 O 0.65511 0.91699 0.15631 0.0
Zn160 Zn 0.27827 0.78713 0.51516 0.0
O161 O 0.20599 0.70379 0.50773 0.0
C162 C 0.34843 0.72555 0.60067 0.0
Zn163 Zn 0.3195 0.75419 0.44347 0.0
C164 C 0.20324 0.66419 0.46776 0.0
O165 O 0.24423 0.67462 0.4267 0.0
C166 C 0.3975 0.86873 0.50528 0.0
O167 O 0.28898 0.80301 0.34923 0.0
O168 O 0.23926 0.82287 0.42479 0.0
N169 N 0.36711 0.72422 0.38849 0.0
C170 C 0.39995 0.76283 0.33915 0.0
C171 C 0.45866 0.72769 0.41149 0.0
N172 N 0.40309 0.70064 0.43161 0.0
N173 N 0.45809 0.76847 0.35527 0.0
C174 C 0.19209 0.79441 0.60966 0.0
C175 C 0.18131 0.87808 0.56488 0.0
N176 N 0.23493 0.82195 0.56601 0.0
N177 N 0.22964 0.87443 0.53959 0.0
N178 N 0.15791 0.82876 0.60904 0.0
H179 H 0.13239 0.70382 0.59958 0.0
H180 H 0.16042 0.71888 0.6896 0.0
H181 H 0.2085 0.70922 0.63143 0.0
C182 C 0.17282 0.72806 0.63398 0.0
C183 C 0.37267 0.77908 0.26696 0.0
H184 H 0.3705 0.82445 0.26517 0.0
H185 H 0.32609 0.74745 0.257 0.0
H186 H 0.39956 0.77808 0.22397 0.0
O187 O 0.39837 0.8313 0.46407 0.0
O188 O 0.34833 0.86511 0.52627 0.0
C189 C 0.25273 0.82812 0.36182 0.0
O190 O 0.31634 0.75624 0.60794 0.0
O191 O 0.35074 0.71174 0.539 0.0
Zn192 Zn 0.32325 0.61728 0.78612 0.0
O193 O 0.35038 0.69618 0.72231 0.0
C194 C 0.24102 0.55127 0.67735 0.0
Zn195 Zn 0.36591 0.5746 0.7206 0.0
C196 C 0.36983 0.69482 0.66354 0.0
O197 O 0.38817 0.65273 0.65398 0.0
C198 C 0.29975 0.49233 0.82927 0.0
O199 O 0.44476 0.60158 0.78451 0.0
O200 O 0.40132 0.63938 0.85281 0.0
N201 N 0.39444 0.53252 0.65114 0.0
C202 C 0.4356 0.50503 0.66055 0.0
C203 C 0.37674 0.47187 0.56887 0.0
N204 N 0.35877 0.51277 0.59309 0.0
N205 N 0.42512 0.46646 0.61027 0.0
C206 C 0.25376 0.68698 0.84633 0.0
C207 C 0.22067 0.62809 0.93803 0.0
N208 N 0.28121 0.6458 0.85563 0.0
N209 N 0.26151 0.61011 0.91369 0.0
N210 N 0.21526 0.6765 0.8967 0.0
H211 H 0.31125 0.76798 0.79581 0.0
H212 H 0.23323 0.76194 0.7838 0.0
H213 H 0.26052 0.71708 0.73672 0.0
C214 C 0.26447 0.73649 0.78732 0.0
C215 C 0.48501 0.5157 0.71967 0.0
H216 H 0.51645 0.56251 0.71133 0.0
H217 H 0.51052 0.48451 0.72319 0.0
H218 H 0.46547 0.5116 0.77021 0.0
O219 O 0.33593 0.49335 0.78524 0.0
O220 O 0.29443 0.54011 0.84244 0.0
C221 C 0.44338 0.62098 0.8433 0.0
O222 O 0.24205 0.58743 0.7214 0.0
O223 O 0.28879 0.54594 0.66416 0.0
Zn224 Zn 0.02764 0.53999 0.44202 0.0
O225 O 0.05002 0.48346 0.37012 0.0
C226 C 0.93377 0.42845 0.52127 0.0
Zn227 Zn 0.05692 0.49534 0.53641 0.0
C228 C 0.07058 0.4414 0.39427 0.0
O229 O 0.07844 0.43353 0.46284 0.0
C230 C 0.01135 0.59741 0.57271 0.0
O231 O 0.14219 0.56886 0.51801 0.0
O232 O 0.10701 0.60854 0.41981 0.0
N233 N 0.09577 0.46115 0.62106 0.0
C234 C 0.13285 0.5052 0.65891 0.0
C235 C 0.18604 0.46575 0.61471 0.0
N236 N 0.12838 0.43416 0.59722 0.0
N237 N 0.1896 0.5119 0.65101 0.0
C238 C 0.94776 0.54827 0.31494 0.0
C239 C 0.95508 0.64069 0.30901 0.0
N240 N 0.99328 0.57572 0.36048 0.0
N241 N 0.99982 0.63347 0.35565 0.0
N242 N 0.92236 0.58795 0.28304 0.0
H243 H 0.94651 0.45676 0.34361 0.0
H244 H 0.89852 0.46625 0.26582 0.0
H245 H 0.87728 0.46886 0.35111 0.0
C246 C 0.9165 0.48125 0.31939 0.0
C247 C 0.11368 0.52987 0.71618 0.0
H248 H 0.06467 0.50843 0.72087 0.0
H249 H 0.12573 0.57932 0.70438 0.0
H250 H 0.13818 0.52074 0.76797 0.0
O251 O 0.03303 0.55701 0.60288 0.0
O252 O 0.0042 0.60108 0.50487 0.0
C253 C 0.15021 0.60964 0.46607 0.0
O254 O 0.94088 0.46813 0.46769 0.0
O255 O 0.97917 0.42649 0.56194 0.0
Zn256 Zn 0.24396 0.30827 0.97059 0.0
O257 O 0.31747 0.39353 0.98893 0.0
C258 C 0.34601 0.26261 0.93437 0.0
Zn259 Zn 0.28857 0.27898 0.06499 0.0
C260 C 0.35825 0.40155 0.04088 0.0
O261 O 0.35713 0.35835 0.08715 0.0
C262 C 0.17704 0.18512 0.98579 0.0
O263 O 0.23204 0.3014 0.13684 0.0
O264 O 0.18213 0.32983 0.04412 0.0
N265 N 0.32427 0.24465 0.14658 0.0
C266 C 0.29681 0.19917 0.19216 0.0
C267 C 0.38924 0.20654 0.19823 0.0
N268 N 0.38203 0.25124 0.1515 0.0
N269 N 0.33648 0.17381 0.22417 0.0
C270 C 0.25379 0.38416 0.84796 0.0
C271 C 0.21427 0.43737 0.892 0.0
N272 N 0.2098 0.3471 0.88591 0.0
N273 N 0.18277 0.37972 0.90968 0.0
N274 N 0.26041 0.44092 0.85568 0.0
H275 H 0.2571 0.31591 0.7862 0.0
H276 H 0.32798 0.377 0.80265 0.0
H277 H 0.26942 0.38936 0.73896 0.0
C278 C 0.27853 0.36492 0.79081 0.0
C279 C 0.22979 0.16788 0.18767 0.0
H280 H 0.20529 0.19789 0.16343 0.0
H281 H 0.21475 0.14989 0.24122 0.0
H282 H 0.21743 0.12866 0.15596 0.0
O283 O 0.21671 0.19222 0.03937 0.0
O284 O 0.17509 0.23051 0.9451 0.0
C285 C 0.18999 0.32197 0.11269 0.0
O286 O 0.30563 0.28431 0.90418 0.0
O287 O 0.34966 0.25548 0.00221 0.0
Zn288 Zn 0.24732 0.00528 0.31063 0.0
O289 O 0.27904 0.09196 0.28318 0.0
C290 C 0.17263 0.98407 0.15944 0.0
Zn291 Zn 0.29929 -0.00668 0.22679 0.0
C292 C 0.31905 0.11499 0.24085 0.0
O293 O 0.33046 0.08261 0.20127 0.0
C294 C 0.24302 0.87904 0.31521 0.0
O295 O 0.37592 0.01209 0.30533 0.0
O296 O 0.32628 0.02189 0.389 0.0
N297 N 0.35008 0.98862 0.15189 0.0
C298 C 0.40031 0.97448 0.16147 0.0
C299 C 0.38991 0.00702 0.05162 0.0
N300 N 0.34363 0.00927 0.08382 0.0
N301 N 0.42708 0.98748 0.10017 0.0
C302 C 0.16071 0.058 0.37046 0.0
C303 C 0.21692 0.09695 0.46108 0.0
N304 N 0.20399 0.0322 0.38405 0.0
N305 N 0.23821 0.05644 0.44102 0.0
N306 N 0.16874 0.09929 0.41686 0.0
H307 H 0.12925 0.06176 0.26111 0.0
H308 H 0.07509 0.06062 0.31968 0.0
H309 H 0.09125 -0.00703 0.31159 0.0
C310 C 0.11072 0.04252 0.31252 0.0
C311 C 0.42069 0.94472 0.22969 0.0
H312 H 0.45495 0.97907 0.26108 0.0
H313 H 0.44051 0.91155 0.219 0.0
H314 H 0.38284 0.92183 0.26267 0.0
O315 O 0.27301 0.89983 0.26101 0.0
O316 O 0.22098 0.91224 0.34261 0.0
C317 C 0.3761 0.02592 0.36775 0.0
O318 O 0.17003 -0.00757 0.22427 0.0
O319 O 0.22154 0.98026 0.14401 0.0
Zn320 Zn 0.51422 0.2361 0.86458 0.0
O321 O 0.46911 0.163 0.80225 0.0
C322 C 0.59412 0.27857 0.7457 0.0
Zn323 Zn 0.47077 0.2756 0.767 0.0
C324 C 0.4339 0.15695 0.74485 0.0
O325 O 0.41688 0.20039 0.71618 0.0
C326 C 0.55722 0.35448 0.87559 0.0
O327 O 0.39702 0.27452 0.82714 0.0
O328 O 0.43048 0.22649 0.92175 0.0
N329 N 0.45907 0.33802 0.68494 0.0
C330 C 0.41798 0.36426 0.65916 0.0
C331 C 0.50051 0.41966 0.61785 0.0
N332 N 0.50984 0.37243 0.65788 0.0
N333 N 0.44308 0.41573 0.61767 0.0
C334 C 0.57269 0.13631 0.92054 0.0
C335 C 0.64902 0.19029 0.98266 0.0
N336 N 0.55826 0.18359 0.93618 0.0
N337 N 0.60615 0.21621 0.97538 0.0
N338 N 0.6293 0.14038 0.94802 0.0
H339 H 0.482 0.08103 0.88566 0.0
H340 H 0.52945 0.0413 0.9322 0.0
H341 H 0.54204 0.07146 0.84285 0.0
C342 C 0.52843 0.07994 0.89288 0.0
C343 C 0.35285 0.33819 0.67065 0.0
H344 H 0.3293 0.3085 0.62775 0.0
H345 H 0.33296 0.37407 0.66662 0.0
H346 H 0.34562 0.31041 0.7222 0.0
O347 O 0.52459 0.34739 0.81715 0.0
O348 O 0.56108 0.30967 0.91724 0.0
C349 C 0.39211 0.25221 0.8923 0.0
O350 O 0.59271 0.25825 0.8108 0.0
O351 O 0.5457 0.28073 0.71087 0.0
Zn352 Zn 0.02437 0.72215 0.74016 0.0
O353 O 0.02331 0.64842 0.67996 0.0
C354 C 0.10334 0.80864 0.63167 0.0
Zn355 Zn 0.98492 0.76562 0.64255 0.0
C356 C 1.00099 0.64353 0.6148 0.0
O357 O 0.97528 0.6819 0.58536 0.0
C358 C 0.02734 0.84548 0.76147 0.0
O359 O 0.91178 0.72051 0.70485 0.0
O360 O 0.94913 0.66823 0.7909 0.0
N361 N 0.93247 0.80971 0.57093 0.0
C362 C 0.88517 0.82414 0.58651 0.0
C363 C 0.93921 0.90048 0.52444 0.0
N364 N 0.96514 0.85762 0.53176 0.0
N365 N 0.88927 0.88076 0.55902 0.0
C366 C 0.11304 0.66934 0.84792 0.0
C367 C 0.16841 0.75185 0.88928 0.0
N368 N 0.08676 0.7104 0.82224 0.0
N369 N 0.12114 0.76116 0.84932 0.0
N370 N 0.16451 0.69443 0.88938 0.0
H371 H 0.05746 0.58058 0.87939 0.0
H372 H 0.12293 0.58442 0.84017 0.0
H373 H 0.0591 0.59698 0.7849 0.0
C374 C 0.087 0.60422 0.83637 0.0
C375 C 0.8288 0.77989 0.61417 0.0
H376 H 0.82988 0.73345 0.62138 0.0
H377 H 0.79017 0.78093 0.57485 0.0
H378 H 0.82031 0.7935 0.6642 0.0
O379 O 0.00708 0.84408 0.69635 0.0
O380 O 0.02946 0.79705 0.79632 0.0
C381 C 0.90571 0.68529 0.76224 0.0
O382 O 0.09621 0.776 0.6901 0.0
O383 O 0.05856 0.81247 0.58995 0.0
Zn384 Zn 0.74184 0.55071 0.28029 0.0
O385 O 0.76059 0.62731 0.20172 0.0
C386 C 0.62761 0.49442 0.1918 0.0
Zn387 Zn 0.75387 0.49877 0.19649 0.0
C388 C 0.77446 0.62752 0.13932 0.0
O389 O 0.7705 0.57771 0.11809 0.0
C390 C 0.73265 0.42407 0.3477 0.0
O391 O 0.84053 0.5305 0.22399 0.0
O392 O 0.83113 0.58193 0.30586 0.0
N393 N 0.78083 0.45544 0.12309 0.0
C394 C 0.80661 0.41215 0.13667 0.0
C395 C 0.84554 0.46835 0.04602 0.0
N396 N 0.80506 0.48965 0.0661 0.0
N397 N 0.84788 0.42015 0.09024 0.0
C398 C 0.7229 0.65178 0.3453 0.0
C399 C 0.75576 0.64182 0.45509 0.0
N400 N 0.73708 0.60156 0.35508 0.0
N401 N 0.75793 0.59539 0.42311 0.0
N402 N 0.73607 0.6788 0.40642 0.0
H403 H 0.72717 0.70612 0.24548 0.0
H404 H 0.65977 0.69171 0.28778 0.0
H405 H 0.67005 0.63395 0.24427 0.0
C406 C 0.69294 0.67191 0.27707 0.0
C407 C 0.79115 0.36217 0.19463 0.0
H408 H 0.81037 0.38072 0.24603 0.0
H409 H 0.80926 0.32655 0.18749 0.0
H410 H 0.74159 0.34268 0.19556 0.0
O411 O 0.74101 0.42148 0.28286 0.0
O412 O 0.72881 0.47298 0.36313 0.0
C413 C 0.86354 0.57051 0.26633 0.0
O414 O 0.64835 0.52435 0.24604 0.0
O415 O 0.66084 0.4724 0.16444 0.0
Zn416 Zn 0.77373 0.79645 0.02655 0.0
O417 O 0.68267 0.74717 0.01823 0.0
C418 C 0.78953 0.68444 0.0912 0.0
Zn419 Zn 0.7929 0.75489 0.94376 0.0
C420 C 0.66803 0.70194 0.9829 0.0
O421 O 0.70345 0.69783 0.94075 0.0
C422 C 0.90068 0.84911 0.00413 0.0
O423 O 0.7715 0.81972 0.85703 0.0
O424 O 0.76485 0.86574 0.9452 0.0
N425 N 0.81125 0.70659 0.87423 0.0
C426 C 0.84721 0.72592 0.82078 0.0
C427 C 0.83227 0.63199 0.84568 0.0
N428 N 0.80142 0.6482 0.88917 0.0
N429 N 0.86015 0.67961 0.80113 0.0
C430 C 0.73062 0.87835 0.08841 0.0
C431 C 0.7977 0.90803 0.17406 0.0
N432 N 0.76825 0.84773 0.09266 0.0
N433 N 0.81175 0.86806 0.14352 0.0
N434 N 0.7453 0.91332 0.14273 0.0
H435 H 0.67335 0.84679 0.99047 0.0
H436 H 0.66066 0.90662 0.02623 0.0
H437 H 0.63584 0.83117 0.06918 0.0
C438 C 0.67237 0.86513 0.04034 0.0
C439 C 0.88413 0.79102 0.80554 0.0
H440 H 0.8607 0.82116 0.81528 0.0
H441 H 0.8965 0.80178 0.75025 0.0
H442 H 0.92648 0.80094 0.84121 0.0
O443 O 0.88716 0.81575 0.95305 0.0
O444 O 0.86151 0.8433 0.04435 0.0
C445 C 0.76277 0.86418 0.87856 0.0
O446 O 0.7791 0.72905 0.10885 0.0
O447 O 0.80627 0.68756 0.02919 0.0
Zn448 Zn 0.50352 0.04428 0.56321 0.0
O449 O 0.56843 0.02286 0.64983 0.0
C450 C 0.59774 0.15209 0.50295 0.0
Zn451 Zn 0.54508 0.02514 0.48041 0.0
C452 C 0.61287 0.0141 0.62829 0.0
O453 O 0.61442 0.01615 0.56164 0.0
C454 C 0.43302 0.04099 0.41587 0.0
O455 O 0.49581 0.93409 0.48859 0.0
O456 O 0.44649 0.95481 0.56616 0.0
N457 N 0.5962 0.0198 0.41405 0.0
C458 C 0.62681 0.9822 0.41797 0.0
C459 C 0.65599 0.04924 0.33209 0.0
N460 N 0.6162 0.06327 0.36304 0.0
N461 N 0.66148 -0.00309 0.36335 0.0
C462 C 0.47454 0.09846 0.6863 0.0
C463 C 0.38061 0.08352 0.66142 0.0
N464 N 0.45522 0.06252 0.63284 0.0
N465 N 0.39683 0.05269 0.61791 0.0
N466 N 0.42823 0.1114 0.70596 0.0
H467 H 0.56978 0.11197 0.69176 0.0
H468 H 0.55039 0.14771 0.75685 0.0
H469 H 0.54956 0.17776 0.66591 0.0
C470 C 0.53965 0.13539 0.70155 0.0
C471 C 0.61381 0.92395 0.46602 0.0
H472 H 0.59549 0.92483 0.51595 0.0
H473 H 0.65539 0.91239 0.48001 0.0
H474 H 0.57989 0.88736 0.43722 0.0
O475 O 0.47764 0.0306 0.3982 0.0
O476 O 0.43612 0.05768 0.4779 0.0
C477 C 0.4506 0.91942 0.52397 0.0
O478 O 0.56433 0.13856 0.55398 0.0
O479 O 0.59198 0.11292 0.46275 0.0
Zn480 Zn 0.50277 0.57083 0.06342 0.0
O481 O 0.55156 0.54036 0.15775 0.0
C482 C 0.61734 0.64883 0.00157 0.0
Zn483 Zn 0.53577 0.52961 -0.00824 0.0
C484 C 0.57669 0.50413 0.14516 0.0
O485 O 0.5715 0.49066 0.08219 0.0
C486 C 0.47417 0.59966 0.90617 0.0
O487 O 0.45242 0.45732 -0.00075 0.0
O488 O 0.42322 0.49558 0.08023 0.0
N489 N 0.5706 0.48621 0.94099 0.0
C490 C 0.54301 0.44329 0.89748 0.0
C491 C 0.62666 0.43248 0.94236 0.0
N492 N 0.62307 0.48091 0.96747 0.0
N493 N 0.57728 0.409 0.89833 0.0
C494 C 0.51144 0.65137 0.16751 0.0
C495 C 0.47634 0.71001 0.09498 0.0
N496 N 0.47275 0.61846 0.1183 0.0
N497 N 0.4492 0.6544 0.07507 0.0
N498 N 0.51716 0.70952 0.15117 0.0
H499 H 0.5727 0.62169 0.24186 0.0
H500 H 0.49559 0.57775 0.24998 0.0
H501 H 0.52659 0.65133 0.28268 0.0
C502 C 0.52744 0.6242 0.23988 0.0
C503 C 0.47668 0.42407 0.87308 0.0
H504 H 0.45238 0.38365 0.90745 0.0
H505 H 0.46755 0.41169 0.81747 0.0
H506 H 0.45787 0.45978 0.87559 0.0
O507 O 0.50489 0.56761 0.89891 0.0
O508 O 0.46035 0.602 0.96783 0.0
C509 C 0.41281 0.45458 0.03919 0.0
O510 O 0.57989 0.6497 0.04278 0.0
O511 O 0.61374 0.59967 0.98061 0.0
loop_
_geom_bond_atom_site_label_1
_geom_bond_atom_site_label_2
_geom_bond_distance
_geom_bond_site_symmetry_2
_ccdc_geom_bond_type
Zn0 O1 2.055 . S
Zn0 O8 2.046 1_445 S
Zn0 N16 2.036 1_455 S
Zn0 O28 2.053 1_454 S
Zn0 O30 2.066 . S
O1 Zn0 2.055 . S
O1 C4 1.259 . S
C2 O30 1.256 1_556 S
C2 O31 1.244 . S
Zn3 O5 2.046 1_556 S
Zn3 O7 2.055 1_456 S
Zn3 N9 2.036 . S
Zn3 O27 2.066 1_465 S
Zn3 O31 2.053 1_565 S
C4 O1 1.259 . S
C4 O5 1.254 1_545 S
O5 Zn3 2.046 1_554 S
O5 C4 1.254 1_565 S
C6 O27 1.256 . S
C6 O28 1.244 . S
O7 Zn3 2.055 1_654 S
O7 C29 1.259 . S
O8 Zn0 2.046 1_665 S
O8 C29 1.254 . S
N9 Zn3 2.036 . S
N9 C10 1.298 . S
N9 N12 1.398 . S
C10 N9 1.298 . S
C10 N13 1.367 . S
C10 C23 1.481 1_455 S
C11 N12 1.299 . S
C11 N13 1.379 . S
N12 N9 1.398 . S
N12 C11 1.299 . S
N13 C10 1.367 . S
N13 C11 1.379 . S
C14 N16 1.298 1_455 S
C14 N18 1.367 . S
C14 C22 1.481 . S
C15 N17 1.299 . S
C15 N18 1.379 1_655 S
N16 Zn0 2.036 1_655 S
N16 C14 1.298 1_655 S
N16 N17 1.398 . S
N17 C15 1.299 . S
N17 N16 1.398 . S
N18 C14 1.367 . S
N18 C15 1.379 1_455 S
H19 C22 0.980 . S
H20 C22 0.981 . S
H21 C22 0.981 . S
C22 C14 1.481 . S
C22 H19 0.980 . S
C22 H20 0.981 . S
C22 H21 0.981 . S
C23 C10 1.481 1_655 S
C23 H24 0.980 . S
C23 H25 0.981 . S
C23 H26 0.981 . S
H24 C23 0.980 . S
H25 C23 0.981 . S
H26 C23 0.981 . S
O27 Zn3 2.066 1_645 S
O27 C6 1.256 . S
O28 Zn0 2.053 1_656 S
O28 C6 1.244 . S
C29 O7 1.259 . S
C29 O8 1.254 . S
O30 Zn0 2.066 . S
O30 C2 1.256 1_554 S
O31 C2 1.244 . S
O31 Zn3 2.053 1_545 S
Zn32 O33 2.055 . S
Zn32 O40 2.046 . S
Zn32 N48 2.036 . S
Zn32 O60 2.053 . S
Zn32 O62 2.066 . S
O33 Zn32 2.055 . S
O33 C36 1.259 . S
C34 O62 1.256 . S
C34 O63 1.244 . S
Zn35 O37 2.046 . S
Zn35 O39 2.055 1_455 S
Zn35 N41 2.036 . S
Zn35 O59 2.066 . S
Zn35 O63 2.053 . S
C36 O33 1.259 . S
C36 O37 1.254 . S
O37 Zn35 2.046 . S
O37 C36 1.254 . S
C38 O59 1.256 . S
C38 O60 1.244 . S
O39 Zn35 2.055 1_655 S
O39 C61 1.259 . S
O40 Zn32 2.046 . S
O40 C61 1.254 1_455 S
N41 Zn35 2.036 . S
N41 C42 1.298 1_455 S
N41 N44 1.398 . S
C42 N41 1.298 1_655 S
C42 N45 1.367 . S
C42 C55 1.481 . S
C43 N44 1.299 . S
C43 N45 1.379 1_455 S
N44 N41 1.398 . S
N44 C43 1.299 . S
N45 C42 1.367 . S
N45 C43 1.379 1_655 S
C46 N48 1.298 . S
C46 N50 1.367 . S
C46 C54 1.481 . S
C47 N49 1.299 . S
C47 N50 1.379 . S
N48 Zn32 2.036 . S
N48 C46 1.298 . S
N48 N49 1.398 . S
N49 C47 1.299 . S
N49 N48 1.398 . S
N50 C46 1.367 . S
N50 C47 1.379 . S
H51 C54 0.980 . S
H52 C54 0.981 . S
H53 C54 0.981 . S
C54 C46 1.481 . S
C54 H51 0.980 . S
C54 H52 0.981 . S
C54 H53 0.981 . S
C55 C42 1.481 . S
C55 H56 0.980 . S
C55 H57 0.981 . S
C55 H58 0.981 . S
H56 C55 0.980 . S
H57 C55 0.981 . S
H58 C55 0.981 . S
O59 Zn35 2.066 . S
O59 C38 1.256 . S
O60 Zn32 2.053 . S
O60 C38 1.244 . S
C61 O39 1.259 . S
C61 O40 1.254 1_655 S
O62 Zn32 2.066 . S
O62 C34 1.256 . S
O63 C34 1.244 . S
O63 Zn35 2.053 . S
Zn64 O65 2.055 . S
Zn64 O72 2.046 . S
Zn64 N80 2.036 . S
Zn64 O92 2.053 . S
Zn64 O94 2.066 . S
O65 Zn64 2.055 . S
O65 C68 1.259 . S
C66 O94 1.256 . S
C66 O95 1.244 . S
Zn67 O69 2.046 . S
Zn67 O71 2.055 . S
Zn67 N73 2.036 . S
Zn67 O91 2.066 . S
Zn67 O95 2.053 . S
C68 O65 1.259 . S
C68 O69 1.254 . S
O69 Zn67 2.046 . S
O69 C68 1.254 . S
C70 O91 1.256 . S
C70 O92 1.244 . S
O71 Zn67 2.055 . S
O71 C93 1.259 . S
O72 Zn64 2.046 . S
O72 C93 1.254 . S
N73 Zn67 2.036 . S
N73 C74 1.298 . S
N73 N76 1.398 . S
C74 N73 1.298 . S
C74 N77 1.367 . S
C74 C87 1.481 . S
C75 N76 1.299 . S
C75 N77 1.379 . S
N76 N73 1.398 . S
N76 C75 1.299 . S
N77 C74 1.367 . S
N77 C75 1.379 . S
C78 N80 1.298 . S
C78 N82 1.367 . S
C78 C86 1.481 . S
C79 N81 1.299 . S
C79 N82 1.379 . S
N80 Zn64 2.036 . S
N80 C78 1.298 . S
N80 N81 1.398 . S
N81 C79 1.299 . S
N81 N80 1.398 . S
N82 C78 1.367 . S
N82 C79 1.379 . S
H83 C86 0.980 . S
H84 C86 0.981 . S
H85 C86 0.981 . S
C86 C78 1.481 . S
C86 H83 0.980 . S
C86 H84 0.981 . S
C86 H85 0.981 . S
C87 C74 1.481 . S
C87 H88 0.980 . S
C87 H89 0.981 . S
C87 H90 0.981 . S
H88 C87 0.980 . S
H89 C87 0.981 . S
H90 C87 0.981 . S
O91 Zn67 2.066 . S
O91 C70 1.256 . S
O92 Zn64 2.053 . S
O92 C70 1.244 . S
C93 O71 1.259 . S
C93 O72 1.254 . S
O94 Zn64 2.066 . S
O94 C66 1.256 . S
O95 C66 1.244 . S
O95 Zn67 2.053 . S
Zn96 O97 2.055 . S
Zn96 O104 2.046 . S
Zn96 N112 2.036 . S
Zn96 O124 2.053 1_545 S
Zn96 O126 2.066 . S
O97 Zn96 2.055 . S
O97 C100 1.259 . S
C98 O126 1.256 . S
C98 O127 1.244 . S
Zn99 O101 2.046 . S
Zn99 O103 2.055 . S
Zn99 N105 2.036 1_545 S
Zn99 O123 2.066 1_545 S
Zn99 O127 2.053 . S
C100 O97 1.259 . S
C100 O101 1.254 . S
O101 Zn99 2.046 . S
O101 C100 1.254 . S
C102 O123 1.256 . S
C102 O124 1.244 . S
O103 Zn99 2.055 . S
O103 C125 1.259 . S
O104 Zn96 2.046 . S
O104 C125 1.254 . S
N105 Zn99 2.036 1_565 S
N105 C106 1.298 . S
N105 N108 1.398 . S
C106 N105 1.298 . S
C106 N109 1.367 . S
C106 C119 1.481 . S
C107 N108 1.299 . S
C107 N109 1.379 . S
N108 N105 1.398 . S
N108 C107 1.299 . S
N109 C106 1.367 . S
N109 C107 1.379 . S
C110 N112 1.298 . S
C110 N114 1.367 . S
C110 C118 1.481 . S
C111 N113 1.299 . S
C111 N114 1.379 . S
N112 Zn96 2.036 . S
N112 C110 1.298 . S
N112 N113 1.398 . S
N113 C111 1.299 . S
N113 N112 1.398 . S
N114 C110 1.367 . S
N114 C111 1.379 . S
H115 C118 0.980 . S
H116 C118 0.981 . S
H117 C118 0.981 . S
C118 C110 1.481 . S
C118 H115 0.980 . S
C118 H116 0.981 . S
C118 H117 0.981 . S
C119 C106 1.481 . S
C119 H120 0.980 . S
C119 H121 0.981 . S
C119 H122 0.981 . S
H120 C119 0.980 . S
H121 C119 0.981 . S
H122 C119 0.981 . S
O123 Zn99 2.066 1_565 S
O123 C102 1.256 . S
O124 Zn96 2.053 1_565 S
O124 C102 1.244 . S
C125 O103 1.259 . S
C125 O104 1.254 . S
O126 Zn96 2.066 . S
O126 C98 1.256 . S
O127 C98 1.244 . S
O127 Zn99 2.053 . S
Zn128 O129 2.055 . S
Zn128 O136 2.046 . S
Zn128 N144 2.036 . S
Zn128 O156 2.053 . S
Zn128 O158 2.066 . S
O129 Zn128 2.055 . S
O129 C132 1.259 . S
C130 O158 1.256 . S
C130 O159 1.244 . S
Zn131 O133 2.046 . S
Zn131 O135 2.055 . S
Zn131 N137 2.036 . S
Zn131 O155 2.066 . S
Zn131 O159 2.053 . S
C132 O129 1.259 . S
C132 O133 1.254 . S
O133 Zn131 2.046 . S
O133 C132 1.254 . S
C134 O155 1.256 . S
C134 O156 1.244 . S
O135 Zn131 2.055 . S
O135 C157 1.259 . S
O136 Zn128 2.046 . S
O136 C157 1.254 . S
N137 Zn131 2.036 . S
N137 C138 1.298 . S
N137 N140 1.398 . S
C138 N137 1.298 . S
C138 N141 1.367 . S
C138 C151 1.481 . S
C139 N140 1.299 . S
C139 N141 1.379 . S
N140 N137 1.398 . S
N140 C139 1.299 . S
N141 C138 1.367 . S
N141 C139 1.379 . S
C142 N144 1.298 . S
C142 N146 1.367 . S
C142 C150 1.481 . S
C143 N145 1.299 . S
C143 N146 1.379 . S
N144 Zn128 2.036 . S
N144 C142 1.298 . S
N144 N145 1.398 . S
N145 C143 1.299 . S
N145 N144 1.398 . S
N146 C142 1.367 . S
N146 C143 1.379 . S
H147 C150 0.980 . S
H148 C150 0.981 . S
H149 C150 0.981 . S
C150 C142 1.481 . S
C150 H147 0.980 . S
C150 H148 0.981 . S
C150 H149 0.981 . S
C151 C138 1.481 . S
C151 H152 0.980 . S
C151 H153 0.981 . S
C151 H154 0.981 . S
H152 C151 0.980 . S
H153 C151 0.981 . S
H154 C151 0.981 . S
O155 Zn131 2.066 . S
O155 C134 1.256 . S
O156 Zn128 2.053 . S
O156 C134 1.244 . S
C157 O135 1.259 . S
C157 O136 1.254 . S
O158 Zn128 2.066 . S
O158 C130 1.256 . S
O159 C130 1.244 . S
O159 Zn131 2.053 . S
Zn160 O161 2.055 . S
Zn160 O168 2.046 . S
Zn160 N176 2.036 . S
Zn160 O188 2.053 . S
Zn160 O190 2.066 . S
O161 Zn160 2.055 . S
O161 C164 1.259 . S
C162 O190 1.256 . S
C162 O191 1.244 . S
Zn163 O165 2.046 . S
Zn163 O167 2.055 . S
Zn163 N169 2.036 . S
Zn163 O187 2.066 . S
Zn163 O191 2.053 . S
C164 O161 1.259 . S
C164 O165 1.254 . S
O165 Zn163 2.046 . S
O165 C164 1.254 . S
C166 O187 1.256 . S
C166 O188 1.244 . S
O167 Zn163 2.055 . S
O167 C189 1.259 . S
O168 Zn160 2.046 . S
O168 C189 1.254 . S
N169 Zn163 2.036 . S
N169 C170 1.298 . S
N169 N172 1.398 . S
C170 N169 1.298 . S
C170 N173 1.367 . S
C170 C183 1.481 . S
C171 N172 1.299 . S
C171 N173 1.379 . S
N172 N169 1.398 . S
N172 C171 1.299 . S
N173 C170 1.367 . S
N173 C171 1.379 . S
C174 N176 1.298 . S
C174 N178 1.367 . S
C174 C182 1.481 . S
C175 N177 1.299 . S
C175 N178 1.379 . S
N176 Zn160 2.036 . S
N176 C174 1.298 . S
N176 N177 1.398 . S
N177 C175 1.299 . S
N177 N176 1.398 . S
N178 C174 1.367 . S
N178 C175 1.379 . S
H179 C182 0.980 . S
H180 C182 0.981 . S
H181 C182 0.981 . S
C182 C174 1.481 . S
C182 H179 0.980 . S
C182 H180 0.981 . S
C182 H181 0.981 . S
C183 C170 1.481 . S
C183 H184 0.980 . S
C183 H185 0.981 . S
C183 H186 0.981 . S
H184 C183 0.980 . S
H185 C183 0.981 . S
H186 C183 0.981 . S
O187 Zn163 2.066 . S
O187 C166 1.256 . S
O188 Zn160 2.053 . S
O188 C166 1.244 . S
C189 O167 1.259 . S
C189 O168 1.254 . S
O190 Zn160 2.066 . S
O190 C162 1.256 . S
O191 C162 1.244 . S
O191 Zn163 2.053 . S
Zn192 O193 2.055 . S
Zn192 O200 2.046 . S
Zn192 N208 2.036 . S
Zn192 O220 2.053 . S
Zn192 O222 2.066 . S
O193 Zn192 2.055 . S
O193 C196 1.259 . S
C194 O222 1.256 . S
C194 O223 1.244 . S
Zn195 O197 2.046 . S
Zn195 O199 2.055 . S
Zn195 N201 2.036 . S
Zn195 O219 2.066 . S
Zn195 O223 2.053 . S
C196 O193 1.259 . S
C196 O197 1.254 . S
O197 Zn195 2.046 . S
O197 C196 1.254 . S
C198 O219 1.256 . S
C198 O220 1.244 . S
O199 Zn195 2.055 . S
O199 C221 1.259 . S
O200 Zn192 2.046 . S
O200 C221 1.254 . S
N201 Zn195 2.036 . S
N201 C202 1.298 . S
N201 N204 1.398 . S
C202 N201 1.298 . S
C202 N205 1.367 . S
C202 C215 1.481 . S
C203 N204 1.299 . S
C203 N205 1.379 . S
N204 N201 1.398 . S
N204 C203 1.299 . S
N205 C202 1.367 . S
N205 C203 1.379 . S
C206 N208 1.298 . S
C206 N210 1.367 . S
C206 C214 1.481 . S
C207 N209 1.299 . S
C207 N210 1.379 . S
N208 Zn192 2.036 . S
N208 C206 1.298 . S
N208 N209 1.398 . S
N209 C207 1.299 . S
N209 N208 1.398 . S
N210 C206 1.367 . S
N210 C207 1.379 . S
H211 C214 0.980 . S
H212 C214 0.981 . S
H213 C214 0.981 . S
C214 C206 1.481 . S
C214 H211 0.980 . S
C214 H212 0.981 . S
C214 H213 0.981 . S
C215 C202 1.481 . S
C215 H216 0.980 . S
C215 H217 0.981 . S
C215 H218 0.981 . S
H216 C215 0.980 . S
H217 C215 0.981 . S
H218 C215 0.981 . S
O219 Zn195 2.066 . S
O219 C198 1.256 . S
O220 Zn192 2.053 . S
O220 C198 1.244 . S
C221 O199 1.259 . S
C221 O200 1.254 . S
O222 Zn192 2.066 . S
O222 C194 1.256 . S
O223 C194 1.244 . S
O223 Zn195 2.053 . S
Zn224 O225 2.055 1_655 S
Zn224 O232 2.046 1_655 S
Zn224 N240 2.036 . S
Zn224 O252 2.053 . S
Zn224 O254 2.066 . S
O225 Zn224 2.055 1_455 S
O225 C228 1.259 . S
C226 O254 1.256 . S
C226 O255 1.244 . S
Zn227 O229 2.046 . S
Zn227 O231 2.055 . S
Zn227 N233 2.036 . S
Zn227 O251 2.066 . S
Zn227 O255 2.053 1_455 S
C228 O225 1.259 . S
C228 O229 1.254 . S
O229 Zn227 2.046 . S
O229 C228 1.254 . S
C230 O251 1.256 . S
C230 O252 1.244 1_455 S
O231 Zn227 2.055 . S
O231 C253 1.259 . S
O232 Zn224 2.046 1_455 S
O232 C253 1.254 . S
N233 Zn227 2.036 . S
N233 C234 1.298 . S
N233 N236 1.398 . S
C234 N233 1.298 . S
C234 N237 1.367 . S
C234 C247 1.481 . S
C235 N236 1.299 . S
C235 N237 1.379 . S
N236 N233 1.398 . S
N236 C235 1.299 . S
N237 C234 1.367 . S
N237 C235 1.379 . S
C238 N240 1.298 . S
C238 N242 1.367 . S
C238 C246 1.481 . S
C239 N241 1.299 . S
C239 N242 1.379 . S
N240 Zn224 2.036 . S
N240 C238 1.298 . S
N240 N241 1.398 . S
N241 C239 1.299 . S
N241 N240 1.398 . S
N242 C238 1.367 . S
N242 C239 1.379 . S
H243 C246 0.980 . S
H244 C246 0.981 . S
H245 C246 0.981 . S
C246 C238 1.481 . S
C246 H243 0.980 . S
C246 H244 0.981 . S
C246 H245 0.981 . S
C247 C234 1.481 . S
C247 H248 0.980 . S
C247 H249 0.981 . S
C247 H250 0.981 . S
H248 C247 0.980 . S
H249 C247 0.981 . S
H250 C247 0.981 . S
O251 Zn227 2.066 . S
O251 C230 1.256 . S
O252 Zn224 2.053 . S
O252 C230 1.244 1_655 S
C253 O231 1.259 . S
C253 O232 1.254 . S
O254 Zn224 2.066 . S
O254 C226 1.256 . S
O255 C226 1.244 . S
O255 Zn227 2.053 1_655 S
Zn256 O257 2.055 1_556 S
Zn256 O264 2.046 1_556 S
Zn256 N272 2.036 . S
Zn256 O284 2.053 . S
Zn256 O286 2.066 . S
O257 Zn256 2.055 1_554 S
O257 C260 1.259 . S
C258 O286 1.256 . S
C258 O287 1.244 . S
Zn259 O261 2.046 . S
Zn259 O263 2.055 . S
Zn259 N265 2.036 . S
Zn259 O283 2.066 . S
Zn259 O287 2.053 1_554 S
C260 O257 1.259 . S
C260 O261 1.254 . S
O261 Zn259 2.046 . S
O261 C260 1.254 . S
C262 O283 1.256 1_556 S
C262 O284 1.244 . S
O263 Zn259 2.055 . S
O263 C285 1.259 . S
O264 Zn256 2.046 1_554 S
O264 C285 1.254 . S
N265 Zn259 2.036 . S
N265 C266 1.298 . S
N265 N268 1.398 . S
C266 N265 1.298 . S
C266 N269 1.367 . S
C266 C279 1.481 . S
C267 N268 1.299 . S
C267 N269 1.379 . S
N268 N265 1.398 . S
N268 C267 1.299 . S
N269 C266 1.367 . S
N269 C267 1.379 . S
C270 N272 1.298 . S
C270 N274 1.367 . S
C270 C278 1.481 . S
C271 N273 1.299 . S
C271 N274 1.379 . S
N272 Zn256 2.036 . S
N272 C270 1.298 . S
N272 N273 1.398 . S
N273 C271 1.299 . S
N273 N272 1.398 . S
N274 C270 1.367 . S
N274 C271 1.379 . S
H275 C278 0.980 . S
H276 C278 0.981 . S
H277 C278 0.981 . S
C278 C270 1.481 . S
C278 H275 0.980 . S
C278 H276 0.981 . S
C278 H277 0.981 . S
C279 C266 1.481 . S
C279 H280 0.980 . S
C279 H281 0.981 . S
C279 H282 0.981 . S
H280 C279 0.980 . S
H281 C279 0.981 . S
H282 C279 0.981 . S
O283 Zn259 2.066 . S
O283 C262 1.256 1_554 S
O284 Zn256 2.053 . S
O284 C262 1.244 . S
C285 O263 1.259 . S
C285 O264 1.254 . S
O286 Zn256 2.066 . S
O286 C258 1.256 . S
O287 C258 1.244 . S
O287 Zn259 2.053 1_556 S
Zn288 O289 2.055 . S
Zn288 O296 2.046 . S
Zn288 N304 2.036 . S
Zn288 O316 2.053 1_545 S
Zn288 O318 2.066 . S
O289 Zn288 2.055 . S
O289 C292 1.259 . S
C290 O318 1.256 1_565 S
C290 O319 1.244 . S
Zn291 O293 2.046 1_565 S
Zn291 O295 2.055 1_565 S
Zn291 N297 2.036 . S
Zn291 O315 2.066 . S
Zn291 O319 2.053 . S
C292 O289 1.259 . S
C292 O293 1.254 . S
O293 Zn291 2.046 1_545 S
O293 C292 1.254 . S
C294 O315 1.256 . S
C294 O316 1.244 . S
O295 Zn291 2.055 1_545 S
O295 C317 1.259 . S
O296 Zn288 2.046 . S
O296 C317 1.254 . S
N297 Zn291 2.036 . S
N297 C298 1.298 . S
N297 N300 1.398 . S
C298 N297 1.298 . S
C298 N301 1.367 . S
C298 C311 1.481 . S
C299 N300 1.299 . S
C299 N301 1.379 . S
N300 N297 1.398 . S
N300 C299 1.299 . S
N301 C298 1.367 . S
N301 C299 1.379 . S
C302 N304 1.298 . S
C302 N306 1.367 . S
C302 C310 1.481 . S
C303 N305 1.299 . S
C303 N306 1.379 . S
N304 Zn288 2.036 . S
N304 C302 1.298 . S
N304 N305 1.398 . S
N305 C303 1.299 . S
N305 N304 1.398 . S
N306 C302 1.367 . S
N306 C303 1.379 . S
H307 C310 0.980 . S
H308 C310 0.981 . S
H309 C310 0.981 . S
C310 C302 1.481 . S
C310 H307 0.980 . S
C310 H308 0.981 . S
C310 H309 0.981 . S
C311 C298 1.481 . S
C311 H312 0.980 . S
C311 H313 0.981 . S
C311 H314 0.981 . S
H312 C311 0.980 . S
H313 C311 0.981 . S
H314 C311 0.981 . S
O315 Zn291 2.066 . S
O315 C294 1.256 . S
O316 Zn288 2.053 1_565 S
O316 C294 1.244 . S
C317 O295 1.259 . S
C317 O296 1.254 . S
O318 Zn288 2.066 . S
O318 C290 1.256 1_545 S
O319 C290 1.244 . S
O319 Zn291 2.053 . S
Zn320 O321 2.055 . S
Zn320 O328 2.046 . S
Zn320 N336 2.036 . S
Zn320 O348 2.053 . S
Zn320 O350 2.066 . S
O321 Zn320 2.055 . S
O321 C324 1.259 . S
C322 O350 1.256 . S
C322 O351 1.244 . S
Zn323 O325 2.046 . S
Zn323 O327 2.055 . S
Zn323 N329 2.036 . S
Zn323 O347 2.066 . S
Zn323 O351 2.053 . S
C324 O321 1.259 . S
C324 O325 1.254 . S
O325 Zn323 2.046 . S
O325 C324 1.254 . S
C326 O347 1.256 . S
C326 O348 1.244 . S
O327 Zn323 2.055 . S
O327 C349 1.259 . S
O328 Zn320 2.046 . S
O328 C349 1.254 . S
N329 Zn323 2.036 . S
N329 C330 1.298 . S
N329 N332 1.398 . S
C330 N329 1.298 . S
C330 N333 1.367 . S
C330 C343 1.481 . S
C331 N332 1.299 . S
C331 N333 1.379 . S
N332 N329 1.398 . S
N332 C331 1.299 . S
N333 C330 1.367 . S
N333 C331 1.379 . S
C334 N336 1.298 . S
C334 N338 1.367 . S
C334 C342 1.481 . S
C335 N337 1.299 . S
C335 N338 1.379 1_554 S
N336 Zn320 2.036 . S
N336 C334 1.298 . S
N336 N337 1.398 1_556 S
N337 C335 1.299 . S
N337 N336 1.398 1_554 S
N338 C334 1.367 . S
N338 C335 1.379 1_556 S
H339 C342 0.980 . S
H340 C342 0.981 . S
H341 C342 0.981 . S
C342 C334 1.481 . S
C342 H339 0.980 . S
C342 H340 0.981 . S
C342 H341 0.981 . S
C343 C330 1.481 . S
C343 H344 0.980 . S
C343 H345 0.981 . S
C343 H346 0.981 . S
H344 C343 0.980 . S
H345 C343 0.981 . S
H346 C343 0.981 . S
O347 Zn323 2.066 . S
O347 C326 1.256 . S
O348 Zn320 2.053 . S
O348 C326 1.244 . S
C349 O327 1.259 . S
C349 O328 1.254 . S
O350 Zn320 2.066 . S
O350 C322 1.256 . S
O351 C322 1.244 . S
O351 Zn323 2.053 . S
Zn352 O353 2.055 1_455 S
Zn352 O360 2.046 1_455 S
Zn352 N368 2.036 . S
Zn352 O380 2.053 . S
Zn352 O382 2.066 . S
O353 Zn352 2.055 1_655 S
O353 C356 1.259 . S
C354 O382 1.256 . S
C354 O383 1.244 . S
Zn355 O357 2.046 . S
Zn355 O359 2.055 . S
Zn355 N361 2.036 . S
Zn355 O379 2.066 1_655 S
Zn355 O383 2.053 1_655 S
C356 O353 1.259 . S
C356 O357 1.254 . S
O357 Zn355 2.046 . S
O357 C356 1.254 . S
C358 O379 1.257 . S
C358 O380 1.244 . S
O359 Zn355 2.055 . S
O359 C381 1.259 . S
O360 Zn352 2.046 1_655 S
O360 C381 1.254 . S
N361 Zn355 2.036 . S
N361 C362 1.298 . S
N361 N364 1.398 . S
C362 N361 1.298 . S
C362 N365 1.367 . S
C362 C375 1.481 . S
C363 N364 1.299 . S
C363 N365 1.379 . S
N364 N361 1.398 . S
N364 C363 1.299 . S
N365 C362 1.367 . S
N365 C363 1.379 . S
C366 N368 1.298 . S
C366 N370 1.367 . S
C366 C374 1.481 . S
C367 N369 1.299 . S
C367 N370 1.379 . S
N368 Zn352 2.036 . S
N368 C366 1.298 . S
N368 N369 1.398 . S
N369 C367 1.299 . S
N369 N368 1.398 . S
N370 C366 1.367 . S
N370 C367 1.379 . S
H371 C374 0.980 . S
H372 C374 0.981 . S
H373 C374 0.981 . S
C374 C366 1.481 . S
C374 H371 0.980 . S
C374 H372 0.981 . S
C374 H373 0.981 . S
C375 C362 1.481 . S
C375 H376 0.980 . S
C375 H377 0.981 . S
C375 H378 0.981 . S
H376 C375 0.980 . S
H377 C375 0.981 . S
H378 C375 0.981 . S
O379 Zn355 2.066 1_455 S
O379 C358 1.257 . S
O380 Zn352 2.053 . S
O380 C358 1.244 . S
C381 O359 1.259 . S
C381 O360 1.254 . S
O382 Zn352 2.066 . S
O382 C354 1.256 . S
O383 C354 1.244 . S
O383 Zn355 2.053 1_455 S
Zn384 O385 2.055 . S
Zn384 O392 2.046 . S
Zn384 N400 2.036 . S
Zn384 O412 2.053 . S
Zn384 O414 2.066 . S
O385 Zn384 2.055 . S
O385 C388 1.259 . S
C386 O414 1.256 . S
C386 O415 1.244 . S
Zn387 O389 2.046 . S
Zn387 O391 2.055 . S
Zn387 N393 2.036 . S
Zn387 O411 2.066 . S
Zn387 O415 2.053 . S
C388 O385 1.259 . S
C388 O389 1.254 . S
O389 Zn387 2.046 . S
O389 C388 1.254 . S
C390 O411 1.256 . S
C390 O412 1.244 . S
O391 Zn387 2.055 . S
O391 C413 1.259 . S
O392 Zn384 2.046 . S
O392 C413 1.254 . S
N393 Zn387 2.036 . S
N393 C394 1.298 . S
N393 N396 1.398 . S
C394 N393 1.298 . S
C394 N397 1.367 . S
C394 C407 1.481 . S
C395 N396 1.299 . S
C395 N397 1.379 . S
N396 N393 1.398 . S
N396 C395 1.299 . S
N397 C394 1.367 . S
N397 C395 1.379 . S
C398 N400 1.298 . S
C398 N402 1.367 . S
C398 C406 1.481 . S
C399 N401 1.299 . S
C399 N402 1.379 . S
N400 Zn384 2.036 . S
N400 C398 1.298 . S
N400 N401 1.398 . S
N401 C399 1.299 . S
N401 N400 1.398 . S
N402 C398 1.367 . S
N402 C399 1.379 . S
H403 C406 0.980 . S
H404 C406 0.981 . S
H405 C406 0.981 . S
C406 C398 1.481 . S
C406 H403 0.980 . S
C406 H404 0.981 . S
C406 H405 0.981 . S
C407 C394 1.481 . S
C407 H408 0.980 . S
C407 H409 0.981 . S
C407 H410 0.981 . S
H408 C407 0.980 . S
H409 C407 0.981 . S
H410 C407 0.981 . S
O411 Zn387 2.066 . S
O411 C390 1.256 . S
O412 Zn384 2.053 . S
O412 C390 1.244 . S
C413 O391 1.259 . S
C413 O392 1.254 . S
O414 Zn384 2.066 . S
O414 C386 1.256 . S
O415 C386 1.244 . S
O415 Zn387 2.053 . S
Zn416 O417 2.055 . S
Zn416 O424 2.046 1_554 S
Zn416 N432 2.036 . S
Zn416 O444 2.053 . S
Zn416 O446 2.066 . S
O417 Zn416 2.055 . S
O417 C420 1.259 1_554 S
C418 O446 1.256 . S
C418 O447 1.244 . S
Zn419 O421 2.046 . S
Zn419 O423 2.055 . S
Zn419 N425 2.036 . S
Zn419 O443 2.066 . S
Zn419 O447 2.053 1_556 S
C420 O417 1.259 1_556 S
C420 O421 1.254 . S
O421 Zn419 2.046 . S
O421 C420 1.254 . S
C422 O443 1.256 1_554 S
C422 O444 1.244 . S
O423 Zn419 2.055 . S
O423 C445 1.259 . S
O424 Zn416 2.046 1_556 S
O424 C445 1.254 . S
N425 Zn419 2.036 . S
N425 C426 1.298 . S
N425 N428 1.398 . S
C426 N425 1.298 . S
C426 N429 1.367 . S
C426 C439 1.481 . S
C427 N428 1.299 . S
C427 N429 1.379 . S
N428 N425 1.398 . S
N428 C427 1.299 . S
N429 C426 1.367 . S
N429 C427 1.379 . S
C430 N432 1.298 . S
C430 N434 1.367 . S
C430 C438 1.481 . S
C431 N433 1.299 . S
C431 N434 1.379 . S
N432 Zn416 2.036 . S
N432 C430 1.298 . S
N432 N433 1.398 . S
N433 C431 1.299 . S
N433 N432 1.398 . S
N434 C430 1.367 . S
N434 C431 1.379 . S
H435 C438 0.980 . S
H436 C438 0.981 . S
H437 C438 0.981 . S
C438 C430 1.481 . S
C438 H435 0.980 . S
C438 H436 0.981 . S
C438 H437 0.981 . S
C439 C426 1.481 . S
C439 H440 0.980 . S
C439 H441 0.981 . S
C439 H442 0.981 . S
H440 C439 0.980 . S
H441 C439 0.981 . S
H442 C439 0.981 . S
O443 Zn419 2.066 . S
O443 C422 1.256 1_556 S
O444 Zn416 2.053 . S
O444 C422 1.244 . S
C445 O423 1.259 . S
C445 O424 1.254 . S
O446 Zn416 2.066 . S
O446 C418 1.256 . S
O447 C418 1.244 . S
O447 Zn419 2.053 1_554 S
Zn448 O449 2.055 . S
Zn448 O456 2.046 1_545 S
Zn448 N464 2.036 . S
Zn448 O476 2.053 . S
Zn448 O478 2.066 . S
O449 Zn448 2.055 . S
O449 C452 1.259 . S
C450 O478 1.256 . S
C450 O479 1.244 . S
Zn451 O453 2.046 . S
Zn451 O455 2.055 1_545 S
Zn451 N457 2.036 1_545 S
Zn451 O475 2.066 . S
Zn451 O479 2.053 . S
C452 O449 1.259 . S
C452 O453 1.254 . S
O453 Zn451 2.046 . S
O453 C452 1.254 . S
C454 O475 1.256 . S
C454 O476 1.244 . S
O455 Zn451 2.055 1_565 S
O455 C477 1.259 . S
O456 Zn448 2.046 1_565 S
O456 C477 1.254 . S
N457 Zn451 2.036 1_565 S
N457 C458 1.298 . S
N457 N460 1.398 1_565 S
C458 N457 1.298 . S
C458 N461 1.367 . S
C458 C471 1.481 . S
C459 N460 1.299 1_565 S
C459 N461 1.379 . S
N460 N457 1.398 1_545 S
N460 C459 1.299 1_545 S
N461 C458 1.367 . S
N461 C459 1.379 . S
C462 N464 1.298 . S
C462 N466 1.367 . S
C462 C470 1.481 . S
C463 N465 1.299 . S
C463 N466 1.379 . S
N464 Zn448 2.036 . S
N464 C462 1.298 . S
N464 N465 1.398 . S
N465 C463 1.299 . S
N465 N464 1.398 . S
N466 C462 1.367 . S
N466 C463 1.379 . S
H467 C470 0.980 . S
H468 C470 0.981 . S
H469 C470 0.981 . S
C470 C462 1.481 . S
C470 H467 0.980 . S
C470 H468 0.981 . S
C470 H469 0.981 . S
C471 C458 1.481 . S
C471 H472 0.980 . S
C471 H473 0.981 . S
C471 H474 0.981 . S
H472 C471 0.980 . S
H473 C471 0.981 . S
H474 C471 0.981 . S
O475 Zn451 2.066 . S
O475 C454 1.256 . S
O476 Zn448 2.053 . S
O476 C454 1.244 . S
C477 O455 1.259 . S
C477 O456 1.254 . S
O478 Zn448 2.066 . S
O478 C450 1.256 . S
O479 C450 1.244 . S
O479 Zn451 2.053 . S
Zn480 O481 2.055 . S
Zn480 O488 2.046 . S
Zn480 N496 2.036 . S
Zn480 O508 2.053 1_554 S
Zn480 O510 2.066 . S
O481 Zn480 2.055 . S
O481 C484 1.259 . S
C482 O510 1.256 1_556 S
C482 O511 1.244 . S
Zn483 O485 2.046 1_556 S
Zn483 O487 2.055 1_556 S
Zn483 N489 2.036 . S
Zn483 O507 2.066 . S
Zn483 O511 2.053 . S
C484 O481 1.259 . S
C484 O485 1.254 . S
O485 Zn483 2.046 1_554 S
O485 C484 1.254 . S
C486 O507 1.256 . S
C486 O508 1.244 . S
O487 Zn483 2.055 1_554 S
O487 C509 1.259 . S
O488 Zn480 2.046 . S
O488 C509 1.254 . S
N489 Zn483 2.036 . S
N489 C490 1.298 . S
N489 N492 1.398 . S
C490 N489 1.298 . S
C490 N493 1.367 . S
C490 C503 1.481 . S
C491 N492 1.299 . S
C491 N493 1.379 . S
N492 N489 1.398 . S
N492 C491 1.299 . S
N493 C490 1.367 . S
N493 C491 1.379 . S
C494 N496 1.298 . S
C494 N498 1.367 . S
C494 C502 1.481 . S
C495 N497 1.299 . S
C495 N498 1.379 . S
N496 Zn480 2.036 . S
N496 C494 1.298 . S
N496 N497 1.398 . S
N497 C495 1.299 . S
N497 N496 1.398 . S
N498 C494 1.367 . S
N498 C495 1.379 . S
H499 C502 0.980 . S
H500 C502 0.981 . S
H501 C502 0.981 . S
C502 C494 1.481 . S
C502 H499 0.980 . S
C502 H500 0.981 . S
C502 H501 0.981 . S
C503 C490 1.481 . S
C503 H504 0.980 . S
C503 H505 0.981 . S
C503 H506 0.981 . S
H504 C503 0.980 . S
H505 C503 0.981 . S
H506 C503 0.981 . S
O507 Zn483 2.066 . S
O507 C486 1.256 . S
O508 Zn480 2.053 1_556 S
O508 C486 1.244 . S
C509 O487 1.259 . S
C509 O488 1.254 . S
O510 Zn480 2.066 . S
O510 C482 1.256 1_554 S
O511 C482 1.244 . S
O511 Zn483 2.053 . S
N18 C36 1.215 . S
N77 C61 1.215 . S
C100 C66 2.473 . S
C6 C125 2.474 . S
C4 C290 2.749 1_545 S
C228 C38 2.811 . S
N82 C322 1.472 . S
C102 C445 2.196 . S
C285 C34 2.811 . S
C390 C93 2.749 . S
C452 C98 2.196 . S
N13 C358 1.472 . S
C2 C262 1.732 . S
N402 N146 2.639 . S
C166 C477 1.624 . S
N370 N210 1.664 . S
C70 C226 1.731 . S
N301 N141 2.639 . S
N205 N333 1.664 . S
N178 C354 2.447 . S
C294 C189 1.831 . S
C356 C230 2.827 1_655 S
N173 C157 0.514 . S
C292 N269 0.313 . S
N429 C381 1.020 . S
C196 C162 2.597 . S
C317 C454 2.286 . S
C422 C29 1.563 . S
C68 C450 1.563 . S
N397 N45 3.044 . S
C253 C164 1.518 . S
N114 N338 1.514 . S
C388 C418 2.285 . S
N242 C413 0.313 . S
C194 N237 2.599 . S
C130 N434 1.551 . S
C386 C484 1.832 . S
C509 C260 1.517 . S
N50 N306 3.044 . S
N274 C198 2.599 . S
C258 C349 2.827 . S
C486 C221 2.597 . S
C420 C482 1.624 . S
N365 N109 1.514 . S
C324 N466 1.020 . S
C326 N493 2.448 . S
C134 N461 1.551 . S
N498 C132 0.514 . S
