# Generated by pormake.
# Topology kag, (6)-cn, num edge types: 1
# Building blocks:
#     Node 0, Type 0, BuildingBlock: KUMBUR_clean_sbu_1, # of connection points: 6
#     Node 1, Type 0, BuildingBlock: KUMBUR_clean_sbu_1, # of connection points: 6
#     Node 2, Type 0, BuildingBlock: KUMBUR_clean_sbu_1, # of connection points: 6
#     Edge 3, Type (0, 0), BuildingBlock: TEMPAE_clean_linker_10, # of connection points: 2
#     Edge 4, Type (0, 0), BuildingBlock: TEMPAE_clean_linker_10, # of connection points: 2
#     Edge 5, Type (0, 0), BuildingBlock: TEMPAE_clean_linker_10, # of connection points: 2
#     Edge 6, Type (0, 0), BuildingBlock: TEMPAE_clean_linker_10, # of connection points: 2
#     Edge 7, Type (0, 0), BuildingBlock: TEMPAE_clean_linker_10, # of connection points: 2
#     Edge 8, Type (0, 0), BuildingBlock: TEMPAE_clean_linker_10, # of connection points: 2
#     Edge 9, Type (0, 0), BuildingBlock: TEMPAE_clean_linker_10, # of connection points: 2
#     Edge 10, Type (0, 0), BuildingBlock: TEMPAE_clean_linker_10, # of connection points: 2
#     Edge 11, Type (0, 0), BuildingBlock: TEMPAE_clean_linker_10, # of connection points: 2
# Relax obj value: 0.094
# Max RMSD: 0.182
# Mean RMSD: 0.125
data_MOF--net-kag--node1-KUMBUR_clean_sbu_1--edge1-TEMPAE_clean_linker_10
_symmetry_space_group_name_H-M    P1
_symmetry_Int_Tables_number       1
_symmetry_cell_setting            triclinic
loop_
_symmetry_equiv_pos_as_xyz
'x, y, z'
_cell_length_a     30.730408
_cell_length_b     40.716927
_cell_length_c     15.031574
_cell_angle_alpha  107.68844
_cell_angle_beta   96.503773
_cell_angle_gamma 99.191103
loop_
_atom_site_label
_atom_site_type_symbol
_atom_site_fract_x
_atom_site_fract_y
_atom_site_fract_z
_atom_type_partial_charge
Tb0 Tb 1.04839 0.55872 0.05465 0.0
C1 C 0.10967 0.42167 0.97649 0.0
N2 N 0.0821 0.42827 0.91033 0.0
C3 C 0.12432 0.40373 0.79147 0.0
C4 C 0.14768 0.40787 0.95456 0.0
C5 C 0.08724 0.41787 0.81756 0.0
C6 C 0.15538 0.39957 0.86085 0.0
C7 C 0.12169 0.41566 0.13175 0.0
C8 C 0.09676 0.42545 0.06309 0.0
C9 C 0.1622 0.40513 0.11435 0.0
C10 C 0.17514 0.40113 0.02554 0.0
Tb11 Tb 1.02444 0.45335 0.95905 0.0
N12 N 0.05659 0.4342 0.07445 0.0
C13 C 0.10355 0.41441 0.21232 0.0
C14 C 1.03619 0.42825 0.14607 0.0
C15 C 0.05998 0.41971 0.21807 0.0
H16 H 0.06326 0.42133 0.76464 0.0
H17 H 1.04446 0.41673 0.27704 0.0
H18 H 0.09083 0.58337 0.28638 0.0
H19 H 0.92657 0.61446 0.8965 0.0
H20 H 1.0019 0.43096 0.14921 0.0
H21 H 0.12164 0.40716 0.26719 0.0
H22 H 0.99403 0.58856 0.90638 0.0
H23 H 0.12914 0.39642 0.71833 0.0
H24 H 0.18239 0.39813 0.1669 0.0
H25 H 0.20518 0.39124 0.01107 0.0
H26 H 0.06228 0.60151 0.43722 0.0
H27 H 0.18419 0.38877 0.84073 0.0
H28 H 0.88398 0.6249 0.02961 0.0
N29 N 1.02894 0.58016 0.20117 0.0
C30 C 0.98858 0.58953 0.20103 0.0
C31 C 1.04083 0.59768 0.37111 0.0
C32 C 0.97129 0.60116 0.28536 0.0
C33 C 0.05674 0.58708 0.28535 0.0
C34 C 0.9973 0.6037 0.37084 0.0
N35 N 0.98822 0.58378 0.0415 0.0
C36 C 0.97551 0.59331 0.96441 0.0
C37 C 0.92917 0.60647 0.116 0.0
C38 C 0.96773 0.59205 0.118 0.0
C39 C 0.9135 0.61369 0.03409 0.0
C40 C 0.93753 0.60797 0.95891 0.0
H41 H 0.98525 0.61243 0.43737 0.0
H42 H 0.91585 0.62064 0.34578 0.0
H43 H 0.87889 0.62534 0.19696 0.0
O44 O 0.09497 0.58375 0.99134 0.0
O45 O 0.97946 0.52903 0.97841 0.0
O46 O 0.97011 0.47799 0.01543 0.0
O47 O 0.07509 0.61274 0.11958 0.0
O48 O 1.03975 0.53741 0.90078 0.0
O49 O 1.02291 0.47569 0.8446 0.0
O50 O 0.99814 0.39957 0.92983 0.0
O51 O 0.08825 0.48365 0.94178 0.0
O52 O 0.10489 0.53267 0.07408 0.0
O53 O 0.97342 0.42757 0.84164 0.0
O54 O 1.01089 0.48242 0.09762 0.0
O55 O 0.06883 0.52936 0.14671 0.0
C56 C 0.95311 0.50263 0.99246 0.0
C57 C 0.14965 0.62765 0.10434 0.0
C58 C 0.22014 0.66648 0.11511 0.0
C59 C 0.24002 0.6542 0.18438 0.0
C60 C 0.16967 0.61587 0.1743 0.0
C61 C 0.21474 0.62912 0.21399 0.0
C62 C 0.17481 0.65292 0.07502 0.0
C63 C 1.02993 0.50671 0.83246 0.0
C64 C 0.10273 0.61333 0.06082 0.0
C65 C 0.93025 0.61223 0.28214 0.0
C66 C 0.90924 0.61499 0.19745 0.0
C67 C 0.11803 0.50907 0.00666 0.0
C68 C 0.92051 0.38574 0.8738 0.0
C69 C 0.86845 0.34705 0.92788 0.0
C70 C 0.83322 0.36125 0.89629 0.0
C71 C 0.8848 0.39958 0.84316 0.0
C72 C 0.91212 0.3597 0.91665 0.0
C73 C 0.84152 0.38743 0.8548 0.0
C74 C 1.04042 0.50599 0.16548 0.0
C75 C 0.9666 0.3989 0.86367 0.0
H76 H 0.27488 0.66441 0.21664 0.0
H77 H 0.15049 0.59645 0.19804 0.0
H78 H 0.23005 0.62006 0.26809 0.0
H79 H 0.15924 0.6617 0.02032 0.0
H80 H 0.79902 0.35172 0.90185 0.0
H81 H 0.8902 0.41989 0.81052 0.0
H82 H 0.93983 0.34964 0.9423 0.0
H83 H 0.81424 0.39815 0.83073 0.0
Tb84 Tb 0.49649 0.98952 0.93593 0.0
C85 C 0.66736 0.94664 0.99166 0.0
N86 N 0.65656 0.9737 0.05757 0.0
C87 C 0.67873 0.95032 0.17982 0.0
C88 C 0.68243 0.91924 0.0165 0.0
C89 C 0.6641 0.97696 0.15143 0.0
C90 C 0.6873 0.92103 0.11182 0.0
C91 C 0.67758 0.92069 0.82995 0.0
C92 C 0.66459 0.94736 0.89994 0.0
C93 C 0.6906 0.89227 0.85276 0.0
C94 C 0.69327 0.89166 0.94601 0.0
Tb95 Tb 0.62938 0.01432 0.00452 0.0
N96 N 0.65299 0.9758 0.88175 0.0
C97 C 0.67942 0.92439 0.74085 0.0
C98 C 0.66025 0.98146 0.79884 0.0
C99 C 0.67177 0.95535 0.72604 0.0
H100 H 0.65754 0.99962 0.20354 0.0
H101 H 0.67561 0.95945 0.65926 0.0
H102 H 0.47067 0.95268 0.69977 0.0
H103 H 0.42518 0.08792 0.1665 0.0
H104 H 0.6575 0.00612 0.7879 0.0
H105 H 0.68916 0.90447 0.68496 0.0
H106 H 0.45997 0.03563 0.12289 0.0
H107 H 0.68335 0.95237 0.25392 0.0
H108 H 0.70039 0.87137 0.79976 0.0
H109 H 0.70511 0.87034 0.96341 0.0
H110 H 0.44323 0.97069 0.56493 0.0
H111 H 0.69873 0.90045 0.13394 0.0
H112 H 0.40582 0.11607 0.04662 0.0
N113 N 0.467 1.00073 0.80407 0.0
C114 C 0.45148 0.03099 0.8211 0.0
C115 C 0.44593 0.98818 0.63663 0.0
C116 C 0.43506 0.04227 0.74651 0.0
C117 C 0.46165 0.97812 0.71339 0.0
C118 C 0.43371 0.02086 0.65321 0.0
N119 N 0.46107 0.03526 0.9814 0.0
C120 C 0.45115 0.04771 0.07038 0.0
C121 C 0.4281 0.07842 0.93433 0.0
C122 C 0.44783 0.04871 0.91321 0.0
C123 C 0.42085 0.09314 0.02727 0.0
C124 C 0.4316 0.07726 0.09512 0.0
H125 H 0.42132 0.02854 0.59371 0.0
H126 H 0.40626 0.08294 0.71137 0.0
H127 H 0.40036 0.11475 0.87629 0.0
O128 O 0.46688 0.95439 0.00031 0.0
O129 O 0.53008 0.04569 0.01158 0.0
O130 O 0.59764 0.05243 0.96087 0.0
O131 O 0.43054 0.9614 0.87929 0.0
O132 O 0.52154 0.99877 0.08614 0.0
O133 O 0.59616 0.02934 0.1289 0.0
O134 O 0.69761 0.03224 0.00378 0.0
O135 O 0.58895 0.96864 0.02599 0.0
O136 O 0.53658 0.94938 0.89402 0.0
O137 O 0.66462 0.05872 0.11856 0.0
O138 O 0.59876 0.01943 0.87097 0.0
O139 O 0.53746 0.97444 0.82513 0.0
C140 C 0.56288 0.06499 0.98878 0.0
C141 C 0.42375 0.90379 0.88442 0.0
C142 C 0.39449 0.84383 0.87864 0.0
C143 C 0.4123 0.83099 0.79566 0.0
C144 C 0.44104 0.89042 0.80116 0.0
C145 C 0.43516 0.8542 0.75701 0.0
C146 C 0.40063 0.88045 0.92316 0.0
C147 C 0.55758 0.01675 0.14984 0.0
C148 C 0.43206 0.94196 0.93343 0.0
C149 C 0.41835 0.07344 0.76753 0.0
C150 C 0.41487 0.09151 0.86142 0.0
C151 C 0.56143 0.94261 0.96003 0.0
C152 C 0.74281 0.0825 0.12879 0.0
C153 C 0.79327 0.13753 0.14711 0.0
C154 C 0.82609 0.12785 0.20195 0.0
C155 C 0.77556 0.07327 0.18347 0.0
C156 C 0.75113 0.11473 0.11235 0.0
C157 C 0.81699 0.09611 0.22072 0.0
C158 C 0.5666 0.99717 0.80508 0.0
C159 C 0.70112 0.05746 0.0831 0.0
H160 H 0.40895 0.80296 0.76105 0.0
H161 H 0.45974 0.90793 0.77101 0.0
H162 H 0.44888 0.84409 0.69332 0.0
H163 H 0.38717 0.89082 0.98721 0.0
H164 H 0.85923 0.14426 0.22839 0.0
H165 H 0.76926 0.04825 0.19613 0.0
H166 H 0.72491 0.12154 0.07097 0.0
H167 H 0.84249 0.08882 0.26241 0.0
Tb168 Tb 0.51977 0.44999 0.96575 0.0
C169 C 0.64566 0.59549 0.15301 0.0
N170 N 0.60506 0.58306 0.17179 0.0
C171 C 0.63315 0.60778 0.33888 0.0
C172 C 0.68204 0.61356 0.227 0.0
C173 C 0.59794 0.59013 0.2633 0.0
C174 C 0.67545 0.6193 0.3207 0.0
C175 C 0.69293 0.60107 0.03695 0.0
C176 C 0.651 0.58956 0.0588 0.0
C177 C 0.72923 0.61894 0.11061 0.0
C178 C 0.72376 0.62527 0.20526 0.0
Tb179 Tb 0.55094 0.55655 0.04092 0.0
N180 N 0.6155 0.57129 0.98871 0.0
C181 C 0.69725 0.59398 0.94159 0.0
C182 C 0.61903 0.56588 0.89604 0.0
C183 C 0.66001 0.57658 0.8709 0.0
H184 H 0.56502 0.58327 0.27913 0.0
H185 H 0.66266 0.57183 0.79705 0.0
H186 H 0.51178 0.41881 0.72875 0.0
H187 H 0.41011 0.40661 0.1784 0.0
H188 H 0.59026 0.55446 0.84155 0.0
H189 H 0.72898 0.60223 0.92186 0.0
H190 H 0.48183 0.4334 0.14412 0.0
H191 H 0.62745 0.61292 0.41117 0.0
H192 H 0.76176 0.62785 0.09509 0.0
H193 H 0.75215 0.63906 0.26119 0.0
H194 H 0.45165 0.39594 0.5895 0.0
H195 H 0.7026 0.63307 0.37949 0.0
H196 H 0.34297 0.38417 0.05221 0.0
N197 N 0.46768 0.42469 0.82904 0.0
C198 C 0.42556 0.41312 0.8416 0.0
C199 C 0.44357 0.40155 0.66015 0.0
C200 C 0.39022 0.39717 0.76409 0.0
C201 C 0.4776 0.41601 0.73946 0.0
C202 C 0.39938 0.39293 0.67264 0.0
N203 N 0.45433 0.42838 0.00357 0.0
C204 C 0.45225 0.42449 0.09011 0.0
C205 C 0.37756 0.3982 0.94697 0.0
C206 C 0.41903 0.41378 0.93152 0.0
C207 C 0.37421 0.39615 0.03745 0.0
C208 C 0.41196 0.4089 0.109 0.0
H209 H 0.37317 0.38089 0.61112 0.0
H210 H 0.31992 0.37218 0.7215 0.0
H211 H 0.30891 0.37297 0.88193 0.0
O212 O 0.5487 0.42261 0.04723 0.0
O213 O 0.46751 0.47971 0.01712 0.0
O214 O 0.47949 0.53191 0.98371 0.0
O215 O 0.52097 0.39636 0.90067 0.0
O216 O 0.55064 0.48339 0.11138 0.0
O217 O 0.52436 0.53525 0.14586 0.0
O218 O 0.54799 0.59829 0.986 0.0
O219 O 0.60483 0.52616 0.05485 0.0
O220 O 0.58636 0.47095 0.94037 0.0
O221 O 0.52981 0.60163 0.12145 0.0
O222 O 0.52033 0.52601 0.89418 0.0
O223 O 0.54165 0.47213 0.85701 0.0
C224 C 0.45265 0.50613 -0.00111 0.0
C225 C 0.57252 0.37026 0.97124 0.0
C226 C 0.59275 0.31496 0.97713 0.0
C227 C 0.63663 0.32834 0.96817 0.0
C228 C 0.6163 0.38284 0.96204 0.0
C229 C 0.64813 0.36188 0.96032 0.0
C230 C 0.56061 0.33619 0.97782 0.0
C231 C 0.53504 0.50844 0.16903 0.0
C232 C 0.53929 0.39277 0.9783 0.0
C233 C 0.34766 0.38408 0.77997 0.0
C234 C 0.34141 0.38439 0.87124 0.0
C235 C 0.61651 0.49873 0.99581 0.0
C236 C 0.56036 0.65576 0.0979 0.0
C237 C 0.57364 0.71556 0.08707 0.0
C238 C 0.60719 0.72628 0.16766 0.0
C239 C 0.59367 0.66773 0.1791 0.0
C240 C 0.55005 0.68008 0.05232 0.0
C241 C 0.61698 0.70258 0.21322 0.0
C242 C 0.53053 0.49875 0.83323 0.0
C243 C 0.5362 0.61827 0.06078 0.0
H244 H 0.6621 0.3127 0.96645 0.0
H245 H 0.62586 0.40894 0.9571 0.0
H246 H 0.682 0.37175 0.95339 0.0
H247 H 0.52676 0.32664 0.9859 0.0
H248 H 0.6255 0.75334 0.19644 0.0
H249 H 0.60154 0.65042 0.21737 0.0
H250 H 0.52421 0.67141 0.98996 0.0
H251 H 0.64259 0.71136 0.27587 0.0
C252 C 1.03103 0.47646 0.66087 0.0
C253 C 1.02911 0.50707 0.73401 0.0
C254 C 1.03324 0.47694 0.56866 0.0
C255 C 1.0323 0.50857 0.54843 0.0
C256 C 1.02918 0.53933 0.62107 0.0
C257 C 1.02818 0.53832 0.71323 0.0
C258 C 1.03725 0.44374 0.49317 0.0
C259 C 1.02746 0.57344 0.60186 0.0
C260 C 0.07799 0.51745 0.33092 0.0
C261 C 1.03867 0.50778 0.26408 0.0
C262 C 0.07639 0.51828 0.42443 0.0
C263 C 1.03448 0.50931 0.45099 0.0
C264 C 0.99469 0.49997 0.38366 0.0
C265 C 0.9973 0.49918 0.29074 0.0
C266 C 0.11949 0.52808 0.49429 0.0
C267 C 0.9494 0.49061 0.40963 0.0
H268 H 1.0317 0.45216 0.67572 0.0
H269 H 1.02668 0.56212 0.76894 0.0
H270 H 1.00862 0.4359 0.43388 0.0
H271 H 0.06821 0.44862 0.46357 0.0
H272 H 1.03816 0.42142 0.52081 0.0
H273 H 1.02011 0.59381 0.66336 0.0
H274 H 0.06011 0.58384 0.58554 0.0
H275 H 1.00157 0.56895 0.53927 0.0
H276 H 0.10995 0.52388 0.30962 0.0
H277 H 0.9669 0.49197 0.2388 0.0
H278 H 0.12352 0.50581 0.52032 0.0
H279 H 0.11849 0.55089 0.55672 0.0
H280 H 0.14921 0.5349 0.4627 0.0
H281 H 0.94762 0.46701 0.43239 0.0
H282 H 0.92162 0.48509 0.3496 0.0
H283 H 0.94437 0.51249 0.47028 0.0
C284 C 0.51645 0.00489 0.27577 0.0
C285 C 0.55621 0.0187 0.25022 0.0
C286 C 0.51567 0.00233 0.36678 0.0
C287 C 0.55575 0.0132 0.43389 0.0
C288 C 0.59574 0.02806 0.40971 0.0
C289 C 0.59532 0.03126 0.31901 0.0
C290 C 0.47198 0.98751 0.39058 0.0
C291 C 0.63939 0.0394 0.4786 0.0
C292 C 0.55519 0.03199 0.69777 0.0
C293 C 0.56184 1.00024 0.70938 0.0
C294 C 0.55159 0.03622 0.60816 0.0
C295 C 0.55625 0.0083 0.52858 0.0
C296 C 0.56276 0.97599 0.54018 0.0
C297 C 0.56467 0.97214 0.63042 0.0
C298 C 0.54272 0.07054 0.59886 0.0
C299 C 0.56897 0.94587 0.4578 0.0
H300 H 0.48584 0.99541 0.22405 0.0
H301 H 0.62611 0.04263 0.30132 0.0
H302 H 0.4746 0.96334 0.40854 0.0
H303 H 0.46447 0.0069 0.45369 0.0
H304 H 0.44356 0.98095 0.33123 0.0
H305 H 0.66768 0.05023 0.44893 0.0
H306 H 0.63634 0.05971 0.54486 0.0
H307 H 0.64746 0.01659 0.49805 0.0
H308 H 0.55161 0.05323 0.75871 0.0
H309 H 0.56974 0.94758 0.63988 0.0
H310 H 0.51229 0.06542 0.54531 0.0
H311 H 0.57102 0.08359 0.57377 0.0
H312 H 0.53802 0.08898 0.66705 0.0
H313 H 0.53927 0.93758 0.4008 0.0
H314 H 0.57424 0.9227 0.4788 0.0
H315 H 0.59824 0.95458 0.42747 0.0
C316 C 0.5147 0.52599 0.70709 0.0
C317 C 0.52974 0.4989 0.73365 0.0
C318 C 0.51674 0.52865 0.61664 0.0
C319 C 0.53086 0.50209 0.54772 0.0
C320 C 0.54491 0.4741 0.57282 0.0
C321 C 0.54623 0.47383 0.66652 0.0
C322 C 0.50532 0.56064 0.5961 0.0
C323 C 0.55925 0.4446 0.50157 0.0
C324 C 0.49334 0.49637 0.29201 0.0
C325 C 0.53378 0.50828 0.26654 0.0
C326 C 0.49225 0.49274 0.38182 0.0
C327 C 0.53195 0.50426 0.45047 0.0
C328 C 0.57253 0.51818 0.42616 0.0
C329 C 0.57324 0.51867 0.33321 0.0
C330 C 0.44899 0.47543 0.40198 0.0
C331 C 0.6153 0.53247 0.4977 0.0
H332 H 0.5029 0.54616 0.75839 0.0
H333 H 0.56077 0.45413 0.68685 0.0
H334 H 0.53311 0.57318 0.56845 0.0
H335 H 0.47504 0.55276 0.54076 0.0
H336 H 0.49912 0.58053 0.66008 0.0
H337 H 0.55663 0.42069 0.52331 0.0
H338 H 0.5387 0.43746 0.43021 0.0
H339 H 0.59466 0.45312 0.49607 0.0
H340 H 0.46279 0.48869 0.24041 0.0
H341 H 0.60458 0.52771 0.31306 0.0
H342 H 0.43716 0.49447 0.45919 0.0
H343 H 0.45457 0.4532 0.42707 0.0
H344 H 0.42219 0.46525 0.33842 0.0
H345 H 0.6088 0.54727 0.5685 0.0
H346 H 0.64002 0.55015 0.47552 0.0
H347 H 0.63054 0.5103 0.50486 0.0
C348 C 0.18276 0.49086 0.92533 0.0
C349 C 0.1675 0.51031 0.00587 0.0
C350 C 0.22871 0.49034 0.9246 0.0
C351 C 0.26135 0.511 0.00521 0.0
C352 C 0.2463 0.53153 0.08606 0.0
C353 C 0.19994 0.53068 0.08569 0.0
C354 C 0.2422 0.46704 0.83764 0.0
C355 C 0.27925 0.55451 0.17346 0.0
C356 C 0.37688 0.48658 0.04069 0.0
C357 C 0.40398 0.50823 0.00254 0.0
C358 C 0.33088 0.48687 0.04103 0.0
C359 C 0.31085 0.51051 0.00559 0.0
C360 C 0.33843 0.53364 0.97076 0.0
C361 C 0.38415 0.53201 0.96882 0.0
C362 C 0.30359 0.46121 0.07791 0.0
C363 C 0.31961 0.56028 0.93544 0.0
H364 H 0.15864 0.47597 0.86209 0.0
H365 H 0.18911 0.54579 0.14881 0.0
H366 H 0.26712 0.48282 0.8109 0.0
H367 H 0.25831 0.44693 0.85637 0.0
H368 H 0.2132 0.45332 0.77972 0.0
H369 H 0.2624 0.56591 0.23377 0.0
H370 H 0.30266 0.53926 0.19584 0.0
H371 H 0.29952 0.57638 0.1571 0.0
H372 H 0.39175 0.4695 0.07169 0.0
H373 H 0.40438 0.54944 0.94051 0.0
H374 H 0.28236 0.43953 0.01701 0.0
H375 H 0.28101 0.47404 0.12348 0.0
H376 H 0.32506 0.4496 0.11936 0.0
H377 H 0.2923 0.54658 0.87399 0.0
H378 H 0.34543 0.57722 0.91363 0.0
H379 H 0.30494 0.57734 0.99179 0.0
C380 C 0.83258 0.20055 0.18614 0.0
C381 C 0.80359 0.17029 0.12218 0.0
C382 C 0.84452 0.23083 0.16106 0.0
C383 C 0.82595 0.23121 0.07098 0.0
C384 C 0.79562 0.20126 0.00718 0.0
C385 C 0.7854 0.17101 0.03288 0.0
C386 C 0.87772 0.2621 0.23007 0.0
C387 C 0.77447 0.20094 0.91101 0.0
C388 C 0.8261 0.31791 0.02642 0.0
C389 C 0.85955 0.31856 0.97025 0.0
C390 C 0.81518 0.28987 0.061 0.0
C391 C 0.83925 0.2624 0.04148 0.0
C392 C 0.87438 0.2636 0.98867 0.0
C393 C 0.88365 0.29135 0.95244 0.0
C394 C 0.77688 0.28903 0.11554 0.0
C395 C 0.90138 0.23504 0.96818 0.0
H396 H 0.8462 0.20061 0.25589 0.0
H397 H 0.76382 0.14767 0.98174 0.0
H398 H 0.90743 0.26794 0.19752 0.0
H399 H 0.86268 0.2858 0.24671 0.0
H400 H 0.88905 0.25755 0.29739 0.0
H401 H 0.74917 0.17643 0.87255 0.0
H402 H 0.75807 0.2238 0.91881 0.0
H403 H 0.80064 0.20338 0.86696 0.0
H404 H 0.808 0.33916 0.04265 0.0
H405 H 0.90908 0.29113 0.90801 0.0
H406 H 0.78824 0.28651 0.18541 0.0
H407 H 0.75006 0.26564 0.07623 0.0
H408 H 0.76238 0.31299 0.12713 0.0
H409 H 0.91405 0.23056 0.03474 0.0
H410 H 0.93027 0.24161 0.93404 0.0
H411 H 0.87976 0.20993 0.92052 0.0
C412 C 0.56488 0.90302 0.05804 0.0
C413 C 0.55505 0.90679 0.96868 0.0
C414 C 0.56273 0.86967 0.06834 0.0
C415 C 0.55042 0.83898 0.98717 0.0
C416 C 0.53919 0.84258 0.89685 0.0
C417 C 0.54164 0.87644 0.88871 0.0
C418 C 0.57528 0.86747 0.16614 0.0
C419 C 0.52619 0.81071 0.80848 0.0
C420 C 0.59991 0.76248 0.01874 0.0
C421 C 0.56436 0.74244 0.04253 0.0
C422 C 0.59494 0.79275 0.99548 0.0
C423 C 0.55347 0.80372 0.99673 0.0
C424 C 0.51663 0.78244 0.01533 0.0
C425 C 0.52246 0.75197 0.03781 0.0
C426 C 0.63502 0.81423 0.97534 0.0
C427 C 0.47185 0.79304 0.01728 0.0
H428 H 0.57487 0.92634 0.12039 0.0
H429 H 0.53461 0.87922 0.81938 0.0
H430 H 0.54888 0.84869 0.18045 0.0
H431 H 0.60673 0.85747 0.17037 0.0
H432 H 0.58039 0.89346 0.22257 0.0
H433 H 0.51808 0.81783 0.74371 0.0
H434 H 0.55396 0.79624 0.79989 0.0
H435 H 0.49671 0.79245 0.81487 0.0
H436 H 0.63236 0.75524 0.02233 0.0
H437 H 0.49499 0.73683 0.05716 0.0
H438 H 0.64665 0.83925 0.03526 0.0
H439 H 0.6259 0.82106 0.91058 0.0
H440 H 0.66322 0.8002 0.96605 0.0
H441 H 0.47413 0.81609 0.08151 0.0
H442 H 0.44509 0.77143 0.0184 0.0
H443 H 0.46219 0.80103 0.95478 0.0
C444 C 0.87791 0.47928 0.02965 0.0
C445 C 0.90341 0.50145 0.99012 0.0
C446 C 0.83149 0.4779 0.02947 0.0
C447 C 0.80915 0.49945 0.98955 0.0
C448 C 0.83461 0.52159 0.94866 0.0
C449 C 0.88085 0.52192 0.94834 0.0
C450 C 0.80641 0.45344 0.07289 0.0
C451 C 0.81298 0.54513 0.90516 0.0
C452 C 0.68003 0.47518 0.91892 0.0
C453 C 0.66575 0.49841 0.99492 0.0
C454 C 0.72606 0.47524 0.91608 0.0
C455 C 0.75951 0.49901 0.99125 0.0
C456 C 0.74523 0.52221 0.06868 0.0
C457 C 0.699 0.52145 0.06978 0.0
C458 C 0.7388 0.44953 0.8324 0.0
C459 C 0.77889 0.54811 0.1508 0.0
H460 H 0.8943 0.4629 0.06152 0.0
H461 H 0.89925 0.53796 0.91402 0.0
H462 H 0.7917 0.46881 0.13212 0.0
H463 H 0.77835 0.43471 0.01948 0.0
H464 H 0.82821 0.4381 0.1002 0.0
H465 H 0.83646 0.55948 0.872 0.0
H466 H 0.78352 0.52935 0.85059 0.0
H467 H 0.8008 0.56471 0.96054 0.0
H468 H 0.65511 0.45697 0.86068 0.0
H469 H 0.68893 0.53882 0.13043 0.0
H470 H 0.75378 0.42994 0.85612 0.0
H471 H 0.76431 0.46338 0.80232 0.0
H472 H 0.70953 0.4352 0.77558 0.0
H473 H 0.80251 0.53437 0.17945 0.0
H474 H 0.7627 0.56233 0.20912 0.0
H475 H 0.79888 0.56775 0.12601 0.0
C476 C 0.22931 0.72235 0.07643 0.0
C477 C 0.24664 0.69336 0.08456 0.0
C478 C 0.25411 0.74796 0.04722 0.0
C479 C 0.29695 0.7442 0.02502 0.0
C480 C 0.31463 0.71504 0.03339 0.0
C481 C 0.28923 0.68997 0.06336 0.0
C482 C 0.2344 0.77885 0.03929 0.0
C483 C 0.3602 0.7102 0.0102 0.0
C484 C 0.339 0.78885 0.85558 0.0
C485 C 0.3691 0.81884 0.91734 0.0
C486 C 0.31564 0.76422 0.88983 0.0
C487 C 0.32224 0.7699 0.9884 0.0
C488 C 0.35223 0.80027 0.05148 0.0
C489 C 0.37533 0.82448 0.01511 0.0
C490 C 0.28386 0.73212 0.82042 0.0
C491 C 0.36006 0.80705 0.15709 0.0
H492 H 0.19649 0.72514 0.09372 0.0
H493 H 0.30236 0.66732 0.06866 0.0
H494 H 0.25747 0.80392 0.08289 0.0
H495 H 0.23033 0.77857 0.96474 0.0
H496 H 0.20134 0.77857 0.06254 0.0
H497 H 0.36803 0.68513 0.01592 0.0
H498 H 0.36229 0.71056 0.93728 0.0
H499 H 0.38617 0.73233 0.05952 0.0
H500 H 0.33342 0.78474 0.78014 0.0
H501 H 0.39901 0.8474 0.063 0.0
H502 H 0.24947 0.73172 0.8365 0.0
H503 H 0.29369 0.70783 0.82737 0.0
H504 H 0.28322 0.73137 0.74577 0.0
H505 H 0.32795 0.80782 0.18401 0.0
H506 H 0.38399 0.83223 0.19653 0.0
H507 H 0.37338 0.78525 0.17262 0.0
C508 C 0.61077 0.26931 0.04832 0.0
C509 C 0.58159 0.27915 0.98685 0.0
C510 C 0.60376 0.23485 0.05246 0.0
C511 C 0.56669 0.20914 0.99316 0.0
C512 C 0.53617 0.21915 0.93311 0.0
C513 C 0.54376 0.25407 0.93118 0.0
C514 C 0.63714 0.22567 0.11799 0.0
C515 C 0.49671 0.19249 0.86753 0.0
C516 C 0.58455 0.11485 0.9277 0.0
C517 C 0.5608 0.1012 0.98759 0.0
C518 C 0.58509 0.14922 0.92618 0.0
C519 C 0.56241 0.17133 0.98828 0.0
C520 C 0.53806 0.15771 0.04866 0.0
C521 C 0.53748 0.1228 0.04743 0.0
C522 C 0.61089 0.16205 0.85923 0.0
C523 C 0.51367 0.18033 0.11647 0.0
H524 H 0.6397 0.2886 0.09259 0.0
H525 H 0.52114 0.26133 0.8831 0.0
H526 H 0.61959 0.21229 0.16198 0.0
H527 H 0.65574 0.20712 0.07556 0.0
H528 H 0.66173 0.24927 0.16564 0.0
H529 H 0.4739 0.20487 0.83141 0.0
H530 H 0.50886 0.17265 0.81274 0.0
H531 H 0.47744 0.17814 0.90729 0.0
H532 H 0.60318 0.09864 0.88173 0.0
H533 H 0.52012 0.11286 0.09565 0.0
H534 H 0.64027 0.18296 0.90043 0.0
H535 H 0.58967 0.17373 0.81758 0.0
H536 H 0.62293 0.14058 0.80911 0.0
H537 H 0.53809 0.20281 0.16896 0.0
H538 H 0.4944 0.16539 0.15508 0.0
H539 H 0.49033 0.19144 0.07759 0.0
loop_
_geom_bond_atom_site_label_1
_geom_bond_atom_site_label_2
_geom_bond_distance
_geom_bond_site_symmetry_2
_ccdc_geom_bond_type
Tb0 N29 2.617 1_455 S
Tb0 N35 2.572 1_455 S
Tb0 O44 2.465 1_554 S
Tb0 O45 2.387 1_455 S
Tb0 O47 2.428 . S
Tb0 O48 2.308 1_454 S
Tb0 O52 2.349 . S
Tb0 O55 2.393 . S
Tb0 C64 2.802 . S
C1 N2 1.379 . S
C1 C4 1.416 . S
C1 C8 1.424 . S
N2 C1 1.379 . S
N2 C5 1.334 1_455 S
N2 Tb11 2.617 1_455 S
C3 C5 1.390 1_455 S
C3 C6 1.339 . S
C3 H23 0.930 . S
C4 C1 1.416 . S
C4 C6 1.416 . S
C4 C10 1.448 . S
C5 N2 1.334 1_655 S
C5 C3 1.390 1_655 S
C5 H16 0.930 . S
C6 C3 1.339 . S
C6 C4 1.416 . S
C6 H27 0.930 . S
C7 C8 1.413 . S
C7 C9 1.427 . S
C7 C13 1.416 1_556 S
C8 C1 1.424 . S
C8 C7 1.413 . S
C8 N12 1.361 . S
C9 C7 1.427 . S
C9 C10 1.328 . S
C9 H24 0.929 . S
C10 C4 1.448 . S
C10 C9 1.328 . S
C10 H25 0.930 . S
Tb11 N2 2.617 1_655 S
Tb11 N12 2.572 1_655 S
Tb11 O46 2.349 . S
Tb11 O49 2.393 . S
Tb11 O50 2.465 1_556 S
Tb11 O51 2.387 1_655 S
Tb11 O53 2.428 . S
Tb11 O54 2.308 1_656 S
Tb11 C75 2.802 . S
N12 C8 1.361 . S
N12 Tb11 2.572 1_455 S
N12 C14 1.340 1_556 S
C13 C7 1.416 1_554 S
C13 C15 1.332 . S
C13 H21 0.931 . S
C14 N12 1.340 1_554 S
C14 C15 1.407 . S
C14 H20 0.930 . S
C15 C13 1.332 . S
C15 C14 1.407 . S
C15 H17 0.929 . S
H16 C5 0.930 . S
H17 C15 0.929 . S
H18 C33 0.930 . S
H19 C40 0.929 . S
H20 C14 0.930 . S
H21 C13 0.931 . S
H22 C36 0.930 . S
H23 C3 0.930 . S
H24 C9 0.929 . S
H25 C10 0.930 . S
H26 C31 0.930 . S
H27 C6 0.930 . S
H28 C39 0.931 . S
N29 Tb0 2.617 1_655 S
N29 C30 1.379 . S
N29 C33 1.334 1_655 S
C30 N29 1.379 . S
C30 C32 1.416 . S
C30 C38 1.424 . S
C31 H26 0.930 . S
C31 C33 1.390 1_655 S
C31 C34 1.339 . S
C32 C30 1.416 . S
C32 C34 1.416 . S
C32 C65 1.448 . S
C33 H18 0.930 . S
C33 N29 1.334 1_455 S
C33 C31 1.390 1_455 S
C34 C31 1.339 . S
C34 C32 1.416 . S
C34 H41 0.930 . S
N35 Tb0 2.572 1_655 S
N35 C36 1.340 1_554 S
N35 C38 1.361 . S
C36 H22 0.930 . S
C36 N35 1.340 1_556 S
C36 C40 1.407 . S
C37 C38 1.413 . S
C37 C39 1.416 1_554 S
C37 C66 1.427 . S
C38 C30 1.424 . S
C38 N35 1.361 . S
C38 C37 1.413 . S
C39 H28 0.931 . S
C39 C37 1.416 1_556 S
C39 C40 1.332 . S
C40 H19 0.929 . S
C40 C36 1.407 . S
C40 C39 1.332 . S
H41 C34 0.930 . S
H42 C65 0.930 . S
H43 C66 0.929 . S
O44 Tb0 2.465 1_556 S
O44 C64 1.264 1_556 S
O45 Tb0 2.387 1_655 S
O45 C56 1.264 1_554 S
O46 Tb11 2.349 . S
O46 C56 1.243 . S
O47 Tb0 2.428 . S
O47 C64 1.256 . S
O48 Tb0 2.308 1_656 S
O48 C63 1.266 . S
O49 Tb11 2.393 . S
O49 C63 1.248 . S
O50 Tb11 2.465 1_554 S
O50 C75 1.264 1_554 S
O51 Tb11 2.387 1_455 S
O51 C67 1.264 1_556 S
O52 Tb0 2.349 . S
O52 C67 1.243 . S
O53 Tb11 2.428 . S
O53 C75 1.256 . S
O54 Tb11 2.308 1_454 S
O54 C74 1.266 . S
O55 Tb0 2.393 . S
O55 C74 1.248 . S
C56 O45 1.264 1_556 S
C56 O46 1.243 . S
C57 C60 1.399 . S
C57 C62 1.383 . S
C57 C64 1.496 . S
C58 C59 1.399 . S
C58 C62 1.389 . S
C59 C58 1.399 . S
C59 C61 1.380 . S
C59 H76 0.929 . S
C60 C57 1.399 . S
C60 C61 1.392 . S
C60 H77 0.929 . S
C61 C59 1.380 . S
C61 C60 1.392 . S
C61 H78 0.929 . S
C62 C57 1.383 . S
C62 C58 1.389 . S
C62 H79 0.931 1_554 S
C63 O48 1.266 . S
C63 O49 1.248 . S
C64 Tb0 2.802 . S
C64 O44 1.264 1_554 S
C64 O47 1.256 . S
C64 C57 1.496 . S
C65 C32 1.448 . S
C65 H42 0.930 . S
C65 C66 1.328 . S
C66 C37 1.427 . S
C66 H43 0.929 . S
C66 C65 1.328 . S
C67 O51 1.264 1_554 S
C67 O52 1.243 . S
C68 C71 1.399 . S
C68 C72 1.383 . S
C68 C75 1.496 . S
C69 C70 1.399 . S
C69 C72 1.389 . S
C70 C69 1.399 . S
C70 C73 1.380 . S
C70 H80 0.929 . S
C71 C68 1.399 . S
C71 C73 1.392 . S
C71 H81 0.929 . S
C72 C68 1.383 . S
C72 C69 1.389 . S
C72 H82 0.931 1_556 S
C73 C70 1.380 . S
C73 C71 1.392 . S
C73 H83 0.929 . S
C74 O54 1.266 . S
C74 O55 1.248 . S
C75 Tb11 2.802 . S
C75 O50 1.264 1_556 S
C75 O53 1.256 . S
C75 C68 1.496 . S
H76 C59 0.929 . S
H77 C60 0.929 . S
H78 C61 0.929 . S
H79 C62 0.931 1_556 S
H80 C70 0.929 . S
H81 C71 0.929 . S
H82 C72 0.931 1_554 S
H83 C73 0.929 . S
Tb84 N113 2.617 . S
Tb84 N119 2.572 1_566 S
Tb84 O128 2.465 1_556 S
Tb84 O129 2.387 1_565 S
Tb84 O131 2.428 . S
Tb84 O132 2.308 1_566 S
Tb84 O136 2.349 . S
Tb84 O139 2.393 . S
Tb84 C148 2.802 . S
C85 N86 1.379 1_565 S
C85 C88 1.416 . S
C85 C92 1.424 . S
N86 C85 1.379 1_545 S
N86 C89 1.334 . S
N86 Tb95 2.617 . S
C87 C89 1.390 . S
C87 C90 1.339 1_545 S
C87 H107 0.930 . S
C88 C85 1.416 . S
C88 C90 1.416 . S
C88 C94 1.448 . S
C89 N86 1.334 . S
C89 C87 1.390 . S
C89 H100 0.930 . S
C90 C87 1.339 1_565 S
C90 C88 1.416 . S
C90 H111 0.930 . S
C91 C92 1.413 1_556 S
C91 C93 1.427 1_556 S
C91 C97 1.416 . S
C92 C85 1.424 . S
C92 C91 1.413 1_554 S
C92 N96 1.361 1_554 S
C93 C91 1.427 1_554 S
C93 C94 1.328 . S
C93 H108 0.929 . S
C94 C88 1.448 . S
C94 C93 1.328 . S
C94 H109 0.930 . S
Tb95 N86 2.617 . S
Tb95 N96 2.572 1_544 S
Tb95 O130 2.349 . S
Tb95 O133 2.393 . S
Tb95 O134 2.465 1_554 S
Tb95 O135 2.387 1_545 S
Tb95 O137 2.428 . S
Tb95 O138 2.308 1_544 S
Tb95 C159 2.802 . S
N96 C92 1.361 1_556 S
N96 Tb95 2.572 1_566 S
N96 C98 1.340 . S
C97 C91 1.416 . S
C97 C99 1.332 . S
C97 H105 0.931 . S
C98 N96 1.340 . S
C98 C99 1.407 . S
C98 H104 0.930 . S
C99 C97 1.332 . S
C99 C98 1.407 . S
C99 H101 0.929 . S
H100 C89 0.930 . S
H101 C99 0.929 . S
H102 C117 0.930 . S
H103 C124 0.929 . S
H104 C98 0.930 . S
H105 C97 0.931 . S
H106 C120 0.930 . S
H107 C87 0.930 . S
H108 C93 0.929 . S
H109 C94 0.930 . S
H110 C115 0.930 . S
H111 C90 0.930 . S
H112 C123 0.931 . S
N113 Tb84 2.617 . S
N113 C114 1.379 1_565 S
N113 C117 1.334 . S
C114 N113 1.379 1_545 S
C114 C116 1.416 . S
C114 C122 1.424 . S
C115 H110 0.930 . S
C115 C117 1.390 . S
C115 C118 1.339 1_565 S
C116 C114 1.416 . S
C116 C118 1.416 . S
C116 C149 1.448 . S
C117 H102 0.930 . S
C117 N113 1.334 . S
C117 C115 1.390 . S
C118 C115 1.339 1_545 S
C118 C116 1.416 . S
C118 H125 0.930 . S
N119 Tb84 2.572 1_544 S
N119 C120 1.340 . S
N119 C122 1.361 1_554 S
C120 H106 0.930 . S
C120 N119 1.340 . S
C120 C124 1.407 . S
C121 C122 1.413 1_554 S
C121 C123 1.416 . S
C121 C150 1.427 1_554 S
C122 C114 1.424 . S
C122 N119 1.361 1_556 S
C122 C121 1.413 1_556 S
C123 H112 0.931 . S
C123 C121 1.416 . S
C123 C124 1.332 . S
C124 H103 0.929 . S
C124 C120 1.407 . S
C124 C123 1.332 . S
H125 C118 0.930 . S
H126 C149 0.930 . S
H127 C150 0.929 . S
O128 Tb84 2.465 1_554 S
O128 C148 1.264 1_554 S
O129 Tb84 2.387 1_545 S
O129 C140 1.264 1_556 S
O130 Tb95 2.349 . S
O130 C140 1.243 . S
O131 Tb84 2.428 . S
O131 C148 1.256 . S
O132 Tb84 2.308 1_544 S
O132 C147 1.266 . S
O133 Tb95 2.393 . S
O133 C147 1.248 . S
O134 Tb95 2.465 1_556 S
O134 C159 1.264 1_556 S
O135 Tb95 2.387 1_565 S
O135 C151 1.264 1_554 S
O136 Tb84 2.349 . S
O136 C151 1.243 . S
O137 Tb95 2.428 . S
O137 C159 1.256 . S
O138 Tb95 2.308 1_566 S
O138 C158 1.264 . S
O139 Tb84 2.393 . S
O139 C158 1.248 . S
C140 O129 1.264 1_554 S
C140 O130 1.243 . S
C141 C144 1.399 . S
C141 C146 1.383 1_556 S
C141 C148 1.496 . S
C142 C143 1.399 1_554 S
C142 C146 1.389 . S
C143 C142 1.399 1_556 S
C143 C145 1.380 . S
C143 H160 0.929 . S
C144 C141 1.399 . S
C144 C145 1.392 . S
C144 H161 0.929 . S
C145 C143 1.380 . S
C145 C144 1.392 . S
C145 H162 0.929 . S
C146 C141 1.383 1_554 S
C146 C142 1.389 . S
C146 H163 0.931 . S
C147 O132 1.266 . S
C147 O133 1.248 . S
C148 Tb84 2.802 . S
C148 O128 1.264 1_556 S
C148 O131 1.256 . S
C148 C141 1.496 . S
C149 C116 1.448 . S
C149 H126 0.930 . S
C149 C150 1.328 . S
C150 C121 1.427 1_556 S
C150 H127 0.929 . S
C150 C149 1.328 . S
C151 O135 1.264 1_556 S
C151 O136 1.243 . S
C152 C155 1.399 . S
C152 C156 1.383 1_554 S
C152 C159 1.496 . S
C153 C154 1.399 1_556 S
C153 C156 1.389 . S
C154 C153 1.399 1_554 S
C154 C157 1.380 . S
C154 H164 0.929 . S
C155 C152 1.399 . S
C155 C157 1.392 . S
C155 H165 0.929 . S
C156 C152 1.383 1_556 S
C156 C153 1.389 . S
C156 H166 0.931 . S
C157 C154 1.380 . S
C157 C155 1.392 . S
C157 H167 0.929 . S
C158 O138 1.264 . S
C158 O139 1.248 . S
C159 Tb95 2.802 . S
C159 O134 1.264 1_554 S
C159 O137 1.256 . S
C159 C152 1.496 . S
H160 C143 0.929 . S
H161 C144 0.929 . S
H162 C145 0.929 . S
H163 C146 0.931 . S
H164 C154 0.929 . S
H165 C155 0.929 . S
H166 C156 0.931 . S
H167 C157 0.929 . S
Tb168 N197 2.617 . S
Tb168 N203 2.572 . S
Tb168 O212 2.465 1_556 S
Tb168 O213 2.387 . S
Tb168 O215 2.428 . S
Tb168 O216 2.308 1_556 S
Tb168 O220 2.349 . S
Tb168 O223 2.393 . S
Tb168 C232 2.802 . S
C169 N170 1.379 . S
C169 C172 1.416 . S
C169 C176 1.424 . S
N170 C169 1.379 . S
N170 C173 1.334 . S
N170 Tb179 2.617 . S
C171 C173 1.390 . S
C171 C174 1.339 . S
C171 H191 0.930 . S
C172 C169 1.416 . S
C172 C174 1.416 . S
C172 C178 1.448 . S
C173 N170 1.334 . S
C173 C171 1.390 . S
C173 H184 0.930 . S
C174 C171 1.339 . S
C174 C172 1.416 . S
C174 H195 0.930 . S
C175 C176 1.413 . S
C175 C177 1.427 . S
C175 C181 1.415 1_554 S
C176 C169 1.424 . S
C176 C175 1.413 . S
C176 N180 1.361 . S
C177 C175 1.427 . S
C177 C178 1.328 . S
C177 H192 0.929 . S
C178 C172 1.448 . S
C178 C177 1.328 . S
C178 H193 0.930 . S
Tb179 N170 2.617 . S
Tb179 N180 2.572 . S
Tb179 O214 2.349 . S
Tb179 O217 2.393 . S
Tb179 O218 2.465 1_554 S
Tb179 O219 2.387 . S
Tb179 O221 2.428 . S
Tb179 O222 2.308 1_554 S
Tb179 C243 2.802 . S
N180 C176 1.361 . S
N180 Tb179 2.572 . S
N180 C182 1.340 1_554 S
C181 C175 1.415 1_556 S
C181 C183 1.333 . S
C181 H189 0.931 . S
C182 N180 1.340 1_556 S
C182 C183 1.407 . S
C182 H188 0.930 . S
C183 C181 1.333 . S
C183 C182 1.407 . S
C183 H185 0.929 . S
H184 C173 0.930 . S
H185 C183 0.929 . S
H186 C201 0.930 . S
H187 C208 0.929 . S
H188 C182 0.930 . S
H189 C181 0.931 . S
H190 C204 0.930 . S
H191 C171 0.930 . S
H192 C177 0.929 . S
H193 C178 0.930 . S
H194 C199 0.930 . S
H195 C174 0.930 . S
H196 C207 0.931 . S
N197 Tb168 2.617 . S
N197 C198 1.379 . S
N197 C201 1.334 . S
C198 N197 1.379 . S
C198 C200 1.416 . S
C198 C206 1.424 . S
C199 H194 0.930 . S
C199 C201 1.390 . S
C199 C202 1.339 . S
C200 C198 1.416 . S
C200 C202 1.416 . S
C200 C233 1.448 . S
C201 H186 0.930 . S
C201 N197 1.334 . S
C201 C199 1.390 . S
C202 C199 1.339 . S
C202 C200 1.416 . S
C202 H209 0.930 . S
N203 Tb168 2.572 . S
N203 C204 1.340 1_556 S
N203 C206 1.361 . S
C204 H190 0.930 . S
C204 N203 1.340 1_554 S
C204 C208 1.407 . S
C205 C206 1.413 . S
C205 C207 1.416 1_556 S
C205 C234 1.427 . S
C206 C198 1.424 . S
C206 N203 1.361 . S
C206 C205 1.413 . S
C207 H196 0.931 . S
C207 C205 1.416 1_554 S
C207 C208 1.332 . S
C208 H187 0.929 . S
C208 C204 1.407 . S
C208 C207 1.332 . S
H209 C202 0.930 . S
H210 C233 0.930 . S
H211 C234 0.929 . S
O212 Tb168 2.465 1_554 S
O212 C232 1.264 1_554 S
O213 Tb168 2.387 . S
O213 C224 1.264 . S
O214 Tb179 2.349 . S
O214 C224 1.243 1_554 S
O215 Tb168 2.428 . S
O215 C232 1.256 . S
O216 Tb168 2.308 1_554 S
O216 C231 1.266 . S
O217 Tb179 2.393 . S
O217 C231 1.248 . S
O218 Tb179 2.465 1_556 S
O218 C243 1.264 1_556 S
O219 Tb179 2.387 . S
O219 C235 1.264 . S
O220 Tb168 2.349 . S
O220 C235 1.243 1_556 S
O221 Tb179 2.428 . S
O221 C243 1.256 . S
O222 Tb179 2.308 1_556 S
O222 C242 1.266 . S
O223 Tb168 2.393 . S
O223 C242 1.248 . S
C224 O213 1.264 . S
C224 O214 1.243 1_556 S
C225 C228 1.399 . S
C225 C230 1.374 1_556 S
C225 C232 1.496 . S
C226 C227 1.399 . S
C226 C230 1.391 1_556 S
C227 C226 1.399 . S
C227 C229 1.380 . S
C227 H244 0.929 . S
C228 C225 1.399 . S
C228 C229 1.392 . S
C228 H245 0.929 . S
C229 C227 1.380 . S
C229 C228 1.392 . S
C229 H246 0.929 . S
C230 C225 1.374 1_554 S
C230 C226 1.391 1_554 S
C230 H247 0.938 . S
C231 O216 1.266 . S
C231 O217 1.248 . S
C232 Tb168 2.802 . S
C232 O212 1.264 1_556 S
C232 O215 1.256 . S
C232 C225 1.496 . S
C233 C200 1.448 . S
C233 H210 0.930 . S
C233 C234 1.328 . S
C234 C205 1.427 . S
C234 H211 0.929 . S
C234 C233 1.328 . S
C235 O219 1.264 . S
C235 O220 1.243 1_554 S
C236 C239 1.399 . S
C236 C240 1.389 . S
C236 C243 1.496 . S
C237 C238 1.399 . S
C237 C240 1.388 . S
C238 C237 1.399 . S
C238 C241 1.380 . S
C238 H248 0.929 . S
C239 C236 1.399 . S
C239 C241 1.392 . S
C239 H249 0.929 . S
C240 C236 1.389 . S
C240 C237 1.388 . S
C240 H250 0.926 1_554 S
C241 C238 1.380 . S
C241 C239 1.392 . S
C241 H251 0.929 . S
C242 O222 1.266 . S
C242 O223 1.248 . S
C243 Tb179 2.802 . S
C243 O218 1.264 1_554 S
C243 O221 1.256 . S
C243 C236 1.496 . S
H244 C227 0.929 . S
H245 C228 0.929 . S
H246 C229 0.929 . S
H247 C230 0.938 . S
H248 C238 0.929 . S
H249 C239 0.929 . S
H250 C240 0.926 1_556 S
H251 C241 0.929 . S
C252 C253 1.391 1_455 S
C252 C254 1.394 . S
C252 H268 0.931 . S
C253 C252 1.391 1_655 S
C253 C257 1.376 . S
C254 C252 1.394 . S
C254 C255 1.369 1_455 S
C254 C258 1.531 . S
C255 C254 1.369 1_655 S
C255 C256 1.410 . S
C255 C263 1.503 . S
C256 C255 1.410 . S
C256 C257 1.392 . S
C256 C259 1.511 . S
C257 C253 1.376 . S
C257 C256 1.392 . S
C257 H269 0.929 . S
C258 C254 1.531 . S
C258 H270 0.960 . S
C258 H271 0.962 . S
C258 H272 0.960 . S
C259 C256 1.511 . S
C259 H273 0.961 . S
C259 H274 0.961 . S
C259 H275 0.961 . S
C260 C261 1.370 . S
C260 C262 1.363 . S
C260 H276 0.931 . S
C261 C260 1.370 . S
C261 C265 1.408 1_455 S
C262 C260 1.363 . S
C262 C263 1.370 1_455 S
C262 C266 1.524 . S
C263 C255 1.503 . S
C263 C262 1.370 1_655 S
C263 C264 1.403 . S
C264 C263 1.403 . S
C264 C265 1.404 . S
C264 C267 1.539 . S
C265 C261 1.408 1_655 S
C265 C264 1.404 . S
C265 H277 0.930 . S
C266 C262 1.524 . S
C266 H278 0.956 . S
C266 H279 0.961 . S
C266 H280 0.961 . S
C267 C264 1.539 . S
C267 H281 0.958 . S
C267 H282 0.961 . S
C267 H283 0.960 . S
H268 C252 0.931 . S
H269 C257 0.929 . S
H270 C258 0.960 . S
H271 C258 0.962 . S
H272 C258 0.960 . S
H273 C259 0.961 . S
H274 C259 0.961 . S
H275 C259 0.961 . S
H276 C260 0.931 . S
H277 C265 0.930 . S
H278 C266 0.956 . S
H279 C266 0.961 . S
H280 C266 0.961 . S
H281 C267 0.958 . S
H282 C267 0.961 . S
H283 C267 0.960 . S
C284 C285 1.391 1_565 S
C284 C286 1.394 . S
C284 H300 0.931 . S
C285 C284 1.391 1_545 S
C285 C289 1.376 . S
C286 C284 1.394 . S
C286 C287 1.369 . S
C286 C290 1.531 . S
C287 C286 1.369 . S
C287 C288 1.410 1_565 S
C287 C295 1.503 . S
C288 C287 1.410 1_545 S
C288 C289 1.392 . S
C288 C291 1.511 . S
C289 C285 1.376 . S
C289 C288 1.392 . S
C289 H301 0.929 . S
C290 C286 1.531 . S
C290 H302 0.960 . S
C290 H303 0.962 . S
C290 H304 0.960 . S
C291 C288 1.511 . S
C291 H305 0.961 . S
C291 H306 0.961 . S
C291 H307 0.961 . S
C292 C293 1.370 1_545 S
C292 C294 1.363 . S
C292 H308 0.931 . S
C293 C292 1.370 1_565 S
C293 C297 1.408 . S
C294 C292 1.363 . S
C294 C295 1.370 1_545 S
C294 C298 1.524 . S
C295 C287 1.503 . S
C295 C294 1.370 1_565 S
C295 C296 1.403 . S
C296 C295 1.403 . S
C296 C297 1.404 . S
C296 C299 1.539 . S
C297 C293 1.408 . S
C297 C296 1.404 . S
C297 H309 0.930 . S
C298 C294 1.524 . S
C298 H310 0.956 . S
C298 H311 0.961 . S
C298 H312 0.961 . S
C299 C296 1.539 . S
C299 H313 0.958 . S
C299 H314 0.961 . S
C299 H315 0.960 . S
H300 C284 0.931 . S
H301 C289 0.929 . S
H302 C290 0.960 . S
H303 C290 0.962 . S
H304 C290 0.960 . S
H305 C291 0.961 . S
H306 C291 0.961 . S
H307 C291 0.961 . S
H308 C292 0.931 . S
H309 C297 0.930 . S
H310 C298 0.956 . S
H311 C298 0.961 . S
H312 C298 0.961 . S
H313 C299 0.958 . S
H314 C299 0.961 . S
H315 C299 0.960 . S
C316 C317 1.391 . S
C316 C318 1.394 . S
C316 H332 0.931 . S
C317 C316 1.391 . S
C317 C321 1.376 . S
C318 C316 1.394 . S
C318 C319 1.369 . S
C318 C322 1.531 . S
C319 C318 1.369 . S
C319 C320 1.410 . S
C319 C327 1.503 . S
C320 C319 1.410 . S
C320 C321 1.392 . S
C320 C323 1.511 . S
C321 C317 1.376 . S
C321 C320 1.392 . S
C321 H333 0.929 . S
C322 C318 1.531 . S
C322 H334 0.960 . S
C322 H335 0.962 . S
C322 H336 0.960 . S
C323 C320 1.511 . S
C323 H337 0.961 . S
C323 H338 0.961 . S
C323 H339 0.961 . S
C324 C325 1.370 . S
C324 C326 1.363 . S
C324 H340 0.931 . S
C325 C324 1.370 . S
C325 C329 1.408 . S
C326 C324 1.363 . S
C326 C327 1.370 . S
C326 C330 1.524 . S
C327 C319 1.503 . S
C327 C326 1.370 . S
C327 C328 1.403 . S
C328 C327 1.403 . S
C328 C329 1.404 . S
C328 C331 1.539 . S
C329 C325 1.408 . S
C329 C328 1.404 . S
C329 H341 0.930 . S
C330 C326 1.524 . S
C330 H342 0.956 . S
C330 H343 0.961 . S
C330 H344 0.961 . S
C331 C328 1.539 . S
C331 H345 0.958 . S
C331 H346 0.961 . S
C331 H347 0.960 . S
H332 C316 0.931 . S
H333 C321 0.929 . S
H334 C322 0.960 . S
H335 C322 0.962 . S
H336 C322 0.960 . S
H337 C323 0.961 . S
H338 C323 0.961 . S
H339 C323 0.961 . S
H340 C324 0.931 . S
H341 C329 0.930 . S
H342 C330 0.956 . S
H343 C330 0.961 . S
H344 C330 0.961 . S
H345 C331 0.958 . S
H346 C331 0.961 . S
H347 C331 0.960 . S
C348 C349 1.391 1_556 S
C348 C350 1.394 . S
C348 H364 0.931 . S
C349 C348 1.391 1_554 S
C349 C353 1.376 . S
C350 C348 1.394 . S
C350 C351 1.362 1_556 S
C350 C354 1.531 . S
C351 C350 1.362 1_554 S
C351 C352 1.418 . S
C351 C359 1.502 1_554 S
C352 C351 1.418 . S
C352 C353 1.392 . S
C352 C355 1.511 . S
C353 C349 1.376 . S
C353 C352 1.392 . S
C353 H365 0.929 . S
C354 C350 1.531 . S
C354 H366 0.960 . S
C354 H367 0.962 . S
C354 H368 0.960 . S
C355 C352 1.511 . S
C355 H369 0.961 . S
C355 H370 0.961 . S
C355 H371 0.961 . S
C356 C357 1.370 1_554 S
C356 C358 1.363 . S
C356 H372 0.931 . S
C357 C356 1.370 1_556 S
C357 C361 1.408 . S
C358 C356 1.363 . S
C358 C359 1.370 1_554 S
C358 C362 1.524 . S
C359 C351 1.502 1_556 S
C359 C358 1.370 1_556 S
C359 C360 1.403 . S
C360 C359 1.403 . S
C360 C361 1.404 . S
C360 C363 1.539 . S
C361 C357 1.408 . S
C361 C360 1.404 . S
C361 H373 0.930 . S
C362 C358 1.524 . S
C362 H374 0.956 1_554 S
C362 H375 0.961 . S
C362 H376 0.961 . S
C363 C360 1.539 . S
C363 H377 0.958 . S
C363 H378 0.961 1_556 S
C363 H379 0.960 1_556 S
H364 C348 0.931 . S
H365 C353 0.929 . S
H366 C354 0.960 . S
H367 C354 0.962 . S
H368 C354 0.960 . S
H369 C355 0.961 . S
H370 C355 0.961 . S
H371 C355 0.961 . S
H372 C356 0.931 . S
H373 C361 0.930 . S
H374 C362 0.956 1_556 S
H375 C362 0.961 . S
H376 C362 0.961 . S
H377 C363 0.958 . S
H378 C363 0.961 1_554 S
H379 C363 0.960 1_554 S
C380 C381 1.391 1_554 S
C380 C382 1.394 . S
C380 H396 0.931 . S
C381 C380 1.391 1_556 S
C381 C385 1.376 . S
C382 C380 1.394 . S
C382 C383 1.369 1_554 S
C382 C386 1.531 . S
C383 C382 1.369 1_556 S
C383 C384 1.410 . S
C383 C391 1.503 1_556 S
C384 C383 1.410 . S
C384 C385 1.392 . S
C384 C387 1.511 . S
C385 C381 1.376 . S
C385 C384 1.392 . S
C385 H397 0.929 . S
C386 C382 1.531 . S
C386 H398 0.960 . S
C386 H399 0.962 . S
C386 H400 0.960 . S
C387 C384 1.511 . S
C387 H401 0.961 . S
C387 H402 0.961 . S
C387 H403 0.961 . S
C388 C389 1.370 1_556 S
C388 C390 1.363 . S
C388 H404 0.931 . S
C389 C388 1.370 1_554 S
C389 C393 1.408 . S
C390 C388 1.363 . S
C390 C391 1.370 1_556 S
C390 C394 1.524 . S
C391 C383 1.503 1_554 S
C391 C390 1.370 1_554 S
C391 C392 1.403 . S
C392 C391 1.403 . S
C392 C393 1.404 . S
C392 C395 1.539 . S
C393 C389 1.408 . S
C393 C392 1.404 . S
C393 H405 0.930 . S
C394 C390 1.524 . S
C394 H406 0.956 . S
C394 H407 0.961 . S
C394 H408 0.961 . S
C395 C392 1.539 . S
C395 H409 0.958 . S
C395 H410 0.961 . S
C395 H411 0.960 . S
H396 C380 0.931 . S
H397 C385 0.929 . S
H398 C386 0.960 . S
H399 C386 0.962 . S
H400 C386 0.960 . S
H401 C387 0.961 . S
H402 C387 0.961 . S
H403 C387 0.961 . S
H404 C388 0.931 . S
H405 C393 0.930 . S
H406 C394 0.956 . S
H407 C394 0.961 . S
H408 C394 0.961 . S
H409 C395 0.958 . S
H410 C395 0.961 . S
H411 C395 0.960 . S
C412 C413 1.391 1_554 S
C412 C414 1.394 . S
C412 H428 0.931 . S
C413 C412 1.391 1_556 S
C413 C417 1.376 . S
C414 C412 1.394 . S
C414 C415 1.369 1_554 S
C414 C418 1.531 . S
C415 C414 1.369 1_556 S
C415 C416 1.410 . S
C415 C423 1.503 . S
C416 C415 1.410 . S
C416 C417 1.392 . S
C416 C419 1.511 . S
C417 C413 1.376 . S
C417 C416 1.392 . S
C417 H429 0.929 . S
C418 C414 1.531 . S
C418 H430 0.960 . S
C418 H431 0.962 . S
C418 H432 0.960 . S
C419 C416 1.511 . S
C419 H433 0.961 . S
C419 H434 0.961 . S
C419 H435 0.961 . S
C420 C421 1.370 . S
C420 C422 1.363 . S
C420 H436 0.931 . S
C421 C420 1.370 . S
C421 C425 1.408 1_556 S
C422 C420 1.363 . S
C422 C423 1.370 . S
C422 C426 1.524 . S
C423 C415 1.503 . S
C423 C422 1.370 . S
C423 C424 1.403 1_556 S
C424 C423 1.403 1_554 S
C424 C425 1.404 . S
C424 C427 1.539 . S
C425 C421 1.408 1_554 S
C425 C424 1.404 . S
C425 H437 0.930 . S
C426 C422 1.524 . S
C426 H438 0.956 . S
C426 H439 0.961 . S
C426 H440 0.961 . S
C427 C424 1.539 . S
C427 H441 0.958 . S
C427 H442 0.961 . S
C427 H443 0.960 . S
H428 C412 0.931 . S
H429 C417 0.929 . S
H430 C418 0.960 . S
H431 C418 0.962 . S
H432 C418 0.960 . S
H433 C419 0.961 . S
H434 C419 0.961 . S
H435 C419 0.961 . S
H436 C420 0.931 . S
H437 C425 0.930 . S
H438 C426 0.956 . S
H439 C426 0.961 . S
H440 C426 0.961 . S
H441 C427 0.958 . S
H442 C427 0.961 . S
H443 C427 0.960 . S
C444 C445 1.391 1_554 S
C444 C446 1.394 . S
C444 H460 0.931 . S
C445 C444 1.391 1_556 S
C445 C449 1.376 . S
C446 C444 1.394 . S
C446 C447 1.369 . S
C446 C450 1.531 . S
C447 C446 1.369 . S
C447 C448 1.410 1_554 S
C447 C455 1.503 . S
C448 C447 1.410 1_556 S
C448 C449 1.392 . S
C448 C451 1.511 . S
C449 C445 1.376 . S
C449 C448 1.392 . S
C449 H461 0.929 . S
C450 C446 1.531 . S
C450 H462 0.960 . S
C450 H463 0.962 . S
C450 H464 0.960 . S
C451 C448 1.511 . S
C451 H465 0.961 . S
C451 H466 0.961 . S
C451 H467 0.961 . S
C452 C453 1.370 1_556 S
C452 C454 1.363 . S
C452 H468 0.931 . S
C453 C452 1.370 1_554 S
C453 C457 1.408 . S
C454 C452 1.363 . S
C454 C455 1.370 1_556 S
C454 C458 1.524 . S
C455 C447 1.503 . S
C455 C454 1.370 1_554 S
C455 C456 1.403 . S
C456 C455 1.403 . S
C456 C457 1.404 . S
C456 C459 1.539 . S
C457 C453 1.408 . S
C457 C456 1.404 . S
C457 H469 0.930 . S
C458 C454 1.524 . S
C458 H470 0.956 . S
C458 H471 0.961 . S
C458 H472 0.961 . S
C459 C456 1.539 . S
C459 H473 0.958 . S
C459 H474 0.961 . S
C459 H475 0.960 . S
H460 C444 0.931 . S
H461 C449 0.929 . S
H462 C450 0.960 . S
H463 C450 0.962 . S
H464 C450 0.960 . S
H465 C451 0.961 . S
H466 C451 0.961 . S
H467 C451 0.961 . S
H468 C452 0.931 . S
H469 C457 0.930 . S
H470 C458 0.956 . S
H471 C458 0.961 . S
H472 C458 0.961 . S
H473 C459 0.958 . S
H474 C459 0.961 . S
H475 C459 0.960 . S
C476 C477 1.391 1_554 S
C476 C478 1.394 . S
C476 H492 0.931 . S
C477 C476 1.391 1_556 S
C477 C481 1.376 . S
C478 C476 1.394 . S
C478 C479 1.369 . S
C478 C482 1.531 . S
C479 C478 1.369 . S
C479 C480 1.410 1_554 S
C479 C487 1.503 . S
C480 C479 1.410 1_556 S
C480 C481 1.392 . S
C480 C483 1.511 . S
C481 C477 1.376 . S
C481 C480 1.392 . S
C481 H493 0.929 . S
C482 C478 1.531 . S
C482 H494 0.960 . S
C482 H495 0.962 . S
C482 H496 0.960 . S
C483 C480 1.511 . S
C483 H497 0.961 . S
C483 H498 0.961 . S
C483 H499 0.961 . S
C484 C485 1.370 1_556 S
C484 C486 1.363 . S
C484 H500 0.931 . S
C485 C484 1.370 1_554 S
C485 C489 1.408 . S
C486 C484 1.363 . S
C486 C487 1.370 1_556 S
C486 C490 1.524 . S
C487 C479 1.503 . S
C487 C486 1.370 1_554 S
C487 C488 1.403 . S
C488 C487 1.403 . S
C488 C489 1.404 . S
C488 C491 1.539 . S
C489 C485 1.408 . S
C489 C488 1.404 . S
C489 H501 0.930 . S
C490 C486 1.524 . S
C490 H502 0.956 . S
C490 H503 0.961 . S
C490 H504 0.961 . S
C491 C488 1.539 . S
C491 H505 0.958 . S
C491 H506 0.961 . S
C491 H507 0.960 . S
H492 C476 0.931 . S
H493 C481 0.929 . S
H494 C482 0.960 . S
H495 C482 0.962 . S
H496 C482 0.960 . S
H497 C483 0.961 . S
H498 C483 0.961 . S
H499 C483 0.961 . S
H500 C484 0.931 . S
H501 C489 0.930 . S
H502 C490 0.956 . S
H503 C490 0.961 . S
H504 C490 0.961 . S
H505 C491 0.958 . S
H506 C491 0.961 . S
H507 C491 0.960 . S
C508 C509 1.391 . S
C508 C510 1.394 . S
C508 H524 0.931 . S
C509 C508 1.391 . S
C509 C513 1.376 1_554 S
C510 C508 1.394 . S
C510 C511 1.369 . S
C510 C514 1.531 . S
C511 C510 1.369 . S
C511 C512 1.410 1_554 S
C511 C519 1.503 . S
C512 C511 1.410 1_556 S
C512 C513 1.392 . S
C512 C515 1.511 . S
C513 C509 1.376 1_556 S
C513 C512 1.392 . S
C513 H525 0.929 . S
C514 C510 1.531 . S
C514 H526 0.960 . S
C514 H527 0.962 . S
C514 H528 0.960 . S
C515 C512 1.511 . S
C515 H529 0.961 . S
C515 H530 0.961 . S
C515 H531 0.961 . S
C516 C517 1.370 1_556 S
C516 C518 1.363 . S
C516 H532 0.931 . S
C517 C516 1.370 1_554 S
C517 C521 1.408 . S
C518 C516 1.363 . S
C518 C519 1.370 1_556 S
C518 C522 1.524 . S
C519 C511 1.503 . S
C519 C518 1.370 1_554 S
C519 C520 1.403 . S
C520 C519 1.403 . S
C520 C521 1.404 . S
C520 C523 1.539 . S
C521 C517 1.408 . S
C521 C520 1.404 . S
C521 H533 0.930 . S
C522 C518 1.524 . S
C522 H534 0.956 . S
C522 H535 0.961 . S
C522 H536 0.961 . S
C523 C520 1.539 . S
C523 H537 0.958 . S
C523 H538 0.961 . S
C523 H539 0.960 . S
H524 C508 0.931 . S
H525 C513 0.929 . S
H526 C514 0.960 . S
H527 C514 0.962 . S
H528 C514 0.960 . S
H529 C515 0.961 . S
H530 C515 0.961 . S
H531 C515 0.961 . S
H532 C516 0.931 . S
H533 C521 0.930 . S
H534 C522 0.956 . S
H535 C522 0.961 . S
H536 C522 0.961 . S
H537 C523 0.958 . S
H538 C523 0.961 . S
H539 C523 0.960 . S
C253 C63 1.460 . S
C261 C74 1.492 . S
C285 C147 1.515 . S
C293 C158 1.525 . S
C317 C242 1.481 . S
C325 C231 1.474 . S
C349 C67 2.289 . S
C357 C224 2.321 . S
C381 C153 0.714 . S
C389 C69 0.804 1_554 S
C413 C151 1.584 . S
C421 C237 1.479 1_556 S
C445 C56 2.298 . S
C453 C235 2.316 . S
C477 C58 0.705 1_556 S
C485 C142 0.812 . S
C509 C226 1.505 1_554 S
C517 C140 1.627 . S
