# Generated by pormake.
# Topology wji, (4)-cn, num edge types: 1
# Building blocks:
#     Node 0, Type 0, BuildingBlock: KUFVIS_clean_sbu_0, # of connection points: 4
#     Node 1, Type 0, BuildingBlock: KUFVIS_clean_sbu_0, # of connection points: 4
#     Node 2, Type 0, BuildingBlock: KUFVIS_clean_sbu_0, # of connection points: 4
#     Node 3, Type 0, BuildingBlock: KUFVIS_clean_sbu_0, # of connection points: 4
#     Node 4, Type 0, BuildingBlock: KUFVIS_clean_sbu_0, # of connection points: 4
#     Node 5, Type 0, BuildingBlock: KUFVIS_clean_sbu_0, # of connection points: 4
#     Node 6, Type 0, BuildingBlock: KUFVIS_clean_sbu_0, # of connection points: 4
#     Node 7, Type 0, BuildingBlock: KUFVIS_clean_sbu_0, # of connection points: 4
#     Node 8, Type 0, BuildingBlock: KUFVIS_clean_sbu_0, # of connection points: 4
#     Node 9, Type 0, BuildingBlock: KUFVIS_clean_sbu_0, # of connection points: 4
#     Node 10, Type 0, BuildingBlock: KUFVIS_clean_sbu_0, # of connection points: 4
#     Node 11, Type 0, BuildingBlock: KUFVIS_clean_sbu_0, # of connection points: 4
#     Edge 12, Type (0, 0), BuildingBlock: TEMPAE_clean_linker_10, # of connection points: 2
#     Edge 13, Type (0, 0), BuildingBlock: TEMPAE_clean_linker_10, # of connection points: 2
#     Edge 14, Type (0, 0), BuildingBlock: TEMPAE_clean_linker_10, # of connection points: 2
#     Edge 15, Type (0, 0), BuildingBlock: TEMPAE_clean_linker_10, # of connection points: 2
#     Edge 16, Type (0, 0), BuildingBlock: TEMPAE_clean_linker_10, # of connection points: 2
#     Edge 17, Type (0, 0), BuildingBlock: TEMPAE_clean_linker_10, # of connection points: 2
#     Edge 18, Type (0, 0), BuildingBlock: TEMPAE_clean_linker_10, # of connection points: 2
#     Edge 19, Type (0, 0), BuildingBlock: TEMPAE_clean_linker_10, # of connection points: 2
#     Edge 20, Type (0, 0), BuildingBlock: TEMPAE_clean_linker_10, # of connection points: 2
#     Edge 21, Type (0, 0), BuildingBlock: TEMPAE_clean_linker_10, # of connection points: 2
#     Edge 22, Type (0, 0), BuildingBlock: TEMPAE_clean_linker_10, # of connection points: 2
#     Edge 23, Type (0, 0), BuildingBlock: TEMPAE_clean_linker_10, # of connection points: 2
#     Edge 24, Type (0, 0), BuildingBlock: TEMPAE_clean_linker_10, # of connection points: 2
#     Edge 25, Type (0, 0), BuildingBlock: TEMPAE_clean_linker_10, # of connection points: 2
#     Edge 26, Type (0, 0), BuildingBlock: TEMPAE_clean_linker_10, # of connection points: 2
#     Edge 27, Type (0, 0), BuildingBlock: TEMPAE_clean_linker_10, # of connection points: 2
#     Edge 28, Type (0, 0), BuildingBlock: TEMPAE_clean_linker_10, # of connection points: 2
#     Edge 29, Type (0, 0), BuildingBlock: TEMPAE_clean_linker_10, # of connection points: 2
#     Edge 30, Type (0, 0), BuildingBlock: TEMPAE_clean_linker_10, # of connection points: 2
#     Edge 31, Type (0, 0), BuildingBlock: TEMPAE_clean_linker_10, # of connection points: 2
#     Edge 32, Type (0, 0), BuildingBlock: TEMPAE_clean_linker_10, # of connection points: 2
#     Edge 33, Type (0, 0), BuildingBlock: TEMPAE_clean_linker_10, # of connection points: 2
#     Edge 34, Type (0, 0), BuildingBlock: TEMPAE_clean_linker_10, # of connection points: 2
#     Edge 35, Type (0, 0), BuildingBlock: TEMPAE_clean_linker_10, # of connection points: 2
# Relax obj value: 0.184
# Max RMSD: 0.114
# Mean RMSD: 0.114
data_MOF--net-wji--node1-KUFVIS_clean_sbu_0--edge1-TEMPAE_clean_linker_10
_symmetry_space_group_name_H-M    P1
_symmetry_Int_Tables_number       1
_symmetry_cell_setting            triclinic
loop_
_symmetry_equiv_pos_as_xyz
'x, y, z'
_cell_length_a     57.422798
_cell_length_b     57.427108
_cell_length_c     23.459088
_cell_angle_alpha  90.018258
_cell_angle_beta   89.954012
_cell_angle_gamma 119.99399
loop_
_atom_site_label
_atom_site_type_symbol
_atom_site_fract_x
_atom_site_fract_y
_atom_site_fract_z
_atom_type_partial_charge
Mn0 Mn 0.4224 0.32648 0.43813 0.0
Mn1 Mn 0.43853 0.39167 0.43185 0.0
C2 C 0.39835 0.34172 0.4912 0.0
C3 C 0.42765 0.29228 0.47993 0.0
C4 C 0.4075 0.35143 0.33894 0.0
O5 O 0.46082 0.34487 0.40596 0.0
O6 O 0.46908 0.38758 0.40677 0.0
C7 C 0.48065 0.41369 0.52107 0.0
N8 N 0.45719 0.4103 0.49919 0.0
C9 C 0.45565 0.44027 0.56868 0.0
C10 C 0.47993 0.44433 0.59168 0.0
C11 C 0.49227 0.43066 0.56829 0.0
C12 C 0.44469 0.42262 0.52257 0.0
H13 H 0.49048 0.40366 0.50241 0.0
C14 C 0.4763 0.3701 0.39821 0.0
O15 O 0.41798 0.28981 0.42882 0.0
O16 O 0.43469 0.31472 0.50609 0.0
N17 N 0.411 0.39894 0.45589 0.0
C18 C 0.38701 0.39177 0.43049 0.0
C19 C 0.37173 0.40313 0.44968 0.0
C20 C 0.38155 0.42217 0.49389 0.0
C21 C 0.40622 0.42909 0.51964 0.0
C22 C 0.42033 0.41679 0.4993 0.0
H23 H 0.3798 0.37781 0.39531 0.0
O24 O 0.38771 0.31646 0.47825 0.0
O25 O 0.42254 0.35727 0.47226 0.0
O26 O 0.40674 0.33089 0.36196 0.0
O27 O 0.41918 0.37478 0.36113 0.0
C28 C 0.41746 0.44784 0.56444 0.0
C29 C 0.44196 0.45316 0.58941 0.0
H30 H 0.48926 0.45783 0.6273 0.0
H31 H 0.51086 0.43349 0.58621 0.0
H32 H 0.35266 0.39759 0.42977 0.0
H33 H 0.36986 0.43115 0.50812 0.0
H34 H 0.40737 0.45822 0.58019 0.0
H35 H 0.45018 0.46731 0.62425 0.0
Mn36 Mn 0.10304 0.42608 0.5974 0.0
Mn37 Mn 0.05465 0.44293 0.59168 0.0
C38 C 0.06322 0.4018 0.64898 0.0
C39 C 0.14211 0.43071 0.63978 0.0
C40 C 0.06431 0.41298 0.49697 0.0
O41 O 0.12356 0.46478 0.56652 0.0
O42 O 0.08962 0.47378 0.56964 0.0
C43 C 0.07368 0.48317 0.68457 0.0
N44 N 0.05385 0.46026 0.66037 0.0
C45 C 0.02068 0.45942 0.7241 0.0
C46 C 0.04063 0.48327 0.74922 0.0
C47 C 0.06736 0.49479 0.73038 0.0
C48 C 0.02845 0.44807 0.6806 0.0
H49 H 0.09402 0.49266 0.66849 0.0
C50 C 0.1142 0.4807 0.56064 0.0
O51 O 0.13513 0.42134 0.5884 0.0
O52 O 0.12673 0.43778 0.66593 0.0
N53 N 0.01948 0.41508 0.6128 0.0
C54 C 1.00302 0.39152 0.58552 0.0
C55 C 0.97592 0.37636 0.60199 0.0
C56 C 0.96584 0.38615 0.64463 0.0
C57 C 0.98313 0.41068 0.67141 0.0
C58 C 0.01019 0.42419 0.65519 0.0
H59 H 0.01044 0.38453 0.55108 0.0
O60 O 0.07788 0.39119 0.63619 0.0
O61 O 0.07237 0.42621 0.63131 0.0
O62 O 0.08329 0.41104 0.52076 0.0
O63 O 0.05306 0.42505 0.51929 0.0
C64 C 0.97451 0.42256 0.71275 0.0
C65 C 0.99332 0.44679 0.73949 0.0
H66 H 0.03567 0.493 0.78277 0.0
H67 H 0.08289 0.51292 0.75026 0.0
H68 H 0.96268 0.35754 0.58086 0.0
H69 H 0.94477 0.37476 0.6562 0.0
H70 H 0.95357 0.41289 0.72533 0.0
H71 H 0.98657 0.45542 0.77202 0.0
Mn72 Mn 0.68038 0.10083 0.76903 0.0
Mn73 Mn 0.61481 0.05286 0.76376 0.0
C74 C 0.66443 0.06147 0.82238 0.0
C75 C 0.71525 0.14001 0.81027 0.0
C76 C 0.65445 0.06073 0.67039 0.0
O77 O 0.6627 0.12158 0.73691 0.0
O78 O 0.61976 0.0877 0.73796 0.0
C79 C 0.59533 0.07493 0.85424 0.0
N80 N 0.59695 0.05398 0.8314 0.0
C81 C 0.56645 0.02339 0.90138 0.0
C82 C 0.56406 0.0445 0.92521 0.0
C83 C 0.57901 0.07049 0.90227 0.0
C84 C 0.58376 0.02924 0.8549 0.0
H85 H 0.60637 0.0948 0.83588 0.0
C86 C 0.63754 0.11223 0.72906 0.0
O87 O 0.71738 0.13253 0.75918 0.0
O88 O 0.69279 0.12504 0.83676 0.0
N89 N 0.60642 0.0178 0.78837 0.0
C90 C 0.61257 1.00022 0.76295 0.0
C91 C 0.60009 0.97349 0.78206 0.0
C92 C 0.58097 0.96499 0.82609 0.0
C93 C 0.57509 0.98352 0.8518 0.0
C94 C 0.58851 0.00997 0.83162 0.0
H95 H 0.62652 0.00643 0.72777 0.0
O96 O 0.68971 0.07563 0.8092 0.0
O97 O 0.64933 0.07065 0.80358 0.0
O98 O 0.67524 0.08042 0.69297 0.0
O99 O 0.63115 0.04947 0.69294 0.0
C100 C 0.55633 0.97678 0.8964 0.0
C101 C 0.55235 0.99679 0.92178 0.0
H102 H 0.551 0.04107 0.96135 0.0
H103 H 0.5777 0.08697 0.92122 0.0
H104 H 0.6048 0.95934 0.76215 0.0
H105 H 0.57111 0.94426 0.84022 0.0
H106 H 0.54501 0.95631 0.91185 0.0
H107 H 0.5383 0.99151 0.95667 0.0
Mn108 Mn 0.58484 0.67896 0.93866 0.0
Mn109 Mn 0.56735 0.6135 0.93371 0.0
C110 C 0.60793 0.66273 0.99245 0.0
C111 C 0.58055 0.71386 0.98002 0.0
C112 C 0.59986 0.65319 0.84106 0.0
O113 O 0.54658 0.66144 0.90579 0.0
O114 O 0.53782 0.61861 0.90584 0.0
C115 C 0.52515 0.59459 0.02285 0.0
N116 N 0.54759 0.5957 0.00063 0.0
C117 C 0.54508 0.56277 0.06717 0.0
C118 C 0.52171 0.56091 0.09045 0.0
C119 C 0.51215 0.57746 0.06923 0.0
C120 C 0.55808 0.58143 0.02355 0.0
H121 H 0.51723 0.60656 0.00508 0.0
C122 C 0.53101 0.63634 0.89679 0.0
O123 O 0.59033 0.71607 0.92906 0.0
O124 O 0.57286 0.69131 0.00623 0.0
N125 N 0.59346 0.60467 0.96016 0.0
C126 C 0.61743 0.61065 0.93625 0.0
C127 C 0.63075 0.59716 0.95509 0.0
C128 C 0.61872 0.5769 0.99658 0.0
C129 C 0.59386 0.57089 0.02008 0.0
C130 C 0.58221 0.58588 0.00151 0.0
H131 H 0.62607 0.62526 0.9025 0.0
O132 O 0.61917 0.68803 0.97945 0.0
O133 O 0.58371 0.64784 0.97351 0.0
O134 O 0.60028 0.67383 0.86279 0.0
O135 O 0.58806 0.62996 0.86393 0.0
C136 C 0.57996 0.55037 0.06059 0.0
C137 C 0.5558 0.54662 0.08482 0.0
H138 H 0.51103 0.547 0.12477 0.0
H139 H 0.49449 0.57658 0.08786 0.0
H140 H 0.64987 0.60185 0.93655 0.0
H141 H 0.62871 0.56606 0.01001 0.0
H142 H 0.58811 0.53794 0.07476 0.0
H143 H 0.54566 0.53131 0.11695 0.0
Mn144 Mn 0.90901 0.58334 0.10707 0.0
Mn145 Mn 0.9581 0.56742 0.10087 0.0
C146 C 0.94853 0.60754 0.15961 0.0
C147 C 0.86962 0.57816 0.14935 0.0
C148 C 0.94881 0.59824 0.00766 0.0
O149 O 0.88894 0.54486 0.07517 0.0
O150 O 0.92354 0.53683 0.07581 0.0
C151 C 0.93786 0.52565 0.19084 0.0
N152 N 0.95802 0.54887 0.16834 0.0
C153 C 0.99033 0.54869 0.23299 0.0
C154 C 0.97002 0.52461 0.25664 0.0
C155 C 0.94355 0.51339 0.23637 0.0
C156 C 0.98315 0.56071 0.18991 0.0
H157 H 0.91773 0.51642 0.17371 0.0
C158 C 0.89884 0.52951 0.06724 0.0
O159 O 0.8767 0.58774 0.09812 0.0
O160 O 0.88507 0.57115 0.17532 0.0
N161 N 0.99294 0.59491 0.12472 0.0
C162 C 0.00977 0.6189 0.09934 0.0
C163 C 0.03669 0.63366 0.11708 0.0
C164 C 0.04626 0.62305 0.15896 0.0
C165 C 0.02861 0.59811 0.18382 0.0
C166 C 1.00173 0.585 0.16645 0.0
H167 H 1.00277 0.62652 0.06537 0.0
O168 O 0.9338 0.61807 0.14684 0.0
O169 O 0.9397 0.5833 0.14116 0.0
O170 O 0.92894 0.59888 0.03065 0.0
O171 O 0.96061 0.58673 0.03002 0.0
C172 C 0.03671 0.58546 0.22437 0.0
C173 C 0.01751 0.56093 0.24946 0.0
H174 H 0.97451 0.51453 0.29022 0.0
H175 H 0.92772 0.49503 0.25497 0.0
H176 H 0.0502 0.65282 0.09744 0.0
H177 H 0.06721 0.63415 0.17151 0.0
H178 H 0.05752 0.59479 0.23771 0.0
H179 H 0.02385 0.55169 0.28138 0.0
Mn180 Mn 0.32948 0.90662 0.26895 0.0
Mn181 Mn 0.3948 0.95483 0.26267 0.0
C182 C 0.34542 0.94636 0.32105 0.0
C183 C 0.2949 0.86765 0.31161 0.0
C184 C 0.35499 0.94597 0.1691 0.0
O185 O 0.34732 0.8859 0.23742 0.0
O186 O 0.39022 0.91993 0.23838 0.0
C187 C 0.4155 0.93426 0.3536 0.0
N188 N 0.41296 0.95462 0.33049 0.0
C189 C 0.44551 0.98677 0.39531 0.0
C190 C 0.44878 0.96626 0.41949 0.0
C191 C 0.43322 0.93977 0.39948 0.0
C192 C 0.42652 0.97978 0.35184 0.0
H193 H 0.40432 0.91409 0.33673 0.0
C194 C 0.37252 0.89532 0.22985 0.0
O195 O 0.29251 0.87469 0.26028 0.0
O196 O 0.31745 0.8829 0.33746 0.0
N197 N 0.40269 0.98993 0.28587 0.0
C198 C 0.39589 0.00694 0.26008 0.0
C199 C 0.40832 0.03391 0.27764 0.0
C200 C 0.42836 0.04331 0.31981 0.0
C201 C 0.43526 0.02546 0.34513 0.0
C202 C 0.42125 0.99856 0.32786 0.0
H203 H 0.38136 1.00005 0.22593 0.0
O204 O 0.32012 0.93196 0.30837 0.0
O205 O 0.36048 0.93708 0.30278 0.0
O206 O 0.33424 0.9265 0.19234 0.0
O207 O 0.3783 0.95741 0.19142 0.0
C208 C 0.4558 0.03335 0.3861 0.0
C209 C 0.46069 0.01395 0.41168 0.0
H210 H 0.46319 0.97058 0.45332 0.0
H211 H 0.43533 0.92379 0.41858 0.0
H212 H 0.40298 0.04758 0.25766 0.0
H213 H 0.4384 0.06428 0.33224 0.0
H214 H 0.46746 0.05416 0.39937 0.0
H215 H 0.47609 0.02012 0.44396 0.0
Mn216 Mn 0.67816 0.57896 0.39792 0.0
Mn217 Mn 0.61234 0.5604 0.40219 0.0
C218 C 0.66212 0.60254 0.3457 0.0
C219 C 0.71336 0.57523 0.35641 0.0
C220 C 0.65117 0.59114 0.4975 0.0
O221 O 0.66058 0.54028 0.429 0.0
O222 O 0.61732 0.53022 0.42511 0.0
C223 C 0.59353 0.52061 0.30841 0.0
N224 N 0.59502 0.54276 0.33316 0.0
C225 C 0.56454 0.54381 0.26453 0.0
C226 C 0.56225 0.52071 0.23879 0.0
C227 C 0.57726 0.50941 0.26009 0.0
C228 C 0.58179 0.55459 0.31127 0.0
H229 H 0.60457 0.51154 0.32564 0.0
C230 C 0.63537 0.52394 0.43481 0.0
O231 O 0.71527 0.58449 0.40778 0.0
O232 O 0.69095 0.56776 0.32983 0.0
N233 N 0.60406 0.58748 0.38031 0.0
C234 C 0.61022 0.61083 0.40746 0.0
C235 C 0.59794 0.62549 0.38972 0.0
C236 C 0.57895 0.61557 0.3454 0.0
C237 C 0.57298 0.59148 0.31811 0.0
C238 C 0.58636 0.57816 0.33665 0.0
H239 H 0.62408 0.618 0.44287 0.0
O240 O 0.68739 0.61372 0.35891 0.0
O241 O 0.64714 0.57806 0.36349 0.0
O242 O 0.67247 0.59365 0.47422 0.0
O243 O 0.62796 0.57854 0.47475 0.0
C244 C 0.55415 0.58002 0.27353 0.0
C245 C 0.5503 0.55649 0.24604 0.0
H246 H 0.54915 0.51152 0.20257 0.0
H247 H 0.57593 0.49186 0.23984 0.0
H248 H 0.60268 0.64408 0.41092 0.0
H249 H 0.5692 0.62671 0.3324 0.0
H250 H 0.54278 0.58936 0.2595 0.0
H251 H 0.53626 0.54826 0.21099 0.0
Mn252 Mn 0.10184 0.67952 0.56528 0.0
Mn253 Mn 0.05386 0.614 0.572 0.0
C254 C 0.06209 0.66361 0.51366 0.0
C255 C 0.14078 0.71406 0.52245 0.0
C256 C 0.06299 0.65382 0.66588 0.0
O257 O 0.12266 0.66172 0.59642 0.0
O258 O 0.08896 0.61866 0.59476 0.0
C259 C 0.07386 0.59344 0.47954 0.0
N260 N 0.0536 0.59585 0.50371 0.0
C261 C 0.02166 0.56555 0.43536 0.0
C262 C 0.04205 0.56232 0.41029 0.0
C263 C 0.06836 0.57676 0.43175 0.0
C264 C 0.02851 0.58304 0.4818 0.0
H265 H 0.09398 0.60408 0.49677 0.0
C266 C 0.11351 0.63652 0.60325 0.0
O267 O 0.13379 0.71648 0.57384 0.0
O268 O 0.12547 0.69152 0.4966 0.0
N269 N 0.01863 0.60618 0.55019 0.0
C270 C 1.00184 0.61304 0.57688 0.0
C271 C 0.97498 0.60135 0.55893 0.0
C272 C 0.96556 0.58228 0.51474 0.0
C273 C 0.98328 0.57562 0.48783 0.0
C274 C 0.00992 0.58834 0.50674 0.0
H275 H 0.00879 0.62704 0.61205 0.0
O276 O 0.07647 0.68894 0.52625 0.0
O277 O 0.07132 0.64847 0.53194 0.0
O278 O 0.082 0.67472 0.64201 0.0
O279 O 0.05184 0.63043 0.64386 0.0
C280 C 0.97556 0.55676 0.44317 0.0
C281 C 0.99482 0.55207 0.41632 0.0
H282 H 0.03778 0.54892 0.37446 0.0
H283 H 0.08427 0.57475 0.41186 0.0
H284 H 0.96146 0.60665 0.57979 0.0
H285 H 0.94474 0.57304 0.50149 0.0
H286 H 0.95488 0.54592 0.42881 0.0
H287 H 0.98877 0.538 0.38125 0.0
Mn288 Mn 0.42632 0.09982 0.72763 0.0
Mn289 Mn 0.44466 0.0524 0.73291 0.0
C290 C 0.40295 0.06026 0.6751 0.0
C291 C 0.43017 0.13873 0.68599 0.0
C292 C 0.41339 0.06046 0.82716 0.0
O293 O 0.4649 0.12093 0.75899 0.0
O294 O 0.47468 0.08752 0.75683 0.0
C295 C 0.48545 0.07366 0.64092 0.0
N296 N 0.46295 0.05297 0.66459 0.0
C297 C 0.46217 0.02181 0.59521 0.0
C298 C 0.48559 0.04266 0.57056 0.0
C299 C 0.49696 0.0688 0.59282 0.0
C300 C 0.45114 0.02804 0.64191 0.0
H301 H 0.49454 0.09366 0.65876 0.0
C302 C 0.4811 0.11196 0.76578 0.0
O303 O 0.42077 0.13138 0.73727 0.0
O304 O 0.43771 0.12379 0.65955 0.0
N305 N 0.41776 0.01714 0.70999 0.0
C306 C 0.39419 0.99984 0.73633 0.0
C307 C 0.37958 0.97303 0.7178 0.0
C308 C 0.3897 0.96419 0.6734 0.0
C309 C 0.41397 0.98243 0.64682 0.0
C310 C 0.42733 0.00898 0.66635 0.0
H311 H 0.38681 0.00635 0.7717 0.0
O312 O 0.3917 0.07431 0.68824 0.0
O313 O 0.42735 0.0697 0.6934 0.0
O314 O 0.41142 0.07955 0.80395 0.0
O315 O 0.4258 0.04957 0.8047 0.0
C316 C 0.42553 0.97532 0.60192 0.0
C317 C 0.44936 0.99508 0.57552 0.0
H318 H 0.49496 0.0389 0.5344 0.0
H319 H 0.51474 0.08506 0.57333 0.0
H320 H 0.36083 0.9591 0.73839 0.0
H321 H 0.37856 0.9434 0.65971 0.0
H322 H 0.41614 0.95474 0.58703 0.0
H323 H 0.45773 0.98949 0.54033 0.0
Mn324 Mn 0.32882 0.42484 0.89633 0.0
Mn325 Mn 0.39349 0.4397 0.90365 0.0
C326 C 0.34336 0.39932 0.84632 0.0
C327 C 0.29508 0.43021 0.85253 0.0
C328 C 0.35323 0.41106 0.99808 0.0
O329 O 0.34794 0.46378 0.92565 0.0
O330 O 0.3904 0.47129 0.92475 0.0
C331 C 0.417 0.48023 0.81161 0.0
N332 N 0.41235 0.45663 0.83525 0.0
C333 C 0.44436 0.45441 0.77276 0.0
C334 C 0.44972 0.47882 0.74804 0.0
C335 C 0.43555 0.49149 0.76671 0.0
C336 C 0.4248 0.44356 0.81555 0.0
H337 H 0.40699 0.4906 0.82758 0.0
C338 C 0.37328 0.47906 0.93223 0.0
O339 O 0.29247 0.42135 0.90444 0.0
O340 O 0.31741 0.43644 0.82675 0.0
N341 N 0.3997 0.41102 0.88341 0.0
C342 C 0.39174 0.38736 0.91109 0.0
C343 C 0.4028 0.37134 0.89518 0.0
C344 C 0.42271 0.38037 0.85271 0.0
C345 C 0.4309 0.40504 0.82559 0.0
C346 C 0.41815 0.41943 0.84118 0.0
H347 H 0.37727 0.38091 0.94538 0.0
O348 O 0.31817 0.38945 0.85914 0.0
O349 O 0.35919 0.42375 0.8633 0.0
O350 O 0.33277 0.40997 0.97393 0.0
O351 O 0.37656 0.42221 0.97589 0.0
C352 C 0.45162 0.41623 0.78462 0.0
C353 C 0.4582 0.44079 0.7579 0.0
H354 H 0.46483 0.48816 0.7151 0.0
H355 H 0.43946 0.51023 0.74753 0.0
H356 H 0.3965 0.35243 0.91662 0.0
H357 H 0.43173 0.36831 0.8416 0.0
H358 H 0.46224 0.40583 0.77247 0.0
H359 H 0.47387 0.44897 0.72589 0.0
Mn360 Mn 0.9103 0.32894 0.05665 0.0
Mn361 Mn 0.95913 0.39419 0.06304 0.0
C362 C 0.9496 0.34444 0.00338 0.0
C363 C 0.8709 0.29458 0.015 0.0
C364 C 0.9504 0.35392 0.15549 0.0
O365 O 0.8901 0.34711 0.08919 0.0
O366 O 0.92452 0.38981 0.08917 0.0
C367 C 0.938 0.4153 0.97408 0.0
N368 N 0.9585 0.41265 0.99598 0.0
C369 C 0.98946 0.44291 0.92612 0.0
C370 C 0.96879 0.44628 0.90318 0.0
C371 C 0.94284 0.43204 0.92663 0.0
C372 C 0.98324 0.42535 0.97224 0.0
H373 H 0.91816 0.40481 0.9928 0.0
C374 C 0.89986 0.37228 0.09771 0.0
O375 O 0.87821 0.29217 0.06605 0.0
O376 O 0.88615 0.31705 0.98881 0.0
N377 N 0.99398 0.40193 0.03817 0.0
C378 C 0.01118 0.39517 0.06318 0.0
C379 C 0.03784 0.40707 0.0438 0.0
C380 C 0.04667 0.42623 -0.00015 0.0
C381 C 0.02852 0.43273 0.9745 0.0
C382 C 1.00212 0.4199 0.99502 0.0
H383 H 0.00473 0.38116 0.09824 0.0
O384 O 0.9351 0.31915 0.01623 0.0
O385 O 0.94082 0.35984 0.0225 0.0
O386 O 0.93047 0.33343 0.1327 0.0
O387 O 0.96209 0.37728 0.13331 0.0
C388 C 0.03561 0.45154 0.92994 0.0
C389 C 0.016 0.45632 0.90523 0.0
H390 H 0.97257 0.45962 0.86743 0.0
H391 H 0.92671 0.43422 0.90855 0.0
H392 H 0.05169 0.40187 0.06341 0.0
H393 H 0.06735 0.43564 0.98549 0.0
H394 H 0.05605 0.46235 0.91412 0.0
H395 H 0.02156 0.47047 0.8705 0.0
Mn396 Mn 0.58364 0.90736 0.2281 0.0
Mn397 Mn 0.56513 0.95455 0.23313 0.0
C398 C 0.60707 0.94716 0.17612 0.0
C399 C 0.57998 0.86859 0.18596 0.0
C400 C 0.59595 0.94632 0.32801 0.0
O401 O 0.54499 0.88609 0.25916 0.0
O402 O 0.53497 0.91933 0.25615 0.0
C403 C 0.52482 0.93382 0.14038 0.0
N404 N 0.54732 0.9543 0.16442 0.0
C405 C 0.54698 0.98644 0.09948 0.0
C406 C 0.52354 0.9658 0.07442 0.0
C407 C 0.51282 0.93927 0.09401 0.0
C408 C 0.55879 0.97954 0.1435 0.0
H409 H 0.51596 0.9136 0.15695 0.0
C410 C 0.52865 0.89493 0.26537 0.0
O411 O 0.58927 0.87581 0.23734 0.0
O412 O 0.57247 0.88358 0.15973 0.0
N413 N 0.59218 0.9899 0.21108 0.0
C414 C 0.61566 0.00705 0.23787 0.0
C415 C 0.63006 0.0341 0.22076 0.0
C416 C 0.61961 0.04341 0.17797 0.0
C417 C 0.59521 0.02541 0.15161 0.0
C418 C 0.58247 0.99846 0.16851 0.0
H419 H 0.62313 1.0002 0.27245 0.0
O420 O 0.6183 0.93309 0.18907 0.0
O421 O 0.58259 0.93746 0.19391 0.0
O422 O 0.5983 0.92748 0.30463 0.0
O423 O 0.58347 0.95709 0.30541 0.0
C424 C 0.58273 0.03318 0.10999 0.0
C425 C 0.55878 0.01366 0.08349 0.0
H426 H 0.51355 0.97004 0.04026 0.0
H427 H 0.49501 0.92319 0.07425 0.0
H428 H 0.6488 0.04788 0.24153 0.0
H429 H 0.63041 0.06443 0.16589 0.0
H430 H 0.59174 0.05402 0.09698 0.0
H431 H 0.54968 0.01977 0.05076 0.0
C432 C 0.36393 0.41231 0.10066 0.0
C433 C 0.35042 0.39716 0.05259 0.0
C434 C 0.36866 0.40026 0.14799 0.0
C435 C 0.36033 0.37248 0.1465 0.0
C436 C 0.34535 0.35681 0.09917 0.0
C437 C 0.3405 0.36936 0.05275 0.0
C438 C 0.38425 0.4177 0.19791 0.0
C439 C 0.3363 0.32726 0.09546 0.0
C440 C 0.40704 0.35781 0.23448 0.0
C441 C 0.3928 0.34876 0.28568 0.0
C442 C 0.39575 0.36356 0.18713 0.0
C443 C 0.36986 0.36085 0.19174 0.0
C444 C 0.35477 0.35007 0.24238 0.0
C445 C 0.36643 0.34409 0.28874 0.0
C446 C 0.41241 0.37454 0.13371 0.0
C447 C 0.32726 0.34702 0.24946 0.0
H448 H 0.37211 0.4339 0.0999 0.0
H449 H 0.33073 0.3578 0.0148 0.0
H450 H 0.3741 0.40818 0.23861 0.0
H451 H 0.40458 0.41991 0.19893 0.0
H452 H 0.38655 0.43807 0.19543 0.0
H453 H 0.32157 0.31716 0.06052 0.0
H454 H 0.35401 0.32481 0.08742 0.0
H455 H 0.32713 0.31696 0.13624 0.0
H456 H 0.42765 0.36198 0.23262 0.0
H457 H 0.35566 0.33764 0.32887 0.0
H458 H 0.41918 0.39626 0.12964 0.0
H459 H 0.40023 0.36427 0.09544 0.0
H460 H 0.43045 0.37214 0.13415 0.0
H461 H 0.32936 0.36718 0.25485 0.0
H462 H 0.31655 0.3346 0.28726 0.0
H463 H 0.31477 0.33775 0.211 0.0
C464 C 0.05369 0.4147 0.39534 0.0
C465 C 0.05277 0.39932 0.44244 0.0
C466 C 0.0369 0.40272 0.34804 0.0
C467 C 0.01814 0.37474 0.34856 0.0
C468 C 0.01811 0.3589 0.39495 0.0
C469 C 0.03555 0.37141 0.44136 0.0
C470 C 0.03804 0.42036 0.29914 0.0
C471 C 0.99835 0.32913 0.39758 0.0
C472 C 0.95656 0.35906 0.26034 0.0
C473 C 0.96251 0.35114 0.20852 0.0
C474 C 0.97342 0.36467 0.30795 0.0
C475 C 0.99715 0.36294 0.30302 0.0
C476 C 1.00223 0.35323 0.2517 0.0
C477 C 0.98478 0.34739 0.20506 0.0
C478 C 0.96695 0.37451 0.36208 0.0
C479 C 0.02727 0.35123 0.24427 0.0
H480 H 0.06664 0.43636 0.39679 0.0
H481 H 0.03431 0.35965 0.47859 0.0
H482 H 0.03922 0.41155 0.25789 0.0
H483 H 0.0194 0.42166 0.29857 0.0
H484 H 0.05555 0.44106 0.30244 0.0
H485 H 1.00341 0.31908 0.43193 0.0
H486 H 0.97791 0.3259 0.40585 0.0
H487 H 0.99764 0.31936 0.35631 0.0
H488 H 0.93964 0.3625 0.26256 0.0
H489 H 0.98963 0.34175 0.16453 0.0
H490 H 0.98123 0.39634 0.36721 0.0
H491 H 0.96926 0.36414 0.39971 0.0
H492 H 0.94618 0.37125 0.36175 0.0
H493 H 0.04494 0.37174 0.23998 0.0
H494 H 0.02619 0.33948 0.20574 0.0
H495 H 0.03071 0.34177 0.28212 0.0
C496 C 0.63728 0.97583 0.38372 0.0
C497 C 0.60945 0.95817 0.38254 0.0
C498 C 0.64951 0.99329 0.43026 0.0
C499 C 0.63347 0.99286 0.47669 0.0
C500 C 0.60558 0.97374 0.47703 0.0
C501 C 0.59388 0.95692 0.42961 0.0
C502 C 0.67918 0.01346 0.42779 0.0
C503 C 0.58773 0.97217 0.52594 0.0
C504 C 0.66073 0.02624 0.62038 0.0
C505 C 0.65679 0.04839 0.6172 0.0
C506 C 0.65489 0.0088 0.57366 0.0
C507 C 0.64495 0.01375 0.52255 0.0
C508 C 0.64287 0.03729 0.51799 0.0
C509 C 0.6485 0.05415 0.56566 0.0
C510 C 0.65724 0.98394 0.58072 0.0
C511 C 0.63275 0.04361 0.46413 0.0
H512 H 0.64918 0.97732 0.34653 0.0
H513 H 0.57227 0.94364 0.42808 0.0
H514 H 0.68204 0.03381 0.42026 0.0
H515 H 0.68901 0.0141 0.46891 0.0
H516 H 0.68944 0.00886 0.39308 0.0
H517 H 0.56717 0.95445 0.52245 0.0
H518 H 0.59659 0.97107 0.56716 0.0
H519 H 0.58607 0.9906 0.52674 0.0
H520 H 0.66661 0.0215 0.66073 0.0
H521 H 0.6449 0.07095 0.56367 0.0
H522 H 0.66694 0.98082 0.54286 0.0
H523 H 0.63683 0.96609 0.58461 0.0
H524 H 0.66895 0.98504 0.61932 0.0
H525 H 0.64324 0.04162 0.42631 0.0
H526 H 0.63562 0.06423 0.46478 0.0
H527 H 0.61098 0.02904 0.45903 0.0
C528 C 0.63569 0.58924 0.59681 0.0
C529 C 0.65265 0.6045 0.55218 0.0
C530 C 0.63142 0.60162 0.6441 0.0
C531 C 0.64384 0.63004 0.64611 0.0
C532 C 0.66193 0.64562 0.60216 0.0
C533 C 0.66625 0.63262 0.55574 0.0
C534 C 0.61244 0.58416 0.69046 0.0
C535 C 0.67531 0.67588 0.60221 0.0
C536 C 0.60203 0.6508 0.73548 0.0
C537 C 0.61489 0.65563 0.78833 0.0
C538 C 0.61263 0.64476 0.68723 0.0
C539 C 0.63627 0.64289 0.69252 0.0
C540 C 0.65029 0.64968 0.74504 0.0
C541 C 0.63946 0.65609 0.79225 0.0
C542 C 0.5973 0.6382 0.63181 0.0
C543 C 0.67539 0.64781 0.75293 0.0
H544 H 0.62487 0.56748 0.59353 0.0
H545 H 0.67881 0.6444 0.52042 0.0
H546 H 0.62198 0.59097 0.73291 0.0
H547 H 0.59407 0.58593 0.69006 0.0
H548 H 0.60635 0.56263 0.68507 0.0
H549 H 0.69134 0.68516 0.56935 0.0
H550 H 0.66004 0.68187 0.59352 0.0
H551 H 0.68418 0.68413 0.64457 0.0
H552 H 0.5828 0.65001 0.73273 0.0
H553 H 0.64931 0.65969 0.83332 0.0
H554 H 0.58707 0.61619 0.62424 0.0
H555 H 0.61122 0.6482 0.59558 0.0
H556 H 0.58186 0.64446 0.63217 0.0
H557 H 0.66985 0.62633 0.75443 0.0
H558 H 0.68608 0.65761 0.79305 0.0
H559 H 0.68937 0.65719 0.71655 0.0
C560 C 0.03293 0.66535 0.72014 0.0
C561 C 0.05128 0.65601 0.72015 0.0
C562 C 0.01541 0.66019 0.76655 0.0
C563 C 0.01646 0.64548 0.81405 0.0
C564 C 0.0363 0.63767 0.8156 0.0
C565 C 0.05319 0.6427 0.7683 0.0
C566 C 0.99449 0.66868 0.76279 0.0
C567 C 0.03853 0.62236 0.86566 0.0
C568 C 0.98216 0.63931 0.95671 0.0
C569 C 0.9607 0.61281 0.95415 0.0
C570 C 0.99962 0.65101 0.91003 0.0
C571 C 0.9954 0.63581 0.8596 0.0
C572 C 0.97247 0.60973 0.85555 0.0
C573 C 0.95559 0.59842 0.90318 0.0
C574 C 0.02381 0.67873 0.91651 0.0
C575 C 0.9669 0.59292 0.80242 0.0
H576 H 0.03093 0.67496 0.68213 0.0
H577 H 0.067 0.63499 0.76769 0.0
H578 H 0.97447 0.6507 0.75537 0.0
H579 H 0.99332 0.67798 0.80336 0.0
H580 H 0.99872 0.68315 0.72746 0.0
H581 H 0.05676 0.62035 0.86306 0.0
H582 H 0.0391 0.63256 0.90624 0.0
H583 H 0.02059 0.60192 0.86706 0.0
H584 H 0.98645 0.65019 0.99667 0.0
H585 H 0.93934 0.57772 0.9017 0.0
H586 H 0.02667 0.69104 0.87792 0.0
H587 H 0.0421 0.67701 0.92159 0.0
H588 H 0.02203 0.68943 0.95427 0.0
H589 H 0.96851 0.60488 0.76396 0.0
H590 H 0.94662 0.57468 0.80328 0.0
H591 H 0.98211 0.58648 0.79834 0.0
C592 C 0.41452 0.05099 0.92988 0.0
C593 C 0.39939 0.04839 0.88114 0.0
C594 C 0.40279 0.03407 0.97721 0.0
C595 C 0.3754 0.01353 0.97507 0.0
C596 C 0.35971 0.01174 0.92687 0.0
C597 C 0.37191 0.02928 0.88046 0.0
C598 C 0.42023 0.03707 0.02798 0.0
C599 C 0.33059 0.99006 0.92245 0.0
C600 C 0.36286 0.95331 0.06503 0.0
C601 C 0.35262 0.95786 0.11531 0.0
C602 C 0.36843 0.97016 0.01739 0.0
C603 C 0.36431 0.99251 0.02072 0.0
C604 C 0.35249 0.99621 0.07044 0.0
C605 C 0.34675 0.97878 0.11717 0.0
C606 C 0.3806 0.96515 0.96502 0.0
C607 C 0.34795 0.01981 0.07615 0.0
H608 H 0.4359 0.06539 0.9298 0.0
H609 H 0.36041 0.02679 0.84201 0.0
H610 H 0.41009 0.03729 0.0681 0.0
H611 H 0.42353 0.01963 0.03003 0.0
H612 H 0.44013 0.05576 0.02576 0.0
H613 H 0.32025 0.99364 0.88638 0.0
H614 H 0.32936 0.97034 0.91588 0.0
H615 H 0.31968 0.98868 0.9625 0.0
H616 H 0.36796 0.93751 0.06415 0.0
H617 H 0.33948 0.98269 0.15667 0.0
H618 H 0.40207 0.98095 0.9616 0.0
H619 H 0.3703 0.96625 0.92599 0.0
H620 H 0.37939 0.94524 0.96636 0.0
H621 H 0.3676 0.0385 0.0816 0.0
H622 H 0.33506 0.01764 0.11341 0.0
H623 H 0.33848 0.02221 0.03708 0.0
C624 C 0.60274 0.48229 0.48297 0.0
C625 C 0.62478 0.49508 0.44608 0.0
C626 C 0.58291 0.4554 0.47452 0.0
C627 C 0.5856 0.44075 0.42881 0.0
C628 C 0.61023 0.45218 0.39834 0.0
C629 C 0.62951 0.47951 0.40676 0.0
C630 C 0.55728 0.44431 0.50879 0.0
C631 C 0.61491 0.43669 0.35229 0.0
C632 C 0.52066 0.37397 0.42116 0.0
C633 C 0.50535 0.38143 0.38721 0.0
C634 C 0.54839 0.39183 0.42943 0.0
C635 C 0.56058 0.41778 0.40441 0.0
C636 C 0.54581 0.42365 0.36415 0.0
C637 C 0.51854 0.4052 0.35545 0.0
C638 C 0.56372 0.38385 0.46943 0.0
C639 C 0.5576 0.45086 0.33601 0.0
H640 H 0.59919 0.49434 0.51362 0.0
H641 H 0.64659 0.48926 0.37815 0.0
H642 H 0.54108 0.44345 0.4815 0.0
H643 H 0.55073 0.42362 0.52357 0.0
H644 H 0.55961 0.45695 0.54659 0.0
H645 H 0.60383 0.41476 0.3612 0.0
H646 H 0.60784 0.44013 0.31085 0.0
H647 H 0.63668 0.44361 0.34798 0.0
H648 H 0.51062 0.35552 0.4457 0.0
H649 H 0.50675 0.41081 0.32862 0.0
H650 H 0.56059 0.38821 0.51395 0.0
H651 H 0.58561 0.395 0.46023 0.0
H652 H 0.55623 0.36192 0.46643 0.0
H653 H 0.56148 0.46636 0.36874 0.0
H654 H 0.54395 0.4515 0.30331 0.0
H655 H 0.57701 0.4563 0.31533 0.0
C656 C 0.15373 0.525 0.58723 0.0
C657 C 0.13213 0.50974 0.55037 0.0
C658 C 0.16271 0.55251 0.59638 0.0
C659 C 0.14917 0.56446 0.56935 0.0
C660 C 0.13011 0.54994 0.52609 0.0
C661 C 0.12218 0.52291 0.51663 0.0
C662 C 0.18459 0.56774 0.6395 0.0
C663 C 0.11497 0.56146 0.49569 0.0
C664 C 0.12199 0.6027 0.64767 0.0
C665 C 0.13169 0.62571 0.61362 0.0
C666 C 0.13014 0.58375 0.63834 0.0
C667 C 0.14913 0.58833 0.59485 0.0
C668 C 0.16245 0.61376 0.5675 0.0
C669 C 0.15327 0.63213 0.57658 0.0
C670 C 0.1153 0.55718 0.66917 0.0
C671 C 0.18427 0.62046 0.52414 0.0
H672 H 0.16165 0.51497 0.61333 0.0
H673 H 0.10565 0.51113 0.48771 0.0
H674 H 0.19516 0.58972 0.63137 0.0
H675 H 0.17571 0.56396 0.68285 0.0
H676 H 0.19948 0.56075 0.63892 0.0
H677 H 0.10265 0.54845 0.45994 0.0
H678 H 0.10136 0.5635 0.52632 0.0
H679 H 0.12902 0.5817 0.47851 0.0
H680 H 0.10548 0.59788 0.67676 0.0
H681 H 0.161 0.65 0.55025 0.0
H682 H 0.12953 0.5512 0.68617 0.0
H683 H 0.10165 0.54136 0.63888 0.0
H684 H 0.10306 0.55788 0.70511 0.0
H685 H 0.19515 0.60937 0.53261 0.0
H686 H 0.19891 0.64239 0.524 0.0
H687 H 0.17527 0.61494 0.48097 0.0
C688 C 0.52528 0.1516 0.73927 0.0
C689 C 0.51 0.13026 0.77673 0.0
C690 C 0.55284 0.16066 0.73066 0.0
C691 C 0.56484 0.14745 0.7589 0.0
C692 C 0.55028 0.12872 0.80268 0.0
C693 C 0.52319 0.12072 0.81157 0.0
C694 C 0.5681 0.18221 0.68687 0.0
C695 C 0.56185 0.11395 0.83434 0.0
C696 C 0.6036 0.12009 0.68313 0.0
C697 C 0.62659 0.1302 0.71735 0.0
C698 C 0.58446 0.12807 0.6916 0.0
C699 C 0.58884 0.14734 0.73424 0.0
C700 C 0.61423 0.16102 0.76165 0.0
C701 C 0.63279 0.152 0.75354 0.0
C702 C 0.55792 0.11279 0.66084 0.0
C703 C 0.62072 0.18313 0.80413 0.0
H704 H 0.51524 0.1592 0.71228 0.0
H705 H 0.51138 0.10437 0.8409 0.0
H706 H 0.59005 0.19302 0.6954 0.0
H707 H 0.56458 0.17296 0.64394 0.0
H708 H 0.56092 0.19694 0.68613 0.0
H709 H 0.54878 0.10184 0.87024 0.0
H710 H 0.56411 0.10019 0.80453 0.0
H711 H 0.58201 0.12823 0.85154 0.0
H712 H 0.59896 0.10341 0.65471 0.0
H713 H 0.65062 0.16004 0.78001 0.0
H714 H 0.55189 0.12679 0.64266 0.0
H715 H 0.5421 0.09944 0.69148 0.0
H716 H 0.55867 0.10018 0.62577 0.0
H717 H 0.60944 0.19375 0.79493 0.0
H718 H 0.64261 0.19793 0.80404 0.0
H719 H 0.61527 0.17444 0.8476 0.0
C720 C 0.48973 0.60257 0.84871 0.0
C721 C 0.50219 0.6253 0.88385 0.0
C722 C 0.46254 0.58329 0.85583 0.0
C723 C 0.44725 0.58718 0.89835 0.0
C724 C 0.45858 0.61232 0.92672 0.0
C725 C 0.48618 0.63109 0.9197 0.0
C726 C 0.45157 0.55706 0.82386 0.0
C727 C 0.44253 0.6182 0.96929 0.0
C728 C 0.37917 0.52364 0.90384 0.0
C729 C 0.38513 0.50828 0.94125 0.0
C730 C 0.39793 0.55108 0.89459 0.0
C731 C 0.42325 0.56289 0.92233 0.0
C732 C 0.42752 0.54822 0.96563 0.0
C733 C 0.40824 0.52125 0.97502 0.0
C734 C 0.39165 0.56638 0.85091 0.0
C735 C 0.454 0.5596 0.99665 0.0
H736 H 0.50207 0.59822 0.82054 0.0
H737 H 0.49565 0.6487 0.94689 0.0
H738 H 0.44946 0.54107 0.85358 0.0
H739 H 0.43141 0.55085 0.80621 0.0
H740 H 0.46495 0.55838 0.78826 0.0
H741 H 0.45004 0.64014 0.97186 0.0
H742 H 0.42085 0.60761 0.95807 0.0
H743 H 0.44464 0.61132 0.01217 0.0
H744 H 0.36126 0.51374 0.87759 0.0
H745 H 0.41272 0.50938 0.00429 0.0
H746 H 0.39708 0.56261 0.80788 0.0
H747 H 0.40303 0.58836 0.85907 0.0
H748 H 0.36979 0.55944 0.85064 0.0
H749 H 0.46993 0.56215 0.96626 0.0
H750 H 0.45322 0.54629 0.03182 0.0
H751 H 0.45986 0.57962 0.01472 0.0
C752 C 0.89247 0.40643 0.14438 0.0
C753 C 0.88222 0.3836 0.10963 0.0
C754 C 0.88455 0.42567 0.13685 0.0
C755 C 0.86533 0.42162 0.09437 0.0
C756 C 0.85167 0.39647 0.06604 0.0
C757 C 0.86052 0.37775 0.07346 0.0
C758 C 0.89974 0.45195 0.16863 0.0
C759 C 0.82979 0.39045 0.02329 0.0
C760 C 0.85991 0.48458 0.09231 0.0
C761 C 0.88137 0.50052 0.05562 0.0
C762 C 0.85137 0.45708 0.09986 0.0
C763 C 0.86511 0.44577 0.07112 0.0
C764 C 0.88405 0.46099 0.02817 0.0
C765 C 0.89166 0.48806 0.02055 0.0
C766 C 0.82976 0.44115 0.14314 0.0
C767 C 0.89932 0.45008 0.99596 0.0
H768 H 0.9091 0.41083 0.17273 0.0
H769 H 0.85243 0.36006 0.04649 0.0
H770 H 0.91328 0.46801 0.13863 0.0
H771 H 0.88569 0.45789 0.18697 0.0
H772 H 0.91215 0.45086 0.20369 0.0
H773 H 0.81523 0.36852 0.02148 0.0
H774 H 0.81883 0.40127 0.03372 0.0
H775 H 0.8388 0.39688 0.98029 0.0
H776 H 0.85179 0.49408 0.11954 0.0
H777 H 0.90812 0.50037 0.99183 0.0
H778 H 0.83901 0.44388 0.1859 0.0
H779 H 0.81894 0.41936 0.1329 0.0
H780 H 0.81505 0.44832 0.14542 0.0
H781 H 0.91321 0.44794 0.02556 0.0
H782 H 0.91137 0.46351 0.96043 0.0
H783 H 0.88536 0.42995 0.97819 0.0
C784 C 0.40669 0.88759 0.18452 0.0
C785 C 0.3836 0.87743 0.21847 0.0
C786 C 0.42572 0.87947 0.19292 0.0
C787 C 0.4211 0.85997 0.23518 0.0
C788 C 0.39563 0.8463 0.26236 0.0
C789 C 0.3772 0.85549 0.25436 0.0
C790 C 0.45236 0.89476 0.16242 0.0
C791 C 0.38889 0.82398 0.3044 0.0
C792 C 0.48444 0.85539 0.23887 0.0
C793 C 0.49978 0.87658 0.27657 0.0
C794 C 0.45687 0.8464 0.23069 0.0
C795 C 0.44495 0.85953 0.2596 0.0
C796 C 0.45956 0.87803 0.30366 0.0
C797 C 0.48667 0.886 0.31206 0.0
C798 C 0.44152 0.82503 0.18664 0.0
C799 C 0.44803 0.89265 0.33614 0.0
H800 H 0.41147 0.90436 0.15628 0.0
H801 H 0.35927 0.8474 0.2806 0.0
H802 H 0.46821 0.90769 0.19338 0.0
H803 H 0.45815 0.88073 0.14339 0.0
H804 H 0.45186 0.9078 0.12802 0.0
H805 H 0.36702 0.80911 0.30344 0.0
H806 H 0.40031 0.81348 0.29548 0.0
H807 H 0.39388 0.83241 0.34813 0.0
H808 H 0.49443 0.8479 0.21139 0.0
H809 H 0.49854 0.90223 0.34157 0.0
H810 H 0.44494 0.83445 0.14391 0.0
H811 H 0.41959 0.81419 0.19547 0.0
H812 H 0.44869 0.8103 0.18519 0.0
H813 H 0.44586 0.90666 0.30694 0.0
H814 H 0.4611 0.90448 0.37227 0.0
H815 H 0.42785 0.87831 0.35315 0.0
C816 C 0.3537 0.40316 0.74426 0.0
C817 C 0.35007 0.38918 0.79517 0.0
C818 C 0.35756 0.39336 0.6927 0.0
C819 C 0.35903 0.36947 0.69223 0.0
C820 C 0.35473 0.35487 0.74375 0.0
C821 C 0.34972 0.36466 0.79465 0.0
C822 C 0.35935 0.40875 0.63942 0.0
C823 C 0.35565 0.32908 0.74514 0.0
C824 C 0.35999 0.33954 0.54721 0.0
C825 C 0.38765 0.34976 0.53979 0.0
C826 C 0.35011 0.34549 0.59689 0.0
C827 C 0.36835 0.36175 0.63986 0.0
C828 C 0.39619 0.372 0.63185 0.0
C829 C 0.4054 0.36543 0.58273 0.0
C830 C 0.32033 0.33472 0.60324 0.0
C831 C 0.41632 0.38986 0.67548 0.0
H832 H 0.35273 0.42157 0.74444 0.0
H833 H 0.34592 0.35342 0.83398 0.0
H834 H 0.36587 0.40197 0.60176 0.0
H835 H 0.33924 0.40618 0.63017 0.0
H836 H 0.37322 0.43055 0.64641 0.0
H837 H 0.34926 0.31879 0.78706 0.0
H838 H 0.3425 0.31521 0.71137 0.0
H839 H 0.37643 0.33344 0.73633 0.0
H840 H 0.34618 0.32691 0.51434 0.0
H841 H 0.42663 0.37217 0.5785 0.0
H842 H 0.31633 0.35173 0.60389 0.0
H843 H 0.31313 0.32388 0.64437 0.0
H844 H 0.30861 0.32091 0.56794 0.0
H845 H 0.4141 0.40773 0.68305 0.0
H846 H 0.43737 0.39673 0.66242 0.0
H847 H 0.41222 0.37866 0.71612 0.0
C848 C 0.98619 0.34287 0.94765 0.0
C849 C 0.96839 0.35267 0.95483 0.0
C850 C 1.00217 0.34907 0.89811 0.0
C851 C 0.9999 0.36509 0.85493 0.0
C852 C 0.98194 0.37491 0.86271 0.0
C853 C 0.9661 0.36818 0.91179 0.0
C854 C 0.02165 0.33886 0.89216 0.0
C855 C 0.97941 0.39256 0.81897 0.0
C856 C 0.05593 0.40664 0.75024 0.0
C857 C 0.04606 0.39207 0.69982 0.0
C858 C 0.04209 0.39713 0.80172 0.0
C859 C 0.01698 0.37293 0.80255 0.0
C860 C 0.00705 0.35789 0.75143 0.0
C861 C 0.02206 0.36739 0.70069 0.0
C862 C 0.05522 0.41323 0.85451 0.0
C863 C 0.98052 0.3319 0.75031 0.0
H864 H 0.98758 0.3304 0.98063 0.0
H865 H 0.9514 0.37465 0.91592 0.0
H866 H 0.01807 0.32774 0.85141 0.0
H867 H 0.0425 0.35617 0.89086 0.0
H868 H 0.02001 0.32545 0.92793 0.0
H869 H 0.9994 0.4106 0.81169 0.0
H870 H 0.97252 0.38139 0.77824 0.0
H871 H 0.96499 0.39916 0.83189 0.0
H872 H 0.07511 0.42525 0.74985 0.0
H873 H 0.01492 0.3558 0.66171 0.0
H874 H 0.0422 0.40588 0.89253 0.0
H875 H 0.06155 0.43465 0.84685 0.0
H876 H 0.07376 0.41236 0.86346 0.0
H877 H 0.98006 0.3182 0.78421 0.0
H878 H 0.97668 0.32153 0.7085 0.0
H879 H 0.96393 0.33601 0.75916 0.0
C880 C 0.64158 0.98818 0.12418 0.0
C881 C 0.61656 0.96458 0.12561 0.0
C882 C 0.65089 0.00335 0.07358 0.0
C883 C 0.63526 0.99395 0.02306 0.0
C884 C 0.61057 0.96931 0.02447 0.0
C885 C 0.6013 0.95534 0.07587 0.0
C886 C 0.67728 0.02947 0.07421 0.0
C887 C 0.59357 0.95684 0.97241 0.0
C888 C 0.64104 0.04551 0.91451 0.0
C889 C 0.65602 0.04269 0.87094 0.0
C890 C 0.63419 0.02967 0.96359 0.0
C891 C 0.64325 0.01107 0.97073 0.0
C892 C 0.65869 0.00823 0.92695 0.0
C893 C 0.6651 0.02428 0.8775 0.0
C894 C 0.61703 0.03272 0.00781 0.0
C895 C 0.66801 0.98802 0.93211 0.0
H896 H 0.65361 0.9949 0.16265 0.0
H897 H 0.58233 0.93651 0.07663 0.0
H898 H 0.69058 0.02949 0.03983 0.0
H899 H 0.67369 0.04643 0.06575 0.0
H900 H 0.68786 0.03307 0.11569 0.0
H901 H 0.59247 0.93732 0.96357 0.0
H902 H 0.57275 0.95238 0.98118 0.0
H903 H 0.60141 0.96952 0.93399 0.0
H904 H 0.63507 0.0606 0.91075 0.0
H905 H 0.67714 0.02246 0.84408 0.0
H906 H 0.62811 0.03891 0.04875 0.0
H907 H 0.59853 0.01301 0.0143 0.0
H908 H 0.61119 0.0478 0.99565 0.0
H909 H 0.67944 0.99136 0.97231 0.0
H910 H 0.68088 0.98908 0.89568 0.0
H911 H 0.65026 0.96745 0.93404 0.0
C912 C 0.60036 0.64683 0.09147 0.0
C913 C 0.61696 0.65469 0.0435 0.0
C914 C 0.60878 0.64152 0.14327 0.0
C915 C 0.63403 0.64283 0.14683 0.0
C916 C 0.65098 0.65083 0.09807 0.0
C917 C 0.64246 0.65729 0.04713 0.0
C918 C 0.58985 0.6341 0.19297 0.0
C919 C 0.67783 0.65207 0.09947 0.0
C920 C 0.66211 0.64071 0.29338 0.0
C921 C 0.65368 0.61328 0.29798 0.0
C922 C 0.65584 0.65082 0.24451 0.0
C923 C 0.64134 0.63311 0.19922 0.0
C924 C 0.63284 0.60549 0.20452 0.0
C925 C 0.63942 0.59602 0.2532 0.0
C926 C 0.66431 0.68021 0.24152 0.0
C927 C 0.61669 0.58584 0.15867 0.0
H928 H 0.58086 0.64551 0.08898 0.0
H929 H 0.65543 0.66384 0.00997 0.0
H930 H 0.5986 0.63233 0.23356 0.0
H931 H 0.58362 0.64942 0.19843 0.0
H932 H 0.57143 0.61483 0.18292 0.0
H933 H 0.6893 0.66019 0.05924 0.0
H934 H 0.69007 0.66481 0.13554 0.0
H935 H 0.67472 0.6316 0.10649 0.0
H936 H 0.67353 0.65415 0.32786 0.0
H937 H 0.63389 0.57503 0.25561 0.0
H938 H 0.6462 0.68237 0.23777 0.0
H939 H 0.67676 0.68942 0.20294 0.0
H940 H 0.67591 0.69148 0.2797 0.0
H941 H 0.59795 0.58655 0.15188 0.0
H942 H 0.6113 0.56489 0.16942 0.0
H943 H 0.62833 0.59173 0.11836 0.0
C944 C 0.0246 0.66436 0.46003 0.0
C945 C 0.04295 0.65516 0.46583 0.0
C946 C 0.00837 0.6581 0.41093 0.0
C947 C 0.01098 0.6427 0.36676 0.0
C948 C 0.02942 0.63341 0.37328 0.0
C949 C 0.04546 0.64014 0.42198 0.0
C950 C 0.98829 0.66763 0.40642 0.0
C951 C 0.03236 0.61642 0.32848 0.0
C952 C 0.95573 0.60157 0.26034 0.0
C953 C 0.96539 0.617 0.21088 0.0
C954 C 0.96932 0.6106 0.31218 0.0
C955 C 0.994 0.63522 0.31432 0.0
C956 C 1.00374 0.6511 0.26417 0.0
C957 C 0.98895 0.64204 0.21311 0.0
C958 C 0.95655 0.59328 0.36376 0.0
C959 C 0.02991 0.67745 0.26434 0.0
H960 H 0.02301 0.67642 0.49369 0.0
H961 H 0.06054 0.63412 0.4251 0.0
H962 H 0.99181 0.67942 0.36668 0.0
H963 H 0.96767 0.64998 0.40394 0.0
H964 H 0.98935 0.68022 0.44338 0.0
H965 H 0.04706 0.61008 0.3406 0.0
H966 H 0.01254 0.59822 0.32081 0.0
H967 H 0.03909 0.628 0.2882 0.0
H968 H 0.93693 0.58258 0.25892 0.0
H969 H 0.99597 0.65422 0.17487 0.0
H970 H 0.93664 0.5915 0.3714 0.0
H971 H 0.96867 0.60119 0.40293 0.0
H972 H 0.95281 0.57271 0.35491 0.0
H973 H 0.02995 0.69048 0.29933 0.0
H974 H 0.03363 0.68839 0.22329 0.0
H975 H 0.04681 0.6737 0.2723 0.0
C976 C 0.35945 0.95419 0.42126 0.0
C977 C 0.35318 0.96351 0.37196 0.0
C978 C 0.36419 0.96796 0.47294 0.0
C979 C 0.36391 0.99247 0.47505 0.0
C980 C 0.35737 1.00192 0.42501 0.0
C981 C 0.35148 0.98694 0.37414 0.0
C982 C 0.36919 0.95549 0.52442 0.0
C983 C 0.35687 0.02792 0.42514 0.0
C984 C 0.36498 0.0227 0.62105 0.0
C985 C 0.39247 0.04129 0.62692 0.0
C986 C 0.35517 0.00656 0.57177 0.0
C987 C 0.37325 0.0095 0.52748 0.0
C988 C 0.40092 0.02823 0.53399 0.0
C989 C 0.41008 0.04416 0.5829 0.0
C990 C 0.32565 0.98619 0.56728 0.0
C991 C 0.42093 0.03144 0.48916 0.0
H992 H 0.35984 0.93549 0.41992 0.0
H993 H 0.34598 0.99372 0.33601 0.0
H994 H 0.38603 0.95182 0.51514 0.0
H995 H 0.3736 0.96778 0.56337 0.0
H996 H 0.35118 0.93557 0.53267 0.0
H997 H 0.34956 0.03151 0.38407 0.0
H998 H 0.34377 0.0278 0.46009 0.0
H999 H 0.37742 0.04497 0.43317 0.0
H1000 H 0.35126 0.02083 0.65483 0.0
H1001 H 0.43111 0.0594 0.58613 0.0
H1002 H 0.32298 0.96568 0.5648 0.0
H1003 H 0.31725 0.98954 0.52755 0.0
H1004 H 0.31401 0.98706 0.60425 0.0
H1005 H 0.41972 0.01177 0.48199 0.0
H1006 H 0.44189 0.04649 0.50105 0.0
H1007 H 0.41584 0.03777 0.44865 0.0
C1008 C 0.44663 0.27578 0.55553 0.0
C1009 C 0.42962 0.27026 0.5084 0.0
C1010 C 0.4479 0.25506 0.58469 0.0
C1011 C 0.43127 0.22803 0.56723 0.0
C1012 C 0.41409 0.22235 0.51954 0.0
C1013 C 0.41371 0.24356 0.4903 0.0
C1014 C 0.46698 0.26208 0.63435 0.0
C1015 C 0.39568 0.19381 0.50013 0.0
C1016 C 0.44821 0.17423 0.61035 0.0
C1017 C 0.43139 0.16242 0.65768 0.0
C1018 C 0.44879 0.19593 0.58131 0.0
C1019 C 0.43166 0.20569 0.5991 0.0
C1020 C 0.41469 0.19388 0.64701 0.0
C1021 C 0.415 0.17261 0.67613 0.0
C1022 C 0.46766 0.20833 0.53139 0.0
C1023 C 0.39577 0.20334 0.66678 0.0
H1024 H 0.45908 0.2964 0.56956 0.0
H1025 H 0.40037 0.23914 0.4542 0.0
H1026 H 0.45549 0.25284 0.67397 0.0
H1027 H 0.48054 0.25379 0.62729 0.0
H1028 H 0.47942 0.28414 0.64095 0.0
H1029 H 0.38338 0.19274 0.46264 0.0
H1030 H 0.40763 0.18414 0.48884 0.0
H1031 H 0.38197 0.18194 0.5354 0.0
H1032 H 0.46104 0.16654 0.59606 0.0
H1033 H 0.40181 0.16343 0.7124 0.0
H1034 H 0.48076 0.23027 0.53827 0.0
H1035 H 0.45597 0.2057 0.49193 0.0
H1036 H 0.48059 0.19926 0.52461 0.0
H1037 H 0.40727 0.225 0.67784 0.0
H1038 H 0.38375 0.19197 0.70451 0.0
H1039 H 0.38179 0.20104 0.63177 0.0
C1040 C 0.24673 0.4179 0.84291 0.0
C1041 C 0.27327 0.43211 0.82281 0.0
C1042 C 0.22565 0.4181 0.81277 0.0
C1043 C 0.2313 0.43334 0.76191 0.0
C1044 C 0.25819 0.4483 0.7423 0.0
C1045 C 0.27877 0.44727 0.77261 0.0
C1046 C 0.19723 0.40153 0.83468 0.0
C1047 C 0.26521 0.4653 0.68909 0.0
C1048 C 0.17499 0.41462 0.654 0.0
C1049 C 0.16585 0.43235 0.66859 0.0
C1050 C 0.19617 0.41463 0.68417 0.0
C1051 C 0.20905 0.43337 0.72891 0.0
C1052 C 0.2004 0.45189 0.74253 0.0
C1053 C 0.17865 0.45087 0.71282 0.0
C1054 C 0.20434 0.39414 0.6691 0.0
C1055 C 0.21404 0.4727 0.7887 0.0
H1056 H 0.2423 0.406 0.88144 0.0
H1057 H 0.29926 0.45841 0.75694 0.0
H1058 H 0.1885 0.41462 0.84281 0.0
H1059 H 0.18451 0.3866 0.80196 0.0
H1060 H 0.19615 0.39067 0.87466 0.0
H1061 H 0.28722 0.47675 0.68104 0.0
H1062 H 0.25519 0.45233 0.65162 0.0
H1063 H 0.25775 0.47972 0.69268 0.0
H1064 H 0.16498 0.4001 0.6202 0.0
H1065 H 0.17174 0.46473 0.72403 0.0
H1066 H 0.20196 0.38151 0.70689 0.0
H1067 H 0.22586 0.40442 0.65675 0.0
H1068 H 0.1922 0.38082 0.63355 0.0
H1069 H 0.21147 0.46264 0.83046 0.0
H1070 H 0.20587 0.48657 0.792 0.0
H1071 H 0.23596 0.48473 0.78019 0.0
C1072 C 0.83628 0.24578 0.005 0.0
C1073 C 0.84696 0.27244 0.98664 0.0
C1074 C 0.81475 0.22446 0.97593 0.0
C1075 C 0.80317 0.22996 0.92813 0.0
C1076 C 0.81345 0.25694 0.91038 0.0
C1077 C 0.8354 0.27779 0.9394 0.0
C1078 C 0.80474 0.19598 0.99566 0.0
C1079 C 0.80132 0.26377 0.86058 0.0
C1080 C 0.76423 0.17417 0.81985 0.0
C1081 C 0.73763 0.16388 0.83832 0.0
C1082 C 0.78574 0.19562 0.84873 0.0
C1083 C 0.7805 0.20748 0.89642 0.0
C1084 C 0.75358 0.19761 0.9142 0.0
C1085 C 0.73254 0.17575 0.8854 0.0
C1086 C 0.81414 0.20519 0.82897 0.0
C1087 C 0.74702 0.21007 0.96388 0.0
H1088 H 0.84526 0.2415 0.0412 0.0
H1089 H 0.84348 0.29836 0.92515 0.0
H1090 H 0.78312 0.18625 0.00696 0.0
H1091 H 0.80664 0.18408 0.96055 0.0
H1092 H 0.81601 0.19505 0.03322 0.0
H1093 H 0.81083 0.28581 0.85375 0.0
H1094 H 0.80362 0.25449 0.82108 0.0
H1095 H 0.77945 0.2554 0.86762 0.0
H1096 H 0.76831 0.16496 0.78377 0.0
H1097 H 0.712 0.16797 0.89971 0.0
H1098 H 0.82589 0.20304 0.86406 0.0
H1099 H 0.8242 0.22683 0.81771 0.0
H1100 H 0.81486 0.19379 0.79138 0.0
H1101 H 0.75612 0.20759 0.00345 0.0
H1102 H 0.72501 0.20092 0.97062 0.0
H1103 H 0.75576 0.23197 0.95675 0.0
C1104 C 0.56214 0.83341 0.10967 0.0
C1105 C 0.57874 0.84492 0.15737 0.0
C1106 C 0.56143 0.81167 0.0805 0.0
C1107 C 0.57821 0.80155 0.09856 0.0
C1108 C 0.59501 0.8131 0.14677 0.0
C1109 C 0.59484 0.83443 0.17598 0.0
C1110 C 0.54274 0.79956 0.03024 0.0
C1111 C 0.61355 0.80324 0.16686 0.0
C1112 C 0.56201 0.73103 0.05525 0.0
C1113 C 0.57908 0.73621 0.0083 0.0
C1114 C 0.56116 0.75201 0.08429 0.0
C1115 C 0.57826 0.77896 0.06689 0.0
C1116 C 0.59551 0.78431 0.0194 0.0
C1117 C 0.59548 0.76286 0.99028 0.0
C1118 C 0.54199 0.74533 0.13373 0.0
C1119 C 0.6144 0.81276 5e-05 0.0
H1120 H 0.54953 0.84133 0.09522 0.0
H1121 H 0.60786 0.84338 0.21253 0.0
H1122 H 0.55455 0.80194 0.99105 0.0
H1123 H 0.52926 0.77768 0.03708 0.0
H1124 H 0.53021 0.80903 0.02301 0.0
H1125 H 0.62558 0.81453 0.2046 0.0
H1126 H 0.60173 0.7816 0.17802 0.0
H1127 H 0.62752 0.80527 0.13199 0.0
H1128 H 0.54918 0.71046 0.06924 0.0
H1129 H 0.60887 0.76702 0.95432 0.0
H1130 H 0.52873 0.75395 0.12636 0.0
H1131 H 0.55343 0.75447 0.17343 0.0
H1132 H 0.52922 0.72331 0.1404 0.0
H1133 H 0.60284 0.8228 0.98849 0.0
H1134 H 0.62672 0.81357 0.96275 0.0
H1135 H 0.6281 0.82445 0.03545 0.0
C1136 C 0.76248 0.59061 0.34645 0.0
C1137 C 0.73591 0.5741 0.32812 0.0
C1138 C 0.78412 0.59102 0.31726 0.0
C1139 C 0.77904 0.57404 0.2694 0.0
C1140 C 0.75216 0.5568 0.25176 0.0
C1141 C 0.73099 0.55728 0.28086 0.0
C1142 C 0.81248 0.61007 0.33687 0.0
C1143 C 0.74576 0.5379 0.20194 0.0
C1144 C 0.83477 0.59204 0.16009 0.0
C1145 C 0.84567 0.57621 0.17813 0.0
C1146 C 0.81321 0.59165 0.18956 0.0
C1147 C 0.80183 0.57454 0.23743 0.0
C1148 C 0.81235 0.55801 0.25487 0.0
C1149 C 0.83432 0.55929 0.22548 0.0
C1150 C 0.80295 0.60995 0.17015 0.0
C1151 C 0.80043 0.53899 0.3047 0.0
H1152 H 0.76644 0.6038 0.38266 0.0
H1153 H 0.71048 0.54437 0.26665 0.0
H1154 H 0.82275 0.59867 0.3479 0.0
H1155 H 0.82409 0.62406 0.30177 0.0
H1156 H 0.81307 0.62207 0.37456 0.0
H1157 H 0.72377 0.52487 0.1953 0.0
H1158 H 0.75475 0.54958 0.1624 0.0
H1159 H 0.75471 0.5249 0.20883 0.0
H1160 H 0.84358 0.60532 0.12383 0.0
H1161 H 0.84257 0.54691 0.23948 0.0
H1162 H 0.80472 0.62364 0.2054 0.0
H1163 H 0.78134 0.59792 0.15892 0.0
H1164 H 0.81415 0.62228 0.13262 0.0
H1165 H 0.80264 0.55052 0.34424 0.0
H1166 H 0.81017 0.52667 0.31137 0.0
H1167 H 0.77859 0.52531 0.29779 0.0
C1168 C 0.17507 0.76291 0.51102 0.0
C1169 C 0.1645 0.73617 0.49338 0.0
C1170 C 0.19638 0.78415 0.48117 0.0
C1171 C 0.20783 0.77847 0.43333 0.0
C1172 C 0.19767 0.75142 0.41634 0.0
C1173 C 0.17595 0.73066 0.4461 0.0
C1174 C 0.20626 0.81271 0.50011 0.0
C1175 C 0.20969 0.7444 0.36656 0.0
C1176 C 0.24601 0.83346 0.3229 0.0
C1177 C 0.27272 0.84399 0.34069 0.0
C1178 C 0.2247 0.81224 0.35278 0.0
C1179 C 0.23027 0.80083 0.4008 0.0
C1180 C 0.25729 0.81095 0.41795 0.0
C1181 C 0.27813 0.83259 0.38815 0.0
C1182 C 0.19617 0.80239 0.33366 0.0
C1183 C 0.2642 0.79898 0.46795 0.0
H1184 H 0.16618 0.76731 0.54725 0.0
H1185 H 0.16796 0.71001 0.43242 0.0
H1186 H 0.22795 0.82267 0.51089 0.0
H1187 H 0.20407 0.82431 0.46475 0.0
H1188 H 0.19511 0.81378 0.5378 0.0
H1189 H 0.2003 0.72233 0.36037 0.0
H1190 H 0.20712 0.75336 0.32687 0.0
H1191 H 0.23161 0.75297 0.37315 0.0
H1192 H 0.24168 0.84232 0.28654 0.0
H1193 H 0.29875 0.84055 0.40195 0.0
H1194 H 0.18455 0.80467 0.36888 0.0
H1195 H 0.18618 0.78069 0.323 0.0
H1196 H 0.19519 0.81351 0.29585 0.0
H1197 H 0.2552 0.80165 0.50751 0.0
H1198 H 0.28626 0.80834 0.47427 0.0
H1199 H 0.2556 0.77705 0.46152 0.0
loop_
_geom_bond_atom_site_label_1
_geom_bond_atom_site_label_2
_geom_bond_distance
_geom_bond_site_symmetry_2
_ccdc_geom_bond_type
Mn0 O5 2.095 . S
Mn0 O15 2.162 . S
Mn0 O16 2.297 . S
Mn0 O24 2.385 . S
Mn0 O25 2.209 . S
Mn0 O26 2.094 . S
Mn1 O6 2.121 . S
Mn1 N8 2.257 . S
Mn1 N17 2.282 . S
Mn1 O25 2.215 . S
Mn1 O27 2.117 . S
C2 O24 1.234 . S
C2 O25 1.283 . S
C3 O15 1.281 . S
C3 O16 1.236 . S
C4 O26 1.240 . S
C4 O27 1.264 . S
O5 Mn0 2.095 . S
O5 C14 1.250 . S
O6 Mn1 2.121 . S
O6 C14 1.258 . S
C7 N8 1.326 . S
C7 C11 1.460 . S
C7 H13 0.929 . S
N8 Mn1 2.257 . S
N8 C7 1.326 . S
N8 C12 1.362 . S
C9 C10 1.258 . S
C9 C12 1.431 . S
C9 C29 1.449 . S
C10 C9 1.258 . S
C10 C11 1.477 . S
C10 H30 0.931 . S
C11 C7 1.460 . S
C11 C10 1.477 . S
C11 H31 0.930 . S
C12 N8 1.362 . S
C12 C9 1.431 . S
C12 C22 1.476 . S
H13 C7 0.929 . S
C14 O5 1.250 . S
C14 O6 1.258 . S
O15 Mn0 2.162 . S
O15 C3 1.281 . S
O16 Mn0 2.297 . S
O16 C3 1.236 . S
N17 Mn1 2.282 . S
N17 C18 1.328 . S
N17 C22 1.318 . S
C18 N17 1.328 . S
C18 C19 1.457 . S
C18 H23 0.929 . S
C19 C18 1.457 . S
C19 C20 1.291 . S
C19 H32 0.931 . S
C20 C19 1.291 . S
C20 C21 1.373 . S
C20 H33 0.929 . S
C21 C20 1.373 . S
C21 C22 1.396 . S
C21 C28 1.403 . S
C22 C12 1.476 . S
C22 N17 1.318 . S
C22 C21 1.396 . S
H23 C18 0.929 . S
O24 Mn0 2.385 . S
O24 C2 1.234 . S
O25 Mn0 2.209 . S
O25 Mn1 2.215 . S
O25 C2 1.283 . S
O26 Mn0 2.094 . S
O26 C4 1.240 . S
O27 Mn1 2.117 . S
O27 C4 1.264 . S
C28 C21 1.403 . S
C28 C29 1.399 . S
C28 H34 0.929 . S
C29 C9 1.449 . S
C29 C28 1.399 . S
C29 H35 0.930 . S
H30 C10 0.931 . S
H31 C11 0.930 . S
H32 C19 0.931 . S
H33 C20 0.929 . S
H34 C28 0.929 . S
H35 C29 0.930 . S
Mn36 O41 2.095 . S
Mn36 O51 2.162 . S
Mn36 O52 2.297 . S
Mn36 O60 2.385 . S
Mn36 O61 2.209 . S
Mn36 O62 2.094 . S
Mn37 O42 2.121 . S
Mn37 N44 2.257 . S
Mn37 N53 2.282 . S
Mn37 O61 2.215 . S
Mn37 O63 2.117 . S
C38 O60 1.234 . S
C38 O61 1.283 . S
C39 O51 1.281 . S
C39 O52 1.236 . S
C40 O62 1.240 . S
C40 O63 1.264 . S
O41 Mn36 2.095 . S
O41 C50 1.250 . S
O42 Mn37 2.121 . S
O42 C50 1.258 . S
C43 N44 1.326 . S
C43 C47 1.460 . S
C43 H49 0.929 . S
N44 Mn37 2.257 . S
N44 C43 1.326 . S
N44 C48 1.362 . S
C45 C46 1.258 . S
C45 C48 1.431 1_655 S
C45 C65 1.449 . S
C46 C45 1.258 . S
C46 C47 1.477 1_655 S
C46 H66 0.931 . S
C47 C43 1.460 . S
C47 C46 1.477 1_455 S
C47 H67 0.930 . S
C48 N44 1.362 . S
C48 C45 1.431 1_455 S
C48 C58 1.476 1_455 S
H49 C43 0.929 . S
C50 O41 1.250 . S
C50 O42 1.258 . S
O51 Mn36 2.162 . S
O51 C39 1.281 . S
O52 Mn36 2.297 . S
O52 C39 1.236 . S
N53 Mn37 2.282 . S
N53 C54 1.328 1_455 S
N53 C58 1.318 1_455 S
C54 N53 1.328 1_655 S
C54 C55 1.457 . S
C54 H59 0.929 1_655 S
C55 C54 1.457 . S
C55 C56 1.291 . S
C55 H68 0.931 . S
C56 C55 1.291 . S
C56 C57 1.373 . S
C56 H69 0.929 . S
C57 C56 1.373 . S
C57 C58 1.396 . S
C57 C64 1.403 . S
C58 C48 1.476 1_655 S
C58 N53 1.318 1_655 S
C58 C57 1.396 . S
H59 C54 0.929 1_455 S
O60 Mn36 2.385 . S
O60 C38 1.234 . S
O61 Mn36 2.209 . S
O61 Mn37 2.215 . S
O61 C38 1.283 . S
O62 Mn36 2.094 . S
O62 C40 1.240 . S
O63 Mn37 2.117 . S
O63 C40 1.264 . S
C64 C57 1.403 . S
C64 C65 1.399 . S
C64 H70 0.929 . S
C65 C45 1.449 . S
C65 C64 1.399 . S
C65 H71 0.930 . S
H66 C46 0.931 . S
H67 C47 0.930 . S
H68 C55 0.931 . S
H69 C56 0.929 . S
H70 C64 0.929 . S
H71 C65 0.930 . S
Mn72 O77 2.095 . S
Mn72 O87 2.162 . S
Mn72 O88 2.297 . S
Mn72 O96 2.385 . S
Mn72 O97 2.209 . S
Mn72 O98 2.094 . S
Mn73 O78 2.121 . S
Mn73 N80 2.257 . S
Mn73 N89 2.282 . S
Mn73 O97 2.215 . S
Mn73 O99 2.117 . S
C74 O96 1.234 . S
C74 O97 1.283 . S
C75 O87 1.281 . S
C75 O88 1.236 . S
C76 O98 1.240 . S
C76 O99 1.264 . S
O77 Mn72 2.095 . S
O77 C86 1.250 . S
O78 Mn73 2.121 . S
O78 C86 1.258 . S
C79 N80 1.326 . S
C79 C83 1.460 . S
C79 H85 0.929 . S
N80 Mn73 2.257 . S
N80 C79 1.326 . S
N80 C84 1.362 . S
C81 C82 1.258 . S
C81 C84 1.431 1_565 S
C81 C101 1.449 . S
C82 C81 1.258 . S
C82 C83 1.477 1_565 S
C82 H102 0.931 . S
C83 C79 1.460 . S
C83 C82 1.477 1_545 S
C83 H103 0.930 . S
C84 N80 1.362 . S
C84 C81 1.431 1_545 S
C84 C94 1.476 1_545 S
H85 C79 0.929 . S
C86 O77 1.250 . S
C86 O78 1.258 . S
O87 Mn72 2.162 . S
O87 C75 1.281 . S
O88 Mn72 2.297 . S
O88 C75 1.236 . S
N89 Mn73 2.282 . S
N89 C90 1.328 1_545 S
N89 C94 1.318 1_545 S
C90 N89 1.328 1_565 S
C90 C91 1.457 . S
C90 H95 0.929 1_565 S
C91 C90 1.457 . S
C91 C92 1.291 . S
C91 H104 0.931 . S
C92 C91 1.291 . S
C92 C93 1.373 . S
C92 H105 0.929 . S
C93 C92 1.373 . S
C93 C94 1.396 . S
C93 C100 1.403 . S
C94 C84 1.476 1_565 S
C94 N89 1.318 1_565 S
C94 C93 1.396 . S
H95 C90 0.929 1_545 S
O96 Mn72 2.385 . S
O96 C74 1.234 . S
O97 Mn72 2.209 . S
O97 Mn73 2.215 . S
O97 C74 1.283 . S
O98 Mn72 2.094 . S
O98 C76 1.240 . S
O99 Mn73 2.117 . S
O99 C76 1.264 . S
C100 C93 1.403 . S
C100 C101 1.399 . S
C100 H106 0.929 . S
C101 C81 1.449 . S
C101 C100 1.399 . S
C101 H107 0.930 . S
H102 C82 0.931 . S
H103 C83 0.930 . S
H104 C91 0.931 . S
H105 C92 0.929 . S
H106 C100 0.929 . S
H107 C101 0.930 . S
Mn108 O113 2.095 . S
Mn108 O123 2.162 . S
Mn108 O124 2.299 . S
Mn108 O132 2.385 . S
Mn108 O133 2.209 . S
Mn108 O134 2.094 . S
Mn109 O114 2.121 . S
Mn109 N116 2.257 1_556 S
Mn109 N125 2.282 . S
Mn109 O133 2.215 . S
Mn109 O135 2.117 . S
C110 O132 1.234 1_554 S
C110 O133 1.283 1_554 S
C111 O123 1.281 . S
C111 O124 1.237 . S
C112 O134 1.240 . S
C112 O135 1.264 . S
O113 Mn108 2.095 . S
O113 C122 1.250 . S
O114 Mn109 2.121 . S
O114 C122 1.258 . S
C115 N116 1.326 . S
C115 C119 1.460 . S
C115 H121 0.929 . S
N116 Mn109 2.257 1_554 S
N116 C115 1.326 . S
N116 C120 1.362 . S
C117 C118 1.258 . S
C117 C120 1.431 . S
C117 C137 1.449 . S
C118 C117 1.258 . S
C118 C119 1.477 . S
C118 H138 0.931 . S
C119 C115 1.460 . S
C119 C118 1.477 . S
C119 H139 0.930 . S
C120 N116 1.362 . S
C120 C117 1.431 . S
C120 C130 1.475 1_554 S
H121 C115 0.929 . S
C122 O113 1.250 . S
C122 O114 1.258 . S
O123 Mn108 2.162 . S
O123 C111 1.281 . S
O124 Mn108 2.299 . S
O124 C111 1.237 . S
N125 Mn109 2.282 . S
N125 C126 1.328 . S
N125 C130 1.319 . S
C126 N125 1.328 . S
C126 C127 1.457 . S
C126 H131 0.929 . S
C127 C126 1.457 . S
C127 C128 1.291 . S
C127 H140 0.931 . S
C128 C127 1.291 . S
C128 C129 1.373 1_556 S
C128 H141 0.929 1_556 S
C129 C128 1.373 1_554 S
C129 C130 1.395 1_554 S
C129 C136 1.403 . S
C130 C120 1.475 1_556 S
C130 N125 1.319 . S
C130 C129 1.395 1_556 S
H131 C126 0.929 . S
O132 Mn108 2.385 . S
O132 C110 1.234 1_556 S
O133 Mn108 2.209 . S
O133 Mn109 2.215 . S
O133 C110 1.283 1_556 S
O134 Mn108 2.094 . S
O134 C112 1.240 . S
O135 Mn109 2.117 . S
O135 C112 1.264 . S
C136 C129 1.403 . S
C136 C137 1.399 . S
C136 H142 0.929 . S
C137 C117 1.449 . S
C137 C136 1.399 . S
C137 H143 0.930 . S
H138 C118 0.931 . S
H139 C119 0.930 . S
H140 C127 0.931 . S
H141 C128 0.929 1_554 S
H142 C136 0.929 . S
H143 C137 0.930 . S
Mn144 O149 2.095 . S
Mn144 O159 2.162 . S
Mn144 O160 2.297 . S
Mn144 O168 2.385 . S
Mn144 O169 2.209 . S
Mn144 O170 2.094 . S
Mn145 O150 2.121 . S
Mn145 N152 2.257 . S
Mn145 N161 2.282 . S
Mn145 O169 2.215 . S
Mn145 O171 2.117 . S
C146 O168 1.234 . S
C146 O169 1.283 . S
C147 O159 1.281 . S
C147 O160 1.236 . S
C148 O170 1.240 1_556 S
C148 O171 1.264 1_556 S
O149 Mn144 2.095 . S
O149 C158 1.250 . S
O150 Mn145 2.121 . S
O150 C158 1.258 . S
C151 N152 1.326 . S
C151 C155 1.460 . S
C151 H157 0.929 . S
N152 Mn145 2.257 . S
N152 C151 1.326 . S
N152 C156 1.362 . S
C153 C154 1.258 . S
C153 C156 1.431 1_455 S
C153 C173 1.449 . S
C154 C153 1.258 . S
C154 C155 1.477 1_455 S
C154 H174 0.931 . S
C155 C151 1.460 . S
C155 C154 1.477 1_655 S
C155 H175 0.930 . S
C156 N152 1.362 . S
C156 C153 1.431 1_655 S
C156 C166 1.476 1_655 S
H157 C151 0.929 . S
C158 O149 1.250 . S
C158 O150 1.258 . S
O159 Mn144 2.162 . S
O159 C147 1.281 . S
O160 Mn144 2.297 . S
O160 C147 1.236 . S
N161 Mn145 2.282 . S
N161 C162 1.328 1_655 S
N161 C166 1.318 1_655 S
C162 N161 1.328 1_455 S
C162 C163 1.457 . S
C162 H167 0.929 1_455 S
C163 C162 1.457 . S
C163 C164 1.291 . S
C163 H176 0.931 . S
C164 C163 1.291 . S
C164 C165 1.373 . S
C164 H177 0.929 . S
C165 C164 1.373 . S
C165 C166 1.396 . S
C165 C172 1.403 . S
C166 C156 1.476 1_455 S
C166 N161 1.318 1_455 S
C166 C165 1.396 . S
H167 C162 0.929 1_655 S
O168 Mn144 2.385 . S
O168 C146 1.234 . S
O169 Mn144 2.209 . S
O169 Mn145 2.215 . S
O169 C146 1.283 . S
O170 Mn144 2.094 . S
O170 C148 1.240 1_554 S
O171 Mn145 2.117 . S
O171 C148 1.264 1_554 S
C172 C165 1.403 . S
C172 C173 1.399 . S
C172 H178 0.929 . S
C173 C153 1.449 . S
C173 C172 1.399 . S
C173 H179 0.930 . S
H174 C154 0.931 . S
H175 C155 0.930 . S
H176 C163 0.931 . S
H177 C164 0.929 . S
H178 C172 0.929 . S
H179 C173 0.930 . S
Mn180 O185 2.095 . S
Mn180 O195 2.162 . S
Mn180 O196 2.297 . S
Mn180 O204 2.385 . S
Mn180 O205 2.209 . S
Mn180 O206 2.094 . S
Mn181 O186 2.121 . S
Mn181 N188 2.257 . S
Mn181 N197 2.282 . S
Mn181 O205 2.215 . S
Mn181 O207 2.117 . S
C182 O204 1.234 . S
C182 O205 1.283 . S
C183 O195 1.281 . S
C183 O196 1.236 . S
C184 O206 1.240 . S
C184 O207 1.264 . S
O185 Mn180 2.095 . S
O185 C194 1.250 . S
O186 Mn181 2.121 . S
O186 C194 1.258 . S
C187 N188 1.326 . S
C187 C191 1.460 . S
C187 H193 0.929 . S
N188 Mn181 2.257 . S
N188 C187 1.326 . S
N188 C192 1.362 . S
C189 C190 1.258 . S
C189 C192 1.431 1_545 S
C189 C209 1.449 . S
C190 C189 1.258 . S
C190 C191 1.477 1_545 S
C190 H210 0.931 . S
C191 C187 1.460 . S
C191 C190 1.477 1_565 S
C191 H211 0.930 . S
C192 N188 1.362 . S
C192 C189 1.431 1_565 S
C192 C202 1.476 1_565 S
H193 C187 0.929 . S
C194 O185 1.250 . S
C194 O186 1.258 . S
O195 Mn180 2.162 . S
O195 C183 1.281 . S
O196 Mn180 2.297 . S
O196 C183 1.236 . S
N197 Mn181 2.282 . S
N197 C198 1.328 1_565 S
N197 C202 1.318 1_565 S
C198 N197 1.328 1_545 S
C198 C199 1.457 . S
C198 H203 0.929 1_545 S
C199 C198 1.457 . S
C199 C200 1.291 . S
C199 H212 0.931 . S
C200 C199 1.291 . S
C200 C201 1.373 . S
C200 H213 0.929 . S
C201 C200 1.373 . S
C201 C202 1.396 . S
C201 C208 1.403 . S
C202 C192 1.476 1_545 S
C202 N197 1.318 1_545 S
C202 C201 1.396 . S
H203 C198 0.929 1_565 S
O204 Mn180 2.385 . S
O204 C182 1.234 . S
O205 Mn180 2.209 . S
O205 Mn181 2.215 . S
O205 C182 1.283 . S
O206 Mn180 2.094 . S
O206 C184 1.240 . S
O207 Mn181 2.117 . S
O207 C184 1.264 . S
C208 C201 1.403 . S
C208 C209 1.399 . S
C208 H214 0.929 . S
C209 C189 1.449 . S
C209 C208 1.399 . S
C209 H215 0.930 . S
H210 C190 0.931 . S
H211 C191 0.930 . S
H212 C199 0.931 . S
H213 C200 0.929 . S
H214 C208 0.929 . S
H215 C209 0.930 . S
Mn216 O221 2.095 . S
Mn216 O231 2.162 . S
Mn216 O232 2.297 . S
Mn216 O240 2.385 . S
Mn216 O241 2.209 . S
Mn216 O242 2.094 . S
Mn217 O222 2.121 . S
Mn217 N224 2.257 . S
Mn217 N233 2.282 . S
Mn217 O241 2.215 . S
Mn217 O243 2.117 . S
C218 O240 1.234 . S
C218 O241 1.283 . S
C219 O231 1.281 . S
C219 O232 1.236 . S
C220 O242 1.240 . S
C220 O243 1.264 . S
O221 Mn216 2.095 . S
O221 C230 1.250 . S
O222 Mn217 2.121 . S
O222 C230 1.258 . S
C223 N224 1.326 . S
C223 C227 1.460 . S
C223 H229 0.929 . S
N224 Mn217 2.257 . S
N224 C223 1.326 . S
N224 C228 1.362 . S
C225 C226 1.258 . S
C225 C228 1.431 . S
C225 C245 1.449 . S
C226 C225 1.258 . S
C226 C227 1.477 . S
C226 H246 0.931 . S
C227 C223 1.460 . S
C227 C226 1.477 . S
C227 H247 0.930 . S
C228 N224 1.362 . S
C228 C225 1.431 . S
C228 C238 1.476 . S
H229 C223 0.929 . S
C230 O221 1.250 . S
C230 O222 1.258 . S
O231 Mn216 2.162 . S
O231 C219 1.281 . S
O232 Mn216 2.297 . S
O232 C219 1.236 . S
N233 Mn217 2.282 . S
N233 C234 1.328 . S
N233 C238 1.318 . S
C234 N233 1.328 . S
C234 C235 1.457 . S
C234 H239 0.929 . S
C235 C234 1.457 . S
C235 C236 1.291 . S
C235 H248 0.931 . S
C236 C235 1.291 . S
C236 C237 1.373 . S
C236 H249 0.929 . S
C237 C236 1.373 . S
C237 C238 1.396 . S
C237 C244 1.403 . S
C238 C228 1.476 . S
C238 N233 1.318 . S
C238 C237 1.396 . S
H239 C234 0.929 . S
O240 Mn216 2.385 . S
O240 C218 1.234 . S
O241 Mn216 2.209 . S
O241 Mn217 2.215 . S
O241 C218 1.283 . S
O242 Mn216 2.094 . S
O242 C220 1.240 . S
O243 Mn217 2.117 . S
O243 C220 1.264 . S
C244 C237 1.403 . S
C244 C245 1.399 . S
C244 H250 0.929 . S
C245 C225 1.449 . S
C245 C244 1.399 . S
C245 H251 0.930 . S
H246 C226 0.931 . S
H247 C227 0.930 . S
H248 C235 0.931 . S
H249 C236 0.929 . S
H250 C244 0.929 . S
H251 C245 0.930 . S
Mn252 O257 2.095 . S
Mn252 O267 2.162 . S
Mn252 O268 2.297 . S
Mn252 O276 2.385 . S
Mn252 O277 2.209 . S
Mn252 O278 2.094 . S
Mn253 O258 2.121 . S
Mn253 N260 2.257 . S
Mn253 N269 2.282 . S
Mn253 O277 2.215 . S
Mn253 O279 2.117 . S
C254 O276 1.234 . S
C254 O277 1.283 . S
C255 O267 1.281 . S
C255 O268 1.236 . S
C256 O278 1.240 . S
C256 O279 1.264 . S
O257 Mn252 2.095 . S
O257 C266 1.250 . S
O258 Mn253 2.121 . S
O258 C266 1.258 . S
C259 N260 1.326 . S
C259 C263 1.460 . S
C259 H265 0.929 . S
N260 Mn253 2.257 . S
N260 C259 1.326 . S
N260 C264 1.362 . S
C261 C262 1.258 . S
C261 C264 1.431 1_655 S
C261 C281 1.449 . S
C262 C261 1.258 . S
C262 C263 1.477 1_655 S
C262 H282 0.931 . S
C263 C259 1.460 . S
C263 C262 1.477 1_455 S
C263 H283 0.930 . S
C264 N260 1.362 . S
C264 C261 1.431 1_455 S
C264 C274 1.476 1_455 S
H265 C259 0.929 . S
C266 O257 1.250 . S
C266 O258 1.258 . S
O267 Mn252 2.162 . S
O267 C255 1.281 . S
O268 Mn252 2.297 . S
O268 C255 1.236 . S
N269 Mn253 2.282 . S
N269 C270 1.328 1_455 S
N269 C274 1.318 1_455 S
C270 N269 1.328 1_655 S
C270 C271 1.457 . S
C270 H275 0.929 1_655 S
C271 C270 1.457 . S
C271 C272 1.291 . S
C271 H284 0.931 . S
C272 C271 1.291 . S
C272 C273 1.373 . S
C272 H285 0.929 . S
C273 C272 1.373 . S
C273 C274 1.396 . S
C273 C280 1.403 . S
C274 C264 1.476 1_655 S
C274 N269 1.318 1_655 S
C274 C273 1.396 . S
H275 C270 0.929 1_455 S
O276 Mn252 2.385 . S
O276 C254 1.234 . S
O277 Mn252 2.209 . S
O277 Mn253 2.215 . S
O277 C254 1.283 . S
O278 Mn252 2.094 . S
O278 C256 1.240 . S
O279 Mn253 2.117 . S
O279 C256 1.264 . S
C280 C273 1.403 . S
C280 C281 1.399 . S
C280 H286 0.929 . S
C281 C261 1.449 . S
C281 C280 1.399 . S
C281 H287 0.930 . S
H282 C262 0.931 . S
H283 C263 0.930 . S
H284 C271 0.931 . S
H285 C272 0.929 . S
H286 C280 0.929 . S
H287 C281 0.930 . S
Mn288 O293 2.095 . S
Mn288 O303 2.162 . S
Mn288 O304 2.297 . S
Mn288 O312 2.385 . S
Mn288 O313 2.209 . S
Mn288 O314 2.094 . S
Mn289 O294 2.121 . S
Mn289 N296 2.257 . S
Mn289 N305 2.282 . S
Mn289 O313 2.215 . S
Mn289 O315 2.117 . S
C290 O312 1.234 . S
C290 O313 1.283 . S
C291 O303 1.281 . S
C291 O304 1.236 . S
C292 O314 1.240 . S
C292 O315 1.264 . S
O293 Mn288 2.095 . S
O293 C302 1.250 . S
O294 Mn289 2.121 . S
O294 C302 1.258 . S
C295 N296 1.326 . S
C295 C299 1.460 . S
C295 H301 0.929 . S
N296 Mn289 2.257 . S
N296 C295 1.326 . S
N296 C300 1.362 . S
C297 C298 1.258 . S
C297 C300 1.431 1_565 S
C297 C317 1.449 . S
C298 C297 1.258 . S
C298 C299 1.477 1_565 S
C298 H318 0.931 . S
C299 C295 1.460 . S
C299 C298 1.477 1_545 S
C299 H319 0.930 . S
C300 N296 1.362 . S
C300 C297 1.431 1_545 S
C300 C310 1.476 1_545 S
H301 C295 0.929 . S
C302 O293 1.250 . S
C302 O294 1.258 . S
O303 Mn288 2.162 . S
O303 C291 1.281 . S
O304 Mn288 2.297 . S
O304 C291 1.236 . S
N305 Mn289 2.282 . S
N305 C306 1.328 1_545 S
N305 C310 1.318 1_545 S
C306 N305 1.328 1_565 S
C306 C307 1.457 . S
C306 H311 0.929 1_565 S
C307 C306 1.457 . S
C307 C308 1.291 . S
C307 H320 0.931 . S
C308 C307 1.291 . S
C308 C309 1.373 . S
C308 H321 0.929 . S
C309 C308 1.373 . S
C309 C310 1.396 . S
C309 C316 1.403 . S
C310 C300 1.476 1_565 S
C310 N305 1.318 1_565 S
C310 C309 1.396 . S
H311 C306 0.929 1_545 S
O312 Mn288 2.385 . S
O312 C290 1.234 . S
O313 Mn288 2.209 . S
O313 Mn289 2.215 . S
O313 C290 1.283 . S
O314 Mn288 2.094 . S
O314 C292 1.240 . S
O315 Mn289 2.117 . S
O315 C292 1.264 . S
C316 C309 1.403 . S
C316 C317 1.399 . S
C316 H322 0.929 . S
C317 C297 1.449 . S
C317 C316 1.399 . S
C317 H323 0.930 . S
H318 C298 0.931 . S
H319 C299 0.930 . S
H320 C307 0.931 . S
H321 C308 0.929 . S
H322 C316 0.929 . S
H323 C317 0.930 . S
Mn324 O329 2.095 . S
Mn324 O339 2.162 . S
Mn324 O340 2.297 . S
Mn324 O348 2.385 . S
Mn324 O349 2.209 . S
Mn324 O350 2.094 . S
Mn325 O330 2.121 . S
Mn325 N332 2.257 . S
Mn325 N341 2.282 . S
Mn325 O349 2.215 . S
Mn325 O351 2.117 . S
C326 O348 1.234 . S
C326 O349 1.283 . S
C327 O339 1.281 . S
C327 O340 1.236 . S
C328 O350 1.241 1_554 S
C328 O351 1.264 1_554 S
O329 Mn324 2.095 . S
O329 C338 1.250 . S
O330 Mn325 2.121 . S
O330 C338 1.258 . S
C331 N332 1.326 . S
C331 C335 1.460 . S
C331 H337 0.929 . S
N332 Mn325 2.257 . S
N332 C331 1.326 . S
N332 C336 1.362 . S
C333 C334 1.258 . S
C333 C336 1.431 . S
C333 C353 1.449 . S
C334 C333 1.258 . S
C334 C335 1.477 . S
C334 H354 0.931 . S
C335 C331 1.460 . S
C335 C334 1.477 . S
C335 H355 0.930 . S
C336 N332 1.362 . S
C336 C333 1.431 . S
C336 C346 1.476 . S
H337 C331 0.929 . S
C338 O329 1.250 . S
C338 O330 1.258 . S
O339 Mn324 2.162 . S
O339 C327 1.281 . S
O340 Mn324 2.297 . S
O340 C327 1.236 . S
N341 Mn325 2.282 . S
N341 C342 1.328 . S
N341 C346 1.318 . S
C342 N341 1.328 . S
C342 C343 1.457 . S
C342 H347 0.929 . S
C343 C342 1.457 . S
C343 C344 1.291 . S
C343 H356 0.931 . S
C344 C343 1.291 . S
C344 C345 1.373 . S
C344 H357 0.929 . S
C345 C344 1.373 . S
C345 C346 1.396 . S
C345 C352 1.403 . S
C346 C336 1.476 . S
C346 N341 1.318 . S
C346 C345 1.396 . S
H347 C342 0.929 . S
O348 Mn324 2.385 . S
O348 C326 1.234 . S
O349 Mn324 2.209 . S
O349 Mn325 2.215 . S
O349 C326 1.283 . S
O350 Mn324 2.094 . S
O350 C328 1.241 1_556 S
O351 Mn325 2.117 . S
O351 C328 1.264 1_556 S
C352 C345 1.403 . S
C352 C353 1.399 . S
C352 H358 0.929 . S
C353 C333 1.449 . S
C353 C352 1.399 . S
C353 H359 0.930 . S
H354 C334 0.931 . S
H355 C335 0.930 . S
H356 C343 0.931 . S
H357 C344 0.929 . S
H358 C352 0.929 . S
H359 C353 0.930 . S
Mn360 O365 2.095 . S
Mn360 O375 2.162 . S
Mn360 O376 2.298 . S
Mn360 O384 2.385 . S
Mn360 O385 2.209 . S
Mn360 O386 2.094 . S
Mn361 O366 2.121 . S
Mn361 N368 2.257 1_554 S
Mn361 N377 2.282 . S
Mn361 O385 2.215 . S
Mn361 O387 2.117 . S
C362 O384 1.234 1_556 S
C362 O385 1.283 1_556 S
C363 O375 1.281 . S
C363 O376 1.236 . S
C364 O386 1.240 . S
C364 O387 1.264 . S
O365 Mn360 2.095 . S
O365 C374 1.250 . S
O366 Mn361 2.121 . S
O366 C374 1.258 . S
C367 N368 1.326 . S
C367 C371 1.460 . S
C367 H373 0.929 . S
N368 Mn361 2.257 1_556 S
N368 C367 1.326 . S
N368 C372 1.362 . S
C369 C370 1.258 . S
C369 C372 1.431 1_455 S
C369 C389 1.449 . S
C370 C369 1.258 . S
C370 C371 1.477 1_455 S
C370 H390 0.931 . S
C371 C367 1.460 . S
C371 C370 1.477 1_655 S
C371 H391 0.930 . S
C372 N368 1.362 . S
C372 C369 1.431 1_655 S
C372 C382 1.476 1_656 S
H373 C367 0.929 . S
C374 O365 1.250 . S
C374 O366 1.258 . S
O375 Mn360 2.162 . S
O375 C363 1.281 . S
O376 Mn360 2.298 . S
O376 C363 1.236 . S
N377 Mn361 2.282 . S
N377 C378 1.328 1_655 S
N377 C382 1.317 1_655 S
C378 N377 1.328 1_455 S
C378 C379 1.457 . S
C378 H383 0.929 1_455 S
C379 C378 1.457 . S
C379 C380 1.291 . S
C379 H392 0.931 . S
C380 C379 1.291 . S
C380 C381 1.373 1_554 S
C380 H393 0.929 1_554 S
C381 C380 1.373 1_556 S
C381 C382 1.396 1_556 S
C381 C388 1.403 . S
C382 C372 1.476 1_454 S
C382 N377 1.317 1_455 S
C382 C381 1.396 1_554 S
H383 C378 0.929 1_655 S
O384 Mn360 2.385 . S
O384 C362 1.234 1_554 S
O385 Mn360 2.209 . S
O385 Mn361 2.215 . S
O385 C362 1.283 1_554 S
O386 Mn360 2.094 . S
O386 C364 1.240 . S
O387 Mn361 2.117 . S
O387 C364 1.264 . S
C388 C381 1.403 . S
C388 C389 1.399 . S
C388 H394 0.929 . S
C389 C369 1.449 . S
C389 C388 1.399 . S
C389 H395 0.930 . S
H390 C370 0.931 . S
H391 C371 0.930 . S
H392 C379 0.931 . S
H393 C380 0.929 1_556 S
H394 C388 0.929 . S
H395 C389 0.930 . S
Mn396 O401 2.095 . S
Mn396 O411 2.162 . S
Mn396 O412 2.297 . S
Mn396 O420 2.385 . S
Mn396 O421 2.209 . S
Mn396 O422 2.094 . S
Mn397 O402 2.121 . S
Mn397 N404 2.257 . S
Mn397 N413 2.282 . S
Mn397 O421 2.215 . S
Mn397 O423 2.117 . S
C398 O420 1.234 . S
C398 O421 1.283 . S
C399 O411 1.281 . S
C399 O412 1.236 . S
C400 O422 1.240 . S
C400 O423 1.264 . S
O401 Mn396 2.095 . S
O401 C410 1.250 . S
O402 Mn397 2.121 . S
O402 C410 1.258 . S
C403 N404 1.326 . S
C403 C407 1.460 . S
C403 H409 0.929 . S
N404 Mn397 2.257 . S
N404 C403 1.326 . S
N404 C408 1.362 . S
C405 C406 1.258 . S
C405 C408 1.431 1_545 S
C405 C425 1.449 . S
C406 C405 1.258 . S
C406 C407 1.477 1_545 S
C406 H426 0.931 . S
C407 C403 1.460 . S
C407 C406 1.477 1_565 S
C407 H427 0.930 . S
C408 N404 1.362 . S
C408 C405 1.431 1_565 S
C408 C418 1.476 1_565 S
H409 C403 0.929 . S
C410 O401 1.250 . S
C410 O402 1.258 . S
O411 Mn396 2.162 . S
O411 C399 1.281 . S
O412 Mn396 2.297 . S
O412 C399 1.236 . S
N413 Mn397 2.282 . S
N413 C414 1.328 1_565 S
N413 C418 1.318 1_565 S
C414 N413 1.328 1_545 S
C414 C415 1.457 . S
C414 H419 0.929 1_545 S
C415 C414 1.457 . S
C415 C416 1.291 . S
C415 H428 0.931 . S
C416 C415 1.291 . S
C416 C417 1.373 . S
C416 H429 0.929 . S
C417 C416 1.373 . S
C417 C418 1.396 . S
C417 C424 1.403 . S
C418 C408 1.476 1_545 S
C418 N413 1.318 1_545 S
C418 C417 1.396 . S
H419 C414 0.929 1_565 S
O420 Mn396 2.385 . S
O420 C398 1.234 . S
O421 Mn396 2.209 . S
O421 Mn397 2.215 . S
O421 C398 1.283 . S
O422 Mn396 2.094 . S
O422 C400 1.240 . S
O423 Mn397 2.117 . S
O423 C400 1.264 . S
C424 C417 1.403 . S
C424 C425 1.399 . S
C424 H430 0.929 . S
C425 C405 1.449 . S
C425 C424 1.399 . S
C425 H431 0.930 . S
H426 C406 0.931 . S
H427 C407 0.930 . S
H428 C415 0.931 . S
H429 C416 0.929 . S
H430 C424 0.929 . S
H431 C425 0.930 . S
C432 C433 1.391 . S
C432 C434 1.394 . S
C432 H448 0.931 . S
C433 C432 1.391 . S
C433 C437 1.376 . S
C434 C432 1.394 . S
C434 C435 1.369 . S
C434 C438 1.531 . S
C435 C434 1.369 . S
C435 C436 1.410 . S
C435 C443 1.503 . S
C436 C435 1.410 . S
C436 C437 1.392 . S
C436 C439 1.511 . S
C437 C433 1.376 . S
C437 C436 1.392 . S
C437 H449 0.929 . S
C438 C434 1.531 . S
C438 H450 0.960 . S
C438 H451 0.962 . S
C438 H452 0.960 . S
C439 C436 1.511 . S
C439 H453 0.961 . S
C439 H454 0.961 . S
C439 H455 0.961 . S
C440 C441 1.370 . S
C440 C442 1.363 . S
C440 H456 0.931 . S
C441 C440 1.370 . S
C441 C445 1.408 . S
C442 C440 1.363 . S
C442 C443 1.370 . S
C442 C446 1.524 . S
C443 C435 1.503 . S
C443 C442 1.370 . S
C443 C444 1.403 . S
C444 C443 1.403 . S
C444 C445 1.404 . S
C444 C447 1.539 . S
C445 C441 1.408 . S
C445 C444 1.404 . S
C445 H457 0.930 . S
C446 C442 1.524 . S
C446 H458 0.956 . S
C446 H459 0.961 . S
C446 H460 0.961 . S
C447 C444 1.539 . S
C447 H461 0.958 . S
C447 H462 0.961 . S
C447 H463 0.960 . S
H448 C432 0.931 . S
H449 C437 0.929 . S
H450 C438 0.960 . S
H451 C438 0.962 . S
H452 C438 0.960 . S
H453 C439 0.961 . S
H454 C439 0.961 . S
H455 C439 0.961 . S
H456 C440 0.931 . S
H457 C445 0.930 . S
H458 C446 0.956 . S
H459 C446 0.961 . S
H460 C446 0.961 . S
H461 C447 0.958 . S
H462 C447 0.961 . S
H463 C447 0.960 . S
C464 C465 1.391 . S
C464 C466 1.394 . S
C464 H480 0.931 . S
C465 C464 1.391 . S
C465 C469 1.376 . S
C466 C464 1.394 . S
C466 C467 1.369 . S
C466 C470 1.531 . S
C467 C466 1.369 . S
C467 C468 1.410 . S
C467 C475 1.503 1_455 S
C468 C467 1.410 . S
C468 C469 1.392 . S
C468 C471 1.511 . S
C469 C465 1.376 . S
C469 C468 1.392 . S
C469 H481 0.929 . S
C470 C466 1.531 . S
C470 H482 0.960 . S
C470 H483 0.962 . S
C470 H484 0.960 . S
C471 C468 1.511 . S
C471 H485 0.961 . S
C471 H486 0.961 1_455 S
C471 H487 0.961 . S
C472 C473 1.370 . S
C472 C474 1.363 . S
C472 H488 0.931 . S
C473 C472 1.370 . S
C473 C477 1.408 . S
C474 C472 1.363 . S
C474 C475 1.370 . S
C474 C478 1.524 . S
C475 C467 1.503 1_655 S
C475 C474 1.370 . S
C475 C476 1.403 1_655 S
C476 C475 1.403 1_455 S
C476 C477 1.404 1_455 S
C476 C479 1.539 . S
C477 C473 1.408 . S
C477 C476 1.404 1_655 S
C477 H489 0.930 . S
C478 C474 1.524 . S
C478 H490 0.956 . S
C478 H491 0.961 . S
C478 H492 0.961 . S
C479 C476 1.539 . S
C479 H493 0.958 . S
C479 H494 0.961 . S
C479 H495 0.960 . S
H480 C464 0.931 . S
H481 C469 0.929 . S
H482 C470 0.960 . S
H483 C470 0.962 . S
H484 C470 0.960 . S
H485 C471 0.961 . S
H486 C471 0.961 1_655 S
H487 C471 0.961 . S
H488 C472 0.931 . S
H489 C477 0.930 . S
H490 C478 0.956 . S
H491 C478 0.961 . S
H492 C478 0.961 . S
H493 C479 0.958 . S
H494 C479 0.961 . S
H495 C479 0.960 . S
C496 C497 1.391 . S
C496 C498 1.394 . S
C496 H512 0.931 . S
C497 C496 1.391 . S
C497 C501 1.376 . S
C498 C496 1.394 . S
C498 C499 1.369 . S
C498 C502 1.531 . S
C499 C498 1.369 . S
C499 C500 1.410 . S
C499 C507 1.503 1_565 S
C500 C499 1.410 . S
C500 C501 1.392 . S
C500 C503 1.511 1_565 S
C501 C497 1.376 . S
C501 C500 1.392 . S
C501 H513 0.929 . S
C502 C498 1.531 . S
C502 H514 0.960 . S
C502 H515 0.962 . S
C502 H516 0.960 . S
C503 C500 1.511 1_545 S
C503 H517 0.961 . S
C503 H518 0.961 . S
C503 H519 0.961 . S
C504 C505 1.370 . S
C504 C506 1.363 . S
C504 H520 0.931 . S
C505 C504 1.370 . S
C505 C509 1.408 . S
C506 C504 1.363 . S
C506 C507 1.370 . S
C506 C510 1.524 1_545 S
C507 C499 1.503 1_545 S
C507 C506 1.370 . S
C507 C508 1.403 . S
C508 C507 1.403 . S
C508 C509 1.404 . S
C508 C511 1.539 . S
C509 C505 1.408 . S
C509 C508 1.404 . S
C509 H521 0.930 . S
C510 C506 1.524 1_565 S
C510 H522 0.956 . S
C510 H523 0.961 . S
C510 H524 0.961 . S
C511 C508 1.539 . S
C511 H525 0.958 . S
C511 H526 0.961 . S
C511 H527 0.960 . S
H512 C496 0.931 . S
H513 C501 0.929 . S
H514 C502 0.960 . S
H515 C502 0.962 . S
H516 C502 0.960 . S
H517 C503 0.961 . S
H518 C503 0.961 . S
H519 C503 0.961 . S
H520 C504 0.931 . S
H521 C509 0.930 . S
H522 C510 0.956 . S
H523 C510 0.961 . S
H524 C510 0.961 . S
H525 C511 0.958 . S
H526 C511 0.961 . S
H527 C511 0.960 . S
C528 C529 1.391 . S
C528 C530 1.394 . S
C528 H544 0.931 . S
C529 C528 1.391 . S
C529 C533 1.376 . S
C530 C528 1.394 . S
C530 C531 1.369 . S
C530 C534 1.531 . S
C531 C530 1.369 . S
C531 C532 1.410 . S
C531 C539 1.503 . S
C532 C531 1.410 . S
C532 C533 1.392 . S
C532 C535 1.511 . S
C533 C529 1.376 . S
C533 C532 1.392 . S
C533 H545 0.929 . S
C534 C530 1.531 . S
C534 H546 0.960 . S
C534 H547 0.962 . S
C534 H548 0.960 . S
C535 C532 1.511 . S
C535 H549 0.961 . S
C535 H550 0.961 . S
C535 H551 0.961 . S
C536 C537 1.370 . S
C536 C538 1.363 . S
C536 H552 0.931 . S
C537 C536 1.370 . S
C537 C541 1.408 . S
C538 C536 1.363 . S
C538 C539 1.370 . S
C538 C542 1.524 . S
C539 C531 1.503 . S
C539 C538 1.370 . S
C539 C540 1.403 . S
C540 C539 1.403 . S
C540 C541 1.404 . S
C540 C543 1.539 . S
C541 C537 1.408 . S
C541 C540 1.404 . S
C541 H553 0.930 . S
C542 C538 1.524 . S
C542 H554 0.956 . S
C542 H555 0.961 . S
C542 H556 0.961 . S
C543 C540 1.539 . S
C543 H557 0.958 . S
C543 H558 0.961 . S
C543 H559 0.960 . S
H544 C528 0.931 . S
H545 C533 0.929 . S
H546 C534 0.960 . S
H547 C534 0.962 . S
H548 C534 0.960 . S
H549 C535 0.961 . S
H550 C535 0.961 . S
H551 C535 0.961 . S
H552 C536 0.931 . S
H553 C541 0.930 . S
H554 C542 0.956 . S
H555 C542 0.961 . S
H556 C542 0.961 . S
H557 C543 0.958 . S
H558 C543 0.961 . S
H559 C543 0.960 . S
C560 C561 1.391 . S
C560 C562 1.394 . S
C560 H576 0.931 . S
C561 C560 1.391 . S
C561 C565 1.376 . S
C562 C560 1.394 . S
C562 C563 1.369 . S
C562 C566 1.531 . S
C563 C562 1.369 . S
C563 C564 1.410 . S
C563 C571 1.503 1_455 S
C564 C563 1.410 . S
C564 C565 1.392 . S
C564 C567 1.511 . S
C565 C561 1.376 . S
C565 C564 1.392 . S
C565 H577 0.929 . S
C566 C562 1.531 . S
C566 H578 0.960 1_455 S
C566 H579 0.962 . S
C566 H580 0.960 . S
C567 C564 1.511 . S
C567 H581 0.961 . S
C567 H582 0.961 1_455 S
C567 H583 0.961 1_455 S
C568 C569 1.370 . S
C568 C570 1.363 . S
C568 H584 0.931 . S
C569 C568 1.370 . S
C569 C573 1.408 . S
C570 C568 1.363 . S
C570 C571 1.370 . S
C570 C574 1.524 1_655 S
C571 C563 1.503 1_655 S
C571 C570 1.370 . S
C571 C572 1.403 . S
C572 C571 1.403 . S
C572 C573 1.404 . S
C572 C575 1.539 . S
C573 C569 1.408 . S
C573 C572 1.404 . S
C573 H585 0.930 . S
C574 C570 1.524 1_455 S
C574 H586 0.956 . S
C574 H587 0.961 . S
C574 H588 0.961 . S
C575 C572 1.539 . S
C575 H589 0.958 . S
C575 H590 0.961 . S
C575 H591 0.960 . S
H576 C560 0.931 . S
H577 C565 0.929 . S
H578 C566 0.960 1_655 S
H579 C566 0.962 . S
H580 C566 0.960 . S
H581 C567 0.961 . S
H582 C567 0.961 1_655 S
H583 C567 0.961 1_655 S
H584 C568 0.931 . S
H585 C573 0.930 . S
H586 C574 0.956 . S
H587 C574 0.961 . S
H588 C574 0.961 . S
H589 C575 0.958 . S
H590 C575 0.961 . S
H591 C575 0.960 . S
C592 C593 1.391 . S
C592 C594 1.394 . S
C592 H608 0.931 . S
C593 C592 1.391 . S
C593 C597 1.376 . S
C594 C592 1.394 . S
C594 C595 1.369 . S
C594 C598 1.531 1_556 S
C595 C594 1.369 . S
C595 C596 1.412 . S
C595 C603 1.503 1_546 S
C596 C595 1.412 . S
C596 C597 1.396 . S
C596 C599 1.505 1_545 S
C597 C593 1.376 . S
C597 C596 1.396 . S
C597 H609 0.929 . S
C598 C594 1.531 1_554 S
C598 H610 0.960 . S
C598 H611 0.962 . S
C598 H612 0.960 . S
C599 C596 1.505 1_565 S
C599 H613 0.961 . S
C599 H614 0.961 . S
C599 H615 0.961 . S
C600 C601 1.370 . S
C600 C602 1.363 . S
C600 H616 0.931 . S
C601 C600 1.370 . S
C601 C605 1.408 . S
C602 C600 1.363 . S
C602 C603 1.370 . S
C602 C606 1.524 . S
C603 C595 1.503 1_564 S
C603 C602 1.370 . S
C603 C604 1.403 . S
C604 C603 1.403 . S
C604 C605 1.404 . S
C604 C607 1.539 . S
C605 C601 1.408 . S
C605 C604 1.404 . S
C605 H617 0.930 . S
C606 C602 1.524 . S
C606 H618 0.956 1_565 S
C606 H619 0.961 1_554 S
C606 H620 0.961 . S
C607 C604 1.539 . S
C607 H621 0.958 1_565 S
C607 H622 0.961 . S
C607 H623 0.960 1_554 S
H608 C592 0.931 . S
H609 C597 0.929 . S
H610 C598 0.960 . S
H611 C598 0.962 . S
H612 C598 0.960 . S
H613 C599 0.961 . S
H614 C599 0.961 . S
H615 C599 0.961 . S
H616 C600 0.931 . S
H617 C605 0.930 . S
H618 C606 0.956 1_545 S
H619 C606 0.961 1_556 S
H620 C606 0.961 . S
H621 C607 0.958 1_545 S
H622 C607 0.961 . S
H623 C607 0.960 1_556 S
C624 C625 1.391 . S
C624 C626 1.394 . S
C624 H640 0.931 . S
C625 C624 1.391 . S
C625 C629 1.376 . S
C626 C624 1.394 . S
C626 C627 1.369 . S
C626 C630 1.531 . S
C627 C626 1.369 . S
C627 C628 1.410 . S
C627 C635 1.503 . S
C628 C627 1.410 . S
C628 C629 1.392 . S
C628 C631 1.511 . S
C629 C625 1.376 . S
C629 C628 1.392 . S
C629 H641 0.929 . S
C630 C626 1.531 . S
C630 H642 0.960 . S
C630 H643 0.962 . S
C630 H644 0.960 . S
C631 C628 1.511 . S
C631 H645 0.961 . S
C631 H646 0.961 . S
C631 H647 0.961 . S
C632 C633 1.370 . S
C632 C634 1.363 . S
C632 H648 0.931 . S
C633 C632 1.370 . S
C633 C637 1.408 . S
C634 C632 1.363 . S
C634 C635 1.370 . S
C634 C638 1.524 . S
C635 C627 1.503 . S
C635 C634 1.370 . S
C635 C636 1.403 . S
C636 C635 1.403 . S
C636 C637 1.404 . S
C636 C639 1.539 . S
C637 C633 1.408 . S
C637 C636 1.404 . S
C637 H649 0.930 . S
C638 C634 1.524 . S
C638 H650 0.956 . S
C638 H651 0.961 . S
C638 H652 0.961 . S
C639 C636 1.539 . S
C639 H653 0.958 . S
C639 H654 0.961 . S
C639 H655 0.960 . S
H640 C624 0.931 . S
H641 C629 0.929 . S
H642 C630 0.960 . S
H643 C630 0.962 . S
H644 C630 0.960 . S
H645 C631 0.961 . S
H646 C631 0.961 . S
H647 C631 0.961 . S
H648 C632 0.931 . S
H649 C637 0.930 . S
H650 C638 0.956 . S
H651 C638 0.961 . S
H652 C638 0.961 . S
H653 C639 0.958 . S
H654 C639 0.961 . S
H655 C639 0.960 . S
C656 C657 1.391 . S
C656 C658 1.394 . S
C656 H672 0.931 . S
C657 C656 1.391 . S
C657 C661 1.376 . S
C658 C656 1.394 . S
C658 C659 1.369 . S
C658 C662 1.531 . S
C659 C658 1.369 . S
C659 C660 1.410 . S
C659 C667 1.503 . S
C660 C659 1.410 . S
C660 C661 1.392 . S
C660 C663 1.511 . S
C661 C657 1.376 . S
C661 C660 1.392 . S
C661 H673 0.929 . S
C662 C658 1.531 . S
C662 H674 0.960 . S
C662 H675 0.962 . S
C662 H676 0.960 . S
C663 C660 1.511 . S
C663 H677 0.961 . S
C663 H678 0.961 . S
C663 H679 0.961 . S
C664 C665 1.370 . S
C664 C666 1.363 . S
C664 H680 0.931 . S
C665 C664 1.370 . S
C665 C669 1.408 . S
C666 C664 1.363 . S
C666 C667 1.370 . S
C666 C670 1.524 . S
C667 C659 1.503 . S
C667 C666 1.370 . S
C667 C668 1.403 . S
C668 C667 1.403 . S
C668 C669 1.404 . S
C668 C671 1.539 . S
C669 C665 1.408 . S
C669 C668 1.404 . S
C669 H681 0.930 . S
C670 C666 1.524 . S
C670 H682 0.956 . S
C670 H683 0.961 . S
C670 H684 0.961 . S
C671 C668 1.539 . S
C671 H685 0.958 . S
C671 H686 0.961 . S
C671 H687 0.960 . S
H672 C656 0.931 . S
H673 C661 0.929 . S
H674 C662 0.960 . S
H675 C662 0.962 . S
H676 C662 0.960 . S
H677 C663 0.961 . S
H678 C663 0.961 . S
H679 C663 0.961 . S
H680 C664 0.931 . S
H681 C669 0.930 . S
H682 C670 0.956 . S
H683 C670 0.961 . S
H684 C670 0.961 . S
H685 C671 0.958 . S
H686 C671 0.961 . S
H687 C671 0.960 . S
C688 C689 1.391 . S
C688 C690 1.394 . S
C688 H704 0.931 . S
C689 C688 1.391 . S
C689 C693 1.376 . S
C690 C688 1.394 . S
C690 C691 1.369 . S
C690 C694 1.531 . S
C691 C690 1.369 . S
C691 C692 1.410 . S
C691 C699 1.503 . S
C692 C691 1.410 . S
C692 C693 1.392 . S
C692 C695 1.511 . S
C693 C689 1.376 . S
C693 C692 1.392 . S
C693 H705 0.929 . S
C694 C690 1.531 . S
C694 H706 0.960 . S
C694 H707 0.962 . S
C694 H708 0.960 . S
C695 C692 1.511 . S
C695 H709 0.961 . S
C695 H710 0.961 . S
C695 H711 0.961 . S
C696 C697 1.370 . S
C696 C698 1.363 . S
C696 H712 0.931 . S
C697 C696 1.370 . S
C697 C701 1.408 . S
C698 C696 1.363 . S
C698 C699 1.370 . S
C698 C702 1.524 . S
C699 C691 1.503 . S
C699 C698 1.370 . S
C699 C700 1.403 . S
C700 C699 1.403 . S
C700 C701 1.404 . S
C700 C703 1.539 . S
C701 C697 1.408 . S
C701 C700 1.404 . S
C701 H713 0.930 . S
C702 C698 1.524 . S
C702 H714 0.956 . S
C702 H715 0.961 . S
C702 H716 0.961 . S
C703 C700 1.539 . S
C703 H717 0.958 . S
C703 H718 0.961 . S
C703 H719 0.960 . S
H704 C688 0.931 . S
H705 C693 0.929 . S
H706 C694 0.960 . S
H707 C694 0.962 . S
H708 C694 0.960 . S
H709 C695 0.961 . S
H710 C695 0.961 . S
H711 C695 0.961 . S
H712 C696 0.931 . S
H713 C701 0.930 . S
H714 C702 0.956 . S
H715 C702 0.961 . S
H716 C702 0.961 . S
H717 C703 0.958 . S
H718 C703 0.961 . S
H719 C703 0.960 . S
C720 C721 1.391 . S
C720 C722 1.394 . S
C720 H736 0.931 . S
C721 C720 1.391 . S
C721 C725 1.376 . S
C722 C720 1.394 . S
C722 C723 1.369 . S
C722 C726 1.531 . S
C723 C722 1.369 . S
C723 C724 1.410 . S
C723 C731 1.503 . S
C724 C723 1.410 . S
C724 C725 1.392 . S
C724 C727 1.511 . S
C725 C721 1.376 . S
C725 C724 1.392 . S
C725 H737 0.929 . S
C726 C722 1.531 . S
C726 H738 0.960 . S
C726 H739 0.962 . S
C726 H740 0.960 . S
C727 C724 1.511 . S
C727 H741 0.961 1_556 S
C727 H742 0.961 . S
C727 H743 0.961 . S
C728 C729 1.370 . S
C728 C730 1.363 . S
C728 H744 0.931 . S
C729 C728 1.370 . S
C729 C733 1.408 . S
C730 C728 1.363 . S
C730 C731 1.370 . S
C730 C734 1.524 . S
C731 C723 1.503 . S
C731 C730 1.370 . S
C731 C732 1.403 . S
C732 C731 1.403 . S
C732 C733 1.404 . S
C732 C735 1.539 . S
C733 C729 1.408 . S
C733 C732 1.404 . S
C733 H745 0.930 . S
C734 C730 1.524 . S
C734 H746 0.956 . S
C734 H747 0.961 1_556 S
C734 H748 0.961 1_556 S
C735 C732 1.539 . S
C735 H749 0.958 . S
C735 H750 0.961 . S
C735 H751 0.960 . S
H736 C720 0.931 . S
H737 C725 0.929 . S
H738 C726 0.960 . S
H739 C726 0.962 . S
H740 C726 0.960 . S
H741 C727 0.961 1_554 S
H742 C727 0.961 . S
H743 C727 0.961 . S
H744 C728 0.931 . S
H745 C733 0.930 . S
H746 C734 0.956 . S
H747 C734 0.961 1_554 S
H748 C734 0.961 1_554 S
H749 C735 0.958 . S
H750 C735 0.961 . S
H751 C735 0.960 . S
C752 C753 1.391 . S
C752 C754 1.394 . S
C752 H768 0.931 . S
C753 C752 1.391 . S
C753 C757 1.376 . S
C754 C752 1.394 . S
C754 C755 1.369 . S
C754 C758 1.531 . S
C755 C754 1.369 . S
C755 C756 1.410 . S
C755 C763 1.503 . S
C756 C755 1.410 . S
C756 C757 1.392 . S
C756 C759 1.511 1_554 S
C757 C753 1.376 . S
C757 C756 1.392 . S
C757 H769 0.929 . S
C758 C754 1.531 . S
C758 H770 0.960 . S
C758 H771 0.962 . S
C758 H772 0.960 . S
C759 C756 1.511 1_556 S
C759 H773 0.961 . S
C759 H774 0.961 . S
C759 H775 0.961 . S
C760 C761 1.370 . S
C760 C762 1.363 . S
C760 H776 0.931 . S
C761 C760 1.370 . S
C761 C765 1.408 . S
C762 C760 1.363 . S
C762 C763 1.370 . S
C762 C766 1.524 . S
C763 C755 1.503 . S
C763 C762 1.370 . S
C763 C764 1.403 . S
C764 C763 1.403 . S
C764 C765 1.404 . S
C764 C767 1.539 . S
C765 C761 1.408 . S
C765 C764 1.404 . S
C765 H777 0.930 . S
C766 C762 1.524 . S
C766 H778 0.956 . S
C766 H779 0.961 . S
C766 H780 0.961 . S
C767 C764 1.539 . S
C767 H781 0.958 . S
C767 H782 0.961 1_554 S
C767 H783 0.960 . S
H768 C752 0.931 . S
H769 C757 0.929 . S
H770 C758 0.960 . S
H771 C758 0.962 . S
H772 C758 0.960 . S
H773 C759 0.961 . S
H774 C759 0.961 . S
H775 C759 0.961 . S
H776 C760 0.931 . S
H777 C765 0.930 . S
H778 C766 0.956 . S
H779 C766 0.961 . S
H780 C766 0.961 . S
H781 C767 0.958 . S
H782 C767 0.961 1_556 S
H783 C767 0.960 . S
C784 C785 1.391 . S
C784 C786 1.394 . S
C784 H800 0.931 . S
C785 C784 1.391 . S
C785 C789 1.376 . S
C786 C784 1.394 . S
C786 C787 1.369 . S
C786 C790 1.531 . S
C787 C786 1.369 . S
C787 C788 1.410 . S
C787 C795 1.503 . S
C788 C787 1.410 . S
C788 C789 1.392 . S
C788 C791 1.511 . S
C789 C785 1.376 . S
C789 C788 1.392 . S
C789 H801 0.929 . S
C790 C786 1.531 . S
C790 H802 0.960 . S
C790 H803 0.962 . S
C790 H804 0.960 . S
C791 C788 1.511 . S
C791 H805 0.961 . S
C791 H806 0.961 . S
C791 H807 0.961 . S
C792 C793 1.370 . S
C792 C794 1.363 . S
C792 H808 0.931 . S
C793 C792 1.370 . S
C793 C797 1.408 . S
C794 C792 1.363 . S
C794 C795 1.370 . S
C794 C798 1.524 . S
C795 C787 1.503 . S
C795 C794 1.370 . S
C795 C796 1.403 . S
C796 C795 1.403 . S
C796 C797 1.404 . S
C796 C799 1.539 . S
C797 C793 1.408 . S
C797 C796 1.404 . S
C797 H809 0.930 . S
C798 C794 1.524 . S
C798 H810 0.956 . S
C798 H811 0.961 . S
C798 H812 0.961 . S
C799 C796 1.539 . S
C799 H813 0.958 . S
C799 H814 0.961 . S
C799 H815 0.960 . S
H800 C784 0.931 . S
H801 C789 0.929 . S
H802 C790 0.960 . S
H803 C790 0.962 . S
H804 C790 0.960 . S
H805 C791 0.961 . S
H806 C791 0.961 . S
H807 C791 0.961 . S
H808 C792 0.931 . S
H809 C797 0.930 . S
H810 C798 0.956 . S
H811 C798 0.961 . S
H812 C798 0.961 . S
H813 C799 0.958 . S
H814 C799 0.961 . S
H815 C799 0.960 . S
C816 C817 1.391 . S
C816 C818 1.394 . S
C816 H832 0.931 . S
C817 C816 1.391 . S
C817 C821 1.376 . S
C818 C816 1.394 . S
C818 C819 1.369 . S
C818 C822 1.531 . S
C819 C818 1.369 . S
C819 C820 1.410 . S
C819 C827 1.503 . S
C820 C819 1.410 . S
C820 C821 1.392 . S
C820 C823 1.511 . S
C821 C817 1.376 . S
C821 C820 1.392 . S
C821 H833 0.929 . S
C822 C818 1.531 . S
C822 H834 0.960 . S
C822 H835 0.962 . S
C822 H836 0.960 . S
C823 C820 1.511 . S
C823 H837 0.961 . S
C823 H838 0.961 . S
C823 H839 0.961 . S
C824 C825 1.370 . S
C824 C826 1.363 . S
C824 H840 0.931 . S
C825 C824 1.370 . S
C825 C829 1.408 . S
C826 C824 1.363 . S
C826 C827 1.370 . S
C826 C830 1.524 . S
C827 C819 1.503 . S
C827 C826 1.370 . S
C827 C828 1.403 . S
C828 C827 1.403 . S
C828 C829 1.404 . S
C828 C831 1.539 . S
C829 C825 1.408 . S
C829 C828 1.404 . S
C829 H841 0.930 . S
C830 C826 1.524 . S
C830 H842 0.956 . S
C830 H843 0.961 . S
C830 H844 0.961 . S
C831 C828 1.539 . S
C831 H845 0.958 . S
C831 H846 0.961 . S
C831 H847 0.960 . S
H832 C816 0.931 . S
H833 C821 0.929 . S
H834 C822 0.960 . S
H835 C822 0.962 . S
H836 C822 0.960 . S
H837 C823 0.961 . S
H838 C823 0.961 . S
H839 C823 0.961 . S
H840 C824 0.931 . S
H841 C829 0.930 . S
H842 C830 0.956 . S
H843 C830 0.961 . S
H844 C830 0.961 . S
H845 C831 0.958 . S
H846 C831 0.961 . S
H847 C831 0.960 . S
C848 C849 1.391 . S
C848 C850 1.394 . S
C848 H864 0.931 . S
C849 C848 1.391 . S
C849 C853 1.376 . S
C850 C848 1.394 . S
C850 C851 1.369 . S
C850 C854 1.531 1_655 S
C851 C850 1.369 . S
C851 C852 1.410 . S
C851 C859 1.503 1_655 S
C852 C851 1.410 . S
C852 C853 1.392 . S
C852 C855 1.511 . S
C853 C849 1.376 . S
C853 C852 1.392 . S
C853 H865 0.929 . S
C854 C850 1.531 1_455 S
C854 H866 0.960 . S
C854 H867 0.962 . S
C854 H868 0.960 1_455 S
C855 C852 1.511 . S
C855 H869 0.961 . S
C855 H870 0.961 . S
C855 H871 0.961 . S
C856 C857 1.370 . S
C856 C858 1.363 . S
C856 H872 0.931 . S
C857 C856 1.370 . S
C857 C861 1.408 . S
C858 C856 1.363 . S
C858 C859 1.370 . S
C858 C862 1.524 . S
C859 C851 1.503 1_455 S
C859 C858 1.370 . S
C859 C860 1.403 1_455 S
C860 C859 1.403 1_655 S
C860 C861 1.406 1_655 S
C860 C863 1.536 . S
C861 C857 1.408 . S
C861 C860 1.406 1_455 S
C861 H873 0.930 . S
C862 C858 1.524 . S
C862 H874 0.956 . S
C862 H875 0.961 . S
C862 H876 0.961 . S
C863 C860 1.536 . S
C863 H877 0.958 . S
C863 H878 0.961 . S
C863 H879 0.960 . S
H864 C848 0.931 . S
H865 C853 0.929 . S
H866 C854 0.960 . S
H867 C854 0.962 . S
H868 C854 0.960 1_655 S
H869 C855 0.961 . S
H870 C855 0.961 . S
H871 C855 0.961 . S
H872 C856 0.931 . S
H873 C861 0.930 . S
H874 C862 0.956 . S
H875 C862 0.961 . S
H876 C862 0.961 . S
H877 C863 0.958 . S
H878 C863 0.961 . S
H879 C863 0.960 . S
C880 C881 1.391 . S
C880 C882 1.390 1_565 S
C880 H896 0.931 . S
C881 C880 1.391 . S
C881 C885 1.376 . S
C882 C880 1.390 1_545 S
C882 C883 1.366 1_545 S
C882 C886 1.537 . S
C883 C882 1.366 1_565 S
C883 C884 1.410 . S
C883 C891 1.503 1_564 S
C884 C883 1.410 . S
C884 C885 1.392 . S
C884 C887 1.511 1_554 S
C885 C881 1.376 . S
C885 C884 1.392 . S
C885 H897 0.929 . S
C886 C882 1.537 . S
C886 H898 0.960 . S
C886 H899 0.962 . S
C886 H900 0.960 . S
C887 C884 1.511 1_556 S
C887 H901 0.961 . S
C887 H902 0.961 . S
C887 H903 0.961 . S
C888 C889 1.370 . S
C888 C890 1.363 . S
C888 H904 0.931 . S
C889 C888 1.370 . S
C889 C893 1.408 . S
C890 C888 1.363 . S
C890 C891 1.370 . S
C890 C894 1.524 1_545 S
C891 C883 1.503 1_546 S
C891 C890 1.370 . S
C891 C892 1.403 . S
C892 C891 1.403 . S
C892 C893 1.404 . S
C892 C895 1.539 . S
C893 C889 1.408 . S
C893 C892 1.404 . S
C893 H905 0.930 . S
C894 C890 1.524 1_565 S
C894 H906 0.956 1_566 S
C894 H907 0.961 . S
C894 H908 0.960 1_565 S
C895 C892 1.539 . S
C895 H909 0.958 1_556 S
C895 H910 0.961 . S
C895 H911 0.960 1_556 S
H896 C880 0.931 . S
H897 C885 0.929 . S
H898 C886 0.960 . S
H899 C886 0.962 . S
H900 C886 0.960 . S
H901 C887 0.961 . S
H902 C887 0.961 . S
H903 C887 0.961 . S
H904 C888 0.931 . S
H905 C893 0.930 . S
H906 C894 0.956 1_544 S
H907 C894 0.961 . S
H908 C894 0.960 1_545 S
H909 C895 0.958 1_554 S
H910 C895 0.961 . S
H911 C895 0.960 1_554 S
C912 C913 1.391 . S
C912 C914 1.394 . S
C912 H928 0.931 . S
C913 C912 1.391 . S
C913 C917 1.376 . S
C914 C912 1.394 . S
C914 C915 1.369 . S
C914 C918 1.531 . S
C915 C914 1.369 . S
C915 C916 1.410 . S
C915 C923 1.503 . S
C916 C915 1.410 . S
C916 C917 1.392 . S
C916 C919 1.511 . S
C917 C913 1.376 . S
C917 C916 1.392 . S
C917 H929 0.929 . S
C918 C914 1.531 . S
C918 H930 0.960 . S
C918 H931 0.962 . S
C918 H932 0.960 . S
C919 C916 1.511 . S
C919 H933 0.961 . S
C919 H934 0.961 . S
C919 H935 0.961 . S
C920 C921 1.370 . S
C920 C922 1.363 . S
C920 H936 0.931 . S
C921 C920 1.370 . S
C921 C925 1.408 . S
C922 C920 1.363 . S
C922 C923 1.370 . S
C922 C926 1.524 . S
C923 C915 1.503 . S
C923 C922 1.370 . S
C923 C924 1.403 . S
C924 C923 1.403 . S
C924 C925 1.404 . S
C924 C927 1.539 . S
C925 C921 1.408 . S
C925 C924 1.404 . S
C925 H937 0.930 . S
C926 C922 1.524 . S
C926 H938 0.956 . S
C926 H939 0.961 . S
C926 H940 0.961 . S
C927 C924 1.539 . S
C927 H941 0.958 . S
C927 H942 0.961 . S
C927 H943 0.960 . S
H928 C912 0.931 . S
H929 C917 0.929 . S
H930 C918 0.960 . S
H931 C918 0.962 . S
H932 C918 0.960 . S
H933 C919 0.961 . S
H934 C919 0.961 . S
H935 C919 0.961 . S
H936 C920 0.931 . S
H937 C925 0.930 . S
H938 C926 0.956 . S
H939 C926 0.961 . S
H940 C926 0.961 . S
H941 C927 0.958 . S
H942 C927 0.961 . S
H943 C927 0.960 . S
C944 C945 1.391 . S
C944 C946 1.394 . S
C944 H960 0.931 . S
C945 C944 1.391 . S
C945 C949 1.376 . S
C946 C944 1.394 . S
C946 C947 1.369 . S
C946 C950 1.531 1_455 S
C947 C946 1.369 . S
C947 C948 1.410 . S
C947 C955 1.503 1_455 S
C948 C947 1.410 . S
C948 C949 1.392 . S
C948 C951 1.511 . S
C949 C945 1.376 . S
C949 C948 1.392 . S
C949 H961 0.929 . S
C950 C946 1.531 1_655 S
C950 H962 0.960 . S
C950 H963 0.962 . S
C950 H964 0.960 1_655 S
C951 C948 1.511 . S
C951 H965 0.961 . S
C951 H966 0.961 . S
C951 H967 0.961 . S
C952 C953 1.370 . S
C952 C954 1.363 . S
C952 H968 0.931 . S
C953 C952 1.370 . S
C953 C957 1.408 . S
C954 C952 1.363 . S
C954 C955 1.370 . S
C954 C958 1.524 . S
C955 C947 1.503 1_655 S
C955 C954 1.370 . S
C955 C956 1.403 . S
C956 C955 1.403 . S
C956 C957 1.411 . S
C956 C959 1.531 1_655 S
C957 C953 1.408 . S
C957 C956 1.411 . S
C957 H969 0.930 . S
C958 C954 1.524 . S
C958 H970 0.956 . S
C958 H971 0.961 . S
C958 H972 0.961 . S
C959 C956 1.531 1_455 S
C959 H973 0.958 . S
C959 H974 0.961 . S
C959 H975 0.960 . S
H960 C944 0.931 . S
H961 C949 0.929 . S
H962 C950 0.960 . S
H963 C950 0.962 . S
H964 C950 0.960 1_455 S
H965 C951 0.961 . S
H966 C951 0.961 . S
H967 C951 0.961 . S
H968 C952 0.931 . S
H969 C957 0.930 . S
H970 C958 0.956 . S
H971 C958 0.961 . S
H972 C958 0.961 . S
H973 C959 0.958 . S
H974 C959 0.961 . S
H975 C959 0.960 . S
C976 C977 1.391 . S
C976 C978 1.394 . S
C976 H992 0.931 . S
C977 C976 1.391 . S
C977 C981 1.376 . S
C978 C976 1.394 . S
C978 C979 1.369 . S
C978 C982 1.531 . S
C979 C978 1.369 . S
C979 C980 1.398 1_565 S
C979 C987 1.503 1_565 S
C980 C979 1.398 1_545 S
C980 C981 1.376 1_545 S
C980 C983 1.539 . S
C981 C977 1.376 . S
C981 C980 1.376 1_565 S
C981 H993 0.929 . S
C982 C978 1.531 . S
C982 H994 0.960 . S
C982 H995 0.962 . S
C982 H996 0.960 . S
C983 C980 1.539 . S
C983 H997 0.961 . S
C983 H998 0.961 . S
C983 H999 0.961 . S
C984 C985 1.370 . S
C984 C986 1.363 . S
C984 H1000 0.931 . S
C985 C984 1.370 . S
C985 C989 1.408 . S
C986 C984 1.363 . S
C986 C987 1.370 . S
C986 C990 1.524 1_545 S
C987 C979 1.503 1_545 S
C987 C986 1.370 . S
C987 C988 1.403 . S
C988 C987 1.403 . S
C988 C989 1.404 . S
C988 C991 1.539 . S
C989 C985 1.408 . S
C989 C988 1.404 . S
C989 H1001 0.930 . S
C990 C986 1.524 1_565 S
C990 H1002 0.962 . S
C990 H1003 0.959 1_565 S
C990 H1004 0.956 1_565 S
C991 C988 1.539 . S
C991 H1005 0.958 . S
C991 H1006 0.961 . S
C991 H1007 0.960 . S
H992 C976 0.931 . S
H993 C981 0.929 . S
H994 C982 0.960 . S
H995 C982 0.962 . S
H996 C982 0.960 . S
H997 C983 0.961 . S
H998 C983 0.961 . S
H999 C983 0.961 . S
H1000 C984 0.931 . S
H1001 C989 0.930 . S
H1002 C990 0.962 . S
H1003 C990 0.959 1_545 S
H1004 C990 0.956 1_545 S
H1005 C991 0.958 . S
H1006 C991 0.961 . S
H1007 C991 0.960 . S
C1008 C1009 1.391 . S
C1008 C1010 1.394 . S
C1008 H1024 0.931 . S
C1009 C1008 1.391 . S
C1009 C1013 1.376 . S
C1010 C1008 1.394 . S
C1010 C1011 1.369 . S
C1010 C1014 1.531 . S
C1011 C1010 1.369 . S
C1011 C1012 1.410 . S
C1011 C1019 1.503 . S
C1012 C1011 1.410 . S
C1012 C1013 1.392 . S
C1012 C1015 1.511 . S
C1013 C1009 1.376 . S
C1013 C1012 1.392 . S
C1013 H1025 0.929 . S
C1014 C1010 1.531 . S
C1014 H1026 0.960 . S
C1014 H1027 0.962 . S
C1014 H1028 0.960 . S
C1015 C1012 1.511 . S
C1015 H1029 0.961 . S
C1015 H1030 0.961 . S
C1015 H1031 0.961 . S
C1016 C1017 1.370 . S
C1016 C1018 1.363 . S
C1016 H1032 0.931 . S
C1017 C1016 1.370 . S
C1017 C1021 1.408 . S
C1018 C1016 1.363 . S
C1018 C1019 1.370 . S
C1018 C1022 1.524 . S
C1019 C1011 1.503 . S
C1019 C1018 1.370 . S
C1019 C1020 1.403 . S
C1020 C1019 1.403 . S
C1020 C1021 1.404 . S
C1020 C1023 1.539 . S
C1021 C1017 1.408 . S
C1021 C1020 1.404 . S
C1021 H1033 0.930 . S
C1022 C1018 1.524 . S
C1022 H1034 0.956 . S
C1022 H1035 0.961 . S
C1022 H1036 0.961 . S
C1023 C1020 1.539 . S
C1023 H1037 0.958 . S
C1023 H1038 0.961 . S
C1023 H1039 0.960 . S
H1024 C1008 0.931 . S
H1025 C1013 0.929 . S
H1026 C1014 0.960 . S
H1027 C1014 0.962 . S
H1028 C1014 0.960 . S
H1029 C1015 0.961 . S
H1030 C1015 0.961 . S
H1031 C1015 0.961 . S
H1032 C1016 0.931 . S
H1033 C1021 0.930 . S
H1034 C1022 0.956 . S
H1035 C1022 0.961 . S
H1036 C1022 0.961 . S
H1037 C1023 0.958 . S
H1038 C1023 0.961 . S
H1039 C1023 0.960 . S
C1040 C1041 1.391 . S
C1040 C1042 1.394 . S
C1040 H1056 0.931 . S
C1041 C1040 1.391 . S
C1041 C1045 1.376 . S
C1042 C1040 1.394 . S
C1042 C1043 1.369 . S
C1042 C1046 1.531 . S
C1043 C1042 1.369 . S
C1043 C1044 1.410 . S
C1043 C1051 1.503 . S
C1044 C1043 1.410 . S
C1044 C1045 1.392 . S
C1044 C1047 1.511 . S
C1045 C1041 1.376 . S
C1045 C1044 1.392 . S
C1045 H1057 0.929 . S
C1046 C1042 1.531 . S
C1046 H1058 0.960 . S
C1046 H1059 0.962 . S
C1046 H1060 0.960 . S
C1047 C1044 1.511 . S
C1047 H1061 0.961 . S
C1047 H1062 0.961 . S
C1047 H1063 0.961 . S
C1048 C1049 1.370 . S
C1048 C1050 1.363 . S
C1048 H1064 0.931 . S
C1049 C1048 1.370 . S
C1049 C1053 1.408 . S
C1050 C1048 1.363 . S
C1050 C1051 1.370 . S
C1050 C1054 1.524 . S
C1051 C1043 1.503 . S
C1051 C1050 1.370 . S
C1051 C1052 1.403 . S
C1052 C1051 1.403 . S
C1052 C1053 1.404 . S
C1052 C1055 1.539 . S
C1053 C1049 1.408 . S
C1053 C1052 1.404 . S
C1053 H1065 0.930 . S
C1054 C1050 1.524 . S
C1054 H1066 0.956 . S
C1054 H1067 0.961 . S
C1054 H1068 0.961 . S
C1055 C1052 1.539 . S
C1055 H1069 0.958 . S
C1055 H1070 0.961 . S
C1055 H1071 0.960 . S
H1056 C1040 0.931 . S
H1057 C1045 0.929 . S
H1058 C1046 0.960 . S
H1059 C1046 0.962 . S
H1060 C1046 0.960 . S
H1061 C1047 0.961 . S
H1062 C1047 0.961 . S
H1063 C1047 0.961 . S
H1064 C1048 0.931 . S
H1065 C1053 0.930 . S
H1066 C1054 0.956 . S
H1067 C1054 0.961 . S
H1068 C1054 0.961 . S
H1069 C1055 0.958 . S
H1070 C1055 0.961 . S
H1071 C1055 0.960 . S
C1072 C1073 1.391 . S
C1072 C1074 1.394 1_554 S
C1072 H1088 0.931 . S
C1073 C1072 1.391 . S
C1073 C1077 1.376 1_554 S
C1074 C1072 1.394 1_556 S
C1074 C1075 1.369 . S
C1074 C1078 1.531 . S
C1075 C1074 1.369 . S
C1075 C1076 1.410 . S
C1075 C1083 1.503 . S
C1076 C1075 1.410 . S
C1076 C1077 1.392 . S
C1076 C1079 1.511 . S
C1077 C1073 1.376 1_556 S
C1077 C1076 1.392 . S
C1077 H1089 0.929 . S
C1078 C1074 1.531 . S
C1078 H1090 0.960 . S
C1078 H1091 0.962 . S
C1078 H1092 0.960 1_556 S
C1079 C1076 1.511 . S
C1079 H1093 0.961 . S
C1079 H1094 0.961 . S
C1079 H1095 0.961 . S
C1080 C1081 1.370 . S
C1080 C1082 1.363 . S
C1080 H1096 0.931 . S
C1081 C1080 1.370 . S
C1081 C1085 1.408 . S
C1082 C1080 1.363 . S
C1082 C1083 1.370 . S
C1082 C1086 1.524 . S
C1083 C1075 1.503 . S
C1083 C1082 1.370 . S
C1083 C1084 1.403 . S
C1084 C1083 1.403 . S
C1084 C1085 1.404 . S
C1084 C1087 1.539 . S
C1085 C1081 1.408 . S
C1085 C1084 1.404 . S
C1085 H1097 0.930 . S
C1086 C1082 1.524 . S
C1086 H1098 0.956 . S
C1086 H1099 0.961 . S
C1086 H1100 0.961 . S
C1087 C1084 1.539 . S
C1087 H1101 0.958 1_556 S
C1087 H1102 0.961 . S
C1087 H1103 0.960 1_556 S
H1088 C1072 0.931 . S
H1089 C1077 0.929 . S
H1090 C1078 0.960 . S
H1091 C1078 0.962 . S
H1092 C1078 0.960 1_554 S
H1093 C1079 0.961 . S
H1094 C1079 0.961 . S
H1095 C1079 0.961 . S
H1096 C1080 0.931 . S
H1097 C1085 0.930 . S
H1098 C1086 0.956 . S
H1099 C1086 0.961 . S
H1100 C1086 0.961 . S
H1101 C1087 0.958 1_554 S
H1102 C1087 0.961 . S
H1103 C1087 0.960 1_554 S
C1104 C1105 1.391 . S
C1104 C1106 1.394 . S
C1104 H1120 0.931 . S
C1105 C1104 1.391 . S
C1105 C1109 1.376 . S
C1106 C1104 1.394 . S
C1106 C1107 1.369 . S
C1106 C1110 1.531 . S
C1107 C1106 1.369 . S
C1107 C1108 1.410 . S
C1107 C1115 1.503 . S
C1108 C1107 1.410 . S
C1108 C1109 1.392 . S
C1108 C1111 1.511 . S
C1109 C1105 1.376 . S
C1109 C1108 1.392 . S
C1109 H1121 0.929 . S
C1110 C1106 1.531 . S
C1110 H1122 0.960 1_554 S
C1110 H1123 0.962 . S
C1110 H1124 0.960 . S
C1111 C1108 1.511 . S
C1111 H1125 0.961 . S
C1111 H1126 0.961 . S
C1111 H1127 0.961 . S
C1112 C1113 1.370 1_554 S
C1112 C1114 1.363 . S
C1112 H1128 0.931 . S
C1113 C1112 1.370 1_556 S
C1113 C1117 1.408 . S
C1114 C1112 1.363 . S
C1114 C1115 1.370 . S
C1114 C1118 1.524 . S
C1115 C1107 1.503 . S
C1115 C1114 1.370 . S
C1115 C1116 1.403 . S
C1116 C1115 1.403 . S
C1116 C1117 1.404 1_554 S
C1116 C1119 1.539 . S
C1117 C1113 1.408 . S
C1117 C1116 1.404 1_556 S
C1117 H1129 0.930 . S
C1118 C1114 1.524 . S
C1118 H1130 0.956 . S
C1118 H1131 0.961 . S
C1118 H1132 0.961 . S
C1119 C1116 1.539 . S
C1119 H1133 0.958 1_554 S
C1119 H1134 0.961 1_554 S
C1119 H1135 0.960 . S
H1120 C1104 0.931 . S
H1121 C1109 0.929 . S
H1122 C1110 0.960 1_556 S
H1123 C1110 0.962 . S
H1124 C1110 0.960 . S
H1125 C1111 0.961 . S
H1126 C1111 0.961 . S
H1127 C1111 0.961 . S
H1128 C1112 0.931 . S
H1129 C1117 0.930 . S
H1130 C1118 0.956 . S
H1131 C1118 0.961 . S
H1132 C1118 0.961 . S
H1133 C1119 0.958 1_556 S
H1134 C1119 0.961 1_556 S
H1135 C1119 0.960 . S
C1136 C1137 1.391 . S
C1136 C1138 1.394 . S
C1136 H1152 0.931 . S
C1137 C1136 1.391 . S
C1137 C1141 1.376 . S
C1138 C1136 1.394 . S
C1138 C1139 1.369 . S
C1138 C1142 1.531 . S
C1139 C1138 1.369 . S
C1139 C1140 1.410 . S
C1139 C1147 1.503 . S
C1140 C1139 1.410 . S
C1140 C1141 1.392 . S
C1140 C1143 1.511 . S
C1141 C1137 1.376 . S
C1141 C1140 1.392 . S
C1141 H1153 0.929 . S
C1142 C1138 1.531 . S
C1142 H1154 0.960 . S
C1142 H1155 0.962 . S
C1142 H1156 0.960 . S
C1143 C1140 1.511 . S
C1143 H1157 0.961 . S
C1143 H1158 0.961 . S
C1143 H1159 0.961 . S
C1144 C1145 1.370 . S
C1144 C1146 1.363 . S
C1144 H1160 0.931 . S
C1145 C1144 1.370 . S
C1145 C1149 1.408 . S
C1146 C1144 1.363 . S
C1146 C1147 1.370 . S
C1146 C1150 1.524 . S
C1147 C1139 1.503 . S
C1147 C1146 1.370 . S
C1147 C1148 1.403 . S
C1148 C1147 1.403 . S
C1148 C1149 1.404 . S
C1148 C1151 1.539 . S
C1149 C1145 1.408 . S
C1149 C1148 1.404 . S
C1149 H1161 0.930 . S
C1150 C1146 1.524 . S
C1150 H1162 0.956 . S
C1150 H1163 0.961 . S
C1150 H1164 0.961 . S
C1151 C1148 1.539 . S
C1151 H1165 0.958 . S
C1151 H1166 0.961 . S
C1151 H1167 0.960 . S
H1152 C1136 0.931 . S
H1153 C1141 0.929 . S
H1154 C1142 0.960 . S
H1155 C1142 0.962 . S
H1156 C1142 0.960 . S
H1157 C1143 0.961 . S
H1158 C1143 0.961 . S
H1159 C1143 0.961 . S
H1160 C1144 0.931 . S
H1161 C1149 0.930 . S
H1162 C1150 0.956 . S
H1163 C1150 0.961 . S
H1164 C1150 0.961 . S
H1165 C1151 0.958 . S
H1166 C1151 0.961 . S
H1167 C1151 0.960 . S
C1168 C1169 1.391 . S
C1168 C1170 1.394 . S
C1168 H1184 0.931 . S
C1169 C1168 1.391 . S
C1169 C1173 1.376 . S
C1170 C1168 1.394 . S
C1170 C1171 1.369 . S
C1170 C1174 1.531 . S
C1171 C1170 1.369 . S
C1171 C1172 1.410 . S
C1171 C1179 1.503 . S
C1172 C1171 1.410 . S
C1172 C1173 1.392 . S
C1172 C1175 1.511 . S
C1173 C1169 1.376 . S
C1173 C1172 1.392 . S
C1173 H1185 0.929 . S
C1174 C1170 1.531 . S
C1174 H1186 0.960 . S
C1174 H1187 0.962 . S
C1174 H1188 0.960 . S
C1175 C1172 1.511 . S
C1175 H1189 0.961 . S
C1175 H1190 0.961 . S
C1175 H1191 0.961 . S
C1176 C1177 1.370 . S
C1176 C1178 1.363 . S
C1176 H1192 0.931 . S
C1177 C1176 1.370 . S
C1177 C1181 1.408 . S
C1178 C1176 1.363 . S
C1178 C1179 1.370 . S
C1178 C1182 1.524 . S
C1179 C1171 1.503 . S
C1179 C1178 1.370 . S
C1179 C1180 1.403 . S
C1180 C1179 1.403 . S
C1180 C1181 1.404 . S
C1180 C1183 1.539 . S
C1181 C1177 1.408 . S
C1181 C1180 1.404 . S
C1181 H1193 0.930 . S
C1182 C1178 1.524 . S
C1182 H1194 0.956 . S
C1182 H1195 0.961 . S
C1182 H1196 0.961 . S
C1183 C1180 1.539 . S
C1183 H1197 0.958 . S
C1183 H1198 0.961 . S
C1183 H1199 0.960 . S
H1184 C1168 0.931 . S
H1185 C1173 0.929 . S
H1186 C1174 0.960 . S
H1187 C1174 0.962 . S
H1188 C1174 0.960 . S
H1189 C1175 0.961 . S
H1190 C1175 0.961 . S
H1191 C1175 0.961 . S
H1192 C1176 0.931 . S
H1193 C1181 0.930 . S
H1194 C1182 0.956 . S
H1195 C1182 0.961 . S
H1196 C1182 0.961 . S
H1197 C1183 0.958 . S
H1198 C1183 0.961 . S
H1199 C1183 0.960 . S
C433 C328 1.480 . S
C441 C4 1.462 . S
C465 C40 1.476 . S
C473 C364 1.455 . S
C497 C400 1.446 . S
C505 C76 1.469 . S
C529 C220 1.465 . S
C537 C112 1.451 . S
C561 C256 1.438 . S
C569 C148 1.466 . S
C593 C292 1.473 . S
C601 C184 1.468 . S
C625 C230 1.345 . S
C633 C14 1.365 . S
C657 C50 1.358 . S
C665 C266 1.369 . S
C689 C302 1.424 . S
C697 C86 1.400 . S
C721 C122 1.346 . S
C729 C338 1.365 . S
C753 C374 1.337 . S
C761 C158 1.368 . S
C785 C194 1.333 . S
C793 C410 1.365 . S
C817 C326 1.383 . S
C825 C2 1.387 . S
C849 C362 1.387 . S
C857 C38 1.388 . S
C881 C398 1.388 . S
C889 C74 1.390 . S
C913 C110 1.383 . S
C921 C218 1.387 . S
C945 C254 1.387 . S
C953 C146 1.389 . S
C977 C182 1.382 . S
C985 C290 1.388 . S
C1009 C3 1.189 . S
C1017 C291 1.208 . S
C1041 C327 1.191 . S
C1049 C39 1.208 . S
C1073 C363 1.214 . S
C1081 C75 1.198 . S
C1105 C399 1.191 . S
C1113 C111 1.206 . S
C1137 C219 1.214 . S
C1145 C147 1.197 . S
C1169 C255 1.214 . S
C1177 C183 1.197 . S
