# Generated by pormake.
# Topology kag, (6)-cn, num edge types: 1
# Building blocks:
#     Node 0, Type 0, BuildingBlock: UKALOJ_clean_sbu_0, # of connection points: 6
#     Node 1, Type 0, BuildingBlock: UKALOJ_clean_sbu_0, # of connection points: 6
#     Node 2, Type 0, BuildingBlock: UKALOJ_clean_sbu_0, # of connection points: 6
#     Edge 3, Type (0, 0), BuildingBlock: TEMPAE_clean_linker_10, # of connection points: 2
#     Edge 4, Type (0, 0), BuildingBlock: TEMPAE_clean_linker_10, # of connection points: 2
#     Edge 5, Type (0, 0), BuildingBlock: TEMPAE_clean_linker_10, # of connection points: 2
#     Edge 6, Type (0, 0), BuildingBlock: TEMPAE_clean_linker_10, # of connection points: 2
#     Edge 7, Type (0, 0), BuildingBlock: TEMPAE_clean_linker_10, # of connection points: 2
#     Edge 8, Type (0, 0), BuildingBlock: TEMPAE_clean_linker_10, # of connection points: 2
#     Edge 9, Type (0, 0), BuildingBlock: TEMPAE_clean_linker_10, # of connection points: 2
#     Edge 10, Type (0, 0), BuildingBlock: TEMPAE_clean_linker_10, # of connection points: 2
#     Edge 11, Type (0, 0), BuildingBlock: TEMPAE_clean_linker_10, # of connection points: 2
# Relax obj value: 0.125
# Max RMSD: 0.168
# Mean RMSD: 0.168
data_MOF--net-kag--node1-UKALOJ_clean_sbu_0--edge1-TEMPAE_clean_linker_10
_symmetry_space_group_name_H-M    P1
_symmetry_Int_Tables_number       1
_symmetry_cell_setting            triclinic
loop_
_symmetry_equiv_pos_as_xyz
'x, y, z'
_cell_length_a     29.325315
_cell_length_b     29.266031
_cell_length_c     20.295583
_cell_angle_alpha  89.814491
_cell_angle_beta   90.105154
_cell_angle_gamma 120.07827
loop_
_atom_site_label
_atom_site_type_symbol
_atom_site_fract_x
_atom_site_fract_y
_atom_site_fract_z
_atom_type_partial_charge
Zn0 Zn 0.98365 0.44123 0.97099 0.0
O1 O 0.03504 0.52228 0.95299 0.0
C2 C 0.07052 0.42008 0.99826 0.0
Zn3 Zn 0.00789 0.45412 0.07586 0.0
C4 C 0.06807 0.55075 0.99668 0.0
O5 O 0.06791 0.53112 0.05265 0.0
C6 C 0.92094 0.3454 0.05068 0.0
O7 O 0.95653 0.48383 0.09208 0.0
O8 O 0.92372 0.45832 0.99271 0.0
N9 N 0.03093 0.46607 0.17281 0.0
C10 C 0.00337 0.44983 0.22958 0.0
C11 C 0.08464 0.49523 0.2552 0.0
N12 N 0.0814 0.49425 0.18893 0.0
N13 N 0.03623 0.46734 0.28201 0.0
C14 C -0.01199 0.44046 0.81728 0.0
C15 C 0.90668 0.404 0.79182 0.0
N16 N 0.96053 0.4291 0.8741 0.0
N17 N 0.91003 0.40642 0.85807 0.0
N18 N 0.95505 0.42478 0.76493 0.0
H19 H 0.06541 0.49334 0.85739 0.0
H20 H 0.06082 0.49505 0.76888 0.0
H21 H 0.06028 0.43987 0.809 0.0
C22 C 0.04701 0.46918 0.81307 0.0
C23 C 0.94436 0.4192 0.23361 0.0
H24 H 0.92609 0.42551 0.18946 0.0
H25 H 0.93042 0.4306 0.27802 0.0
H26 H 0.93109 0.37649 0.23702 0.0
O27 O 0.94677 0.37696 0.097 0.0
O28 O 0.93124 0.361 0.99124 0.0
C29 C 0.92352 0.47854 0.04792 0.0
O30 O 0.04462 0.42505 0.95129 0.0
O31 O 0.06028 0.42622 0.0573 0.0
Zn32 Zn 0.44811 0.01343 0.96649 0.0
O33 O 0.47616 0.96079 0.94945 0.0
C34 C 0.33948 0.92665 0.99295 0.0
Zn35 Zn 0.43575 0.98931 0.07184 0.0
C36 C 0.47253 0.92883 0.99433 0.0
O37 O 0.45412 0.9302 0.05042 0.0
C38 C 0.4139 0.07593 0.04462 0.0
O39 O 0.51632 0.04205 0.08961 0.0
O40 O 0.52552 0.07267 0.98855 0.0
N41 N 0.42445 0.96629 0.1687 0.0
C42 C 0.44433 -0.00664 0.22518 0.0
C43 C 0.39247 0.91293 0.25129 0.0
N44 N 0.39237 0.91634 0.1851 0.0
N45 N 0.42501 0.96064 0.27785 0.0
C46 C 0.45299 0.00945 0.81316 0.0
C47 C 0.48154 0.08989 0.78705 0.0
N48 N 0.46013 0.03648 0.86962 0.0
N49 N 0.47799 0.08644 0.85322 0.0
N50 N 0.46641 0.04221 0.76049 0.0
H51 H 0.40804 0.93075 0.85443 0.0
H52 H 0.46362 0.9425 0.80601 0.0
H53 H 0.40494 0.93409 0.76601 0.0
C54 C 0.43075 0.95083 0.80979 0.0
C55 C 0.48067 0.052 0.22854 0.0
H56 H 0.52191 0.0604 0.23227 0.0
H57 H 0.47172 0.06872 0.27234 0.0
H58 H 0.47786 0.07206 0.18392 0.0
O59 O 0.41772 0.04912 0.09139 0.0
O60 O 0.42162 0.06689 0.98569 0.0
C61 C 0.54494 0.07403 0.04499 0.0
O62 O 0.37029 0.95337 0.94634 0.0
O63 O 0.35597 0.93582 0.05203 0.0
Zn64 Zn 0.54361 0.56118 0.07429 0.0
O65 O 0.51374 0.47999 0.09209 0.0
C66 C 0.65165 0.58238 0.04756 0.0
Zn67 Zn 0.55509 0.54857 0.96951 0.0
C68 C 0.51851 0.45176 0.04834 0.0
O69 O 0.53818 0.47164 0.9926 0.0
C70 C 0.57687 0.65721 0.99473 0.0
O71 O 0.47394 0.51879 0.95292 0.0
O72 O 0.46668 0.54425 0.05223 0.0
N73 N 0.56626 0.5367 0.87268 0.0
C74 C 0.55489 0.55285 0.81577 0.0
C75 C 0.59089 0.50756 0.79057 0.0
N76 N 0.58863 0.5086 0.85682 0.0
N77 N 0.5703 0.53535 0.76352 0.0
C78 C 0.54868 0.56175 0.22801 0.0
C79 C 0.50385 0.59823 0.25323 0.0
N80 N 0.53258 0.57318 0.17111 0.0
N81 N 0.50479 0.59587 0.18699 0.0
N82 N 0.5314 0.57739 0.28027 0.0
H83 H 0.56696 0.50721 0.27663 0.0
H84 H 0.62154 0.5623 0.23637 0.0
H85 H 0.57299 0.50875 0.18812 0.0
C86 C 0.57892 0.533 0.23237 0.0
C87 C 0.52644 0.58338 0.81142 0.0
H88 H 0.50204 0.57728 0.85559 0.0
H89 H 0.50091 0.57172 0.76705 0.0
H90 H 0.55583 0.62607 0.80765 0.0
O91 O 0.57114 0.6257 0.9484 0.0
O92 O 0.57156 0.64153 0.05416 0.0
C93 C 0.44624 0.52407 0.99696 0.0
O94 O 0.62073 0.57721 0.09439 0.0
O95 O 0.63536 0.5765 0.98843 0.0
C96 C 0.00456 0.41869 0.67018 0.0
C97 C 0.96683 0.42991 0.69552 0.0
C98 C 0.01656 0.42423 0.60265 0.0
C99 C -0.01065 0.44033 0.55928 0.0
C100 C 0.95022 0.4504 0.58442 0.0
C101 C 0.93943 0.445 0.65225 0.0
C102 C 0.05844 0.41298 0.57776 0.0
C103 C 0.91997 0.46712 0.5397 0.0
C104 C 0.0517 0.50249 0.39483 0.0
C105 C 0.02439 0.46017 0.3514 0.0
C106 C 0.04093 0.49653 0.46267 0.0
C107 C 0.00193 0.44693 0.48765 0.0
C108 C 0.9748 0.40378 0.44412 0.0
C109 C -0.01323 0.41082 0.37659 0.0
C110 C 0.07109 0.54334 0.50756 0.0
C111 C 0.93305 0.35024 0.46883 0.0
H112 H 0.02425 0.40493 0.70304 0.0
H113 H 0.90992 0.4532 0.67182 0.0
H114 H 0.04128 0.38074 0.54091 0.0
H115 H 0.09008 0.44845 0.55265 0.0
H116 H 0.07637 0.40143 0.61805 0.0
H117 H 0.89013 0.47249 0.56687 0.0
H118 H 0.94757 0.50483 0.5148 0.0
H119 H 0.89967 0.43714 0.50067 0.0
H120 H 0.08113 0.5405 0.37538 0.0
H121 H 0.96716 0.3775 0.3436 0.0
H122 H 0.09147 0.53354 0.54645 0.0
H123 H 0.0434 0.55301 0.53264 0.0
H124 H 0.10084 0.57891 0.48051 0.0
H125 H 0.95031 0.33506 0.50553 0.0
H126 H 0.91517 0.32096 0.42843 0.0
H127 H 0.90134 0.35362 0.49409 0.0
C128 C 0.39088 0.94548 0.39126 0.0
C129 C 0.43306 0.97213 0.34734 0.0
C130 C 0.39734 0.95609 0.45906 0.0
C131 C 0.44712 -0.00521 0.48348 0.0
C132 C 0.49014 0.02123 0.4396 0.0
C133 C 0.4828 0.00879 0.37224 0.0
C134 C 0.3508 0.92616 0.50447 0.0
C135 C 0.54373 0.06309 0.46365 0.0
C136 C 0.44724 0.05742 0.64705 0.0
C137 C 0.46283 0.03074 0.69099 0.0
C138 C 0.44291 0.04681 0.57926 0.0
C139 C 0.45386 0.00807 0.55484 0.0
C140 C 0.4705 0.9816 0.59873 0.0
C141 C 0.47578 -0.00596 0.66609 0.0
C142 C 0.42625 0.07678 0.53384 0.0
C143 C 0.48211 0.93971 0.57468 0.0
H144 H 0.35254 0.91664 0.37229 0.0
H145 H 0.51618 0.02753 0.33929 0.0
H146 H 0.36099 0.90668 0.5442 0.0
H147 H 0.3407 0.95397 0.5284 0.0
H148 H 0.31542 0.89562 0.47805 0.0
H149 H 0.57276 0.08076 0.42291 0.0
H150 H 0.54054 0.09502 0.48869 0.0
H151 H 0.55905 0.04597 0.50035 0.0
H152 H 0.43783 0.08629 0.66601 0.0
H153 H 0.49046 0.97526 0.69904 0.0
H154 H 0.38826 0.04901 0.50991 0.0
H155 H 0.45583 0.09623 0.4941 0.0
H156 H 0.42154 0.10736 0.56026 0.0
H157 H 0.44689 0.90779 0.54965 0.0
H158 H 0.49355 0.92202 0.61541 0.0
H159 H 0.51445 0.9568 0.53796 0.0
C160 C 0.57729 0.59172 0.66871 0.0
C161 C 0.56558 0.54241 0.69408 0.0
C162 C 0.57231 0.59865 0.60113 0.0
C163 C 0.55627 0.55545 0.55773 0.0
C164 C 0.54568 0.50589 0.5829 0.0
C165 C 0.55053 0.50003 0.65079 0.0
C166 C 0.5841 0.65216 0.57621 0.0
C167 C 0.52898 0.45901 0.53815 0.0
C168 C 0.4956 0.55719 0.39282 0.0
C169 C 0.53807 0.57225 0.34971 0.0
C170 C 0.50103 0.55185 0.4607 0.0
C171 C 0.55023 0.56193 0.48604 0.0
C172 C 0.59353 0.57798 0.44283 0.0
C173 C 0.58704 0.58346 0.37525 0.0
C174 C 0.45407 0.53517 0.50524 0.0
C175 C 0.64667 0.58925 0.46794 0.0
H176 H 0.59102 0.62508 0.70162 0.0
H177 H 0.54197 0.46205 0.67039 0.0
H178 H 0.61652 0.66729 0.53961 0.0
H179 H 0.549 0.64874 0.55078 0.0
H180 H 0.59555 0.6815 0.61652 0.0
H181 H 0.52317 0.42348 0.56535 0.0
H182 H 0.49161 0.4493 0.51292 0.0
H183 H 0.55914 0.46875 0.49937 0.0
H184 H 0.45788 0.54899 0.37309 0.0
H185 H 0.62047 0.59718 0.34249 0.0
H186 H 0.46379 0.56522 0.54416 0.0
H187 H 0.444 0.49752 0.5303 0.0
H188 H 0.41884 0.52974 0.47791 0.0
H189 H 0.6618 0.62155 0.50471 0.0
H190 H 0.67613 0.60073 0.42775 0.0
H191 H 0.64285 0.55382 0.49323 0.0
C192 C 0.14023 0.40028 0.033 0.0
C193 C 0.11848 0.41765 0.98435 0.0
C194 C 0.19198 0.41007 0.0272 0.0
C195 C 0.22277 0.43911 0.97236 0.0
C196 C 0.19953 0.45287 0.9206 0.0
C197 C 0.14729 0.44138 0.92692 0.0
C198 C 0.21499 0.39329 0.08242 0.0
C199 C 0.23122 0.48452 0.86179 0.0
C200 C 0.36616 0.53078 1.01378 0.0
C201 C 0.39001 0.50441 0.98577 0.0
C202 C 0.31189 0.51069 1.00758 0.0
C203 C 0.28069 0.46217 0.97441 0.0
C204 C 0.30474 0.43563 0.94538 0.0
C205 C 0.35949 0.45758 0.95062 0.0
C206 C 0.28786 0.54099 0.03756 0.0
C207 C 0.27251 0.38326 0.91112 0.0
H208 H 0.11779 0.38152 0.0772 0.0
H209 H 0.13076 0.45524 0.88941 0.0
H210 H 0.23877 0.37661 0.0625 0.0
H211 H 0.24158 0.42822 0.11259 0.0
H212 H 0.18391 0.36348 0.11515 0.0
H213 H 0.20562 0.48467 0.82145 0.0
H214 H 0.25807 0.52596 0.87714 0.0
H215 H 0.25599 0.46887 0.84235 0.0
H216 H 0.39006 0.5672 0.04058 0.0
H217 H 0.37814 0.437 0.92962 0.0
H218 H 0.26093 0.51768 0.07828 0.0
H219 H 0.26411 0.54766 1.00019 0.0
H220 H 0.31816 0.57987 0.0574 0.0
H221 H 0.24619 0.3531 0.94738 0.0
H222 H 0.29759 0.36939 0.88764 0.0
H223 H 0.24698 0.3861 0.87288 0.0
C224 C 0.63018 0.09544 0.09712 0.0
C225 C 0.60105 0.11073 0.05723 0.0
C226 C 0.68482 0.12826 0.10414 0.0
C227 C 0.71014 0.17789 0.07202 0.0
C228 C 0.68031 0.19426 0.0339 0.0
C229 C 0.62616 0.16001 0.0261 0.0
C230 C 0.71561 0.1091 0.14377 0.0
C231 C 0.7057 0.24765 1.00047 0.0
C232 C 0.84248 0.29201 0.12049 0.0
C233 C 0.87274 0.29525 0.06543 0.0
C234 C 0.78998 0.25144 0.12605 0.0
C235 C 0.76802 0.21271 0.07611 0.0
C236 C 0.80022 0.21265 0.02425 0.0
C237 C 0.85217 0.25453 1.01895 0.0
C238 C 0.75676 0.25344 0.1815 0.0
C239 C 0.77858 0.17094 0.97127 0.0
H240 H 0.61058 0.05695 0.12066 0.0
H241 H 0.60333 0.1718 0.99567 0.0
H242 H 0.74284 0.10399 0.11074 0.0
H243 H 0.74013 0.13873 0.18141 0.0
H244 H 0.68957 0.07089 0.16885 0.0
H245 H 0.67627 0.2557 0.97671 0.0
H246 H 0.72856 0.27933 0.03678 0.0
H247 H 0.73367 0.24978 0.96221 0.0
H248 H 0.85811 0.32374 0.15619 0.0
H249 H 0.87576 0.25688 0.9766 0.0
H250 H 0.73098 0.2136 0.20263 0.0
H251 H 0.73083 0.26784 0.16197 0.0
H252 H 0.78131 0.28037 0.22158 0.0
H253 H 0.75391 0.13113 0.99316 0.0
H254 H 0.81048 0.17103 0.94172 0.0
H255 H 0.75316 0.17837 0.93753 0.0
C256 C 0.53733 0.90778 0.94489 0.0
C257 C 0.49202 0.89215 0.98292 0.0
C258 C 0.55925 0.87498 0.93908 0.0
C259 C 0.53414 0.82504 0.97047 0.0
C260 C 0.48705 0.80834 1.0066 0.0
C261 C 0.46705 0.84256 1.01329 0.0
C262 C 0.61014 0.89449 0.9016 0.0
C263 C 0.4582 0.75463 0.03913 0.0
C264 C 0.55327 0.71128 0.92365 0.0
C265 C 0.57901 0.70747 0.97987 0.0
C266 C 0.54157 0.75196 0.91728 0.0
C267 C 0.55721 0.7902 0.96766 0.0
C268 C 0.58821 0.7897 0.02093 0.0
C269 C 0.59812 0.74775 0.02693 0.0
C270 C 0.50773 0.75058 0.86028 0.0
C271 C 0.60705 0.83088 0.0745 0.0
H272 H 0.55682 0.94651 0.92199 0.0
H273 H 0.43176 0.83055 0.04228 0.0
H274 H 0.64167 0.89935 0.93609 0.0
H275 H 0.60595 0.86517 0.86407 0.0
H276 H 0.62288 0.93289 0.8767 0.0
H277 H 0.42017 0.74638 0.06123 0.0
H278 H 0.45023 0.7233 1.00268 0.0
H279 H 0.48308 0.75209 0.07858 0.0
H280 H 0.538 0.67994 0.88744 0.0
H281 H 0.61839 0.745 0.07019 0.0
H282 H 0.52241 0.79062 0.83946 0.0
H283 H 0.46697 0.73612 0.8781 0.0
H284 H 0.5062 0.72397 0.82033 0.0
H285 H 0.6228 0.87091 0.05301 0.0
H286 H 0.6381 0.83043 0.10549 0.0
H287 H 0.57342 0.82318 0.10677 0.0
C288 C 0.90299 0.54452 0.09507 0.0
C289 C 0.88691 0.49814 0.05904 0.0
C290 C 0.87012 0.56634 0.1006 0.0
C291 C 0.81968 0.54012 0.07094 0.0
C292 C 0.80258 0.49205 0.03681 0.0
C293 C 0.83684 0.47209 0.03037 0.0
C294 C 0.89001 0.61824 0.13593 0.0
C295 C 0.74841 0.46209 1.00611 0.0
C296 C 0.70679 0.56022 0.11861 0.0
C297 C 0.702 0.5847 0.06164 0.0
C298 C 0.7475 0.54864 0.12477 0.0
C299 C 0.78476 0.56309 0.07334 0.0
C300 C 0.78328 0.59284 1.01907 0.0
C301 C 0.74136 0.6027 1.0134 0.0
C302 C 0.74724 0.5162 0.18294 0.0
C303 C 0.82337 0.61037 0.96426 0.0
H304 H 0.94209 0.56485 0.11663 0.0
H305 H 0.82447 0.43601 1.00292 0.0
H306 H 0.89386 0.64883 0.10031 0.0
H307 H 0.86148 0.61479 0.17417 0.0
H308 H 0.92892 0.63193 0.15962 0.0
H309 H 0.73999 0.42351 0.98547 0.0
H310 H 0.71778 0.45486 0.04329 0.0
H311 H 0.74496 0.48593 0.96587 0.0
H312 H 0.67619 0.54585 0.15578 0.0
H313 H 0.73787 0.62202 0.96956 0.0
H314 H 0.78757 0.53159 0.20275 0.0
H315 H 0.73271 0.47497 0.16674 0.0
H316 H 0.7213 0.51552 0.22323 0.0
H317 H 0.86372 0.62682 0.9846 0.0
H318 H 0.82222 0.64056 0.93209 0.0
H319 H 0.8152 0.57584 0.93343 0.0
C320 C 0.08813 0.63671 0.94734 0.0
C321 C 0.10457 0.60694 0.98407 0.0
C322 C 0.12087 0.69149 0.94056 0.0
C323 C 0.17152 0.71631 0.96965 0.0
C324 C 0.18903 0.68581 1.0043 0.0
C325 C 0.1549 0.63151 1.01203 0.0
C326 C 0.1005 0.72298 0.90478 0.0
C327 C 0.24344 0.71065 0.03441 0.0
C328 C 0.28385 0.85009 0.92122 0.0
C329 C 0.28889 0.87895 0.97845 0.0
C330 C 0.24314 0.79761 0.91515 0.0
C331 C 0.20605 0.77439 0.96676 0.0
C332 C 0.20756 0.8054 0.02101 0.0
C333 C 0.24957 0.85726 0.02672 0.0
C334 C 0.24336 0.76567 0.857 0.0
C335 C 0.16755 0.78246 0.0759 0.0
H336 H 0.04884 0.6175 0.92633 0.0
H337 H 0.16753 0.60817 0.04001 0.0
H338 H 0.09582 0.7491 0.94027 0.0
H339 H 0.12911 0.74877 0.86686 0.0
H340 H 0.0619 0.69725 0.88065 0.0
H341 H 0.2523 0.68074 0.05504 0.0
H342 H 0.27375 0.73437 0.99691 0.0
H343 H 0.2469 0.73783 0.07459 0.0
H344 H 0.3143 0.86674 0.88383 0.0
H345 H 0.25321 0.87982 0.07068 0.0
H346 H 0.20295 0.74021 0.83762 0.0
H347 H 0.25841 0.73937 0.87307 0.0
H348 H 0.26888 0.79123 0.81644 0.0
H349 H 0.12719 0.75819 0.05569 0.0
H350 H 0.16853 0.81372 0.10781 0.0
H351 H 0.17597 0.7563 0.10699 0.0
C352 C 0.52568 0.3716 0.03451 0.0
C353 C 0.49866 0.3955 0.06036 0.0
C354 C 0.50525 0.31717 0.0409 0.0
C355 C 0.45573 0.2859 0.07188 0.0
C356 C 0.42864 0.31006 0.09898 0.0
C357 C 0.45094 0.36497 0.09372 0.0
C358 C 0.53614 0.29301 1.0131 0.0
C359 C 0.37521 0.27779 0.13073 0.0
C360 C 0.39534 0.14652 1.00963 0.0
C361 C 0.4107 0.12348 0.059 0.0
C362 C 0.40502 0.19825 1.01628 0.0
C363 C 0.43198 0.22776 0.07278 0.0
C364 C 0.44337 0.2031 0.12522 0.0
C365 C 0.43186 0.1508 0.11803 0.0
C366 C 0.39062 0.22273 0.96029 0.0
C367 C 0.47272 0.23341 0.18586 0.0
H368 H 0.56278 0.39556 1.00909 0.0
H369 H 0.42991 0.38373 0.11301 0.0
H370 H 0.54084 0.26824 0.05097 0.0
H371 H 0.51439 0.26698 0.97105 0.0
H372 H 0.57587 0.3234 0.99565 0.0
H373 H 0.36153 0.30297 0.15442 0.0
H374 H 0.34598 0.25305 0.09278 0.0
H375 H 0.37604 0.25062 0.1683 0.0
H376 H 0.37839 0.12516 0.96426 0.0
H377 H 0.44379 0.1331 0.15638 0.0
H378 H 0.42663 0.24969 0.93201 0.0
H379 H 0.37363 0.24649 0.97937 0.0
H380 H 0.3619 0.1924 0.92599 0.0
H381 H 0.51476 0.26012 0.17307 0.0
H382 H 0.47076 0.20674 0.22621 0.0
H383 H 0.45685 0.25833 0.20419 0.0
loop_
_geom_bond_atom_site_label_1
_geom_bond_atom_site_label_2
_geom_bond_distance
_geom_bond_site_symmetry_2
_ccdc_geom_bond_type
Zn0 O1 2.055 . S
Zn0 O8 2.046 1_455 S
Zn0 N16 2.036 . S
Zn0 O28 2.053 1_455 S
Zn0 O30 2.066 . S
O1 Zn0 2.055 . S
O1 C4 1.259 . S
C2 O30 1.256 . S
C2 O31 1.244 1_556 S
Zn3 O5 2.046 . S
Zn3 O7 2.055 1_455 S
Zn3 N9 2.036 . S
Zn3 O27 2.066 1_455 S
Zn3 O31 2.053 . S
C4 O1 1.259 . S
C4 O5 1.254 1_556 S
O5 Zn3 2.046 . S
O5 C4 1.254 1_554 S
C6 O27 1.256 . S
C6 O28 1.244 1_554 S
O7 Zn3 2.055 1_655 S
O7 C29 1.259 . S
O8 Zn0 2.046 1_655 S
O8 C29 1.254 1_556 S
N9 Zn3 2.036 . S
N9 C10 1.298 1_455 S
N9 N12 1.398 . S
C10 N9 1.298 1_655 S
C10 N13 1.367 1_655 S
C10 C23 1.481 . S
C11 N12 1.299 . S
C11 N13 1.379 . S
N12 N9 1.398 . S
N12 C11 1.299 . S
N13 C10 1.367 1_455 S
N13 C11 1.379 . S
C14 N16 1.298 . S
C14 N18 1.367 . S
C14 C22 1.481 . S
C15 N17 1.299 . S
C15 N18 1.379 1_655 S
N16 Zn0 2.036 . S
N16 C14 1.298 . S
N16 N17 1.398 1_455 S
N17 C15 1.299 . S
N17 N16 1.398 1_655 S
N18 C14 1.367 . S
N18 C15 1.379 1_455 S
H19 C22 0.980 . S
H20 C22 0.981 . S
H21 C22 0.981 . S
C22 C14 1.481 . S
C22 H19 0.980 . S
C22 H20 0.981 . S
C22 H21 0.981 . S
C23 C10 1.481 . S
C23 H24 0.980 . S
C23 H25 0.981 . S
C23 H26 0.981 . S
H24 C23 0.980 . S
H25 C23 0.981 . S
H26 C23 0.981 . S
O27 Zn3 2.066 1_655 S
O27 C6 1.256 . S
O28 Zn0 2.053 1_655 S
O28 C6 1.244 1_556 S
C29 O7 1.259 . S
C29 O8 1.254 1_554 S
O30 Zn0 2.066 . S
O30 C2 1.256 . S
O31 C2 1.244 1_554 S
O31 Zn3 2.053 . S
Zn32 O33 2.055 1_545 S
Zn32 O40 2.046 . S
Zn32 N48 2.036 . S
Zn32 O60 2.053 . S
Zn32 O62 2.066 1_545 S
O33 Zn32 2.055 1_565 S
O33 C36 1.259 . S
C34 O62 1.256 . S
C34 O63 1.244 1_556 S
Zn35 O37 2.046 1_545 S
Zn35 O39 2.055 . S
Zn35 N41 2.036 . S
Zn35 O59 2.066 . S
Zn35 O63 2.053 1_545 S
C36 O33 1.259 . S
C36 O37 1.254 1_556 S
O37 Zn35 2.046 1_565 S
O37 C36 1.254 1_554 S
C38 O59 1.256 . S
C38 O60 1.244 1_554 S
O39 Zn35 2.055 . S
O39 C61 1.259 . S
O40 Zn32 2.046 . S
O40 C61 1.254 1_556 S
N41 Zn35 2.036 . S
N41 C42 1.298 . S
N41 N44 1.398 1_545 S
C42 N41 1.298 . S
C42 N45 1.367 . S
C42 C55 1.481 . S
C43 N44 1.299 . S
C43 N45 1.379 1_565 S
N44 N41 1.398 1_565 S
N44 C43 1.299 . S
N45 C42 1.367 . S
N45 C43 1.379 1_545 S
C46 N48 1.298 1_565 S
C46 N50 1.367 1_565 S
C46 C54 1.481 . S
C47 N49 1.299 . S
C47 N50 1.379 . S
N48 Zn32 2.036 . S
N48 C46 1.298 1_545 S
N48 N49 1.398 . S
N49 C47 1.299 . S
N49 N48 1.398 . S
N50 C46 1.367 1_545 S
N50 C47 1.379 . S
H51 C54 0.980 . S
H52 C54 0.981 . S
H53 C54 0.981 . S
C54 C46 1.481 . S
C54 H51 0.980 . S
C54 H52 0.981 . S
C54 H53 0.981 . S
C55 C42 1.481 . S
C55 H56 0.980 . S
C55 H57 0.981 . S
C55 H58 0.981 . S
H56 C55 0.980 . S
H57 C55 0.981 . S
H58 C55 0.981 . S
O59 Zn35 2.066 . S
O59 C38 1.256 . S
O60 Zn32 2.053 . S
O60 C38 1.244 1_556 S
C61 O39 1.259 . S
C61 O40 1.254 1_554 S
O62 Zn32 2.066 1_565 S
O62 C34 1.256 . S
O63 C34 1.244 1_554 S
O63 Zn35 2.053 1_565 S
Zn64 O65 2.055 . S
Zn64 O72 2.046 . S
Zn64 N80 2.036 . S
Zn64 O92 2.053 . S
Zn64 O94 2.066 . S
O65 Zn64 2.055 . S
O65 C68 1.259 . S
C66 O94 1.256 . S
C66 O95 1.244 1_554 S
Zn67 O69 2.046 . S
Zn67 O71 2.055 . S
Zn67 N73 2.036 . S
Zn67 O91 2.066 . S
Zn67 O95 2.053 . S
C68 O65 1.259 . S
C68 O69 1.254 1_554 S
O69 Zn67 2.046 . S
O69 C68 1.254 1_556 S
C70 O91 1.256 . S
C70 O92 1.244 1_556 S
O71 Zn67 2.055 . S
O71 C93 1.259 . S
O72 Zn64 2.046 . S
O72 C93 1.254 1_554 S
N73 Zn67 2.036 . S
N73 C74 1.298 . S
N73 N76 1.398 . S
C74 N73 1.298 . S
C74 N77 1.367 . S
C74 C87 1.481 . S
C75 N76 1.299 . S
C75 N77 1.379 . S
N76 N73 1.398 . S
N76 C75 1.299 . S
N77 C74 1.367 . S
N77 C75 1.379 . S
C78 N80 1.298 . S
C78 N82 1.367 . S
C78 C86 1.481 . S
C79 N81 1.299 . S
C79 N82 1.379 . S
N80 Zn64 2.036 . S
N80 C78 1.298 . S
N80 N81 1.398 . S
N81 C79 1.299 . S
N81 N80 1.398 . S
N82 C78 1.367 . S
N82 C79 1.379 . S
H83 C86 0.980 . S
H84 C86 0.981 . S
H85 C86 0.981 . S
C86 C78 1.481 . S
C86 H83 0.980 . S
C86 H84 0.981 . S
C86 H85 0.981 . S
C87 C74 1.481 . S
C87 H88 0.980 . S
C87 H89 0.981 . S
C87 H90 0.981 . S
H88 C87 0.980 . S
H89 C87 0.981 . S
H90 C87 0.981 . S
O91 Zn67 2.066 . S
O91 C70 1.256 . S
O92 Zn64 2.053 . S
O92 C70 1.244 1_554 S
C93 O71 1.259 . S
C93 O72 1.254 1_556 S
O94 Zn64 2.066 . S
O94 C66 1.256 . S
O95 C66 1.244 1_556 S
O95 Zn67 2.053 . S
C96 C97 1.391 . S
C96 C98 1.394 . S
C96 H112 0.931 . S
C97 C96 1.391 . S
C97 C101 1.380 . S
C98 C96 1.394 . S
C98 C99 1.369 . S
C98 C102 1.531 . S
C99 C98 1.369 . S
C99 C100 1.410 1_455 S
C99 C107 1.504 . S
C100 C99 1.410 1_655 S
C100 C101 1.391 1_655 S
C100 C103 1.511 . S
C101 C97 1.380 . S
C101 C100 1.391 1_455 S
C101 H113 0.925 1_455 S
C102 C98 1.531 . S
C102 H114 0.960 . S
C102 H115 0.962 . S
C102 H116 0.960 . S
C103 C100 1.511 . S
C103 H117 0.961 . S
C103 H118 0.961 . S
C103 H119 0.961 . S
C104 C105 1.370 1_455 S
C104 C106 1.363 . S
C104 H120 0.931 . S
C105 C104 1.370 1_655 S
C105 C109 1.408 . S
C106 C104 1.363 . S
C106 C107 1.374 . S
C106 C110 1.524 . S
C107 C99 1.504 . S
C107 C106 1.374 . S
C107 C108 1.399 1_455 S
C108 C107 1.399 1_655 S
C108 C109 1.404 . S
C108 C111 1.539 . S
C109 C105 1.408 . S
C109 C108 1.404 . S
C109 H121 0.930 . S
C110 C106 1.524 . S
C110 H122 0.956 . S
C110 H123 0.961 . S
C110 H124 0.961 . S
C111 C108 1.539 . S
C111 H125 0.958 . S
C111 H126 0.961 . S
C111 H127 0.960 . S
H112 C96 0.931 . S
H113 C101 0.925 1_655 S
H114 C102 0.960 . S
H115 C102 0.962 . S
H116 C102 0.960 . S
H117 C103 0.961 . S
H118 C103 0.961 . S
H119 C103 0.961 . S
H120 C104 0.931 . S
H121 C109 0.930 . S
H122 C110 0.956 . S
H123 C110 0.961 . S
H124 C110 0.961 . S
H125 C111 0.958 . S
H126 C111 0.961 . S
H127 C111 0.960 . S
C128 C129 1.391 . S
C128 C130 1.394 1_545 S
C128 H144 0.931 1_545 S
C129 C128 1.391 . S
C129 C133 1.376 . S
C130 C128 1.394 1_565 S
C130 C131 1.369 1_565 S
C130 C134 1.531 . S
C131 C130 1.369 1_545 S
C131 C132 1.410 . S
C131 C139 1.503 1_545 S
C132 C131 1.410 . S
C132 C133 1.392 . S
C132 C135 1.511 . S
C133 C129 1.376 . S
C133 C132 1.392 . S
C133 H145 0.929 . S
C134 C130 1.531 . S
C134 H146 0.960 . S
C134 H147 0.962 . S
C134 H148 0.960 . S
C135 C132 1.511 . S
C135 H149 0.961 . S
C135 H150 0.961 . S
C135 H151 0.961 . S
C136 C137 1.370 1_545 S
C136 C138 1.363 . S
C136 H152 0.931 . S
C137 C136 1.370 1_565 S
C137 C141 1.408 . S
C138 C136 1.363 . S
C138 C139 1.369 1_545 S
C138 C142 1.524 . S
C139 C131 1.503 1_565 S
C139 C138 1.369 1_565 S
C139 C140 1.404 . S
C140 C139 1.404 . S
C140 C141 1.404 . S
C140 C143 1.539 . S
C141 C137 1.408 . S
C141 C140 1.404 . S
C141 H153 0.930 . S
C142 C138 1.524 . S
C142 H154 0.956 . S
C142 H155 0.961 . S
C142 H156 0.961 . S
C143 C140 1.539 . S
C143 H157 0.958 . S
C143 H158 0.961 . S
C143 H159 0.960 . S
H144 C128 0.931 1_565 S
H145 C133 0.929 . S
H146 C134 0.960 . S
H147 C134 0.962 . S
H148 C134 0.960 . S
H149 C135 0.961 . S
H150 C135 0.961 . S
H151 C135 0.961 . S
H152 C136 0.931 . S
H153 C141 0.930 . S
H154 C142 0.956 . S
H155 C142 0.961 . S
H156 C142 0.961 . S
H157 C143 0.958 . S
H158 C143 0.961 . S
H159 C143 0.960 . S
C160 C161 1.391 . S
C160 C162 1.394 . S
C160 H176 0.931 . S
C161 C160 1.391 . S
C161 C165 1.376 . S
C162 C160 1.394 . S
C162 C163 1.369 . S
C162 C166 1.531 . S
C163 C162 1.369 . S
C163 C164 1.410 . S
C163 C171 1.503 . S
C164 C163 1.410 . S
C164 C165 1.392 . S
C164 C167 1.511 . S
C165 C161 1.376 . S
C165 C164 1.392 . S
C165 H177 0.929 . S
C166 C162 1.531 . S
C166 H178 0.960 . S
C166 H179 0.962 . S
C166 H180 0.960 . S
C167 C164 1.511 . S
C167 H181 0.961 . S
C167 H182 0.961 . S
C167 H183 0.961 . S
C168 C169 1.370 . S
C168 C170 1.363 . S
C168 H184 0.931 . S
C169 C168 1.370 . S
C169 C173 1.408 . S
C170 C168 1.363 . S
C170 C171 1.370 . S
C170 C174 1.524 . S
C171 C163 1.503 . S
C171 C170 1.370 . S
C171 C172 1.403 . S
C172 C171 1.403 . S
C172 C173 1.404 . S
C172 C175 1.539 . S
C173 C169 1.408 . S
C173 C172 1.404 . S
C173 H185 0.930 . S
C174 C170 1.524 . S
C174 H186 0.956 . S
C174 H187 0.961 . S
C174 H188 0.961 . S
C175 C172 1.539 . S
C175 H189 0.958 . S
C175 H190 0.961 . S
C175 H191 0.960 . S
H176 C160 0.931 . S
H177 C165 0.929 . S
H178 C166 0.960 . S
H179 C166 0.962 . S
H180 C166 0.960 . S
H181 C167 0.961 . S
H182 C167 0.961 . S
H183 C167 0.961 . S
H184 C168 0.931 . S
H185 C173 0.930 . S
H186 C174 0.956 . S
H187 C174 0.961 . S
H188 C174 0.961 . S
H189 C175 0.958 . S
H190 C175 0.961 . S
H191 C175 0.960 . S
C192 C193 1.391 1_554 S
C192 C194 1.394 . S
C192 H208 0.931 . S
C193 C192 1.391 1_556 S
C193 C197 1.376 . S
C194 C192 1.394 . S
C194 C195 1.369 . S
C194 C198 1.531 . S
C195 C194 1.369 . S
C195 C196 1.410 1_554 S
C195 C203 1.503 . S
C196 C195 1.410 1_556 S
C196 C197 1.392 . S
C196 C199 1.511 . S
C197 C193 1.376 . S
C197 C196 1.392 . S
C197 H209 0.929 . S
C198 C194 1.531 . S
C198 H210 0.960 . S
C198 H211 0.962 . S
C198 H212 0.960 . S
C199 C196 1.511 . S
C199 H213 0.961 . S
C199 H214 0.961 . S
C199 H215 0.961 . S
C200 C201 1.370 . S
C200 C202 1.363 . S
C200 H216 0.931 . S
C201 C200 1.370 . S
C201 C205 1.408 1_556 S
C202 C200 1.363 . S
C202 C203 1.370 1_556 S
C202 C206 1.524 . S
C203 C195 1.503 . S
C203 C202 1.370 1_554 S
C203 C204 1.403 . S
C204 C203 1.403 . S
C204 C205 1.404 . S
C204 C207 1.539 . S
C205 C201 1.408 1_554 S
C205 C204 1.404 . S
C205 H217 0.930 . S
C206 C202 1.524 . S
C206 H218 0.956 . S
C206 H219 0.961 . S
C206 H220 0.961 . S
C207 C204 1.539 . S
C207 H221 0.958 . S
C207 H222 0.961 . S
C207 H223 0.960 . S
H208 C192 0.931 . S
H209 C197 0.929 . S
H210 C198 0.960 . S
H211 C198 0.962 . S
H212 C198 0.960 . S
H213 C199 0.961 . S
H214 C199 0.961 . S
H215 C199 0.961 . S
H216 C200 0.931 . S
H217 C205 0.930 . S
H218 C206 0.956 . S
H219 C206 0.961 . S
H220 C206 0.961 . S
H221 C207 0.958 . S
H222 C207 0.961 . S
H223 C207 0.960 . S
C224 C225 1.391 . S
C224 C226 1.394 . S
C224 H240 0.931 . S
C225 C224 1.391 . S
C225 C229 1.376 1_556 S
C226 C224 1.394 . S
C226 C227 1.369 . S
C226 C230 1.531 . S
C227 C226 1.369 . S
C227 C228 1.410 . S
C227 C235 1.503 . S
C228 C227 1.410 . S
C228 C229 1.392 1_556 S
C228 C231 1.511 1_556 S
C229 C225 1.376 1_554 S
C229 C228 1.392 1_554 S
C229 H241 0.929 . S
C230 C226 1.531 . S
C230 H242 0.960 . S
C230 H243 0.962 1_556 S
C230 H244 0.960 . S
C231 C228 1.511 1_554 S
C231 H245 0.961 . S
C231 H246 0.961 . S
C231 H247 0.961 1_554 S
C232 C233 1.370 . S
C232 C234 1.363 . S
C232 H248 0.931 . S
C233 C232 1.370 . S
C233 C237 1.408 1_554 S
C234 C232 1.363 . S
C234 C235 1.370 1_554 S
C234 C238 1.524 . S
C235 C227 1.503 . S
C235 C234 1.370 1_556 S
C235 C236 1.403 . S
C236 C235 1.403 . S
C236 C237 1.404 . S
C236 C239 1.539 . S
C237 C233 1.408 1_556 S
C237 C236 1.404 . S
C237 H249 0.930 . S
C238 C234 1.524 . S
C238 H250 0.956 . S
C238 H251 0.961 . S
C238 H252 0.961 . S
C239 C236 1.539 . S
C239 H253 0.958 . S
C239 H254 0.961 . S
C239 H255 0.960 . S
H240 C224 0.931 . S
H241 C229 0.929 . S
H242 C230 0.960 . S
H243 C230 0.962 1_554 S
H244 C230 0.960 . S
H245 C231 0.961 . S
H246 C231 0.961 . S
H247 C231 0.961 1_556 S
H248 C232 0.931 . S
H249 C237 0.930 . S
H250 C238 0.956 . S
H251 C238 0.961 . S
H252 C238 0.961 . S
H253 C239 0.958 . S
H254 C239 0.961 . S
H255 C239 0.960 . S
C256 C257 1.402 . S
C256 C258 1.394 . S
C256 H272 0.931 . S
C257 C256 1.402 . S
C257 C261 1.364 1_556 S
C258 C256 1.394 . S
C258 C259 1.368 . S
C258 C262 1.531 . S
C259 C258 1.368 . S
C259 C260 1.410 1_556 S
C259 C267 1.503 . S
C260 C259 1.410 1_554 S
C260 C261 1.392 . S
C260 C263 1.511 . S
C261 C257 1.364 1_554 S
C261 C260 1.392 . S
C261 H273 0.929 . S
C262 C258 1.531 . S
C262 H274 0.960 . S
C262 H275 0.962 . S
C262 H276 0.960 . S
C263 C260 1.511 . S
C263 H277 0.961 . S
C263 H278 0.961 . S
C263 H279 0.961 . S
C264 C265 1.370 . S
C264 C266 1.363 . S
C264 H280 0.931 . S
C265 C264 1.370 . S
C265 C269 1.408 1_556 S
C266 C264 1.363 . S
C266 C267 1.370 . S
C266 C270 1.524 . S
C267 C259 1.503 . S
C267 C266 1.370 . S
C267 C268 1.403 1_556 S
C268 C267 1.403 1_554 S
C268 C269 1.404 . S
C268 C271 1.539 . S
C269 C265 1.408 1_554 S
C269 C268 1.404 . S
C269 H281 0.930 . S
C270 C266 1.524 . S
C270 H282 0.956 . S
C270 H283 0.961 . S
C270 H284 0.961 . S
C271 C268 1.539 . S
C271 H285 0.958 . S
C271 H286 0.961 . S
C271 H287 0.960 . S
H272 C256 0.931 . S
H273 C261 0.929 . S
H274 C262 0.960 . S
H275 C262 0.962 . S
H276 C262 0.960 . S
H277 C263 0.961 . S
H278 C263 0.961 . S
H279 C263 0.961 . S
H280 C264 0.931 . S
H281 C269 0.930 . S
H282 C270 0.956 . S
H283 C270 0.961 . S
H284 C270 0.961 . S
H285 C271 0.958 . S
H286 C271 0.961 . S
H287 C271 0.960 . S
C288 C289 1.391 1_556 S
C288 C290 1.394 . S
C288 H304 0.931 . S
C289 C288 1.391 1_554 S
C289 C293 1.376 . S
C290 C288 1.394 . S
C290 C291 1.355 1_556 S
C290 C294 1.531 . S
C291 C290 1.355 1_554 S
C291 C292 1.423 . S
C291 C299 1.504 . S
C292 C291 1.423 . S
C292 C293 1.392 . S
C292 C295 1.511 . S
C293 C289 1.376 . S
C293 C292 1.392 . S
C293 H305 0.929 . S
C294 C290 1.531 . S
C294 H306 0.960 . S
C294 H307 0.962 . S
C294 H308 0.960 . S
C295 C292 1.511 . S
C295 H309 0.961 . S
C295 H310 0.961 . S
C295 H311 0.961 . S
C296 C297 1.370 . S
C296 C298 1.363 . S
C296 H312 0.931 . S
C297 C296 1.370 . S
C297 C301 1.408 1_554 S
C298 C296 1.363 . S
C298 C299 1.370 . S
C298 C302 1.524 . S
C299 C291 1.504 . S
C299 C298 1.370 . S
C299 C300 1.403 1_554 S
C300 C299 1.403 1_556 S
C300 C301 1.404 . S
C300 C303 1.539 . S
C301 C297 1.408 1_556 S
C301 C300 1.404 . S
C301 H313 0.930 . S
C302 C298 1.524 . S
C302 H314 0.956 . S
C302 H315 0.961 . S
C302 H316 0.961 . S
C303 C300 1.539 . S
C303 H317 0.958 . S
C303 H318 0.961 . S
C303 H319 0.960 . S
H304 C288 0.931 . S
H305 C293 0.929 . S
H306 C294 0.960 . S
H307 C294 0.962 . S
H308 C294 0.960 . S
H309 C295 0.961 . S
H310 C295 0.961 . S
H311 C295 0.961 . S
H312 C296 0.931 . S
H313 C301 0.930 . S
H314 C302 0.956 . S
H315 C302 0.961 . S
H316 C302 0.961 . S
H317 C303 0.958 . S
H318 C303 0.961 . S
H319 C303 0.960 . S
C320 C321 1.391 . S
C320 C322 1.394 . S
C320 H336 0.931 . S
C321 C320 1.391 . S
C321 C325 1.376 . S
C322 C320 1.394 . S
C322 C323 1.369 . S
C322 C326 1.531 . S
C323 C322 1.369 . S
C323 C324 1.410 . S
C323 C331 1.503 . S
C324 C323 1.410 . S
C324 C325 1.392 . S
C324 C327 1.511 . S
C325 C321 1.376 . S
C325 C324 1.392 . S
C325 H337 0.929 1_554 S
C326 C322 1.531 . S
C326 H338 0.960 . S
C326 H339 0.962 1_554 S
C326 H340 0.960 . S
C327 C324 1.511 . S
C327 H341 0.961 1_554 S
C327 H342 0.961 1_554 S
C327 H343 0.961 . S
C328 C329 1.370 . S
C328 C330 1.363 . S
C328 H344 0.931 . S
C329 C328 1.370 . S
C329 C333 1.408 1_556 S
C330 C328 1.363 . S
C330 C331 1.370 1_556 S
C330 C334 1.524 . S
C331 C323 1.503 . S
C331 C330 1.370 1_554 S
C331 C332 1.403 . S
C332 C331 1.403 . S
C332 C333 1.404 . S
C332 C335 1.539 . S
C333 C329 1.408 1_554 S
C333 C332 1.404 . S
C333 H345 0.930 . S
C334 C330 1.524 . S
C334 H346 0.956 . S
C334 H347 0.961 . S
C334 H348 0.961 . S
C335 C332 1.539 . S
C335 H349 0.958 . S
C335 H350 0.961 . S
C335 H351 0.960 . S
H336 C320 0.931 . S
H337 C325 0.929 1_556 S
H338 C326 0.960 . S
H339 C326 0.962 1_556 S
H340 C326 0.960 . S
H341 C327 0.961 1_556 S
H342 C327 0.961 1_556 S
H343 C327 0.961 . S
H344 C328 0.931 . S
H345 C333 0.930 . S
H346 C334 0.956 . S
H347 C334 0.961 . S
H348 C334 0.961 . S
H349 C335 0.958 . S
H350 C335 0.961 . S
H351 C335 0.960 . S
C352 C353 1.391 . S
C352 C354 1.394 . S
C352 H368 0.931 . S
C353 C352 1.391 . S
C353 C357 1.376 1_554 S
C354 C352 1.394 . S
C354 C355 1.369 . S
C354 C358 1.531 . S
C355 C354 1.369 . S
C355 C356 1.410 1_554 S
C355 C363 1.503 . S
C356 C355 1.410 1_556 S
C356 C357 1.392 . S
C356 C359 1.511 . S
C357 C353 1.376 1_556 S
C357 C356 1.392 . S
C357 H369 0.929 . S
C358 C354 1.531 . S
C358 H370 0.960 . S
C358 H371 0.962 . S
C358 H372 0.960 . S
C359 C356 1.511 . S
C359 H373 0.961 . S
C359 H374 0.961 . S
C359 H375 0.961 . S
C360 C361 1.370 1_556 S
C360 C362 1.363 . S
C360 H376 0.931 . S
C361 C360 1.370 1_554 S
C361 C365 1.408 . S
C362 C360 1.363 . S
C362 C363 1.370 1_556 S
C362 C366 1.524 . S
C363 C355 1.503 . S
C363 C362 1.370 1_554 S
C363 C364 1.403 . S
C364 C363 1.403 . S
C364 C365 1.404 . S
C364 C367 1.539 . S
C365 C361 1.408 . S
C365 C364 1.404 . S
C365 H377 0.930 . S
C366 C362 1.524 . S
C366 H378 0.956 1_556 S
C366 H379 0.961 . S
C366 H380 0.961 . S
C367 C364 1.539 . S
C367 H381 0.958 . S
C367 H382 0.961 . S
C367 H383 0.960 . S
H368 C352 0.931 . S
H369 C357 0.929 . S
H370 C358 0.960 . S
H371 C358 0.962 . S
H372 C358 0.960 . S
H373 C359 0.961 . S
H374 C359 0.961 . S
H375 C359 0.961 . S
H376 C360 0.931 . S
H377 C365 0.930 . S
H378 C366 0.956 1_554 S
H379 C366 0.961 . S
H380 C366 0.961 . S
H381 C367 0.958 . S
H382 C367 0.961 . S
H383 C367 0.960 . S
C97 N18 1.439 . S
C105 N13 1.490 1_655 S
C129 N45 1.434 . S
C137 N50 1.486 1_565 S
C161 N77 1.460 . S
C169 N82 1.486 . S
C193 C2 1.183 . S
C201 C93 1.185 . S
C225 C61 1.181 1_556 S
C233 C6 1.178 . S
C257 C36 1.181 . S
C265 C70 1.184 . S
C289 C29 1.183 . S
C297 C66 1.175 . S
C321 C4 1.181 1_554 S
C329 C34 1.178 . S
C353 C68 1.182 . S
C361 C38 1.187 . S
