# Generated by pormake.
# Topology rho, (4)-cn, num edge types: 1
# Building blocks:
#     Node 0, Type 0, BuildingBlock: CEKHIL_clean_sbu_0, # of connection points: 4
#     Node 1, Type 0, BuildingBlock: CEKHIL_clean_sbu_0, # of connection points: 4
#     Node 2, Type 0, BuildingBlock: CEKHIL_clean_sbu_0, # of connection points: 4
#     Node 3, Type 0, BuildingBlock: CEKHIL_clean_sbu_0, # of connection points: 4
#     Node 4, Type 0, BuildingBlock: CEKHIL_clean_sbu_0, # of connection points: 4
#     Node 5, Type 0, BuildingBlock: CEKHIL_clean_sbu_0, # of connection points: 4
#     Node 6, Type 0, BuildingBlock: CEKHIL_clean_sbu_0, # of connection points: 4
#     Node 7, Type 0, BuildingBlock: CEKHIL_clean_sbu_0, # of connection points: 4
#     Node 8, Type 0, BuildingBlock: CEKHIL_clean_sbu_0, # of connection points: 4
#     Node 9, Type 0, BuildingBlock: CEKHIL_clean_sbu_0, # of connection points: 4
#     Node 10, Type 0, BuildingBlock: CEKHIL_clean_sbu_0, # of connection points: 4
#     Node 11, Type 0, BuildingBlock: CEKHIL_clean_sbu_0, # of connection points: 4
#     Node 12, Type 0, BuildingBlock: CEKHIL_clean_sbu_0, # of connection points: 4
#     Node 13, Type 0, BuildingBlock: CEKHIL_clean_sbu_0, # of connection points: 4
#     Node 14, Type 0, BuildingBlock: CEKHIL_clean_sbu_0, # of connection points: 4
#     Node 15, Type 0, BuildingBlock: CEKHIL_clean_sbu_0, # of connection points: 4
#     Node 16, Type 0, BuildingBlock: CEKHIL_clean_sbu_0, # of connection points: 4
#     Node 17, Type 0, BuildingBlock: CEKHIL_clean_sbu_0, # of connection points: 4
#     Node 18, Type 0, BuildingBlock: CEKHIL_clean_sbu_0, # of connection points: 4
#     Node 19, Type 0, BuildingBlock: CEKHIL_clean_sbu_0, # of connection points: 4
#     Node 20, Type 0, BuildingBlock: CEKHIL_clean_sbu_0, # of connection points: 4
#     Node 21, Type 0, BuildingBlock: CEKHIL_clean_sbu_0, # of connection points: 4
#     Node 22, Type 0, BuildingBlock: CEKHIL_clean_sbu_0, # of connection points: 4
#     Node 23, Type 0, BuildingBlock: CEKHIL_clean_sbu_0, # of connection points: 4
#     Node 24, Type 0, BuildingBlock: CEKHIL_clean_sbu_0, # of connection points: 4
#     Node 25, Type 0, BuildingBlock: CEKHIL_clean_sbu_0, # of connection points: 4
#     Node 26, Type 0, BuildingBlock: CEKHIL_clean_sbu_0, # of connection points: 4
#     Node 27, Type 0, BuildingBlock: CEKHIL_clean_sbu_0, # of connection points: 4
#     Node 28, Type 0, BuildingBlock: CEKHIL_clean_sbu_0, # of connection points: 4
#     Node 29, Type 0, BuildingBlock: CEKHIL_clean_sbu_0, # of connection points: 4
#     Node 30, Type 0, BuildingBlock: CEKHIL_clean_sbu_0, # of connection points: 4
#     Node 31, Type 0, BuildingBlock: CEKHIL_clean_sbu_0, # of connection points: 4
#     Node 32, Type 0, BuildingBlock: CEKHIL_clean_sbu_0, # of connection points: 4
#     Node 33, Type 0, BuildingBlock: CEKHIL_clean_sbu_0, # of connection points: 4
#     Node 34, Type 0, BuildingBlock: CEKHIL_clean_sbu_0, # of connection points: 4
#     Node 35, Type 0, BuildingBlock: CEKHIL_clean_sbu_0, # of connection points: 4
#     Node 36, Type 0, BuildingBlock: CEKHIL_clean_sbu_0, # of connection points: 4
#     Node 37, Type 0, BuildingBlock: CEKHIL_clean_sbu_0, # of connection points: 4
#     Node 38, Type 0, BuildingBlock: CEKHIL_clean_sbu_0, # of connection points: 4
#     Node 39, Type 0, BuildingBlock: CEKHIL_clean_sbu_0, # of connection points: 4
#     Node 40, Type 0, BuildingBlock: CEKHIL_clean_sbu_0, # of connection points: 4
#     Node 41, Type 0, BuildingBlock: CEKHIL_clean_sbu_0, # of connection points: 4
#     Node 42, Type 0, BuildingBlock: CEKHIL_clean_sbu_0, # of connection points: 4
#     Node 43, Type 0, BuildingBlock: CEKHIL_clean_sbu_0, # of connection points: 4
#     Node 44, Type 0, BuildingBlock: CEKHIL_clean_sbu_0, # of connection points: 4
#     Node 45, Type 0, BuildingBlock: CEKHIL_clean_sbu_0, # of connection points: 4
#     Node 46, Type 0, BuildingBlock: CEKHIL_clean_sbu_0, # of connection points: 4
#     Node 47, Type 0, BuildingBlock: CEKHIL_clean_sbu_0, # of connection points: 4
#     Edge 48, Type (0, 0), BuildingBlock: MIFKUJ_clean_linker_0, # of connection points: 2
#     Edge 49, Type (0, 0), BuildingBlock: MIFKUJ_clean_linker_0, # of connection points: 2
#     Edge 50, Type (0, 0), BuildingBlock: MIFKUJ_clean_linker_0, # of connection points: 2
#     Edge 51, Type (0, 0), BuildingBlock: MIFKUJ_clean_linker_0, # of connection points: 2
#     Edge 52, Type (0, 0), BuildingBlock: MIFKUJ_clean_linker_0, # of connection points: 2
#     Edge 53, Type (0, 0), BuildingBlock: MIFKUJ_clean_linker_0, # of connection points: 2
#     Edge 54, Type (0, 0), BuildingBlock: MIFKUJ_clean_linker_0, # of connection points: 2
#     Edge 55, Type (0, 0), BuildingBlock: MIFKUJ_clean_linker_0, # of connection points: 2
#     Edge 56, Type (0, 0), BuildingBlock: MIFKUJ_clean_linker_0, # of connection points: 2
#     Edge 57, Type (0, 0), BuildingBlock: MIFKUJ_clean_linker_0, # of connection points: 2
#     Edge 58, Type (0, 0), BuildingBlock: MIFKUJ_clean_linker_0, # of connection points: 2
#     Edge 59, Type (0, 0), BuildingBlock: MIFKUJ_clean_linker_0, # of connection points: 2
#     Edge 60, Type (0, 0), BuildingBlock: MIFKUJ_clean_linker_0, # of connection points: 2
#     Edge 61, Type (0, 0), BuildingBlock: MIFKUJ_clean_linker_0, # of connection points: 2
#     Edge 62, Type (0, 0), BuildingBlock: MIFKUJ_clean_linker_0, # of connection points: 2
#     Edge 63, Type (0, 0), BuildingBlock: MIFKUJ_clean_linker_0, # of connection points: 2
#     Edge 64, Type (0, 0), BuildingBlock: MIFKUJ_clean_linker_0, # of connection points: 2
#     Edge 65, Type (0, 0), BuildingBlock: MIFKUJ_clean_linker_0, # of connection points: 2
#     Edge 66, Type (0, 0), BuildingBlock: MIFKUJ_clean_linker_0, # of connection points: 2
#     Edge 67, Type (0, 0), BuildingBlock: MIFKUJ_clean_linker_0, # of connection points: 2
#     Edge 68, Type (0, 0), BuildingBlock: MIFKUJ_clean_linker_0, # of connection points: 2
#     Edge 69, Type (0, 0), BuildingBlock: MIFKUJ_clean_linker_0, # of connection points: 2
#     Edge 70, Type (0, 0), BuildingBlock: MIFKUJ_clean_linker_0, # of connection points: 2
#     Edge 71, Type (0, 0), BuildingBlock: MIFKUJ_clean_linker_0, # of connection points: 2
#     Edge 72, Type (0, 0), BuildingBlock: MIFKUJ_clean_linker_0, # of connection points: 2
#     Edge 73, Type (0, 0), BuildingBlock: MIFKUJ_clean_linker_0, # of connection points: 2
#     Edge 74, Type (0, 0), BuildingBlock: MIFKUJ_clean_linker_0, # of connection points: 2
#     Edge 75, Type (0, 0), BuildingBlock: MIFKUJ_clean_linker_0, # of connection points: 2
#     Edge 76, Type (0, 0), BuildingBlock: MIFKUJ_clean_linker_0, # of connection points: 2
#     Edge 77, Type (0, 0), BuildingBlock: MIFKUJ_clean_linker_0, # of connection points: 2
#     Edge 78, Type (0, 0), BuildingBlock: MIFKUJ_clean_linker_0, # of connection points: 2
#     Edge 79, Type (0, 0), BuildingBlock: MIFKUJ_clean_linker_0, # of connection points: 2
#     Edge 80, Type (0, 0), BuildingBlock: MIFKUJ_clean_linker_0, # of connection points: 2
#     Edge 81, Type (0, 0), BuildingBlock: MIFKUJ_clean_linker_0, # of connection points: 2
#     Edge 82, Type (0, 0), BuildingBlock: MIFKUJ_clean_linker_0, # of connection points: 2
#     Edge 83, Type (0, 0), BuildingBlock: MIFKUJ_clean_linker_0, # of connection points: 2
#     Edge 84, Type (0, 0), BuildingBlock: MIFKUJ_clean_linker_0, # of connection points: 2
#     Edge 85, Type (0, 0), BuildingBlock: MIFKUJ_clean_linker_0, # of connection points: 2
#     Edge 86, Type (0, 0), BuildingBlock: MIFKUJ_clean_linker_0, # of connection points: 2
#     Edge 87, Type (0, 0), BuildingBlock: MIFKUJ_clean_linker_0, # of connection points: 2
#     Edge 88, Type (0, 0), BuildingBlock: MIFKUJ_clean_linker_0, # of connection points: 2
#     Edge 89, Type (0, 0), BuildingBlock: MIFKUJ_clean_linker_0, # of connection points: 2
#     Edge 90, Type (0, 0), BuildingBlock: MIFKUJ_clean_linker_0, # of connection points: 2
#     Edge 91, Type (0, 0), BuildingBlock: MIFKUJ_clean_linker_0, # of connection points: 2
#     Edge 92, Type (0, 0), BuildingBlock: MIFKUJ_clean_linker_0, # of connection points: 2
#     Edge 93, Type (0, 0), BuildingBlock: MIFKUJ_clean_linker_0, # of connection points: 2
#     Edge 94, Type (0, 0), BuildingBlock: MIFKUJ_clean_linker_0, # of connection points: 2
#     Edge 95, Type (0, 0), BuildingBlock: MIFKUJ_clean_linker_0, # of connection points: 2
#     Edge 96, Type (0, 0), BuildingBlock: MIFKUJ_clean_linker_0, # of connection points: 2
#     Edge 97, Type (0, 0), BuildingBlock: MIFKUJ_clean_linker_0, # of connection points: 2
#     Edge 98, Type (0, 0), BuildingBlock: MIFKUJ_clean_linker_0, # of connection points: 2
#     Edge 99, Type (0, 0), BuildingBlock: MIFKUJ_clean_linker_0, # of connection points: 2
#     Edge 100, Type (0, 0), BuildingBlock: MIFKUJ_clean_linker_0, # of connection points: 2
#     Edge 101, Type (0, 0), BuildingBlock: MIFKUJ_clean_linker_0, # of connection points: 2
#     Edge 102, Type (0, 0), BuildingBlock: MIFKUJ_clean_linker_0, # of connection points: 2
#     Edge 103, Type (0, 0), BuildingBlock: MIFKUJ_clean_linker_0, # of connection points: 2
#     Edge 104, Type (0, 0), BuildingBlock: MIFKUJ_clean_linker_0, # of connection points: 2
#     Edge 105, Type (0, 0), BuildingBlock: MIFKUJ_clean_linker_0, # of connection points: 2
#     Edge 106, Type (0, 0), BuildingBlock: MIFKUJ_clean_linker_0, # of connection points: 2
#     Edge 107, Type (0, 0), BuildingBlock: MIFKUJ_clean_linker_0, # of connection points: 2
#     Edge 108, Type (0, 0), BuildingBlock: MIFKUJ_clean_linker_0, # of connection points: 2
#     Edge 109, Type (0, 0), BuildingBlock: MIFKUJ_clean_linker_0, # of connection points: 2
#     Edge 110, Type (0, 0), BuildingBlock: MIFKUJ_clean_linker_0, # of connection points: 2
#     Edge 111, Type (0, 0), BuildingBlock: MIFKUJ_clean_linker_0, # of connection points: 2
#     Edge 112, Type (0, 0), BuildingBlock: MIFKUJ_clean_linker_0, # of connection points: 2
#     Edge 113, Type (0, 0), BuildingBlock: MIFKUJ_clean_linker_0, # of connection points: 2
#     Edge 114, Type (0, 0), BuildingBlock: MIFKUJ_clean_linker_0, # of connection points: 2
#     Edge 115, Type (0, 0), BuildingBlock: MIFKUJ_clean_linker_0, # of connection points: 2
#     Edge 116, Type (0, 0), BuildingBlock: MIFKUJ_clean_linker_0, # of connection points: 2
#     Edge 117, Type (0, 0), BuildingBlock: MIFKUJ_clean_linker_0, # of connection points: 2
#     Edge 118, Type (0, 0), BuildingBlock: MIFKUJ_clean_linker_0, # of connection points: 2
#     Edge 119, Type (0, 0), BuildingBlock: MIFKUJ_clean_linker_0, # of connection points: 2
#     Edge 120, Type (0, 0), BuildingBlock: MIFKUJ_clean_linker_0, # of connection points: 2
#     Edge 121, Type (0, 0), BuildingBlock: MIFKUJ_clean_linker_0, # of connection points: 2
#     Edge 122, Type (0, 0), BuildingBlock: MIFKUJ_clean_linker_0, # of connection points: 2
#     Edge 123, Type (0, 0), BuildingBlock: MIFKUJ_clean_linker_0, # of connection points: 2
#     Edge 124, Type (0, 0), BuildingBlock: MIFKUJ_clean_linker_0, # of connection points: 2
#     Edge 125, Type (0, 0), BuildingBlock: MIFKUJ_clean_linker_0, # of connection points: 2
#     Edge 126, Type (0, 0), BuildingBlock: MIFKUJ_clean_linker_0, # of connection points: 2
#     Edge 127, Type (0, 0), BuildingBlock: MIFKUJ_clean_linker_0, # of connection points: 2
#     Edge 128, Type (0, 0), BuildingBlock: MIFKUJ_clean_linker_0, # of connection points: 2
#     Edge 129, Type (0, 0), BuildingBlock: MIFKUJ_clean_linker_0, # of connection points: 2
#     Edge 130, Type (0, 0), BuildingBlock: MIFKUJ_clean_linker_0, # of connection points: 2
#     Edge 131, Type (0, 0), BuildingBlock: MIFKUJ_clean_linker_0, # of connection points: 2
#     Edge 132, Type (0, 0), BuildingBlock: MIFKUJ_clean_linker_0, # of connection points: 2
#     Edge 133, Type (0, 0), BuildingBlock: MIFKUJ_clean_linker_0, # of connection points: 2
#     Edge 134, Type (0, 0), BuildingBlock: MIFKUJ_clean_linker_0, # of connection points: 2
#     Edge 135, Type (0, 0), BuildingBlock: MIFKUJ_clean_linker_0, # of connection points: 2
#     Edge 136, Type (0, 0), BuildingBlock: MIFKUJ_clean_linker_0, # of connection points: 2
#     Edge 137, Type (0, 0), BuildingBlock: MIFKUJ_clean_linker_0, # of connection points: 2
#     Edge 138, Type (0, 0), BuildingBlock: MIFKUJ_clean_linker_0, # of connection points: 2
#     Edge 139, Type (0, 0), BuildingBlock: MIFKUJ_clean_linker_0, # of connection points: 2
#     Edge 140, Type (0, 0), BuildingBlock: MIFKUJ_clean_linker_0, # of connection points: 2
#     Edge 141, Type (0, 0), BuildingBlock: MIFKUJ_clean_linker_0, # of connection points: 2
#     Edge 142, Type (0, 0), BuildingBlock: MIFKUJ_clean_linker_0, # of connection points: 2
#     Edge 143, Type (0, 0), BuildingBlock: MIFKUJ_clean_linker_0, # of connection points: 2
# Relax obj value: 0.077
# Max RMSD: 0.091
# Mean RMSD: 0.084
data_MOF--net-rho--node1-CEKHIL_clean_sbu_0--edge1-MIFKUJ_clean_linker_0
_symmetry_space_group_name_H-M    P1
_symmetry_Int_Tables_number       1
_symmetry_cell_setting            triclinic
loop_
_symmetry_equiv_pos_as_xyz
'x, y, z'
_cell_length_a     93.191034
_cell_length_b     92.404946
_cell_length_c     92.361538
_cell_angle_alpha  90.174914
_cell_angle_beta   90.053983
_cell_angle_gamma 90.691136
loop_
_atom_site_label
_atom_site_type_symbol
_atom_site_fract_x
_atom_site_fract_y
_atom_site_fract_z
_atom_type_partial_charge
Co0 Co 0.10963 0.24991 0.3931 0.0
O1 O 0.12917 0.2436 0.39247 0.0
O2 O 0.11012 0.22902 0.39306 0.0
C3 C 0.11147 0.26685 0.37575 0.0
O4 O 0.08798 0.25242 0.39317 0.0
Co5 Co 0.10222 0.2814 0.40207 0.0
O6 O 0.08311 0.2762 0.39381 0.0
C7 C 0.11114 0.26046 0.42426 0.0
C8 C 0.12402 0.23048 0.39262 0.0
C9 C 0.07922 0.26302 0.39213 0.0
O10 O 0.11026 0.25017 0.41489 0.0
O11 O 0.10956 0.27382 0.42104 0.0
O12 O 0.10969 0.2533 0.37226 0.0
O13 O 0.11355 0.26943 0.38934 0.0
Co14 Co 0.75235 0.10218 0.39235 0.0
O15 O 0.74685 0.10148 0.37231 0.0
O16 O 0.73167 0.10138 0.39076 0.0
C17 C 0.76869 0.12015 0.39014 0.0
O18 O 0.75404 0.1034 0.41433 0.0
Co19 Co 0.7834 0.09486 0.40165 0.0
O20 O 0.77742 0.10357 0.42034 0.0
C21 C 0.76346 0.07129 0.39328 0.0
C22 C 0.73366 0.10121 0.37682 0.0
C23 C 0.76424 0.10504 0.42364 0.0
O24 O 0.75315 0.08041 0.39284 0.0
O25 O 0.77656 0.07504 0.39552 0.0
O26 O 0.75514 0.12309 0.39125 0.0
O27 O 0.77173 0.10659 0.38902 0.0
Co28 Co 0.89061 0.74978 0.3932 0.0
O29 O 0.87082 0.75534 0.39372 0.0
O30 O 0.88932 0.7706 0.39455 0.0
C31 C 0.88847 0.7338 0.37486 0.0
O32 O 0.91239 0.74821 0.39224 0.0
Co33 Co 0.8999 0.71821 0.39943 0.0
O34 O 0.91821 0.72473 0.39047 0.0
C35 C 0.89142 0.73731 0.42363 0.0
C36 C 0.87548 0.76862 0.39449 0.0
C37 C 0.92151 0.73813 0.3898 0.0
O38 O 0.89083 0.74816 0.41496 0.0
O39 O 0.89388 0.72437 0.41936 0.0
O40 O 0.88972 0.74757 0.37217 0.0
O41 O 0.88725 0.73039 0.38834 0.0
Co42 Co 0.25079 0.89383 0.39245 0.0
O43 O 0.25813 0.89353 0.37303 0.0
O44 O 0.27148 0.89596 0.39275 0.0
C45 C 0.23565 0.87479 0.39004 0.0
O46 O 0.2471 0.89404 0.41421 0.0
Co47 Co 0.21847 0.89976 0.39805 0.0
O48 O 0.22329 0.8944 0.41823 0.0
C49 C 0.2378 0.92391 0.39017 0.0
C50 C 0.27079 0.89516 0.37869 0.0
C51 C 0.23618 0.89352 0.42276 0.0
O52 O 0.24866 0.91551 0.39135 0.0
O53 O 0.2248 0.91942 0.39128 0.0
O54 O 0.24919 0.8727 0.39256 0.0
O55 O 0.23211 0.88803 0.38767 0.0
Co56 Co 0.10888 0.74495 0.60548 0.0
O57 O 0.12871 0.75087 0.60439 0.0
O58 O 0.11028 0.76579 0.60426 0.0
C59 C 0.1112 0.7291 0.62381 0.0
O60 O 0.08714 0.74295 0.60692 0.0
Co61 Co 0.09987 0.71313 0.59884 0.0
O62 O 0.08112 0.71931 0.60681 0.0
C63 C 0.10746 0.73262 0.57481 0.0
C64 C 0.12411 0.76406 0.60388 0.0
C65 C 0.07786 0.73261 0.60826 0.0
O66 O 0.10795 0.74335 0.58372 0.0
O67 O 0.10563 0.71948 0.57885 0.0
O68 O 0.11025 0.74287 0.62646 0.0
O69 O 0.11227 0.72561 0.6103 0.0
Co70 Co 0.25188 0.10821 0.60718 0.0
O71 O 0.24425 0.12741 0.60788 0.0
O72 O 0.23113 0.1073 0.60675 0.0
C73 C 0.26822 0.11137 0.62489 0.0
O74 O 0.25586 0.08657 0.60706 0.0
Co75 Co 0.28384 0.10284 0.59928 0.0
O76 O 0.27965 0.08288 0.6061 0.0
C77 C 0.26321 0.11117 0.57657 0.0
C78 C 0.23161 0.12136 0.60742 0.0
C79 C 0.26682 0.07821 0.60771 0.0
O80 O 0.25265 0.10913 0.58534 0.0
O81 O 0.27637 0.11049 0.58049 0.0
O82 O 0.25494 0.10842 0.62817 0.0
O83 O 0.27079 0.11355 0.61137 0.0
Co84 Co 0.89182 0.25136 0.6026 0.0
O85 O 0.87185 0.24608 0.60369 0.0
O86 O 0.88954 0.23062 0.60038 0.0
C87 C 0.8922 0.2663 0.6219 0.0
O88 O 0.91365 0.25277 0.60156 0.0
Co89 Co 0.90068 0.28317 0.59634 0.0
O90 O 0.92024 0.27627 0.60089 0.0
C91 C 0.89019 0.26487 0.5724 0.0
C92 C 0.87584 0.2328 0.60183 0.0
C93 C 0.92329 0.26288 0.60171 0.0
O94 O 0.89012 0.25392 0.58097 0.0
O95 O 0.89304 0.27778 0.57668 0.0
O96 O 0.89312 0.2524 0.62364 0.0
O97 O 0.88956 0.27053 0.60885 0.0
Co98 Co 0.74945 0.88917 0.60745 0.0
O99 O 0.75713 0.86996 0.60669 0.0
O100 O 0.77003 0.8902 0.6051 0.0
C101 C 0.73487 0.88572 0.62656 0.0
O102 O 0.74548 0.91078 0.60833 0.0
Co103 Co 0.71694 0.89472 0.60256 0.0
O104 O 0.72172 0.9145 0.60965 0.0
C105 C 0.73547 0.88746 0.57777 0.0
C106 C 0.76965 0.87612 0.60523 0.0
C107 C 0.73466 0.91913 0.61012 0.0
O108 O 0.74669 0.88892 0.5858 0.0
O109 O 0.72265 0.88809 0.58271 0.0
O110 O 0.74847 0.88835 0.62859 0.0
O111 O 0.73098 0.88382 0.61328 0.0
Co112 Co 0.39013 0.10504 0.24484 0.0
O113 O 0.37018 0.10289 0.24953 0.0
O114 O 0.38797 0.10255 0.26548 0.0
C115 C 0.38778 0.12414 0.23005 0.0
O116 O 0.41185 0.10744 0.24401 0.0
Co117 Co 0.40049 0.10065 0.21323 0.0
O118 O 0.41871 0.10911 0.22074 0.0
C119 C 0.39279 0.07525 0.23095 0.0
C120 C 0.37424 0.10181 0.26292 0.0
C121 C 0.42144 0.10985 0.23425 0.0
O122 O 0.39163 0.0835 0.24211 0.0
O123 O 0.39512 0.08011 0.21818 0.0
O124 O 0.38825 0.126 0.24399 0.0
O125 O 0.38728 0.11085 0.22567 0.0
Co126 Co 0.88945 0.39563 0.25208 0.0
O127 O 0.86981 0.39549 0.24569 0.0
O128 O 0.88868 0.39681 0.23118 0.0
C129 C 0.8875 0.37731 0.26797 0.0
O130 O 0.91115 0.39539 0.25461 0.0
Co131 Co 0.89722 0.40286 0.28404 0.0
O132 O 0.91662 0.39624 0.27832 0.0
C133 C 0.8886 0.42621 0.26441 0.0
C134 C 0.87479 0.39636 0.23259 0.0
C135 C 0.92025 0.39473 0.26509 0.0
O136 O 0.88923 0.41738 0.25364 0.0
O137 O 0.89015 0.42225 0.27759 0.0
O138 O 0.88905 0.37462 0.25424 0.0
O139 O 0.88566 0.39073 0.27135 0.0
Co140 Co 0.60778 0.89744 0.2446 0.0
O141 O 0.62749 0.89843 0.25059 0.0
O142 O 0.60885 0.90007 0.26536 0.0
C143 C 0.60981 0.878 0.23006 0.0
O144 O 0.58599 0.89635 0.24228 0.0
Co145 Co 0.60001 0.90234 0.21235 0.0
O146 O 0.58089 0.89501 0.21851 0.0
C147 C 0.60767 0.9274 0.23061 0.0
C148 C 0.62272 0.89998 0.26368 0.0
C149 C 0.57707 0.89447 0.23175 0.0
O150 O 0.60786 0.91904 0.24171 0.0
O151 O 0.60568 0.92273 0.21768 0.0
O152 O 0.60837 0.87639 0.24395 0.0
O153 O 0.6115 0.89119 0.22566 0.0
Co154 Co 0.10997 0.60314 0.25452 0.0
O155 O 0.1296 0.60373 0.2481 0.0
O156 O 0.11068 0.60224 0.23363 0.0
C157 C 0.11165 0.6213 0.27065 0.0
O158 O 0.08828 0.60299 0.25692 0.0
Co159 Co 0.10208 0.59542 0.28615 0.0
O160 O 0.08251 0.60155 0.28048 0.0
C161 C 0.1106 0.57222 0.26612 0.0
C162 C 0.12456 0.60295 0.235 0.0
C163 C 0.07904 0.60326 0.26725 0.0
O164 O 0.11056 0.58135 0.25562 0.0
O165 O 0.10859 0.5759 0.27933 0.0
O166 O 0.10989 0.62408 0.25699 0.0
O167 O 0.11375 0.60792 0.27396 0.0
Co168 Co 0.39072 0.89262 0.75097 0.0
O169 O 0.37118 0.89182 0.74428 0.0
O170 O 0.39023 0.89391 0.73007 0.0
C171 C 0.38916 0.87413 0.7667 0.0
O172 O 0.41239 0.89312 0.75384 0.0
Co173 Co 0.39779 0.89983 0.78313 0.0
O174 O 0.41755 0.89419 0.77762 0.0
C175 C 0.38841 0.92296 0.76356 0.0
C176 C 0.37634 0.89288 0.73126 0.0
C177 C 0.42138 0.89284 0.76443 0.0
O178 O 0.38971 0.91435 0.75267 0.0
O179 O 0.38983 0.91886 0.77671 0.0
O180 O 0.39095 0.8716 0.75297 0.0
O181 O 0.38686 0.88745 0.77014 0.0
Co182 Co 0.10774 0.39669 0.74361 0.0
O183 O 0.12765 0.39689 0.7489 0.0
O184 O 0.1096 0.39854 0.7644 0.0
C185 C 0.10867 0.37772 0.72837 0.0
O186 O 0.08591 0.39631 0.74204 0.0
Co187 Co 0.09923 0.4032 0.71188 0.0
O188 O 0.07995 0.39672 0.71844 0.0
C189 C 0.10806 0.42725 0.73088 0.0
C190 C 0.12338 0.3981 0.7622 0.0
C191 C 0.07656 0.39553 0.73176 0.0
O192 O 0.10827 0.41837 0.74157 0.0
O193 O 0.10573 0.42321 0.71781 0.0
O194 O 0.1077 0.3757 0.74225 0.0
O195 O 0.11064 0.391 0.72433 0.0
Co196 Co 0.60914 0.10419 0.75336 0.0
O197 O 0.62903 0.10412 0.74771 0.0
O198 O 0.61064 0.10249 0.73256 0.0
C199 C 0.61071 0.12288 0.76901 0.0
O200 O 0.58731 0.10462 0.75491 0.0
Co201 Co 0.59973 0.09799 0.78501 0.0
O202 O 0.58123 0.10606 0.7784 0.0
C203 C 0.60797 0.07373 0.76608 0.0
C204 C 0.62446 0.10296 0.73446 0.0
C205 C 0.57801 0.10665 0.765 0.0
O206 O 0.60925 0.08246 0.75532 0.0
O207 O 0.60498 0.07786 0.77896 0.0
O208 O 0.60967 0.12525 0.75518 0.0
O209 O 0.6122 0.10951 0.77272 0.0
Co210 Co 0.89238 0.60499 0.74611 0.0
O211 O 0.87242 0.60472 0.75121 0.0
O212 O 0.89041 0.60275 0.76678 0.0
C213 C 0.89151 0.62417 0.73126 0.0
O214 O 0.91417 0.60545 0.74495 0.0
Co215 Co 0.90188 0.59939 0.71449 0.0
O216 O 0.92096 0.60604 0.72162 0.0
C217 C 0.89175 0.575 0.73233 0.0
C218 C 0.87664 0.60327 0.76452 0.0
C219 C 0.92385 0.60682 0.7351 0.0
O220 O 0.89182 0.58336 0.74348 0.0
O221 O 0.89429 0.57956 0.71949 0.0
O222 O 0.89239 0.62603 0.74518 0.0
O223 O 0.88975 0.61094 0.72693 0.0
Co224 Co 0.24682 0.39031 0.10646 0.0
O225 O 0.25384 0.37081 0.10622 0.0
O226 O 0.26745 0.39054 0.10439 0.0
C227 C 0.23185 0.38759 0.12541 0.0
O228 O 0.24372 0.41209 0.10694 0.0
Co229 Co 0.21467 0.39723 0.10116 0.0
O230 O 0.22016 0.41678 0.10833 0.0
C231 C 0.23322 0.3893 0.0765 0.0
C232 C 0.26659 0.37649 0.10489 0.0
C233 C 0.23325 0.42089 0.10875 0.0
O234 O 0.24436 0.38972 0.08476 0.0
O235 O 0.22042 0.39097 0.08121 0.0
O236 O 0.24548 0.38988 0.12759 0.0
O237 O 0.22806 0.38572 0.11209 0.0
Co238 Co 0.25514 0.60288 0.89335 0.0
O239 O 0.24931 0.60308 0.8734 0.0
O240 O 0.23443 0.60205 0.89207 0.0
C241 C 0.27142 0.62097 0.89177 0.0
O242 O 0.25722 0.60306 0.91534 0.0
Co243 Co 0.28644 0.59506 0.90147 0.0
O244 O 0.28058 0.60128 0.92113 0.0
C245 C 0.2663 0.57197 0.89246 0.0
C246 C 0.2362 0.60245 0.8781 0.0
C247 C 0.26751 0.60312 0.92467 0.0
O248 O 0.25599 0.5811 0.89276 0.0
O249 O 0.27945 0.57561 0.8945 0.0
O250 O 0.25787 0.62384 0.89321 0.0
O251 O 0.27443 0.60748 0.8899 0.0
Co252 Co 0.39138 0.25169 0.89125 0.0
O253 O 0.37176 0.25764 0.89033 0.0
O254 O 0.39034 0.27244 0.89393 0.0
C255 C 0.39055 0.23701 0.87178 0.0
O256 O 0.41307 0.2495 0.89214 0.0
Co257 Co 0.39886 0.21943 0.89646 0.0
O258 O 0.41839 0.22588 0.89054 0.0
C259 C 0.38867 0.23734 0.92075 0.0
C260 C 0.37653 0.27073 0.89246 0.0
C261 C 0.42213 0.2392 0.89061 0.0
O262 O 0.38966 0.24871 0.91279 0.0
O263 O 0.39071 0.22452 0.91591 0.0
O264 O 0.39236 0.25088 0.87011 0.0
O265 O 0.38799 0.2328 0.88484 0.0
Co266 Co 0.75175 0.39522 0.89285 0.0
O267 O 0.75879 0.39435 0.87334 0.0
O268 O 0.77249 0.39682 0.89283 0.0
C269 C 0.73622 0.37647 0.89098 0.0
O270 O 0.74838 0.39576 0.91466 0.0
Co271 Co 0.71972 0.40189 0.89895 0.0
O272 O 0.7246 0.39523 0.91874 0.0
C273 C 0.73932 0.42548 0.89003 0.0
C274 C 0.77157 0.39562 0.87882 0.0
C275 C 0.73752 0.39449 0.92321 0.0
O276 O 0.75007 0.41695 0.89136 0.0
O277 O 0.72628 0.42123 0.89148 0.0
O278 O 0.74975 0.37415 0.89335 0.0
O279 O 0.73289 0.38974 0.88843 0.0
Co280 Co 0.61311 0.75207 0.89316 0.0
O281 O 0.63252 0.74533 0.89409 0.0
O282 O 0.61311 0.73121 0.89424 0.0
C283 C 0.61629 0.76799 0.87506 0.0
O284 O 0.59154 0.75487 0.89177 0.0
Co285 Co 0.6055 0.78405 0.89974 0.0
O286 O 0.58643 0.77856 0.89169 0.0
C287 C 0.61249 0.76431 0.92377 0.0
C288 C 0.62703 0.73235 0.8946 0.0
C289 C 0.58267 0.76533 0.89027 0.0
O290 O 0.61252 0.75352 0.91493 0.0
O291 O 0.61099 0.77743 0.91965 0.0
O292 O 0.61445 0.75431 0.8722 0.0
O293 O 0.6176 0.7713 0.88859 0.0
Co294 Co 0.75066 0.60888 0.10705 0.0
O295 O 0.74352 0.62829 0.10706 0.0
O296 O 0.72996 0.60847 0.10565 0.0
C297 C 0.76624 0.61194 0.12542 0.0
O298 O 0.75411 0.58715 0.10734 0.0
Co299 Co 0.78272 0.60252 0.10057 0.0
O300 O 0.77784 0.58311 0.10848 0.0
C301 C 0.76321 0.61076 0.07682 0.0
C302 C 0.73078 0.62254 0.10603 0.0
C303 C 0.76485 0.5787 0.10917 0.0
O304 O 0.75236 0.60945 0.08533 0.0
O305 O 0.77622 0.60957 0.08111 0.0
O306 O 0.75275 0.6094 0.12812 0.0
O307 O 0.76949 0.61379 0.11199 0.0
Co308 Co 0.39231 0.75114 0.10417 0.0
O309 O 0.37224 0.74642 0.1029 0.0
O310 O 0.38978 0.7305 0.10148 0.0
C311 C 0.39093 0.76579 0.1236 0.0
O312 O 0.4141 0.75203 0.10564 0.0
Co313 Co 0.40259 0.78281 0.0994 0.0
O314 O 0.42081 0.77542 0.10757 0.0
C315 C 0.39387 0.76518 0.07431 0.0
C316 C 0.37607 0.73304 0.10145 0.0
C317 C 0.42362 0.76195 0.1081 0.0
O318 O 0.39312 0.75403 0.08258 0.0
O319 O 0.39629 0.77801 0.07908 0.0
O320 O 0.39122 0.75183 0.12522 0.0
O321 O 0.38987 0.77027 0.1104 0.0
Co322 Co 0.60668 0.24609 0.10438 0.0
O323 O 0.6266 0.25169 0.10435 0.0
O324 O 0.60849 0.2669 0.10265 0.0
C325 C 0.60789 0.23074 0.12321 0.0
O326 O 0.58483 0.24433 0.10471 0.0
Co327 Co 0.59757 0.21432 0.09804 0.0
O328 O 0.57905 0.2207 0.10637 0.0
C329 C 0.60639 0.23315 0.07386 0.0
C330 C 0.62229 0.26494 0.10321 0.0
C331 C 0.57567 0.23402 0.1069 0.0
O332 O 0.60704 0.24397 0.08266 0.0
O333 O 0.60369 0.22018 0.078 0.0
O334 O 0.60686 0.24458 0.12543 0.0
O335 O 0.60961 0.22685 0.10987 0.0
Co336 Co 0.89544 0.75321 0.60722 0.0
O337 O 0.87609 0.75999 0.60689 0.0
O338 O 0.89542 0.77409 0.60529 0.0
C339 C 0.89261 0.73805 0.62608 0.0
O340 O 0.9171 0.74996 0.60773 0.0
Co341 Co 0.90155 0.72062 0.60147 0.0
O342 O 0.92085 0.72599 0.60888 0.0
C343 C 0.89388 0.73969 0.57716 0.0
C344 C 0.88148 0.77292 0.60556 0.0
C345 C 0.92541 0.73904 0.60947 0.0
O346 O 0.89491 0.75084 0.58549 0.0
O347 O 0.89508 0.72669 0.58173 0.0
O348 O 0.89491 0.75177 0.62838 0.0
O349 O 0.89077 0.73435 0.61273 0.0
Co350 Co 0.24813 0.89446 0.60754 0.0
O351 O 0.25499 0.89305 0.6271 0.0
O352 O 0.26891 0.89484 0.60776 0.0
C353 C 0.23153 0.87657 0.60888 0.0
O354 O 0.24495 0.89547 0.58574 0.0
Co355 Co 0.21667 0.90332 0.60154 0.0
O356 O 0.22139 0.89804 0.58127 0.0
C357 C 0.23773 0.92556 0.61052 0.0
C358 C 0.26786 0.8937 0.62176 0.0
C359 C 0.23422 0.89608 0.57697 0.0
O360 O 0.24781 0.91624 0.60924 0.0
O361 O 0.22442 0.92226 0.60912 0.0
O362 O 0.24493 0.87356 0.60664 0.0
O363 O 0.22891 0.88998 0.61174 0.0
Co364 Co 0.1054 0.24519 0.60703 0.0
O365 O 0.12482 0.23877 0.60887 0.0
O366 O 0.10591 0.22424 0.60626 0.0
C367 C 0.1062 0.26158 0.62514 0.0
O368 O 0.08379 0.248 0.60536 0.0
Co369 Co 0.09963 0.2772 0.59849 0.0
O370 O 0.07936 0.27171 0.6024 0.0
C371 C 0.11009 0.25676 0.5766 0.0
C372 C 0.11975 0.22567 0.60773 0.0
C373 C 0.0751 0.25867 0.60419 0.0
O374 O 0.10768 0.24619 0.58533 0.0
O375 O 0.10896 0.27006 0.58031 0.0
O376 O 0.10406 0.24796 0.62802 0.0
O377 O 0.10923 0.26449 0.61184 0.0
Co378 Co 0.75075 0.10325 0.60755 0.0
O379 O 0.74536 0.10285 0.62764 0.0
O380 O 0.73006 0.10246 0.60928 0.0
C381 C 0.76728 0.12116 0.60944 0.0
O382 O 0.75226 0.10423 0.58549 0.0
Co383 Co 0.78173 0.09573 0.59799 0.0
O384 O 0.77565 0.10467 0.57951 0.0
C385 C 0.7618 0.0723 0.6067 0.0
C386 C 0.73214 0.10242 0.62322 0.0
C387 C 0.76245 0.10605 0.57621 0.0
O388 O 0.75148 0.08143 0.60724 0.0
O389 O 0.77484 0.07603 0.60421 0.0
O390 O 0.75372 0.1242 0.60852 0.0
O391 O 0.77018 0.10759 0.61062 0.0
Co392 Co 0.89759 0.24567 0.38887 0.0
O393 O 0.89862 0.25125 0.36883 0.0
O394 O 0.89897 0.26648 0.38741 0.0
C395 C 0.87933 0.22969 0.38656 0.0
O396 O 0.89615 0.24408 0.41085 0.0
Co397 Co 0.9038 0.2142 0.39841 0.0
O398 O 0.8954 0.22059 0.41706 0.0
C399 C 0.92786 0.23357 0.39041 0.0
C400 C 0.89926 0.26453 0.37346 0.0
C401 C 0.89426 0.23396 0.42024 0.0
O402 O 0.91913 0.24421 0.38953 0.0
O403 O 0.92376 0.22054 0.39292 0.0
O404 O 0.8768 0.24345 0.38757 0.0
O405 O 0.89268 0.22622 0.38554 0.0
Co406 Co 0.74485 0.88835 0.39294 0.0
O407 O 0.75172 0.86885 0.39194 0.0
O408 O 0.76556 0.88839 0.39415 0.0
C409 C 0.72909 0.88661 0.37453 0.0
O410 O 0.74175 0.91011 0.39361 0.0
Co411 Co 0.71293 0.89469 0.40012 0.0
O412 O 0.7181 0.91467 0.39404 0.0
C413 C 0.73257 0.88538 0.42328 0.0
C414 C 0.76455 0.87438 0.39305 0.0
C415 C 0.73113 0.91889 0.39296 0.0
O416 O 0.74335 0.88691 0.41469 0.0
O417 O 0.71953 0.88671 0.41914 0.0
O418 O 0.74264 0.88889 0.3719 0.0
O419 O 0.72588 0.88401 0.38786 0.0
Co420 Co 0.10196 0.75479 0.39141 0.0
O421 O 0.10341 0.74936 0.37135 0.0
O422 O 0.09947 0.73407 0.38938 0.0
C423 C 0.12133 0.76958 0.39179 0.0
O424 O 0.10055 0.75619 0.4134 0.0
Co425 Co 0.09636 0.78655 0.40041 0.0
O426 O 0.10039 0.77957 0.42024 0.0
C427 C 0.07237 0.7686 0.38948 0.0
C428 C 0.10135 0.73611 0.37557 0.0
C429 C 0.1008 0.76612 0.42322 0.0
O430 O 0.08064 0.75754 0.38921 0.0
O431 O 0.07678 0.78136 0.39276 0.0
O432 O 0.1228 0.75567 0.39303 0.0
O433 O 0.10847 0.77392 0.38904 0.0
Co434 Co 0.25151 0.10773 0.39222 0.0
O435 O 0.24497 0.12734 0.39196 0.0
O436 O 0.23081 0.10798 0.39356 0.0
C437 C 0.26705 0.10972 0.3737 0.0
O438 O 0.25437 0.08593 0.39217 0.0
Co439 Co 0.28343 0.10097 0.39902 0.0
O440 O 0.27799 0.08123 0.39226 0.0
C441 C 0.26401 0.10969 0.42258 0.0
C442 C 0.23206 0.122 0.39293 0.0
C443 C 0.26493 0.07712 0.39115 0.0
O444 O 0.25321 0.10854 0.41396 0.0
O445 O 0.27703 0.10836 0.4184 0.0
O446 O 0.25344 0.10772 0.37118 0.0
O447 O 0.27049 0.11196 0.38707 0.0
Co448 Co 0.60254 0.8903 0.74565 0.0
O449 O 0.60184 0.87032 0.75131 0.0
O450 O 0.60075 0.88895 0.76644 0.0
C451 C 0.6213 0.8888 0.73048 0.0
O452 O 0.60352 0.91223 0.7438 0.0
Co453 Co 0.59608 0.89854 0.71383 0.0
O454 O 0.60103 0.91845 0.72035 0.0
C455 C 0.57226 0.89007 0.73283 0.0
C456 C 0.60085 0.87499 0.76453 0.0
C457 C 0.60323 0.92168 0.7336 0.0
O458 O 0.58102 0.89029 0.74359 0.0
O459 O 0.57633 0.8918 0.71971 0.0
O460 O 0.62331 0.88983 0.74436 0.0
O461 O 0.6081 0.88698 0.72638 0.0
Co462 Co 0.10405 0.60964 0.75787 0.0
O463 O 0.1039 0.62971 0.75232 0.0
O464 O 0.10276 0.61118 0.73708 0.0
C465 C 0.12232 0.61129 0.77373 0.0
O466 O 0.10457 0.58767 0.7593 0.0
Co467 Co 0.09735 0.60003 0.78932 0.0
O468 O 0.10432 0.58091 0.78264 0.0
C469 C 0.07376 0.60915 0.77027 0.0
C470 C 0.1031 0.62512 0.73904 0.0
C471 C 0.10558 0.57797 0.76921 0.0
O472 O 0.08251 0.60954 0.75951 0.0
O473 O 0.07779 0.60669 0.78329 0.0
O474 O 0.12486 0.61031 0.75993 0.0
O475 O 0.10901 0.61269 0.77731 0.0
Co476 Co 0.39591 0.1064 0.74904 0.0
O477 O 0.37611 0.10654 0.74355 0.0
O478 O 0.39422 0.10414 0.72823 0.0
C479 C 0.39485 0.12558 0.76401 0.0
O480 O 0.41772 0.1065 0.751 0.0
Co481 Co 0.40389 0.10062 0.78113 0.0
O482 O 0.42298 0.10792 0.77475 0.0
C483 C 0.39407 0.07648 0.76267 0.0
C484 C 0.38043 0.10501 0.73031 0.0
C485 C 0.42671 0.1084 0.76147 0.0
O486 O 0.39494 0.08477 0.75154 0.0
O487 O 0.39598 0.08102 0.77565 0.0
O488 O 0.39628 0.12749 0.75015 0.0
O489 O 0.39274 0.11238 0.76809 0.0
Co490 Co 0.89424 0.39177 0.74997 0.0
O491 O 0.87492 0.39045 0.75706 0.0
O492 O 0.8941 0.39422 0.7708 0.0
C493 C 0.89299 0.3724 0.73512 0.0
O494 O 0.91583 0.39315 0.74654 0.0
Co495 Co 0.89995 0.39746 0.71727 0.0
O496 O 0.92011 0.39331 0.72256 0.0
C497 C 0.89027 0.42128 0.736 0.0
C498 C 0.88023 0.3926 0.76989 0.0
C499 C 0.92446 0.39288 0.73565 0.0
O500 O 0.89212 0.41332 0.74725 0.0
O501 O 0.89159 0.41652 0.72304 0.0
O502 O 0.89542 0.37064 0.74886 0.0
O503 O 0.89005 0.38542 0.73122 0.0
Co504 Co 0.60165 0.11024 0.25641 0.0
O505 O 0.60131 0.13053 0.25169 0.0
O506 O 0.60035 0.11261 0.23571 0.0
C507 C 0.61988 0.11136 0.27235 0.0
O508 O 0.60233 0.08824 0.25688 0.0
Co509 Co 0.595 0.09915 0.28735 0.0
O510 O 0.6027 0.0806 0.27993 0.0
C511 C 0.57133 0.10886 0.2687 0.0
C512 C 0.60051 0.12646 0.23823 0.0
C513 C 0.60379 0.07821 0.26638 0.0
O514 O 0.58012 0.10992 0.25802 0.0
O515 O 0.57531 0.10574 0.28158 0.0
O516 O 0.62245 0.11098 0.25852 0.0
O517 O 0.60655 0.1125 0.27597 0.0
Co518 Co 0.89841 0.60932 0.24558 0.0
O519 O 0.89926 0.6294 0.25081 0.0
O520 O 0.89972 0.61123 0.26641 0.0
C521 C 0.88011 0.61086 0.22988 0.0
O522 O 0.89712 0.58737 0.24401 0.0
Co523 Co 0.90537 0.60035 0.21402 0.0
O524 O 0.89822 0.5811 0.22047 0.0
C525 C 0.92891 0.60876 0.23352 0.0
C526 C 0.89986 0.62513 0.26416 0.0
C527 C 0.89633 0.5779 0.23376 0.0
O528 O 0.91995 0.60893 0.24409 0.0
O529 O 0.9251 0.60684 0.22033 0.0
O530 O 0.87768 0.61006 0.2437 0.0
O531 O 0.89343 0.61239 0.22617 0.0
Co532 Co 0.39434 0.89101 0.25142 0.0
O533 O 0.375 0.8915 0.25847 0.0
O534 O 0.39437 0.89401 0.27221 0.0
C535 C 0.39143 0.87139 0.23713 0.0
O536 O 0.41597 0.89048 0.24793 0.0
Co537 Co 0.40046 0.89509 0.21852 0.0
O538 O 0.41984 0.88834 0.22398 0.0
C539 C 0.39303 0.92033 0.23654 0.0
C540 C 0.38043 0.89346 0.27127 0.0
C541 C 0.42434 0.88839 0.23703 0.0
O542 O 0.39404 0.9126 0.24807 0.0
O543 O 0.39402 0.91505 0.22375 0.0
O544 O 0.39371 0.8698 0.25092 0.0
O545 O 0.38962 0.88451 0.23288 0.0
Co546 Co 0.10106 0.38928 0.24664 0.0
O547 O 0.09961 0.36948 0.25277 0.0
O548 O 0.09907 0.3885 0.26744 0.0
C549 C 0.1198 0.38659 0.23165 0.0
O550 O 0.10281 0.41114 0.24431 0.0
Co551 Co 0.09549 0.39735 0.21462 0.0
O552 O 0.10323 0.41658 0.22061 0.0
C553 C 0.07102 0.39008 0.23342 0.0
C554 C 0.09869 0.3745 0.26587 0.0
C555 C 0.10445 0.42023 0.23388 0.0
O556 O 0.0796 0.38997 0.24433 0.0
O557 O 0.07536 0.39169 0.22036 0.0
O558 O 0.12182 0.38798 0.2455 0.0
O559 O 0.10656 0.38529 0.22754 0.0
Co560 Co 0.75342 0.60921 0.89337 0.0
O561 O 0.7469 0.62885 0.89345 0.0
O562 O 0.73271 0.60945 0.89429 0.0
C563 C 0.76941 0.61155 0.8753 0.0
O564 O 0.7562 0.58739 0.89293 0.0
Co565 Co 0.78511 0.60216 0.90088 0.0
O566 O 0.77976 0.58249 0.89389 0.0
C567 C 0.76522 0.61086 0.92401 0.0
C568 C 0.73398 0.62348 0.89417 0.0
C569 C 0.76672 0.57849 0.89225 0.0
O570 O 0.75463 0.60964 0.91513 0.0
O571 O 0.77833 0.60955 0.92013 0.0
O572 O 0.75586 0.60968 0.87238 0.0
O573 O 0.77252 0.61346 0.8888 0.0
Co574 Co 0.74693 0.39496 0.10772 0.0
O575 O 0.753 0.39515 0.12763 0.0
O576 O 0.76765 0.3955 0.10876 0.0
C577 C 0.7303 0.37719 0.10982 0.0
O578 O 0.74477 0.39416 0.08572 0.0
Co579 Co 0.7158 0.40283 0.09904 0.0
O580 O 0.7213 0.39433 0.08014 0.0
C581 C 0.73622 0.42604 0.10732 0.0
C582 C 0.76607 0.39546 0.12275 0.0
C583 C 0.7344 0.39276 0.07656 0.0
O584 O 0.74641 0.41678 0.10779 0.0
O585 O 0.7231 0.42252 0.10489 0.0
O586 O 0.74379 0.37404 0.10846 0.0
O587 O 0.72753 0.39078 0.11129 0.0
Co588 Co 0.60468 0.74651 0.10751 0.0
O589 O 0.6244 0.74077 0.10661 0.0
O590 O 0.60576 0.7257 0.10575 0.0
C591 C 0.60727 0.76216 0.12613 0.0
O592 O 0.58293 0.7483 0.10876 0.0
Co593 Co 0.59591 0.77837 0.10189 0.0
O594 O 0.57736 0.77186 0.1103 0.0
C595 C 0.60421 0.75967 0.07737 0.0
C596 C 0.61962 0.72755 0.10562 0.0
C597 C 0.57389 0.7585 0.11101 0.0
O598 O 0.60427 0.74856 0.08575 0.0
O599 O 0.60221 0.77258 0.08197 0.0
O600 O 0.60588 0.74837 0.12862 0.0
O601 O 0.60833 0.76575 0.11269 0.0
Co602 Co 0.25086 0.60439 0.10879 0.0
O603 O 0.24472 0.60472 0.12863 0.0
O604 O 0.23011 0.60322 0.10975 0.0
C605 C 0.26685 0.62278 0.11046 0.0
O606 O 0.25334 0.60439 0.08682 0.0
Co607 Co 0.28255 0.59716 0.10134 0.0
O608 O 0.27693 0.60366 0.08173 0.0
C609 C 0.26262 0.57371 0.10988 0.0
C610 C 0.23168 0.60384 0.12374 0.0
C611 C 0.26389 0.60498 0.07781 0.0
O612 O 0.2521 0.58261 0.10947 0.0
O613 O 0.27572 0.57764 0.10807 0.0
O614 O 0.25327 0.62542 0.10886 0.0
O615 O 0.27 0.60938 0.11252 0.0
Co616 Co 0.3926 0.25234 0.10503 0.0
O617 O 0.3731 0.25869 0.10524 0.0
O618 O 0.39203 0.27322 0.10301 0.0
C619 C 0.39053 0.23729 0.12408 0.0
O620 O 0.41434 0.24951 0.10506 0.0
Co621 Co 0.39911 0.21984 0.0993 0.0
O622 O 0.41833 0.22559 0.10674 0.0
C623 C 0.38995 0.2385 0.07525 0.0
C624 C 0.37814 0.27175 0.10385 0.0
C625 C 0.42274 0.23871 0.10709 0.0
O626 O 0.39159 0.24978 0.08333 0.0
O627 O 0.39121 0.22556 0.07998 0.0
O628 O 0.39261 0.25106 0.12622 0.0
O629 O 0.38846 0.23345 0.11081 0.0
Co630 Co 0.24507 0.38933 0.89265 0.0
O631 O 0.2517 0.3697 0.89233 0.0
O632 O 0.26567 0.38915 0.89482 0.0
C633 C 0.22998 0.38736 0.87369 0.0
O634 O 0.24242 0.41116 0.89274 0.0
Co635 Co 0.21313 0.39676 0.89831 0.0
O636 O 0.21896 0.41629 0.89144 0.0
C637 C 0.23165 0.38805 0.92267 0.0
C638 C 0.26452 0.37513 0.89397 0.0
C639 C 0.23212 0.42016 0.89107 0.0
O640 O 0.24269 0.38836 0.91432 0.0
O641 O 0.21884 0.39009 0.91811 0.0
O642 O 0.24365 0.3894 0.87152 0.0
O643 O 0.22622 0.38524 0.88695 0.0
Co644 Co 0.60362 0.25546 0.89046 0.0
O645 O 0.60313 0.25024 0.87032 0.0
O646 O 0.60122 0.23473 0.88848 0.0
C647 C 0.62277 0.27041 0.88919 0.0
O648 O 0.60429 0.25678 0.9125 0.0
Co649 Co 0.59857 0.28714 0.90012 0.0
O650 O 0.60589 0.2802 0.91902 0.0
C651 C 0.57388 0.26898 0.89125 0.0
C652 C 0.60166 0.23693 0.87458 0.0
C653 C 0.60626 0.26677 0.92209 0.0
O654 O 0.5822 0.25801 0.89037 0.0
O655 O 0.57846 0.28181 0.89406 0.0
O656 O 0.62449 0.25651 0.89007 0.0
O657 O 0.60968 0.27465 0.88764 0.0
Co658 Co 0.40151 0.74523 0.89053 0.0
O659 O 0.40206 0.75015 0.87035 0.0
O660 O 0.40294 0.76601 0.88837 0.0
C661 C 0.38313 0.7293 0.88912 0.0
O662 O 0.40054 0.74421 0.91255 0.0
Co663 Co 0.40812 0.71394 0.90038 0.0
O664 O 0.40128 0.72091 0.91946 0.0
C665 C 0.43179 0.73308 0.89108 0.0
C666 C 0.40284 0.76357 0.87449 0.0
C667 C 0.39969 0.7343 0.92231 0.0
O668 O 0.42306 0.74376 0.89077 0.0
O669 O 0.42772 0.72003 0.89352 0.0
O670 O 0.3807 0.7431 0.88979 0.0
O671 O 0.39644 0.72574 0.88781 0.0
H672 H 0.10319 0.38089 0.29448 0.0
H673 H 0.1038 0.36378 0.31473 0.0
H674 H 0.09282 0.32877 0.28562 0.0
H675 H 0.09231 0.34571 0.26536 0.0
H676 H 0.07795 0.32764 0.31232 0.0
H677 H 0.12629 0.33345 0.29387 0.0
H678 H 0.14789 0.34746 0.28696 0.0
H679 H 0.15191 0.36356 0.33045 0.0
H680 H 0.13018 0.34979 0.33757 0.0
H681 H 0.10209 0.26472 0.3478 0.0
H682 H 0.09828 0.28449 0.3307 0.0
H683 H 0.11255 0.31537 0.36291 0.0
H684 H 0.11636 0.29566 0.38008 0.0
H685 H 0.12491 0.32022 0.33642 0.0
H686 H 0.07775 0.31407 0.35556 0.0
H687 H 0.05595 0.30071 0.36305 0.0
H688 H 0.04964 0.28572 0.31944 0.0
H689 H 0.07138 0.29908 0.31166 0.0
C690 C 0.10075 0.36957 0.29244 0.0
C691 C 0.09781 0.3646 0.27834 0.0
C692 C 0.10113 0.35983 0.30399 0.0
C693 C 0.09844 0.34503 0.30161 0.0
C694 C 0.09491 0.34016 0.28766 0.0
C695 C 0.0947 0.34984 0.2761 0.0
C696 C 0.10012 0.33442 0.31343 0.0
C697 C 0.08822 0.32594 0.31753 0.0
C698 C 0.11345 0.33249 0.32046 0.0
C699 C 0.12652 0.34074 0.3162 0.0
C700 C 0.1317 0.34008 0.30192 0.0
C701 C 0.14398 0.34796 0.29798 0.0
C702 C 0.15124 0.35643 0.30825 0.0
C703 C 0.14625 0.35702 0.3225 0.0
C704 C 0.13396 0.34918 0.3265 0.0
C705 C 0.10444 0.27571 0.35122 0.0
C706 C 0.10953 0.27866 0.36525 0.0
C707 C 0.10217 0.287 0.34149 0.0
C708 C 0.105 0.30139 0.34561 0.0
C709 C 0.11026 0.30434 0.35955 0.0
C710 C 0.11243 0.29307 0.36933 0.0
C711 C 0.10278 0.31331 0.33521 0.0
C712 C 0.11458 0.32202 0.33134 0.0
C713 C 0.08935 0.31552 0.32848 0.0
C714 C 0.07627 0.30746 0.33306 0.0
C715 C 0.07177 0.30784 0.34759 0.0
C716 C 0.05942 0.30029 0.35188 0.0
C717 C 0.05148 0.29227 0.34176 0.0
C718 C 0.05582 0.2919 0.32728 0.0
C719 C 0.06813 0.29951 0.32291 0.0
H720 H 0.04193 0.2864 0.34512 0.0
H721 H 0.16075 0.36252 0.30517 0.0
H722 H 0.70486 0.10225 0.38268 0.0
H723 H 0.68513 0.10318 0.36516 0.0
H724 H 0.71552 0.10069 0.33005 0.0
H725 H 0.73523 0.09998 0.34742 0.0
H726 H 0.69669 0.12158 0.32537 0.0
H727 H 0.69454 0.07163 0.33936 0.0
H728 H 0.69292 0.05121 0.35644 0.0
H729 H 0.65202 0.06617 0.37128 0.0
H730 H 0.6535 0.08681 0.35442 0.0
H731 H 0.64852 0.10774 0.26756 0.0
H732 H 0.66749 0.10526 0.28567 0.0
H733 H 0.63617 0.1089 0.31982 0.0
H734 H 0.61711 0.11119 0.30176 0.0
H735 H 0.6551 0.08755 0.3253 0.0
H736 H 0.65739 0.13752 0.31108 0.0
H737 H 0.65913 0.15774 0.29379 0.0
H738 H 0.69999 0.14247 0.27919 0.0
H739 H 0.69841 0.12203 0.29627 0.0
C740 C 0.70731 0.10182 0.37123 0.0
C741 C 0.72159 0.10106 0.36643 0.0
C742 C 0.69603 0.1023 0.36123 0.0
C743 C 0.69885 0.10192 0.34629 0.0
C744 C 0.7131 0.10103 0.34152 0.0
C745 C 0.72435 0.10058 0.35147 0.0
C746 C 0.68705 0.10291 0.33557 0.0
C747 C 0.68769 0.11402 0.32525 0.0
C748 C 0.67514 0.09326 0.33562 0.0
C749 C 0.67421 0.08085 0.34574 0.0
C750 C 0.68526 0.07063 0.34635 0.0
C751 C 0.68435 0.05901 0.35598 0.0
C752 C 0.67239 0.05742 0.36497 0.0
C753 C 0.66129 0.06743 0.36432 0.0
C754 C 0.66215 0.07909 0.35473 0.0
C755 C 0.64567 0.10801 0.27892 0.0
C756 C 0.63135 0.10975 0.28325 0.0
C757 C 0.65652 0.10663 0.28926 0.0
C758 C 0.65325 0.10707 0.30409 0.0
C759 C 0.63892 0.10855 0.30843 0.0
C760 C 0.62806 0.10992 0.2981 0.0
C761 C 0.66481 0.10616 0.31508 0.0
C762 C 0.6641 0.0951 0.32545 0.0
C763 C 0.67669 0.11583 0.31507 0.0
C764 C 0.67772 0.12817 0.30486 0.0
C765 C 0.6667 0.13842 0.30411 0.0
C766 C 0.66767 0.14993 0.29436 0.0
C767 C 0.67965 0.15137 0.28537 0.0
C768 C 0.69071 0.14133 0.28615 0.0
C769 C 0.68979 0.12979 0.29587 0.0
H770 H 0.68037 0.16029 0.27783 0.0
H771 H 0.67171 0.04841 0.37241 0.0
H772 H 0.8939 0.73767 0.34601 0.0
H773 H 0.89651 0.71886 0.32748 0.0
H774 H 0.88856 0.68595 0.35963 0.0
H775 H 0.88617 0.70463 0.37819 0.0
H776 H 0.91065 0.67876 0.34266 0.0
H777 H 0.86251 0.69547 0.33573 0.0
H778 H 0.84376 0.71363 0.33167 0.0
H779 H 0.86343 0.72564 0.29137 0.0
H780 H 0.88242 0.70768 0.29528 0.0
H781 H 0.89679 0.62022 0.29328 0.0
H782 H 0.89559 0.63844 0.31258 0.0
H783 H 0.90263 0.67226 0.28117 0.0
H784 H 0.90354 0.65423 0.2619 0.0
H785 H 0.88085 0.6787 0.29813 0.0
H786 H 0.92904 0.66191 0.30507 0.0
H787 H 0.94773 0.6437 0.30917 0.0
H788 H 0.92793 0.63173 0.34942 0.0
H789 H 0.909 0.64974 0.34546 0.0
C790 C 0.89267 0.72643 0.3491 0.0
C791 C 0.88978 0.72262 0.36352 0.0
C792 C 0.89414 0.7157 0.33852 0.0
C793 C 0.8926 0.70101 0.34217 0.0
C794 C 0.8898 0.69721 0.35659 0.0
C795 C 0.88838 0.70791 0.36716 0.0
C796 C 0.89388 0.68957 0.33098 0.0
C797 C 0.90402 0.67864 0.333 0.0
C798 C 0.8854 0.68956 0.31828 0.0
C799 C 0.87396 0.70033 0.31587 0.0
C800 C 0.8629 0.70206 0.32606 0.0
C801 C 0.85222 0.7123 0.32377 0.0
C802 C 0.85242 0.72081 0.31129 0.0
C803 C 0.86329 0.71906 0.30104 0.0
C804 C 0.87401 0.70884 0.30328 0.0
C805 C 0.89821 0.63153 0.29054 0.0
C806 C 0.9002 0.6358 0.27609 0.0
C807 C 0.89756 0.64193 0.30157 0.0
C808 C 0.89908 0.65672 0.29831 0.0
C809 C 0.90137 0.66093 0.28392 0.0
C810 C 0.90192 0.65059 0.27292 0.0
C811 C 0.89771 0.66793 0.30973 0.0
C812 C 0.88751 0.67881 0.30778 0.0
C813 C 0.90613 0.66787 0.32248 0.0
C814 C 0.91752 0.65707 0.3249 0.0
C815 C 0.92861 0.65531 0.31474 0.0
C816 C 0.93926 0.64504 0.31705 0.0
C817 C 0.939 0.63653 0.32952 0.0
C818 C 0.92811 0.63831 0.33974 0.0
C819 C 0.91742 0.64855 0.33748 0.0
H820 H 0.94725 0.62859 0.33129 0.0
H821 H 0.84414 0.72873 0.30954 0.0
H822 H 0.35139 0.89105 0.27181 0.0
H823 H 0.33543 0.89368 0.29242 0.0
H824 H 0.37176 0.90208 0.32031 0.0
H825 H 0.388 0.8992 0.29955 0.0
H826 H 0.35228 0.88356 0.3328 0.0
H827 H 0.35076 0.92979 0.31044 0.0
H828 H 0.34877 0.94708 0.29028 0.0
H829 H 0.30604 0.93161 0.28133 0.0
H830 H 0.30784 0.91407 0.3013 0.0
H831 H 0.29878 0.90017 0.38691 0.0
H832 H 0.31985 0.90224 0.37106 0.0
H833 H 0.29287 0.89446 0.33379 0.0
H834 H 0.27191 0.89263 0.34941 0.0
H835 H 0.31087 0.91658 0.32906 0.0
H836 H 0.31426 0.86787 0.34871 0.0
H837 H 0.31635 0.85015 0.36851 0.0
H838 H 0.35565 0.87052 0.3825 0.0
H839 H 0.35369 0.88847 0.36288 0.0
C840 C 0.35605 0.89348 0.2823 0.0
C841 C 0.37097 0.895 0.28403 0.0
C842 C 0.34688 0.89505 0.29408 0.0
C843 C 0.35237 0.89835 0.30786 0.0
C844 C 0.3673 0.89963 0.30974 0.0
C845 C 0.37654 0.89801 0.29789 0.0
C846 C 0.34233 0.90024 0.32017 0.0
C847 C 0.3434 0.89101 0.33216 0.0
C848 C 0.33068 0.90989 0.31928 0.0
C849 C 0.32947 0.92056 0.30735 0.0
C850 C 0.34097 0.93002 0.30413 0.0
C851 C 0.33987 0.93987 0.29274 0.0
C852 C 0.32729 0.94043 0.28452 0.0
C853 C 0.31577 0.93117 0.28771 0.0
C854 C 0.31682 0.92128 0.29908 0.0
C855 C 0.29738 0.89889 0.37533 0.0
C856 C 0.28369 0.89622 0.36941 0.0
C857 C 0.30942 0.90004 0.3663 0.0
C858 C 0.30794 0.89844 0.35123 0.0
C859 C 0.29427 0.8958 0.34536 0.0
C860 C 0.28229 0.8947 0.35433 0.0
C861 C 0.32048 0.89948 0.34136 0.0
C862 C 0.3199 0.90933 0.32985 0.0
C863 C 0.33255 0.89041 0.34271 0.0
C864 C 0.33374 0.8796 0.35445 0.0
C865 C 0.32328 0.86863 0.35608 0.0
C866 C 0.32445 0.85854 0.36726 0.0
C867 C 0.3361 0.85924 0.37679 0.0
C868 C 0.34662 0.87001 0.37513 0.0
C869 C 0.34549 0.88014 0.36399 0.0
H870 H 0.33699 0.85142 0.38543 0.0
H871 H 0.32647 0.94806 0.2757 0.0
H872 H 0.1025 0.6546 0.74023 0.0
H873 H 0.10283 0.67156 0.72 0.0
H874 H 0.10343 0.63583 0.68984 0.0
H875 H 0.10321 0.61875 0.71008 0.0
H876 H 0.12324 0.65654 0.68302 0.0
H877 H 0.07322 0.65481 0.69439 0.0
H878 H 0.05192 0.65598 0.71014 0.0
H879 H 0.06225 0.70013 0.72092 0.0
H880 H 0.08374 0.69916 0.70538 0.0
H881 H 0.11089 0.6997 0.62075 0.0
H882 H 0.10864 0.68153 0.63983 0.0
H883 H 0.10667 0.71543 0.67198 0.0
H884 H 0.10867 0.73367 0.65291 0.0
H885 H 0.08681 0.69481 0.6771 0.0
H886 H 0.13738 0.69616 0.66666 0.0
H887 H 0.15881 0.69497 0.65108 0.0
H888 H 0.14746 0.6515 0.63867 0.0
H889 H 0.12585 0.65249 0.65404 0.0
C890 C 0.10264 0.65033 0.7293 0.0
C891 C 0.10282 0.63533 0.72675 0.0
C892 C 0.10276 0.66004 0.71774 0.0
C893 C 0.10302 0.65495 0.70341 0.0
C894 C 0.1032 0.63998 0.70082 0.0
C895 C 0.10304 0.63024 0.71239 0.0
C896 C 0.10351 0.66531 0.69118 0.0
C897 C 0.11515 0.66476 0.68157 0.0
C898 C 0.09312 0.67622 0.6895 0.0
C899 C 0.08017 0.67687 0.69882 0.0
C900 C 0.07101 0.66473 0.70021 0.0
C901 C 0.05889 0.66537 0.70908 0.0
C902 C 0.05575 0.67811 0.71655 0.0
C903 C 0.06471 0.69026 0.71513 0.0
C904 C 0.07685 0.68968 0.70628 0.0
C905 C 0.11 0.70329 0.63189 0.0
C906 C 0.11002 0.71811 0.63535 0.0
C907 C 0.10876 0.69289 0.64278 0.0
C908 C 0.10765 0.69712 0.65735 0.0
C909 C 0.10752 0.71192 0.66081 0.0
C910 C 0.10872 0.72233 0.64991 0.0
C911 C 0.1066 0.68612 0.669 0.0
C912 C 0.09486 0.68655 0.6785 0.0
C913 C 0.11691 0.6751 0.67059 0.0
C914 C 0.12992 0.67446 0.66138 0.0
C915 C 0.1394 0.68639 0.66052 0.0
C916 C 0.15159 0.68574 0.65175 0.0
C917 C 0.15448 0.67318 0.64386 0.0
C918 C 0.1452 0.66122 0.64477 0.0
C919 C 0.13298 0.66182 0.65352 0.0
H920 H 0.16392 0.6727 0.63707 0.0
H921 H 0.04636 0.67858 0.72341 0.0
H922 H 0.29547 0.12118 0.62117 0.0
H923 H 0.31564 0.11924 0.6379 0.0
H924 H 0.28813 0.09806 0.66904 0.0
H925 H 0.26775 0.10005 0.6523 0.0
H926 H 0.31876 0.13019 0.66576 0.0
H927 H 0.30954 0.07137 0.68506 0.0
H928 H 0.29822 0.04879 0.67606 0.0
H929 H 0.30605 0.06199 0.63221 0.0
H930 H 0.31768 0.08449 0.64094 0.0
H931 H 0.35264 0.11312 0.73155 0.0
H932 H 0.33505 0.11327 0.71202 0.0
H933 H 0.36646 0.09615 0.68255 0.0
H934 H 0.38442 0.0962 0.70214 0.0
H935 H 0.33605 0.08253 0.68275 0.0
H936 H 0.3622 0.12753 0.67725 0.0
H937 H 0.37323 0.15032 0.68601 0.0
H938 H 0.33214 0.1648 0.70078 0.0
H939 H 0.3209 0.14199 0.6923 0.0
C940 C 0.29368 0.11616 0.63161 0.0
C941 C 0.28005 0.11075 0.63546 0.0
C942 C 0.30521 0.11509 0.64114 0.0
C943 C 0.30338 0.10842 0.65462 0.0
C944 C 0.28975 0.10314 0.65861 0.0
C945 C 0.27813 0.10435 0.6491 0.0
C946 C 0.31579 0.10706 0.66447 0.0
C947 C 0.32256 0.11977 0.66944 0.0
C948 C 0.32086 0.09344 0.66904 0.0
C949 C 0.31435 0.07969 0.66367 0.0
C950 C 0.30894 0.06941 0.6735 0.0
C951 C 0.30246 0.05663 0.66845 0.0
C952 C 0.30138 0.05398 0.65358 0.0
C953 C 0.30686 0.06407 0.64373 0.0
C954 C 0.31339 0.07684 0.64873 0.0
C955 C 0.35585 0.10932 0.72095 0.0
C956 C 0.36993 0.10468 0.71835 0.0
C957 C 0.34576 0.10941 0.70982 0.0
C958 C 0.34949 0.10472 0.69592 0.0
C959 C 0.36343 0.09976 0.69327 0.0
C960 C 0.37366 0.09988 0.70441 0.0
C961 C 0.33881 0.10566 0.68416 0.0
C962 C 0.33231 0.09291 0.67892 0.0
C963 C 0.33403 0.11924 0.67922 0.0
C964 C 0.34074 0.133 0.68426 0.0
C965 C 0.35554 0.13552 0.68248 0.0
C966 C 0.36183 0.14845 0.68737 0.0
C967 C 0.3534 0.15899 0.69398 0.0
C968 C 0.33866 0.15662 0.69567 0.0
C969 C 0.33232 0.1437 0.69081 0.0
H970 H 0.35829 0.16899 0.69775 0.0
H971 H 0.29631 0.04411 0.64968 0.0
H972 H 0.90155 0.26048 0.64927 0.0
H973 H 0.90435 0.27747 0.66947 0.0
H974 H 0.89 0.31224 0.64215 0.0
H975 H 0.88761 0.29538 0.62182 0.0
H976 H 0.91186 0.32109 0.65828 0.0
H977 H 0.86746 0.29455 0.66708 0.0
H978 H 0.85281 0.27246 0.67085 0.0
H979 H 0.87845 0.26154 0.7078 0.0
H980 H 0.89336 0.28348 0.70414 0.0
H981 H 0.88693 0.3736 0.7064 0.0
H982 H 0.88925 0.35446 0.6884 0.0
H983 H 0.90464 0.32546 0.72132 0.0
H984 H 0.90205 0.34463 0.73957 0.0
H985 H 0.88526 0.31224 0.70399 0.0
H986 H 0.92779 0.34039 0.697 0.0
H987 H 0.94203 0.36278 0.6936 0.0
H988 H 0.92017 0.37078 0.65352 0.0
H989 H 0.90561 0.34857 0.6568 0.0
C990 C 0.89904 0.27176 0.64757 0.0
C991 C 0.89426 0.2766 0.63401 0.0
C992 C 0.9006 0.28145 0.65913 0.0
C993 C 0.89717 0.2961 0.6574 0.0
C994 C 0.89269 0.30099 0.64376 0.0
C995 C 0.89128 0.29134 0.63216 0.0
C996 C 0.89793 0.30636 0.6698 0.0
C997 C 0.90596 0.31921 0.66824 0.0
C998 C 0.89063 0.30368 0.683 0.0
C999 C 0.88161 0.29056 0.68525 0.0
C1000 C 0.87002 0.28738 0.67595 0.0
C1001 C 0.86167 0.2749 0.67808 0.0
C1002 C 0.86473 0.26558 0.68953 0.0
C1003 C 0.87611 0.26875 0.69892 0.0
C1004 C 0.88451 0.28121 0.69683 0.0
C1005 C 0.89083 0.36317 0.70984 0.0
C1006 C 0.89437 0.36062 0.72439 0.0
C1007 C 0.89222 0.35225 0.69951 0.0
C1008 C 0.89736 0.33861 0.70346 0.0
C1009 C 0.90073 0.33594 0.71803 0.0
C1010 C 0.89926 0.34689 0.72843 0.0
C1011 C 0.89887 0.32714 0.69231 0.0
C1012 C 0.89131 0.31405 0.69412 0.0
C1013 C 0.90662 0.32959 0.67935 0.0
C1014 C 0.91555 0.34284 0.67719 0.0
C1015 C 0.92596 0.34696 0.6875 0.0
C1016 C 0.93409 0.35962 0.68559 0.0
C1017 C 0.932 0.3682 0.67336 0.0
C1018 C 0.92178 0.36412 0.66299 0.0
C1019 C 0.9136 0.35148 0.66486 0.0
H1020 H 0.93829 0.37801 0.67191 0.0
H1021 H 0.85825 0.25592 0.69116 0.0
H1022 H 0.70586 0.88636 0.62382 0.0
H1023 H 0.68807 0.8887 0.64297 0.0
H1024 H 0.7217 0.8892 0.67507 0.0
H1025 H 0.73977 0.88718 0.6558 0.0
H1026 H 0.69745 0.86972 0.68065 0.0
H1027 H 0.7078 0.91901 0.67011 0.0
H1028 H 0.71207 0.94013 0.65437 0.0
H1029 H 0.66891 0.93676 0.63829 0.0
H1030 H 0.66445 0.91544 0.65375 0.0
H1031 H 0.64972 0.88927 0.73703 0.0
H1032 H 0.66997 0.89017 0.72029 0.0
H1033 H 0.6407 0.89151 0.68414 0.0
H1034 H 0.62027 0.89054 0.70089 0.0
H1035 H 0.66439 0.91144 0.68213 0.0
H1036 H 0.65511 0.86082 0.69151 0.0
H1037 H 0.65136 0.83941 0.70698 0.0
H1038 H 0.6933 0.84554 0.72547 0.0
H1039 H 0.69721 0.86714 0.71025 0.0
C1040 C 0.70953 0.88701 0.63493 0.0
C1041 C 0.72423 0.88666 0.63832 0.0
C1042 C 0.69934 0.88837 0.64585 0.0
C1043 C 0.70362 0.88924 0.66037 0.0
C1044 C 0.71825 0.8886 0.66388 0.0
C1045 C 0.72852 0.88746 0.65289 0.0
C1046 C 0.69261 0.8906 0.67175 0.0
C1047 C 0.6904 0.87896 0.6812 0.0
C1048 C 0.6833 0.90257 0.6722 0.0
C1049 C 0.68583 0.91553 0.66301 0.0
C1050 C 0.69925 0.92269 0.66313 0.0
C1051 C 0.7017 0.93471 0.65427 0.0
C1052 C 0.69078 0.93976 0.64531 0.0
C1053 C 0.67737 0.93282 0.64523 0.0
C1054 C 0.67486 0.92078 0.65406 0.0
C1055 C 0.64757 0.88981 0.72552 0.0
C1056 C 0.63341 0.88974 0.72024 0.0
C1057 C 0.65916 0.89032 0.71599 0.0
C1058 C 0.65681 0.89083 0.70101 0.0
C1059 C 0.6427 0.89114 0.69569 0.0
C1060 C 0.63106 0.8905 0.70524 0.0
C1061 C 0.66912 0.89046 0.69092 0.0
C1062 C 0.67155 0.90228 0.6817 0.0
C1063 C 0.6787 0.87869 0.69073 0.0
C1064 C 0.67638 0.86569 0.69986 0.0
C1065 C 0.66348 0.85769 0.69897 0.0
C1066 C 0.66134 0.8455 0.70767 0.0
C1067 C 0.67207 0.84114 0.71723 0.0
C1068 C 0.68498 0.84895 0.71808 0.0
C1069 C 0.68717 0.86115 0.70941 0.0
H1070 H 0.67039 0.8317 0.72396 0.0
H1071 H 0.69271 0.94906 0.63845 0.0
H1072 H 0.37871 0.10391 0.29216 0.0
H1073 H 0.36045 0.10357 0.31122 0.0
H1074 H 0.32753 0.09593 0.27911 0.0
H1075 H 0.34562 0.09657 0.26005 0.0
H1076 H 0.32013 0.11713 0.29648 0.0
H1077 H 0.33806 0.0692 0.30262 0.0
H1078 H 0.3565 0.05064 0.30625 0.0
H1079 H 0.36826 0.0701 0.34691 0.0
H1080 H 0.35 0.08889 0.34344 0.0
H1081 H 0.26287 0.10298 0.34518 0.0
H1082 H 0.28121 0.1001 0.32649 0.0
H1083 H 0.31427 0.10999 0.35785 0.0
H1084 H 0.29602 0.1127 0.37662 0.0
H1085 H 0.32143 0.08709 0.34087 0.0
H1086 H 0.30359 0.13538 0.33403 0.0
H1087 H 0.2849 0.15364 0.33015 0.0
H1088 H 0.27269 0.13287 0.29027 0.0
H1089 H 0.29119 0.11437 0.29401 0.0
C1090 C 0.3676 0.102 0.28921 0.0
C1091 C 0.36358 0.10034 0.27463 0.0
C1092 C 0.35718 0.10176 0.3001 0.0
C1093 C 0.34263 0.09966 0.29658 0.0
C1094 C 0.33868 0.09762 0.28206 0.0
C1095 C 0.34905 0.09796 0.27119 0.0
C1096 C 0.33139 0.10041 0.30789 0.0
C1097 C 0.3203 0.11039 0.30607 0.0
C1098 C 0.3318 0.09186 0.32056 0.0
C1099 C 0.34275 0.08054 0.3227 0.0
C1100 C 0.34465 0.06959 0.31229 0.0
C1101 C 0.35506 0.05901 0.31432 0.0
C1102 C 0.36357 0.05921 0.32678 0.0
C1103 C 0.36167 0.06997 0.33725 0.0
C1104 C 0.35128 0.08057 0.33527 0.0
C1105 C 0.27404 0.10455 0.34808 0.0
C1106 C 0.27802 0.10814 0.36233 0.0
C1107 C 0.2845 0.10292 0.3374 0.0
C1108 C 0.29909 0.10496 0.34077 0.0
C1109 C 0.30308 0.10836 0.35503 0.0
C1110 C 0.29263 0.10997 0.36572 0.0
C1111 C 0.31019 0.10377 0.32939 0.0
C1112 C 0.32126 0.09376 0.33122 0.0
C1113 C 0.30974 0.11224 0.31668 0.0
C1114 C 0.29868 0.12342 0.31437 0.0
C1115 C 0.29685 0.13465 0.32448 0.0
C1116 C 0.2863 0.14505 0.3223 0.0
C1117 C 0.27759 0.1444 0.30999 0.0
C1118 C 0.27943 0.13336 0.29981 0.0
C1119 C 0.28996 0.12292 0.30195 0.0
H1120 H 0.26942 0.15246 0.30832 0.0
H1121 H 0.37162 0.05102 0.32834 0.0
H1122 H 0.89491 0.29317 0.37926 0.0
H1123 H 0.89427 0.31312 0.36185 0.0
H1124 H 0.9045 0.28355 0.32726 0.0
H1125 H 0.90502 0.26354 0.34455 0.0
H1126 H 0.91971 0.3106 0.32592 0.0
H1127 H 0.87142 0.29177 0.3311 0.0
H1128 H 0.84983 0.28443 0.34478 0.0
H1129 H 0.8459 0.32766 0.36139 0.0
H1130 H 0.86762 0.3352 0.34796 0.0
H1131 H 0.89606 0.34938 0.26421 0.0
H1132 H 0.89932 0.33099 0.28293 0.0
H1133 H 0.88592 0.36144 0.31558 0.0
H1134 H 0.88267 0.37988 0.29694 0.0
H1135 H 0.87297 0.33478 0.31871 0.0
H1136 H 0.92006 0.35432 0.31273 0.0
H1137 H 0.9415 0.36221 0.29914 0.0
H1138 H 0.948 0.31863 0.28451 0.0
H1139 H 0.92641 0.31051 0.29781 0.0
C1140 C 0.89715 0.29095 0.36797 0.0
C1141 C 0.89991 0.27678 0.36324 0.0
C1142 C 0.89677 0.30234 0.35805 0.0
C1143 C 0.89926 0.29977 0.34328 0.0
C1144 C 0.90257 0.28574 0.33862 0.0
C1145 C 0.90278 0.27433 0.3485 0.0
C1146 C 0.89759 0.31151 0.33255 0.0
C1147 C 0.90948 0.31581 0.32423 0.0
C1148 C 0.8843 0.3185 0.33062 0.0
C1149 C 0.87123 0.314 0.33867 0.0
C1150 C 0.86603 0.29967 0.33778 0.0
C1151 C 0.85376 0.29549 0.34546 0.0
C1152 C 0.84653 0.30556 0.35399 0.0
C1153 C 0.85153 0.31986 0.35481 0.0
C1154 C 0.86382 0.32409 0.34716 0.0
C1155 C 0.89378 0.35214 0.27537 0.0
C1156 C 0.88912 0.36605 0.27913 0.0
C1157 C 0.89571 0.34166 0.28605 0.0
C1158 C 0.89297 0.34491 0.30064 0.0
C1159 C 0.88811 0.35873 0.30438 0.0
C1160 C 0.88629 0.36925 0.29373 0.0
C1161 C 0.89507 0.33385 0.31199 0.0
C1162 C 0.88324 0.32965 0.32044 0.0
C1163 C 0.90844 0.32704 0.31408 0.0
C1164 C 0.92153 0.33182 0.30617 0.0
C1165 C 0.92599 0.34643 0.30652 0.0
C1166 C 0.93818 0.35094 0.29888 0.0
C1167 C 0.9461 0.34093 0.29096 0.0
C1168 C 0.94185 0.32637 0.29066 0.0
C1169 C 0.92963 0.32181 0.29825 0.0
H1170 H 0.95556 0.34444 0.28509 0.0
H1171 H 0.83702 0.3023 0.35992 0.0
H1172 H 0.73241 0.89533 0.34642 0.0
H1173 H 0.71344 0.89922 0.32851 0.0
H1174 H 0.6815 0.8864 0.35989 0.0
H1175 H 0.70035 0.88234 0.37775 0.0
H1176 H 0.67647 0.8739 0.33413 0.0
H1177 H 0.68646 0.92139 0.35194 0.0
H1178 H 0.70171 0.94239 0.35851 0.0
H1179 H 0.71434 0.94728 0.31409 0.0
H1180 H 0.69938 0.92612 0.30728 0.0
H1181 H 0.61679 0.89703 0.29258 0.0
H1182 H 0.63413 0.89667 0.31258 0.0
H1183 H 0.66859 0.90518 0.28254 0.0
H1184 H 0.65142 0.90547 0.26256 0.0
H1185 H 0.67131 0.92082 0.30876 0.0
H1186 H 0.66253 0.87184 0.29184 0.0
H1187 H 0.64732 0.85065 0.28578 0.0
H1188 H 0.632 0.84898 0.32959 0.0
H1189 H 0.64698 0.87032 0.33585 0.0
C1190 C 0.72135 0.8933 0.34947 0.0
C1191 C 0.71785 0.88855 0.36348 0.0
C1192 C 0.71053 0.89561 0.33927 0.0
C1193 C 0.69606 0.89325 0.34294 0.0
C1194 C 0.69259 0.88831 0.35685 0.0
C1195 C 0.70338 0.88602 0.36704 0.0
C1196 C 0.68452 0.89577 0.33223 0.0
C1197 C 0.6752 0.88423 0.32876 0.0
C1198 C 0.68299 0.90921 0.32511 0.0
C1199 C 0.69188 0.92207 0.32912 0.0
C1200 C 0.69257 0.92687 0.34358 0.0
C1201 C 0.70116 0.93881 0.34735 0.0
C1202 C 0.709 0.94615 0.33673 0.0
C1203 C 0.70826 0.94157 0.32231 0.0
C1204 C 0.69972 0.9296 0.31848 0.0
C1205 C 0.62804 0.899 0.29028 0.0
C1206 C 0.63278 0.90114 0.27601 0.0
C1207 C 0.63792 0.89878 0.3017 0.0
C1208 C 0.65264 0.9008 0.29899 0.0
C1209 C 0.65728 0.90361 0.28485 0.0
C1210 C 0.64746 0.90369 0.27344 0.0
C1211 C 0.66335 0.89893 0.31066 0.0
C1212 C 0.67253 0.91056 0.31426 0.0
C1213 C 0.66471 0.88561 0.31801 0.0
C1214 C 0.65574 0.87277 0.31427 0.0
C1215 C 0.65582 0.86703 0.30015 0.0
C1216 C 0.64726 0.85498 0.29668 0.0
C1217 C 0.63866 0.8485 0.30728 0.0
C1218 C 0.63864 0.85403 0.32138 0.0
C1219 C 0.64717 0.8661 0.32489 0.0
H1220 H 0.63205 0.83917 0.30458 0.0
H1221 H 0.7156 0.95542 0.33966 0.0
H1222 H 0.08747 0.6357 0.27758 0.0
H1223 H 0.08468 0.65429 0.29631 0.0
H1224 H 0.12975 0.65114 0.30673 0.0
H1225 H 0.13216 0.63173 0.28877 0.0
H1226 H 0.11699 0.65469 0.33004 0.0
H1227 H 0.11396 0.67956 0.2846 0.0
H1228 H 0.10461 0.68453 0.26013 0.0
H1229 H 0.06279 0.69224 0.27783 0.0
H1230 H 0.07185 0.68714 0.30238 0.0
H1231 H 0.10982 0.73703 0.34742 0.0
H1232 H 0.11107 0.71704 0.3302 0.0
H1233 H 0.09408 0.68788 0.36253 0.0
H1234 H 0.09333 0.70784 0.38002 0.0
H1235 H 0.09259 0.70052 0.31801 0.0
H1236 H 0.10711 0.65412 0.35741 0.0
H1237 H 0.11998 0.65074 0.3805 0.0
H1238 H 0.14511 0.68914 0.3725 0.0
H1239 H 0.13254 0.69263 0.34929 0.0
C1240 C 0.09671 0.639 0.28396 0.0
C1241 C 0.11004 0.63249 0.28178 0.0
C1242 C 0.09517 0.64968 0.29458 0.0
C1243 C 0.10708 0.65444 0.30276 0.0
C1244 C 0.12038 0.64772 0.30061 0.0
C1245 C 0.1218 0.63671 0.29031 0.0
C1246 C 0.10577 0.66646 0.31347 0.0
C1247 C 0.11164 0.6647 0.32737 0.0
C1248 C 0.099 0.67967 0.31003 0.0
C1249 C 0.09355 0.68284 0.2953 0.0
C1250 C 0.10275 0.68224 0.28325 0.0
C1251 C 0.09751 0.68509 0.26938 0.0
C1252 C 0.08311 0.68866 0.26742 0.0
C1253 C 0.07393 0.68944 0.27935 0.0
C1254 C 0.07912 0.68659 0.29325 0.0
C1255 C 0.10635 0.72636 0.35088 0.0
C1256 C 0.10155 0.72398 0.3651 0.0
C1257 C 0.10702 0.71493 0.341 0.0
C1258 C 0.10281 0.70089 0.34507 0.0
C1259 C 0.09767 0.69855 0.35919 0.0
C1260 C 0.09717 0.70997 0.36917 0.0
C1261 C 0.10391 0.68878 0.33449 0.0
C1262 C 0.09791 0.69049 0.32066 0.0
C1263 C 0.11108 0.67577 0.33779 0.0
C1264 C 0.11875 0.67372 0.3517 0.0
C1265 C 0.11541 0.66182 0.36057 0.0
C1266 C 0.12265 0.65989 0.37368 0.0
C1267 C 0.13331 0.66975 0.37799 0.0
C1268 C 0.1368 0.68154 0.36918 0.0
C1269 C 0.12961 0.68351 0.35605 0.0
H1270 H 0.1389 0.66824 0.38814 0.0
H1271 H 0.07907 0.69086 0.25667 0.0
H1272 H 0.3837 0.89503 0.70256 0.0
H1273 H 0.36749 0.89432 0.6816 0.0
H1274 H 0.3312 0.88982 0.71026 0.0
H1275 H 0.34724 0.89038 0.73112 0.0
H1276 H 0.32967 0.87073 0.68814 0.0
H1277 H 0.3397 0.92209 0.69423 0.0
H1278 H 0.35552 0.94363 0.69569 0.0
H1279 H 0.37116 0.93511 0.65282 0.0
H1280 H 0.35555 0.91339 0.65118 0.0
H1281 H 0.26811 0.89097 0.65105 0.0
H1282 H 0.28882 0.88987 0.66707 0.0
H1283 H 0.3172 0.89403 0.63042 0.0
H1284 H 0.29635 0.89529 0.61418 0.0
H1285 H 0.32574 0.91127 0.6533 0.0
H1286 H 0.31344 0.86171 0.64601 0.0
H1287 H 0.29752 0.84025 0.64442 0.0
H1288 H 0.28645 0.84506 0.68928 0.0
H1289 H 0.30214 0.86667 0.69109 0.0
C1290 C 0.37226 0.89392 0.70437 0.0
C1291 C 0.36675 0.89276 0.71849 0.0
C1292 C 0.36302 0.89355 0.69239 0.0
C1293 C 0.34813 0.89207 0.69438 0.0
C1294 C 0.34265 0.89092 0.70847 0.0
C1295 C 0.35184 0.89129 0.7204 0.0
C1296 C 0.33809 0.8916 0.6819 0.0
C1297 C 0.32877 0.87963 0.68057 0.0
C1298 C 0.33727 0.90296 0.67168 0.0
C1299 C 0.3466 0.91603 0.67265 0.0
C1300 C 0.3466 0.92474 0.68516 0.0
C1301 C 0.35551 0.937 0.68602 0.0
C1302 C 0.36437 0.94071 0.67438 0.0
C1303 C 0.36431 0.9322 0.66184 0.0
C1304 C 0.35543 0.91993 0.66094 0.0
C1305 C 0.27874 0.89164 0.64634 0.0
C1306 C 0.28059 0.89314 0.63132 0.0
C1307 C 0.29058 0.89095 0.65553 0.0
C1308 C 0.30456 0.89164 0.64993 0.0
C1309 C 0.3065 0.8934 0.63495 0.0
C1310 C 0.29459 0.89408 0.6257 0.0
C1311 C 0.317 0.89063 0.6599 0.0
C1312 C 0.3268 0.90226 0.66073 0.0
C1313 C 0.31831 0.87894 0.66966 0.0
C1314 C 0.30891 0.86588 0.66865 0.0
C1315 C 0.30753 0.85825 0.65551 0.0
C1316 C 0.29856 0.84605 0.65458 0.0
C1317 C 0.29097 0.84131 0.66674 0.0
C1318 C 0.29234 0.84874 0.67987 0.0
C1319 C 0.30129 0.86096 0.68086 0.0
H1320 H 0.28403 0.83186 0.66599 0.0
H1321 H 0.37126 0.95021 0.67505 0.0
H1322 H 0.10638 0.37905 0.69888 0.0
H1323 H 0.10451 0.35868 0.68189 0.0
H1324 H 0.1064 0.32871 0.71754 0.0
H1325 H 0.10822 0.34897 0.73456 0.0
H1326 H 0.12461 0.32147 0.69519 0.0
H1327 H 0.07547 0.33391 0.70185 0.0
H1328 H 0.05473 0.35019 0.70271 0.0
H1329 H 0.06013 0.35981 0.65758 0.0
H1330 H 0.08109 0.34377 0.6565 0.0
H1331 H 0.10469 0.25855 0.65454 0.0
H1332 H 0.10381 0.27795 0.67272 0.0
H1333 H 0.10384 0.30984 0.63873 0.0
H1334 H 0.10489 0.29061 0.62057 0.0
H1335 H 0.08385 0.31543 0.66099 0.0
H1336 H 0.13378 0.30409 0.65487 0.0
H1337 H 0.15474 0.28807 0.65415 0.0
H1338 H 0.14766 0.27642 0.69856 0.0
H1339 H 0.12651 0.29222 0.69949 0.0
C1340 C 0.10638 0.36812 0.70308 0.0
C1341 C 0.10744 0.36559 0.71802 0.0
C1342 C 0.10526 0.35652 0.69338 0.0
C1343 C 0.10524 0.34221 0.69849 0.0
C1344 C 0.10639 0.33967 0.7134 0.0
C1345 C 0.10738 0.35126 0.72309 0.0
C1346 C 0.10427 0.32988 0.68827 0.0
C1347 C 0.11559 0.32002 0.68787 0.0
C1348 C 0.09261 0.32816 0.67857 0.0
C1349 C 0.07995 0.33775 0.67913 0.0
C1350 C 0.07232 0.3396 0.69214 0.0
C1351 C 0.06051 0.34877 0.69266 0.0
C1352 C 0.05614 0.35606 0.68022 0.0
C1353 C 0.06355 0.35417 0.66722 0.0
C1354 C 0.07539 0.34503 0.66664 0.0
C1355 C 0.10442 0.2697 0.65096 0.0
C1356 C 0.10494 0.27308 0.63616 0.0
C1357 C 0.10394 0.28074 0.66134 0.0
C1358 C 0.10382 0.2953 0.65703 0.0
C1359 C 0.10389 0.29867 0.64225 0.0
C1360 C 0.10456 0.28767 0.6319 0.0
C1361 C 0.10421 0.30709 0.6679 0.0
C1362 C 0.0928 0.31685 0.6684 0.0
C1363 C 0.11577 0.30871 0.67772 0.0
C1364 C 0.12846 0.29919 0.67719 0.0
C1365 C 0.13661 0.298 0.66444 0.0
C1366 C 0.14854 0.28898 0.664 0.0
C1367 C 0.1525 0.28119 0.67629 0.0
C1368 C 0.14456 0.28243 0.68905 0.0
C1369 C 0.1326 0.29142 0.68954 0.0
H1370 H 0.16175 0.27422 0.67593 0.0
H1371 H 0.04699 0.36315 0.68064 0.0
H1372 H 0.70349 0.0979 0.61767 0.0
H1373 H 0.68388 0.0967 0.63532 0.0
H1374 H 0.71409 0.10486 0.66992 0.0
H1375 H 0.73368 0.10568 0.65246 0.0
H1376 H 0.69635 0.08393 0.67731 0.0
H1377 H 0.69123 0.13149 0.65609 0.0
H1378 H 0.6879 0.14864 0.63598 0.0
H1379 H 0.6479 0.12782 0.62496 0.0
H1380 H 0.65109 0.11044 0.6449 0.0
H1381 H 0.65351 0.10655 0.7353 0.0
H1382 H 0.67038 0.10534 0.71517 0.0
H1383 H 0.63542 0.09628 0.68572 0.0
H1384 H 0.61837 0.09782 0.70585 0.0
H1385 H 0.65379 0.11551 0.67421 0.0
H1386 H 0.65788 0.0693 0.69681 0.0
H1387 H 0.66105 0.05241 0.71715 0.0
H1388 H 0.70289 0.07053 0.72558 0.0
H1389 H 0.69988 0.08768 0.70542 0.0
C1390 C 0.70592 0.09945 0.62904 0.0
C1391 C 0.72012 0.1019 0.63367 0.0
C1392 C 0.6947 0.09882 0.63912 0.0
C1393 C 0.69748 0.10082 0.65396 0.0
C1394 C 0.71167 0.10324 0.65855 0.0
C1395 C 0.72286 0.10375 0.64853 0.0
C1396 C 0.68573 0.10032 0.66485 0.0
C1397 C 0.68711 0.09093 0.67668 0.0
C1398 C 0.67342 0.10909 0.66382 0.0
C1399 C 0.67148 0.11958 0.65188 0.0
C1400 C 0.68178 0.13051 0.64931 0.0
C1401 C 0.67991 0.14028 0.63796 0.0
C1402 C 0.66771 0.13929 0.62917 0.0
C1403 C 0.65735 0.12856 0.63175 0.0
C1404 C 0.65918 0.11875 0.64308 0.0
C1405 C 0.64939 0.10428 0.72455 0.0
C1406 C 0.63461 0.10221 0.72218 0.0
C1407 C 0.65906 0.10353 0.71305 0.0
C1408 C 0.6542 0.10048 0.69896 0.0
C1409 C 0.63942 0.09859 0.69651 0.0
C1410 C 0.6297 0.09944 0.70802 0.0
C1411 C 0.66462 0.0994 0.68684 0.0
C1412 C 0.66297 0.10842 0.67476 0.0
C1413 C 0.67669 0.09028 0.68763 0.0
C1414 C 0.67861 0.07984 0.69965 0.0
C1415 C 0.66772 0.06974 0.70305 0.0
C1416 C 0.66949 0.06011 0.71454 0.0
C1417 C 0.68215 0.06041 0.72266 0.0
C1418 C 0.69308 0.07031 0.71928 0.0
C1419 C 0.69136 0.07998 0.70781 0.0
H1420 H 0.6835 0.05296 0.73156 0.0
H1421 H 0.66628 0.14687 0.62039 0.0
H1422 H 0.89168 0.70882 0.62298 0.0
H1423 H 0.89181 0.69059 0.64193 0.0
H1424 H 0.89392 0.72417 0.67446 0.0
H1425 H 0.89422 0.74261 0.65537 0.0
H1426 H 0.91163 0.70253 0.68096 0.0
H1427 H 0.86233 0.70611 0.66745 0.0
H1428 H 0.84171 0.70675 0.65071 0.0
H1429 H 0.85083 0.66355 0.63646 0.0
H1430 H 0.87162 0.66273 0.65296 0.0
H1431 H 0.89348 0.65295 0.73774 0.0
H1432 H 0.89409 0.67324 0.72079 0.0
H1433 H 0.89256 0.64327 0.68488 0.0
H1434 H 0.89166 0.62296 0.70177 0.0
H1435 H 0.87367 0.66443 0.68146 0.0
H1436 H 0.92366 0.66145 0.69491 0.0
H1437 H 0.94419 0.66133 0.71176 0.0
H1438 H 0.93338 0.70389 0.72665 0.0
H1439 H 0.91262 0.70416 0.71007 0.0
C1440 C 0.89219 0.71237 0.63416 0.0
C1441 C 0.89286 0.72715 0.63771 0.0
C1442 C 0.89219 0.70192 0.64499 0.0
C1443 C 0.89259 0.70602 0.65962 0.0
C1444 C 0.89353 0.72078 0.66323 0.0
C1445 C 0.89366 0.73129 0.65234 0.0
C1446 C 0.89206 0.6948 0.67104 0.0
C1447 C 0.90321 0.69433 0.68124 0.0
C1448 C 0.88117 0.68399 0.67125 0.0
C1449 C 0.8686 0.68441 0.66137 0.0
C1450 C 0.86 0.69678 0.66067 0.0
C1451 C 0.84827 0.69717 0.65124 0.0
C1452 C 0.84498 0.68521 0.64251 0.0
C1453 C 0.85339 0.67282 0.64322 0.0
C1454 C 0.86514 0.67238 0.65263 0.0
C1455 C 0.89335 0.65069 0.72623 0.0
C1456 C 0.8925 0.63639 0.72106 0.0
C1457 C 0.89377 0.66229 0.71656 0.0
C1458 C 0.89349 0.65976 0.70157 0.0
C1459 C 0.89277 0.64546 0.69641 0.0
C1460 C 0.89229 0.63387 0.70606 0.0
C1461 C 0.89339 0.67197 0.69122 0.0
C1462 C 0.88207 0.67266 0.68124 0.0
C1463 C 0.90407 0.68301 0.6913 0.0
C1464 C 0.9165 0.68277 0.70134 0.0
C1465 C 0.92557 0.67072 0.70187 0.0
C1466 C 0.93727 0.67064 0.71136 0.0
C1467 C 0.94007 0.68259 0.72028 0.0
C1468 C 0.93118 0.69464 0.71974 0.0
C1469 C 0.91945 0.69476 0.7103 0.0
H1470 H 0.94915 0.68256 0.72758 0.0
H1471 H 0.8359 0.68553 0.63521 0.0
H1472 H 0.26773 0.34722 0.10775 0.0
H1473 H 0.28895 0.33202 0.10764 0.0
H1474 H 0.31586 0.36961 0.1005 0.0
H1475 H 0.29456 0.385 0.10058 0.0
H1476 H 0.32338 0.3457 0.08321 0.0
H1477 H 0.31524 0.35627 0.13308 0.0
H1478 H 0.30101 0.3587 0.15543 0.0
H1479 H 0.2911 0.3132 0.15445 0.0
H1480 H 0.3051 0.31053 0.13197 0.0
H1481 H 0.38465 0.30055 0.09939 0.0
H1482 H 0.36784 0.32088 0.09952 0.0
H1483 H 0.33277 0.29118 0.10786 0.0
H1484 H 0.34931 0.27102 0.10777 0.0
H1485 H 0.33234 0.31457 0.12589 0.0
H1486 H 0.33788 0.30467 0.07467 0.0
H1487 H 0.35162 0.30203 0.05203 0.0
H1488 H 0.36632 0.34613 0.05554 0.0
H1489 H 0.35281 0.34896 0.07833 0.0
C1490 C 0.27814 0.35228 0.10611 0.0
C1491 C 0.27947 0.36733 0.10426 0.0
C1492 C 0.29026 0.34358 0.10609 0.0
C1493 C 0.30398 0.34972 0.10423 0.0
C1494 C 0.30536 0.36469 0.10199 0.0
C1495 C 0.2932 0.37345 0.10209 0.0
C1496 C 0.31678 0.34038 0.10492 0.0
C1497 C 0.32555 0.3391 0.09264 0.0
C1498 C 0.3195 0.3317 0.11718 0.0
C1499 C 0.31115 0.33322 0.13078 0.0
C1500 C 0.30994 0.3468 0.13757 0.0
C1501 C 0.30193 0.34821 0.15028 0.0
C1502 C 0.29514 0.33612 0.15634 0.0
C1503 C 0.29637 0.32257 0.14974 0.0
C1504 C 0.30436 0.32109 0.13702 0.0
C1505 C 0.37335 0.2984 0.10122 0.0
C1506 C 0.36831 0.28419 0.10357 0.0
C1507 C 0.36377 0.30999 0.10126 0.0
C1508 C 0.34906 0.30751 0.1037 0.0
C1509 C 0.34408 0.29334 0.10603 0.0
C1510 C 0.35356 0.28181 0.10591 0.0
C1511 C 0.33866 0.31953 0.10402 0.0
C1512 C 0.33035 0.32135 0.11654 0.0
C1513 C 0.33638 0.32866 0.09198 0.0
C1514 C 0.3445 0.32697 0.0783 0.0
C1515 C 0.34415 0.31376 0.07069 0.0
C1516 C 0.35187 0.31224 0.05781 0.0
C1517 C 0.35988 0.32389 0.05238 0.0
C1518 C 0.36014 0.3371 0.05978 0.0
C1519 C 0.35245 0.33867 0.07268 0.0
H1520 H 0.36584 0.3227 0.0424 0.0
H1521 H 0.28894 0.33724 0.16618 0.0
H1522 H 0.38562 0.69993 0.88953 0.0
H1523 H 0.36626 0.68188 0.89074 0.0
H1524 H 0.33503 0.71595 0.89206 0.0
H1525 H 0.35436 0.73408 0.89111 0.0
H1526 H 0.32844 0.69492 0.91111 0.0
H1527 H 0.34104 0.69756 0.86091 0.0
H1528 H 0.35729 0.69722 0.83987 0.0
H1529 H 0.36912 0.6536 0.84983 0.0
H1530 H 0.35308 0.65375 0.87107 0.0
H1531 H 0.26786 0.65021 0.89356 0.0
H1532 H 0.28661 0.66898 0.89382 0.0
H1533 H 0.31905 0.63609 0.89192 0.0
H1534 H 0.30037 0.61732 0.89133 0.0
H1535 H 0.32459 0.65706 0.87305 0.0
H1536 H 0.31148 0.65467 0.92348 0.0
H1537 H 0.29474 0.65533 0.94412 0.0
H1538 H 0.28329 0.69885 0.93329 0.0
H1539 H 0.29982 0.69838 0.91245 0.0
C1540 C 0.37463 0.70358 0.89011 0.0
C1541 C 0.37149 0.7184 0.89014 0.0
C1542 C 0.36358 0.69326 0.89076 0.0
C1543 C 0.3492 0.69758 0.89129 0.0
C1544 C 0.34605 0.71239 0.89163 0.0
C1545 C 0.3571 0.72272 0.89103 0.0
C1546 C 0.33745 0.68664 0.89132 0.0
C1547 C 0.32748 0.68674 0.9027 0.0
C1548 C 0.33634 0.67585 0.88046 0.0
C1549 C 0.34596 0.67572 0.86766 0.0
C1550 C 0.34719 0.68793 0.85868 0.0
C1551 C 0.35635 0.68777 0.84671 0.0
C1552 C 0.36426 0.67541 0.84354 0.0
C1553 C 0.363 0.66318 0.85231 0.0
C1554 C 0.35387 0.66329 0.86431 0.0
C1555 C 0.27899 0.64699 0.89326 0.0
C1556 C 0.28267 0.63231 0.89243 0.0
C1557 C 0.28969 0.65772 0.89347 0.0
C1558 C 0.30423 0.65392 0.89304 0.0
C1559 C 0.3079 0.63925 0.89227 0.0
C1560 C 0.29722 0.62854 0.89197 0.0
C1561 C 0.31566 0.66521 0.89293 0.0
C1562 C 0.32556 0.66521 0.88149 0.0
C1563 C 0.31664 0.67611 0.90371 0.0
C1564 C 0.30679 0.67644 0.91632 0.0
C1565 C 0.30532 0.66435 0.92544 0.0
C1566 C 0.29587 0.66469 0.93719 0.0
C1567 C 0.28793 0.67711 0.94 0.0
C1568 C 0.28944 0.68923 0.93109 0.0
C1569 C 0.29885 0.68894 0.91932 0.0
H1570 H 0.28062 0.67738 0.94909 0.0
H1571 H 0.37135 0.67531 0.83426 0.0
H1572 H 0.29103 0.38172 0.90515 0.0
H1573 H 0.31162 0.36561 0.90727 0.0
H1574 H 0.28714 0.33141 0.88651 0.0
H1575 H 0.26644 0.34722 0.885 0.0
H1576 H 0.30055 0.321 0.90855 0.0
H1577 H 0.31455 0.35333 0.869 0.0
H1578 H 0.32006 0.37728 0.8585 0.0
H1579 H 0.35294 0.38434 0.89045 0.0
H1580 H 0.34751 0.36049 0.90122 0.0
H1581 H 0.34918 0.27122 0.88256 0.0
H1582 H 0.33195 0.29069 0.88472 0.0
H1583 H 0.36363 0.31719 0.90671 0.0
H1584 H 0.38123 0.29775 0.90409 0.0
H1585 H 0.34847 0.3331 0.88826 0.0
H1586 H 0.33681 0.29987 0.92589 0.0
H1587 H 0.33183 0.27591 0.93655 0.0
H1588 H 0.29482 0.27077 0.9092 0.0
H1589 H 0.29971 0.2946 0.8982 0.0
C1590 C 0.2901 0.37077 0.90102 0.0
C1591 C 0.27716 0.36571 0.8949 0.0
C1592 C 0.30188 0.36159 0.90217 0.0
C1593 C 0.30102 0.34732 0.89689 0.0
C1594 C 0.28808 0.34234 0.89071 0.0
C1595 C 0.27626 0.3514 0.88981 0.0
C1596 C 0.31337 0.33734 0.8979 0.0
C1597 C 0.31099 0.32362 0.904 0.0
C1598 C 0.32721 0.34095 0.89257 0.0
C1599 C 0.33053 0.35521 0.88599 0.0
C1600 C 0.32289 0.36003 0.87382 0.0
C1601 C 0.32601 0.37358 0.86782 0.0
C1602 C 0.33682 0.38234 0.87382 0.0
C1603 C 0.34456 0.37755 0.88582 0.0
C1604 C 0.34148 0.36402 0.89186 0.0
C1605 C 0.35252 0.2812 0.88783 0.0
C1606 C 0.3665 0.28293 0.89329 0.0
C1607 C 0.34263 0.2923 0.88912 0.0
C1608 C 0.34637 0.30526 0.89621 0.0
C1609 C 0.36048 0.30723 0.9013 0.0
C1610 C 0.3705 0.29614 0.89981 0.0
C1611 C 0.3354 0.31658 0.89829 0.0
C1612 C 0.33807 0.33055 0.89293 0.0
C1613 C 0.32182 0.31325 0.90438 0.0
C1614 C 0.31867 0.29901 0.91118 0.0
C1615 C 0.32764 0.29361 0.92211 0.0
C1616 C 0.32483 0.28005 0.92822 0.0
C1617 C 0.31301 0.27182 0.92356 0.0
C1618 C 0.30396 0.27716 0.91281 0.0
C1619 C 0.30673 0.29071 0.90665 0.0
H1620 H 0.31087 0.26131 0.92829 0.0
H1621 H 0.33921 0.39283 0.86917 0.0
H1622 H 0.65082 0.26428 0.89464 0.0
H1623 H 0.67093 0.28142 0.8969 0.0
H1624 H 0.64228 0.31682 0.88867 0.0
H1625 H 0.62212 0.29979 0.8867 0.0
H1626 H 0.68237 0.29976 0.87785 0.0
H1627 H 0.653 0.34653 0.90731 0.0
H1628 H 0.63321 0.34959 0.92473 0.0
H1629 H 0.64033 0.30692 0.94134 0.0
H1630 H 0.66032 0.30369 0.9242 0.0
H1631 H 0.7074 0.37913 0.88728 0.0
H1632 H 0.68905 0.36012 0.88859 0.0
H1633 H 0.72155 0.3288 0.89851 0.0
H1634 H 0.74006 0.3478 0.89705 0.0
H1635 H 0.68075 0.34247 0.91047 0.0
H1636 H 0.71133 0.29639 0.88278 0.0
H1637 H 0.73098 0.29294 0.86525 0.0
H1638 H 0.72134 0.33367 0.84543 0.0
H1639 H 0.70153 0.33726 0.86271 0.0
C1640 C 0.64881 0.27573 0.89337 0.0
C1641 C 0.63491 0.28072 0.89054 0.0
C1642 C 0.66031 0.28549 0.89463 0.0
C1643 C 0.65808 0.3004 0.89313 0.0
C1644 C 0.64421 0.30538 0.89015 0.0
C1645 C 0.63271 0.29563 0.88896 0.0
C1646 C 0.67028 0.31077 0.89433 0.0
C1647 C 0.68214 0.30896 0.88517 0.0
C1648 C 0.66988 0.32286 0.90376 0.0
C1649 C 0.65809 0.32483 0.91437 0.0
C1650 C 0.65041 0.33783 0.91474 0.0
C1651 C 0.63915 0.33959 0.92456 0.0
C1652 C 0.6355 0.32844 0.93411 0.0
C1653 C 0.64315 0.31553 0.93391 0.0
C1654 C 0.65444 0.31373 0.92414 0.0
C1655 C 0.71066 0.3682 0.88975 0.0
C1656 C 0.72518 0.36493 0.89199 0.0
C1657 C 0.70015 0.35737 0.89055 0.0
C1658 C 0.70394 0.34304 0.89355 0.0
C1659 C 0.71842 0.33976 0.89602 0.0
C1660 C 0.72897 0.35062 0.8952 0.0
C1661 C 0.69269 0.33158 0.89381 0.0
C1662 C 0.68103 0.33318 0.90327 0.0
C1663 C 0.6933 0.31926 0.88471 0.0
C1664 C 0.70507 0.31716 0.87415 0.0
C1665 C 0.71339 0.30459 0.87465 0.0
C1666 C 0.72455 0.30261 0.86476 0.0
C1667 C 0.72744 0.31311 0.85427 0.0
C1668 C 0.71913 0.32558 0.8536 0.0
C1669 C 0.70795 0.3276 0.86346 0.0
H1670 H 0.7361 0.31156 0.84663 0.0
H1671 H 0.62676 0.32981 0.94168 0.0
H1672 H 0.70551 0.616 0.89173 0.0
H1673 H 0.68486 0.6322 0.8931 0.0
H1674 H 0.71351 0.66855 0.90019 0.0
H1675 H 0.73409 0.65254 0.89876 0.0
H1676 H 0.69026 0.66814 0.91907 0.0
H1677 H 0.69983 0.66315 0.8677 0.0
H1678 H 0.70284 0.64945 0.84496 0.0
H1679 H 0.65992 0.63247 0.84876 0.0
H1680 H 0.65673 0.64593 0.87164 0.0
H1681 H 0.65581 0.73198 0.89949 0.0
H1682 H 0.6713 0.71094 0.90099 0.0
H1683 H 0.63487 0.68268 0.89344 0.0
H1684 H 0.61919 0.70379 0.89197 0.0
H1685 H 0.65873 0.67582 0.87652 0.0
H1686 H 0.64793 0.6837 0.92607 0.0
H1687 H 0.64481 0.69776 0.94854 0.0
H1688 H 0.68961 0.70916 0.94844 0.0
H1689 H 0.69297 0.69537 0.92582 0.0
C1690 C 0.70738 0.62744 0.8936 0.0
C1691 C 0.72141 0.63302 0.89508 0.0
C1692 C 0.6956 0.63667 0.89436 0.0
C1693 C 0.69769 0.65156 0.89671 0.0
C1694 C 0.71167 0.65708 0.8984 0.0
C1695 C 0.72342 0.64792 0.89751 0.0
C1696 C 0.68543 0.66159 0.89719 0.0
C1697 C 0.68338 0.66986 0.90977 0.0
C1698 C 0.67619 0.66347 0.8852 0.0
C1699 C 0.67811 0.65538 0.87147 0.0
C1700 C 0.69109 0.65638 0.86376 0.0
C1701 C 0.69282 0.64869 0.85083 0.0
C1702 C 0.6816 0.64006 0.84545 0.0
C1703 C 0.66861 0.63913 0.85296 0.0
C1704 C 0.66684 0.64679 0.86591 0.0
C1705 C 0.65106 0.7213 0.89818 0.0
C1706 C 0.63628 0.71953 0.89562 0.0
C1707 C 0.65992 0.70929 0.8991 0.0
C1708 C 0.65419 0.69526 0.89747 0.0
C1709 C 0.63946 0.69342 0.89479 0.0
C1710 C 0.63053 0.70547 0.89399 0.0
C1711 C 0.66382 0.68266 0.89826 0.0
C1712 C 0.6654 0.67391 0.88594 0.0
C1713 C 0.6726 0.6803 0.91051 0.0
C1714 C 0.67068 0.68857 0.92417 0.0
C1715 C 0.6571 0.6893 0.93077 0.0
C1716 C 0.65529 0.69721 0.94355 0.0
C1717 C 0.667 0.70437 0.9499 0.0
C1718 C 0.68055 0.70361 0.9435 0.0
C1719 C 0.68242 0.69573 0.93071 0.0
H1720 H 0.66557 0.71049 0.9598 0.0
H1721 H 0.68295 0.63412 0.83543 0.0
H1722 H 0.61308 0.69863 0.10286 0.0
H1723 H 0.62997 0.67854 0.10104 0.0
H1724 H 0.66548 0.7088 0.10403 0.0
H1725 H 0.64878 0.72882 0.10562 0.0
H1726 H 0.66998 0.68929 0.08316 0.0
H1727 H 0.65411 0.68853 0.13325 0.0
H1728 H 0.63602 0.68676 0.15266 0.0
H1729 H 0.62276 0.6449 0.13695 0.0
H1730 H 0.64067 0.64651 0.11733 0.0
H1731 H 0.72996 0.65192 0.10693 0.0
H1732 H 0.70905 0.66734 0.105 0.0
H1733 H 0.68159 0.62962 0.10096 0.0
H1734 H 0.70261 0.61398 0.10307 0.0
H1735 H 0.67045 0.64983 0.11947 0.0
H1736 H 0.68889 0.64926 0.07145 0.0
H1737 H 0.70745 0.65095 0.0525 0.0
H1738 H 0.71598 0.69523 0.06422 0.0
H1739 H 0.69763 0.69374 0.0834 0.0
C1740 C 0.62449 0.70097 0.10311 0.0
C1741 C 0.6296 0.7153 0.10442 0.0
C1742 C 0.63412 0.68949 0.1021 0.0
C1743 C 0.64899 0.69216 0.10249 0.0
C1744 C 0.65406 0.70648 0.10366 0.0
C1745 C 0.64448 0.71791 0.10463 0.0
C1746 C 0.65944 0.68019 0.10183 0.0
C1747 C 0.67012 0.6807 0.09114 0.0
C1748 C 0.65933 0.66869 0.11193 0.0
C1749 C 0.6486 0.66772 0.12373 0.0
C1750 C 0.64726 0.679 0.13387 0.0
C1751 C 0.63705 0.67802 0.14492 0.0
C1752 C 0.62821 0.66575 0.14601 0.0
C1753 C 0.62959 0.65441 0.13607 0.0
C1754 C 0.63977 0.65535 0.12499 0.0
C1755 C 0.71949 0.64686 0.10563 0.0
C1756 C 0.71794 0.63172 0.10509 0.0
C1757 C 0.70754 0.65571 0.10446 0.0
C1758 C 0.69379 0.64964 0.1026 0.0
C1759 C 0.69213 0.63452 0.10231 0.0
C1760 C 0.70413 0.62561 0.1035 0.0
C1761 C 0.68126 0.65925 0.10111 0.0
C1762 C 0.67017 0.65828 0.11134 0.0
C1763 C 0.68098 0.67034 0.09058 0.0
C1764 C 0.69192 0.67135 0.07893 0.0
C1765 C 0.69478 0.65933 0.07005 0.0
C1766 C 0.70526 0.66026 0.05926 0.0
C1767 C 0.7129 0.67318 0.05717 0.0
C1768 C 0.71005 0.68522 0.06585 0.0
C1769 C 0.6996 0.68435 0.07667 0.0
H1770 H 0.72101 0.67387 0.04881 0.0
H1771 H 0.62032 0.665 0.15457 0.0
H1772 H 0.34712 0.73594 0.09988 0.0
H1773 H 0.32886 0.71683 0.10008 0.0
H1774 H 0.3619 0.68455 0.10099 0.0
H1775 H 0.38036 0.70372 0.10063 0.0
H1776 H 0.3393 0.67692 0.08283 0.0
H1777 H 0.34581 0.6935 0.13168 0.0
H1778 H 0.34758 0.71166 0.15124 0.0
H1779 H 0.30429 0.72472 0.1429 0.0
H1780 H 0.30234 0.70678 0.12313 0.0
H1781 H 0.29582 0.61917 0.10975 0.0
H1782 H 0.31439 0.63784 0.10689 0.0
H1783 H 0.28184 0.67058 0.10484 0.0
H1784 H 0.26315 0.65191 0.10766 0.0
H1785 H 0.30435 0.67775 0.12336 0.0
H1786 H 0.29769 0.66059 0.07481 0.0
H1787 H 0.29587 0.642 0.05568 0.0
H1788 H 0.33943 0.62964 0.06369 0.0
H1789 H 0.34142 0.64799 0.08308 0.0
C1790 C 0.35054 0.72479 0.10001 0.0
C1791 C 0.36519 0.72133 0.1004 0.0
C1792 C 0.34008 0.71388 0.10015 0.0
C1793 C 0.34403 0.6993 0.10079 0.0
C1794 C 0.35864 0.69576 0.10055 0.0
C1795 C 0.36916 0.7067 0.10039 0.0
C1796 C 0.33286 0.68788 0.10235 0.0
C1797 C 0.33177 0.67697 0.09179 0.0
C1798 C 0.32288 0.68814 0.11389 0.0
C1799 C 0.32398 0.69889 0.12583 0.0
C1800 C 0.33671 0.70032 0.13394 0.0
C1801 C 0.33774 0.71056 0.14508 0.0
C1802 C 0.32607 0.71936 0.14828 0.0
C1803 C 0.31333 0.71791 0.14039 0.0
C1804 C 0.31225 0.7077 0.12923 0.0
C1805 C 0.2926 0.63034 0.10867 0.0
C1806 C 0.27803 0.6341 0.1089 0.0
C1807 C 0.30322 0.64098 0.10699 0.0
C1808 C 0.29946 0.65555 0.10553 0.0
C1809 C 0.28494 0.65937 0.10592 0.0
C1810 C 0.27429 0.64871 0.1075 0.0
C1811 C 0.31074 0.66683 0.10382 0.0
C1812 C 0.31186 0.6777 0.11439 0.0
C1813 C 0.32075 0.66648 0.09231 0.0
C1814 C 0.31966 0.65558 0.08051 0.0
C1815 C 0.30685 0.65384 0.07258 0.0
C1816 C 0.30579 0.64335 0.06168 0.0
C1817 C 0.31752 0.63462 0.0585 0.0
C1818 C 0.33034 0.6364 0.06618 0.0
C1819 C 0.33145 0.64685 0.07713 0.0
H1820 H 0.31667 0.6265 0.05006 0.0
H1821 H 0.32688 0.72729 0.15691 0.0
H1822 H 0.73308 0.34783 0.11026 0.0
H1823 H 0.714 0.32953 0.10835 0.0
H1824 H 0.68255 0.36321 0.10453 0.0
H1825 H 0.70153 0.38154 0.107 0.0
H1826 H 0.67288 0.343 0.12184 0.0
H1827 H 0.69477 0.34318 0.07476 0.0
H1828 H 0.71505 0.34185 0.0577 0.0
H1829 H 0.72401 0.29873 0.07205 0.0
H1830 H 0.70396 0.29991 0.08939 0.0
H1831 H 0.61691 0.29392 0.10016 0.0
H1832 H 0.6345 0.31388 0.10009 0.0
H1833 H 0.66874 0.28335 0.10557 0.0
H1834 H 0.65134 0.26344 0.10537 0.0
H1835 H 0.67596 0.30306 0.08602 0.0
H1836 H 0.65567 0.30346 0.13414 0.0
H1837 H 0.63608 0.30473 0.15202 0.0
H1838 H 0.6244 0.34653 0.13594 0.0
H1839 H 0.64382 0.34542 0.11783 0.0
C1840 C 0.72209 0.35132 0.10901 0.0
C1841 C 0.7188 0.3661 0.10871 0.0
C1842 C 0.7112 0.34086 0.10784 0.0
C1843 C 0.69684 0.34498 0.10602 0.0
C1844 C 0.69353 0.35976 0.10588 0.0
C1845 C 0.7044 0.37022 0.10725 0.0
C1846 C 0.68525 0.33389 0.10443 0.0
C1847 C 0.67344 0.33441 0.11384 0.0
C1848 C 0.68608 0.32252 0.09415 0.0
C1849 C 0.69792 0.32168 0.08346 0.0
C1850 C 0.70111 0.33344 0.07432 0.0
C1851 C 0.71257 0.33271 0.0646 0.0
C1852 C 0.72083 0.32021 0.06382 0.0
C1853 C 0.71761 0.3084 0.07269 0.0
C1854 C 0.70619 0.30909 0.08246 0.0
C1855 C 0.62819 0.29148 0.1013 0.0
C1856 C 0.63274 0.27711 0.10282 0.0
C1857 C 0.63822 0.30289 0.10132 0.0
C1858 C 0.65293 0.30012 0.10298 0.0
C1859 C 0.65746 0.28576 0.10426 0.0
C1860 C 0.64748 0.27438 0.10419 0.0
C1861 C 0.6637 0.31208 0.10355 0.0
C1862 C 0.67534 0.31174 0.09392 0.0
C1863 C 0.66274 0.3236 0.11363 0.0
C1864 C 0.65109 0.32428 0.12453 0.0
C1865 C 0.64885 0.31287 0.13434 0.0
C1866 C 0.63779 0.31357 0.14453 0.0
C1867 C 0.62898 0.32569 0.14508 0.0
C1868 C 0.63123 0.33714 0.13548 0.0
C1869 C 0.64226 0.33649 0.12526 0.0
H1870 H 0.62042 0.32621 0.15298 0.0
H1871 H 0.72973 0.31966 0.05634 0.0
H1872 H 0.60599 0.88075 0.79314 0.0
H1873 H 0.60747 0.86318 0.81293 0.0
H1874 H 0.59614 0.82871 0.78331 0.0
H1875 H 0.59482 0.84613 0.76349 0.0
H1876 H 0.58215 0.82688 0.81086 0.0
H1877 H 0.62942 0.83309 0.79016 0.0
H1878 H 0.65058 0.84722 0.78222 0.0
H1879 H 0.65676 0.86311 0.82555 0.0
H1880 H 0.63548 0.84922 0.8337 0.0
H1881 H 0.60751 0.76464 0.847 0.0
H1882 H 0.60393 0.78372 0.82905 0.0
H1883 H 0.61834 0.8158 0.86 0.0
H1884 H 0.6219 0.79681 0.87801 0.0
H1885 H 0.63019 0.81979 0.83283 0.0
H1886 H 0.58408 0.81261 0.85413 0.0
H1887 H 0.56318 0.79835 0.86248 0.0
H1888 H 0.55464 0.78458 0.81884 0.0
H1889 H 0.57566 0.79859 0.81024 0.0
C1890 C 0.60365 0.86945 0.7909 0.0
C1891 C 0.60041 0.86478 0.77677 0.0
C1892 C 0.60452 0.85945 0.80219 0.0
C1893 C 0.60199 0.84467 0.79952 0.0
C1894 C 0.59811 0.84008 0.78557 0.0
C1895 C 0.59744 0.85003 0.77426 0.0
C1896 C 0.60429 0.83383 0.81102 0.0
C1897 C 0.59265 0.82523 0.8156 0.0
C1898 C 0.61795 0.83194 0.81737 0.0
C1899 C 0.63076 0.84027 0.8125 0.0
C1900 C 0.63521 0.83971 0.79797 0.0
C1901 C 0.64724 0.84765 0.79343 0.0
C1902 C 0.65498 0.8561 0.80336 0.0
C1903 C 0.65073 0.85658 0.81786 0.0
C1904 C 0.63869 0.84868 0.82245 0.0
C1905 C 0.61 0.77574 0.84994 0.0
C1906 C 0.61495 0.77926 0.8639 0.0
C1907 C 0.60789 0.78662 0.83971 0.0
C1908 C 0.61075 0.80116 0.84327 0.0
C1909 C 0.61605 0.80464 0.85707 0.0
C1910 C 0.61805 0.79379 0.86733 0.0
C1911 C 0.60807 0.81275 0.83263 0.0
C1912 C 0.61964 0.82149 0.82819 0.0
C1913 C 0.59433 0.81481 0.82648 0.0
C1914 C 0.58154 0.80654 0.83156 0.0
C1915 C 0.57782 0.80645 0.84632 0.0
C1916 C 0.56594 0.79842 0.8511 0.0
C1917 C 0.55761 0.79052 0.84121 0.0
C1918 C 0.56111 0.79069 0.8265 0.0
C1919 C 0.57301 0.79868 0.82166 0.0
H1920 H 0.54842 0.7843 0.84494 0.0
H1921 H 0.6643 0.86223 0.79983 0.0
H1922 H 0.2374 0.60166 0.84869 0.0
H1923 H 0.2175 0.60253 0.83159 0.0
H1924 H 0.18747 0.60413 0.86706 0.0
H1925 H 0.20744 0.60304 0.88436 0.0
H1926 H 0.17817 0.58599 0.84535 0.0
H1927 H 0.19628 0.63468 0.84928 0.0
H1928 H 0.21484 0.65392 0.84914 0.0
H1929 H 0.22483 0.64395 0.80487 0.0
H1930 H 0.20646 0.6245 0.80481 0.0
H1931 H 0.11942 0.61088 0.80312 0.0
H1932 H 0.13843 0.60874 0.82123 0.0
H1933 H 0.17005 0.60661 0.78723 0.0
H1934 H 0.1511 0.60883 0.76904 0.0
H1935 H 0.17803 0.62525 0.80879 0.0
H1936 H 0.16007 0.5766 0.80473 0.0
H1937 H 0.14135 0.55752 0.80461 0.0
H1938 H 0.13105 0.56735 0.84884 0.0
H1939 H 0.14954 0.58669 0.84914 0.0
C1940 C 0.22657 0.60215 0.85289 0.0
C1941 C 0.22399 0.60241 0.86788 0.0
C1942 C 0.21521 0.60269 0.84309 0.0
C1943 C 0.20103 0.60363 0.84806 0.0
C1944 C 0.19835 0.60346 0.86302 0.0
C1945 C 0.20976 0.60288 0.87287 0.0
C1946 C 0.1891 0.60511 0.83756 0.0
C1947 C 0.17801 0.59469 0.83749 0.0
C1948 C 0.18907 0.61629 0.82711 0.0
C1949 C 0.20007 0.62805 0.82709 0.0
C1950 C 0.2025 0.63652 0.83955 0.0
C1951 C 0.21298 0.64747 0.8395 0.0
C1952 C 0.22103 0.65014 0.82701 0.0
C1953 C 0.21859 0.64187 0.81454 0.0
C1954 C 0.20814 0.63089 0.81454 0.0
C1955 C 0.13042 0.60994 0.7995 0.0
C1956 C 0.13378 0.61 0.78467 0.0
C1957 C 0.14126 0.60866 0.80986 0.0
C1958 C 0.15563 0.60739 0.80556 0.0
C1959 C 0.15902 0.60756 0.79076 0.0
C1960 C 0.14818 0.6088 0.78039 0.0
C1961 C 0.16716 0.60609 0.81651 0.0
C1962 C 0.17817 0.61656 0.81666 0.0
C1963 C 0.1671 0.59496 0.827 0.0
C1964 C 0.1561 0.5832 0.82691 0.0
C1965 C 0.15374 0.57478 0.8144 0.0
C1966 C 0.14318 0.5639 0.8143 0.0
C1967 C 0.13499 0.56125 0.8267 0.0
C1968 C 0.13739 0.56944 0.83923 0.0
C1969 C 0.14791 0.58035 0.83937 0.0
H1970 H 0.12682 0.55282 0.8266 0.0
H1971 H 0.22914 0.65862 0.82699 0.0
H1972 H 0.40187 0.15385 0.75861 0.0
H1973 H 0.40211 0.17402 0.77591 0.0
H1974 H 0.38956 0.14479 0.81009 0.0
H1975 H 0.38934 0.12461 0.79291 0.0
H1976 H 0.37305 0.16948 0.80899 0.0
H1977 H 0.42288 0.15651 0.80855 0.0
H1978 H 0.44623 0.15166 0.7971 0.0
H1979 H 0.44816 0.19525 0.78116 0.0
H1980 H 0.42468 0.20028 0.79231 0.0
H1981 H 0.38611 0.20796 0.87294 0.0
H1982 H 0.38767 0.1905 0.85319 0.0
H1983 H 0.39958 0.22472 0.82374 0.0
H1984 H 0.39808 0.2424 0.84359 0.0
H1985 H 0.41615 0.19943 0.82055 0.0
H1986 H 0.36679 0.21273 0.8221 0.0
H1987 H 0.34343 0.21743 0.83358 0.0
H1988 H 0.34058 0.17314 0.84734 0.0
H1989 H 0.36405 0.16822 0.83612 0.0
C1990 C 0.39923 0.15173 0.76983 0.0
C1991 C 0.39555 0.13768 0.77443 0.0
C1992 C 0.39941 0.16324 0.77969 0.0
C1993 C 0.39588 0.16085 0.79426 0.0
C1994 C 0.39229 0.14683 0.79887 0.0
C1995 C 0.39221 0.13532 0.78906 0.0
C1996 C 0.39552 0.17301 0.80469 0.0
C1997 C 0.38249 0.17595 0.81161 0.0
C1998 C 0.40777 0.18169 0.80774 0.0
C1999 C 0.42193 0.17872 0.80111 0.0
C2000 C 0.42822 0.16502 0.80249 0.0
C2001 C 0.44149 0.16225 0.79607 0.0
C2002 C 0.44866 0.17313 0.78837 0.0
C2003 C 0.44258 0.18682 0.78711 0.0
C2004 C 0.42929 0.18964 0.79347 0.0
C2005 C 0.3891 0.21181 0.86228 0.0
C2006 C 0.39187 0.22656 0.85978 0.0
C2007 C 0.38996 0.20181 0.85101 0.0
C2008 C 0.39359 0.20636 0.837 0.0
C2009 C 0.39673 0.22103 0.83449 0.0
C2010 C 0.39581 0.2311 0.8458 0.0
C2011 C 0.39373 0.1957 0.82503 0.0
C2012 C 0.40668 0.19305 0.8178 0.0
C2013 C 0.3814 0.18725 0.82167 0.0
C2014 C 0.36724 0.19014 0.82837 0.0
C2015 C 0.36124 0.20401 0.82767 0.0
C2016 C 0.34797 0.20671 0.83411 0.0
C2017 C 0.34054 0.1956 0.84121 0.0
C2018 C 0.34635 0.18174 0.84185 0.0
C2019 C 0.35963 0.17899 0.83543 0.0
H2020 H 0.33026 0.19771 0.84619 0.0
H2021 H 0.45893 0.17096 0.78342 0.0
H2022 H 0.88758 0.39847 0.79817 0.0
H2023 H 0.87129 0.40044 0.81897 0.0
H2024 H 0.83527 0.39045 0.79114 0.0
H2025 H 0.85132 0.38868 0.77046 0.0
H2026 H 0.82963 0.41306 0.80801 0.0
H2027 H 0.84966 0.36528 0.81423 0.0
H2028 H 0.86924 0.34789 0.81763 0.0
H2029 H 0.88197 0.36967 0.8568 0.0
H2030 H 0.86255 0.38731 0.85353 0.0
H2031 H 0.77239 0.38972 0.85003 0.0
H2032 H 0.79309 0.39038 0.83399 0.0
H2033 H 0.82045 0.40239 0.86988 0.0
H2034 H 0.79964 0.40144 0.88621 0.0
H2035 H 0.83301 0.3822 0.85172 0.0
H2036 H 0.80994 0.42781 0.84683 0.0
H2037 H 0.7889 0.44337 0.84368 0.0
H2038 H 0.78132 0.42502 0.80156 0.0
H2039 H 0.80211 0.40906 0.80461 0.0
C2040 C 0.87619 0.39666 0.79654 0.0
C2041 C 0.87073 0.39343 0.78268 0.0
C2042 C 0.86691 0.39775 0.80842 0.0
C2043 C 0.85206 0.39555 0.80661 0.0
C2044 C 0.84667 0.39227 0.79279 0.0
C2045 C 0.85588 0.39121 0.78097 0.0
C2046 C 0.84192 0.39679 0.81893 0.0
C2047 C 0.83036 0.40629 0.81754 0.0
C2048 C 0.84311 0.38828 0.8316 0.0
C2049 C 0.85478 0.37771 0.83354 0.0
C2050 C 0.85672 0.36644 0.8235 0.0
C2051 C 0.86777 0.35652 0.82541 0.0
C2052 C 0.87688 0.35771 0.83739 0.0
C2053 C 0.87493 0.36879 0.84751 0.0
C2054 C 0.8639 0.37874 0.84563 0.0
C2055 C 0.7828 0.39248 0.85457 0.0
C2056 C 0.78436 0.39568 0.86937 0.0
C2057 C 0.79463 0.39287 0.84536 0.0
C2058 C 0.80826 0.39669 0.85069 0.0
C2059 C 0.80999 0.39949 0.86555 0.0
C2060 C 0.79811 0.39899 0.87483 0.0
C2061 C 0.82049 0.39808 0.84049 0.0
C2062 C 0.83245 0.38917 0.84231 0.0
C2063 C 0.81966 0.40708 0.82816 0.0
C2064 C 0.80756 0.41717 0.82599 0.0
C2065 C 0.80377 0.42706 0.83691 0.0
C2066 C 0.79186 0.43594 0.83515 0.0
C2067 C 0.78376 0.43517 0.82243 0.0
C2068 C 0.7876 0.42559 0.81141 0.0
C2069 C 0.79945 0.41662 0.81315 0.0
H2070 H 0.77448 0.44198 0.82111 0.0
H2071 H 0.88542 0.35002 0.83886 0.0
H2072 H 0.60927 0.20131 0.12128 0.0
H2073 H 0.60695 0.18376 0.14092 0.0
H2074 H 0.60068 0.21856 0.17143 0.0
H2075 H 0.6032 0.23619 0.15186 0.0
H2076 H 0.61935 0.19916 0.18164 0.0
H2077 H 0.57259 0.19771 0.16008 0.0
H2078 H 0.5553 0.19539 0.13996 0.0
H2079 H 0.56964 0.15219 0.13152 0.0
H2080 H 0.58719 0.15433 0.15146 0.0
H2081 H 0.5974 0.1557 0.2405 0.0
H2082 H 0.59737 0.17345 0.22096 0.0
H2083 H 0.6027 0.13921 0.18962 0.0
H2084 H 0.60235 0.12133 0.20912 0.0
H2085 H 0.58398 0.15861 0.17997 0.0
H2086 H 0.6313 0.16049 0.20097 0.0
H2087 H 0.64886 0.16302 0.22085 0.0
H2088 H 0.63345 0.20565 0.23017 0.0
H2089 H 0.61567 0.2033 0.21046 0.0
C2090 C 0.60738 0.20522 0.13217 0.0
C2091 C 0.60641 0.22012 0.13504 0.0
C2092 C 0.60599 0.19518 0.14337 0.0
C2093 C 0.60348 0.19984 0.15762 0.0
C2094 C 0.60259 0.21473 0.16052 0.0
C2095 C 0.604 0.22478 0.14932 0.0
C2096 C 0.60207 0.18922 0.16955 0.0
C2097 C 0.61147 0.19042 0.18138 0.0
C2098 C 0.592 0.17763 0.16905 0.0
C2099 C 0.5813 0.17623 0.15719 0.0
C2100 C 0.57213 0.18775 0.15388 0.0
C2101 C 0.56227 0.18646 0.14251 0.0
C2102 C 0.5614 0.17366 0.13445 0.0
C2103 C 0.57034 0.1621 0.13777 0.0
C2104 C 0.58024 0.16334 0.14911 0.0
C2105 C 0.59852 0.15194 0.22945 0.0
C2106 C 0.6 0.13713 0.22635 0.0
C2107 C 0.59854 0.1621 0.21829 0.0
C2108 C 0.60028 0.15769 0.20384 0.0
C2109 C 0.60138 0.14287 0.20069 0.0
C2110 C 0.60123 0.13267 0.21185 0.0
C2111 C 0.60128 0.16855 0.19205 0.0
C2112 C 0.59182 0.16738 0.18024 0.0
C2113 C 0.6113 0.18019 0.19256 0.0
C2114 C 0.62207 0.18167 0.20433 0.0
C2115 C 0.6316 0.17037 0.20732 0.0
C2116 C 0.6416 0.17177 0.21855 0.0
C2117 C 0.64225 0.18447 0.22679 0.0
C2118 C 0.63293 0.19581 0.22379 0.0
C2119 C 0.6229 0.19446 0.21258 0.0
H2120 H 0.64999 0.18553 0.23548 0.0
H2121 H 0.55377 0.17269 0.12564 0.0
H2122 H 0.88176 0.61454 0.20059 0.0
H2123 H 0.86191 0.61391 0.18318 0.0
H2124 H 0.83219 0.60424 0.2177 0.0
H2125 H 0.85194 0.60484 0.23514 0.0
H2126 H 0.82712 0.58765 0.19295 0.0
H2127 H 0.83436 0.63764 0.20602 0.0
H2128 H 0.84846 0.66012 0.20958 0.0
H2129 H 0.85932 0.66059 0.16441 0.0
H2130 H 0.84543 0.63798 0.16062 0.0
H2131 H 0.76317 0.60558 0.15424 0.0
H2132 H 0.78223 0.60473 0.17256 0.0
H2133 H 0.81356 0.61646 0.14015 0.0
H2134 H 0.79467 0.61747 0.12192 0.0
H2135 H 0.81726 0.63198 0.16459 0.0
H2136 H 0.81037 0.58208 0.15131 0.0
H2137 H 0.79632 0.55961 0.14744 0.0
H2138 H 0.78498 0.5588 0.19248 0.0
H2139 H 0.7988 0.5814 0.19658 0.0
C2140 C 0.87101 0.61222 0.20444 0.0
C2141 C 0.86836 0.60987 0.21922 0.0
C2142 C 0.8597 0.61187 0.19451 0.0
C2143 C 0.84559 0.60916 0.19921 0.0
C2144 C 0.843 0.60636 0.21388 0.0
C2145 C 0.85428 0.60679 0.22382 0.0
C2146 C 0.83347 0.60977 0.1889 0.0
C2147 C 0.82483 0.59738 0.18686 0.0
C2148 C 0.83067 0.62241 0.18084 0.0
C2149 C 0.83897 0.63604 0.18307 0.0
C2150 C 0.83985 0.64247 0.19687 0.0
C2151 C 0.84779 0.65524 0.19892 0.0
C2152 C 0.85481 0.66175 0.18723 0.0
C2153 C 0.85388 0.65552 0.17346 0.0
C2154 C 0.84597 0.64273 0.17135 0.0
C2155 C 0.77412 0.608 0.15106 0.0
C2156 C 0.77745 0.61157 0.13667 0.0
C2157 C 0.78499 0.60745 0.1615 0.0
C2158 C 0.7993 0.61043 0.15766 0.0
C2159 C 0.80258 0.61414 0.14333 0.0
C2160 C 0.79177 0.61466 0.13292 0.0
C2161 C 0.81096 0.60982 0.16851 0.0
C2162 C 0.81951 0.62224 0.17068 0.0
C2163 C 0.81369 0.59719 0.17663 0.0
C2164 C 0.80549 0.58352 0.17422 0.0
C2165 C 0.80479 0.57718 0.16037 0.0
C2166 C 0.79688 0.56441 0.15813 0.0
C2167 C 0.78972 0.55781 0.16969 0.0
C2168 C 0.79051 0.56394 0.18353 0.0
C2169 C 0.79838 0.57672 0.18582 0.0
H2170 H 0.7836 0.54793 0.16794 0.0
H2171 H 0.86095 0.67165 0.18884 0.0
H2172 H 0.39414 0.75884 0.1521 0.0
H2173 H 0.39605 0.77541 0.17272 0.0
H2174 H 0.39276 0.81184 0.14386 0.0
H2175 H 0.39104 0.79533 0.12315 0.0
H2176 H 0.41329 0.8164 0.16421 0.0
H2177 H 0.36391 0.79994 0.16311 0.0
H2178 H 0.34446 0.7816 0.16298 0.0
H2179 H 0.35886 0.76555 0.20402 0.0
H2180 H 0.37853 0.78368 0.20429 0.0
H2181 H 0.3892 0.87303 0.20788 0.0
H2182 H 0.39097 0.85347 0.19028 0.0
H2183 H 0.39702 0.82283 0.22483 0.0
H2184 H 0.39528 0.84253 0.24268 0.0
H2185 H 0.37724 0.81349 0.20366 0.0
H2186 H 0.42497 0.83225 0.20598 0.0
H2187 H 0.44356 0.85146 0.20627 0.0
H2188 H 0.43206 0.8636 0.163 0.0
H2189 H 0.41318 0.84466 0.16255 0.0
C2190 C 0.39385 0.77038 0.15014 0.0
C2191 C 0.39234 0.7758 0.13602 0.0
C2192 C 0.39492 0.77983 0.16194 0.0
C2193 C 0.39439 0.79485 0.15984 0.0
C2194 C 0.39319 0.80028 0.14572 0.0
C2195 C 0.39214 0.79084 0.13391 0.0
C2196 C 0.39474 0.80493 0.17236 0.0
C2197 C 0.40536 0.81582 0.17279 0.0
C2198 C 0.38464 0.80391 0.18377 0.0
C2199 C 0.37279 0.79305 0.18364 0.0
C2200 C 0.363 0.79242 0.17205 0.0
C2201 C 0.35192 0.78208 0.17196 0.0
C2202 C 0.35045 0.77239 0.18346 0.0
C2203 C 0.36003 0.77305 0.1951 0.0
C2204 C 0.37114 0.78336 0.19524 0.0
C2205 C 0.39092 0.86215 0.21179 0.0
C2206 C 0.39218 0.85932 0.22667 0.0
C2207 C 0.39197 0.85099 0.2017 0.0
C2208 C 0.39431 0.83676 0.20626 0.0
C2209 C 0.39528 0.83379 0.22112 0.0
C2210 C 0.39431 0.84502 0.23128 0.0
C2211 C 0.3956 0.8251 0.19534 0.0
C2212 C 0.38531 0.81392 0.1952 0.0
C2213 C 0.40599 0.82588 0.18419 0.0
C2214 C 0.41758 0.83708 0.18427 0.0
C2215 C 0.42634 0.83907 0.19656 0.0
C2216 C 0.43693 0.84991 0.19675 0.0
C2217 C 0.43898 0.85876 0.18467 0.0
C2218 C 0.43046 0.85674 0.17235 0.0
C2219 C 0.41981 0.84595 0.17212 0.0
H2220 H 0.44718 0.86715 0.18485 0.0
H2221 H 0.34187 0.76439 0.18337 0.0
H2222 H 0.23657 0.39026 0.1546 0.0
H2223 H 0.21842 0.3912 0.17381 0.0
H2224 H 0.18486 0.38751 0.14176 0.0
H2225 H 0.20282 0.38652 0.12262 0.0
H2226 H 0.17939 0.40862 0.16215 0.0
H2227 H 0.19402 0.35861 0.16061 0.0
H2228 H 0.21148 0.3388 0.16158 0.0
H2229 H 0.22371 0.35164 0.20462 0.0
H2230 H 0.20644 0.37167 0.20382 0.0
H2231 H 0.11848 0.38624 0.2021 0.0
H2232 H 0.13858 0.38749 0.1851 0.0
H2233 H 0.16837 0.3896 0.22086 0.0
H2234 H 0.14834 0.38825 0.23791 0.0
H2235 H 0.17706 0.37074 0.20008 0.0
H2236 H 0.16109 0.41949 0.20257 0.0
H2237 H 0.14338 0.43908 0.20191 0.0
H2238 H 0.13386 0.42903 0.15748 0.0
H2239 H 0.15132 0.40919 0.15796 0.0
C2240 C 0.22532 0.38966 0.15168 0.0
C2241 C 0.22111 0.38827 0.13712 0.0
C2242 C 0.21498 0.39019 0.16264 0.0
C2243 C 0.20031 0.38937 0.15918 0.0
C2244 C 0.19612 0.3882 0.14465 0.0
C2245 C 0.20641 0.38758 0.13373 0.0
C2246 C 0.18922 0.38944 0.17064 0.0
C2247 C 0.17881 0.40029 0.17039 0.0
C2248 C 0.18871 0.37878 0.18159 0.0
C2249 C 0.19907 0.36674 0.18209 0.0
C2250 C 0.20052 0.35729 0.17023 0.0
C2251 C 0.21037 0.346 0.17076 0.0
C2252 C 0.21874 0.34399 0.18313 0.0
C2253 C 0.21724 0.35323 0.19503 0.0
C2254 C 0.20742 0.36455 0.19455 0.0
C2255 C 0.12931 0.38696 0.20633 0.0
C2256 C 0.13185 0.38718 0.22132 0.0
C2257 C 0.14077 0.38773 0.19662 0.0
C2258 C 0.15495 0.38879 0.20174 0.0
C2259 C 0.15751 0.38881 0.2167 0.0
C2260 C 0.14605 0.38808 0.22641 0.0
C2261 C 0.16709 0.38979 0.19145 0.0
C2262 C 0.17771 0.37916 0.19193 0.0
C2263 C 0.16782 0.40069 0.18075 0.0
C2264 C 0.15744 0.41275 0.18034 0.0
C2265 C 0.15514 0.42138 0.19269 0.0
C2266 C 0.14515 0.43254 0.19235 0.0
C2267 C 0.13748 0.43528 0.17967 0.0
C2268 C 0.1398 0.42689 0.1673 0.0
C2269 C 0.14975 0.41568 0.1676 0.0
H2270 H 0.12975 0.44392 0.17942 0.0
H2271 H 0.22635 0.33524 0.18352 0.0
H2272 H 0.79833 0.61115 0.8795 0.0
H2273 H 0.81701 0.60849 0.86125 0.0
H2274 H 0.78474 0.60655 0.82773 0.0
H2275 H 0.76591 0.60878 0.84605 0.0
H2276 H 0.80455 0.58658 0.82329 0.0
H2277 H 0.80498 0.63753 0.83411 0.0
H2278 H 0.80632 0.65908 0.84989 0.0
H2279 H 0.84823 0.64673 0.86431 0.0
H2280 H 0.84707 0.62499 0.84875 0.0
H2281 H 0.84753 0.60288 0.76234 0.0
H2282 H 0.83005 0.60284 0.78196 0.0
H2283 H 0.86438 0.60205 0.81331 0.0
H2284 H 0.88204 0.60222 0.79364 0.0
H2285 H 0.84442 0.62247 0.81965 0.0
H2286 H 0.84435 0.57211 0.80746 0.0
H2287 H 0.84289 0.55093 0.7912 0.0
H2288 H 0.80012 0.56251 0.77887 0.0
H2289 H 0.80139 0.58389 0.79489 0.0
C2290 C 0.7952 0.61017 0.86825 0.0
C2291 C 0.78066 0.61023 0.86418 0.0
C2292 C 0.8059 0.6087 0.85782 0.0
C2293 C 0.80229 0.60752 0.84311 0.0
C2294 C 0.78776 0.60747 0.83903 0.0
C2295 C 0.77703 0.6088 0.84949 0.0
C2296 C 0.81366 0.60631 0.83198 0.0
C2297 C 0.81317 0.59452 0.82238 0.0
C2298 C 0.82512 0.61646 0.83106 0.0
C2299 C 0.82587 0.62956 0.84037 0.0
C2300 C 0.81444 0.63936 0.84073 0.0
C2301 C 0.81518 0.65161 0.84962 0.0
C2302 C 0.82734 0.65425 0.85813 0.0
C2303 C 0.83881 0.64466 0.85773 0.0
C2304 C 0.83812 0.63238 0.84887 0.0
C2305 C 0.85138 0.6026 0.7734 0.0
C2306 C 0.86616 0.60256 0.77646 0.0
C2307 C 0.84137 0.60251 0.7846 0.0
C2308 C 0.84592 0.6023 0.79907 0.0
C2309 C 0.86067 0.60218 0.80219 0.0
C2310 C 0.87072 0.60224 0.79096 0.0
C2311 C 0.83523 0.60281 0.81089 0.0
C2312 C 0.83584 0.61448 0.82062 0.0
C2313 C 0.82385 0.59259 0.81188 0.0
C2314 C 0.82302 0.57968 0.8023 0.0
C2315 C 0.83467 0.57021 0.8012 0.0
C2316 C 0.83387 0.55815 0.79204 0.0
C2317 C 0.82143 0.55539 0.78399 0.0
C2318 C 0.80975 0.56467 0.78511 0.0
C2319 C 0.8105 0.57675 0.79424 0.0
H2320 H 0.82083 0.54605 0.7769 0.0
H2321 H 0.82789 0.66375 0.86501 0.0
H2322 H 0.38897 0.87752 0.79603 0.0
H2323 H 0.39237 0.8589 0.81441 0.0
H2324 H 0.39676 0.82663 0.78092 0.0
H2325 H 0.39337 0.84523 0.76241 0.0
H2326 H 0.37859 0.81798 0.80298 0.0
H2327 H 0.4257 0.83863 0.79784 0.0
H2328 H 0.44344 0.85862 0.79691 0.0
H2329 H 0.43374 0.86989 0.84094 0.0
H2330 H 0.41574 0.85012 0.84204 0.0
H2331 H 0.40455 0.76103 0.84519 0.0
H2332 H 0.40335 0.78026 0.82722 0.0
H2333 H 0.40037 0.81208 0.86133 0.0
H2334 H 0.40179 0.79281 0.87949 0.0
H2335 H 0.41794 0.82127 0.83916 0.0
H2336 H 0.37056 0.80104 0.84417 0.0
H2337 H 0.35233 0.78149 0.84497 0.0
H2338 H 0.36228 0.76976 0.80113 0.0
H2339 H 0.38072 0.78912 0.80014 0.0
C2340 C 0.39066 0.86646 0.79256 0.0
C2341 C 0.39094 0.86282 0.77778 0.0
C2342 C 0.39265 0.85586 0.80308 0.0
C2343 C 0.39495 0.84144 0.79901 0.0
C2344 C 0.39503 0.83772 0.78426 0.0
C2345 C 0.39312 0.84835 0.77372 0.0
C2346 C 0.39709 0.8302 0.81016 0.0
C2347 C 0.38731 0.81858 0.81077 0.0
C2348 C 0.40826 0.83123 0.82052 0.0
C2349 C 0.41927 0.84297 0.81998 0.0
C2350 C 0.42727 0.84544 0.80729 0.0
C2351 C 0.43738 0.85672 0.80674 0.0
C2352 C 0.43969 0.86554 0.81885 0.0
C2353 C 0.43193 0.86306 0.83156 0.0
C2354 C 0.42177 0.85181 0.83216 0.0
C2355 C 0.40373 0.77212 0.84891 0.0
C2356 C 0.40312 0.7754 0.86376 0.0
C2357 C 0.40302 0.7831 0.83861 0.0
C2358 C 0.40153 0.79756 0.84294 0.0
C2359 C 0.40147 0.80096 0.85777 0.0
C2360 C 0.40223 0.78996 0.86812 0.0
C2361 C 0.39947 0.809 0.83193 0.0
C2362 C 0.40923 0.82067 0.83137 0.0
C2363 C 0.38826 0.80804 0.8216 0.0
C2364 C 0.37711 0.79644 0.82213 0.0
C2365 C 0.36893 0.79422 0.83474 0.0
C2366 C 0.35855 0.78319 0.83522 0.0
C2367 C 0.35617 0.77437 0.82312 0.0
C2368 C 0.36415 0.77659 0.8105 0.0
C2369 C 0.37456 0.7876 0.80997 0.0
H2370 H 0.34813 0.76583 0.82351 0.0
H2371 H 0.44752 0.87428 0.8184 0.0
H2372 H 0.20102 0.38486 0.87632 0.0
H2373 H 0.18293 0.38758 0.8575 0.0
H2374 H 0.2162 0.39569 0.826 0.0
H2375 H 0.23448 0.39323 0.84495 0.0
H2376 H 0.19426 0.41443 0.82306 0.0
H2377 H 0.19923 0.36314 0.82711 0.0
H2378 H 0.20021 0.33968 0.83969 0.0
H2379 H 0.1569 0.34497 0.85443 0.0
H2380 H 0.15572 0.36857 0.84209 0.0
H2381 H 0.15233 0.40129 0.76005 0.0
H2382 H 0.17002 0.40071 0.77951 0.0
H2383 H 0.1361 0.3953 0.81085 0.0
H2384 H 0.11822 0.39587 0.79133 0.0
H2385 H 0.15812 0.37555 0.81405 0.0
H2386 H 0.15319 0.42682 0.80902 0.0
H2387 H 0.15249 0.44995 0.79583 0.0
H2388 H 0.1961 0.4443 0.78219 0.0
H2389 H 0.19701 0.42101 0.79512 0.0
C2390 C 0.20453 0.3872 0.86539 0.0
C2391 C 0.21918 0.38877 0.86209 0.0
C2392 C 0.19416 0.38871 0.85463 0.0
C2393 C 0.19822 0.39166 0.84032 0.0
C2394 C 0.21285 0.39338 0.83699 0.0
C2395 C 0.22326 0.39191 0.84779 0.0
C2396 C 0.18713 0.39297 0.8289 0.0
C2397 C 0.18647 0.40586 0.82094 0.0
C2398 C 0.17678 0.3819 0.82639 0.0
C2399 C 0.17744 0.36769 0.83379 0.0
C2400 C 0.18995 0.35936 0.83313 0.0
C2401 C 0.19054 0.34602 0.8402 0.0
C2402 C 0.17864 0.34085 0.84788 0.0
C2403 C 0.16612 0.34899 0.84848 0.0
C2404 C 0.16548 0.36235 0.84145 0.0
C2405 C 0.1486 0.40008 0.77109 0.0
C2406 C 0.13388 0.3986 0.77418 0.0
C2407 C 0.15873 0.39982 0.7822 0.0
C2408 C 0.15435 0.39806 0.79661 0.0
C2409 C 0.13966 0.3967 0.79977 0.0
C2410 C 0.12948 0.39707 0.78864 0.0
C2411 C 0.16523 0.397 0.80824 0.0
C2412 C 0.16587 0.38414 0.81621 0.0
C2413 C 0.17561 0.40805 0.81068 0.0
C2414 C 0.17512 0.4221 0.80294 0.0
C2415 C 0.1626 0.43045 0.80311 0.0
C2416 C 0.16217 0.4436 0.79569 0.0
C2417 C 0.17423 0.44858 0.78815 0.0
C2418 C 0.18676 0.44043 0.78803 0.0
C2419 C 0.18724 0.42725 0.79541 0.0
H2420 H 0.17388 0.45877 0.78241 0.0
H2421 H 0.17912 0.33052 0.85335 0.0
H2422 H 0.60729 0.15181 0.76422 0.0
H2423 H 0.60474 0.17097 0.78238 0.0
H2424 H 0.60793 0.13936 0.81647 0.0
H2425 H 0.61041 0.12015 0.7984 0.0
H2426 H 0.58646 0.15867 0.82157 0.0
H2427 H 0.63635 0.16023 0.80843 0.0
H2428 H 0.65683 0.16174 0.79159 0.0
H2429 H 0.64267 0.20326 0.77695 0.0
H2430 H 0.62198 0.2019 0.79357 0.0
H2431 H 0.6012 0.20776 0.87993 0.0
H2432 H 0.60161 0.18811 0.86208 0.0
H2433 H 0.60089 0.21938 0.82749 0.0
H2434 H 0.60074 0.23901 0.84521 0.0
H2435 H 0.62097 0.19996 0.82275 0.0
H2436 H 0.57121 0.19869 0.83598 0.0
H2437 H 0.55061 0.19724 0.85267 0.0
H2438 H 0.56422 0.15542 0.86701 0.0
H2439 H 0.58503 0.15671 0.85054 0.0
C2440 C 0.60745 0.14895 0.77558 0.0
C2441 C 0.60913 0.1345 0.77989 0.0
C2442 C 0.60601 0.1599 0.78594 0.0
C2443 C 0.60627 0.15659 0.80077 0.0
C2444 C 0.60771 0.14214 0.80508 0.0
C2445 C 0.60918 0.1312 0.79474 0.0
C2446 C 0.60527 0.16822 0.8118 0.0
C2447 C 0.59409 0.16762 0.82196 0.0
C2448 C 0.61507 0.18002 0.8121 0.0
C2449 C 0.62754 0.18089 0.80214 0.0
C2450 C 0.63754 0.16963 0.80154 0.0
C2451 C 0.64919 0.17047 0.79205 0.0
C2452 C 0.65102 0.18257 0.78318 0.0
C2453 C 0.64122 0.19388 0.78381 0.0
C2454 C 0.62954 0.19309 0.79327 0.0
C2455 C 0.60102 0.21043 0.86852 0.0
C2456 C 0.60098 0.22493 0.86397 0.0
C2457 C 0.6012 0.19919 0.85833 0.0
C2458 C 0.6012 0.20227 0.84344 0.0
C2459 C 0.60093 0.21675 0.83892 0.0
C2460 C 0.60081 0.22795 0.84907 0.0
C2461 C 0.60208 0.1905 0.83251 0.0
C2462 C 0.61329 0.19104 0.82238 0.0
C2463 C 0.59228 0.17868 0.83224 0.0
C2464 C 0.57976 0.17787 0.84213 0.0
C2465 C 0.56988 0.18924 0.84278 0.0
C2466 C 0.55815 0.18844 0.85219 0.0
C2467 C 0.55613 0.17627 0.86092 0.0
C2468 C 0.56582 0.16485 0.86025 0.0
C2469 C 0.57757 0.16561 0.85087 0.0
H2470 H 0.54704 0.17566 0.8682 0.0
H2471 H 0.66006 0.18321 0.77584 0.0
H2472 H 0.84561 0.3957 0.23299 0.0
H2473 H 0.82922 0.39541 0.21242 0.0
H2474 H 0.86513 0.39736 0.18304 0.0
H2475 H 0.88174 0.39779 0.20372 0.0
H2476 H 0.84297 0.41536 0.17467 0.0
H2477 H 0.84854 0.36586 0.18759 0.0
H2478 H 0.84948 0.34489 0.20398 0.0
H2479 H 0.80543 0.35124 0.21572 0.0
H2480 H 0.80428 0.37239 0.19955 0.0
H2481 H 0.79471 0.39693 0.11598 0.0
H2482 H 0.81508 0.39694 0.13283 0.0
H2483 H 0.78574 0.39458 0.16888 0.0
H2484 H 0.76545 0.39446 0.15219 0.0
H2485 H 0.8072 0.37525 0.17141 0.0
H2486 H 0.80254 0.42609 0.15987 0.0
H2487 H 0.80166 0.44689 0.14324 0.0
H2488 H 0.84425 0.43765 0.12843 0.0
H2489 H 0.84529 0.41664 0.14482 0.0
C2490 C 0.85007 0.3961 0.22217 0.0
C2491 C 0.86498 0.39665 0.21999 0.0
C2492 C 0.84067 0.3959 0.21041 0.0
C2493 C 0.84596 0.39615 0.1962 0.0
C2494 C 0.86084 0.3971 0.19393 0.0
C2495 C 0.8703 0.3973 0.20575 0.0
C2496 C 0.8358 0.39512 0.18384 0.0
C2497 C 0.83531 0.40647 0.17378 0.0
C2498 C 0.82575 0.38356 0.18275 0.0
C2499 C 0.82636 0.37078 0.19242 0.0
C2500 C 0.83908 0.36285 0.19374 0.0
C2501 C 0.83965 0.35092 0.20298 0.0
C2502 C 0.82753 0.34675 0.21091 0.0
C2503 C 0.81481 0.35448 0.20958 0.0
C2504 C 0.81419 0.36644 0.20036 0.0
C2505 C 0.79262 0.39644 0.1275 0.0
C2506 C 0.77847 0.39569 0.13276 0.0
C2507 C 0.80426 0.39649 0.13711 0.0
C2508 C 0.80192 0.39583 0.15211 0.0
C2509 C 0.7878 0.39507 0.15734 0.0
C2510 C 0.7762 0.39504 0.14778 0.0
C2511 C 0.81406 0.3957 0.16251 0.0
C2512 C 0.81496 0.38407 0.17218 0.0
C2513 C 0.82449 0.40696 0.16317 0.0
C2514 C 0.82393 0.41969 0.15345 0.0
C2515 C 0.81167 0.42842 0.15299 0.0
C2516 C 0.81115 0.44026 0.14362 0.0
C2517 C 0.82288 0.44356 0.13475 0.0
C2518 C 0.83517 0.43506 0.13528 0.0
C2519 C 0.83573 0.42319 0.14461 0.0
H2520 H 0.82245 0.45273 0.1275 0.0
H2521 H 0.82799 0.33751 0.21806 0.0
H2522 H 0.61044 0.87864 0.20053 0.0
H2523 H 0.60945 0.85802 0.18387 0.0
H2524 H 0.60705 0.82876 0.22014 0.0
H2525 H 0.60775 0.84935 0.23684 0.0
H2526 H 0.62757 0.83615 0.18058 0.0
H2527 H 0.58738 0.79858 0.2102 0.0
H2528 H 0.56693 0.8004 0.22703 0.0
H2529 H 0.55762 0.84277 0.21082 0.0
H2530 H 0.57787 0.84111 0.19374 0.0
H2531 H 0.60607 0.75804 0.15553 0.0
H2532 H 0.60641 0.7768 0.17445 0.0
H2533 H 0.60762 0.80987 0.14159 0.0
H2534 H 0.60757 0.79135 0.12279 0.0
H2535 H 0.58845 0.79923 0.18083 0.0
H2536 H 0.62914 0.83722 0.15192 0.0
H2537 H 0.64963 0.83549 0.13513 0.0
H2538 H 0.65791 0.7924 0.15001 0.0
H2539 H 0.63761 0.79395 0.16702 0.0
C2540 C 0.60965 0.86782 0.20494 0.0
C2541 C 0.60914 0.8656 0.21997 0.0
C2542 C 0.60911 0.85605 0.19543 0.0
C2543 C 0.60805 0.84186 0.20076 0.0
C2544 C 0.60763 0.83962 0.21578 0.0
C2545 C 0.60809 0.85139 0.2253 0.0
C2546 C 0.60771 0.82943 0.19056 0.0
C2547 C 0.61893 0.82818 0.18053 0.0
C2548 C 0.59667 0.81877 0.19081 0.0
C2549 C 0.58425 0.81977 0.20081 0.0
C2550 C 0.58093 0.80826 0.21018 0.0
C2551 C 0.56938 0.80926 0.21977 0.0
C2552 C 0.56101 0.82171 0.22003 0.0
C2553 C 0.56414 0.83315 0.21064 0.0
C2554 C 0.57566 0.83219 0.20102 0.0
C2555 C 0.6064 0.76932 0.15238 0.0
C2556 C 0.60693 0.77322 0.13769 0.0
C2557 C 0.60655 0.78 0.16318 0.0
C2558 C 0.60727 0.79471 0.15942 0.0
C2559 C 0.60735 0.79858 0.14475 0.0
C2560 C 0.60728 0.78797 0.13401 0.0
C2561 C 0.60818 0.80613 0.17071 0.0
C2562 C 0.59712 0.80717 0.18095 0.0
C2563 C 0.61937 0.81663 0.17068 0.0
C2564 C 0.63177 0.81567 0.16066 0.0
C2565 C 0.63538 0.82741 0.15166 0.0
C2566 C 0.64695 0.82645 0.1421 0.0
C2567 C 0.65504 0.81383 0.14148 0.0
C2568 C 0.65161 0.80215 0.15046 0.0
C2569 C 0.64006 0.80306 0.16006 0.0
H2570 H 0.66398 0.8131 0.13405 0.0
H2571 H 0.55209 0.82248 0.22747 0.0
H2572 H 0.15377 0.60353 0.23517 0.0
H2573 H 0.16993 0.60417 0.21443 0.0
H2574 H 0.13365 0.60323 0.18539 0.0
H2575 H 0.11731 0.60238 0.2062 0.0
H2576 H 0.15491 0.58528 0.1762 0.0
H2577 H 0.15144 0.63461 0.19104 0.0
H2578 H 0.15171 0.65507 0.20823 0.0
H2579 H 0.19576 0.6467 0.21859 0.0
H2580 H 0.1957 0.62605 0.2016 0.0
H2581 H 0.20289 0.60289 0.11719 0.0
H2582 H 0.18273 0.60322 0.1343 0.0
H2583 H 0.21258 0.60463 0.17003 0.0
H2584 H 0.23262 0.60449 0.15314 0.0
H2585 H 0.19195 0.6242 0.17346 0.0
H2586 H 0.19452 0.57345 0.16047 0.0
H2587 H 0.19423 0.55283 0.14345 0.0
H2588 H 0.15183 0.56404 0.12952 0.0
H2589 H 0.15195 0.58486 0.14633 0.0
C2590 C 0.14919 0.60345 0.22438 0.0
C2591 C 0.13425 0.60301 0.22233 0.0
C2592 C 0.15846 0.60386 0.21253 0.0
C2593 C 0.153 0.60398 0.19836 0.0
C2594 C 0.13809 0.60321 0.19623 0.0
C2595 C 0.12878 0.60277 0.20813 0.0
C2596 C 0.16298 0.605 0.18588 0.0
C2597 C 0.16285 0.59393 0.17543 0.0
C2598 C 0.17341 0.61622 0.18496 0.0
C2599 C 0.17353 0.62871 0.19511 0.0
C2600 C 0.16116 0.63707 0.19705 0.0
C2601 C 0.16128 0.64871 0.20675 0.0
C2602 C 0.17373 0.65217 0.21451 0.0
C2603 C 0.18611 0.64401 0.21257 0.0
C2604 C 0.18605 0.63235 0.20289 0.0
C2605 C 0.20512 0.60323 0.1287 0.0
C2606 C 0.21934 0.60368 0.13381 0.0
C2607 C 0.19361 0.60339 0.13845 0.0
C2608 C 0.19616 0.6039 0.15345 0.0
C2609 C 0.21035 0.60429 0.15851 0.0
C2610 C 0.2218 0.60416 0.14882 0.0
C2611 C 0.18418 0.60425 0.16404 0.0
C2612 C 0.18391 0.61564 0.17411 0.0
C2613 C 0.1734 0.59334 0.16459 0.0
C2614 C 0.17331 0.58081 0.15453 0.0
C2615 C 0.18518 0.57159 0.15369 0.0
C2616 C 0.18504 0.55985 0.1441 0.0
C2617 C 0.17304 0.55715 0.13538 0.0
C2618 C 0.16113 0.56616 0.13626 0.0
C2619 C 0.16123 0.57793 0.14582 0.0
H2620 H 0.17295 0.54806 0.12796 0.0
H2621 H 0.1738 0.66119 0.22202 0.0
H2622 H 0.3919 0.20807 0.12132 0.0
H2623 H 0.39178 0.19005 0.14048 0.0
H2624 H 0.38968 0.22395 0.17262 0.0
H2625 H 0.39032 0.2422 0.15335 0.0
H2626 H 0.40749 0.20315 0.18113 0.0
H2627 H 0.35947 0.20442 0.1628 0.0
H2628 H 0.34063 0.20396 0.14402 0.0
H2629 H 0.35308 0.16117 0.13135 0.0
H2630 H 0.37212 0.16144 0.14992 0.0
H2631 H 0.38711 0.15297 0.23651 0.0
H2632 H 0.38767 0.17325 0.21954 0.0
H2633 H 0.39055 0.14328 0.18376 0.0
H2634 H 0.38968 0.12298 0.20063 0.0
H2635 H 0.37117 0.16351 0.17851 0.0
H2636 H 0.41994 0.16281 0.19623 0.0
H2637 H 0.43863 0.1633 0.21515 0.0
H2638 H 0.42446 0.20507 0.22928 0.0
H2639 H 0.40554 0.20474 0.21057 0.0
C2640 C 0.39147 0.21173 0.13245 0.0
C2641 C 0.39099 0.22654 0.13584 0.0
C2642 C 0.39134 0.2014 0.1434 0.0
C2643 C 0.39039 0.20564 0.15797 0.0
C2644 C 0.39032 0.22045 0.16144 0.0
C2645 C 0.39065 0.23085 0.15044 0.0
C2646 C 0.38927 0.19451 0.16945 0.0
C2647 C 0.39941 0.19461 0.1807 0.0
C2648 C 0.37884 0.18325 0.16878 0.0
C2649 C 0.36729 0.183 0.15769 0.0
C2650 C 0.35824 0.19494 0.15595 0.0
C2651 C 0.34752 0.19471 0.14535 0.0
C2652 C 0.34568 0.18255 0.13648 0.0
C2653 C 0.35453 0.17058 0.13822 0.0
C2654 C 0.36527 0.17076 0.1488 0.0
C2655 C 0.3879 0.15072 0.22503 0.0
C2656 C 0.38836 0.1364 0.21988 0.0
C2657 C 0.38828 0.16231 0.21535 0.0
C2658 C 0.3893 0.15978 0.2004 0.0
C2659 C 0.38976 0.14548 0.19526 0.0
C2660 C 0.38929 0.13389 0.20491 0.0
C2661 C 0.38957 0.17196 0.19001 0.0
C2662 C 0.37921 0.17209 0.17899 0.0
C2663 C 0.39976 0.18341 0.19094 0.0
C2664 C 0.41124 0.18368 0.20209 0.0
C2665 C 0.42074 0.17206 0.20343 0.0
C2666 C 0.43139 0.17231 0.21411 0.0
C2667 C 0.43271 0.18419 0.22343 0.0
C2668 C 0.42341 0.19587 0.22206 0.0
C2669 C 0.41274 0.19565 0.21142 0.0
H2670 H 0.44095 0.18437 0.2317 0.0
H2671 H 0.33738 0.1824 0.12827 0.0
H2672 H 0.8525 0.77246 0.60287 0.0
H2673 H 0.83646 0.7929 0.60065 0.0
H2674 H 0.87257 0.82245 0.60294 0.0
H2675 H 0.88889 0.80184 0.60521 0.0
H2676 H 0.8495 0.83047 0.62069 0.0
H2677 H 0.85715 0.81805 0.57143 0.0
H2678 H 0.85933 0.80178 0.55036 0.0
H2679 H 0.81517 0.78882 0.55494 0.0
H2680 H 0.81278 0.80482 0.5762 0.0
H2681 H 0.79764 0.88563 0.60505 0.0
H2682 H 0.81926 0.87084 0.60313 0.0
H2683 H 0.79284 0.83229 0.60018 0.0
H2684 H 0.7713 0.84691 0.60208 0.0
H2685 H 0.81459 0.83249 0.58015 0.0
H2686 H 0.80851 0.84149 0.63157 0.0
H2687 H 0.80628 0.85697 0.65323 0.0
H2688 H 0.84759 0.87612 0.64455 0.0
H2689 H 0.84996 0.86087 0.6227 0.0
C2690 C 0.8571 0.78329 0.60288 0.0
C2691 C 0.87198 0.78554 0.60418 0.0
C2692 C 0.84789 0.79496 0.60154 0.0
C2693 C 0.85334 0.80917 0.60145 0.0
C2694 C 0.86818 0.81154 0.60292 0.0
C2695 C 0.87747 0.79979 0.60418 0.0
C2696 C 0.84326 0.82138 0.6001 0.0
C2697 C 0.84209 0.83118 0.61165 0.0
C2698 C 0.8335 0.82213 0.58838 0.0
C2699 C 0.83482 0.8126 0.57547 0.0
C2700 C 0.84793 0.81166 0.56801 0.0
C2701 C 0.8492 0.80249 0.55602 0.0
C2702 C 0.8374 0.79426 0.55133 0.0
C2703 C 0.8243 0.79521 0.55859 0.0
C2704 C 0.82298 0.80434 0.5706 0.0
C2705 C 0.79646 0.87401 0.60395 0.0
C2706 C 0.78277 0.86742 0.60377 0.0
C2707 C 0.80881 0.86559 0.60288 0.0
C2708 C 0.80764 0.85047 0.60157 0.0
C2709 C 0.79398 0.84394 0.60114 0.0
C2710 C 0.78168 0.85231 0.6023 0.0
C2711 C 0.82054 0.84127 0.60095 0.0
C2712 C 0.82222 0.83203 0.58901 0.0
C2713 C 0.83075 0.84103 0.6123 0.0
C2714 C 0.82933 0.85019 0.62541 0.0
C2715 C 0.81705 0.8491 0.6342 0.0
C2716 C 0.81578 0.85781 0.64653 0.0
C2717 C 0.82677 0.86756 0.65023 0.0
C2718 C 0.83907 0.86859 0.64164 0.0
C2719 C 0.84039 0.85991 0.62929 0.0
H2720 H 0.82576 0.87429 0.65978 0.0
H2721 H 0.83841 0.78717 0.54205 0.0
H2722 H 0.8821 0.20036 0.38618 0.0
H2723 H 0.863 0.18206 0.38732 0.0
H2724 H 0.83137 0.2157 0.38975 0.0
H2725 H 0.85049 0.2341 0.38884 0.0
H2726 H 0.82563 0.19416 0.4088 0.0
H2727 H 0.8369 0.19784 0.35826 0.0
H2728 H 0.8527 0.19805 0.33685 0.0
H2729 H 0.86532 0.15446 0.34588 0.0
H2730 H 0.84974 0.15406 0.36746 0.0
H2731 H 0.76508 0.14937 0.39195 0.0
H2732 H 0.78374 0.16822 0.39187 0.0
H2733 H 0.81628 0.1355 0.38909 0.0
H2734 H 0.79767 0.11662 0.38894 0.0
H2735 H 0.82123 0.15695 0.37015 0.0
H2736 H 0.80984 0.15323 0.42069 0.0
H2737 H 0.79386 0.15298 0.44195 0.0
H2738 H 0.78133 0.1966 0.43291 0.0
H2739 H 0.79707 0.19703 0.41144 0.0
C2740 C 0.87108 0.20387 0.38696 0.0
C2741 C 0.86777 0.21865 0.38734 0.0
C2742 C 0.86018 0.1934 0.38757 0.0
C2743 C 0.84575 0.19753 0.38843 0.0
C2744 C 0.84243 0.21229 0.38905 0.0
C2745 C 0.85335 0.22278 0.38848 0.0
C2746 C 0.83415 0.18642 0.38857 0.0
C2747 C 0.82453 0.18614 0.40026 0.0
C2748 C 0.83292 0.17579 0.37757 0.0
C2749 C 0.84225 0.17597 0.36455 0.0
C2750 C 0.84313 0.18834 0.35574 0.0
C2751 C 0.85203 0.18848 0.34357 0.0
C2752 C 0.86004 0.17629 0.34003 0.0
C2753 C 0.85913 0.1639 0.34864 0.0
C2754 C 0.85025 0.16371 0.36084 0.0
C2755 C 0.77621 0.1462 0.39137 0.0
C2756 C 0.77993 0.13153 0.39046 0.0
C2757 C 0.78686 0.15697 0.39138 0.0
C2758 C 0.80141 0.15325 0.39061 0.0
C2759 C 0.80512 0.1386 0.3897 0.0
C2760 C 0.79448 0.12783 0.38965 0.0
C2761 C 0.81276 0.16462 0.39042 0.0
C2762 C 0.82232 0.16496 0.3787 0.0
C2763 C 0.81391 0.1753 0.40139 0.0
C2764 C 0.80454 0.17511 0.41437 0.0
C2765 C 0.8036 0.16273 0.42317 0.0
C2766 C 0.7946 0.16256 0.43527 0.0
C2767 C 0.78656 0.17476 0.43876 0.0
C2768 C 0.78755 0.18716 0.43018 0.0
C2769 C 0.79652 0.18737 0.41805 0.0
H2770 H 0.7796 0.1746 0.44813 0.0
H2771 H 0.86692 0.17642 0.3306 0.0
H2772 H 0.76514 0.84519 0.38937 0.0
H2773 H 0.78586 0.8294 0.39054 0.0
H2774 H 0.81354 0.86633 0.39848 0.0
H2775 H 0.79274 0.88235 0.3971 0.0
H2776 H 0.82537 0.84678 0.37916 0.0
H2777 H 0.80348 0.84568 0.42577 0.0
H2778 H 0.78314 0.84337 0.44262 0.0
H2779 H 0.77635 0.79928 0.42923 0.0
H2780 H 0.79631 0.80149 0.41184 0.0
H2781 H 0.88174 0.79756 0.39771 0.0
H2782 H 0.8647 0.81756 0.39874 0.0
H2783 H 0.82952 0.78718 0.39357 0.0
H2784 H 0.84636 0.76724 0.39284 0.0
H2785 H 0.82366 0.80613 0.41412 0.0
H2786 H 0.84243 0.8083 0.36524 0.0
H2787 H 0.86154 0.81056 0.34691 0.0
H2788 H 0.87381 0.85206 0.36428 0.0
H2789 H 0.85486 0.84995 0.38284 0.0
C2790 C 0.77562 0.85 0.39133 0.0
C2791 C 0.77729 0.86501 0.39327 0.0
C2792 C 0.78746 0.84094 0.39201 0.0
C2793 C 0.8012 0.84667 0.39483 0.0
C2794 C 0.803 0.8617 0.39636 0.0
C2795 C 0.79112 0.87081 0.39562 0.0
C2796 C 0.81349 0.83678 0.39651 0.0
C2797 C 0.82515 0.83805 0.38698 0.0
C2798 C 0.81311 0.8253 0.40663 0.0
C2799 C 0.80136 0.82379 0.41742 0.0
C2800 C 0.7976 0.83552 0.42634 0.0
C2801 C 0.78613 0.83422 0.43599 0.0
C2802 C 0.77848 0.82117 0.43704 0.0
C2803 C 0.78229 0.80938 0.42841 0.0
C2804 C 0.79367 0.81066 0.41863 0.0
C2805 C 0.87036 0.79517 0.39681 0.0
C2806 C 0.86539 0.78083 0.39517 0.0
C2807 C 0.86065 0.80661 0.39735 0.0
C2808 C 0.84583 0.80388 0.39612 0.0
C2809 C 0.84089 0.78955 0.39458 0.0
C2810 C 0.85055 0.77815 0.39412 0.0
C2811 C 0.8353 0.81581 0.39642 0.0
C2812 C 0.824 0.81497 0.40642 0.0
C2813 C 0.83599 0.82761 0.38669 0.0
C2814 C 0.84735 0.82889 0.37553 0.0
C2815 C 0.84928 0.81785 0.36522 0.0
C2816 C 0.86007 0.81911 0.35478 0.0
C2817 C 0.86892 0.83143 0.35446 0.0
C2818 C 0.86696 0.84252 0.36456 0.0
C2819 C 0.8562 0.8413 0.37504 0.0
H2820 H 0.87726 0.83239 0.34636 0.0
H2821 H 0.7696 0.82017 0.44451 0.0
H2822 H 0.14937 0.7632 0.39727 0.0
H2823 H 0.16988 0.78002 0.39782 0.0
H2824 H 0.14151 0.81566 0.38973 0.0
H2825 H 0.12101 0.79893 0.38903 0.0
H2826 H 0.16433 0.81593 0.3717 0.0
H2827 H 0.15628 0.80991 0.42312 0.0
H2828 H 0.15397 0.79633 0.44597 0.0
H2829 H 0.1967 0.78024 0.44079 0.0
H2830 H 0.19918 0.79354 0.4178 0.0
H2831 H 0.20686 0.87715 0.38615 0.0
H2832 H 0.18873 0.85794 0.38692 0.0
H2833 H 0.22154 0.82663 0.3958 0.0
H2834 H 0.23984 0.84596 0.39527 0.0
H2835 H 0.1982 0.82232 0.41276 0.0
H2836 H 0.20712 0.82835 0.36247 0.0
H2837 H 0.21033 0.84156 0.33952 0.0
H2838 H 0.16696 0.85653 0.34196 0.0
H2839 H 0.16355 0.84358 0.36504 0.0
C2840 C 0.1475 0.77464 0.39572 0.0
C2841 C 0.1336 0.77976 0.39305 0.0
C2842 C 0.15922 0.78423 0.3961 0.0
C2843 C 0.1572 0.79909 0.39388 0.0
C2844 C 0.1433 0.80423 0.39145 0.0
C2845 C 0.1316 0.79466 0.39108 0.0
C2846 C 0.1696 0.80927 0.39337 0.0
C2847 C 0.17164 0.81745 0.38075 0.0
C2848 C 0.17948 0.81079 0.40494 0.0
C2849 C 0.17786 0.80261 0.41865 0.0
C2850 C 0.16512 0.80335 0.42677 0.0
C2851 C 0.1638 0.79573 0.43977 0.0
C2852 C 0.17518 0.78742 0.44481 0.0
C2853 C 0.18789 0.78668 0.43686 0.0
C2854 C 0.18926 0.79426 0.42385 0.0
C2855 C 0.21025 0.86618 0.38827 0.0
C2856 C 0.22479 0.86304 0.39058 0.0
C2857 C 0.19987 0.8552 0.38865 0.0
C2858 C 0.20381 0.84083 0.3912 0.0
C2859 C 0.21829 0.83766 0.39375 0.0
C2860 C 0.22872 0.84868 0.3934 0.0
C2861 C 0.19269 0.82922 0.39124 0.0
C2862 C 0.19093 0.82073 0.4037 0.0
C2863 C 0.18313 0.82728 0.37945 0.0
C2864 C 0.18512 0.83509 0.36556 0.0
C2865 C 0.1983 0.83455 0.35817 0.0
C2866 C 0.20015 0.84198 0.34513 0.0
C2867 C 0.18887 0.84991 0.33931 0.0
C2868 C 0.1757 0.8504 0.3465 0.0
C2869 C 0.17379 0.843 0.35955 0.0
H2870 H 0.19032 0.85565 0.3292 0.0
H2871 H 0.17419 0.7816 0.45492 0.0
H2872 H 0.20349 0.11433 0.39315 0.0
H2873 H 0.18288 0.13064 0.39222 0.0
H2874 H 0.21175 0.16748 0.39235 0.0
H2875 H 0.23224 0.1514 0.39308 0.0
H2876 H 0.17373 0.15247 0.41039 0.0
H2877 H 0.19988 0.19281 0.36986 0.0
H2878 H 0.21692 0.19242 0.34946 0.0
H2879 H 0.20598 0.14791 0.341 0.0
H2880 H 0.18873 0.14809 0.36122 0.0
H2881 H 0.15317 0.23094 0.39182 0.0
H2882 H 0.16931 0.21039 0.39135 0.0
H2883 H 0.133 0.18099 0.39212 0.0
H2884 H 0.11668 0.20162 0.39277 0.0
H2885 H 0.172 0.18933 0.37148 0.0
H2886 H 0.14392 0.15 0.41057 0.0
H2887 H 0.12725 0.15045 0.43132 0.0
H2888 H 0.14241 0.19303 0.44281 0.0
H2889 H 0.15929 0.19275 0.42226 0.0
C2890 C 0.20541 0.12591 0.39301 0.0
C2891 C 0.21948 0.13159 0.39305 0.0
C2892 C 0.19364 0.13519 0.3925 0.0
C2893 C 0.19581 0.15024 0.39197 0.0
C2894 C 0.20984 0.15589 0.39246 0.0
C2895 C 0.22155 0.14667 0.39292 0.0
C2896 C 0.18354 0.16023 0.39074 0.0
C2897 C 0.17316 0.16035 0.40173 0.0
C2898 C 0.18291 0.17059 0.37951 0.0
C2899 C 0.19307 0.17045 0.36713 0.0
C2900 C 0.20104 0.18297 0.3636 0.0
C2901 C 0.21076 0.18277 0.35207 0.0
C2902 C 0.21256 0.17014 0.34396 0.0
C2903 C 0.20461 0.15768 0.34732 0.0
C2904 C 0.19487 0.15782 0.35883 0.0
C2905 C 0.14858 0.22011 0.39191 0.0
C2906 C 0.13365 0.2179 0.39234 0.0
C2907 C 0.15783 0.20838 0.3916 0.0
C2908 C 0.15237 0.19417 0.39175 0.0
C2909 C 0.13745 0.19187 0.39214 0.0
C2910 C 0.12815 0.20366 0.39247 0.0
C2911 C 0.16246 0.1819 0.39139 0.0
C2912 C 0.17242 0.18132 0.38003 0.0
C2913 C 0.16269 0.17116 0.40228 0.0
C2914 C 0.15272 0.17141 0.41477 0.0
C2915 C 0.14371 0.15944 0.41755 0.0
C2916 C 0.13423 0.15966 0.42927 0.0
C2917 C 0.13373 0.17178 0.43834 0.0
C2918 C 0.14276 0.18368 0.43574 0.0
C2919 C 0.15227 0.18349 0.42404 0.0
H2920 H 0.12638 0.17194 0.4474 0.0
H2921 H 0.2201 0.17001 0.33505 0.0
H2922 H 0.2036 0.11236 0.60395 0.0
H2923 H 0.18222 0.12765 0.60296 0.0
H2924 H 0.20877 0.16551 0.61038 0.0
H2925 H 0.23003 0.15047 0.61114 0.0
H2926 H 0.16986 0.14674 0.62228 0.0
H2927 H 0.19761 0.19292 0.58953 0.0
H2928 H 0.21698 0.19565 0.57154 0.0
H2929 H 0.21038 0.15165 0.55776 0.0
H2930 H 0.19069 0.14879 0.57531 0.0
H2931 H 0.1487 0.22634 0.61098 0.0
H2932 H 0.16522 0.20617 0.61012 0.0
H2933 H 0.12975 0.17649 0.60332 0.0
H2934 H 0.11298 0.19679 0.60432 0.0
H2935 H 0.17034 0.18798 0.58799 0.0
H2936 H 0.14019 0.14324 0.61866 0.0
H2937 H 0.12144 0.14043 0.63734 0.0
H2938 H 0.13347 0.18157 0.65572 0.0
H2939 H 0.15239 0.18452 0.63727 0.0
C2940 C 0.20484 0.12395 0.6054 0.0
C2941 C 0.21851 0.13024 0.60746 0.0
C2942 C 0.19262 0.13264 0.60488 0.0
C2943 C 0.19394 0.14773 0.60636 0.0
C2944 C 0.20753 0.15392 0.60893 0.0
C2945 C 0.21969 0.14529 0.60938 0.0
C2946 C 0.1813 0.15723 0.6049 0.0
C2947 C 0.1698 0.15559 0.61459 0.0
C2948 C 0.18128 0.16882 0.59491 0.0
C2949 C 0.19272 0.17062 0.58384 0.0
C2950 C 0.20018 0.18388 0.58255 0.0
C2951 C 0.21122 0.18545 0.57242 0.0
C2952 C 0.21491 0.17384 0.56351 0.0
C2953 C 0.2075 0.16065 0.56463 0.0
C2954 C 0.19639 0.15905 0.57467 0.0
C2955 C 0.14435 0.21553 0.60936 0.0
C2956 C 0.12952 0.21317 0.6077 0.0
C2957 C 0.15384 0.20401 0.60882 0.0
C2958 C 0.14874 0.18982 0.60666 0.0
C2959 C 0.13391 0.18734 0.60512 0.0
C2960 C 0.12435 0.19894 0.60566 0.0
C2961 C 0.1592 0.17787 0.60576 0.0
C2962 C 0.17026 0.17899 0.59552 0.0
C2963 C 0.1588 0.16585 0.61524 0.0
C2964 C 0.14756 0.16417 0.62646 0.0
C2965 C 0.13883 0.15167 0.6267 0.0
C2966 C 0.12819 0.15005 0.63725 0.0
C2967 C 0.12623 0.16085 0.64767 0.0
C2968 C 0.13495 0.17325 0.6476 0.0
C2969 C 0.14562 0.17491 0.63709 0.0
H2970 H 0.11797 0.15958 0.65582 0.0
H2971 H 0.22351 0.17507 0.55574 0.0
H2972 H 0.76439 0.15052 0.61043 0.0
H2973 H 0.78336 0.16891 0.60833 0.0
H2974 H 0.81478 0.13538 0.60296 0.0
H2975 H 0.79595 0.11697 0.60564 0.0
H2976 H 0.82482 0.15534 0.62049 0.0
H2977 H 0.80176 0.15591 0.57377 0.0
H2978 H 0.78065 0.15734 0.55769 0.0
H2979 H 0.77178 0.19994 0.57379 0.0
H2980 H 0.79271 0.19871 0.59008 0.0
H2981 H 0.88056 0.2038 0.59789 0.0
H2982 H 0.86263 0.18416 0.5979 0.0
H2983 H 0.82915 0.21519 0.60522 0.0
H2984 H 0.8469 0.23479 0.60499 0.0
H2985 H 0.82089 0.19569 0.58545 0.0
H2986 H 0.84253 0.19476 0.63289 0.0
H2987 H 0.86257 0.19327 0.65026 0.0
H2988 H 0.87358 0.1515 0.6334 0.0
H2989 H 0.8537 0.15282 0.61579 0.0
C2990 C 0.77534 0.14708 0.6088 0.0
C2991 C 0.77868 0.13232 0.60814 0.0
C2992 C 0.78617 0.1576 0.60752 0.0
C2993 C 0.80049 0.15355 0.60522 0.0
C2994 C 0.80382 0.13878 0.60468 0.0
C2995 C 0.79304 0.12827 0.60618 0.0
C2996 C 0.81201 0.16467 0.60355 0.0
C2997 C 0.82407 0.16402 0.61265 0.0
C2998 C 0.81093 0.17617 0.59351 0.0
C2999 C 0.79874 0.17717 0.58323 0.0
C3000 C 0.79529 0.16557 0.57389 0.0
C3001 C 0.78335 0.16634 0.56475 0.0
C3002 C 0.77485 0.17869 0.56479 0.0
C3003 C 0.77836 0.19037 0.57381 0.0
C3004 C 0.79027 0.18965 0.58297 0.0
C3005 C 0.86937 0.20642 0.59946 0.0
C3006 C 0.86516 0.22083 0.60151 0.0
C3007 C 0.85914 0.19519 0.5995 0.0
C3008 C 0.84455 0.1982 0.6017 0.0
C3009 C 0.84033 0.21261 0.60349 0.0
C3010 C 0.85052 0.2238 0.60341 0.0
C3011 C 0.83363 0.18638 0.60244 0.0
C3012 C 0.8217 0.18691 0.59317 0.0
C3013 C 0.83481 0.17478 0.61233 0.0
C3014 C 0.84674 0.17396 0.62292 0.0
C3015 C 0.8493 0.18531 0.63281 0.0
C3016 C 0.86061 0.18448 0.64272 0.0
C3017 C 0.86937 0.17231 0.64291 0.0
C3018 C 0.8668 0.16093 0.63322 0.0
C3019 C 0.85551 0.1617 0.62328 0.0
H3020 H 0.87812 0.1717 0.65058 0.0
H3021 H 0.7655 0.17922 0.55787 0.0
H3022 H 0.20303 0.87985 0.61463 0.0
H3023 H 0.18395 0.8615 0.61286 0.0
H3024 H 0.21478 0.83009 0.59853 0.0
H3025 H 0.23391 0.84841 0.60025 0.0
H3026 H 0.19007 0.82902 0.58239 0.0
H3027 H 0.20328 0.82926 0.63255 0.0
H3028 H 0.20804 0.8401 0.65653 0.0
H3029 H 0.16446 0.85451 0.65887 0.0
H3030 H 0.1595 0.84392 0.63479 0.0
H3031 H 0.15259 0.76337 0.5974 0.0
H3032 H 0.16967 0.78364 0.59699 0.0
H3033 H 0.13585 0.81297 0.60844 0.0
H3034 H 0.11858 0.7927 0.60872 0.0
H3035 H 0.16095 0.81607 0.62551 0.0
H3036 H 0.14757 0.81418 0.57558 0.0
H3037 H 0.14318 0.80266 0.55186 0.0
H3038 H 0.18747 0.79066 0.54929 0.0
H3039 H 0.19209 0.80191 0.57313 0.0
C3040 C 0.20574 0.86904 0.61109 0.0
C3041 C 0.21997 0.86554 0.60765 0.0
C3042 C 0.19484 0.85856 0.61012 0.0
C3043 C 0.19797 0.8444 0.60568 0.0
C3044 C 0.21213 0.84096 0.60198 0.0
C3045 C 0.22306 0.85141 0.60303 0.0
C3046 C 0.18651 0.83314 0.60506 0.0
C3047 C 0.18379 0.82608 0.59184 0.0
C3048 C 0.17812 0.82955 0.61733 0.0
C3049 C 0.18107 0.83595 0.63179 0.0
C3050 C 0.19475 0.83486 0.63812 0.0
C3051 C 0.19748 0.84094 0.65174 0.0
C3052 C 0.18657 0.84803 0.6592 0.0
C3053 C 0.17291 0.84903 0.65307 0.0
C3054 C 0.17013 0.84299 0.63943 0.0
C3055 C 0.14875 0.77414 0.59976 0.0
C3056 C 0.13425 0.77646 0.6031 0.0
C3057 C 0.15852 0.78571 0.59946 0.0
C3058 C 0.154 0.7998 0.60262 0.0
C3059 C 0.13952 0.80217 0.60595 0.0
C3060 C 0.12968 0.79061 0.60606 0.0
C3061 C 0.16456 0.81191 0.60287 0.0
C3062 C 0.16714 0.8191 0.61603 0.0
C3063 C 0.17287 0.81555 0.59057 0.0
C3064 C 0.17014 0.80877 0.57622 0.0
C3065 C 0.15635 0.80896 0.57003 0.0
C3066 C 0.15382 0.8025 0.55654 0.0
C3067 C 0.16503 0.7959 0.54909 0.0
C3068 C 0.1788 0.79576 0.55509 0.0
C3069 C 0.18138 0.80219 0.56858 0.0
H3070 H 0.16306 0.79091 0.53865 0.0
H3071 H 0.1887 0.85272 0.66975 0.0
H3072 H 0.12239 0.27774 0.4455 0.0
H3073 H 0.12505 0.27205 0.47118 0.0
H3074 H 0.10776 0.2292 0.46353 0.0
H3075 H 0.10529 0.23471 0.43769 0.0
H3076 H 0.09421 0.24531 0.48635 0.0
H3077 H 0.14044 0.23016 0.47182 0.0
H3078 H 0.16374 0.23176 0.4593 0.0
H3079 H 0.17517 0.26933 0.48443 0.0
H3080 H 0.15182 0.26811 0.49695 0.0
H3081 H 0.10453 0.23173 0.56154 0.0
H3082 H 0.10741 0.22774 0.53546 0.0
H3083 H 0.12602 0.27045 0.53105 0.0
H3084 H 0.12309 0.27459 0.557 0.0
H3085 H 0.1398 0.24922 0.51401 0.0
H3086 H 0.09219 0.26679 0.52483 0.0
H3087 H 0.06867 0.26603 0.53704 0.0
H3088 H 0.05982 0.22422 0.51844 0.0
H3089 H 0.08341 0.22465 0.50629 0.0
C3090 C 0.11927 0.26706 0.44924 0.0
C3091 C 0.11359 0.25669 0.43959 0.0
C3092 C 0.12087 0.2638 0.46389 0.0
C3093 C 0.11666 0.25019 0.46919 0.0
C3094 C 0.11112 0.23974 0.45959 0.0
C3095 C 0.10976 0.2429 0.44486 0.0
C3096 C 0.1172 0.2474 0.48492 0.0
C3097 C 0.1042 0.24576 0.49239 0.0
C3098 C 0.13024 0.24828 0.49274 0.0
C3099 C 0.14431 0.2491 0.48525 0.0
C3100 C 0.14786 0.23885 0.47459 0.0
C3101 C 0.16109 0.23967 0.46751 0.0
C3102 C 0.17092 0.25066 0.47105 0.0
C3103 C 0.16754 0.26083 0.4817 0.0
C3104 C 0.15431 0.26007 0.4888 0.0
C3105 C 0.10946 0.24017 0.55505 0.0
C3106 C 0.11344 0.25354 0.56129 0.0
C3107 C 0.11107 0.23788 0.54017 0.0
C3108 C 0.11684 0.24884 0.53136 0.0
C3109 C 0.12157 0.26186 0.53769 0.0
C3110 C 0.11979 0.26423 0.5525 0.0
C3111 C 0.11679 0.2474 0.51541 0.0
C3112 C 0.12986 0.24835 0.50793 0.0
C3113 C 0.10381 0.24594 0.50756 0.0
C3114 C 0.08963 0.24566 0.51483 0.0
C3115 C 0.08528 0.25737 0.52347 0.0
C3116 C 0.07193 0.25701 0.53035 0.0
C3117 C 0.06278 0.24506 0.52857 0.0
C3118 C 0.06694 0.23345 0.51985 0.0
C3119 C 0.0803 0.23375 0.51296 0.0
H3120 H 0.05244 0.2448 0.53389 0.0
H3121 H 0.18117 0.25127 0.46556 0.0
H3122 H 0.78012 0.11759 0.5557 0.0
H3123 H 0.77534 0.12057 0.52997 0.0
H3124 H 0.7321 0.10453 0.53603 0.0
H3125 H 0.73686 0.10143 0.56199 0.0
H3126 H 0.74548 0.09078 0.51395 0.0
H3127 H 0.73766 0.13963 0.52727 0.0
H3128 H 0.742 0.16351 0.53855 0.0
H3129 H 0.78079 0.16865 0.51397 0.0
H3130 H 0.77684 0.14471 0.50272 0.0
H3131 H 0.73832 0.10125 0.43735 0.0
H3132 H 0.73325 0.10431 0.46323 0.0
H3133 H 0.77692 0.11859 0.47039 0.0
H3134 H 0.78206 0.11562 0.44468 0.0
H3135 H 0.75751 0.13484 0.48568 0.0
H3136 H 0.76752 0.08415 0.47649 0.0
H3137 H 0.76324 0.0606 0.4645 0.0
H3138 H 0.72029 0.05925 0.48129 0.0
H3139 H 0.72427 0.08292 0.49322 0.0
C3140 C 0.76953 0.11482 0.55163 0.0
C3141 C 0.7589 0.10917 0.56089 0.0
C3142 C 0.76677 0.11665 0.5369 0.0
C3143 C 0.75332 0.11288 0.53107 0.0
C3144 C 0.74254 0.10756 0.54032 0.0
C3145 C 0.74526 0.10584 0.55515 0.0
C3146 C 0.75113 0.11345 0.51515 0.0
C3147 C 0.74774 0.10052 0.50779 0.0
C3148 C 0.75429 0.12609 0.50708 0.0
C3149 C 0.75696 0.14032 0.51418 0.0
C3150 C 0.7472 0.14577 0.52438 0.0
C3151 C 0.74958 0.15934 0.53075 0.0
C3152 C 0.76164 0.1676 0.52694 0.0
C3153 C 0.77143 0.16226 0.51688 0.0
C3154 C 0.76912 0.14869 0.51049 0.0
C3155 C 0.74679 0.10521 0.44441 0.0
C3156 C 0.76064 0.10805 0.43897 0.0
C3157 C 0.74388 0.1069 0.45919 0.0
C3158 C 0.75475 0.11155 0.46873 0.0
C3159 C 0.76838 0.11498 0.46321 0.0
C3160 C 0.77133 0.11319 0.44852 0.0
C3161 C 0.75235 0.11212 0.4846 0.0
C3162 C 0.7549 0.12523 0.4919 0.0
C3163 C 0.74848 0.09965 0.49263 0.0
C3164 C 0.74613 0.08538 0.48559 0.0
C3165 C 0.75713 0.07888 0.47753 0.0
C3166 C 0.75476 0.06551 0.47076 0.0
C3167 C 0.74149 0.05846 0.47209 0.0
C3168 C 0.73056 0.06474 0.48024 0.0
C3169 C 0.73286 0.07813 0.48701 0.0
H3170 H 0.73968 0.0481 0.46685 0.0
H3171 H 0.76339 0.17818 0.53172 0.0
H3172 H 0.89456 0.71781 0.44551 0.0
H3173 H 0.89145 0.72175 0.47133 0.0
H3174 H 0.88042 0.76625 0.4635 0.0
H3175 H 0.88375 0.76248 0.43744 0.0
H3176 H 0.899 0.76393 0.48588 0.0
H3177 H 0.85431 0.74222 0.47297 0.0
H3178 H 0.83806 0.72449 0.46123 0.0
H3179 H 0.85622 0.69034 0.4865 0.0
H3180 H 0.87272 0.70781 0.49825 0.0
H3181 H 0.88615 0.76461 0.56303 0.0
H3182 H 0.88212 0.76767 0.53698 0.0
H3183 H 0.89228 0.72276 0.5299 0.0
H3184 H 0.89601 0.71954 0.5557 0.0
H3185 H 0.86919 0.72993 0.51488 0.0
H3186 H 0.91681 0.75111 0.52376 0.0
H3187 H 0.93346 0.76867 0.53523 0.0
H3188 H 0.90948 0.80383 0.51747 0.0
H3189 H 0.8926 0.78645 0.50602 0.0
C3190 C 0.8914 0.72844 0.44919 0.0
C3191 C 0.88934 0.73981 0.43935 0.0
C3192 C 0.88956 0.73066 0.464 0.0
C3193 C 0.88544 0.74422 0.46932 0.0
C3194 C 0.88351 0.75567 0.45959 0.0
C3195 C 0.88541 0.75348 0.44471 0.0
C3196 C 0.88364 0.74632 0.48513 0.0
C3197 C 0.89223 0.75672 0.49222 0.0
C3198 C 0.87483 0.7369 0.49339 0.0
C3199 C 0.8648 0.72634 0.48646 0.0
C3200 C 0.85489 0.73092 0.47597 0.0
C3201 C 0.84563 0.72091 0.46932 0.0
C3202 C 0.84611 0.7063 0.47311 0.0
C3203 C 0.85584 0.70166 0.48358 0.0
C3204 C 0.86514 0.71162 0.49026 0.0
C3205 C 0.88752 0.7554 0.5559 0.0
C3206 C 0.89142 0.74183 0.56147 0.0
C3207 C 0.88523 0.75717 0.54103 0.0
C3208 C 0.88697 0.74546 0.53149 0.0
C3209 C 0.89079 0.73194 0.53706 0.0
C3210 C 0.89296 0.73013 0.55185 0.0
C3211 C 0.88509 0.74702 0.51563 0.0
C3212 C 0.87571 0.73735 0.50852 0.0
C3213 C 0.89317 0.75711 0.50739 0.0
C3214 C 0.90337 0.7675 0.51419 0.0
C3215 C 0.91505 0.76259 0.52238 0.0
C3216 C 0.92453 0.7725 0.52886 0.0
C3217 C 0.9225 0.78736 0.52711 0.0
C3218 C 0.91102 0.79232 0.51884 0.0
C3219 C 0.9015 0.78245 0.51235 0.0
H3220 H 0.92985 0.79502 0.53214 0.0
H3221 H 0.83894 0.69856 0.46793 0.0
H3222 H 0.21692 0.89914 0.44415 0.0
H3223 H 0.22084 0.8989 0.4702 0.0
H3224 H 0.26453 0.88558 0.46365 0.0
H3225 H 0.26078 0.88595 0.4373 0.0
H3226 H 0.24778 0.86997 0.48653 0.0
H3227 H 0.26239 0.91744 0.47236 0.0
H3228 H 0.26053 0.94062 0.45939 0.0
H3229 H 0.22148 0.94994 0.48203 0.0
H3230 H 0.22298 0.92669 0.49497 0.0
H3231 H 0.25833 0.88644 0.56293 0.0
H3232 H 0.26237 0.88517 0.53668 0.0
H3233 H 0.22011 0.90213 0.52919 0.0
H3234 H 0.21594 0.90335 0.55518 0.0
H3235 H 0.24155 0.91615 0.51325 0.0
H3236 H 0.22529 0.86753 0.52467 0.0
H3237 H 0.22642 0.84409 0.53728 0.0
H3238 H 0.2684 0.83691 0.51973 0.0
H3239 H 0.2676 0.86044 0.50718 0.0
C3240 C 0.22736 0.89606 0.44817 0.0
C3241 C 0.23856 0.89261 0.4386 0.0
C3242 C 0.22958 0.89596 0.46309 0.0
C3243 C 0.24298 0.89232 0.46881 0.0
C3244 C 0.25411 0.88845 0.45939 0.0
C3245 C 0.25196 0.88872 0.44437 0.0
C3246 C 0.24519 0.89301 0.48466 0.0
C3247 C 0.2468 0.88009 0.4924 0.0
C3248 C 0.24369 0.90621 0.49225 0.0
C3249 C 0.24275 0.92026 0.48456 0.0
C3250 C 0.25334 0.92437 0.47448 0.0
C3251 C 0.25236 0.93753 0.46715 0.0
C3252 C 0.24088 0.94673 0.46987 0.0
C3253 C 0.23036 0.9428 0.47994 0.0
C3254 C 0.23128 0.92963 0.48728 0.0
C3255 C 0.2499 0.88988 0.55568 0.0
C3256 C 0.23681 0.89499 0.56117 0.0
C3257 C 0.25222 0.88911 0.54071 0.0
C3258 C 0.24153 0.89357 0.53103 0.0
C3259 C 0.22851 0.89869 0.53649 0.0
C3260 C 0.22613 0.8993 0.55137 0.0
C3261 C 0.24375 0.89307 0.51516 0.0
C3262 C 0.24292 0.90606 0.5074 0.0
C3263 C 0.24597 0.87994 0.5076 0.0
C3264 C 0.24647 0.86583 0.51516 0.0
C3265 C 0.23483 0.86103 0.52363 0.0
C3266 C 0.23539 0.84771 0.53073 0.0
C3267 C 0.2475 0.83904 0.52935 0.0
C3268 C 0.25905 0.84366 0.52082 0.0
C3269 C 0.25854 0.85698 0.51371 0.0
H3270 H 0.24792 0.82873 0.53485 0.0
H3271 H 0.24014 0.95693 0.46418 0.0
H3272 H 0.10275 0.75834 0.56119 0.0
H3273 H 0.10198 0.76285 0.53513 0.0
H3274 H 0.1131 0.71846 0.52675 0.0
H3275 H 0.11369 0.71374 0.55284 0.0
H3276 H 0.12839 0.7402 0.50941 0.0
H3277 H 0.08073 0.72521 0.5229 0.0
H3278 H 0.0587 0.72581 0.53764 0.0
H3279 H 0.05199 0.77 0.52539 0.0
H3280 H 0.07414 0.76975 0.51077 0.0
H3281 H 0.10852 0.73996 0.4346 0.0
H3282 H 0.10987 0.73333 0.46024 0.0
H3283 H 0.09555 0.77589 0.47231 0.0
H3284 H 0.09427 0.78265 0.44681 0.0
H3285 H 0.0817 0.7537 0.48765 0.0
H3286 H 0.12909 0.7693 0.4749 0.0
H3287 H 0.15113 0.76951 0.46025 0.0
H3288 H 0.15874 0.72518 0.47143 0.0
H3289 H 0.13645 0.72459 0.48586 0.0
C3290 C 0.10517 0.74955 0.55383 0.0
C3291 C 0.10821 0.73565 0.55909 0.0
C3292 C 0.10468 0.75215 0.53895 0.0
C3293 C 0.10738 0.74095 0.52907 0.0
C3294 C 0.11097 0.72722 0.53425 0.0
C3295 C 0.11125 0.72454 0.54914 0.0
C3296 C 0.1059 0.74352 0.51334 0.0
C3297 C 0.11816 0.74292 0.50458 0.0
C3298 C 0.09258 0.74735 0.50718 0.0
C3299 C 0.07918 0.74751 0.51586 0.0
C3300 C 0.07464 0.7351 0.52346 0.0
C3301 C 0.06211 0.73537 0.53177 0.0
C3302 C 0.05397 0.74795 0.53249 0.0
C3303 C 0.05832 0.76027 0.52485 0.0
C3304 C 0.07085 0.76007 0.51654 0.0
C3305 C 0.10561 0.74789 0.44271 0.0
C3306 C 0.10136 0.76186 0.43866 0.0
C3307 C 0.10641 0.74409 0.45734 0.0
C3308 C 0.10285 0.75414 0.46814 0.0
C3309 C 0.09832 0.76797 0.46413 0.0
C3310 C 0.09768 0.77184 0.44955 0.0
C3311 C 0.10421 0.75043 0.48368 0.0
C3312 C 0.09192 0.75085 0.49243 0.0
C3313 C 0.11752 0.74651 0.48983 0.0
C3314 C 0.131 0.74684 0.4813 0.0
C3315 C 0.13538 0.75954 0.47412 0.0
C3316 C 0.14793 0.75974 0.46587 0.0
C3317 C 0.15635 0.74737 0.46489 0.0
C3318 C 0.1522 0.73476 0.47218 0.0
C3319 C 0.13959 0.73448 0.48038 0.0
H3320 H 0.16608 0.74756 0.45851 0.0
H3321 H 0.04428 0.74813 0.53892 0.0
H3322 H 0.28323 0.11863 0.44311 0.0
H3323 H 0.27961 0.12 0.46918 0.0
H3324 H 0.23534 0.10692 0.46376 0.0
H3325 H 0.23877 0.10581 0.43747 0.0
H3326 H 0.23848 0.12758 0.48501 0.0
H3327 H 0.25918 0.08205 0.47335 0.0
H3328 H 0.27633 0.06555 0.46175 0.0
H3329 H 0.31107 0.08575 0.48511 0.0
H3330 H 0.29416 0.10252 0.49671 0.0
H3331 H 0.23793 0.10684 0.56156 0.0
H3332 H 0.23457 0.10801 0.53521 0.0
H3333 H 0.27851 0.12231 0.53024 0.0
H3334 H 0.28199 0.12112 0.55628 0.0
H3335 H 0.27217 0.09835 0.51412 0.0
H3336 H 0.25131 0.14522 0.52407 0.0
H3337 H 0.23403 0.16207 0.53489 0.0
H3338 H 0.19913 0.13862 0.515 0.0
H3339 H 0.21624 0.12156 0.50411 0.0
C3340 C 0.27267 0.11615 0.4474 0.0
C3341 C 0.26134 0.1119 0.43822 0.0
C3342 C 0.27063 0.11693 0.46232 0.0
C3343 C 0.25729 0.11325 0.46841 0.0
C3344 C 0.24573 0.10971 0.45927 0.0
C3345 C 0.24774 0.10906 0.44426 0.0
C3346 C 0.25581 0.11237 0.48435 0.0
C3347 C 0.24567 0.12101 0.4914 0.0
C3348 C 0.2652 0.10379 0.49266 0.0
C3349 C 0.2754 0.0936 0.48583 0.0
C3350 C 0.27049 0.08303 0.47596 0.0
C3351 C 0.28017 0.07362 0.46939 0.0
C3352 C 0.29479 0.07462 0.47268 0.0
C3353 C 0.29975 0.08499 0.48257 0.0
C3354 C 0.29012 0.09444 0.48916 0.0
C3355 C 0.24679 0.11046 0.55486 0.0
C3356 C 0.26029 0.11366 0.56101 0.0
C3357 C 0.24484 0.11115 0.53982 0.0
C3358 C 0.25634 0.11514 0.5308 0.0
C3359 C 0.26954 0.11908 0.53701 0.0
C3360 C 0.27151 0.11836 0.55193 0.0
C3361 C 0.25527 0.11403 0.51484 0.0
C3362 C 0.26487 0.10483 0.50776 0.0
C3363 C 0.24532 0.122 0.50659 0.0
C3364 C 0.23503 0.13203 0.51342 0.0
C3365 C 0.23994 0.14356 0.52214 0.0
C3366 C 0.23017 0.15318 0.52824 0.0
C3367 C 0.21548 0.15141 0.52567 0.0
C3368 C 0.21051 0.13998 0.51699 0.0
C3369 C 0.22024 0.13035 0.51084 0.0
H3370 H 0.20794 0.15891 0.53035 0.0
H3371 H 0.30227 0.06733 0.46757 0.0
H3372 H 0.89123 0.28466 0.5503 0.0
H3373 H 0.88943 0.2799 0.52435 0.0
H3374 H 0.88174 0.23461 0.53288 0.0
H3375 H 0.88369 0.23919 0.55885 0.0
H3376 H 0.90241 0.2383 0.51322 0.0
H3377 H 0.85496 0.25647 0.52046 0.0
H3378 H 0.83686 0.27393 0.52864 0.0
H3379 H 0.85486 0.30627 0.50049 0.0
H3380 H 0.8732 0.28906 0.49229 0.0
H3381 H 0.88668 0.21583 0.44237 0.0
H3382 H 0.8837 0.22187 0.46788 0.0
H3383 H 0.89239 0.26683 0.45857 0.0
H3384 H 0.8952 0.26093 0.43286 0.0
H3385 H 0.87087 0.26366 0.47848 0.0
H3386 H 0.91861 0.24598 0.47182 0.0
H3387 H 0.93695 0.22877 0.46364 0.0
H3388 H 0.91867 0.19584 0.49093 0.0
H3389 H 0.90009 0.21281 0.49912 0.0
C3390 C 0.88898 0.2737 0.5467 0.0
C3391 C 0.88769 0.26229 0.55672 0.0
C3392 C 0.88789 0.27102 0.53183 0.0
C3393 C 0.88538 0.25691 0.52667 0.0
C3394 C 0.8837 0.24558 0.53663 0.0
C3395 C 0.8848 0.24823 0.55149 0.0
C3396 C 0.88548 0.25379 0.51089 0.0
C3397 C 0.89534 0.24368 0.50566 0.0
C3398 C 0.87658 0.26115 0.50097 0.0
C3399 C 0.86554 0.27151 0.50587 0.0
C3400 C 0.85514 0.26734 0.51611 0.0
C3401 C 0.84482 0.27719 0.52073 0.0
C3402 C 0.84473 0.29121 0.51512 0.0
C3403 C 0.85495 0.29541 0.50484 0.0
C3404 C 0.8653 0.28561 0.50019 0.0
C3405 C 0.88789 0.22704 0.44568 0.0
C3406 C 0.89136 0.23788 0.43555 0.0
C3407 C 0.88619 0.23046 0.46029 0.0
C3408 C 0.88807 0.24475 0.46516 0.0
C3409 C 0.89094 0.25571 0.45504 0.0
C3410 C 0.89258 0.25231 0.44036 0.0
C3411 C 0.88769 0.24807 0.48089 0.0
C3412 C 0.87787 0.25825 0.48607 0.0
C3413 C 0.89666 0.24083 0.49082 0.0
C3414 C 0.90788 0.23063 0.48597 0.0
C3415 C 0.91844 0.23504 0.476 0.0
C3416 C 0.92888 0.22534 0.47137 0.0
C3417 C 0.92895 0.21121 0.47673 0.0
C3418 C 0.91859 0.20678 0.48677 0.0
C3419 C 0.90811 0.21644 0.49141 0.0
H3420 H 0.93705 0.20372 0.47314 0.0
H3421 H 0.83674 0.29882 0.51871 0.0
H3422 H 0.75789 0.88848 0.43837 0.0
H3423 H 0.76111 0.88735 0.46468 0.0
H3424 H 0.71652 0.87532 0.46966 0.0
H3425 H 0.71315 0.87661 0.44358 0.0
H3426 H 0.72335 0.8981 0.48606 0.0
H3427 H 0.7437 0.85113 0.47628 0.0
H3428 H 0.76047 0.83363 0.46567 0.0
H3429 H 0.79611 0.85687 0.48443 0.0
H3430 H 0.77952 0.87456 0.49512 0.0
H3431 H 0.71518 0.87888 0.55815 0.0
H3432 H 0.71749 0.87753 0.53194 0.0
H3433 H 0.762 0.89051 0.53513 0.0
H3434 H 0.75988 0.89163 0.56157 0.0
H3435 H 0.75789 0.86942 0.51469 0.0
H3436 H 0.73743 0.9152 0.52606 0.0
H3437 H 0.72056 0.93189 0.53781 0.0
H3438 H 0.68522 0.91105 0.51595 0.0
H3439 H 0.70186 0.89409 0.50423 0.0
C3440 C 0.74883 0.88537 0.44506 0.0
C3441 C 0.73521 0.88284 0.43888 0.0
C3442 C 0.75071 0.88468 0.46009 0.0
C3443 C 0.73903 0.88131 0.46913 0.0
C3444 C 0.72565 0.87806 0.4629 0.0
C3445 C 0.72374 0.87882 0.44796 0.0
C3446 C 0.74024 0.8824 0.4851 0.0
C3447 C 0.73081 0.8917 0.49231 0.0
C3448 C 0.75039 0.87454 0.49322 0.0
C3449 C 0.76039 0.86425 0.48636 0.0
C3450 C 0.75512 0.85261 0.47799 0.0
C3451 C 0.7646 0.84262 0.47201 0.0
C3452 C 0.77936 0.84415 0.47435 0.0
C3453 C 0.78468 0.8557 0.48263 0.0
C3454 C 0.77525 0.86569 0.48867 0.0
C3455 C 0.7255 0.88139 0.55334 0.0
C3456 C 0.7373 0.88555 0.56196 0.0
C3457 C 0.72679 0.88063 0.53833 0.0
C3458 C 0.73983 0.88423 0.53159 0.0
C3459 C 0.75182 0.88779 0.54014 0.0
C3460 C 0.75057 0.88844 0.55523 0.0
C3461 C 0.74064 0.88469 0.51558 0.0
C3462 C 0.75051 0.87587 0.50839 0.0
C3463 C 0.73093 0.89303 0.50741 0.0
C3464 C 0.72089 0.90331 0.51434 0.0
C3465 C 0.72605 0.91412 0.52383 0.0
C3466 C 0.71653 0.92363 0.53048 0.0
C3467 C 0.70183 0.92252 0.52765 0.0
C3468 C 0.69662 0.9119 0.51814 0.0
C3469 C 0.70609 0.90235 0.51147 0.0
H3470 H 0.69447 0.92989 0.53281 0.0
H3471 H 0.78667 0.83636 0.46979 0.0
H3472 H 0.44414 0.11763 0.21712 0.0
H3473 H 0.46934 0.11954 0.224 0.0
H3474 H 0.45827 0.11013 0.26834 0.0
H3475 H 0.4329 0.10832 0.2616 0.0
H3476 H 0.47956 0.13115 0.26619 0.0
H3477 H 0.46988 0.08354 0.24753 0.0
H3478 H 0.46079 0.06563 0.22982 0.0
H3479 H 0.48987 0.08235 0.19777 0.0
H3480 H 0.49899 0.10052 0.21524 0.0
H3481 H 0.549 0.10718 0.288 0.0
H3482 H 0.52341 0.10947 0.28288 0.0
H3483 H 0.53291 0.11762 0.23792 0.0
H3484 H 0.55848 0.11522 0.24285 0.0
H3485 H 0.51219 0.09732 0.24099 0.0
H3486 H 0.52221 0.14478 0.26007 0.0
H3487 H 0.53125 0.16248 0.27801 0.0
H3488 H 0.50173 0.14572 0.30964 0.0
H3489 H 0.49264 0.12778 0.29193 0.0
C3490 C 0.44699 0.11609 0.22837 0.0
C3491 C 0.43649 0.11261 0.23877 0.0
C3492 C 0.46143 0.11718 0.23228 0.0
C3493 C 0.46568 0.11472 0.24662 0.0
C3494 C 0.45519 0.11201 0.25719 0.0
C3495 C 0.44071 0.11095 0.25331 0.0
C3496 C 0.48112 0.11412 0.25034 0.0
C3497 C 0.48669 0.12365 0.26082 0.0
C3498 C 0.49041 0.10445 0.24316 0.0
C3499 C 0.48501 0.09348 0.23265 0.0
C3500 C 0.47426 0.08348 0.23667 0.0
C3501 C 0.46911 0.07326 0.22669 0.0
C3502 C 0.47472 0.07288 0.21267 0.0
C3503 C 0.48552 0.08268 0.20862 0.0
C3504 C 0.49069 0.09293 0.21857 0.0
C3505 C 0.54568 0.10956 0.27703 0.0
C3506 C 0.55583 0.11096 0.26583 0.0
C3507 C 0.53103 0.11093 0.27415 0.0
C3508 C 0.52627 0.11381 0.26004 0.0
C3509 C 0.53637 0.11539 0.24889 0.0
C3510 C 0.551 0.11403 0.25175 0.0
C3511 C 0.51073 0.11449 0.25673 0.0
C3512 C 0.50511 0.10487 0.24635 0.0
C3513 C 0.50143 0.12404 0.26405 0.0
C3514 C 0.50684 0.13484 0.27471 0.0
C3515 C 0.51773 0.14479 0.27088 0.0
C3516 C 0.52284 0.15488 0.28101 0.0
C3517 C 0.5171 0.1552 0.29497 0.0
C3518 C 0.50619 0.14544 0.29882 0.0
C3519 C 0.50104 0.13532 0.28874 0.0
H3520 H 0.52107 0.16302 0.30279 0.0
H3521 H 0.47073 0.06496 0.20495 0.0
H3522 H 0.88593 0.56683 0.25927 0.0
H3523 H 0.88163 0.54136 0.26524 0.0
H3524 H 0.89635 0.52886 0.22277 0.0
H3525 H 0.90022 0.5542 0.21658 0.0
H3526 H 0.87367 0.5134 0.22968 0.0
H3527 H 0.918 0.52707 0.25396 0.0
H3528 H 0.93294 0.54171 0.27066 0.0
H3529 H 0.90547 0.52983 0.3061 0.0
H3530 H 0.89027 0.51526 0.28956 0.0
H3531 H 0.89331 0.44047 0.23896 0.0
H3532 H 0.89192 0.46642 0.23456 0.0
H3533 H 0.87785 0.47317 0.27855 0.0
H3534 H 0.87976 0.44724 0.28319 0.0
H3535 H 0.89763 0.49195 0.27236 0.0
H3536 H 0.85469 0.47606 0.24828 0.0
H3537 H 0.84019 0.46111 0.23148 0.0
H3538 H 0.86503 0.47689 0.19558 0.0
H3539 H 0.87981 0.49179 0.21219 0.0
C3540 C 0.88822 0.55865 0.2512 0.0
C3541 C 0.89349 0.56256 0.23747 0.0
C3542 C 0.88579 0.54409 0.25464 0.0
C3543 C 0.88885 0.53317 0.24451 0.0
C3544 C 0.89389 0.53708 0.23075 0.0
C3545 C 0.89614 0.5516 0.22724 0.0
C3546 C 0.88713 0.51763 0.24822 0.0
C3547 C 0.87898 0.50868 0.23896 0.0
C3548 C 0.89373 0.51153 0.26055 0.0
C3549 C 0.90292 0.52021 0.2705 0.0
C3550 C 0.9151 0.52766 0.26529 0.0
C3551 C 0.92362 0.53593 0.27474 0.0
C3552 C 0.92013 0.53673 0.28943 0.0
C3553 C 0.90814 0.52922 0.29472 0.0
C3554 C 0.89958 0.52095 0.28532 0.0
C3555 C 0.88977 0.44745 0.24766 0.0
C3556 C 0.88666 0.44179 0.26143 0.0
C3557 C 0.8889 0.4623 0.24511 0.0
C3558 C 0.88457 0.47176 0.25617 0.0
C3559 C 0.88121 0.46609 0.26985 0.0
C3560 C 0.88229 0.45127 0.27248 0.0
C3561 C 0.88436 0.48763 0.25368 0.0
C3562 C 0.89214 0.49666 0.26318 0.0
C3563 C 0.87743 0.49378 0.24155 0.0
C3564 C 0.86842 0.48498 0.23151 0.0
C3565 C 0.85711 0.47629 0.23682 0.0
C3566 C 0.84884 0.46783 0.22732 0.0
C3567 C 0.8517 0.46803 0.21248 0.0
C3568 C 0.86282 0.47674 0.20709 0.0
C3569 C 0.87114 0.48521 0.21653 0.0
H3570 H 0.84529 0.46146 0.20515 0.0
H3571 H 0.92673 0.54315 0.29672 0.0
H3572 H 0.56352 0.89344 0.25829 0.0
H3573 H 0.53761 0.89154 0.26285 0.0
H3574 H 0.52975 0.88881 0.2169 0.0
H3575 H 0.55535 0.89066 0.21223 0.0
H3576 H 0.51327 0.90932 0.23024 0.0
H3577 H 0.52678 0.8594 0.23731 0.0
H3578 H 0.54027 0.83974 0.24885 0.0
H3579 H 0.52252 0.85107 0.29019 0.0
H3580 H 0.50907 0.87095 0.27891 0.0
H3581 H 0.44487 0.88286 0.21676 0.0
H3582 H 0.47078 0.88316 0.21995 0.0
H3583 H 0.4656 0.89064 0.26573 0.0
H3584 H 0.43941 0.89051 0.26267 0.0
H3585 H 0.48849 0.86976 0.25695 0.0
H3586 H 0.47311 0.91836 0.24916 0.0
H3587 H 0.45936 0.93754 0.23716 0.0
H3588 H 0.48075 0.92862 0.19701 0.0
H3589 H 0.49448 0.90921 0.20873 0.0
C3590 C 0.55627 0.89232 0.24917 0.0
C3591 C 0.56156 0.89231 0.23488 0.0
C3592 C 0.54148 0.89122 0.2518 0.0
C3593 C 0.53177 0.8901 0.2402 0.0
C3594 C 0.53705 0.88977 0.226 0.0
C3595 C 0.55175 0.8908 0.22337 0.0
C3596 C 0.51604 0.88979 0.24256 0.0
C3597 C 0.50787 0.90066 0.23607 0.0
C3598 C 0.50903 0.87873 0.25053 0.0
C3599 C 0.51707 0.86677 0.2573 0.0
C3600 C 0.52586 0.85779 0.24888 0.0
C3601 C 0.53347 0.84659 0.25537 0.0
C3602 C 0.53229 0.84419 0.27025 0.0
C3603 C 0.52345 0.85296 0.27867 0.0
C3604 C 0.51583 0.86419 0.27224 0.0
C3605 C 0.44914 0.88446 0.22757 0.0
C3606 C 0.44 0.88689 0.23944 0.0
C3607 C 0.46399 0.88458 0.22936 0.0
C3608 C 0.47007 0.88708 0.24304 0.0
C3609 C 0.46107 0.88872 0.25508 0.0
C3610 C 0.44612 0.88868 0.25329 0.0
C3611 C 0.48581 0.88906 0.24426 0.0
C3612 C 0.49395 0.87857 0.2514 0.0
C3613 C 0.49286 0.90048 0.23688 0.0
C3614 C 0.48475 0.91226 0.22981 0.0
C3615 C 0.47481 0.92041 0.23775 0.0
C3616 C 0.46702 0.93134 0.231 0.0
C3617 C 0.46916 0.93428 0.21633 0.0
C3618 C 0.4791 0.92632 0.20838 0.0
C3619 C 0.4869 0.91537 0.21507 0.0
H3620 H 0.46313 0.94274 0.21112 0.0
H3621 H 0.53819 0.83551 0.27526 0.0
H3622 H 0.11348 0.5497 0.28512 0.0
H3623 H 0.11443 0.5239 0.27948 0.0
H3624 H 0.11235 0.53348 0.23386 0.0
H3625 H 0.11134 0.55933 0.23936 0.0
H3626 H 0.09294 0.51255 0.24188 0.0
H3627 H 0.14322 0.52233 0.24846 0.0
H3628 H 0.16468 0.53148 0.26133 0.0
H3629 H 0.15614 0.50232 0.29648 0.0
H3630 H 0.13449 0.49313 0.2839 0.0
H3631 H 0.10714 0.44284 0.21496 0.0
H3632 H 0.10995 0.46849 0.2207 0.0
H3633 H 0.11086 0.45853 0.26627 0.0
H3634 H 0.10804 0.43275 0.26067 0.0
H3635 H 0.1312 0.47953 0.25842 0.0
H3636 H 0.08088 0.47028 0.25269 0.0
H3637 H 0.05912 0.46102 0.24041 0.0
H3638 H 0.06737 0.4892 0.2044 0.0
H3639 H 0.08931 0.49849 0.2164 0.0
C3640 C 0.11335 0.54636 0.27387 0.0
C3641 C 0.11229 0.55663 0.2627 0.0
C3642 C 0.11395 0.53159 0.27067 0.0
C3643 C 0.11353 0.52678 0.25625 0.0
C3644 C 0.11269 0.53698 0.24507 0.0
C3645 C 0.11217 0.55176 0.24824 0.0
C3646 C 0.11327 0.51108 0.25287 0.0
C3647 C 0.10142 0.50538 0.24529 0.0
C3648 C 0.12412 0.50166 0.25773 0.0
C3649 C 0.13715 0.50714 0.2653 0.0
C3650 C 0.14584 0.51795 0.25899 0.0
C3651 C 0.15806 0.52313 0.26622 0.0
C3652 C 0.16175 0.51751 0.27973 0.0
C3653 C 0.15325 0.50667 0.28602 0.0
C3654 C 0.14102 0.50147 0.27884 0.0
C3655 C 0.10801 0.44604 0.22622 0.0
C3656 C 0.1072 0.4357 0.23736 0.0
C3657 C 0.10961 0.46073 0.22947 0.0
C3658 C 0.11043 0.46541 0.24391 0.0
C3659 C 0.1102 0.45512 0.25505 0.0
C3660 C 0.10854 0.4404 0.25182 0.0
C3661 C 0.11095 0.48108 0.24733 0.0
C3662 C 0.12277 0.48675 0.25496 0.0
C3663 C 0.10003 0.49048 0.24261 0.0
C3664 C 0.08682 0.48497 0.23538 0.0
C3665 C 0.07812 0.47442 0.2421 0.0
C3666 C 0.06574 0.46918 0.2352 0.0
C3667 C 0.06189 0.47449 0.22161 0.0
C3668 C 0.07038 0.48508 0.21492 0.0
C3669 C 0.08278 0.49035 0.22177 0.0
H3670 H 0.0523 0.47042 0.21629 0.0
H3671 H 0.17122 0.52153 0.28531 0.0
H3672 H 0.43393 0.88661 0.73833 0.0
H3673 H 0.45955 0.88474 0.73304 0.0
H3674 H 0.46953 0.89368 0.77781 0.0
H3675 H 0.44399 0.89555 0.78325 0.0
H3676 H 0.48574 0.91016 0.759 0.0
H3677 H 0.47279 0.86049 0.76573 0.0
H3678 H 0.45868 0.83808 0.76181 0.0
H3679 H 0.47088 0.8378 0.71699 0.0
H3680 H 0.4849 0.86036 0.72059 0.0
H3681 H 0.55896 0.89148 0.75916 0.0
H3682 H 0.53326 0.89069 0.76414 0.0
H3683 H 0.52448 0.88439 0.7187 0.0
H3684 H 0.55026 0.88524 0.71353 0.0
H3685 H 0.50767 0.86638 0.73752 0.0
H3686 H 0.5206 0.91646 0.7312 0.0
H3687 H 0.53487 0.93867 0.73567 0.0
H3688 H 0.52273 0.93787 0.7805 0.0
H3689 H 0.50857 0.91551 0.77634 0.0
C3690 C 0.44155 0.88814 0.74708 0.0
C3691 C 0.43687 0.89127 0.76122 0.0
C3692 C 0.45619 0.88701 0.74404 0.0
C3693 C 0.46641 0.88902 0.75505 0.0
C3694 C 0.4618 0.89211 0.76916 0.0
C3695 C 0.44718 0.89313 0.77224 0.0
C3696 C 0.48195 0.88826 0.75179 0.0
C3697 C 0.49057 0.90053 0.75448 0.0
C3698 C 0.48816 0.87578 0.74561 0.0
C3699 C 0.47976 0.86221 0.7434 0.0
C3700 C 0.47236 0.85573 0.755 0.0
C3701 C 0.4644 0.84299 0.75285 0.0
C3702 C 0.46385 0.83654 0.73915 0.0
C3703 C 0.4713 0.84282 0.72759 0.0
C3704 C 0.47926 0.85558 0.72968 0.0
C3705 C 0.55162 0.8898 0.7502 0.0
C3706 C 0.5567 0.88852 0.73591 0.0
C3707 C 0.53692 0.88939 0.75308 0.0
C3708 C 0.527 0.88762 0.74177 0.0
C3709 C 0.53199 0.88579 0.72757 0.0
C3710 C 0.54672 0.88634 0.72464 0.0
C3711 C 0.51142 0.88826 0.74477 0.0
C3712 C 0.50281 0.876 0.74202 0.0
C3713 C 0.5052 0.90073 0.75096 0.0
C3714 C 0.51365 0.91422 0.75349 0.0
C3715 C 0.52108 0.92095 0.74204 0.0
C3716 C 0.52913 0.93358 0.74451 0.0
C3717 C 0.52974 0.93966 0.75837 0.0
C3718 C 0.52227 0.93314 0.76978 0.0
C3719 C 0.51422 0.92049 0.76737 0.0
H3720 H 0.53598 0.94944 0.76027 0.0
H3721 H 0.45769 0.82667 0.7375 0.0
H3722 H 0.11233 0.44008 0.75729 0.0
H3723 H 0.11341 0.46585 0.76287 0.0
H3724 H 0.10901 0.47588 0.71753 0.0
H3725 H 0.10794 0.45001 0.71175 0.0
H3726 H 0.12921 0.4936 0.73169 0.0
H3727 H 0.08047 0.47789 0.73785 0.0
H3728 H 0.06098 0.46218 0.74705 0.0
H3729 H 0.07245 0.47333 0.79076 0.0
H3730 H 0.09218 0.48894 0.78181 0.0
H3731 H 0.10705 0.56677 0.74171 0.0
H3732 H 0.10911 0.54138 0.73466 0.0
H3733 H 0.11096 0.5291 0.77963 0.0
H3734 H 0.10877 0.55441 0.78682 0.0
H3735 H 0.09198 0.51258 0.76486 0.0
H3736 H 0.1408 0.52853 0.75847 0.0
H3737 H 0.16025 0.54416 0.74901 0.0
H3738 H 0.14844 0.53273 0.70547 0.0
H3739 H 0.12878 0.51718 0.71466 0.0
C3740 C 0.11169 0.44771 0.74845 0.0
C3741 C 0.1099 0.44292 0.73406 0.0
C3742 C 0.11229 0.46246 0.75168 0.0
C3743 C 0.1111 0.47276 0.74063 0.0
C3744 C 0.10991 0.46808 0.72621 0.0
C3745 C 0.10926 0.45329 0.72295 0.0
C3746 C 0.11045 0.48836 0.7443 0.0
C3747 C 0.12098 0.49781 0.73879 0.0
C3748 C 0.09982 0.49377 0.75374 0.0
C3749 C 0.08789 0.48448 0.75916 0.0
C3750 C 0.07891 0.47691 0.74943 0.0
C3751 C 0.06781 0.46803 0.7546 0.0
C3752 C 0.06549 0.46673 0.76948 0.0
C3753 C 0.07426 0.47433 0.77923 0.0
C3754 C 0.0854 0.48321 0.77412 0.0
C3755 C 0.108 0.5587 0.75012 0.0
C3756 C 0.10768 0.56267 0.76485 0.0
C3757 C 0.10923 0.54418 0.74606 0.0
C3758 C 0.11026 0.53335 0.75662 0.0
C3759 C 0.11015 0.53728 0.7713 0.0
C3760 C 0.10892 0.55178 0.77539 0.0
C3761 C 0.11086 0.51786 0.7524 0.0
C3762 C 0.10025 0.5084 0.75777 0.0
C3763 C 0.12139 0.51249 0.74281 0.0
C3764 C 0.13323 0.5218 0.73725 0.0
C3765 C 0.14227 0.52944 0.74687 0.0
C3766 C 0.15335 0.53827 0.74156 0.0
C3767 C 0.15556 0.53946 0.72665 0.0
C3768 C 0.14671 0.5318 0.71702 0.0
C3769 C 0.13561 0.52297 0.72227 0.0
H3770 H 0.16414 0.5463 0.72256 0.0
H3771 H 0.05689 0.45986 0.77346 0.0
H3772 H 0.44086 0.10403 0.73571 0.0
H3773 H 0.46674 0.10643 0.73125 0.0
H3774 H 0.47315 0.12048 0.77539 0.0
H3775 H 0.4475 0.11828 0.77989 0.0
H3776 H 0.48943 0.13626 0.75684 0.0
H3777 H 0.47815 0.08543 0.76552 0.0
H3778 H 0.4658 0.06224 0.76029 0.0
H3779 H 0.48393 0.06185 0.71757 0.0
H3780 H 0.49625 0.08516 0.7225 0.0
H3781 H 0.55672 0.11645 0.78259 0.0
H3782 H 0.53147 0.11944 0.77676 0.0
H3783 H 0.53937 0.10578 0.73283 0.0
H3784 H 0.56486 0.10266 0.73859 0.0
H3785 H 0.51621 0.09167 0.74502 0.0
H3786 H 0.53163 0.14034 0.73885 0.0
H3787 H 0.54433 0.16312 0.74492 0.0
H3788 H 0.51874 0.16757 0.78328 0.0
H3789 H 0.50603 0.1447 0.77757 0.0
C3790 C 0.44778 0.10778 0.74441 0.0
C3791 C 0.44212 0.11079 0.7582 0.0
C3792 C 0.46255 0.1091 0.74185 0.0
C3793 C 0.47188 0.11351 0.75304 0.0
C3794 C 0.46617 0.11707 0.76661 0.0
C3795 C 0.45148 0.11569 0.76918 0.0
C3796 C 0.48768 0.11371 0.75109 0.0
C3797 C 0.49531 0.12652 0.75424 0.0
C3798 C 0.49532 0.10112 0.74725 0.0
C3799 C 0.48795 0.08711 0.7443 0.0
C3800 C 0.4794 0.08045 0.75497 0.0
C3801 C 0.47243 0.06728 0.75207 0.0
C3802 C 0.47404 0.0606 0.73859 0.0
C3803 C 0.48266 0.06706 0.72799 0.0
C3804 C 0.48964 0.08025 0.73083 0.0
C3805 C 0.55317 0.11415 0.77164 0.0
C3806 C 0.56284 0.10927 0.76107 0.0
C3807 C 0.53871 0.11597 0.7683 0.0
C3808 C 0.53356 0.11298 0.75432 0.0
C3809 C 0.54316 0.10821 0.74366 0.0
C3810 C 0.55771 0.10648 0.74697 0.0
C3811 C 0.51798 0.11409 0.75129 0.0
C3812 C 0.51038 0.10152 0.74722 0.0
C3813 C 0.51037 0.12691 0.75434 0.0
C3814 C 0.51792 0.14074 0.7578 0.0
C3815 C 0.52877 0.14612 0.74863 0.0
C3816 C 0.53596 0.15906 0.752 0.0
C3817 C 0.53236 0.16678 0.76448 0.0
C3818 C 0.52152 0.16158 0.77361 0.0
C3819 C 0.5143 0.14864 0.77029 0.0
H3820 H 0.53794 0.17679 0.76708 0.0
H3821 H 0.46863 0.0504 0.73636 0.0
H3822 H 0.89036 0.56025 0.758 0.0
H3823 H 0.88711 0.5342 0.76148 0.0
H3824 H 0.88368 0.52817 0.71529 0.0
H3825 H 0.88694 0.55418 0.71165 0.0
H3826 H 0.86332 0.51201 0.73103 0.0
H3827 H 0.91455 0.52198 0.73118 0.0
H3828 H 0.93664 0.53413 0.73992 0.0
H3829 H 0.92931 0.51722 0.78257 0.0
H3830 H 0.90706 0.50513 0.77411 0.0
H3831 H 0.88308 0.44084 0.71517 0.0
H3832 H 0.88005 0.4668 0.71791 0.0
H3833 H 0.88735 0.46328 0.76388 0.0
H3834 H 0.89059 0.43714 0.76124 0.0
H3835 H 0.90356 0.48445 0.75221 0.0
H3836 H 0.85427 0.4715 0.75143 0.0
H3837 H 0.83217 0.45923 0.74294 0.0
H3838 H 0.83526 0.48151 0.70231 0.0
H3839 H 0.85751 0.49376 0.71047 0.0
C3840 C 0.88882 0.55342 0.74856 0.0
C3841 C 0.88903 0.55932 0.73452 0.0
C3842 C 0.88698 0.53853 0.75059 0.0
C3843 C 0.88525 0.52928 0.73863 0.0
C3844 C 0.88499 0.53516 0.72465 0.0
C3845 C 0.88693 0.55002 0.7226 0.0
C3846 C 0.88437 0.5134 0.74056 0.0
C3847 C 0.87212 0.50594 0.73559 0.0
C3848 C 0.89567 0.50559 0.74699 0.0
C3849 C 0.90906 0.51281 0.75206 0.0
C3850 C 0.91759 0.52096 0.74245 0.0
C3851 C 0.93015 0.52781 0.74734 0.0
C3852 C 0.93435 0.52649 0.7618 0.0
C3853 C 0.92603 0.51827 0.77138 0.0
C3854 C 0.91344 0.51141 0.76654 0.0
C3855 C 0.88391 0.4455 0.72592 0.0
C3856 C 0.88716 0.43687 0.73798 0.0
C3857 C 0.88207 0.46037 0.72747 0.0
C3858 C 0.88334 0.46697 0.74112 0.0
C3859 C 0.88628 0.45839 0.75326 0.0
C3860 C 0.8881 0.44344 0.75172 0.0
C3861 C 0.88262 0.48295 0.74235 0.0
C3862 C 0.8946 0.49047 0.74791 0.0
C3863 C 0.87103 0.49081 0.73654 0.0
C3864 C 0.85763 0.48348 0.73155 0.0
C3865 C 0.85031 0.4737 0.74064 0.0
C3866 C 0.83774 0.46677 0.73589 0.0
C3867 C 0.83233 0.46957 0.72209 0.0
C3868 C 0.83947 0.47935 0.71301 0.0
C3869 C 0.85205 0.48631 0.7177 0.0
H3870 H 0.8226 0.4642 0.71843 0.0
H3871 H 0.94408 0.5318 0.76557 0.0
H3872 H 0.28147 0.55129 0.10859 0.0
H3873 H 0.2761 0.52548 0.11009 0.0
H3874 H 0.23136 0.53463 0.11702 0.0
H3875 H 0.23661 0.56062 0.1156 0.0
H3876 H 0.24153 0.51246 0.13478 0.0
H3877 H 0.24125 0.52515 0.08466 0.0
H3878 H 0.25081 0.53621 0.06239 0.0
H3879 H 0.28716 0.50813 0.06389 0.0
H3880 H 0.27794 0.49708 0.08637 0.0
H3881 H 0.21443 0.44249 0.11529 0.0
H3882 H 0.21951 0.46839 0.11724 0.0
H3883 H 0.26429 0.46073 0.10875 0.0
H3884 H 0.25933 0.43477 0.10667 0.0
H3885 H 0.2536 0.48233 0.09201 0.0
H3886 H 0.2534 0.46947 0.14234 0.0
H3887 H 0.24349 0.45868 0.16463 0.0
H3888 H 0.2074 0.48706 0.16244 0.0
H3889 H 0.217 0.49788 0.14 0.0
C3890 C 0.27049 0.54789 0.11055 0.0
C3891 C 0.25945 0.55808 0.11184 0.0
C3892 C 0.26744 0.5331 0.11137 0.0
C3893 C 0.25332 0.52817 0.11348 0.0
C3894 C 0.24234 0.53825 0.11535 0.0
C3895 C 0.24536 0.55309 0.11447 0.0
C3896 C 0.25002 0.51245 0.11311 0.0
C3897 C 0.24398 0.50588 0.12538 0.0
C3898 C 0.25345 0.50388 0.1009 0.0
C3899 C 0.25897 0.51039 0.08729 0.0
C3900 C 0.25134 0.52141 0.08032 0.0
C3901 C 0.25669 0.52767 0.06764 0.0
C3902 C 0.26961 0.5229 0.06174 0.0
C3903 C 0.27717 0.51183 0.06849 0.0
C3904 C 0.27188 0.50556 0.0812 0.0
C3905 C 0.22539 0.44627 0.11391 0.0
C3906 C 0.23647 0.43652 0.11077 0.0
C3907 C 0.22828 0.46109 0.11511 0.0
C3908 C 0.24229 0.46646 0.11323 0.0
C3909 C 0.2534 0.45678 0.11025 0.0
C3910 C 0.25054 0.44194 0.10911 0.0
C3911 C 0.24524 0.48225 0.11375 0.0
C3912 C 0.25117 0.48888 0.10145 0.0
C3913 C 0.24163 0.49084 0.12589 0.0
C3914 C 0.23585 0.48438 0.1394 0.0
C3915 C 0.24329 0.47332 0.14653 0.0
C3916 C 0.23774 0.46722 0.15921 0.0
C3917 C 0.2248 0.47216 0.16492 0.0
C3918 C 0.21741 0.48323 0.15799 0.0
C3919 C 0.22291 0.48936 0.1453 0.0
H3920 H 0.22052 0.46742 0.17474 0.0
H3921 H 0.27375 0.52777 0.05192 0.0
H3922 H 0.28444 0.54889 0.89376 0.0
H3923 H 0.27829 0.52328 0.89131 0.0
H3924 H 0.23409 0.53415 0.88337 0.0
H3925 H 0.24007 0.55983 0.88604 0.0
H3926 H 0.236 0.51324 0.90299 0.0
H3927 H 0.25582 0.52203 0.85597 0.0
H3928 H 0.27395 0.53057 0.83844 0.0
H3929 H 0.30452 0.50087 0.85583 0.0
H3930 H 0.28663 0.49228 0.87361 0.0
H3931 H 0.21377 0.44218 0.8847 0.0
H3932 H 0.21944 0.46795 0.8828 0.0
H3933 H 0.26402 0.4593 0.89145 0.0
H3934 H 0.25851 0.43344 0.89312 0.0
H3935 H 0.26125 0.47922 0.87038 0.0
H3936 H 0.24204 0.4715 0.91815 0.0
H3937 H 0.22413 0.46301 0.93594 0.0
H3938 H 0.19263 0.4909 0.91726 0.0
H3939 H 0.21031 0.49942 0.89922 0.0
C3940 C 0.27342 0.54588 0.89137 0.0
C3941 C 0.26275 0.55646 0.89014 0.0
C3942 C 0.26994 0.53121 0.88991 0.0
C3943 C 0.25575 0.52681 0.88701 0.0
C3944 C 0.24511 0.53732 0.88559 0.0
C3945 C 0.24856 0.552 0.88711 0.0
C3946 C 0.25191 0.5112 0.88622 0.0
C3947 C 0.24135 0.50585 0.89567 0.0
C3948 C 0.25915 0.5015 0.87693 0.0
C3949 C 0.26991 0.5066 0.8662 0.0
C3950 C 0.26644 0.51739 0.85613 0.0
C3951 C 0.27667 0.52223 0.84613 0.0
C3952 C 0.29038 0.51629 0.84604 0.0
C3953 C 0.29389 0.50547 0.85592 0.0
C3954 C 0.28371 0.5006 0.86595 0.0
C3955 C 0.2248 0.44572 0.88615 0.0
C3956 C 0.23566 0.43572 0.88921 0.0
C3957 C 0.22802 0.46047 0.88509 0.0
C3958 C 0.24211 0.46556 0.88721 0.0
C3959 C 0.25306 0.4556 0.88981 0.0
C3960 C 0.24987 0.44082 0.8908 0.0
C3961 C 0.24537 0.4813 0.88716 0.0
C3962 C 0.25585 0.48665 0.87761 0.0
C3963 C 0.23808 0.49103 0.89637 0.0
C3964 C 0.22746 0.48598 0.90725 0.0
C3965 C 0.23127 0.47574 0.91777 0.0
C3966 C 0.22116 0.47094 0.92791 0.0
C3967 C 0.20724 0.47639 0.9277 0.0
C3968 C 0.20341 0.48668 0.91739 0.0
C3969 C 0.21347 0.4915 0.90721 0.0
H3970 H 0.19943 0.47266 0.93556 0.0
H3971 H 0.29829 0.52005 0.8383 0.0
H3972 H 0.44383 0.22135 0.88233 0.0
H3973 H 0.46942 0.227 0.88114 0.0
H3974 H 0.46122 0.27076 0.89498 0.0
H3975 H 0.43548 0.2653 0.89587 0.0
H3976 H 0.48082 0.27052 0.87399 0.0
H3977 H 0.47371 0.24509 0.91877 0.0
H3978 H 0.46538 0.22502 0.93429 0.0
H3979 H 0.49223 0.19554 0.91102 0.0
H3980 H 0.50058 0.21541 0.89523 0.0
H3981 H 0.55217 0.28816 0.89615 0.0
H3982 H 0.52638 0.28353 0.89463 0.0
H3983 H 0.53425 0.23974 0.88071 0.0
H3984 H 0.56006 0.24415 0.88245 0.0
H3985 H 0.51477 0.24017 0.90158 0.0
H3986 H 0.52222 0.26583 0.85702 0.0
H3987 H 0.53058 0.28603 0.84169 0.0
H3988 H 0.50326 0.31521 0.86476 0.0
H3989 H 0.49486 0.29521 0.88036 0.0
C3990 C 0.44744 0.2322 0.88511 0.0
C3991 C 0.4376 0.24284 0.88933 0.0
C3992 C 0.46209 0.23539 0.88446 0.0
C3993 C 0.46726 0.24922 0.88823 0.0
C3994 C 0.45746 0.25999 0.89207 0.0
C3995 C 0.44276 0.25684 0.8926 0.0
C3996 C 0.48292 0.25236 0.88838 0.0
C3997 C 0.48823 0.264 0.88016 0.0
C3998 C 0.49262 0.24367 0.8962 0.0
C3999 C 0.48767 0.23172 0.90574 0.0
C4000 C 0.47776 0.23431 0.9169 0.0
C4001 C 0.47305 0.22297 0.92575 0.0
C4002 C 0.47825 0.209 0.92362 0.0
C4003 C 0.4882 0.20636 0.91265 0.0
C4004 C 0.49294 0.21766 0.90375 0.0
C4005 C 0.54845 0.27757 0.89264 0.0
C4006 C 0.55823 0.26652 0.88945 0.0
C4007 C 0.53367 0.27497 0.89172 0.0
C4008 C 0.52837 0.26132 0.88744 0.0
C4009 C 0.5381 0.25034 0.88406 0.0
C4010 C 0.55287 0.25291 0.88504 0.0
C4011 C 0.51271 0.25828 0.88713 0.0
C4012 C 0.50738 0.24667 0.89536 0.0
C4013 C 0.50301 0.26702 0.87935 0.0
C4014 C 0.50801 0.27905 0.86995 0.0
C4015 C 0.51807 0.27658 0.8589 0.0
C4016 C 0.52281 0.28799 0.85014 0.0
C4017 C 0.51748 0.3019 0.85227 0.0
C4018 C 0.50738 0.30443 0.86313 0.0
C4019 C 0.50262 0.29306 0.87193 0.0
H4020 H 0.52116 0.31072 0.84548 0.0
H4021 H 0.47459 0.20024 0.93049 0.0
H4022 H 0.74045 0.56513 0.8889 0.0
H4023 H 0.73545 0.53922 0.88629 0.0
H4024 H 0.7808 0.53057 0.88801 0.0
H4025 H 0.78594 0.5564 0.8904 0.0
H4026 H 0.76777 0.51442 0.86747 0.0
H4027 H 0.75978 0.52583 0.91768 0.0
H4028 H 0.74899 0.53907 0.93809 0.0
H4029 H 0.70696 0.52518 0.92446 0.0
H4030 H 0.71749 0.512 0.90384 0.0
H4031 H 0.76533 0.43963 0.88753 0.0
H4032 H 0.76958 0.46569 0.88522 0.0
H4033 H 0.72393 0.47274 0.8841 0.0
H4034 H 0.71954 0.44683 0.88656 0.0
H4035 H 0.73651 0.48989 0.90349 0.0
H4036 H 0.74475 0.47729 0.85388 0.0
H4037 H 0.75554 0.46519 0.83276 0.0
H4038 H 0.79716 0.48144 0.84504 0.0
H4039 H 0.78668 0.49347 0.86636 0.0
C4040 C 0.74937 0.55774 0.88865 0.0
C4041 C 0.76359 0.56288 0.88998 0.0
C4042 C 0.74649 0.54293 0.8872 0.0
C4043 C 0.75775 0.53296 0.88715 0.0
C4044 C 0.77195 0.53807 0.88805 0.0
C4045 C 0.77485 0.55286 0.88948 0.0
C4046 C 0.75477 0.51717 0.88651 0.0
C4047 C 0.76106 0.509 0.87543 0.0
C4048 C 0.74576 0.5102 0.89671 0.0
C4049 C 0.73942 0.51806 0.90914 0.0
C4050 C 0.74823 0.52569 0.91897 0.0
C4051 C 0.74216 0.53317 0.93059 0.0
C4052 C 0.72729 0.533 0.93255 0.0
C4053 C 0.71847 0.52532 0.92292 0.0
C4054 C 0.72448 0.51784 0.91127 0.0
C4055 C 0.75618 0.4467 0.88665 0.0
C4056 C 0.74208 0.4411 0.88737 0.0
C4057 C 0.75864 0.4616 0.88524 0.0
C4058 C 0.74707 0.47116 0.88445 0.0
C4059 C 0.73302 0.46557 0.88473 0.0
C4060 C 0.73054 0.45072 0.88614 0.0
C4061 C 0.74952 0.48706 0.88443 0.0
C4062 C 0.74316 0.49527 0.89546 0.0
C4063 C 0.75851 0.49403 0.87419 0.0
C4064 C 0.76493 0.48619 0.86179 0.0
C4065 C 0.75624 0.47812 0.8522 0.0
C4066 C 0.76229 0.47132 0.84015 0.0
C4067 C 0.77701 0.4726 0.83754 0.0
C4068 C 0.78575 0.48051 0.84706 0.0
C4069 C 0.77976 0.48731 0.85912 0.0
H4070 H 0.78166 0.46752 0.82811 0.0
H4071 H 0.72262 0.5388 0.94155 0.0
H4072 H 0.44514 0.75943 0.88749 0.0
H4073 H 0.47081 0.76439 0.88519 0.0
H4074 H 0.47933 0.71867 0.88743 0.0
H4075 H 0.4537 0.71358 0.88999 0.0
H4076 H 0.49669 0.73351 0.90503 0.0
H4077 H 0.48205 0.73738 0.8554 0.0
H4078 H 0.46751 0.74632 0.83506 0.0
H4079 H 0.48175 0.78981 0.84394 0.0
H4080 H 0.49623 0.78116 0.86447 0.0
H4081 H 0.5701 0.7385 0.88761 0.0
H4082 H 0.54457 0.73274 0.88541 0.0
H4083 H 0.53487 0.77826 0.8849 0.0
H4084 H 0.56041 0.78418 0.88695 0.0
H4085 H 0.51826 0.76305 0.8657 0.0
H4086 H 0.53183 0.75954 0.9158 0.0
H4087 H 0.5463 0.75093 0.93635 0.0
H4088 H 0.53383 0.70706 0.92676 0.0
H4089 H 0.51945 0.71539 0.90601 0.0
C4090 C 0.45244 0.75039 0.88741 0.0
C4091 C 0.44732 0.73609 0.88896 0.0
C4092 C 0.46712 0.75326 0.88602 0.0
C4093 C 0.47698 0.74189 0.886 0.0
C4094 C 0.47191 0.72761 0.88741 0.0
C4095 C 0.45723 0.72472 0.88885 0.0
C4096 C 0.49262 0.74492 0.88516 0.0
C4097 C 0.50143 0.73976 0.89629 0.0
C4098 C 0.49875 0.75341 0.87396 0.0
C4099 C 0.49012 0.75863 0.86156 0.0
C4100 C 0.482 0.74887 0.85308 0.0
C4101 C 0.47378 0.75388 0.84151 0.0
C4102 C 0.47368 0.76863 0.83823 0.0
C4103 C 0.48183 0.77839 0.8465 0.0
C4104 C 0.49006 0.77344 0.8581 0.0
C4105 C 0.56258 0.74732 0.8869 0.0
C4106 C 0.56732 0.76182 0.88765 0.0
C4107 C 0.54798 0.74399 0.88567 0.0
C4108 C 0.53782 0.75508 0.88524 0.0
C4109 C 0.54254 0.76955 0.88528 0.0
C4110 C 0.55715 0.7729 0.88651 0.0
C4111 C 0.52227 0.75158 0.88553 0.0
C4112 C 0.5135 0.75671 0.87435 0.0
C4113 C 0.51614 0.7431 0.89671 0.0
C4114 C 0.52468 0.73807 0.90926 0.0
C4115 C 0.53226 0.74804 0.91801 0.0
C4116 C 0.54043 0.74322 0.9297 0.0
C4117 C 0.54101 0.72846 0.93283 0.0
C4118 C 0.53339 0.71849 0.9243 0.0
C4119 C 0.52522 0.72325 0.91258 0.0
H4120 H 0.54735 0.72474 0.94189 0.0
H4121 H 0.4673 0.77249 0.82927 0.0
H4122 H 0.74114 0.56298 0.10122 0.0
H4123 H 0.7372 0.53696 0.10367 0.0
H4124 H 0.77812 0.53311 0.12519 0.0
H4125 H 0.7824 0.5591 0.12215 0.0
H4126 H 0.7756 0.51246 0.10672 0.0
H4127 H 0.74487 0.53028 0.1437 0.0
H4128 H 0.72609 0.54549 0.15445 0.0
H4129 H 0.69493 0.52731 0.12512 0.0
H4130 H 0.71356 0.51212 0.11405 0.0
H4131 H 0.75974 0.4379 0.12092 0.0
H4132 H 0.76538 0.46361 0.12444 0.0
H4133 H 0.72664 0.47485 0.10164 0.0
H4134 H 0.72068 0.44927 0.09863 0.0
H4135 H 0.7296 0.49147 0.12428 0.0
H4136 H 0.76203 0.47582 0.08573 0.0
H4137 H 0.78116 0.46038 0.07591 0.0
H4138 H 0.80952 0.4743 0.11001 0.0
H4139 H 0.79052 0.48975 0.12007 0.0
C4140 C 0.74924 0.55661 0.10659 0.0
C4141 C 0.76207 0.56309 0.1115 0.0
C4142 C 0.74695 0.54173 0.10806 0.0
C4143 C 0.75725 0.53305 0.11484 0.0
C4144 C 0.77 0.53955 0.11993 0.0
C4145 C 0.77243 0.55441 0.11821 0.0
C4146 C 0.75494 0.51714 0.11602 0.0
C4147 C 0.76562 0.50789 0.1108 0.0
C4148 C 0.74192 0.51109 0.12127 0.0
C4149 C 0.73064 0.52012 0.12799 0.0
C4150 C 0.73403 0.52958 0.13948 0.0
C4151 C 0.72341 0.53819 0.14564 0.0
C4152 C 0.70933 0.53738 0.14046 0.0
C4153 C 0.70584 0.52792 0.12913 0.0
C4154 C 0.71642 0.51929 0.12292 0.0
C4155 C 0.75244 0.44587 0.11666 0.0
C4156 C 0.73978 0.44155 0.10945 0.0
C4157 C 0.7557 0.46057 0.11863 0.0
C4158 C 0.74654 0.47121 0.11312 0.0
C4159 C 0.73387 0.46687 0.10602 0.0
C4160 C 0.73048 0.45222 0.10427 0.0
C4161 C 0.75005 0.48688 0.11455 0.0
C4162 C 0.73961 0.49608 0.12033 0.0
C4163 C 0.76334 0.49286 0.10996 0.0
C4164 C 0.77483 0.48383 0.1037 0.0
C4165 C 0.77234 0.47555 0.09114 0.0
C4166 C 0.78315 0.4668 0.08553 0.0
C4167 C 0.79654 0.46634 0.09235 0.0
C4168 C 0.79915 0.47467 0.10475 0.0
C4169 C 0.78838 0.48344 0.11039 0.0
H4170 H 0.80489 0.45954 0.08801 0.0
H4171 H 0.70112 0.54407 0.14523 0.0
H4172 H 0.55326 0.77608 0.12193 0.0
H4173 H 0.52776 0.7708 0.12464 0.0
H4174 H 0.53426 0.72728 0.10916 0.0
H4175 H 0.55998 0.73251 0.10634 0.0
H4176 H 0.51241 0.7407 0.09503 0.0
H4177 H 0.525 0.73203 0.14379 0.0
H4178 H 0.53683 0.73642 0.1673 0.0
H4179 H 0.51327 0.77572 0.17262 0.0
H4180 H 0.50144 0.7717 0.14903 0.0
H4181 H 0.43605 0.7354 0.10419 0.0
H4182 H 0.46134 0.72926 0.10775 0.0
H4183 H 0.47023 0.7728 0.12247 0.0
H4184 H 0.44514 0.77899 0.11904 0.0
H4185 H 0.48412 0.75251 0.1389 0.0
H4186 H 0.47631 0.76347 0.08788 0.0
H4187 H 0.46487 0.75964 0.06406 0.0
H4188 H 0.47985 0.71588 0.06318 0.0
H4189 H 0.49122 0.71941 0.08711 0.0
C4190 C 0.54934 0.76532 0.11922 0.0
C4191 C 0.55866 0.75474 0.11384 0.0
C4192 C 0.53475 0.76228 0.12089 0.0
C4193 C 0.52913 0.7486 0.11724 0.0
C4194 C 0.53841 0.73788 0.11212 0.0
C4195 C 0.55309 0.74089 0.11055 0.0
C4196 C 0.5134 0.74611 0.11772 0.0
C4197 C 0.50622 0.74286 0.10472 0.0
C4198 C 0.50533 0.7491 0.13033 0.0
C4199 C 0.51237 0.75158 0.14458 0.0
C4200 C 0.5224 0.74166 0.14992 0.0
C4201 C 0.5291 0.74408 0.16327 0.0
C4202 C 0.52582 0.75635 0.17144 0.0
C4203 C 0.5158 0.76621 0.16628 0.0
C4204 C 0.50907 0.76386 0.15293 0.0
C4205 C 0.44336 0.74361 0.10834 0.0
C4206 C 0.4386 0.75773 0.11119 0.0
C4207 C 0.4578 0.74009 0.11034 0.0
C4208 C 0.46766 0.75061 0.11528 0.0
C4209 C 0.4628 0.76451 0.11867 0.0
C4210 C 0.44845 0.76806 0.11659 0.0
C4211 C 0.48322 0.74764 0.11611 0.0
C4212 C 0.49034 0.74989 0.12934 0.0
C4213 C 0.49124 0.74374 0.10372 0.0
C4214 C 0.48443 0.74164 0.08935 0.0
C4215 C 0.47705 0.75299 0.08266 0.0
C4216 C 0.4706 0.75089 0.06913 0.0
C4217 C 0.47159 0.73751 0.06213 0.0
C4218 C 0.47906 0.72622 0.06863 0.0
C4219 C 0.48551 0.72827 0.08217 0.0
H4220 H 0.46659 0.7359 0.05165 0.0
H4221 H 0.53102 0.7582 0.18177 0.0
H4222 H 0.5555 0.21733 0.12033 0.0
H4223 H 0.52977 0.22145 0.12181 0.0
H4224 H 0.53527 0.2624 0.10008 0.0
H4225 H 0.56126 0.2585 0.09891 0.0
H4226 H 0.51428 0.2637 0.12102 0.0
H4227 H 0.52544 0.23308 0.08069 0.0
H4228 H 0.53675 0.21235 0.06851 0.0
H4229 H 0.51327 0.18291 0.09577 0.0
H4230 H 0.50195 0.20347 0.10824 0.0
H4231 H 0.43909 0.26254 0.09949 0.0
H4232 H 0.46535 0.26492 0.10072 0.0
H4233 H 0.46763 0.22308 0.12113 0.0
H4234 H 0.44166 0.22052 0.1197 0.0
H4235 H 0.48496 0.22442 0.09863 0.0
H4236 H 0.47441 0.25528 0.1396 0.0
H4237 H 0.46334 0.27611 0.15182 0.0
H4238 H 0.48539 0.30525 0.12309 0.0
H4239 H 0.49646 0.28457 0.11058 0.0
C4240 C 0.55129 0.22729 0.116 0.0
C4241 C 0.56038 0.23748 0.10929 0.0
C4242 C 0.53656 0.22964 0.11686 0.0
C4243 C 0.53055 0.24207 0.11074 0.0
C4244 C 0.53967 0.25269 0.10478 0.0
C4245 C 0.55451 0.25043 0.1041 0.0
C4246 C 0.51471 0.2433 0.10968 0.0
C4247 C 0.50785 0.25522 0.11596 0.0
C4248 C 0.50632 0.23222 0.10311 0.0
C4249 C 0.51292 0.21982 0.09546 0.0
C4250 C 0.52274 0.22218 0.08413 0.0
C4251 C 0.52915 0.21047 0.07717 0.0
C4252 C 0.52575 0.19632 0.08138 0.0
C4253 C 0.51589 0.19387 0.09252 0.0
C4254 C 0.50946 0.20555 0.09952 0.0
C4255 C 0.4452 0.25396 0.10443 0.0
C4256 C 0.43831 0.24126 0.10932 0.0
C4257 C 0.4602 0.25535 0.10515 0.0
C4258 C 0.46847 0.24415 0.11098 0.0
C4259 C 0.4615 0.2318 0.11647 0.0
C4260 C 0.44663 0.23036 0.11563 0.0
C4261 C 0.48441 0.24455 0.11045 0.0
C4262 C 0.49134 0.23295 0.10368 0.0
C4263 C 0.49277 0.25595 0.11652 0.0
C4264 C 0.48613 0.26837 0.12405 0.0
C4265 C 0.4768 0.26612 0.13581 0.0
C4266 C 0.47055 0.2779 0.14281 0.0
C4267 C 0.47362 0.29199 0.13821 0.0
C4268 C 0.483 0.29433 0.12663 0.0
C4269 C 0.48927 0.28259 0.11958 0.0
H4270 H 0.46877 0.3011 0.14364 0.0
H4271 H 0.53073 0.18727 0.07599 0.0
H4272 H 0.60907 0.73427 0.06254 0.0
H4273 H 0.61322 0.73136 0.03646 0.0
H4274 H 0.60852 0.77734 0.03059 0.0
H4275 H 0.60452 0.78041 0.05639 0.0
H4276 H 0.59608 0.73813 0.01284 0.0
H4277 H 0.63205 0.78957 0.00642 0.0
H4278 H 0.65009 0.80333 0.02056 0.0
H4279 H 0.66037 0.76506 0.04449 0.0
H4280 H 0.64255 0.75101 0.03036 0.0
H4281 H 0.6121 0.78408 0.9458 0.0
H4282 H 0.61317 0.77954 0.97168 0.0
H4283 H 0.61718 0.73377 0.96357 0.0
H4284 H 0.61591 0.73817 0.93747 0.0
H4285 H 0.63349 0.76799 0.98852 0.0
H4286 H 0.59977 0.71596 0.99211 0.0
H4287 H 0.58124 0.70255 0.97825 0.0
H4288 H 0.56608 0.74238 0.96034 0.0
H4289 H 0.5844 0.75604 0.97424 0.0
C4290 C 0.60894 0.74376 0.05569 0.0
C4291 C 0.60654 0.75759 0.06161 0.0
C4292 C 0.61129 0.74206 0.0408 0.0
C4293 C 0.61139 0.75416 0.03165 0.0
C4294 C 0.60876 0.76789 0.0375 0.0
C4295 C 0.60642 0.76961 0.05229 0.0
C4296 C 0.61406 0.75269 0.01591 0.0
C4297 C 0.60447 0.74438 0.00752 0.0
C4298 C 0.62494 0.76095 0.00899 0.0
C4299 C 0.6359 0.76925 0.01737 0.0
C4300 C 0.63823 0.78406 0.01463 0.0
C4301 C 0.6484 0.79192 0.02266 0.0
C4302 C 0.65635 0.78508 0.03344 0.0
C4303 C 0.65418 0.77035 0.03617 0.0
C4304 C 0.64403 0.76244 0.02816 0.0
C4305 C 0.61326 0.77303 0.94944 0.0
C4306 C 0.61383 0.76148 0.9395 0.0
C4307 C 0.61392 0.77046 0.96428 0.0
C4308 C 0.61515 0.75632 0.96956 0.0
C4309 C 0.61606 0.74476 0.95972 0.0
C4310 C 0.61536 0.74731 0.94481 0.0
C4311 C 0.61516 0.75391 0.98542 0.0
C4312 C 0.6253 0.76147 0.99384 0.0
C4313 C 0.60478 0.745 0.99233 0.0
C4314 C 0.59358 0.73698 0.98407 0.0
C4315 C 0.59246 0.72185 0.98524 0.0
C4316 C 0.58199 0.71421 0.97738 0.0
C4317 C 0.57253 0.7216 0.96838 0.0
C4318 C 0.57346 0.73667 0.96727 0.0
C4319 C 0.58389 0.74436 0.97512 0.0
H4320 H 0.56445 0.71566 0.9623 0.0
H4321 H 0.6642 0.79119 0.03966 0.0
H4322 H 0.24272 0.61314 0.93725 0.0
H4323 H 0.23736 0.61482 0.96327 0.0
H4324 H 0.27917 0.59798 0.97318 0.0
H4325 H 0.28468 0.59644 0.94748 0.0
H4326 H 0.25616 0.58383 0.9877 0.0
H4327 H 0.27481 0.63197 0.97746 0.0
H4328 H 0.27501 0.6554 0.96482 0.0
H4329 H 0.23237 0.66379 0.98002 0.0
H4330 H 0.23187 0.64026 0.99265 0.0
H4331 H 0.28278 0.60154 0.0556 0.0
H4332 H 0.27799 0.6024 0.02974 0.0
H4333 H 0.23381 0.61284 0.0381 0.0
H4334 H 0.23841 0.61176 0.06432 0.0
H4335 H 0.25123 0.63017 0.01444 0.0
H4336 H 0.23497 0.58287 0.0284 0.0
H4337 H 0.23616 0.55948 0.0411 0.0
H4338 H 0.27518 0.54949 0.01873 0.0
H4339 H 0.27437 0.57294 0.00608 0.0
C4340 C 0.25077 0.60984 0.94499 0.0
C4341 C 0.26413 0.60465 0.94027 0.0
C4342 C 0.2477 0.61083 0.95982 0.0
C4343 C 0.25786 0.60647 0.9701 0.0
C4344 C 0.27116 0.60134 0.9654 0.0
C4345 C 0.27431 0.60054 0.95068 0.0
C4346 C 0.25484 0.60698 0.98582 0.0
C4347 C 0.25498 0.59395 0.99354 0.0
C4348 C 0.25294 0.62017 0.99337 0.0
C4349 C 0.25322 0.63428 0.98581 0.0
C4350 C 0.26542 0.63874 0.97798 0.0
C4351 C 0.2656 0.65206 0.97085 0.0
C4352 C 0.25368 0.66106 0.97155 0.0
C4353 C 0.24158 0.65678 0.97945 0.0
C4354 C 0.24134 0.64347 0.98661 0.0
C4355 C 0.27203 0.60412 0.05205 0.0
C4356 C 0.26094 0.60648 0.06209 0.0
C4357 C 0.26933 0.6046 0.03723 0.0
C4358 C 0.25556 0.60761 0.03206 0.0
C4359 C 0.24452 0.61049 0.04194 0.0
C4360 C 0.24716 0.60981 0.05688 0.0
C4361 C 0.25293 0.60703 0.01628 0.0
C4362 C 0.25186 0.62002 0.00855 0.0
C4363 C 0.25402 0.59379 0.00868 0.0
C4364 C 0.25465 0.57972 0.01636 0.0
C4365 C 0.24389 0.57576 0.0263 0.0
C4366 C 0.24448 0.56247 0.03347 0.0
C4367 C 0.25574 0.55301 0.03071 0.0
C4368 C 0.26646 0.55683 0.02083 0.0
C4369 C 0.26593 0.57012 0.01365 0.0
H4370 H 0.25613 0.54269 0.03618 0.0
H4371 H 0.25385 0.67137 0.96602 0.0
H4372 H 0.38052 0.21798 0.05611 0.0
H4373 H 0.37803 0.22018 0.02998 0.0
H4374 H 0.39036 0.26525 0.03254 0.0
H4375 H 0.39268 0.26323 0.05892 0.0
H4376 H 0.36869 0.25988 0.01198 0.0
H4377 H 0.4152 0.2417 0.02404 0.0
H4378 H 0.43224 0.22559 0.03628 0.0
H4379 H 0.41313 0.18875 0.01498 0.0
H4380 H 0.39583 0.20462 0.00277 0.0
H4381 H 0.38985 0.26231 0.93691 0.0
H4382 H 0.3878 0.26454 0.96321 0.0
H4383 H 0.37889 0.21873 0.96633 0.0
H4384 H 0.38122 0.21633 0.94017 0.0
H4385 H 0.39968 0.22647 0.9842 0.0
H4386 H 0.3528 0.24455 0.97242 0.0
H4387 H 0.33581 0.26063 0.96008 0.0
H4388 H 0.35568 0.29764 0.98036 0.0
H4389 H 0.3729 0.28178 0.99271 0.0
C4390 C 0.3826 0.22842 0.05119 0.0
C4391 C 0.38705 0.24037 0.0596 0.0
C4392 C 0.38114 0.22965 0.03624 0.0
C4393 C 0.38428 0.2428 0.02932 0.0
C4394 C 0.38795 0.25499 0.03769 0.0
C4395 C 0.38932 0.2538 0.05275 0.0
C4396 C 0.38474 0.24335 0.0133 0.0
C4397 C 0.37559 0.25273 0.00586 0.0
C4398 C 0.39365 0.23391 0.00536 0.0
C4399 C 0.40415 0.22435 0.01257 0.0
C4400 C 0.41457 0.23016 0.02204 0.0
C4401 C 0.42429 0.22107 0.02896 0.0
C4402 C 0.42375 0.20616 0.02643 0.0
C4403 C 0.41353 0.2003 0.01694 0.0
C4404 C 0.40377 0.20934 0.01 0.0
C4405 C 0.38727 0.25274 0.94317 0.0
C4406 C 0.38585 0.23911 0.93643 0.0
C4407 C 0.38604 0.25405 0.95821 0.0
C4408 C 0.38317 0.2418 0.96674 0.0
C4409 C 0.38119 0.22831 0.95997 0.0
C4410 C 0.38252 0.22697 0.94499 0.0
C4411 C 0.38333 0.2427 0.98277 0.0
C4412 C 0.39275 0.23365 0.99025 0.0
C4413 C 0.37468 0.25245 0.99066 0.0
C4414 C 0.36423 0.26199 0.98338 0.0
C4415 C 0.35361 0.25612 0.97417 0.0
C4416 C 0.34393 0.2652 0.96719 0.0
C4417 C 0.3447 0.28016 0.96939 0.0
C4418 C 0.35511 0.28606 0.97864 0.0
C4419 C 0.36482 0.27703 0.98566 0.0
H4420 H 0.3372 0.28716 0.96395 0.0
H4421 H 0.43128 0.19914 0.0318 0.0
H4422 H 0.71539 0.38621 0.05496 0.0
H4423 H 0.72023 0.38328 0.02929 0.0
H4424 H 0.76551 0.38967 0.03712 0.0
H4425 H 0.76072 0.39287 0.06303 0.0
H4426 H 0.75679 0.40593 0.01502 0.0
H4427 H 0.75276 0.35618 0.02667 0.0
H4428 H 0.74272 0.3339 0.0374 0.0
H4429 H 0.70402 0.33892 0.01273 0.0
H4430 H 0.7138 0.36131 0.00191 0.0
H4431 H 0.7632 0.39428 0.93802 0.0
H4432 H 0.76677 0.39105 0.96411 0.0
H4433 H 0.72102 0.38656 0.96996 0.0
H4434 H 0.71734 0.3896 0.94409 0.0
H4435 H 0.73548 0.36641 0.98521 0.0
H4436 H 0.73875 0.4185 0.977 0.0
H4437 H 0.74935 0.44043 0.96597 0.0
H4438 H 0.79036 0.43027 0.98431 0.0
H4439 H 0.78002 0.40818 0.99531 0.0
C4440 C 0.72642 0.38689 0.05132 0.0
C4441 C 0.73766 0.38986 0.0611 0.0
C4442 C 0.72918 0.38508 0.03659 0.0
C4443 C 0.74326 0.38608 0.03127 0.0
C4444 C 0.75457 0.38879 0.041 0.0
C4445 C 0.75181 0.39059 0.05581 0.0
C4446 C 0.7458 0.38527 0.01541 0.0
C4447 C 0.75245 0.3971 0.00853 0.0
C4448 C 0.74005 0.37383 0.00689 0.0
C4449 C 0.734 0.36047 0.01352 0.0
C4450 C 0.74206 0.3526 0.02361 0.0
C4451 C 0.73642 0.33992 0.02969 0.0
C4452 C 0.72273 0.33499 0.02576 0.0
C4453 C 0.71464 0.34274 0.01575 0.0
C4454 C 0.72024 0.35541 0.00961 0.0
C4455 C 0.7539 0.39256 0.94486 0.0
C4456 C 0.73997 0.39229 0.93893 0.0
C4457 C 0.75597 0.39074 0.95977 0.0
C4458 C 0.74415 0.38865 0.96898 0.0
C4459 C 0.7303 0.38812 0.96305 0.0
C4460 C 0.72822 0.38995 0.94822 0.0
C4461 C 0.74593 0.38731 0.98489 0.0
C4462 C 0.74011 0.37505 0.99176 0.0
C4463 C 0.7525 0.39832 0.99337 0.0
C4464 C 0.75866 0.41162 0.98682 0.0
C4465 C 0.75005 0.4209 0.97859 0.0
C4466 C 0.756 0.43336 0.97236 0.0
C4467 C 0.77053 0.43672 0.97439 0.0
C4468 C 0.77912 0.42764 0.98271 0.0
C4469 C 0.77322 0.41515 0.98895 0.0
H4470 H 0.77512 0.44637 0.96956 0.0
H4471 H 0.71838 0.32516 0.03044 0.0
H4472 H 0.61319 0.28451 0.94486 0.0
H4473 H 0.61516 0.27809 0.97036 0.0
H4474 H 0.60589 0.23344 0.95982 0.0
H4475 H 0.60406 0.23972 0.93419 0.0
H4476 H 0.59477 0.26739 0.98754 0.0
H4477 H 0.62223 0.21163 0.9849 0.0
H4478 H 0.6396 0.19863 0.96965 0.0
H4479 H 0.65837 0.23907 0.95624 0.0
H4480 H 0.64125 0.2523 0.97155 0.0
H4481 H 0.60353 0.21392 0.0513 0.0
H4482 H 0.60508 0.21907 0.0254 0.0
H4483 H 0.61537 0.26373 0.03491 0.0
H4484 H 0.61367 0.25878 0.06078 0.0
H4485 H 0.62612 0.22936 0.00768 0.0
H4486 H 0.59878 0.28513 0.01051 0.0
H4487 H 0.58133 0.29805 0.02575 0.0
H4488 H 0.56226 0.25754 0.03855 0.0
H4489 H 0.57945 0.24441 0.02323 0.0
C4490 C 0.61166 0.27329 0.94791 0.0
C4491 C 0.60838 0.26264 0.93744 0.0
C4492 C 0.61278 0.26965 0.96252 0.0
C4493 C 0.61072 0.25529 0.96701 0.0
C4494 C 0.60771 0.24456 0.95659 0.0
C4495 C 0.60662 0.24819 0.94193 0.0
C4496 C 0.61103 0.25173 0.98267 0.0
C4497 C 0.60179 0.25923 0.99197 0.0
C4498 C 0.61989 0.24079 0.98838 0.0
C4499 C 0.63034 0.23295 0.97925 0.0
C4500 C 0.63009 0.21774 0.97873 0.0
C4501 C 0.63989 0.21033 0.97007 0.0
C4502 C 0.65005 0.21802 0.96194 0.0
C4503 C 0.65046 0.23313 0.96249 0.0
C4504 C 0.6407 0.24059 0.97114 0.0
C4505 C 0.60621 0.22483 0.04791 0.0
C4506 C 0.60832 0.23596 0.05816 0.0
C4507 C 0.60713 0.22773 0.03309 0.0
C4508 C 0.61013 0.24182 0.02823 0.0
C4509 C 0.61279 0.25283 0.03842 0.0
C4510 C 0.61184 0.24996 0.05323 0.0
C4511 C 0.60997 0.24513 0.01252 0.0
C4512 C 0.61916 0.23756 0.00323 0.0
C4513 C 0.60105 0.25599 0.00677 0.0
C4514 C 0.5905 0.26379 0.01584 0.0
C4515 C 0.59082 0.27899 0.01653 0.0
C4516 C 0.58099 0.28635 0.02519 0.0
C4517 C 0.57073 0.27862 0.03315 0.0
C4518 C 0.57025 0.26352 0.03242 0.0
C4519 C 0.58004 0.25611 0.02377 0.0
H4520 H 0.56313 0.28434 0.03985 0.0
H4521 H 0.65762 0.21227 0.95524 0.0
H4522 H 0.73742 0.61111 0.06236 0.0
H4523 H 0.73357 0.61445 0.03636 0.0
H4524 H 0.77918 0.61989 0.03012 0.0
H4525 H 0.78316 0.61667 0.05595 0.0
H4526 H 0.7637 0.63944 0.0144 0.0
H4527 H 0.76323 0.58762 0.0241 0.0
H4528 H 0.75404 0.56547 0.03592 0.0
H4529 H 0.71222 0.57277 0.018 0.0
H4530 H 0.72113 0.59508 0.00623 0.0
H4531 H 0.78448 0.61712 0.9455 0.0
H4532 H 0.77969 0.62053 0.97117 0.0
H4533 H 0.73437 0.61421 0.96353 0.0
H4534 H 0.73905 0.61068 0.93768 0.0
H4535 H 0.74408 0.59797 0.98608 0.0
H4536 H 0.74621 0.64726 0.97228 0.0
H4537 H 0.75577 0.66906 0.96016 0.0
H4538 H 0.79434 0.66675 0.98547 0.0
H4539 H 0.78511 0.64481 0.9976 0.0
C4540 C 0.74663 0.61311 0.05547 0.0
C4541 C 0.76062 0.61348 0.06124 0.0
C4542 C 0.7444 0.61501 0.04063 0.0
C4543 C 0.7561 0.61732 0.03134 0.0
C4544 C 0.77 0.61815 0.03713 0.0
C4545 C 0.77225 0.61621 0.0519 0.0
C4546 C 0.75417 0.61813 0.01546 0.0
C4547 C 0.75941 0.6304 0.00818 0.0
C4548 C 0.74812 0.60651 0.00742 0.0
C4549 C 0.74279 0.5931 0.01445 0.0
C4550 C 0.75204 0.58456 0.02279 0.0
C4551 C 0.74689 0.57197 0.02945 0.0
C4552 C 0.73254 0.56775 0.02775 0.0
C4553 C 0.72332 0.57608 0.01934 0.0
C4554 C 0.72842 0.58869 0.01267 0.0
C4555 C 0.77346 0.61653 0.9492 0.0
C4556 C 0.76216 0.61357 0.9395 0.0
C4557 C 0.77074 0.61859 0.96389 0.0
C4558 C 0.75666 0.61779 0.96921 0.0
C4559 C 0.7453 0.61494 0.9596 0.0
C4560 C 0.74801 0.61294 0.94484 0.0
C4561 C 0.7541 0.61908 0.98498 0.0
C4562 C 0.74802 0.60721 0.99226 0.0
C4563 C 0.75938 0.63107 0.99301 0.0
C4564 C 0.76498 0.64433 0.9858 0.0
C4565 C 0.75677 0.65134 0.97519 0.0
C4566 C 0.76213 0.66373 0.96833 0.0
C4567 C 0.77566 0.66928 0.97203 0.0
C4568 C 0.78386 0.66245 0.98262 0.0
C4569 C 0.77856 0.65004 0.98951 0.0
H4570 H 0.77979 0.67888 0.9667 0.0
H4571 H 0.72857 0.55799 0.03292 0.0
H4572 H 0.39035 0.76039 0.93284 0.0
H4573 H 0.3865 0.76714 0.9582 0.0
H4574 H 0.39985 0.72467 0.9716 0.0
H4575 H 0.40327 0.71773 0.94641 0.0
H4576 H 0.37736 0.73241 0.98658 0.0
H4577 H 0.42248 0.7557 0.97293 0.0
H4578 H 0.43757 0.77206 0.95817 0.0
H4579 H 0.41101 0.80792 0.9698 0.0
H4580 H 0.39566 0.79173 0.9845 0.0
H4581 H 0.39803 0.74022 0.05918 0.0
H4582 H 0.39659 0.73657 0.0331 0.0
H4583 H 0.38458 0.78117 0.0275 0.0
H4584 H 0.38665 0.78508 0.05366 0.0
H4585 H 0.40321 0.77455 0.00802 0.0
H4586 H 0.35978 0.7518 0.02412 0.0
H4587 H 0.34486 0.73551 0.03911 0.0
H4588 H 0.36774 0.69879 0.02296 0.0
H4589 H 0.38294 0.71487 0.00801 0.0
C4590 C 0.39244 0.75249 0.9412 0.0
C4591 C 0.39717 0.73854 0.93758 0.0
C4592 C 0.39027 0.75638 0.95569 0.0
C4593 C 0.39305 0.74647 0.96684 0.0
C4594 C 0.3976 0.7325 0.96321 0.0
C4595 C 0.39959 0.72856 0.94877 0.0
C4596 C 0.39148 0.75052 0.98233 0.0
C4597 C 0.38308 0.74158 0.99129 0.0
C4598 C 0.39854 0.76276 0.98841 0.0
C4599 C 0.40785 0.77249 0.97968 0.0
C4600 C 0.41981 0.76706 0.97227 0.0
C4601 C 0.42842 0.7763 0.96393 0.0
C4602 C 0.42523 0.79101 0.96302 0.0
C4603 C 0.41346 0.79652 0.97049 0.0
C4604 C 0.40481 0.78732 0.97884 0.0
C4605 C 0.39497 0.74925 0.05242 0.0
C4606 C 0.39239 0.76293 0.0585 0.0
C4607 C 0.39407 0.74712 0.03749 0.0
C4608 C 0.39017 0.75851 0.0283 0.0
C4609 C 0.38755 0.7722 0.03435 0.0
C4610 C 0.38872 0.77441 0.0493 0.0
C4611 C 0.3894 0.7562 0.01238 0.0
C4612 C 0.39731 0.76549 0.00332 0.0
C4613 C 0.38185 0.74429 0.0062 0.0
C4614 C 0.37255 0.73456 0.015 0.0
C4615 C 0.36168 0.74026 0.02381 0.0
C4616 C 0.35317 0.73106 0.0323 0.0
C4617 C 0.35536 0.71613 0.032 0.0
C4618 C 0.36605 0.71036 0.02318 0.0
C4619 C 0.3746 0.71951 0.01467 0.0
H4620 H 0.34878 0.70903 0.0386 0.0
H4621 H 0.4319 0.79815 0.95655 0.0
H4622 H 0.21335 0.39303 0.05522 0.0
H4623 H 0.21622 0.38943 0.02934 0.0
H4624 H 0.26014 0.37673 0.03588 0.0
H4625 H 0.25746 0.38065 0.06203 0.0
H4626 H 0.25781 0.39482 0.01323 0.0
H4627 H 0.23447 0.35116 0.02784 0.0
H4628 H 0.21643 0.33613 0.04051 0.0
H4629 H 0.1828 0.35568 0.01582 0.0
H4630 H 0.2006 0.37098 0.00314 0.0
H4631 H 0.25609 0.37937 0.93675 0.0
H4632 H 0.25935 0.37601 0.96285 0.0
H4633 H 0.21541 0.38832 0.9701 0.0
H4634 H 0.21196 0.39135 0.94421 0.0
H4635 H 0.22179 0.36559 0.98598 0.0
H4636 H 0.24475 0.4121 0.97501 0.0
H4637 H 0.26256 0.42768 0.96264 0.0
H4638 H 0.29679 0.40269 0.98058 0.0
H4639 H 0.27915 0.38687 0.99292 0.0
C4640 C 0.22363 0.3894 0.05124 0.0
C4641 C 0.23515 0.38702 0.06075 0.0
C4642 C 0.22523 0.38728 0.0364 0.0
C4643 C 0.2383 0.38251 0.0307 0.0
C4644 C 0.24993 0.38031 0.04009 0.0
C4645 C 0.24837 0.38255 0.05501 0.0
C4646 C 0.23969 0.38022 0.01487 0.0
C4647 C 0.25015 0.38817 0.00727 0.0
C4648 C 0.22964 0.3716 0.00711 0.0
C4649 C 0.21889 0.36226 0.01457 0.0
C4650 C 0.22322 0.3523 0.02516 0.0
C4651 C 0.21304 0.34373 0.03234 0.0
C4652 C 0.19848 0.34496 0.02898 0.0
C4653 C 0.19408 0.35474 0.0184 0.0
C4654 C 0.20422 0.36334 0.0112 0.0
C4655 C 0.24712 0.38132 0.94391 0.0
C4656 C 0.23376 0.38566 0.93837 0.0
C4657 C 0.24902 0.37943 0.95882 0.0
C4658 C 0.23766 0.38203 0.96843 0.0
C4659 C 0.22432 0.38618 0.96289 0.0
C4660 C 0.22237 0.38795 0.94805 0.0
C4661 C 0.23947 0.38072 0.98433 0.0
C4662 C 0.22965 0.372 0.99195 0.0
C4663 C 0.25008 0.38864 0.99208 0.0
C4664 C 0.26065 0.39821 0.98474 0.0
C4665 C 0.25607 0.40988 0.97623 0.0
C4666 C 0.26613 0.41876 0.96924 0.0
C4667 C 0.2808 0.41615 0.97078 0.0
C4668 C 0.28543 0.40468 0.97937 0.0
C4669 C 0.27541 0.39576 0.98637 0.0
H4670 H 0.28857 0.42303 0.96536 0.0
H4671 H 0.19061 0.33832 0.03456 0.0
H4672 H 0.05188 0.6106 0.79002 0.0
H4673 H 0.02621 0.61235 0.78514 0.0
H4674 H 0.03472 0.61353 0.73925 0.0
H4675 H 0.06043 0.61208 0.74401 0.0
H4676 H 0.01428 0.63248 0.74648 0.0
H4677 H 0.02397 0.58218 0.75599 0.0
H4678 H 0.03306 0.56174 0.7703 0.0
H4679 H 0.00451 0.5725 0.80506 0.0
H4680 H 0.99537 0.59313 0.79102 0.0
H4681 H 0.94737 0.61003 0.71761 0.0
H4682 H 0.97241 0.61253 0.72488 0.0
H4683 H 0.95993 0.61108 0.76982 0.0
H4684 H 0.93478 0.60835 0.76266 0.0
H4685 H 0.98198 0.59351 0.76463 0.0
H4686 H 0.97097 0.6427 0.75451 0.0
H4687 H 0.96174 0.66307 0.74029 0.0
H4688 H 0.99253 0.65461 0.70684 0.0
H4689 H 0.00182 0.63401 0.7208 0.0
C4690 C 0.04833 0.61131 0.77888 0.0
C4691 C 0.05825 0.61106 0.7674 0.0
C4692 C 0.03363 0.61227 0.77611 0.0
C4693 C 0.02855 0.61283 0.76182 0.0
C4694 C 0.03842 0.61306 0.75037 0.0
C4695 C 0.05312 0.61218 0.75312 0.0
C4696 C 0.01293 0.61273 0.75876 0.0
C4697 C 0.00723 0.62389 0.75033 0.0
C4698 C 0.00367 0.60172 0.76411 0.0
C4699 C 0.0091 0.58928 0.77252 0.0
C4700 C 0.0197 0.58024 0.76673 0.0
C4701 C 0.02485 0.56862 0.77478 0.0
C4702 C 0.01939 0.56585 0.78859 0.0
C4703 C 0.00874 0.57467 0.79437 0.0
C4704 C 0.00357 0.58632 0.78636 0.0
C4705 C 0.94989 0.61031 0.72905 0.0
C4706 C 0.93902 0.60896 0.73954 0.0
C4707 C 0.96424 0.61183 0.73319 0.0
C4708 C 0.96803 0.61214 0.7479 0.0
C4709 C 0.95723 0.61088 0.75841 0.0
C4710 C 0.94285 0.60935 0.75428 0.0
C4711 C 0.98333 0.61318 0.75223 0.0
C4712 C 0.98898 0.60218 0.76088 0.0
C4713 C 0.99253 0.62433 0.74709 0.0
C4714 C 0.98701 0.63673 0.73866 0.0
C4715 C 0.9757 0.64511 0.74407 0.0
C4716 C 0.97047 0.65671 0.73606 0.0
C4717 C 0.97652 0.66013 0.72264 0.0
C4718 C 0.98784 0.65195 0.71723 0.0
C4719 C 0.99311 0.64031 0.7252 0.0
H4720 H 0.97247 0.66913 0.71646 0.0
H4721 H 0.0234 0.55684 0.79481 0.0
H4722 H 0.39356 0.93811 0.73863 0.0
H4723 H 0.39204 0.96432 0.7352 0.0
H4724 H 0.37628 0.96913 0.77881 0.0
H4725 H 0.37789 0.94301 0.7824 0.0
H4726 H 0.36204 0.98678 0.75814 0.0
H4727 H 0.40983 0.97444 0.7739 0.0
H4728 H 0.43274 0.96144 0.77245 0.0
H4729 H 0.44056 0.97933 0.7303 0.0
H4730 H 0.41756 0.99228 0.73141 0.0
H4731 H 0.38316 0.05695 0.782 0.0
H4732 H 0.37951 0.03092 0.77842 0.0
H4733 H 0.39517 0.0346 0.73466 0.0
H4734 H 0.39864 0.06072 0.73804 0.0
H4735 H 0.40852 0.01276 0.7517 0.0
H4736 H 0.36207 0.02788 0.73755 0.0
H4737 H 0.33933 0.04108 0.73941 0.0
H4738 H 0.32897 0.01833 0.77857 0.0
H4739 H 0.35179 0.00514 0.77708 0.0
C4740 C 0.38957 0.94472 0.74742 0.0
C4741 C 0.38598 0.93851 0.76084 0.0
C4742 C 0.38873 0.95968 0.74544 0.0
C4743 C 0.38414 0.96862 0.75679 0.0
C4744 C 0.37984 0.96238 0.76992 0.0
C4745 C 0.38085 0.94747 0.77198 0.0
C4746 C 0.38486 0.98455 0.75546 0.0
C4747 C 0.37219 0.99249 0.75678 0.0
C4748 C 0.39808 0.99193 0.75335 0.0
C4749 C 0.41189 0.98416 0.75265 0.0
C4750 C 0.41637 0.97548 0.76426 0.0
C4751 C 0.42938 0.96815 0.76351 0.0
C4752 C 0.43807 0.96951 0.75126 0.0
C4753 C 0.43379 0.97825 0.73976 0.0
C4754 C 0.42077 0.98559 0.74044 0.0
C4755 C 0.38573 0.05225 0.77158 0.0
C4756 C 0.39122 0.06088 0.76032 0.0
C4757 C 0.38357 0.0374 0.76953 0.0
C4758 C 0.38702 0.0309 0.75626 0.0
C4759 C 0.39241 0.03947 0.74495 0.0
C4760 C 0.39434 0.05437 0.74691 0.0
C4761 C 0.38573 0.01503 0.75458 0.0
C4762 C 0.39832 0.00708 0.75277 0.0
C4763 C 0.37244 0.00768 0.75626 0.0
C4764 C 0.35872 0.01561 0.75727 0.0
C4765 C 0.35502 0.02579 0.74664 0.0
C4766 C 0.3421 0.03325 0.74761 0.0
C4767 C 0.33273 0.03057 0.75912 0.0
C4768 C 0.33625 0.0204 0.76967 0.0
C4769 C 0.34918 0.01292 0.76876 0.0
H4770 H 0.32272 0.03635 0.75984 0.0
H4771 H 0.44815 0.96384 0.75071 0.0
H4772 H 0.05384 0.398 0.71339 0.0
H4773 H 0.02842 0.39718 0.71924 0.0
H4774 H 0.03841 0.38871 0.76397 0.0
H4775 H 0.06419 0.38969 0.75827 0.0
H4776 H 0.01459 0.37084 0.75017 0.0
H4777 H 0.02879 0.41949 0.75988 0.0
H4778 H 0.0414 0.44263 0.75541 0.0
H4779 H 0.0172 0.44837 0.7163 0.0
H4780 H 0.00459 0.42512 0.72043 0.0
H4781 H 0.93871 0.38648 0.76091 0.0
H4782 H 0.96479 0.38647 0.76489 0.0
H4783 H 0.97159 0.3988 0.72042 0.0
H4784 H 0.94578 0.39871 0.71629 0.0
H4785 H 0.98736 0.41566 0.74061 0.0
H4786 H 0.97624 0.36525 0.72937 0.0
H4787 H 0.96397 0.34184 0.73352 0.0
H4788 H 0.98248 0.33958 0.77603 0.0
H4789 H 0.99471 0.36311 0.7722 0.0
C4790 C 0.05074 0.39586 0.72449 0.0
C4791 C 0.06111 0.39401 0.73538 0.0
C4792 C 0.03617 0.39542 0.7278 0.0
C4793 C 0.03159 0.393 0.74203 0.0
C4794 C 0.0418 0.39062 0.75292 0.0
C4795 C 0.05649 0.39123 0.74964 0.0
C4796 C 0.01607 0.39358 0.74528 0.0
C4797 C 0.00863 0.3807 0.74849 0.0
C4798 C 0.00835 0.40644 0.74295 0.0
C4799 C 0.01581 0.4205 0.74043 0.0
C4800 C 0.02624 0.42562 0.75027 0.0
C4801 C 0.03337 0.43878 0.7478 0.0
C4802 C 0.03012 0.44696 0.73556 0.0
C4803 C 0.01971 0.44202 0.72578 0.0
C4804 C 0.01255 0.42886 0.72819 0.0
C4805 C 0.94578 0.38918 0.75199 0.0
C4806 C 0.94015 0.39259 0.73828 0.0
C4807 C 0.96065 0.38914 0.75428 0.0
C4808 C 0.97007 0.39267 0.74295 0.0
C4809 C 0.96448 0.39611 0.72931 0.0
C4810 C 0.9497 0.39598 0.72697 0.0
C4811 C 0.98583 0.39283 0.74503 0.0
C4812 C 0.99332 0.40588 0.74275 0.0
C4813 C 0.99355 0.38015 0.7483 0.0
C4814 C 0.98622 0.36602 0.75058 0.0
C4815 C 0.97758 0.35983 0.73966 0.0
C4816 C 0.97066 0.34652 0.74194 0.0
C4817 C 0.9724 0.33925 0.75505 0.0
C4818 C 0.98111 0.34525 0.76589 0.0
C4819 C 0.98804 0.35856 0.76367 0.0
H4820 H 0.96704 0.32895 0.75679 0.0
H4821 H 0.03566 0.45715 0.73367 0.0
H4822 H 0.62388 0.93417 0.75061 0.0
H4823 H 0.62706 0.96002 0.756 0.0
H4824 H 0.58894 0.96929 0.73116 0.0
H4825 H 0.58654 0.9437 0.72486 0.0
H4826 H 0.60625 0.98874 0.72562 0.0
H4827 H 0.59115 0.96793 0.7709 0.0
H4828 H 0.59235 0.95132 0.79172 0.0
H4829 H 0.63409 0.96822 0.80274 0.0
H4830 H 0.6332 0.98481 0.78187 0.0
H4831 H 0.595 0.05163 0.78063 0.0
H4832 H 0.59604 0.02582 0.77523 0.0
H4833 H 0.62601 0.03452 0.7406 0.0
H4834 H 0.6243 0.06049 0.74546 0.0
H4835 H 0.61436 0.00617 0.77582 0.0
H4836 H 0.62261 0.01029 0.71385 0.0
H4837 H 0.61713 0.02693 0.69379 0.0
H4838 H 0.58117 0.04335 0.7175 0.0
H4839 H 0.58634 0.0267 0.73761 0.0
C4840 C 0.61624 0.94181 0.74633 0.0
C4841 C 0.60497 0.93706 0.73737 0.0
C4842 C 0.61798 0.95655 0.74948 0.0
C4843 C 0.6081 0.96668 0.74421 0.0
C4844 C 0.59678 0.9618 0.73531 0.0
C4845 C 0.59535 0.94717 0.73177 0.0
C4846 C 0.60945 0.98237 0.74783 0.0
C4847 C 0.60802 0.9925 0.73662 0.0
C4848 C 0.61163 0.98742 0.76218 0.0
C4849 C 0.61217 0.97749 0.77475 0.0
C4850 C 0.60062 0.96803 0.77771 0.0
C4851 C 0.60124 0.95864 0.78953 0.0
C4852 C 0.61331 0.95869 0.79852 0.0
C4853 C 0.62476 0.96817 0.79575 0.0
C4854 C 0.6242 0.97758 0.78394 0.0
C4855 C 0.60184 0.04803 0.77189 0.0
C4856 C 0.60946 0.05806 0.76337 0.0
C4857 C 0.60247 0.03325 0.76883 0.0
C4858 C 0.61093 0.02817 0.75736 0.0
C4859 C 0.61909 0.03816 0.74926 0.0
C4860 C 0.61817 0.053 0.75207 0.0
C4861 C 0.61077 0.01248 0.75368 0.0
C4862 C 0.6126 0.00236 0.76483 0.0
C4863 C 0.60826 0.00743 0.73939 0.0
C4864 C 0.60497 0.01737 0.72729 0.0
C4865 C 0.61351 0.01743 0.71475 0.0
C4866 C 0.61046 0.02687 0.70338 0.0
C4867 C 0.59884 0.03623 0.70439 0.0
C4868 C 0.5902 0.03614 0.71675 0.0
C4869 C 0.59319 0.02671 0.72814 0.0
H4870 H 0.59651 0.04354 0.69559 0.0
H4871 H 0.61377 0.9514 0.80766 0.0
H4872 H 0.93241 0.3893 0.23861 0.0
H4873 H 0.95791 0.38697 0.23298 0.0
H4874 H 0.96844 0.39308 0.27808 0.0
H4875 H 0.94303 0.39542 0.28385 0.0
H4876 H 0.98467 0.41043 0.26017 0.0
H4877 H 0.97076 0.3604 0.26353 0.0
H4878 H 0.9563 0.33858 0.25785 0.0
H4879 H 0.9688 0.34147 0.21322 0.0
H4880 H 0.98317 0.36344 0.21858 0.0
H4881 H 0.05741 0.39078 0.25962 0.0
H4882 H 0.03167 0.39024 0.26428 0.0
H4883 H 0.02331 0.38613 0.21852 0.0
H4884 H 0.04915 0.3867 0.21367 0.0
H4885 H 0.00593 0.3677 0.23602 0.0
H4886 H 0.01965 0.41771 0.23258 0.0
H4887 H 0.03429 0.43942 0.23818 0.0
H4888 H 0.02205 0.43655 0.2829 0.0
H4889 H 0.00752 0.41467 0.27761 0.0
C4890 C 0.94013 0.39008 0.24736 0.0
C4891 C 0.93563 0.39262 0.26168 0.0
C4892 C 0.9547 0.38869 0.24412 0.0
C4893 C 0.96505 0.38982 0.25512 0.0
C4894 C 0.96062 0.3922 0.26943 0.0
C4895 C 0.94606 0.39351 0.2727 0.0
C4896 C 0.98055 0.38904 0.25167 0.0
C4897 C 0.98935 0.40101 0.25506 0.0
C4898 C 0.98656 0.37689 0.24467 0.0
C4899 C 0.97792 0.36367 0.24143 0.0
C4900 C 0.97033 0.35647 0.25248 0.0
C4901 C 0.96217 0.34406 0.24933 0.0
C4902 C 0.96161 0.33867 0.23518 0.0
C4903 C 0.96923 0.34567 0.22417 0.0
C4904 C 0.97739 0.3581 0.22726 0.0
C4905 C 0.05015 0.38966 0.25051 0.0
C4906 C 0.05539 0.38889 0.23624 0.0
C4907 C 0.03542 0.38938 0.25321 0.0
C4908 C 0.02561 0.38828 0.24173 0.0
C4909 C 0.03074 0.38701 0.22752 0.0
C4910 C 0.0455 0.3874 0.22478 0.0
C4911 C 0.01001 0.38903 0.24462 0.0
C4912 C 0.00122 0.3771 0.24111 0.0
C4913 C 0.00397 0.40122 0.25151 0.0
C4914 C 0.0126 0.41446 0.25472 0.0
C4915 C 0.02017 0.42163 0.24363 0.0
C4916 C 0.02844 0.43398 0.24675 0.0
C4917 C 0.02913 0.43934 0.2609 0.0
C4918 C 0.02152 0.43238 0.27195 0.0
C4919 C 0.01326 0.42001 0.2689 0.0
H4920 H 0.03553 0.4489 0.26328 0.0
H4921 H 0.95529 0.32906 0.23277 0.0
H4922 H 0.61302 0.05524 0.28236 0.0
H4923 H 0.61576 0.03018 0.27438 0.0
H4924 H 0.60261 0.04199 0.23127 0.0
H4925 H 0.5999 0.06713 0.23911 0.0
H4926 H 0.58792 0.01798 0.24202 0.0
H4927 H 0.63639 0.03433 0.23662 0.0
H4928 H 0.65917 0.046 0.24405 0.0
H4929 H 0.66387 0.01495 0.27817 0.0
H4930 H 0.64099 0.00322 0.27108 0.0
H4931 H 0.60271 0.94929 0.21133 0.0
H4932 H 0.60393 0.97535 0.21592 0.0
H4933 H 0.6175 0.96742 0.2598 0.0
H4934 H 0.61635 0.94135 0.25535 0.0
H4935 H 0.63273 0.98993 0.24697 0.0
H4936 H 0.58366 0.97486 0.25374 0.0
H4937 H 0.56072 0.96319 0.24683 0.0
H4938 H 0.55704 0.99194 0.21062 0.0
H4939 H 0.58009 0.00366 0.2172 0.0
C4940 C 0.61079 0.05254 0.27115 0.0
C4941 C 0.6062 0.06319 0.26138 0.0
C4942 C 0.61243 0.03823 0.2666 0.0
C4943 C 0.60945 0.03426 0.25222 0.0
C4944 C 0.60499 0.04486 0.2424 0.0
C4945 C 0.60349 0.05922 0.24691 0.0
C4946 C 0.61034 0.01892 0.24766 0.0
C4947 C 0.59778 0.01191 0.24283 0.0
C4948 C 0.62313 0.01095 0.24908 0.0
C4949 C 0.63689 0.01798 0.2534 0.0
C4950 C 0.64221 0.03007 0.24579 0.0
C4951 C 0.65515 0.03668 0.24993 0.0
C4952 C 0.66294 0.03124 0.2616 0.0
C4953 C 0.65781 0.01916 0.26914 0.0
C4954 C 0.64486 0.01252 0.26506 0.0
C4955 C 0.60608 0.95306 0.22193 0.0
C4956 C 0.60932 0.9432 0.23301 0.0
C4957 C 0.60673 0.96796 0.22453 0.0
C4958 C 0.61068 0.97328 0.23823 0.0
C4959 C 0.61442 0.96352 0.24915 0.0
C4960 C 0.61368 0.94862 0.2466 0.0
C4961 C 0.6103 0.989 0.2414 0.0
C4962 C 0.62292 0.99606 0.24601 0.0
C4963 C 0.59755 0.99702 0.23984 0.0
C4964 C 0.58368 0.99001 0.23586 0.0
C4965 C 0.57803 0.97861 0.24423 0.0
C4966 C 0.56499 0.972 0.24038 0.0
C4967 C 0.55745 0.97679 0.22826 0.0
C4968 C 0.56291 0.98822 0.21999 0.0
C4969 C 0.57596 0.99486 0.22377 0.0
H4970 H 0.54736 0.97167 0.22531 0.0
H4971 H 0.67297 0.03637 0.26478 0.0
H4972 H 0.05572 0.59831 0.28457 0.0
H4973 H 0.03041 0.60055 0.27819 0.0
H4974 H 0.04222 0.61496 0.23542 0.0
H4975 H 0.06764 0.61269 0.24166 0.0
H4976 H 0.01995 0.63126 0.24821 0.0
H4977 H 0.03167 0.58201 0.23836 0.0
H4978 H 0.04151 0.55793 0.24353 0.0
H4979 H 0.0118 0.55261 0.27867 0.0
H4980 H 0.00192 0.57678 0.27385 0.0
H4981 H 0.95098 0.61612 0.21525 0.0
H4982 H 0.97671 0.61687 0.22088 0.0
H4983 H 0.96755 0.60465 0.26496 0.0
H4984 H 0.94188 0.60411 0.25955 0.0
H4985 H 0.9887 0.58744 0.25049 0.0
H4986 H 0.97721 0.63701 0.26032 0.0
H4987 H 0.96739 0.66104 0.25488 0.0
H4988 H 0.99662 0.66561 0.21923 0.0
H4989 H 0.00647 0.64147 0.22433 0.0
C4990 C 0.05298 0.60204 0.27382 0.0
C4991 C 0.06372 0.60522 0.26359 0.0
C4992 C 0.0385 0.60328 0.27019 0.0
C4993 C 0.03448 0.60781 0.2563 0.0
C4994 C 0.04513 0.61142 0.24619 0.0
C4995 C 0.05963 0.61004 0.24976 0.0
C4996 C 0.01912 0.60832 0.25227 0.0
C4997 C 0.01314 0.62166 0.2485 0.0
C4998 C 0.01024 0.59581 0.25288 0.0
C4999 C 0.01616 0.58128 0.25584 0.0
C5000 C 0.02733 0.57577 0.24728 0.0
C5001 C 0.0329 0.56209 0.25013 0.0
C5002 C 0.02732 0.55376 0.26145 0.0
C5003 C 0.01613 0.55909 0.26992 0.0
C5004 C 0.01053 0.57277 0.26713 0.0
C5005 C 0.95445 0.6137 0.22616 0.0
C5006 C 0.9444 0.61004 0.23694 0.0
C5007 C 0.96912 0.61417 0.22936 0.0
C5008 C 0.97397 0.61081 0.24332 0.0
C5009 C 0.96398 0.60727 0.25412 0.0
C5010 C 0.94932 0.60703 0.25101 0.0
C5011 C 0.98949 0.61039 0.24657 0.0
C5012 C 0.99551 0.59704 0.25016 0.0
C5013 C 0.99838 0.62287 0.24573 0.0
C5014 C 0.99244 0.63735 0.24259 0.0
C5015 C 0.98143 0.64306 0.25122 0.0
C5016 C 0.97589 0.65672 0.24822 0.0
C5017 C 0.98135 0.66483 0.23669 0.0
C5018 C 0.99238 0.6593 0.22814 0.0
C5019 C 0.99795 0.64563 0.23108 0.0
H5020 H 0.97705 0.67541 0.23439 0.0
H5021 H 0.03164 0.54317 0.26363 0.0
H5022 H 0.39094 0.05422 0.21009 0.0
H5023 H 0.39023 0.02807 0.21349 0.0
H5024 H 0.39228 0.03403 0.2598 0.0
H5025 H 0.39263 0.06026 0.25653 0.0
H5026 H 0.40981 0.01109 0.22499 0.0
H5027 H 0.37584 0.00511 0.27641 0.0
H5028 H 0.35694 0.01815 0.28964 0.0
H5029 H 0.34175 0.03614 0.24973 0.0
H5030 H 0.36045 0.02309 0.23626 0.0
H5031 H 0.39383 0.93699 0.26132 0.0
H5032 H 0.39335 0.96349 0.26291 0.0
H5033 H 0.38782 0.96598 0.21663 0.0
H5034 H 0.38839 0.93975 0.21487 0.0
H5035 H 0.37368 0.98463 0.25456 0.0
H5036 H 0.40952 0.99214 0.20362 0.0
H5037 H 0.42882 0.97925 0.19087 0.0
H5038 H 0.44073 0.95829 0.23044 0.0
H5039 H 0.42166 0.97121 0.24348 0.0
C5040 C 0.39114 0.05001 0.22102 0.0
C5041 C 0.39183 0.05937 0.23303 0.0
C5042 C 0.39077 0.03503 0.22294 0.0
C5043 C 0.39111 0.02908 0.2369 0.0
C5044 C 0.39176 0.03837 0.24894 0.0
C5045 C 0.39201 0.05338 0.24703 0.0
C5046 C 0.39124 0.01313 0.23869 0.0
C5047 C 0.40181 0.00531 0.23133 0.0
C5048 C 0.38117 0.00562 0.24746 0.0
C5049 C 0.36964 0.01324 0.25536 0.0
C5050 C 0.36842 0.0118 0.27046 0.0
C5051 C 0.35776 0.0192 0.278 0.0
C5052 C 0.34818 0.028 0.27053 0.0
C5053 C 0.34921 0.02936 0.2555 0.0
C5054 C 0.35985 0.02198 0.24791 0.0
C5055 C 0.39238 0.94318 0.2515 0.0
C5056 C 0.39136 0.93621 0.23794 0.0
C5057 C 0.39208 0.9583 0.25244 0.0
C5058 C 0.39081 0.96666 0.23986 0.0
C5059 C 0.38908 0.95972 0.22645 0.0
C5060 C 0.3894 0.94469 0.22548 0.0
C5061 C 0.39193 0.98266 0.24043 0.0
C5062 C 0.38171 0.99045 0.24829 0.0
C5063 C 0.40238 0.9902 0.23219 0.0
C5064 C 0.41407 0.98256 0.2245 0.0
C5065 C 0.41631 0.98484 0.20962 0.0
C5066 C 0.4272 0.97752 0.20234 0.0
C5067 C 0.43597 0.96793 0.20983 0.0
C5068 C 0.4339 0.96568 0.22464 0.0
C5069 C 0.42304 0.97299 0.23198 0.0
H5070 H 0.44438 0.96226 0.20417 0.0
H5071 H 0.33996 0.03375 0.27639 0.0
H5072 H 0.77996 0.04948 0.60357 0.0
H5073 H 0.77429 0.02377 0.60573 0.0
H5074 H 0.73048 0.03379 0.61642 0.0
H5075 H 0.73605 0.05968 0.61436 0.0
H5076 H 0.74148 0.01169 0.63353 0.0
H5077 H 0.73723 0.02316 0.58347 0.0
H5078 H 0.74458 0.03348 0.56 0.0
H5079 H 0.78107 0.00557 0.55894 0.0
H5080 H 0.77405 0.99523 0.58253 0.0
H5081 H 0.71529 0.93989 0.61779 0.0
H5082 H 0.71925 0.96607 0.6188 0.0
H5083 H 0.76373 0.96025 0.60759 0.0
H5084 H 0.75989 0.93409 0.60643 0.0
H5085 H 0.7507 0.98056 0.59073 0.0
H5086 H 0.75447 0.96938 0.64159 0.0
H5087 H 0.74579 0.95859 0.6644 0.0
H5088 H 0.70868 0.98566 0.66326 0.0
H5089 H 0.71705 0.99648 0.64033 0.0
C5090 C 0.76912 0.04629 0.60646 0.0
C5091 C 0.75843 0.05669 0.60867 0.0
C5092 C 0.7659 0.03156 0.60766 0.0
C5093 C 0.75193 0.02689 0.61107 0.0
C5094 C 0.74132 0.0372 0.61375 0.0
C5095 C 0.74452 0.05198 0.61249 0.0
C5096 C 0.74842 0.0112 0.61128 0.0
C5097 C 0.74331 0.0049 0.62413 0.0
C5098 C 0.75091 0.00234 0.59904 0.0
C5099 C 0.75519 0.00852 0.58484 0.0
C5100 C 0.74689 0.01931 0.5783 0.0
C5101 C 0.75098 0.02515 0.56496 0.0
C5102 C 0.7633 0.02022 0.558 0.0
C5103 C 0.77154 0.0094 0.56435 0.0
C5104 C 0.7675 0.00354 0.5777 0.0
C5105 C 0.72595 0.94415 0.61562 0.0
C5106 C 0.73726 0.93488 0.61194 0.0
C5107 C 0.7282 0.95912 0.61627 0.0
C5108 C 0.74179 0.96508 0.61328 0.0
C5109 C 0.75315 0.95585 0.60989 0.0
C5110 C 0.75094 0.94089 0.6093 0.0
C5111 C 0.74408 0.98098 0.61305 0.0
C5112 C 0.74888 0.98734 0.60015 0.0
C5113 C 0.74117 0.98986 0.62519 0.0
C5114 C 0.73632 0.98365 0.63918 0.0
C5115 C 0.74442 0.97298 0.64617 0.0
C5116 C 0.73956 0.96687 0.65912 0.0
C5117 C 0.72668 0.97141 0.66525 0.0
C5118 C 0.71866 0.98214 0.65849 0.0
C5119 C 0.72346 0.98828 0.64552 0.0
H5120 H 0.72291 0.96664 0.67526 0.0
H5121 H 0.76645 0.02474 0.54767 0.0
H5122 H 0.73684 0.05855 0.39111 0.0
H5123 H 0.73107 0.03275 0.38948 0.0
H5124 H 0.77616 0.02282 0.38992 0.0
H5125 H 0.7821 0.04861 0.3915 0.0
H5126 H 0.76086 0.00651 0.36971 0.0
H5127 H 0.75764 0.01936 0.42012 0.0
H5128 H 0.7492 0.0337 0.44093 0.0
H5129 H 0.70563 0.02141 0.43132 0.0
H5130 H 0.7138 0.00717 0.4103 0.0
H5131 H 0.75733 0.93252 0.39058 0.0
H5132 H 0.76222 0.95849 0.38893 0.0
H5133 H 0.7168 0.96687 0.38994 0.0
H5134 H 0.71177 0.94094 0.39168 0.0
H5135 H 0.73164 0.98413 0.40877 0.0
H5136 H 0.73492 0.97036 0.35892 0.0
H5137 H 0.74338 0.95609 0.33808 0.0
H5138 H 0.78671 0.97004 0.34649 0.0
H5139 H 0.77855 0.98422 0.36754 0.0
C5140 C 0.74556 0.05091 0.39078 0.0
C5141 C 0.75995 0.05568 0.39155 0.0
C5142 C 0.74223 0.03616 0.38988 0.0
C5143 C 0.75319 0.02589 0.38973 0.0
C5144 C 0.76755 0.03059 0.39004 0.0
C5145 C 0.77091 0.04534 0.39101 0.0
C5146 C 0.74966 0.01021 0.38974 0.0
C5147 C 0.7546 0.00157 0.37831 0.0
C5148 C 0.74124 0.00387 0.40083 0.0
C5149 C 0.73632 0.01232 0.41354 0.0
C5150 C 0.74625 0.01981 0.42237 0.0
C5151 C 0.74152 0.0279 0.43422 0.0
C5152 C 0.72688 0.0285 0.43742 0.0
C5153 C 0.71696 0.02096 0.42881 0.0
C5154 C 0.72163 0.01287 0.41694 0.0
C5155 C 0.74836 0.93985 0.39039 0.0
C5156 C 0.73415 0.9346 0.39133 0.0
C5157 C 0.75118 0.9547 0.38938 0.0
C5158 C 0.73987 0.96459 0.38925 0.0
C5159 C 0.72569 0.95941 0.39006 0.0
C5160 C 0.72284 0.94457 0.39103 0.0
C5161 C 0.74286 0.98038 0.38874 0.0
C5162 C 0.73784 0.98906 0.4001 0.0
C5163 C 0.7512 0.98674 0.37759 0.0
C5164 C 0.75613 0.97825 0.3649 0.0
C5165 C 0.74627 0.97029 0.35641 0.0
C5166 C 0.751 0.96224 0.34454 0.0
C5167 C 0.76557 0.96213 0.34098 0.0
C5168 C 0.77543 0.97012 0.34927 0.0
C5169 C 0.77075 0.97818 0.36116 0.0
H5170 H 0.76922 0.95589 0.33179 0.0
H5171 H 0.72324 0.03477 0.44659 0.0
H5172 H 0.94149 0.72231 0.37537 0.0
H5173 H 0.9669 0.72813 0.37204 0.0
H5174 H 0.96127 0.76854 0.39479 0.0
H5175 H 0.93568 0.76304 0.39759 0.0
H5176 H 0.97913 0.77245 0.37326 0.0
H5177 H 0.97468 0.73703 0.41156 0.0
H5178 H 0.96703 0.7137 0.42214 0.0
H5179 H 0.99147 0.69091 0.39015 0.0
H5180 H 0.99913 0.71411 0.37929 0.0
H5181 H 0.05024 0.78615 0.39716 0.0
H5182 H 0.02461 0.78143 0.39427 0.0
H5183 H 0.0337 0.74136 0.37217 0.0
H5184 H 0.05942 0.74575 0.37554 0.0
H5185 H 0.01417 0.7368 0.39141 0.0
H5186 H 0.02032 0.77254 0.35433 0.0
H5187 H 0.0281 0.79598 0.34411 0.0
H5188 H 0.00074 0.81832 0.3739 0.0
H5189 H 0.99294 0.79503 0.38443 0.0
C5190 C 0.94565 0.73248 0.37957 0.0
C5191 C 0.93663 0.74215 0.38689 0.0
C5192 C 0.96019 0.73578 0.37771 0.0
C5193 C 0.96609 0.74861 0.38347 0.0
C5194 C 0.95699 0.75854 0.3903 0.0
C5195 C 0.94237 0.75537 0.39192 0.0
C5196 C 0.98181 0.75147 0.38292 0.0
C5197 C 0.9868 0.76471 0.37734 0.0
C5198 C 0.99185 0.74123 0.38791 0.0
C5199 C 0.98736 0.72729 0.39454 0.0
C5200 C 0.97836 0.72704 0.40675 0.0
C5201 C 0.97403 0.71384 0.41279 0.0
C5202 C 0.97873 0.70083 0.4068 0.0
C5203 C 0.98782 0.701 0.39477 0.0
C5204 C 0.99217 0.71416 0.38867 0.0
C5205 C 0.04681 0.77641 0.39152 0.0
C5206 C 0.05688 0.76631 0.38659 0.0
C5207 C 0.03212 0.77376 0.3898 0.0
C5208 C 0.02718 0.76113 0.38281 0.0
C5209 C 0.03724 0.75118 0.37759 0.0
C5210 C 0.05193 0.75372 0.37951 0.0
C5211 C 0.01156 0.75784 0.38183 0.0
C5212 C 0.00656 0.7445 0.38717 0.0
C5213 C 0.00154 0.76801 0.37665 0.0
C5214 C 0.00612 0.78203 0.37023 0.0
C5215 C 0.01603 0.78245 0.35876 0.0
C5216 C 0.02043 0.79571 0.3529 0.0
C5217 C 0.01494 0.80863 0.35837 0.0
C5218 C 0.00499 0.80831 0.36968 0.0
C5219 C 0.00056 0.79508 0.37558 0.0
H5220 H 0.01837 0.81888 0.35383 0.0
H5221 H 0.97536 0.69063 0.41149 0.0
H5222 H 0.23866 0.06342 0.39026 0.0
H5223 H 0.23379 0.03745 0.3882 0.0
H5224 H 0.2792 0.02937 0.38551 0.0
H5225 H 0.28421 0.05529 0.3874 0.0
H5226 H 0.26412 0.01273 0.36637 0.0
H5227 H 0.262 0.0246 0.41695 0.0
H5228 H 0.25381 0.03803 0.43846 0.0
H5229 H 0.21043 0.02406 0.4303 0.0
H5230 H 0.21835 0.0107 0.4086 0.0
H5231 H 0.26359 0.93812 0.38655 0.0
H5232 H 0.26777 0.96422 0.38473 0.0
H5233 H 0.2222 0.97141 0.38728 0.0
H5234 H 0.21788 0.94542 0.38921 0.0
H5235 H 0.23703 0.98858 0.40591 0.0
H5236 H 0.23967 0.97575 0.35561 0.0
H5237 H 0.24835 0.96211 0.33443 0.0
H5238 H 0.29127 0.97755 0.34243 0.0
H5239 H 0.28289 0.99113 0.36379 0.0
C5240 C 0.24763 0.05615 0.38914 0.0
C5241 C 0.26184 0.06146 0.38913 0.0
C5242 C 0.24482 0.0413 0.388 0.0
C5243 C 0.25615 0.03149 0.38688 0.0
C5244 C 0.2703 0.03677 0.38639 0.0
C5245 C 0.27313 0.0516 0.38755 0.0
C5246 C 0.25329 0.01568 0.38674 0.0
C5247 C 0.25832 0.0074 0.37507 0.0
C5248 C 0.24553 0.0088 0.398 0.0
C5249 C 0.24075 0.01678 0.41106 0.0
C5250 C 0.2507 0.02449 0.41967 0.0
C5251 C 0.24611 0.03207 0.43191 0.0
C5252 C 0.2316 0.03193 0.43572 0.0
C5253 C 0.22166 0.02418 0.42732 0.0
C5254 C 0.22619 0.01659 0.41506 0.0
C5255 C 0.25444 0.94523 0.38661 0.0
C5256 C 0.2404 0.93963 0.38808 0.0
C5257 C 0.25685 0.96015 0.38551 0.0
C5258 C 0.24528 0.96974 0.38581 0.0
C5259 C 0.23127 0.96419 0.38704 0.0
C5260 C 0.22884 0.9493 0.38811 0.0
C5261 C 0.2478 0.9856 0.3855 0.0
C5262 C 0.24275 0.99389 0.39714 0.0
C5263 C 0.2556 0.99244 0.37426 0.0
C5264 C 0.26067 0.98434 0.36138 0.0
C5265 C 0.25098 0.97614 0.35292 0.0
C5266 C 0.25584 0.96844 0.34087 0.0
C5267 C 0.27036 0.96893 0.33711 0.0
C5268 C 0.28004 0.97716 0.34537 0.0
C5269 C 0.27523 0.98488 0.35744 0.0
H5270 H 0.2741 0.96297 0.32777 0.0
H5271 H 0.22807 0.03781 0.44519 0.0
H5272 H 0.0593 0.28072 0.3801 0.0
H5273 H 0.03367 0.27583 0.37675 0.0
H5274 H 0.03877 0.23343 0.39544 0.0
H5275 H 0.06451 0.23803 0.39812 0.0
H5276 H 0.02069 0.2317 0.37401 0.0
H5277 H 0.02621 0.26386 0.41529 0.0
H5278 H 0.03437 0.28622 0.42762 0.0
H5279 H 0.00977 0.3117 0.398 0.0
H5280 H 0.00159 0.28949 0.3854 0.0
H5281 H 0.95021 0.21621 0.39792 0.0
H5282 H 0.97582 0.22148 0.39574 0.0
H5283 H 0.9664 0.2628 0.37649 0.0
H5284 H 0.94071 0.25778 0.37905 0.0
H5285 H 0.98641 0.266 0.39606 0.0
H5286 H 0.9791 0.23349 0.35615 0.0
H5287 H 0.97084 0.21105 0.34408 0.0
H5288 H 0.99863 0.18609 0.37113 0.0
H5289 H 0.00693 0.20837 0.3835 0.0
C5290 C 0.05495 0.27033 0.38339 0.0
C5291 C 0.06387 0.25981 0.38948 0.0
C5292 C 0.04029 0.26756 0.38154 0.0
C5293 C 0.03421 0.25438 0.38615 0.0
C5294 C 0.04319 0.2437 0.39183 0.0
C5295 C 0.0579 0.24635 0.3934 0.0
C5296 C 0.01845 0.25183 0.38557 0.0
C5297 C 0.0132 0.23914 0.37894 0.0
C5298 C 0.00862 0.26172 0.39165 0.0
C5299 C 0.0134 0.27504 0.39934 0.0
C5300 C 0.0226 0.27424 0.41137 0.0
C5301 C 0.02722 0.28688 0.41841 0.0
C5302 C 0.02262 0.30037 0.41357 0.0
C5303 C 0.01334 0.30125 0.40172 0.0
C5304 C 0.0087 0.28864 0.39464 0.0
C5305 C 0.95357 0.22638 0.39313 0.0
C5306 C 0.9434 0.23657 0.38865 0.0
C5307 C 0.96823 0.22935 0.39182 0.0
C5308 C 0.97305 0.24244 0.38573 0.0
C5309 C 0.96293 0.25261 0.38119 0.0
C5310 C 0.94825 0.24972 0.38266 0.0
C5311 C 0.98865 0.24576 0.38468 0.0
C5312 C 0.99387 0.25861 0.391 0.0
C5313 C 0.99844 0.236 0.37834 0.0
C5314 C 0.99356 0.2226 0.37082 0.0
C5315 C 0.98339 0.22321 0.35958 0.0
C5316 C 0.97871 0.21052 0.35268 0.0
C5317 C 0.98419 0.19715 0.35685 0.0
C5318 C 0.99439 0.19645 0.36791 0.0
C5319 C 0.9991 0.20911 0.37486 0.0
H5320 H 0.98054 0.18734 0.3515 0.0
H5321 H 0.02623 0.31014 0.41903 0.0
H5322 H 0.28689 0.05678 0.60757 0.0
H5323 H 0.28283 0.03077 0.61014 0.0
H5324 H 0.23751 0.03781 0.61564 0.0
H5325 H 0.24141 0.06391 0.61307 0.0
H5326 H 0.24846 0.01748 0.63499 0.0
H5327 H 0.24894 0.02724 0.58389 0.0
H5328 H 0.25887 0.03695 0.56112 0.0
H5329 H 0.29587 0.0101 0.5657 0.0
H5330 H 0.28625 0.00037 0.58862 0.0
H5331 H 0.21991 0.94808 0.61685 0.0
H5332 H 0.2262 0.97372 0.61875 0.0
H5333 H 0.27071 0.96381 0.61144 0.0
H5334 H 0.26455 0.93808 0.60945 0.0
H5335 H 0.26141 0.98545 0.59392 0.0
H5336 H 0.26016 0.97446 0.64433 0.0
H5337 H 0.25007 0.96466 0.66698 0.0
H5338 H 0.21451 0.99359 0.66377 0.0
H5339 H 0.22428 0.00342 0.64096 0.0
C5340 C 0.27604 0.05285 0.60937 0.0
C5341 C 0.26445 0.06247 0.60996 0.0
C5342 C 0.27376 0.03796 0.61083 0.0
C5343 C 0.25986 0.03237 0.61293 0.0
C5344 C 0.24832 0.04193 0.614 0.0
C5345 C 0.25057 0.05683 0.61246 0.0
C5346 C 0.2573 0.01652 0.61348 0.0
C5347 C 0.25115 0.01047 0.62597 0.0
C5348 C 0.26114 0.00738 0.60183 0.0
C5349 C 0.26695 0.01321 0.58806 0.0
C5350 C 0.25926 0.0235 0.58011 0.0
C5351 C 0.26482 0.02899 0.56716 0.0
C5352 C 0.27801 0.02418 0.56199 0.0
C5353 C 0.28566 0.01384 0.56973 0.0
C5354 C 0.28016 0.00833 0.5827 0.0
C5355 C 0.23107 0.95129 0.61577 0.0
C5356 C 0.24171 0.94098 0.61293 0.0
C5357 C 0.23465 0.96597 0.61694 0.0
C5358 C 0.24893 0.97067 0.6153 0.0
C5359 C 0.25963 0.96041 0.61274 0.0
C5360 C 0.25607 0.9457 0.61166 0.0
C5361 C 0.25252 0.98635 0.61542 0.0
C5362 C 0.25883 0.9924 0.60302 0.0
C5363 C 0.24882 0.99547 0.62714 0.0
C5364 C 0.24289 0.98958 0.64085 0.0
C5365 C 0.25012 0.97864 0.64838 0.0
C5366 C 0.24447 0.9731 0.66126 0.0
C5367 C 0.23164 0.97847 0.66679 0.0
C5368 C 0.22444 0.98943 0.65946 0.0
C5369 C 0.23004 0.995 0.64656 0.0
H5370 H 0.22729 0.97417 0.67677 0.0
H5371 H 0.2823 0.02844 0.55196 0.0
H5372 H 0.94619 0.2796 0.59386 0.0
H5373 H 0.97151 0.27344 0.59451 0.0
H5374 H 0.96083 0.23136 0.61172 0.0
H5375 H 0.93518 0.23738 0.61093 0.0
H5376 H 0.98442 0.24752 0.62642 0.0
H5377 H 0.9707 0.23026 0.57987 0.0
H5378 H 0.95876 0.23101 0.55606 0.0
H5379 H 0.98447 0.26796 0.54416 0.0
H5380 H 0.99641 0.26759 0.568 0.0
H5381 H 0.06056 0.23465 0.61437 0.0
H5382 H 0.03446 0.23042 0.61438 0.0
H5383 H 0.0283 0.2719 0.59418 0.0
H5384 H 0.0541 0.27627 0.59424 0.0
H5385 H 0.01273 0.24925 0.58096 0.0
H5386 H 0.02275 0.26904 0.6288 0.0
H5387 H 0.03437 0.26919 0.65279 0.0
H5388 H 0.01549 0.22766 0.66223 0.0
H5389 H 0.00392 0.22718 0.63817 0.0
C5390 C 0.94916 0.26902 0.59782 0.0
C5391 C 0.93865 0.25897 0.60234 0.0
C5392 C 0.96365 0.26551 0.59813 0.0
C5393 C 0.968 0.25193 0.60307 0.0
C5394 C 0.95763 0.24189 0.60783 0.0
C5395 C 0.94302 0.24533 0.60732 0.0
C5396 C 0.98348 0.24853 0.60315 0.0
C5397 C 0.99061 0.24747 0.61648 0.0
C5398 C 0.99151 0.24867 0.59017 0.0
C5399 C 0.9844 0.24894 0.57577 0.0
C5400 C 0.97373 0.23862 0.57222 0.0
C5401 C 0.96697 0.23897 0.55871 0.0
C5402 C 0.97084 0.24954 0.54861 0.0
C5403 C 0.98149 0.25978 0.552 0.0
C5404 C 0.98827 0.25949 0.5655 0.0
C5405 C 0.05362 0.24285 0.60993 0.0
C5406 C 0.05942 0.25582 0.60435 0.0
C5407 C 0.03874 0.24042 0.60997 0.0
C5408 C 0.02949 0.25085 0.60427 0.0
C5409 C 0.03527 0.2637 0.59858 0.0
C5410 C 0.05004 0.26621 0.59871 0.0
C5411 C 0.01371 0.24872 0.60424 0.0
C5412 C 0.00653 0.24881 0.59089 0.0
C5413 C 0.00568 0.2477 0.61719 0.0
C5414 C 0.01265 0.24797 0.63162 0.0
C5415 C 0.02121 0.25987 0.63593 0.0
C5416 C 0.02776 0.26003 0.64955 0.0
C5417 C 0.02572 0.24841 0.65901 0.0
C5418 C 0.01709 0.23663 0.65487 0.0
C5419 C 0.01054 0.23641 0.64125 0.0
H5420 H 0.03079 0.24856 0.66956 0.0
H5421 H 0.9656 0.24978 0.53816 0.0
H5422 H 0.05598 0.71403 0.61523 0.0
H5423 H 0.03045 0.71917 0.61627 0.0
H5424 H 0.03922 0.76422 0.60752 0.0
H5425 H 0.06501 0.75921 0.60656 0.0
H5426 H 0.01693 0.7599 0.62795 0.0
H5427 H 0.02893 0.74475 0.5803 0.0
H5428 H 0.04031 0.72949 0.56173 0.0
H5429 H 0.01529 0.69285 0.57583 0.0
H5430 H 0.00391 0.70783 0.59465 0.0
H5431 H 0.94106 0.76448 0.60698 0.0
H5432 H 0.96731 0.76728 0.60773 0.0
H5433 H 0.97129 0.72178 0.61694 0.0
H5434 H 0.94537 0.71886 0.61626 0.0
H5435 H 0.98754 0.73074 0.59352 0.0
H5436 H 0.97728 0.74646 0.64282 0.0
H5437 H 0.96616 0.7624 0.66098 0.0
H5438 H 0.98778 0.79924 0.64249 0.0
H5439 H 0.99889 0.78353 0.62409 0.0
C5440 C 0.05256 0.72508 0.61365 0.0
C5441 C 0.06256 0.73617 0.61059 0.0
C5442 C 0.03794 0.72799 0.61426 0.0
C5443 C 0.03294 0.74202 0.61171 0.0
C5444 C 0.04288 0.75331 0.60945 0.0
C5445 C 0.0576 0.75041 0.60888 0.0
C5446 C 0.0173 0.74443 0.61046 0.0
C5447 C 0.01049 0.75374 0.62026 0.0
C5448 C 0.00894 0.73645 0.60036 0.0
C5449 C 0.01563 0.7274 0.58895 0.0
C5450 C 0.02591 0.73341 0.5795 0.0
C5451 C 0.03236 0.72482 0.56892 0.0
C5452 C 0.02854 0.7102 0.56761 0.0
C5453 C 0.01824 0.70417 0.57686 0.0
C5454 C 0.01177 0.71272 0.58747 0.0
C5455 C 0.94753 0.75512 0.60935 0.0
C5456 C 0.94108 0.74141 0.61138 0.0
C5457 C 0.96251 0.75675 0.60978 0.0
C5458 C 0.97122 0.74471 0.61229 0.0
C5459 C 0.96477 0.73119 0.61486 0.0
C5460 C 0.9499 0.72956 0.61446 0.0
C5461 C 0.98708 0.7457 0.61143 0.0
C5462 C 0.99396 0.73707 0.60109 0.0
C5463 C 0.99543 0.75445 0.6209 0.0
C5464 C 0.98877 0.76385 0.63197 0.0
C5465 C 0.97956 0.75798 0.64254 0.0
C5466 C 0.97328 0.76697 0.6529 0.0
C5467 C 0.97622 0.78183 0.65286 0.0
C5468 C 0.98549 0.78773 0.64249 0.0
C5469 C 0.99178 0.77879 0.6321 0.0
H5470 H 0.97136 0.78877 0.66088 0.0
H5471 H 0.03354 0.70356 0.55942 0.0
loop_
_geom_bond_atom_site_label_1
_geom_bond_atom_site_label_2
_geom_bond_distance
_geom_bond_site_symmetry_2
_ccdc_geom_bond_type
Co0 O1 2.216 . S
Co0 O2 2.091 . S
Co0 O4 2.004 . S
Co0 O10 2.021 . S
Co0 O12 2.137 . S
Co0 O13 2.244 . S
O1 Co0 2.216 . S
O1 C8 1.247 . S
O2 Co0 2.091 . S
O2 C8 1.261 . S
C3 O12 1.247 . S
C3 O13 1.272 . S
O4 Co0 2.004 . S
O4 C9 1.259 . S
Co5 O6 2.061 . S
Co5 O11 2.052 . S
Co5 O13 2.135 . S
O6 Co5 2.061 . S
O6 C9 1.235 . S
C7 O10 1.238 . S
C7 O11 1.241 . S
C8 O1 1.247 . S
C8 O2 1.261 . S
C9 O4 1.259 . S
C9 O6 1.235 . S
O10 Co0 2.021 . S
O10 C7 1.238 . S
O11 Co5 2.052 . S
O11 C7 1.241 . S
O12 Co0 2.137 . S
O12 C3 1.247 . S
O13 Co0 2.244 . S
O13 C3 1.272 . S
O13 Co5 2.135 . S
Co14 O15 2.216 . S
Co14 O16 2.091 . S
Co14 O18 2.004 . S
Co14 O24 2.021 . S
Co14 O26 2.137 . S
Co14 O27 2.244 . S
O15 Co14 2.216 . S
O15 C22 1.247 . S
O16 Co14 2.091 . S
O16 C22 1.261 . S
C17 O26 1.247 . S
C17 O27 1.272 . S
O18 Co14 2.004 . S
O18 C23 1.259 . S
Co19 O20 2.061 . S
Co19 O25 2.052 . S
Co19 O27 2.135 . S
O20 Co19 2.061 . S
O20 C23 1.235 . S
C21 O24 1.238 . S
C21 O25 1.241 . S
C22 O15 1.247 . S
C22 O16 1.261 . S
C23 O18 1.259 . S
C23 O20 1.235 . S
O24 Co14 2.021 . S
O24 C21 1.238 . S
O25 Co19 2.052 . S
O25 C21 1.241 . S
O26 Co14 2.137 . S
O26 C17 1.247 . S
O27 Co14 2.244 . S
O27 C17 1.272 . S
O27 Co19 2.135 . S
Co28 O29 2.216 . S
Co28 O30 2.091 . S
Co28 O32 2.004 . S
Co28 O38 2.021 . S
Co28 O40 2.137 . S
Co28 O41 2.244 . S
O29 Co28 2.216 . S
O29 C36 1.247 . S
O30 Co28 2.091 . S
O30 C36 1.261 . S
C31 O40 1.247 . S
C31 O41 1.272 . S
O32 Co28 2.004 . S
O32 C37 1.259 . S
Co33 O34 2.061 . S
Co33 O39 2.052 . S
Co33 O41 2.135 . S
O34 Co33 2.061 . S
O34 C37 1.235 . S
C35 O38 1.238 . S
C35 O39 1.241 . S
C36 O29 1.247 . S
C36 O30 1.261 . S
C37 O32 1.259 . S
C37 O34 1.235 . S
O38 Co28 2.021 . S
O38 C35 1.238 . S
O39 Co33 2.052 . S
O39 C35 1.241 . S
O40 Co28 2.137 . S
O40 C31 1.247 . S
O41 Co28 2.244 . S
O41 C31 1.272 . S
O41 Co33 2.135 . S
Co42 O43 2.216 . S
Co42 O44 2.091 . S
Co42 O46 2.004 . S
Co42 O52 2.021 . S
Co42 O54 2.137 . S
Co42 O55 2.244 . S
O43 Co42 2.216 . S
O43 C50 1.247 . S
O44 Co42 2.091 . S
O44 C50 1.261 . S
C45 O54 1.247 . S
C45 O55 1.272 . S
O46 Co42 2.004 . S
O46 C51 1.259 . S
Co47 O48 2.061 . S
Co47 O53 2.052 . S
Co47 O55 2.135 . S
O48 Co47 2.061 . S
O48 C51 1.235 . S
C49 O52 1.238 . S
C49 O53 1.241 . S
C50 O43 1.247 . S
C50 O44 1.261 . S
C51 O46 1.259 . S
C51 O48 1.235 . S
O52 Co42 2.021 . S
O52 C49 1.238 . S
O53 Co47 2.052 . S
O53 C49 1.241 . S
O54 Co42 2.137 . S
O54 C45 1.247 . S
O55 Co42 2.244 . S
O55 C45 1.272 . S
O55 Co47 2.135 . S
Co56 O57 2.216 . S
Co56 O58 2.091 . S
Co56 O60 2.004 . S
Co56 O66 2.021 . S
Co56 O68 2.137 . S
Co56 O69 2.244 . S
O57 Co56 2.216 . S
O57 C64 1.247 . S
O58 Co56 2.091 . S
O58 C64 1.261 . S
C59 O68 1.247 . S
C59 O69 1.272 . S
O60 Co56 2.004 . S
O60 C65 1.259 . S
Co61 O62 2.061 . S
Co61 O67 2.052 . S
Co61 O69 2.135 . S
O62 Co61 2.061 . S
O62 C65 1.235 . S
C63 O66 1.238 . S
C63 O67 1.241 . S
C64 O57 1.247 . S
C64 O58 1.261 . S
C65 O60 1.259 . S
C65 O62 1.235 . S
O66 Co56 2.021 . S
O66 C63 1.238 . S
O67 Co61 2.052 . S
O67 C63 1.241 . S
O68 Co56 2.137 . S
O68 C59 1.247 . S
O69 Co56 2.244 . S
O69 C59 1.272 . S
O69 Co61 2.135 . S
Co70 O71 2.216 . S
Co70 O72 2.091 . S
Co70 O74 2.004 . S
Co70 O80 2.021 . S
Co70 O82 2.137 . S
Co70 O83 2.244 . S
O71 Co70 2.216 . S
O71 C78 1.247 . S
O72 Co70 2.091 . S
O72 C78 1.261 . S
C73 O82 1.247 . S
C73 O83 1.272 . S
O74 Co70 2.004 . S
O74 C79 1.259 . S
Co75 O76 2.061 . S
Co75 O81 2.052 . S
Co75 O83 2.135 . S
O76 Co75 2.061 . S
O76 C79 1.235 . S
C77 O80 1.238 . S
C77 O81 1.241 . S
C78 O71 1.247 . S
C78 O72 1.261 . S
C79 O74 1.259 . S
C79 O76 1.235 . S
O80 Co70 2.021 . S
O80 C77 1.238 . S
O81 Co75 2.052 . S
O81 C77 1.241 . S
O82 Co70 2.137 . S
O82 C73 1.247 . S
O83 Co70 2.244 . S
O83 C73 1.272 . S
O83 Co75 2.135 . S
Co84 O85 2.216 . S
Co84 O86 2.091 . S
Co84 O88 2.004 . S
Co84 O94 2.021 . S
Co84 O96 2.137 . S
Co84 O97 2.244 . S
O85 Co84 2.216 . S
O85 C92 1.247 . S
O86 Co84 2.091 . S
O86 C92 1.261 . S
C87 O96 1.247 . S
C87 O97 1.272 . S
O88 Co84 2.004 . S
O88 C93 1.259 . S
Co89 O90 2.061 . S
Co89 O95 2.052 . S
Co89 O97 2.135 . S
O90 Co89 2.061 . S
O90 C93 1.235 . S
C91 O94 1.238 . S
C91 O95 1.241 . S
C92 O85 1.247 . S
C92 O86 1.261 . S
C93 O88 1.259 . S
C93 O90 1.235 . S
O94 Co84 2.021 . S
O94 C91 1.238 . S
O95 Co89 2.052 . S
O95 C91 1.241 . S
O96 Co84 2.137 . S
O96 C87 1.247 . S
O97 Co84 2.244 . S
O97 C87 1.272 . S
O97 Co89 2.135 . S
Co98 O99 2.216 . S
Co98 O100 2.091 . S
Co98 O102 2.004 . S
Co98 O108 2.021 . S
Co98 O110 2.137 . S
Co98 O111 2.244 . S
O99 Co98 2.216 . S
O99 C106 1.247 . S
O100 Co98 2.091 . S
O100 C106 1.261 . S
C101 O110 1.247 . S
C101 O111 1.272 . S
O102 Co98 2.004 . S
O102 C107 1.259 . S
Co103 O104 2.061 . S
Co103 O109 2.052 . S
Co103 O111 2.135 . S
O104 Co103 2.061 . S
O104 C107 1.235 . S
C105 O108 1.238 . S
C105 O109 1.241 . S
C106 O99 1.247 . S
C106 O100 1.261 . S
C107 O102 1.259 . S
C107 O104 1.235 . S
O108 Co98 2.021 . S
O108 C105 1.238 . S
O109 Co103 2.052 . S
O109 C105 1.241 . S
O110 Co98 2.137 . S
O110 C101 1.247 . S
O111 Co98 2.244 . S
O111 C101 1.272 . S
O111 Co103 2.135 . S
Co112 O113 2.216 . S
Co112 O114 2.091 . S
Co112 O116 2.004 . S
Co112 O122 2.021 . S
Co112 O124 2.137 . S
Co112 O125 2.244 . S
O113 Co112 2.216 . S
O113 C120 1.247 . S
O114 Co112 2.091 . S
O114 C120 1.261 . S
C115 O124 1.247 . S
C115 O125 1.272 . S
O116 Co112 2.004 . S
O116 C121 1.259 . S
Co117 O118 2.061 . S
Co117 O123 2.052 . S
Co117 O125 2.135 . S
O118 Co117 2.061 . S
O118 C121 1.235 . S
C119 O122 1.238 . S
C119 O123 1.241 . S
C120 O113 1.247 . S
C120 O114 1.261 . S
C121 O116 1.259 . S
C121 O118 1.235 . S
O122 Co112 2.021 . S
O122 C119 1.238 . S
O123 Co117 2.052 . S
O123 C119 1.241 . S
O124 Co112 2.137 . S
O124 C115 1.247 . S
O125 Co112 2.244 . S
O125 C115 1.272 . S
O125 Co117 2.135 . S
Co126 O127 2.216 . S
Co126 O128 2.091 . S
Co126 O130 2.004 . S
Co126 O136 2.021 . S
Co126 O138 2.137 . S
Co126 O139 2.244 . S
O127 Co126 2.216 . S
O127 C134 1.247 . S
O128 Co126 2.091 . S
O128 C134 1.261 . S
C129 O138 1.247 . S
C129 O139 1.272 . S
O130 Co126 2.004 . S
O130 C135 1.259 . S
Co131 O132 2.061 . S
Co131 O137 2.052 . S
Co131 O139 2.135 . S
O132 Co131 2.061 . S
O132 C135 1.235 . S
C133 O136 1.238 . S
C133 O137 1.241 . S
C134 O127 1.247 . S
C134 O128 1.261 . S
C135 O130 1.259 . S
C135 O132 1.235 . S
O136 Co126 2.021 . S
O136 C133 1.238 . S
O137 Co131 2.052 . S
O137 C133 1.241 . S
O138 Co126 2.137 . S
O138 C129 1.247 . S
O139 Co126 2.244 . S
O139 C129 1.272 . S
O139 Co131 2.135 . S
Co140 O141 2.216 . S
Co140 O142 2.091 . S
Co140 O144 2.004 . S
Co140 O150 2.021 . S
Co140 O152 2.137 . S
Co140 O153 2.244 . S
O141 Co140 2.216 . S
O141 C148 1.247 . S
O142 Co140 2.091 . S
O142 C148 1.261 . S
C143 O152 1.247 . S
C143 O153 1.272 . S
O144 Co140 2.004 . S
O144 C149 1.259 . S
Co145 O146 2.061 . S
Co145 O151 2.052 . S
Co145 O153 2.135 . S
O146 Co145 2.061 . S
O146 C149 1.235 . S
C147 O150 1.238 . S
C147 O151 1.241 . S
C148 O141 1.247 . S
C148 O142 1.261 . S
C149 O144 1.259 . S
C149 O146 1.235 . S
O150 Co140 2.021 . S
O150 C147 1.238 . S
O151 Co145 2.052 . S
O151 C147 1.241 . S
O152 Co140 2.137 . S
O152 C143 1.247 . S
O153 Co140 2.244 . S
O153 C143 1.272 . S
O153 Co145 2.135 . S
Co154 O155 2.216 . S
Co154 O156 2.091 . S
Co154 O158 2.004 . S
Co154 O164 2.021 . S
Co154 O166 2.137 . S
Co154 O167 2.244 . S
O155 Co154 2.216 . S
O155 C162 1.247 . S
O156 Co154 2.091 . S
O156 C162 1.261 . S
C157 O166 1.247 . S
C157 O167 1.272 . S
O158 Co154 2.004 . S
O158 C163 1.259 . S
Co159 O160 2.061 . S
Co159 O165 2.052 . S
Co159 O167 2.135 . S
O160 Co159 2.061 . S
O160 C163 1.235 . S
C161 O164 1.238 . S
C161 O165 1.241 . S
C162 O155 1.247 . S
C162 O156 1.261 . S
C163 O158 1.259 . S
C163 O160 1.235 . S
O164 Co154 2.021 . S
O164 C161 1.238 . S
O165 Co159 2.052 . S
O165 C161 1.241 . S
O166 Co154 2.137 . S
O166 C157 1.247 . S
O167 Co154 2.244 . S
O167 C157 1.272 . S
O167 Co159 2.135 . S
Co168 O169 2.216 . S
Co168 O170 2.091 . S
Co168 O172 2.004 . S
Co168 O178 2.021 . S
Co168 O180 2.137 . S
Co168 O181 2.244 . S
O169 Co168 2.216 . S
O169 C176 1.247 . S
O170 Co168 2.091 . S
O170 C176 1.261 . S
C171 O180 1.247 . S
C171 O181 1.272 . S
O172 Co168 2.004 . S
O172 C177 1.259 . S
Co173 O174 2.061 . S
Co173 O179 2.052 . S
Co173 O181 2.135 . S
O174 Co173 2.061 . S
O174 C177 1.235 . S
C175 O178 1.238 . S
C175 O179 1.241 . S
C176 O169 1.247 . S
C176 O170 1.261 . S
C177 O172 1.259 . S
C177 O174 1.235 . S
O178 Co168 2.021 . S
O178 C175 1.238 . S
O179 Co173 2.052 . S
O179 C175 1.241 . S
O180 Co168 2.137 . S
O180 C171 1.247 . S
O181 Co168 2.244 . S
O181 C171 1.272 . S
O181 Co173 2.135 . S
Co182 O183 2.216 . S
Co182 O184 2.091 . S
Co182 O186 2.004 . S
Co182 O192 2.021 . S
Co182 O194 2.137 . S
Co182 O195 2.244 . S
O183 Co182 2.216 . S
O183 C190 1.247 . S
O184 Co182 2.091 . S
O184 C190 1.261 . S
C185 O194 1.247 . S
C185 O195 1.272 . S
O186 Co182 2.004 . S
O186 C191 1.259 . S
Co187 O188 2.061 . S
Co187 O193 2.052 . S
Co187 O195 2.135 . S
O188 Co187 2.061 . S
O188 C191 1.235 . S
C189 O192 1.238 . S
C189 O193 1.241 . S
C190 O183 1.247 . S
C190 O184 1.261 . S
C191 O186 1.259 . S
C191 O188 1.235 . S
O192 Co182 2.021 . S
O192 C189 1.238 . S
O193 Co187 2.052 . S
O193 C189 1.241 . S
O194 Co182 2.137 . S
O194 C185 1.247 . S
O195 Co182 2.244 . S
O195 C185 1.272 . S
O195 Co187 2.135 . S
Co196 O197 2.216 . S
Co196 O198 2.091 . S
Co196 O200 2.004 . S
Co196 O206 2.021 . S
Co196 O208 2.137 . S
Co196 O209 2.244 . S
O197 Co196 2.216 . S
O197 C204 1.247 . S
O198 Co196 2.091 . S
O198 C204 1.261 . S
C199 O208 1.247 . S
C199 O209 1.272 . S
O200 Co196 2.004 . S
O200 C205 1.259 . S
Co201 O202 2.061 . S
Co201 O207 2.052 . S
Co201 O209 2.135 . S
O202 Co201 2.061 . S
O202 C205 1.235 . S
C203 O206 1.238 . S
C203 O207 1.241 . S
C204 O197 1.247 . S
C204 O198 1.261 . S
C205 O200 1.259 . S
C205 O202 1.235 . S
O206 Co196 2.021 . S
O206 C203 1.238 . S
O207 Co201 2.052 . S
O207 C203 1.241 . S
O208 Co196 2.137 . S
O208 C199 1.247 . S
O209 Co196 2.244 . S
O209 C199 1.272 . S
O209 Co201 2.135 . S
Co210 O211 2.216 . S
Co210 O212 2.091 . S
Co210 O214 2.004 . S
Co210 O220 2.021 . S
Co210 O222 2.137 . S
Co210 O223 2.244 . S
O211 Co210 2.216 . S
O211 C218 1.247 . S
O212 Co210 2.091 . S
O212 C218 1.261 . S
C213 O222 1.247 . S
C213 O223 1.272 . S
O214 Co210 2.004 . S
O214 C219 1.259 . S
Co215 O216 2.061 . S
Co215 O221 2.052 . S
Co215 O223 2.135 . S
O216 Co215 2.061 . S
O216 C219 1.235 . S
C217 O220 1.238 . S
C217 O221 1.241 . S
C218 O211 1.247 . S
C218 O212 1.261 . S
C219 O214 1.259 . S
C219 O216 1.235 . S
O220 Co210 2.021 . S
O220 C217 1.238 . S
O221 Co215 2.052 . S
O221 C217 1.241 . S
O222 Co210 2.137 . S
O222 C213 1.247 . S
O223 Co210 2.244 . S
O223 C213 1.272 . S
O223 Co215 2.135 . S
Co224 O225 2.216 . S
Co224 O226 2.091 . S
Co224 O228 2.004 . S
Co224 O234 2.021 . S
Co224 O236 2.137 . S
Co224 O237 2.244 . S
O225 Co224 2.216 . S
O225 C232 1.247 . S
O226 Co224 2.091 . S
O226 C232 1.261 . S
C227 O236 1.247 . S
C227 O237 1.272 . S
O228 Co224 2.004 . S
O228 C233 1.259 . S
Co229 O230 2.061 . S
Co229 O235 2.052 . S
Co229 O237 2.135 . S
O230 Co229 2.061 . S
O230 C233 1.235 . S
C231 O234 1.238 . S
C231 O235 1.241 . S
C232 O225 1.247 . S
C232 O226 1.261 . S
C233 O228 1.259 . S
C233 O230 1.235 . S
O234 Co224 2.021 . S
O234 C231 1.238 . S
O235 Co229 2.052 . S
O235 C231 1.241 . S
O236 Co224 2.137 . S
O236 C227 1.247 . S
O237 Co224 2.244 . S
O237 C227 1.272 . S
O237 Co229 2.135 . S
Co238 O239 2.216 . S
Co238 O240 2.091 . S
Co238 O242 2.004 . S
Co238 O248 2.021 . S
Co238 O250 2.137 . S
Co238 O251 2.244 . S
O239 Co238 2.216 . S
O239 C246 1.247 . S
O240 Co238 2.091 . S
O240 C246 1.261 . S
C241 O250 1.247 . S
C241 O251 1.272 . S
O242 Co238 2.004 . S
O242 C247 1.259 . S
Co243 O244 2.061 . S
Co243 O249 2.052 . S
Co243 O251 2.135 . S
O244 Co243 2.061 . S
O244 C247 1.235 . S
C245 O248 1.238 . S
C245 O249 1.241 . S
C246 O239 1.247 . S
C246 O240 1.261 . S
C247 O242 1.259 . S
C247 O244 1.235 . S
O248 Co238 2.021 . S
O248 C245 1.238 . S
O249 Co243 2.052 . S
O249 C245 1.241 . S
O250 Co238 2.137 . S
O250 C241 1.247 . S
O251 Co238 2.244 . S
O251 C241 1.272 . S
O251 Co243 2.135 . S
Co252 O253 2.216 . S
Co252 O254 2.091 . S
Co252 O256 2.004 . S
Co252 O262 2.021 . S
Co252 O264 2.137 . S
Co252 O265 2.244 . S
O253 Co252 2.216 . S
O253 C260 1.247 . S
O254 Co252 2.091 . S
O254 C260 1.261 . S
C255 O264 1.247 . S
C255 O265 1.272 . S
O256 Co252 2.004 . S
O256 C261 1.259 . S
Co257 O258 2.061 . S
Co257 O263 2.052 . S
Co257 O265 2.135 . S
O258 Co257 2.061 . S
O258 C261 1.235 . S
C259 O262 1.238 . S
C259 O263 1.241 . S
C260 O253 1.247 . S
C260 O254 1.261 . S
C261 O256 1.259 . S
C261 O258 1.235 . S
O262 Co252 2.021 . S
O262 C259 1.238 . S
O263 Co257 2.052 . S
O263 C259 1.241 . S
O264 Co252 2.137 . S
O264 C255 1.247 . S
O265 Co252 2.244 . S
O265 C255 1.272 . S
O265 Co257 2.135 . S
Co266 O267 2.216 . S
Co266 O268 2.091 . S
Co266 O270 2.004 . S
Co266 O276 2.021 . S
Co266 O278 2.137 . S
Co266 O279 2.244 . S
O267 Co266 2.216 . S
O267 C274 1.247 . S
O268 Co266 2.091 . S
O268 C274 1.261 . S
C269 O278 1.247 . S
C269 O279 1.272 . S
O270 Co266 2.004 . S
O270 C275 1.259 . S
Co271 O272 2.061 . S
Co271 O277 2.052 . S
Co271 O279 2.135 . S
O272 Co271 2.061 . S
O272 C275 1.235 . S
C273 O276 1.238 . S
C273 O277 1.241 . S
C274 O267 1.247 . S
C274 O268 1.261 . S
C275 O270 1.259 . S
C275 O272 1.235 . S
O276 Co266 2.021 . S
O276 C273 1.238 . S
O277 Co271 2.052 . S
O277 C273 1.241 . S
O278 Co266 2.137 . S
O278 C269 1.247 . S
O279 Co266 2.244 . S
O279 C269 1.272 . S
O279 Co271 2.135 . S
Co280 O281 2.216 . S
Co280 O282 2.091 . S
Co280 O284 2.004 . S
Co280 O290 2.021 . S
Co280 O292 2.137 . S
Co280 O293 2.244 . S
O281 Co280 2.216 . S
O281 C288 1.247 . S
O282 Co280 2.091 . S
O282 C288 1.261 . S
C283 O292 1.247 . S
C283 O293 1.272 . S
O284 Co280 2.004 . S
O284 C289 1.259 . S
Co285 O286 2.061 . S
Co285 O291 2.052 . S
Co285 O293 2.135 . S
O286 Co285 2.061 . S
O286 C289 1.235 . S
C287 O290 1.238 . S
C287 O291 1.241 . S
C288 O281 1.247 . S
C288 O282 1.261 . S
C289 O284 1.259 . S
C289 O286 1.235 . S
O290 Co280 2.021 . S
O290 C287 1.238 . S
O291 Co285 2.052 . S
O291 C287 1.241 . S
O292 Co280 2.137 . S
O292 C283 1.247 . S
O293 Co280 2.244 . S
O293 C283 1.272 . S
O293 Co285 2.135 . S
Co294 O295 2.216 . S
Co294 O296 2.091 . S
Co294 O298 2.004 . S
Co294 O304 2.021 . S
Co294 O306 2.137 . S
Co294 O307 2.244 . S
O295 Co294 2.216 . S
O295 C302 1.247 . S
O296 Co294 2.091 . S
O296 C302 1.261 . S
C297 O306 1.247 . S
C297 O307 1.272 . S
O298 Co294 2.004 . S
O298 C303 1.259 . S
Co299 O300 2.061 . S
Co299 O305 2.052 . S
Co299 O307 2.135 . S
O300 Co299 2.061 . S
O300 C303 1.235 . S
C301 O304 1.238 . S
C301 O305 1.241 . S
C302 O295 1.247 . S
C302 O296 1.261 . S
C303 O298 1.259 . S
C303 O300 1.235 . S
O304 Co294 2.021 . S
O304 C301 1.238 . S
O305 Co299 2.052 . S
O305 C301 1.241 . S
O306 Co294 2.137 . S
O306 C297 1.247 . S
O307 Co294 2.244 . S
O307 C297 1.272 . S
O307 Co299 2.135 . S
Co308 O309 2.216 . S
Co308 O310 2.091 . S
Co308 O312 2.004 . S
Co308 O318 2.021 . S
Co308 O320 2.137 . S
Co308 O321 2.244 . S
O309 Co308 2.216 . S
O309 C316 1.247 . S
O310 Co308 2.091 . S
O310 C316 1.261 . S
C311 O320 1.247 . S
C311 O321 1.272 . S
O312 Co308 2.004 . S
O312 C317 1.259 . S
Co313 O314 2.061 . S
Co313 O319 2.052 . S
Co313 O321 2.135 . S
O314 Co313 2.061 . S
O314 C317 1.235 . S
C315 O318 1.238 . S
C315 O319 1.241 . S
C316 O309 1.247 . S
C316 O310 1.261 . S
C317 O312 1.259 . S
C317 O314 1.235 . S
O318 Co308 2.021 . S
O318 C315 1.238 . S
O319 Co313 2.052 . S
O319 C315 1.241 . S
O320 Co308 2.137 . S
O320 C311 1.247 . S
O321 Co308 2.244 . S
O321 C311 1.272 . S
O321 Co313 2.135 . S
Co322 O323 2.216 . S
Co322 O324 2.091 . S
Co322 O326 2.004 . S
Co322 O332 2.021 . S
Co322 O334 2.137 . S
Co322 O335 2.244 . S
O323 Co322 2.216 . S
O323 C330 1.247 . S
O324 Co322 2.091 . S
O324 C330 1.261 . S
C325 O334 1.247 . S
C325 O335 1.272 . S
O326 Co322 2.004 . S
O326 C331 1.259 . S
Co327 O328 2.061 . S
Co327 O333 2.052 . S
Co327 O335 2.135 . S
O328 Co327 2.061 . S
O328 C331 1.235 . S
C329 O332 1.238 . S
C329 O333 1.241 . S
C330 O323 1.247 . S
C330 O324 1.261 . S
C331 O326 1.259 . S
C331 O328 1.235 . S
O332 Co322 2.021 . S
O332 C329 1.238 . S
O333 Co327 2.052 . S
O333 C329 1.241 . S
O334 Co322 2.137 . S
O334 C325 1.247 . S
O335 Co322 2.244 . S
O335 C325 1.272 . S
O335 Co327 2.135 . S
Co336 O337 2.216 . S
Co336 O338 2.091 . S
Co336 O340 2.004 . S
Co336 O346 2.021 . S
Co336 O348 2.137 . S
Co336 O349 2.244 . S
O337 Co336 2.216 . S
O337 C344 1.247 . S
O338 Co336 2.091 . S
O338 C344 1.261 . S
C339 O348 1.247 . S
C339 O349 1.272 . S
O340 Co336 2.004 . S
O340 C345 1.259 . S
Co341 O342 2.061 . S
Co341 O347 2.052 . S
Co341 O349 2.135 . S
O342 Co341 2.061 . S
O342 C345 1.235 . S
C343 O346 1.238 . S
C343 O347 1.241 . S
C344 O337 1.247 . S
C344 O338 1.261 . S
C345 O340 1.259 . S
C345 O342 1.235 . S
O346 Co336 2.021 . S
O346 C343 1.238 . S
O347 Co341 2.052 . S
O347 C343 1.241 . S
O348 Co336 2.137 . S
O348 C339 1.247 . S
O349 Co336 2.244 . S
O349 C339 1.272 . S
O349 Co341 2.135 . S
Co350 O351 2.216 . S
Co350 O352 2.091 . S
Co350 O354 2.004 . S
Co350 O360 2.021 . S
Co350 O362 2.137 . S
Co350 O363 2.244 . S
O351 Co350 2.216 . S
O351 C358 1.247 . S
O352 Co350 2.091 . S
O352 C358 1.261 . S
C353 O362 1.247 . S
C353 O363 1.272 . S
O354 Co350 2.004 . S
O354 C359 1.259 . S
Co355 O356 2.061 . S
Co355 O361 2.052 . S
Co355 O363 2.135 . S
O356 Co355 2.061 . S
O356 C359 1.235 . S
C357 O360 1.238 . S
C357 O361 1.241 . S
C358 O351 1.247 . S
C358 O352 1.261 . S
C359 O354 1.259 . S
C359 O356 1.235 . S
O360 Co350 2.021 . S
O360 C357 1.238 . S
O361 Co355 2.052 . S
O361 C357 1.241 . S
O362 Co350 2.137 . S
O362 C353 1.247 . S
O363 Co350 2.244 . S
O363 C353 1.272 . S
O363 Co355 2.135 . S
Co364 O365 2.216 . S
Co364 O366 2.091 . S
Co364 O368 2.004 . S
Co364 O374 2.021 . S
Co364 O376 2.137 . S
Co364 O377 2.244 . S
O365 Co364 2.216 . S
O365 C372 1.247 . S
O366 Co364 2.091 . S
O366 C372 1.261 . S
C367 O376 1.247 . S
C367 O377 1.272 . S
O368 Co364 2.004 . S
O368 C373 1.259 . S
Co369 O370 2.061 . S
Co369 O375 2.052 . S
Co369 O377 2.135 . S
O370 Co369 2.061 . S
O370 C373 1.235 . S
C371 O374 1.238 . S
C371 O375 1.241 . S
C372 O365 1.247 . S
C372 O366 1.261 . S
C373 O368 1.259 . S
C373 O370 1.235 . S
O374 Co364 2.021 . S
O374 C371 1.238 . S
O375 Co369 2.052 . S
O375 C371 1.241 . S
O376 Co364 2.137 . S
O376 C367 1.247 . S
O377 Co364 2.244 . S
O377 C367 1.272 . S
O377 Co369 2.135 . S
Co378 O379 2.216 . S
Co378 O380 2.091 . S
Co378 O382 2.004 . S
Co378 O388 2.021 . S
Co378 O390 2.137 . S
Co378 O391 2.244 . S
O379 Co378 2.216 . S
O379 C386 1.247 . S
O380 Co378 2.091 . S
O380 C386 1.261 . S
C381 O390 1.247 . S
C381 O391 1.272 . S
O382 Co378 2.004 . S
O382 C387 1.259 . S
Co383 O384 2.061 . S
Co383 O389 2.052 . S
Co383 O391 2.135 . S
O384 Co383 2.061 . S
O384 C387 1.235 . S
C385 O388 1.238 . S
C385 O389 1.241 . S
C386 O379 1.247 . S
C386 O380 1.261 . S
C387 O382 1.259 . S
C387 O384 1.235 . S
O388 Co378 2.021 . S
O388 C385 1.238 . S
O389 Co383 2.052 . S
O389 C385 1.241 . S
O390 Co378 2.137 . S
O390 C381 1.247 . S
O391 Co378 2.244 . S
O391 C381 1.272 . S
O391 Co383 2.135 . S
Co392 O393 2.216 . S
Co392 O394 2.091 . S
Co392 O396 2.004 . S
Co392 O402 2.021 . S
Co392 O404 2.137 . S
Co392 O405 2.244 . S
O393 Co392 2.216 . S
O393 C400 1.247 . S
O394 Co392 2.091 . S
O394 C400 1.261 . S
C395 O404 1.247 . S
C395 O405 1.272 . S
O396 Co392 2.004 . S
O396 C401 1.259 . S
Co397 O398 2.061 . S
Co397 O403 2.052 . S
Co397 O405 2.135 . S
O398 Co397 2.061 . S
O398 C401 1.235 . S
C399 O402 1.238 . S
C399 O403 1.241 . S
C400 O393 1.247 . S
C400 O394 1.261 . S
C401 O396 1.259 . S
C401 O398 1.235 . S
O402 Co392 2.021 . S
O402 C399 1.238 . S
O403 Co397 2.052 . S
O403 C399 1.241 . S
O404 Co392 2.137 . S
O404 C395 1.247 . S
O405 Co392 2.244 . S
O405 C395 1.272 . S
O405 Co397 2.135 . S
Co406 O407 2.216 . S
Co406 O408 2.091 . S
Co406 O410 2.004 . S
Co406 O416 2.021 . S
Co406 O418 2.137 . S
Co406 O419 2.244 . S
O407 Co406 2.216 . S
O407 C414 1.247 . S
O408 Co406 2.091 . S
O408 C414 1.261 . S
C409 O418 1.247 . S
C409 O419 1.272 . S
O410 Co406 2.004 . S
O410 C415 1.259 . S
Co411 O412 2.061 . S
Co411 O417 2.052 . S
Co411 O419 2.135 . S
O412 Co411 2.061 . S
O412 C415 1.235 . S
C413 O416 1.238 . S
C413 O417 1.241 . S
C414 O407 1.247 . S
C414 O408 1.261 . S
C415 O410 1.259 . S
C415 O412 1.235 . S
O416 Co406 2.021 . S
O416 C413 1.238 . S
O417 Co411 2.052 . S
O417 C413 1.241 . S
O418 Co406 2.137 . S
O418 C409 1.247 . S
O419 Co406 2.244 . S
O419 C409 1.272 . S
O419 Co411 2.135 . S
Co420 O421 2.216 . S
Co420 O422 2.091 . S
Co420 O424 2.004 . S
Co420 O430 2.021 . S
Co420 O432 2.137 . S
Co420 O433 2.244 . S
O421 Co420 2.216 . S
O421 C428 1.247 . S
O422 Co420 2.091 . S
O422 C428 1.261 . S
C423 O432 1.247 . S
C423 O433 1.272 . S
O424 Co420 2.004 . S
O424 C429 1.259 . S
Co425 O426 2.061 . S
Co425 O431 2.052 . S
Co425 O433 2.135 . S
O426 Co425 2.061 . S
O426 C429 1.235 . S
C427 O430 1.238 . S
C427 O431 1.241 . S
C428 O421 1.247 . S
C428 O422 1.261 . S
C429 O424 1.259 . S
C429 O426 1.235 . S
O430 Co420 2.021 . S
O430 C427 1.238 . S
O431 Co425 2.052 . S
O431 C427 1.241 . S
O432 Co420 2.137 . S
O432 C423 1.247 . S
O433 Co420 2.244 . S
O433 C423 1.272 . S
O433 Co425 2.135 . S
Co434 O435 2.216 . S
Co434 O436 2.091 . S
Co434 O438 2.004 . S
Co434 O444 2.021 . S
Co434 O446 2.137 . S
Co434 O447 2.244 . S
O435 Co434 2.216 . S
O435 C442 1.247 . S
O436 Co434 2.091 . S
O436 C442 1.261 . S
C437 O446 1.247 . S
C437 O447 1.272 . S
O438 Co434 2.004 . S
O438 C443 1.259 . S
Co439 O440 2.061 . S
Co439 O445 2.052 . S
Co439 O447 2.135 . S
O440 Co439 2.061 . S
O440 C443 1.235 . S
C441 O444 1.238 . S
C441 O445 1.241 . S
C442 O435 1.247 . S
C442 O436 1.261 . S
C443 O438 1.259 . S
C443 O440 1.235 . S
O444 Co434 2.021 . S
O444 C441 1.238 . S
O445 Co439 2.052 . S
O445 C441 1.241 . S
O446 Co434 2.137 . S
O446 C437 1.247 . S
O447 Co434 2.244 . S
O447 C437 1.272 . S
O447 Co439 2.135 . S
Co448 O449 2.216 . S
Co448 O450 2.091 . S
Co448 O452 2.004 . S
Co448 O458 2.021 . S
Co448 O460 2.137 . S
Co448 O461 2.244 . S
O449 Co448 2.216 . S
O449 C456 1.247 . S
O450 Co448 2.091 . S
O450 C456 1.261 . S
C451 O460 1.247 . S
C451 O461 1.272 . S
O452 Co448 2.004 . S
O452 C457 1.259 . S
Co453 O454 2.061 . S
Co453 O459 2.052 . S
Co453 O461 2.135 . S
O454 Co453 2.061 . S
O454 C457 1.235 . S
C455 O458 1.238 . S
C455 O459 1.241 . S
C456 O449 1.247 . S
C456 O450 1.261 . S
C457 O452 1.259 . S
C457 O454 1.235 . S
O458 Co448 2.021 . S
O458 C455 1.238 . S
O459 Co453 2.052 . S
O459 C455 1.241 . S
O460 Co448 2.137 . S
O460 C451 1.247 . S
O461 Co448 2.244 . S
O461 C451 1.272 . S
O461 Co453 2.135 . S
Co462 O463 2.216 . S
Co462 O464 2.091 . S
Co462 O466 2.004 . S
Co462 O472 2.021 . S
Co462 O474 2.137 . S
Co462 O475 2.244 . S
O463 Co462 2.216 . S
O463 C470 1.247 . S
O464 Co462 2.091 . S
O464 C470 1.261 . S
C465 O474 1.247 . S
C465 O475 1.272 . S
O466 Co462 2.004 . S
O466 C471 1.259 . S
Co467 O468 2.061 . S
Co467 O473 2.052 . S
Co467 O475 2.135 . S
O468 Co467 2.061 . S
O468 C471 1.235 . S
C469 O472 1.238 . S
C469 O473 1.241 . S
C470 O463 1.247 . S
C470 O464 1.261 . S
C471 O466 1.259 . S
C471 O468 1.235 . S
O472 Co462 2.021 . S
O472 C469 1.238 . S
O473 Co467 2.052 . S
O473 C469 1.241 . S
O474 Co462 2.137 . S
O474 C465 1.247 . S
O475 Co462 2.244 . S
O475 C465 1.272 . S
O475 Co467 2.135 . S
Co476 O477 2.216 . S
Co476 O478 2.091 . S
Co476 O480 2.004 . S
Co476 O486 2.021 . S
Co476 O488 2.137 . S
Co476 O489 2.244 . S
O477 Co476 2.216 . S
O477 C484 1.247 . S
O478 Co476 2.091 . S
O478 C484 1.261 . S
C479 O488 1.247 . S
C479 O489 1.272 . S
O480 Co476 2.004 . S
O480 C485 1.259 . S
Co481 O482 2.061 . S
Co481 O487 2.052 . S
Co481 O489 2.135 . S
O482 Co481 2.061 . S
O482 C485 1.235 . S
C483 O486 1.238 . S
C483 O487 1.241 . S
C484 O477 1.247 . S
C484 O478 1.261 . S
C485 O480 1.259 . S
C485 O482 1.235 . S
O486 Co476 2.021 . S
O486 C483 1.238 . S
O487 Co481 2.052 . S
O487 C483 1.241 . S
O488 Co476 2.137 . S
O488 C479 1.247 . S
O489 Co476 2.244 . S
O489 C479 1.272 . S
O489 Co481 2.135 . S
Co490 O491 2.216 . S
Co490 O492 2.091 . S
Co490 O494 2.004 . S
Co490 O500 2.021 . S
Co490 O502 2.137 . S
Co490 O503 2.244 . S
O491 Co490 2.216 . S
O491 C498 1.247 . S
O492 Co490 2.091 . S
O492 C498 1.261 . S
C493 O502 1.247 . S
C493 O503 1.272 . S
O494 Co490 2.004 . S
O494 C499 1.259 . S
Co495 O496 2.061 . S
Co495 O501 2.052 . S
Co495 O503 2.135 . S
O496 Co495 2.061 . S
O496 C499 1.235 . S
C497 O500 1.238 . S
C497 O501 1.241 . S
C498 O491 1.247 . S
C498 O492 1.261 . S
C499 O494 1.259 . S
C499 O496 1.235 . S
O500 Co490 2.021 . S
O500 C497 1.238 . S
O501 Co495 2.052 . S
O501 C497 1.241 . S
O502 Co490 2.137 . S
O502 C493 1.247 . S
O503 Co490 2.244 . S
O503 C493 1.272 . S
O503 Co495 2.135 . S
Co504 O505 2.216 . S
Co504 O506 2.091 . S
Co504 O508 2.004 . S
Co504 O514 2.021 . S
Co504 O516 2.137 . S
Co504 O517 2.244 . S
O505 Co504 2.216 . S
O505 C512 1.247 . S
O506 Co504 2.091 . S
O506 C512 1.261 . S
C507 O516 1.247 . S
C507 O517 1.272 . S
O508 Co504 2.004 . S
O508 C513 1.259 . S
Co509 O510 2.061 . S
Co509 O515 2.052 . S
Co509 O517 2.135 . S
O510 Co509 2.061 . S
O510 C513 1.235 . S
C511 O514 1.238 . S
C511 O515 1.241 . S
C512 O505 1.247 . S
C512 O506 1.261 . S
C513 O508 1.259 . S
C513 O510 1.235 . S
O514 Co504 2.021 . S
O514 C511 1.238 . S
O515 Co509 2.052 . S
O515 C511 1.241 . S
O516 Co504 2.137 . S
O516 C507 1.247 . S
O517 Co504 2.244 . S
O517 C507 1.272 . S
O517 Co509 2.135 . S
Co518 O519 2.216 . S
Co518 O520 2.091 . S
Co518 O522 2.004 . S
Co518 O528 2.021 . S
Co518 O530 2.137 . S
Co518 O531 2.244 . S
O519 Co518 2.216 . S
O519 C526 1.247 . S
O520 Co518 2.091 . S
O520 C526 1.261 . S
C521 O530 1.247 . S
C521 O531 1.272 . S
O522 Co518 2.004 . S
O522 C527 1.259 . S
Co523 O524 2.061 . S
Co523 O529 2.052 . S
Co523 O531 2.135 . S
O524 Co523 2.061 . S
O524 C527 1.235 . S
C525 O528 1.238 . S
C525 O529 1.241 . S
C526 O519 1.247 . S
C526 O520 1.261 . S
C527 O522 1.259 . S
C527 O524 1.235 . S
O528 Co518 2.021 . S
O528 C525 1.238 . S
O529 Co523 2.052 . S
O529 C525 1.241 . S
O530 Co518 2.137 . S
O530 C521 1.247 . S
O531 Co518 2.244 . S
O531 C521 1.272 . S
O531 Co523 2.135 . S
Co532 O533 2.216 . S
Co532 O534 2.091 . S
Co532 O536 2.004 . S
Co532 O542 2.021 . S
Co532 O544 2.137 . S
Co532 O545 2.244 . S
O533 Co532 2.216 . S
O533 C540 1.247 . S
O534 Co532 2.091 . S
O534 C540 1.261 . S
C535 O544 1.247 . S
C535 O545 1.272 . S
O536 Co532 2.004 . S
O536 C541 1.259 . S
Co537 O538 2.061 . S
Co537 O543 2.052 . S
Co537 O545 2.135 . S
O538 Co537 2.061 . S
O538 C541 1.235 . S
C539 O542 1.238 . S
C539 O543 1.241 . S
C540 O533 1.247 . S
C540 O534 1.261 . S
C541 O536 1.259 . S
C541 O538 1.235 . S
O542 Co532 2.021 . S
O542 C539 1.238 . S
O543 Co537 2.052 . S
O543 C539 1.241 . S
O544 Co532 2.137 . S
O544 C535 1.247 . S
O545 Co532 2.244 . S
O545 C535 1.272 . S
O545 Co537 2.135 . S
Co546 O547 2.216 . S
Co546 O548 2.091 . S
Co546 O550 2.004 . S
Co546 O556 2.021 . S
Co546 O558 2.137 . S
Co546 O559 2.244 . S
O547 Co546 2.216 . S
O547 C554 1.247 . S
O548 Co546 2.091 . S
O548 C554 1.261 . S
C549 O558 1.247 . S
C549 O559 1.272 . S
O550 Co546 2.004 . S
O550 C555 1.259 . S
Co551 O552 2.061 . S
Co551 O557 2.052 . S
Co551 O559 2.135 . S
O552 Co551 2.061 . S
O552 C555 1.235 . S
C553 O556 1.238 . S
C553 O557 1.241 . S
C554 O547 1.247 . S
C554 O548 1.261 . S
C555 O550 1.259 . S
C555 O552 1.235 . S
O556 Co546 2.021 . S
O556 C553 1.238 . S
O557 Co551 2.052 . S
O557 C553 1.241 . S
O558 Co546 2.137 . S
O558 C549 1.247 . S
O559 Co546 2.244 . S
O559 C549 1.272 . S
O559 Co551 2.135 . S
Co560 O561 2.216 . S
Co560 O562 2.091 . S
Co560 O564 2.004 . S
Co560 O570 2.021 . S
Co560 O572 2.137 . S
Co560 O573 2.244 . S
O561 Co560 2.216 . S
O561 C568 1.247 . S
O562 Co560 2.091 . S
O562 C568 1.261 . S
C563 O572 1.247 . S
C563 O573 1.272 . S
O564 Co560 2.004 . S
O564 C569 1.259 . S
Co565 O566 2.061 . S
Co565 O571 2.052 . S
Co565 O573 2.135 . S
O566 Co565 2.061 . S
O566 C569 1.235 . S
C567 O570 1.238 . S
C567 O571 1.241 . S
C568 O561 1.247 . S
C568 O562 1.261 . S
C569 O564 1.259 . S
C569 O566 1.235 . S
O570 Co560 2.021 . S
O570 C567 1.238 . S
O571 Co565 2.052 . S
O571 C567 1.241 . S
O572 Co560 2.137 . S
O572 C563 1.247 . S
O573 Co560 2.244 . S
O573 C563 1.272 . S
O573 Co565 2.135 . S
Co574 O575 2.216 . S
Co574 O576 2.091 . S
Co574 O578 2.004 . S
Co574 O584 2.021 . S
Co574 O586 2.137 . S
Co574 O587 2.244 . S
O575 Co574 2.216 . S
O575 C582 1.247 . S
O576 Co574 2.091 . S
O576 C582 1.261 . S
C577 O586 1.247 . S
C577 O587 1.272 . S
O578 Co574 2.004 . S
O578 C583 1.259 . S
Co579 O580 2.061 . S
Co579 O585 2.052 . S
Co579 O587 2.135 . S
O580 Co579 2.061 . S
O580 C583 1.235 . S
C581 O584 1.238 . S
C581 O585 1.241 . S
C582 O575 1.247 . S
C582 O576 1.261 . S
C583 O578 1.259 . S
C583 O580 1.235 . S
O584 Co574 2.021 . S
O584 C581 1.238 . S
O585 Co579 2.052 . S
O585 C581 1.241 . S
O586 Co574 2.137 . S
O586 C577 1.247 . S
O587 Co574 2.244 . S
O587 C577 1.272 . S
O587 Co579 2.135 . S
Co588 O589 2.216 . S
Co588 O590 2.091 . S
Co588 O592 2.004 . S
Co588 O598 2.021 . S
Co588 O600 2.137 . S
Co588 O601 2.244 . S
O589 Co588 2.216 . S
O589 C596 1.247 . S
O590 Co588 2.091 . S
O590 C596 1.261 . S
C591 O600 1.247 . S
C591 O601 1.272 . S
O592 Co588 2.004 . S
O592 C597 1.259 . S
Co593 O594 2.061 . S
Co593 O599 2.052 . S
Co593 O601 2.135 . S
O594 Co593 2.061 . S
O594 C597 1.235 . S
C595 O598 1.238 . S
C595 O599 1.241 . S
C596 O589 1.247 . S
C596 O590 1.261 . S
C597 O592 1.259 . S
C597 O594 1.235 . S
O598 Co588 2.021 . S
O598 C595 1.238 . S
O599 Co593 2.052 . S
O599 C595 1.241 . S
O600 Co588 2.137 . S
O600 C591 1.247 . S
O601 Co588 2.244 . S
O601 C591 1.272 . S
O601 Co593 2.135 . S
Co602 O603 2.216 . S
Co602 O604 2.091 . S
Co602 O606 2.004 . S
Co602 O612 2.021 . S
Co602 O614 2.137 . S
Co602 O615 2.244 . S
O603 Co602 2.216 . S
O603 C610 1.247 . S
O604 Co602 2.091 . S
O604 C610 1.261 . S
C605 O614 1.247 . S
C605 O615 1.272 . S
O606 Co602 2.004 . S
O606 C611 1.259 . S
Co607 O608 2.061 . S
Co607 O613 2.052 . S
Co607 O615 2.135 . S
O608 Co607 2.061 . S
O608 C611 1.235 . S
C609 O612 1.238 . S
C609 O613 1.241 . S
C610 O603 1.247 . S
C610 O604 1.261 . S
C611 O606 1.259 . S
C611 O608 1.235 . S
O612 Co602 2.021 . S
O612 C609 1.238 . S
O613 Co607 2.052 . S
O613 C609 1.241 . S
O614 Co602 2.137 . S
O614 C605 1.247 . S
O615 Co602 2.244 . S
O615 C605 1.272 . S
O615 Co607 2.135 . S
Co616 O617 2.216 . S
Co616 O618 2.091 . S
Co616 O620 2.004 . S
Co616 O626 2.021 . S
Co616 O628 2.137 . S
Co616 O629 2.244 . S
O617 Co616 2.216 . S
O617 C624 1.247 . S
O618 Co616 2.091 . S
O618 C624 1.261 . S
C619 O628 1.247 . S
C619 O629 1.272 . S
O620 Co616 2.004 . S
O620 C625 1.259 . S
Co621 O622 2.061 . S
Co621 O627 2.052 . S
Co621 O629 2.135 . S
O622 Co621 2.061 . S
O622 C625 1.235 . S
C623 O626 1.238 . S
C623 O627 1.241 . S
C624 O617 1.247 . S
C624 O618 1.261 . S
C625 O620 1.259 . S
C625 O622 1.235 . S
O626 Co616 2.021 . S
O626 C623 1.238 . S
O627 Co621 2.052 . S
O627 C623 1.241 . S
O628 Co616 2.137 . S
O628 C619 1.247 . S
O629 Co616 2.244 . S
O629 C619 1.272 . S
O629 Co621 2.135 . S
Co630 O631 2.216 . S
Co630 O632 2.091 . S
Co630 O634 2.004 . S
Co630 O640 2.021 . S
Co630 O642 2.137 . S
Co630 O643 2.244 . S
O631 Co630 2.216 . S
O631 C638 1.247 . S
O632 Co630 2.091 . S
O632 C638 1.261 . S
C633 O642 1.247 . S
C633 O643 1.272 . S
O634 Co630 2.004 . S
O634 C639 1.259 . S
Co635 O636 2.061 . S
Co635 O641 2.052 . S
Co635 O643 2.135 . S
O636 Co635 2.061 . S
O636 C639 1.235 . S
C637 O640 1.238 . S
C637 O641 1.241 . S
C638 O631 1.247 . S
C638 O632 1.261 . S
C639 O634 1.259 . S
C639 O636 1.235 . S
O640 Co630 2.021 . S
O640 C637 1.238 . S
O641 Co635 2.052 . S
O641 C637 1.241 . S
O642 Co630 2.137 . S
O642 C633 1.247 . S
O643 Co630 2.244 . S
O643 C633 1.272 . S
O643 Co635 2.135 . S
Co644 O645 2.216 . S
Co644 O646 2.091 . S
Co644 O648 2.004 . S
Co644 O654 2.021 . S
Co644 O656 2.137 . S
Co644 O657 2.244 . S
O645 Co644 2.216 . S
O645 C652 1.247 . S
O646 Co644 2.091 . S
O646 C652 1.261 . S
C647 O656 1.247 . S
C647 O657 1.272 . S
O648 Co644 2.004 . S
O648 C653 1.259 . S
Co649 O650 2.061 . S
Co649 O655 2.052 . S
Co649 O657 2.135 . S
O650 Co649 2.061 . S
O650 C653 1.235 . S
C651 O654 1.238 . S
C651 O655 1.241 . S
C652 O645 1.247 . S
C652 O646 1.261 . S
C653 O648 1.259 . S
C653 O650 1.235 . S
O654 Co644 2.021 . S
O654 C651 1.238 . S
O655 Co649 2.052 . S
O655 C651 1.241 . S
O656 Co644 2.137 . S
O656 C647 1.247 . S
O657 Co644 2.244 . S
O657 C647 1.272 . S
O657 Co649 2.135 . S
Co658 O659 2.216 . S
Co658 O660 2.091 . S
Co658 O662 2.004 . S
Co658 O668 2.021 . S
Co658 O670 2.137 . S
Co658 O671 2.244 . S
O659 Co658 2.216 . S
O659 C666 1.247 . S
O660 Co658 2.091 . S
O660 C666 1.261 . S
C661 O670 1.247 . S
C661 O671 1.272 . S
O662 Co658 2.004 . S
O662 C667 1.259 . S
Co663 O664 2.061 . S
Co663 O669 2.052 . S
Co663 O671 2.135 . S
O664 Co663 2.061 . S
O664 C667 1.235 . S
C665 O668 1.238 . S
C665 O669 1.241 . S
C666 O659 1.247 . S
C666 O660 1.261 . S
C667 O662 1.259 . S
C667 O664 1.235 . S
O668 Co658 2.021 . S
O668 C665 1.238 . S
O669 Co663 2.052 . S
O669 C665 1.241 . S
O670 Co658 2.137 . S
O670 C661 1.247 . S
O671 Co658 2.244 . S
O671 C661 1.272 . S
O671 Co663 2.135 . S
H672 C690 0.951 . S
H673 C692 0.951 . S
H674 C694 0.950 . S
H675 C695 0.950 . S
H676 C697 0.950 . S
H677 C700 0.950 . S
H678 C701 0.950 . S
H679 C703 0.950 . S
H680 C704 0.950 . S
H681 C705 0.951 . S
H682 C707 0.951 . S
H683 C709 0.950 . S
H684 C710 0.950 . S
H685 C712 0.950 . S
H686 C715 0.950 . S
H687 C716 0.950 . S
H688 C718 0.950 . S
H689 C719 0.950 . S
C690 H672 0.951 . S
C690 C691 1.366 . S
C690 C692 1.388 . S
C691 C690 1.366 . S
C691 C695 1.385 . S
C692 H673 0.951 . S
C692 C690 1.388 . S
C692 C693 1.366 . S
C693 C692 1.366 . S
C693 C694 1.414 . S
C693 C696 1.499 . S
C694 H674 0.950 . S
C694 C693 1.414 . S
C694 C695 1.374 . S
C695 H675 0.950 . S
C695 C691 1.385 . S
C695 C694 1.374 . S
C696 C693 1.499 . S
C696 C697 1.373 . S
C696 C698 1.389 . S
C697 H676 0.950 . S
C697 C696 1.373 . S
C697 C713 1.377 . S
C698 C696 1.389 . S
C698 C699 1.524 . S
C698 C712 1.377 . S
C699 C698 1.524 . S
C699 C700 1.397 . S
C699 C704 1.363 . S
C700 H677 0.950 . S
C700 C699 1.397 . S
C700 C701 1.334 . S
C701 H678 0.950 . S
C701 C700 1.334 . S
C701 C702 1.287 . S
C702 C701 1.287 . S
C702 C703 1.524 . S
C702 H721 0.913 . S
C703 H679 0.950 . S
C703 C702 1.524 . S
C703 C704 1.415 . S
C704 H680 0.950 . S
C704 C699 1.363 . S
C704 C703 1.415 . S
C705 H681 0.951 . S
C705 C706 1.366 . S
C705 C707 1.388 . S
C706 C705 1.366 . S
C706 C710 1.385 . S
C707 H682 0.951 . S
C707 C705 1.388 . S
C707 C708 1.366 . S
C708 C707 1.366 . S
C708 C709 1.414 . S
C708 C711 1.499 . S
C709 H683 0.950 . S
C709 C708 1.414 . S
C709 C710 1.374 . S
C710 H684 0.950 . S
C710 C706 1.385 . S
C710 C709 1.374 . S
C711 C708 1.499 . S
C711 C712 1.373 . S
C711 C713 1.389 . S
C712 H685 0.950 . S
C712 C698 1.377 . S
C712 C711 1.373 . S
C713 C697 1.377 . S
C713 C711 1.389 . S
C713 C714 1.524 . S
C714 C713 1.524 . S
C714 C715 1.397 . S
C714 C719 1.363 . S
C715 H686 0.950 . S
C715 C714 1.397 . S
C715 C716 1.334 . S
C716 H687 0.950 . S
C716 C715 1.334 . S
C716 C717 1.287 . S
C717 C716 1.287 . S
C717 C718 1.524 . S
C717 H720 0.999 . S
C718 H688 0.950 . S
C718 C717 1.524 . S
C718 C719 1.415 . S
C719 H689 0.950 . S
C719 C714 1.363 . S
C719 C718 1.415 . S
H720 C717 0.999 . S
H721 C702 0.913 . S
H722 C740 0.951 . S
H723 C742 0.951 . S
H724 C744 0.950 . S
H725 C745 0.950 . S
H726 C747 0.950 . S
H727 C750 0.950 . S
H728 C751 0.950 . S
H729 C753 0.950 . S
H730 C754 0.950 . S
H731 C755 0.951 . S
H732 C757 0.951 . S
H733 C759 0.950 . S
H734 C760 0.950 . S
H735 C762 0.950 . S
H736 C765 0.950 . S
H737 C766 0.950 . S
H738 C768 0.950 . S
H739 C769 0.950 . S
C740 H722 0.951 . S
C740 C741 1.366 . S
C740 C742 1.388 . S
C741 C740 1.366 . S
C741 C745 1.385 . S
C742 H723 0.951 . S
C742 C740 1.388 . S
C742 C743 1.366 . S
C743 C742 1.366 . S
C743 C744 1.414 . S
C743 C746 1.499 . S
C744 H724 0.950 . S
C744 C743 1.414 . S
C744 C745 1.374 . S
C745 H725 0.950 . S
C745 C741 1.385 . S
C745 C744 1.374 . S
C746 C743 1.499 . S
C746 C747 1.373 . S
C746 C748 1.389 . S
C747 H726 0.950 . S
C747 C746 1.373 . S
C747 C763 1.377 . S
C748 C746 1.389 . S
C748 C749 1.524 . S
C748 C762 1.377 . S
C749 C748 1.524 . S
C749 C750 1.397 . S
C749 C754 1.363 . S
C750 H727 0.950 . S
C750 C749 1.397 . S
C750 C751 1.334 . S
C751 H728 0.950 . S
C751 C750 1.334 . S
C751 C752 1.287 . S
C752 C751 1.287 . S
C752 C753 1.524 . S
C752 H771 0.913 . S
C753 H729 0.950 . S
C753 C752 1.524 . S
C753 C754 1.415 . S
C754 H730 0.950 . S
C754 C749 1.363 . S
C754 C753 1.415 . S
C755 H731 0.951 . S
C755 C756 1.366 . S
C755 C757 1.388 . S
C756 C755 1.366 . S
C756 C760 1.385 . S
C757 H732 0.951 . S
C757 C755 1.388 . S
C757 C758 1.366 . S
C758 C757 1.366 . S
C758 C759 1.414 . S
C758 C761 1.499 . S
C759 H733 0.950 . S
C759 C758 1.414 . S
C759 C760 1.374 . S
C760 H734 0.950 . S
C760 C756 1.385 . S
C760 C759 1.374 . S
C761 C758 1.499 . S
C761 C762 1.373 . S
C761 C763 1.389 . S
C762 H735 0.950 . S
C762 C748 1.377 . S
C762 C761 1.373 . S
C763 C747 1.377 . S
C763 C761 1.389 . S
C763 C764 1.524 . S
C764 C763 1.524 . S
C764 C765 1.397 . S
C764 C769 1.363 . S
C765 H736 0.950 . S
C765 C764 1.397 . S
C765 C766 1.334 . S
C766 H737 0.950 . S
C766 C765 1.334 . S
C766 C767 1.287 . S
C767 C766 1.287 . S
C767 C768 1.524 . S
C767 H770 0.999 . S
C768 H738 0.950 . S
C768 C767 1.524 . S
C768 C769 1.415 . S
C769 H739 0.950 . S
C769 C764 1.363 . S
C769 C768 1.415 . S
H770 C767 0.999 . S
H771 C752 0.913 . S
H772 C790 0.951 . S
H773 C792 0.951 . S
H774 C794 0.950 . S
H775 C795 0.950 . S
H776 C797 0.950 . S
H777 C800 0.950 . S
H778 C801 0.950 . S
H779 C803 0.950 . S
H780 C804 0.950 . S
H781 C805 0.951 . S
H782 C807 0.951 . S
H783 C809 0.950 . S
H784 C810 0.950 . S
H785 C812 0.950 . S
H786 C815 0.950 . S
H787 C816 0.950 . S
H788 C818 0.950 . S
H789 C819 0.950 . S
C790 H772 0.951 . S
C790 C791 1.366 . S
C790 C792 1.388 . S
C791 C790 1.366 . S
C791 C795 1.385 . S
C792 H773 0.951 . S
C792 C790 1.388 . S
C792 C793 1.366 . S
C793 C792 1.366 . S
C793 C794 1.414 . S
C793 C796 1.499 . S
C794 H774 0.950 . S
C794 C793 1.414 . S
C794 C795 1.374 . S
C795 H775 0.950 . S
C795 C791 1.385 . S
C795 C794 1.374 . S
C796 C793 1.499 . S
C796 C797 1.373 . S
C796 C798 1.389 . S
C797 H776 0.950 . S
C797 C796 1.373 . S
C797 C813 1.377 . S
C798 C796 1.389 . S
C798 C799 1.524 . S
C798 C812 1.377 . S
C799 C798 1.524 . S
C799 C800 1.397 . S
C799 C804 1.363 . S
C800 H777 0.950 . S
C800 C799 1.397 . S
C800 C801 1.334 . S
C801 H778 0.950 . S
C801 C800 1.334 . S
C801 C802 1.287 . S
C802 C801 1.287 . S
C802 C803 1.524 . S
C802 H821 0.913 . S
C803 H779 0.950 . S
C803 C802 1.524 . S
C803 C804 1.415 . S
C804 H780 0.950 . S
C804 C799 1.363 . S
C804 C803 1.415 . S
C805 H781 0.951 . S
C805 C806 1.366 . S
C805 C807 1.388 . S
C806 C805 1.366 . S
C806 C810 1.385 . S
C807 H782 0.951 . S
C807 C805 1.388 . S
C807 C808 1.366 . S
C808 C807 1.366 . S
C808 C809 1.414 . S
C808 C811 1.499 . S
C809 H783 0.950 . S
C809 C808 1.414 . S
C809 C810 1.374 . S
C810 H784 0.950 . S
C810 C806 1.385 . S
C810 C809 1.374 . S
C811 C808 1.499 . S
C811 C812 1.373 . S
C811 C813 1.389 . S
C812 H785 0.950 . S
C812 C798 1.377 . S
C812 C811 1.373 . S
C813 C797 1.377 . S
C813 C811 1.389 . S
C813 C814 1.524 . S
C814 C813 1.524 . S
C814 C815 1.397 . S
C814 C819 1.363 . S
C815 H786 0.950 . S
C815 C814 1.397 . S
C815 C816 1.334 . S
C816 H787 0.950 . S
C816 C815 1.334 . S
C816 C817 1.287 . S
C817 C816 1.287 . S
C817 C818 1.524 . S
C817 H820 0.999 . S
C818 H788 0.950 . S
C818 C817 1.524 . S
C818 C819 1.415 . S
C819 H789 0.950 . S
C819 C814 1.363 . S
C819 C818 1.415 . S
H820 C817 0.999 . S
H821 C802 0.913 . S
H822 C840 0.951 . S
H823 C842 0.951 . S
H824 C844 0.950 . S
H825 C845 0.950 . S
H826 C847 0.950 . S
H827 C850 0.950 . S
H828 C851 0.950 . S
H829 C853 0.950 . S
H830 C854 0.950 . S
H831 C855 0.951 . S
H832 C857 0.951 . S
H833 C859 0.950 . S
H834 C860 0.950 . S
H835 C862 0.950 . S
H836 C865 0.950 . S
H837 C866 0.950 . S
H838 C868 0.950 . S
H839 C869 0.950 . S
C840 H822 0.951 . S
C840 C841 1.366 . S
C840 C842 1.388 . S
C841 C840 1.366 . S
C841 C845 1.385 . S
C842 H823 0.951 . S
C842 C840 1.388 . S
C842 C843 1.366 . S
C843 C842 1.366 . S
C843 C844 1.414 . S
C843 C846 1.499 . S
C844 H824 0.950 . S
C844 C843 1.414 . S
C844 C845 1.374 . S
C845 H825 0.950 . S
C845 C841 1.385 . S
C845 C844 1.374 . S
C846 C843 1.499 . S
C846 C847 1.373 . S
C846 C848 1.389 . S
C847 H826 0.950 . S
C847 C846 1.373 . S
C847 C863 1.377 . S
C848 C846 1.389 . S
C848 C849 1.524 . S
C848 C862 1.377 . S
C849 C848 1.524 . S
C849 C850 1.397 . S
C849 C854 1.363 . S
C850 H827 0.950 . S
C850 C849 1.397 . S
C850 C851 1.334 . S
C851 H828 0.950 . S
C851 C850 1.334 . S
C851 C852 1.287 . S
C852 C851 1.287 . S
C852 C853 1.524 . S
C852 H871 0.913 . S
C853 H829 0.950 . S
C853 C852 1.524 . S
C853 C854 1.415 . S
C854 H830 0.950 . S
C854 C849 1.363 . S
C854 C853 1.415 . S
C855 H831 0.951 . S
C855 C856 1.366 . S
C855 C857 1.388 . S
C856 C855 1.366 . S
C856 C860 1.385 . S
C857 H832 0.951 . S
C857 C855 1.388 . S
C857 C858 1.366 . S
C858 C857 1.366 . S
C858 C859 1.414 . S
C858 C861 1.499 . S
C859 H833 0.950 . S
C859 C858 1.414 . S
C859 C860 1.374 . S
C860 H834 0.950 . S
C860 C856 1.385 . S
C860 C859 1.374 . S
C861 C858 1.499 . S
C861 C862 1.373 . S
C861 C863 1.389 . S
C862 H835 0.950 . S
C862 C848 1.377 . S
C862 C861 1.373 . S
C863 C847 1.377 . S
C863 C861 1.389 . S
C863 C864 1.524 . S
C864 C863 1.524 . S
C864 C865 1.397 . S
C864 C869 1.363 . S
C865 H836 0.950 . S
C865 C864 1.397 . S
C865 C866 1.334 . S
C866 H837 0.950 . S
C866 C865 1.334 . S
C866 C867 1.287 . S
C867 C866 1.287 . S
C867 C868 1.524 . S
C867 H870 0.999 . S
C868 H838 0.950 . S
C868 C867 1.524 . S
C868 C869 1.415 . S
C869 H839 0.950 . S
C869 C864 1.363 . S
C869 C868 1.415 . S
H870 C867 0.999 . S
H871 C852 0.913 . S
H872 C890 0.951 . S
H873 C892 0.951 . S
H874 C894 0.950 . S
H875 C895 0.950 . S
H876 C897 0.950 . S
H877 C900 0.950 . S
H878 C901 0.950 . S
H879 C903 0.950 . S
H880 C904 0.950 . S
H881 C905 0.951 . S
H882 C907 0.951 . S
H883 C909 0.950 . S
H884 C910 0.950 . S
H885 C912 0.950 . S
H886 C915 0.950 . S
H887 C916 0.950 . S
H888 C918 0.950 . S
H889 C919 0.950 . S
C890 H872 0.951 . S
C890 C891 1.366 . S
C890 C892 1.388 . S
C891 C890 1.366 . S
C891 C895 1.385 . S
C892 H873 0.951 . S
C892 C890 1.388 . S
C892 C893 1.366 . S
C893 C892 1.366 . S
C893 C894 1.414 . S
C893 C896 1.499 . S
C894 H874 0.950 . S
C894 C893 1.414 . S
C894 C895 1.374 . S
C895 H875 0.950 . S
C895 C891 1.385 . S
C895 C894 1.374 . S
C896 C893 1.499 . S
C896 C897 1.373 . S
C896 C898 1.389 . S
C897 H876 0.950 . S
C897 C896 1.373 . S
C897 C913 1.377 . S
C898 C896 1.389 . S
C898 C899 1.524 . S
C898 C912 1.377 . S
C899 C898 1.524 . S
C899 C900 1.397 . S
C899 C904 1.363 . S
C900 H877 0.950 . S
C900 C899 1.397 . S
C900 C901 1.334 . S
C901 H878 0.950 . S
C901 C900 1.334 . S
C901 C902 1.287 . S
C902 C901 1.287 . S
C902 C903 1.524 . S
C902 H921 0.913 . S
C903 H879 0.950 . S
C903 C902 1.524 . S
C903 C904 1.415 . S
C904 H880 0.950 . S
C904 C899 1.363 . S
C904 C903 1.415 . S
C905 H881 0.951 . S
C905 C906 1.366 . S
C905 C907 1.388 . S
C906 C905 1.366 . S
C906 C910 1.385 . S
C907 H882 0.951 . S
C907 C905 1.388 . S
C907 C908 1.366 . S
C908 C907 1.366 . S
C908 C909 1.414 . S
C908 C911 1.499 . S
C909 H883 0.950 . S
C909 C908 1.414 . S
C909 C910 1.374 . S
C910 H884 0.950 . S
C910 C906 1.385 . S
C910 C909 1.374 . S
C911 C908 1.499 . S
C911 C912 1.373 . S
C911 C913 1.389 . S
C912 H885 0.950 . S
C912 C898 1.377 . S
C912 C911 1.373 . S
C913 C897 1.377 . S
C913 C911 1.389 . S
C913 C914 1.524 . S
C914 C913 1.524 . S
C914 C915 1.397 . S
C914 C919 1.363 . S
C915 H886 0.950 . S
C915 C914 1.397 . S
C915 C916 1.334 . S
C916 H887 0.950 . S
C916 C915 1.334 . S
C916 C917 1.287 . S
C917 C916 1.287 . S
C917 C918 1.524 . S
C917 H920 0.999 . S
C918 H888 0.950 . S
C918 C917 1.524 . S
C918 C919 1.415 . S
C919 H889 0.950 . S
C919 C914 1.363 . S
C919 C918 1.415 . S
H920 C917 0.999 . S
H921 C902 0.913 . S
H922 C940 0.951 . S
H923 C942 0.951 . S
H924 C944 0.950 . S
H925 C945 0.950 . S
H926 C947 0.950 . S
H927 C950 0.950 . S
H928 C951 0.950 . S
H929 C953 0.950 . S
H930 C954 0.950 . S
H931 C955 0.951 . S
H932 C957 0.951 . S
H933 C959 0.950 . S
H934 C960 0.950 . S
H935 C962 0.950 . S
H936 C965 0.950 . S
H937 C966 0.950 . S
H938 C968 0.950 . S
H939 C969 0.950 . S
C940 H922 0.951 . S
C940 C941 1.366 . S
C940 C942 1.388 . S
C941 C940 1.366 . S
C941 C945 1.385 . S
C942 H923 0.951 . S
C942 C940 1.388 . S
C942 C943 1.366 . S
C943 C942 1.366 . S
C943 C944 1.414 . S
C943 C946 1.499 . S
C944 H924 0.950 . S
C944 C943 1.414 . S
C944 C945 1.374 . S
C945 H925 0.950 . S
C945 C941 1.385 . S
C945 C944 1.374 . S
C946 C943 1.499 . S
C946 C947 1.373 . S
C946 C948 1.389 . S
C947 H926 0.950 . S
C947 C946 1.373 . S
C947 C963 1.377 . S
C948 C946 1.389 . S
C948 C949 1.524 . S
C948 C962 1.377 . S
C949 C948 1.524 . S
C949 C950 1.397 . S
C949 C954 1.363 . S
C950 H927 0.950 . S
C950 C949 1.397 . S
C950 C951 1.334 . S
C951 H928 0.950 . S
C951 C950 1.334 . S
C951 C952 1.287 . S
C952 C951 1.287 . S
C952 C953 1.524 . S
C952 H971 0.913 . S
C953 H929 0.950 . S
C953 C952 1.524 . S
C953 C954 1.415 . S
C954 H930 0.950 . S
C954 C949 1.363 . S
C954 C953 1.415 . S
C955 H931 0.951 . S
C955 C956 1.366 . S
C955 C957 1.388 . S
C956 C955 1.366 . S
C956 C960 1.385 . S
C957 H932 0.951 . S
C957 C955 1.388 . S
C957 C958 1.366 . S
C958 C957 1.366 . S
C958 C959 1.414 . S
C958 C961 1.499 . S
C959 H933 0.950 . S
C959 C958 1.414 . S
C959 C960 1.374 . S
C960 H934 0.950 . S
C960 C956 1.385 . S
C960 C959 1.374 . S
C961 C958 1.499 . S
C961 C962 1.373 . S
C961 C963 1.389 . S
C962 H935 0.950 . S
C962 C948 1.377 . S
C962 C961 1.373 . S
C963 C947 1.377 . S
C963 C961 1.389 . S
C963 C964 1.524 . S
C964 C963 1.524 . S
C964 C965 1.397 . S
C964 C969 1.363 . S
C965 H936 0.950 . S
C965 C964 1.397 . S
C965 C966 1.334 . S
C966 H937 0.950 . S
C966 C965 1.334 . S
C966 C967 1.287 . S
C967 C966 1.287 . S
C967 C968 1.524 . S
C967 H970 0.999 . S
C968 H938 0.950 . S
C968 C967 1.524 . S
C968 C969 1.415 . S
C969 H939 0.950 . S
C969 C964 1.363 . S
C969 C968 1.415 . S
H970 C967 0.999 . S
H971 C952 0.913 . S
H972 C990 0.951 . S
H973 C992 0.951 . S
H974 C994 0.950 . S
H975 C995 0.950 . S
H976 C997 0.950 . S
H977 C1000 0.950 . S
H978 C1001 0.950 . S
H979 C1003 0.950 . S
H980 C1004 0.950 . S
H981 C1005 0.951 . S
H982 C1007 0.951 . S
H983 C1009 0.950 . S
H984 C1010 0.950 . S
H985 C1012 0.950 . S
H986 C1015 0.950 . S
H987 C1016 0.950 . S
H988 C1018 0.950 . S
H989 C1019 0.950 . S
C990 H972 0.951 . S
C990 C991 1.366 . S
C990 C992 1.388 . S
C991 C990 1.366 . S
C991 C995 1.385 . S
C992 H973 0.951 . S
C992 C990 1.388 . S
C992 C993 1.366 . S
C993 C992 1.366 . S
C993 C994 1.414 . S
C993 C996 1.499 . S
C994 H974 0.950 . S
C994 C993 1.414 . S
C994 C995 1.374 . S
C995 H975 0.950 . S
C995 C991 1.385 . S
C995 C994 1.374 . S
C996 C993 1.499 . S
C996 C997 1.373 . S
C996 C998 1.389 . S
C997 H976 0.950 . S
C997 C996 1.373 . S
C997 C1013 1.377 . S
C998 C996 1.389 . S
C998 C999 1.524 . S
C998 C1012 1.377 . S
C999 C998 1.524 . S
C999 C1000 1.397 . S
C999 C1004 1.363 . S
C1000 H977 0.950 . S
C1000 C999 1.397 . S
C1000 C1001 1.334 . S
C1001 H978 0.950 . S
C1001 C1000 1.334 . S
C1001 C1002 1.287 . S
C1002 C1001 1.287 . S
C1002 C1003 1.524 . S
C1002 H1021 0.913 . S
C1003 H979 0.950 . S
C1003 C1002 1.524 . S
C1003 C1004 1.415 . S
C1004 H980 0.950 . S
C1004 C999 1.363 . S
C1004 C1003 1.415 . S
C1005 H981 0.951 . S
C1005 C1006 1.366 . S
C1005 C1007 1.388 . S
C1006 C1005 1.366 . S
C1006 C1010 1.385 . S
C1007 H982 0.951 . S
C1007 C1005 1.388 . S
C1007 C1008 1.366 . S
C1008 C1007 1.366 . S
C1008 C1009 1.414 . S
C1008 C1011 1.499 . S
C1009 H983 0.950 . S
C1009 C1008 1.414 . S
C1009 C1010 1.374 . S
C1010 H984 0.950 . S
C1010 C1006 1.385 . S
C1010 C1009 1.374 . S
C1011 C1008 1.499 . S
C1011 C1012 1.373 . S
C1011 C1013 1.389 . S
C1012 H985 0.950 . S
C1012 C998 1.377 . S
C1012 C1011 1.373 . S
C1013 C997 1.377 . S
C1013 C1011 1.389 . S
C1013 C1014 1.524 . S
C1014 C1013 1.524 . S
C1014 C1015 1.397 . S
C1014 C1019 1.363 . S
C1015 H986 0.950 . S
C1015 C1014 1.397 . S
C1015 C1016 1.334 . S
C1016 H987 0.950 . S
C1016 C1015 1.334 . S
C1016 C1017 1.287 . S
C1017 C1016 1.287 . S
C1017 C1018 1.524 . S
C1017 H1020 0.999 . S
C1018 H988 0.950 . S
C1018 C1017 1.524 . S
C1018 C1019 1.415 . S
C1019 H989 0.950 . S
C1019 C1014 1.363 . S
C1019 C1018 1.415 . S
H1020 C1017 0.999 . S
H1021 C1002 0.913 . S
H1022 C1040 0.951 . S
H1023 C1042 0.951 . S
H1024 C1044 0.950 . S
H1025 C1045 0.950 . S
H1026 C1047 0.950 . S
H1027 C1050 0.950 . S
H1028 C1051 0.950 . S
H1029 C1053 0.950 . S
H1030 C1054 0.950 . S
H1031 C1055 0.951 . S
H1032 C1057 0.951 . S
H1033 C1059 0.950 . S
H1034 C1060 0.950 . S
H1035 C1062 0.950 . S
H1036 C1065 0.950 . S
H1037 C1066 0.950 . S
H1038 C1068 0.950 . S
H1039 C1069 0.950 . S
C1040 H1022 0.951 . S
C1040 C1041 1.366 . S
C1040 C1042 1.388 . S
C1041 C1040 1.366 . S
C1041 C1045 1.385 . S
C1042 H1023 0.951 . S
C1042 C1040 1.388 . S
C1042 C1043 1.366 . S
C1043 C1042 1.366 . S
C1043 C1044 1.414 . S
C1043 C1046 1.499 . S
C1044 H1024 0.950 . S
C1044 C1043 1.414 . S
C1044 C1045 1.374 . S
C1045 H1025 0.950 . S
C1045 C1041 1.385 . S
C1045 C1044 1.374 . S
C1046 C1043 1.499 . S
C1046 C1047 1.373 . S
C1046 C1048 1.389 . S
C1047 H1026 0.950 . S
C1047 C1046 1.373 . S
C1047 C1063 1.377 . S
C1048 C1046 1.389 . S
C1048 C1049 1.524 . S
C1048 C1062 1.377 . S
C1049 C1048 1.524 . S
C1049 C1050 1.397 . S
C1049 C1054 1.363 . S
C1050 H1027 0.950 . S
C1050 C1049 1.397 . S
C1050 C1051 1.334 . S
C1051 H1028 0.950 . S
C1051 C1050 1.334 . S
C1051 C1052 1.287 . S
C1052 C1051 1.287 . S
C1052 C1053 1.524 . S
C1052 H1071 0.913 . S
C1053 H1029 0.950 . S
C1053 C1052 1.524 . S
C1053 C1054 1.415 . S
C1054 H1030 0.950 . S
C1054 C1049 1.363 . S
C1054 C1053 1.415 . S
C1055 H1031 0.951 . S
C1055 C1056 1.366 . S
C1055 C1057 1.388 . S
C1056 C1055 1.366 . S
C1056 C1060 1.385 . S
C1057 H1032 0.951 . S
C1057 C1055 1.388 . S
C1057 C1058 1.366 . S
C1058 C1057 1.366 . S
C1058 C1059 1.414 . S
C1058 C1061 1.499 . S
C1059 H1033 0.950 . S
C1059 C1058 1.414 . S
C1059 C1060 1.374 . S
C1060 H1034 0.950 . S
C1060 C1056 1.385 . S
C1060 C1059 1.374 . S
C1061 C1058 1.499 . S
C1061 C1062 1.373 . S
C1061 C1063 1.389 . S
C1062 H1035 0.950 . S
C1062 C1048 1.377 . S
C1062 C1061 1.373 . S
C1063 C1047 1.377 . S
C1063 C1061 1.389 . S
C1063 C1064 1.524 . S
C1064 C1063 1.524 . S
C1064 C1065 1.397 . S
C1064 C1069 1.363 . S
C1065 H1036 0.950 . S
C1065 C1064 1.397 . S
C1065 C1066 1.334 . S
C1066 H1037 0.950 . S
C1066 C1065 1.334 . S
C1066 C1067 1.287 . S
C1067 C1066 1.287 . S
C1067 C1068 1.524 . S
C1067 H1070 0.999 . S
C1068 H1038 0.950 . S
C1068 C1067 1.524 . S
C1068 C1069 1.415 . S
C1069 H1039 0.950 . S
C1069 C1064 1.363 . S
C1069 C1068 1.415 . S
H1070 C1067 0.999 . S
H1071 C1052 0.913 . S
H1072 C1090 0.951 . S
H1073 C1092 0.951 . S
H1074 C1094 0.950 . S
H1075 C1095 0.950 . S
H1076 C1097 0.950 . S
H1077 C1100 0.950 . S
H1078 C1101 0.950 . S
H1079 C1103 0.950 . S
H1080 C1104 0.950 . S
H1081 C1105 0.951 . S
H1082 C1107 0.951 . S
H1083 C1109 0.950 . S
H1084 C1110 0.950 . S
H1085 C1112 0.950 . S
H1086 C1115 0.950 . S
H1087 C1116 0.950 . S
H1088 C1118 0.950 . S
H1089 C1119 0.950 . S
C1090 H1072 0.951 . S
C1090 C1091 1.366 . S
C1090 C1092 1.388 . S
C1091 C1090 1.366 . S
C1091 C1095 1.385 . S
C1092 H1073 0.951 . S
C1092 C1090 1.388 . S
C1092 C1093 1.366 . S
C1093 C1092 1.366 . S
C1093 C1094 1.414 . S
C1093 C1096 1.499 . S
C1094 H1074 0.950 . S
C1094 C1093 1.414 . S
C1094 C1095 1.374 . S
C1095 H1075 0.950 . S
C1095 C1091 1.385 . S
C1095 C1094 1.374 . S
C1096 C1093 1.499 . S
C1096 C1097 1.373 . S
C1096 C1098 1.389 . S
C1097 H1076 0.950 . S
C1097 C1096 1.373 . S
C1097 C1113 1.377 . S
C1098 C1096 1.389 . S
C1098 C1099 1.524 . S
C1098 C1112 1.377 . S
C1099 C1098 1.524 . S
C1099 C1100 1.397 . S
C1099 C1104 1.363 . S
C1100 H1077 0.950 . S
C1100 C1099 1.397 . S
C1100 C1101 1.334 . S
C1101 H1078 0.950 . S
C1101 C1100 1.334 . S
C1101 C1102 1.287 . S
C1102 C1101 1.287 . S
C1102 C1103 1.524 . S
C1102 H1121 0.913 . S
C1103 H1079 0.950 . S
C1103 C1102 1.524 . S
C1103 C1104 1.415 . S
C1104 H1080 0.950 . S
C1104 C1099 1.363 . S
C1104 C1103 1.415 . S
C1105 H1081 0.951 . S
C1105 C1106 1.366 . S
C1105 C1107 1.388 . S
C1106 C1105 1.366 . S
C1106 C1110 1.385 . S
C1107 H1082 0.951 . S
C1107 C1105 1.388 . S
C1107 C1108 1.366 . S
C1108 C1107 1.366 . S
C1108 C1109 1.414 . S
C1108 C1111 1.499 . S
C1109 H1083 0.950 . S
C1109 C1108 1.414 . S
C1109 C1110 1.374 . S
C1110 H1084 0.950 . S
C1110 C1106 1.385 . S
C1110 C1109 1.374 . S
C1111 C1108 1.499 . S
C1111 C1112 1.373 . S
C1111 C1113 1.389 . S
C1112 H1085 0.950 . S
C1112 C1098 1.377 . S
C1112 C1111 1.373 . S
C1113 C1097 1.377 . S
C1113 C1111 1.389 . S
C1113 C1114 1.524 . S
C1114 C1113 1.524 . S
C1114 C1115 1.397 . S
C1114 C1119 1.363 . S
C1115 H1086 0.950 . S
C1115 C1114 1.397 . S
C1115 C1116 1.334 . S
C1116 H1087 0.950 . S
C1116 C1115 1.334 . S
C1116 C1117 1.287 . S
C1117 C1116 1.287 . S
C1117 C1118 1.524 . S
C1117 H1120 0.999 . S
C1118 H1088 0.950 . S
C1118 C1117 1.524 . S
C1118 C1119 1.415 . S
C1119 H1089 0.950 . S
C1119 C1114 1.363 . S
C1119 C1118 1.415 . S
H1120 C1117 0.999 . S
H1121 C1102 0.913 . S
H1122 C1140 0.951 . S
H1123 C1142 0.951 . S
H1124 C1144 0.950 . S
H1125 C1145 0.950 . S
H1126 C1147 0.950 . S
H1127 C1150 0.950 . S
H1128 C1151 0.950 . S
H1129 C1153 0.950 . S
H1130 C1154 0.950 . S
H1131 C1155 0.951 . S
H1132 C1157 0.951 . S
H1133 C1159 0.950 . S
H1134 C1160 0.950 . S
H1135 C1162 0.950 . S
H1136 C1165 0.950 . S
H1137 C1166 0.950 . S
H1138 C1168 0.950 . S
H1139 C1169 0.950 . S
C1140 H1122 0.951 . S
C1140 C1141 1.366 . S
C1140 C1142 1.388 . S
C1141 C1140 1.366 . S
C1141 C1145 1.385 . S
C1142 H1123 0.951 . S
C1142 C1140 1.388 . S
C1142 C1143 1.366 . S
C1143 C1142 1.366 . S
C1143 C1144 1.414 . S
C1143 C1146 1.499 . S
C1144 H1124 0.950 . S
C1144 C1143 1.414 . S
C1144 C1145 1.374 . S
C1145 H1125 0.950 . S
C1145 C1141 1.385 . S
C1145 C1144 1.374 . S
C1146 C1143 1.499 . S
C1146 C1147 1.373 . S
C1146 C1148 1.389 . S
C1147 H1126 0.950 . S
C1147 C1146 1.373 . S
C1147 C1163 1.377 . S
C1148 C1146 1.389 . S
C1148 C1149 1.524 . S
C1148 C1162 1.377 . S
C1149 C1148 1.524 . S
C1149 C1150 1.397 . S
C1149 C1154 1.363 . S
C1150 H1127 0.950 . S
C1150 C1149 1.397 . S
C1150 C1151 1.334 . S
C1151 H1128 0.950 . S
C1151 C1150 1.334 . S
C1151 C1152 1.287 . S
C1152 C1151 1.287 . S
C1152 C1153 1.524 . S
C1152 H1171 0.913 . S
C1153 H1129 0.950 . S
C1153 C1152 1.524 . S
C1153 C1154 1.415 . S
C1154 H1130 0.950 . S
C1154 C1149 1.363 . S
C1154 C1153 1.415 . S
C1155 H1131 0.951 . S
C1155 C1156 1.366 . S
C1155 C1157 1.388 . S
C1156 C1155 1.366 . S
C1156 C1160 1.385 . S
C1157 H1132 0.951 . S
C1157 C1155 1.388 . S
C1157 C1158 1.366 . S
C1158 C1157 1.366 . S
C1158 C1159 1.414 . S
C1158 C1161 1.499 . S
C1159 H1133 0.950 . S
C1159 C1158 1.414 . S
C1159 C1160 1.374 . S
C1160 H1134 0.950 . S
C1160 C1156 1.385 . S
C1160 C1159 1.374 . S
C1161 C1158 1.499 . S
C1161 C1162 1.373 . S
C1161 C1163 1.389 . S
C1162 H1135 0.950 . S
C1162 C1148 1.377 . S
C1162 C1161 1.373 . S
C1163 C1147 1.377 . S
C1163 C1161 1.389 . S
C1163 C1164 1.524 . S
C1164 C1163 1.524 . S
C1164 C1165 1.397 . S
C1164 C1169 1.363 . S
C1165 H1136 0.950 . S
C1165 C1164 1.397 . S
C1165 C1166 1.334 . S
C1166 H1137 0.950 . S
C1166 C1165 1.334 . S
C1166 C1167 1.287 . S
C1167 C1166 1.287 . S
C1167 C1168 1.524 . S
C1167 H1170 0.999 . S
C1168 H1138 0.950 . S
C1168 C1167 1.524 . S
C1168 C1169 1.415 . S
C1169 H1139 0.950 . S
C1169 C1164 1.363 . S
C1169 C1168 1.415 . S
H1170 C1167 0.999 . S
H1171 C1152 0.913 . S
H1172 C1190 0.951 . S
H1173 C1192 0.951 . S
H1174 C1194 0.950 . S
H1175 C1195 0.950 . S
H1176 C1197 0.950 . S
H1177 C1200 0.950 . S
H1178 C1201 0.950 . S
H1179 C1203 0.950 . S
H1180 C1204 0.950 . S
H1181 C1205 0.951 . S
H1182 C1207 0.951 . S
H1183 C1209 0.950 . S
H1184 C1210 0.950 . S
H1185 C1212 0.950 . S
H1186 C1215 0.950 . S
H1187 C1216 0.950 . S
H1188 C1218 0.950 . S
H1189 C1219 0.950 . S
C1190 H1172 0.951 . S
C1190 C1191 1.366 . S
C1190 C1192 1.388 . S
C1191 C1190 1.366 . S
C1191 C1195 1.385 . S
C1192 H1173 0.951 . S
C1192 C1190 1.388 . S
C1192 C1193 1.366 . S
C1193 C1192 1.366 . S
C1193 C1194 1.414 . S
C1193 C1196 1.499 . S
C1194 H1174 0.950 . S
C1194 C1193 1.414 . S
C1194 C1195 1.374 . S
C1195 H1175 0.950 . S
C1195 C1191 1.385 . S
C1195 C1194 1.374 . S
C1196 C1193 1.499 . S
C1196 C1197 1.373 . S
C1196 C1198 1.389 . S
C1197 H1176 0.950 . S
C1197 C1196 1.373 . S
C1197 C1213 1.377 . S
C1198 C1196 1.389 . S
C1198 C1199 1.524 . S
C1198 C1212 1.377 . S
C1199 C1198 1.524 . S
C1199 C1200 1.397 . S
C1199 C1204 1.363 . S
C1200 H1177 0.950 . S
C1200 C1199 1.397 . S
C1200 C1201 1.334 . S
C1201 H1178 0.950 . S
C1201 C1200 1.334 . S
C1201 C1202 1.287 . S
C1202 C1201 1.287 . S
C1202 C1203 1.524 . S
C1202 H1221 0.913 . S
C1203 H1179 0.950 . S
C1203 C1202 1.524 . S
C1203 C1204 1.415 . S
C1204 H1180 0.950 . S
C1204 C1199 1.363 . S
C1204 C1203 1.415 . S
C1205 H1181 0.951 . S
C1205 C1206 1.366 . S
C1205 C1207 1.388 . S
C1206 C1205 1.366 . S
C1206 C1210 1.385 . S
C1207 H1182 0.951 . S
C1207 C1205 1.388 . S
C1207 C1208 1.366 . S
C1208 C1207 1.366 . S
C1208 C1209 1.414 . S
C1208 C1211 1.499 . S
C1209 H1183 0.950 . S
C1209 C1208 1.414 . S
C1209 C1210 1.374 . S
C1210 H1184 0.950 . S
C1210 C1206 1.385 . S
C1210 C1209 1.374 . S
C1211 C1208 1.499 . S
C1211 C1212 1.373 . S
C1211 C1213 1.389 . S
C1212 H1185 0.950 . S
C1212 C1198 1.377 . S
C1212 C1211 1.373 . S
C1213 C1197 1.377 . S
C1213 C1211 1.389 . S
C1213 C1214 1.524 . S
C1214 C1213 1.524 . S
C1214 C1215 1.397 . S
C1214 C1219 1.363 . S
C1215 H1186 0.950 . S
C1215 C1214 1.397 . S
C1215 C1216 1.334 . S
C1216 H1187 0.950 . S
C1216 C1215 1.334 . S
C1216 C1217 1.287 . S
C1217 C1216 1.287 . S
C1217 C1218 1.524 . S
C1217 H1220 0.999 . S
C1218 H1188 0.950 . S
C1218 C1217 1.524 . S
C1218 C1219 1.415 . S
C1219 H1189 0.950 . S
C1219 C1214 1.363 . S
C1219 C1218 1.415 . S
H1220 C1217 0.999 . S
H1221 C1202 0.913 . S
H1222 C1240 0.951 . S
H1223 C1242 0.951 . S
H1224 C1244 0.950 . S
H1225 C1245 0.950 . S
H1226 C1247 0.950 . S
H1227 C1250 0.950 . S
H1228 C1251 0.950 . S
H1229 C1253 0.950 . S
H1230 C1254 0.950 . S
H1231 C1255 0.951 . S
H1232 C1257 0.951 . S
H1233 C1259 0.950 . S
H1234 C1260 0.950 . S
H1235 C1262 0.950 . S
H1236 C1265 0.950 . S
H1237 C1266 0.950 . S
H1238 C1268 0.950 . S
H1239 C1269 0.950 . S
C1240 H1222 0.951 . S
C1240 C1241 1.366 . S
C1240 C1242 1.388 . S
C1241 C1240 1.366 . S
C1241 C1245 1.385 . S
C1242 H1223 0.951 . S
C1242 C1240 1.388 . S
C1242 C1243 1.366 . S
C1243 C1242 1.366 . S
C1243 C1244 1.414 . S
C1243 C1246 1.499 . S
C1244 H1224 0.950 . S
C1244 C1243 1.414 . S
C1244 C1245 1.374 . S
C1245 H1225 0.950 . S
C1245 C1241 1.385 . S
C1245 C1244 1.374 . S
C1246 C1243 1.499 . S
C1246 C1247 1.373 . S
C1246 C1248 1.389 . S
C1247 H1226 0.950 . S
C1247 C1246 1.373 . S
C1247 C1263 1.377 . S
C1248 C1246 1.389 . S
C1248 C1249 1.524 . S
C1248 C1262 1.377 . S
C1249 C1248 1.524 . S
C1249 C1250 1.397 . S
C1249 C1254 1.363 . S
C1250 H1227 0.950 . S
C1250 C1249 1.397 . S
C1250 C1251 1.334 . S
C1251 H1228 0.950 . S
C1251 C1250 1.334 . S
C1251 C1252 1.287 . S
C1252 C1251 1.287 . S
C1252 C1253 1.524 . S
C1252 H1271 0.913 . S
C1253 H1229 0.950 . S
C1253 C1252 1.524 . S
C1253 C1254 1.415 . S
C1254 H1230 0.950 . S
C1254 C1249 1.363 . S
C1254 C1253 1.415 . S
C1255 H1231 0.951 . S
C1255 C1256 1.366 . S
C1255 C1257 1.388 . S
C1256 C1255 1.366 . S
C1256 C1260 1.385 . S
C1257 H1232 0.951 . S
C1257 C1255 1.388 . S
C1257 C1258 1.366 . S
C1258 C1257 1.366 . S
C1258 C1259 1.414 . S
C1258 C1261 1.499 . S
C1259 H1233 0.950 . S
C1259 C1258 1.414 . S
C1259 C1260 1.374 . S
C1260 H1234 0.950 . S
C1260 C1256 1.385 . S
C1260 C1259 1.374 . S
C1261 C1258 1.499 . S
C1261 C1262 1.373 . S
C1261 C1263 1.389 . S
C1262 H1235 0.950 . S
C1262 C1248 1.377 . S
C1262 C1261 1.373 . S
C1263 C1247 1.377 . S
C1263 C1261 1.389 . S
C1263 C1264 1.524 . S
C1264 C1263 1.524 . S
C1264 C1265 1.397 . S
C1264 C1269 1.363 . S
C1265 H1236 0.950 . S
C1265 C1264 1.397 . S
C1265 C1266 1.334 . S
C1266 H1237 0.950 . S
C1266 C1265 1.334 . S
C1266 C1267 1.287 . S
C1267 C1266 1.287 . S
C1267 C1268 1.524 . S
C1267 H1270 0.999 . S
C1268 H1238 0.950 . S
C1268 C1267 1.524 . S
C1268 C1269 1.415 . S
C1269 H1239 0.950 . S
C1269 C1264 1.363 . S
C1269 C1268 1.415 . S
H1270 C1267 0.999 . S
H1271 C1252 0.913 . S
H1272 C1290 0.951 . S
H1273 C1292 0.951 . S
H1274 C1294 0.950 . S
H1275 C1295 0.950 . S
H1276 C1297 0.950 . S
H1277 C1300 0.950 . S
H1278 C1301 0.950 . S
H1279 C1303 0.950 . S
H1280 C1304 0.950 . S
H1281 C1305 0.951 . S
H1282 C1307 0.951 . S
H1283 C1309 0.950 . S
H1284 C1310 0.950 . S
H1285 C1312 0.950 . S
H1286 C1315 0.950 . S
H1287 C1316 0.950 . S
H1288 C1318 0.950 . S
H1289 C1319 0.950 . S
C1290 H1272 0.951 . S
C1290 C1291 1.366 . S
C1290 C1292 1.388 . S
C1291 C1290 1.366 . S
C1291 C1295 1.385 . S
C1292 H1273 0.951 . S
C1292 C1290 1.388 . S
C1292 C1293 1.366 . S
C1293 C1292 1.366 . S
C1293 C1294 1.414 . S
C1293 C1296 1.499 . S
C1294 H1274 0.950 . S
C1294 C1293 1.414 . S
C1294 C1295 1.374 . S
C1295 H1275 0.950 . S
C1295 C1291 1.385 . S
C1295 C1294 1.374 . S
C1296 C1293 1.499 . S
C1296 C1297 1.373 . S
C1296 C1298 1.389 . S
C1297 H1276 0.950 . S
C1297 C1296 1.373 . S
C1297 C1313 1.377 . S
C1298 C1296 1.389 . S
C1298 C1299 1.524 . S
C1298 C1312 1.377 . S
C1299 C1298 1.524 . S
C1299 C1300 1.397 . S
C1299 C1304 1.363 . S
C1300 H1277 0.950 . S
C1300 C1299 1.397 . S
C1300 C1301 1.334 . S
C1301 H1278 0.950 . S
C1301 C1300 1.334 . S
C1301 C1302 1.287 . S
C1302 C1301 1.287 . S
C1302 C1303 1.524 . S
C1302 H1321 0.913 . S
C1303 H1279 0.950 . S
C1303 C1302 1.524 . S
C1303 C1304 1.415 . S
C1304 H1280 0.950 . S
C1304 C1299 1.363 . S
C1304 C1303 1.415 . S
C1305 H1281 0.951 . S
C1305 C1306 1.366 . S
C1305 C1307 1.388 . S
C1306 C1305 1.366 . S
C1306 C1310 1.385 . S
C1307 H1282 0.951 . S
C1307 C1305 1.388 . S
C1307 C1308 1.366 . S
C1308 C1307 1.366 . S
C1308 C1309 1.414 . S
C1308 C1311 1.499 . S
C1309 H1283 0.950 . S
C1309 C1308 1.414 . S
C1309 C1310 1.374 . S
C1310 H1284 0.950 . S
C1310 C1306 1.385 . S
C1310 C1309 1.374 . S
C1311 C1308 1.499 . S
C1311 C1312 1.373 . S
C1311 C1313 1.389 . S
C1312 H1285 0.950 . S
C1312 C1298 1.377 . S
C1312 C1311 1.373 . S
C1313 C1297 1.377 . S
C1313 C1311 1.389 . S
C1313 C1314 1.524 . S
C1314 C1313 1.524 . S
C1314 C1315 1.397 . S
C1314 C1319 1.363 . S
C1315 H1286 0.950 . S
C1315 C1314 1.397 . S
C1315 C1316 1.334 . S
C1316 H1287 0.950 . S
C1316 C1315 1.334 . S
C1316 C1317 1.287 . S
C1317 C1316 1.287 . S
C1317 C1318 1.524 . S
C1317 H1320 0.999 . S
C1318 H1288 0.950 . S
C1318 C1317 1.524 . S
C1318 C1319 1.415 . S
C1319 H1289 0.950 . S
C1319 C1314 1.363 . S
C1319 C1318 1.415 . S
H1320 C1317 0.999 . S
H1321 C1302 0.913 . S
H1322 C1340 0.951 . S
H1323 C1342 0.951 . S
H1324 C1344 0.950 . S
H1325 C1345 0.950 . S
H1326 C1347 0.950 . S
H1327 C1350 0.950 . S
H1328 C1351 0.950 . S
H1329 C1353 0.950 . S
H1330 C1354 0.950 . S
H1331 C1355 0.951 . S
H1332 C1357 0.951 . S
H1333 C1359 0.950 . S
H1334 C1360 0.950 . S
H1335 C1362 0.950 . S
H1336 C1365 0.950 . S
H1337 C1366 0.950 . S
H1338 C1368 0.950 . S
H1339 C1369 0.950 . S
C1340 H1322 0.951 . S
C1340 C1341 1.366 . S
C1340 C1342 1.388 . S
C1341 C1340 1.366 . S
C1341 C1345 1.385 . S
C1342 H1323 0.951 . S
C1342 C1340 1.388 . S
C1342 C1343 1.366 . S
C1343 C1342 1.366 . S
C1343 C1344 1.414 . S
C1343 C1346 1.499 . S
C1344 H1324 0.950 . S
C1344 C1343 1.414 . S
C1344 C1345 1.374 . S
C1345 H1325 0.950 . S
C1345 C1341 1.385 . S
C1345 C1344 1.374 . S
C1346 C1343 1.499 . S
C1346 C1347 1.373 . S
C1346 C1348 1.389 . S
C1347 H1326 0.950 . S
C1347 C1346 1.373 . S
C1347 C1363 1.377 . S
C1348 C1346 1.389 . S
C1348 C1349 1.524 . S
C1348 C1362 1.377 . S
C1349 C1348 1.524 . S
C1349 C1350 1.397 . S
C1349 C1354 1.363 . S
C1350 H1327 0.950 . S
C1350 C1349 1.397 . S
C1350 C1351 1.334 . S
C1351 H1328 0.950 . S
C1351 C1350 1.334 . S
C1351 C1352 1.287 . S
C1352 C1351 1.287 . S
C1352 C1353 1.524 . S
C1352 H1371 0.913 . S
C1353 H1329 0.950 . S
C1353 C1352 1.524 . S
C1353 C1354 1.415 . S
C1354 H1330 0.950 . S
C1354 C1349 1.363 . S
C1354 C1353 1.415 . S
C1355 H1331 0.951 . S
C1355 C1356 1.366 . S
C1355 C1357 1.388 . S
C1356 C1355 1.366 . S
C1356 C1360 1.385 . S
C1357 H1332 0.951 . S
C1357 C1355 1.388 . S
C1357 C1358 1.366 . S
C1358 C1357 1.366 . S
C1358 C1359 1.414 . S
C1358 C1361 1.499 . S
C1359 H1333 0.950 . S
C1359 C1358 1.414 . S
C1359 C1360 1.374 . S
C1360 H1334 0.950 . S
C1360 C1356 1.385 . S
C1360 C1359 1.374 . S
C1361 C1358 1.499 . S
C1361 C1362 1.373 . S
C1361 C1363 1.389 . S
C1362 H1335 0.950 . S
C1362 C1348 1.377 . S
C1362 C1361 1.373 . S
C1363 C1347 1.377 . S
C1363 C1361 1.389 . S
C1363 C1364 1.524 . S
C1364 C1363 1.524 . S
C1364 C1365 1.397 . S
C1364 C1369 1.363 . S
C1365 H1336 0.950 . S
C1365 C1364 1.397 . S
C1365 C1366 1.334 . S
C1366 H1337 0.950 . S
C1366 C1365 1.334 . S
C1366 C1367 1.287 . S
C1367 C1366 1.287 . S
C1367 C1368 1.524 . S
C1367 H1370 0.999 . S
C1368 H1338 0.950 . S
C1368 C1367 1.524 . S
C1368 C1369 1.415 . S
C1369 H1339 0.950 . S
C1369 C1364 1.363 . S
C1369 C1368 1.415 . S
H1370 C1367 0.999 . S
H1371 C1352 0.913 . S
H1372 C1390 0.951 . S
H1373 C1392 0.951 . S
H1374 C1394 0.950 . S
H1375 C1395 0.950 . S
H1376 C1397 0.950 . S
H1377 C1400 0.950 . S
H1378 C1401 0.950 . S
H1379 C1403 0.950 . S
H1380 C1404 0.950 . S
H1381 C1405 0.951 . S
H1382 C1407 0.951 . S
H1383 C1409 0.950 . S
H1384 C1410 0.950 . S
H1385 C1412 0.950 . S
H1386 C1415 0.950 . S
H1387 C1416 0.950 . S
H1388 C1418 0.950 . S
H1389 C1419 0.950 . S
C1390 H1372 0.951 . S
C1390 C1391 1.366 . S
C1390 C1392 1.388 . S
C1391 C1390 1.366 . S
C1391 C1395 1.385 . S
C1392 H1373 0.951 . S
C1392 C1390 1.388 . S
C1392 C1393 1.366 . S
C1393 C1392 1.366 . S
C1393 C1394 1.414 . S
C1393 C1396 1.499 . S
C1394 H1374 0.950 . S
C1394 C1393 1.414 . S
C1394 C1395 1.374 . S
C1395 H1375 0.950 . S
C1395 C1391 1.385 . S
C1395 C1394 1.374 . S
C1396 C1393 1.499 . S
C1396 C1397 1.373 . S
C1396 C1398 1.389 . S
C1397 H1376 0.950 . S
C1397 C1396 1.373 . S
C1397 C1413 1.377 . S
C1398 C1396 1.389 . S
C1398 C1399 1.524 . S
C1398 C1412 1.377 . S
C1399 C1398 1.524 . S
C1399 C1400 1.397 . S
C1399 C1404 1.363 . S
C1400 H1377 0.950 . S
C1400 C1399 1.397 . S
C1400 C1401 1.334 . S
C1401 H1378 0.950 . S
C1401 C1400 1.334 . S
C1401 C1402 1.287 . S
C1402 C1401 1.287 . S
C1402 C1403 1.524 . S
C1402 H1421 0.913 . S
C1403 H1379 0.950 . S
C1403 C1402 1.524 . S
C1403 C1404 1.415 . S
C1404 H1380 0.950 . S
C1404 C1399 1.363 . S
C1404 C1403 1.415 . S
C1405 H1381 0.951 . S
C1405 C1406 1.366 . S
C1405 C1407 1.388 . S
C1406 C1405 1.366 . S
C1406 C1410 1.385 . S
C1407 H1382 0.951 . S
C1407 C1405 1.388 . S
C1407 C1408 1.366 . S
C1408 C1407 1.366 . S
C1408 C1409 1.414 . S
C1408 C1411 1.499 . S
C1409 H1383 0.950 . S
C1409 C1408 1.414 . S
C1409 C1410 1.374 . S
C1410 H1384 0.950 . S
C1410 C1406 1.385 . S
C1410 C1409 1.374 . S
C1411 C1408 1.499 . S
C1411 C1412 1.373 . S
C1411 C1413 1.389 . S
C1412 H1385 0.950 . S
C1412 C1398 1.377 . S
C1412 C1411 1.373 . S
C1413 C1397 1.377 . S
C1413 C1411 1.389 . S
C1413 C1414 1.524 . S
C1414 C1413 1.524 . S
C1414 C1415 1.397 . S
C1414 C1419 1.363 . S
C1415 H1386 0.950 . S
C1415 C1414 1.397 . S
C1415 C1416 1.334 . S
C1416 H1387 0.950 . S
C1416 C1415 1.334 . S
C1416 C1417 1.287 . S
C1417 C1416 1.287 . S
C1417 C1418 1.524 . S
C1417 H1420 0.999 . S
C1418 H1388 0.950 . S
C1418 C1417 1.524 . S
C1418 C1419 1.415 . S
C1419 H1389 0.950 . S
C1419 C1414 1.363 . S
C1419 C1418 1.415 . S
H1420 C1417 0.999 . S
H1421 C1402 0.913 . S
H1422 C1440 0.951 . S
H1423 C1442 0.951 . S
H1424 C1444 0.950 . S
H1425 C1445 0.950 . S
H1426 C1447 0.950 . S
H1427 C1450 0.950 . S
H1428 C1451 0.950 . S
H1429 C1453 0.950 . S
H1430 C1454 0.950 . S
H1431 C1455 0.951 . S
H1432 C1457 0.951 . S
H1433 C1459 0.950 . S
H1434 C1460 0.950 . S
H1435 C1462 0.950 . S
H1436 C1465 0.950 . S
H1437 C1466 0.950 . S
H1438 C1468 0.950 . S
H1439 C1469 0.950 . S
C1440 H1422 0.951 . S
C1440 C1441 1.366 . S
C1440 C1442 1.388 . S
C1441 C1440 1.366 . S
C1441 C1445 1.385 . S
C1442 H1423 0.951 . S
C1442 C1440 1.388 . S
C1442 C1443 1.366 . S
C1443 C1442 1.366 . S
C1443 C1444 1.414 . S
C1443 C1446 1.499 . S
C1444 H1424 0.950 . S
C1444 C1443 1.414 . S
C1444 C1445 1.374 . S
C1445 H1425 0.950 . S
C1445 C1441 1.385 . S
C1445 C1444 1.374 . S
C1446 C1443 1.499 . S
C1446 C1447 1.373 . S
C1446 C1448 1.389 . S
C1447 H1426 0.950 . S
C1447 C1446 1.373 . S
C1447 C1463 1.377 . S
C1448 C1446 1.389 . S
C1448 C1449 1.524 . S
C1448 C1462 1.377 . S
C1449 C1448 1.524 . S
C1449 C1450 1.397 . S
C1449 C1454 1.363 . S
C1450 H1427 0.950 . S
C1450 C1449 1.397 . S
C1450 C1451 1.334 . S
C1451 H1428 0.950 . S
C1451 C1450 1.334 . S
C1451 C1452 1.287 . S
C1452 C1451 1.287 . S
C1452 C1453 1.524 . S
C1452 H1471 0.913 . S
C1453 H1429 0.950 . S
C1453 C1452 1.524 . S
C1453 C1454 1.415 . S
C1454 H1430 0.950 . S
C1454 C1449 1.363 . S
C1454 C1453 1.415 . S
C1455 H1431 0.951 . S
C1455 C1456 1.366 . S
C1455 C1457 1.388 . S
C1456 C1455 1.366 . S
C1456 C1460 1.385 . S
C1457 H1432 0.951 . S
C1457 C1455 1.388 . S
C1457 C1458 1.366 . S
C1458 C1457 1.366 . S
C1458 C1459 1.414 . S
C1458 C1461 1.499 . S
C1459 H1433 0.950 . S
C1459 C1458 1.414 . S
C1459 C1460 1.374 . S
C1460 H1434 0.950 . S
C1460 C1456 1.385 . S
C1460 C1459 1.374 . S
C1461 C1458 1.499 . S
C1461 C1462 1.373 . S
C1461 C1463 1.389 . S
C1462 H1435 0.950 . S
C1462 C1448 1.377 . S
C1462 C1461 1.373 . S
C1463 C1447 1.377 . S
C1463 C1461 1.389 . S
C1463 C1464 1.524 . S
C1464 C1463 1.524 . S
C1464 C1465 1.397 . S
C1464 C1469 1.363 . S
C1465 H1436 0.950 . S
C1465 C1464 1.397 . S
C1465 C1466 1.334 . S
C1466 H1437 0.950 . S
C1466 C1465 1.334 . S
C1466 C1467 1.287 . S
C1467 C1466 1.287 . S
C1467 C1468 1.524 . S
C1467 H1470 0.999 . S
C1468 H1438 0.950 . S
C1468 C1467 1.524 . S
C1468 C1469 1.415 . S
C1469 H1439 0.950 . S
C1469 C1464 1.363 . S
C1469 C1468 1.415 . S
H1470 C1467 0.999 . S
H1471 C1452 0.913 . S
H1472 C1490 0.951 . S
H1473 C1492 0.951 . S
H1474 C1494 0.950 . S
H1475 C1495 0.950 . S
H1476 C1497 0.950 . S
H1477 C1500 0.950 . S
H1478 C1501 0.950 . S
H1479 C1503 0.950 . S
H1480 C1504 0.950 . S
H1481 C1505 0.951 . S
H1482 C1507 0.951 . S
H1483 C1509 0.950 . S
H1484 C1510 0.950 . S
H1485 C1512 0.950 . S
H1486 C1515 0.950 . S
H1487 C1516 0.950 . S
H1488 C1518 0.950 . S
H1489 C1519 0.950 . S
C1490 H1472 0.951 . S
C1490 C1491 1.366 . S
C1490 C1492 1.388 . S
C1491 C1490 1.366 . S
C1491 C1495 1.385 . S
C1492 H1473 0.951 . S
C1492 C1490 1.388 . S
C1492 C1493 1.366 . S
C1493 C1492 1.366 . S
C1493 C1494 1.414 . S
C1493 C1496 1.499 . S
C1494 H1474 0.950 . S
C1494 C1493 1.414 . S
C1494 C1495 1.374 . S
C1495 H1475 0.950 . S
C1495 C1491 1.385 . S
C1495 C1494 1.374 . S
C1496 C1493 1.499 . S
C1496 C1497 1.373 . S
C1496 C1498 1.389 . S
C1497 H1476 0.950 . S
C1497 C1496 1.373 . S
C1497 C1513 1.377 . S
C1498 C1496 1.389 . S
C1498 C1499 1.524 . S
C1498 C1512 1.377 . S
C1499 C1498 1.524 . S
C1499 C1500 1.397 . S
C1499 C1504 1.363 . S
C1500 H1477 0.950 . S
C1500 C1499 1.397 . S
C1500 C1501 1.334 . S
C1501 H1478 0.950 . S
C1501 C1500 1.334 . S
C1501 C1502 1.287 . S
C1502 C1501 1.287 . S
C1502 C1503 1.524 . S
C1502 H1521 0.913 . S
C1503 H1479 0.950 . S
C1503 C1502 1.524 . S
C1503 C1504 1.415 . S
C1504 H1480 0.950 . S
C1504 C1499 1.363 . S
C1504 C1503 1.415 . S
C1505 H1481 0.951 . S
C1505 C1506 1.366 . S
C1505 C1507 1.388 . S
C1506 C1505 1.366 . S
C1506 C1510 1.385 . S
C1507 H1482 0.951 . S
C1507 C1505 1.388 . S
C1507 C1508 1.366 . S
C1508 C1507 1.366 . S
C1508 C1509 1.414 . S
C1508 C1511 1.499 . S
C1509 H1483 0.950 . S
C1509 C1508 1.414 . S
C1509 C1510 1.374 . S
C1510 H1484 0.950 . S
C1510 C1506 1.385 . S
C1510 C1509 1.374 . S
C1511 C1508 1.499 . S
C1511 C1512 1.373 . S
C1511 C1513 1.389 . S
C1512 H1485 0.950 . S
C1512 C1498 1.377 . S
C1512 C1511 1.373 . S
C1513 C1497 1.377 . S
C1513 C1511 1.389 . S
C1513 C1514 1.524 . S
C1514 C1513 1.524 . S
C1514 C1515 1.397 . S
C1514 C1519 1.363 . S
C1515 H1486 0.950 . S
C1515 C1514 1.397 . S
C1515 C1516 1.334 . S
C1516 H1487 0.950 . S
C1516 C1515 1.334 . S
C1516 C1517 1.287 . S
C1517 C1516 1.287 . S
C1517 C1518 1.524 . S
C1517 H1520 0.999 . S
C1518 H1488 0.950 . S
C1518 C1517 1.524 . S
C1518 C1519 1.415 . S
C1519 H1489 0.950 . S
C1519 C1514 1.363 . S
C1519 C1518 1.415 . S
H1520 C1517 0.999 . S
H1521 C1502 0.913 . S
H1522 C1540 0.951 . S
H1523 C1542 0.951 . S
H1524 C1544 0.950 . S
H1525 C1545 0.950 . S
H1526 C1547 0.950 . S
H1527 C1550 0.950 . S
H1528 C1551 0.950 . S
H1529 C1553 0.950 . S
H1530 C1554 0.950 . S
H1531 C1555 0.951 . S
H1532 C1557 0.951 . S
H1533 C1559 0.950 . S
H1534 C1560 0.950 . S
H1535 C1562 0.950 . S
H1536 C1565 0.950 . S
H1537 C1566 0.950 . S
H1538 C1568 0.950 . S
H1539 C1569 0.950 . S
C1540 H1522 0.951 . S
C1540 C1541 1.366 . S
C1540 C1542 1.388 . S
C1541 C1540 1.366 . S
C1541 C1545 1.385 . S
C1542 H1523 0.951 . S
C1542 C1540 1.388 . S
C1542 C1543 1.366 . S
C1543 C1542 1.366 . S
C1543 C1544 1.414 . S
C1543 C1546 1.499 . S
C1544 H1524 0.950 . S
C1544 C1543 1.414 . S
C1544 C1545 1.374 . S
C1545 H1525 0.950 . S
C1545 C1541 1.385 . S
C1545 C1544 1.374 . S
C1546 C1543 1.499 . S
C1546 C1547 1.373 . S
C1546 C1548 1.389 . S
C1547 H1526 0.950 . S
C1547 C1546 1.373 . S
C1547 C1563 1.377 . S
C1548 C1546 1.389 . S
C1548 C1549 1.524 . S
C1548 C1562 1.377 . S
C1549 C1548 1.524 . S
C1549 C1550 1.397 . S
C1549 C1554 1.363 . S
C1550 H1527 0.950 . S
C1550 C1549 1.397 . S
C1550 C1551 1.334 . S
C1551 H1528 0.950 . S
C1551 C1550 1.334 . S
C1551 C1552 1.287 . S
C1552 C1551 1.287 . S
C1552 C1553 1.524 . S
C1552 H1571 0.913 . S
C1553 H1529 0.950 . S
C1553 C1552 1.524 . S
C1553 C1554 1.415 . S
C1554 H1530 0.950 . S
C1554 C1549 1.363 . S
C1554 C1553 1.415 . S
C1555 H1531 0.951 . S
C1555 C1556 1.366 . S
C1555 C1557 1.388 . S
C1556 C1555 1.366 . S
C1556 C1560 1.385 . S
C1557 H1532 0.951 . S
C1557 C1555 1.388 . S
C1557 C1558 1.366 . S
C1558 C1557 1.366 . S
C1558 C1559 1.414 . S
C1558 C1561 1.499 . S
C1559 H1533 0.950 . S
C1559 C1558 1.414 . S
C1559 C1560 1.374 . S
C1560 H1534 0.950 . S
C1560 C1556 1.385 . S
C1560 C1559 1.374 . S
C1561 C1558 1.499 . S
C1561 C1562 1.373 . S
C1561 C1563 1.389 . S
C1562 H1535 0.950 . S
C1562 C1548 1.377 . S
C1562 C1561 1.373 . S
C1563 C1547 1.377 . S
C1563 C1561 1.389 . S
C1563 C1564 1.524 . S
C1564 C1563 1.524 . S
C1564 C1565 1.397 . S
C1564 C1569 1.363 . S
C1565 H1536 0.950 . S
C1565 C1564 1.397 . S
C1565 C1566 1.334 . S
C1566 H1537 0.950 . S
C1566 C1565 1.334 . S
C1566 C1567 1.287 . S
C1567 C1566 1.287 . S
C1567 C1568 1.524 . S
C1567 H1570 0.999 . S
C1568 H1538 0.950 . S
C1568 C1567 1.524 . S
C1568 C1569 1.415 . S
C1569 H1539 0.950 . S
C1569 C1564 1.363 . S
C1569 C1568 1.415 . S
H1570 C1567 0.999 . S
H1571 C1552 0.913 . S
H1572 C1590 0.951 . S
H1573 C1592 0.951 . S
H1574 C1594 0.950 . S
H1575 C1595 0.950 . S
H1576 C1597 0.950 . S
H1577 C1600 0.950 . S
H1578 C1601 0.950 . S
H1579 C1603 0.950 . S
H1580 C1604 0.950 . S
H1581 C1605 0.951 . S
H1582 C1607 0.951 . S
H1583 C1609 0.950 . S
H1584 C1610 0.950 . S
H1585 C1612 0.950 . S
H1586 C1615 0.950 . S
H1587 C1616 0.950 . S
H1588 C1618 0.950 . S
H1589 C1619 0.950 . S
C1590 H1572 0.951 . S
C1590 C1591 1.366 . S
C1590 C1592 1.388 . S
C1591 C1590 1.366 . S
C1591 C1595 1.385 . S
C1592 H1573 0.951 . S
C1592 C1590 1.388 . S
C1592 C1593 1.366 . S
C1593 C1592 1.366 . S
C1593 C1594 1.414 . S
C1593 C1596 1.499 . S
C1594 H1574 0.950 . S
C1594 C1593 1.414 . S
C1594 C1595 1.374 . S
C1595 H1575 0.950 . S
C1595 C1591 1.385 . S
C1595 C1594 1.374 . S
C1596 C1593 1.499 . S
C1596 C1597 1.373 . S
C1596 C1598 1.389 . S
C1597 H1576 0.950 . S
C1597 C1596 1.373 . S
C1597 C1613 1.377 . S
C1598 C1596 1.389 . S
C1598 C1599 1.524 . S
C1598 C1612 1.377 . S
C1599 C1598 1.524 . S
C1599 C1600 1.397 . S
C1599 C1604 1.363 . S
C1600 H1577 0.950 . S
C1600 C1599 1.397 . S
C1600 C1601 1.334 . S
C1601 H1578 0.950 . S
C1601 C1600 1.334 . S
C1601 C1602 1.287 . S
C1602 C1601 1.287 . S
C1602 C1603 1.524 . S
C1602 H1621 0.913 . S
C1603 H1579 0.950 . S
C1603 C1602 1.524 . S
C1603 C1604 1.415 . S
C1604 H1580 0.950 . S
C1604 C1599 1.363 . S
C1604 C1603 1.415 . S
C1605 H1581 0.951 . S
C1605 C1606 1.366 . S
C1605 C1607 1.388 . S
C1606 C1605 1.366 . S
C1606 C1610 1.385 . S
C1607 H1582 0.951 . S
C1607 C1605 1.388 . S
C1607 C1608 1.366 . S
C1608 C1607 1.366 . S
C1608 C1609 1.414 . S
C1608 C1611 1.499 . S
C1609 H1583 0.950 . S
C1609 C1608 1.414 . S
C1609 C1610 1.374 . S
C1610 H1584 0.950 . S
C1610 C1606 1.385 . S
C1610 C1609 1.374 . S
C1611 C1608 1.499 . S
C1611 C1612 1.373 . S
C1611 C1613 1.389 . S
C1612 H1585 0.950 . S
C1612 C1598 1.377 . S
C1612 C1611 1.373 . S
C1613 C1597 1.377 . S
C1613 C1611 1.389 . S
C1613 C1614 1.524 . S
C1614 C1613 1.524 . S
C1614 C1615 1.397 . S
C1614 C1619 1.363 . S
C1615 H1586 0.950 . S
C1615 C1614 1.397 . S
C1615 C1616 1.334 . S
C1616 H1587 0.950 . S
C1616 C1615 1.334 . S
C1616 C1617 1.287 . S
C1617 C1616 1.287 . S
C1617 C1618 1.524 . S
C1617 H1620 0.999 . S
C1618 H1588 0.950 . S
C1618 C1617 1.524 . S
C1618 C1619 1.415 . S
C1619 H1589 0.950 . S
C1619 C1614 1.363 . S
C1619 C1618 1.415 . S
H1620 C1617 0.999 . S
H1621 C1602 0.913 . S
H1622 C1640 0.951 . S
H1623 C1642 0.951 . S
H1624 C1644 0.950 . S
H1625 C1645 0.950 . S
H1626 C1647 0.950 . S
H1627 C1650 0.950 . S
H1628 C1651 0.950 . S
H1629 C1653 0.950 . S
H1630 C1654 0.950 . S
H1631 C1655 0.951 . S
H1632 C1657 0.951 . S
H1633 C1659 0.950 . S
H1634 C1660 0.950 . S
H1635 C1662 0.950 . S
H1636 C1665 0.950 . S
H1637 C1666 0.950 . S
H1638 C1668 0.950 . S
H1639 C1669 0.950 . S
C1640 H1622 0.951 . S
C1640 C1641 1.366 . S
C1640 C1642 1.388 . S
C1641 C1640 1.366 . S
C1641 C1645 1.385 . S
C1642 H1623 0.951 . S
C1642 C1640 1.388 . S
C1642 C1643 1.366 . S
C1643 C1642 1.366 . S
C1643 C1644 1.414 . S
C1643 C1646 1.499 . S
C1644 H1624 0.950 . S
C1644 C1643 1.414 . S
C1644 C1645 1.374 . S
C1645 H1625 0.950 . S
C1645 C1641 1.385 . S
C1645 C1644 1.374 . S
C1646 C1643 1.499 . S
C1646 C1647 1.373 . S
C1646 C1648 1.389 . S
C1647 H1626 0.950 . S
C1647 C1646 1.373 . S
C1647 C1663 1.377 . S
C1648 C1646 1.389 . S
C1648 C1649 1.524 . S
C1648 C1662 1.377 . S
C1649 C1648 1.524 . S
C1649 C1650 1.397 . S
C1649 C1654 1.363 . S
C1650 H1627 0.950 . S
C1650 C1649 1.397 . S
C1650 C1651 1.334 . S
C1651 H1628 0.950 . S
C1651 C1650 1.334 . S
C1651 C1652 1.287 . S
C1652 C1651 1.287 . S
C1652 C1653 1.524 . S
C1652 H1671 0.913 . S
C1653 H1629 0.950 . S
C1653 C1652 1.524 . S
C1653 C1654 1.415 . S
C1654 H1630 0.950 . S
C1654 C1649 1.363 . S
C1654 C1653 1.415 . S
C1655 H1631 0.951 . S
C1655 C1656 1.366 . S
C1655 C1657 1.388 . S
C1656 C1655 1.366 . S
C1656 C1660 1.385 . S
C1657 H1632 0.951 . S
C1657 C1655 1.388 . S
C1657 C1658 1.366 . S
C1658 C1657 1.366 . S
C1658 C1659 1.414 . S
C1658 C1661 1.499 . S
C1659 H1633 0.950 . S
C1659 C1658 1.414 . S
C1659 C1660 1.374 . S
C1660 H1634 0.950 . S
C1660 C1656 1.385 . S
C1660 C1659 1.374 . S
C1661 C1658 1.499 . S
C1661 C1662 1.373 . S
C1661 C1663 1.389 . S
C1662 H1635 0.950 . S
C1662 C1648 1.377 . S
C1662 C1661 1.373 . S
C1663 C1647 1.377 . S
C1663 C1661 1.389 . S
C1663 C1664 1.524 . S
C1664 C1663 1.524 . S
C1664 C1665 1.397 . S
C1664 C1669 1.363 . S
C1665 H1636 0.950 . S
C1665 C1664 1.397 . S
C1665 C1666 1.334 . S
C1666 H1637 0.950 . S
C1666 C1665 1.334 . S
C1666 C1667 1.287 . S
C1667 C1666 1.287 . S
C1667 C1668 1.524 . S
C1667 H1670 0.999 . S
C1668 H1638 0.950 . S
C1668 C1667 1.524 . S
C1668 C1669 1.415 . S
C1669 H1639 0.950 . S
C1669 C1664 1.363 . S
C1669 C1668 1.415 . S
H1670 C1667 0.999 . S
H1671 C1652 0.913 . S
H1672 C1690 0.951 . S
H1673 C1692 0.951 . S
H1674 C1694 0.950 . S
H1675 C1695 0.950 . S
H1676 C1697 0.950 . S
H1677 C1700 0.950 . S
H1678 C1701 0.950 . S
H1679 C1703 0.950 . S
H1680 C1704 0.950 . S
H1681 C1705 0.951 . S
H1682 C1707 0.951 . S
H1683 C1709 0.950 . S
H1684 C1710 0.950 . S
H1685 C1712 0.950 . S
H1686 C1715 0.950 . S
H1687 C1716 0.950 . S
H1688 C1718 0.950 . S
H1689 C1719 0.950 . S
C1690 H1672 0.951 . S
C1690 C1691 1.366 . S
C1690 C1692 1.388 . S
C1691 C1690 1.366 . S
C1691 C1695 1.385 . S
C1692 H1673 0.951 . S
C1692 C1690 1.388 . S
C1692 C1693 1.366 . S
C1693 C1692 1.366 . S
C1693 C1694 1.414 . S
C1693 C1696 1.499 . S
C1694 H1674 0.950 . S
C1694 C1693 1.414 . S
C1694 C1695 1.374 . S
C1695 H1675 0.950 . S
C1695 C1691 1.385 . S
C1695 C1694 1.374 . S
C1696 C1693 1.499 . S
C1696 C1697 1.373 . S
C1696 C1698 1.389 . S
C1697 H1676 0.950 . S
C1697 C1696 1.373 . S
C1697 C1713 1.377 . S
C1698 C1696 1.389 . S
C1698 C1699 1.524 . S
C1698 C1712 1.377 . S
C1699 C1698 1.524 . S
C1699 C1700 1.397 . S
C1699 C1704 1.363 . S
C1700 H1677 0.950 . S
C1700 C1699 1.397 . S
C1700 C1701 1.334 . S
C1701 H1678 0.950 . S
C1701 C1700 1.334 . S
C1701 C1702 1.287 . S
C1702 C1701 1.287 . S
C1702 C1703 1.524 . S
C1702 H1721 0.913 . S
C1703 H1679 0.950 . S
C1703 C1702 1.524 . S
C1703 C1704 1.415 . S
C1704 H1680 0.950 . S
C1704 C1699 1.363 . S
C1704 C1703 1.415 . S
C1705 H1681 0.951 . S
C1705 C1706 1.366 . S
C1705 C1707 1.388 . S
C1706 C1705 1.366 . S
C1706 C1710 1.385 . S
C1707 H1682 0.951 . S
C1707 C1705 1.388 . S
C1707 C1708 1.366 . S
C1708 C1707 1.366 . S
C1708 C1709 1.414 . S
C1708 C1711 1.499 . S
C1709 H1683 0.950 . S
C1709 C1708 1.414 . S
C1709 C1710 1.374 . S
C1710 H1684 0.950 . S
C1710 C1706 1.385 . S
C1710 C1709 1.374 . S
C1711 C1708 1.499 . S
C1711 C1712 1.373 . S
C1711 C1713 1.389 . S
C1712 H1685 0.950 . S
C1712 C1698 1.377 . S
C1712 C1711 1.373 . S
C1713 C1697 1.377 . S
C1713 C1711 1.389 . S
C1713 C1714 1.524 . S
C1714 C1713 1.524 . S
C1714 C1715 1.397 . S
C1714 C1719 1.363 . S
C1715 H1686 0.950 . S
C1715 C1714 1.397 . S
C1715 C1716 1.334 . S
C1716 H1687 0.950 . S
C1716 C1715 1.334 . S
C1716 C1717 1.287 . S
C1717 C1716 1.287 . S
C1717 C1718 1.524 . S
C1717 H1720 0.999 . S
C1718 H1688 0.950 . S
C1718 C1717 1.524 . S
C1718 C1719 1.415 . S
C1719 H1689 0.950 . S
C1719 C1714 1.363 . S
C1719 C1718 1.415 . S
H1720 C1717 0.999 . S
H1721 C1702 0.913 . S
H1722 C1740 0.951 . S
H1723 C1742 0.951 . S
H1724 C1744 0.950 . S
H1725 C1745 0.950 . S
H1726 C1747 0.950 . S
H1727 C1750 0.950 . S
H1728 C1751 0.950 . S
H1729 C1753 0.950 . S
H1730 C1754 0.950 . S
H1731 C1755 0.951 . S
H1732 C1757 0.951 . S
H1733 C1759 0.950 . S
H1734 C1760 0.950 . S
H1735 C1762 0.950 . S
H1736 C1765 0.950 . S
H1737 C1766 0.950 . S
H1738 C1768 0.950 . S
H1739 C1769 0.950 . S
C1740 H1722 0.951 . S
C1740 C1741 1.366 . S
C1740 C1742 1.388 . S
C1741 C1740 1.366 . S
C1741 C1745 1.385 . S
C1742 H1723 0.951 . S
C1742 C1740 1.388 . S
C1742 C1743 1.366 . S
C1743 C1742 1.366 . S
C1743 C1744 1.414 . S
C1743 C1746 1.499 . S
C1744 H1724 0.950 . S
C1744 C1743 1.414 . S
C1744 C1745 1.374 . S
C1745 H1725 0.950 . S
C1745 C1741 1.385 . S
C1745 C1744 1.374 . S
C1746 C1743 1.499 . S
C1746 C1747 1.373 . S
C1746 C1748 1.389 . S
C1747 H1726 0.950 . S
C1747 C1746 1.373 . S
C1747 C1763 1.377 . S
C1748 C1746 1.389 . S
C1748 C1749 1.524 . S
C1748 C1762 1.377 . S
C1749 C1748 1.524 . S
C1749 C1750 1.397 . S
C1749 C1754 1.363 . S
C1750 H1727 0.950 . S
C1750 C1749 1.397 . S
C1750 C1751 1.334 . S
C1751 H1728 0.950 . S
C1751 C1750 1.334 . S
C1751 C1752 1.287 . S
C1752 C1751 1.287 . S
C1752 C1753 1.524 . S
C1752 H1771 0.913 . S
C1753 H1729 0.950 . S
C1753 C1752 1.524 . S
C1753 C1754 1.415 . S
C1754 H1730 0.950 . S
C1754 C1749 1.363 . S
C1754 C1753 1.415 . S
C1755 H1731 0.951 . S
C1755 C1756 1.366 . S
C1755 C1757 1.388 . S
C1756 C1755 1.366 . S
C1756 C1760 1.385 . S
C1757 H1732 0.951 . S
C1757 C1755 1.388 . S
C1757 C1758 1.366 . S
C1758 C1757 1.366 . S
C1758 C1759 1.414 . S
C1758 C1761 1.499 . S
C1759 H1733 0.950 . S
C1759 C1758 1.414 . S
C1759 C1760 1.374 . S
C1760 H1734 0.950 . S
C1760 C1756 1.385 . S
C1760 C1759 1.374 . S
C1761 C1758 1.499 . S
C1761 C1762 1.373 . S
C1761 C1763 1.389 . S
C1762 H1735 0.950 . S
C1762 C1748 1.377 . S
C1762 C1761 1.373 . S
C1763 C1747 1.377 . S
C1763 C1761 1.389 . S
C1763 C1764 1.524 . S
C1764 C1763 1.524 . S
C1764 C1765 1.397 . S
C1764 C1769 1.363 . S
C1765 H1736 0.950 . S
C1765 C1764 1.397 . S
C1765 C1766 1.334 . S
C1766 H1737 0.950 . S
C1766 C1765 1.334 . S
C1766 C1767 1.287 . S
C1767 C1766 1.287 . S
C1767 C1768 1.524 . S
C1767 H1770 0.999 . S
C1768 H1738 0.950 . S
C1768 C1767 1.524 . S
C1768 C1769 1.415 . S
C1769 H1739 0.950 . S
C1769 C1764 1.363 . S
C1769 C1768 1.415 . S
H1770 C1767 0.999 . S
H1771 C1752 0.913 . S
H1772 C1790 0.951 . S
H1773 C1792 0.951 . S
H1774 C1794 0.950 . S
H1775 C1795 0.950 . S
H1776 C1797 0.950 . S
H1777 C1800 0.950 . S
H1778 C1801 0.950 . S
H1779 C1803 0.950 . S
H1780 C1804 0.950 . S
H1781 C1805 0.951 . S
H1782 C1807 0.951 . S
H1783 C1809 0.950 . S
H1784 C1810 0.950 . S
H1785 C1812 0.950 . S
H1786 C1815 0.950 . S
H1787 C1816 0.950 . S
H1788 C1818 0.950 . S
H1789 C1819 0.950 . S
C1790 H1772 0.951 . S
C1790 C1791 1.366 . S
C1790 C1792 1.388 . S
C1791 C1790 1.366 . S
C1791 C1795 1.385 . S
C1792 H1773 0.951 . S
C1792 C1790 1.388 . S
C1792 C1793 1.366 . S
C1793 C1792 1.366 . S
C1793 C1794 1.414 . S
C1793 C1796 1.499 . S
C1794 H1774 0.950 . S
C1794 C1793 1.414 . S
C1794 C1795 1.374 . S
C1795 H1775 0.950 . S
C1795 C1791 1.385 . S
C1795 C1794 1.374 . S
C1796 C1793 1.499 . S
C1796 C1797 1.373 . S
C1796 C1798 1.389 . S
C1797 H1776 0.950 . S
C1797 C1796 1.373 . S
C1797 C1813 1.377 . S
C1798 C1796 1.389 . S
C1798 C1799 1.524 . S
C1798 C1812 1.377 . S
C1799 C1798 1.524 . S
C1799 C1800 1.397 . S
C1799 C1804 1.363 . S
C1800 H1777 0.950 . S
C1800 C1799 1.397 . S
C1800 C1801 1.334 . S
C1801 H1778 0.950 . S
C1801 C1800 1.334 . S
C1801 C1802 1.287 . S
C1802 C1801 1.287 . S
C1802 C1803 1.524 . S
C1802 H1821 0.913 . S
C1803 H1779 0.950 . S
C1803 C1802 1.524 . S
C1803 C1804 1.415 . S
C1804 H1780 0.950 . S
C1804 C1799 1.363 . S
C1804 C1803 1.415 . S
C1805 H1781 0.951 . S
C1805 C1806 1.366 . S
C1805 C1807 1.388 . S
C1806 C1805 1.366 . S
C1806 C1810 1.385 . S
C1807 H1782 0.951 . S
C1807 C1805 1.388 . S
C1807 C1808 1.366 . S
C1808 C1807 1.366 . S
C1808 C1809 1.414 . S
C1808 C1811 1.499 . S
C1809 H1783 0.950 . S
C1809 C1808 1.414 . S
C1809 C1810 1.374 . S
C1810 H1784 0.950 . S
C1810 C1806 1.385 . S
C1810 C1809 1.374 . S
C1811 C1808 1.499 . S
C1811 C1812 1.373 . S
C1811 C1813 1.389 . S
C1812 H1785 0.950 . S
C1812 C1798 1.377 . S
C1812 C1811 1.373 . S
C1813 C1797 1.377 . S
C1813 C1811 1.389 . S
C1813 C1814 1.524 . S
C1814 C1813 1.524 . S
C1814 C1815 1.397 . S
C1814 C1819 1.363 . S
C1815 H1786 0.950 . S
C1815 C1814 1.397 . S
C1815 C1816 1.334 . S
C1816 H1787 0.950 . S
C1816 C1815 1.334 . S
C1816 C1817 1.287 . S
C1817 C1816 1.287 . S
C1817 C1818 1.524 . S
C1817 H1820 0.999 . S
C1818 H1788 0.950 . S
C1818 C1817 1.524 . S
C1818 C1819 1.415 . S
C1819 H1789 0.950 . S
C1819 C1814 1.363 . S
C1819 C1818 1.415 . S
H1820 C1817 0.999 . S
H1821 C1802 0.913 . S
H1822 C1840 0.951 . S
H1823 C1842 0.951 . S
H1824 C1844 0.950 . S
H1825 C1845 0.950 . S
H1826 C1847 0.950 . S
H1827 C1850 0.950 . S
H1828 C1851 0.950 . S
H1829 C1853 0.950 . S
H1830 C1854 0.950 . S
H1831 C1855 0.951 . S
H1832 C1857 0.951 . S
H1833 C1859 0.950 . S
H1834 C1860 0.950 . S
H1835 C1862 0.950 . S
H1836 C1865 0.950 . S
H1837 C1866 0.950 . S
H1838 C1868 0.950 . S
H1839 C1869 0.950 . S
C1840 H1822 0.951 . S
C1840 C1841 1.366 . S
C1840 C1842 1.388 . S
C1841 C1840 1.366 . S
C1841 C1845 1.385 . S
C1842 H1823 0.951 . S
C1842 C1840 1.388 . S
C1842 C1843 1.366 . S
C1843 C1842 1.366 . S
C1843 C1844 1.414 . S
C1843 C1846 1.499 . S
C1844 H1824 0.950 . S
C1844 C1843 1.414 . S
C1844 C1845 1.374 . S
C1845 H1825 0.950 . S
C1845 C1841 1.385 . S
C1845 C1844 1.374 . S
C1846 C1843 1.499 . S
C1846 C1847 1.373 . S
C1846 C1848 1.389 . S
C1847 H1826 0.950 . S
C1847 C1846 1.373 . S
C1847 C1863 1.377 . S
C1848 C1846 1.389 . S
C1848 C1849 1.524 . S
C1848 C1862 1.377 . S
C1849 C1848 1.524 . S
C1849 C1850 1.397 . S
C1849 C1854 1.363 . S
C1850 H1827 0.950 . S
C1850 C1849 1.397 . S
C1850 C1851 1.334 . S
C1851 H1828 0.950 . S
C1851 C1850 1.334 . S
C1851 C1852 1.287 . S
C1852 C1851 1.287 . S
C1852 C1853 1.524 . S
C1852 H1871 0.913 . S
C1853 H1829 0.950 . S
C1853 C1852 1.524 . S
C1853 C1854 1.415 . S
C1854 H1830 0.950 . S
C1854 C1849 1.363 . S
C1854 C1853 1.415 . S
C1855 H1831 0.951 . S
C1855 C1856 1.366 . S
C1855 C1857 1.388 . S
C1856 C1855 1.366 . S
C1856 C1860 1.385 . S
C1857 H1832 0.951 . S
C1857 C1855 1.388 . S
C1857 C1858 1.366 . S
C1858 C1857 1.366 . S
C1858 C1859 1.414 . S
C1858 C1861 1.499 . S
C1859 H1833 0.950 . S
C1859 C1858 1.414 . S
C1859 C1860 1.374 . S
C1860 H1834 0.950 . S
C1860 C1856 1.385 . S
C1860 C1859 1.374 . S
C1861 C1858 1.499 . S
C1861 C1862 1.373 . S
C1861 C1863 1.389 . S
C1862 H1835 0.950 . S
C1862 C1848 1.377 . S
C1862 C1861 1.373 . S
C1863 C1847 1.377 . S
C1863 C1861 1.389 . S
C1863 C1864 1.524 . S
C1864 C1863 1.524 . S
C1864 C1865 1.397 . S
C1864 C1869 1.363 . S
C1865 H1836 0.950 . S
C1865 C1864 1.397 . S
C1865 C1866 1.334 . S
C1866 H1837 0.950 . S
C1866 C1865 1.334 . S
C1866 C1867 1.287 . S
C1867 C1866 1.287 . S
C1867 C1868 1.524 . S
C1867 H1870 0.999 . S
C1868 H1838 0.950 . S
C1868 C1867 1.524 . S
C1868 C1869 1.415 . S
C1869 H1839 0.950 . S
C1869 C1864 1.363 . S
C1869 C1868 1.415 . S
H1870 C1867 0.999 . S
H1871 C1852 0.913 . S
H1872 C1890 0.951 . S
H1873 C1892 0.951 . S
H1874 C1894 0.950 . S
H1875 C1895 0.950 . S
H1876 C1897 0.950 . S
H1877 C1900 0.950 . S
H1878 C1901 0.950 . S
H1879 C1903 0.950 . S
H1880 C1904 0.950 . S
H1881 C1905 0.951 . S
H1882 C1907 0.951 . S
H1883 C1909 0.950 . S
H1884 C1910 0.950 . S
H1885 C1912 0.950 . S
H1886 C1915 0.950 . S
H1887 C1916 0.950 . S
H1888 C1918 0.950 . S
H1889 C1919 0.950 . S
C1890 H1872 0.951 . S
C1890 C1891 1.366 . S
C1890 C1892 1.388 . S
C1891 C1890 1.366 . S
C1891 C1895 1.385 . S
C1892 H1873 0.951 . S
C1892 C1890 1.388 . S
C1892 C1893 1.366 . S
C1893 C1892 1.366 . S
C1893 C1894 1.414 . S
C1893 C1896 1.499 . S
C1894 H1874 0.950 . S
C1894 C1893 1.414 . S
C1894 C1895 1.374 . S
C1895 H1875 0.950 . S
C1895 C1891 1.385 . S
C1895 C1894 1.374 . S
C1896 C1893 1.499 . S
C1896 C1897 1.373 . S
C1896 C1898 1.389 . S
C1897 H1876 0.950 . S
C1897 C1896 1.373 . S
C1897 C1913 1.377 . S
C1898 C1896 1.389 . S
C1898 C1899 1.524 . S
C1898 C1912 1.377 . S
C1899 C1898 1.524 . S
C1899 C1900 1.397 . S
C1899 C1904 1.363 . S
C1900 H1877 0.950 . S
C1900 C1899 1.397 . S
C1900 C1901 1.334 . S
C1901 H1878 0.950 . S
C1901 C1900 1.334 . S
C1901 C1902 1.287 . S
C1902 C1901 1.287 . S
C1902 C1903 1.524 . S
C1902 H1921 0.913 . S
C1903 H1879 0.950 . S
C1903 C1902 1.524 . S
C1903 C1904 1.415 . S
C1904 H1880 0.950 . S
C1904 C1899 1.363 . S
C1904 C1903 1.415 . S
C1905 H1881 0.951 . S
C1905 C1906 1.366 . S
C1905 C1907 1.388 . S
C1906 C1905 1.366 . S
C1906 C1910 1.385 . S
C1907 H1882 0.951 . S
C1907 C1905 1.388 . S
C1907 C1908 1.366 . S
C1908 C1907 1.366 . S
C1908 C1909 1.414 . S
C1908 C1911 1.499 . S
C1909 H1883 0.950 . S
C1909 C1908 1.414 . S
C1909 C1910 1.374 . S
C1910 H1884 0.950 . S
C1910 C1906 1.385 . S
C1910 C1909 1.374 . S
C1911 C1908 1.499 . S
C1911 C1912 1.373 . S
C1911 C1913 1.389 . S
C1912 H1885 0.950 . S
C1912 C1898 1.377 . S
C1912 C1911 1.373 . S
C1913 C1897 1.377 . S
C1913 C1911 1.389 . S
C1913 C1914 1.524 . S
C1914 C1913 1.524 . S
C1914 C1915 1.397 . S
C1914 C1919 1.363 . S
C1915 H1886 0.950 . S
C1915 C1914 1.397 . S
C1915 C1916 1.334 . S
C1916 H1887 0.950 . S
C1916 C1915 1.334 . S
C1916 C1917 1.287 . S
C1917 C1916 1.287 . S
C1917 C1918 1.524 . S
C1917 H1920 0.999 . S
C1918 H1888 0.950 . S
C1918 C1917 1.524 . S
C1918 C1919 1.415 . S
C1919 H1889 0.950 . S
C1919 C1914 1.363 . S
C1919 C1918 1.415 . S
H1920 C1917 0.999 . S
H1921 C1902 0.913 . S
H1922 C1940 0.951 . S
H1923 C1942 0.951 . S
H1924 C1944 0.950 . S
H1925 C1945 0.950 . S
H1926 C1947 0.950 . S
H1927 C1950 0.950 . S
H1928 C1951 0.950 . S
H1929 C1953 0.950 . S
H1930 C1954 0.950 . S
H1931 C1955 0.951 . S
H1932 C1957 0.951 . S
H1933 C1959 0.950 . S
H1934 C1960 0.950 . S
H1935 C1962 0.950 . S
H1936 C1965 0.950 . S
H1937 C1966 0.950 . S
H1938 C1968 0.950 . S
H1939 C1969 0.950 . S
C1940 H1922 0.951 . S
C1940 C1941 1.366 . S
C1940 C1942 1.388 . S
C1941 C1940 1.366 . S
C1941 C1945 1.385 . S
C1942 H1923 0.951 . S
C1942 C1940 1.388 . S
C1942 C1943 1.366 . S
C1943 C1942 1.366 . S
C1943 C1944 1.414 . S
C1943 C1946 1.499 . S
C1944 H1924 0.950 . S
C1944 C1943 1.414 . S
C1944 C1945 1.374 . S
C1945 H1925 0.950 . S
C1945 C1941 1.385 . S
C1945 C1944 1.374 . S
C1946 C1943 1.499 . S
C1946 C1947 1.373 . S
C1946 C1948 1.389 . S
C1947 H1926 0.950 . S
C1947 C1946 1.373 . S
C1947 C1963 1.377 . S
C1948 C1946 1.389 . S
C1948 C1949 1.524 . S
C1948 C1962 1.377 . S
C1949 C1948 1.524 . S
C1949 C1950 1.397 . S
C1949 C1954 1.363 . S
C1950 H1927 0.950 . S
C1950 C1949 1.397 . S
C1950 C1951 1.334 . S
C1951 H1928 0.950 . S
C1951 C1950 1.334 . S
C1951 C1952 1.287 . S
C1952 C1951 1.287 . S
C1952 C1953 1.524 . S
C1952 H1971 0.913 . S
C1953 H1929 0.950 . S
C1953 C1952 1.524 . S
C1953 C1954 1.415 . S
C1954 H1930 0.950 . S
C1954 C1949 1.363 . S
C1954 C1953 1.415 . S
C1955 H1931 0.951 . S
C1955 C1956 1.366 . S
C1955 C1957 1.388 . S
C1956 C1955 1.366 . S
C1956 C1960 1.385 . S
C1957 H1932 0.951 . S
C1957 C1955 1.388 . S
C1957 C1958 1.366 . S
C1958 C1957 1.366 . S
C1958 C1959 1.414 . S
C1958 C1961 1.499 . S
C1959 H1933 0.950 . S
C1959 C1958 1.414 . S
C1959 C1960 1.374 . S
C1960 H1934 0.950 . S
C1960 C1956 1.385 . S
C1960 C1959 1.374 . S
C1961 C1958 1.499 . S
C1961 C1962 1.373 . S
C1961 C1963 1.389 . S
C1962 H1935 0.950 . S
C1962 C1948 1.377 . S
C1962 C1961 1.373 . S
C1963 C1947 1.377 . S
C1963 C1961 1.389 . S
C1963 C1964 1.524 . S
C1964 C1963 1.524 . S
C1964 C1965 1.397 . S
C1964 C1969 1.363 . S
C1965 H1936 0.950 . S
C1965 C1964 1.397 . S
C1965 C1966 1.334 . S
C1966 H1937 0.950 . S
C1966 C1965 1.334 . S
C1966 C1967 1.287 . S
C1967 C1966 1.287 . S
C1967 C1968 1.524 . S
C1967 H1970 0.999 . S
C1968 H1938 0.950 . S
C1968 C1967 1.524 . S
C1968 C1969 1.415 . S
C1969 H1939 0.950 . S
C1969 C1964 1.363 . S
C1969 C1968 1.415 . S
H1970 C1967 0.999 . S
H1971 C1952 0.913 . S
H1972 C1990 0.951 . S
H1973 C1992 0.951 . S
H1974 C1994 0.950 . S
H1975 C1995 0.950 . S
H1976 C1997 0.950 . S
H1977 C2000 0.950 . S
H1978 C2001 0.950 . S
H1979 C2003 0.950 . S
H1980 C2004 0.950 . S
H1981 C2005 0.951 . S
H1982 C2007 0.951 . S
H1983 C2009 0.950 . S
H1984 C2010 0.950 . S
H1985 C2012 0.950 . S
H1986 C2015 0.950 . S
H1987 C2016 0.950 . S
H1988 C2018 0.950 . S
H1989 C2019 0.950 . S
C1990 H1972 0.951 . S
C1990 C1991 1.366 . S
C1990 C1992 1.388 . S
C1991 C1990 1.366 . S
C1991 C1995 1.385 . S
C1992 H1973 0.951 . S
C1992 C1990 1.388 . S
C1992 C1993 1.366 . S
C1993 C1992 1.366 . S
C1993 C1994 1.414 . S
C1993 C1996 1.499 . S
C1994 H1974 0.950 . S
C1994 C1993 1.414 . S
C1994 C1995 1.374 . S
C1995 H1975 0.950 . S
C1995 C1991 1.385 . S
C1995 C1994 1.374 . S
C1996 C1993 1.499 . S
C1996 C1997 1.373 . S
C1996 C1998 1.389 . S
C1997 H1976 0.950 . S
C1997 C1996 1.373 . S
C1997 C2013 1.377 . S
C1998 C1996 1.389 . S
C1998 C1999 1.524 . S
C1998 C2012 1.377 . S
C1999 C1998 1.524 . S
C1999 C2000 1.397 . S
C1999 C2004 1.363 . S
C2000 H1977 0.950 . S
C2000 C1999 1.397 . S
C2000 C2001 1.334 . S
C2001 H1978 0.950 . S
C2001 C2000 1.334 . S
C2001 C2002 1.287 . S
C2002 C2001 1.287 . S
C2002 C2003 1.524 . S
C2002 H2021 0.913 . S
C2003 H1979 0.950 . S
C2003 C2002 1.524 . S
C2003 C2004 1.415 . S
C2004 H1980 0.950 . S
C2004 C1999 1.363 . S
C2004 C2003 1.415 . S
C2005 H1981 0.951 . S
C2005 C2006 1.366 . S
C2005 C2007 1.388 . S
C2006 C2005 1.366 . S
C2006 C2010 1.385 . S
C2007 H1982 0.951 . S
C2007 C2005 1.388 . S
C2007 C2008 1.366 . S
C2008 C2007 1.366 . S
C2008 C2009 1.414 . S
C2008 C2011 1.499 . S
C2009 H1983 0.950 . S
C2009 C2008 1.414 . S
C2009 C2010 1.374 . S
C2010 H1984 0.950 . S
C2010 C2006 1.385 . S
C2010 C2009 1.374 . S
C2011 C2008 1.499 . S
C2011 C2012 1.373 . S
C2011 C2013 1.389 . S
C2012 H1985 0.950 . S
C2012 C1998 1.377 . S
C2012 C2011 1.373 . S
C2013 C1997 1.377 . S
C2013 C2011 1.389 . S
C2013 C2014 1.524 . S
C2014 C2013 1.524 . S
C2014 C2015 1.397 . S
C2014 C2019 1.363 . S
C2015 H1986 0.950 . S
C2015 C2014 1.397 . S
C2015 C2016 1.334 . S
C2016 H1987 0.950 . S
C2016 C2015 1.334 . S
C2016 C2017 1.287 . S
C2017 C2016 1.287 . S
C2017 C2018 1.524 . S
C2017 H2020 0.999 . S
C2018 H1988 0.950 . S
C2018 C2017 1.524 . S
C2018 C2019 1.415 . S
C2019 H1989 0.950 . S
C2019 C2014 1.363 . S
C2019 C2018 1.415 . S
H2020 C2017 0.999 . S
H2021 C2002 0.913 . S
H2022 C2040 0.951 . S
H2023 C2042 0.951 . S
H2024 C2044 0.950 . S
H2025 C2045 0.950 . S
H2026 C2047 0.950 . S
H2027 C2050 0.950 . S
H2028 C2051 0.950 . S
H2029 C2053 0.950 . S
H2030 C2054 0.950 . S
H2031 C2055 0.951 . S
H2032 C2057 0.951 . S
H2033 C2059 0.950 . S
H2034 C2060 0.950 . S
H2035 C2062 0.950 . S
H2036 C2065 0.950 . S
H2037 C2066 0.950 . S
H2038 C2068 0.950 . S
H2039 C2069 0.950 . S
C2040 H2022 0.951 . S
C2040 C2041 1.366 . S
C2040 C2042 1.388 . S
C2041 C2040 1.366 . S
C2041 C2045 1.385 . S
C2042 H2023 0.951 . S
C2042 C2040 1.388 . S
C2042 C2043 1.366 . S
C2043 C2042 1.366 . S
C2043 C2044 1.414 . S
C2043 C2046 1.499 . S
C2044 H2024 0.950 . S
C2044 C2043 1.414 . S
C2044 C2045 1.374 . S
C2045 H2025 0.950 . S
C2045 C2041 1.385 . S
C2045 C2044 1.374 . S
C2046 C2043 1.499 . S
C2046 C2047 1.373 . S
C2046 C2048 1.389 . S
C2047 H2026 0.950 . S
C2047 C2046 1.373 . S
C2047 C2063 1.377 . S
C2048 C2046 1.389 . S
C2048 C2049 1.524 . S
C2048 C2062 1.377 . S
C2049 C2048 1.524 . S
C2049 C2050 1.397 . S
C2049 C2054 1.363 . S
C2050 H2027 0.950 . S
C2050 C2049 1.397 . S
C2050 C2051 1.334 . S
C2051 H2028 0.950 . S
C2051 C2050 1.334 . S
C2051 C2052 1.287 . S
C2052 C2051 1.287 . S
C2052 C2053 1.524 . S
C2052 H2071 0.913 . S
C2053 H2029 0.950 . S
C2053 C2052 1.524 . S
C2053 C2054 1.415 . S
C2054 H2030 0.950 . S
C2054 C2049 1.363 . S
C2054 C2053 1.415 . S
C2055 H2031 0.951 . S
C2055 C2056 1.366 . S
C2055 C2057 1.388 . S
C2056 C2055 1.366 . S
C2056 C2060 1.385 . S
C2057 H2032 0.951 . S
C2057 C2055 1.388 . S
C2057 C2058 1.366 . S
C2058 C2057 1.366 . S
C2058 C2059 1.414 . S
C2058 C2061 1.499 . S
C2059 H2033 0.950 . S
C2059 C2058 1.414 . S
C2059 C2060 1.374 . S
C2060 H2034 0.950 . S
C2060 C2056 1.385 . S
C2060 C2059 1.374 . S
C2061 C2058 1.499 . S
C2061 C2062 1.373 . S
C2061 C2063 1.389 . S
C2062 H2035 0.950 . S
C2062 C2048 1.377 . S
C2062 C2061 1.373 . S
C2063 C2047 1.377 . S
C2063 C2061 1.389 . S
C2063 C2064 1.524 . S
C2064 C2063 1.524 . S
C2064 C2065 1.397 . S
C2064 C2069 1.363 . S
C2065 H2036 0.950 . S
C2065 C2064 1.397 . S
C2065 C2066 1.334 . S
C2066 H2037 0.950 . S
C2066 C2065 1.334 . S
C2066 C2067 1.287 . S
C2067 C2066 1.287 . S
C2067 C2068 1.524 . S
C2067 H2070 0.999 . S
C2068 H2038 0.950 . S
C2068 C2067 1.524 . S
C2068 C2069 1.415 . S
C2069 H2039 0.950 . S
C2069 C2064 1.363 . S
C2069 C2068 1.415 . S
H2070 C2067 0.999 . S
H2071 C2052 0.913 . S
H2072 C2090 0.951 . S
H2073 C2092 0.951 . S
H2074 C2094 0.950 . S
H2075 C2095 0.950 . S
H2076 C2097 0.950 . S
H2077 C2100 0.950 . S
H2078 C2101 0.950 . S
H2079 C2103 0.950 . S
H2080 C2104 0.950 . S
H2081 C2105 0.951 . S
H2082 C2107 0.951 . S
H2083 C2109 0.950 . S
H2084 C2110 0.950 . S
H2085 C2112 0.950 . S
H2086 C2115 0.950 . S
H2087 C2116 0.950 . S
H2088 C2118 0.950 . S
H2089 C2119 0.950 . S
C2090 H2072 0.951 . S
C2090 C2091 1.366 . S
C2090 C2092 1.388 . S
C2091 C2090 1.366 . S
C2091 C2095 1.385 . S
C2092 H2073 0.951 . S
C2092 C2090 1.388 . S
C2092 C2093 1.366 . S
C2093 C2092 1.366 . S
C2093 C2094 1.414 . S
C2093 C2096 1.499 . S
C2094 H2074 0.950 . S
C2094 C2093 1.414 . S
C2094 C2095 1.374 . S
C2095 H2075 0.950 . S
C2095 C2091 1.385 . S
C2095 C2094 1.374 . S
C2096 C2093 1.499 . S
C2096 C2097 1.373 . S
C2096 C2098 1.389 . S
C2097 H2076 0.950 . S
C2097 C2096 1.373 . S
C2097 C2113 1.377 . S
C2098 C2096 1.389 . S
C2098 C2099 1.524 . S
C2098 C2112 1.377 . S
C2099 C2098 1.524 . S
C2099 C2100 1.397 . S
C2099 C2104 1.363 . S
C2100 H2077 0.950 . S
C2100 C2099 1.397 . S
C2100 C2101 1.334 . S
C2101 H2078 0.950 . S
C2101 C2100 1.334 . S
C2101 C2102 1.287 . S
C2102 C2101 1.287 . S
C2102 C2103 1.524 . S
C2102 H2121 0.913 . S
C2103 H2079 0.950 . S
C2103 C2102 1.524 . S
C2103 C2104 1.415 . S
C2104 H2080 0.950 . S
C2104 C2099 1.363 . S
C2104 C2103 1.415 . S
C2105 H2081 0.951 . S
C2105 C2106 1.366 . S
C2105 C2107 1.388 . S
C2106 C2105 1.366 . S
C2106 C2110 1.385 . S
C2107 H2082 0.951 . S
C2107 C2105 1.388 . S
C2107 C2108 1.366 . S
C2108 C2107 1.366 . S
C2108 C2109 1.414 . S
C2108 C2111 1.499 . S
C2109 H2083 0.950 . S
C2109 C2108 1.414 . S
C2109 C2110 1.374 . S
C2110 H2084 0.950 . S
C2110 C2106 1.385 . S
C2110 C2109 1.374 . S
C2111 C2108 1.499 . S
C2111 C2112 1.373 . S
C2111 C2113 1.389 . S
C2112 H2085 0.950 . S
C2112 C2098 1.377 . S
C2112 C2111 1.373 . S
C2113 C2097 1.377 . S
C2113 C2111 1.389 . S
C2113 C2114 1.524 . S
C2114 C2113 1.524 . S
C2114 C2115 1.397 . S
C2114 C2119 1.363 . S
C2115 H2086 0.950 . S
C2115 C2114 1.397 . S
C2115 C2116 1.334 . S
C2116 H2087 0.950 . S
C2116 C2115 1.334 . S
C2116 C2117 1.287 . S
C2117 C2116 1.287 . S
C2117 C2118 1.524 . S
C2117 H2120 0.999 . S
C2118 H2088 0.950 . S
C2118 C2117 1.524 . S
C2118 C2119 1.415 . S
C2119 H2089 0.950 . S
C2119 C2114 1.363 . S
C2119 C2118 1.415 . S
H2120 C2117 0.999 . S
H2121 C2102 0.913 . S
H2122 C2140 0.951 . S
H2123 C2142 0.951 . S
H2124 C2144 0.950 . S
H2125 C2145 0.950 . S
H2126 C2147 0.950 . S
H2127 C2150 0.950 . S
H2128 C2151 0.950 . S
H2129 C2153 0.950 . S
H2130 C2154 0.950 . S
H2131 C2155 0.951 . S
H2132 C2157 0.951 . S
H2133 C2159 0.950 . S
H2134 C2160 0.950 . S
H2135 C2162 0.950 . S
H2136 C2165 0.950 . S
H2137 C2166 0.950 . S
H2138 C2168 0.950 . S
H2139 C2169 0.950 . S
C2140 H2122 0.951 . S
C2140 C2141 1.366 . S
C2140 C2142 1.388 . S
C2141 C2140 1.366 . S
C2141 C2145 1.385 . S
C2142 H2123 0.951 . S
C2142 C2140 1.388 . S
C2142 C2143 1.366 . S
C2143 C2142 1.366 . S
C2143 C2144 1.414 . S
C2143 C2146 1.499 . S
C2144 H2124 0.950 . S
C2144 C2143 1.414 . S
C2144 C2145 1.374 . S
C2145 H2125 0.950 . S
C2145 C2141 1.385 . S
C2145 C2144 1.374 . S
C2146 C2143 1.499 . S
C2146 C2147 1.373 . S
C2146 C2148 1.389 . S
C2147 H2126 0.950 . S
C2147 C2146 1.373 . S
C2147 C2163 1.377 . S
C2148 C2146 1.389 . S
C2148 C2149 1.524 . S
C2148 C2162 1.377 . S
C2149 C2148 1.524 . S
C2149 C2150 1.397 . S
C2149 C2154 1.363 . S
C2150 H2127 0.950 . S
C2150 C2149 1.397 . S
C2150 C2151 1.334 . S
C2151 H2128 0.950 . S
C2151 C2150 1.334 . S
C2151 C2152 1.287 . S
C2152 C2151 1.287 . S
C2152 C2153 1.524 . S
C2152 H2171 0.913 . S
C2153 H2129 0.950 . S
C2153 C2152 1.524 . S
C2153 C2154 1.415 . S
C2154 H2130 0.950 . S
C2154 C2149 1.363 . S
C2154 C2153 1.415 . S
C2155 H2131 0.951 . S
C2155 C2156 1.366 . S
C2155 C2157 1.388 . S
C2156 C2155 1.366 . S
C2156 C2160 1.385 . S
C2157 H2132 0.951 . S
C2157 C2155 1.388 . S
C2157 C2158 1.366 . S
C2158 C2157 1.366 . S
C2158 C2159 1.414 . S
C2158 C2161 1.499 . S
C2159 H2133 0.950 . S
C2159 C2158 1.414 . S
C2159 C2160 1.374 . S
C2160 H2134 0.950 . S
C2160 C2156 1.385 . S
C2160 C2159 1.374 . S
C2161 C2158 1.499 . S
C2161 C2162 1.373 . S
C2161 C2163 1.389 . S
C2162 H2135 0.950 . S
C2162 C2148 1.377 . S
C2162 C2161 1.373 . S
C2163 C2147 1.377 . S
C2163 C2161 1.389 . S
C2163 C2164 1.524 . S
C2164 C2163 1.524 . S
C2164 C2165 1.397 . S
C2164 C2169 1.363 . S
C2165 H2136 0.950 . S
C2165 C2164 1.397 . S
C2165 C2166 1.334 . S
C2166 H2137 0.950 . S
C2166 C2165 1.334 . S
C2166 C2167 1.287 . S
C2167 C2166 1.287 . S
C2167 C2168 1.524 . S
C2167 H2170 0.999 . S
C2168 H2138 0.950 . S
C2168 C2167 1.524 . S
C2168 C2169 1.415 . S
C2169 H2139 0.950 . S
C2169 C2164 1.363 . S
C2169 C2168 1.415 . S
H2170 C2167 0.999 . S
H2171 C2152 0.913 . S
H2172 C2190 0.951 . S
H2173 C2192 0.951 . S
H2174 C2194 0.950 . S
H2175 C2195 0.950 . S
H2176 C2197 0.950 . S
H2177 C2200 0.950 . S
H2178 C2201 0.950 . S
H2179 C2203 0.950 . S
H2180 C2204 0.950 . S
H2181 C2205 0.951 . S
H2182 C2207 0.951 . S
H2183 C2209 0.950 . S
H2184 C2210 0.950 . S
H2185 C2212 0.950 . S
H2186 C2215 0.950 . S
H2187 C2216 0.950 . S
H2188 C2218 0.950 . S
H2189 C2219 0.950 . S
C2190 H2172 0.951 . S
C2190 C2191 1.366 . S
C2190 C2192 1.388 . S
C2191 C2190 1.366 . S
C2191 C2195 1.385 . S
C2192 H2173 0.951 . S
C2192 C2190 1.388 . S
C2192 C2193 1.366 . S
C2193 C2192 1.366 . S
C2193 C2194 1.414 . S
C2193 C2196 1.499 . S
C2194 H2174 0.950 . S
C2194 C2193 1.414 . S
C2194 C2195 1.374 . S
C2195 H2175 0.950 . S
C2195 C2191 1.385 . S
C2195 C2194 1.374 . S
C2196 C2193 1.499 . S
C2196 C2197 1.373 . S
C2196 C2198 1.389 . S
C2197 H2176 0.950 . S
C2197 C2196 1.373 . S
C2197 C2213 1.377 . S
C2198 C2196 1.389 . S
C2198 C2199 1.524 . S
C2198 C2212 1.377 . S
C2199 C2198 1.524 . S
C2199 C2200 1.397 . S
C2199 C2204 1.363 . S
C2200 H2177 0.950 . S
C2200 C2199 1.397 . S
C2200 C2201 1.334 . S
C2201 H2178 0.950 . S
C2201 C2200 1.334 . S
C2201 C2202 1.287 . S
C2202 C2201 1.287 . S
C2202 C2203 1.524 . S
C2202 H2221 0.913 . S
C2203 H2179 0.950 . S
C2203 C2202 1.524 . S
C2203 C2204 1.415 . S
C2204 H2180 0.950 . S
C2204 C2199 1.363 . S
C2204 C2203 1.415 . S
C2205 H2181 0.951 . S
C2205 C2206 1.366 . S
C2205 C2207 1.388 . S
C2206 C2205 1.366 . S
C2206 C2210 1.385 . S
C2207 H2182 0.951 . S
C2207 C2205 1.388 . S
C2207 C2208 1.366 . S
C2208 C2207 1.366 . S
C2208 C2209 1.414 . S
C2208 C2211 1.499 . S
C2209 H2183 0.950 . S
C2209 C2208 1.414 . S
C2209 C2210 1.374 . S
C2210 H2184 0.950 . S
C2210 C2206 1.385 . S
C2210 C2209 1.374 . S
C2211 C2208 1.499 . S
C2211 C2212 1.373 . S
C2211 C2213 1.389 . S
C2212 H2185 0.950 . S
C2212 C2198 1.377 . S
C2212 C2211 1.373 . S
C2213 C2197 1.377 . S
C2213 C2211 1.389 . S
C2213 C2214 1.524 . S
C2214 C2213 1.524 . S
C2214 C2215 1.397 . S
C2214 C2219 1.363 . S
C2215 H2186 0.950 . S
C2215 C2214 1.397 . S
C2215 C2216 1.334 . S
C2216 H2187 0.950 . S
C2216 C2215 1.334 . S
C2216 C2217 1.287 . S
C2217 C2216 1.287 . S
C2217 C2218 1.524 . S
C2217 H2220 0.999 . S
C2218 H2188 0.950 . S
C2218 C2217 1.524 . S
C2218 C2219 1.415 . S
C2219 H2189 0.950 . S
C2219 C2214 1.363 . S
C2219 C2218 1.415 . S
H2220 C2217 0.999 . S
H2221 C2202 0.913 . S
H2222 C2240 0.951 . S
H2223 C2242 0.951 . S
H2224 C2244 0.950 . S
H2225 C2245 0.950 . S
H2226 C2247 0.950 . S
H2227 C2250 0.950 . S
H2228 C2251 0.950 . S
H2229 C2253 0.950 . S
H2230 C2254 0.950 . S
H2231 C2255 0.951 . S
H2232 C2257 0.951 . S
H2233 C2259 0.950 . S
H2234 C2260 0.950 . S
H2235 C2262 0.950 . S
H2236 C2265 0.950 . S
H2237 C2266 0.950 . S
H2238 C2268 0.950 . S
H2239 C2269 0.950 . S
C2240 H2222 0.951 . S
C2240 C2241 1.366 . S
C2240 C2242 1.388 . S
C2241 C2240 1.366 . S
C2241 C2245 1.385 . S
C2242 H2223 0.951 . S
C2242 C2240 1.388 . S
C2242 C2243 1.366 . S
C2243 C2242 1.366 . S
C2243 C2244 1.414 . S
C2243 C2246 1.499 . S
C2244 H2224 0.950 . S
C2244 C2243 1.414 . S
C2244 C2245 1.374 . S
C2245 H2225 0.950 . S
C2245 C2241 1.385 . S
C2245 C2244 1.374 . S
C2246 C2243 1.499 . S
C2246 C2247 1.373 . S
C2246 C2248 1.389 . S
C2247 H2226 0.950 . S
C2247 C2246 1.373 . S
C2247 C2263 1.377 . S
C2248 C2246 1.389 . S
C2248 C2249 1.524 . S
C2248 C2262 1.377 . S
C2249 C2248 1.524 . S
C2249 C2250 1.397 . S
C2249 C2254 1.363 . S
C2250 H2227 0.950 . S
C2250 C2249 1.397 . S
C2250 C2251 1.334 . S
C2251 H2228 0.950 . S
C2251 C2250 1.334 . S
C2251 C2252 1.287 . S
C2252 C2251 1.287 . S
C2252 C2253 1.524 . S
C2252 H2271 0.913 . S
C2253 H2229 0.950 . S
C2253 C2252 1.524 . S
C2253 C2254 1.415 . S
C2254 H2230 0.950 . S
C2254 C2249 1.363 . S
C2254 C2253 1.415 . S
C2255 H2231 0.951 . S
C2255 C2256 1.366 . S
C2255 C2257 1.388 . S
C2256 C2255 1.366 . S
C2256 C2260 1.385 . S
C2257 H2232 0.951 . S
C2257 C2255 1.388 . S
C2257 C2258 1.366 . S
C2258 C2257 1.366 . S
C2258 C2259 1.414 . S
C2258 C2261 1.499 . S
C2259 H2233 0.950 . S
C2259 C2258 1.414 . S
C2259 C2260 1.374 . S
C2260 H2234 0.950 . S
C2260 C2256 1.385 . S
C2260 C2259 1.374 . S
C2261 C2258 1.499 . S
C2261 C2262 1.373 . S
C2261 C2263 1.389 . S
C2262 H2235 0.950 . S
C2262 C2248 1.377 . S
C2262 C2261 1.373 . S
C2263 C2247 1.377 . S
C2263 C2261 1.389 . S
C2263 C2264 1.524 . S
C2264 C2263 1.524 . S
C2264 C2265 1.397 . S
C2264 C2269 1.363 . S
C2265 H2236 0.950 . S
C2265 C2264 1.397 . S
C2265 C2266 1.334 . S
C2266 H2237 0.950 . S
C2266 C2265 1.334 . S
C2266 C2267 1.287 . S
C2267 C2266 1.287 . S
C2267 C2268 1.524 . S
C2267 H2270 0.999 . S
C2268 H2238 0.950 . S
C2268 C2267 1.524 . S
C2268 C2269 1.415 . S
C2269 H2239 0.950 . S
C2269 C2264 1.363 . S
C2269 C2268 1.415 . S
H2270 C2267 0.999 . S
H2271 C2252 0.913 . S
H2272 C2290 0.951 . S
H2273 C2292 0.951 . S
H2274 C2294 0.950 . S
H2275 C2295 0.950 . S
H2276 C2297 0.950 . S
H2277 C2300 0.950 . S
H2278 C2301 0.950 . S
H2279 C2303 0.950 . S
H2280 C2304 0.950 . S
H2281 C2305 0.951 . S
H2282 C2307 0.951 . S
H2283 C2309 0.950 . S
H2284 C2310 0.950 . S
H2285 C2312 0.950 . S
H2286 C2315 0.950 . S
H2287 C2316 0.950 . S
H2288 C2318 0.950 . S
H2289 C2319 0.950 . S
C2290 H2272 0.951 . S
C2290 C2291 1.366 . S
C2290 C2292 1.388 . S
C2291 C2290 1.366 . S
C2291 C2295 1.385 . S
C2292 H2273 0.951 . S
C2292 C2290 1.388 . S
C2292 C2293 1.366 . S
C2293 C2292 1.366 . S
C2293 C2294 1.414 . S
C2293 C2296 1.499 . S
C2294 H2274 0.950 . S
C2294 C2293 1.414 . S
C2294 C2295 1.374 . S
C2295 H2275 0.950 . S
C2295 C2291 1.385 . S
C2295 C2294 1.374 . S
C2296 C2293 1.499 . S
C2296 C2297 1.373 . S
C2296 C2298 1.389 . S
C2297 H2276 0.950 . S
C2297 C2296 1.373 . S
C2297 C2313 1.377 . S
C2298 C2296 1.389 . S
C2298 C2299 1.524 . S
C2298 C2312 1.377 . S
C2299 C2298 1.524 . S
C2299 C2300 1.397 . S
C2299 C2304 1.363 . S
C2300 H2277 0.950 . S
C2300 C2299 1.397 . S
C2300 C2301 1.334 . S
C2301 H2278 0.950 . S
C2301 C2300 1.334 . S
C2301 C2302 1.287 . S
C2302 C2301 1.287 . S
C2302 C2303 1.524 . S
C2302 H2321 0.913 . S
C2303 H2279 0.950 . S
C2303 C2302 1.524 . S
C2303 C2304 1.415 . S
C2304 H2280 0.950 . S
C2304 C2299 1.363 . S
C2304 C2303 1.415 . S
C2305 H2281 0.951 . S
C2305 C2306 1.366 . S
C2305 C2307 1.388 . S
C2306 C2305 1.366 . S
C2306 C2310 1.385 . S
C2307 H2282 0.951 . S
C2307 C2305 1.388 . S
C2307 C2308 1.366 . S
C2308 C2307 1.366 . S
C2308 C2309 1.414 . S
C2308 C2311 1.499 . S
C2309 H2283 0.950 . S
C2309 C2308 1.414 . S
C2309 C2310 1.374 . S
C2310 H2284 0.950 . S
C2310 C2306 1.385 . S
C2310 C2309 1.374 . S
C2311 C2308 1.499 . S
C2311 C2312 1.373 . S
C2311 C2313 1.389 . S
C2312 H2285 0.950 . S
C2312 C2298 1.377 . S
C2312 C2311 1.373 . S
C2313 C2297 1.377 . S
C2313 C2311 1.389 . S
C2313 C2314 1.524 . S
C2314 C2313 1.524 . S
C2314 C2315 1.397 . S
C2314 C2319 1.363 . S
C2315 H2286 0.950 . S
C2315 C2314 1.397 . S
C2315 C2316 1.334 . S
C2316 H2287 0.950 . S
C2316 C2315 1.334 . S
C2316 C2317 1.287 . S
C2317 C2316 1.287 . S
C2317 C2318 1.524 . S
C2317 H2320 0.999 . S
C2318 H2288 0.950 . S
C2318 C2317 1.524 . S
C2318 C2319 1.415 . S
C2319 H2289 0.950 . S
C2319 C2314 1.363 . S
C2319 C2318 1.415 . S
H2320 C2317 0.999 . S
H2321 C2302 0.913 . S
H2322 C2340 0.951 . S
H2323 C2342 0.951 . S
H2324 C2344 0.950 . S
H2325 C2345 0.950 . S
H2326 C2347 0.950 . S
H2327 C2350 0.950 . S
H2328 C2351 0.950 . S
H2329 C2353 0.950 . S
H2330 C2354 0.950 . S
H2331 C2355 0.951 . S
H2332 C2357 0.951 . S
H2333 C2359 0.950 . S
H2334 C2360 0.950 . S
H2335 C2362 0.950 . S
H2336 C2365 0.950 . S
H2337 C2366 0.950 . S
H2338 C2368 0.950 . S
H2339 C2369 0.950 . S
C2340 H2322 0.951 . S
C2340 C2341 1.366 . S
C2340 C2342 1.388 . S
C2341 C2340 1.366 . S
C2341 C2345 1.385 . S
C2342 H2323 0.951 . S
C2342 C2340 1.388 . S
C2342 C2343 1.366 . S
C2343 C2342 1.366 . S
C2343 C2344 1.414 . S
C2343 C2346 1.499 . S
C2344 H2324 0.950 . S
C2344 C2343 1.414 . S
C2344 C2345 1.374 . S
C2345 H2325 0.950 . S
C2345 C2341 1.385 . S
C2345 C2344 1.374 . S
C2346 C2343 1.499 . S
C2346 C2347 1.373 . S
C2346 C2348 1.389 . S
C2347 H2326 0.950 . S
C2347 C2346 1.373 . S
C2347 C2363 1.377 . S
C2348 C2346 1.389 . S
C2348 C2349 1.524 . S
C2348 C2362 1.377 . S
C2349 C2348 1.524 . S
C2349 C2350 1.397 . S
C2349 C2354 1.363 . S
C2350 H2327 0.950 . S
C2350 C2349 1.397 . S
C2350 C2351 1.334 . S
C2351 H2328 0.950 . S
C2351 C2350 1.334 . S
C2351 C2352 1.287 . S
C2352 C2351 1.287 . S
C2352 C2353 1.524 . S
C2352 H2371 0.913 . S
C2353 H2329 0.950 . S
C2353 C2352 1.524 . S
C2353 C2354 1.415 . S
C2354 H2330 0.950 . S
C2354 C2349 1.363 . S
C2354 C2353 1.415 . S
C2355 H2331 0.951 . S
C2355 C2356 1.366 . S
C2355 C2357 1.388 . S
C2356 C2355 1.366 . S
C2356 C2360 1.385 . S
C2357 H2332 0.951 . S
C2357 C2355 1.388 . S
C2357 C2358 1.366 . S
C2358 C2357 1.366 . S
C2358 C2359 1.414 . S
C2358 C2361 1.499 . S
C2359 H2333 0.950 . S
C2359 C2358 1.414 . S
C2359 C2360 1.374 . S
C2360 H2334 0.950 . S
C2360 C2356 1.385 . S
C2360 C2359 1.374 . S
C2361 C2358 1.499 . S
C2361 C2362 1.373 . S
C2361 C2363 1.389 . S
C2362 H2335 0.950 . S
C2362 C2348 1.377 . S
C2362 C2361 1.373 . S
C2363 C2347 1.377 . S
C2363 C2361 1.389 . S
C2363 C2364 1.524 . S
C2364 C2363 1.524 . S
C2364 C2365 1.397 . S
C2364 C2369 1.363 . S
C2365 H2336 0.950 . S
C2365 C2364 1.397 . S
C2365 C2366 1.334 . S
C2366 H2337 0.950 . S
C2366 C2365 1.334 . S
C2366 C2367 1.287 . S
C2367 C2366 1.287 . S
C2367 C2368 1.524 . S
C2367 H2370 0.999 . S
C2368 H2338 0.950 . S
C2368 C2367 1.524 . S
C2368 C2369 1.415 . S
C2369 H2339 0.950 . S
C2369 C2364 1.363 . S
C2369 C2368 1.415 . S
H2370 C2367 0.999 . S
H2371 C2352 0.913 . S
H2372 C2390 0.951 . S
H2373 C2392 0.951 . S
H2374 C2394 0.950 . S
H2375 C2395 0.950 . S
H2376 C2397 0.950 . S
H2377 C2400 0.950 . S
H2378 C2401 0.950 . S
H2379 C2403 0.950 . S
H2380 C2404 0.950 . S
H2381 C2405 0.951 . S
H2382 C2407 0.951 . S
H2383 C2409 0.950 . S
H2384 C2410 0.950 . S
H2385 C2412 0.950 . S
H2386 C2415 0.950 . S
H2387 C2416 0.950 . S
H2388 C2418 0.950 . S
H2389 C2419 0.950 . S
C2390 H2372 0.951 . S
C2390 C2391 1.366 . S
C2390 C2392 1.388 . S
C2391 C2390 1.366 . S
C2391 C2395 1.385 . S
C2392 H2373 0.951 . S
C2392 C2390 1.388 . S
C2392 C2393 1.366 . S
C2393 C2392 1.366 . S
C2393 C2394 1.414 . S
C2393 C2396 1.499 . S
C2394 H2374 0.950 . S
C2394 C2393 1.414 . S
C2394 C2395 1.374 . S
C2395 H2375 0.950 . S
C2395 C2391 1.385 . S
C2395 C2394 1.374 . S
C2396 C2393 1.499 . S
C2396 C2397 1.373 . S
C2396 C2398 1.389 . S
C2397 H2376 0.950 . S
C2397 C2396 1.373 . S
C2397 C2413 1.377 . S
C2398 C2396 1.389 . S
C2398 C2399 1.524 . S
C2398 C2412 1.377 . S
C2399 C2398 1.524 . S
C2399 C2400 1.397 . S
C2399 C2404 1.363 . S
C2400 H2377 0.950 . S
C2400 C2399 1.397 . S
C2400 C2401 1.334 . S
C2401 H2378 0.950 . S
C2401 C2400 1.334 . S
C2401 C2402 1.287 . S
C2402 C2401 1.287 . S
C2402 C2403 1.524 . S
C2402 H2421 0.913 . S
C2403 H2379 0.950 . S
C2403 C2402 1.524 . S
C2403 C2404 1.415 . S
C2404 H2380 0.950 . S
C2404 C2399 1.363 . S
C2404 C2403 1.415 . S
C2405 H2381 0.951 . S
C2405 C2406 1.366 . S
C2405 C2407 1.388 . S
C2406 C2405 1.366 . S
C2406 C2410 1.385 . S
C2407 H2382 0.951 . S
C2407 C2405 1.388 . S
C2407 C2408 1.366 . S
C2408 C2407 1.366 . S
C2408 C2409 1.414 . S
C2408 C2411 1.499 . S
C2409 H2383 0.950 . S
C2409 C2408 1.414 . S
C2409 C2410 1.374 . S
C2410 H2384 0.950 . S
C2410 C2406 1.385 . S
C2410 C2409 1.374 . S
C2411 C2408 1.499 . S
C2411 C2412 1.373 . S
C2411 C2413 1.389 . S
C2412 H2385 0.950 . S
C2412 C2398 1.377 . S
C2412 C2411 1.373 . S
C2413 C2397 1.377 . S
C2413 C2411 1.389 . S
C2413 C2414 1.524 . S
C2414 C2413 1.524 . S
C2414 C2415 1.397 . S
C2414 C2419 1.363 . S
C2415 H2386 0.950 . S
C2415 C2414 1.397 . S
C2415 C2416 1.334 . S
C2416 H2387 0.950 . S
C2416 C2415 1.334 . S
C2416 C2417 1.287 . S
C2417 C2416 1.287 . S
C2417 C2418 1.524 . S
C2417 H2420 0.999 . S
C2418 H2388 0.950 . S
C2418 C2417 1.524 . S
C2418 C2419 1.415 . S
C2419 H2389 0.950 . S
C2419 C2414 1.363 . S
C2419 C2418 1.415 . S
H2420 C2417 0.999 . S
H2421 C2402 0.913 . S
H2422 C2440 0.951 . S
H2423 C2442 0.951 . S
H2424 C2444 0.950 . S
H2425 C2445 0.950 . S
H2426 C2447 0.950 . S
H2427 C2450 0.950 . S
H2428 C2451 0.950 . S
H2429 C2453 0.950 . S
H2430 C2454 0.950 . S
H2431 C2455 0.951 . S
H2432 C2457 0.951 . S
H2433 C2459 0.950 . S
H2434 C2460 0.950 . S
H2435 C2462 0.950 . S
H2436 C2465 0.950 . S
H2437 C2466 0.950 . S
H2438 C2468 0.950 . S
H2439 C2469 0.950 . S
C2440 H2422 0.951 . S
C2440 C2441 1.366 . S
C2440 C2442 1.388 . S
C2441 C2440 1.366 . S
C2441 C2445 1.385 . S
C2442 H2423 0.951 . S
C2442 C2440 1.388 . S
C2442 C2443 1.366 . S
C2443 C2442 1.366 . S
C2443 C2444 1.414 . S
C2443 C2446 1.499 . S
C2444 H2424 0.950 . S
C2444 C2443 1.414 . S
C2444 C2445 1.374 . S
C2445 H2425 0.950 . S
C2445 C2441 1.385 . S
C2445 C2444 1.374 . S
C2446 C2443 1.499 . S
C2446 C2447 1.373 . S
C2446 C2448 1.389 . S
C2447 H2426 0.950 . S
C2447 C2446 1.373 . S
C2447 C2463 1.377 . S
C2448 C2446 1.389 . S
C2448 C2449 1.524 . S
C2448 C2462 1.377 . S
C2449 C2448 1.524 . S
C2449 C2450 1.397 . S
C2449 C2454 1.363 . S
C2450 H2427 0.950 . S
C2450 C2449 1.397 . S
C2450 C2451 1.334 . S
C2451 H2428 0.950 . S
C2451 C2450 1.334 . S
C2451 C2452 1.287 . S
C2452 C2451 1.287 . S
C2452 C2453 1.524 . S
C2452 H2471 0.913 . S
C2453 H2429 0.950 . S
C2453 C2452 1.524 . S
C2453 C2454 1.415 . S
C2454 H2430 0.950 . S
C2454 C2449 1.363 . S
C2454 C2453 1.415 . S
C2455 H2431 0.951 . S
C2455 C2456 1.366 . S
C2455 C2457 1.388 . S
C2456 C2455 1.366 . S
C2456 C2460 1.385 . S
C2457 H2432 0.951 . S
C2457 C2455 1.388 . S
C2457 C2458 1.366 . S
C2458 C2457 1.366 . S
C2458 C2459 1.414 . S
C2458 C2461 1.499 . S
C2459 H2433 0.950 . S
C2459 C2458 1.414 . S
C2459 C2460 1.374 . S
C2460 H2434 0.950 . S
C2460 C2456 1.385 . S
C2460 C2459 1.374 . S
C2461 C2458 1.499 . S
C2461 C2462 1.373 . S
C2461 C2463 1.389 . S
C2462 H2435 0.950 . S
C2462 C2448 1.377 . S
C2462 C2461 1.373 . S
C2463 C2447 1.377 . S
C2463 C2461 1.389 . S
C2463 C2464 1.524 . S
C2464 C2463 1.524 . S
C2464 C2465 1.397 . S
C2464 C2469 1.363 . S
C2465 H2436 0.950 . S
C2465 C2464 1.397 . S
C2465 C2466 1.334 . S
C2466 H2437 0.950 . S
C2466 C2465 1.334 . S
C2466 C2467 1.287 . S
C2467 C2466 1.287 . S
C2467 C2468 1.524 . S
C2467 H2470 0.999 . S
C2468 H2438 0.950 . S
C2468 C2467 1.524 . S
C2468 C2469 1.415 . S
C2469 H2439 0.950 . S
C2469 C2464 1.363 . S
C2469 C2468 1.415 . S
H2470 C2467 0.999 . S
H2471 C2452 0.913 . S
H2472 C2490 0.951 . S
H2473 C2492 0.951 . S
H2474 C2494 0.950 . S
H2475 C2495 0.950 . S
H2476 C2497 0.950 . S
H2477 C2500 0.950 . S
H2478 C2501 0.950 . S
H2479 C2503 0.950 . S
H2480 C2504 0.950 . S
H2481 C2505 0.951 . S
H2482 C2507 0.951 . S
H2483 C2509 0.950 . S
H2484 C2510 0.950 . S
H2485 C2512 0.950 . S
H2486 C2515 0.950 . S
H2487 C2516 0.950 . S
H2488 C2518 0.950 . S
H2489 C2519 0.950 . S
C2490 H2472 0.951 . S
C2490 C2491 1.366 . S
C2490 C2492 1.388 . S
C2491 C2490 1.366 . S
C2491 C2495 1.385 . S
C2492 H2473 0.951 . S
C2492 C2490 1.388 . S
C2492 C2493 1.366 . S
C2493 C2492 1.366 . S
C2493 C2494 1.414 . S
C2493 C2496 1.499 . S
C2494 H2474 0.950 . S
C2494 C2493 1.414 . S
C2494 C2495 1.374 . S
C2495 H2475 0.950 . S
C2495 C2491 1.385 . S
C2495 C2494 1.374 . S
C2496 C2493 1.499 . S
C2496 C2497 1.373 . S
C2496 C2498 1.389 . S
C2497 H2476 0.950 . S
C2497 C2496 1.373 . S
C2497 C2513 1.377 . S
C2498 C2496 1.389 . S
C2498 C2499 1.524 . S
C2498 C2512 1.377 . S
C2499 C2498 1.524 . S
C2499 C2500 1.397 . S
C2499 C2504 1.363 . S
C2500 H2477 0.950 . S
C2500 C2499 1.397 . S
C2500 C2501 1.334 . S
C2501 H2478 0.950 . S
C2501 C2500 1.334 . S
C2501 C2502 1.287 . S
C2502 C2501 1.287 . S
C2502 C2503 1.524 . S
C2502 H2521 0.913 . S
C2503 H2479 0.950 . S
C2503 C2502 1.524 . S
C2503 C2504 1.415 . S
C2504 H2480 0.950 . S
C2504 C2499 1.363 . S
C2504 C2503 1.415 . S
C2505 H2481 0.951 . S
C2505 C2506 1.366 . S
C2505 C2507 1.388 . S
C2506 C2505 1.366 . S
C2506 C2510 1.385 . S
C2507 H2482 0.951 . S
C2507 C2505 1.388 . S
C2507 C2508 1.366 . S
C2508 C2507 1.366 . S
C2508 C2509 1.414 . S
C2508 C2511 1.499 . S
C2509 H2483 0.950 . S
C2509 C2508 1.414 . S
C2509 C2510 1.374 . S
C2510 H2484 0.950 . S
C2510 C2506 1.385 . S
C2510 C2509 1.374 . S
C2511 C2508 1.499 . S
C2511 C2512 1.373 . S
C2511 C2513 1.389 . S
C2512 H2485 0.950 . S
C2512 C2498 1.377 . S
C2512 C2511 1.373 . S
C2513 C2497 1.377 . S
C2513 C2511 1.389 . S
C2513 C2514 1.524 . S
C2514 C2513 1.524 . S
C2514 C2515 1.397 . S
C2514 C2519 1.363 . S
C2515 H2486 0.950 . S
C2515 C2514 1.397 . S
C2515 C2516 1.334 . S
C2516 H2487 0.950 . S
C2516 C2515 1.334 . S
C2516 C2517 1.287 . S
C2517 C2516 1.287 . S
C2517 C2518 1.524 . S
C2517 H2520 0.999 . S
C2518 H2488 0.950 . S
C2518 C2517 1.524 . S
C2518 C2519 1.415 . S
C2519 H2489 0.950 . S
C2519 C2514 1.363 . S
C2519 C2518 1.415 . S
H2520 C2517 0.999 . S
H2521 C2502 0.913 . S
H2522 C2540 0.951 . S
H2523 C2542 0.951 . S
H2524 C2544 0.950 . S
H2525 C2545 0.950 . S
H2526 C2547 0.950 . S
H2527 C2550 0.950 . S
H2528 C2551 0.950 . S
H2529 C2553 0.950 . S
H2530 C2554 0.950 . S
H2531 C2555 0.951 . S
H2532 C2557 0.951 . S
H2533 C2559 0.950 . S
H2534 C2560 0.950 . S
H2535 C2562 0.950 . S
H2536 C2565 0.950 . S
H2537 C2566 0.950 . S
H2538 C2568 0.950 . S
H2539 C2569 0.950 . S
C2540 H2522 0.951 . S
C2540 C2541 1.366 . S
C2540 C2542 1.388 . S
C2541 C2540 1.366 . S
C2541 C2545 1.385 . S
C2542 H2523 0.951 . S
C2542 C2540 1.388 . S
C2542 C2543 1.366 . S
C2543 C2542 1.366 . S
C2543 C2544 1.414 . S
C2543 C2546 1.499 . S
C2544 H2524 0.950 . S
C2544 C2543 1.414 . S
C2544 C2545 1.374 . S
C2545 H2525 0.950 . S
C2545 C2541 1.385 . S
C2545 C2544 1.374 . S
C2546 C2543 1.499 . S
C2546 C2547 1.373 . S
C2546 C2548 1.389 . S
C2547 H2526 0.950 . S
C2547 C2546 1.373 . S
C2547 C2563 1.377 . S
C2548 C2546 1.389 . S
C2548 C2549 1.524 . S
C2548 C2562 1.377 . S
C2549 C2548 1.524 . S
C2549 C2550 1.397 . S
C2549 C2554 1.363 . S
C2550 H2527 0.950 . S
C2550 C2549 1.397 . S
C2550 C2551 1.334 . S
C2551 H2528 0.950 . S
C2551 C2550 1.334 . S
C2551 C2552 1.287 . S
C2552 C2551 1.287 . S
C2552 C2553 1.524 . S
C2552 H2571 0.913 . S
C2553 H2529 0.950 . S
C2553 C2552 1.524 . S
C2553 C2554 1.415 . S
C2554 H2530 0.950 . S
C2554 C2549 1.363 . S
C2554 C2553 1.415 . S
C2555 H2531 0.951 . S
C2555 C2556 1.366 . S
C2555 C2557 1.388 . S
C2556 C2555 1.366 . S
C2556 C2560 1.385 . S
C2557 H2532 0.951 . S
C2557 C2555 1.388 . S
C2557 C2558 1.366 . S
C2558 C2557 1.366 . S
C2558 C2559 1.414 . S
C2558 C2561 1.499 . S
C2559 H2533 0.950 . S
C2559 C2558 1.414 . S
C2559 C2560 1.374 . S
C2560 H2534 0.950 . S
C2560 C2556 1.385 . S
C2560 C2559 1.374 . S
C2561 C2558 1.499 . S
C2561 C2562 1.373 . S
C2561 C2563 1.389 . S
C2562 H2535 0.950 . S
C2562 C2548 1.377 . S
C2562 C2561 1.373 . S
C2563 C2547 1.377 . S
C2563 C2561 1.389 . S
C2563 C2564 1.524 . S
C2564 C2563 1.524 . S
C2564 C2565 1.397 . S
C2564 C2569 1.363 . S
C2565 H2536 0.950 . S
C2565 C2564 1.397 . S
C2565 C2566 1.334 . S
C2566 H2537 0.950 . S
C2566 C2565 1.334 . S
C2566 C2567 1.287 . S
C2567 C2566 1.287 . S
C2567 C2568 1.524 . S
C2567 H2570 0.999 . S
C2568 H2538 0.950 . S
C2568 C2567 1.524 . S
C2568 C2569 1.415 . S
C2569 H2539 0.950 . S
C2569 C2564 1.363 . S
C2569 C2568 1.415 . S
H2570 C2567 0.999 . S
H2571 C2552 0.913 . S
H2572 C2590 0.951 . S
H2573 C2592 0.951 . S
H2574 C2594 0.950 . S
H2575 C2595 0.950 . S
H2576 C2597 0.950 . S
H2577 C2600 0.950 . S
H2578 C2601 0.950 . S
H2579 C2603 0.950 . S
H2580 C2604 0.950 . S
H2581 C2605 0.951 . S
H2582 C2607 0.951 . S
H2583 C2609 0.950 . S
H2584 C2610 0.950 . S
H2585 C2612 0.950 . S
H2586 C2615 0.950 . S
H2587 C2616 0.950 . S
H2588 C2618 0.950 . S
H2589 C2619 0.950 . S
C2590 H2572 0.951 . S
C2590 C2591 1.366 . S
C2590 C2592 1.388 . S
C2591 C2590 1.366 . S
C2591 C2595 1.385 . S
C2592 H2573 0.951 . S
C2592 C2590 1.388 . S
C2592 C2593 1.366 . S
C2593 C2592 1.366 . S
C2593 C2594 1.414 . S
C2593 C2596 1.499 . S
C2594 H2574 0.950 . S
C2594 C2593 1.414 . S
C2594 C2595 1.374 . S
C2595 H2575 0.950 . S
C2595 C2591 1.385 . S
C2595 C2594 1.374 . S
C2596 C2593 1.499 . S
C2596 C2597 1.373 . S
C2596 C2598 1.389 . S
C2597 H2576 0.950 . S
C2597 C2596 1.373 . S
C2597 C2613 1.377 . S
C2598 C2596 1.389 . S
C2598 C2599 1.524 . S
C2598 C2612 1.377 . S
C2599 C2598 1.524 . S
C2599 C2600 1.397 . S
C2599 C2604 1.363 . S
C2600 H2577 0.950 . S
C2600 C2599 1.397 . S
C2600 C2601 1.334 . S
C2601 H2578 0.950 . S
C2601 C2600 1.334 . S
C2601 C2602 1.287 . S
C2602 C2601 1.287 . S
C2602 C2603 1.524 . S
C2602 H2621 0.913 . S
C2603 H2579 0.950 . S
C2603 C2602 1.524 . S
C2603 C2604 1.415 . S
C2604 H2580 0.950 . S
C2604 C2599 1.363 . S
C2604 C2603 1.415 . S
C2605 H2581 0.951 . S
C2605 C2606 1.366 . S
C2605 C2607 1.388 . S
C2606 C2605 1.366 . S
C2606 C2610 1.385 . S
C2607 H2582 0.951 . S
C2607 C2605 1.388 . S
C2607 C2608 1.366 . S
C2608 C2607 1.366 . S
C2608 C2609 1.414 . S
C2608 C2611 1.499 . S
C2609 H2583 0.950 . S
C2609 C2608 1.414 . S
C2609 C2610 1.374 . S
C2610 H2584 0.950 . S
C2610 C2606 1.385 . S
C2610 C2609 1.374 . S
C2611 C2608 1.499 . S
C2611 C2612 1.373 . S
C2611 C2613 1.389 . S
C2612 H2585 0.950 . S
C2612 C2598 1.377 . S
C2612 C2611 1.373 . S
C2613 C2597 1.377 . S
C2613 C2611 1.389 . S
C2613 C2614 1.524 . S
C2614 C2613 1.524 . S
C2614 C2615 1.397 . S
C2614 C2619 1.363 . S
C2615 H2586 0.950 . S
C2615 C2614 1.397 . S
C2615 C2616 1.334 . S
C2616 H2587 0.950 . S
C2616 C2615 1.334 . S
C2616 C2617 1.287 . S
C2617 C2616 1.287 . S
C2617 C2618 1.524 . S
C2617 H2620 0.999 . S
C2618 H2588 0.950 . S
C2618 C2617 1.524 . S
C2618 C2619 1.415 . S
C2619 H2589 0.950 . S
C2619 C2614 1.363 . S
C2619 C2618 1.415 . S
H2620 C2617 0.999 . S
H2621 C2602 0.913 . S
H2622 C2640 0.951 . S
H2623 C2642 0.951 . S
H2624 C2644 0.950 . S
H2625 C2645 0.950 . S
H2626 C2647 0.950 . S
H2627 C2650 0.950 . S
H2628 C2651 0.950 . S
H2629 C2653 0.950 . S
H2630 C2654 0.950 . S
H2631 C2655 0.951 . S
H2632 C2657 0.951 . S
H2633 C2659 0.950 . S
H2634 C2660 0.950 . S
H2635 C2662 0.950 . S
H2636 C2665 0.950 . S
H2637 C2666 0.950 . S
H2638 C2668 0.950 . S
H2639 C2669 0.950 . S
C2640 H2622 0.951 . S
C2640 C2641 1.366 . S
C2640 C2642 1.388 . S
C2641 C2640 1.366 . S
C2641 C2645 1.385 . S
C2642 H2623 0.951 . S
C2642 C2640 1.388 . S
C2642 C2643 1.366 . S
C2643 C2642 1.366 . S
C2643 C2644 1.414 . S
C2643 C2646 1.499 . S
C2644 H2624 0.950 . S
C2644 C2643 1.414 . S
C2644 C2645 1.374 . S
C2645 H2625 0.950 . S
C2645 C2641 1.385 . S
C2645 C2644 1.374 . S
C2646 C2643 1.499 . S
C2646 C2647 1.373 . S
C2646 C2648 1.389 . S
C2647 H2626 0.950 . S
C2647 C2646 1.373 . S
C2647 C2663 1.377 . S
C2648 C2646 1.389 . S
C2648 C2649 1.524 . S
C2648 C2662 1.377 . S
C2649 C2648 1.524 . S
C2649 C2650 1.397 . S
C2649 C2654 1.363 . S
C2650 H2627 0.950 . S
C2650 C2649 1.397 . S
C2650 C2651 1.334 . S
C2651 H2628 0.950 . S
C2651 C2650 1.334 . S
C2651 C2652 1.287 . S
C2652 C2651 1.287 . S
C2652 C2653 1.524 . S
C2652 H2671 0.913 . S
C2653 H2629 0.950 . S
C2653 C2652 1.524 . S
C2653 C2654 1.415 . S
C2654 H2630 0.950 . S
C2654 C2649 1.363 . S
C2654 C2653 1.415 . S
C2655 H2631 0.951 . S
C2655 C2656 1.366 . S
C2655 C2657 1.388 . S
C2656 C2655 1.366 . S
C2656 C2660 1.385 . S
C2657 H2632 0.951 . S
C2657 C2655 1.388 . S
C2657 C2658 1.366 . S
C2658 C2657 1.366 . S
C2658 C2659 1.414 . S
C2658 C2661 1.499 . S
C2659 H2633 0.950 . S
C2659 C2658 1.414 . S
C2659 C2660 1.374 . S
C2660 H2634 0.950 . S
C2660 C2656 1.385 . S
C2660 C2659 1.374 . S
C2661 C2658 1.499 . S
C2661 C2662 1.373 . S
C2661 C2663 1.389 . S
C2662 H2635 0.950 . S
C2662 C2648 1.377 . S
C2662 C2661 1.373 . S
C2663 C2647 1.377 . S
C2663 C2661 1.389 . S
C2663 C2664 1.524 . S
C2664 C2663 1.524 . S
C2664 C2665 1.397 . S
C2664 C2669 1.363 . S
C2665 H2636 0.950 . S
C2665 C2664 1.397 . S
C2665 C2666 1.334 . S
C2666 H2637 0.950 . S
C2666 C2665 1.334 . S
C2666 C2667 1.287 . S
C2667 C2666 1.287 . S
C2667 C2668 1.524 . S
C2667 H2670 0.999 . S
C2668 H2638 0.950 . S
C2668 C2667 1.524 . S
C2668 C2669 1.415 . S
C2669 H2639 0.950 . S
C2669 C2664 1.363 . S
C2669 C2668 1.415 . S
H2670 C2667 0.999 . S
H2671 C2652 0.913 . S
H2672 C2690 0.951 . S
H2673 C2692 0.951 . S
H2674 C2694 0.950 . S
H2675 C2695 0.950 . S
H2676 C2697 0.950 . S
H2677 C2700 0.950 . S
H2678 C2701 0.950 . S
H2679 C2703 0.950 . S
H2680 C2704 0.950 . S
H2681 C2705 0.951 . S
H2682 C2707 0.951 . S
H2683 C2709 0.950 . S
H2684 C2710 0.950 . S
H2685 C2712 0.950 . S
H2686 C2715 0.950 . S
H2687 C2716 0.950 . S
H2688 C2718 0.950 . S
H2689 C2719 0.950 . S
C2690 H2672 0.951 . S
C2690 C2691 1.366 . S
C2690 C2692 1.388 . S
C2691 C2690 1.366 . S
C2691 C2695 1.385 . S
C2692 H2673 0.951 . S
C2692 C2690 1.388 . S
C2692 C2693 1.366 . S
C2693 C2692 1.366 . S
C2693 C2694 1.414 . S
C2693 C2696 1.499 . S
C2694 H2674 0.950 . S
C2694 C2693 1.414 . S
C2694 C2695 1.374 . S
C2695 H2675 0.950 . S
C2695 C2691 1.385 . S
C2695 C2694 1.374 . S
C2696 C2693 1.499 . S
C2696 C2697 1.373 . S
C2696 C2698 1.389 . S
C2697 H2676 0.950 . S
C2697 C2696 1.373 . S
C2697 C2713 1.377 . S
C2698 C2696 1.389 . S
C2698 C2699 1.524 . S
C2698 C2712 1.377 . S
C2699 C2698 1.524 . S
C2699 C2700 1.397 . S
C2699 C2704 1.363 . S
C2700 H2677 0.950 . S
C2700 C2699 1.397 . S
C2700 C2701 1.334 . S
C2701 H2678 0.950 . S
C2701 C2700 1.334 . S
C2701 C2702 1.287 . S
C2702 C2701 1.287 . S
C2702 C2703 1.524 . S
C2702 H2721 0.913 . S
C2703 H2679 0.950 . S
C2703 C2702 1.524 . S
C2703 C2704 1.415 . S
C2704 H2680 0.950 . S
C2704 C2699 1.363 . S
C2704 C2703 1.415 . S
C2705 H2681 0.951 . S
C2705 C2706 1.366 . S
C2705 C2707 1.388 . S
C2706 C2705 1.366 . S
C2706 C2710 1.385 . S
C2707 H2682 0.951 . S
C2707 C2705 1.388 . S
C2707 C2708 1.366 . S
C2708 C2707 1.366 . S
C2708 C2709 1.414 . S
C2708 C2711 1.499 . S
C2709 H2683 0.950 . S
C2709 C2708 1.414 . S
C2709 C2710 1.374 . S
C2710 H2684 0.950 . S
C2710 C2706 1.385 . S
C2710 C2709 1.374 . S
C2711 C2708 1.499 . S
C2711 C2712 1.373 . S
C2711 C2713 1.389 . S
C2712 H2685 0.950 . S
C2712 C2698 1.377 . S
C2712 C2711 1.373 . S
C2713 C2697 1.377 . S
C2713 C2711 1.389 . S
C2713 C2714 1.524 . S
C2714 C2713 1.524 . S
C2714 C2715 1.397 . S
C2714 C2719 1.363 . S
C2715 H2686 0.950 . S
C2715 C2714 1.397 . S
C2715 C2716 1.334 . S
C2716 H2687 0.950 . S
C2716 C2715 1.334 . S
C2716 C2717 1.287 . S
C2717 C2716 1.287 . S
C2717 C2718 1.524 . S
C2717 H2720 0.999 . S
C2718 H2688 0.950 . S
C2718 C2717 1.524 . S
C2718 C2719 1.415 . S
C2719 H2689 0.950 . S
C2719 C2714 1.363 . S
C2719 C2718 1.415 . S
H2720 C2717 0.999 . S
H2721 C2702 0.913 . S
H2722 C2740 0.951 . S
H2723 C2742 0.951 . S
H2724 C2744 0.950 . S
H2725 C2745 0.950 . S
H2726 C2747 0.950 . S
H2727 C2750 0.950 . S
H2728 C2751 0.950 . S
H2729 C2753 0.950 . S
H2730 C2754 0.950 . S
H2731 C2755 0.951 . S
H2732 C2757 0.951 . S
H2733 C2759 0.950 . S
H2734 C2760 0.950 . S
H2735 C2762 0.950 . S
H2736 C2765 0.950 . S
H2737 C2766 0.950 . S
H2738 C2768 0.950 . S
H2739 C2769 0.950 . S
C2740 H2722 0.951 . S
C2740 C2741 1.366 . S
C2740 C2742 1.388 . S
C2741 C2740 1.366 . S
C2741 C2745 1.385 . S
C2742 H2723 0.951 . S
C2742 C2740 1.388 . S
C2742 C2743 1.366 . S
C2743 C2742 1.366 . S
C2743 C2744 1.414 . S
C2743 C2746 1.499 . S
C2744 H2724 0.950 . S
C2744 C2743 1.414 . S
C2744 C2745 1.374 . S
C2745 H2725 0.950 . S
C2745 C2741 1.385 . S
C2745 C2744 1.374 . S
C2746 C2743 1.499 . S
C2746 C2747 1.373 . S
C2746 C2748 1.389 . S
C2747 H2726 0.950 . S
C2747 C2746 1.373 . S
C2747 C2763 1.377 . S
C2748 C2746 1.389 . S
C2748 C2749 1.524 . S
C2748 C2762 1.377 . S
C2749 C2748 1.524 . S
C2749 C2750 1.397 . S
C2749 C2754 1.363 . S
C2750 H2727 0.950 . S
C2750 C2749 1.397 . S
C2750 C2751 1.334 . S
C2751 H2728 0.950 . S
C2751 C2750 1.334 . S
C2751 C2752 1.287 . S
C2752 C2751 1.287 . S
C2752 C2753 1.524 . S
C2752 H2771 0.913 . S
C2753 H2729 0.950 . S
C2753 C2752 1.524 . S
C2753 C2754 1.415 . S
C2754 H2730 0.950 . S
C2754 C2749 1.363 . S
C2754 C2753 1.415 . S
C2755 H2731 0.951 . S
C2755 C2756 1.366 . S
C2755 C2757 1.388 . S
C2756 C2755 1.366 . S
C2756 C2760 1.385 . S
C2757 H2732 0.951 . S
C2757 C2755 1.388 . S
C2757 C2758 1.366 . S
C2758 C2757 1.366 . S
C2758 C2759 1.414 . S
C2758 C2761 1.499 . S
C2759 H2733 0.950 . S
C2759 C2758 1.414 . S
C2759 C2760 1.374 . S
C2760 H2734 0.950 . S
C2760 C2756 1.385 . S
C2760 C2759 1.374 . S
C2761 C2758 1.499 . S
C2761 C2762 1.373 . S
C2761 C2763 1.389 . S
C2762 H2735 0.950 . S
C2762 C2748 1.377 . S
C2762 C2761 1.373 . S
C2763 C2747 1.377 . S
C2763 C2761 1.389 . S
C2763 C2764 1.524 . S
C2764 C2763 1.524 . S
C2764 C2765 1.397 . S
C2764 C2769 1.363 . S
C2765 H2736 0.950 . S
C2765 C2764 1.397 . S
C2765 C2766 1.334 . S
C2766 H2737 0.950 . S
C2766 C2765 1.334 . S
C2766 C2767 1.287 . S
C2767 C2766 1.287 . S
C2767 C2768 1.524 . S
C2767 H2770 0.999 . S
C2768 H2738 0.950 . S
C2768 C2767 1.524 . S
C2768 C2769 1.415 . S
C2769 H2739 0.950 . S
C2769 C2764 1.363 . S
C2769 C2768 1.415 . S
H2770 C2767 0.999 . S
H2771 C2752 0.913 . S
H2772 C2790 0.951 . S
H2773 C2792 0.951 . S
H2774 C2794 0.950 . S
H2775 C2795 0.950 . S
H2776 C2797 0.950 . S
H2777 C2800 0.950 . S
H2778 C2801 0.950 . S
H2779 C2803 0.950 . S
H2780 C2804 0.950 . S
H2781 C2805 0.951 . S
H2782 C2807 0.951 . S
H2783 C2809 0.950 . S
H2784 C2810 0.950 . S
H2785 C2812 0.950 . S
H2786 C2815 0.950 . S
H2787 C2816 0.950 . S
H2788 C2818 0.950 . S
H2789 C2819 0.950 . S
C2790 H2772 0.951 . S
C2790 C2791 1.366 . S
C2790 C2792 1.388 . S
C2791 C2790 1.366 . S
C2791 C2795 1.385 . S
C2792 H2773 0.951 . S
C2792 C2790 1.388 . S
C2792 C2793 1.366 . S
C2793 C2792 1.366 . S
C2793 C2794 1.414 . S
C2793 C2796 1.499 . S
C2794 H2774 0.950 . S
C2794 C2793 1.414 . S
C2794 C2795 1.374 . S
C2795 H2775 0.950 . S
C2795 C2791 1.385 . S
C2795 C2794 1.374 . S
C2796 C2793 1.499 . S
C2796 C2797 1.373 . S
C2796 C2798 1.389 . S
C2797 H2776 0.950 . S
C2797 C2796 1.373 . S
C2797 C2813 1.377 . S
C2798 C2796 1.389 . S
C2798 C2799 1.524 . S
C2798 C2812 1.377 . S
C2799 C2798 1.524 . S
C2799 C2800 1.397 . S
C2799 C2804 1.363 . S
C2800 H2777 0.950 . S
C2800 C2799 1.397 . S
C2800 C2801 1.334 . S
C2801 H2778 0.950 . S
C2801 C2800 1.334 . S
C2801 C2802 1.287 . S
C2802 C2801 1.287 . S
C2802 C2803 1.524 . S
C2802 H2821 0.913 . S
C2803 H2779 0.950 . S
C2803 C2802 1.524 . S
C2803 C2804 1.415 . S
C2804 H2780 0.950 . S
C2804 C2799 1.363 . S
C2804 C2803 1.415 . S
C2805 H2781 0.951 . S
C2805 C2806 1.366 . S
C2805 C2807 1.388 . S
C2806 C2805 1.366 . S
C2806 C2810 1.385 . S
C2807 H2782 0.951 . S
C2807 C2805 1.388 . S
C2807 C2808 1.366 . S
C2808 C2807 1.366 . S
C2808 C2809 1.414 . S
C2808 C2811 1.499 . S
C2809 H2783 0.950 . S
C2809 C2808 1.414 . S
C2809 C2810 1.374 . S
C2810 H2784 0.950 . S
C2810 C2806 1.385 . S
C2810 C2809 1.374 . S
C2811 C2808 1.499 . S
C2811 C2812 1.373 . S
C2811 C2813 1.389 . S
C2812 H2785 0.950 . S
C2812 C2798 1.377 . S
C2812 C2811 1.373 . S
C2813 C2797 1.377 . S
C2813 C2811 1.389 . S
C2813 C2814 1.524 . S
C2814 C2813 1.524 . S
C2814 C2815 1.397 . S
C2814 C2819 1.363 . S
C2815 H2786 0.950 . S
C2815 C2814 1.397 . S
C2815 C2816 1.334 . S
C2816 H2787 0.950 . S
C2816 C2815 1.334 . S
C2816 C2817 1.287 . S
C2817 C2816 1.287 . S
C2817 C2818 1.524 . S
C2817 H2820 0.999 . S
C2818 H2788 0.950 . S
C2818 C2817 1.524 . S
C2818 C2819 1.415 . S
C2819 H2789 0.950 . S
C2819 C2814 1.363 . S
C2819 C2818 1.415 . S
H2820 C2817 0.999 . S
H2821 C2802 0.913 . S
H2822 C2840 0.951 . S
H2823 C2842 0.951 . S
H2824 C2844 0.950 . S
H2825 C2845 0.950 . S
H2826 C2847 0.950 . S
H2827 C2850 0.950 . S
H2828 C2851 0.950 . S
H2829 C2853 0.950 . S
H2830 C2854 0.950 . S
H2831 C2855 0.951 . S
H2832 C2857 0.951 . S
H2833 C2859 0.950 . S
H2834 C2860 0.950 . S
H2835 C2862 0.950 . S
H2836 C2865 0.950 . S
H2837 C2866 0.950 . S
H2838 C2868 0.950 . S
H2839 C2869 0.950 . S
C2840 H2822 0.951 . S
C2840 C2841 1.366 . S
C2840 C2842 1.388 . S
C2841 C2840 1.366 . S
C2841 C2845 1.385 . S
C2842 H2823 0.951 . S
C2842 C2840 1.388 . S
C2842 C2843 1.366 . S
C2843 C2842 1.366 . S
C2843 C2844 1.414 . S
C2843 C2846 1.499 . S
C2844 H2824 0.950 . S
C2844 C2843 1.414 . S
C2844 C2845 1.374 . S
C2845 H2825 0.950 . S
C2845 C2841 1.385 . S
C2845 C2844 1.374 . S
C2846 C2843 1.499 . S
C2846 C2847 1.373 . S
C2846 C2848 1.389 . S
C2847 H2826 0.950 . S
C2847 C2846 1.373 . S
C2847 C2863 1.377 . S
C2848 C2846 1.389 . S
C2848 C2849 1.524 . S
C2848 C2862 1.377 . S
C2849 C2848 1.524 . S
C2849 C2850 1.397 . S
C2849 C2854 1.363 . S
C2850 H2827 0.950 . S
C2850 C2849 1.397 . S
C2850 C2851 1.334 . S
C2851 H2828 0.950 . S
C2851 C2850 1.334 . S
C2851 C2852 1.287 . S
C2852 C2851 1.287 . S
C2852 C2853 1.524 . S
C2852 H2871 0.913 . S
C2853 H2829 0.950 . S
C2853 C2852 1.524 . S
C2853 C2854 1.415 . S
C2854 H2830 0.950 . S
C2854 C2849 1.363 . S
C2854 C2853 1.415 . S
C2855 H2831 0.951 . S
C2855 C2856 1.366 . S
C2855 C2857 1.388 . S
C2856 C2855 1.366 . S
C2856 C2860 1.385 . S
C2857 H2832 0.951 . S
C2857 C2855 1.388 . S
C2857 C2858 1.366 . S
C2858 C2857 1.366 . S
C2858 C2859 1.414 . S
C2858 C2861 1.499 . S
C2859 H2833 0.950 . S
C2859 C2858 1.414 . S
C2859 C2860 1.374 . S
C2860 H2834 0.950 . S
C2860 C2856 1.385 . S
C2860 C2859 1.374 . S
C2861 C2858 1.499 . S
C2861 C2862 1.373 . S
C2861 C2863 1.389 . S
C2862 H2835 0.950 . S
C2862 C2848 1.377 . S
C2862 C2861 1.373 . S
C2863 C2847 1.377 . S
C2863 C2861 1.389 . S
C2863 C2864 1.524 . S
C2864 C2863 1.524 . S
C2864 C2865 1.397 . S
C2864 C2869 1.363 . S
C2865 H2836 0.950 . S
C2865 C2864 1.397 . S
C2865 C2866 1.334 . S
C2866 H2837 0.950 . S
C2866 C2865 1.334 . S
C2866 C2867 1.287 . S
C2867 C2866 1.287 . S
C2867 C2868 1.524 . S
C2867 H2870 0.999 . S
C2868 H2838 0.950 . S
C2868 C2867 1.524 . S
C2868 C2869 1.415 . S
C2869 H2839 0.950 . S
C2869 C2864 1.363 . S
C2869 C2868 1.415 . S
H2870 C2867 0.999 . S
H2871 C2852 0.913 . S
H2872 C2890 0.951 . S
H2873 C2892 0.951 . S
H2874 C2894 0.950 . S
H2875 C2895 0.950 . S
H2876 C2897 0.950 . S
H2877 C2900 0.950 . S
H2878 C2901 0.950 . S
H2879 C2903 0.950 . S
H2880 C2904 0.950 . S
H2881 C2905 0.951 . S
H2882 C2907 0.951 . S
H2883 C2909 0.950 . S
H2884 C2910 0.950 . S
H2885 C2912 0.950 . S
H2886 C2915 0.950 . S
H2887 C2916 0.950 . S
H2888 C2918 0.950 . S
H2889 C2919 0.950 . S
C2890 H2872 0.951 . S
C2890 C2891 1.366 . S
C2890 C2892 1.388 . S
C2891 C2890 1.366 . S
C2891 C2895 1.385 . S
C2892 H2873 0.951 . S
C2892 C2890 1.388 . S
C2892 C2893 1.366 . S
C2893 C2892 1.366 . S
C2893 C2894 1.414 . S
C2893 C2896 1.499 . S
C2894 H2874 0.950 . S
C2894 C2893 1.414 . S
C2894 C2895 1.374 . S
C2895 H2875 0.950 . S
C2895 C2891 1.385 . S
C2895 C2894 1.374 . S
C2896 C2893 1.499 . S
C2896 C2897 1.373 . S
C2896 C2898 1.389 . S
C2897 H2876 0.950 . S
C2897 C2896 1.373 . S
C2897 C2913 1.377 . S
C2898 C2896 1.389 . S
C2898 C2899 1.524 . S
C2898 C2912 1.377 . S
C2899 C2898 1.524 . S
C2899 C2900 1.397 . S
C2899 C2904 1.363 . S
C2900 H2877 0.950 . S
C2900 C2899 1.397 . S
C2900 C2901 1.334 . S
C2901 H2878 0.950 . S
C2901 C2900 1.334 . S
C2901 C2902 1.287 . S
C2902 C2901 1.287 . S
C2902 C2903 1.524 . S
C2902 H2921 0.913 . S
C2903 H2879 0.950 . S
C2903 C2902 1.524 . S
C2903 C2904 1.415 . S
C2904 H2880 0.950 . S
C2904 C2899 1.363 . S
C2904 C2903 1.415 . S
C2905 H2881 0.951 . S
C2905 C2906 1.366 . S
C2905 C2907 1.388 . S
C2906 C2905 1.366 . S
C2906 C2910 1.385 . S
C2907 H2882 0.951 . S
C2907 C2905 1.388 . S
C2907 C2908 1.366 . S
C2908 C2907 1.366 . S
C2908 C2909 1.414 . S
C2908 C2911 1.499 . S
C2909 H2883 0.950 . S
C2909 C2908 1.414 . S
C2909 C2910 1.374 . S
C2910 H2884 0.950 . S
C2910 C2906 1.385 . S
C2910 C2909 1.374 . S
C2911 C2908 1.499 . S
C2911 C2912 1.373 . S
C2911 C2913 1.389 . S
C2912 H2885 0.950 . S
C2912 C2898 1.377 . S
C2912 C2911 1.373 . S
C2913 C2897 1.377 . S
C2913 C2911 1.389 . S
C2913 C2914 1.524 . S
C2914 C2913 1.524 . S
C2914 C2915 1.397 . S
C2914 C2919 1.363 . S
C2915 H2886 0.950 . S
C2915 C2914 1.397 . S
C2915 C2916 1.334 . S
C2916 H2887 0.950 . S
C2916 C2915 1.334 . S
C2916 C2917 1.287 . S
C2917 C2916 1.287 . S
C2917 C2918 1.524 . S
C2917 H2920 0.999 . S
C2918 H2888 0.950 . S
C2918 C2917 1.524 . S
C2918 C2919 1.415 . S
C2919 H2889 0.950 . S
C2919 C2914 1.363 . S
C2919 C2918 1.415 . S
H2920 C2917 0.999 . S
H2921 C2902 0.913 . S
H2922 C2940 0.951 . S
H2923 C2942 0.951 . S
H2924 C2944 0.950 . S
H2925 C2945 0.950 . S
H2926 C2947 0.950 . S
H2927 C2950 0.950 . S
H2928 C2951 0.950 . S
H2929 C2953 0.950 . S
H2930 C2954 0.950 . S
H2931 C2955 0.951 . S
H2932 C2957 0.951 . S
H2933 C2959 0.950 . S
H2934 C2960 0.950 . S
H2935 C2962 0.950 . S
H2936 C2965 0.950 . S
H2937 C2966 0.950 . S
H2938 C2968 0.950 . S
H2939 C2969 0.950 . S
C2940 H2922 0.951 . S
C2940 C2941 1.366 . S
C2940 C2942 1.388 . S
C2941 C2940 1.366 . S
C2941 C2945 1.385 . S
C2942 H2923 0.951 . S
C2942 C2940 1.388 . S
C2942 C2943 1.366 . S
C2943 C2942 1.366 . S
C2943 C2944 1.414 . S
C2943 C2946 1.499 . S
C2944 H2924 0.950 . S
C2944 C2943 1.414 . S
C2944 C2945 1.374 . S
C2945 H2925 0.950 . S
C2945 C2941 1.385 . S
C2945 C2944 1.374 . S
C2946 C2943 1.499 . S
C2946 C2947 1.373 . S
C2946 C2948 1.389 . S
C2947 H2926 0.950 . S
C2947 C2946 1.373 . S
C2947 C2963 1.377 . S
C2948 C2946 1.389 . S
C2948 C2949 1.524 . S
C2948 C2962 1.377 . S
C2949 C2948 1.524 . S
C2949 C2950 1.397 . S
C2949 C2954 1.363 . S
C2950 H2927 0.950 . S
C2950 C2949 1.397 . S
C2950 C2951 1.334 . S
C2951 H2928 0.950 . S
C2951 C2950 1.334 . S
C2951 C2952 1.287 . S
C2952 C2951 1.287 . S
C2952 C2953 1.524 . S
C2952 H2971 0.913 . S
C2953 H2929 0.950 . S
C2953 C2952 1.524 . S
C2953 C2954 1.415 . S
C2954 H2930 0.950 . S
C2954 C2949 1.363 . S
C2954 C2953 1.415 . S
C2955 H2931 0.951 . S
C2955 C2956 1.366 . S
C2955 C2957 1.388 . S
C2956 C2955 1.366 . S
C2956 C2960 1.385 . S
C2957 H2932 0.951 . S
C2957 C2955 1.388 . S
C2957 C2958 1.366 . S
C2958 C2957 1.366 . S
C2958 C2959 1.414 . S
C2958 C2961 1.499 . S
C2959 H2933 0.950 . S
C2959 C2958 1.414 . S
C2959 C2960 1.374 . S
C2960 H2934 0.950 . S
C2960 C2956 1.385 . S
C2960 C2959 1.374 . S
C2961 C2958 1.499 . S
C2961 C2962 1.373 . S
C2961 C2963 1.389 . S
C2962 H2935 0.950 . S
C2962 C2948 1.377 . S
C2962 C2961 1.373 . S
C2963 C2947 1.377 . S
C2963 C2961 1.389 . S
C2963 C2964 1.524 . S
C2964 C2963 1.524 . S
C2964 C2965 1.397 . S
C2964 C2969 1.363 . S
C2965 H2936 0.950 . S
C2965 C2964 1.397 . S
C2965 C2966 1.334 . S
C2966 H2937 0.950 . S
C2966 C2965 1.334 . S
C2966 C2967 1.287 . S
C2967 C2966 1.287 . S
C2967 C2968 1.524 . S
C2967 H2970 0.999 . S
C2968 H2938 0.950 . S
C2968 C2967 1.524 . S
C2968 C2969 1.415 . S
C2969 H2939 0.950 . S
C2969 C2964 1.363 . S
C2969 C2968 1.415 . S
H2970 C2967 0.999 . S
H2971 C2952 0.913 . S
H2972 C2990 0.951 . S
H2973 C2992 0.951 . S
H2974 C2994 0.950 . S
H2975 C2995 0.950 . S
H2976 C2997 0.950 . S
H2977 C3000 0.950 . S
H2978 C3001 0.950 . S
H2979 C3003 0.950 . S
H2980 C3004 0.950 . S
H2981 C3005 0.951 . S
H2982 C3007 0.951 . S
H2983 C3009 0.950 . S
H2984 C3010 0.950 . S
H2985 C3012 0.950 . S
H2986 C3015 0.950 . S
H2987 C3016 0.950 . S
H2988 C3018 0.950 . S
H2989 C3019 0.950 . S
C2990 H2972 0.951 . S
C2990 C2991 1.366 . S
C2990 C2992 1.388 . S
C2991 C2990 1.366 . S
C2991 C2995 1.385 . S
C2992 H2973 0.951 . S
C2992 C2990 1.388 . S
C2992 C2993 1.366 . S
C2993 C2992 1.366 . S
C2993 C2994 1.414 . S
C2993 C2996 1.499 . S
C2994 H2974 0.950 . S
C2994 C2993 1.414 . S
C2994 C2995 1.374 . S
C2995 H2975 0.950 . S
C2995 C2991 1.385 . S
C2995 C2994 1.374 . S
C2996 C2993 1.499 . S
C2996 C2997 1.373 . S
C2996 C2998 1.389 . S
C2997 H2976 0.950 . S
C2997 C2996 1.373 . S
C2997 C3013 1.377 . S
C2998 C2996 1.389 . S
C2998 C2999 1.524 . S
C2998 C3012 1.377 . S
C2999 C2998 1.524 . S
C2999 C3000 1.397 . S
C2999 C3004 1.363 . S
C3000 H2977 0.950 . S
C3000 C2999 1.397 . S
C3000 C3001 1.334 . S
C3001 H2978 0.950 . S
C3001 C3000 1.334 . S
C3001 C3002 1.287 . S
C3002 C3001 1.287 . S
C3002 C3003 1.524 . S
C3002 H3021 0.913 . S
C3003 H2979 0.950 . S
C3003 C3002 1.524 . S
C3003 C3004 1.415 . S
C3004 H2980 0.950 . S
C3004 C2999 1.363 . S
C3004 C3003 1.415 . S
C3005 H2981 0.951 . S
C3005 C3006 1.366 . S
C3005 C3007 1.388 . S
C3006 C3005 1.366 . S
C3006 C3010 1.385 . S
C3007 H2982 0.951 . S
C3007 C3005 1.388 . S
C3007 C3008 1.366 . S
C3008 C3007 1.366 . S
C3008 C3009 1.414 . S
C3008 C3011 1.499 . S
C3009 H2983 0.950 . S
C3009 C3008 1.414 . S
C3009 C3010 1.374 . S
C3010 H2984 0.950 . S
C3010 C3006 1.385 . S
C3010 C3009 1.374 . S
C3011 C3008 1.499 . S
C3011 C3012 1.373 . S
C3011 C3013 1.389 . S
C3012 H2985 0.950 . S
C3012 C2998 1.377 . S
C3012 C3011 1.373 . S
C3013 C2997 1.377 . S
C3013 C3011 1.389 . S
C3013 C3014 1.524 . S
C3014 C3013 1.524 . S
C3014 C3015 1.397 . S
C3014 C3019 1.363 . S
C3015 H2986 0.950 . S
C3015 C3014 1.397 . S
C3015 C3016 1.334 . S
C3016 H2987 0.950 . S
C3016 C3015 1.334 . S
C3016 C3017 1.287 . S
C3017 C3016 1.287 . S
C3017 C3018 1.524 . S
C3017 H3020 0.999 . S
C3018 H2988 0.950 . S
C3018 C3017 1.524 . S
C3018 C3019 1.415 . S
C3019 H2989 0.950 . S
C3019 C3014 1.363 . S
C3019 C3018 1.415 . S
H3020 C3017 0.999 . S
H3021 C3002 0.913 . S
H3022 C3040 0.951 . S
H3023 C3042 0.951 . S
H3024 C3044 0.950 . S
H3025 C3045 0.950 . S
H3026 C3047 0.950 . S
H3027 C3050 0.950 . S
H3028 C3051 0.950 . S
H3029 C3053 0.950 . S
H3030 C3054 0.950 . S
H3031 C3055 0.951 . S
H3032 C3057 0.951 . S
H3033 C3059 0.950 . S
H3034 C3060 0.950 . S
H3035 C3062 0.950 . S
H3036 C3065 0.950 . S
H3037 C3066 0.950 . S
H3038 C3068 0.950 . S
H3039 C3069 0.950 . S
C3040 H3022 0.951 . S
C3040 C3041 1.366 . S
C3040 C3042 1.388 . S
C3041 C3040 1.366 . S
C3041 C3045 1.385 . S
C3042 H3023 0.951 . S
C3042 C3040 1.388 . S
C3042 C3043 1.366 . S
C3043 C3042 1.366 . S
C3043 C3044 1.414 . S
C3043 C3046 1.499 . S
C3044 H3024 0.950 . S
C3044 C3043 1.414 . S
C3044 C3045 1.374 . S
C3045 H3025 0.950 . S
C3045 C3041 1.385 . S
C3045 C3044 1.374 . S
C3046 C3043 1.499 . S
C3046 C3047 1.373 . S
C3046 C3048 1.389 . S
C3047 H3026 0.950 . S
C3047 C3046 1.373 . S
C3047 C3063 1.377 . S
C3048 C3046 1.389 . S
C3048 C3049 1.524 . S
C3048 C3062 1.377 . S
C3049 C3048 1.524 . S
C3049 C3050 1.397 . S
C3049 C3054 1.363 . S
C3050 H3027 0.950 . S
C3050 C3049 1.397 . S
C3050 C3051 1.334 . S
C3051 H3028 0.950 . S
C3051 C3050 1.334 . S
C3051 C3052 1.287 . S
C3052 C3051 1.287 . S
C3052 C3053 1.524 . S
C3052 H3071 0.913 . S
C3053 H3029 0.950 . S
C3053 C3052 1.524 . S
C3053 C3054 1.415 . S
C3054 H3030 0.950 . S
C3054 C3049 1.363 . S
C3054 C3053 1.415 . S
C3055 H3031 0.951 . S
C3055 C3056 1.366 . S
C3055 C3057 1.388 . S
C3056 C3055 1.366 . S
C3056 C3060 1.385 . S
C3057 H3032 0.951 . S
C3057 C3055 1.388 . S
C3057 C3058 1.366 . S
C3058 C3057 1.366 . S
C3058 C3059 1.414 . S
C3058 C3061 1.499 . S
C3059 H3033 0.950 . S
C3059 C3058 1.414 . S
C3059 C3060 1.374 . S
C3060 H3034 0.950 . S
C3060 C3056 1.385 . S
C3060 C3059 1.374 . S
C3061 C3058 1.499 . S
C3061 C3062 1.373 . S
C3061 C3063 1.389 . S
C3062 H3035 0.950 . S
C3062 C3048 1.377 . S
C3062 C3061 1.373 . S
C3063 C3047 1.377 . S
C3063 C3061 1.389 . S
C3063 C3064 1.524 . S
C3064 C3063 1.524 . S
C3064 C3065 1.397 . S
C3064 C3069 1.363 . S
C3065 H3036 0.950 . S
C3065 C3064 1.397 . S
C3065 C3066 1.334 . S
C3066 H3037 0.950 . S
C3066 C3065 1.334 . S
C3066 C3067 1.287 . S
C3067 C3066 1.287 . S
C3067 C3068 1.524 . S
C3067 H3070 0.999 . S
C3068 H3038 0.950 . S
C3068 C3067 1.524 . S
C3068 C3069 1.415 . S
C3069 H3039 0.950 . S
C3069 C3064 1.363 . S
C3069 C3068 1.415 . S
H3070 C3067 0.999 . S
H3071 C3052 0.913 . S
H3072 C3090 0.951 . S
H3073 C3092 0.951 . S
H3074 C3094 0.950 . S
H3075 C3095 0.950 . S
H3076 C3097 0.950 . S
H3077 C3100 0.950 . S
H3078 C3101 0.950 . S
H3079 C3103 0.950 . S
H3080 C3104 0.950 . S
H3081 C3105 0.951 . S
H3082 C3107 0.951 . S
H3083 C3109 0.950 . S
H3084 C3110 0.950 . S
H3085 C3112 0.950 . S
H3086 C3115 0.950 . S
H3087 C3116 0.950 . S
H3088 C3118 0.950 . S
H3089 C3119 0.950 . S
C3090 H3072 0.951 . S
C3090 C3091 1.366 . S
C3090 C3092 1.388 . S
C3091 C3090 1.366 . S
C3091 C3095 1.385 . S
C3092 H3073 0.951 . S
C3092 C3090 1.388 . S
C3092 C3093 1.366 . S
C3093 C3092 1.366 . S
C3093 C3094 1.414 . S
C3093 C3096 1.499 . S
C3094 H3074 0.950 . S
C3094 C3093 1.414 . S
C3094 C3095 1.374 . S
C3095 H3075 0.950 . S
C3095 C3091 1.385 . S
C3095 C3094 1.374 . S
C3096 C3093 1.499 . S
C3096 C3097 1.373 . S
C3096 C3098 1.389 . S
C3097 H3076 0.950 . S
C3097 C3096 1.373 . S
C3097 C3113 1.377 . S
C3098 C3096 1.389 . S
C3098 C3099 1.524 . S
C3098 C3112 1.377 . S
C3099 C3098 1.524 . S
C3099 C3100 1.397 . S
C3099 C3104 1.363 . S
C3100 H3077 0.950 . S
C3100 C3099 1.397 . S
C3100 C3101 1.334 . S
C3101 H3078 0.950 . S
C3101 C3100 1.334 . S
C3101 C3102 1.287 . S
C3102 C3101 1.287 . S
C3102 C3103 1.524 . S
C3102 H3121 0.913 . S
C3103 H3079 0.950 . S
C3103 C3102 1.524 . S
C3103 C3104 1.415 . S
C3104 H3080 0.950 . S
C3104 C3099 1.363 . S
C3104 C3103 1.415 . S
C3105 H3081 0.951 . S
C3105 C3106 1.366 . S
C3105 C3107 1.388 . S
C3106 C3105 1.366 . S
C3106 C3110 1.385 . S
C3107 H3082 0.951 . S
C3107 C3105 1.388 . S
C3107 C3108 1.366 . S
C3108 C3107 1.366 . S
C3108 C3109 1.414 . S
C3108 C3111 1.499 . S
C3109 H3083 0.950 . S
C3109 C3108 1.414 . S
C3109 C3110 1.374 . S
C3110 H3084 0.950 . S
C3110 C3106 1.385 . S
C3110 C3109 1.374 . S
C3111 C3108 1.499 . S
C3111 C3112 1.373 . S
C3111 C3113 1.389 . S
C3112 H3085 0.950 . S
C3112 C3098 1.377 . S
C3112 C3111 1.373 . S
C3113 C3097 1.377 . S
C3113 C3111 1.389 . S
C3113 C3114 1.524 . S
C3114 C3113 1.524 . S
C3114 C3115 1.397 . S
C3114 C3119 1.363 . S
C3115 H3086 0.950 . S
C3115 C3114 1.397 . S
C3115 C3116 1.334 . S
C3116 H3087 0.950 . S
C3116 C3115 1.334 . S
C3116 C3117 1.287 . S
C3117 C3116 1.287 . S
C3117 C3118 1.524 . S
C3117 H3120 0.999 . S
C3118 H3088 0.950 . S
C3118 C3117 1.524 . S
C3118 C3119 1.415 . S
C3119 H3089 0.950 . S
C3119 C3114 1.363 . S
C3119 C3118 1.415 . S
H3120 C3117 0.999 . S
H3121 C3102 0.913 . S
H3122 C3140 0.951 . S
H3123 C3142 0.951 . S
H3124 C3144 0.950 . S
H3125 C3145 0.950 . S
H3126 C3147 0.950 . S
H3127 C3150 0.950 . S
H3128 C3151 0.950 . S
H3129 C3153 0.950 . S
H3130 C3154 0.950 . S
H3131 C3155 0.951 . S
H3132 C3157 0.951 . S
H3133 C3159 0.950 . S
H3134 C3160 0.950 . S
H3135 C3162 0.950 . S
H3136 C3165 0.950 . S
H3137 C3166 0.950 . S
H3138 C3168 0.950 . S
H3139 C3169 0.950 . S
C3140 H3122 0.951 . S
C3140 C3141 1.366 . S
C3140 C3142 1.388 . S
C3141 C3140 1.366 . S
C3141 C3145 1.385 . S
C3142 H3123 0.951 . S
C3142 C3140 1.388 . S
C3142 C3143 1.366 . S
C3143 C3142 1.366 . S
C3143 C3144 1.414 . S
C3143 C3146 1.499 . S
C3144 H3124 0.950 . S
C3144 C3143 1.414 . S
C3144 C3145 1.374 . S
C3145 H3125 0.950 . S
C3145 C3141 1.385 . S
C3145 C3144 1.374 . S
C3146 C3143 1.499 . S
C3146 C3147 1.373 . S
C3146 C3148 1.389 . S
C3147 H3126 0.950 . S
C3147 C3146 1.373 . S
C3147 C3163 1.377 . S
C3148 C3146 1.389 . S
C3148 C3149 1.524 . S
C3148 C3162 1.377 . S
C3149 C3148 1.524 . S
C3149 C3150 1.397 . S
C3149 C3154 1.363 . S
C3150 H3127 0.950 . S
C3150 C3149 1.397 . S
C3150 C3151 1.334 . S
C3151 H3128 0.950 . S
C3151 C3150 1.334 . S
C3151 C3152 1.287 . S
C3152 C3151 1.287 . S
C3152 C3153 1.524 . S
C3152 H3171 0.913 . S
C3153 H3129 0.950 . S
C3153 C3152 1.524 . S
C3153 C3154 1.415 . S
C3154 H3130 0.950 . S
C3154 C3149 1.363 . S
C3154 C3153 1.415 . S
C3155 H3131 0.951 . S
C3155 C3156 1.366 . S
C3155 C3157 1.388 . S
C3156 C3155 1.366 . S
C3156 C3160 1.385 . S
C3157 H3132 0.951 . S
C3157 C3155 1.388 . S
C3157 C3158 1.366 . S
C3158 C3157 1.366 . S
C3158 C3159 1.414 . S
C3158 C3161 1.499 . S
C3159 H3133 0.950 . S
C3159 C3158 1.414 . S
C3159 C3160 1.374 . S
C3160 H3134 0.950 . S
C3160 C3156 1.385 . S
C3160 C3159 1.374 . S
C3161 C3158 1.499 . S
C3161 C3162 1.373 . S
C3161 C3163 1.389 . S
C3162 H3135 0.950 . S
C3162 C3148 1.377 . S
C3162 C3161 1.373 . S
C3163 C3147 1.377 . S
C3163 C3161 1.389 . S
C3163 C3164 1.524 . S
C3164 C3163 1.524 . S
C3164 C3165 1.397 . S
C3164 C3169 1.363 . S
C3165 H3136 0.950 . S
C3165 C3164 1.397 . S
C3165 C3166 1.334 . S
C3166 H3137 0.950 . S
C3166 C3165 1.334 . S
C3166 C3167 1.287 . S
C3167 C3166 1.287 . S
C3167 C3168 1.524 . S
C3167 H3170 0.999 . S
C3168 H3138 0.950 . S
C3168 C3167 1.524 . S
C3168 C3169 1.415 . S
C3169 H3139 0.950 . S
C3169 C3164 1.363 . S
C3169 C3168 1.415 . S
H3170 C3167 0.999 . S
H3171 C3152 0.913 . S
H3172 C3190 0.951 . S
H3173 C3192 0.951 . S
H3174 C3194 0.950 . S
H3175 C3195 0.950 . S
H3176 C3197 0.950 . S
H3177 C3200 0.950 . S
H3178 C3201 0.950 . S
H3179 C3203 0.950 . S
H3180 C3204 0.950 . S
H3181 C3205 0.951 . S
H3182 C3207 0.951 . S
H3183 C3209 0.950 . S
H3184 C3210 0.950 . S
H3185 C3212 0.950 . S
H3186 C3215 0.950 . S
H3187 C3216 0.950 . S
H3188 C3218 0.950 . S
H3189 C3219 0.950 . S
C3190 H3172 0.951 . S
C3190 C3191 1.366 . S
C3190 C3192 1.388 . S
C3191 C3190 1.366 . S
C3191 C3195 1.385 . S
C3192 H3173 0.951 . S
C3192 C3190 1.388 . S
C3192 C3193 1.366 . S
C3193 C3192 1.366 . S
C3193 C3194 1.414 . S
C3193 C3196 1.499 . S
C3194 H3174 0.950 . S
C3194 C3193 1.414 . S
C3194 C3195 1.374 . S
C3195 H3175 0.950 . S
C3195 C3191 1.385 . S
C3195 C3194 1.374 . S
C3196 C3193 1.499 . S
C3196 C3197 1.373 . S
C3196 C3198 1.389 . S
C3197 H3176 0.950 . S
C3197 C3196 1.373 . S
C3197 C3213 1.377 . S
C3198 C3196 1.389 . S
C3198 C3199 1.524 . S
C3198 C3212 1.377 . S
C3199 C3198 1.524 . S
C3199 C3200 1.397 . S
C3199 C3204 1.363 . S
C3200 H3177 0.950 . S
C3200 C3199 1.397 . S
C3200 C3201 1.334 . S
C3201 H3178 0.950 . S
C3201 C3200 1.334 . S
C3201 C3202 1.287 . S
C3202 C3201 1.287 . S
C3202 C3203 1.524 . S
C3202 H3221 0.913 . S
C3203 H3179 0.950 . S
C3203 C3202 1.524 . S
C3203 C3204 1.415 . S
C3204 H3180 0.950 . S
C3204 C3199 1.363 . S
C3204 C3203 1.415 . S
C3205 H3181 0.951 . S
C3205 C3206 1.366 . S
C3205 C3207 1.388 . S
C3206 C3205 1.366 . S
C3206 C3210 1.385 . S
C3207 H3182 0.951 . S
C3207 C3205 1.388 . S
C3207 C3208 1.366 . S
C3208 C3207 1.366 . S
C3208 C3209 1.414 . S
C3208 C3211 1.499 . S
C3209 H3183 0.950 . S
C3209 C3208 1.414 . S
C3209 C3210 1.374 . S
C3210 H3184 0.950 . S
C3210 C3206 1.385 . S
C3210 C3209 1.374 . S
C3211 C3208 1.499 . S
C3211 C3212 1.373 . S
C3211 C3213 1.389 . S
C3212 H3185 0.950 . S
C3212 C3198 1.377 . S
C3212 C3211 1.373 . S
C3213 C3197 1.377 . S
C3213 C3211 1.389 . S
C3213 C3214 1.524 . S
C3214 C3213 1.524 . S
C3214 C3215 1.397 . S
C3214 C3219 1.363 . S
C3215 H3186 0.950 . S
C3215 C3214 1.397 . S
C3215 C3216 1.334 . S
C3216 H3187 0.950 . S
C3216 C3215 1.334 . S
C3216 C3217 1.287 . S
C3217 C3216 1.287 . S
C3217 C3218 1.524 . S
C3217 H3220 0.999 . S
C3218 H3188 0.950 . S
C3218 C3217 1.524 . S
C3218 C3219 1.415 . S
C3219 H3189 0.950 . S
C3219 C3214 1.363 . S
C3219 C3218 1.415 . S
H3220 C3217 0.999 . S
H3221 C3202 0.913 . S
H3222 C3240 0.951 . S
H3223 C3242 0.951 . S
H3224 C3244 0.950 . S
H3225 C3245 0.950 . S
H3226 C3247 0.950 . S
H3227 C3250 0.950 . S
H3228 C3251 0.950 . S
H3229 C3253 0.950 . S
H3230 C3254 0.950 . S
H3231 C3255 0.951 . S
H3232 C3257 0.951 . S
H3233 C3259 0.950 . S
H3234 C3260 0.950 . S
H3235 C3262 0.950 . S
H3236 C3265 0.950 . S
H3237 C3266 0.950 . S
H3238 C3268 0.950 . S
H3239 C3269 0.950 . S
C3240 H3222 0.951 . S
C3240 C3241 1.366 . S
C3240 C3242 1.388 . S
C3241 C3240 1.366 . S
C3241 C3245 1.385 . S
C3242 H3223 0.951 . S
C3242 C3240 1.388 . S
C3242 C3243 1.366 . S
C3243 C3242 1.366 . S
C3243 C3244 1.414 . S
C3243 C3246 1.499 . S
C3244 H3224 0.950 . S
C3244 C3243 1.414 . S
C3244 C3245 1.374 . S
C3245 H3225 0.950 . S
C3245 C3241 1.385 . S
C3245 C3244 1.374 . S
C3246 C3243 1.499 . S
C3246 C3247 1.373 . S
C3246 C3248 1.389 . S
C3247 H3226 0.950 . S
C3247 C3246 1.373 . S
C3247 C3263 1.377 . S
C3248 C3246 1.389 . S
C3248 C3249 1.524 . S
C3248 C3262 1.377 . S
C3249 C3248 1.524 . S
C3249 C3250 1.397 . S
C3249 C3254 1.363 . S
C3250 H3227 0.950 . S
C3250 C3249 1.397 . S
C3250 C3251 1.334 . S
C3251 H3228 0.950 . S
C3251 C3250 1.334 . S
C3251 C3252 1.287 . S
C3252 C3251 1.287 . S
C3252 C3253 1.524 . S
C3252 H3271 0.913 . S
C3253 H3229 0.950 . S
C3253 C3252 1.524 . S
C3253 C3254 1.415 . S
C3254 H3230 0.950 . S
C3254 C3249 1.363 . S
C3254 C3253 1.415 . S
C3255 H3231 0.951 . S
C3255 C3256 1.366 . S
C3255 C3257 1.388 . S
C3256 C3255 1.366 . S
C3256 C3260 1.385 . S
C3257 H3232 0.951 . S
C3257 C3255 1.388 . S
C3257 C3258 1.366 . S
C3258 C3257 1.366 . S
C3258 C3259 1.414 . S
C3258 C3261 1.499 . S
C3259 H3233 0.950 . S
C3259 C3258 1.414 . S
C3259 C3260 1.374 . S
C3260 H3234 0.950 . S
C3260 C3256 1.385 . S
C3260 C3259 1.374 . S
C3261 C3258 1.499 . S
C3261 C3262 1.373 . S
C3261 C3263 1.389 . S
C3262 H3235 0.950 . S
C3262 C3248 1.377 . S
C3262 C3261 1.373 . S
C3263 C3247 1.377 . S
C3263 C3261 1.389 . S
C3263 C3264 1.524 . S
C3264 C3263 1.524 . S
C3264 C3265 1.397 . S
C3264 C3269 1.363 . S
C3265 H3236 0.950 . S
C3265 C3264 1.397 . S
C3265 C3266 1.334 . S
C3266 H3237 0.950 . S
C3266 C3265 1.334 . S
C3266 C3267 1.287 . S
C3267 C3266 1.287 . S
C3267 C3268 1.524 . S
C3267 H3270 0.999 . S
C3268 H3238 0.950 . S
C3268 C3267 1.524 . S
C3268 C3269 1.415 . S
C3269 H3239 0.950 . S
C3269 C3264 1.363 . S
C3269 C3268 1.415 . S
H3270 C3267 0.999 . S
H3271 C3252 0.913 . S
H3272 C3290 0.951 . S
H3273 C3292 0.951 . S
H3274 C3294 0.950 . S
H3275 C3295 0.950 . S
H3276 C3297 0.950 . S
H3277 C3300 0.950 . S
H3278 C3301 0.950 . S
H3279 C3303 0.950 . S
H3280 C3304 0.950 . S
H3281 C3305 0.951 . S
H3282 C3307 0.951 . S
H3283 C3309 0.950 . S
H3284 C3310 0.950 . S
H3285 C3312 0.950 . S
H3286 C3315 0.950 . S
H3287 C3316 0.950 . S
H3288 C3318 0.950 . S
H3289 C3319 0.950 . S
C3290 H3272 0.951 . S
C3290 C3291 1.366 . S
C3290 C3292 1.388 . S
C3291 C3290 1.366 . S
C3291 C3295 1.385 . S
C3292 H3273 0.951 . S
C3292 C3290 1.388 . S
C3292 C3293 1.366 . S
C3293 C3292 1.366 . S
C3293 C3294 1.414 . S
C3293 C3296 1.499 . S
C3294 H3274 0.950 . S
C3294 C3293 1.414 . S
C3294 C3295 1.374 . S
C3295 H3275 0.950 . S
C3295 C3291 1.385 . S
C3295 C3294 1.374 . S
C3296 C3293 1.499 . S
C3296 C3297 1.373 . S
C3296 C3298 1.389 . S
C3297 H3276 0.950 . S
C3297 C3296 1.373 . S
C3297 C3313 1.377 . S
C3298 C3296 1.389 . S
C3298 C3299 1.524 . S
C3298 C3312 1.377 . S
C3299 C3298 1.524 . S
C3299 C3300 1.397 . S
C3299 C3304 1.363 . S
C3300 H3277 0.950 . S
C3300 C3299 1.397 . S
C3300 C3301 1.334 . S
C3301 H3278 0.950 . S
C3301 C3300 1.334 . S
C3301 C3302 1.287 . S
C3302 C3301 1.287 . S
C3302 C3303 1.524 . S
C3302 H3321 0.913 . S
C3303 H3279 0.950 . S
C3303 C3302 1.524 . S
C3303 C3304 1.415 . S
C3304 H3280 0.950 . S
C3304 C3299 1.363 . S
C3304 C3303 1.415 . S
C3305 H3281 0.951 . S
C3305 C3306 1.366 . S
C3305 C3307 1.388 . S
C3306 C3305 1.366 . S
C3306 C3310 1.385 . S
C3307 H3282 0.951 . S
C3307 C3305 1.388 . S
C3307 C3308 1.366 . S
C3308 C3307 1.366 . S
C3308 C3309 1.414 . S
C3308 C3311 1.499 . S
C3309 H3283 0.950 . S
C3309 C3308 1.414 . S
C3309 C3310 1.374 . S
C3310 H3284 0.950 . S
C3310 C3306 1.385 . S
C3310 C3309 1.374 . S
C3311 C3308 1.499 . S
C3311 C3312 1.373 . S
C3311 C3313 1.389 . S
C3312 H3285 0.950 . S
C3312 C3298 1.377 . S
C3312 C3311 1.373 . S
C3313 C3297 1.377 . S
C3313 C3311 1.389 . S
C3313 C3314 1.524 . S
C3314 C3313 1.524 . S
C3314 C3315 1.397 . S
C3314 C3319 1.363 . S
C3315 H3286 0.950 . S
C3315 C3314 1.397 . S
C3315 C3316 1.334 . S
C3316 H3287 0.950 . S
C3316 C3315 1.334 . S
C3316 C3317 1.287 . S
C3317 C3316 1.287 . S
C3317 C3318 1.524 . S
C3317 H3320 0.999 . S
C3318 H3288 0.950 . S
C3318 C3317 1.524 . S
C3318 C3319 1.415 . S
C3319 H3289 0.950 . S
C3319 C3314 1.363 . S
C3319 C3318 1.415 . S
H3320 C3317 0.999 . S
H3321 C3302 0.913 . S
H3322 C3340 0.951 . S
H3323 C3342 0.951 . S
H3324 C3344 0.950 . S
H3325 C3345 0.950 . S
H3326 C3347 0.950 . S
H3327 C3350 0.950 . S
H3328 C3351 0.950 . S
H3329 C3353 0.950 . S
H3330 C3354 0.950 . S
H3331 C3355 0.951 . S
H3332 C3357 0.951 . S
H3333 C3359 0.950 . S
H3334 C3360 0.950 . S
H3335 C3362 0.950 . S
H3336 C3365 0.950 . S
H3337 C3366 0.950 . S
H3338 C3368 0.950 . S
H3339 C3369 0.950 . S
C3340 H3322 0.951 . S
C3340 C3341 1.366 . S
C3340 C3342 1.388 . S
C3341 C3340 1.366 . S
C3341 C3345 1.385 . S
C3342 H3323 0.951 . S
C3342 C3340 1.388 . S
C3342 C3343 1.366 . S
C3343 C3342 1.366 . S
C3343 C3344 1.414 . S
C3343 C3346 1.499 . S
C3344 H3324 0.950 . S
C3344 C3343 1.414 . S
C3344 C3345 1.374 . S
C3345 H3325 0.950 . S
C3345 C3341 1.385 . S
C3345 C3344 1.374 . S
C3346 C3343 1.499 . S
C3346 C3347 1.373 . S
C3346 C3348 1.389 . S
C3347 H3326 0.950 . S
C3347 C3346 1.373 . S
C3347 C3363 1.377 . S
C3348 C3346 1.389 . S
C3348 C3349 1.524 . S
C3348 C3362 1.377 . S
C3349 C3348 1.524 . S
C3349 C3350 1.397 . S
C3349 C3354 1.363 . S
C3350 H3327 0.950 . S
C3350 C3349 1.397 . S
C3350 C3351 1.334 . S
C3351 H3328 0.950 . S
C3351 C3350 1.334 . S
C3351 C3352 1.287 . S
C3352 C3351 1.287 . S
C3352 C3353 1.524 . S
C3352 H3371 0.913 . S
C3353 H3329 0.950 . S
C3353 C3352 1.524 . S
C3353 C3354 1.415 . S
C3354 H3330 0.950 . S
C3354 C3349 1.363 . S
C3354 C3353 1.415 . S
C3355 H3331 0.951 . S
C3355 C3356 1.366 . S
C3355 C3357 1.388 . S
C3356 C3355 1.366 . S
C3356 C3360 1.385 . S
C3357 H3332 0.951 . S
C3357 C3355 1.388 . S
C3357 C3358 1.366 . S
C3358 C3357 1.366 . S
C3358 C3359 1.414 . S
C3358 C3361 1.499 . S
C3359 H3333 0.950 . S
C3359 C3358 1.414 . S
C3359 C3360 1.374 . S
C3360 H3334 0.950 . S
C3360 C3356 1.385 . S
C3360 C3359 1.374 . S
C3361 C3358 1.499 . S
C3361 C3362 1.373 . S
C3361 C3363 1.389 . S
C3362 H3335 0.950 . S
C3362 C3348 1.377 . S
C3362 C3361 1.373 . S
C3363 C3347 1.377 . S
C3363 C3361 1.389 . S
C3363 C3364 1.524 . S
C3364 C3363 1.524 . S
C3364 C3365 1.397 . S
C3364 C3369 1.363 . S
C3365 H3336 0.950 . S
C3365 C3364 1.397 . S
C3365 C3366 1.334 . S
C3366 H3337 0.950 . S
C3366 C3365 1.334 . S
C3366 C3367 1.287 . S
C3367 C3366 1.287 . S
C3367 C3368 1.524 . S
C3367 H3370 0.999 . S
C3368 H3338 0.950 . S
C3368 C3367 1.524 . S
C3368 C3369 1.415 . S
C3369 H3339 0.950 . S
C3369 C3364 1.363 . S
C3369 C3368 1.415 . S
H3370 C3367 0.999 . S
H3371 C3352 0.913 . S
H3372 C3390 0.951 . S
H3373 C3392 0.951 . S
H3374 C3394 0.950 . S
H3375 C3395 0.950 . S
H3376 C3397 0.950 . S
H3377 C3400 0.950 . S
H3378 C3401 0.950 . S
H3379 C3403 0.950 . S
H3380 C3404 0.950 . S
H3381 C3405 0.951 . S
H3382 C3407 0.951 . S
H3383 C3409 0.950 . S
H3384 C3410 0.950 . S
H3385 C3412 0.950 . S
H3386 C3415 0.950 . S
H3387 C3416 0.950 . S
H3388 C3418 0.950 . S
H3389 C3419 0.950 . S
C3390 H3372 0.951 . S
C3390 C3391 1.366 . S
C3390 C3392 1.388 . S
C3391 C3390 1.366 . S
C3391 C3395 1.385 . S
C3392 H3373 0.951 . S
C3392 C3390 1.388 . S
C3392 C3393 1.366 . S
C3393 C3392 1.366 . S
C3393 C3394 1.414 . S
C3393 C3396 1.499 . S
C3394 H3374 0.950 . S
C3394 C3393 1.414 . S
C3394 C3395 1.374 . S
C3395 H3375 0.950 . S
C3395 C3391 1.385 . S
C3395 C3394 1.374 . S
C3396 C3393 1.499 . S
C3396 C3397 1.373 . S
C3396 C3398 1.389 . S
C3397 H3376 0.950 . S
C3397 C3396 1.373 . S
C3397 C3413 1.377 . S
C3398 C3396 1.389 . S
C3398 C3399 1.524 . S
C3398 C3412 1.377 . S
C3399 C3398 1.524 . S
C3399 C3400 1.397 . S
C3399 C3404 1.363 . S
C3400 H3377 0.950 . S
C3400 C3399 1.397 . S
C3400 C3401 1.334 . S
C3401 H3378 0.950 . S
C3401 C3400 1.334 . S
C3401 C3402 1.287 . S
C3402 C3401 1.287 . S
C3402 C3403 1.524 . S
C3402 H3421 0.913 . S
C3403 H3379 0.950 . S
C3403 C3402 1.524 . S
C3403 C3404 1.415 . S
C3404 H3380 0.950 . S
C3404 C3399 1.363 . S
C3404 C3403 1.415 . S
C3405 H3381 0.951 . S
C3405 C3406 1.366 . S
C3405 C3407 1.388 . S
C3406 C3405 1.366 . S
C3406 C3410 1.385 . S
C3407 H3382 0.951 . S
C3407 C3405 1.388 . S
C3407 C3408 1.366 . S
C3408 C3407 1.366 . S
C3408 C3409 1.414 . S
C3408 C3411 1.499 . S
C3409 H3383 0.950 . S
C3409 C3408 1.414 . S
C3409 C3410 1.374 . S
C3410 H3384 0.950 . S
C3410 C3406 1.385 . S
C3410 C3409 1.374 . S
C3411 C3408 1.499 . S
C3411 C3412 1.373 . S
C3411 C3413 1.389 . S
C3412 H3385 0.950 . S
C3412 C3398 1.377 . S
C3412 C3411 1.373 . S
C3413 C3397 1.377 . S
C3413 C3411 1.389 . S
C3413 C3414 1.524 . S
C3414 C3413 1.524 . S
C3414 C3415 1.397 . S
C3414 C3419 1.363 . S
C3415 H3386 0.950 . S
C3415 C3414 1.397 . S
C3415 C3416 1.334 . S
C3416 H3387 0.950 . S
C3416 C3415 1.334 . S
C3416 C3417 1.287 . S
C3417 C3416 1.287 . S
C3417 C3418 1.524 . S
C3417 H3420 0.999 . S
C3418 H3388 0.950 . S
C3418 C3417 1.524 . S
C3418 C3419 1.415 . S
C3419 H3389 0.950 . S
C3419 C3414 1.363 . S
C3419 C3418 1.415 . S
H3420 C3417 0.999 . S
H3421 C3402 0.913 . S
H3422 C3440 0.951 . S
H3423 C3442 0.951 . S
H3424 C3444 0.950 . S
H3425 C3445 0.950 . S
H3426 C3447 0.950 . S
H3427 C3450 0.950 . S
H3428 C3451 0.950 . S
H3429 C3453 0.950 . S
H3430 C3454 0.950 . S
H3431 C3455 0.951 . S
H3432 C3457 0.951 . S
H3433 C3459 0.950 . S
H3434 C3460 0.950 . S
H3435 C3462 0.950 . S
H3436 C3465 0.950 . S
H3437 C3466 0.950 . S
H3438 C3468 0.950 . S
H3439 C3469 0.950 . S
C3440 H3422 0.951 . S
C3440 C3441 1.366 . S
C3440 C3442 1.388 . S
C3441 C3440 1.366 . S
C3441 C3445 1.385 . S
C3442 H3423 0.951 . S
C3442 C3440 1.388 . S
C3442 C3443 1.366 . S
C3443 C3442 1.366 . S
C3443 C3444 1.414 . S
C3443 C3446 1.499 . S
C3444 H3424 0.950 . S
C3444 C3443 1.414 . S
C3444 C3445 1.374 . S
C3445 H3425 0.950 . S
C3445 C3441 1.385 . S
C3445 C3444 1.374 . S
C3446 C3443 1.499 . S
C3446 C3447 1.373 . S
C3446 C3448 1.389 . S
C3447 H3426 0.950 . S
C3447 C3446 1.373 . S
C3447 C3463 1.377 . S
C3448 C3446 1.389 . S
C3448 C3449 1.524 . S
C3448 C3462 1.377 . S
C3449 C3448 1.524 . S
C3449 C3450 1.397 . S
C3449 C3454 1.363 . S
C3450 H3427 0.950 . S
C3450 C3449 1.397 . S
C3450 C3451 1.334 . S
C3451 H3428 0.950 . S
C3451 C3450 1.334 . S
C3451 C3452 1.287 . S
C3452 C3451 1.287 . S
C3452 C3453 1.524 . S
C3452 H3471 0.913 . S
C3453 H3429 0.950 . S
C3453 C3452 1.524 . S
C3453 C3454 1.415 . S
C3454 H3430 0.950 . S
C3454 C3449 1.363 . S
C3454 C3453 1.415 . S
C3455 H3431 0.951 . S
C3455 C3456 1.366 . S
C3455 C3457 1.388 . S
C3456 C3455 1.366 . S
C3456 C3460 1.385 . S
C3457 H3432 0.951 . S
C3457 C3455 1.388 . S
C3457 C3458 1.366 . S
C3458 C3457 1.366 . S
C3458 C3459 1.414 . S
C3458 C3461 1.499 . S
C3459 H3433 0.950 . S
C3459 C3458 1.414 . S
C3459 C3460 1.374 . S
C3460 H3434 0.950 . S
C3460 C3456 1.385 . S
C3460 C3459 1.374 . S
C3461 C3458 1.499 . S
C3461 C3462 1.373 . S
C3461 C3463 1.389 . S
C3462 H3435 0.950 . S
C3462 C3448 1.377 . S
C3462 C3461 1.373 . S
C3463 C3447 1.377 . S
C3463 C3461 1.389 . S
C3463 C3464 1.524 . S
C3464 C3463 1.524 . S
C3464 C3465 1.397 . S
C3464 C3469 1.363 . S
C3465 H3436 0.950 . S
C3465 C3464 1.397 . S
C3465 C3466 1.334 . S
C3466 H3437 0.950 . S
C3466 C3465 1.334 . S
C3466 C3467 1.287 . S
C3467 C3466 1.287 . S
C3467 C3468 1.524 . S
C3467 H3470 0.999 . S
C3468 H3438 0.950 . S
C3468 C3467 1.524 . S
C3468 C3469 1.415 . S
C3469 H3439 0.950 . S
C3469 C3464 1.363 . S
C3469 C3468 1.415 . S
H3470 C3467 0.999 . S
H3471 C3452 0.913 . S
H3472 C3490 0.951 . S
H3473 C3492 0.951 . S
H3474 C3494 0.950 . S
H3475 C3495 0.950 . S
H3476 C3497 0.950 . S
H3477 C3500 0.950 . S
H3478 C3501 0.950 . S
H3479 C3503 0.950 . S
H3480 C3504 0.950 . S
H3481 C3505 0.951 . S
H3482 C3507 0.951 . S
H3483 C3509 0.950 . S
H3484 C3510 0.950 . S
H3485 C3512 0.950 . S
H3486 C3515 0.950 . S
H3487 C3516 0.950 . S
H3488 C3518 0.950 . S
H3489 C3519 0.950 . S
C3490 H3472 0.951 . S
C3490 C3491 1.366 . S
C3490 C3492 1.388 . S
C3491 C3490 1.366 . S
C3491 C3495 1.385 . S
C3492 H3473 0.951 . S
C3492 C3490 1.388 . S
C3492 C3493 1.366 . S
C3493 C3492 1.366 . S
C3493 C3494 1.414 . S
C3493 C3496 1.499 . S
C3494 H3474 0.950 . S
C3494 C3493 1.414 . S
C3494 C3495 1.374 . S
C3495 H3475 0.950 . S
C3495 C3491 1.385 . S
C3495 C3494 1.374 . S
C3496 C3493 1.499 . S
C3496 C3497 1.373 . S
C3496 C3498 1.389 . S
C3497 H3476 0.950 . S
C3497 C3496 1.373 . S
C3497 C3513 1.377 . S
C3498 C3496 1.389 . S
C3498 C3499 1.524 . S
C3498 C3512 1.377 . S
C3499 C3498 1.524 . S
C3499 C3500 1.397 . S
C3499 C3504 1.363 . S
C3500 H3477 0.950 . S
C3500 C3499 1.397 . S
C3500 C3501 1.334 . S
C3501 H3478 0.950 . S
C3501 C3500 1.334 . S
C3501 C3502 1.287 . S
C3502 C3501 1.287 . S
C3502 C3503 1.524 . S
C3502 H3521 0.913 . S
C3503 H3479 0.950 . S
C3503 C3502 1.524 . S
C3503 C3504 1.415 . S
C3504 H3480 0.950 . S
C3504 C3499 1.363 . S
C3504 C3503 1.415 . S
C3505 H3481 0.951 . S
C3505 C3506 1.366 . S
C3505 C3507 1.388 . S
C3506 C3505 1.366 . S
C3506 C3510 1.385 . S
C3507 H3482 0.951 . S
C3507 C3505 1.388 . S
C3507 C3508 1.366 . S
C3508 C3507 1.366 . S
C3508 C3509 1.414 . S
C3508 C3511 1.499 . S
C3509 H3483 0.950 . S
C3509 C3508 1.414 . S
C3509 C3510 1.374 . S
C3510 H3484 0.950 . S
C3510 C3506 1.385 . S
C3510 C3509 1.374 . S
C3511 C3508 1.499 . S
C3511 C3512 1.373 . S
C3511 C3513 1.389 . S
C3512 H3485 0.950 . S
C3512 C3498 1.377 . S
C3512 C3511 1.373 . S
C3513 C3497 1.377 . S
C3513 C3511 1.389 . S
C3513 C3514 1.524 . S
C3514 C3513 1.524 . S
C3514 C3515 1.397 . S
C3514 C3519 1.363 . S
C3515 H3486 0.950 . S
C3515 C3514 1.397 . S
C3515 C3516 1.334 . S
C3516 H3487 0.950 . S
C3516 C3515 1.334 . S
C3516 C3517 1.287 . S
C3517 C3516 1.287 . S
C3517 C3518 1.524 . S
C3517 H3520 0.999 . S
C3518 H3488 0.950 . S
C3518 C3517 1.524 . S
C3518 C3519 1.415 . S
C3519 H3489 0.950 . S
C3519 C3514 1.363 . S
C3519 C3518 1.415 . S
H3520 C3517 0.999 . S
H3521 C3502 0.913 . S
H3522 C3540 0.951 . S
H3523 C3542 0.951 . S
H3524 C3544 0.950 . S
H3525 C3545 0.950 . S
H3526 C3547 0.950 . S
H3527 C3550 0.950 . S
H3528 C3551 0.950 . S
H3529 C3553 0.950 . S
H3530 C3554 0.950 . S
H3531 C3555 0.951 . S
H3532 C3557 0.951 . S
H3533 C3559 0.950 . S
H3534 C3560 0.950 . S
H3535 C3562 0.950 . S
H3536 C3565 0.950 . S
H3537 C3566 0.950 . S
H3538 C3568 0.950 . S
H3539 C3569 0.950 . S
C3540 H3522 0.951 . S
C3540 C3541 1.366 . S
C3540 C3542 1.388 . S
C3541 C3540 1.366 . S
C3541 C3545 1.385 . S
C3542 H3523 0.951 . S
C3542 C3540 1.388 . S
C3542 C3543 1.366 . S
C3543 C3542 1.366 . S
C3543 C3544 1.414 . S
C3543 C3546 1.499 . S
C3544 H3524 0.950 . S
C3544 C3543 1.414 . S
C3544 C3545 1.374 . S
C3545 H3525 0.950 . S
C3545 C3541 1.385 . S
C3545 C3544 1.374 . S
C3546 C3543 1.499 . S
C3546 C3547 1.373 . S
C3546 C3548 1.389 . S
C3547 H3526 0.950 . S
C3547 C3546 1.373 . S
C3547 C3563 1.377 . S
C3548 C3546 1.389 . S
C3548 C3549 1.524 . S
C3548 C3562 1.377 . S
C3549 C3548 1.524 . S
C3549 C3550 1.397 . S
C3549 C3554 1.363 . S
C3550 H3527 0.950 . S
C3550 C3549 1.397 . S
C3550 C3551 1.334 . S
C3551 H3528 0.950 . S
C3551 C3550 1.334 . S
C3551 C3552 1.287 . S
C3552 C3551 1.287 . S
C3552 C3553 1.524 . S
C3552 H3571 0.913 . S
C3553 H3529 0.950 . S
C3553 C3552 1.524 . S
C3553 C3554 1.415 . S
C3554 H3530 0.950 . S
C3554 C3549 1.363 . S
C3554 C3553 1.415 . S
C3555 H3531 0.951 . S
C3555 C3556 1.366 . S
C3555 C3557 1.388 . S
C3556 C3555 1.366 . S
C3556 C3560 1.385 . S
C3557 H3532 0.951 . S
C3557 C3555 1.388 . S
C3557 C3558 1.366 . S
C3558 C3557 1.366 . S
C3558 C3559 1.414 . S
C3558 C3561 1.499 . S
C3559 H3533 0.950 . S
C3559 C3558 1.414 . S
C3559 C3560 1.374 . S
C3560 H3534 0.950 . S
C3560 C3556 1.385 . S
C3560 C3559 1.374 . S
C3561 C3558 1.499 . S
C3561 C3562 1.373 . S
C3561 C3563 1.389 . S
C3562 H3535 0.950 . S
C3562 C3548 1.377 . S
C3562 C3561 1.373 . S
C3563 C3547 1.377 . S
C3563 C3561 1.389 . S
C3563 C3564 1.524 . S
C3564 C3563 1.524 . S
C3564 C3565 1.397 . S
C3564 C3569 1.363 . S
C3565 H3536 0.950 . S
C3565 C3564 1.397 . S
C3565 C3566 1.334 . S
C3566 H3537 0.950 . S
C3566 C3565 1.334 . S
C3566 C3567 1.287 . S
C3567 C3566 1.287 . S
C3567 C3568 1.524 . S
C3567 H3570 0.999 . S
C3568 H3538 0.950 . S
C3568 C3567 1.524 . S
C3568 C3569 1.415 . S
C3569 H3539 0.950 . S
C3569 C3564 1.363 . S
C3569 C3568 1.415 . S
H3570 C3567 0.999 . S
H3571 C3552 0.913 . S
H3572 C3590 0.951 . S
H3573 C3592 0.951 . S
H3574 C3594 0.950 . S
H3575 C3595 0.950 . S
H3576 C3597 0.950 . S
H3577 C3600 0.950 . S
H3578 C3601 0.950 . S
H3579 C3603 0.950 . S
H3580 C3604 0.950 . S
H3581 C3605 0.951 . S
H3582 C3607 0.951 . S
H3583 C3609 0.950 . S
H3584 C3610 0.950 . S
H3585 C3612 0.950 . S
H3586 C3615 0.950 . S
H3587 C3616 0.950 . S
H3588 C3618 0.950 . S
H3589 C3619 0.950 . S
C3590 H3572 0.951 . S
C3590 C3591 1.366 . S
C3590 C3592 1.388 . S
C3591 C3590 1.366 . S
C3591 C3595 1.385 . S
C3592 H3573 0.951 . S
C3592 C3590 1.388 . S
C3592 C3593 1.366 . S
C3593 C3592 1.366 . S
C3593 C3594 1.414 . S
C3593 C3596 1.499 . S
C3594 H3574 0.950 . S
C3594 C3593 1.414 . S
C3594 C3595 1.374 . S
C3595 H3575 0.950 . S
C3595 C3591 1.385 . S
C3595 C3594 1.374 . S
C3596 C3593 1.499 . S
C3596 C3597 1.373 . S
C3596 C3598 1.389 . S
C3597 H3576 0.950 . S
C3597 C3596 1.373 . S
C3597 C3613 1.377 . S
C3598 C3596 1.389 . S
C3598 C3599 1.524 . S
C3598 C3612 1.377 . S
C3599 C3598 1.524 . S
C3599 C3600 1.397 . S
C3599 C3604 1.363 . S
C3600 H3577 0.950 . S
C3600 C3599 1.397 . S
C3600 C3601 1.334 . S
C3601 H3578 0.950 . S
C3601 C3600 1.334 . S
C3601 C3602 1.287 . S
C3602 C3601 1.287 . S
C3602 C3603 1.524 . S
C3602 H3621 0.913 . S
C3603 H3579 0.950 . S
C3603 C3602 1.524 . S
C3603 C3604 1.415 . S
C3604 H3580 0.950 . S
C3604 C3599 1.363 . S
C3604 C3603 1.415 . S
C3605 H3581 0.951 . S
C3605 C3606 1.366 . S
C3605 C3607 1.388 . S
C3606 C3605 1.366 . S
C3606 C3610 1.385 . S
C3607 H3582 0.951 . S
C3607 C3605 1.388 . S
C3607 C3608 1.366 . S
C3608 C3607 1.366 . S
C3608 C3609 1.414 . S
C3608 C3611 1.499 . S
C3609 H3583 0.950 . S
C3609 C3608 1.414 . S
C3609 C3610 1.374 . S
C3610 H3584 0.950 . S
C3610 C3606 1.385 . S
C3610 C3609 1.374 . S
C3611 C3608 1.499 . S
C3611 C3612 1.373 . S
C3611 C3613 1.389 . S
C3612 H3585 0.950 . S
C3612 C3598 1.377 . S
C3612 C3611 1.373 . S
C3613 C3597 1.377 . S
C3613 C3611 1.389 . S
C3613 C3614 1.524 . S
C3614 C3613 1.524 . S
C3614 C3615 1.397 . S
C3614 C3619 1.363 . S
C3615 H3586 0.950 . S
C3615 C3614 1.397 . S
C3615 C3616 1.334 . S
C3616 H3587 0.950 . S
C3616 C3615 1.334 . S
C3616 C3617 1.287 . S
C3617 C3616 1.287 . S
C3617 C3618 1.524 . S
C3617 H3620 0.999 . S
C3618 H3588 0.950 . S
C3618 C3617 1.524 . S
C3618 C3619 1.415 . S
C3619 H3589 0.950 . S
C3619 C3614 1.363 . S
C3619 C3618 1.415 . S
H3620 C3617 0.999 . S
H3621 C3602 0.913 . S
H3622 C3640 0.951 . S
H3623 C3642 0.951 . S
H3624 C3644 0.950 . S
H3625 C3645 0.950 . S
H3626 C3647 0.950 . S
H3627 C3650 0.950 . S
H3628 C3651 0.950 . S
H3629 C3653 0.950 . S
H3630 C3654 0.950 . S
H3631 C3655 0.951 . S
H3632 C3657 0.951 . S
H3633 C3659 0.950 . S
H3634 C3660 0.950 . S
H3635 C3662 0.950 . S
H3636 C3665 0.950 . S
H3637 C3666 0.950 . S
H3638 C3668 0.950 . S
H3639 C3669 0.950 . S
C3640 H3622 0.951 . S
C3640 C3641 1.366 . S
C3640 C3642 1.388 . S
C3641 C3640 1.366 . S
C3641 C3645 1.385 . S
C3642 H3623 0.951 . S
C3642 C3640 1.388 . S
C3642 C3643 1.366 . S
C3643 C3642 1.366 . S
C3643 C3644 1.414 . S
C3643 C3646 1.499 . S
C3644 H3624 0.950 . S
C3644 C3643 1.414 . S
C3644 C3645 1.374 . S
C3645 H3625 0.950 . S
C3645 C3641 1.385 . S
C3645 C3644 1.374 . S
C3646 C3643 1.499 . S
C3646 C3647 1.373 . S
C3646 C3648 1.389 . S
C3647 H3626 0.950 . S
C3647 C3646 1.373 . S
C3647 C3663 1.377 . S
C3648 C3646 1.389 . S
C3648 C3649 1.524 . S
C3648 C3662 1.377 . S
C3649 C3648 1.524 . S
C3649 C3650 1.397 . S
C3649 C3654 1.363 . S
C3650 H3627 0.950 . S
C3650 C3649 1.397 . S
C3650 C3651 1.334 . S
C3651 H3628 0.950 . S
C3651 C3650 1.334 . S
C3651 C3652 1.287 . S
C3652 C3651 1.287 . S
C3652 C3653 1.524 . S
C3652 H3671 0.913 . S
C3653 H3629 0.950 . S
C3653 C3652 1.524 . S
C3653 C3654 1.415 . S
C3654 H3630 0.950 . S
C3654 C3649 1.363 . S
C3654 C3653 1.415 . S
C3655 H3631 0.951 . S
C3655 C3656 1.366 . S
C3655 C3657 1.388 . S
C3656 C3655 1.366 . S
C3656 C3660 1.385 . S
C3657 H3632 0.951 . S
C3657 C3655 1.388 . S
C3657 C3658 1.366 . S
C3658 C3657 1.366 . S
C3658 C3659 1.414 . S
C3658 C3661 1.499 . S
C3659 H3633 0.950 . S
C3659 C3658 1.414 . S
C3659 C3660 1.374 . S
C3660 H3634 0.950 . S
C3660 C3656 1.385 . S
C3660 C3659 1.374 . S
C3661 C3658 1.499 . S
C3661 C3662 1.373 . S
C3661 C3663 1.389 . S
C3662 H3635 0.950 . S
C3662 C3648 1.377 . S
C3662 C3661 1.373 . S
C3663 C3647 1.377 . S
C3663 C3661 1.389 . S
C3663 C3664 1.524 . S
C3664 C3663 1.524 . S
C3664 C3665 1.397 . S
C3664 C3669 1.363 . S
C3665 H3636 0.950 . S
C3665 C3664 1.397 . S
C3665 C3666 1.334 . S
C3666 H3637 0.950 . S
C3666 C3665 1.334 . S
C3666 C3667 1.287 . S
C3667 C3666 1.287 . S
C3667 C3668 1.524 . S
C3667 H3670 0.999 . S
C3668 H3638 0.950 . S
C3668 C3667 1.524 . S
C3668 C3669 1.415 . S
C3669 H3639 0.950 . S
C3669 C3664 1.363 . S
C3669 C3668 1.415 . S
H3670 C3667 0.999 . S
H3671 C3652 0.913 . S
H3672 C3690 0.951 . S
H3673 C3692 0.951 . S
H3674 C3694 0.950 . S
H3675 C3695 0.950 . S
H3676 C3697 0.950 . S
H3677 C3700 0.950 . S
H3678 C3701 0.950 . S
H3679 C3703 0.950 . S
H3680 C3704 0.950 . S
H3681 C3705 0.951 . S
H3682 C3707 0.951 . S
H3683 C3709 0.950 . S
H3684 C3710 0.950 . S
H3685 C3712 0.950 . S
H3686 C3715 0.950 . S
H3687 C3716 0.950 . S
H3688 C3718 0.950 . S
H3689 C3719 0.950 . S
C3690 H3672 0.951 . S
C3690 C3691 1.366 . S
C3690 C3692 1.388 . S
C3691 C3690 1.366 . S
C3691 C3695 1.385 . S
C3692 H3673 0.951 . S
C3692 C3690 1.388 . S
C3692 C3693 1.366 . S
C3693 C3692 1.366 . S
C3693 C3694 1.414 . S
C3693 C3696 1.499 . S
C3694 H3674 0.950 . S
C3694 C3693 1.414 . S
C3694 C3695 1.374 . S
C3695 H3675 0.950 . S
C3695 C3691 1.385 . S
C3695 C3694 1.374 . S
C3696 C3693 1.499 . S
C3696 C3697 1.373 . S
C3696 C3698 1.389 . S
C3697 H3676 0.950 . S
C3697 C3696 1.373 . S
C3697 C3713 1.377 . S
C3698 C3696 1.389 . S
C3698 C3699 1.524 . S
C3698 C3712 1.377 . S
C3699 C3698 1.524 . S
C3699 C3700 1.397 . S
C3699 C3704 1.363 . S
C3700 H3677 0.950 . S
C3700 C3699 1.397 . S
C3700 C3701 1.334 . S
C3701 H3678 0.950 . S
C3701 C3700 1.334 . S
C3701 C3702 1.287 . S
C3702 C3701 1.287 . S
C3702 C3703 1.524 . S
C3702 H3721 0.913 . S
C3703 H3679 0.950 . S
C3703 C3702 1.524 . S
C3703 C3704 1.415 . S
C3704 H3680 0.950 . S
C3704 C3699 1.363 . S
C3704 C3703 1.415 . S
C3705 H3681 0.951 . S
C3705 C3706 1.366 . S
C3705 C3707 1.388 . S
C3706 C3705 1.366 . S
C3706 C3710 1.385 . S
C3707 H3682 0.951 . S
C3707 C3705 1.388 . S
C3707 C3708 1.366 . S
C3708 C3707 1.366 . S
C3708 C3709 1.414 . S
C3708 C3711 1.499 . S
C3709 H3683 0.950 . S
C3709 C3708 1.414 . S
C3709 C3710 1.374 . S
C3710 H3684 0.950 . S
C3710 C3706 1.385 . S
C3710 C3709 1.374 . S
C3711 C3708 1.499 . S
C3711 C3712 1.373 . S
C3711 C3713 1.389 . S
C3712 H3685 0.950 . S
C3712 C3698 1.377 . S
C3712 C3711 1.373 . S
C3713 C3697 1.377 . S
C3713 C3711 1.389 . S
C3713 C3714 1.524 . S
C3714 C3713 1.524 . S
C3714 C3715 1.397 . S
C3714 C3719 1.363 . S
C3715 H3686 0.950 . S
C3715 C3714 1.397 . S
C3715 C3716 1.334 . S
C3716 H3687 0.950 . S
C3716 C3715 1.334 . S
C3716 C3717 1.287 . S
C3717 C3716 1.287 . S
C3717 C3718 1.524 . S
C3717 H3720 0.999 . S
C3718 H3688 0.950 . S
C3718 C3717 1.524 . S
C3718 C3719 1.415 . S
C3719 H3689 0.950 . S
C3719 C3714 1.363 . S
C3719 C3718 1.415 . S
H3720 C3717 0.999 . S
H3721 C3702 0.913 . S
H3722 C3740 0.951 . S
H3723 C3742 0.951 . S
H3724 C3744 0.950 . S
H3725 C3745 0.950 . S
H3726 C3747 0.950 . S
H3727 C3750 0.950 . S
H3728 C3751 0.950 . S
H3729 C3753 0.950 . S
H3730 C3754 0.950 . S
H3731 C3755 0.951 . S
H3732 C3757 0.951 . S
H3733 C3759 0.950 . S
H3734 C3760 0.950 . S
H3735 C3762 0.950 . S
H3736 C3765 0.950 . S
H3737 C3766 0.950 . S
H3738 C3768 0.950 . S
H3739 C3769 0.950 . S
C3740 H3722 0.951 . S
C3740 C3741 1.366 . S
C3740 C3742 1.388 . S
C3741 C3740 1.366 . S
C3741 C3745 1.385 . S
C3742 H3723 0.951 . S
C3742 C3740 1.388 . S
C3742 C3743 1.366 . S
C3743 C3742 1.366 . S
C3743 C3744 1.414 . S
C3743 C3746 1.499 . S
C3744 H3724 0.950 . S
C3744 C3743 1.414 . S
C3744 C3745 1.374 . S
C3745 H3725 0.950 . S
C3745 C3741 1.385 . S
C3745 C3744 1.374 . S
C3746 C3743 1.499 . S
C3746 C3747 1.373 . S
C3746 C3748 1.389 . S
C3747 H3726 0.950 . S
C3747 C3746 1.373 . S
C3747 C3763 1.377 . S
C3748 C3746 1.389 . S
C3748 C3749 1.524 . S
C3748 C3762 1.377 . S
C3749 C3748 1.524 . S
C3749 C3750 1.397 . S
C3749 C3754 1.363 . S
C3750 H3727 0.950 . S
C3750 C3749 1.397 . S
C3750 C3751 1.334 . S
C3751 H3728 0.950 . S
C3751 C3750 1.334 . S
C3751 C3752 1.287 . S
C3752 C3751 1.287 . S
C3752 C3753 1.524 . S
C3752 H3771 0.913 . S
C3753 H3729 0.950 . S
C3753 C3752 1.524 . S
C3753 C3754 1.415 . S
C3754 H3730 0.950 . S
C3754 C3749 1.363 . S
C3754 C3753 1.415 . S
C3755 H3731 0.951 . S
C3755 C3756 1.366 . S
C3755 C3757 1.388 . S
C3756 C3755 1.366 . S
C3756 C3760 1.385 . S
C3757 H3732 0.951 . S
C3757 C3755 1.388 . S
C3757 C3758 1.366 . S
C3758 C3757 1.366 . S
C3758 C3759 1.414 . S
C3758 C3761 1.499 . S
C3759 H3733 0.950 . S
C3759 C3758 1.414 . S
C3759 C3760 1.374 . S
C3760 H3734 0.950 . S
C3760 C3756 1.385 . S
C3760 C3759 1.374 . S
C3761 C3758 1.499 . S
C3761 C3762 1.373 . S
C3761 C3763 1.389 . S
C3762 H3735 0.950 . S
C3762 C3748 1.377 . S
C3762 C3761 1.373 . S
C3763 C3747 1.377 . S
C3763 C3761 1.389 . S
C3763 C3764 1.524 . S
C3764 C3763 1.524 . S
C3764 C3765 1.397 . S
C3764 C3769 1.363 . S
C3765 H3736 0.950 . S
C3765 C3764 1.397 . S
C3765 C3766 1.334 . S
C3766 H3737 0.950 . S
C3766 C3765 1.334 . S
C3766 C3767 1.287 . S
C3767 C3766 1.287 . S
C3767 C3768 1.524 . S
C3767 H3770 0.999 . S
C3768 H3738 0.950 . S
C3768 C3767 1.524 . S
C3768 C3769 1.415 . S
C3769 H3739 0.950 . S
C3769 C3764 1.363 . S
C3769 C3768 1.415 . S
H3770 C3767 0.999 . S
H3771 C3752 0.913 . S
H3772 C3790 0.951 . S
H3773 C3792 0.951 . S
H3774 C3794 0.950 . S
H3775 C3795 0.950 . S
H3776 C3797 0.950 . S
H3777 C3800 0.950 . S
H3778 C3801 0.950 . S
H3779 C3803 0.950 . S
H3780 C3804 0.950 . S
H3781 C3805 0.951 . S
H3782 C3807 0.951 . S
H3783 C3809 0.950 . S
H3784 C3810 0.950 . S
H3785 C3812 0.950 . S
H3786 C3815 0.950 . S
H3787 C3816 0.950 . S
H3788 C3818 0.950 . S
H3789 C3819 0.950 . S
C3790 H3772 0.951 . S
C3790 C3791 1.366 . S
C3790 C3792 1.388 . S
C3791 C3790 1.366 . S
C3791 C3795 1.385 . S
C3792 H3773 0.951 . S
C3792 C3790 1.388 . S
C3792 C3793 1.366 . S
C3793 C3792 1.366 . S
C3793 C3794 1.414 . S
C3793 C3796 1.499 . S
C3794 H3774 0.950 . S
C3794 C3793 1.414 . S
C3794 C3795 1.374 . S
C3795 H3775 0.950 . S
C3795 C3791 1.385 . S
C3795 C3794 1.374 . S
C3796 C3793 1.499 . S
C3796 C3797 1.373 . S
C3796 C3798 1.389 . S
C3797 H3776 0.950 . S
C3797 C3796 1.373 . S
C3797 C3813 1.377 . S
C3798 C3796 1.389 . S
C3798 C3799 1.524 . S
C3798 C3812 1.377 . S
C3799 C3798 1.524 . S
C3799 C3800 1.397 . S
C3799 C3804 1.363 . S
C3800 H3777 0.950 . S
C3800 C3799 1.397 . S
C3800 C3801 1.334 . S
C3801 H3778 0.950 . S
C3801 C3800 1.334 . S
C3801 C3802 1.287 . S
C3802 C3801 1.287 . S
C3802 C3803 1.524 . S
C3802 H3821 0.913 . S
C3803 H3779 0.950 . S
C3803 C3802 1.524 . S
C3803 C3804 1.415 . S
C3804 H3780 0.950 . S
C3804 C3799 1.363 . S
C3804 C3803 1.415 . S
C3805 H3781 0.951 . S
C3805 C3806 1.366 . S
C3805 C3807 1.388 . S
C3806 C3805 1.366 . S
C3806 C3810 1.385 . S
C3807 H3782 0.951 . S
C3807 C3805 1.388 . S
C3807 C3808 1.366 . S
C3808 C3807 1.366 . S
C3808 C3809 1.414 . S
C3808 C3811 1.499 . S
C3809 H3783 0.950 . S
C3809 C3808 1.414 . S
C3809 C3810 1.374 . S
C3810 H3784 0.950 . S
C3810 C3806 1.385 . S
C3810 C3809 1.374 . S
C3811 C3808 1.499 . S
C3811 C3812 1.373 . S
C3811 C3813 1.389 . S
C3812 H3785 0.950 . S
C3812 C3798 1.377 . S
C3812 C3811 1.373 . S
C3813 C3797 1.377 . S
C3813 C3811 1.389 . S
C3813 C3814 1.524 . S
C3814 C3813 1.524 . S
C3814 C3815 1.397 . S
C3814 C3819 1.363 . S
C3815 H3786 0.950 . S
C3815 C3814 1.397 . S
C3815 C3816 1.334 . S
C3816 H3787 0.950 . S
C3816 C3815 1.334 . S
C3816 C3817 1.287 . S
C3817 C3816 1.287 . S
C3817 C3818 1.524 . S
C3817 H3820 0.999 . S
C3818 H3788 0.950 . S
C3818 C3817 1.524 . S
C3818 C3819 1.415 . S
C3819 H3789 0.950 . S
C3819 C3814 1.363 . S
C3819 C3818 1.415 . S
H3820 C3817 0.999 . S
H3821 C3802 0.913 . S
H3822 C3840 0.951 . S
H3823 C3842 0.951 . S
H3824 C3844 0.950 . S
H3825 C3845 0.950 . S
H3826 C3847 0.950 . S
H3827 C3850 0.950 . S
H3828 C3851 0.950 . S
H3829 C3853 0.950 . S
H3830 C3854 0.950 . S
H3831 C3855 0.951 . S
H3832 C3857 0.951 . S
H3833 C3859 0.950 . S
H3834 C3860 0.950 . S
H3835 C3862 0.950 . S
H3836 C3865 0.950 . S
H3837 C3866 0.950 . S
H3838 C3868 0.950 . S
H3839 C3869 0.950 . S
C3840 H3822 0.951 . S
C3840 C3841 1.366 . S
C3840 C3842 1.388 . S
C3841 C3840 1.366 . S
C3841 C3845 1.385 . S
C3842 H3823 0.951 . S
C3842 C3840 1.388 . S
C3842 C3843 1.366 . S
C3843 C3842 1.366 . S
C3843 C3844 1.414 . S
C3843 C3846 1.499 . S
C3844 H3824 0.950 . S
C3844 C3843 1.414 . S
C3844 C3845 1.374 . S
C3845 H3825 0.950 . S
C3845 C3841 1.385 . S
C3845 C3844 1.374 . S
C3846 C3843 1.499 . S
C3846 C3847 1.373 . S
C3846 C3848 1.389 . S
C3847 H3826 0.950 . S
C3847 C3846 1.373 . S
C3847 C3863 1.377 . S
C3848 C3846 1.389 . S
C3848 C3849 1.524 . S
C3848 C3862 1.377 . S
C3849 C3848 1.524 . S
C3849 C3850 1.397 . S
C3849 C3854 1.363 . S
C3850 H3827 0.950 . S
C3850 C3849 1.397 . S
C3850 C3851 1.334 . S
C3851 H3828 0.950 . S
C3851 C3850 1.334 . S
C3851 C3852 1.287 . S
C3852 C3851 1.287 . S
C3852 C3853 1.524 . S
C3852 H3871 0.913 . S
C3853 H3829 0.950 . S
C3853 C3852 1.524 . S
C3853 C3854 1.415 . S
C3854 H3830 0.950 . S
C3854 C3849 1.363 . S
C3854 C3853 1.415 . S
C3855 H3831 0.951 . S
C3855 C3856 1.366 . S
C3855 C3857 1.388 . S
C3856 C3855 1.366 . S
C3856 C3860 1.385 . S
C3857 H3832 0.951 . S
C3857 C3855 1.388 . S
C3857 C3858 1.366 . S
C3858 C3857 1.366 . S
C3858 C3859 1.414 . S
C3858 C3861 1.499 . S
C3859 H3833 0.950 . S
C3859 C3858 1.414 . S
C3859 C3860 1.374 . S
C3860 H3834 0.950 . S
C3860 C3856 1.385 . S
C3860 C3859 1.374 . S
C3861 C3858 1.499 . S
C3861 C3862 1.373 . S
C3861 C3863 1.389 . S
C3862 H3835 0.950 . S
C3862 C3848 1.377 . S
C3862 C3861 1.373 . S
C3863 C3847 1.377 . S
C3863 C3861 1.389 . S
C3863 C3864 1.524 . S
C3864 C3863 1.524 . S
C3864 C3865 1.397 . S
C3864 C3869 1.363 . S
C3865 H3836 0.950 . S
C3865 C3864 1.397 . S
C3865 C3866 1.334 . S
C3866 H3837 0.950 . S
C3866 C3865 1.334 . S
C3866 C3867 1.287 . S
C3867 C3866 1.287 . S
C3867 C3868 1.524 . S
C3867 H3870 0.999 . S
C3868 H3838 0.950 . S
C3868 C3867 1.524 . S
C3868 C3869 1.415 . S
C3869 H3839 0.950 . S
C3869 C3864 1.363 . S
C3869 C3868 1.415 . S
H3870 C3867 0.999 . S
H3871 C3852 0.913 . S
H3872 C3890 0.951 . S
H3873 C3892 0.951 . S
H3874 C3894 0.950 . S
H3875 C3895 0.950 . S
H3876 C3897 0.950 . S
H3877 C3900 0.950 . S
H3878 C3901 0.950 . S
H3879 C3903 0.950 . S
H3880 C3904 0.950 . S
H3881 C3905 0.951 . S
H3882 C3907 0.951 . S
H3883 C3909 0.950 . S
H3884 C3910 0.950 . S
H3885 C3912 0.950 . S
H3886 C3915 0.950 . S
H3887 C3916 0.950 . S
H3888 C3918 0.950 . S
H3889 C3919 0.950 . S
C3890 H3872 0.951 . S
C3890 C3891 1.366 . S
C3890 C3892 1.388 . S
C3891 C3890 1.366 . S
C3891 C3895 1.385 . S
C3892 H3873 0.951 . S
C3892 C3890 1.388 . S
C3892 C3893 1.366 . S
C3893 C3892 1.366 . S
C3893 C3894 1.414 . S
C3893 C3896 1.499 . S
C3894 H3874 0.950 . S
C3894 C3893 1.414 . S
C3894 C3895 1.374 . S
C3895 H3875 0.950 . S
C3895 C3891 1.385 . S
C3895 C3894 1.374 . S
C3896 C3893 1.499 . S
C3896 C3897 1.373 . S
C3896 C3898 1.389 . S
C3897 H3876 0.950 . S
C3897 C3896 1.373 . S
C3897 C3913 1.377 . S
C3898 C3896 1.389 . S
C3898 C3899 1.524 . S
C3898 C3912 1.377 . S
C3899 C3898 1.524 . S
C3899 C3900 1.397 . S
C3899 C3904 1.363 . S
C3900 H3877 0.950 . S
C3900 C3899 1.397 . S
C3900 C3901 1.334 . S
C3901 H3878 0.950 . S
C3901 C3900 1.334 . S
C3901 C3902 1.287 . S
C3902 C3901 1.287 . S
C3902 C3903 1.524 . S
C3902 H3921 0.913 . S
C3903 H3879 0.950 . S
C3903 C3902 1.524 . S
C3903 C3904 1.415 . S
C3904 H3880 0.950 . S
C3904 C3899 1.363 . S
C3904 C3903 1.415 . S
C3905 H3881 0.951 . S
C3905 C3906 1.366 . S
C3905 C3907 1.388 . S
C3906 C3905 1.366 . S
C3906 C3910 1.385 . S
C3907 H3882 0.951 . S
C3907 C3905 1.388 . S
C3907 C3908 1.366 . S
C3908 C3907 1.366 . S
C3908 C3909 1.414 . S
C3908 C3911 1.499 . S
C3909 H3883 0.950 . S
C3909 C3908 1.414 . S
C3909 C3910 1.374 . S
C3910 H3884 0.950 . S
C3910 C3906 1.385 . S
C3910 C3909 1.374 . S
C3911 C3908 1.499 . S
C3911 C3912 1.373 . S
C3911 C3913 1.389 . S
C3912 H3885 0.950 . S
C3912 C3898 1.377 . S
C3912 C3911 1.373 . S
C3913 C3897 1.377 . S
C3913 C3911 1.389 . S
C3913 C3914 1.524 . S
C3914 C3913 1.524 . S
C3914 C3915 1.397 . S
C3914 C3919 1.363 . S
C3915 H3886 0.950 . S
C3915 C3914 1.397 . S
C3915 C3916 1.334 . S
C3916 H3887 0.950 . S
C3916 C3915 1.334 . S
C3916 C3917 1.287 . S
C3917 C3916 1.287 . S
C3917 C3918 1.524 . S
C3917 H3920 0.999 . S
C3918 H3888 0.950 . S
C3918 C3917 1.524 . S
C3918 C3919 1.415 . S
C3919 H3889 0.950 . S
C3919 C3914 1.363 . S
C3919 C3918 1.415 . S
H3920 C3917 0.999 . S
H3921 C3902 0.913 . S
H3922 C3940 0.951 . S
H3923 C3942 0.951 . S
H3924 C3944 0.950 . S
H3925 C3945 0.950 . S
H3926 C3947 0.950 . S
H3927 C3950 0.950 . S
H3928 C3951 0.950 . S
H3929 C3953 0.950 . S
H3930 C3954 0.950 . S
H3931 C3955 0.951 . S
H3932 C3957 0.951 . S
H3933 C3959 0.950 . S
H3934 C3960 0.950 . S
H3935 C3962 0.950 . S
H3936 C3965 0.950 . S
H3937 C3966 0.950 . S
H3938 C3968 0.950 . S
H3939 C3969 0.950 . S
C3940 H3922 0.951 . S
C3940 C3941 1.366 . S
C3940 C3942 1.388 . S
C3941 C3940 1.366 . S
C3941 C3945 1.385 . S
C3942 H3923 0.951 . S
C3942 C3940 1.388 . S
C3942 C3943 1.366 . S
C3943 C3942 1.366 . S
C3943 C3944 1.414 . S
C3943 C3946 1.499 . S
C3944 H3924 0.950 . S
C3944 C3943 1.414 . S
C3944 C3945 1.374 . S
C3945 H3925 0.950 . S
C3945 C3941 1.385 . S
C3945 C3944 1.374 . S
C3946 C3943 1.499 . S
C3946 C3947 1.373 . S
C3946 C3948 1.389 . S
C3947 H3926 0.950 . S
C3947 C3946 1.373 . S
C3947 C3963 1.377 . S
C3948 C3946 1.389 . S
C3948 C3949 1.524 . S
C3948 C3962 1.377 . S
C3949 C3948 1.524 . S
C3949 C3950 1.397 . S
C3949 C3954 1.363 . S
C3950 H3927 0.950 . S
C3950 C3949 1.397 . S
C3950 C3951 1.334 . S
C3951 H3928 0.950 . S
C3951 C3950 1.334 . S
C3951 C3952 1.287 . S
C3952 C3951 1.287 . S
C3952 C3953 1.524 . S
C3952 H3971 0.913 . S
C3953 H3929 0.950 . S
C3953 C3952 1.524 . S
C3953 C3954 1.415 . S
C3954 H3930 0.950 . S
C3954 C3949 1.363 . S
C3954 C3953 1.415 . S
C3955 H3931 0.951 . S
C3955 C3956 1.366 . S
C3955 C3957 1.388 . S
C3956 C3955 1.366 . S
C3956 C3960 1.385 . S
C3957 H3932 0.951 . S
C3957 C3955 1.388 . S
C3957 C3958 1.366 . S
C3958 C3957 1.366 . S
C3958 C3959 1.414 . S
C3958 C3961 1.499 . S
C3959 H3933 0.950 . S
C3959 C3958 1.414 . S
C3959 C3960 1.374 . S
C3960 H3934 0.950 . S
C3960 C3956 1.385 . S
C3960 C3959 1.374 . S
C3961 C3958 1.499 . S
C3961 C3962 1.373 . S
C3961 C3963 1.389 . S
C3962 H3935 0.950 . S
C3962 C3948 1.377 . S
C3962 C3961 1.373 . S
C3963 C3947 1.377 . S
C3963 C3961 1.389 . S
C3963 C3964 1.524 . S
C3964 C3963 1.524 . S
C3964 C3965 1.397 . S
C3964 C3969 1.363 . S
C3965 H3936 0.950 . S
C3965 C3964 1.397 . S
C3965 C3966 1.334 . S
C3966 H3937 0.950 . S
C3966 C3965 1.334 . S
C3966 C3967 1.287 . S
C3967 C3966 1.287 . S
C3967 C3968 1.524 . S
C3967 H3970 0.999 . S
C3968 H3938 0.950 . S
C3968 C3967 1.524 . S
C3968 C3969 1.415 . S
C3969 H3939 0.950 . S
C3969 C3964 1.363 . S
C3969 C3968 1.415 . S
H3970 C3967 0.999 . S
H3971 C3952 0.913 . S
H3972 C3990 0.951 . S
H3973 C3992 0.951 . S
H3974 C3994 0.950 . S
H3975 C3995 0.950 . S
H3976 C3997 0.950 . S
H3977 C4000 0.950 . S
H3978 C4001 0.950 . S
H3979 C4003 0.950 . S
H3980 C4004 0.950 . S
H3981 C4005 0.951 . S
H3982 C4007 0.951 . S
H3983 C4009 0.950 . S
H3984 C4010 0.950 . S
H3985 C4012 0.950 . S
H3986 C4015 0.950 . S
H3987 C4016 0.950 . S
H3988 C4018 0.950 . S
H3989 C4019 0.950 . S
C3990 H3972 0.951 . S
C3990 C3991 1.366 . S
C3990 C3992 1.388 . S
C3991 C3990 1.366 . S
C3991 C3995 1.385 . S
C3992 H3973 0.951 . S
C3992 C3990 1.388 . S
C3992 C3993 1.366 . S
C3993 C3992 1.366 . S
C3993 C3994 1.414 . S
C3993 C3996 1.499 . S
C3994 H3974 0.950 . S
C3994 C3993 1.414 . S
C3994 C3995 1.374 . S
C3995 H3975 0.950 . S
C3995 C3991 1.385 . S
C3995 C3994 1.374 . S
C3996 C3993 1.499 . S
C3996 C3997 1.373 . S
C3996 C3998 1.389 . S
C3997 H3976 0.950 . S
C3997 C3996 1.373 . S
C3997 C4013 1.377 . S
C3998 C3996 1.389 . S
C3998 C3999 1.524 . S
C3998 C4012 1.377 . S
C3999 C3998 1.524 . S
C3999 C4000 1.397 . S
C3999 C4004 1.363 . S
C4000 H3977 0.950 . S
C4000 C3999 1.397 . S
C4000 C4001 1.334 . S
C4001 H3978 0.950 . S
C4001 C4000 1.334 . S
C4001 C4002 1.287 . S
C4002 C4001 1.287 . S
C4002 C4003 1.524 . S
C4002 H4021 0.913 . S
C4003 H3979 0.950 . S
C4003 C4002 1.524 . S
C4003 C4004 1.415 . S
C4004 H3980 0.950 . S
C4004 C3999 1.363 . S
C4004 C4003 1.415 . S
C4005 H3981 0.951 . S
C4005 C4006 1.366 . S
C4005 C4007 1.388 . S
C4006 C4005 1.366 . S
C4006 C4010 1.385 . S
C4007 H3982 0.951 . S
C4007 C4005 1.388 . S
C4007 C4008 1.366 . S
C4008 C4007 1.366 . S
C4008 C4009 1.414 . S
C4008 C4011 1.499 . S
C4009 H3983 0.950 . S
C4009 C4008 1.414 . S
C4009 C4010 1.374 . S
C4010 H3984 0.950 . S
C4010 C4006 1.385 . S
C4010 C4009 1.374 . S
C4011 C4008 1.499 . S
C4011 C4012 1.373 . S
C4011 C4013 1.389 . S
C4012 H3985 0.950 . S
C4012 C3998 1.377 . S
C4012 C4011 1.373 . S
C4013 C3997 1.377 . S
C4013 C4011 1.389 . S
C4013 C4014 1.524 . S
C4014 C4013 1.524 . S
C4014 C4015 1.397 . S
C4014 C4019 1.363 . S
C4015 H3986 0.950 . S
C4015 C4014 1.397 . S
C4015 C4016 1.334 . S
C4016 H3987 0.950 . S
C4016 C4015 1.334 . S
C4016 C4017 1.287 . S
C4017 C4016 1.287 . S
C4017 C4018 1.524 . S
C4017 H4020 0.999 . S
C4018 H3988 0.950 . S
C4018 C4017 1.524 . S
C4018 C4019 1.415 . S
C4019 H3989 0.950 . S
C4019 C4014 1.363 . S
C4019 C4018 1.415 . S
H4020 C4017 0.999 . S
H4021 C4002 0.913 . S
H4022 C4040 0.951 . S
H4023 C4042 0.951 . S
H4024 C4044 0.950 . S
H4025 C4045 0.950 . S
H4026 C4047 0.950 . S
H4027 C4050 0.950 . S
H4028 C4051 0.950 . S
H4029 C4053 0.950 . S
H4030 C4054 0.950 . S
H4031 C4055 0.951 . S
H4032 C4057 0.951 . S
H4033 C4059 0.950 . S
H4034 C4060 0.950 . S
H4035 C4062 0.950 . S
H4036 C4065 0.950 . S
H4037 C4066 0.950 . S
H4038 C4068 0.950 . S
H4039 C4069 0.950 . S
C4040 H4022 0.951 . S
C4040 C4041 1.366 . S
C4040 C4042 1.388 . S
C4041 C4040 1.366 . S
C4041 C4045 1.385 . S
C4042 H4023 0.951 . S
C4042 C4040 1.388 . S
C4042 C4043 1.366 . S
C4043 C4042 1.366 . S
C4043 C4044 1.414 . S
C4043 C4046 1.499 . S
C4044 H4024 0.950 . S
C4044 C4043 1.414 . S
C4044 C4045 1.374 . S
C4045 H4025 0.950 . S
C4045 C4041 1.385 . S
C4045 C4044 1.374 . S
C4046 C4043 1.499 . S
C4046 C4047 1.373 . S
C4046 C4048 1.389 . S
C4047 H4026 0.950 . S
C4047 C4046 1.373 . S
C4047 C4063 1.377 . S
C4048 C4046 1.389 . S
C4048 C4049 1.524 . S
C4048 C4062 1.377 . S
C4049 C4048 1.524 . S
C4049 C4050 1.397 . S
C4049 C4054 1.363 . S
C4050 H4027 0.950 . S
C4050 C4049 1.397 . S
C4050 C4051 1.334 . S
C4051 H4028 0.950 . S
C4051 C4050 1.334 . S
C4051 C4052 1.287 . S
C4052 C4051 1.287 . S
C4052 C4053 1.524 . S
C4052 H4071 0.913 . S
C4053 H4029 0.950 . S
C4053 C4052 1.524 . S
C4053 C4054 1.415 . S
C4054 H4030 0.950 . S
C4054 C4049 1.363 . S
C4054 C4053 1.415 . S
C4055 H4031 0.951 . S
C4055 C4056 1.366 . S
C4055 C4057 1.388 . S
C4056 C4055 1.366 . S
C4056 C4060 1.385 . S
C4057 H4032 0.951 . S
C4057 C4055 1.388 . S
C4057 C4058 1.366 . S
C4058 C4057 1.366 . S
C4058 C4059 1.414 . S
C4058 C4061 1.499 . S
C4059 H4033 0.950 . S
C4059 C4058 1.414 . S
C4059 C4060 1.374 . S
C4060 H4034 0.950 . S
C4060 C4056 1.385 . S
C4060 C4059 1.374 . S
C4061 C4058 1.499 . S
C4061 C4062 1.373 . S
C4061 C4063 1.389 . S
C4062 H4035 0.950 . S
C4062 C4048 1.377 . S
C4062 C4061 1.373 . S
C4063 C4047 1.377 . S
C4063 C4061 1.389 . S
C4063 C4064 1.524 . S
C4064 C4063 1.524 . S
C4064 C4065 1.397 . S
C4064 C4069 1.363 . S
C4065 H4036 0.950 . S
C4065 C4064 1.397 . S
C4065 C4066 1.334 . S
C4066 H4037 0.950 . S
C4066 C4065 1.334 . S
C4066 C4067 1.287 . S
C4067 C4066 1.287 . S
C4067 C4068 1.524 . S
C4067 H4070 0.999 . S
C4068 H4038 0.950 . S
C4068 C4067 1.524 . S
C4068 C4069 1.415 . S
C4069 H4039 0.950 . S
C4069 C4064 1.363 . S
C4069 C4068 1.415 . S
H4070 C4067 0.999 . S
H4071 C4052 0.913 . S
H4072 C4090 0.951 . S
H4073 C4092 0.951 . S
H4074 C4094 0.950 . S
H4075 C4095 0.950 . S
H4076 C4097 0.950 . S
H4077 C4100 0.950 . S
H4078 C4101 0.950 . S
H4079 C4103 0.950 . S
H4080 C4104 0.950 . S
H4081 C4105 0.951 . S
H4082 C4107 0.951 . S
H4083 C4109 0.950 . S
H4084 C4110 0.950 . S
H4085 C4112 0.950 . S
H4086 C4115 0.950 . S
H4087 C4116 0.950 . S
H4088 C4118 0.950 . S
H4089 C4119 0.950 . S
C4090 H4072 0.951 . S
C4090 C4091 1.366 . S
C4090 C4092 1.388 . S
C4091 C4090 1.366 . S
C4091 C4095 1.385 . S
C4092 H4073 0.951 . S
C4092 C4090 1.388 . S
C4092 C4093 1.366 . S
C4093 C4092 1.366 . S
C4093 C4094 1.414 . S
C4093 C4096 1.499 . S
C4094 H4074 0.950 . S
C4094 C4093 1.414 . S
C4094 C4095 1.374 . S
C4095 H4075 0.950 . S
C4095 C4091 1.385 . S
C4095 C4094 1.374 . S
C4096 C4093 1.499 . S
C4096 C4097 1.373 . S
C4096 C4098 1.389 . S
C4097 H4076 0.950 . S
C4097 C4096 1.373 . S
C4097 C4113 1.377 . S
C4098 C4096 1.389 . S
C4098 C4099 1.524 . S
C4098 C4112 1.377 . S
C4099 C4098 1.524 . S
C4099 C4100 1.397 . S
C4099 C4104 1.363 . S
C4100 H4077 0.950 . S
C4100 C4099 1.397 . S
C4100 C4101 1.334 . S
C4101 H4078 0.950 . S
C4101 C4100 1.334 . S
C4101 C4102 1.287 . S
C4102 C4101 1.287 . S
C4102 C4103 1.524 . S
C4102 H4121 0.913 . S
C4103 H4079 0.950 . S
C4103 C4102 1.524 . S
C4103 C4104 1.415 . S
C4104 H4080 0.950 . S
C4104 C4099 1.363 . S
C4104 C4103 1.415 . S
C4105 H4081 0.951 . S
C4105 C4106 1.366 . S
C4105 C4107 1.388 . S
C4106 C4105 1.366 . S
C4106 C4110 1.385 . S
C4107 H4082 0.951 . S
C4107 C4105 1.388 . S
C4107 C4108 1.366 . S
C4108 C4107 1.366 . S
C4108 C4109 1.414 . S
C4108 C4111 1.499 . S
C4109 H4083 0.950 . S
C4109 C4108 1.414 . S
C4109 C4110 1.374 . S
C4110 H4084 0.950 . S
C4110 C4106 1.385 . S
C4110 C4109 1.374 . S
C4111 C4108 1.499 . S
C4111 C4112 1.373 . S
C4111 C4113 1.389 . S
C4112 H4085 0.950 . S
C4112 C4098 1.377 . S
C4112 C4111 1.373 . S
C4113 C4097 1.377 . S
C4113 C4111 1.389 . S
C4113 C4114 1.524 . S
C4114 C4113 1.524 . S
C4114 C4115 1.397 . S
C4114 C4119 1.363 . S
C4115 H4086 0.950 . S
C4115 C4114 1.397 . S
C4115 C4116 1.334 . S
C4116 H4087 0.950 . S
C4116 C4115 1.334 . S
C4116 C4117 1.287 . S
C4117 C4116 1.287 . S
C4117 C4118 1.524 . S
C4117 H4120 0.999 . S
C4118 H4088 0.950 . S
C4118 C4117 1.524 . S
C4118 C4119 1.415 . S
C4119 H4089 0.950 . S
C4119 C4114 1.363 . S
C4119 C4118 1.415 . S
H4120 C4117 0.999 . S
H4121 C4102 0.913 . S
H4122 C4140 0.951 . S
H4123 C4142 0.951 . S
H4124 C4144 0.950 . S
H4125 C4145 0.950 . S
H4126 C4147 0.950 . S
H4127 C4150 0.950 . S
H4128 C4151 0.950 . S
H4129 C4153 0.950 . S
H4130 C4154 0.950 . S
H4131 C4155 0.951 . S
H4132 C4157 0.951 . S
H4133 C4159 0.950 . S
H4134 C4160 0.950 . S
H4135 C4162 0.950 . S
H4136 C4165 0.950 . S
H4137 C4166 0.950 . S
H4138 C4168 0.950 . S
H4139 C4169 0.950 . S
C4140 H4122 0.951 . S
C4140 C4141 1.366 . S
C4140 C4142 1.388 . S
C4141 C4140 1.366 . S
C4141 C4145 1.385 . S
C4142 H4123 0.951 . S
C4142 C4140 1.388 . S
C4142 C4143 1.366 . S
C4143 C4142 1.366 . S
C4143 C4144 1.414 . S
C4143 C4146 1.499 . S
C4144 H4124 0.950 . S
C4144 C4143 1.414 . S
C4144 C4145 1.374 . S
C4145 H4125 0.950 . S
C4145 C4141 1.385 . S
C4145 C4144 1.374 . S
C4146 C4143 1.499 . S
C4146 C4147 1.373 . S
C4146 C4148 1.389 . S
C4147 H4126 0.950 . S
C4147 C4146 1.373 . S
C4147 C4163 1.377 . S
C4148 C4146 1.389 . S
C4148 C4149 1.524 . S
C4148 C4162 1.377 . S
C4149 C4148 1.524 . S
C4149 C4150 1.397 . S
C4149 C4154 1.363 . S
C4150 H4127 0.950 . S
C4150 C4149 1.397 . S
C4150 C4151 1.334 . S
C4151 H4128 0.950 . S
C4151 C4150 1.334 . S
C4151 C4152 1.287 . S
C4152 C4151 1.287 . S
C4152 C4153 1.524 . S
C4152 H4171 0.913 . S
C4153 H4129 0.950 . S
C4153 C4152 1.524 . S
C4153 C4154 1.415 . S
C4154 H4130 0.950 . S
C4154 C4149 1.363 . S
C4154 C4153 1.415 . S
C4155 H4131 0.951 . S
C4155 C4156 1.366 . S
C4155 C4157 1.388 . S
C4156 C4155 1.366 . S
C4156 C4160 1.385 . S
C4157 H4132 0.951 . S
C4157 C4155 1.388 . S
C4157 C4158 1.366 . S
C4158 C4157 1.366 . S
C4158 C4159 1.414 . S
C4158 C4161 1.499 . S
C4159 H4133 0.950 . S
C4159 C4158 1.414 . S
C4159 C4160 1.374 . S
C4160 H4134 0.950 . S
C4160 C4156 1.385 . S
C4160 C4159 1.374 . S
C4161 C4158 1.499 . S
C4161 C4162 1.373 . S
C4161 C4163 1.389 . S
C4162 H4135 0.950 . S
C4162 C4148 1.377 . S
C4162 C4161 1.373 . S
C4163 C4147 1.377 . S
C4163 C4161 1.389 . S
C4163 C4164 1.524 . S
C4164 C4163 1.524 . S
C4164 C4165 1.397 . S
C4164 C4169 1.363 . S
C4165 H4136 0.950 . S
C4165 C4164 1.397 . S
C4165 C4166 1.334 . S
C4166 H4137 0.950 . S
C4166 C4165 1.334 . S
C4166 C4167 1.287 . S
C4167 C4166 1.287 . S
C4167 C4168 1.524 . S
C4167 H4170 0.999 . S
C4168 H4138 0.950 . S
C4168 C4167 1.524 . S
C4168 C4169 1.415 . S
C4169 H4139 0.950 . S
C4169 C4164 1.363 . S
C4169 C4168 1.415 . S
H4170 C4167 0.999 . S
H4171 C4152 0.913 . S
H4172 C4190 0.951 . S
H4173 C4192 0.951 . S
H4174 C4194 0.950 . S
H4175 C4195 0.950 . S
H4176 C4197 0.950 . S
H4177 C4200 0.950 . S
H4178 C4201 0.950 . S
H4179 C4203 0.950 . S
H4180 C4204 0.950 . S
H4181 C4205 0.951 . S
H4182 C4207 0.951 . S
H4183 C4209 0.950 . S
H4184 C4210 0.950 . S
H4185 C4212 0.950 . S
H4186 C4215 0.950 . S
H4187 C4216 0.950 . S
H4188 C4218 0.950 . S
H4189 C4219 0.950 . S
C4190 H4172 0.951 . S
C4190 C4191 1.366 . S
C4190 C4192 1.388 . S
C4191 C4190 1.366 . S
C4191 C4195 1.385 . S
C4192 H4173 0.951 . S
C4192 C4190 1.388 . S
C4192 C4193 1.366 . S
C4193 C4192 1.366 . S
C4193 C4194 1.414 . S
C4193 C4196 1.499 . S
C4194 H4174 0.950 . S
C4194 C4193 1.414 . S
C4194 C4195 1.374 . S
C4195 H4175 0.950 . S
C4195 C4191 1.385 . S
C4195 C4194 1.374 . S
C4196 C4193 1.499 . S
C4196 C4197 1.373 . S
C4196 C4198 1.389 . S
C4197 H4176 0.950 . S
C4197 C4196 1.373 . S
C4197 C4213 1.377 . S
C4198 C4196 1.389 . S
C4198 C4199 1.524 . S
C4198 C4212 1.377 . S
C4199 C4198 1.524 . S
C4199 C4200 1.397 . S
C4199 C4204 1.363 . S
C4200 H4177 0.950 . S
C4200 C4199 1.397 . S
C4200 C4201 1.334 . S
C4201 H4178 0.950 . S
C4201 C4200 1.334 . S
C4201 C4202 1.287 . S
C4202 C4201 1.287 . S
C4202 C4203 1.524 . S
C4202 H4221 0.913 . S
C4203 H4179 0.950 . S
C4203 C4202 1.524 . S
C4203 C4204 1.415 . S
C4204 H4180 0.950 . S
C4204 C4199 1.363 . S
C4204 C4203 1.415 . S
C4205 H4181 0.951 . S
C4205 C4206 1.366 . S
C4205 C4207 1.388 . S
C4206 C4205 1.366 . S
C4206 C4210 1.385 . S
C4207 H4182 0.951 . S
C4207 C4205 1.388 . S
C4207 C4208 1.366 . S
C4208 C4207 1.366 . S
C4208 C4209 1.414 . S
C4208 C4211 1.499 . S
C4209 H4183 0.950 . S
C4209 C4208 1.414 . S
C4209 C4210 1.374 . S
C4210 H4184 0.950 . S
C4210 C4206 1.385 . S
C4210 C4209 1.374 . S
C4211 C4208 1.499 . S
C4211 C4212 1.373 . S
C4211 C4213 1.389 . S
C4212 H4185 0.950 . S
C4212 C4198 1.377 . S
C4212 C4211 1.373 . S
C4213 C4197 1.377 . S
C4213 C4211 1.389 . S
C4213 C4214 1.524 . S
C4214 C4213 1.524 . S
C4214 C4215 1.397 . S
C4214 C4219 1.363 . S
C4215 H4186 0.950 . S
C4215 C4214 1.397 . S
C4215 C4216 1.334 . S
C4216 H4187 0.950 . S
C4216 C4215 1.334 . S
C4216 C4217 1.287 . S
C4217 C4216 1.287 . S
C4217 C4218 1.524 . S
C4217 H4220 0.999 . S
C4218 H4188 0.950 . S
C4218 C4217 1.524 . S
C4218 C4219 1.415 . S
C4219 H4189 0.950 . S
C4219 C4214 1.363 . S
C4219 C4218 1.415 . S
H4220 C4217 0.999 . S
H4221 C4202 0.913 . S
H4222 C4240 0.951 . S
H4223 C4242 0.951 . S
H4224 C4244 0.950 . S
H4225 C4245 0.950 . S
H4226 C4247 0.950 . S
H4227 C4250 0.950 . S
H4228 C4251 0.950 . S
H4229 C4253 0.950 . S
H4230 C4254 0.950 . S
H4231 C4255 0.951 . S
H4232 C4257 0.951 . S
H4233 C4259 0.950 . S
H4234 C4260 0.950 . S
H4235 C4262 0.950 . S
H4236 C4265 0.950 . S
H4237 C4266 0.950 . S
H4238 C4268 0.950 . S
H4239 C4269 0.950 . S
C4240 H4222 0.951 . S
C4240 C4241 1.366 . S
C4240 C4242 1.388 . S
C4241 C4240 1.366 . S
C4241 C4245 1.385 . S
C4242 H4223 0.951 . S
C4242 C4240 1.388 . S
C4242 C4243 1.366 . S
C4243 C4242 1.366 . S
C4243 C4244 1.414 . S
C4243 C4246 1.499 . S
C4244 H4224 0.950 . S
C4244 C4243 1.414 . S
C4244 C4245 1.374 . S
C4245 H4225 0.950 . S
C4245 C4241 1.385 . S
C4245 C4244 1.374 . S
C4246 C4243 1.499 . S
C4246 C4247 1.373 . S
C4246 C4248 1.389 . S
C4247 H4226 0.950 . S
C4247 C4246 1.373 . S
C4247 C4263 1.377 . S
C4248 C4246 1.389 . S
C4248 C4249 1.524 . S
C4248 C4262 1.377 . S
C4249 C4248 1.524 . S
C4249 C4250 1.397 . S
C4249 C4254 1.363 . S
C4250 H4227 0.950 . S
C4250 C4249 1.397 . S
C4250 C4251 1.334 . S
C4251 H4228 0.950 . S
C4251 C4250 1.334 . S
C4251 C4252 1.287 . S
C4252 C4251 1.287 . S
C4252 C4253 1.524 . S
C4252 H4271 0.913 . S
C4253 H4229 0.950 . S
C4253 C4252 1.524 . S
C4253 C4254 1.415 . S
C4254 H4230 0.950 . S
C4254 C4249 1.363 . S
C4254 C4253 1.415 . S
C4255 H4231 0.951 . S
C4255 C4256 1.366 . S
C4255 C4257 1.388 . S
C4256 C4255 1.366 . S
C4256 C4260 1.385 . S
C4257 H4232 0.951 . S
C4257 C4255 1.388 . S
C4257 C4258 1.366 . S
C4258 C4257 1.366 . S
C4258 C4259 1.414 . S
C4258 C4261 1.499 . S
C4259 H4233 0.950 . S
C4259 C4258 1.414 . S
C4259 C4260 1.374 . S
C4260 H4234 0.950 . S
C4260 C4256 1.385 . S
C4260 C4259 1.374 . S
C4261 C4258 1.499 . S
C4261 C4262 1.373 . S
C4261 C4263 1.389 . S
C4262 H4235 0.950 . S
C4262 C4248 1.377 . S
C4262 C4261 1.373 . S
C4263 C4247 1.377 . S
C4263 C4261 1.389 . S
C4263 C4264 1.524 . S
C4264 C4263 1.524 . S
C4264 C4265 1.397 . S
C4264 C4269 1.363 . S
C4265 H4236 0.950 . S
C4265 C4264 1.397 . S
C4265 C4266 1.334 . S
C4266 H4237 0.950 . S
C4266 C4265 1.334 . S
C4266 C4267 1.287 . S
C4267 C4266 1.287 . S
C4267 C4268 1.524 . S
C4267 H4270 0.999 . S
C4268 H4238 0.950 . S
C4268 C4267 1.524 . S
C4268 C4269 1.415 . S
C4269 H4239 0.950 . S
C4269 C4264 1.363 . S
C4269 C4268 1.415 . S
H4270 C4267 0.999 . S
H4271 C4252 0.913 . S
H4272 C4290 0.951 . S
H4273 C4292 0.951 . S
H4274 C4294 0.950 . S
H4275 C4295 0.950 . S
H4276 C4297 0.950 . S
H4277 C4300 0.950 . S
H4278 C4301 0.950 . S
H4279 C4303 0.950 . S
H4280 C4304 0.950 . S
H4281 C4305 0.951 . S
H4282 C4307 0.951 . S
H4283 C4309 0.950 . S
H4284 C4310 0.950 . S
H4285 C4312 0.950 . S
H4286 C4315 0.950 . S
H4287 C4316 0.950 . S
H4288 C4318 0.950 . S
H4289 C4319 0.950 . S
C4290 H4272 0.951 . S
C4290 C4291 1.366 . S
C4290 C4292 1.388 . S
C4291 C4290 1.366 . S
C4291 C4295 1.385 . S
C4292 H4273 0.951 . S
C4292 C4290 1.388 . S
C4292 C4293 1.366 . S
C4293 C4292 1.366 . S
C4293 C4294 1.414 . S
C4293 C4296 1.499 . S
C4294 H4274 0.950 . S
C4294 C4293 1.414 . S
C4294 C4295 1.374 . S
C4295 H4275 0.950 . S
C4295 C4291 1.385 . S
C4295 C4294 1.374 . S
C4296 C4293 1.499 . S
C4296 C4297 1.373 . S
C4296 C4298 1.389 . S
C4297 H4276 0.950 . S
C4297 C4296 1.373 . S
C4297 C4313 1.377 1_554 S
C4298 C4296 1.389 . S
C4298 C4299 1.524 . S
C4298 C4312 1.377 1_554 S
C4299 C4298 1.524 . S
C4299 C4300 1.397 . S
C4299 C4304 1.363 . S
C4300 H4277 0.950 . S
C4300 C4299 1.397 . S
C4300 C4301 1.334 . S
C4301 H4278 0.950 . S
C4301 C4300 1.334 . S
C4301 C4302 1.287 . S
C4302 C4301 1.287 . S
C4302 C4303 1.524 . S
C4302 H4321 0.913 . S
C4303 H4279 0.950 . S
C4303 C4302 1.524 . S
C4303 C4304 1.415 . S
C4304 H4280 0.950 . S
C4304 C4299 1.363 . S
C4304 C4303 1.415 . S
C4305 H4281 0.951 . S
C4305 C4306 1.366 . S
C4305 C4307 1.388 . S
C4306 C4305 1.366 . S
C4306 C4310 1.385 . S
C4307 H4282 0.951 . S
C4307 C4305 1.388 . S
C4307 C4308 1.366 . S
C4308 C4307 1.366 . S
C4308 C4309 1.414 . S
C4308 C4311 1.499 . S
C4309 H4283 0.950 . S
C4309 C4308 1.414 . S
C4309 C4310 1.374 . S
C4310 H4284 0.950 . S
C4310 C4306 1.385 . S
C4310 C4309 1.374 . S
C4311 C4308 1.499 . S
C4311 C4312 1.373 . S
C4311 C4313 1.389 . S
C4312 H4285 0.950 . S
C4312 C4298 1.377 1_556 S
C4312 C4311 1.373 . S
C4313 C4297 1.377 1_556 S
C4313 C4311 1.389 . S
C4313 C4314 1.524 . S
C4314 C4313 1.524 . S
C4314 C4315 1.397 . S
C4314 C4319 1.363 . S
C4315 H4286 0.950 . S
C4315 C4314 1.397 . S
C4315 C4316 1.334 . S
C4316 H4287 0.950 . S
C4316 C4315 1.334 . S
C4316 C4317 1.287 . S
C4317 C4316 1.287 . S
C4317 C4318 1.524 . S
C4317 H4320 0.999 . S
C4318 H4288 0.950 . S
C4318 C4317 1.524 . S
C4318 C4319 1.415 . S
C4319 H4289 0.950 . S
C4319 C4314 1.363 . S
C4319 C4318 1.415 . S
H4320 C4317 0.999 . S
H4321 C4302 0.913 . S
H4322 C4340 0.951 . S
H4323 C4342 0.951 . S
H4324 C4344 0.950 . S
H4325 C4345 0.950 . S
H4326 C4347 0.950 . S
H4327 C4350 0.950 . S
H4328 C4351 0.950 . S
H4329 C4353 0.950 . S
H4330 C4354 0.950 . S
H4331 C4355 0.951 . S
H4332 C4357 0.951 . S
H4333 C4359 0.950 . S
H4334 C4360 0.950 . S
H4335 C4362 0.950 . S
H4336 C4365 0.950 . S
H4337 C4366 0.950 . S
H4338 C4368 0.950 . S
H4339 C4369 0.950 . S
C4340 H4322 0.951 . S
C4340 C4341 1.366 . S
C4340 C4342 1.388 . S
C4341 C4340 1.366 . S
C4341 C4345 1.385 . S
C4342 H4323 0.951 . S
C4342 C4340 1.388 . S
C4342 C4343 1.366 . S
C4343 C4342 1.366 . S
C4343 C4344 1.414 . S
C4343 C4346 1.499 . S
C4344 H4324 0.950 . S
C4344 C4343 1.414 . S
C4344 C4345 1.374 . S
C4345 H4325 0.950 . S
C4345 C4341 1.385 . S
C4345 C4344 1.374 . S
C4346 C4343 1.499 . S
C4346 C4347 1.373 . S
C4346 C4348 1.389 . S
C4347 H4326 0.950 . S
C4347 C4346 1.373 . S
C4347 C4363 1.377 1_556 S
C4348 C4346 1.389 . S
C4348 C4349 1.524 . S
C4348 C4362 1.377 1_556 S
C4349 C4348 1.524 . S
C4349 C4350 1.397 . S
C4349 C4354 1.363 . S
C4350 H4327 0.950 . S
C4350 C4349 1.397 . S
C4350 C4351 1.334 . S
C4351 H4328 0.950 . S
C4351 C4350 1.334 . S
C4351 C4352 1.287 . S
C4352 C4351 1.287 . S
C4352 C4353 1.524 . S
C4352 H4371 0.913 . S
C4353 H4329 0.950 . S
C4353 C4352 1.524 . S
C4353 C4354 1.415 . S
C4354 H4330 0.950 . S
C4354 C4349 1.363 . S
C4354 C4353 1.415 . S
C4355 H4331 0.951 . S
C4355 C4356 1.366 . S
C4355 C4357 1.388 . S
C4356 C4355 1.366 . S
C4356 C4360 1.385 . S
C4357 H4332 0.951 . S
C4357 C4355 1.388 . S
C4357 C4358 1.366 . S
C4358 C4357 1.366 . S
C4358 C4359 1.414 . S
C4358 C4361 1.499 . S
C4359 H4333 0.950 . S
C4359 C4358 1.414 . S
C4359 C4360 1.374 . S
C4360 H4334 0.950 . S
C4360 C4356 1.385 . S
C4360 C4359 1.374 . S
C4361 C4358 1.499 . S
C4361 C4362 1.373 . S
C4361 C4363 1.389 . S
C4362 H4335 0.950 . S
C4362 C4348 1.377 1_554 S
C4362 C4361 1.373 . S
C4363 C4347 1.377 1_554 S
C4363 C4361 1.389 . S
C4363 C4364 1.524 . S
C4364 C4363 1.524 . S
C4364 C4365 1.397 . S
C4364 C4369 1.363 . S
C4365 H4336 0.950 . S
C4365 C4364 1.397 . S
C4365 C4366 1.334 . S
C4366 H4337 0.950 . S
C4366 C4365 1.334 . S
C4366 C4367 1.287 . S
C4367 C4366 1.287 . S
C4367 C4368 1.524 . S
C4367 H4370 0.999 . S
C4368 H4338 0.950 . S
C4368 C4367 1.524 . S
C4368 C4369 1.415 . S
C4369 H4339 0.950 . S
C4369 C4364 1.363 . S
C4369 C4368 1.415 . S
H4370 C4367 0.999 . S
H4371 C4352 0.913 . S
H4372 C4390 0.951 . S
H4373 C4392 0.951 . S
H4374 C4394 0.950 . S
H4375 C4395 0.950 . S
H4376 C4397 0.950 . S
H4377 C4400 0.950 . S
H4378 C4401 0.950 . S
H4379 C4403 0.950 . S
H4380 C4404 0.950 . S
H4381 C4405 0.951 . S
H4382 C4407 0.951 . S
H4383 C4409 0.950 . S
H4384 C4410 0.950 . S
H4385 C4412 0.950 . S
H4386 C4415 0.950 . S
H4387 C4416 0.950 . S
H4388 C4418 0.950 . S
H4389 C4419 0.950 . S
C4390 H4372 0.951 . S
C4390 C4391 1.366 . S
C4390 C4392 1.388 . S
C4391 C4390 1.366 . S
C4391 C4395 1.385 . S
C4392 H4373 0.951 . S
C4392 C4390 1.388 . S
C4392 C4393 1.366 . S
C4393 C4392 1.366 . S
C4393 C4394 1.414 . S
C4393 C4396 1.499 . S
C4394 H4374 0.950 . S
C4394 C4393 1.414 . S
C4394 C4395 1.374 . S
C4395 H4375 0.950 . S
C4395 C4391 1.385 . S
C4395 C4394 1.374 . S
C4396 C4393 1.499 . S
C4396 C4397 1.373 . S
C4396 C4398 1.389 . S
C4397 H4376 0.950 . S
C4397 C4396 1.373 . S
C4397 C4413 1.377 1_554 S
C4398 C4396 1.389 . S
C4398 C4399 1.524 . S
C4398 C4412 1.377 1_554 S
C4399 C4398 1.524 . S
C4399 C4400 1.397 . S
C4399 C4404 1.363 . S
C4400 H4377 0.950 . S
C4400 C4399 1.397 . S
C4400 C4401 1.334 . S
C4401 H4378 0.950 . S
C4401 C4400 1.334 . S
C4401 C4402 1.287 . S
C4402 C4401 1.287 . S
C4402 C4403 1.524 . S
C4402 H4421 0.913 . S
C4403 H4379 0.950 . S
C4403 C4402 1.524 . S
C4403 C4404 1.415 . S
C4404 H4380 0.950 . S
C4404 C4399 1.363 . S
C4404 C4403 1.415 . S
C4405 H4381 0.951 . S
C4405 C4406 1.366 . S
C4405 C4407 1.388 . S
C4406 C4405 1.366 . S
C4406 C4410 1.385 . S
C4407 H4382 0.951 . S
C4407 C4405 1.388 . S
C4407 C4408 1.366 . S
C4408 C4407 1.366 . S
C4408 C4409 1.414 . S
C4408 C4411 1.499 . S
C4409 H4383 0.950 . S
C4409 C4408 1.414 . S
C4409 C4410 1.374 . S
C4410 H4384 0.950 . S
C4410 C4406 1.385 . S
C4410 C4409 1.374 . S
C4411 C4408 1.499 . S
C4411 C4412 1.373 . S
C4411 C4413 1.389 . S
C4412 H4385 0.950 . S
C4412 C4398 1.377 1_556 S
C4412 C4411 1.373 . S
C4413 C4397 1.377 1_556 S
C4413 C4411 1.389 . S
C4413 C4414 1.524 . S
C4414 C4413 1.524 . S
C4414 C4415 1.397 . S
C4414 C4419 1.363 . S
C4415 H4386 0.950 . S
C4415 C4414 1.397 . S
C4415 C4416 1.334 . S
C4416 H4387 0.950 . S
C4416 C4415 1.334 . S
C4416 C4417 1.287 . S
C4417 C4416 1.287 . S
C4417 C4418 1.524 . S
C4417 H4420 0.999 . S
C4418 H4388 0.950 . S
C4418 C4417 1.524 . S
C4418 C4419 1.415 . S
C4419 H4389 0.950 . S
C4419 C4414 1.363 . S
C4419 C4418 1.415 . S
H4420 C4417 0.999 . S
H4421 C4402 0.913 . S
H4422 C4440 0.951 . S
H4423 C4442 0.951 . S
H4424 C4444 0.950 . S
H4425 C4445 0.950 . S
H4426 C4447 0.950 . S
H4427 C4450 0.950 . S
H4428 C4451 0.950 . S
H4429 C4453 0.950 . S
H4430 C4454 0.950 . S
H4431 C4455 0.951 . S
H4432 C4457 0.951 . S
H4433 C4459 0.950 . S
H4434 C4460 0.950 . S
H4435 C4462 0.950 . S
H4436 C4465 0.950 . S
H4437 C4466 0.950 . S
H4438 C4468 0.950 . S
H4439 C4469 0.950 . S
C4440 H4422 0.951 . S
C4440 C4441 1.366 . S
C4440 C4442 1.388 . S
C4441 C4440 1.366 . S
C4441 C4445 1.385 . S
C4442 H4423 0.951 . S
C4442 C4440 1.388 . S
C4442 C4443 1.366 . S
C4443 C4442 1.366 . S
C4443 C4444 1.414 . S
C4443 C4446 1.499 . S
C4444 H4424 0.950 . S
C4444 C4443 1.414 . S
C4444 C4445 1.374 . S
C4445 H4425 0.950 . S
C4445 C4441 1.385 . S
C4445 C4444 1.374 . S
C4446 C4443 1.499 . S
C4446 C4447 1.373 . S
C4446 C4448 1.389 . S
C4447 H4426 0.950 . S
C4447 C4446 1.373 . S
C4447 C4463 1.377 1_554 S
C4448 C4446 1.389 . S
C4448 C4449 1.524 . S
C4448 C4462 1.377 1_554 S
C4449 C4448 1.524 . S
C4449 C4450 1.397 . S
C4449 C4454 1.363 . S
C4450 H4427 0.950 . S
C4450 C4449 1.397 . S
C4450 C4451 1.334 . S
C4451 H4428 0.950 . S
C4451 C4450 1.334 . S
C4451 C4452 1.287 . S
C4452 C4451 1.287 . S
C4452 C4453 1.524 . S
C4452 H4471 0.913 . S
C4453 H4429 0.950 . S
C4453 C4452 1.524 . S
C4453 C4454 1.415 . S
C4454 H4430 0.950 . S
C4454 C4449 1.363 . S
C4454 C4453 1.415 . S
C4455 H4431 0.951 . S
C4455 C4456 1.366 . S
C4455 C4457 1.388 . S
C4456 C4455 1.366 . S
C4456 C4460 1.385 . S
C4457 H4432 0.951 . S
C4457 C4455 1.388 . S
C4457 C4458 1.366 . S
C4458 C4457 1.366 . S
C4458 C4459 1.414 . S
C4458 C4461 1.499 . S
C4459 H4433 0.950 . S
C4459 C4458 1.414 . S
C4459 C4460 1.374 . S
C4460 H4434 0.950 . S
C4460 C4456 1.385 . S
C4460 C4459 1.374 . S
C4461 C4458 1.499 . S
C4461 C4462 1.373 . S
C4461 C4463 1.389 . S
C4462 H4435 0.950 . S
C4462 C4448 1.377 1_556 S
C4462 C4461 1.373 . S
C4463 C4447 1.377 1_556 S
C4463 C4461 1.389 . S
C4463 C4464 1.524 . S
C4464 C4463 1.524 . S
C4464 C4465 1.397 . S
C4464 C4469 1.363 . S
C4465 H4436 0.950 . S
C4465 C4464 1.397 . S
C4465 C4466 1.334 . S
C4466 H4437 0.950 . S
C4466 C4465 1.334 . S
C4466 C4467 1.287 . S
C4467 C4466 1.287 . S
C4467 C4468 1.524 . S
C4467 H4470 0.999 . S
C4468 H4438 0.950 . S
C4468 C4467 1.524 . S
C4468 C4469 1.415 . S
C4469 H4439 0.950 . S
C4469 C4464 1.363 . S
C4469 C4468 1.415 . S
H4470 C4467 0.999 . S
H4471 C4452 0.913 . S
H4472 C4490 0.951 . S
H4473 C4492 0.951 . S
H4474 C4494 0.950 . S
H4475 C4495 0.950 . S
H4476 C4497 0.950 . S
H4477 C4500 0.950 . S
H4478 C4501 0.950 . S
H4479 C4503 0.950 . S
H4480 C4504 0.989 . S
H4481 C4505 0.951 . S
H4482 C4507 0.951 . S
H4483 C4509 0.950 . S
H4484 C4510 0.950 . S
H4485 C4512 0.950 . S
H4486 C4515 0.950 . S
H4487 C4516 0.950 . S
H4488 C4518 0.950 . S
H4489 C4519 0.950 . S
C4490 H4472 0.951 . S
C4490 C4491 1.366 . S
C4490 C4492 1.388 . S
C4491 C4490 1.366 . S
C4491 C4495 1.385 . S
C4492 H4473 0.951 . S
C4492 C4490 1.388 . S
C4492 C4493 1.366 . S
C4493 C4492 1.366 . S
C4493 C4494 1.414 . S
C4493 C4496 1.499 . S
C4494 H4474 0.950 . S
C4494 C4493 1.414 . S
C4494 C4495 1.374 . S
C4495 H4475 0.950 . S
C4495 C4491 1.385 . S
C4495 C4494 1.374 . S
C4496 C4493 1.499 . S
C4496 C4497 1.373 . S
C4496 C4498 1.389 . S
C4497 H4476 0.950 . S
C4497 C4496 1.373 . S
C4497 C4513 1.377 1_556 S
C4498 C4496 1.389 . S
C4498 C4499 1.524 . S
C4498 C4512 1.377 1_556 S
C4499 C4498 1.524 . S
C4499 C4500 1.397 . S
C4499 C4504 1.363 . S
C4500 H4477 0.950 . S
C4500 C4499 1.397 . S
C4500 C4501 1.334 . S
C4501 H4478 0.950 . S
C4501 C4500 1.334 . S
C4501 C4502 1.287 . S
C4502 C4501 1.287 . S
C4502 C4503 1.524 . S
C4502 H4521 0.913 . S
C4503 H4479 0.950 . S
C4503 C4502 1.524 . S
C4503 C4504 1.415 . S
C4504 H4480 0.989 . S
C4504 C4499 1.363 . S
C4504 C4503 1.415 . S
C4505 H4481 0.951 . S
C4505 C4506 1.366 . S
C4505 C4507 1.388 . S
C4506 C4505 1.366 . S
C4506 C4510 1.385 . S
C4507 H4482 0.951 . S
C4507 C4505 1.388 . S
C4507 C4508 1.366 . S
C4508 C4507 1.366 . S
C4508 C4509 1.414 . S
C4508 C4511 1.499 . S
C4509 H4483 0.950 . S
C4509 C4508 1.414 . S
C4509 C4510 1.374 . S
C4510 H4484 0.950 . S
C4510 C4506 1.385 . S
C4510 C4509 1.374 . S
C4511 C4508 1.499 . S
C4511 C4512 1.373 . S
C4511 C4513 1.389 . S
C4512 H4485 0.950 . S
C4512 C4498 1.377 1_554 S
C4512 C4511 1.373 . S
C4513 C4497 1.377 1_554 S
C4513 C4511 1.389 . S
C4513 C4514 1.524 . S
C4514 C4513 1.524 . S
C4514 C4515 1.397 . S
C4514 C4519 1.363 . S
C4515 H4486 0.950 . S
C4515 C4514 1.397 . S
C4515 C4516 1.334 . S
C4516 H4487 0.950 . S
C4516 C4515 1.334 . S
C4516 C4517 1.287 . S
C4517 C4516 1.287 . S
C4517 C4518 1.524 . S
C4517 H4520 0.999 . S
C4518 H4488 0.950 . S
C4518 C4517 1.524 . S
C4518 C4519 1.415 . S
C4519 H4489 0.950 . S
C4519 C4514 1.363 . S
C4519 C4518 1.415 . S
H4520 C4517 0.999 . S
H4521 C4502 0.913 . S
H4522 C4540 0.951 . S
H4523 C4542 0.951 . S
H4524 C4544 0.950 . S
H4525 C4545 0.950 . S
H4526 C4547 0.950 . S
H4527 C4550 0.950 . S
H4528 C4551 0.950 . S
H4529 C4553 0.950 . S
H4530 C4554 0.950 . S
H4531 C4555 0.951 . S
H4532 C4557 0.951 . S
H4533 C4559 0.950 . S
H4534 C4560 0.950 . S
H4535 C4562 0.950 . S
H4536 C4565 0.950 . S
H4537 C4566 0.950 . S
H4538 C4568 0.950 . S
H4539 C4569 0.950 . S
C4540 H4522 0.951 . S
C4540 C4541 1.366 . S
C4540 C4542 1.388 . S
C4541 C4540 1.366 . S
C4541 C4545 1.385 . S
C4542 H4523 0.951 . S
C4542 C4540 1.388 . S
C4542 C4543 1.366 . S
C4543 C4542 1.366 . S
C4543 C4544 1.414 . S
C4543 C4546 1.499 . S
C4544 H4524 0.950 . S
C4544 C4543 1.414 . S
C4544 C4545 1.374 . S
C4545 H4525 0.950 . S
C4545 C4541 1.385 . S
C4545 C4544 1.374 . S
C4546 C4543 1.499 . S
C4546 C4547 1.373 . S
C4546 C4548 1.389 . S
C4547 H4526 0.950 . S
C4547 C4546 1.373 . S
C4547 C4563 1.377 1_554 S
C4548 C4546 1.389 . S
C4548 C4549 1.524 . S
C4548 C4562 1.377 1_554 S
C4549 C4548 1.524 . S
C4549 C4550 1.397 . S
C4549 C4554 1.363 . S
C4550 H4527 0.950 . S
C4550 C4549 1.397 . S
C4550 C4551 1.334 . S
C4551 H4528 0.950 . S
C4551 C4550 1.334 . S
C4551 C4552 1.287 . S
C4552 C4551 1.287 . S
C4552 C4553 1.524 . S
C4552 H4571 0.913 . S
C4553 H4529 0.950 . S
C4553 C4552 1.524 . S
C4553 C4554 1.415 . S
C4554 H4530 0.950 . S
C4554 C4549 1.363 . S
C4554 C4553 1.415 . S
C4555 H4531 0.951 . S
C4555 C4556 1.366 . S
C4555 C4557 1.388 . S
C4556 C4555 1.366 . S
C4556 C4560 1.385 . S
C4557 H4532 0.951 . S
C4557 C4555 1.388 . S
C4557 C4558 1.366 . S
C4558 C4557 1.366 . S
C4558 C4559 1.414 . S
C4558 C4561 1.499 . S
C4559 H4533 0.950 . S
C4559 C4558 1.414 . S
C4559 C4560 1.374 . S
C4560 H4534 0.950 . S
C4560 C4556 1.385 . S
C4560 C4559 1.374 . S
C4561 C4558 1.499 . S
C4561 C4562 1.373 . S
C4561 C4563 1.389 . S
C4562 H4535 0.950 . S
C4562 C4548 1.377 1_556 S
C4562 C4561 1.373 . S
C4563 C4547 1.377 1_556 S
C4563 C4561 1.389 . S
C4563 C4564 1.524 . S
C4564 C4563 1.524 . S
C4564 C4565 1.397 . S
C4564 C4569 1.363 . S
C4565 H4536 0.950 . S
C4565 C4564 1.397 . S
C4565 C4566 1.334 . S
C4566 H4537 0.950 . S
C4566 C4565 1.334 . S
C4566 C4567 1.287 . S
C4567 C4566 1.287 . S
C4567 C4568 1.524 . S
C4567 H4570 0.999 . S
C4568 H4538 0.950 . S
C4568 C4567 1.524 . S
C4568 C4569 1.415 . S
C4569 H4539 0.950 . S
C4569 C4564 1.363 . S
C4569 C4568 1.415 . S
H4570 C4567 0.999 . S
H4571 C4552 0.913 . S
H4572 C4590 0.951 . S
H4573 C4592 0.951 . S
H4574 C4594 0.950 . S
H4575 C4595 0.950 . S
H4576 C4597 0.950 . S
H4577 C4600 0.950 . S
H4578 C4601 0.950 . S
H4579 C4603 0.950 . S
H4580 C4604 1.000 . S
H4581 C4605 0.951 . S
H4582 C4607 0.951 . S
H4583 C4609 0.950 . S
H4584 C4610 0.950 . S
H4585 C4612 0.950 . S
H4586 C4615 0.950 . S
H4587 C4616 0.950 . S
H4588 C4618 0.950 . S
H4589 C4619 0.950 . S
C4590 H4572 0.951 . S
C4590 C4591 1.366 . S
C4590 C4592 1.388 . S
C4591 C4590 1.366 . S
C4591 C4595 1.385 . S
C4592 H4573 0.951 . S
C4592 C4590 1.388 . S
C4592 C4593 1.366 . S
C4593 C4592 1.366 . S
C4593 C4594 1.414 . S
C4593 C4596 1.499 . S
C4594 H4574 0.950 . S
C4594 C4593 1.414 . S
C4594 C4595 1.374 . S
C4595 H4575 0.950 . S
C4595 C4591 1.385 . S
C4595 C4594 1.374 . S
C4596 C4593 1.499 . S
C4596 C4597 1.373 . S
C4596 C4598 1.389 . S
C4597 H4576 0.950 . S
C4597 C4596 1.373 . S
C4597 C4613 1.377 1_556 S
C4598 C4596 1.389 . S
C4598 C4599 1.524 . S
C4598 C4612 1.377 1_556 S
C4599 C4598 1.524 . S
C4599 C4600 1.397 . S
C4599 C4604 1.363 . S
C4600 H4577 0.950 . S
C4600 C4599 1.397 . S
C4600 C4601 1.334 . S
C4601 H4578 0.950 . S
C4601 C4600 1.334 . S
C4601 C4602 1.287 . S
C4602 C4601 1.287 . S
C4602 C4603 1.524 . S
C4602 H4621 0.913 . S
C4603 H4579 0.950 . S
C4603 C4602 1.524 . S
C4603 C4604 1.415 . S
C4604 H4580 1.000 . S
C4604 C4599 1.363 . S
C4604 C4603 1.415 . S
C4605 H4581 0.951 . S
C4605 C4606 1.366 . S
C4605 C4607 1.388 . S
C4606 C4605 1.366 . S
C4606 C4610 1.385 . S
C4607 H4582 0.951 . S
C4607 C4605 1.388 . S
C4607 C4608 1.366 . S
C4608 C4607 1.366 . S
C4608 C4609 1.414 . S
C4608 C4611 1.499 . S
C4609 H4583 0.950 . S
C4609 C4608 1.414 . S
C4609 C4610 1.374 . S
C4610 H4584 0.950 . S
C4610 C4606 1.385 . S
C4610 C4609 1.374 . S
C4611 C4608 1.499 . S
C4611 C4612 1.373 . S
C4611 C4613 1.389 . S
C4612 H4585 0.950 . S
C4612 C4598 1.377 1_554 S
C4612 C4611 1.373 . S
C4613 C4597 1.377 1_554 S
C4613 C4611 1.389 . S
C4613 C4614 1.524 . S
C4614 C4613 1.524 . S
C4614 C4615 1.397 . S
C4614 C4619 1.363 . S
C4615 H4586 0.950 . S
C4615 C4614 1.397 . S
C4615 C4616 1.334 . S
C4616 H4587 0.950 . S
C4616 C4615 1.334 . S
C4616 C4617 1.287 . S
C4617 C4616 1.287 . S
C4617 C4618 1.524 . S
C4617 H4620 0.999 . S
C4618 H4588 0.950 . S
C4618 C4617 1.524 . S
C4618 C4619 1.415 . S
C4619 H4589 0.950 . S
C4619 C4614 1.363 . S
C4619 C4618 1.415 . S
H4620 C4617 0.999 . S
H4621 C4602 0.913 . S
H4622 C4640 0.951 . S
H4623 C4642 0.951 . S
H4624 C4644 0.950 . S
H4625 C4645 0.950 . S
H4626 C4647 0.950 . S
H4627 C4650 0.950 . S
H4628 C4651 0.950 . S
H4629 C4653 0.950 . S
H4630 C4654 0.950 . S
H4631 C4655 0.951 . S
H4632 C4657 0.951 . S
H4633 C4659 0.950 . S
H4634 C4660 0.950 . S
H4635 C4662 0.950 . S
H4636 C4665 0.950 . S
H4637 C4666 0.950 . S
H4638 C4668 0.950 . S
H4639 C4669 0.950 . S
C4640 H4622 0.951 . S
C4640 C4641 1.366 . S
C4640 C4642 1.388 . S
C4641 C4640 1.366 . S
C4641 C4645 1.385 . S
C4642 H4623 0.951 . S
C4642 C4640 1.388 . S
C4642 C4643 1.366 . S
C4643 C4642 1.366 . S
C4643 C4644 1.414 . S
C4643 C4646 1.499 . S
C4644 H4624 0.950 . S
C4644 C4643 1.414 . S
C4644 C4645 1.374 . S
C4645 H4625 0.950 . S
C4645 C4641 1.385 . S
C4645 C4644 1.374 . S
C4646 C4643 1.499 . S
C4646 C4647 1.373 . S
C4646 C4648 1.389 . S
C4647 H4626 0.950 . S
C4647 C4646 1.373 . S
C4647 C4663 1.377 1_554 S
C4648 C4646 1.389 . S
C4648 C4649 1.524 . S
C4648 C4662 1.377 1_554 S
C4649 C4648 1.524 . S
C4649 C4650 1.397 . S
C4649 C4654 1.363 . S
C4650 H4627 0.950 . S
C4650 C4649 1.397 . S
C4650 C4651 1.334 . S
C4651 H4628 0.950 . S
C4651 C4650 1.334 . S
C4651 C4652 1.287 . S
C4652 C4651 1.287 . S
C4652 C4653 1.524 . S
C4652 H4671 0.913 . S
C4653 H4629 0.950 . S
C4653 C4652 1.524 . S
C4653 C4654 1.415 . S
C4654 H4630 0.950 . S
C4654 C4649 1.363 . S
C4654 C4653 1.415 . S
C4655 H4631 0.951 . S
C4655 C4656 1.366 . S
C4655 C4657 1.388 . S
C4656 C4655 1.366 . S
C4656 C4660 1.385 . S
C4657 H4632 0.951 . S
C4657 C4655 1.388 . S
C4657 C4658 1.366 . S
C4658 C4657 1.366 . S
C4658 C4659 1.414 . S
C4658 C4661 1.499 . S
C4659 H4633 0.950 . S
C4659 C4658 1.414 . S
C4659 C4660 1.374 . S
C4660 H4634 0.950 . S
C4660 C4656 1.385 . S
C4660 C4659 1.374 . S
C4661 C4658 1.499 . S
C4661 C4662 1.373 . S
C4661 C4663 1.389 . S
C4662 H4635 0.950 . S
C4662 C4648 1.377 1_556 S
C4662 C4661 1.373 . S
C4663 C4647 1.377 1_556 S
C4663 C4661 1.389 . S
C4663 C4664 1.524 . S
C4664 C4663 1.524 . S
C4664 C4665 1.397 . S
C4664 C4669 1.363 . S
C4665 H4636 0.950 . S
C4665 C4664 1.397 . S
C4665 C4666 1.334 . S
C4666 H4637 0.950 . S
C4666 C4665 1.334 . S
C4666 C4667 1.287 . S
C4667 C4666 1.287 . S
C4667 C4668 1.524 . S
C4667 H4670 0.999 . S
C4668 H4638 0.950 . S
C4668 C4667 1.524 . S
C4668 C4669 1.415 . S
C4669 H4639 0.950 . S
C4669 C4664 1.363 . S
C4669 C4668 1.415 . S
H4670 C4667 0.999 . S
H4671 C4652 0.913 . S
H4672 C4690 0.951 . S
H4673 C4692 0.951 . S
H4674 C4694 0.950 . S
H4675 C4695 0.950 . S
H4676 C4697 0.950 . S
H4677 C4700 0.950 . S
H4678 C4701 0.950 . S
H4679 C4703 0.950 . S
H4680 C4704 0.950 . S
H4681 C4705 0.951 . S
H4682 C4707 0.951 . S
H4683 C4709 0.950 . S
H4684 C4710 0.950 . S
H4685 C4712 0.950 . S
H4686 C4715 0.950 . S
H4687 C4716 0.950 . S
H4688 C4718 0.950 . S
H4689 C4719 0.950 . S
C4690 H4672 0.951 . S
C4690 C4691 1.366 . S
C4690 C4692 1.388 . S
C4691 C4690 1.366 . S
C4691 C4695 1.385 . S
C4692 H4673 0.951 . S
C4692 C4690 1.388 . S
C4692 C4693 1.366 . S
C4693 C4692 1.366 . S
C4693 C4694 1.414 . S
C4693 C4696 1.499 . S
C4694 H4674 0.950 . S
C4694 C4693 1.414 . S
C4694 C4695 1.374 . S
C4695 H4675 0.950 . S
C4695 C4691 1.385 . S
C4695 C4694 1.374 . S
C4696 C4693 1.499 . S
C4696 C4697 1.373 . S
C4696 C4698 1.389 . S
C4697 H4676 0.950 . S
C4697 C4696 1.373 . S
C4697 C4713 1.377 1_455 S
C4698 C4696 1.389 . S
C4698 C4699 1.524 . S
C4698 C4712 1.377 1_455 S
C4699 C4698 1.524 . S
C4699 C4700 1.397 . S
C4699 C4704 1.363 . S
C4700 H4677 0.950 . S
C4700 C4699 1.397 . S
C4700 C4701 1.334 . S
C4701 H4678 0.950 . S
C4701 C4700 1.334 . S
C4701 C4702 1.287 . S
C4702 C4701 1.287 . S
C4702 C4703 1.524 . S
C4702 H4721 0.913 . S
C4703 H4679 0.950 . S
C4703 C4702 1.524 . S
C4703 C4704 1.415 . S
C4704 H4680 0.950 . S
C4704 C4699 1.363 . S
C4704 C4703 1.415 . S
C4705 H4681 0.951 . S
C4705 C4706 1.366 . S
C4705 C4707 1.388 . S
C4706 C4705 1.366 . S
C4706 C4710 1.385 . S
C4707 H4682 0.951 . S
C4707 C4705 1.388 . S
C4707 C4708 1.366 . S
C4708 C4707 1.366 . S
C4708 C4709 1.414 . S
C4708 C4711 1.499 . S
C4709 H4683 0.950 . S
C4709 C4708 1.414 . S
C4709 C4710 1.374 . S
C4710 H4684 0.950 . S
C4710 C4706 1.385 . S
C4710 C4709 1.374 . S
C4711 C4708 1.499 . S
C4711 C4712 1.373 . S
C4711 C4713 1.389 . S
C4712 H4685 0.950 . S
C4712 C4698 1.377 1_655 S
C4712 C4711 1.373 . S
C4713 C4697 1.377 1_655 S
C4713 C4711 1.389 . S
C4713 C4714 1.524 . S
C4714 C4713 1.524 . S
C4714 C4715 1.397 . S
C4714 C4719 1.363 . S
C4715 H4686 0.950 . S
C4715 C4714 1.397 . S
C4715 C4716 1.334 . S
C4716 H4687 0.950 . S
C4716 C4715 1.334 . S
C4716 C4717 1.287 . S
C4717 C4716 1.287 . S
C4717 C4718 1.524 . S
C4717 H4720 0.999 . S
C4718 H4688 0.950 . S
C4718 C4717 1.524 . S
C4718 C4719 1.415 . S
C4719 H4689 0.950 . S
C4719 C4714 1.363 . S
C4719 C4718 1.415 . S
H4720 C4717 0.999 . S
H4721 C4702 0.913 . S
H4722 C4740 0.951 . S
H4723 C4742 0.951 . S
H4724 C4744 0.950 . S
H4725 C4745 0.950 . S
H4726 C4747 0.950 . S
H4727 C4750 0.950 . S
H4728 C4751 0.950 . S
H4729 C4753 0.950 . S
H4730 C4754 0.950 . S
H4731 C4755 0.951 . S
H4732 C4757 0.951 . S
H4733 C4759 0.950 . S
H4734 C4760 0.950 . S
H4735 C4762 0.950 . S
H4736 C4765 0.950 . S
H4737 C4766 0.950 . S
H4738 C4768 0.950 . S
H4739 C4769 0.950 . S
C4740 H4722 0.951 . S
C4740 C4741 1.366 . S
C4740 C4742 1.388 . S
C4741 C4740 1.366 . S
C4741 C4745 1.385 . S
C4742 H4723 0.951 . S
C4742 C4740 1.388 . S
C4742 C4743 1.366 . S
C4743 C4742 1.366 . S
C4743 C4744 1.414 . S
C4743 C4746 1.499 . S
C4744 H4724 0.950 . S
C4744 C4743 1.414 . S
C4744 C4745 1.374 . S
C4745 H4725 0.950 . S
C4745 C4741 1.385 . S
C4745 C4744 1.374 . S
C4746 C4743 1.499 . S
C4746 C4747 1.373 . S
C4746 C4748 1.389 . S
C4747 H4726 0.950 . S
C4747 C4746 1.373 . S
C4747 C4763 1.377 1_565 S
C4748 C4746 1.389 . S
C4748 C4749 1.524 . S
C4748 C4762 1.377 1_565 S
C4749 C4748 1.524 . S
C4749 C4750 1.397 . S
C4749 C4754 1.363 . S
C4750 H4727 0.950 . S
C4750 C4749 1.397 . S
C4750 C4751 1.334 . S
C4751 H4728 0.950 . S
C4751 C4750 1.334 . S
C4751 C4752 1.287 . S
C4752 C4751 1.287 . S
C4752 C4753 1.524 . S
C4752 H4771 0.913 . S
C4753 H4729 0.950 . S
C4753 C4752 1.524 . S
C4753 C4754 1.415 . S
C4754 H4730 0.950 . S
C4754 C4749 1.363 . S
C4754 C4753 1.415 . S
C4755 H4731 0.951 . S
C4755 C4756 1.366 . S
C4755 C4757 1.388 . S
C4756 C4755 1.366 . S
C4756 C4760 1.385 . S
C4757 H4732 0.951 . S
C4757 C4755 1.388 . S
C4757 C4758 1.366 . S
C4758 C4757 1.366 . S
C4758 C4759 1.414 . S
C4758 C4761 1.499 . S
C4759 H4733 0.950 . S
C4759 C4758 1.414 . S
C4759 C4760 1.374 . S
C4760 H4734 0.950 . S
C4760 C4756 1.385 . S
C4760 C4759 1.374 . S
C4761 C4758 1.499 . S
C4761 C4762 1.373 . S
C4761 C4763 1.389 . S
C4762 H4735 0.950 . S
C4762 C4748 1.377 1_545 S
C4762 C4761 1.373 . S
C4763 C4747 1.377 1_545 S
C4763 C4761 1.389 . S
C4763 C4764 1.524 . S
C4764 C4763 1.524 . S
C4764 C4765 1.397 . S
C4764 C4769 1.363 . S
C4765 H4736 0.950 . S
C4765 C4764 1.397 . S
C4765 C4766 1.334 . S
C4766 H4737 0.950 . S
C4766 C4765 1.334 . S
C4766 C4767 1.287 . S
C4767 C4766 1.287 . S
C4767 C4768 1.524 . S
C4767 H4770 0.999 . S
C4768 H4738 0.950 . S
C4768 C4767 1.524 . S
C4768 C4769 1.415 . S
C4769 H4739 0.950 . S
C4769 C4764 1.363 . S
C4769 C4768 1.415 . S
H4770 C4767 0.999 . S
H4771 C4752 0.913 . S
H4772 C4790 0.951 . S
H4773 C4792 0.951 . S
H4774 C4794 0.950 . S
H4775 C4795 0.950 . S
H4776 C4797 0.950 . S
H4777 C4800 0.950 . S
H4778 C4801 0.950 . S
H4779 C4803 0.950 . S
H4780 C4804 0.950 . S
H4781 C4805 0.951 . S
H4782 C4807 0.951 . S
H4783 C4809 0.950 . S
H4784 C4810 0.950 . S
H4785 C4812 0.950 . S
H4786 C4815 0.950 . S
H4787 C4816 0.950 . S
H4788 C4818 0.950 . S
H4789 C4819 0.950 . S
C4790 H4772 0.951 . S
C4790 C4791 1.366 . S
C4790 C4792 1.388 . S
C4791 C4790 1.366 . S
C4791 C4795 1.385 . S
C4792 H4773 0.951 . S
C4792 C4790 1.388 . S
C4792 C4793 1.366 . S
C4793 C4792 1.366 . S
C4793 C4794 1.414 . S
C4793 C4796 1.499 . S
C4794 H4774 0.950 . S
C4794 C4793 1.414 . S
C4794 C4795 1.374 . S
C4795 H4775 0.950 . S
C4795 C4791 1.385 . S
C4795 C4794 1.374 . S
C4796 C4793 1.499 . S
C4796 C4797 1.373 . S
C4796 C4798 1.389 . S
C4797 H4776 0.950 . S
C4797 C4796 1.373 . S
C4797 C4813 1.377 1_455 S
C4798 C4796 1.389 . S
C4798 C4799 1.524 . S
C4798 C4812 1.377 1_455 S
C4799 C4798 1.524 . S
C4799 C4800 1.397 . S
C4799 C4804 1.363 . S
C4800 H4777 0.950 . S
C4800 C4799 1.397 . S
C4800 C4801 1.334 . S
C4801 H4778 0.950 . S
C4801 C4800 1.334 . S
C4801 C4802 1.287 . S
C4802 C4801 1.287 . S
C4802 C4803 1.524 . S
C4802 H4821 0.913 . S
C4803 H4779 0.950 . S
C4803 C4802 1.524 . S
C4803 C4804 1.415 . S
C4804 H4780 0.950 . S
C4804 C4799 1.363 . S
C4804 C4803 1.415 . S
C4805 H4781 0.951 . S
C4805 C4806 1.366 . S
C4805 C4807 1.388 . S
C4806 C4805 1.366 . S
C4806 C4810 1.385 . S
C4807 H4782 0.951 . S
C4807 C4805 1.388 . S
C4807 C4808 1.366 . S
C4808 C4807 1.366 . S
C4808 C4809 1.414 . S
C4808 C4811 1.499 . S
C4809 H4783 0.950 . S
C4809 C4808 1.414 . S
C4809 C4810 1.374 . S
C4810 H4784 0.950 . S
C4810 C4806 1.385 . S
C4810 C4809 1.374 . S
C4811 C4808 1.499 . S
C4811 C4812 1.373 . S
C4811 C4813 1.389 . S
C4812 H4785 0.950 . S
C4812 C4798 1.377 1_655 S
C4812 C4811 1.373 . S
C4813 C4797 1.377 1_655 S
C4813 C4811 1.389 . S
C4813 C4814 1.524 . S
C4814 C4813 1.524 . S
C4814 C4815 1.397 . S
C4814 C4819 1.363 . S
C4815 H4786 0.950 . S
C4815 C4814 1.397 . S
C4815 C4816 1.334 . S
C4816 H4787 0.950 . S
C4816 C4815 1.334 . S
C4816 C4817 1.287 . S
C4817 C4816 1.287 . S
C4817 C4818 1.524 . S
C4817 H4820 0.999 . S
C4818 H4788 0.950 . S
C4818 C4817 1.524 . S
C4818 C4819 1.415 . S
C4819 H4789 0.950 . S
C4819 C4814 1.363 . S
C4819 C4818 1.415 . S
H4820 C4817 0.999 . S
H4821 C4802 0.913 . S
H4822 C4840 0.951 . S
H4823 C4842 0.951 . S
H4824 C4844 0.950 . S
H4825 C4845 0.950 . S
H4826 C4847 0.950 . S
H4827 C4850 0.950 . S
H4828 C4851 0.950 . S
H4829 C4853 0.950 . S
H4830 C4854 0.937 1_545 S
H4831 C4855 0.951 . S
H4832 C4857 0.951 . S
H4833 C4859 0.950 . S
H4834 C4860 0.950 . S
H4835 C4862 0.950 . S
H4836 C4865 0.950 . S
H4837 C4866 0.950 . S
H4838 C4868 0.950 . S
H4839 C4869 0.950 . S
C4840 H4822 0.951 . S
C4840 C4841 1.366 . S
C4840 C4842 1.388 . S
C4841 C4840 1.366 . S
C4841 C4845 1.385 . S
C4842 H4823 0.951 . S
C4842 C4840 1.388 . S
C4842 C4843 1.366 . S
C4843 C4842 1.366 . S
C4843 C4844 1.414 . S
C4843 C4846 1.499 . S
C4844 H4824 0.950 . S
C4844 C4843 1.414 . S
C4844 C4845 1.374 . S
C4845 H4825 0.950 . S
C4845 C4841 1.385 . S
C4845 C4844 1.374 . S
C4846 C4843 1.499 . S
C4846 C4847 1.373 . S
C4846 C4848 1.389 . S
C4847 H4826 0.950 . S
C4847 C4846 1.373 . S
C4847 C4863 1.377 1_565 S
C4848 C4846 1.389 . S
C4848 C4849 1.524 . S
C4848 C4862 1.377 1_565 S
C4849 C4848 1.524 . S
C4849 C4850 1.397 . S
C4849 C4854 1.363 . S
C4850 H4827 0.950 . S
C4850 C4849 1.397 . S
C4850 C4851 1.334 . S
C4851 H4828 0.950 . S
C4851 C4850 1.334 . S
C4851 C4852 1.287 . S
C4852 C4851 1.287 . S
C4852 C4853 1.524 . S
C4852 H4871 0.913 . S
C4853 H4829 0.950 . S
C4853 C4852 1.524 . S
C4853 C4854 1.415 . S
C4854 H4830 0.937 1_565 S
C4854 C4849 1.363 . S
C4854 C4853 1.415 . S
C4855 H4831 0.951 . S
C4855 C4856 1.366 . S
C4855 C4857 1.388 . S
C4856 C4855 1.366 . S
C4856 C4860 1.385 . S
C4857 H4832 0.951 . S
C4857 C4855 1.388 . S
C4857 C4858 1.366 . S
C4858 C4857 1.366 . S
C4858 C4859 1.414 . S
C4858 C4861 1.499 . S
C4859 H4833 0.950 . S
C4859 C4858 1.414 . S
C4859 C4860 1.374 . S
C4860 H4834 0.950 . S
C4860 C4856 1.385 . S
C4860 C4859 1.374 . S
C4861 C4858 1.499 . S
C4861 C4862 1.373 . S
C4861 C4863 1.389 . S
C4862 H4835 0.950 . S
C4862 C4848 1.377 1_545 S
C4862 C4861 1.373 . S
C4863 C4847 1.377 1_545 S
C4863 C4861 1.389 . S
C4863 C4864 1.524 . S
C4864 C4863 1.524 . S
C4864 C4865 1.397 . S
C4864 C4869 1.363 . S
C4865 H4836 0.950 . S
C4865 C4864 1.397 . S
C4865 C4866 1.334 . S
C4866 H4837 0.950 . S
C4866 C4865 1.334 . S
C4866 C4867 1.287 . S
C4867 C4866 1.287 . S
C4867 C4868 1.524 . S
C4867 H4870 0.999 . S
C4868 H4838 0.950 . S
C4868 C4867 1.524 . S
C4868 C4869 1.415 . S
C4869 H4839 0.950 . S
C4869 C4864 1.363 . S
C4869 C4868 1.415 . S
H4870 C4867 0.999 . S
H4871 C4852 0.913 . S
H4872 C4890 0.951 . S
H4873 C4892 0.951 . S
H4874 C4894 0.950 . S
H4875 C4895 0.950 . S
H4876 C4897 0.950 . S
H4877 C4900 0.950 . S
H4878 C4901 0.950 . S
H4879 C4903 0.950 . S
H4880 C4904 0.970 . S
H4881 C4905 0.951 . S
H4882 C4907 0.951 . S
H4883 C4909 0.950 . S
H4884 C4910 0.950 . S
H4885 C4912 0.950 . S
H4886 C4915 0.950 . S
H4887 C4916 0.950 . S
H4888 C4918 0.950 . S
H4889 C4919 0.950 . S
C4890 H4872 0.951 . S
C4890 C4891 1.366 . S
C4890 C4892 1.388 . S
C4891 C4890 1.366 . S
C4891 C4895 1.385 . S
C4892 H4873 0.951 . S
C4892 C4890 1.388 . S
C4892 C4893 1.366 . S
C4893 C4892 1.366 . S
C4893 C4894 1.414 . S
C4893 C4896 1.499 . S
C4894 H4874 0.950 . S
C4894 C4893 1.414 . S
C4894 C4895 1.374 . S
C4895 H4875 0.950 . S
C4895 C4891 1.385 . S
C4895 C4894 1.374 . S
C4896 C4893 1.499 . S
C4896 C4897 1.373 . S
C4896 C4898 1.389 . S
C4897 H4876 0.950 . S
C4897 C4896 1.373 . S
C4897 C4913 1.377 1_655 S
C4898 C4896 1.389 . S
C4898 C4899 1.524 . S
C4898 C4912 1.377 1_655 S
C4899 C4898 1.524 . S
C4899 C4900 1.397 . S
C4899 C4904 1.363 . S
C4900 H4877 0.950 . S
C4900 C4899 1.397 . S
C4900 C4901 1.334 . S
C4901 H4878 0.950 . S
C4901 C4900 1.334 . S
C4901 C4902 1.287 . S
C4902 C4901 1.287 . S
C4902 C4903 1.524 . S
C4902 H4921 0.913 . S
C4903 H4879 0.950 . S
C4903 C4902 1.524 . S
C4903 C4904 1.415 . S
C4904 H4880 0.970 . S
C4904 C4899 1.363 . S
C4904 C4903 1.415 . S
C4905 H4881 0.951 . S
C4905 C4906 1.366 . S
C4905 C4907 1.388 . S
C4906 C4905 1.366 . S
C4906 C4910 1.385 . S
C4907 H4882 0.951 . S
C4907 C4905 1.388 . S
C4907 C4908 1.366 . S
C4908 C4907 1.366 . S
C4908 C4909 1.414 . S
C4908 C4911 1.499 . S
C4909 H4883 0.950 . S
C4909 C4908 1.414 . S
C4909 C4910 1.374 . S
C4910 H4884 0.950 . S
C4910 C4906 1.385 . S
C4910 C4909 1.374 . S
C4911 C4908 1.499 . S
C4911 C4912 1.373 . S
C4911 C4913 1.389 . S
C4912 H4885 0.950 . S
C4912 C4898 1.377 1_455 S
C4912 C4911 1.373 . S
C4913 C4897 1.377 1_455 S
C4913 C4911 1.389 . S
C4913 C4914 1.524 . S
C4914 C4913 1.524 . S
C4914 C4915 1.397 . S
C4914 C4919 1.363 . S
C4915 H4886 0.950 . S
C4915 C4914 1.397 . S
C4915 C4916 1.334 . S
C4916 H4887 0.950 . S
C4916 C4915 1.334 . S
C4916 C4917 1.287 . S
C4917 C4916 1.287 . S
C4917 C4918 1.524 . S
C4917 H4920 0.999 . S
C4918 H4888 0.950 . S
C4918 C4917 1.524 . S
C4918 C4919 1.415 . S
C4919 H4889 0.950 . S
C4919 C4914 1.363 . S
C4919 C4918 1.415 . S
H4920 C4917 0.999 . S
H4921 C4902 0.913 . S
H4922 C4940 0.951 . S
H4923 C4942 0.951 . S
H4924 C4944 0.950 . S
H4925 C4945 0.950 . S
H4926 C4947 0.950 . S
H4927 C4950 0.950 . S
H4928 C4951 0.950 . S
H4929 C4953 0.950 . S
H4930 C4954 0.950 . S
H4931 C4955 0.951 . S
H4932 C4957 0.951 . S
H4933 C4959 0.950 . S
H4934 C4960 0.950 . S
H4935 C4962 0.950 . S
H4936 C4965 0.950 . S
H4937 C4966 0.950 . S
H4938 C4968 0.950 . S
H4939 C4969 0.950 . S
C4940 H4922 0.951 . S
C4940 C4941 1.366 . S
C4940 C4942 1.388 . S
C4941 C4940 1.366 . S
C4941 C4945 1.385 . S
C4942 H4923 0.951 . S
C4942 C4940 1.388 . S
C4942 C4943 1.366 . S
C4943 C4942 1.366 . S
C4943 C4944 1.414 . S
C4943 C4946 1.499 . S
C4944 H4924 0.950 . S
C4944 C4943 1.414 . S
C4944 C4945 1.374 . S
C4945 H4925 0.950 . S
C4945 C4941 1.385 . S
C4945 C4944 1.374 . S
C4946 C4943 1.499 . S
C4946 C4947 1.373 . S
C4946 C4948 1.389 . S
C4947 H4926 0.950 . S
C4947 C4946 1.373 . S
C4947 C4963 1.377 1_545 S
C4948 C4946 1.389 . S
C4948 C4949 1.524 . S
C4948 C4962 1.377 1_545 S
C4949 C4948 1.524 . S
C4949 C4950 1.397 . S
C4949 C4954 1.363 . S
C4950 H4927 0.950 . S
C4950 C4949 1.397 . S
C4950 C4951 1.334 . S
C4951 H4928 0.950 . S
C4951 C4950 1.334 . S
C4951 C4952 1.287 . S
C4952 C4951 1.287 . S
C4952 C4953 1.524 . S
C4952 H4971 0.913 . S
C4953 H4929 0.950 . S
C4953 C4952 1.524 . S
C4953 C4954 1.415 . S
C4954 H4930 0.950 . S
C4954 C4949 1.363 . S
C4954 C4953 1.415 . S
C4955 H4931 0.951 . S
C4955 C4956 1.366 . S
C4955 C4957 1.388 . S
C4956 C4955 1.366 . S
C4956 C4960 1.385 . S
C4957 H4932 0.951 . S
C4957 C4955 1.388 . S
C4957 C4958 1.366 . S
C4958 C4957 1.366 . S
C4958 C4959 1.414 . S
C4958 C4961 1.499 . S
C4959 H4933 0.950 . S
C4959 C4958 1.414 . S
C4959 C4960 1.374 . S
C4960 H4934 0.950 . S
C4960 C4956 1.385 . S
C4960 C4959 1.374 . S
C4961 C4958 1.499 . S
C4961 C4962 1.373 . S
C4961 C4963 1.389 . S
C4962 H4935 0.950 . S
C4962 C4948 1.377 1_565 S
C4962 C4961 1.373 . S
C4963 C4947 1.377 1_565 S
C4963 C4961 1.389 . S
C4963 C4964 1.524 . S
C4964 C4963 1.524 . S
C4964 C4965 1.397 . S
C4964 C4969 1.363 . S
C4965 H4936 0.950 . S
C4965 C4964 1.397 . S
C4965 C4966 1.334 . S
C4966 H4937 0.950 . S
C4966 C4965 1.334 . S
C4966 C4967 1.287 . S
C4967 C4966 1.287 . S
C4967 C4968 1.524 . S
C4967 H4970 0.999 . S
C4968 H4938 0.950 . S
C4968 C4967 1.524 . S
C4968 C4969 1.415 . S
C4969 H4939 0.950 . S
C4969 C4964 1.363 . S
C4969 C4968 1.415 . S
H4970 C4967 0.999 . S
H4971 C4952 0.913 . S
H4972 C4990 0.951 . S
H4973 C4992 0.951 . S
H4974 C4994 0.950 . S
H4975 C4995 0.950 . S
H4976 C4997 0.950 . S
H4977 C5000 0.950 . S
H4978 C5001 0.950 . S
H4979 C5003 0.950 . S
H4980 C5004 0.961 . S
H4981 C5005 0.951 . S
H4982 C5007 0.951 . S
H4983 C5009 0.950 . S
H4984 C5010 0.950 . S
H4985 C5012 0.950 . S
H4986 C5015 0.950 . S
H4987 C5016 0.950 . S
H4988 C5018 0.950 . S
H4989 C5019 0.950 . S
C4990 H4972 0.951 . S
C4990 C4991 1.366 . S
C4990 C4992 1.388 . S
C4991 C4990 1.366 . S
C4991 C4995 1.385 . S
C4992 H4973 0.951 . S
C4992 C4990 1.388 . S
C4992 C4993 1.366 . S
C4993 C4992 1.366 . S
C4993 C4994 1.414 . S
C4993 C4996 1.499 . S
C4994 H4974 0.950 . S
C4994 C4993 1.414 . S
C4994 C4995 1.374 . S
C4995 H4975 0.950 . S
C4995 C4991 1.385 . S
C4995 C4994 1.374 . S
C4996 C4993 1.499 . S
C4996 C4997 1.373 . S
C4996 C4998 1.389 . S
C4997 H4976 0.950 . S
C4997 C4996 1.373 . S
C4997 C5013 1.377 1_455 S
C4998 C4996 1.389 . S
C4998 C4999 1.524 . S
C4998 C5012 1.377 1_455 S
C4999 C4998 1.524 . S
C4999 C5000 1.397 . S
C4999 C5004 1.363 . S
C5000 H4977 0.950 . S
C5000 C4999 1.397 . S
C5000 C5001 1.334 . S
C5001 H4978 0.950 . S
C5001 C5000 1.334 . S
C5001 C5002 1.287 . S
C5002 C5001 1.287 . S
C5002 C5003 1.524 . S
C5002 H5021 0.913 . S
C5003 H4979 0.950 . S
C5003 C5002 1.524 . S
C5003 C5004 1.415 . S
C5004 H4980 0.961 . S
C5004 C4999 1.363 . S
C5004 C5003 1.415 . S
C5005 H4981 0.951 . S
C5005 C5006 1.366 . S
C5005 C5007 1.388 . S
C5006 C5005 1.366 . S
C5006 C5010 1.385 . S
C5007 H4982 0.951 . S
C5007 C5005 1.388 . S
C5007 C5008 1.366 . S
C5008 C5007 1.366 . S
C5008 C5009 1.414 . S
C5008 C5011 1.499 . S
C5009 H4983 0.950 . S
C5009 C5008 1.414 . S
C5009 C5010 1.374 . S
C5010 H4984 0.950 . S
C5010 C5006 1.385 . S
C5010 C5009 1.374 . S
C5011 C5008 1.499 . S
C5011 C5012 1.373 . S
C5011 C5013 1.389 . S
C5012 H4985 0.950 . S
C5012 C4998 1.377 1_655 S
C5012 C5011 1.373 . S
C5013 C4997 1.377 1_655 S
C5013 C5011 1.389 . S
C5013 C5014 1.524 . S
C5014 C5013 1.524 . S
C5014 C5015 1.397 . S
C5014 C5019 1.363 . S
C5015 H4986 0.950 . S
C5015 C5014 1.397 . S
C5015 C5016 1.334 . S
C5016 H4987 0.950 . S
C5016 C5015 1.334 . S
C5016 C5017 1.287 . S
C5017 C5016 1.287 . S
C5017 C5018 1.524 . S
C5017 H5020 0.999 . S
C5018 H4988 0.950 . S
C5018 C5017 1.524 . S
C5018 C5019 1.415 . S
C5019 H4989 0.950 . S
C5019 C5014 1.363 . S
C5019 C5018 1.415 . S
H5020 C5017 0.999 . S
H5021 C5002 0.913 . S
H5022 C5040 0.951 . S
H5023 C5042 0.951 . S
H5024 C5044 0.950 . S
H5025 C5045 0.950 . S
H5026 C5047 0.950 . S
H5027 C5050 0.950 . S
H5028 C5051 0.950 . S
H5029 C5053 0.950 . S
H5030 C5054 0.950 . S
H5031 C5055 0.951 . S
H5032 C5057 0.951 . S
H5033 C5059 0.950 . S
H5034 C5060 0.950 . S
H5035 C5062 0.950 . S
H5036 C5065 0.950 . S
H5037 C5066 0.950 . S
H5038 C5068 0.950 . S
H5039 C5069 0.950 . S
C5040 H5022 0.951 . S
C5040 C5041 1.366 . S
C5040 C5042 1.388 . S
C5041 C5040 1.366 . S
C5041 C5045 1.385 . S
C5042 H5023 0.951 . S
C5042 C5040 1.388 . S
C5042 C5043 1.366 . S
C5043 C5042 1.366 . S
C5043 C5044 1.414 . S
C5043 C5046 1.499 . S
C5044 H5024 0.950 . S
C5044 C5043 1.414 . S
C5044 C5045 1.374 . S
C5045 H5025 0.950 . S
C5045 C5041 1.385 . S
C5045 C5044 1.374 . S
C5046 C5043 1.499 . S
C5046 C5047 1.373 . S
C5046 C5048 1.389 . S
C5047 H5026 0.950 . S
C5047 C5046 1.373 . S
C5047 C5063 1.377 1_545 S
C5048 C5046 1.389 . S
C5048 C5049 1.524 . S
C5048 C5062 1.377 1_545 S
C5049 C5048 1.524 . S
C5049 C5050 1.397 . S
C5049 C5054 1.363 . S
C5050 H5027 0.950 . S
C5050 C5049 1.397 . S
C5050 C5051 1.334 . S
C5051 H5028 0.950 . S
C5051 C5050 1.334 . S
C5051 C5052 1.287 . S
C5052 C5051 1.287 . S
C5052 C5053 1.524 . S
C5052 H5071 0.913 . S
C5053 H5029 0.950 . S
C5053 C5052 1.524 . S
C5053 C5054 1.415 . S
C5054 H5030 0.950 . S
C5054 C5049 1.363 . S
C5054 C5053 1.415 . S
C5055 H5031 0.951 . S
C5055 C5056 1.366 . S
C5055 C5057 1.388 . S
C5056 C5055 1.366 . S
C5056 C5060 1.385 . S
C5057 H5032 0.951 . S
C5057 C5055 1.388 . S
C5057 C5058 1.366 . S
C5058 C5057 1.366 . S
C5058 C5059 1.414 . S
C5058 C5061 1.499 . S
C5059 H5033 0.950 . S
C5059 C5058 1.414 . S
C5059 C5060 1.374 . S
C5060 H5034 0.950 . S
C5060 C5056 1.385 . S
C5060 C5059 1.374 . S
C5061 C5058 1.499 . S
C5061 C5062 1.373 . S
C5061 C5063 1.389 . S
C5062 H5035 0.950 . S
C5062 C5048 1.377 1_565 S
C5062 C5061 1.373 . S
C5063 C5047 1.377 1_565 S
C5063 C5061 1.389 . S
C5063 C5064 1.524 . S
C5064 C5063 1.524 . S
C5064 C5065 1.397 . S
C5064 C5069 1.363 . S
C5065 H5036 0.950 . S
C5065 C5064 1.397 . S
C5065 C5066 1.334 . S
C5066 H5037 0.950 . S
C5066 C5065 1.334 . S
C5066 C5067 1.287 . S
C5067 C5066 1.287 . S
C5067 C5068 1.524 . S
C5067 H5070 0.999 . S
C5068 H5038 0.950 . S
C5068 C5067 1.524 . S
C5068 C5069 1.415 . S
C5069 H5039 0.950 . S
C5069 C5064 1.363 . S
C5069 C5068 1.415 . S
H5070 C5067 0.999 . S
H5071 C5052 0.913 . S
H5072 C5090 0.951 . S
H5073 C5092 0.951 . S
H5074 C5094 0.950 . S
H5075 C5095 0.950 . S
H5076 C5097 0.950 . S
H5077 C5100 0.950 . S
H5078 C5101 0.950 . S
H5079 C5103 0.950 . S
H5080 C5104 0.950 . S
H5081 C5105 0.951 . S
H5082 C5107 0.951 . S
H5083 C5109 0.950 . S
H5084 C5110 0.950 . S
H5085 C5112 0.950 . S
H5086 C5115 0.950 . S
H5087 C5116 0.950 . S
H5088 C5118 0.950 . S
H5089 C5119 0.947 . S
C5090 H5072 0.951 . S
C5090 C5091 1.366 . S
C5090 C5092 1.388 . S
C5091 C5090 1.366 . S
C5091 C5095 1.385 . S
C5092 H5073 0.951 . S
C5092 C5090 1.388 . S
C5092 C5093 1.366 . S
C5093 C5092 1.366 . S
C5093 C5094 1.414 . S
C5093 C5096 1.499 . S
C5094 H5074 0.950 . S
C5094 C5093 1.414 . S
C5094 C5095 1.374 . S
C5095 H5075 0.950 . S
C5095 C5091 1.385 . S
C5095 C5094 1.374 . S
C5096 C5093 1.499 . S
C5096 C5097 1.373 . S
C5096 C5098 1.389 . S
C5097 H5076 0.950 . S
C5097 C5096 1.373 . S
C5097 C5113 1.377 1_545 S
C5098 C5096 1.389 . S
C5098 C5099 1.524 . S
C5098 C5112 1.377 1_545 S
C5099 C5098 1.524 . S
C5099 C5100 1.397 . S
C5099 C5104 1.363 . S
C5100 H5077 0.950 . S
C5100 C5099 1.397 . S
C5100 C5101 1.334 . S
C5101 H5078 0.950 . S
C5101 C5100 1.334 . S
C5101 C5102 1.287 . S
C5102 C5101 1.287 . S
C5102 C5103 1.524 . S
C5102 H5121 0.913 . S
C5103 H5079 0.950 . S
C5103 C5102 1.524 . S
C5103 C5104 1.415 . S
C5104 H5080 0.950 . S
C5104 C5099 1.363 . S
C5104 C5103 1.415 . S
C5105 H5081 0.951 . S
C5105 C5106 1.366 . S
C5105 C5107 1.388 . S
C5106 C5105 1.366 . S
C5106 C5110 1.385 . S
C5107 H5082 0.951 . S
C5107 C5105 1.388 . S
C5107 C5108 1.366 . S
C5108 C5107 1.366 . S
C5108 C5109 1.414 . S
C5108 C5111 1.499 . S
C5109 H5083 0.950 . S
C5109 C5108 1.414 . S
C5109 C5110 1.374 . S
C5110 H5084 0.950 . S
C5110 C5106 1.385 . S
C5110 C5109 1.374 . S
C5111 C5108 1.499 . S
C5111 C5112 1.373 . S
C5111 C5113 1.389 . S
C5112 H5085 0.950 . S
C5112 C5098 1.377 1_565 S
C5112 C5111 1.373 . S
C5113 C5097 1.377 1_565 S
C5113 C5111 1.389 . S
C5113 C5114 1.524 . S
C5114 C5113 1.524 . S
C5114 C5115 1.397 . S
C5114 C5119 1.363 . S
C5115 H5086 0.950 . S
C5115 C5114 1.397 . S
C5115 C5116 1.334 . S
C5116 H5087 0.950 . S
C5116 C5115 1.334 . S
C5116 C5117 1.287 . S
C5117 C5116 1.287 . S
C5117 C5118 1.524 . S
C5117 H5120 0.999 . S
C5118 H5088 0.950 . S
C5118 C5117 1.524 . S
C5118 C5119 1.415 . S
C5119 H5089 0.947 . S
C5119 C5114 1.363 . S
C5119 C5118 1.415 . S
H5120 C5117 0.999 . S
H5121 C5102 0.913 . S
H5122 C5140 0.951 . S
H5123 C5142 0.951 . S
H5124 C5144 0.950 . S
H5125 C5145 0.950 . S
H5126 C5147 0.950 . S
H5127 C5150 0.950 . S
H5128 C5151 0.950 . S
H5129 C5153 0.950 . S
H5130 C5154 0.950 . S
H5131 C5155 0.951 . S
H5132 C5157 0.951 . S
H5133 C5159 0.950 . S
H5134 C5160 0.950 . S
H5135 C5162 0.950 . S
H5136 C5165 0.950 . S
H5137 C5166 0.950 . S
H5138 C5168 0.950 . S
H5139 C5169 0.978 . S
C5140 H5122 0.951 . S
C5140 C5141 1.366 . S
C5140 C5142 1.388 . S
C5141 C5140 1.366 . S
C5141 C5145 1.385 . S
C5142 H5123 0.951 . S
C5142 C5140 1.388 . S
C5142 C5143 1.366 . S
C5143 C5142 1.366 . S
C5143 C5144 1.414 . S
C5143 C5146 1.499 . S
C5144 H5124 0.950 . S
C5144 C5143 1.414 . S
C5144 C5145 1.374 . S
C5145 H5125 0.950 . S
C5145 C5141 1.385 . S
C5145 C5144 1.374 . S
C5146 C5143 1.499 . S
C5146 C5147 1.373 . S
C5146 C5148 1.389 . S
C5147 H5126 0.950 . S
C5147 C5146 1.373 . S
C5147 C5163 1.377 1_545 S
C5148 C5146 1.389 . S
C5148 C5149 1.524 . S
C5148 C5162 1.377 1_545 S
C5149 C5148 1.524 . S
C5149 C5150 1.397 . S
C5149 C5154 1.363 . S
C5150 H5127 0.950 . S
C5150 C5149 1.397 . S
C5150 C5151 1.334 . S
C5151 H5128 0.950 . S
C5151 C5150 1.334 . S
C5151 C5152 1.287 . S
C5152 C5151 1.287 . S
C5152 C5153 1.524 . S
C5152 H5171 0.913 . S
C5153 H5129 0.950 . S
C5153 C5152 1.524 . S
C5153 C5154 1.415 . S
C5154 H5130 0.950 . S
C5154 C5149 1.363 . S
C5154 C5153 1.415 . S
C5155 H5131 0.951 . S
C5155 C5156 1.366 . S
C5155 C5157 1.388 . S
C5156 C5155 1.366 . S
C5156 C5160 1.385 . S
C5157 H5132 0.951 . S
C5157 C5155 1.388 . S
C5157 C5158 1.366 . S
C5158 C5157 1.366 . S
C5158 C5159 1.414 . S
C5158 C5161 1.499 . S
C5159 H5133 0.950 . S
C5159 C5158 1.414 . S
C5159 C5160 1.374 . S
C5160 H5134 0.950 . S
C5160 C5156 1.385 . S
C5160 C5159 1.374 . S
C5161 C5158 1.499 . S
C5161 C5162 1.373 . S
C5161 C5163 1.389 . S
C5162 H5135 0.950 . S
C5162 C5148 1.377 1_565 S
C5162 C5161 1.373 . S
C5163 C5147 1.377 1_565 S
C5163 C5161 1.389 . S
C5163 C5164 1.524 . S
C5164 C5163 1.524 . S
C5164 C5165 1.397 . S
C5164 C5169 1.363 . S
C5165 H5136 0.950 . S
C5165 C5164 1.397 . S
C5165 C5166 1.334 . S
C5166 H5137 0.950 . S
C5166 C5165 1.334 . S
C5166 C5167 1.287 . S
C5167 C5166 1.287 . S
C5167 C5168 1.524 . S
C5167 H5170 0.999 . S
C5168 H5138 0.950 . S
C5168 C5167 1.524 . S
C5168 C5169 1.415 . S
C5169 H5139 0.978 . S
C5169 C5164 1.363 . S
C5169 C5168 1.415 . S
H5170 C5167 0.999 . S
H5171 C5152 0.913 . S
H5172 C5190 0.951 . S
H5173 C5192 0.951 . S
H5174 C5194 0.950 . S
H5175 C5195 0.950 . S
H5176 C5197 0.950 . S
H5177 C5200 0.950 . S
H5178 C5201 0.950 . S
H5179 C5203 0.950 . S
H5180 C5204 0.950 . S
H5181 C5205 0.951 . S
H5182 C5207 0.951 . S
H5183 C5209 0.950 . S
H5184 C5210 0.950 . S
H5185 C5212 0.950 . S
H5186 C5215 0.950 . S
H5187 C5216 0.950 . S
H5188 C5218 0.950 . S
H5189 C5219 0.950 . S
C5190 H5172 0.951 . S
C5190 C5191 1.366 . S
C5190 C5192 1.388 . S
C5191 C5190 1.366 . S
C5191 C5195 1.385 . S
C5192 H5173 0.951 . S
C5192 C5190 1.388 . S
C5192 C5193 1.366 . S
C5193 C5192 1.366 . S
C5193 C5194 1.414 . S
C5193 C5196 1.499 . S
C5194 H5174 0.950 . S
C5194 C5193 1.414 . S
C5194 C5195 1.374 . S
C5195 H5175 0.950 . S
C5195 C5191 1.385 . S
C5195 C5194 1.374 . S
C5196 C5193 1.499 . S
C5196 C5197 1.373 . S
C5196 C5198 1.389 . S
C5197 H5176 0.950 . S
C5197 C5196 1.373 . S
C5197 C5213 1.377 1_655 S
C5198 C5196 1.389 . S
C5198 C5199 1.524 . S
C5198 C5212 1.377 1_655 S
C5199 C5198 1.524 . S
C5199 C5200 1.397 . S
C5199 C5204 1.363 . S
C5200 H5177 0.950 . S
C5200 C5199 1.397 . S
C5200 C5201 1.334 . S
C5201 H5178 0.950 . S
C5201 C5200 1.334 . S
C5201 C5202 1.287 . S
C5202 C5201 1.287 . S
C5202 C5203 1.524 . S
C5202 H5221 0.913 . S
C5203 H5179 0.950 . S
C5203 C5202 1.524 . S
C5203 C5204 1.415 . S
C5204 H5180 0.950 . S
C5204 C5199 1.363 . S
C5204 C5203 1.415 . S
C5205 H5181 0.951 . S
C5205 C5206 1.366 . S
C5205 C5207 1.388 . S
C5206 C5205 1.366 . S
C5206 C5210 1.385 . S
C5207 H5182 0.951 . S
C5207 C5205 1.388 . S
C5207 C5208 1.366 . S
C5208 C5207 1.366 . S
C5208 C5209 1.414 . S
C5208 C5211 1.499 . S
C5209 H5183 0.950 . S
C5209 C5208 1.414 . S
C5209 C5210 1.374 . S
C5210 H5184 0.950 . S
C5210 C5206 1.385 . S
C5210 C5209 1.374 . S
C5211 C5208 1.499 . S
C5211 C5212 1.373 . S
C5211 C5213 1.389 . S
C5212 H5185 0.950 . S
C5212 C5198 1.377 1_455 S
C5212 C5211 1.373 . S
C5213 C5197 1.377 1_455 S
C5213 C5211 1.389 . S
C5213 C5214 1.524 . S
C5214 C5213 1.524 . S
C5214 C5215 1.397 . S
C5214 C5219 1.363 . S
C5215 H5186 0.950 . S
C5215 C5214 1.397 . S
C5215 C5216 1.334 . S
C5216 H5187 0.950 . S
C5216 C5215 1.334 . S
C5216 C5217 1.287 . S
C5217 C5216 1.287 . S
C5217 C5218 1.524 . S
C5217 H5220 0.999 . S
C5218 H5188 0.950 . S
C5218 C5217 1.524 . S
C5218 C5219 1.415 . S
C5219 H5189 0.950 . S
C5219 C5214 1.363 . S
C5219 C5218 1.415 . S
H5220 C5217 0.999 . S
H5221 C5202 0.913 . S
H5222 C5240 0.951 . S
H5223 C5242 0.951 . S
H5224 C5244 0.950 . S
H5225 C5245 0.950 . S
H5226 C5247 0.950 . S
H5227 C5250 0.950 . S
H5228 C5251 0.950 . S
H5229 C5253 0.950 . S
H5230 C5254 0.940 1_565 S
H5231 C5255 0.951 . S
H5232 C5257 0.951 . S
H5233 C5259 0.950 . S
H5234 C5260 0.950 . S
H5235 C5262 0.950 . S
H5236 C5265 0.950 . S
H5237 C5266 0.950 . S
H5238 C5268 0.950 . S
H5239 C5269 0.950 . S
C5240 H5222 0.951 . S
C5240 C5241 1.366 . S
C5240 C5242 1.388 . S
C5241 C5240 1.366 . S
C5241 C5245 1.385 . S
C5242 H5223 0.951 . S
C5242 C5240 1.388 . S
C5242 C5243 1.366 . S
C5243 C5242 1.366 . S
C5243 C5244 1.414 . S
C5243 C5246 1.499 . S
C5244 H5224 0.950 . S
C5244 C5243 1.414 . S
C5244 C5245 1.374 . S
C5245 H5225 0.950 . S
C5245 C5241 1.385 . S
C5245 C5244 1.374 . S
C5246 C5243 1.499 . S
C5246 C5247 1.373 . S
C5246 C5248 1.389 . S
C5247 H5226 0.950 . S
C5247 C5246 1.373 . S
C5247 C5263 1.377 1_545 S
C5248 C5246 1.389 . S
C5248 C5249 1.524 . S
C5248 C5262 1.377 1_545 S
C5249 C5248 1.524 . S
C5249 C5250 1.397 . S
C5249 C5254 1.363 . S
C5250 H5227 0.950 . S
C5250 C5249 1.397 . S
C5250 C5251 1.334 . S
C5251 H5228 0.950 . S
C5251 C5250 1.334 . S
C5251 C5252 1.287 . S
C5252 C5251 1.287 . S
C5252 C5253 1.524 . S
C5252 H5271 0.913 . S
C5253 H5229 0.950 . S
C5253 C5252 1.524 . S
C5253 C5254 1.415 . S
C5254 H5230 0.940 1_545 S
C5254 C5249 1.363 . S
C5254 C5253 1.415 . S
C5255 H5231 0.951 . S
C5255 C5256 1.366 . S
C5255 C5257 1.388 . S
C5256 C5255 1.366 . S
C5256 C5260 1.385 . S
C5257 H5232 0.951 . S
C5257 C5255 1.388 . S
C5257 C5258 1.366 . S
C5258 C5257 1.366 . S
C5258 C5259 1.414 . S
C5258 C5261 1.499 . S
C5259 H5233 0.950 . S
C5259 C5258 1.414 . S
C5259 C5260 1.374 . S
C5260 H5234 0.950 . S
C5260 C5256 1.385 . S
C5260 C5259 1.374 . S
C5261 C5258 1.499 . S
C5261 C5262 1.373 . S
C5261 C5263 1.389 . S
C5262 H5235 0.950 . S
C5262 C5248 1.377 1_565 S
C5262 C5261 1.373 . S
C5263 C5247 1.377 1_565 S
C5263 C5261 1.389 . S
C5263 C5264 1.524 . S
C5264 C5263 1.524 . S
C5264 C5265 1.397 . S
C5264 C5269 1.363 . S
C5265 H5236 0.950 . S
C5265 C5264 1.397 . S
C5265 C5266 1.334 . S
C5266 H5237 0.950 . S
C5266 C5265 1.334 . S
C5266 C5267 1.287 . S
C5267 C5266 1.287 . S
C5267 C5268 1.524 . S
C5267 H5270 0.999 . S
C5268 H5238 0.950 . S
C5268 C5267 1.524 . S
C5268 C5269 1.415 . S
C5269 H5239 0.950 . S
C5269 C5264 1.363 . S
C5269 C5268 1.415 . S
H5270 C5267 0.999 . S
H5271 C5252 0.913 . S
H5272 C5290 0.951 . S
H5273 C5292 0.951 . S
H5274 C5294 0.950 . S
H5275 C5295 0.950 . S
H5276 C5297 0.950 . S
H5277 C5300 0.950 . S
H5278 C5301 0.950 . S
H5279 C5303 0.950 . S
H5280 C5304 0.950 . S
H5281 C5305 0.951 . S
H5282 C5307 0.951 . S
H5283 C5309 0.950 . S
H5284 C5310 0.950 . S
H5285 C5312 0.950 . S
H5286 C5315 0.950 . S
H5287 C5316 0.950 . S
H5288 C5318 0.950 . S
H5289 C5319 0.950 . S
C5290 H5272 0.951 . S
C5290 C5291 1.366 . S
C5290 C5292 1.388 . S
C5291 C5290 1.366 . S
C5291 C5295 1.385 . S
C5292 H5273 0.951 . S
C5292 C5290 1.388 . S
C5292 C5293 1.366 . S
C5293 C5292 1.366 . S
C5293 C5294 1.414 . S
C5293 C5296 1.499 . S
C5294 H5274 0.950 . S
C5294 C5293 1.414 . S
C5294 C5295 1.374 . S
C5295 H5275 0.950 . S
C5295 C5291 1.385 . S
C5295 C5294 1.374 . S
C5296 C5293 1.499 . S
C5296 C5297 1.373 . S
C5296 C5298 1.389 . S
C5297 H5276 0.950 . S
C5297 C5296 1.373 . S
C5297 C5313 1.377 1_455 S
C5298 C5296 1.389 . S
C5298 C5299 1.524 . S
C5298 C5312 1.377 1_455 S
C5299 C5298 1.524 . S
C5299 C5300 1.397 . S
C5299 C5304 1.363 . S
C5300 H5277 0.950 . S
C5300 C5299 1.397 . S
C5300 C5301 1.334 . S
C5301 H5278 0.950 . S
C5301 C5300 1.334 . S
C5301 C5302 1.287 . S
C5302 C5301 1.287 . S
C5302 C5303 1.524 . S
C5302 H5321 0.913 . S
C5303 H5279 0.950 . S
C5303 C5302 1.524 . S
C5303 C5304 1.415 . S
C5304 H5280 0.950 . S
C5304 C5299 1.363 . S
C5304 C5303 1.415 . S
C5305 H5281 0.951 . S
C5305 C5306 1.366 . S
C5305 C5307 1.388 . S
C5306 C5305 1.366 . S
C5306 C5310 1.385 . S
C5307 H5282 0.951 . S
C5307 C5305 1.388 . S
C5307 C5308 1.366 . S
C5308 C5307 1.366 . S
C5308 C5309 1.414 . S
C5308 C5311 1.499 . S
C5309 H5283 0.950 . S
C5309 C5308 1.414 . S
C5309 C5310 1.374 . S
C5310 H5284 0.950 . S
C5310 C5306 1.385 . S
C5310 C5309 1.374 . S
C5311 C5308 1.499 . S
C5311 C5312 1.373 . S
C5311 C5313 1.389 . S
C5312 H5285 0.950 . S
C5312 C5298 1.377 1_655 S
C5312 C5311 1.373 . S
C5313 C5297 1.377 1_655 S
C5313 C5311 1.389 . S
C5313 C5314 1.524 . S
C5314 C5313 1.524 . S
C5314 C5315 1.397 . S
C5314 C5319 1.363 . S
C5315 H5286 0.950 . S
C5315 C5314 1.397 . S
C5315 C5316 1.334 . S
C5316 H5287 0.950 . S
C5316 C5315 1.334 . S
C5316 C5317 1.287 . S
C5317 C5316 1.287 . S
C5317 C5318 1.524 . S
C5317 H5320 0.999 . S
C5318 H5288 0.950 . S
C5318 C5317 1.524 . S
C5318 C5319 1.415 . S
C5319 H5289 0.950 . S
C5319 C5314 1.363 . S
C5319 C5318 1.415 . S
H5320 C5317 0.999 . S
H5321 C5302 0.913 . S
H5322 C5340 0.951 . S
H5323 C5342 0.951 . S
H5324 C5344 0.950 . S
H5325 C5345 0.950 . S
H5326 C5347 0.950 . S
H5327 C5350 0.950 . S
H5328 C5351 0.950 . S
H5329 C5353 0.950 . S
H5330 C5354 0.950 . S
H5331 C5355 0.951 . S
H5332 C5357 0.951 . S
H5333 C5359 0.950 . S
H5334 C5360 0.950 . S
H5335 C5362 0.950 . S
H5336 C5365 0.950 . S
H5337 C5366 0.950 . S
H5338 C5368 0.950 . S
H5339 C5369 0.950 . S
C5340 H5322 0.951 . S
C5340 C5341 1.366 . S
C5340 C5342 1.388 . S
C5341 C5340 1.366 . S
C5341 C5345 1.385 . S
C5342 H5323 0.951 . S
C5342 C5340 1.388 . S
C5342 C5343 1.366 . S
C5343 C5342 1.366 . S
C5343 C5344 1.414 . S
C5343 C5346 1.499 . S
C5344 H5324 0.950 . S
C5344 C5343 1.414 . S
C5344 C5345 1.374 . S
C5345 H5325 0.950 . S
C5345 C5341 1.385 . S
C5345 C5344 1.374 . S
C5346 C5343 1.499 . S
C5346 C5347 1.373 . S
C5346 C5348 1.389 . S
C5347 H5326 0.950 . S
C5347 C5346 1.373 . S
C5347 C5363 1.377 1_545 S
C5348 C5346 1.389 . S
C5348 C5349 1.524 . S
C5348 C5362 1.377 1_545 S
C5349 C5348 1.524 . S
C5349 C5350 1.397 . S
C5349 C5354 1.363 . S
C5350 H5327 0.950 . S
C5350 C5349 1.397 . S
C5350 C5351 1.334 . S
C5351 H5328 0.950 . S
C5351 C5350 1.334 . S
C5351 C5352 1.287 . S
C5352 C5351 1.287 . S
C5352 C5353 1.524 . S
C5352 H5371 0.913 . S
C5353 H5329 0.950 . S
C5353 C5352 1.524 . S
C5353 C5354 1.415 . S
C5354 H5330 0.950 . S
C5354 C5349 1.363 . S
C5354 C5353 1.415 . S
C5355 H5331 0.951 . S
C5355 C5356 1.366 . S
C5355 C5357 1.388 . S
C5356 C5355 1.366 . S
C5356 C5360 1.385 . S
C5357 H5332 0.951 . S
C5357 C5355 1.388 . S
C5357 C5358 1.366 . S
C5358 C5357 1.366 . S
C5358 C5359 1.414 . S
C5358 C5361 1.499 . S
C5359 H5333 0.950 . S
C5359 C5358 1.414 . S
C5359 C5360 1.374 . S
C5360 H5334 0.950 . S
C5360 C5356 1.385 . S
C5360 C5359 1.374 . S
C5361 C5358 1.499 . S
C5361 C5362 1.373 . S
C5361 C5363 1.389 . S
C5362 H5335 0.950 . S
C5362 C5348 1.377 1_565 S
C5362 C5361 1.373 . S
C5363 C5347 1.377 1_565 S
C5363 C5361 1.389 . S
C5363 C5364 1.524 . S
C5364 C5363 1.524 . S
C5364 C5365 1.397 . S
C5364 C5369 1.363 . S
C5365 H5336 0.950 . S
C5365 C5364 1.397 . S
C5365 C5366 1.334 . S
C5366 H5337 0.950 . S
C5366 C5365 1.334 . S
C5366 C5367 1.287 . S
C5367 C5366 1.287 . S
C5367 C5368 1.524 . S
C5367 H5370 0.999 . S
C5368 H5338 0.950 . S
C5368 C5367 1.524 . S
C5368 C5369 1.415 . S
C5369 H5339 0.950 . S
C5369 C5364 1.363 . S
C5369 C5368 1.415 . S
H5370 C5367 0.999 . S
H5371 C5352 0.913 . S
H5372 C5390 0.951 . S
H5373 C5392 0.951 . S
H5374 C5394 0.950 . S
H5375 C5395 0.950 . S
H5376 C5397 0.950 . S
H5377 C5400 0.950 . S
H5378 C5401 0.950 . S
H5379 C5403 0.950 . S
H5380 C5404 0.950 . S
H5381 C5405 0.951 . S
H5382 C5407 0.951 . S
H5383 C5409 0.950 . S
H5384 C5410 0.950 . S
H5385 C5412 0.950 . S
H5386 C5415 0.950 . S
H5387 C5416 0.950 . S
H5388 C5418 0.950 . S
H5389 C5419 0.950 . S
C5390 H5372 0.951 . S
C5390 C5391 1.366 . S
C5390 C5392 1.388 . S
C5391 C5390 1.366 . S
C5391 C5395 1.385 . S
C5392 H5373 0.951 . S
C5392 C5390 1.388 . S
C5392 C5393 1.366 . S
C5393 C5392 1.366 . S
C5393 C5394 1.414 . S
C5393 C5396 1.499 . S
C5394 H5374 0.950 . S
C5394 C5393 1.414 . S
C5394 C5395 1.374 . S
C5395 H5375 0.950 . S
C5395 C5391 1.385 . S
C5395 C5394 1.374 . S
C5396 C5393 1.499 . S
C5396 C5397 1.373 . S
C5396 C5398 1.389 . S
C5397 H5376 0.950 . S
C5397 C5396 1.373 . S
C5397 C5413 1.377 1_655 S
C5398 C5396 1.389 . S
C5398 C5399 1.524 . S
C5398 C5412 1.377 1_655 S
C5399 C5398 1.524 . S
C5399 C5400 1.397 . S
C5399 C5404 1.363 . S
C5400 H5377 0.950 . S
C5400 C5399 1.397 . S
C5400 C5401 1.334 . S
C5401 H5378 0.950 . S
C5401 C5400 1.334 . S
C5401 C5402 1.287 . S
C5402 C5401 1.287 . S
C5402 C5403 1.524 . S
C5402 H5421 0.913 . S
C5403 H5379 0.950 . S
C5403 C5402 1.524 . S
C5403 C5404 1.415 . S
C5404 H5380 0.950 . S
C5404 C5399 1.363 . S
C5404 C5403 1.415 . S
C5405 H5381 0.951 . S
C5405 C5406 1.366 . S
C5405 C5407 1.388 . S
C5406 C5405 1.366 . S
C5406 C5410 1.385 . S
C5407 H5382 0.951 . S
C5407 C5405 1.388 . S
C5407 C5408 1.366 . S
C5408 C5407 1.366 . S
C5408 C5409 1.414 . S
C5408 C5411 1.499 . S
C5409 H5383 0.950 . S
C5409 C5408 1.414 . S
C5409 C5410 1.374 . S
C5410 H5384 0.950 . S
C5410 C5406 1.385 . S
C5410 C5409 1.374 . S
C5411 C5408 1.499 . S
C5411 C5412 1.373 . S
C5411 C5413 1.389 . S
C5412 H5385 0.950 . S
C5412 C5398 1.377 1_455 S
C5412 C5411 1.373 . S
C5413 C5397 1.377 1_455 S
C5413 C5411 1.389 . S
C5413 C5414 1.524 . S
C5414 C5413 1.524 . S
C5414 C5415 1.397 . S
C5414 C5419 1.363 . S
C5415 H5386 0.950 . S
C5415 C5414 1.397 . S
C5415 C5416 1.334 . S
C5416 H5387 0.950 . S
C5416 C5415 1.334 . S
C5416 C5417 1.287 . S
C5417 C5416 1.287 . S
C5417 C5418 1.524 . S
C5417 H5420 0.999 . S
C5418 H5388 0.950 . S
C5418 C5417 1.524 . S
C5418 C5419 1.415 . S
C5419 H5389 0.950 . S
C5419 C5414 1.363 . S
C5419 C5418 1.415 . S
H5420 C5417 0.999 . S
H5421 C5402 0.913 . S
H5422 C5440 0.951 . S
H5423 C5442 0.951 . S
H5424 C5444 0.950 . S
H5425 C5445 0.950 . S
H5426 C5447 0.950 . S
H5427 C5450 0.950 . S
H5428 C5451 0.950 . S
H5429 C5453 0.950 . S
H5430 C5454 0.950 . S
H5431 C5455 0.951 . S
H5432 C5457 0.951 . S
H5433 C5459 0.950 . S
H5434 C5460 0.950 . S
H5435 C5462 0.950 . S
H5436 C5465 0.950 . S
H5437 C5466 0.950 . S
H5438 C5468 0.950 . S
H5439 C5469 0.950 . S
C5440 H5422 0.951 . S
C5440 C5441 1.366 . S
C5440 C5442 1.388 . S
C5441 C5440 1.366 . S
C5441 C5445 1.385 . S
C5442 H5423 0.951 . S
C5442 C5440 1.388 . S
C5442 C5443 1.366 . S
C5443 C5442 1.366 . S
C5443 C5444 1.414 . S
C5443 C5446 1.499 . S
C5444 H5424 0.950 . S
C5444 C5443 1.414 . S
C5444 C5445 1.374 . S
C5445 H5425 0.950 . S
C5445 C5441 1.385 . S
C5445 C5444 1.374 . S
C5446 C5443 1.499 . S
C5446 C5447 1.373 . S
C5446 C5448 1.389 . S
C5447 H5426 0.950 . S
C5447 C5446 1.373 . S
C5447 C5463 1.377 1_455 S
C5448 C5446 1.389 . S
C5448 C5449 1.524 . S
C5448 C5462 1.377 1_455 S
C5449 C5448 1.524 . S
C5449 C5450 1.397 . S
C5449 C5454 1.363 . S
C5450 H5427 0.950 . S
C5450 C5449 1.397 . S
C5450 C5451 1.334 . S
C5451 H5428 0.950 . S
C5451 C5450 1.334 . S
C5451 C5452 1.287 . S
C5452 C5451 1.287 . S
C5452 C5453 1.524 . S
C5452 H5471 0.913 . S
C5453 H5429 0.950 . S
C5453 C5452 1.524 . S
C5453 C5454 1.415 . S
C5454 H5430 0.950 . S
C5454 C5449 1.363 . S
C5454 C5453 1.415 . S
C5455 H5431 0.951 . S
C5455 C5456 1.366 . S
C5455 C5457 1.388 . S
C5456 C5455 1.366 . S
C5456 C5460 1.385 . S
C5457 H5432 0.951 . S
C5457 C5455 1.388 . S
C5457 C5458 1.366 . S
C5458 C5457 1.366 . S
C5458 C5459 1.414 . S
C5458 C5461 1.499 . S
C5459 H5433 0.950 . S
C5459 C5458 1.414 . S
C5459 C5460 1.374 . S
C5460 H5434 0.950 . S
C5460 C5456 1.385 . S
C5460 C5459 1.374 . S
C5461 C5458 1.499 . S
C5461 C5462 1.373 . S
C5461 C5463 1.389 . S
C5462 H5435 0.950 . S
C5462 C5448 1.377 1_655 S
C5462 C5461 1.373 . S
C5463 C5447 1.377 1_655 S
C5463 C5461 1.389 . S
C5463 C5464 1.524 . S
C5464 C5463 1.524 . S
C5464 C5465 1.397 . S
C5464 C5469 1.363 . S
C5465 H5436 0.950 . S
C5465 C5464 1.397 . S
C5465 C5466 1.334 . S
C5466 H5437 0.950 . S
C5466 C5465 1.334 . S
C5466 C5467 1.287 . S
C5467 C5466 1.287 . S
C5467 C5468 1.524 . S
C5467 H5470 0.999 . S
C5468 H5438 0.950 . S
C5468 C5467 1.524 . S
C5468 C5469 1.415 . S
C5469 H5439 0.950 . S
C5469 C5464 1.363 . S
C5469 C5468 1.415 . S
H5470 C5467 0.999 . S
H5471 C5452 0.913 . S
C691 C554 1.205 . S
C706 C3 1.203 . S
C741 C22 1.231 . S
C756 C507 1.229 . S
C791 C31 1.198 . S
C806 C526 1.200 . S
C841 C540 1.188 . S
C856 C50 1.188 . S
C891 C470 1.100 . S
C906 C59 1.098 . S
C941 C73 1.241 . S
C956 C484 1.244 . S
C991 C87 1.128 . S
C1006 C493 1.126 . S
C1041 C101 1.281 . S
C1056 C451 1.283 . S
C1091 C120 1.289 . S
C1106 C437 1.286 . S
C1141 C400 1.149 . S
C1156 C129 1.148 . S
C1191 C409 1.224 . S
C1206 C148 1.226 . S
C1241 C157 1.144 . S
C1256 C428 1.146 . S
C1291 C176 1.108 . S
C1306 C358 1.107 . S
C1341 C185 1.165 . S
C1356 C367 1.163 . S
C1391 C386 1.043 . S
C1406 C204 1.043 . S
C1441 C339 1.243 . S
C1456 C213 1.245 . S
C1491 C232 1.293 . S
C1506 C624 1.292 . S
C1541 C661 1.261 . S
C1556 C241 1.260 . S
C1591 C638 1.252 . S
C1606 C260 1.251 . S
C1641 C647 1.175 . S
C1656 C269 1.174 . S
C1691 C568 1.221 . S
C1706 C288 1.222 . S
C1741 C596 1.259 . S
C1756 C302 1.259 . S
C1791 C316 1.134 . S
C1806 C605 1.132 . S
C1841 C577 1.066 . S
C1856 C330 1.068 . S
C1891 C456 1.204 . S
C1906 C283 1.203 . S
C1941 C246 1.232 . S
C1956 C465 1.231 . S
C1991 C479 1.219 . S
C2006 C255 1.219 . S
C2041 C498 1.199 . S
C2056 C274 1.199 . S
C2091 C325 1.110 . S
C2106 C512 1.112 . S
C2141 C521 1.266 . S
C2156 C297 1.264 . S
C2191 C311 1.130 . S
C2206 C535 1.128 . S
C2241 C227 1.279 . S
C2256 C549 1.282 . S
C2291 C563 1.285 . S
C2306 C218 1.288 . S
C2341 C171 1.166 . S
C2356 C666 1.168 . S
C2391 C633 1.228 . S
C2406 C190 1.231 . S
C2441 C199 1.073 . S
C2456 C652 1.075 . S
C2491 C134 1.040 . S
C2506 C582 1.040 . S
C2541 C143 1.170 . S
C2556 C591 1.168 . S
C2591 C162 1.062 . S
C2606 C610 1.062 . S
C2641 C619 1.243 . S
C2656 C115 1.245 . S
C2691 C344 1.287 . S
C2706 C106 1.287 . S
C2741 C395 1.248 . S
C2756 C17 1.248 . S
C2791 C414 1.214 . S
C2806 C36 1.214 . S
C2841 C423 1.179 . S
C2856 C45 1.178 . S
C2891 C442 1.215 . S
C2906 C8 1.216 . S
C2941 C78 1.222 . S
C2956 C372 1.221 . S
C2991 C381 1.119 . S
C3006 C92 1.121 . S
C3041 C353 1.069 . S
C3056 C64 1.072 . S
C3091 C7 1.481 . S
C3106 C371 1.482 . S
C3141 C387 1.392 . S
C3156 C23 1.391 . S
C3191 C35 1.485 . S
C3206 C343 1.485 . S
C3241 C51 1.386 . S
C3256 C359 1.384 . S
C3291 C63 1.430 . S
C3306 C429 1.431 . S
C3341 C441 1.491 . S
C3356 C77 1.489 . S
C3391 C91 1.434 . S
C3406 C401 1.436 . S
C3441 C413 1.500 . S
C3456 C105 1.500 . S
C3491 C121 1.530 . S
C3506 C511 1.529 . S
C3541 C527 1.446 . S
C3556 C133 1.448 . S
C3591 C149 1.479 . S
C3606 C541 1.483 . S
C3641 C161 1.456 . S
C3656 C555 1.455 . S
C3691 C177 1.485 . S
C3706 C455 1.481 . S
C3741 C189 1.435 . S
C3756 C471 1.436 . S
C3791 C485 1.429 . S
C3806 C205 1.429 . S
C3841 C217 1.483 . S
C3856 C497 1.485 . S
C3891 C609 1.474 . S
C3906 C233 1.476 . S
C3941 C245 1.471 . S
C3956 C639 1.477 . S
C3991 C261 1.494 . S
C4006 C651 1.489 . S
C4041 C569 1.442 . S
C4056 C273 1.436 . S
C4091 C665 1.493 . S
C4106 C289 1.496 . S
C4141 C303 1.447 . S
C4156 C581 1.443 . S
C4191 C597 1.463 . S
C4206 C317 1.461 . S
C4241 C331 1.445 . S
C4256 C625 1.451 . S
C4291 C595 1.489 . S
C4306 C287 1.489 . S
C4341 C247 1.397 . S
C4356 C611 1.398 . S
C4391 C623 1.490 . S
C4406 C259 1.490 . S
C4441 C583 1.380 . S
C4456 C275 1.380 . S
C4491 C653 1.426 . S
C4506 C329 1.424 . S
C4541 C301 1.495 . S
C4556 C567 1.494 . S
C4591 C667 1.442 . S
C4606 C315 1.440 . S
C4641 C231 1.507 . S
C4656 C637 1.506 . S
C4691 C469 1.529 . S
C4706 C219 1.531 . S
C4741 C175 1.469 . S
C4756 C483 1.463 . S
C4791 C191 1.479 . S
C4806 C499 1.482 . S
C4841 C457 1.421 . S
C4856 C203 1.422 . S
C4891 C135 1.451 . S
C4906 C553 1.449 . S
C4941 C513 1.436 . S
C4956 C147 1.435 . S
C4991 C163 1.448 . S
C5006 C525 1.444 . S
C5041 C119 1.482 . S
C5056 C539 1.486 . S
C5091 C385 1.470 . S
C5106 C107 1.472 . S
C5141 C21 1.463 . S
C5156 C415 1.469 . S
C5191 C37 1.475 . S
C5206 C427 1.471 . S
C5241 C443 1.439 . S
C5256 C49 1.434 . S
C5291 C9 1.492 . S
C5306 C399 1.490 . S
C5341 C79 1.427 . S
C5356 C357 1.424 . S
C5391 C93 1.453 . S
C5406 C373 1.455 . S
C5441 C65 1.444 . S
C5456 C345 1.448 . S
