# Generated by pormake.
# Topology pem, (4)-cn, num edge types: 1
# Building blocks:
#     Node 0, Type 0, BuildingBlock: AZAVOO_clean_sbu_0, # of connection points: 4
#     Node 1, Type 0, BuildingBlock: AZAVOO_clean_sbu_0, # of connection points: 4
#     Node 2, Type 0, BuildingBlock: AZAVOO_clean_sbu_0, # of connection points: 4
#     Node 3, Type 0, BuildingBlock: AZAVOO_clean_sbu_0, # of connection points: 4
#     Node 4, Type 0, BuildingBlock: AZAVOO_clean_sbu_0, # of connection points: 4
#     Node 5, Type 0, BuildingBlock: AZAVOO_clean_sbu_0, # of connection points: 4
#     Node 6, Type 0, BuildingBlock: AZAVOO_clean_sbu_0, # of connection points: 4
#     Node 7, Type 0, BuildingBlock: AZAVOO_clean_sbu_0, # of connection points: 4
#     Node 8, Type 0, BuildingBlock: AZAVOO_clean_sbu_0, # of connection points: 4
#     Node 9, Type 0, BuildingBlock: AZAVOO_clean_sbu_0, # of connection points: 4
#     Node 10, Type 0, BuildingBlock: AZAVOO_clean_sbu_0, # of connection points: 4
#     Node 11, Type 0, BuildingBlock: AZAVOO_clean_sbu_0, # of connection points: 4
#     Node 12, Type 0, BuildingBlock: AZAVOO_clean_sbu_0, # of connection points: 4
#     Node 13, Type 0, BuildingBlock: AZAVOO_clean_sbu_0, # of connection points: 4
#     Node 14, Type 0, BuildingBlock: AZAVOO_clean_sbu_0, # of connection points: 4
#     Node 15, Type 0, BuildingBlock: AZAVOO_clean_sbu_0, # of connection points: 4
#     Node 16, Type 0, BuildingBlock: AZAVOO_clean_sbu_0, # of connection points: 4
#     Node 17, Type 0, BuildingBlock: AZAVOO_clean_sbu_0, # of connection points: 4
#     Node 18, Type 0, BuildingBlock: AZAVOO_clean_sbu_0, # of connection points: 4
#     Node 19, Type 0, BuildingBlock: AZAVOO_clean_sbu_0, # of connection points: 4
#     Node 20, Type 0, BuildingBlock: AZAVOO_clean_sbu_0, # of connection points: 4
#     Node 21, Type 0, BuildingBlock: AZAVOO_clean_sbu_0, # of connection points: 4
#     Node 22, Type 0, BuildingBlock: AZAVOO_clean_sbu_0, # of connection points: 4
#     Node 23, Type 0, BuildingBlock: AZAVOO_clean_sbu_0, # of connection points: 4
#     Node 24, Type 0, BuildingBlock: AZAVOO_clean_sbu_0, # of connection points: 4
#     Node 25, Type 0, BuildingBlock: AZAVOO_clean_sbu_0, # of connection points: 4
#     Node 26, Type 0, BuildingBlock: AZAVOO_clean_sbu_0, # of connection points: 4
#     Node 27, Type 0, BuildingBlock: AZAVOO_clean_sbu_0, # of connection points: 4
#     Node 28, Type 0, BuildingBlock: AZAVOO_clean_sbu_0, # of connection points: 4
#     Node 29, Type 0, BuildingBlock: AZAVOO_clean_sbu_0, # of connection points: 4
#     Node 30, Type 0, BuildingBlock: AZAVOO_clean_sbu_0, # of connection points: 4
#     Node 31, Type 0, BuildingBlock: AZAVOO_clean_sbu_0, # of connection points: 4
#     Edge 32, Type (0, 0), BuildingBlock: KIFKEQ_clean_linker_1, # of connection points: 2
#     Edge 33, Type (0, 0), BuildingBlock: KIFKEQ_clean_linker_1, # of connection points: 2
#     Edge 34, Type (0, 0), BuildingBlock: KIFKEQ_clean_linker_1, # of connection points: 2
#     Edge 35, Type (0, 0), BuildingBlock: KIFKEQ_clean_linker_1, # of connection points: 2
#     Edge 36, Type (0, 0), BuildingBlock: KIFKEQ_clean_linker_1, # of connection points: 2
#     Edge 37, Type (0, 0), BuildingBlock: KIFKEQ_clean_linker_1, # of connection points: 2
#     Edge 38, Type (0, 0), BuildingBlock: KIFKEQ_clean_linker_1, # of connection points: 2
#     Edge 39, Type (0, 0), BuildingBlock: KIFKEQ_clean_linker_1, # of connection points: 2
#     Edge 40, Type (0, 0), BuildingBlock: KIFKEQ_clean_linker_1, # of connection points: 2
#     Edge 41, Type (0, 0), BuildingBlock: KIFKEQ_clean_linker_1, # of connection points: 2
#     Edge 42, Type (0, 0), BuildingBlock: KIFKEQ_clean_linker_1, # of connection points: 2
#     Edge 43, Type (0, 0), BuildingBlock: KIFKEQ_clean_linker_1, # of connection points: 2
#     Edge 44, Type (0, 0), BuildingBlock: KIFKEQ_clean_linker_1, # of connection points: 2
#     Edge 45, Type (0, 0), BuildingBlock: KIFKEQ_clean_linker_1, # of connection points: 2
#     Edge 46, Type (0, 0), BuildingBlock: KIFKEQ_clean_linker_1, # of connection points: 2
#     Edge 47, Type (0, 0), BuildingBlock: KIFKEQ_clean_linker_1, # of connection points: 2
#     Edge 48, Type (0, 0), BuildingBlock: KIFKEQ_clean_linker_1, # of connection points: 2
#     Edge 49, Type (0, 0), BuildingBlock: KIFKEQ_clean_linker_1, # of connection points: 2
#     Edge 50, Type (0, 0), BuildingBlock: KIFKEQ_clean_linker_1, # of connection points: 2
#     Edge 51, Type (0, 0), BuildingBlock: KIFKEQ_clean_linker_1, # of connection points: 2
#     Edge 52, Type (0, 0), BuildingBlock: KIFKEQ_clean_linker_1, # of connection points: 2
#     Edge 53, Type (0, 0), BuildingBlock: KIFKEQ_clean_linker_1, # of connection points: 2
#     Edge 54, Type (0, 0), BuildingBlock: KIFKEQ_clean_linker_1, # of connection points: 2
#     Edge 55, Type (0, 0), BuildingBlock: KIFKEQ_clean_linker_1, # of connection points: 2
#     Edge 56, Type (0, 0), BuildingBlock: KIFKEQ_clean_linker_1, # of connection points: 2
#     Edge 57, Type (0, 0), BuildingBlock: KIFKEQ_clean_linker_1, # of connection points: 2
#     Edge 58, Type (0, 0), BuildingBlock: KIFKEQ_clean_linker_1, # of connection points: 2
#     Edge 59, Type (0, 0), BuildingBlock: KIFKEQ_clean_linker_1, # of connection points: 2
#     Edge 60, Type (0, 0), BuildingBlock: KIFKEQ_clean_linker_1, # of connection points: 2
#     Edge 61, Type (0, 0), BuildingBlock: KIFKEQ_clean_linker_1, # of connection points: 2
#     Edge 62, Type (0, 0), BuildingBlock: KIFKEQ_clean_linker_1, # of connection points: 2
#     Edge 63, Type (0, 0), BuildingBlock: KIFKEQ_clean_linker_1, # of connection points: 2
#     Edge 64, Type (0, 0), BuildingBlock: KIFKEQ_clean_linker_1, # of connection points: 2
#     Edge 65, Type (0, 0), BuildingBlock: KIFKEQ_clean_linker_1, # of connection points: 2
#     Edge 66, Type (0, 0), BuildingBlock: KIFKEQ_clean_linker_1, # of connection points: 2
#     Edge 67, Type (0, 0), BuildingBlock: KIFKEQ_clean_linker_1, # of connection points: 2
#     Edge 68, Type (0, 0), BuildingBlock: KIFKEQ_clean_linker_1, # of connection points: 2
#     Edge 69, Type (0, 0), BuildingBlock: KIFKEQ_clean_linker_1, # of connection points: 2
#     Edge 70, Type (0, 0), BuildingBlock: KIFKEQ_clean_linker_1, # of connection points: 2
#     Edge 71, Type (0, 0), BuildingBlock: KIFKEQ_clean_linker_1, # of connection points: 2
#     Edge 72, Type (0, 0), BuildingBlock: KIFKEQ_clean_linker_1, # of connection points: 2
#     Edge 73, Type (0, 0), BuildingBlock: KIFKEQ_clean_linker_1, # of connection points: 2
#     Edge 74, Type (0, 0), BuildingBlock: KIFKEQ_clean_linker_1, # of connection points: 2
#     Edge 75, Type (0, 0), BuildingBlock: KIFKEQ_clean_linker_1, # of connection points: 2
#     Edge 76, Type (0, 0), BuildingBlock: KIFKEQ_clean_linker_1, # of connection points: 2
#     Edge 77, Type (0, 0), BuildingBlock: KIFKEQ_clean_linker_1, # of connection points: 2
#     Edge 78, Type (0, 0), BuildingBlock: KIFKEQ_clean_linker_1, # of connection points: 2
#     Edge 79, Type (0, 0), BuildingBlock: KIFKEQ_clean_linker_1, # of connection points: 2
#     Edge 80, Type (0, 0), BuildingBlock: KIFKEQ_clean_linker_1, # of connection points: 2
#     Edge 81, Type (0, 0), BuildingBlock: KIFKEQ_clean_linker_1, # of connection points: 2
#     Edge 82, Type (0, 0), BuildingBlock: KIFKEQ_clean_linker_1, # of connection points: 2
#     Edge 83, Type (0, 0), BuildingBlock: KIFKEQ_clean_linker_1, # of connection points: 2
#     Edge 84, Type (0, 0), BuildingBlock: KIFKEQ_clean_linker_1, # of connection points: 2
#     Edge 85, Type (0, 0), BuildingBlock: KIFKEQ_clean_linker_1, # of connection points: 2
#     Edge 86, Type (0, 0), BuildingBlock: KIFKEQ_clean_linker_1, # of connection points: 2
#     Edge 87, Type (0, 0), BuildingBlock: KIFKEQ_clean_linker_1, # of connection points: 2
#     Edge 88, Type (0, 0), BuildingBlock: KIFKEQ_clean_linker_1, # of connection points: 2
#     Edge 89, Type (0, 0), BuildingBlock: KIFKEQ_clean_linker_1, # of connection points: 2
#     Edge 90, Type (0, 0), BuildingBlock: KIFKEQ_clean_linker_1, # of connection points: 2
#     Edge 91, Type (0, 0), BuildingBlock: KIFKEQ_clean_linker_1, # of connection points: 2
#     Edge 92, Type (0, 0), BuildingBlock: KIFKEQ_clean_linker_1, # of connection points: 2
#     Edge 93, Type (0, 0), BuildingBlock: KIFKEQ_clean_linker_1, # of connection points: 2
#     Edge 94, Type (0, 0), BuildingBlock: KIFKEQ_clean_linker_1, # of connection points: 2
#     Edge 95, Type (0, 0), BuildingBlock: KIFKEQ_clean_linker_1, # of connection points: 2
# Relax obj value: 0.060
# Max RMSD: 0.040
# Mean RMSD: 0.036
data_MOF--net-pem--node1-AZAVOO_clean_sbu_0--edge1-KIFKEQ_clean_linker_1
_symmetry_space_group_name_H-M    P1
_symmetry_Int_Tables_number       1
_symmetry_cell_setting            triclinic
loop_
_symmetry_equiv_pos_as_xyz
'x, y, z'
_cell_length_a     43.117826
_cell_length_b     44.844414
_cell_length_c     44.457536
_cell_angle_alpha  90.094216
_cell_angle_beta   90.099514
_cell_angle_gamma 90.413905
loop_
_atom_site_label
_atom_site_type_symbol
_atom_site_fract_x
_atom_site_fract_y
_atom_site_fract_z
_atom_type_partial_charge
Mg0 Mg 0.102 0.096 0.10905 0.0
O1 O 0.07255 0.06437 0.08032 0.0
O2 O 0.03459 0.04644 0.10968 0.0
Mg3 Mg 0.04092 0.0642 0.15725 0.0
C4 C 0.04824 0.04848 0.0843 0.0
C5 C 0.13258 0.13446 0.05184 0.0
O6 O 0.1179 0.15903 0.05888 0.0
O7 O 0.06305 0.13126 0.10612 0.0
O8 O 0.03007 0.11023 0.13869 0.0
O9 O 0.1317 0.05779 0.12278 0.0
O10 O 0.08996 0.07145 0.14757 0.0
C11 C 0.03775 0.13158 0.12121 0.0
C12 C 0.11208 0.05264 0.14411 0.0
O13 O 0.12818 0.11086 0.06708 0.0
Mg14 Mg 0.14488 0.85476 0.34004 0.0
O15 O 0.17928 0.82698 0.3132 0.0
O16 O 0.21783 0.85805 0.29968 0.0
Mg17 Mg 0.20613 0.90574 0.31346 0.0
C18 C 0.20548 0.83208 0.30076 0.0
C19 C 0.09407 0.80722 0.34402 0.0
O20 O 0.11982 0.81098 0.35927 0.0
O21 O 0.17991 0.85661 0.37936 0.0
O22 O 0.21247 0.89187 0.36243 0.0
O23 O 0.11764 0.86523 0.29826 0.0
O24 O 0.15778 0.89147 0.31417 0.0
C25 C 0.20313 0.87417 0.38303 0.0
C26 C 0.13684 0.88709 0.29399 0.0
O27 O 0.1194 0.81193 0.35817 0.0
Mg28 Mg 0.40037 0.88995 0.60524 0.0
O29 O 0.42801 0.9235 0.57677 0.0
O30 O 0.4649 0.94219 0.60708 0.0
Mg31 Mg 0.46263 0.92073 0.65331 0.0
C32 C 0.45101 0.94097 0.5817 0.0
C33 C 0.35454 0.89391 0.55355 0.0
O34 O 0.3565 0.92093 0.56479 0.0
O35 O 0.43979 0.85546 0.59991 0.0
O36 O 0.4738 0.87549 0.63227 0.0
O37 O 0.37028 0.92686 0.62236 0.0
O38 O 0.4135 0.91355 0.6446 0.0
C39 C 0.46562 0.85472 0.61417 0.0
C40 C 0.39075 0.93187 0.64295 0.0
O41 O 0.37273 0.874 0.56361 0.0
Mg42 Mg 0.34987 0.12536 0.8449 0.0
O43 O 0.32008 0.15193 0.81201 0.0
O44 O 0.28399 0.12048 0.79389 0.0
Mg45 Mg 0.28924 0.07498 0.81572 0.0
C46 C 0.29683 0.14622 0.79509 0.0
C47 C 0.38924 0.18115 0.83998 0.0
O48 O 0.38699 0.17059 0.8125 0.0
O49 O 0.31092 0.12944 0.87976 0.0
O50 O 0.27695 0.09645 0.86092 0.0
O51 O 0.38031 0.11035 0.80712 0.0
O52 O 0.33823 0.08616 0.82127 0.0
C53 C 0.28517 0.1152 0.88114 0.0
C54 C 0.36072 0.08893 0.80242 0.0
O55 O 0.37429 0.16808 0.86082 0.0
Mg56 Mg 0.10258 0.88783 0.39141 0.0
O57 O 0.06883 0.92288 0.40998 0.0
O58 O 0.03819 0.93608 0.37146 0.0
Mg59 Mg 0.05075 0.90955 0.3298 0.0
C60 C 0.04661 0.93823 0.39897 0.0
C61 C 0.13619 0.85343 0.44369 0.0
O62 O 0.13669 0.83178 0.42377 0.0
O63 O 0.06302 0.85336 0.39438 0.0
O64 O 0.03417 0.8687 0.35574 0.0
O65 O 0.13531 0.92407 0.37763 0.0
O66 O 0.09704 0.90716 0.34919 0.0
C67 C 0.03896 0.85101 0.37768 0.0
C68 C 0.11861 0.92674 0.35365 0.0
O69 O 0.12122 0.87708 0.43791 0.0
Mg70 Mg 0.35453 0.85842 0.65071 0.0
O71 O 0.32589 0.82964 0.68277 0.0
O72 O 0.28801 0.85806 0.70167 0.0
Mg73 Mg 0.29195 0.90446 0.68169 0.0
C74 C 0.30228 0.83328 0.69966 0.0
C75 C 0.38651 0.80417 0.6109 0.0
O76 O 0.37192 0.81228 0.58632 0.0
O77 O 0.316 0.85358 0.61494 0.0
O78 O 0.28115 0.88353 0.63616 0.0
O79 O 0.38387 0.87247 0.6894 0.0
O80 O 0.34125 0.89583 0.67579 0.0
C81 C 0.28958 0.86638 0.6148 0.0
C82 C 0.36341 0.89263 0.69499 0.0
O83 O 0.38168 0.81781 0.63551 0.0
Mg84 Mg 0.39371 0.09436 0.88695 0.0
O85 O 0.42491 0.06587 0.91646 0.0
O86 O 0.46303 0.04797 0.88756 0.0
Mg87 Mg 0.45603 0.0638 0.83953 0.0
C88 C 0.44943 0.05048 0.91291 0.0
C89 C 0.35709 0.13434 0.93873 0.0
O90 O 0.36516 0.15949 0.92573 0.0
O91 O 0.43048 0.13251 0.88716 0.0
O92 O 0.46357 0.11149 0.8549 0.0
O93 O 0.36593 0.05356 0.87557 0.0
O94 O 0.40692 0.06823 0.84994 0.0
C95 C 0.45505 0.1335 0.871 0.0
C96 C 0.38576 0.04838 0.85449 0.0
O97 O 0.36687 0.10967 0.92844 0.0
Mg98 Mg 0.1481 0.12398 0.15532 0.0
O99 O 0.17785 0.15456 0.18465 0.0
O100 O 0.21841 0.1287 0.20153 0.0
Mg101 Mg 0.21518 0.08159 0.18207 0.0
C102 C 0.20278 0.15274 0.2 0.0
C103 C 0.1161 0.18399 0.12126 0.0
O104 O 0.11661 0.16474 0.14322 0.0
O105 O 0.18306 0.12991 0.11655 0.0
O106 O 0.2208 0.10099 0.13465 0.0
O107 O 0.12286 0.1082 0.19586 0.0
O108 O 0.16498 0.0866 0.17854 0.0
C109 C 0.20951 0.11739 0.1139 0.0
C110 C 0.14404 0.08823 0.19908 0.0
O111 O 0.11691 0.16497 0.14261 0.0
Mg112 Mg 0.59644 0.39302 0.88392 0.0
O113 O 0.56027 0.42544 0.90164 0.0
O114 O 0.5333 0.44267 0.86212 0.0
Mg115 Mg 0.5496 0.41884 0.81984 0.0
C116 C 0.5394 0.44208 0.89025 0.0
C117 C 0.62322 0.355 0.93693 0.0
O118 O 0.62557 0.33543 0.91515 0.0
O119 O 0.55816 0.35715 0.88023 0.0
O120 O 0.53287 0.3752 0.84046 0.0
O121 O 0.629 0.43145 0.87518 0.0
O122 O 0.59396 0.41516 0.84278 0.0
C123 C 0.53625 0.35551 0.86086 0.0
C124 C 0.61427 0.43505 0.85012 0.0
O125 O 0.60983 0.3796 0.93168 0.0
Mg126 Mg 0.84652 0.35633 0.13738 0.0
O127 O 0.81909 0.32712 0.16992 0.0
O128 O 0.78122 0.35506 0.18941 0.0
Mg129 Mg 0.78507 0.40221 0.17037 0.0
C130 C 0.7957 0.3304 0.18714 0.0
C131 C 0.89202 0.30503 0.13679 0.0
O132 O 0.87176 0.31373 0.1167 0.0
O133 O 0.80687 0.35277 0.10312 0.0
O134 O 0.7727 0.38417 0.12367 0.0
O135 O 0.87688 0.37004 0.17574 0.0
O136 O 0.83424 0.39368 0.16264 0.0
C137 C 0.78118 0.36681 0.10249 0.0
C138 C 0.85673 0.39053 0.18143 0.0
O139 O 0.87196 0.31445 0.1181 0.0
Mg140 Mg 0.89306 0.58771 0.37936 0.0
O141 O 0.9246 0.5582 0.40752 0.0
O142 O 0.96197 0.54109 0.37724 0.0
Mg143 Mg 0.95443 0.55905 0.32975 0.0
C144 C 0.94888 0.54268 0.40296 0.0
C145 C 0.85114 0.5865 0.43527 0.0
O146 O 0.85032 0.55886 0.42551 0.0
O147 O 0.93022 0.62499 0.37992 0.0
O148 O 0.96327 0.60694 0.34577 0.0
O149 O 0.86404 0.54797 0.3664 0.0
O150 O 0.90551 0.56255 0.34151 0.0
C151 C 0.95438 0.62765 0.36345 0.0
C152 C 0.88365 0.5432 0.34504 0.0
O153 O 0.86848 0.60519 0.42172 0.0
Mg154 Mg 0.85378 0.62915 0.34609 0.0
O155 O 0.82156 0.65632 0.31672 0.0
O156 O 0.78463 0.62566 0.29878 0.0
Mg157 Mg 0.79525 0.57824 0.31372 0.0
C158 C 0.79682 0.65156 0.30166 0.0
C159 C 0.8856 0.68124 0.38844 0.0
O160 O 0.88008 0.66519 0.41251 0.0
O161 O 0.81546 0.62766 0.38232 0.0
O162 O 0.78439 0.59321 0.36133 0.0
O163 O 0.88405 0.61908 0.30647 0.0
O164 O 0.84357 0.59184 0.31955 0.0
C165 C 0.79156 0.61056 0.38307 0.0
C166 C 0.86555 0.59701 0.30067 0.0
O167 O 0.87626 0.67221 0.36284 0.0
Mg168 Mg 0.64911 0.3568 0.84328 0.0
O169 O 0.68411 0.33053 0.81522 0.0
O170 O 0.72069 0.36359 0.80162 0.0
Mg171 Mg 0.70848 0.4104 0.81738 0.0
C172 C 0.70972 0.33704 0.80228 0.0
C173 C 0.60776 0.3014 0.83902 0.0
O174 O 0.60981 0.31101 0.81122 0.0
O175 O 0.6847 0.35806 0.88253 0.0
O176 O 0.71604 0.39423 0.8654 0.0
O177 O 0.62118 0.36863 0.80226 0.0
O178 O 0.6606 0.39529 0.81878 0.0
C179 C 0.70778 0.37593 0.8859 0.0
C180 C 0.63969 0.39102 0.79857 0.0
O181 O 0.62445 0.3139 0.85908 0.0
Mg182 Mg 0.891 0.88648 0.89631 0.0
O183 O 0.92645 0.91171 0.92523 0.0
O184 O 0.93708 0.88317 0.96528 0.0
Mg185 Mg 0.90839 0.84045 0.96263 0.0
C186 C 0.94101 0.90684 0.94977 0.0
C187 C 0.88861 0.94671 0.86451 0.0
O188 O 0.88092 0.95261 0.89244 0.0
O189 O 0.93055 0.85562 0.87945 0.0
O190 O 0.93678 0.82898 0.92132 0.0
O191 O 0.85244 0.90717 0.92288 0.0
O192 O 0.87493 0.86518 0.93566 0.0
C193 C 0.94393 0.83476 0.89412 0.0
C194 C 0.85584 0.88615 0.94235 0.0
O195 O 0.89685 0.92029 0.85783 0.0
Mg196 Mg 0.85389 0.13392 0.6436 0.0
O197 O 0.82721 0.17028 0.66956 0.0
O198 O 0.82549 0.20981 0.63883 0.0
Mg199 Mg 0.84575 0.19863 0.5934 0.0
C200 C 0.8198 0.19731 0.66402 0.0
C201 C 0.85476 0.10487 0.70631 0.0
O202 O 0.86603 0.13166 0.71167 0.0
O203 O 0.80908 0.12249 0.61727 0.0
O204 O 0.80778 0.16354 0.58895 0.0
O205 O 0.89837 0.1551 0.6593 0.0
O206 O 0.87461 0.16708 0.61714 0.0
C207 C 0.7961 0.13868 0.59727 0.0
C208 C 0.89606 0.17275 0.63646 0.0
O209 O 0.84482 0.09884 0.68002 0.0
Mg210 Mg 0.60408 0.10237 0.39327 0.0
O211 O 0.56535 0.07961 0.42059 0.0
O212 O 0.55727 0.10918 0.46047 0.0
Mg213 Mg 0.58993 0.14915 0.45992 0.0
C214 C 0.55098 0.08594 0.44489 0.0
C215 C 0.62077 0.0558 0.34643 0.0
O216 O 0.64638 0.06107 0.3616 0.0
O217 O 0.56849 0.13742 0.37581 0.0
O218 O 0.56538 0.16434 0.4179 0.0
O219 O 0.63985 0.07815 0.42122 0.0
O220 O 0.62114 0.12203 0.43309 0.0
C221 C 0.55826 0.15996 0.39043 0.0
C222 C 0.6382 0.09976 0.44035 0.0
O223 O 0.59652 0.07036 0.35333 0.0
Mg224 Mg 0.64169 0.84394 0.14379 0.0
O225 O 0.67258 0.81363 0.17214 0.0
O226 O 0.68366 0.77375 0.14358 0.0
Mg227 Mg 0.66068 0.77796 0.09802 0.0
C228 C 0.68604 0.78869 0.16795 0.0
C229 C 0.62217 0.88929 0.19232 0.0
O230 O 0.5963 0.87462 0.18681 0.0
O231 O 0.6855 0.85914 0.11761 0.0
O232 O 0.69358 0.8171 0.09185 0.0
O233 O 0.59997 0.81793 0.1598 0.0
O234 O 0.62659 0.80667 0.11921 0.0
C235 C 0.70143 0.84363 0.09912 0.0
C236 C 0.60495 0.79969 0.13782 0.0
O237 O 0.64658 0.88202 0.17807 0.0
Mg238 Mg 0.89193 0.09701 0.59238 0.0
O239 O 0.91816 0.07514 0.55357 0.0
O240 O 0.91712 0.10616 0.51421 0.0
Mg241 Mg 0.89282 0.14878 0.5282 0.0
C242 C 0.92496 0.08156 0.52638 0.0
C243 C 0.89869 0.03359 0.61744 0.0
O244 O 0.88586 0.02915 0.59097 0.0
O245 O 0.93527 0.12578 0.60191 0.0
O246 O 0.93214 0.15571 0.56188 0.0
O247 O 0.84717 0.0794 0.57335 0.0
O248 O 0.86739 0.12311 0.56159 0.0
C249 C 0.94569 0.14735 0.58598 0.0
C250 C 0.84646 0.10312 0.55688 0.0
O251 O 0.90666 0.06001 0.62475 0.0
Mg252 Mg 0.65272 0.1386 0.34703 0.0
O253 O 0.69161 0.16536 0.32533 0.0
O254 O 0.73476 0.13826 0.32176 0.0
Mg255 Mg 0.72347 0.0931 0.34302 0.0
C256 C 0.71983 0.16234 0.31749 0.0
C257 C 0.62541 0.20139 0.3422 0.0
O258 O 0.65187 0.20514 0.35646 0.0
O259 O 0.64687 0.11215 0.30292 0.0
O260 O 0.68977 0.08438 0.30406 0.0
O261 O 0.66874 0.15325 0.39264 0.0
O262 O 0.68598 0.11308 0.36965 0.0
C263 C 0.66433 0.09207 0.29159 0.0
C264 C 0.68758 0.13093 0.39228 0.0
O265 O 0.61801 0.17521 0.33347 0.0
Mg266 Mg 0.59663 0.88348 0.0975 0.0
O267 O 0.55978 0.90894 0.07143 0.0
O268 O 0.51741 0.91372 0.10012 0.0
Mg269 Mg 0.52718 0.89132 0.14496 0.0
C270 C 0.53218 0.91816 0.07566 0.0
C271 C 0.62876 0.89358 0.03371 0.0
O272 O 0.60011 0.89127 0.02391 0.0
O273 O 0.60649 0.92631 0.12476 0.0
O274 O 0.56351 0.92794 0.15281 0.0
O275 O 0.57651 0.84064 0.08101 0.0
O276 O 0.56149 0.86336 0.12256 0.0
C277 C 0.58972 0.93877 0.14488 0.0
C278 C 0.55752 0.84207 0.10347 0.0
O279 O 0.63405 0.89327 0.06194 0.0
Mg280 Mg 0.84767 0.85948 0.84781 0.0
O281 O 0.81161 0.8327 0.82209 0.0
O282 O 0.76818 0.85869 0.8153 0.0
Mg283 Mg 0.77842 0.90509 0.83442 0.0
C284 C 0.78393 0.83488 0.81231 0.0
C285 C 0.87625 0.79649 0.84798 0.0
O286 O 0.84954 0.7926 0.86163 0.0
O287 O 0.85971 0.88454 0.80438 0.0
O288 O 0.81634 0.91095 0.79852 0.0
O289 O 0.82523 0.84523 0.89079 0.0
O290 O 0.81193 0.88578 0.86609 0.0
C291 C 0.84331 0.90318 0.78968 0.0
C292 C 0.80672 0.86763 0.88795 0.0
O293 O 0.88319 0.82241 0.8383 0.0
Mg294 Mg 0.39032 0.59688 0.09 0.0
O295 O 0.41685 0.57606 0.05097 0.0
O296 O 0.41484 0.60753 0.01181 0.0
Mg297 Mg 0.39335 0.6509 0.02744 0.0
C298 C 0.42259 0.58273 0.02361 0.0
C299 C 0.37899 0.54312 0.1291 0.0
O300 O 0.35195 0.55269 0.11977 0.0
O301 O 0.43407 0.62463 0.10147 0.0
O302 O 0.43271 0.65495 0.06165 0.0
O303 O 0.34632 0.58052 0.06848 0.0
O304 O 0.36667 0.62468 0.05929 0.0
C305 C 0.44564 0.64588 0.0858 0.0
C306 C 0.34611 0.60476 0.05294 0.0
O307 O 0.40319 0.55765 0.12139 0.0
Mg308 Mg 0.14799 0.63794 0.84735 0.0
O309 O 0.18631 0.66474 0.82473 0.0
O310 O 0.22916 0.63715 0.82035 0.0
Mg311 Mg 0.2176 0.59152 0.83976 0.0
C312 C 0.21447 0.66148 0.8167 0.0
C313 C 0.11899 0.70041 0.8441 0.0
O314 O 0.1456 0.70515 0.85779 0.0
O315 O 0.13993 0.61235 0.80348 0.0
O316 O 0.18307 0.585 0.80081 0.0
O317 O 0.1661 0.65289 0.89177 0.0
O318 O 0.18215 0.61237 0.86834 0.0
C319 C 0.15702 0.59332 0.7901 0.0
C320 C 0.18518 0.63079 0.89044 0.0
O321 O 0.1125 0.67409 0.83522 0.0
Mg322 Mg 0.08886 0.38167 0.6026 0.0
O323 O 0.05505 0.40663 0.57264 0.0
O324 O 0.01045 0.41387 0.59706 0.0
Mg325 Mg 0.01705 0.39606 0.64463 0.0
C326 C 0.02739 0.41648 0.57367 0.0
C327 C 0.13413 0.36573 0.55198 0.0
O328 O 0.11973 0.34059 0.55805 0.0
O329 O 0.09927 0.42557 0.62698 0.0
O330 O 0.05439 0.4325 0.65124 0.0
O331 O 0.06716 0.33893 0.58842 0.0
O332 O 0.05159 0.36432 0.62806 0.0
C333 C 0.08182 0.44095 0.6442 0.0
C334 C 0.04773 0.34194 0.61023 0.0
O335 O 0.12737 0.38883 0.56727 0.0
Mg336 Mg 0.14522 0.34477 0.64042 0.0
O337 O 0.17812 0.31245 0.66482 0.0
O338 O 0.18336 0.27333 0.63374 0.0
Mg339 Mg 0.15585 0.27935 0.59093 0.0
C340 C 0.18969 0.28707 0.65819 0.0
C341 C 0.12765 0.39028 0.688 0.0
O342 O 0.10161 0.37756 0.67929 0.0
O343 O 0.18693 0.35935 0.60993 0.0
O344 O 0.18853 0.31763 0.58256 0.0
O345 O 0.10374 0.31936 0.65914 0.0
O346 O 0.12622 0.30894 0.61619 0.0
C347 C 0.19897 0.34349 0.58899 0.0
C348 C 0.10582 0.30207 0.636 0.0
O349 O 0.15287 0.38194 0.67572 0.0
Mg350 Mg 0.35641 0.64021 0.13717 0.0
O351 O 0.32895 0.67419 0.16467 0.0
O352 O 0.32229 0.71449 0.13561 0.0
Mg353 Mg 0.34479 0.70684 0.09014 0.0
C354 C 0.31836 0.70034 0.16022 0.0
C355 C 0.37531 0.59484 0.18338 0.0
O356 O 0.40103 0.60458 0.1709 0.0
O357 O 0.31136 0.62831 0.11102 0.0
O358 O 0.30874 0.67017 0.08397 0.0
O359 O 0.40015 0.66239 0.15276 0.0
O360 O 0.37544 0.67491 0.11131 0.0
C361 C 0.29791 0.64467 0.0914 0.0
C362 C 0.39741 0.68021 0.13016 0.0
O363 O 0.34952 0.60456 0.17352 0.0
Mg364 Mg 0.60075 0.59627 0.60989 0.0
O365 O 0.56772 0.56559 0.58355 0.0
O366 O 0.53133 0.55068 0.61623 0.0
Mg367 Mg 0.5409 0.57004 0.66265 0.0
C368 C 0.54299 0.55102 0.58983 0.0
C369 C 0.63953 0.59049 0.55371 0.0
O370 O 0.6358 0.56319 0.56377 0.0
O371 O 0.56374 0.6328 0.60768 0.0
O372 O 0.53095 0.61601 0.64285 0.0
O373 O 0.62949 0.55724 0.62359 0.0
O374 O 0.58938 0.57308 0.6494 0.0
C375 C 0.53933 0.63566 0.62369 0.0
C376 C 0.61049 0.55329 0.64565 0.0
O377 O 0.62502 0.61148 0.56663 0.0
Mg378 Mg 0.90152 0.3919 0.11196 0.0
O379 O 0.93333 0.42025 0.08221 0.0
O380 O 0.97154 0.43679 0.11223 0.0
Mg381 Mg 0.96469 0.42066 0.16024 0.0
C382 C 0.95844 0.43498 0.08648 0.0
C383 C 0.85877 0.39504 0.05799 0.0
O384 O 0.86375 0.42272 0.06647 0.0
O385 O 0.93786 0.35445 0.11067 0.0
O386 O 0.97231 0.37317 0.14352 0.0
O387 O 0.87464 0.4326 0.12459 0.0
O388 O 0.91563 0.41742 0.14949 0.0
C389 C 0.96276 0.3523 0.12621 0.0
C390 C 0.89483 0.43745 0.1455 0.0
O391 O 0.87394 0.37443 0.07092 0.0
Mg392 Mg 0.64944 0.62966 0.65031 0.0
O393 O 0.67789 0.65962 0.68151 0.0
O394 O 0.71495 0.63225 0.70303 0.0
Mg395 Mg 0.71263 0.5854 0.68351 0.0
C396 C 0.70068 0.65685 0.69961 0.0
C397 C 0.61684 0.68321 0.60966 0.0
O398 O 0.63056 0.67346 0.58524 0.0
O399 O 0.68782 0.63303 0.61393 0.0
O400 O 0.72251 0.60413 0.63692 0.0
O401 O 0.62115 0.61519 0.69005 0.0
O402 O 0.6634 0.59216 0.67527 0.0
C403 C 0.71413 0.61992 0.61451 0.0
C404 C 0.64162 0.59481 0.69477 0.0
O405 O 0.62195 0.67056 0.63477 0.0
Mg406 Mg 0.39816 0.38869 0.38924 0.0
O407 O 0.43001 0.41235 0.42356 0.0
O408 O 0.43496 0.38058 0.46214 0.0
Mg409 Mg 0.41045 0.33689 0.45211 0.0
C410 C 0.44045 0.40571 0.44966 0.0
C411 C 0.39005 0.44799 0.35495 0.0
O412 O 0.37133 0.45103 0.37795 0.0
O413 O 0.4397 0.36035 0.37329 0.0
O414 O 0.44468 0.33088 0.41343 0.0
O415 O 0.35716 0.40647 0.4142 0.0
O416 O 0.37904 0.36365 0.42495 0.0
C417 C 0.45353 0.3395 0.38746 0.0
C418 C 0.35942 0.38402 0.43212 0.0
O419 O 0.40679 0.42475 0.35329 0.0
Mg420 Mg 0.09965 0.60147 0.89165 0.0
O421 O 0.0645 0.57758 0.92219 0.0
O422 O 0.05852 0.60712 0.96244 0.0
Mg423 Mg 0.08694 0.64957 0.95779 0.0
C424 C 0.05242 0.58323 0.94782 0.0
C425 C 0.11687 0.55357 0.84625 0.0
O426 O 0.14258 0.56077 0.86042 0.0
O427 O 0.0606 0.63374 0.87526 0.0
O428 O 0.05761 0.66074 0.91725 0.0
O429 O 0.13824 0.58017 0.91846 0.0
O430 O 0.11802 0.62351 0.92987 0.0
C431 C 0.04892 0.65529 0.89039 0.0
C432 C 0.13647 0.60224 0.937 0.0
O433 O 0.09207 0.56727 0.85325 0.0
Mg434 Mg 0.34441 0.35647 0.35387 0.0
O435 O 0.31091 0.32965 0.32476 0.0
O436 O 0.2661 0.35392 0.31977 0.0
Mg437 Mg 0.27206 0.39865 0.3441 0.0
C438 C 0.28331 0.33143 0.3146 0.0
C439 C 0.38131 0.29796 0.35638 0.0
O440 O 0.35739 0.29298 0.37391 0.0
O441 O 0.35553 0.38643 0.31318 0.0
O442 O 0.31073 0.41106 0.31092 0.0
O443 O 0.32239 0.33729 0.39518 0.0
O444 O 0.30646 0.37872 0.374 0.0
C445 C 0.33818 0.40625 0.30131 0.0
C446 C 0.30259 0.35871 0.39436 0.0
O447 O 0.38329 0.3229 0.34279 0.0
H448 H 0.9875 0.03802 0.07276 0.0
H449 H 0.07952 0.02143 0.03858 0.0
H450 H 0.96539 0.00706 0.03277 0.0
H451 H 0.05722 0.98949 -0.00105 0.0
H452 H 0.99248 0.8989 0.98406 0.0
H453 H 0.02241 0.93741 0.01042 0.0
H454 H 0.96572 0.00543 0.97 0.0
H455 H 0.93616 0.96697 0.94287 0.0
C456 C 0.00292 0.02792 0.05651 0.0
C457 C 0.03515 0.03183 0.05875 0.0
C458 C 0.99028 0.0105 0.03356 0.0
C459 C 0.00971 -0.00379 0.01289 0.0
C460 C 0.04192 0.00059 0.01463 0.0
C461 C 0.05457 0.01872 0.0372 0.0
C462 C 0.9869 0.92212 0.98027 0.0
C463 C 0.96187 0.93005 0.96176 0.0
C464 C 0.00415 0.94406 -0.00489 0.0
C465 C 0.9962 0.97416 0.99209 0.0
C466 C 0.97221 0.98226 0.97244 0.0
C467 C 0.95539 0.96033 0.95702 0.0
H468 H 0.26858 0.73586 0.15269 0.0
H469 H 0.3272 0.69717 0.22097 0.0
H470 H 0.23972 0.76241 0.1915 0.0
H471 H 0.2987 0.72473 0.25989 0.0
H472 H 0.26763 0.82571 0.29316 0.0
H473 H 0.29394 0.78802 0.26284 0.0
H474 H 0.2059 0.74599 0.24311 0.0
H475 H 0.17947 0.78319 0.27411 0.0
C476 C 0.27515 0.73298 0.17604 0.0
C477 C 0.30015 0.71471 0.18396 0.0
C478 C 0.25852 0.74792 0.19815 0.0
C479 C 0.26706 0.74534 0.22846 0.0
C480 C 0.29175 0.72677 0.23656 0.0
C481 C 0.30794 0.71114 0.21442 0.0
C482 C 0.25398 0.80808 0.28282 0.0
C483 C 0.22155 0.80742 0.2857 0.0
C484 C 0.26904 0.78647 0.26575 0.0
C485 C 0.2518 0.76431 0.25088 0.0
C486 C 0.21953 0.76291 0.25462 0.0
C487 C 0.20451 0.78413 0.27227 0.0
H488 H 0.48463 0.99171 0.58901 0.0
H489 H 0.44074 0.93707 0.52068 0.0
H490 H 0.50216 0.02628 0.55071 0.0
H491 H 0.45885 0.97214 0.48188 0.0
H492 H 0.54519 0.026 0.43329 0.0
H493 H 0.51509 0.9899 0.4628 0.0
H494 H 0.47516 0.06199 0.5138 0.0
H495 H 0.50511 0.09792 0.48474 0.0
C496 C 0.47874 0.98703 0.56577 0.0
C497 C 0.46136 0.96161 0.55786 0.0
C498 C 0.48856 0.00702 0.54386 0.0
C499 C 0.48151 0.00199 0.51345 0.0
C500 C 0.4644 0.97647 0.50526 0.0
C501 C 0.45406 0.95654 0.5274 0.0
C502 C 0.5293 0.03414 0.45022 0.0
C503 C 0.52805 0.0647 0.45726 0.0
C504 C 0.51204 0.0135 0.467 0.0
C505 C 0.49335 0.02327 0.49085 0.0
C506 C 0.48986 0.05395 0.49583 0.0
C507 C 0.50706 0.07447 0.47923 0.0
H508 H 0.26088 0.13922 0.74548 0.0
H509 H 0.30449 0.20679 0.8011 0.0
H510 H 0.23951 0.17774 0.71348 0.0
H511 H 0.28261 0.2457 0.76868 0.0
H512 H 0.19443 0.29416 0.7195 0.0
H513 H 0.22489 0.26311 0.75399 0.0
H514 H 0.26412 0.21665 0.67809 0.0
H515 H 0.23391 0.2471 0.64392 0.0
C516 C 0.26588 0.16232 0.75091 0.0
C517 C 0.28435 0.16999 0.77579 0.0
C518 C 0.2538 0.18436 0.73246 0.0
C519 C 0.25968 0.21458 0.73858 0.0
C520 C 0.27785 0.22248 0.7636 0.0
C521 C 0.2904 0.20027 0.78196 0.0
C522 C 0.21005 0.27771 0.71029 0.0
C523 C 0.21123 0.27245 0.67914 0.0
C524 C 0.22751 0.2601 0.72995 0.0
C525 C 0.24631 0.23726 0.71855 0.0
C526 C 0.24931 0.23378 0.68737 0.0
C527 C 0.23192 0.25114 0.66787 0.0
H528 H 0.05772 0.95196 0.45832 0.0
H529 H 0.99609 0.97119 0.38403 0.0
H530 H 0.0287 0.98652 0.49002 0.0
H531 H 0.96708 0.00493 0.41571 0.0
H532 H 0.94491 0.08806 0.46856 0.0
H533 H 0.97536 0.05345 0.43903 0.0
H534 H 0.97673 0.99181 0.51359 0.0
H535 H 0.94658 0.02679 0.54363 0.0
C536 C 0.03802 0.96344 0.44877 0.0
C537 C 0.02938 0.95894 0.41858 0.0
C538 C 0.02132 0.98307 0.46696 0.0
C539 C 0.99576 -0.00148 0.45525 0.0
C540 C 0.98701 0.99375 0.42521 0.0
C541 C 0.00362 0.97426 0.40709 0.0
C542 C 0.95162 0.06715 0.47876 0.0
C543 C 0.94316 0.06016 0.50844 0.0
C544 C 0.969 0.04727 0.46175 0.0
C545 C 0.97827 0.01988 0.47396 0.0
C546 C 0.97011 0.0129 0.50371 0.0
C547 C 0.95267 0.03285 0.52081 0.0
H548 H 0.33496 0.78502 0.71892 0.0
H549 H 0.24392 0.82462 0.72079 0.0
H550 H 0.31605 0.74387 0.74984 0.0
H551 H 0.2246 0.783 0.75025 0.0
H552 H 0.20296 0.72035 0.82474 0.0
H553 H 0.22658 0.76217 0.79844 0.0
H554 H 0.28393 0.70104 0.74813 0.0
H555 H 0.26136 0.65935 0.77578 0.0
C556 C 0.31084 0.78473 0.72572 0.0
C557 C 0.2909 0.808 0.71761 0.0
C558 C 0.29997 0.76115 0.74332 0.0
C559 C 0.26884 0.76019 0.75269 0.0
C560 C 0.2489 0.78336 0.74413 0.0
C561 C 0.25989 0.80713 0.72703 0.0
C562 C 0.2208 0.71594 0.80822 0.0
C563 C 0.23021 0.68669 0.80207 0.0
C564 C 0.2342 0.73985 0.79299 0.0
C565 C 0.25682 0.73495 0.77082 0.0
C566 C 0.26682 0.70567 0.76528 0.0
C567 C 0.2538 0.68176 0.78098 0.0
H568 H 0.50823 0.0305 0.92106 0.0
H569 H 0.41744 0.03117 0.96206 0.0
H570 H 0.52713 -0.00142 0.96116 0.0
H571 H 0.43588 -0.00194 0.00148 0.0
H572 H 0.54332 0.91606 0.01552 0.0
H573 H 0.52232 0.9485 0.97688 0.0
H574 H 0.46837 -0.00551 0.04429 0.0
H575 H 0.48846 0.96107 0.08269 0.0
C576 C 0.49232 0.02375 0.93866 0.0
C577 C 0.46139 0.03322 0.93845 0.0
C578 C 0.50304 0.00525 0.96149 0.0
C579 C 0.4829 -0.0046 0.9843 0.0
C580 C 0.45209 0.00546 0.98443 0.0
C581 C 0.4415 0.02439 0.96183 0.0
C582 C 0.52685 0.93301 0.02199 0.0
C583 C 0.51764 0.93621 0.05205 0.0
C584 C 0.51497 0.95175 -8e-05 0.0
C585 C 0.49402 0.97441 0.00756 0.0
C586 C 0.48424 0.9771 0.03758 0.0
C587 C 0.49578 0.95801 0.05959 0.0
H588 H 0.22284 0.31966 0.29921 0.0
H589 H 0.31614 0.28658 0.28867 0.0
H590 H 0.20286 0.27678 0.2712 0.0
H591 H 0.29634 0.24446 0.25994 0.0
H592 H 0.24929 0.15585 0.24165 0.0
H593 H 0.26784 0.19958 0.26871 0.0
H594 H 0.20089 0.25401 0.22207 0.0
H595 H 0.18159 0.20999 0.19561 0.0
C596 C 0.2391 0.30341 0.29067 0.0
C597 C 0.27104 0.30637 0.29641 0.0
C598 C 0.22767 0.27892 0.27449 0.0
C599 C 0.24799 0.25705 0.26355 0.0
C600 C 0.27998 0.26051 0.26864 0.0
C601 C 0.29135 0.28478 0.285 0.0
C602 C 0.23849 0.17712 0.23714 0.0
C603 C 0.214 0.17941 0.21643 0.0
C604 C 0.24926 0.20226 0.25253 0.0
C605 C 0.236 0.23035 0.24741 0.0
C606 C 0.21139 0.23265 0.22679 0.0
C607 C 0.20045 0.20743 0.21151 0.0
H608 H 0.4149 0.57354 0.96384 0.0
H609 H 0.46664 0.54321 0.04105 0.0
H610 H 0.44209 0.53822 0.93209 0.0
H611 H 0.49553 0.50911 0.00904 0.0
H612 H 0.52291 0.43221 0.94846 0.0
H613 H 0.49332 0.46514 0.98112 0.0
H614 H 0.48986 0.53074 0.90985 0.0
H615 H 0.51755 0.49693 0.87688 0.0
C616 C 0.43239 0.55945 0.97389 0.0
C617 C 0.43882 0.56103 0.00476 0.0
C618 C 0.44817 0.53935 0.9557 0.0
C619 C 0.4713 0.52097 0.96789 0.0
C620 C 0.47755 0.52254 -0.00107 0.0
C621 C 0.46119 0.54217 0.01726 0.0
C622 C 0.51563 0.45366 0.9399 0.0
C623 C 0.52216 0.46204 0.9102 0.0
C624 C 0.49888 0.47264 0.95862 0.0
C625 C 0.48903 0.50061 0.94813 0.0
C626 C 0.49626 0.50908 0.91849 0.0
C627 C 0.51231 0.48982 0.89961 0.0
H628 H 0.83043 0.28328 0.2058 0.0
H629 H 0.73861 0.32077 0.21138 0.0
H630 H 0.81479 0.24323 0.23962 0.0
H631 H 0.72241 0.28004 0.24383 0.0
H632 H 0.76529 0.15914 0.27504 0.0
H633 H 0.7846 0.19956 0.24345 0.0
H634 H 0.72797 0.26206 0.29279 0.0
H635 H 0.70756 0.22137 0.32308 0.0
C636 C 0.80677 0.2827 0.21395 0.0
C637 C 0.78574 0.30517 0.20608 0.0
C638 C 0.79776 0.2597 0.23327 0.0
C639 C 0.76739 0.25846 0.24471 0.0
C640 C 0.74623 0.28066 0.23617 0.0
C641 C 0.75539 0.3039 0.21732 0.0
C642 C 0.7573 0.1816 0.27927 0.0
C643 C 0.73475 0.18714 0.30126 0.0
C644 C 0.7684 0.20481 0.26123 0.0
C645 C 0.75752 0.23407 0.26524 0.0
C646 C 0.73617 0.2397 0.28841 0.0
C647 C 0.72467 0.21645 0.30599 0.0
H648 H 0.05989 0.43629 0.52495 0.0
H649 H 0.96786 0.43475 0.56349 0.0
H650 H 0.04128 0.46711 0.48397 0.0
H651 H 0.949 0.46481 0.5218 0.0
H652 H 0.93403 0.54618 0.46263 0.0
H653 H 0.95295 0.51493 0.50335 0.0
H654 H 0.00943 0.46615 0.44015 0.0
H655 H 0.99139 0.49799 0.39966 0.0
C656 C 0.03557 0.44216 0.52446 0.0
C657 C 0.01537 0.43314 0.54756 0.0
C658 C 0.02487 0.45977 0.50087 0.0
C659 C 0.99368 0.46854 0.49967 0.0
C660 C 0.9733 0.45892 0.52238 0.0
C661 C 0.98406 0.44149 0.54615 0.0
C662 C 0.95062 0.52889 0.45746 0.0
C663 C 0.96127 0.52463 0.42792 0.0
C664 C 0.96127 0.51081 0.48076 0.0
C665 C 0.98257 0.48793 0.47498 0.0
C666 C 0.99335 0.48382 0.44546 0.0
C667 C 0.98293 0.50205 0.42221 0.0
H668 H 0.82389 0.70294 0.2818 0.0
H669 H 0.73551 0.6574 0.28908 0.0
H670 H 0.7989 0.74337 0.254 0.0
H671 H 0.71063 0.69809 0.26198 0.0
H672 H 0.67369 0.78699 0.22799 0.0
H673 H 0.70255 0.75884 0.26617 0.0
H674 H 0.77073 0.73519 0.19941 0.0
H675 H 0.74159 0.76237 0.16128 0.0
C676 C 0.79909 0.70187 0.27793 0.0
C677 C 0.78162 0.67695 0.28714 0.0
C678 C 0.78489 0.72496 0.26221 0.0
C679 C 0.75296 0.72373 0.25625 0.0
C680 C 0.73525 0.69959 0.26677 0.0
C681 C 0.74952 0.67622 0.28188 0.0
C682 C 0.6952 0.77626 0.2218 0.0
C683 C 0.7054 0.77636 0.19186 0.0
C684 C 0.71159 0.76028 0.24349 0.0
C685 C 0.73872 0.74508 0.23551 0.0
C686 C 0.75 0.74703 0.20603 0.0
C687 C 0.73326 0.7623 0.18427 0.0
H688 H 0.81263 0.25731 0.66396 0.0
H689 H 0.79253 0.17863 0.71686 0.0
H690 H 0.78721 0.288 0.70107 0.0
H691 H 0.76688 0.21002 0.75459 0.0
H692 H 0.69009 0.28057 0.78696 0.0
H693 H 0.71833 0.2439 0.75687 0.0
H694 H 0.79761 0.3032 0.75408 0.0
H695 H 0.76962 0.3398 0.78351 0.0
C696 C 0.80283 0.24649 0.68357 0.0
C697 C 0.80459 0.21546 0.68741 0.0
C698 C 0.78845 0.2642 0.70498 0.0
C699 C 0.77537 0.2514 0.73081 0.0
C700 C 0.77683 0.22036 0.7348 0.0
C701 C 0.79158 0.20249 0.71333 0.0
C702 C 0.71368 0.28557 0.78021 0.0
C703 C 0.72739 0.31334 0.78704 0.0
C704 C 0.72986 0.26452 0.76319 0.0
C705 C 0.75994 0.27097 0.75287 0.0
C706 C 0.77422 0.29793 0.7613 0.0
C707 C 0.75812 0.31891 0.77811 0.0
H708 H 0.81302 0.78373 0.7959 0.0
H709 H 0.72374 0.82709 0.79348 0.0
H710 H 0.79125 0.74113 0.76962 0.0
H711 H 0.70164 0.78369 0.76777 0.0
H712 H 0.6853 0.71532 0.69111 0.0
H713 H 0.70392 0.75845 0.71948 0.0
H714 H 0.7564 0.7002 0.77751 0.0
H715 H 0.73866 0.65728 0.74866 0.0
C716 C 0.78864 0.78409 0.79 0.0
C717 C 0.77011 0.80886 0.79679 0.0
C718 C 0.7761 0.75951 0.77508 0.0
C719 C 0.74467 0.75894 0.76678 0.0
C720 C 0.72603 0.78362 0.77363 0.0
C721 C 0.73865 0.80841 0.78846 0.0
C722 C 0.70076 0.71175 0.70998 0.0
C723 C 0.71082 0.68294 0.71742 0.0
C724 C 0.71124 0.73644 0.72635 0.0
C725 C 0.73181 0.73274 0.75059 0.0
C726 C 0.74109 0.70383 0.75855 0.0
C727 C 0.73085 0.67923 0.74205 0.0
H728 H 0.46007 0.40089 0.50754 0.0
H729 H 0.46041 0.46148 0.43183 0.0
H730 H 0.48493 0.43861 0.5384 0.0
H731 H 0.48575 0.49955 0.46337 0.0
H732 H 0.56295 0.53998 0.53215 0.0
H733 H 0.53868 0.50658 0.4951 0.0
H734 H 0.4637 0.48908 0.55693 0.0
H735 H 0.48751 0.52204 0.59377 0.0
C736 C 0.46564 0.42217 0.49732 0.0
C737 C 0.45797 0.42823 0.46721 0.0
C738 C 0.47978 0.44381 0.51513 0.0
C739 C 0.4868 0.47199 0.50329 0.0
C740 C 0.48043 0.47791 0.47291 0.0
C741 C 0.4659 0.45619 0.45499 0.0
C742 C 0.54112 0.52925 0.53767 0.0
C743 C 0.52745 0.53325 0.56612 0.0
C744 C 0.52723 0.51031 0.51643 0.0
C745 C 0.49964 0.4951 0.52347 0.0
C746 C 0.48528 0.50025 0.55124 0.0
C747 C 0.49899 0.51912 0.57232 0.0
H748 H 0.02104 0.58903 0.00047 0.0
H749 H 0.0398 0.52578 0.92922 0.0
H750 H 0.99684 0.5497 0.02981 0.0
H751 H 0.01486 0.4863 0.95905 0.0
H752 H 0.93501 0.4429 0.02943 0.0
H753 H 0.95494 0.47711 0.99083 0.0
H754 H 0.03199 0.50013 0.04854 0.0
H755 H 0.01277 0.46618 0.0868 0.0
C756 C 0.01955 0.56689 0.99078 0.0
C757 C 0.03291 0.56043 0.96271 0.0
C758 C 0.00564 0.54444 0.00761 0.0
C759 C 0.00447 0.51517 -0.00334 0.0
C760 C 0.01564 0.50887 0.96777 0.0
C761 C 0.02989 0.53141 0.95085 0.0
C762 C 0.95649 0.45487 0.03365 0.0
C763 C 0.97202 0.45221 0.06141 0.0
C764 C 0.96783 0.47429 0.01156 0.0
C765 C 0.99465 0.49125 0.01713 0.0
C766 C 0.01104 0.48736 0.04405 0.0
C767 C -6e-05 0.46796 0.06592 0.0
H768 H 0.15676 0.00982 0.14223 0.0
H769 H 0.0742 0.03545 0.19045 0.0
H770 H 0.16253 0.96689 0.17541 0.0
H771 H 0.07986 0.99257 0.22331 0.0
H772 H 0.08444 0.89927 0.26226 0.0
H773 H 0.07774 0.93727 0.22345 0.0
H774 H 0.17539 0.95876 0.22871 0.0
H775 H 0.18195 0.92115 0.26751 0.0
C776 C 0.13964 0.00614 0.15966 0.0
C777 C 0.11478 0.0259 0.16341 0.0
C778 C 0.14303 0.98162 0.17873 0.0
C779 C 0.12153 0.97622 0.20184 0.0
C780 C 0.09646 -0.00424 0.20533 0.0
C781 C 0.09321 0.0204 0.18644 0.0
C782 C 0.10454 0.91183 0.25475 0.0
C783 C 0.1337 0.90737 0.26805 0.0
C784 C 0.10065 0.93374 0.23275 0.0
C785 C 0.12598 0.95124 0.22326 0.0
C786 C 0.15541 0.94571 0.23556 0.0
C787 C 0.15916 0.92423 0.25793 0.0
H788 H 0.30201 0.92517 0.54463 0.0
H789 H 0.35032 0.84708 0.51318 0.0
H790 H 0.26206 0.91729 0.50699 0.0
H791 H 0.31025 0.83963 0.47435 0.0
H792 H 0.2182 0.82709 0.41994 0.0
H793 H 0.25338 0.82868 0.46365 0.0
H794 H 0.26291 0.92404 0.45296 0.0
H795 H 0.22833 0.92236 0.40994 0.0
C796 C 0.30425 0.90638 0.52946 0.0
C797 C 0.32978 0.88716 0.53138 0.0
C798 C 0.28128 0.90188 0.50786 0.0
C799 C 0.28332 0.87825 0.48723 0.0
C800 C 0.30808 0.85808 0.48993 0.0
C801 C 0.33109 0.86243 0.51197 0.0
C802 C 0.22755 0.84834 0.42738 0.0
C803 C 0.22062 0.87461 0.41162 0.0
C804 C 0.24788 0.84922 0.45212 0.0
C805 C 0.26094 0.87648 0.46178 0.0
C806 C 0.25301 0.90271 0.44644 0.0
C807 C 0.23327 0.90176 0.42167 0.0
H808 H 0.31897 0.048 0.78015 0.0
H809 H 0.41179 0.08236 0.76703 0.0
H810 H 0.32654 0.01275 0.73935 0.0
H811 H 0.4197 0.04625 0.72665 0.0
H812 H 0.43171 0.95107 0.68638 0.0
H813 H 0.42454 0.99105 0.72272 0.0
H814 H 0.33464 0.00962 0.68448 0.0
H815 H 0.34187 0.96975 0.64788 0.0
C816 C 0.3409 0.04823 0.76849 0.0
C817 C 0.36466 0.06818 0.7768 0.0
C818 C 0.34528 0.02792 0.74506 0.0
C819 C 0.37381 0.02653 0.72993 0.0
C820 C 0.39754 0.04661 0.73807 0.0
C821 C 0.39291 0.0674 0.76107 0.0
C822 C 0.41068 0.96398 0.68528 0.0
C823 C 0.38752 0.95732 0.66398 0.0
C824 C 0.40656 0.98693 0.70617 0.0
C825 C 0.37902 0.00351 0.70647 0.0
C826 C 0.35602 -0.0029 0.68495 0.0
C827 C 0.36028 0.97436 0.66387 0.0
H828 H 0.28266 0.16288 0.92041 0.0
H829 H 0.23851 0.0786 0.89915 0.0
H830 H 0.24599 0.16983 0.96208 0.0
H831 H 0.20223 0.08568 0.93999 0.0
H832 H 0.16805 0.08754 0.03478 0.0
H833 H 0.20599 0.0853 -0.00518 0.0
H834 H 0.18843 0.17737 0.97274 0.0
H835 H 0.15036 0.17996 0.01367 0.0
C836 C 0.26523 0.14589 0.92462 0.0
C837 C 0.26367 0.12008 0.90662 0.0
C838 C 0.24411 0.14999 0.94825 0.0
C839 C 0.22143 0.12815 0.95447 0.0
C840 C 0.21977 0.10266 0.93616 0.0
C841 C 0.24053 0.0987 0.91259 0.0
C842 C 0.17202 0.10739 0.02145 0.0
C843 C 0.15568 0.13383 0.02717 0.0
C844 C 0.1938 0.10604 -0.00157 0.0
C845 C 0.19983 0.13099 0.98029 0.0
C846 C 0.18422 0.15777 0.98637 0.0
C847 C 0.16228 0.15917 0.00962 0.0
H848 H 0.18586 0.04457 0.21326 0.0
H849 H 0.10017 0.08441 0.24284 0.0
H850 H 0.18161 0.00753 0.25317 0.0
H851 H 0.09567 0.04703 0.28224 0.0
H852 H 0.07635 0.95273 0.31618 0.0
H853 H 0.08478 0.99315 0.28107 0.0
H854 H 0.18066 -0.00083 0.3088 0.0
H855 H 0.1722 0.9579 0.34398 0.0
C856 C 0.1664 0.04574 0.22851 0.0
C857 C 0.14336 0.06746 0.22486 0.0
C858 C 0.16393 0.02445 0.25135 0.0
C859 C 0.13807 0.02411 0.27052 0.0
C860 C 0.11563 0.04646 0.26749 0.0
C861 C 0.11831 0.06797 0.245 0.0
C862 C 0.09926 0.96238 0.31479 0.0
C863 C 0.12361 0.95191 0.33276 0.0
C864 C 0.10403 0.98591 0.29486 0.0
C865 C 0.13333 -0.00049 0.29232 0.0
C866 C 0.15783 0.98906 0.31023 0.0
C867 C 0.15293 0.96562 0.33047 0.0
H868 H 0.2336 0.89274 0.60799 0.0
H869 H 0.29408 0.82878 0.56544 0.0
H870 H 0.19637 0.88653 0.56803 0.0
H871 H 0.25623 0.82296 0.52442 0.0
H872 H 0.16543 0.80523 0.46889 0.0
H873 H 0.20296 0.80579 0.51047 0.0
H874 H 0.19428 0.90152 0.51665 0.0
H875 H 0.15631 0.90083 0.4765 0.0
C876 C 0.23912 0.87733 0.59003 0.0
C877 C 0.26718 0.86152 0.58986 0.0
C878 C 0.21766 0.8739 0.56693 0.0
C879 C 0.22353 0.8547 0.54271 0.0
C880 C 0.25104 0.83795 0.54283 0.0
C881 C 0.27281 0.84145 0.56616 0.0
C882 C 0.17126 0.82627 0.47955 0.0
C883 C 0.1574 0.85289 0.46986 0.0
C884 C 0.19295 0.82662 0.50311 0.0
C885 C 0.20131 0.85364 0.51714 0.0
C886 C 0.18775 0.8802 0.50696 0.0
C887 C 0.16592 0.87981 0.48387 0.0
H888 H 0.33799 0.00815 0.85177 0.0
H889 H 0.42795 0.0277 0.81364 0.0
H890 H 0.33213 0.96624 0.81692 0.0
H891 H 0.42227 0.98602 0.77949 0.0
H892 H 0.41228 0.89707 0.73367 0.0
H893 H 0.41794 0.93074 0.77653 0.0
H894 H 0.32532 0.96344 0.76128 0.0
H895 H 0.32005 0.93082 0.71803 0.0
C896 C 0.35677 0.00322 0.83643 0.0
C897 C 0.38355 0.02126 0.83566 0.0
C898 C 0.35333 0.97934 0.81643 0.0
C899 C 0.3768 0.97284 0.79558 0.0
C900 C 0.40401 0.99017 0.79562 0.0
C901 C 0.40724 0.0142 0.81528 0.0
C902 C 0.393 0.91123 0.73964 0.0
C903 C 0.36568 0.91123 0.72235 0.0
C904 C 0.39629 0.93054 0.76413 0.0
C905 C 0.37212 0.94982 0.77211 0.0
C906 C 0.34431 0.94878 0.75571 0.0
C907 C 0.34129 0.93001 0.73084 0.0
H908 H 0.32255 0.0868 0.95673 0.0
H909 H 0.3374 0.1805 0.97495 0.0
H910 H 0.2839 0.0845 -0.00387 0.0
H911 H 0.29897 0.17786 0.01563 0.0
H912 H 0.2084 0.16316 0.0722 0.0
H913 H 0.24255 0.16913 0.02825 0.0
H914 H 0.28708 0.08595 0.05016 0.0
H915 H 0.25337 0.07994 0.09312 0.0
C916 C 0.31789 0.1069 0.96945 0.0
C917 C 0.33363 0.13372 0.9631 0.0
C918 C 0.29563 0.10555 0.99209 0.0
C919 C 0.28873 0.13084 0.00944 0.0
C920 C 0.30375 0.15798 0.00263 0.0
C921 C 0.32593 0.15943 0.97955 0.0
C922 C 0.22539 0.14615 0.06737 0.0
C923 C 0.22825 0.12114 0.08621 0.0
C924 C 0.24507 0.14967 0.04241 0.0
C925 C 0.26747 0.12796 0.03564 0.0
C926 C 0.26983 0.10289 0.05436 0.0
C927 C 0.25058 0.09956 0.07922 0.0
H928 H 0.90145 0.27294 0.08363 0.0
H929 H 0.93147 0.28207 0.17588 0.0
H930 H 0.93757 0.23123 0.0768 0.0
H931 H 0.96742 0.24102 0.16908 0.0
H932 H 0.99344 0.14538 0.16168 0.0
H933 H 0.95818 0.18689 0.16167 0.0
H934 H 0.99684 0.21803 0.07781 0.0
H935 H 0.03306 0.17575 0.07776 0.0
C936 C 0.91571 0.266 0.1024 0.0
C937 C 0.91338 0.28027 0.13056 0.0
C938 C 0.93651 0.24236 0.09841 0.0
C939 C 0.95495 0.23261 0.12254 0.0
C940 C 0.95303 0.24759 0.15026 0.0
C941 C 0.93251 0.27109 0.15417 0.0
C942 C 0.9946 0.16088 0.14305 0.0
C943 C 0.01636 0.1573 0.11981 0.0
C944 C 0.97436 0.18482 0.14316 0.0
C945 C 0.97505 0.20599 0.12003 0.0
C946 C 0.99588 0.20203 0.096 0.0
C947 C 0.0167 0.17801 0.09607 0.0
H948 H 0.52818 0.31149 0.90384 0.0
H949 H 0.4923 0.34319 0.81888 0.0
H950 H 0.49072 0.27 0.90228 0.0
H951 H 0.45564 0.30242 0.81749 0.0
H952 H 0.4277 0.2082 0.80035 0.0
H953 H 0.46238 0.24987 0.80871 0.0
H954 H 0.43399 0.25428 0.90173 0.0
H955 H 0.39909 0.21141 0.89342 0.0
C956 C 0.51238 0.30969 0.88496 0.0
C957 C 0.51362 0.33047 0.8613 0.0
C958 C 0.49081 0.28606 0.88416 0.0
C959 C 0.47072 0.28253 0.85939 0.0
C960 C 0.47132 0.30399 0.8365 0.0
C961 C 0.49242 0.32752 0.83739 0.0
C962 C 0.42855 0.218 0.82262 0.0
C963 C 0.41017 0.20676 0.84608 0.0
C964 C 0.44847 0.24204 0.8274 0.0
C965 C 0.45053 0.25579 0.85575 0.0
C966 C 0.43279 0.24419 0.8796 0.0
C967 C 0.41271 0.21983 0.8748 0.0
H968 H 0.97034 0.66429 0.41097 0.0
H969 H 0.97909 0.65435 0.3148 0.0
H970 H 0.00388 0.70897 0.40902 0.0
H971 H 0.0116 0.69883 0.31274 0.0
H972 H 0.04193 0.79512 0.31442 0.0
H973 H 0.0057 0.75367 0.32151 0.0
H974 H 0.06131 0.72136 0.39526 0.0
H975 H 0.09766 0.7632 0.38823 0.0
C976 C 0.97916 0.67184 0.38948 0.0
C977 C 0.97228 0.65588 0.36305 0.0
C978 C -0.00154 0.69721 0.38837 0.0
C979 C 0.0103 0.70742 0.3607 0.0
C980 C 0.00263 0.69173 0.33434 0.0
C981 C 0.98412 0.66618 0.33554 0.0
C982 C 0.04641 0.77913 0.33213 0.0
C983 C 0.07276 0.78209 0.3504 0.0
C984 C 0.02571 0.75543 0.33619 0.0
C985 C 0.03085 0.73409 0.35872 0.0
C986 C 0.05674 0.73752 0.37776 0.0
C987 C 0.07765 0.7613 0.37359 0.0
H988 H 0.97238 0.31521 0.07773 0.0
H989 H 0.99738 0.32902 0.17083 0.0
H990 H 0.00915 0.27362 0.07494 0.0
H991 H 0.03359 0.28796 0.16815 0.0
H992 H 0.07098 0.19502 0.16362 0.0
H993 H 0.03226 0.23387 0.16289 0.0
H994 H 0.06726 0.26508 0.07751 0.0
H995 H 0.1064 0.22549 0.07806 0.0
C996 C 0.98546 0.30915 0.0976 0.0
C997 C 0.98212 0.32533 0.12446 0.0
C998 C 0.00668 0.28561 0.09595 0.0
C999 C 0.02429 0.27755 0.12133 0.0
C1000 C 0.02023 0.2934 0.14827 0.0
C1001 C -0.00045 0.31703 0.14977 0.0
C1002 C 0.07064 0.21012 0.14464 0.0
C1003 C 0.09202 0.20735 0.12089 0.0
C1004 C 0.04844 0.23252 0.14432 0.0
C1005 C 0.04689 0.25274 0.1203 0.0
C1006 C 0.06778 0.24968 0.09623 0.0
C1007 C 0.09026 0.22721 0.09662 0.0
H1008 H 0.58106 0.70416 0.65536 0.0
H1009 H 0.59972 0.71731 0.56081 0.0
H1010 H 0.54334 0.74394 0.65411 0.0
H1011 H 0.56204 0.75807 0.55981 0.0
H1012 H 0.46887 0.81243 0.56871 0.0
H1013 H 0.50517 0.77046 0.56542 0.0
H1014 H 0.54649 0.79756 0.64977 0.0
H1015 H 0.51083 0.83871 0.65311 0.0
C1016 C 0.57739 0.71574 0.6343 0.0
C1017 C 0.5939 0.70778 0.60828 0.0
C1018 C 0.55574 0.73867 0.63363 0.0
C1019 C 0.55003 0.75458 0.60699 0.0
C1020 C 0.5659 0.74624 0.58069 0.0
C1021 C 0.58765 0.72306 0.58133 0.0
C1022 C 0.48576 0.80931 0.58646 0.0
C1023 C 0.48688 0.82895 0.61115 0.0
C1024 C 0.50666 0.78543 0.5845 0.0
C1025 C 0.52855 0.78047 0.60751 0.0
C1026 C 0.52962 0.80031 0.63193 0.0
C1027 C 0.5092 0.82414 0.6337 0.0
H1028 H 0.90784 0.71334 0.34135 0.0
H1029 H 0.91117 0.70842 0.43842 0.0
H1030 H 0.94425 0.75449 0.34223 0.0
H1031 H 0.94748 0.75083 0.43928 0.0
H1032 H 0.04045 0.80458 0.41855 0.0
H1033 H 0.00175 0.76462 0.42435 0.0
H1034 H 0.94465 0.80608 0.35658 0.0
H1035 H 0.98294 0.84505 0.3503 0.0
C1036 C 0.9159 0.72138 0.363 0.0
C1037 C 0.90622 0.70775 0.38986 0.0
C1038 C 0.93678 0.74515 0.36349 0.0
C1039 C 0.9484 0.75628 0.39086 0.0
C1040 C 0.9389 0.74272 0.41785 0.0
C1041 C 0.91796 0.71863 0.41736 0.0
C1042 C 0.01951 0.80518 0.40509 0.0
C1043 C 0.01516 0.82771 0.38354 0.0
C1044 C 0.99727 0.78243 0.40855 0.0
C1045 C 0.9704 0.78191 0.39051 0.0
C1046 C 0.96546 0.80534 0.37024 0.0
C1047 C 0.98752 0.8278 0.36671 0.0
H1048 H 0.46867 0.17595 0.91465 0.0
H1049 H 0.48556 0.1522 0.82199 0.0
H1050 H 0.50539 0.21805 0.90968 0.0
H1051 H 0.52177 0.19308 0.81715 0.0
H1052 H 0.56004 0.28307 0.8039 0.0
H1053 H 0.52107 0.24562 0.81433 0.0
H1054 H 0.5616 0.23028 0.90183 0.0
H1055 H 0.60073 0.26912 0.89158 0.0
C1056 C 0.47992 0.17992 0.89325 0.0
C1057 C 0.47429 0.16082 0.86873 0.0
C1058 C 0.50112 0.20377 0.89045 0.0
C1059 C 0.51635 0.20915 0.8629 0.0
C1060 C 0.51015 0.19009 0.83853 0.0
C1061 C 0.48945 0.16643 0.84138 0.0
C1062 C 0.56092 0.27171 0.82536 0.0
C1063 C 0.58403 0.27857 0.84661 0.0
C1064 C 0.53848 0.25012 0.83136 0.0
C1065 C 0.53856 0.23439 0.85866 0.0
C1066 C 0.56093 0.24195 0.88055 0.0
C1067 C 0.58346 0.26397 0.87459 0.0
H1068 H 0.86913 0.11231 0.76553 0.0
H1069 H 0.84703 0.04429 0.69976 0.0
H1070 H 0.87792 0.07395 0.80321 0.0
H1071 H 0.85536 0.00587 0.73792 0.0
H1072 H 0.9101 0.94716 0.80638 0.0
H1073 H 0.9005 0.98506 0.76771 0.0
H1074 H 0.84802 0.03644 0.83176 0.0
H1075 H 0.85757 -0.00101 0.87007 0.0
C1076 C 0.86583 0.08917 0.75917 0.0
C1077 C 0.85727 0.08141 0.72964 0.0
C1078 C 0.87082 0.06718 0.78082 0.0
C1079 C 0.86751 0.03684 0.77348 0.0
C1080 C 0.85853 0.02902 0.74407 0.0
C1081 C 0.85339 0.05107 0.72236 0.0
C1082 C 0.89633 0.96645 0.812 0.0
C1083 C 0.88441 0.9699 0.84115 0.0
C1084 C 0.89075 0.98805 0.7899 0.0
C1085 C 0.87329 0.01359 0.79661 0.0
C1086 C 0.86175 0.01715 0.8259 0.0
C1087 C 0.86725 -0.00438 0.84787 0.0
H1088 H 0.63157 0.13709 0.48858 0.0
H1089 H 0.68382 0.06106 0.45815 0.0
H1090 H 0.66334 0.1406 0.53291 0.0
H1091 H 0.71714 0.06554 0.50257 0.0
H1092 H 0.75576 0.17387 0.568 0.0
H1093 H 0.7141 0.15947 0.5351 0.0
H1094 H 0.72866 0.06676 0.55717 0.0
H1095 H 0.77207 0.08154 0.5902 0.0
C1096 C 0.64958 0.12084 0.49134 0.0
C1097 C 0.65532 0.09915 0.46932 0.0
C1098 C 0.66808 0.12297 0.51691 0.0
C1099 C 0.69358 0.10406 0.52084 0.0
C1100 C 0.69793 0.08071 0.50013 0.0
C1101 C 0.67891 0.07825 0.47457 0.0
C1102 C 0.74998 0.15037 0.56635 0.0
C1103 C 0.76744 0.12885 0.58163 0.0
C1104 C 0.7257 0.14206 0.54757 0.0
C1105 C 0.7177 0.11191 0.54357 0.0
C1106 C 0.73427 0.09019 0.55976 0.0
C1107 C 0.75887 0.09864 0.57887 0.0
H1108 H 0.57421 0.90801 0.22736 0.0
H1109 H 0.67007 0.9274 0.20662 0.0
H1110 H 0.57378 0.94876 0.26343 0.0
H1111 H 0.6695 0.96871 0.24226 0.0
H1112 H 0.66803 0.01888 0.33127 0.0
H1113 H 0.66836 0.97954 0.29388 0.0
H1114 H 0.57419 0.00118 0.26911 0.0
H1115 H 0.57362 0.04026 0.30746 0.0
C1116 C 0.59523 0.92103 0.23045 0.0
C1117 C 0.62227 0.91426 0.21424 0.0
C1118 C 0.59489 0.94465 0.25099 0.0
C1119 C 0.62155 0.96225 0.25583 0.0
C1120 C 0.64859 0.9555 0.23948 0.0
C1121 C 0.64895 0.93181 0.21894 0.0
C1122 C 0.64732 0.01532 0.31789 0.0
C1123 C 0.62067 0.03262 0.32258 0.0
C1124 C 0.64762 0.99281 0.29617 0.0
C1125 C 0.62132 0.98701 0.27833 0.0
C1126 C 0.59475 0.00464 0.2827 0.0
C1127 C 0.59441 0.02717 0.30461 0.0
H1128 H 0.8691 0.85597 -0.00569 0.0
H1129 H 0.80401 0.91806 0.95615 0.0
H1130 H 0.83805 0.85265 0.03946 0.0
H1131 H 0.77158 0.91331 0.00086 0.0
H1132 H 0.71846 0.90228 0.08758 0.0
H1133 H 0.76134 0.91868 0.05492 0.0
H1134 H 0.79084 0.82712 0.04631 0.0
H1135 H 0.74937 0.81129 0.07872 0.0
C1136 C 0.84816 0.8689 -0.00457 0.0
C1137 C 0.83864 0.88655 0.97116 0.0
C1138 C 0.83028 0.86705 0.02147 0.0
C1139 C 0.80191 0.88219 0.02362 0.0
C1140 C 0.79335 0.90145 0.00014 0.0
C1141 C 0.81175 0.90385 0.9743 0.0
C1142 C 0.73481 0.88597 0.07937 0.0
C1143 C 0.73016 0.85545 0.08518 0.0
C1144 C 0.75916 0.89527 0.06049 0.0
C1145 C 0.77949 0.87422 0.04779 0.0
C1146 C 0.77607 0.84412 0.05582 0.0
C1147 C 0.75188 0.83493 0.07425 0.0
H1148 H 0.92429 0.03364 0.67417 0.0
H1149 H 0.87194 0.97863 0.61201 0.0
H1150 H 0.91595 -0.00363 0.71368 0.0
H1151 H 0.86301 0.94217 0.6517 0.0
H1152 H 0.81021 0.93181 0.74656 0.0
H1153 H 0.82957 0.95815 0.70264 0.0
H1154 H 0.92311 0.93307 0.72516 0.0
H1155 H 0.90362 0.90525 0.769 0.0
C1156 C 0.91162 0.01339 0.66874 0.0
C1157 C 0.89852 0.00927 0.64001 0.0
C1158 C 0.907 0.99203 0.69131 0.0
C1159 C 0.88878 0.96655 0.68562 0.0
C1160 C 0.87718 0.96165 0.65654 0.0
C1161 C 0.88227 0.98263 0.63388 0.0
C1162 C 0.8349 0.93148 0.74211 0.0
C1163 C 0.85543 0.91678 0.76162 0.0
C1164 C 0.84591 0.94644 0.71682 0.0
C1165 C 0.87777 0.9477 0.71072 0.0
C1166 C 0.89842 0.93241 0.72956 0.0
C1167 C 0.88725 0.91657 0.75456 0.0
H1168 H 0.83123 0.1543 0.52772 0.0
H1169 H 0.81004 0.06009 0.53075 0.0
H1170 H 0.79305 0.16079 0.48793 0.0
H1171 H 0.77183 0.06651 0.49077 0.0
H1172 H 0.72793 0.08466 0.39895 0.0
H1173 H 0.76673 0.07789 0.4381 0.0
H1174 H 0.73764 0.15988 0.48031 0.0
H1175 H 0.6994 0.16711 0.44058 0.0
C1176 C 0.8185 0.13492 0.51976 0.0
C1177 C 0.82361 0.10667 0.53236 0.0
C1178 C 0.79638 0.1387 0.49713 0.0
C1179 C 0.77912 0.11424 0.48629 0.0
C1180 C 0.7847 0.08585 0.49853 0.0
C1181 C 0.80655 0.08214 0.52149 0.0
C1182 C 0.73005 0.10146 0.41635 0.0
C1183 C 0.71095 0.12672 0.41631 0.0
C1184 C 0.75209 0.09739 0.43902 0.0
C1185 C 0.75547 0.11842 0.46229 0.0
C1186 C 0.73608 0.14353 0.46243 0.0
C1187 C 0.71405 0.14762 0.43972 0.0
H1188 H 0.64663 0.96696 0.14086 0.0
H1189 H 0.55733 0.97294 0.18437 0.0
H1190 H 0.66493 0.00971 0.17025 0.0
H1191 H 0.57567 0.01449 0.21409 0.0
H1192 H 0.69743 0.05076 0.26036 0.0
H1193 H 0.67982 0.01877 0.22 0.0
H1194 H 0.59161 0.06401 0.21918 0.0
H1195 H 0.60908 0.09566 0.26066 0.0
C1196 C 0.63083 0.9775 0.15645 0.0
C1197 C 0.60065 0.96623 0.16044 0.0
C1198 C 0.64134 0.00192 0.17346 0.0
C1199 C 0.62191 0.01554 0.19488 0.0
C1200 C 0.5913 0.00503 0.19769 0.0
C1201 C 0.58083 0.9808 0.18074 0.0
C1202 C 0.67435 0.05422 0.25144 0.0
C1203 C 0.65451 0.07558 0.26415 0.0
C1204 C 0.6643 0.03592 0.22794 0.0
C1205 C 0.63409 0.0384 0.21639 0.0
C1206 C 0.61482 0.06097 0.2279 0.0
C1207 C 0.62489 0.07931 0.25157 0.0
H1208 H 0.6852 0.86999 0.04341 0.0
H1209 H 0.63013 0.91144 0.97467 0.0
H1210 H 0.72789 0.86424 0.00815 0.0
H1211 H 0.67252 0.90508 0.93865 0.0
H1212 H 0.76682 0.91482 0.89088 0.0
H1213 H 0.72383 0.92195 0.92565 0.0
H1214 H 0.7429 0.83637 0.96597 0.0
H1215 H 0.78629 0.82968 0.93177 0.0
C1216 C 0.68267 0.87854 0.0209 0.0
C1217 C 0.65483 0.89189 0.01213 0.0
C1218 C 0.70687 0.87479 0.00045 0.0
C1219 C 0.70389 0.88434 0.9705 0.0
C1220 C 0.67591 0.89787 0.96164 0.0
C1221 C 0.65156 0.90142 0.98221 0.0
C1222 C 0.76166 0.89741 0.907 0.0
C1223 C 0.77991 0.87159 0.90841 0.0
C1224 C 0.73691 0.90147 0.92691 0.0
C1225 C 0.72975 0.87977 0.94869 0.0
C1226 C 0.74791 0.85381 0.94984 0.0
C1227 C 0.77271 0.84983 0.93004 0.0
H1228 H 0.9659 0.83364 0.83523 0.0
H1229 H 0.98177 0.79678 0.92378 0.0
H1230 H 0.01004 0.80436 0.816 0.0
H1231 H 0.02537 0.76911 0.90489 0.0
H1232 H 0.12158 0.75394 0.87283 0.0
H1233 H 0.08015 0.79003 0.87859 0.0
H1234 H 0.02222 0.73874 0.81841 0.0
H1235 H 0.06351 0.70163 0.81317 0.0
C1236 C 0.9787 0.81955 0.85055 0.0
C1237 C 0.97007 0.81757 0.88103 0.0
C1238 C 0.00385 0.80287 0.83955 0.0
C1239 C 0.02104 0.78468 0.85911 0.0
C1240 C 0.01258 0.78308 0.88941 0.0
C1241 C 0.98737 0.79897 0.90015 0.0
C1242 C 0.10028 0.75046 0.86031 0.0
C1243 C 0.09562 0.72452 0.84303 0.0
C1244 C 0.07664 0.77129 0.86351 0.0
C1245 C 0.04799 0.767 0.84911 0.0
C1246 C 0.04411 0.74247 0.82977 0.0
C1247 C 0.06766 0.7212 0.82694 0.0
H1248 H 0.48256 0.68065 0.05132 0.0
H1249 H 0.47276 0.64825 0.1423 0.0
H1250 H 0.52439 0.71288 0.06676 0.0
H1251 H 0.516 0.68077 0.15805 0.0
H1252 H 0.56012 0.77655 0.17509 0.0
H1253 H 0.52633 0.73363 0.16534 0.0
H1254 H 0.57565 0.71655 0.08265 0.0
H1255 H 0.60808 0.75982 0.09162 0.0
C1256 C 0.48972 0.68002 0.07468 0.0
C1257 C 0.47407 0.66198 0.09561 0.0
C1258 C 0.51408 0.69846 0.08355 0.0
C1259 C 0.52378 0.69954 0.11371 0.0
C1260 C 0.50899 0.68064 0.13465 0.0
C1261 C 0.48444 0.66183 0.12562 0.0
C1262 C 0.56388 0.7634 0.15499 0.0
C1263 C 0.58668 0.77182 0.13403 0.0
C1264 C 0.54462 0.73865 0.14949 0.0
C1265 C 0.54773 0.72195 0.12285 0.0
C1266 C 0.57196 0.72931 0.10302 0.0
C1267 C 0.59091 0.75406 0.10835 0.0
H1268 H 0.02708 0.30119 0.56958 0.0
H1269 H 0.01078 0.33367 0.65964 0.0
H1270 H 0.98774 0.263 0.57653 0.0
H1271 H 0.97122 0.2949 0.66683 0.0
H1272 H 0.93486 0.19753 0.67865 0.0
H1273 H 0.96854 0.24116 0.6728 0.0
H1274 H 0.93417 0.25313 0.58228 0.0
H1275 H 0.90162 0.20916 0.58774 0.0
C1276 C 0.01484 0.30031 0.59082 0.0
C1277 C 0.022 0.32043 0.61406 0.0
C1278 C 0.99218 0.2784 0.59481 0.0
C1279 C 0.97646 0.27564 0.62235 0.0
C1280 C 0.98317 0.29618 0.64547 0.0
C1281 C 0.00561 0.31851 0.64128 0.0
C1282 C 0.93445 0.20961 0.65758 0.0
C1283 C 0.91558 0.19985 0.63366 0.0
C1284 C 0.95353 0.23477 0.6543 0.0
C1285 C 0.95417 0.25062 0.62701 0.0
C1286 C 0.93462 0.24125 0.60346 0.0
C1287 C 0.91563 0.21617 0.60672 0.0
H1288 H 0.01902 0.69924 0.92025 0.0
H1289 H 0.02035 0.65451 0.83391 0.0
H1290 H 0.97556 0.72863 0.90431 0.0
H1291 H 0.97632 0.68568 0.81752 0.0
H1292 H 0.92706 0.7896 0.81108 0.0
H1293 H 0.9674 0.75129 0.8151 0.0
H1294 H 0.91707 0.70996 0.88782 0.0
H1295 H 0.87669 0.74735 0.88349 0.0
C1296 C 0.01027 0.69565 0.89767 0.0
C1297 C 0.02332 0.67409 0.87846 0.0
C1298 C 0.98518 0.71267 0.88862 0.0
C1299 C 0.97256 0.70937 0.85982 0.0
C1300 C 0.98574 0.68853 0.83995 0.0
C1301 C 0.01085 0.67077 0.84931 0.0
C1302 C 0.92439 0.77197 0.82751 0.0
C1303 C 0.89897 0.77181 0.84731 0.0
C1304 C 0.94732 0.74995 0.82962 0.0
C1305 C 0.94537 0.72783 0.85188 0.0
C1306 C 0.91907 0.72676 0.87042 0.0
C1307 C 0.89603 0.74831 0.868 0.0
H1308 H 0.42431 0.28773 0.31158 0.0
H1309 H 0.39568 0.25836 0.39981 0.0
H1310 H 0.46791 0.25236 0.31326 0.0
H1311 H 0.439 0.224 0.40154 0.0
H1312 H 0.54415 0.21458 0.41187 0.0
H1313 H 0.5002 0.24514 0.39915 0.0
H1314 H 0.47674 0.18605 0.32593 0.0
H1315 H 0.52045 0.15345 0.33992 0.0
C1316 C 0.42714 0.27359 0.3311 0.0
C1317 C 0.40673 0.27593 0.35563 0.0
C1318 C 0.45181 0.25324 0.33191 0.0
C1319 C 0.4566 0.23551 0.35749 0.0
C1320 C 0.43566 0.23734 0.38151 0.0
C1321 C 0.41091 0.2571 0.3805 0.0
C1322 C 0.52996 0.20788 0.39286 0.0
C1323 C 0.53553 0.18106 0.37733 0.0
C1324 C 0.50489 0.22569 0.38548 0.0
C1325 C 0.48521 0.21797 0.36164 0.0
C1326 C 0.49178 0.19243 0.34441 0.0
C1327 C 0.51677 0.1739 0.35234 0.0
H1328 H 0.97479 0.14916 0.6416 0.0
H1329 H 0.97929 0.18509 0.55154 0.0
H1330 H 0.01722 0.18292 0.65686 0.0
H1331 H 0.02027 0.21835 0.56652 0.0
H1332 H 0.10432 0.26449 0.58799 0.0
H1333 H 0.07196 0.22144 0.57989 0.0
H1334 H 0.02694 0.23656 0.66526 0.0
H1335 H 0.06206 0.2788 0.67479 0.0
C1336 C 0.9851 0.16382 0.62501 0.0
C1337 C 0.97352 0.16453 0.59541 0.0
C1338 C 0.00916 0.18332 0.63379 0.0
C1339 C 0.02225 0.20339 0.61295 0.0
C1340 C 0.01127 0.20301 0.5832 0.0
C1341 C 0.98739 0.18395 0.57459 0.0
C1342 C 0.08852 0.25821 0.60572 0.0
C1343 C 0.08626 0.27501 0.63227 0.0
C1344 C 0.06939 0.23364 0.60077 0.0
C1345 C 0.04633 0.22578 0.62161 0.0
C1346 C 0.04458 0.24185 0.64879 0.0
C1347 C 0.06448 0.26623 0.65412 0.0
H1348 H 0.43563 0.70502 0.17233 0.0
H1349 H 0.40592 0.71416 0.07999 0.0
H1350 H 0.47204 0.74618 0.16567 0.0
H1351 H 0.44239 0.7554 0.07326 0.0
H1352 H 0.53877 0.79939 0.06341 0.0
H1353 H 0.4977 0.76241 0.06981 0.0
H1354 H 0.47712 0.79881 0.15753 0.0
H1355 H 0.51852 0.83544 0.15133 0.0
C1356 C 0.43673 0.71601 0.15068 0.0
C1357 C 0.41803 0.70634 0.12666 0.0
C1358 C 0.45754 0.73968 0.14686 0.0
C1359 C 0.46038 0.75392 0.11883 0.0
C1360 C 0.44111 0.74463 0.09501 0.0
C1361 C 0.42002 0.72118 0.09894 0.0
C1362 C 0.52532 0.79962 0.08396 0.0
C1363 C 0.53176 0.82047 0.10677 0.0
C1364 C 0.50168 0.77851 0.08759 0.0
C1365 C 0.48415 0.77759 0.11422 0.0
C1366 C 0.49038 0.79871 0.13687 0.0
C1367 C 0.51392 0.81991 0.13318 0.0
H1368 H 0.68355 0.42642 0.77178 0.0
H1369 H 0.58638 0.40281 0.76841 0.0
H1370 H 0.67553 0.46346 0.73262 0.0
H1371 H 0.5782 0.44021 0.72934 0.0
H1372 H 0.57286 0.53724 0.69271 0.0
H1373 H 0.57936 0.49558 0.72706 0.0
H1374 H 0.66156 0.46883 0.67902 0.0
H1375 H 0.65494 0.51041 0.64439 0.0
C1376 C 0.66052 0.42908 0.76262 0.0
C1377 C 0.63561 0.4118 0.77321 0.0
C1378 C 0.65592 0.45021 0.74006 0.0
C1379 C 0.62617 0.45492 0.72806 0.0
C1380 C 0.60133 0.43727 0.73835 0.0
C1381 C 0.60607 0.41572 0.76051 0.0
C1382 C 0.59197 0.52222 0.68906 0.0
C1383 C 0.61323 0.52708 0.66563 0.0
C1384 C 0.59569 0.49829 0.70878 0.0
C1385 C 0.62098 0.47893 0.70575 0.0
C1386 C 0.642 0.48353 0.68208 0.0
C1387 C 0.63809 0.50727 0.66216 0.0
H1388 H 0.84864 0.3441 0.02397 0.0
H1389 H 0.81205 0.43163 0.0423 0.0
H1390 H 0.80929 0.33702 0.98447 0.0
H1391 H 0.7725 0.42421 0.00447 0.0
H1392 H 0.73796 0.42324 0.90957 0.0
H1393 H 0.77265 0.42491 0.95213 0.0
H1394 H 0.75527 0.33141 0.96904 0.0
H1395 H 0.72061 0.3296 0.92495 0.0
C1396 C 0.83208 0.36165 0.01976 0.0
C1397 C 0.83406 0.38876 0.0356 0.0
C1398 C 0.80938 0.35754 -0.00266 0.0
C1399 C 0.78813 0.38037 0.99068 0.0
C1400 C 0.78915 0.40659 0.00802 0.0
C1401 C 0.81188 0.41082 0.02989 0.0
C1402 C 0.74123 0.40299 0.92242 0.0
C1403 C 0.72628 0.37634 0.91402 0.0
C1404 C 0.76101 0.404 0.94714 0.0
C1405 C 0.76646 0.3784 0.96452 0.0
C1406 C 0.75153 0.35156 0.95621 0.0
C1407 C 0.73143 0.35058 0.93123 0.0
H1408 H 0.82312 0.56095 0.27249 0.0
H1409 H 0.91926 0.58832 0.26966 0.0
H1410 H 0.83217 0.5255 0.23238 0.0
H1411 H 0.92841 0.55262 0.22896 0.0
H1412 H 0.93474 0.45504 0.19041 0.0
H1413 H 0.92932 0.49734 0.22426 0.0
H1414 H 0.84506 0.52258 0.17862 0.0
H1415 H 0.85084 0.48068 0.14419 0.0
C1416 C 0.84613 0.55965 0.26316 0.0
C1417 C 0.87042 0.57749 0.27432 0.0
C1418 C 0.8513 0.53941 0.23992 0.0
C1419 C 0.88099 0.5363 0.22743 0.0
C1420 C 0.90529 0.55446 0.23823 0.0
C1421 C 0.89999 0.57504 0.26132 0.0
C1422 C 0.91544 0.46992 0.18711 0.0
C1423 C 0.89327 0.46446 0.16453 0.0
C1424 C 0.91229 0.49417 0.20661 0.0
C1425 C 0.88656 0.51307 0.20434 0.0
C1426 C 0.86493 0.50817 0.18115 0.0
C1427 C 0.86834 0.48422 0.16137 0.0
H1428 H 0.75703 0.56394 0.40184 0.0
H1429 H 0.77861 0.65572 0.42335 0.0
H1430 H 0.72022 0.56195 0.44267 0.0
H1431 H 0.74134 0.65369 0.46509 0.0
H1432 H 0.68489 0.55343 0.53548 0.0
H1433 H 0.72266 0.56093 0.49612 0.0
H1434 H 0.68499 0.64809 0.47791 0.0
H1435 H 0.64717 0.64084 0.51866 0.0
C1436 C 0.754 0.58374 0.41548 0.0
C1437 C 0.77088 0.60995 0.40951 0.0
C1438 C 0.73296 0.58254 0.43908 0.0
C1439 C 0.72813 0.6075 0.45754 0.0
C1440 C 0.74462 0.63402 0.45138 0.0
C1441 C 0.76612 0.63515 0.42769 0.0
C1442 C 0.68443 0.57422 0.52311 0.0
C1443 C 0.66256 0.59628 0.52976 0.0
C1444 C 0.70616 0.57851 0.50044 0.0
C1445 C 0.70647 0.60485 0.4834 0.0
C1446 C 0.68527 0.6275 0.4906 0.0
C1447 C 0.66353 0.62329 0.51374 0.0
H1448 H 0.57129 0.46606 0.81818 0.0
H1449 H 0.66883 0.46451 0.83974 0.0
H1450 H 0.57988 0.50697 0.78375 0.0
H1451 H 0.67757 0.50665 0.80557 0.0
H1452 H 0.68094 0.54952 0.70966 0.0
H1453 H 0.67646 0.51478 0.75114 0.0
H1454 H 0.59354 0.55928 0.78108 0.0
H1455 H 0.59841 0.59471 0.73972 0.0
C1456 C 0.59464 0.47436 0.81548 0.0
C1457 C 0.61946 0.46162 0.83118 0.0
C1458 C 0.59951 0.4983 0.79609 0.0
C1459 C 0.6294 0.51016 0.7919 0.0
C1460 C 0.65426 0.49789 0.80819 0.0
C1461 C 0.64927 0.47395 0.82786 0.0
C1462 C 0.6622 0.55251 0.72547 0.0
C1463 C 0.64015 0.5751 0.72142 0.0
C1464 C 0.6596 0.53243 0.74929 0.0
C1465 C 0.63451 0.53404 0.76928 0.0
C1466 C 0.61294 0.55719 0.7658 0.0
C1467 C 0.61579 0.57756 0.74217 0.0
H1468 H 0.76506 0.31507 0.07353 0.0
H1469 H 0.74855 0.40975 0.07469 0.0
H1470 H 0.72345 0.30842 0.03671 0.0
H1471 H 0.70916 0.40393 0.03623 0.0
H1472 H 0.62238 0.38982 0.98739 0.0
H1473 H 0.6594 0.38966 0.0285 0.0
H1474 H 0.70428 0.31281 0.98938 0.0
H1475 H 0.6662 0.31222 0.94925 0.0
C1476 C 0.75294 0.3345 0.06529 0.0
C1477 C 0.75966 0.36285 0.07704 0.0
C1478 C 0.72906 0.33079 0.04414 0.0
C1479 C 0.71205 0.35553 0.0338 0.0
C1480 C 0.72038 0.38406 0.04452 0.0
C1481 C 0.7434 0.38756 0.06626 0.0
C1482 C 0.63988 0.37262 0.98787 0.0
C1483 C 0.64179 0.35148 0.96468 0.0
C1484 C 0.66153 0.37275 0.01125 0.0
C1485 C 0.68606 0.35213 0.0117 0.0
C1486 C 0.68621 0.32939 0.98983 0.0
C1487 C 0.66427 0.32904 0.96664 0.0
H1488 H 0.83086 0.51194 0.33284 0.0
H1489 H 0.92827 0.51634 0.31086 0.0
H1490 H 0.82367 0.47223 0.29575 0.0
H1491 H 0.92121 0.47664 0.27417 0.0
H1492 H 0.90176 0.38951 0.22481 0.0
H1493 H 0.9081 0.42363 0.26733 0.0
H1494 H 0.82515 0.47002 0.24045 0.0
H1495 H 0.81894 0.43632 0.19811 0.0
C1496 C 0.85082 0.50415 0.3204 0.0
C1497 C 0.88011 0.5174 0.32464 0.0
C1498 C 0.84666 0.48159 0.29903 0.0
C1499 C 0.87182 0.47151 0.28181 0.0
C1500 C 0.90135 0.48392 0.28701 0.0
C1501 C 0.90538 0.50683 0.30798 0.0
C1502 C 0.88468 0.40679 0.22821 0.0
C1503 C 0.85961 0.40993 0.20825 0.0
C1504 C 0.88841 0.4264 0.25246 0.0
C1505 C 0.86703 0.44942 0.25733 0.0
C1506 C 0.8417 0.45219 0.23766 0.0
C1507 C 0.83812 0.43278 0.21334 0.0
H1508 H 0.81279 0.55061 0.46747 0.0
H1509 H 0.84338 0.64236 0.46058 0.0
H1510 H 0.78019 0.5636 0.50982 0.0
H1511 H 0.80992 0.65539 0.50343 0.0
H1512 H 0.7661 0.58707 0.60699 0.0
H1513 H 0.79906 0.58352 0.56335 0.0
H1514 H 0.74561 0.65121 0.51865 0.0
H1515 H 0.71103 0.65428 0.56259 0.0
C1516 C 0.81261 0.57361 0.47495 0.0
C1517 C 0.83114 0.59534 0.46085 0.0
C1518 C 0.79377 0.58103 0.49917 0.0
C1519 C 0.79264 0.61044 0.5099 0.0
C1520 C 0.81038 0.63256 0.49547 0.0
C1521 C 0.82966 0.62503 0.47118 0.0
C1522 C 0.76112 0.60147 0.58808 0.0
C1523 C 0.73544 0.62071 0.58827 0.0
C1524 C 0.78019 0.59936 0.56303 0.0
C1525 C 0.77456 0.61667 0.53748 0.0
C1526 C 0.75019 0.63736 0.53801 0.0
C1527 C 0.73043 0.63908 0.56311 0.0
H1528 H 0.5003 0.6584 0.66518 0.0
H1529 H 0.53237 0.67201 0.57419 0.0
H1530 H 0.46439 0.69926 0.65973 0.0
H1531 H 0.49608 0.71368 0.56873 0.0
H1532 H 0.40014 0.76438 0.56545 0.0
H1533 H 0.439 0.72462 0.56664 0.0
H1534 H 0.46677 0.75273 0.65573 0.0
H1535 H 0.42792 0.79135 0.65498 0.0
C1536 C 0.49978 0.67027 0.64398 0.0
C1537 C 0.51921 0.66199 0.62012 0.0
C1538 C 0.47927 0.69386 0.64091 0.0
C1539 C 0.47749 0.70989 0.61386 0.0
C1540 C 0.4968 0.70163 0.5898 0.0
C1541 C 0.51774 0.67801 0.593 0.0
C1542 C 0.41453 0.76192 0.58526 0.0
C1543 C 0.41042 0.7806 0.61035 0.0
C1544 C 0.4369 0.73933 0.58586 0.0
C1545 C 0.45554 0.73518 0.61152 0.0
C1546 C 0.45215 0.7547 0.636 0.0
C1547 C 0.42983 0.77694 0.6355 0.0
H1548 H 0.32778 0.56466 0.21141 0.0
H1549 H 0.42726 0.57689 0.2128 0.0
H1550 H 0.3319 0.52959 0.25323 0.0
H1551 H 0.43133 0.54216 0.25443 0.0
H1552 H 0.42979 0.45405 0.30703 0.0
H1553 H 0.4261 0.48969 0.26567 0.0
H1554 H 0.34424 0.52754 0.30607 0.0
H1555 H 0.34777 0.49199 0.34704 0.0
C1556 C 0.35046 0.55994 0.22067 0.0
C1557 C 0.37714 0.57353 0.20873 0.0
C1558 C 0.35287 0.53989 0.24467 0.0
C1559 C 0.38201 0.53287 0.25708 0.0
C1560 C 0.4086 0.54665 0.24516 0.0
C1561 C 0.40619 0.56672 0.22133 0.0
C1562 C 0.41115 0.47012 0.30712 0.0
C1563 C 0.38915 0.4702 0.33035 0.0
C1564 C 0.40906 0.49063 0.28349 0.0
C1565 C 0.38473 0.51141 0.28244 0.0
C1566 C 0.36295 0.51157 0.30587 0.0
C1567 C 0.36519 0.49131 0.32954 0.0
H1568 H 0.25809 0.67954 0.06096 0.0
H1569 H 0.27337 0.58748 0.08507 0.0
H1570 H 0.2163 0.66499 0.02848 0.0
H1571 H 0.22966 0.57257 0.05245 0.0
H1572 H 0.18221 0.5639 0.95532 0.0
H1573 H 0.21694 0.56985 -0.00147 0.0
H1574 H 0.16558 0.6474 0.02649 0.0
H1575 H 0.13279 0.64271 0.98291 0.0
C1576 C 0.25213 0.65605 0.05979 0.0
C1577 C 0.26937 0.63466 0.07552 0.0
C1578 C 0.2277 0.64767 0.04123 0.0
C1579 C 0.21922 0.61756 0.0379 0.0
C1580 C 0.23562 0.59598 0.05446 0.0
C1581 C 0.26042 0.6045 0.07334 0.0
C1582 C 0.17819 0.58202 0.97093 0.0
C1583 C 0.15484 0.60309 0.96527 0.0
C1584 C 0.19798 0.58529 -0.00415 0.0
C1585 C 0.19464 0.60959 0.01561 0.0
C1586 C 0.16956 0.62896 0.01124 0.0
C1587 C 0.15036 0.62609 0.98619 0.0
H1588 H 0.06988 0.5341 0.80871 0.0
H1589 H 0.16603 0.51919 0.83089 0.0
H1590 H 0.07292 0.49609 0.76957 0.0
H1591 H 0.16869 0.48016 0.79357 0.0
H1592 H 0.17514 0.42669 0.70797 0.0
H1593 H 0.172 0.46712 0.74446 0.0
H1594 H 0.07482 0.44674 0.75832 0.0
H1595 H 0.07769 0.40797 0.72061 0.0
C1596 C 0.09153 0.52242 0.80552 0.0
C1597 C 0.11767 0.52981 0.82293 0.0
C1598 C 0.09331 0.50035 0.78318 0.0
C1599 C 0.12113 0.48468 0.77806 0.0
C1600 C 0.14705 0.49198 0.79594 0.0
C1601 C 0.1454 0.51429 0.8178 0.0
C1602 C 0.15318 0.43087 0.71893 0.0
C1603 C 0.12673 0.41404 0.71132 0.0
C1604 C 0.15132 0.45399 0.74012 0.0
C1605 C 0.1231 0.46051 0.75475 0.0
C1606 C 0.09683 0.44322 0.74728 0.0
C1607 C 0.09858 0.42054 0.72578 0.0
H1608 H 0.22256 0.40082 0.57951 0.0
H1609 H 0.23783 0.30795 0.55842 0.0
H1610 H 0.26566 0.41451 0.5457 0.0
H1611 H 0.27887 0.32125 0.52491 0.0
H1612 H 0.36271 0.34296 0.47755 0.0
H1613 H 0.32939 0.33829 0.521 0.0
H1614 H 0.27768 0.41537 0.49217 0.0
H1615 H 0.31287 0.42139 0.44964 0.0
C1616 C 0.23526 0.38341 0.5681 0.0
C1617 C 0.22653 0.35336 0.57157 0.0
C1618 C 0.25974 0.39119 0.54858 0.0
C1619 C 0.27601 0.36897 0.53265 0.0
C1620 C 0.26762 0.33905 0.53713 0.0
C1621 C 0.24353 0.33141 0.55625 0.0
C1622 C 0.3448 0.35935 0.4807 0.0
C1623 C 0.34041 0.38236 0.45986 0.0
C1624 C 0.32538 0.35656 0.50561 0.0
C1625 C 0.30032 0.3761 0.50988 0.0
C1626 C 0.29684 0.40006 0.48986 0.0
C1627 C 0.31685 0.40329 0.46524 0.0
H1628 H 0.30757 0.45137 0.274 0.0
H1629 H 0.3934 0.40223 0.26946 0.0
H1630 H 0.32229 0.47939 0.23006 0.0
H1631 H 0.40851 0.43142 0.22479 0.0
H1632 H 0.42535 0.52552 0.16849 0.0
H1633 H 0.4199 0.48837 0.20897 0.0
H1634 H 0.32872 0.46523 0.17585 0.0
H1635 H 0.33386 0.50187 0.13624 0.0
C1636 C 0.32968 0.44644 0.26366 0.0
C1637 C 0.34907 0.42412 0.27518 0.0
C1638 C 0.33811 0.46261 0.23832 0.0
C1639 C 0.36636 0.45737 0.22372 0.0
C1640 C 0.38649 0.43579 0.23555 0.0
C1641 C 0.3778 0.41911 0.26104 0.0
C1642 C 0.4045 0.51196 0.16957 0.0
C1643 C 0.37967 0.51723 0.14975 0.0
C1644 C 0.40142 0.4907 0.19266 0.0
C1645 C 0.37352 0.47455 0.19601 0.0
C1646 C 0.35015 0.47791 0.17432 0.0
C1647 C 0.35313 0.49899 0.15161 0.0
H1648 H 0.3328 0.65606 0.02267 0.0
H1649 H 0.3101 0.56217 0.02607 0.0
H1650 H 0.29543 0.66267 0.98206 0.0
H1651 H 0.27258 0.56875 0.98572 0.0
H1652 H 0.22655 0.58515 0.89569 0.0
H1653 H 0.26726 0.57942 0.93319 0.0
H1654 H 0.24009 0.66244 0.97461 0.0
H1655 H 0.19993 0.66856 0.9366 0.0
C1656 C 0.32002 0.63679 0.01456 0.0
C1657 C 0.32438 0.6086 0.02755 0.0
C1658 C 0.29837 0.64062 0.99149 0.0
C1659 C 0.28085 0.61628 0.9807 0.0
C1660 C 0.28581 0.58796 0.99328 0.0
C1661 C 0.30724 0.58419 0.01652 0.0
C1662 C 0.22953 0.60239 0.91253 0.0
C1663 C 0.21022 0.62748 0.91294 0.0
C1664 C 0.25269 0.59895 0.93424 0.0
C1665 C 0.257 0.62048 0.95692 0.0
C1666 C 0.23776 0.64566 0.9572 0.0
C1667 C 0.2146 0.6491 0.93549 0.0
H1668 H 0.04852 0.48914 0.662 0.0
H1669 H 0.14196 0.45608 0.65659 0.0
H1670 H 0.06667 0.53239 0.68951 0.0
H1671 H 0.16013 0.49729 0.68695 0.0
H1672 H 0.19168 0.57136 0.74414 0.0
H1673 H 0.17421 0.54154 0.70194 0.0
H1674 H 0.07949 0.54984 0.73348 0.0
H1675 H 0.09719 0.58227 0.77336 0.0
C1676 C 0.07305 0.49109 0.667 0.0
C1677 C 0.09374 0.46888 0.65778 0.0
C1678 C 0.08358 0.51583 0.68329 0.0
C1679 C 0.11496 0.51846 0.69198 0.0
C1680 C 0.13585 0.49688 0.68099 0.0
C1681 C 0.12542 0.47275 0.66365 0.0
C1682 C 0.16704 0.56717 0.74151 0.0
C1683 C 0.14581 0.57867 0.76232 0.0
C1684 C 0.15689 0.54957 0.71744 0.0
C1685 C 0.12528 0.54186 0.71422 0.0
C1686 C 0.10397 0.55504 0.7343 0.0
C1687 C 0.11409 0.57363 0.75766 0.0
H1688 H 0.16975 0.4131 0.53203 0.0
H1689 H 0.15267 0.31907 0.51767 0.0
H1690 H 0.21017 0.41203 0.49332 0.0
H1691 H 0.19203 0.3182 0.47898 0.0
H1692 H 0.28765 0.31792 0.43733 0.0
H1693 H 0.24703 0.32086 0.47494 0.0
H1694 H 0.21859 0.40592 0.43915 0.0
H1695 H 0.25974 0.40312 0.40153 0.0
C1696 C 0.17439 0.39233 0.52047 0.0
C1697 C 0.15801 0.36619 0.52802 0.0
C1698 C 0.1974 0.39173 0.49819 0.0
C1699 C 0.20445 0.36498 0.48311 0.0
C1700 C 0.18767 0.33907 0.49046 0.0
C1701 C 0.16484 0.33965 0.51259 0.0
C1702 C 0.2726 0.33715 0.43726 0.0
C1703 C 0.27673 0.36011 0.41618 0.0
C1704 C 0.24923 0.33884 0.45885 0.0
C1705 C 0.22945 0.36362 0.46009 0.0
C1706 C 0.23358 0.38665 0.43901 0.0
C1707 C 0.25693 0.38488 0.41723 0.0
H1708 H 0.46903 0.32846 0.32805 0.0
H1709 H 0.50201 0.31869 0.41921 0.0
H1710 H 0.5135 0.29909 0.31 0.0
H1711 H 0.54613 0.29073 0.40144 0.0
H1712 H 0.63261 0.25677 0.36629 0.0
H1713 H 0.59407 0.2957 0.37068 0.0
H1714 H 0.53001 0.24341 0.31738 0.0
H1715 H 0.56873 0.20376 0.31321 0.0
C1716 C 0.486 0.32056 0.34409 0.0
C1717 C 0.48177 0.32541 0.37507 0.0
C1718 C 0.51134 0.30375 0.3338 0.0
C1719 C 0.53333 0.29261 0.3543 0.0
C1720 C 0.52987 0.29921 0.38498 0.0
C1721 C 0.50434 0.31503 0.39523 0.0
C1722 C 0.61052 0.25357 0.35506 0.0
C1723 C 0.60348 0.22671 0.34008 0.0
C1724 C 0.58843 0.27601 0.35756 0.0
C1725 C 0.55876 0.27234 0.34497 0.0
C1726 C 0.55262 0.24677 0.32751 0.0
C1727 C 0.57471 0.22399 0.3253 0.0
loop_
_geom_bond_atom_site_label_1
_geom_bond_atom_site_label_2
_geom_bond_distance
_geom_bond_site_symmetry_2
_ccdc_geom_bond_type
Mg0 O1 2.028 . S
Mg0 O7 1.986 . S
Mg0 O9 2.114 . S
Mg0 O10 2.251 . S
Mg0 O13 2.010 . S
O1 Mg0 2.028 . S
O1 C4 1.250 . S
O2 Mg3 2.028 . S
O2 C4 1.248 . S
Mg3 O2 2.028 . S
Mg3 O8 2.032 . S
Mg3 O10 2.079 . S
C4 O1 1.250 . S
C4 O2 1.248 . S
C5 O6 1.264 . S
C5 O13 1.249 . S
O6 C5 1.264 . S
O7 Mg0 1.986 . S
O7 C11 1.246 . S
O8 Mg3 2.032 . S
O8 C11 1.259 . S
O9 Mg0 2.114 . S
O9 C12 1.252 . S
O10 Mg0 2.251 . S
O10 Mg3 2.079 . S
O10 C12 1.273 . S
C11 O7 1.246 . S
C11 O8 1.259 . S
C12 O9 1.252 . S
C12 O10 1.273 . S
O13 Mg0 2.010 . S
O13 C5 1.249 . S
Mg14 O15 2.028 . S
Mg14 O21 1.986 . S
Mg14 O23 2.114 . S
Mg14 O24 2.251 . S
Mg14 O27 2.010 . S
O15 Mg14 2.028 . S
O15 C18 1.250 . S
O16 Mg17 2.028 . S
O16 C18 1.248 . S
Mg17 O16 2.028 . S
Mg17 O22 2.032 . S
Mg17 O24 2.079 . S
C18 O15 1.250 . S
C18 O16 1.248 . S
C19 O20 1.264 . S
C19 O27 1.249 . S
O20 C19 1.264 . S
O21 Mg14 1.986 . S
O21 C25 1.246 . S
O22 Mg17 2.032 . S
O22 C25 1.259 . S
O23 Mg14 2.114 . S
O23 C26 1.252 . S
O24 Mg14 2.251 . S
O24 Mg17 2.079 . S
O24 C26 1.273 . S
C25 O21 1.246 . S
C25 O22 1.259 . S
C26 O23 1.252 . S
C26 O24 1.273 . S
O27 Mg14 2.010 . S
O27 C19 1.249 . S
Mg28 O29 2.028 . S
Mg28 O35 1.986 . S
Mg28 O37 2.114 . S
Mg28 O38 2.251 . S
Mg28 O41 2.010 . S
O29 Mg28 2.028 . S
O29 C32 1.250 . S
O30 Mg31 2.028 . S
O30 C32 1.248 . S
Mg31 O30 2.028 . S
Mg31 O36 2.032 . S
Mg31 O38 2.079 . S
C32 O29 1.250 . S
C32 O30 1.248 . S
C33 O34 1.264 . S
C33 O41 1.249 . S
O34 C33 1.264 . S
O35 Mg28 1.986 . S
O35 C39 1.246 . S
O36 Mg31 2.032 . S
O36 C39 1.259 . S
O37 Mg28 2.114 . S
O37 C40 1.252 . S
O38 Mg28 2.251 . S
O38 Mg31 2.079 . S
O38 C40 1.273 . S
C39 O35 1.246 . S
C39 O36 1.259 . S
C40 O37 1.252 . S
C40 O38 1.273 . S
O41 Mg28 2.010 . S
O41 C33 1.249 . S
Mg42 O43 2.028 . S
Mg42 O49 1.986 . S
Mg42 O51 2.114 . S
Mg42 O52 2.251 . S
Mg42 O55 2.010 . S
O43 Mg42 2.028 . S
O43 C46 1.250 . S
O44 Mg45 2.028 . S
O44 C46 1.248 . S
Mg45 O44 2.028 . S
Mg45 O50 2.032 . S
Mg45 O52 2.079 . S
C46 O43 1.250 . S
C46 O44 1.248 . S
C47 O48 1.264 . S
C47 O55 1.249 . S
O48 C47 1.264 . S
O49 Mg42 1.986 . S
O49 C53 1.246 . S
O50 Mg45 2.032 . S
O50 C53 1.259 . S
O51 Mg42 2.114 . S
O51 C54 1.252 . S
O52 Mg42 2.251 . S
O52 Mg45 2.079 . S
O52 C54 1.273 . S
C53 O49 1.246 . S
C53 O50 1.259 . S
C54 O51 1.252 . S
C54 O52 1.273 . S
O55 Mg42 2.010 . S
O55 C47 1.249 . S
Mg56 O57 2.028 . S
Mg56 O63 1.986 . S
Mg56 O65 2.114 . S
Mg56 O66 2.251 . S
Mg56 O69 2.010 . S
O57 Mg56 2.028 . S
O57 C60 1.250 . S
O58 Mg59 2.028 . S
O58 C60 1.248 . S
Mg59 O58 2.028 . S
Mg59 O64 2.032 . S
Mg59 O66 2.079 . S
C60 O57 1.250 . S
C60 O58 1.248 . S
C61 O62 1.264 . S
C61 O69 1.249 . S
O62 C61 1.264 . S
O63 Mg56 1.986 . S
O63 C67 1.246 . S
O64 Mg59 2.032 . S
O64 C67 1.259 . S
O65 Mg56 2.114 . S
O65 C68 1.252 . S
O66 Mg56 2.251 . S
O66 Mg59 2.079 . S
O66 C68 1.273 . S
C67 O63 1.246 . S
C67 O64 1.259 . S
C68 O65 1.252 . S
C68 O66 1.273 . S
O69 Mg56 2.010 . S
O69 C61 1.249 . S
Mg70 O71 2.028 . S
Mg70 O77 1.986 . S
Mg70 O79 2.114 . S
Mg70 O80 2.251 . S
Mg70 O83 2.010 . S
O71 Mg70 2.028 . S
O71 C74 1.250 . S
O72 Mg73 2.028 . S
O72 C74 1.248 . S
Mg73 O72 2.028 . S
Mg73 O78 2.032 . S
Mg73 O80 2.079 . S
C74 O71 1.250 . S
C74 O72 1.248 . S
C75 O76 1.264 . S
C75 O83 1.249 . S
O76 C75 1.264 . S
O77 Mg70 1.986 . S
O77 C81 1.246 . S
O78 Mg73 2.032 . S
O78 C81 1.259 . S
O79 Mg70 2.114 . S
O79 C82 1.252 . S
O80 Mg70 2.251 . S
O80 Mg73 2.079 . S
O80 C82 1.273 . S
C81 O77 1.246 . S
C81 O78 1.259 . S
C82 O79 1.252 . S
C82 O80 1.273 . S
O83 Mg70 2.010 . S
O83 C75 1.249 . S
Mg84 O85 2.028 . S
Mg84 O91 1.986 . S
Mg84 O93 2.114 . S
Mg84 O94 2.251 . S
Mg84 O97 2.010 . S
O85 Mg84 2.028 . S
O85 C88 1.250 . S
O86 Mg87 2.028 . S
O86 C88 1.248 . S
Mg87 O86 2.028 . S
Mg87 O92 2.032 . S
Mg87 O94 2.079 . S
C88 O85 1.250 . S
C88 O86 1.248 . S
C89 O90 1.264 . S
C89 O97 1.249 . S
O90 C89 1.264 . S
O91 Mg84 1.986 . S
O91 C95 1.246 . S
O92 Mg87 2.032 . S
O92 C95 1.259 . S
O93 Mg84 2.114 . S
O93 C96 1.252 . S
O94 Mg84 2.251 . S
O94 Mg87 2.079 . S
O94 C96 1.273 . S
C95 O91 1.246 . S
C95 O92 1.259 . S
C96 O93 1.252 . S
C96 O94 1.273 . S
O97 Mg84 2.010 . S
O97 C89 1.249 . S
Mg98 O99 2.028 . S
Mg98 O105 1.986 . S
Mg98 O107 2.114 . S
Mg98 O108 2.251 . S
Mg98 O111 2.010 . S
O99 Mg98 2.028 . S
O99 C102 1.250 . S
O100 Mg101 2.028 . S
O100 C102 1.248 . S
Mg101 O100 2.028 . S
Mg101 O106 2.032 . S
Mg101 O108 2.079 . S
C102 O99 1.250 . S
C102 O100 1.248 . S
C103 O104 1.264 . S
C103 O111 1.249 . S
O104 C103 1.264 . S
O105 Mg98 1.986 . S
O105 C109 1.246 . S
O106 Mg101 2.032 . S
O106 C109 1.259 . S
O107 Mg98 2.114 . S
O107 C110 1.252 . S
O108 Mg98 2.251 . S
O108 Mg101 2.079 . S
O108 C110 1.273 . S
C109 O105 1.246 . S
C109 O106 1.259 . S
C110 O107 1.252 . S
C110 O108 1.273 . S
O111 Mg98 2.010 . S
O111 C103 1.249 . S
Mg112 O113 2.028 . S
Mg112 O119 1.986 . S
Mg112 O121 2.114 . S
Mg112 O122 2.251 . S
Mg112 O125 2.010 . S
O113 Mg112 2.028 . S
O113 C116 1.250 . S
O114 Mg115 2.028 . S
O114 C116 1.248 . S
Mg115 O114 2.028 . S
Mg115 O120 2.032 . S
Mg115 O122 2.079 . S
C116 O113 1.250 . S
C116 O114 1.248 . S
C117 O118 1.264 . S
C117 O125 1.249 . S
O118 C117 1.264 . S
O119 Mg112 1.986 . S
O119 C123 1.246 . S
O120 Mg115 2.032 . S
O120 C123 1.259 . S
O121 Mg112 2.114 . S
O121 C124 1.252 . S
O122 Mg112 2.251 . S
O122 Mg115 2.079 . S
O122 C124 1.273 . S
C123 O119 1.246 . S
C123 O120 1.259 . S
C124 O121 1.252 . S
C124 O122 1.273 . S
O125 Mg112 2.010 . S
O125 C117 1.249 . S
Mg126 O127 2.028 . S
Mg126 O133 1.986 . S
Mg126 O135 2.114 . S
Mg126 O136 2.251 . S
Mg126 O139 2.010 . S
O127 Mg126 2.028 . S
O127 C130 1.250 . S
O128 Mg129 2.028 . S
O128 C130 1.248 . S
Mg129 O128 2.028 . S
Mg129 O134 2.032 . S
Mg129 O136 2.079 . S
C130 O127 1.250 . S
C130 O128 1.248 . S
C131 O132 1.264 . S
C131 O139 1.249 . S
O132 C131 1.264 . S
O133 Mg126 1.986 . S
O133 C137 1.246 . S
O134 Mg129 2.032 . S
O134 C137 1.259 . S
O135 Mg126 2.114 . S
O135 C138 1.252 . S
O136 Mg126 2.251 . S
O136 Mg129 2.079 . S
O136 C138 1.273 . S
C137 O133 1.246 . S
C137 O134 1.259 . S
C138 O135 1.252 . S
C138 O136 1.273 . S
O139 Mg126 2.010 . S
O139 C131 1.249 . S
Mg140 O141 2.028 . S
Mg140 O147 1.986 . S
Mg140 O149 2.114 . S
Mg140 O150 2.251 . S
Mg140 O153 2.010 . S
O141 Mg140 2.028 . S
O141 C144 1.250 . S
O142 Mg143 2.028 . S
O142 C144 1.248 . S
Mg143 O142 2.028 . S
Mg143 O148 2.032 . S
Mg143 O150 2.079 . S
C144 O141 1.250 . S
C144 O142 1.248 . S
C145 O146 1.264 . S
C145 O153 1.249 . S
O146 C145 1.264 . S
O147 Mg140 1.986 . S
O147 C151 1.246 . S
O148 Mg143 2.032 . S
O148 C151 1.259 . S
O149 Mg140 2.114 . S
O149 C152 1.252 . S
O150 Mg140 2.251 . S
O150 Mg143 2.079 . S
O150 C152 1.273 . S
C151 O147 1.246 . S
C151 O148 1.259 . S
C152 O149 1.252 . S
C152 O150 1.273 . S
O153 Mg140 2.010 . S
O153 C145 1.249 . S
Mg154 O155 2.028 . S
Mg154 O161 1.986 . S
Mg154 O163 2.114 . S
Mg154 O164 2.251 . S
Mg154 O167 2.010 . S
O155 Mg154 2.028 . S
O155 C158 1.250 . S
O156 Mg157 2.028 . S
O156 C158 1.248 . S
Mg157 O156 2.028 . S
Mg157 O162 2.032 . S
Mg157 O164 2.079 . S
C158 O155 1.250 . S
C158 O156 1.248 . S
C159 O160 1.264 . S
C159 O167 1.249 . S
O160 C159 1.264 . S
O161 Mg154 1.986 . S
O161 C165 1.246 . S
O162 Mg157 2.032 . S
O162 C165 1.259 . S
O163 Mg154 2.114 . S
O163 C166 1.252 . S
O164 Mg154 2.251 . S
O164 Mg157 2.079 . S
O164 C166 1.273 . S
C165 O161 1.246 . S
C165 O162 1.259 . S
C166 O163 1.252 . S
C166 O164 1.273 . S
O167 Mg154 2.010 . S
O167 C159 1.249 . S
Mg168 O169 2.028 . S
Mg168 O175 1.986 . S
Mg168 O177 2.114 . S
Mg168 O178 2.251 . S
Mg168 O181 2.010 . S
O169 Mg168 2.028 . S
O169 C172 1.250 . S
O170 Mg171 2.028 . S
O170 C172 1.248 . S
Mg171 O170 2.028 . S
Mg171 O176 2.032 . S
Mg171 O178 2.079 . S
C172 O169 1.250 . S
C172 O170 1.248 . S
C173 O174 1.264 . S
C173 O181 1.249 . S
O174 C173 1.264 . S
O175 Mg168 1.986 . S
O175 C179 1.246 . S
O176 Mg171 2.032 . S
O176 C179 1.259 . S
O177 Mg168 2.114 . S
O177 C180 1.252 . S
O178 Mg168 2.251 . S
O178 Mg171 2.079 . S
O178 C180 1.273 . S
C179 O175 1.246 . S
C179 O176 1.259 . S
C180 O177 1.252 . S
C180 O178 1.273 . S
O181 Mg168 2.010 . S
O181 C173 1.249 . S
Mg182 O183 2.028 . S
Mg182 O189 1.986 . S
Mg182 O191 2.114 . S
Mg182 O192 2.251 . S
Mg182 O195 2.010 . S
O183 Mg182 2.028 . S
O183 C186 1.250 . S
O184 Mg185 2.028 . S
O184 C186 1.248 . S
Mg185 O184 2.028 . S
Mg185 O190 2.032 . S
Mg185 O192 2.079 . S
C186 O183 1.250 . S
C186 O184 1.248 . S
C187 O188 1.264 . S
C187 O195 1.249 . S
O188 C187 1.264 . S
O189 Mg182 1.986 . S
O189 C193 1.246 . S
O190 Mg185 2.032 . S
O190 C193 1.259 . S
O191 Mg182 2.114 . S
O191 C194 1.252 . S
O192 Mg182 2.251 . S
O192 Mg185 2.079 . S
O192 C194 1.273 . S
C193 O189 1.246 . S
C193 O190 1.259 . S
C194 O191 1.252 . S
C194 O192 1.273 . S
O195 Mg182 2.010 . S
O195 C187 1.249 . S
Mg196 O197 2.028 . S
Mg196 O203 1.986 . S
Mg196 O205 2.114 . S
Mg196 O206 2.251 . S
Mg196 O209 2.010 . S
O197 Mg196 2.028 . S
O197 C200 1.250 . S
O198 Mg199 2.028 . S
O198 C200 1.248 . S
Mg199 O198 2.028 . S
Mg199 O204 2.032 . S
Mg199 O206 2.079 . S
C200 O197 1.250 . S
C200 O198 1.248 . S
C201 O202 1.264 . S
C201 O209 1.249 . S
O202 C201 1.264 . S
O203 Mg196 1.986 . S
O203 C207 1.246 . S
O204 Mg199 2.032 . S
O204 C207 1.259 . S
O205 Mg196 2.114 . S
O205 C208 1.252 . S
O206 Mg196 2.251 . S
O206 Mg199 2.079 . S
O206 C208 1.273 . S
C207 O203 1.246 . S
C207 O204 1.259 . S
C208 O205 1.252 . S
C208 O206 1.273 . S
O209 Mg196 2.010 . S
O209 C201 1.249 . S
Mg210 O211 2.028 . S
Mg210 O217 1.986 . S
Mg210 O219 2.114 . S
Mg210 O220 2.251 . S
Mg210 O223 2.010 . S
O211 Mg210 2.028 . S
O211 C214 1.250 . S
O212 Mg213 2.028 . S
O212 C214 1.248 . S
Mg213 O212 2.028 . S
Mg213 O218 2.032 . S
Mg213 O220 2.079 . S
C214 O211 1.250 . S
C214 O212 1.248 . S
C215 O216 1.264 . S
C215 O223 1.249 . S
O216 C215 1.264 . S
O217 Mg210 1.986 . S
O217 C221 1.246 . S
O218 Mg213 2.032 . S
O218 C221 1.259 . S
O219 Mg210 2.114 . S
O219 C222 1.252 . S
O220 Mg210 2.251 . S
O220 Mg213 2.079 . S
O220 C222 1.273 . S
C221 O217 1.246 . S
C221 O218 1.259 . S
C222 O219 1.252 . S
C222 O220 1.273 . S
O223 Mg210 2.010 . S
O223 C215 1.249 . S
Mg224 O225 2.028 . S
Mg224 O231 1.986 . S
Mg224 O233 2.114 . S
Mg224 O234 2.251 . S
Mg224 O237 2.010 . S
O225 Mg224 2.028 . S
O225 C228 1.250 . S
O226 Mg227 2.028 . S
O226 C228 1.248 . S
Mg227 O226 2.028 . S
Mg227 O232 2.032 . S
Mg227 O234 2.079 . S
C228 O225 1.250 . S
C228 O226 1.248 . S
C229 O230 1.264 . S
C229 O237 1.249 . S
O230 C229 1.264 . S
O231 Mg224 1.986 . S
O231 C235 1.246 . S
O232 Mg227 2.032 . S
O232 C235 1.259 . S
O233 Mg224 2.114 . S
O233 C236 1.252 . S
O234 Mg224 2.251 . S
O234 Mg227 2.079 . S
O234 C236 1.273 . S
C235 O231 1.246 . S
C235 O232 1.259 . S
C236 O233 1.252 . S
C236 O234 1.273 . S
O237 Mg224 2.010 . S
O237 C229 1.249 . S
Mg238 O239 2.028 . S
Mg238 O245 1.986 . S
Mg238 O247 2.114 . S
Mg238 O248 2.251 . S
Mg238 O251 2.010 . S
O239 Mg238 2.028 . S
O239 C242 1.250 . S
O240 Mg241 2.028 . S
O240 C242 1.248 . S
Mg241 O240 2.028 . S
Mg241 O246 2.032 . S
Mg241 O248 2.079 . S
C242 O239 1.250 . S
C242 O240 1.248 . S
C243 O244 1.264 . S
C243 O251 1.249 . S
O244 C243 1.264 . S
O245 Mg238 1.986 . S
O245 C249 1.246 . S
O246 Mg241 2.032 . S
O246 C249 1.259 . S
O247 Mg238 2.114 . S
O247 C250 1.252 . S
O248 Mg238 2.251 . S
O248 Mg241 2.079 . S
O248 C250 1.273 . S
C249 O245 1.246 . S
C249 O246 1.259 . S
C250 O247 1.252 . S
C250 O248 1.273 . S
O251 Mg238 2.010 . S
O251 C243 1.249 . S
Mg252 O253 2.028 . S
Mg252 O259 1.986 . S
Mg252 O261 2.114 . S
Mg252 O262 2.251 . S
Mg252 O265 2.010 . S
O253 Mg252 2.028 . S
O253 C256 1.250 . S
O254 Mg255 2.028 . S
O254 C256 1.248 . S
Mg255 O254 2.028 . S
Mg255 O260 2.032 . S
Mg255 O262 2.079 . S
C256 O253 1.250 . S
C256 O254 1.248 . S
C257 O258 1.264 . S
C257 O265 1.249 . S
O258 C257 1.264 . S
O259 Mg252 1.986 . S
O259 C263 1.246 . S
O260 Mg255 2.032 . S
O260 C263 1.259 . S
O261 Mg252 2.114 . S
O261 C264 1.252 . S
O262 Mg252 2.251 . S
O262 Mg255 2.079 . S
O262 C264 1.273 . S
C263 O259 1.246 . S
C263 O260 1.259 . S
C264 O261 1.252 . S
C264 O262 1.273 . S
O265 Mg252 2.010 . S
O265 C257 1.249 . S
Mg266 O267 2.028 . S
Mg266 O273 1.986 . S
Mg266 O275 2.114 . S
Mg266 O276 2.251 . S
Mg266 O279 2.010 . S
O267 Mg266 2.028 . S
O267 C270 1.250 . S
O268 Mg269 2.028 . S
O268 C270 1.248 . S
Mg269 O268 2.028 . S
Mg269 O274 2.032 . S
Mg269 O276 2.079 . S
C270 O267 1.250 . S
C270 O268 1.248 . S
C271 O272 1.264 . S
C271 O279 1.249 . S
O272 C271 1.264 . S
O273 Mg266 1.986 . S
O273 C277 1.246 . S
O274 Mg269 2.032 . S
O274 C277 1.259 . S
O275 Mg266 2.114 . S
O275 C278 1.252 . S
O276 Mg266 2.251 . S
O276 Mg269 2.079 . S
O276 C278 1.273 . S
C277 O273 1.246 . S
C277 O274 1.259 . S
C278 O275 1.252 . S
C278 O276 1.273 . S
O279 Mg266 2.010 . S
O279 C271 1.249 . S
Mg280 O281 2.028 . S
Mg280 O287 1.986 . S
Mg280 O289 2.114 . S
Mg280 O290 2.251 . S
Mg280 O293 2.010 . S
O281 Mg280 2.028 . S
O281 C284 1.250 . S
O282 Mg283 2.028 . S
O282 C284 1.248 . S
Mg283 O282 2.028 . S
Mg283 O288 2.032 . S
Mg283 O290 2.079 . S
C284 O281 1.250 . S
C284 O282 1.248 . S
C285 O286 1.264 . S
C285 O293 1.249 . S
O286 C285 1.264 . S
O287 Mg280 1.986 . S
O287 C291 1.246 . S
O288 Mg283 2.032 . S
O288 C291 1.259 . S
O289 Mg280 2.114 . S
O289 C292 1.252 . S
O290 Mg280 2.251 . S
O290 Mg283 2.079 . S
O290 C292 1.273 . S
C291 O287 1.246 . S
C291 O288 1.259 . S
C292 O289 1.252 . S
C292 O290 1.273 . S
O293 Mg280 2.010 . S
O293 C285 1.249 . S
Mg294 O295 2.028 . S
Mg294 O301 1.986 . S
Mg294 O303 2.114 . S
Mg294 O304 2.251 . S
Mg294 O307 2.010 . S
O295 Mg294 2.028 . S
O295 C298 1.250 . S
O296 Mg297 2.028 . S
O296 C298 1.248 . S
Mg297 O296 2.028 . S
Mg297 O302 2.032 . S
Mg297 O304 2.079 . S
C298 O295 1.250 . S
C298 O296 1.248 . S
C299 O300 1.264 . S
C299 O307 1.249 . S
O300 C299 1.264 . S
O301 Mg294 1.986 . S
O301 C305 1.246 . S
O302 Mg297 2.032 . S
O302 C305 1.259 . S
O303 Mg294 2.114 . S
O303 C306 1.252 . S
O304 Mg294 2.251 . S
O304 Mg297 2.079 . S
O304 C306 1.273 . S
C305 O301 1.246 . S
C305 O302 1.259 . S
C306 O303 1.252 . S
C306 O304 1.273 . S
O307 Mg294 2.010 . S
O307 C299 1.249 . S
Mg308 O309 2.028 . S
Mg308 O315 1.986 . S
Mg308 O317 2.114 . S
Mg308 O318 2.251 . S
Mg308 O321 2.010 . S
O309 Mg308 2.028 . S
O309 C312 1.250 . S
O310 Mg311 2.028 . S
O310 C312 1.248 . S
Mg311 O310 2.028 . S
Mg311 O316 2.032 . S
Mg311 O318 2.079 . S
C312 O309 1.250 . S
C312 O310 1.248 . S
C313 O314 1.264 . S
C313 O321 1.249 . S
O314 C313 1.264 . S
O315 Mg308 1.986 . S
O315 C319 1.246 . S
O316 Mg311 2.032 . S
O316 C319 1.259 . S
O317 Mg308 2.114 . S
O317 C320 1.252 . S
O318 Mg308 2.251 . S
O318 Mg311 2.079 . S
O318 C320 1.273 . S
C319 O315 1.246 . S
C319 O316 1.259 . S
C320 O317 1.252 . S
C320 O318 1.273 . S
O321 Mg308 2.010 . S
O321 C313 1.249 . S
Mg322 O323 2.028 . S
Mg322 O329 1.986 . S
Mg322 O331 2.114 . S
Mg322 O332 2.251 . S
Mg322 O335 2.010 . S
O323 Mg322 2.028 . S
O323 C326 1.250 . S
O324 Mg325 2.028 . S
O324 C326 1.248 . S
Mg325 O324 2.028 . S
Mg325 O330 2.032 . S
Mg325 O332 2.079 . S
C326 O323 1.250 . S
C326 O324 1.248 . S
C327 O328 1.264 . S
C327 O335 1.249 . S
O328 C327 1.264 . S
O329 Mg322 1.986 . S
O329 C333 1.246 . S
O330 Mg325 2.032 . S
O330 C333 1.259 . S
O331 Mg322 2.114 . S
O331 C334 1.252 . S
O332 Mg322 2.251 . S
O332 Mg325 2.079 . S
O332 C334 1.273 . S
C333 O329 1.246 . S
C333 O330 1.259 . S
C334 O331 1.252 . S
C334 O332 1.273 . S
O335 Mg322 2.010 . S
O335 C327 1.249 . S
Mg336 O337 2.028 . S
Mg336 O343 1.986 . S
Mg336 O345 2.114 . S
Mg336 O346 2.251 . S
Mg336 O349 2.010 . S
O337 Mg336 2.028 . S
O337 C340 1.250 . S
O338 Mg339 2.028 . S
O338 C340 1.248 . S
Mg339 O338 2.028 . S
Mg339 O344 2.032 . S
Mg339 O346 2.079 . S
C340 O337 1.250 . S
C340 O338 1.248 . S
C341 O342 1.264 . S
C341 O349 1.249 . S
O342 C341 1.264 . S
O343 Mg336 1.986 . S
O343 C347 1.246 . S
O344 Mg339 2.032 . S
O344 C347 1.259 . S
O345 Mg336 2.114 . S
O345 C348 1.252 . S
O346 Mg336 2.251 . S
O346 Mg339 2.079 . S
O346 C348 1.273 . S
C347 O343 1.246 . S
C347 O344 1.259 . S
C348 O345 1.252 . S
C348 O346 1.273 . S
O349 Mg336 2.010 . S
O349 C341 1.249 . S
Mg350 O351 2.028 . S
Mg350 O357 1.986 . S
Mg350 O359 2.114 . S
Mg350 O360 2.251 . S
Mg350 O363 2.010 . S
O351 Mg350 2.028 . S
O351 C354 1.250 . S
O352 Mg353 2.028 . S
O352 C354 1.248 . S
Mg353 O352 2.028 . S
Mg353 O358 2.032 . S
Mg353 O360 2.079 . S
C354 O351 1.250 . S
C354 O352 1.248 . S
C355 O356 1.264 . S
C355 O363 1.249 . S
O356 C355 1.264 . S
O357 Mg350 1.986 . S
O357 C361 1.246 . S
O358 Mg353 2.032 . S
O358 C361 1.259 . S
O359 Mg350 2.114 . S
O359 C362 1.252 . S
O360 Mg350 2.251 . S
O360 Mg353 2.079 . S
O360 C362 1.273 . S
C361 O357 1.246 . S
C361 O358 1.259 . S
C362 O359 1.252 . S
C362 O360 1.273 . S
O363 Mg350 2.010 . S
O363 C355 1.249 . S
Mg364 O365 2.028 . S
Mg364 O371 1.986 . S
Mg364 O373 2.114 . S
Mg364 O374 2.251 . S
Mg364 O377 2.010 . S
O365 Mg364 2.028 . S
O365 C368 1.250 . S
O366 Mg367 2.028 . S
O366 C368 1.248 . S
Mg367 O366 2.028 . S
Mg367 O372 2.032 . S
Mg367 O374 2.079 . S
C368 O365 1.250 . S
C368 O366 1.248 . S
C369 O370 1.264 . S
C369 O377 1.249 . S
O370 C369 1.264 . S
O371 Mg364 1.986 . S
O371 C375 1.246 . S
O372 Mg367 2.032 . S
O372 C375 1.259 . S
O373 Mg364 2.114 . S
O373 C376 1.252 . S
O374 Mg364 2.251 . S
O374 Mg367 2.079 . S
O374 C376 1.273 . S
C375 O371 1.246 . S
C375 O372 1.259 . S
C376 O373 1.252 . S
C376 O374 1.273 . S
O377 Mg364 2.010 . S
O377 C369 1.249 . S
Mg378 O379 2.028 . S
Mg378 O385 1.986 . S
Mg378 O387 2.114 . S
Mg378 O388 2.251 . S
Mg378 O391 2.010 . S
O379 Mg378 2.028 . S
O379 C382 1.250 . S
O380 Mg381 2.028 . S
O380 C382 1.248 . S
Mg381 O380 2.028 . S
Mg381 O386 2.032 . S
Mg381 O388 2.079 . S
C382 O379 1.250 . S
C382 O380 1.248 . S
C383 O384 1.264 . S
C383 O391 1.249 . S
O384 C383 1.264 . S
O385 Mg378 1.986 . S
O385 C389 1.246 . S
O386 Mg381 2.032 . S
O386 C389 1.259 . S
O387 Mg378 2.114 . S
O387 C390 1.252 . S
O388 Mg378 2.251 . S
O388 Mg381 2.079 . S
O388 C390 1.273 . S
C389 O385 1.246 . S
C389 O386 1.259 . S
C390 O387 1.252 . S
C390 O388 1.273 . S
O391 Mg378 2.010 . S
O391 C383 1.249 . S
Mg392 O393 2.028 . S
Mg392 O399 1.986 . S
Mg392 O401 2.114 . S
Mg392 O402 2.251 . S
Mg392 O405 2.010 . S
O393 Mg392 2.028 . S
O393 C396 1.250 . S
O394 Mg395 2.028 . S
O394 C396 1.248 . S
Mg395 O394 2.028 . S
Mg395 O400 2.032 . S
Mg395 O402 2.079 . S
C396 O393 1.250 . S
C396 O394 1.248 . S
C397 O398 1.264 . S
C397 O405 1.249 . S
O398 C397 1.264 . S
O399 Mg392 1.986 . S
O399 C403 1.246 . S
O400 Mg395 2.032 . S
O400 C403 1.259 . S
O401 Mg392 2.114 . S
O401 C404 1.252 . S
O402 Mg392 2.251 . S
O402 Mg395 2.079 . S
O402 C404 1.273 . S
C403 O399 1.246 . S
C403 O400 1.259 . S
C404 O401 1.252 . S
C404 O402 1.273 . S
O405 Mg392 2.010 . S
O405 C397 1.249 . S
Mg406 O407 2.028 . S
Mg406 O413 1.986 . S
Mg406 O415 2.114 . S
Mg406 O416 2.251 . S
Mg406 O419 2.010 . S
O407 Mg406 2.028 . S
O407 C410 1.250 . S
O408 Mg409 2.028 . S
O408 C410 1.248 . S
Mg409 O408 2.028 . S
Mg409 O414 2.032 . S
Mg409 O416 2.079 . S
C410 O407 1.250 . S
C410 O408 1.248 . S
C411 O412 1.264 . S
C411 O419 1.249 . S
O412 C411 1.264 . S
O413 Mg406 1.986 . S
O413 C417 1.246 . S
O414 Mg409 2.032 . S
O414 C417 1.259 . S
O415 Mg406 2.114 . S
O415 C418 1.252 . S
O416 Mg406 2.251 . S
O416 Mg409 2.079 . S
O416 C418 1.273 . S
C417 O413 1.246 . S
C417 O414 1.259 . S
C418 O415 1.252 . S
C418 O416 1.273 . S
O419 Mg406 2.010 . S
O419 C411 1.249 . S
Mg420 O421 2.028 . S
Mg420 O427 1.986 . S
Mg420 O429 2.114 . S
Mg420 O430 2.251 . S
Mg420 O433 2.010 . S
O421 Mg420 2.028 . S
O421 C424 1.250 . S
O422 Mg423 2.028 . S
O422 C424 1.248 . S
Mg423 O422 2.028 . S
Mg423 O428 2.032 . S
Mg423 O430 2.079 . S
C424 O421 1.250 . S
C424 O422 1.248 . S
C425 O426 1.264 . S
C425 O433 1.249 . S
O426 C425 1.264 . S
O427 Mg420 1.986 . S
O427 C431 1.246 . S
O428 Mg423 2.032 . S
O428 C431 1.259 . S
O429 Mg420 2.114 . S
O429 C432 1.252 . S
O430 Mg420 2.251 . S
O430 Mg423 2.079 . S
O430 C432 1.273 . S
C431 O427 1.246 . S
C431 O428 1.259 . S
C432 O429 1.252 . S
C432 O430 1.273 . S
O433 Mg420 2.010 . S
O433 C425 1.249 . S
Mg434 O435 2.028 . S
Mg434 O441 1.986 . S
Mg434 O443 2.114 . S
Mg434 O444 2.251 . S
Mg434 O447 2.010 . S
O435 Mg434 2.028 . S
O435 C438 1.250 . S
O436 Mg437 2.028 . S
O436 C438 1.248 . S
Mg437 O436 2.028 . S
Mg437 O442 2.032 . S
Mg437 O444 2.079 . S
C438 O435 1.250 . S
C438 O436 1.248 . S
C439 O440 1.264 . S
C439 O447 1.249 . S
O440 C439 1.264 . S
O441 Mg434 1.986 . S
O441 C445 1.246 . S
O442 Mg437 2.032 . S
O442 C445 1.259 . S
O443 Mg434 2.114 . S
O443 C446 1.252 . S
O444 Mg434 2.251 . S
O444 Mg437 2.079 . S
O444 C446 1.273 . S
C445 O441 1.246 . S
C445 O442 1.259 . S
C446 O443 1.252 . S
C446 O444 1.273 . S
O447 Mg434 2.010 . S
O447 C439 1.249 . S
H448 C456 0.950 . S
H449 C461 0.950 . S
H450 C458 0.950 1_556 S
H451 C460 0.950 . S
H452 C462 0.950 . S
H453 C464 0.950 1_454 S
H454 C466 0.972 . S
H455 C467 0.950 . S
C456 H448 0.950 . S
C456 C457 1.386 . S
C456 C458 1.391 . S
C457 C456 1.386 . S
C457 C461 1.393 . S
C458 H450 0.950 1_554 S
C458 C456 1.391 . S
C458 C459 1.400 . S
C459 C458 1.400 . S
C459 C460 1.398 1_545 S
C459 C465 1.491 1_444 S
C460 H451 0.950 . S
C460 C459 1.398 1_565 S
C460 C461 1.391 1_565 S
C461 H449 0.950 . S
C461 C457 1.393 . S
C461 C460 1.391 1_545 S
C462 H452 0.950 . S
C462 C463 1.386 . S
C462 C464 1.391 . S
C463 C462 1.386 . S
C463 C467 1.393 . S
C464 H453 0.950 1_656 S
C464 C462 1.391 . S
C464 C465 1.400 . S
C465 C459 1.491 1_666 S
C465 C464 1.400 . S
C465 C466 1.389 1_565 S
C466 H454 0.972 . S
C466 C465 1.389 1_545 S
C466 C467 1.379 1_545 S
C467 H455 0.950 . S
C467 C463 1.393 . S
C467 C466 1.379 1_565 S
H468 C476 0.950 . S
H469 C481 0.950 . S
H470 C478 0.950 . S
H471 C480 0.950 . S
H472 C482 0.950 . S
H473 C484 0.950 . S
H474 C486 0.950 . S
H475 C487 0.950 . S
C476 H468 0.950 . S
C476 C477 1.386 . S
C476 C478 1.391 . S
C477 C476 1.386 . S
C477 C481 1.393 . S
C478 H470 0.950 . S
C478 C476 1.391 . S
C478 C479 1.400 . S
C479 C478 1.400 . S
C479 C480 1.398 . S
C479 C485 1.491 . S
C480 H471 0.950 . S
C480 C479 1.398 . S
C480 C481 1.391 . S
C481 H469 0.950 . S
C481 C477 1.393 . S
C481 C480 1.391 . S
C482 H472 0.950 . S
C482 C483 1.386 . S
C482 C484 1.391 . S
C483 C482 1.386 . S
C483 C487 1.393 . S
C484 H473 0.950 . S
C484 C482 1.391 . S
C484 C485 1.400 . S
C485 C479 1.491 . S
C485 C484 1.400 . S
C485 C486 1.398 . S
C486 H474 0.950 . S
C486 C485 1.398 . S
C486 C487 1.391 . S
C487 H475 0.950 . S
C487 C483 1.393 . S
C487 C486 1.391 . S
H488 C496 0.950 . S
H489 C501 0.950 . S
H490 C498 0.950 . S
H491 C500 0.950 . S
H492 C502 0.950 . S
H493 C504 0.950 1_565 S
H494 C506 0.950 . S
H495 C507 0.950 . S
C496 H488 0.950 . S
C496 C497 1.386 . S
C496 C498 1.391 1_565 S
C497 C496 1.386 . S
C497 C501 1.393 . S
C498 H490 0.950 . S
C498 C496 1.391 1_545 S
C498 C499 1.400 1_545 S
C499 C498 1.400 1_565 S
C499 C500 1.398 . S
C499 C505 1.491 1_565 S
C500 H491 0.950 . S
C500 C499 1.398 . S
C500 C501 1.391 . S
C501 H489 0.950 . S
C501 C497 1.393 . S
C501 C500 1.391 . S
C502 H492 0.950 . S
C502 C503 1.386 . S
C502 C504 1.391 . S
C503 C502 1.386 . S
C503 C507 1.393 . S
C504 H493 0.950 1_545 S
C504 C502 1.391 . S
C504 C505 1.400 . S
C505 C499 1.491 1_545 S
C505 C504 1.400 . S
C505 C506 1.398 . S
C506 H494 0.950 . S
C506 C505 1.398 . S
C506 C507 1.391 . S
C507 H495 0.950 . S
C507 C503 1.393 . S
C507 C506 1.391 . S
H508 C516 0.950 . S
H509 C521 0.950 . S
H510 C518 0.950 . S
H511 C520 0.950 . S
H512 C522 0.950 . S
H513 C524 0.950 . S
H514 C526 0.950 . S
H515 C527 0.950 . S
C516 H508 0.950 . S
C516 C517 1.386 . S
C516 C518 1.391 . S
C517 C516 1.386 . S
C517 C521 1.393 . S
C518 H510 0.950 . S
C518 C516 1.391 . S
C518 C519 1.400 . S
C519 C518 1.400 . S
C519 C520 1.398 . S
C519 C525 1.491 . S
C520 H511 0.950 . S
C520 C519 1.398 . S
C520 C521 1.391 . S
C521 H509 0.950 . S
C521 C517 1.393 . S
C521 C520 1.391 . S
C522 H512 0.950 . S
C522 C523 1.386 . S
C522 C524 1.391 . S
C523 C522 1.386 . S
C523 C527 1.393 . S
C524 H513 0.950 . S
C524 C522 1.391 . S
C524 C525 1.400 . S
C525 C519 1.491 . S
C525 C524 1.400 . S
C525 C526 1.398 . S
C526 H514 0.950 . S
C526 C525 1.398 . S
C526 C527 1.391 . S
C527 H515 0.950 . S
C527 C523 1.393 . S
C527 C526 1.391 . S
H528 C536 0.950 . S
H529 C541 0.950 . S
H530 C538 0.950 1_545 S
H531 C540 0.950 1_655 S
H532 C542 0.950 . S
H533 C544 0.950 1_565 S
H534 C546 0.950 . S
H535 C547 0.950 . S
C536 H528 0.950 . S
C536 C537 1.386 . S
C536 C538 1.391 . S
C537 C536 1.386 . S
C537 C541 1.393 . S
C538 H530 0.950 1_565 S
C538 C536 1.391 . S
C538 C539 1.400 . S
C539 C538 1.400 . S
C539 C540 1.398 . S
C539 C545 1.491 1_465 S
C540 H531 0.950 1_455 S
C540 C539 1.398 . S
C540 C541 1.391 . S
C541 H529 0.950 . S
C541 C537 1.393 . S
C541 C540 1.391 . S
C542 H532 0.950 . S
C542 C543 1.386 . S
C542 C544 1.391 . S
C543 C542 1.386 . S
C543 C547 1.393 . S
C544 H533 0.950 1_545 S
C544 C542 1.391 . S
C544 C545 1.400 . S
C545 C539 1.491 1_645 S
C545 C544 1.400 . S
C545 C546 1.398 1_655 S
C546 H534 0.950 . S
C546 C545 1.398 1_455 S
C546 C547 1.391 1_455 S
C547 H535 0.950 . S
C547 C543 1.393 . S
C547 C546 1.391 1_655 S
H548 C556 0.950 . S
H549 C561 0.950 . S
H550 C558 0.950 . S
H551 C560 0.950 . S
H552 C562 0.950 . S
H553 C564 0.950 . S
H554 C566 0.950 . S
H555 C567 0.950 . S
C556 H548 0.950 . S
C556 C557 1.386 . S
C556 C558 1.391 . S
C557 C556 1.386 . S
C557 C561 1.393 . S
C558 H550 0.950 . S
C558 C556 1.391 . S
C558 C559 1.400 . S
C559 C558 1.400 . S
C559 C560 1.398 . S
C559 C565 1.491 . S
C560 H551 0.950 . S
C560 C559 1.398 . S
C560 C561 1.391 . S
C561 H549 0.950 . S
C561 C557 1.393 . S
C561 C560 1.391 . S
C562 H552 0.950 . S
C562 C563 1.386 . S
C562 C564 1.391 . S
C563 C562 1.386 . S
C563 C567 1.393 . S
C564 H553 0.950 . S
C564 C562 1.391 . S
C564 C565 1.400 . S
C565 C559 1.491 . S
C565 C564 1.400 . S
C565 C566 1.398 . S
C566 H554 0.950 . S
C566 C565 1.398 . S
C566 C567 1.391 . S
C567 H555 0.950 . S
C567 C563 1.393 . S
C567 C566 1.391 . S
H568 C576 0.950 . S
H569 C581 0.959 . S
H570 C578 0.932 1_554 S
H571 C580 0.950 . S
H572 C582 0.950 . S
H573 C584 0.950 1_556 S
H574 C586 0.945 1_545 S
H575 C587 0.950 . S
C576 H568 0.950 . S
C576 C577 1.386 . S
C576 C578 1.391 . S
C577 C576 1.386 . S
C577 C581 1.393 . S
C578 H570 0.932 1_556 S
C578 C576 1.391 . S
C578 C579 1.400 . S
C579 C578 1.400 . S
C579 C580 1.398 1_545 S
C579 C585 1.491 1_546 S
C580 H571 0.950 . S
C580 C579 1.398 1_565 S
C580 C581 1.391 1_565 S
C581 H569 0.959 . S
C581 C577 1.393 . S
C581 C580 1.391 1_545 S
C582 H572 0.950 . S
C582 C583 1.386 . S
C582 C584 1.391 . S
C583 C582 1.386 . S
C583 C587 1.393 . S
C584 H573 0.950 1_554 S
C584 C582 1.391 . S
C584 C585 1.400 . S
C585 C579 1.491 1_564 S
C585 C584 1.400 . S
C585 C586 1.400 . S
C586 H574 0.945 1_565 S
C586 C585 1.400 . S
C586 C587 1.394 . S
C587 H575 0.950 . S
C587 C583 1.393 . S
C587 C586 1.394 . S
H588 C596 0.950 . S
H589 C601 0.950 . S
H590 C598 0.950 . S
H591 C600 0.950 . S
H592 C602 0.950 . S
H593 C604 0.950 . S
H594 C606 0.950 . S
H595 C607 0.950 . S
C596 H588 0.950 . S
C596 C597 1.386 . S
C596 C598 1.391 . S
C597 C596 1.386 . S
C597 C601 1.393 . S
C598 H590 0.950 . S
C598 C596 1.391 . S
C598 C599 1.400 . S
C599 C598 1.400 . S
C599 C600 1.398 . S
C599 C605 1.491 . S
C600 H591 0.950 . S
C600 C599 1.398 . S
C600 C601 1.391 . S
C601 H589 0.950 . S
C601 C597 1.393 . S
C601 C600 1.391 . S
C602 H592 0.950 . S
C602 C603 1.386 . S
C602 C604 1.391 . S
C603 C602 1.386 . S
C603 C607 1.393 . S
C604 H593 0.950 . S
C604 C602 1.391 . S
C604 C605 1.400 . S
C605 C599 1.491 . S
C605 C604 1.400 . S
C605 C606 1.398 . S
C606 H594 0.950 . S
C606 C605 1.398 . S
C606 C607 1.391 . S
C607 H595 0.950 . S
C607 C603 1.393 . S
C607 C606 1.391 . S
H608 C616 0.950 . S
H609 C621 0.950 . S
H610 C618 0.950 . S
H611 C620 0.950 . S
H612 C622 0.950 . S
H613 C624 0.950 . S
H614 C626 0.950 . S
H615 C627 0.950 . S
C616 H608 0.950 . S
C616 C617 1.386 . S
C616 C618 1.391 1_554 S
C617 C616 1.386 . S
C617 C621 1.393 . S
C618 H610 0.950 . S
C618 C616 1.391 1_556 S
C618 C619 1.400 1_556 S
C619 C618 1.400 1_554 S
C619 C620 1.398 . S
C619 C625 1.491 1_554 S
C620 H611 0.950 . S
C620 C619 1.398 . S
C620 C621 1.391 . S
C621 H609 0.950 . S
C621 C617 1.393 . S
C621 C620 1.391 . S
C622 H612 0.950 . S
C622 C623 1.386 . S
C622 C624 1.391 1_556 S
C623 C622 1.386 . S
C623 C627 1.393 . S
C624 H613 0.950 . S
C624 C622 1.391 1_554 S
C624 C625 1.400 1_554 S
C625 C619 1.491 1_556 S
C625 C624 1.400 1_556 S
C625 C626 1.398 . S
C626 H614 0.950 . S
C626 C625 1.398 . S
C626 C627 1.391 . S
C627 H615 0.950 . S
C627 C623 1.393 . S
C627 C626 1.391 . S
H628 C636 0.950 . S
H629 C641 0.950 . S
H630 C638 0.950 . S
H631 C640 0.950 . S
H632 C642 0.950 . S
H633 C644 0.950 . S
H634 C646 0.950 . S
H635 C647 0.950 . S
C636 H628 0.950 . S
C636 C637 1.386 . S
C636 C638 1.391 . S
C637 C636 1.386 . S
C637 C641 1.393 . S
C638 H630 0.950 . S
C638 C636 1.391 . S
C638 C639 1.400 . S
C639 C638 1.400 . S
C639 C640 1.398 . S
C639 C645 1.491 . S
C640 H631 0.950 . S
C640 C639 1.398 . S
C640 C641 1.391 . S
C641 H629 0.950 . S
C641 C637 1.393 . S
C641 C640 1.391 . S
C642 H632 0.950 . S
C642 C643 1.386 . S
C642 C644 1.391 . S
C643 C642 1.386 . S
C643 C647 1.393 . S
C644 H633 0.950 . S
C644 C642 1.391 . S
C644 C645 1.400 . S
C645 C639 1.491 . S
C645 C644 1.400 . S
C645 C646 1.398 . S
C646 H634 0.950 . S
C646 C645 1.398 . S
C646 C647 1.391 . S
C647 H635 0.950 . S
C647 C643 1.393 . S
C647 C646 1.391 . S
H648 C656 0.950 . S
H649 C661 0.950 . S
H650 C658 0.950 . S
H651 C660 0.950 . S
H652 C662 0.950 . S
H653 C664 0.950 . S
H654 C666 0.950 . S
H655 C667 0.950 . S
C656 H648 0.950 . S
C656 C657 1.386 . S
C656 C658 1.391 . S
C657 C656 1.386 . S
C657 C661 1.393 . S
C658 H650 0.950 . S
C658 C656 1.391 . S
C658 C659 1.400 . S
C659 C658 1.400 . S
C659 C660 1.398 . S
C659 C665 1.491 1_455 S
C660 H651 0.950 . S
C660 C659 1.398 . S
C660 C661 1.391 . S
C661 H649 0.950 . S
C661 C657 1.393 . S
C661 C660 1.391 . S
C662 H652 0.950 . S
C662 C663 1.386 . S
C662 C664 1.391 . S
C663 C662 1.386 . S
C663 C667 1.393 . S
C664 H653 0.950 . S
C664 C662 1.391 . S
C664 C665 1.400 . S
C665 C659 1.491 1_655 S
C665 C664 1.400 . S
C665 C666 1.398 . S
C666 H654 0.950 . S
C666 C665 1.398 . S
C666 C667 1.391 . S
C667 H655 0.950 . S
C667 C663 1.393 . S
C667 C666 1.391 . S
H668 C676 0.950 . S
H669 C681 0.950 . S
H670 C678 0.950 . S
H671 C680 0.950 . S
H672 C682 0.950 . S
H673 C684 0.950 . S
H674 C686 0.950 . S
H675 C687 0.950 . S
C676 H668 0.950 . S
C676 C677 1.386 . S
C676 C678 1.391 . S
C677 C676 1.386 . S
C677 C681 1.393 . S
C678 H670 0.950 . S
C678 C676 1.391 . S
C678 C679 1.400 . S
C679 C678 1.400 . S
C679 C680 1.398 . S
C679 C685 1.491 . S
C680 H671 0.950 . S
C680 C679 1.398 . S
C680 C681 1.391 . S
C681 H669 0.950 . S
C681 C677 1.393 . S
C681 C680 1.391 . S
C682 H672 0.950 . S
C682 C683 1.386 . S
C682 C684 1.391 . S
C683 C682 1.386 . S
C683 C687 1.393 . S
C684 H673 0.950 . S
C684 C682 1.391 . S
C684 C685 1.400 . S
C685 C679 1.491 . S
C685 C684 1.400 . S
C685 C686 1.398 . S
C686 H674 0.950 . S
C686 C685 1.398 . S
C686 C687 1.391 . S
C687 H675 0.950 . S
C687 C683 1.393 . S
C687 C686 1.391 . S
H688 C696 0.950 . S
H689 C701 0.950 . S
H690 C698 0.950 . S
H691 C700 0.950 . S
H692 C702 0.950 . S
H693 C704 0.950 . S
H694 C706 0.950 . S
H695 C707 0.950 . S
C696 H688 0.950 . S
C696 C697 1.386 . S
C696 C698 1.391 . S
C697 C696 1.386 . S
C697 C701 1.393 . S
C698 H690 0.950 . S
C698 C696 1.391 . S
C698 C699 1.400 . S
C699 C698 1.400 . S
C699 C700 1.398 . S
C699 C705 1.491 . S
C700 H691 0.950 . S
C700 C699 1.398 . S
C700 C701 1.391 . S
C701 H689 0.950 . S
C701 C697 1.393 . S
C701 C700 1.391 . S
C702 H692 0.950 . S
C702 C703 1.386 . S
C702 C704 1.391 . S
C703 C702 1.386 . S
C703 C707 1.393 . S
C704 H693 0.950 . S
C704 C702 1.391 . S
C704 C705 1.400 . S
C705 C699 1.491 . S
C705 C704 1.400 . S
C705 C706 1.398 . S
C706 H694 0.950 . S
C706 C705 1.398 . S
C706 C707 1.391 . S
C707 H695 0.950 . S
C707 C703 1.393 . S
C707 C706 1.391 . S
H708 C716 0.950 . S
H709 C721 0.950 . S
H710 C718 0.950 . S
H711 C720 0.950 . S
H712 C722 0.950 . S
H713 C724 0.950 . S
H714 C726 0.950 . S
H715 C727 0.950 . S
C716 H708 0.950 . S
C716 C717 1.386 . S
C716 C718 1.391 . S
C717 C716 1.386 . S
C717 C721 1.393 . S
C718 H710 0.950 . S
C718 C716 1.391 . S
C718 C719 1.400 . S
C719 C718 1.400 . S
C719 C720 1.398 . S
C719 C725 1.491 . S
C720 H711 0.950 . S
C720 C719 1.398 . S
C720 C721 1.391 . S
C721 H709 0.950 . S
C721 C717 1.393 . S
C721 C720 1.391 . S
C722 H712 0.950 . S
C722 C723 1.386 . S
C722 C724 1.391 . S
C723 C722 1.386 . S
C723 C727 1.393 . S
C724 H713 0.950 . S
C724 C722 1.391 . S
C724 C725 1.400 . S
C725 C719 1.491 . S
C725 C724 1.400 . S
C725 C726 1.398 . S
C726 H714 0.950 . S
C726 C725 1.398 . S
C726 C727 1.391 . S
C727 H715 0.950 . S
C727 C723 1.393 . S
C727 C726 1.391 . S
H728 C736 0.950 . S
H729 C741 0.950 . S
H730 C738 0.950 . S
H731 C740 0.950 . S
H732 C742 0.950 . S
H733 C744 0.950 . S
H734 C746 0.950 . S
H735 C747 0.950 . S
C736 H728 0.950 . S
C736 C737 1.386 . S
C736 C738 1.391 . S
C737 C736 1.386 . S
C737 C741 1.393 . S
C738 H730 0.950 . S
C738 C736 1.391 . S
C738 C739 1.400 . S
C739 C738 1.400 . S
C739 C740 1.398 . S
C739 C745 1.491 . S
C740 H731 0.950 . S
C740 C739 1.398 . S
C740 C741 1.391 . S
C741 H729 0.950 . S
C741 C737 1.393 . S
C741 C740 1.391 . S
C742 H732 0.950 . S
C742 C743 1.386 . S
C742 C744 1.391 . S
C743 C742 1.386 . S
C743 C747 1.393 . S
C744 H733 0.950 . S
C744 C742 1.391 . S
C744 C745 1.400 . S
C745 C739 1.491 . S
C745 C744 1.400 . S
C745 C746 1.398 . S
C746 H734 0.950 . S
C746 C745 1.398 . S
C746 C747 1.391 . S
C747 H735 0.950 . S
C747 C743 1.393 . S
C747 C746 1.391 . S
H748 C756 0.950 . S
H749 C761 0.950 . S
H750 C758 0.950 1_554 S
H751 C760 0.950 . S
H752 C762 0.950 . S
H753 C764 0.925 1_556 S
H754 C766 0.950 . S
H755 C767 0.950 . S
C756 H748 0.950 . S
C756 C757 1.386 . S
C756 C758 1.391 . S
C757 C756 1.386 . S
C757 C761 1.393 . S
C758 H750 0.950 1_556 S
C758 C756 1.391 . S
C758 C759 1.400 . S
C759 C758 1.400 . S
C759 C760 1.398 1_455 S
C759 C765 1.491 1_456 S
C760 H751 0.950 . S
C760 C759 1.398 1_655 S
C760 C761 1.391 1_655 S
C761 H749 0.950 . S
C761 C757 1.393 . S
C761 C760 1.391 1_455 S
C762 H752 0.950 . S
C762 C763 1.386 . S
C762 C764 1.409 . S
C763 C762 1.386 . S
C763 C767 1.393 . S
C764 H753 0.925 1_554 S
C764 C762 1.409 . S
C764 C765 1.408 . S
C765 C759 1.491 1_654 S
C765 C764 1.408 . S
C765 C766 1.398 1_655 S
C766 H754 0.950 . S
C766 C765 1.398 1_455 S
C766 C767 1.391 1_455 S
C767 H755 0.950 . S
C767 C763 1.393 . S
C767 C766 1.391 1_655 S
H768 C776 0.950 . S
H769 C781 0.950 . S
H770 C778 0.950 . S
H771 C780 0.950 1_565 S
H772 C782 0.950 . S
H773 C784 0.950 . S
H774 C786 0.950 . S
H775 C787 0.950 . S
C776 H768 0.950 . S
C776 C777 1.386 . S
C776 C778 1.391 1_545 S
C777 C776 1.386 . S
C777 C781 1.393 . S
C778 H770 0.950 . S
C778 C776 1.391 1_565 S
C778 C779 1.400 . S
C779 C778 1.400 . S
C779 C780 1.398 1_565 S
C779 C785 1.491 . S
C780 H771 0.950 1_545 S
C780 C779 1.398 1_545 S
C780 C781 1.391 . S
C781 H769 0.950 . S
C781 C777 1.393 . S
C781 C780 1.391 . S
C782 H772 0.950 . S
C782 C783 1.386 . S
C782 C784 1.391 . S
C783 C782 1.386 . S
C783 C787 1.393 . S
C784 H773 0.950 . S
C784 C782 1.391 . S
C784 C785 1.400 . S
C785 C779 1.491 . S
C785 C784 1.400 . S
C785 C786 1.398 . S
C786 H774 0.950 . S
C786 C785 1.398 . S
C786 C787 1.391 . S
C787 H775 0.950 . S
C787 C783 1.393 . S
C787 C786 1.391 . S
H788 C796 0.950 . S
H789 C801 0.950 . S
H790 C798 0.950 . S
H791 C800 0.950 . S
H792 C802 0.950 . S
H793 C804 0.950 . S
H794 C806 0.950 . S
H795 C807 0.950 . S
C796 H788 0.950 . S
C796 C797 1.386 . S
C796 C798 1.391 . S
C797 C796 1.386 . S
C797 C801 1.393 . S
C798 H790 0.950 . S
C798 C796 1.391 . S
C798 C799 1.400 . S
C799 C798 1.400 . S
C799 C800 1.398 . S
C799 C805 1.491 . S
C800 H791 0.950 . S
C800 C799 1.398 . S
C800 C801 1.391 . S
C801 H789 0.950 . S
C801 C797 1.393 . S
C801 C800 1.391 . S
C802 H792 0.950 . S
C802 C803 1.386 . S
C802 C804 1.391 . S
C803 C802 1.386 . S
C803 C807 1.393 . S
C804 H793 0.950 . S
C804 C802 1.391 . S
C804 C805 1.400 . S
C805 C799 1.491 . S
C805 C804 1.400 . S
C805 C806 1.398 . S
C806 H794 0.950 . S
C806 C805 1.398 . S
C806 C807 1.391 . S
C807 H795 0.950 . S
C807 C803 1.393 . S
C807 C806 1.391 . S
H808 C816 0.950 . S
H809 C821 0.950 . S
H810 C818 0.950 . S
H811 C820 0.950 . S
H812 C822 0.950 . S
H813 C824 0.950 . S
H814 C826 0.950 . S
H815 C827 0.950 . S
C816 H808 0.950 . S
C816 C817 1.386 . S
C816 C818 1.391 . S
C817 C816 1.386 . S
C817 C821 1.393 . S
C818 H810 0.950 . S
C818 C816 1.391 . S
C818 C819 1.400 . S
C819 C818 1.400 . S
C819 C820 1.398 . S
C819 C825 1.491 . S
C820 H811 0.950 . S
C820 C819 1.398 . S
C820 C821 1.391 . S
C821 H809 0.950 . S
C821 C817 1.393 . S
C821 C820 1.391 . S
C822 H812 0.950 . S
C822 C823 1.386 . S
C822 C824 1.391 1_565 S
C823 C822 1.386 . S
C823 C827 1.393 . S
C824 H813 0.950 . S
C824 C822 1.391 1_545 S
C824 C825 1.400 . S
C825 C819 1.491 . S
C825 C824 1.400 . S
C825 C826 1.398 . S
C826 H814 0.950 . S
C826 C825 1.398 . S
C826 C827 1.391 1_545 S
C827 H815 0.950 . S
C827 C823 1.393 . S
C827 C826 1.391 1_565 S
H828 C836 0.950 . S
H829 C841 0.950 . S
H830 C838 0.950 . S
H831 C840 0.950 . S
H832 C842 0.950 . S
H833 C844 0.950 . S
H834 C846 0.950 . S
H835 C847 0.950 . S
C836 H828 0.950 . S
C836 C837 1.386 . S
C836 C838 1.391 . S
C837 C836 1.386 . S
C837 C841 1.393 . S
C838 H830 0.950 . S
C838 C836 1.391 . S
C838 C839 1.400 . S
C839 C838 1.400 . S
C839 C840 1.398 . S
C839 C845 1.491 . S
C840 H831 0.950 . S
C840 C839 1.398 . S
C840 C841 1.391 . S
C841 H829 0.950 . S
C841 C837 1.393 . S
C841 C840 1.391 . S
C842 H832 0.950 . S
C842 C843 1.386 . S
C842 C844 1.391 1_554 S
C843 C842 1.386 . S
C843 C847 1.393 . S
C844 H833 0.950 . S
C844 C842 1.391 1_556 S
C844 C845 1.400 . S
C845 C839 1.491 . S
C845 C844 1.400 . S
C845 C846 1.398 1_556 S
C846 H834 0.950 . S
C846 C845 1.398 1_554 S
C846 C847 1.391 . S
C847 H835 0.950 . S
C847 C843 1.393 . S
C847 C846 1.391 . S
H848 C856 0.950 . S
H849 C861 0.950 . S
H850 C858 0.950 . S
H851 C860 0.950 . S
H852 C862 0.950 . S
H853 C864 0.950 . S
H854 C866 0.950 . S
H855 C867 0.950 . S
C856 H848 0.950 . S
C856 C857 1.386 . S
C856 C858 1.391 . S
C857 C856 1.386 . S
C857 C861 1.393 . S
C858 H850 0.950 . S
C858 C856 1.391 . S
C858 C859 1.400 . S
C859 C858 1.400 . S
C859 C860 1.398 . S
C859 C865 1.491 . S
C860 H851 0.950 . S
C860 C859 1.398 . S
C860 C861 1.391 . S
C861 H849 0.950 . S
C861 C857 1.393 . S
C861 C860 1.391 . S
C862 H852 0.950 . S
C862 C863 1.386 . S
C862 C864 1.391 1_565 S
C863 C862 1.386 . S
C863 C867 1.393 . S
C864 H853 0.950 . S
C864 C862 1.391 1_545 S
C864 C865 1.400 . S
C865 C859 1.491 . S
C865 C864 1.400 . S
C865 C866 1.398 1_545 S
C866 H854 0.950 . S
C866 C865 1.398 1_565 S
C866 C867 1.391 . S
C867 H855 0.950 . S
C867 C863 1.393 . S
C867 C866 1.391 . S
H868 C876 0.950 . S
H869 C881 0.950 . S
H870 C878 0.950 . S
H871 C880 0.950 . S
H872 C882 0.950 . S
H873 C884 0.950 . S
H874 C886 0.950 . S
H875 C887 0.950 . S
C876 H868 0.950 . S
C876 C877 1.386 . S
C876 C878 1.391 . S
C877 C876 1.386 . S
C877 C881 1.393 . S
C878 H870 0.950 . S
C878 C876 1.391 . S
C878 C879 1.400 . S
C879 C878 1.400 . S
C879 C880 1.398 . S
C879 C885 1.491 . S
C880 H871 0.950 . S
C880 C879 1.398 . S
C880 C881 1.391 . S
C881 H869 0.950 . S
C881 C877 1.393 . S
C881 C880 1.391 . S
C882 H872 0.950 . S
C882 C883 1.386 . S
C882 C884 1.391 . S
C883 C882 1.386 . S
C883 C887 1.393 . S
C884 H873 0.950 . S
C884 C882 1.391 . S
C884 C885 1.400 . S
C885 C879 1.491 . S
C885 C884 1.400 . S
C885 C886 1.398 . S
C886 H874 0.950 . S
C886 C885 1.398 . S
C886 C887 1.391 . S
C887 H875 0.950 . S
C887 C883 1.393 . S
C887 C886 1.391 . S
H888 C896 0.950 . S
H889 C901 0.950 . S
H890 C898 0.950 . S
H891 C900 0.950 . S
H892 C902 0.950 . S
H893 C904 0.950 . S
H894 C906 0.950 . S
H895 C907 0.950 . S
C896 H888 0.950 . S
C896 C897 1.386 . S
C896 C898 1.391 1_545 S
C897 C896 1.386 . S
C897 C901 1.393 . S
C898 H890 0.950 . S
C898 C896 1.391 1_565 S
C898 C899 1.400 . S
C899 C898 1.400 . S
C899 C900 1.398 1_565 S
C899 C905 1.491 . S
C900 H891 0.950 . S
C900 C899 1.398 1_545 S
C900 C901 1.391 . S
C901 H889 0.950 . S
C901 C897 1.393 . S
C901 C900 1.391 . S
C902 H892 0.950 . S
C902 C903 1.386 . S
C902 C904 1.391 . S
C903 C902 1.386 . S
C903 C907 1.393 . S
C904 H893 0.950 . S
C904 C902 1.391 . S
C904 C905 1.400 . S
C905 C899 1.491 . S
C905 C904 1.400 . S
C905 C906 1.398 . S
C906 H894 0.950 . S
C906 C905 1.398 . S
C906 C907 1.391 . S
C907 H895 0.950 . S
C907 C903 1.393 . S
C907 C906 1.391 . S
H908 C916 0.950 . S
H909 C921 0.950 1_554 S
H910 C918 0.950 . S
H911 C920 0.950 . S
H912 C922 0.950 . S
H913 C924 0.950 . S
H914 C926 0.950 . S
H915 C927 0.950 . S
C916 H908 0.950 . S
C916 C917 1.386 . S
C916 C918 1.391 . S
C917 C916 1.386 . S
C917 C921 1.393 . S
C918 H910 0.950 . S
C918 C916 1.391 . S
C918 C919 1.400 1_556 S
C919 C918 1.400 1_554 S
C919 C920 1.398 . S
C919 C925 1.491 . S
C920 H911 0.950 . S
C920 C919 1.398 . S
C920 C921 1.391 1_554 S
C921 H909 0.950 1_556 S
C921 C917 1.393 . S
C921 C920 1.391 1_556 S
C922 H912 0.950 . S
C922 C923 1.386 . S
C922 C924 1.391 . S
C923 C922 1.386 . S
C923 C927 1.393 . S
C924 H913 0.950 . S
C924 C922 1.391 . S
C924 C925 1.400 . S
C925 C919 1.491 . S
C925 C924 1.400 . S
C925 C926 1.398 . S
C926 H914 0.950 . S
C926 C925 1.398 . S
C926 C927 1.391 . S
C927 H915 0.950 . S
C927 C923 1.393 . S
C927 C926 1.391 . S
H928 C936 0.950 . S
H929 C941 0.950 . S
H930 C938 0.950 . S
H931 C940 0.950 . S
H932 C942 0.950 . S
H933 C944 0.950 . S
H934 C946 0.950 . S
H935 C947 0.950 . S
C936 H928 0.950 . S
C936 C937 1.386 . S
C936 C938 1.391 . S
C937 C936 1.386 . S
C937 C941 1.393 . S
C938 H930 0.950 . S
C938 C936 1.391 . S
C938 C939 1.400 . S
C939 C938 1.400 . S
C939 C940 1.398 . S
C939 C945 1.491 . S
C940 H931 0.950 . S
C940 C939 1.398 . S
C940 C941 1.391 . S
C941 H929 0.950 . S
C941 C937 1.393 . S
C941 C940 1.391 . S
C942 H932 0.950 . S
C942 C943 1.386 . S
C942 C944 1.391 1_455 S
C943 C942 1.386 . S
C943 C947 1.393 . S
C944 H933 0.950 . S
C944 C942 1.391 1_655 S
C944 C945 1.400 . S
C945 C939 1.491 . S
C945 C944 1.400 . S
C945 C946 1.398 1_655 S
C946 H934 0.950 . S
C946 C945 1.398 1_455 S
C946 C947 1.391 . S
C947 H935 0.950 . S
C947 C943 1.393 . S
C947 C946 1.391 . S
H948 C956 0.950 . S
H949 C961 0.950 . S
H950 C958 0.950 . S
H951 C960 0.950 . S
H952 C962 0.950 . S
H953 C964 0.950 . S
H954 C966 0.950 . S
H955 C967 0.950 . S
C956 H948 0.950 . S
C956 C957 1.386 . S
C956 C958 1.391 . S
C957 C956 1.386 . S
C957 C961 1.393 . S
C958 H950 0.950 . S
C958 C956 1.391 . S
C958 C959 1.400 . S
C959 C958 1.400 . S
C959 C960 1.398 . S
C959 C965 1.491 . S
C960 H951 0.950 . S
C960 C959 1.398 . S
C960 C961 1.391 . S
C961 H949 0.950 . S
C961 C957 1.393 . S
C961 C960 1.391 . S
C962 H952 0.950 . S
C962 C963 1.386 . S
C962 C964 1.391 . S
C963 C962 1.386 . S
C963 C967 1.393 . S
C964 H953 0.950 . S
C964 C962 1.391 . S
C964 C965 1.400 . S
C965 C959 1.491 . S
C965 C964 1.400 . S
C965 C966 1.398 . S
C966 H954 0.950 . S
C966 C965 1.398 . S
C966 C967 1.391 . S
C967 H955 0.950 . S
C967 C963 1.393 . S
C967 C966 1.391 . S
H968 C976 0.950 . S
H969 C981 0.950 . S
H970 C978 0.950 . S
H971 C980 0.950 . S
H972 C982 0.950 . S
H973 C984 0.950 . S
H974 C986 0.950 . S
H975 C987 0.950 . S
C976 H968 0.950 . S
C976 C977 1.386 . S
C976 C978 1.391 1_655 S
C977 C976 1.386 . S
C977 C981 1.393 . S
C978 H970 0.950 . S
C978 C976 1.391 1_455 S
C978 C979 1.400 . S
C979 C978 1.400 . S
C979 C980 1.398 1_455 S
C979 C985 1.491 . S
C980 H971 0.950 . S
C980 C979 1.398 1_655 S
C980 C981 1.391 . S
C981 H969 0.950 . S
C981 C977 1.393 . S
C981 C980 1.391 . S
C982 H972 0.950 . S
C982 C983 1.386 . S
C982 C984 1.391 . S
C983 C982 1.386 . S
C983 C987 1.393 . S
C984 H973 0.950 . S
C984 C982 1.391 . S
C984 C985 1.400 . S
C985 C979 1.491 . S
C985 C984 1.400 . S
C985 C986 1.398 . S
C986 H974 0.950 . S
C986 C985 1.398 . S
C986 C987 1.391 . S
C987 H975 0.950 . S
C987 C983 1.393 . S
C987 C986 1.391 . S
H988 C996 0.958 . S
H989 C1001 0.950 . S
H990 C998 0.950 . S
H991 C1000 0.950 . S
H992 C1002 0.950 . S
H993 C1004 0.950 1_655 S
H994 C1006 0.950 . S
H995 C1007 0.950 . S
C996 H988 0.958 . S
C996 C997 1.386 . S
C996 C998 1.391 1_655 S
C997 C996 1.386 . S
C997 C1001 1.393 . S
C998 H990 0.950 . S
C998 C996 1.391 1_455 S
C998 C999 1.400 . S
C999 C998 1.400 . S
C999 C1000 1.398 1_455 S
C999 C1005 1.491 . S
C1000 H991 0.950 . S
C1000 C999 1.398 1_655 S
C1000 C1001 1.391 . S
C1001 H989 0.950 . S
C1001 C997 1.393 . S
C1001 C1000 1.391 . S
C1002 H992 0.950 . S
C1002 C1003 1.386 . S
C1002 C1004 1.391 . S
C1003 C1002 1.386 . S
C1003 C1007 1.393 . S
C1004 H993 0.950 1_455 S
C1004 C1002 1.391 . S
C1004 C1005 1.400 . S
C1005 C999 1.491 . S
C1005 C1004 1.400 . S
C1005 C1006 1.398 . S
C1006 H994 0.950 . S
C1006 C1005 1.398 . S
C1006 C1007 1.391 . S
C1007 H995 0.950 . S
C1007 C1003 1.393 . S
C1007 C1006 1.391 . S
H1008 C1016 0.950 . S
H1009 C1021 0.950 . S
H1010 C1018 0.950 . S
H1011 C1020 0.950 . S
H1012 C1022 0.950 . S
H1013 C1024 0.950 . S
H1014 C1026 0.950 . S
H1015 C1027 0.950 . S
C1016 H1008 0.950 . S
C1016 C1017 1.386 . S
C1016 C1018 1.391 . S
C1017 C1016 1.386 . S
C1017 C1021 1.393 . S
C1018 H1010 0.950 . S
C1018 C1016 1.391 . S
C1018 C1019 1.400 . S
C1019 C1018 1.400 . S
C1019 C1020 1.398 . S
C1019 C1025 1.491 . S
C1020 H1011 0.950 . S
C1020 C1019 1.398 . S
C1020 C1021 1.391 . S
C1021 H1009 0.950 . S
C1021 C1017 1.393 . S
C1021 C1020 1.391 . S
C1022 H1012 0.950 . S
C1022 C1023 1.386 . S
C1022 C1024 1.391 . S
C1023 C1022 1.386 . S
C1023 C1027 1.393 . S
C1024 H1013 0.950 . S
C1024 C1022 1.391 . S
C1024 C1025 1.400 . S
C1025 C1019 1.491 . S
C1025 C1024 1.400 . S
C1025 C1026 1.398 . S
C1026 H1014 0.950 . S
C1026 C1025 1.398 . S
C1026 C1027 1.391 . S
C1027 H1015 0.950 . S
C1027 C1023 1.393 . S
C1027 C1026 1.391 . S
H1028 C1036 0.950 . S
H1029 C1041 0.950 . S
H1030 C1038 0.950 . S
H1031 C1040 0.950 1_455 S
H1032 C1042 0.950 . S
H1033 C1044 0.950 . S
H1034 C1046 0.950 . S
H1035 C1047 0.950 . S
C1036 H1028 0.950 . S
C1036 C1037 1.386 . S
C1036 C1038 1.391 . S
C1037 C1036 1.386 . S
C1037 C1041 1.393 . S
C1038 H1030 0.950 . S
C1038 C1036 1.391 . S
C1038 C1039 1.400 . S
C1039 C1038 1.400 . S
C1039 C1040 1.398 . S
C1039 C1045 1.491 . S
C1040 H1031 0.950 1_655 S
C1040 C1039 1.398 . S
C1040 C1041 1.391 . S
C1041 H1029 0.950 . S
C1041 C1037 1.393 . S
C1041 C1040 1.391 . S
C1042 H1032 0.950 . S
C1042 C1043 1.386 . S
C1042 C1044 1.391 . S
C1043 C1042 1.386 . S
C1043 C1047 1.393 . S
C1044 H1033 0.950 . S
C1044 C1042 1.391 . S
C1044 C1045 1.400 1_455 S
C1045 C1039 1.491 . S
C1045 C1044 1.400 1_655 S
C1045 C1046 1.398 . S
C1046 H1034 0.950 . S
C1046 C1045 1.398 . S
C1046 C1047 1.391 1_655 S
C1047 H1035 0.950 . S
C1047 C1043 1.393 . S
C1047 C1046 1.391 1_455 S
H1048 C1056 0.950 . S
H1049 C1061 0.950 . S
H1050 C1058 0.950 . S
H1051 C1060 0.950 . S
H1052 C1062 0.950 . S
H1053 C1064 0.950 . S
H1054 C1066 0.950 . S
H1055 C1067 0.950 . S
C1056 H1048 0.950 . S
C1056 C1057 1.386 . S
C1056 C1058 1.391 . S
C1057 C1056 1.386 . S
C1057 C1061 1.393 . S
C1058 H1050 0.950 . S
C1058 C1056 1.391 . S
C1058 C1059 1.400 . S
C1059 C1058 1.400 . S
C1059 C1060 1.398 . S
C1059 C1065 1.491 . S
C1060 H1051 0.950 . S
C1060 C1059 1.398 . S
C1060 C1061 1.391 . S
C1061 H1049 0.950 . S
C1061 C1057 1.393 . S
C1061 C1060 1.391 . S
C1062 H1052 0.950 . S
C1062 C1063 1.386 . S
C1062 C1064 1.391 . S
C1063 C1062 1.386 . S
C1063 C1067 1.393 . S
C1064 H1053 0.950 . S
C1064 C1062 1.391 . S
C1064 C1065 1.400 . S
C1065 C1059 1.491 . S
C1065 C1064 1.400 . S
C1065 C1066 1.398 . S
C1066 H1054 0.950 . S
C1066 C1065 1.398 . S
C1066 C1067 1.391 . S
C1067 H1055 0.950 . S
C1067 C1063 1.393 . S
C1067 C1066 1.391 . S
H1068 C1076 0.950 . S
H1069 C1081 0.950 . S
H1070 C1078 0.950 . S
H1071 C1080 0.950 . S
H1072 C1082 0.950 . S
H1073 C1084 0.950 . S
H1074 C1086 0.950 . S
H1075 C1087 0.950 1_545 S
C1076 H1068 0.950 . S
C1076 C1077 1.386 . S
C1076 C1078 1.391 . S
C1077 C1076 1.386 . S
C1077 C1081 1.393 . S
C1078 H1070 0.950 . S
C1078 C1076 1.391 . S
C1078 C1079 1.400 . S
C1079 C1078 1.400 . S
C1079 C1080 1.398 . S
C1079 C1085 1.491 . S
C1080 H1071 0.950 . S
C1080 C1079 1.398 . S
C1080 C1081 1.391 . S
C1081 H1069 0.950 . S
C1081 C1077 1.393 . S
C1081 C1080 1.391 . S
C1082 H1072 0.950 . S
C1082 C1083 1.386 . S
C1082 C1084 1.391 . S
C1083 C1082 1.386 . S
C1083 C1087 1.393 . S
C1084 H1073 0.950 . S
C1084 C1082 1.391 . S
C1084 C1085 1.400 1_565 S
C1085 C1079 1.491 . S
C1085 C1084 1.400 1_545 S
C1085 C1086 1.398 . S
C1086 H1074 0.950 . S
C1086 C1085 1.398 . S
C1086 C1087 1.391 1_545 S
C1087 H1075 0.950 1_565 S
C1087 C1083 1.393 . S
C1087 C1086 1.391 1_565 S
H1088 C1096 0.950 . S
H1089 C1101 0.950 . S
H1090 C1098 0.950 . S
H1091 C1100 0.950 . S
H1092 C1102 0.950 . S
H1093 C1104 0.950 . S
H1094 C1106 0.950 . S
H1095 C1107 0.950 . S
C1096 H1088 0.950 . S
C1096 C1097 1.386 . S
C1096 C1098 1.391 . S
C1097 C1096 1.386 . S
C1097 C1101 1.393 . S
C1098 H1090 0.950 . S
C1098 C1096 1.391 . S
C1098 C1099 1.400 . S
C1099 C1098 1.400 . S
C1099 C1100 1.398 . S
C1099 C1105 1.491 . S
C1100 H1091 0.950 . S
C1100 C1099 1.398 . S
C1100 C1101 1.391 . S
C1101 H1089 0.950 . S
C1101 C1097 1.393 . S
C1101 C1100 1.391 . S
C1102 H1092 0.950 . S
C1102 C1103 1.386 . S
C1102 C1104 1.391 . S
C1103 C1102 1.386 . S
C1103 C1107 1.393 . S
C1104 H1093 0.950 . S
C1104 C1102 1.391 . S
C1104 C1105 1.400 . S
C1105 C1099 1.491 . S
C1105 C1104 1.400 . S
C1105 C1106 1.398 . S
C1106 H1094 0.950 . S
C1106 C1105 1.398 . S
C1106 C1107 1.391 . S
C1107 H1095 0.950 . S
C1107 C1103 1.393 . S
C1107 C1106 1.391 . S
H1108 C1116 0.950 . S
H1109 C1121 0.950 . S
H1110 C1118 0.950 . S
H1111 C1120 0.950 . S
H1112 C1122 0.950 . S
H1113 C1124 0.950 . S
H1114 C1126 0.950 . S
H1115 C1127 0.956 . S
C1116 H1108 0.950 . S
C1116 C1117 1.386 . S
C1116 C1118 1.391 . S
C1117 C1116 1.386 . S
C1117 C1121 1.393 . S
C1118 H1110 0.950 . S
C1118 C1116 1.391 . S
C1118 C1119 1.400 . S
C1119 C1118 1.400 . S
C1119 C1120 1.398 . S
C1119 C1125 1.491 . S
C1120 H1111 0.950 . S
C1120 C1119 1.398 . S
C1120 C1121 1.391 . S
C1121 H1109 0.950 . S
C1121 C1117 1.393 . S
C1121 C1120 1.391 . S
C1122 H1112 0.950 . S
C1122 C1123 1.386 . S
C1122 C1124 1.391 . S
C1123 C1122 1.386 . S
C1123 C1127 1.393 . S
C1124 H1113 0.950 . S
C1124 C1122 1.391 . S
C1124 C1125 1.400 1_545 S
C1125 C1119 1.491 . S
C1125 C1124 1.400 1_565 S
C1125 C1126 1.398 . S
C1126 H1114 0.950 . S
C1126 C1125 1.398 . S
C1126 C1127 1.391 1_565 S
C1127 H1115 0.956 . S
C1127 C1123 1.393 . S
C1127 C1126 1.391 1_545 S
H1128 C1136 0.950 . S
H1129 C1141 0.950 . S
H1130 C1138 0.950 . S
H1131 C1140 0.950 . S
H1132 C1142 0.950 . S
H1133 C1144 0.950 . S
H1134 C1146 0.950 . S
H1135 C1147 0.950 . S
C1136 H1128 0.950 . S
C1136 C1137 1.386 . S
C1136 C1138 1.391 . S
C1137 C1136 1.386 . S
C1137 C1141 1.393 . S
C1138 H1130 0.950 . S
C1138 C1136 1.391 . S
C1138 C1139 1.400 1_556 S
C1139 C1138 1.400 1_554 S
C1139 C1140 1.398 . S
C1139 C1145 1.491 . S
C1140 H1131 0.950 . S
C1140 C1139 1.398 . S
C1140 C1141 1.391 1_554 S
C1141 H1129 0.950 . S
C1141 C1137 1.393 . S
C1141 C1140 1.391 1_556 S
C1142 H1132 0.950 . S
C1142 C1143 1.386 . S
C1142 C1144 1.391 . S
C1143 C1142 1.386 . S
C1143 C1147 1.393 . S
C1144 H1133 0.950 . S
C1144 C1142 1.391 . S
C1144 C1145 1.400 . S
C1145 C1139 1.491 . S
C1145 C1144 1.400 . S
C1145 C1146 1.398 . S
C1146 H1134 0.950 . S
C1146 C1145 1.398 . S
C1146 C1147 1.391 . S
C1147 H1135 0.950 . S
C1147 C1143 1.393 . S
C1147 C1146 1.391 . S
H1148 C1156 0.950 . S
H1149 C1161 0.950 . S
H1150 C1158 0.950 . S
H1151 C1160 0.950 . S
H1152 C1162 0.950 . S
H1153 C1164 0.950 . S
H1154 C1166 0.950 . S
H1155 C1167 0.950 . S
C1156 H1148 0.950 . S
C1156 C1157 1.386 . S
C1156 C1158 1.391 . S
C1157 C1156 1.386 . S
C1157 C1161 1.393 . S
C1158 H1150 0.950 . S
C1158 C1156 1.391 . S
C1158 C1159 1.400 1_545 S
C1159 C1158 1.400 1_565 S
C1159 C1160 1.398 . S
C1159 C1165 1.491 . S
C1160 H1151 0.950 . S
C1160 C1159 1.398 . S
C1160 C1161 1.391 1_565 S
C1161 H1149 0.950 . S
C1161 C1157 1.393 . S
C1161 C1160 1.391 1_545 S
C1162 H1152 0.950 . S
C1162 C1163 1.386 . S
C1162 C1164 1.391 . S
C1163 C1162 1.386 . S
C1163 C1167 1.393 . S
C1164 H1153 0.950 . S
C1164 C1162 1.391 . S
C1164 C1165 1.400 . S
C1165 C1159 1.491 . S
C1165 C1164 1.400 . S
C1165 C1166 1.398 . S
C1166 H1154 0.950 . S
C1166 C1165 1.398 . S
C1166 C1167 1.391 . S
C1167 H1155 0.950 . S
C1167 C1163 1.393 . S
C1167 C1166 1.391 . S
H1168 C1176 0.950 . S
H1169 C1181 0.950 . S
H1170 C1178 0.950 . S
H1171 C1180 0.950 . S
H1172 C1182 0.950 . S
H1173 C1184 0.950 . S
H1174 C1186 0.950 . S
H1175 C1187 0.950 . S
C1176 H1168 0.950 . S
C1176 C1177 1.386 . S
C1176 C1178 1.391 . S
C1177 C1176 1.386 . S
C1177 C1181 1.393 . S
C1178 H1170 0.950 . S
C1178 C1176 1.391 . S
C1178 C1179 1.400 . S
C1179 C1178 1.400 . S
C1179 C1180 1.398 . S
C1179 C1185 1.491 . S
C1180 H1171 0.950 . S
C1180 C1179 1.398 . S
C1180 C1181 1.391 . S
C1181 H1169 0.950 . S
C1181 C1177 1.393 . S
C1181 C1180 1.391 . S
C1182 H1172 0.950 . S
C1182 C1183 1.386 . S
C1182 C1184 1.391 . S
C1183 C1182 1.386 . S
C1183 C1187 1.393 . S
C1184 H1173 0.950 . S
C1184 C1182 1.391 . S
C1184 C1185 1.400 . S
C1185 C1179 1.491 . S
C1185 C1184 1.400 . S
C1185 C1186 1.398 . S
C1186 H1174 0.950 . S
C1186 C1185 1.398 . S
C1186 C1187 1.391 . S
C1187 H1175 0.950 . S
C1187 C1183 1.393 . S
C1187 C1186 1.391 . S
H1188 C1196 0.946 1_545 S
H1189 C1201 0.950 . S
H1190 C1198 0.950 . S
H1191 C1200 0.950 . S
H1192 C1202 0.950 . S
H1193 C1204 0.950 . S
H1194 C1206 0.950 . S
H1195 C1207 0.950 . S
C1196 H1188 0.946 1_565 S
C1196 C1197 1.386 . S
C1196 C1198 1.391 1_565 S
C1197 C1196 1.386 . S
C1197 C1201 1.393 . S
C1198 H1190 0.950 . S
C1198 C1196 1.391 1_545 S
C1198 C1199 1.400 . S
C1199 C1198 1.400 . S
C1199 C1200 1.398 1_545 S
C1199 C1205 1.491 . S
C1200 H1191 0.950 . S
C1200 C1199 1.398 1_565 S
C1200 C1201 1.391 . S
C1201 H1189 0.950 . S
C1201 C1197 1.393 . S
C1201 C1200 1.391 . S
C1202 H1192 0.950 . S
C1202 C1203 1.386 . S
C1202 C1204 1.391 . S
C1203 C1202 1.386 . S
C1203 C1207 1.393 . S
C1204 H1193 0.950 . S
C1204 C1202 1.391 . S
C1204 C1205 1.400 . S
C1205 C1199 1.491 . S
C1205 C1204 1.400 . S
C1205 C1206 1.398 . S
C1206 H1194 0.950 . S
C1206 C1205 1.398 . S
C1206 C1207 1.391 . S
C1207 H1195 0.950 . S
C1207 C1203 1.393 . S
C1207 C1206 1.391 . S
H1208 C1216 0.950 . S
H1209 C1221 0.955 . S
H1210 C1218 0.950 . S
H1211 C1220 0.950 . S
H1212 C1222 0.950 . S
H1213 C1224 0.950 . S
H1214 C1226 0.950 . S
H1215 C1227 0.950 . S
C1216 H1208 0.950 . S
C1216 C1217 1.386 . S
C1216 C1218 1.391 . S
C1217 C1216 1.386 . S
C1217 C1221 1.374 1_554 S
C1218 H1210 0.950 . S
C1218 C1216 1.391 . S
C1218 C1219 1.400 1_554 S
C1219 C1218 1.400 1_556 S
C1219 C1220 1.398 . S
C1219 C1225 1.491 . S
C1220 H1211 0.950 . S
C1220 C1219 1.398 . S
C1220 C1221 1.405 . S
C1221 H1209 0.955 . S
C1221 C1217 1.374 1_556 S
C1221 C1220 1.405 . S
C1222 H1212 0.950 . S
C1222 C1223 1.386 . S
C1222 C1224 1.391 . S
C1223 C1222 1.386 . S
C1223 C1227 1.393 . S
C1224 H1213 0.950 . S
C1224 C1222 1.391 . S
C1224 C1225 1.400 . S
C1225 C1219 1.491 . S
C1225 C1224 1.400 . S
C1225 C1226 1.398 . S
C1226 H1214 0.950 . S
C1226 C1225 1.398 . S
C1226 C1227 1.391 . S
C1227 H1215 0.950 . S
C1227 C1223 1.393 . S
C1227 C1226 1.391 . S
H1228 C1236 0.950 . S
H1229 C1241 0.950 . S
H1230 C1238 0.950 . S
H1231 C1240 0.950 . S
H1232 C1242 0.950 . S
H1233 C1244 0.950 . S
H1234 C1246 0.950 . S
H1235 C1247 0.950 . S
C1236 H1228 0.950 . S
C1236 C1237 1.386 . S
C1236 C1238 1.391 1_655 S
C1237 C1236 1.386 . S
C1237 C1241 1.393 . S
C1238 H1230 0.950 . S
C1238 C1236 1.391 1_455 S
C1238 C1239 1.400 . S
C1239 C1238 1.400 . S
C1239 C1240 1.398 1_455 S
C1239 C1245 1.491 . S
C1240 H1231 0.950 . S
C1240 C1239 1.398 1_655 S
C1240 C1241 1.391 . S
C1241 H1229 0.950 . S
C1241 C1237 1.393 . S
C1241 C1240 1.391 . S
C1242 H1232 0.950 . S
C1242 C1243 1.386 . S
C1242 C1244 1.391 . S
C1243 C1242 1.386 . S
C1243 C1247 1.393 . S
C1244 H1233 0.950 . S
C1244 C1242 1.391 . S
C1244 C1245 1.400 . S
C1245 C1239 1.491 . S
C1245 C1244 1.400 . S
C1245 C1246 1.398 . S
C1246 H1234 0.950 . S
C1246 C1245 1.398 . S
C1246 C1247 1.391 . S
C1247 H1235 0.950 . S
C1247 C1243 1.393 . S
C1247 C1246 1.391 . S
H1248 C1256 0.950 . S
H1249 C1261 0.950 . S
H1250 C1258 0.950 . S
H1251 C1260 0.950 . S
H1252 C1262 0.950 . S
H1253 C1264 0.950 . S
H1254 C1266 0.950 . S
H1255 C1267 0.950 . S
C1256 H1248 0.950 . S
C1256 C1257 1.386 . S
C1256 C1258 1.391 . S
C1257 C1256 1.386 . S
C1257 C1261 1.393 . S
C1258 H1250 0.950 . S
C1258 C1256 1.391 . S
C1258 C1259 1.400 . S
C1259 C1258 1.400 . S
C1259 C1260 1.398 . S
C1259 C1265 1.491 . S
C1260 H1251 0.950 . S
C1260 C1259 1.398 . S
C1260 C1261 1.391 . S
C1261 H1249 0.950 . S
C1261 C1257 1.393 . S
C1261 C1260 1.391 . S
C1262 H1252 0.950 . S
C1262 C1263 1.386 . S
C1262 C1264 1.391 . S
C1263 C1262 1.386 . S
C1263 C1267 1.393 . S
C1264 H1253 0.950 . S
C1264 C1262 1.391 . S
C1264 C1265 1.400 . S
C1265 C1259 1.491 . S
C1265 C1264 1.400 . S
C1265 C1266 1.398 . S
C1266 H1254 0.950 . S
C1266 C1265 1.398 . S
C1266 C1267 1.391 . S
C1267 H1255 0.950 . S
C1267 C1263 1.393 . S
C1267 C1266 1.391 . S
H1268 C1276 0.950 . S
H1269 C1281 0.950 . S
H1270 C1278 0.950 . S
H1271 C1280 0.950 . S
H1272 C1282 0.950 . S
H1273 C1284 0.950 . S
H1274 C1286 0.950 . S
H1275 C1287 0.950 . S
C1276 H1268 0.950 . S
C1276 C1277 1.386 . S
C1276 C1278 1.391 1_455 S
C1277 C1276 1.386 . S
C1277 C1281 1.393 . S
C1278 H1270 0.950 . S
C1278 C1276 1.391 1_655 S
C1278 C1279 1.400 . S
C1279 C1278 1.400 . S
C1279 C1280 1.398 1_655 S
C1279 C1285 1.491 . S
C1280 H1271 0.950 . S
C1280 C1279 1.398 1_455 S
C1280 C1281 1.391 . S
C1281 H1269 0.950 . S
C1281 C1277 1.393 . S
C1281 C1280 1.391 . S
C1282 H1272 0.950 . S
C1282 C1283 1.386 . S
C1282 C1284 1.391 . S
C1283 C1282 1.386 . S
C1283 C1287 1.393 . S
C1284 H1273 0.950 . S
C1284 C1282 1.391 . S
C1284 C1285 1.400 . S
C1285 C1279 1.491 . S
C1285 C1284 1.400 . S
C1285 C1286 1.398 . S
C1286 H1274 0.950 . S
C1286 C1285 1.398 . S
C1286 C1287 1.391 . S
C1287 H1275 0.950 . S
C1287 C1283 1.393 . S
C1287 C1286 1.391 . S
H1288 C1296 0.950 . S
H1289 C1301 0.950 . S
H1290 C1298 0.950 . S
H1291 C1300 0.950 . S
H1292 C1302 0.950 . S
H1293 C1304 0.950 . S
H1294 C1306 0.950 . S
H1295 C1307 0.950 . S
C1296 H1288 0.950 . S
C1296 C1297 1.386 . S
C1296 C1298 1.391 . S
C1297 C1296 1.386 . S
C1297 C1301 1.393 . S
C1298 H1290 0.950 . S
C1298 C1296 1.391 . S
C1298 C1299 1.400 1_455 S
C1299 C1298 1.400 1_655 S
C1299 C1300 1.398 . S
C1299 C1305 1.491 . S
C1300 H1291 0.950 . S
C1300 C1299 1.398 . S
C1300 C1301 1.391 1_655 S
C1301 H1289 0.950 . S
C1301 C1297 1.393 . S
C1301 C1300 1.391 1_455 S
C1302 H1292 0.950 . S
C1302 C1303 1.386 . S
C1302 C1304 1.391 . S
C1303 C1302 1.386 . S
C1303 C1307 1.393 . S
C1304 H1293 0.950 . S
C1304 C1302 1.391 . S
C1304 C1305 1.400 . S
C1305 C1299 1.491 . S
C1305 C1304 1.400 . S
C1305 C1306 1.398 . S
C1306 H1294 0.950 . S
C1306 C1305 1.398 . S
C1306 C1307 1.391 . S
C1307 H1295 0.950 . S
C1307 C1303 1.393 . S
C1307 C1306 1.391 . S
H1308 C1316 0.950 . S
H1309 C1321 0.950 . S
H1310 C1318 0.950 . S
H1311 C1320 0.950 . S
H1312 C1322 0.950 . S
H1313 C1324 0.950 . S
H1314 C1326 0.950 . S
H1315 C1327 0.950 . S
C1316 H1308 0.950 . S
C1316 C1317 1.386 . S
C1316 C1318 1.391 . S
C1317 C1316 1.386 . S
C1317 C1321 1.393 . S
C1318 H1310 0.950 . S
C1318 C1316 1.391 . S
C1318 C1319 1.400 . S
C1319 C1318 1.400 . S
C1319 C1320 1.398 . S
C1319 C1325 1.491 . S
C1320 H1311 0.950 . S
C1320 C1319 1.398 . S
C1320 C1321 1.391 . S
C1321 H1309 0.950 . S
C1321 C1317 1.393 . S
C1321 C1320 1.391 . S
C1322 H1312 0.950 . S
C1322 C1323 1.386 . S
C1322 C1324 1.391 . S
C1323 C1322 1.386 . S
C1323 C1327 1.393 . S
C1324 H1313 0.950 . S
C1324 C1322 1.391 . S
C1324 C1325 1.400 . S
C1325 C1319 1.491 . S
C1325 C1324 1.400 . S
C1325 C1326 1.398 . S
C1326 H1314 0.950 . S
C1326 C1325 1.398 . S
C1326 C1327 1.391 . S
C1327 H1315 0.950 . S
C1327 C1323 1.393 . S
C1327 C1326 1.391 . S
H1328 C1336 0.950 1_455 S
H1329 C1341 0.950 . S
H1330 C1338 0.950 . S
H1331 C1340 0.950 . S
H1332 C1342 0.950 . S
H1333 C1344 0.950 . S
H1334 C1346 0.950 . S
H1335 C1347 0.950 . S
C1336 H1328 0.950 1_655 S
C1336 C1337 1.386 . S
C1336 C1338 1.391 1_655 S
C1337 C1336 1.386 . S
C1337 C1341 1.393 . S
C1338 H1330 0.950 . S
C1338 C1336 1.391 1_455 S
C1338 C1339 1.400 . S
C1339 C1338 1.400 . S
C1339 C1340 1.398 1_455 S
C1339 C1345 1.491 . S
C1340 H1331 0.950 . S
C1340 C1339 1.398 1_655 S
C1340 C1341 1.391 . S
C1341 H1329 0.950 . S
C1341 C1337 1.393 . S
C1341 C1340 1.391 . S
C1342 H1332 0.950 . S
C1342 C1343 1.386 . S
C1342 C1344 1.391 . S
C1343 C1342 1.386 . S
C1343 C1347 1.393 . S
C1344 H1333 0.950 . S
C1344 C1342 1.391 . S
C1344 C1345 1.400 . S
C1345 C1339 1.491 . S
C1345 C1344 1.400 . S
C1345 C1346 1.398 . S
C1346 H1334 0.950 . S
C1346 C1345 1.398 . S
C1346 C1347 1.391 . S
C1347 H1335 0.950 . S
C1347 C1343 1.393 . S
C1347 C1346 1.391 . S
H1348 C1356 0.950 . S
H1349 C1361 0.950 . S
H1350 C1358 0.950 . S
H1351 C1360 0.950 . S
H1352 C1362 0.950 . S
H1353 C1364 0.950 . S
H1354 C1366 0.950 . S
H1355 C1367 0.950 . S
C1356 H1348 0.950 . S
C1356 C1357 1.386 . S
C1356 C1358 1.391 . S
C1357 C1356 1.386 . S
C1357 C1361 1.393 . S
C1358 H1350 0.950 . S
C1358 C1356 1.391 . S
C1358 C1359 1.400 . S
C1359 C1358 1.400 . S
C1359 C1360 1.398 . S
C1359 C1365 1.491 . S
C1360 H1351 0.950 . S
C1360 C1359 1.398 . S
C1360 C1361 1.391 . S
C1361 H1349 0.950 . S
C1361 C1357 1.393 . S
C1361 C1360 1.391 . S
C1362 H1352 0.950 . S
C1362 C1363 1.386 . S
C1362 C1364 1.391 . S
C1363 C1362 1.386 . S
C1363 C1367 1.393 . S
C1364 H1353 0.950 . S
C1364 C1362 1.391 . S
C1364 C1365 1.400 . S
C1365 C1359 1.491 . S
C1365 C1364 1.400 . S
C1365 C1366 1.398 . S
C1366 H1354 0.950 . S
C1366 C1365 1.398 . S
C1366 C1367 1.391 . S
C1367 H1355 0.950 . S
C1367 C1363 1.393 . S
C1367 C1366 1.391 . S
H1368 C1376 0.950 . S
H1369 C1381 0.950 . S
H1370 C1378 0.950 . S
H1371 C1380 0.950 . S
H1372 C1382 0.950 . S
H1373 C1384 0.950 . S
H1374 C1386 0.950 . S
H1375 C1387 0.950 . S
C1376 H1368 0.950 . S
C1376 C1377 1.386 . S
C1376 C1378 1.391 . S
C1377 C1376 1.386 . S
C1377 C1381 1.393 . S
C1378 H1370 0.950 . S
C1378 C1376 1.391 . S
C1378 C1379 1.400 . S
C1379 C1378 1.400 . S
C1379 C1380 1.398 . S
C1379 C1385 1.491 . S
C1380 H1371 0.950 . S
C1380 C1379 1.398 . S
C1380 C1381 1.391 . S
C1381 H1369 0.950 . S
C1381 C1377 1.393 . S
C1381 C1380 1.391 . S
C1382 H1372 0.950 . S
C1382 C1383 1.386 . S
C1382 C1384 1.391 . S
C1383 C1382 1.386 . S
C1383 C1387 1.393 . S
C1384 H1373 0.950 . S
C1384 C1382 1.391 . S
C1384 C1385 1.400 . S
C1385 C1379 1.491 . S
C1385 C1384 1.400 . S
C1385 C1386 1.398 . S
C1386 H1374 0.950 . S
C1386 C1385 1.398 . S
C1386 C1387 1.391 . S
C1387 H1375 0.950 . S
C1387 C1383 1.393 . S
C1387 C1386 1.391 . S
H1388 C1396 0.950 . S
H1389 C1401 0.950 . S
H1390 C1398 0.950 . S
H1391 C1400 0.950 . S
H1392 C1402 0.950 . S
H1393 C1404 0.950 . S
H1394 C1406 0.950 . S
H1395 C1407 0.950 . S
C1396 H1388 0.950 . S
C1396 C1397 1.386 . S
C1396 C1398 1.391 . S
C1397 C1396 1.386 . S
C1397 C1401 1.393 . S
C1398 H1390 0.950 . S
C1398 C1396 1.391 . S
C1398 C1399 1.400 1_554 S
C1399 C1398 1.400 1_556 S
C1399 C1400 1.398 . S
C1399 C1405 1.491 . S
C1400 H1391 0.950 . S
C1400 C1399 1.398 . S
C1400 C1401 1.391 1_556 S
C1401 H1389 0.950 . S
C1401 C1397 1.393 . S
C1401 C1400 1.391 1_554 S
C1402 H1392 0.950 . S
C1402 C1403 1.386 . S
C1402 C1404 1.391 . S
C1403 C1402 1.386 . S
C1403 C1407 1.393 . S
C1404 H1393 0.950 . S
C1404 C1402 1.391 . S
C1404 C1405 1.400 . S
C1405 C1399 1.491 . S
C1405 C1404 1.400 . S
C1405 C1406 1.398 . S
C1406 H1394 0.950 . S
C1406 C1405 1.398 . S
C1406 C1407 1.391 . S
C1407 H1395 0.950 . S
C1407 C1403 1.393 . S
C1407 C1406 1.391 . S
H1408 C1416 0.950 . S
H1409 C1421 0.950 . S
H1410 C1418 0.950 . S
H1411 C1420 0.950 . S
H1412 C1422 0.950 . S
H1413 C1424 0.950 . S
H1414 C1426 0.950 . S
H1415 C1427 0.950 . S
C1416 H1408 0.950 . S
C1416 C1417 1.386 . S
C1416 C1418 1.391 . S
C1417 C1416 1.386 . S
C1417 C1421 1.393 . S
C1418 H1410 0.950 . S
C1418 C1416 1.391 . S
C1418 C1419 1.400 . S
C1419 C1418 1.400 . S
C1419 C1420 1.398 . S
C1419 C1425 1.491 . S
C1420 H1411 0.950 . S
C1420 C1419 1.398 . S
C1420 C1421 1.391 . S
C1421 H1409 0.950 . S
C1421 C1417 1.393 . S
C1421 C1420 1.391 . S
C1422 H1412 0.950 . S
C1422 C1423 1.386 . S
C1422 C1424 1.391 . S
C1423 C1422 1.386 . S
C1423 C1427 1.393 . S
C1424 H1413 0.950 . S
C1424 C1422 1.391 . S
C1424 C1425 1.400 . S
C1425 C1419 1.491 . S
C1425 C1424 1.400 . S
C1425 C1426 1.398 . S
C1426 H1414 0.950 . S
C1426 C1425 1.398 . S
C1426 C1427 1.391 . S
C1427 H1415 0.950 . S
C1427 C1423 1.393 . S
C1427 C1426 1.391 . S
H1428 C1436 0.950 . S
H1429 C1441 0.950 . S
H1430 C1438 0.950 . S
H1431 C1440 0.950 . S
H1432 C1442 0.950 . S
H1433 C1444 0.950 . S
H1434 C1446 0.950 . S
H1435 C1447 0.950 . S
C1436 H1428 0.950 . S
C1436 C1437 1.386 . S
C1436 C1438 1.391 . S
C1437 C1436 1.386 . S
C1437 C1441 1.393 . S
C1438 H1430 0.950 . S
C1438 C1436 1.391 . S
C1438 C1439 1.400 . S
C1439 C1438 1.400 . S
C1439 C1440 1.398 . S
C1439 C1445 1.491 . S
C1440 H1431 0.950 . S
C1440 C1439 1.398 . S
C1440 C1441 1.391 . S
C1441 H1429 0.950 . S
C1441 C1437 1.393 . S
C1441 C1440 1.391 . S
C1442 H1432 0.950 . S
C1442 C1443 1.386 . S
C1442 C1444 1.391 . S
C1443 C1442 1.386 . S
C1443 C1447 1.393 . S
C1444 H1433 0.950 . S
C1444 C1442 1.391 . S
C1444 C1445 1.400 . S
C1445 C1439 1.491 . S
C1445 C1444 1.400 . S
C1445 C1446 1.398 . S
C1446 H1434 0.950 . S
C1446 C1445 1.398 . S
C1446 C1447 1.391 . S
C1447 H1435 0.950 . S
C1447 C1443 1.393 . S
C1447 C1446 1.391 . S
H1448 C1456 0.950 . S
H1449 C1461 0.950 . S
H1450 C1458 0.950 . S
H1451 C1460 0.950 . S
H1452 C1462 0.950 . S
H1453 C1464 0.950 . S
H1454 C1466 0.950 . S
H1455 C1467 0.950 . S
C1456 H1448 0.950 . S
C1456 C1457 1.386 . S
C1456 C1458 1.391 . S
C1457 C1456 1.386 . S
C1457 C1461 1.393 . S
C1458 H1450 0.950 . S
C1458 C1456 1.391 . S
C1458 C1459 1.400 . S
C1459 C1458 1.400 . S
C1459 C1460 1.398 . S
C1459 C1465 1.491 . S
C1460 H1451 0.950 . S
C1460 C1459 1.398 . S
C1460 C1461 1.391 . S
C1461 H1449 0.950 . S
C1461 C1457 1.393 . S
C1461 C1460 1.391 . S
C1462 H1452 0.950 . S
C1462 C1463 1.386 . S
C1462 C1464 1.391 . S
C1463 C1462 1.386 . S
C1463 C1467 1.393 . S
C1464 H1453 0.950 . S
C1464 C1462 1.391 . S
C1464 C1465 1.400 . S
C1465 C1459 1.491 . S
C1465 C1464 1.400 . S
C1465 C1466 1.398 . S
C1466 H1454 0.950 . S
C1466 C1465 1.398 . S
C1466 C1467 1.391 . S
C1467 H1455 0.950 . S
C1467 C1463 1.393 . S
C1467 C1466 1.391 . S
H1468 C1476 0.950 . S
H1469 C1481 0.950 . S
H1470 C1478 0.950 . S
H1471 C1480 0.950 . S
H1472 C1482 0.950 1_554 S
H1473 C1484 0.950 . S
H1474 C1486 0.950 . S
H1475 C1487 0.950 . S
C1476 H1468 0.950 . S
C1476 C1477 1.386 . S
C1476 C1478 1.391 . S
C1477 C1476 1.386 . S
C1477 C1481 1.393 . S
C1478 H1470 0.950 . S
C1478 C1476 1.391 . S
C1478 C1479 1.400 . S
C1479 C1478 1.400 . S
C1479 C1480 1.398 . S
C1479 C1485 1.491 . S
C1480 H1471 0.950 . S
C1480 C1479 1.398 . S
C1480 C1481 1.391 . S
C1481 H1469 0.950 . S
C1481 C1477 1.393 . S
C1481 C1480 1.391 . S
C1482 H1472 0.950 1_556 S
C1482 C1483 1.386 . S
C1482 C1484 1.391 1_556 S
C1483 C1482 1.386 . S
C1483 C1487 1.393 . S
C1484 H1473 0.950 . S
C1484 C1482 1.391 1_554 S
C1484 C1485 1.400 . S
C1485 C1479 1.491 . S
C1485 C1484 1.400 . S
C1485 C1486 1.398 1_554 S
C1486 H1474 0.950 . S
C1486 C1485 1.398 1_556 S
C1486 C1487 1.391 . S
C1487 H1475 0.950 . S
C1487 C1483 1.393 . S
C1487 C1486 1.391 . S
H1488 C1496 0.950 . S
H1489 C1501 0.950 . S
H1490 C1498 0.950 . S
H1491 C1500 0.950 . S
H1492 C1502 0.950 . S
H1493 C1504 0.950 . S
H1494 C1506 0.950 . S
H1495 C1507 0.950 . S
C1496 H1488 0.950 . S
C1496 C1497 1.386 . S
C1496 C1498 1.391 . S
C1497 C1496 1.386 . S
C1497 C1501 1.393 . S
C1498 H1490 0.950 . S
C1498 C1496 1.391 . S
C1498 C1499 1.400 . S
C1499 C1498 1.400 . S
C1499 C1500 1.398 . S
C1499 C1505 1.491 . S
C1500 H1491 0.950 . S
C1500 C1499 1.398 . S
C1500 C1501 1.391 . S
C1501 H1489 0.950 . S
C1501 C1497 1.393 . S
C1501 C1500 1.391 . S
C1502 H1492 0.950 . S
C1502 C1503 1.386 . S
C1502 C1504 1.391 . S
C1503 C1502 1.386 . S
C1503 C1507 1.393 . S
C1504 H1493 0.950 . S
C1504 C1502 1.391 . S
C1504 C1505 1.400 . S
C1505 C1499 1.491 . S
C1505 C1504 1.400 . S
C1505 C1506 1.398 . S
C1506 H1494 0.950 . S
C1506 C1505 1.398 . S
C1506 C1507 1.391 . S
C1507 H1495 0.950 . S
C1507 C1503 1.393 . S
C1507 C1506 1.391 . S
H1508 C1516 0.950 . S
H1509 C1521 0.950 . S
H1510 C1518 0.950 . S
H1511 C1520 0.950 . S
H1512 C1522 0.950 . S
H1513 C1524 0.950 . S
H1514 C1526 0.950 . S
H1515 C1527 0.950 . S
C1516 H1508 0.950 . S
C1516 C1517 1.386 . S
C1516 C1518 1.391 . S
C1517 C1516 1.386 . S
C1517 C1521 1.393 . S
C1518 H1510 0.950 . S
C1518 C1516 1.391 . S
C1518 C1519 1.400 . S
C1519 C1518 1.400 . S
C1519 C1520 1.398 . S
C1519 C1525 1.491 . S
C1520 H1511 0.950 . S
C1520 C1519 1.398 . S
C1520 C1521 1.391 . S
C1521 H1509 0.950 . S
C1521 C1517 1.393 . S
C1521 C1520 1.391 . S
C1522 H1512 0.950 . S
C1522 C1523 1.386 . S
C1522 C1524 1.391 . S
C1523 C1522 1.386 . S
C1523 C1527 1.393 . S
C1524 H1513 0.950 . S
C1524 C1522 1.391 . S
C1524 C1525 1.400 . S
C1525 C1519 1.491 . S
C1525 C1524 1.400 . S
C1525 C1526 1.398 . S
C1526 H1514 0.950 . S
C1526 C1525 1.398 . S
C1526 C1527 1.391 . S
C1527 H1515 0.950 . S
C1527 C1523 1.393 . S
C1527 C1526 1.391 . S
H1528 C1536 0.950 . S
H1529 C1541 0.950 . S
H1530 C1538 0.950 . S
H1531 C1540 0.950 . S
H1532 C1542 0.950 . S
H1533 C1544 0.950 . S
H1534 C1546 0.950 . S
H1535 C1547 0.950 . S
C1536 H1528 0.950 . S
C1536 C1537 1.386 . S
C1536 C1538 1.391 . S
C1537 C1536 1.386 . S
C1537 C1541 1.393 . S
C1538 H1530 0.950 . S
C1538 C1536 1.391 . S
C1538 C1539 1.400 . S
C1539 C1538 1.400 . S
C1539 C1540 1.398 . S
C1539 C1545 1.491 . S
C1540 H1531 0.950 . S
C1540 C1539 1.398 . S
C1540 C1541 1.391 . S
C1541 H1529 0.950 . S
C1541 C1537 1.393 . S
C1541 C1540 1.391 . S
C1542 H1532 0.950 . S
C1542 C1543 1.386 . S
C1542 C1544 1.391 . S
C1543 C1542 1.386 . S
C1543 C1547 1.393 . S
C1544 H1533 0.950 . S
C1544 C1542 1.391 . S
C1544 C1545 1.400 . S
C1545 C1539 1.491 . S
C1545 C1544 1.400 . S
C1545 C1546 1.398 . S
C1546 H1534 0.950 . S
C1546 C1545 1.398 . S
C1546 C1547 1.391 . S
C1547 H1535 0.950 . S
C1547 C1543 1.393 . S
C1547 C1546 1.391 . S
H1548 C1556 0.950 . S
H1549 C1561 0.950 . S
H1550 C1558 0.950 . S
H1551 C1560 0.950 . S
H1552 C1562 0.950 . S
H1553 C1564 0.950 . S
H1554 C1566 0.950 . S
H1555 C1567 0.950 . S
C1556 H1548 0.950 . S
C1556 C1557 1.386 . S
C1556 C1558 1.391 . S
C1557 C1556 1.386 . S
C1557 C1561 1.393 . S
C1558 H1550 0.950 . S
C1558 C1556 1.391 . S
C1558 C1559 1.400 . S
C1559 C1558 1.400 . S
C1559 C1560 1.398 . S
C1559 C1565 1.491 . S
C1560 H1551 0.950 . S
C1560 C1559 1.398 . S
C1560 C1561 1.391 . S
C1561 H1549 0.950 . S
C1561 C1557 1.393 . S
C1561 C1560 1.391 . S
C1562 H1552 0.950 . S
C1562 C1563 1.386 . S
C1562 C1564 1.391 . S
C1563 C1562 1.386 . S
C1563 C1567 1.393 . S
C1564 H1553 0.950 . S
C1564 C1562 1.391 . S
C1564 C1565 1.400 . S
C1565 C1559 1.491 . S
C1565 C1564 1.400 . S
C1565 C1566 1.398 . S
C1566 H1554 0.950 . S
C1566 C1565 1.398 . S
C1566 C1567 1.391 . S
C1567 H1555 0.950 . S
C1567 C1563 1.393 . S
C1567 C1566 1.391 . S
H1568 C1576 0.950 . S
H1569 C1581 0.950 . S
H1570 C1578 0.950 . S
H1571 C1580 0.950 . S
H1572 C1582 0.950 . S
H1573 C1584 0.950 . S
H1574 C1586 0.950 . S
H1575 C1587 0.950 . S
C1576 H1568 0.950 . S
C1576 C1577 1.386 . S
C1576 C1578 1.391 . S
C1577 C1576 1.386 . S
C1577 C1581 1.393 . S
C1578 H1570 0.950 . S
C1578 C1576 1.391 . S
C1578 C1579 1.400 . S
C1579 C1578 1.400 . S
C1579 C1580 1.398 . S
C1579 C1585 1.491 . S
C1580 H1571 0.950 . S
C1580 C1579 1.398 . S
C1580 C1581 1.391 . S
C1581 H1569 0.950 . S
C1581 C1577 1.393 . S
C1581 C1580 1.391 . S
C1582 H1572 0.950 . S
C1582 C1583 1.386 . S
C1582 C1584 1.391 . S
C1583 C1582 1.386 . S
C1583 C1587 1.393 . S
C1584 H1573 0.950 . S
C1584 C1582 1.391 . S
C1584 C1585 1.400 1_556 S
C1585 C1579 1.491 . S
C1585 C1584 1.400 1_554 S
C1585 C1586 1.398 . S
C1586 H1574 0.950 . S
C1586 C1585 1.398 . S
C1586 C1587 1.391 1_554 S
C1587 H1575 0.950 . S
C1587 C1583 1.393 . S
C1587 C1586 1.391 1_556 S
H1588 C1596 0.950 . S
H1589 C1601 0.950 . S
H1590 C1598 0.950 . S
H1591 C1600 0.950 . S
H1592 C1602 0.950 . S
H1593 C1604 0.950 . S
H1594 C1606 0.950 . S
H1595 C1607 0.950 . S
C1596 H1588 0.950 . S
C1596 C1597 1.386 . S
C1596 C1598 1.391 . S
C1597 C1596 1.386 . S
C1597 C1601 1.393 . S
C1598 H1590 0.950 . S
C1598 C1596 1.391 . S
C1598 C1599 1.400 . S
C1599 C1598 1.400 . S
C1599 C1600 1.398 . S
C1599 C1605 1.491 . S
C1600 H1591 0.950 . S
C1600 C1599 1.398 . S
C1600 C1601 1.391 . S
C1601 H1589 0.950 . S
C1601 C1597 1.393 . S
C1601 C1600 1.391 . S
C1602 H1592 0.950 . S
C1602 C1603 1.386 . S
C1602 C1604 1.391 . S
C1603 C1602 1.386 . S
C1603 C1607 1.393 . S
C1604 H1593 0.950 . S
C1604 C1602 1.391 . S
C1604 C1605 1.400 . S
C1605 C1599 1.491 . S
C1605 C1604 1.400 . S
C1605 C1606 1.398 . S
C1606 H1594 0.950 . S
C1606 C1605 1.398 . S
C1606 C1607 1.391 . S
C1607 H1595 0.950 . S
C1607 C1603 1.393 . S
C1607 C1606 1.391 . S
H1608 C1616 0.950 . S
H1609 C1621 0.950 . S
H1610 C1618 0.950 . S
H1611 C1620 0.950 . S
H1612 C1622 0.950 . S
H1613 C1624 0.950 . S
H1614 C1626 0.950 . S
H1615 C1627 0.950 . S
C1616 H1608 0.950 . S
C1616 C1617 1.386 . S
C1616 C1618 1.391 . S
C1617 C1616 1.386 . S
C1617 C1621 1.393 . S
C1618 H1610 0.950 . S
C1618 C1616 1.391 . S
C1618 C1619 1.400 . S
C1619 C1618 1.400 . S
C1619 C1620 1.398 . S
C1619 C1625 1.491 . S
C1620 H1611 0.950 . S
C1620 C1619 1.398 . S
C1620 C1621 1.391 . S
C1621 H1609 0.950 . S
C1621 C1617 1.393 . S
C1621 C1620 1.391 . S
C1622 H1612 0.950 . S
C1622 C1623 1.386 . S
C1622 C1624 1.391 . S
C1623 C1622 1.386 . S
C1623 C1627 1.393 . S
C1624 H1613 0.950 . S
C1624 C1622 1.391 . S
C1624 C1625 1.400 . S
C1625 C1619 1.491 . S
C1625 C1624 1.400 . S
C1625 C1626 1.398 . S
C1626 H1614 0.950 . S
C1626 C1625 1.398 . S
C1626 C1627 1.391 . S
C1627 H1615 0.950 . S
C1627 C1623 1.393 . S
C1627 C1626 1.391 . S
H1628 C1636 0.950 . S
H1629 C1641 0.950 . S
H1630 C1638 0.950 . S
H1631 C1640 0.950 . S
H1632 C1642 0.950 . S
H1633 C1644 0.950 . S
H1634 C1646 0.950 . S
H1635 C1647 0.950 . S
C1636 H1628 0.950 . S
C1636 C1637 1.386 . S
C1636 C1638 1.391 . S
C1637 C1636 1.386 . S
C1637 C1641 1.393 . S
C1638 H1630 0.950 . S
C1638 C1636 1.391 . S
C1638 C1639 1.400 . S
C1639 C1638 1.400 . S
C1639 C1640 1.398 . S
C1639 C1645 1.491 . S
C1640 H1631 0.950 . S
C1640 C1639 1.398 . S
C1640 C1641 1.391 . S
C1641 H1629 0.950 . S
C1641 C1637 1.393 . S
C1641 C1640 1.391 . S
C1642 H1632 0.950 . S
C1642 C1643 1.386 . S
C1642 C1644 1.391 . S
C1643 C1642 1.386 . S
C1643 C1647 1.393 . S
C1644 H1633 0.950 . S
C1644 C1642 1.391 . S
C1644 C1645 1.400 . S
C1645 C1639 1.491 . S
C1645 C1644 1.400 . S
C1645 C1646 1.398 . S
C1646 H1634 0.950 . S
C1646 C1645 1.398 . S
C1646 C1647 1.391 . S
C1647 H1635 0.950 . S
C1647 C1643 1.393 . S
C1647 C1646 1.391 . S
H1648 C1656 0.950 . S
H1649 C1661 0.950 1_556 S
H1650 C1658 0.950 . S
H1651 C1660 0.950 . S
H1652 C1662 0.950 . S
H1653 C1664 0.950 . S
H1654 C1666 0.950 . S
H1655 C1667 0.950 . S
C1656 H1648 0.950 . S
C1656 C1657 1.386 . S
C1656 C1658 1.391 . S
C1657 C1656 1.386 . S
C1657 C1661 1.393 . S
C1658 H1650 0.950 . S
C1658 C1656 1.391 . S
C1658 C1659 1.400 1_554 S
C1659 C1658 1.400 1_556 S
C1659 C1660 1.398 . S
C1659 C1665 1.491 . S
C1660 H1651 0.950 . S
C1660 C1659 1.398 . S
C1660 C1661 1.391 1_556 S
C1661 H1649 0.950 1_554 S
C1661 C1657 1.393 . S
C1661 C1660 1.391 1_554 S
C1662 H1652 0.950 . S
C1662 C1663 1.386 . S
C1662 C1664 1.391 . S
C1663 C1662 1.386 . S
C1663 C1667 1.393 . S
C1664 H1653 0.950 . S
C1664 C1662 1.391 . S
C1664 C1665 1.400 . S
C1665 C1659 1.491 . S
C1665 C1664 1.400 . S
C1665 C1666 1.398 . S
C1666 H1654 0.950 . S
C1666 C1665 1.398 . S
C1666 C1667 1.391 . S
C1667 H1655 0.950 . S
C1667 C1663 1.393 . S
C1667 C1666 1.391 . S
H1668 C1676 0.950 . S
H1669 C1681 0.950 . S
H1670 C1678 0.950 . S
H1671 C1680 0.950 . S
H1672 C1682 0.950 . S
H1673 C1684 0.950 . S
H1674 C1686 0.950 . S
H1675 C1687 0.950 . S
C1676 H1668 0.950 . S
C1676 C1677 1.386 . S
C1676 C1678 1.391 . S
C1677 C1676 1.386 . S
C1677 C1681 1.393 . S
C1678 H1670 0.950 . S
C1678 C1676 1.391 . S
C1678 C1679 1.400 . S
C1679 C1678 1.400 . S
C1679 C1680 1.398 . S
C1679 C1685 1.491 . S
C1680 H1671 0.950 . S
C1680 C1679 1.398 . S
C1680 C1681 1.391 . S
C1681 H1669 0.950 . S
C1681 C1677 1.393 . S
C1681 C1680 1.391 . S
C1682 H1672 0.950 . S
C1682 C1683 1.386 . S
C1682 C1684 1.391 . S
C1683 C1682 1.386 . S
C1683 C1687 1.393 . S
C1684 H1673 0.950 . S
C1684 C1682 1.391 . S
C1684 C1685 1.400 . S
C1685 C1679 1.491 . S
C1685 C1684 1.400 . S
C1685 C1686 1.398 . S
C1686 H1674 0.950 . S
C1686 C1685 1.398 . S
C1686 C1687 1.391 . S
C1687 H1675 0.950 . S
C1687 C1683 1.393 . S
C1687 C1686 1.391 . S
H1688 C1696 0.950 . S
H1689 C1701 0.950 . S
H1690 C1698 0.950 . S
H1691 C1700 0.950 . S
H1692 C1702 0.950 . S
H1693 C1704 0.950 . S
H1694 C1706 0.950 . S
H1695 C1707 0.950 . S
C1696 H1688 0.950 . S
C1696 C1697 1.386 . S
C1696 C1698 1.391 . S
C1697 C1696 1.386 . S
C1697 C1701 1.393 . S
C1698 H1690 0.950 . S
C1698 C1696 1.391 . S
C1698 C1699 1.400 . S
C1699 C1698 1.400 . S
C1699 C1700 1.398 . S
C1699 C1705 1.491 . S
C1700 H1691 0.950 . S
C1700 C1699 1.398 . S
C1700 C1701 1.391 . S
C1701 H1689 0.950 . S
C1701 C1697 1.393 . S
C1701 C1700 1.391 . S
C1702 H1692 0.950 . S
C1702 C1703 1.386 . S
C1702 C1704 1.391 . S
C1703 C1702 1.386 . S
C1703 C1707 1.393 . S
C1704 H1693 0.950 . S
C1704 C1702 1.391 . S
C1704 C1705 1.400 . S
C1705 C1699 1.491 . S
C1705 C1704 1.400 . S
C1705 C1706 1.398 . S
C1706 H1694 0.950 . S
C1706 C1705 1.398 . S
C1706 C1707 1.391 . S
C1707 H1695 0.950 . S
C1707 C1703 1.393 . S
C1707 C1706 1.391 . S
H1708 C1716 0.950 . S
H1709 C1721 0.950 . S
H1710 C1718 0.950 . S
H1711 C1720 0.950 . S
H1712 C1722 0.950 . S
H1713 C1724 0.950 . S
H1714 C1726 0.950 . S
H1715 C1727 0.950 . S
C1716 H1708 0.950 . S
C1716 C1717 1.386 . S
C1716 C1718 1.391 . S
C1717 C1716 1.386 . S
C1717 C1721 1.393 . S
C1718 H1710 0.950 . S
C1718 C1716 1.391 . S
C1718 C1719 1.400 . S
C1719 C1718 1.400 . S
C1719 C1720 1.398 . S
C1719 C1725 1.491 . S
C1720 H1711 0.950 . S
C1720 C1719 1.398 . S
C1720 C1721 1.391 . S
C1721 H1709 0.950 . S
C1721 C1717 1.393 . S
C1721 C1720 1.391 . S
C1722 H1712 0.950 . S
C1722 C1723 1.386 . S
C1722 C1724 1.391 . S
C1723 C1722 1.386 . S
C1723 C1727 1.393 . S
C1724 H1713 0.950 . S
C1724 C1722 1.391 . S
C1724 C1725 1.400 . S
C1725 C1719 1.491 . S
C1725 C1724 1.400 . S
C1725 C1726 1.398 . S
C1726 H1714 0.950 . S
C1726 C1725 1.398 . S
C1726 C1727 1.391 . S
C1727 H1715 0.950 . S
C1727 C1723 1.393 . S
C1727 C1726 1.391 . S
C457 C4 1.234 . S
C463 C186 1.217 . S
C477 C354 1.200 . S
C483 C18 1.185 . S
C497 C32 1.249 . S
C503 C214 1.266 . S
C517 C46 1.225 . S
C523 C340 1.240 . S
C537 C60 1.189 . S
C543 C242 1.214 . S
C557 C74 1.238 . S
C563 C312 1.239 . S
C577 C88 1.219 . S
C583 C270 1.219 . S
C597 C438 1.210 . S
C603 C102 1.210 . S
C617 C298 1.196 . S
C623 C116 1.190 . S
C637 C130 1.226 . S
C643 C256 1.227 . S
C657 C326 1.193 . S
C663 C144 1.193 . S
C677 C158 1.228 . S
C683 C228 1.247 . S
C697 C200 1.174 . S
C703 C172 1.189 . S
C717 C284 1.211 . S
C723 C396 1.211 . S
C737 C410 1.206 . S
C743 C368 1.226 . S
C757 C424 1.245 . S
C763 C382 1.263 . S
C777 C12 1.531 . S
C783 C26 1.524 . S
C797 C33 1.363 . S
C803 C25 1.469 . S
C817 C54 1.530 . S
C823 C40 1.536 . S
C837 C53 1.479 . S
C843 C5 1.358 . S
C857 C110 1.498 . S
C863 C68 1.502 . S
C877 C81 1.503 . S
C883 C61 1.383 . S
C897 C96 1.482 . S
C903 C82 1.478 . S
C917 C89 1.398 . S
C923 C109 1.506 . S
C937 C131 1.377 . S
C943 C11 1.489 . S
C957 C123 1.424 . S
C963 C47 1.310 . S
C977 C151 1.475 . S
C983 C19 1.344 . S
C997 C389 1.509 . S
C1003 C103 1.380 . S
C1017 C397 1.407 . S
C1023 C39 1.516 . S
C1037 C159 1.308 . S
C1043 C67 1.434 . S
C1057 C95 1.473 . S
C1063 C173 1.354 . S
C1077 C201 1.341 . S
C1083 C187 1.370 . S
C1097 C222 1.458 . S
C1103 C207 1.407 . S
C1117 C229 1.355 . S
C1123 C215 1.343 . S
C1137 C194 1.465 . S
C1143 C235 1.427 . S
C1157 C243 1.326 . S
C1163 C291 1.466 . S
C1177 C250 1.577 . S
C1183 C264 1.579 . S
C1197 C277 1.511 . S
C1203 C263 1.505 . S
C1217 C271 1.365 . S
C1223 C292 1.522 . S
C1237 C193 1.441 . S
C1243 C313 1.349 . S
C1257 C305 1.452 . S
C1263 C236 1.498 . S
C1277 C334 1.543 . S
C1283 C208 1.541 . S
C1297 C431 1.402 . S
C1303 C285 1.303 . S
C1317 C439 1.281 . S
C1323 C221 1.384 . S
C1337 C249 1.442 . S
C1343 C348 1.498 . S
C1357 C362 1.540 . S
C1363 C278 1.537 . S
C1377 C180 1.526 . S
C1383 C376 1.532 . S
C1397 C383 1.333 . S
C1403 C179 1.449 . S
C1417 C166 1.531 . S
C1423 C390 1.537 . S
C1437 C165 1.492 . S
C1443 C369 1.365 . S
C1457 C124 1.502 . S
C1463 C404 1.507 . S
C1477 C137 1.486 . S
C1483 C117 1.367 . S
C1497 C152 1.475 . S
C1503 C138 1.473 . S
C1517 C145 1.386 . S
C1523 C403 1.498 . S
C1537 C375 1.503 . S
C1543 C75 1.397 . S
C1557 C355 1.324 . S
C1563 C411 1.375 . S
C1577 C361 1.412 . S
C1583 C432 1.457 . S
C1597 C425 1.325 . S
C1603 C341 1.355 . S
C1617 C347 1.412 . S
C1623 C418 1.466 . S
C1637 C445 1.474 . S
C1643 C299 1.340 . S
C1657 C306 1.580 . S
C1663 C320 1.580 . S
C1677 C333 1.518 . S
C1683 C319 1.510 . S
C1697 C327 1.364 . S
C1703 C446 1.511 . S
C1717 C417 1.454 . S
C1723 C257 1.335 . S
