# Generated by pormake.
# Topology unc, (4)-cn, num edge types: 1
# Building blocks:
#     Node 0, Type 0, BuildingBlock: UXUYUI_clean_sbu_0, # of connection points: 4
#     Node 1, Type 0, BuildingBlock: UXUYUI_clean_sbu_0, # of connection points: 4
#     Node 2, Type 0, BuildingBlock: UXUYUI_clean_sbu_0, # of connection points: 4
#     Node 3, Type 0, BuildingBlock: UXUYUI_clean_sbu_0, # of connection points: 4
#     Edge 4, Type (0, 0), BuildingBlock: CIFDUS_clean_linker_0, # of connection points: 2
#     Edge 5, Type (0, 0), BuildingBlock: CIFDUS_clean_linker_0, # of connection points: 2
#     Edge 6, Type (0, 0), BuildingBlock: CIFDUS_clean_linker_0, # of connection points: 2
#     Edge 7, Type (0, 0), BuildingBlock: CIFDUS_clean_linker_0, # of connection points: 2
#     Edge 8, Type (0, 0), BuildingBlock: CIFDUS_clean_linker_0, # of connection points: 2
#     Edge 9, Type (0, 0), BuildingBlock: CIFDUS_clean_linker_0, # of connection points: 2
#     Edge 10, Type (0, 0), BuildingBlock: CIFDUS_clean_linker_0, # of connection points: 2
#     Edge 11, Type (0, 0), BuildingBlock: CIFDUS_clean_linker_0, # of connection points: 2
# Relax obj value: 0.184
# Max RMSD: 0.213
# Mean RMSD: 0.213
data_MOF--net-unc--node1-UXUYUI_clean_sbu_0--edge1-CIFDUS_clean_linker_0
_symmetry_space_group_name_H-M    P1
_symmetry_Int_Tables_number       1
_symmetry_cell_setting            triclinic
loop_
_symmetry_equiv_pos_as_xyz
'x, y, z'
_cell_length_a     39.639254
_cell_length_b     39.610054
_cell_length_c     29.942246
_cell_angle_alpha  89.902995
_cell_angle_beta   90.034201
_cell_angle_gamma 90.0702
loop_
_atom_site_label
_atom_site_type_symbol
_atom_site_fract_x
_atom_site_fract_y
_atom_site_fract_z
_atom_type_partial_charge
Li0 Li 0.02671 0.68683 0.01458 0.0
Li1 Li 0.98227 0.64627 0.03953 0.0
Li2 Li 0.00791 0.6405 0.96649 0.0
Li3 Li 0.96823 0.68549 0.98044 0.0
C4 C 0.05207 0.61179 0.02171 0.0
N5 N 0.09502 0.55765 0.01028 0.0
C6 C 0.04257 0.57966 0.03646 0.0
C7 C 0.08352 0.61648 0.00159 0.0
C8 C 0.06461 0.55259 0.03027 0.0
C9 C 0.10484 0.58876 0.99598 0.0
C10 C 0.96909 0.70162 0.08449 0.0
C11 C 0.92221 0.70173 0.13576 0.0
N12 N 0.94367 0.70945 0.16971 0.0
C13 C 0.99066 0.7098 0.11979 0.0
C14 C 0.93456 0.69778 0.0924 0.0
C15 C 0.97732 0.71357 0.16267 0.0
C16 C 0.0667 0.74562 0.01435 0.0
N17 N 0.06232 0.71498 0.034 0.0
C18 C 0.10708 0.72594 0.08541 0.0
C19 C 0.08194 0.70471 0.06867 0.0
C20 C 0.11219 0.75778 0.06584 0.0
C21 C 0.09185 0.76745 0.02959 0.0
H22 H 0.05043 0.75317 0.9871 0.0
H23 H 0.07763 0.68024 0.08376 0.0
C24 C 0.94225 0.59772 0.08422 0.0
N25 N 0.96766 0.62046 0.08934 0.0
C26 C 0.93511 0.57452 0.1181 0.0
C27 C 0.97976 0.5993 0.16233 0.0
C28 C 0.9862 0.62183 0.12748 0.0
C29 C 0.95442 0.57474 0.15745 0.0
H30 H 0.92855 0.59655 0.05307 0.0
H31 H 0.00704 0.63936 0.12996 0.0
C32 C 0.03254 0.69382 0.91365 0.0
N33 N 0.07195 0.70433 0.83878 0.0
C34 C 0.01746 0.69778 0.87176 0.0
C35 C 0.06766 0.6954 0.9175 0.0
C36 C 0.03782 0.70299 0.8343 0.0
C37 C 0.08714 0.7007 0.87925 0.0
C38 C 0.93005 0.63178 0.96097 0.0
C39 C 0.92962 0.62039 0.91679 0.0
C40 C 0.89964 0.63874 0.98265 0.0
C41 C 0.89873 0.61638 0.89494 0.0
C42 C 0.86927 0.63447 0.95963 0.0
N43 N 0.86945 0.62348 0.91662 0.0
C44 C 0.00578 0.57544 0.93599 0.0
C45 C 0.03927 0.6092 0.88801 0.0
C46 C 0.0087 0.54796 0.90732 0.0
N47 N 0.02029 0.60553 0.92555 0.0
C48 C 0.04256 0.5824 0.858 0.0
C49 C 0.02641 0.5515 0.86698 0.0
H50 H 0.99088 0.57313 0.9661 0.0
H51 H 0.05102 0.633 0.88034 0.0
C52 C 0.92357 0.741 0.97819 0.0
N53 N 0.93475 0.71396 0.9546 0.0
C54 C 0.90101 0.76383 0.95886 0.0
C55 C 0.90142 0.7302 0.89161 0.0
C56 C 0.92422 0.70828 0.91207 0.0
C57 C 0.88979 0.75873 0.91479 0.0
H58 H 0.93285 0.74532 0.01166 0.0
H59 H 0.93395 0.68704 0.89364 0.0
O60 O 0.0306 0.63847 0.02671 0.0
O61 O 0.98173 0.69721 0.04244 0.0
O62 O 0.01297 0.68921 0.95076 0.0
O63 O 0.96003 0.63586 0.98298 0.0
H64 H 0.01829 0.57563 0.05211 0.0
H65 H 0.09131 0.64123 0.99029 0.0
H66 H 0.05752 0.52754 0.04125 0.0
H67 H 0.1292 0.59197 0.98026 0.0
H68 H 0.89556 0.69867 0.14241 0.0
H69 H 0.01743 0.71294 0.11421 0.0
H70 H 0.91752 0.69173 0.06535 0.0
H71 H 0.99374 0.71971 0.19037 0.0
H72 H 0.1224 0.71755 0.11326 0.0
H73 H 0.09481 0.79195 0.01396 0.0
H74 H 0.91535 0.556 0.11307 0.0
H75 H 0.99568 0.5999 0.19173 0.0
H76 H 0.99036 0.69676 0.86814 0.0
H77 H 0.0798 0.69245 0.94957 0.0
H78 H 0.02649 0.70599 0.80166 0.0
H79 H 0.11434 0.7019 0.88173 0.0
H80 H 0.95287 0.61517 0.89925 0.0
H81 H 0.89948 0.6474 0.01687 0.0
H82 H 0.89804 0.60776 0.86069 0.0
H83 H 0.84556 0.63988 0.97597 0.0
H84 H 0.99645 0.52444 0.91618 0.0
H85 H 0.05635 0.58638 0.82723 0.0
H86 H 0.89327 0.78574 0.97782 0.0
H87 H 0.8932 0.7249 0.85785 0.0
Li88 Li 0.35422 0.99031 0.28686 0.0
Li89 Li 0.31354 0.03069 0.26353 0.0
Li90 Li 0.30807 0.96923 0.24057 0.0
Li91 Li 0.35247 0.0083 0.21002 0.0
C92 C 0.30277 0.97778 0.34361 0.0
N93 N 0.29809 0.95345 0.42996 0.0
C94 C 0.31443 0.9972 0.37939 0.0
C95 C 0.28867 0.94599 0.35177 0.0
C96 C 0.3119 0.98443 0.42278 0.0
C97 C 0.28651 0.93415 0.39567 0.0
C98 C 0.36655 0.06857 0.2762 0.0
C99 C 0.36406 0.12827 0.2604 0.0
N100 N 0.37151 0.13496 0.30384 0.0
C101 C 0.37428 0.07606 0.32068 0.0
C102 C 0.36153 0.09489 0.24577 0.0
C103 C 0.37665 0.10976 0.33399 0.0
C104 C 0.41454 0.99565 0.33481 0.0
N105 N 0.38576 0.97706 0.33239 0.0
C106 C 0.40367 0.94295 0.39397 0.0
C107 C 0.38055 0.95029 0.36012 0.0
C108 C 0.43282 0.96282 0.39853 0.0
C109 C 0.43844 0.98906 0.36785 0.0
H110 H 0.41878 0.01594 0.31129 0.0
H111 H 0.35838 0.93473 0.35623 0.0
C112 C 0.26343 0.08077 0.25073 0.0
N113 N 0.28659 0.06865 0.28016 0.0
C114 C 0.24167 0.10686 0.26317 0.0
C115 C 0.26844 0.10792 0.33564 0.0
C116 C 0.2894 0.08168 0.32195 0.0
C117 C 0.24375 0.12053 0.30638 0.0
H118 H 0.26121 0.06959 0.21796 0.0
H119 H 0.30759 0.07147 0.34501 0.0
C120 C 0.38133 0.93944 0.24301 0.0
N121 N 0.43239 0.89585 0.26752 0.0
C122 C 0.41498 0.94832 0.23557 0.0
C123 C 0.37357 0.90836 0.26262 0.0
C124 C 0.44046 0.92593 0.2483 0.0
C125 C 0.39978 0.88667 0.27483 0.0
C126 C 0.29903 0.01777 0.15928 0.0
C127 C 0.28973 0.99186 0.13013 0.0
C128 C 0.30556 0.05003 0.14236 0.0
C129 C 0.28761 0.99854 0.08439 0.0
C130 C 0.3032 0.0557 0.09641 0.0
N131 N 0.29438 0.03004 0.0686 0.0
C132 C 0.24599 0.9341 0.23991 0.0
C133 C 0.2901 0.90866 0.19841 0.0
C134 C 0.22343 0.90901 0.22633 0.0
N135 N 0.27854 0.93345 0.2257 0.0
C136 C 0.26832 0.88334 0.18357 0.0
C137 C 0.23446 0.88348 0.1973 0.0
H138 H 0.23748 0.95442 0.2612 0.0
H139 H 0.31605 0.90909 0.18727 0.0
C140 C 0.40195 0.04021 0.15462 0.0
N141 N 0.37931 0.01456 0.15829 0.0
C142 C 0.42406 0.04147 0.11828 0.0
C143 C 0.39868 0.99018 0.09016 0.0
C144 C 0.3772 0.98989 0.12696 0.0
C145 C 0.42297 0.01584 0.0859 0.0
H146 H 0.40377 0.05895 0.18069 0.0
H147 H 0.35945 0.9694 0.13133 0.0
O148 O 0.3048 0.98986 0.30086 0.0
O149 O 0.36388 0.0357 0.26252 0.0
O150 O 0.35611 0.96137 0.2319 0.0
O151 O 0.30192 0.01156 0.2041 0.0
H152 H 0.32606 0.02148 0.37369 0.0
H153 H 0.27969 0.93051 0.32453 0.0
H154 H 0.32108 0.99908 0.45072 0.0
H155 H 0.27572 0.90958 0.40245 0.0
H156 H 0.3601 0.14886 0.23721 0.0
H157 H 0.37781 0.05612 0.34493 0.0
H158 H 0.35561 0.08963 0.21127 0.0
H159 H 0.3824 0.11589 0.36836 0.0
H160 H 0.39879 0.92202 0.41638 0.0
H161 H 0.46058 0.00501 0.37014 0.0
H162 H 0.22272 0.11539 0.23968 0.0
H163 H 0.27138 0.11798 0.36903 0.0
H164 H 0.42134 0.97239 0.22059 0.0
H165 H 0.3476 0.90128 0.26885 0.0
H166 H 0.46665 0.93252 0.24301 0.0
H167 H 0.39419 0.8626 0.29029 0.0
H168 H 0.28444 0.96679 0.14259 0.0
H169 H 0.31246 0.07045 0.16445 0.0
H170 H 0.28064 0.97866 0.06143 0.0
H171 H 0.30838 0.0805 0.08285 0.0
H172 H 0.19741 0.91016 0.23724 0.0
H173 H 0.27779 0.86397 0.16139 0.0
H174 H 0.44273 0.06141 0.11661 0.0
H175 H 0.39675 0.97011 0.06577 0.0
Li176 Li 0.01561 0.35661 0.54027 0.0
Li177 Li 0.9727 0.31693 0.51359 0.0
Li178 Li 0.02947 0.31798 0.47954 0.0
Li179 Li 0.99037 0.36376 0.46636 0.0
C180 C 0.03025 0.29133 0.57753 0.0
N181 N 0.05772 0.25913 0.65098 0.0
C182 C 0.00965 0.28168 0.61322 0.0
C183 C 0.06473 0.28399 0.57884 0.0
C184 C 0.02404 0.26563 0.65017 0.0
C185 C 0.07816 0.26785 0.61636 0.0
C186 C 0.93472 0.37576 0.51979 0.0
C187 C 0.88111 0.37037 0.48231 0.0
N188 N 0.8686 0.39583 0.50779 0.0
C189 C 0.92135 0.40187 0.5456 0.0
C190 C 0.91447 0.35984 0.48787 0.0
C191 C 0.88786 0.41165 0.53904 0.0
C192 C 0.04797 0.40998 0.58603 0.0
N193 N 0.0303 0.38081 0.59152 0.0
C194 C 0.02634 0.39033 0.67009 0.0
C195 C 0.01952 0.37072 0.63249 0.0
C196 C 0.044 0.4209 0.66535 0.0
C197 C 0.05542 0.43036 0.62274 0.0
H198 H 0.05509 0.41819 0.55292 0.0
H199 H 0.00437 0.34821 0.63577 0.0
C200 C 0.93387 0.25768 0.51178 0.0
N201 N 0.93779 0.2877 0.53301 0.0
C202 C 0.91081 0.23392 0.52785 0.0
C203 C 0.89584 0.27277 0.58681 0.0
C204 C 0.91916 0.2958 0.56953 0.0
C205 C 0.89178 0.24111 0.5663 0.0
H206 H 0.94926 0.25192 0.48297 0.0
H207 H 0.92323 0.3197 0.58611 0.0
C208 C 0.07213 0.37456 0.48119 0.0
N209 N 0.14026 0.38888 0.47664 0.0
C210 C 0.08492 0.39354 0.44562 0.0
C211 C 0.09391 0.3631 0.5146 0.0
C212 C 0.11947 0.40045 0.44387 0.0
C213 C 0.12829 0.37055 0.51168 0.0
C214 C 0.98973 0.3117 0.40375 0.0
C215 C 0.01413 0.33107 0.38178 0.0
C216 C 0.97063 0.28831 0.37965 0.0
C217 C 0.01904 0.32668 0.33597 0.0
C218 C 0.97629 0.28467 0.33385 0.0
N219 N 0.00018 0.30376 0.31315 0.0
C220 C 0.05966 0.25576 0.46687 0.0
C221 C 0.0881 0.2995 0.42804 0.0
C222 C 0.08293 0.23205 0.45171 0.0
N223 N 0.06285 0.28879 0.45535 0.0
C224 C 0.11208 0.27664 0.41224 0.0
C225 C 0.10981 0.24239 0.42432 0.0
H226 H 0.03898 0.2479 0.48805 0.0
H227 H 0.08973 0.32571 0.41843 0.0
C228 C 0.99308 0.42777 0.42962 0.0
N229 N 0.97689 0.39772 0.42539 0.0
C230 C 0.9862 0.45416 0.40019 0.0
C231 C 0.94543 0.41846 0.36302 0.0
C232 C 0.95321 0.39264 0.39322 0.0
C233 C 0.96223 0.44969 0.36609 0.0
H234 H 0.01178 0.43101 0.4556 0.0
H235 H 0.94062 0.36848 0.39072 0.0
O236 O 0.01646 0.30657 0.54076 0.0
O237 O 0.96751 0.36607 0.52585 0.0
O238 O 0.0384 0.36738 0.48311 0.0
O239 O 0.98439 0.31543 0.4486 0.0
H240 H 0.98287 0.28679 0.61259 0.0
H241 H 0.08095 0.29034 0.55104 0.0
H242 H 0.00842 0.25829 0.67817 0.0
H243 H 0.10481 0.26212 0.61785 0.0
H244 H 0.86517 0.35828 0.45773 0.0
H245 H 0.93673 0.41443 0.57043 0.0
H246 H 0.92433 0.33959 0.46758 0.0
H247 H 0.87717 0.43183 0.55878 0.0
H248 H 0.01706 0.38213 0.70235 0.0
H249 H 0.06844 0.45408 0.61746 0.0
H250 H 0.90818 0.21005 0.51063 0.0
H251 H 0.88208 0.27922 0.61683 0.0
H252 H 0.06836 0.40264 0.41949 0.0
H253 H 0.08431 0.34898 0.54272 0.0
H254 H 0.12975 0.41498 0.41644 0.0
H255 H 0.14544 0.36183 0.53733 0.0
H256 H 0.02907 0.34938 0.39976 0.0
H257 H 0.95162 0.27315 0.39618 0.0
H258 H 0.03783 0.34152 0.31856 0.0
H259 H 0.96169 0.26665 0.31477 0.0
H260 H 0.07971 0.20583 0.46112 0.0
H261 H 0.13244 0.2858 0.39137 0.0
H262 H 0.00021 0.47751 0.40343 0.0
H263 H 0.92653 0.41401 0.33757 0.0
Li264 Li 0.63838 0.01424 0.77804 0.0
Li265 Li 0.68472 0.97682 0.76643 0.0
Li266 Li 0.68343 0.03657 0.73348 0.0
Li267 Li 0.64416 0.99078 0.70629 0.0
C268 C 0.68581 0.03125 0.83979 0.0
N269 N 0.68444 0.05111 0.92811 0.0
C270 C 0.67583 0.00846 0.87293 0.0
C271 C 0.69542 0.06401 0.85151 0.0
C272 C 0.67518 0.01904 0.91741 0.0
C273 C 0.69449 0.07359 0.89638 0.0
C274 C 0.63294 0.93162 0.75527 0.0
C275 C 0.6492 0.8816 0.71479 0.0
N276 N 0.62802 0.86289 0.74062 0.0
C277 C 0.6114 0.91186 0.78149 0.0
C278 C 0.65207 0.91634 0.72175 0.0
C279 C 0.60924 0.87718 0.77353 0.0
C280 C 0.57897 0.00307 0.82446 0.0
N281 N 0.60456 0.02575 0.82113 0.0
C282 C 0.58093 0.05881 0.88013 0.0
C283 C 0.6055 0.05381 0.84729 0.0
C284 C 0.55509 0.03484 0.88564 0.0
C285 C 0.55389 0.00713 0.85651 0.0
H286 H 0.57815 0.98162 0.80229 0.0
H287 H 0.6255 0.07207 0.84317 0.0
C288 C 0.74662 0.94275 0.78023 0.0
N289 N 0.71354 0.94379 0.79197 0.0
C290 C 0.7682 0.91914 0.79993 0.0
C291 C 0.72116 0.89815 0.84322 0.0
C292 C 0.70061 0.92226 0.82294 0.0
C293 C 0.75553 0.89642 0.832 0.0
H294 H 0.75629 0.96053 0.75593 0.0
H295 H 0.67432 0.92395 0.83217 0.0
C296 C 0.60679 0.05727 0.7283 0.0
N297 N 0.54969 0.09425 0.74781 0.0
C298 C 0.57484 0.04366 0.72015 0.0
C299 C 0.60976 0.08972 0.74612 0.0
C300 C 0.54626 0.06275 0.73033 0.0
C301 C 0.58056 0.10801 0.75579 0.0
C302 C 0.71068 0.98683 0.66484 0.0
C303 C 0.71182 0.01244 0.63271 0.0
C304 C 0.72686 0.95613 0.6565 0.0
C305 C 0.72849 0.00667 0.59236 0.0
C306 C 0.74329 0.95133 0.61574 0.0
N307 N 0.74373 0.97648 0.58476 0.0
C308 C 0.744 0.0731 0.72569 0.0
C309 C 0.69693 0.09835 0.68999 0.0
C310 C 0.76528 0.09845 0.70953 0.0
N311 N 0.71062 0.07342 0.71541 0.0
C312 C 0.71725 0.12423 0.6732 0.0
C313 C 0.75201 0.12429 0.68249 0.0
H314 H 0.75415 0.05276 0.74575 0.0
H315 H 0.67039 0.09757 0.68168 0.0
C316 C 0.59538 0.95281 0.65598 0.0
N317 N 0.62011 0.97663 0.65403 0.0
C318 C 0.57569 0.94577 0.61845 0.0
C319 C 0.60661 0.98841 0.57773 0.0
C320 C 0.62582 0.99447 0.61596 0.0
C321 C 0.58087 0.96401 0.57875 0.0
H322 H 0.58991 0.94004 0.68698 0.0
H323 H 0.64422 0.01454 0.61583 0.0
O324 O 0.68649 0.0215 0.79608 0.0
O325 O 0.63584 0.96551 0.76349 0.0
O326 O 0.63501 0.03864 0.71959 0.0
O327 O 0.69495 0.99219 0.70491 0.0
H328 H 0.66821 0.98307 0.8643 0.0
H329 H 0.7033 0.08187 0.82615 0.0
H330 H 0.66726 0.00178 0.94341 0.0
H331 H 0.7017 0.09891 0.90597 0.0
H332 H 0.66378 0.86953 0.68882 0.0
H333 H 0.59671 0.92312 0.808 0.0
H334 H 0.66864 0.93116 0.70102 0.0
H335 H 0.5927 0.86161 0.79361 0.0
H336 H 0.58275 0.08062 0.90176 0.0
H337 H 0.53388 0.98855 0.85867 0.0
H338 H 0.79461 0.91914 0.79074 0.0
H339 H 0.71013 0.88094 0.86728 0.0
H340 H 0.57217 0.01849 0.70657 0.0
H341 H 0.63435 0.10045 0.753 0.0
H342 H 0.52135 0.05249 0.72445 0.0
H343 H 0.58245 0.13308 0.76986 0.0
H344 H 0.69972 0.03645 0.63867 0.0
H345 H 0.7269 0.93622 0.68129 0.0
H346 H 0.72934 0.02621 0.5671 0.0
H347 H 0.75579 0.92765 0.6088 0.0
H348 H 0.79185 0.09773 0.7179 0.0
H349 H 0.70606 0.14335 0.65198 0.0
H350 H 0.55613 0.92675 0.62085 0.0
H351 H 0.61089 0.00382 0.54837 0.0
H352 H 0.95299 0.58156 0.2479 0.0
H353 H 0.94752 0.50715 0.14309 0.0
H354 H 0.94693 0.46191 0.19853 0.0
H355 H 0.9529 0.44338 0.27632 0.0
H356 H 0.95806 0.5177 0.38141 0.0
H357 H 0.95433 0.56299 0.3263 0.0
C358 C 0.95149 0.55543 0.23728 0.0
C359 C 0.95042 0.54774 0.19147 0.0
C360 C 0.9515 0.5295 0.26933 0.0
C361 C 0.94803 0.51379 0.17816 0.0
C362 C 0.94795 0.48788 0.20983 0.0
C363 C 0.95252 0.46945 0.28732 0.0
C364 C 0.95614 0.47705 0.33297 0.0
C365 C 0.95028 0.49541 0.25547 0.0
C366 C 0.95599 0.51107 0.34643 0.0
C367 C 0.9537 0.53703 0.31496 0.0
H368 H 0.50144 0.96208 0.39587 0.0
H369 H 0.41712 0.9521 0.48599 0.0
H370 H 0.45568 0.9492 0.54951 0.0
H371 H 0.51285 0.95443 0.57979 0.0
H372 H 0.59744 0.96415 0.48991 0.0
H373 H 0.55918 0.96283 0.42598 0.0
C374 C 0.49157 0.95914 0.42943 0.0
C375 C 0.4565 0.95752 0.43626 0.0
C376 C 0.51386 0.95784 0.46584 0.0
C377 C 0.44403 0.95315 0.47982 0.0
C378 C 0.46605 0.95175 0.51619 0.0
C379 C 0.52307 0.95551 0.54624 0.0
C380 C 0.55801 0.95962 0.53977 0.0
C381 C 0.50096 0.95466 0.50964 0.0
C382 C 0.57063 0.96156 0.49594 0.0
C383 C 0.54878 0.96066 0.45933 0.0
H384 H 0.07749 0.53071 0.81193 0.0
H385 H 0.97332 0.51088 0.84534 0.0
H386 H 0.97059 0.46737 0.78831 0.0
H387 H 0.99635 0.4372 0.72617 0.0
H388 H 0.09963 0.45774 0.68983 0.0
H389 H 0.10389 0.49922 0.75014 0.0
C390 C 0.05418 0.51693 0.80665 0.0
C391 C 0.02575 0.52402 0.83321 0.0
C392 C 0.0525 0.49225 0.77303 0.0
C393 C 0.99584 0.5056 0.82615 0.0
C394 C 0.99411 0.48086 0.7932 0.0
C395 C 0.02001 0.45028 0.73192 0.0
C396 C 0.04768 0.44428 0.70373 0.0
C397 C 0.02215 0.47418 0.76624 0.0
C398 C 0.07791 0.46206 0.71097 0.0
C399 C 0.08036 0.48571 0.74547 0.0
H400 H 0.44652 0.06786 0.03437 0.0
H401 H 0.45686 0.9606 0.05625 0.0
H402 H 0.49843 0.9573 0.99661 0.0
H403 H 0.53217 0.98457 0.93888 0.0
H404 H 0.52242 0.09162 0.91555 0.0
H405 H 0.48098 0.09547 0.97596 0.0
C406 C 0.45803 0.04383 0.02618 0.0
C407 C 0.44832 0.01447 0.04947 0.0
C408 C 0.48216 0.04209 0.99185 0.0
C409 C 0.46333 0.98347 0.0383 0.0
C410 C 0.48731 0.98157 0.00441 0.0
C411 C 0.52071 0.00872 0.94659 0.0
C412 C 0.53017 0.0377 0.92248 0.0
C413 C 0.49681 0.01066 0.98091 0.0
C414 C 0.51572 0.06894 0.93377 0.0
C415 C 0.4919 0.07112 0.96813 0.0
H416 H 0.22622 0.86369 0.1114 0.0
H417 H 0.18862 0.84643 0.24462 0.0
H418 H 0.1481 0.80515 0.21585 0.0
H419 H 0.12269 0.77481 0.15249 0.0
H420 H 0.15923 0.79348 0.01907 0.0
H421 H 0.20096 0.83332 0.04818 0.0
C422 C 0.20937 0.8506 0.13414 0.0
C423 C 0.21046 0.85791 0.18005 0.0
C424 C 0.18594 0.82727 0.11729 0.0
C425 C 0.18809 0.84129 0.2091 0.0
C426 C 0.16502 0.81766 0.19269 0.0
C427 C 0.14004 0.78739 0.12992 0.0
C428 C 0.13803 0.78119 0.08376 0.0
C429 C 0.16364 0.81055 0.14683 0.0
C430 C 0.16022 0.79804 0.05471 0.0
C431 C 0.18411 0.82072 0.07134 0.0
H432 H 0.21383 0.12522 0.38778 0.0
H433 H 0.21858 0.17439 0.25916 0.0
H434 H 0.17745 0.21623 0.28407 0.0
H435 H 0.13974 0.23847 0.34228 0.0
H436 H 0.13756 0.19048 0.47187 0.0
H437 H 0.17827 0.14866 0.44659 0.0
C438 C 0.20635 0.14537 0.36533 0.0
C439 C 0.21942 0.14663 0.32167 0.0
C440 C 0.18302 0.1695 0.37998 0.0
C441 C 0.20869 0.17253 0.29278 0.0
C442 C 0.1853 0.19659 0.30708 0.0
C443 C 0.14846 0.21912 0.36518 0.0
C444 C 0.13536 0.21757 0.40885 0.0
C445 C 0.17224 0.19528 0.3506 0.0
C446 C 0.14666 0.19197 0.43783 0.0
C447 C 0.17015 0.16814 0.42352 0.0
H448 H 0.81389 0.11522 0.64538 0.0
H449 H 0.74024 0.19214 0.67481 0.0
H450 H 0.77655 0.23492 0.64071 0.0
H451 H 0.82924 0.25043 0.60241 0.0
H452 H 0.90336 0.17345 0.57497 0.0
H453 H 0.86676 0.13079 0.60825 0.0
C454 C 0.80594 0.14141 0.64483 0.0
C455 C 0.77444 0.15046 0.66278 0.0
C456 C 0.82693 0.16585 0.62525 0.0
C457 C 0.76424 0.18443 0.66092 0.0
C458 C 0.78504 0.20893 0.64157 0.0
C459 C 0.83749 0.22436 0.60399 0.0
C460 C 0.86898 0.21521 0.586 0.0
C461 C 0.81643 0.19992 0.6236 0.0
C462 C 0.87904 0.18119 0.58783 0.0
C463 C 0.85824 0.15677 0.60719 0.0
H464 H 0.80651 0.86008 0.79431 0.0
H465 H 0.75512 0.87628 0.91955 0.0
H466 H 0.79115 0.8345 0.95561 0.0
H467 H 0.83731 0.79346 0.9518 0.0
H468 H 0.89112 0.78005 0.82772 0.0
H469 H 0.85399 0.82053 0.79116 0.0
C470 C 0.80341 0.85481 0.82961 0.0
C471 C 0.77798 0.8713 0.85401 0.0
C472 C 0.82456 0.83109 0.8504 0.0
C473 C 0.77405 0.86361 0.89963 0.0
C474 C 0.79481 0.83986 0.92043 0.0
C475 C 0.84121 0.79962 0.91689 0.0
C476 C 0.86697 0.78348 0.89265 0.0
C477 C 0.82016 0.82345 0.89615 0.0
C478 C 0.87115 0.79149 0.84715 0.0
C479 C 0.85009 0.8149 0.82622 0.0
loop_
_geom_bond_atom_site_label_1
_geom_bond_atom_site_label_2
_geom_bond_distance
_geom_bond_site_symmetry_2
_ccdc_geom_bond_type
Li0 N17 1.990 . S
Li0 O60 1.956 . S
Li0 O61 1.970 1_455 S
Li0 O62 1.961 1_554 S
Li1 N25 1.990 . S
Li1 O60 1.970 1_655 S
Li1 O61 1.956 . S
Li1 O63 1.961 1_554 S
Li2 N47 1.990 . S
Li2 O60 1.961 1_556 S
Li2 O62 1.956 . S
Li2 O63 1.970 1_455 S
Li3 N53 1.990 . S
Li3 O61 1.961 1_556 S
Li3 O62 1.970 1_655 S
Li3 O63 1.956 . S
C4 C6 1.348 . S
C4 C7 1.356 1_554 S
C4 O60 1.325 . S
N5 C8 1.314 . S
N5 C9 1.279 . S
C6 C4 1.348 . S
C6 C8 1.353 . S
C6 H64 0.929 . S
C7 C4 1.356 1_556 S
C7 C9 1.358 1_556 S
C7 H65 0.930 . S
C8 N5 1.314 . S
C8 C6 1.353 . S
C8 H66 0.930 . S
C9 N5 1.279 . S
C9 C7 1.358 1_554 S
C9 H67 0.930 1_554 S
C10 C13 1.348 1_655 S
C10 C14 1.356 . S
C10 O61 1.325 . S
C11 N12 1.279 . S
C11 C14 1.358 . S
C11 H68 0.930 . S
N12 C11 1.279 . S
N12 C15 1.314 . S
C13 C10 1.348 1_455 S
C13 C15 1.353 1_455 S
C13 H69 0.929 . S
C14 C10 1.356 . S
C14 C11 1.358 . S
C14 H70 0.930 . S
C15 N12 1.314 . S
C15 C13 1.353 1_655 S
C15 H71 0.930 1_655 S
C16 N17 1.314 . S
C16 C21 1.353 . S
C16 H22 0.930 1_554 S
N17 Li0 1.990 . S
N17 C16 1.314 . S
N17 C19 1.279 . S
C18 C19 1.358 . S
C18 C20 1.356 . S
C18 H72 0.930 . S
C19 N17 1.279 . S
C19 C18 1.358 . S
C19 H23 0.930 . S
C20 C18 1.356 . S
C20 C21 1.348 . S
C21 C16 1.353 . S
C21 C20 1.348 . S
C21 H73 0.929 . S
H22 C16 0.930 1_556 S
H23 C19 0.930 . S
C24 N25 1.314 . S
C24 C26 1.353 . S
C24 H30 0.930 . S
N25 Li1 1.990 . S
N25 C24 1.314 . S
N25 C28 1.279 . S
C26 C24 1.353 . S
C26 C29 1.348 . S
C26 H74 0.929 . S
C27 C28 1.358 . S
C27 C29 1.356 . S
C27 H75 0.930 . S
C28 N25 1.279 . S
C28 C27 1.358 . S
C28 H31 0.930 . S
C29 C26 1.348 . S
C29 C27 1.356 . S
H30 C24 0.930 . S
H31 C28 0.930 . S
C32 C34 1.348 1_455 S
C32 C35 1.356 . S
C32 O62 1.325 . S
N33 C36 1.314 . S
N33 C37 1.279 . S
C34 C32 1.348 1_655 S
C34 C36 1.353 1_655 S
C34 H76 0.929 . S
C35 C32 1.356 . S
C35 C37 1.358 . S
C35 H77 0.930 . S
C36 N33 1.314 . S
C36 C34 1.353 1_455 S
C36 H78 0.930 1_455 S
C37 N33 1.279 . S
C37 C35 1.358 . S
C37 H79 0.930 . S
C38 C39 1.348 . S
C38 C40 1.356 1_556 S
C38 O63 1.325 . S
C39 C38 1.348 . S
C39 C41 1.353 . S
C39 H80 0.929 . S
C40 C38 1.356 1_554 S
C40 C42 1.358 1_554 S
C40 H81 0.930 . S
C41 C39 1.353 . S
C41 N43 1.314 . S
C41 H82 0.930 . S
C42 C40 1.358 1_556 S
C42 N43 1.279 . S
C42 H83 0.930 1_556 S
N43 C41 1.314 . S
N43 C42 1.279 . S
C44 C46 1.353 . S
C44 N47 1.314 . S
C44 H50 0.930 . S
C45 N47 1.279 . S
C45 C48 1.358 . S
C45 H51 0.930 . S
C46 C44 1.353 . S
C46 C49 1.348 . S
C46 H84 0.929 . S
N47 Li2 1.990 . S
N47 C44 1.314 . S
N47 C45 1.279 . S
C48 C45 1.358 . S
C48 C49 1.356 . S
C48 H85 0.930 . S
C49 C46 1.348 . S
C49 C48 1.356 . S
H50 C44 0.930 . S
H51 C45 0.930 . S
C52 N53 1.314 . S
C52 C54 1.353 . S
C52 H58 0.930 1_556 S
N53 Li3 1.990 . S
N53 C52 1.314 . S
N53 C56 1.279 . S
C54 C52 1.353 . S
C54 C57 1.348 . S
C54 H86 0.929 . S
C55 C56 1.358 . S
C55 C57 1.356 . S
C55 H87 0.930 . S
C56 N53 1.279 . S
C56 C55 1.358 . S
C56 H59 0.930 . S
C57 C54 1.348 . S
C57 C55 1.356 . S
H58 C52 0.930 1_554 S
H59 C56 0.930 . S
O60 Li0 1.956 . S
O60 Li1 1.970 1_455 S
O60 Li2 1.961 1_554 S
O60 C4 1.325 . S
O61 Li0 1.970 1_655 S
O61 Li1 1.956 . S
O61 Li3 1.961 1_554 S
O61 C10 1.325 . S
O62 Li0 1.961 1_556 S
O62 Li2 1.956 . S
O62 Li3 1.970 1_455 S
O62 C32 1.325 . S
O63 Li1 1.961 1_556 S
O63 Li2 1.970 1_655 S
O63 Li3 1.956 . S
O63 C38 1.325 . S
H64 C6 0.929 . S
H65 C7 0.930 . S
H66 C8 0.930 . S
H67 C9 0.930 1_556 S
H68 C11 0.930 . S
H69 C13 0.929 . S
H70 C14 0.930 . S
H71 C15 0.930 1_455 S
H72 C18 0.930 . S
H73 C21 0.929 . S
H74 C26 0.929 . S
H75 C27 0.930 . S
H76 C34 0.929 . S
H77 C35 0.930 . S
H78 C36 0.930 1_655 S
H79 C37 0.930 . S
H80 C39 0.929 . S
H81 C40 0.930 . S
H82 C41 0.930 . S
H83 C42 0.930 1_554 S
H84 C46 0.929 . S
H85 C48 0.930 . S
H86 C54 0.929 . S
H87 C55 0.930 . S
Li88 N105 1.990 . S
Li88 O148 1.956 . S
Li88 O149 1.970 1_565 S
Li88 O150 1.961 . S
Li89 N113 1.990 . S
Li89 O148 1.970 1_545 S
Li89 O149 1.956 . S
Li89 O151 1.961 . S
Li90 N135 1.990 . S
Li90 O148 1.961 . S
Li90 O150 1.956 . S
Li90 O151 1.970 1_565 S
Li91 N141 1.990 . S
Li91 O149 1.961 . S
Li91 O150 1.970 1_545 S
Li91 O151 1.956 . S
C92 C94 1.348 1_565 S
C92 C95 1.356 . S
C92 O148 1.325 . S
N93 C96 1.314 . S
N93 C97 1.279 . S
C94 C92 1.348 1_545 S
C94 C96 1.353 1_545 S
C94 H152 0.929 . S
C95 C92 1.356 . S
C95 C97 1.358 . S
C95 H153 0.930 . S
C96 N93 1.314 . S
C96 C94 1.353 1_565 S
C96 H154 0.930 1_565 S
C97 N93 1.279 . S
C97 C95 1.358 . S
C97 H155 0.930 . S
C98 C101 1.348 . S
C98 C102 1.356 . S
C98 O149 1.325 . S
C99 N100 1.279 . S
C99 C102 1.358 . S
C99 H156 0.930 . S
N100 C99 1.279 . S
N100 C103 1.314 . S
C101 C98 1.348 . S
C101 C103 1.353 . S
C101 H157 0.929 . S
C102 C98 1.356 . S
C102 C99 1.358 . S
C102 H158 0.930 . S
C103 N100 1.314 . S
C103 C101 1.353 . S
C103 H159 0.930 . S
C104 N105 1.314 . S
C104 C109 1.353 . S
C104 H110 0.930 . S
N105 Li88 1.990 . S
N105 C104 1.314 . S
N105 C107 1.279 . S
C106 C107 1.358 . S
C106 C108 1.356 . S
C106 H160 0.930 . S
C107 N105 1.279 . S
C107 C106 1.358 . S
C107 H111 0.930 . S
C108 C106 1.356 . S
C108 C109 1.348 . S
C109 C104 1.353 . S
C109 C108 1.348 . S
C109 H161 0.929 . S
H110 C104 0.930 . S
H111 C107 0.930 . S
C112 N113 1.314 . S
C112 C114 1.353 . S
C112 H118 0.930 . S
N113 Li89 1.990 . S
N113 C112 1.314 . S
N113 C116 1.279 . S
C114 C112 1.353 . S
C114 C117 1.348 . S
C114 H162 0.929 . S
C115 C116 1.358 . S
C115 C117 1.356 . S
C115 H163 0.930 . S
C116 N113 1.279 . S
C116 C115 1.358 . S
C116 H119 0.930 . S
C117 C114 1.348 . S
C117 C115 1.356 . S
H118 C112 0.930 . S
H119 C116 0.930 . S
C120 C122 1.348 . S
C120 C123 1.356 . S
C120 O150 1.325 . S
N121 C124 1.314 . S
N121 C125 1.279 . S
C122 C120 1.348 . S
C122 C124 1.353 . S
C122 H164 0.929 . S
C123 C120 1.356 . S
C123 C125 1.358 . S
C123 H165 0.930 . S
C124 N121 1.314 . S
C124 C122 1.353 . S
C124 H166 0.930 . S
C125 N121 1.279 . S
C125 C123 1.358 . S
C125 H167 0.930 . S
C126 C127 1.348 1_545 S
C126 C128 1.356 . S
C126 O151 1.325 . S
C127 C126 1.348 1_565 S
C127 C129 1.353 1_565 S
C127 H168 0.929 . S
C128 C126 1.356 . S
C128 C130 1.358 . S
C128 H169 0.930 . S
C129 C127 1.353 1_545 S
C129 N131 1.314 . S
C129 H170 0.930 1_545 S
C130 C128 1.358 . S
C130 N131 1.279 . S
C130 H171 0.930 . S
N131 C129 1.314 . S
N131 C130 1.279 . S
C132 C134 1.353 . S
C132 N135 1.314 . S
C132 H138 0.930 . S
C133 N135 1.279 . S
C133 C136 1.358 . S
C133 H139 0.930 . S
C134 C132 1.353 . S
C134 C137 1.348 . S
C134 H172 0.929 . S
N135 Li90 1.990 . S
N135 C132 1.314 . S
N135 C133 1.279 . S
C136 C133 1.358 . S
C136 C137 1.356 . S
C136 H173 0.930 . S
C137 C134 1.348 . S
C137 C136 1.356 . S
H138 C132 0.930 . S
H139 C133 0.930 . S
C140 N141 1.314 . S
C140 C142 1.353 . S
C140 H146 0.930 . S
N141 Li91 1.990 . S
N141 C140 1.314 . S
N141 C144 1.279 . S
C142 C140 1.353 . S
C142 C145 1.348 . S
C142 H174 0.929 . S
C143 C144 1.358 . S
C143 C145 1.356 . S
C143 H175 0.930 . S
C144 N141 1.279 . S
C144 C143 1.358 . S
C144 H147 0.930 . S
C145 C142 1.348 . S
C145 C143 1.356 . S
H146 C140 0.930 . S
H147 C144 0.930 . S
O148 Li88 1.956 . S
O148 Li89 1.970 1_565 S
O148 Li90 1.961 . S
O148 C92 1.325 . S
O149 Li88 1.970 1_545 S
O149 Li89 1.956 . S
O149 Li91 1.961 . S
O149 C98 1.325 . S
O150 Li88 1.961 . S
O150 Li90 1.956 . S
O150 Li91 1.970 1_565 S
O150 C120 1.325 . S
O151 Li89 1.961 . S
O151 Li90 1.970 1_545 S
O151 Li91 1.956 . S
O151 C126 1.325 . S
H152 C94 0.929 . S
H153 C95 0.930 . S
H154 C96 0.930 1_545 S
H155 C97 0.930 . S
H156 C99 0.930 . S
H157 C101 0.929 . S
H158 C102 0.930 . S
H159 C103 0.930 . S
H160 C106 0.930 . S
H161 C109 0.929 . S
H162 C114 0.929 . S
H163 C115 0.930 . S
H164 C122 0.929 . S
H165 C123 0.930 . S
H166 C124 0.930 . S
H167 C125 0.930 . S
H168 C127 0.929 . S
H169 C128 0.930 . S
H170 C129 0.930 1_565 S
H171 C130 0.930 . S
H172 C134 0.929 . S
H173 C136 0.930 . S
H174 C142 0.929 . S
H175 C143 0.930 . S
Li176 N193 1.990 . S
Li176 O236 1.956 . S
Li176 O237 1.970 1_455 S
Li176 O238 1.961 . S
Li177 N201 1.990 . S
Li177 O236 1.970 1_655 S
Li177 O237 1.956 . S
Li177 O239 1.961 . S
Li178 N223 1.990 . S
Li178 O236 1.961 . S
Li178 O238 1.956 . S
Li178 O239 1.970 1_455 S
Li179 N229 1.990 . S
Li179 O237 1.961 . S
Li179 O238 1.970 1_655 S
Li179 O239 1.956 . S
C180 C182 1.348 1_455 S
C180 C183 1.356 . S
C180 O236 1.325 . S
N181 C184 1.314 . S
N181 C185 1.279 . S
C182 C180 1.348 1_655 S
C182 C184 1.353 1_655 S
C182 H240 0.929 . S
C183 C180 1.356 . S
C183 C185 1.358 . S
C183 H241 0.930 . S
C184 N181 1.314 . S
C184 C182 1.353 1_455 S
C184 H242 0.930 1_455 S
C185 N181 1.279 . S
C185 C183 1.358 . S
C185 H243 0.930 . S
C186 C189 1.348 . S
C186 C190 1.356 . S
C186 O237 1.325 . S
C187 N188 1.279 . S
C187 C190 1.358 . S
C187 H244 0.930 . S
N188 C187 1.279 . S
N188 C191 1.314 . S
C189 C186 1.348 . S
C189 C191 1.353 . S
C189 H245 0.929 . S
C190 C186 1.356 . S
C190 C187 1.358 . S
C190 H246 0.930 . S
C191 N188 1.314 . S
C191 C189 1.353 . S
C191 H247 0.930 . S
C192 N193 1.314 . S
C192 C197 1.353 . S
C192 H198 0.930 . S
N193 Li176 1.990 . S
N193 C192 1.314 . S
N193 C195 1.279 . S
C194 C195 1.358 . S
C194 C196 1.356 . S
C194 H248 0.930 . S
C195 N193 1.279 . S
C195 C194 1.358 . S
C195 H199 0.930 . S
C196 C194 1.356 . S
C196 C197 1.348 . S
C197 C192 1.353 . S
C197 C196 1.348 . S
C197 H249 0.929 . S
H198 C192 0.930 . S
H199 C195 0.930 . S
C200 N201 1.314 . S
C200 C202 1.353 . S
C200 H206 0.930 . S
N201 Li177 1.990 . S
N201 C200 1.314 . S
N201 C204 1.279 . S
C202 C200 1.353 . S
C202 C205 1.348 . S
C202 H250 0.929 . S
C203 C204 1.358 . S
C203 C205 1.356 . S
C203 H251 0.930 . S
C204 N201 1.279 . S
C204 C203 1.358 . S
C204 H207 0.930 . S
C205 C202 1.348 . S
C205 C203 1.356 . S
H206 C200 0.930 . S
H207 C204 0.930 . S
C208 C210 1.348 . S
C208 C211 1.356 . S
C208 O238 1.325 . S
N209 C212 1.314 . S
N209 C213 1.279 . S
C210 C208 1.348 . S
C210 C212 1.353 . S
C210 H252 0.929 . S
C211 C208 1.356 . S
C211 C213 1.358 . S
C211 H253 0.930 . S
C212 N209 1.314 . S
C212 C210 1.353 . S
C212 H254 0.930 . S
C213 N209 1.279 . S
C213 C211 1.358 . S
C213 H255 0.930 . S
C214 C215 1.348 1_655 S
C214 C216 1.356 . S
C214 O239 1.325 . S
C215 C214 1.348 1_455 S
C215 C217 1.353 1_455 S
C215 H256 0.929 . S
C216 C214 1.356 . S
C216 C218 1.358 . S
C216 H257 0.930 . S
C217 C215 1.353 1_655 S
C217 N219 1.314 . S
C217 H258 0.930 1_655 S
C218 C216 1.358 . S
C218 N219 1.279 . S
C218 H259 0.930 . S
N219 C217 1.314 . S
N219 C218 1.279 . S
C220 C222 1.353 . S
C220 N223 1.314 . S
C220 H226 0.930 . S
C221 N223 1.279 . S
C221 C224 1.358 . S
C221 H227 0.930 . S
C222 C220 1.353 . S
C222 C225 1.348 . S
C222 H260 0.929 . S
N223 Li178 1.990 . S
N223 C220 1.314 . S
N223 C221 1.279 . S
C224 C221 1.358 . S
C224 C225 1.356 . S
C224 H261 0.930 . S
C225 C222 1.348 . S
C225 C224 1.356 . S
H226 C220 0.930 . S
H227 C221 0.930 . S
C228 N229 1.314 . S
C228 C230 1.353 . S
C228 H234 0.930 . S
N229 Li179 1.990 . S
N229 C228 1.314 . S
N229 C232 1.279 . S
C230 C228 1.353 . S
C230 C233 1.348 . S
C230 H262 0.929 . S
C231 C232 1.358 . S
C231 C233 1.356 . S
C231 H263 0.930 . S
C232 N229 1.279 . S
C232 C231 1.358 . S
C232 H235 0.930 . S
C233 C230 1.348 . S
C233 C231 1.356 . S
H234 C228 0.930 . S
H235 C232 0.930 . S
O236 Li176 1.956 . S
O236 Li177 1.970 1_455 S
O236 Li178 1.961 . S
O236 C180 1.325 . S
O237 Li176 1.970 1_655 S
O237 Li177 1.956 . S
O237 Li179 1.961 . S
O237 C186 1.325 . S
O238 Li176 1.961 . S
O238 Li178 1.956 . S
O238 Li179 1.970 1_455 S
O238 C208 1.325 . S
O239 Li177 1.961 . S
O239 Li178 1.970 1_655 S
O239 Li179 1.956 . S
O239 C214 1.325 . S
H240 C182 0.929 . S
H241 C183 0.930 . S
H242 C184 0.930 1_655 S
H243 C185 0.930 . S
H244 C187 0.930 . S
H245 C189 0.929 . S
H246 C190 0.930 . S
H247 C191 0.930 . S
H248 C194 0.930 . S
H249 C197 0.929 . S
H250 C202 0.929 . S
H251 C203 0.930 . S
H252 C210 0.929 . S
H253 C211 0.930 . S
H254 C212 0.930 . S
H255 C213 0.930 . S
H256 C215 0.929 . S
H257 C216 0.930 . S
H258 C217 0.930 1_455 S
H259 C218 0.930 . S
H260 C222 0.929 . S
H261 C224 0.930 . S
H262 C230 0.929 . S
H263 C231 0.930 . S
Li264 N281 1.990 . S
Li264 O324 1.956 . S
Li264 O325 1.970 1_545 S
Li264 O326 1.961 . S
Li265 N289 1.990 . S
Li265 O324 1.970 1_565 S
Li265 O325 1.956 . S
Li265 O327 1.961 . S
Li266 N311 1.990 . S
Li266 O324 1.961 . S
Li266 O326 1.956 . S
Li266 O327 1.970 1_545 S
Li267 N317 1.990 . S
Li267 O325 1.961 . S
Li267 O326 1.970 1_565 S
Li267 O327 1.956 . S
C268 C270 1.348 1_545 S
C268 C271 1.356 . S
C268 O324 1.325 . S
N269 C272 1.314 . S
N269 C273 1.279 . S
C270 C268 1.348 1_565 S
C270 C272 1.353 1_565 S
C270 H328 0.929 . S
C271 C268 1.356 . S
C271 C273 1.358 . S
C271 H329 0.930 . S
C272 N269 1.314 . S
C272 C270 1.353 1_545 S
C272 H330 0.930 1_545 S
C273 N269 1.279 . S
C273 C271 1.358 . S
C273 H331 0.930 . S
C274 C277 1.348 . S
C274 C278 1.356 . S
C274 O325 1.325 . S
C275 N276 1.279 . S
C275 C278 1.358 . S
C275 H332 0.930 . S
N276 C275 1.279 . S
N276 C279 1.314 . S
C277 C274 1.348 . S
C277 C279 1.353 . S
C277 H333 0.929 . S
C278 C274 1.356 . S
C278 C275 1.358 . S
C278 H334 0.930 . S
C279 N276 1.314 . S
C279 C277 1.353 . S
C279 H335 0.930 . S
C280 N281 1.314 . S
C280 C285 1.353 . S
C280 H286 0.930 . S
N281 Li264 1.990 . S
N281 C280 1.314 . S
N281 C283 1.279 . S
C282 C283 1.358 . S
C282 C284 1.356 . S
C282 H336 0.930 . S
C283 N281 1.279 . S
C283 C282 1.358 . S
C283 H287 0.930 . S
C284 C282 1.356 . S
C284 C285 1.348 . S
C285 C280 1.353 . S
C285 C284 1.348 . S
C285 H337 0.929 . S
H286 C280 0.930 . S
H287 C283 0.930 . S
C288 N289 1.314 . S
C288 C290 1.353 . S
C288 H294 0.930 . S
N289 Li265 1.990 . S
N289 C288 1.314 . S
N289 C292 1.279 . S
C290 C288 1.353 . S
C290 C293 1.348 . S
C290 H338 0.929 . S
C291 C292 1.358 . S
C291 C293 1.356 . S
C291 H339 0.930 . S
C292 N289 1.279 . S
C292 C291 1.358 . S
C292 H295 0.930 . S
C293 C290 1.348 . S
C293 C291 1.356 . S
H294 C288 0.930 . S
H295 C292 0.930 . S
C296 C298 1.348 . S
C296 C299 1.356 . S
C296 O326 1.325 . S
N297 C300 1.314 . S
N297 C301 1.279 . S
C298 C296 1.348 . S
C298 C300 1.353 . S
C298 H340 0.929 . S
C299 C296 1.356 . S
C299 C301 1.358 . S
C299 H341 0.930 . S
C300 N297 1.314 . S
C300 C298 1.353 . S
C300 H342 0.930 . S
C301 N297 1.279 . S
C301 C299 1.358 . S
C301 H343 0.930 . S
C302 C303 1.348 1_565 S
C302 C304 1.356 . S
C302 O327 1.325 . S
C303 C302 1.348 1_545 S
C303 C305 1.353 1_545 S
C303 H344 0.929 . S
C304 C302 1.356 . S
C304 C306 1.358 . S
C304 H345 0.930 . S
C305 C303 1.353 1_565 S
C305 N307 1.314 . S
C305 H346 0.930 1_565 S
C306 C304 1.358 . S
C306 N307 1.279 . S
C306 H347 0.930 . S
N307 C305 1.314 . S
N307 C306 1.279 . S
C308 C310 1.353 . S
C308 N311 1.314 . S
C308 H314 0.930 . S
C309 N311 1.279 . S
C309 C312 1.358 . S
C309 H315 0.930 . S
C310 C308 1.353 . S
C310 C313 1.348 . S
C310 H348 0.929 . S
N311 Li266 1.990 . S
N311 C308 1.314 . S
N311 C309 1.279 . S
C312 C309 1.358 . S
C312 C313 1.356 . S
C312 H349 0.930 . S
C313 C310 1.348 . S
C313 C312 1.356 . S
H314 C308 0.930 . S
H315 C309 0.930 . S
C316 N317 1.314 . S
C316 C318 1.353 . S
C316 H322 0.930 . S
N317 Li267 1.990 . S
N317 C316 1.314 . S
N317 C320 1.279 . S
C318 C316 1.353 . S
C318 C321 1.348 . S
C318 H350 0.929 . S
C319 C320 1.358 . S
C319 C321 1.356 . S
C319 H351 0.930 . S
C320 N317 1.279 . S
C320 C319 1.358 . S
C320 H323 0.930 . S
C321 C318 1.348 . S
C321 C319 1.356 . S
H322 C316 0.930 . S
H323 C320 0.930 . S
O324 Li264 1.956 . S
O324 Li265 1.970 1_545 S
O324 Li266 1.961 . S
O324 C268 1.325 . S
O325 Li264 1.970 1_565 S
O325 Li265 1.956 . S
O325 Li267 1.961 . S
O325 C274 1.325 . S
O326 Li264 1.961 . S
O326 Li266 1.956 . S
O326 Li267 1.970 1_545 S
O326 C296 1.325 . S
O327 Li265 1.961 . S
O327 Li266 1.970 1_565 S
O327 Li267 1.956 . S
O327 C302 1.325 . S
H328 C270 0.929 . S
H329 C271 0.930 . S
H330 C272 0.930 1_565 S
H331 C273 0.930 . S
H332 C275 0.930 . S
H333 C277 0.929 . S
H334 C278 0.930 . S
H335 C279 0.930 . S
H336 C282 0.930 . S
H337 C285 0.929 . S
H338 C290 0.929 . S
H339 C291 0.930 . S
H340 C298 0.929 . S
H341 C299 0.930 . S
H342 C300 0.930 . S
H343 C301 0.930 . S
H344 C303 0.929 . S
H345 C304 0.930 . S
H346 C305 0.930 1_545 S
H347 C306 0.930 . S
H348 C310 0.929 . S
H349 C312 0.930 . S
H350 C318 0.929 . S
H351 C319 0.930 . S
H352 C358 0.930 . S
H353 C361 0.930 . S
H354 C362 0.930 . S
H355 C363 0.930 . S
H356 C366 0.930 . S
H357 C367 0.930 . S
C358 H352 0.930 . S
C358 C359 1.355 . S
C358 C360 1.415 . S
C359 C358 1.355 . S
C359 C361 1.419 . S
C360 C358 1.415 . S
C360 C365 1.425 . S
C360 C367 1.409 . S
C361 H353 0.930 . S
C361 C359 1.419 . S
C361 C362 1.362 . S
C362 H354 0.930 . S
C362 C361 1.362 . S
C362 C365 1.409 . S
C363 H355 0.930 . S
C363 C364 1.355 . S
C363 C365 1.415 . S
C364 C363 1.355 . S
C364 C366 1.419 . S
C365 C360 1.425 . S
C365 C362 1.409 . S
C365 C363 1.415 . S
C366 H356 0.930 . S
C366 C364 1.419 . S
C366 C367 1.362 . S
C367 H357 0.930 . S
C367 C360 1.409 . S
C367 C366 1.362 . S
H368 C374 0.930 . S
H369 C377 0.930 . S
H370 C378 0.930 . S
H371 C379 0.930 . S
H372 C382 0.930 . S
H373 C383 0.930 . S
C374 H368 0.930 . S
C374 C375 1.355 . S
C374 C376 1.415 . S
C375 C374 1.355 . S
C375 C377 1.419 . S
C376 C374 1.415 . S
C376 C381 1.425 . S
C376 C383 1.409 . S
C377 H369 0.930 . S
C377 C375 1.419 . S
C377 C378 1.362 . S
C378 H370 0.930 . S
C378 C377 1.362 . S
C378 C381 1.409 . S
C379 H371 0.930 . S
C379 C380 1.355 . S
C379 C381 1.415 . S
C380 C379 1.355 . S
C380 C382 1.419 . S
C381 C376 1.425 . S
C381 C378 1.409 . S
C381 C379 1.415 . S
C382 H372 0.930 . S
C382 C380 1.419 . S
C382 C383 1.362 . S
C383 H373 0.930 . S
C383 C376 1.409 . S
C383 C382 1.362 . S
H384 C390 0.930 . S
H385 C393 0.930 1_655 S
H386 C394 0.932 1_655 S
H387 C395 0.943 . S
H388 C398 0.930 . S
H389 C399 0.930 . S
C390 H384 0.930 . S
C390 C391 1.355 . S
C390 C392 1.415 . S
C391 C390 1.355 . S
C391 C393 1.419 . S
C392 C390 1.415 . S
C392 C397 1.425 . S
C392 C399 1.409 . S
C393 H385 0.930 1_455 S
C393 C391 1.419 . S
C393 C394 1.362 . S
C394 H386 0.932 1_455 S
C394 C393 1.362 . S
C394 C397 1.408 . S
C395 H387 0.943 . S
C395 C396 1.355 . S
C395 C397 1.415 . S
C396 C395 1.355 . S
C396 C398 1.419 . S
C397 C392 1.425 . S
C397 C394 1.408 . S
C397 C395 1.415 . S
C398 H388 0.930 . S
C398 C396 1.419 . S
C398 C399 1.362 . S
C399 H389 0.930 . S
C399 C392 1.409 . S
C399 C398 1.362 . S
H400 C406 0.930 . S
H401 C409 0.930 1_565 S
H402 C410 0.930 1_556 S
H403 C411 0.930 1_565 S
H404 C414 0.930 . S
H405 C415 0.930 1_554 S
C406 H400 0.930 . S
C406 C407 1.355 . S
C406 C408 1.415 . S
C407 C406 1.355 . S
C407 C409 1.419 . S
C408 C406 1.415 . S
C408 C413 1.425 1_554 S
C408 C415 1.409 1_554 S
C409 H401 0.930 1_545 S
C409 C407 1.419 . S
C409 C410 1.362 1_545 S
C410 H402 0.930 1_554 S
C410 C409 1.362 1_565 S
C410 C413 1.409 1_564 S
C411 H403 0.930 1_545 S
C411 C412 1.355 . S
C411 C413 1.415 . S
C412 C411 1.355 . S
C412 C414 1.419 . S
C413 C408 1.425 1_556 S
C413 C410 1.409 1_546 S
C413 C411 1.415 . S
C414 H404 0.930 . S
C414 C412 1.419 . S
C414 C415 1.362 . S
C415 H405 0.930 1_556 S
C415 C408 1.409 1_556 S
C415 C414 1.362 . S
H416 C422 0.930 . S
H417 C425 0.930 . S
H418 C426 0.930 . S
H419 C427 0.930 . S
H420 C430 0.930 . S
H421 C431 0.930 . S
C422 H416 0.930 . S
C422 C423 1.355 . S
C422 C424 1.415 . S
C423 C422 1.355 . S
C423 C425 1.419 . S
C424 C422 1.415 . S
C424 C429 1.425 . S
C424 C431 1.409 . S
C425 H417 0.930 . S
C425 C423 1.419 . S
C425 C426 1.362 . S
C426 H418 0.930 . S
C426 C425 1.362 . S
C426 C429 1.409 . S
C427 H419 0.930 . S
C427 C428 1.355 . S
C427 C429 1.415 . S
C428 C427 1.355 . S
C428 C430 1.419 . S
C429 C424 1.425 . S
C429 C426 1.409 . S
C429 C427 1.415 . S
C430 H420 0.930 . S
C430 C428 1.419 . S
C430 C431 1.362 . S
C431 H421 0.930 . S
C431 C424 1.409 . S
C431 C430 1.362 . S
H432 C438 0.930 . S
H433 C441 0.930 . S
H434 C442 0.930 . S
H435 C443 0.930 . S
H436 C446 0.930 . S
H437 C447 0.930 . S
C438 H432 0.930 . S
C438 C439 1.355 . S
C438 C440 1.415 . S
C439 C438 1.355 . S
C439 C441 1.419 . S
C440 C438 1.415 . S
C440 C445 1.425 . S
C440 C447 1.409 . S
C441 H433 0.930 . S
C441 C439 1.419 . S
C441 C442 1.362 . S
C442 H434 0.930 . S
C442 C441 1.362 . S
C442 C445 1.409 . S
C443 H435 0.930 . S
C443 C444 1.355 . S
C443 C445 1.415 . S
C444 C443 1.355 . S
C444 C446 1.419 . S
C445 C440 1.425 . S
C445 C442 1.409 . S
C445 C443 1.415 . S
C446 H436 0.930 . S
C446 C444 1.419 . S
C446 C447 1.362 . S
C447 H437 0.930 . S
C447 C440 1.409 . S
C447 C446 1.362 . S
H448 C454 0.930 . S
H449 C457 0.930 . S
H450 C458 0.930 . S
H451 C459 0.930 . S
H452 C462 0.930 . S
H453 C463 0.930 . S
C454 H448 0.930 . S
C454 C455 1.355 . S
C454 C456 1.415 . S
C455 C454 1.355 . S
C455 C457 1.419 . S
C456 C454 1.415 . S
C456 C461 1.425 . S
C456 C463 1.409 . S
C457 H449 0.930 . S
C457 C455 1.419 . S
C457 C458 1.362 . S
C458 H450 0.930 . S
C458 C457 1.362 . S
C458 C461 1.409 . S
C459 H451 0.930 . S
C459 C460 1.355 . S
C459 C461 1.415 . S
C460 C459 1.355 . S
C460 C462 1.419 . S
C461 C456 1.425 . S
C461 C458 1.409 . S
C461 C459 1.415 . S
C462 H452 0.930 . S
C462 C460 1.419 . S
C462 C463 1.362 . S
C463 H453 0.930 . S
C463 C456 1.409 . S
C463 C462 1.362 . S
H464 C470 0.930 . S
H465 C473 0.930 . S
H466 C474 0.930 . S
H467 C475 0.930 . S
H468 C478 0.930 . S
H469 C479 0.930 . S
C470 H464 0.930 . S
C470 C471 1.355 . S
C470 C472 1.415 . S
C471 C470 1.355 . S
C471 C473 1.419 . S
C472 C470 1.415 . S
C472 C477 1.425 . S
C472 C479 1.409 . S
C473 H465 0.930 . S
C473 C471 1.419 . S
C473 C474 1.362 . S
C474 H466 0.930 . S
C474 C473 1.362 . S
C474 C477 1.409 . S
C475 H467 0.930 . S
C475 C476 1.355 . S
C475 C477 1.415 . S
C476 C475 1.355 . S
C476 C478 1.419 . S
C477 C472 1.425 . S
C477 C474 1.409 . S
C477 C475 1.415 . S
C478 H468 0.930 . S
C478 C476 1.419 . S
C478 C479 1.362 . S
C479 H469 0.930 . S
C479 C472 1.409 . S
C479 C478 1.362 . S
C359 C29 0.911 . S
C364 C233 0.931 . S
C375 C108 0.960 . S
C380 C321 0.953 . S
C391 C49 0.914 . S
C396 C196 0.953 . S
C407 C145 0.934 . S
C412 C284 0.964 . S
C423 C137 1.701 . S
C428 C20 1.706 . S
C439 C117 1.709 . S
C444 C225 1.699 . S
C455 C313 1.704 . S
C460 C205 1.694 . S
C471 C293 1.664 . S
C476 C57 1.661 . S
