# Generated by pormake.
# Topology umo, (4)-cn, num edge types: 1
# Building blocks:
#     Node 0, Type 0, BuildingBlock: ICAMEG_clean_sbu_1, # of connection points: 4
#     Node 1, Type 0, BuildingBlock: ICAMEG_clean_sbu_1, # of connection points: 4
#     Node 2, Type 0, BuildingBlock: ICAMEG_clean_sbu_1, # of connection points: 4
#     Node 3, Type 0, BuildingBlock: ICAMEG_clean_sbu_1, # of connection points: 4
#     Node 4, Type 0, BuildingBlock: ICAMEG_clean_sbu_1, # of connection points: 4
#     Node 5, Type 0, BuildingBlock: ICAMEG_clean_sbu_1, # of connection points: 4
#     Node 6, Type 0, BuildingBlock: ICAMEG_clean_sbu_1, # of connection points: 4
#     Node 7, Type 0, BuildingBlock: ICAMEG_clean_sbu_1, # of connection points: 4
#     Node 8, Type 0, BuildingBlock: ICAMEG_clean_sbu_1, # of connection points: 4
#     Node 9, Type 0, BuildingBlock: ICAMEG_clean_sbu_1, # of connection points: 4
#     Node 10, Type 0, BuildingBlock: ICAMEG_clean_sbu_1, # of connection points: 4
#     Node 11, Type 0, BuildingBlock: ICAMEG_clean_sbu_1, # of connection points: 4
#     Edge 12, Type (0, 0), BuildingBlock: XUDNAN_clean_linker_2, # of connection points: 2
#     Edge 13, Type (0, 0), BuildingBlock: XUDNAN_clean_linker_2, # of connection points: 2
#     Edge 14, Type (0, 0), BuildingBlock: XUDNAN_clean_linker_2, # of connection points: 2
#     Edge 15, Type (0, 0), BuildingBlock: XUDNAN_clean_linker_2, # of connection points: 2
#     Edge 16, Type (0, 0), BuildingBlock: XUDNAN_clean_linker_2, # of connection points: 2
#     Edge 17, Type (0, 0), BuildingBlock: XUDNAN_clean_linker_2, # of connection points: 2
#     Edge 18, Type (0, 0), BuildingBlock: XUDNAN_clean_linker_2, # of connection points: 2
#     Edge 19, Type (0, 0), BuildingBlock: XUDNAN_clean_linker_2, # of connection points: 2
#     Edge 20, Type (0, 0), BuildingBlock: XUDNAN_clean_linker_2, # of connection points: 2
#     Edge 21, Type (0, 0), BuildingBlock: XUDNAN_clean_linker_2, # of connection points: 2
#     Edge 22, Type (0, 0), BuildingBlock: XUDNAN_clean_linker_2, # of connection points: 2
#     Edge 23, Type (0, 0), BuildingBlock: XUDNAN_clean_linker_2, # of connection points: 2
#     Edge 24, Type (0, 0), BuildingBlock: XUDNAN_clean_linker_2, # of connection points: 2
#     Edge 25, Type (0, 0), BuildingBlock: XUDNAN_clean_linker_2, # of connection points: 2
#     Edge 26, Type (0, 0), BuildingBlock: XUDNAN_clean_linker_2, # of connection points: 2
#     Edge 27, Type (0, 0), BuildingBlock: XUDNAN_clean_linker_2, # of connection points: 2
#     Edge 28, Type (0, 0), BuildingBlock: XUDNAN_clean_linker_2, # of connection points: 2
#     Edge 29, Type (0, 0), BuildingBlock: XUDNAN_clean_linker_2, # of connection points: 2
#     Edge 30, Type (0, 0), BuildingBlock: XUDNAN_clean_linker_2, # of connection points: 2
#     Edge 31, Type (0, 0), BuildingBlock: XUDNAN_clean_linker_2, # of connection points: 2
#     Edge 32, Type (0, 0), BuildingBlock: XUDNAN_clean_linker_2, # of connection points: 2
#     Edge 33, Type (0, 0), BuildingBlock: XUDNAN_clean_linker_2, # of connection points: 2
#     Edge 34, Type (0, 0), BuildingBlock: XUDNAN_clean_linker_2, # of connection points: 2
#     Edge 35, Type (0, 0), BuildingBlock: XUDNAN_clean_linker_2, # of connection points: 2
# Relax obj value: 0.091
# Max RMSD: 0.156
# Mean RMSD: 0.156
data_MOF--net-umo--node1-ICAMEG_clean_sbu_1--edge1-XUDNAN_clean_linker_2
_symmetry_space_group_name_H-M    P1
_symmetry_Int_Tables_number       1
_symmetry_cell_setting            triclinic
loop_
_symmetry_equiv_pos_as_xyz
'x, y, z'
_cell_length_a     52.105004
_cell_length_b     52.059145
_cell_length_c     39.928615
_cell_angle_alpha  89.914872
_cell_angle_beta   90.106955
_cell_angle_gamma 120.06461
loop_
_atom_site_label
_atom_site_type_symbol
_atom_site_fract_x
_atom_site_fract_y
_atom_site_fract_z
_atom_type_partial_charge
Co0 Co 0.1497 0.56688 0.40458 0.0
Co1 Co 0.19669 0.5409 0.42731 0.0
O2 O 0.16518 0.53982 0.39948 0.0
C3 C 0.0964 0.50615 0.3911 0.0
O4 O 0.11267 0.49363 0.38767 0.0
C5 C 0.22124 0.54927 0.35868 0.0
O6 O 0.21612 0.57146 0.35628 0.0
O7 O 0.22203 0.58419 0.4209 0.0
O8 O 0.19031 0.60092 0.41301 0.0
H9 H 0.27498 0.58066 0.51699 0.0
H10 H 0.13815 0.53073 0.34207 0.0
O11 O 0.10797 0.53383 0.39698 0.0
H12 H 0.18536 0.63465 0.30438 0.0
H13 H 0.08365 0.60875 0.37619 0.0
H14 H 0.16125 0.61508 0.45234 0.0
H15 H 0.17584 0.62239 0.36431 0.0
H16 H 0.10412 0.57543 0.36892 0.0
O17 O 0.21449 0.53384 0.38557 0.0
H18 H 0.23456 0.57879 0.48288 0.0
H19 H 0.22688 0.50516 0.42859 0.0
H20 H 0.14159 0.649 0.46033 0.0
H21 H 0.14691 0.54196 0.28205 0.0
H22 H 0.1025 0.64595 0.42208 0.0
H23 H 0.17077 0.59428 0.26271 0.0
O24 O 0.14381 0.55826 0.45327 0.0
H25 H 0.13303 0.43497 0.39025 0.0
H26 H 0.17672 0.50154 0.48731 0.0
H27 H 0.14538 0.44767 0.49653 0.0
H28 H 0.12337 0.41396 0.44777 0.0
H29 H 0.16412 0.48904 0.38219 0.0
H30 H 0.26735 0.50633 0.46198 0.0
H31 H 0.29162 0.54423 0.50662 0.0
O32 O 0.17976 0.54878 0.46916 0.0
C33 C 0.21634 0.60513 0.41746 0.0
C34 C 0.26449 0.56395 0.49772 0.0
C35 C 0.26023 0.52226 0.46681 0.0
N36 N 0.22816 0.54167 0.45405 0.0
C37 C 0.24152 0.56271 0.47841 0.0
C38 C 0.23735 0.52172 0.44797 0.0
C39 C 0.27384 0.54353 0.49185 0.0
C40 C 0.14792 0.55345 0.33408 0.0
N41 N 0.15572 0.57572 0.35688 0.0
C42 C 0.1531 0.55973 0.29992 0.0
C43 C 0.16656 0.58909 0.28909 0.0
C44 C 0.17474 0.61174 0.31245 0.0
C45 C 0.16924 0.60462 0.3464 0.0
C46 C 0.10073 0.61034 0.39297 0.0
C47 C 0.14439 0.61376 0.43545 0.0
C48 C 0.11236 0.59149 0.38902 0.0
N49 N 0.13405 0.5935 0.41 0.0
C50 C 0.13328 0.63296 0.44016 0.0
C51 C 0.11132 0.63121 0.41872 0.0
C52 C 0.1587 0.55397 0.47572 0.0
C53 C 0.1425 0.44943 0.4117 0.0
C54 C 0.16694 0.48708 0.46598 0.0
C55 C 0.14935 0.45656 0.47135 0.0
C56 C 0.13705 0.43766 0.44398 0.0
N57 N 0.17211 0.49846 0.43424 0.0
C58 C 0.16022 0.48006 0.40729 0.0
Co59 Co 0.66334 0.1936 0.58433 0.0
Co60 Co 0.59037 0.13852 0.58539 0.0
O61 O 0.63107 0.15525 0.56886 0.0
C62 C 0.66689 0.19785 0.51066 0.0
O63 O 0.63784 0.18439 0.51079 0.0
C64 C 0.60325 0.08893 0.58629 0.0
O65 O 0.6302 0.10715 0.59706 0.0
O66 O 0.60434 0.14196 0.63232 0.0
O67 O 0.64594 0.18637 0.63086 0.0
H68 H 0.51121 0.1326 0.66208 0.0
H69 H 0.67947 0.15382 0.54881 0.0
O70 O 0.68116 0.20274 0.5381 0.0
H71 H 0.72395 0.16801 0.66121 0.0
H72 H 0.76937 0.27668 0.59054 0.0
H73 H 0.66656 0.24237 0.62579 0.0
H74 H 0.69567 0.19262 0.64559 0.0
H75 H 0.72871 0.22747 0.5733 0.0
O76 O 0.58477 0.09785 0.58218 0.0
H77 H 0.56182 0.15455 0.63932 0.0
H78 H 0.53246 0.08528 0.56752 0.0
H79 H 0.7065 0.29165 0.64372 0.0
H80 H 0.7079 0.12908 0.56319 0.0
H81 H 0.75838 0.30911 0.62608 0.0
H82 H 0.73028 0.13604 0.61982 0.0
O83 O 0.64023 0.21275 0.57212 0.0
H84 H 0.58347 0.11005 0.46403 0.0
H85 H 0.55084 0.15571 0.54963 0.0
H86 H 0.53368 0.15214 0.49135 0.0
H87 H 0.54991 0.12907 0.4481 0.0
H88 H 0.60053 0.11455 0.52246 0.0
H89 H 0.4815 0.06257 0.58953 0.0
H90 H 0.4706 0.08628 0.63713 0.0
O91 O 0.59449 0.17881 0.58866 0.0
C92 C 0.62433 0.16526 0.64678 0.0
C93 C 0.51565 0.12211 0.64126 0.0
C94 C 0.49899 0.08279 0.60057 0.0
N95 N 0.55009 0.12132 0.602 0.0
C96 C 0.54427 0.13447 0.62822 0.0
C97 C 0.5279 0.09574 0.58824 0.0
C98 C 0.49289 0.09611 0.62728 0.0
C99 C 0.68943 0.1572 0.57335 0.0
N100 N 0.68598 0.17466 0.59631 0.0
C101 C 0.70538 0.14302 0.58142 0.0
C102 C 0.71787 0.14689 0.61321 0.0
C103 C 0.71429 0.16479 0.63647 0.0
C104 C 0.69816 0.17857 0.62754 0.0
C105 C 0.74689 0.26926 0.59854 0.0
C106 C 0.6891 0.24965 0.61834 0.0
C107 C 0.72378 0.24141 0.58888 0.0
N108 N 0.69535 0.23186 0.59899 0.0
C109 C 0.71162 0.27765 0.62844 0.0
C110 C 0.7407 0.28745 0.61848 0.0
C111 C 0.61365 0.20508 0.5797 0.0
C112 C 0.57617 0.12007 0.48267 0.0
C113 C 0.55822 0.14587 0.53093 0.0
C114 C 0.54832 0.14379 0.49798 0.0
C115 C 0.5574 0.1308 0.47373 0.0
N116 N 0.57665 0.13531 0.53951 0.0
C117 C 0.58562 0.12253 0.51586 0.0
Co118 Co 0.47493 0.6577 0.75672 0.0
Co119 Co 0.42279 0.58734 0.73108 0.0
O120 O 0.45966 0.62449 0.72571 0.0
C121 C 0.4668 0.68093 0.69278 0.0
O122 O 0.44014 0.65758 0.69375 0.0
C123 C 0.46906 0.57124 0.7224 0.0
O124 O 0.48447 0.59102 0.74544 0.0
O125 O 0.43304 0.58363 0.778 0.0
O126 O 0.46347 0.63001 0.7969 0.0
H127 H 0.32882 0.51461 0.78975 0.0
H128 H 0.51282 0.65811 0.70111 0.0
O129 O 0.48524 0.68525 0.71641 0.0
H130 H 0.56618 0.66162 0.80468 0.0
H131 H 0.54877 0.76135 0.79359 0.0
H132 H 0.45545 0.67006 0.82153 0.0
H133 H 0.51867 0.66124 0.80727 0.0
H134 H 0.52823 0.71801 0.75581 0.0
O135 O 0.44309 0.56587 0.71476 0.0
H136 H 0.37556 0.56205 0.78263 0.0
H137 H 0.39179 0.53191 0.6906 0.0
H138 H 0.47531 0.71271 0.8602 0.0
H139 H 0.5603 0.65855 0.69735 0.0
H140 H 0.5223 0.75878 0.84629 0.0
H141 H 0.58723 0.66018 0.7494 0.0
O142 O 0.43594 0.65561 0.75963 0.0
H143 H 0.443 0.60895 0.60816 0.0
H144 H 0.36889 0.58178 0.6979 0.0
H145 H 0.35639 0.58907 0.64042 0.0
H146 H 0.39361 0.60282 0.59507 0.0
H147 H 0.4547 0.60175 0.66608 0.0
H148 H 0.34535 0.48402 0.69687 0.0
H149 H 0.31345 0.47519 0.74666 0.0
O150 O 0.40217 0.60845 0.74703 0.0
C151 C 0.44734 0.60188 0.80152 0.0
C152 C 0.34249 0.51822 0.7679 0.0
C153 C 0.35179 0.50103 0.71579 0.0
N154 N 0.38624 0.5498 0.73611 0.0
C155 C 0.36893 0.54506 0.76369 0.0
C156 C 0.37808 0.52816 0.71242 0.0
C157 C 0.33389 0.4961 0.74373 0.0
C158 C 0.5246 0.65919 0.72385 0.0
N159 N 0.51309 0.6598 0.75437 0.0
C160 C 0.5514 0.65929 0.72157 0.0
C161 C 0.56648 0.66015 0.7508 0.0
C162 C 0.55466 0.66094 0.78182 0.0
C163 C 0.52775 0.66069 0.78314 0.0
C164 C 0.52831 0.74138 0.79996 0.0
C165 C 0.47602 0.68995 0.81545 0.0
C166 C 0.51657 0.71682 0.77864 0.0
N167 N 0.49085 0.69149 0.78665 0.0
C168 C 0.48711 0.71407 0.83737 0.0
C169 C 0.51346 0.73992 0.82953 0.0
C170 C 0.40926 0.63463 0.75625 0.0
C171 C 0.42656 0.60288 0.62768 0.0
C172 C 0.3852 0.58772 0.67832 0.0
C173 C 0.37798 0.59178 0.6458 0.0
C174 C 0.39886 0.59948 0.62036 0.0
N175 N 0.41246 0.59119 0.68534 0.0
C176 C 0.43301 0.59861 0.6605 0.0
Co177 Co 0.85081 0.42086 0.90976 0.0
Co178 Co 0.8084 0.45488 0.9195 0.0
O179 O 0.83921 0.45006 0.8969 0.0
C180 C 0.90823 0.47888 0.90284 0.0
O181 O 0.89467 0.49432 0.90456 0.0
C182 C 0.7882 0.44051 0.84909 0.0
O183 O 0.79773 0.4215 0.84989 0.0
O184 O 0.78076 0.41118 0.92136 0.0
O185 O 0.80878 0.38997 0.91551 0.0
H186 H 0.73123 0.43309 1.00737 0.0
H187 H 0.87324 0.45468 0.84622 0.0
O188 O 0.89384 0.45068 0.90461 0.0
H189 H 0.81869 0.34934 0.81303 0.0
H190 H 0.91101 0.36975 0.90174 0.0
H191 H 0.83072 0.37409 0.96189 0.0
H192 H 0.82279 0.36349 0.87253 0.0
H193 H 0.89571 0.40572 0.88499 0.0
O194 O 0.79062 0.456 0.87488 0.0
H195 H 0.77043 0.42783 0.97913 0.0
H196 H 0.78106 0.49246 0.90698 0.0
H197 H 0.84524 0.33772 0.97939 0.0
H198 H 0.86995 0.4415 0.78652 0.0
H199 H 0.88567 0.33537 0.94921 0.0
H200 H 0.84243 0.38848 0.76955 0.0
O201 O 0.85302 0.43176 0.95784 0.0
H202 H 0.87732 0.55164 0.86288 0.0
H203 H 0.82993 0.50378 0.96963 0.0
H204 H 0.86389 0.55792 0.96793 0.0
H205 H 0.88777 0.58221 0.91422 0.0
H206 H 0.84357 0.49749 0.86584 0.0
H207 H 0.74187 0.49832 0.93432 0.0
H208 H 0.71672 0.46854 0.98494 0.0
O209 O 0.82528 0.45356 0.96438 0.0
C210 C 0.78395 0.38849 0.91999 0.0
C211 C 0.74211 0.44627 0.98541 0.0
C212 C 0.74805 0.48285 0.94438 0.0
N213 N 0.77817 0.46 0.94162 0.0
C214 C 0.76438 0.44346 0.96938 0.0
C215 C 0.77019 0.47942 0.92898 0.0
C216 C 0.73395 0.46614 0.97278 0.0
C217 C 0.86161 0.43156 0.83914 0.0
N218 N 0.84853 0.4099 0.86293 0.0
C219 C 0.85965 0.42423 0.80524 0.0
C220 C 0.84415 0.39448 0.79573 0.0
C221 C 0.83081 0.37251 0.82011 0.0
C222 C 0.83318 0.38067 0.85377 0.0
C223 C 0.89335 0.37054 0.91507 0.0
C224 C 0.84827 0.37317 0.94857 0.0
C225 C 0.88463 0.39091 0.90575 0.0
N226 N 0.86227 0.39198 0.9224 0.0
C227 C 0.85642 0.35253 0.95862 0.0
C228 C 0.87911 0.35125 0.9417 0.0
C229 C 0.84183 0.44391 0.97582 0.0
C230 C 0.867 0.54132 0.88641 0.0
C231 C 0.84044 0.51415 0.94624 0.0
C232 C 0.85954 0.54483 0.94539 0.0
C233 C 0.8729 0.55845 0.91524 0.0
N234 N 0.83479 0.4975 0.91786 0.0
C235 C 0.84775 0.51069 0.8882 0.0
Co236 Co 0.33424 0.81011 0.10023 0.0
Co237 Co 0.40667 0.85211 0.07767 0.0
O238 O 0.36482 0.83763 0.06977 0.0
C239 C 0.31464 0.78133 0.03418 0.0
O240 O 0.34078 0.78342 0.03266 0.0
C241 C 0.40438 0.9062 0.05756 0.0
O242 O 0.38407 0.90066 0.08029 0.0
O243 O 0.40369 0.86745 0.12224 0.0
O244 O 0.36104 0.82869 0.14059 0.0
H245 H 0.49503 0.86898 0.14571 0.0
H246 H 0.31985 0.84419 0.05161 0.0
O247 O 0.30757 0.79095 0.06 0.0
H248 H 0.30098 0.87206 0.163 0.0
H249 H 0.22896 0.74878 0.1403 0.0
H250 H 0.33281 0.77504 0.1596 0.0
H251 H 0.31827 0.83597 0.15753 0.0
H252 H 0.26885 0.78466 0.10341 0.0
O253 O 0.41628 0.89011 0.05532 0.0
H254 H 0.44188 0.8495 0.13474 0.0
H255 H 0.46169 0.88812 0.03765 0.0
H256 H 0.2937 0.73927 0.19726 0.0
H257 H 0.30232 0.88016 0.05591 0.0
H258 H 0.24133 0.72592 0.18771 0.0
H259 H 0.29283 0.89436 0.11193 0.0
O260 O 0.34933 0.78203 0.09654 0.0
H261 H 0.38589 0.8326 0.95452 0.0
H262 H 0.43321 0.81638 0.05303 0.0
H263 H 0.43452 0.79464 0.99871 0.0
H264 H 0.41076 0.80272 0.94894 0.0
H265 H 0.38475 0.85359 1.00943 0.0
H266 H 0.5151 0.90818 0.04767 0.0
H267 H 0.53208 0.89855 0.10198 0.0
O268 O 0.39821 0.81397 0.09903 0.0
C269 C 0.38632 0.85193 0.1459 0.0
C270 C 0.48792 0.87328 0.12191 0.0
C271 C 0.49918 0.8953 0.06691 0.0
N272 N 0.44865 0.86753 0.08552 0.0
C273 C 0.45783 0.86226 0.11553 0.0
C274 C 0.4689 0.88395 0.06141 0.0
C275 C 0.50869 0.88988 0.09738 0.0
C276 C 0.3155 0.85005 0.07606 0.0
N277 N 0.31991 0.83789 0.10428 0.0
C278 C 0.30569 0.87052 0.07834 0.0
C279 C 0.30042 0.87851 0.10978 0.0
C280 C 0.30501 0.86603 0.13845 0.0
C281 C 0.31487 0.84566 0.13521 0.0
C282 C 0.25171 0.75448 0.14478 0.0
C283 C 0.31011 0.76953 0.15545 0.0
C284 C 0.27436 0.77474 0.12395 0.0
N285 N 0.30314 0.78216 0.12959 0.0
C286 C 0.28805 0.74917 0.17678 0.0
C287 C 0.25866 0.74167 0.17138 0.0
C288 C 0.37598 0.78773 0.10002 0.0
C289 C 0.3964 0.82899 0.976 0.0
C290 C 0.42275 0.81993 0.03155 0.0
C291 C 0.42363 0.80763 1.00081 0.0
C292 C 0.41031 0.81219 0.9729 0.0
N293 N 0.409 0.83634 0.03444 0.0
C294 C 0.39596 0.84095 1.00713 0.0
Co295 Co 0.51949 0.32734 0.26761 0.0
Co296 Co 0.54241 0.39936 0.24348 0.0
O297 O 0.51549 0.35648 0.24004 0.0
C298 C 0.51993 0.30861 0.19814 0.0
O299 O 0.53835 0.33673 0.19181 0.0
C300 C 0.48127 0.39193 0.23208 0.0
O301 O 0.46802 0.36298 0.22911 0.0
O302 O 0.53561 0.39767 0.29255 0.0
O303 O 0.53052 0.3538 0.30819 0.0
H304 H 0.62606 0.49145 0.29488 0.0
H305 H 0.46415 0.30649 0.22846 0.0
O306 O 0.50937 0.30051 0.22756 0.0
H307 H 0.43268 0.28753 0.34662 0.0
H308 H 0.48945 0.22407 0.30666 0.0
H309 H 0.56252 0.33059 0.31858 0.0
H310 H 0.48549 0.30972 0.33164 0.0
H311 H 0.48465 0.26142 0.27337 0.0
O312 O 0.50908 0.40759 0.2372 0.0
H313 H 0.59221 0.43756 0.28885 0.0
H314 H 0.54911 0.45252 0.20699 0.0
H315 H 0.56805 0.29404 0.35252 0.0
H316 H 0.41105 0.28392 0.24229 0.0
H317 H 0.53134 0.24033 0.34667 0.0
H318 H 0.39504 0.27439 0.30176 0.0
O319 O 0.562 0.34524 0.25606 0.0
H320 H 0.51261 0.37498 0.1222 0.0
H321 H 0.59622 0.42801 0.20046 0.0
H322 H 0.60604 0.42959 0.13999 0.0
H323 H 0.56406 0.40302 0.10033 0.0
H324 H 0.50384 0.37355 0.18272 0.0
H325 H 0.58232 0.50659 0.21236 0.0
H326 H 0.62122 0.52637 0.25646 0.0
O327 O 0.57703 0.39354 0.25036 0.0
C328 C 0.53423 0.37947 0.31483 0.0
C329 C 0.60926 0.4831 0.27549 0.0
C330 C 0.58469 0.4916 0.2292 0.0
N331 N 0.56889 0.44188 0.2474 0.0
C332 C 0.59009 0.4526 0.27189 0.0
C333 C 0.56591 0.46096 0.22634 0.0
C334 C 0.60652 0.50268 0.25394 0.0
C335 C 0.45732 0.30223 0.25437 0.0
N336 N 0.47789 0.30948 0.2792 0.0
C337 C 0.42724 0.28953 0.26206 0.0
C338 C 0.41828 0.28422 0.29543 0.0
C339 C 0.43939 0.29162 0.32062 0.0
C340 C 0.46928 0.30432 0.31199 0.0
C341 C 0.50554 0.24741 0.30951 0.0
C342 C 0.54632 0.30728 0.31609 0.0
C343 C 0.50295 0.26865 0.29071 0.0
N344 N 0.5231 0.29816 0.2943 0.0
C345 C 0.54963 0.28668 0.33529 0.0
C346 C 0.52904 0.25655 0.33196 0.0
C347 C 0.58223 0.37218 0.25258 0.0
C348 C 0.53107 0.38689 0.1392 0.0
C349 C 0.57776 0.41643 0.18346 0.0
C350 C 0.58349 0.41743 0.14918 0.0
C351 C 0.55994 0.40255 0.12695 0.0
N352 N 0.54934 0.40119 0.19536 0.0
C353 C 0.52618 0.38643 0.17364 0.0
Co354 Co 0.46947 0.81075 0.42124 0.0
Co355 Co 0.44421 0.85745 0.44446 0.0
O356 O 0.47033 0.84115 0.45022 0.0
C357 C 0.46264 0.78568 0.48933 0.0
O358 O 0.44008 0.79014 0.49212 0.0
C359 C 0.50449 0.90935 0.45198 0.0
O360 O 0.51396 0.89734 0.42991 0.0
O361 O 0.45683 0.86747 0.39704 0.0
O362 O 0.46068 0.82826 0.38028 0.0
H363 H 0.3682 0.87339 0.38506 0.0
H364 H 0.52134 0.84456 0.46588 0.0
O365 O 0.47755 0.79259 0.46208 0.0
H366 H 0.56178 0.86443 0.35119 0.0
H367 H 0.50466 0.74163 0.38269 0.0
H368 H 0.43111 0.77363 0.36552 0.0
H369 H 0.50822 0.83143 0.36089 0.0
H370 H 0.50577 0.78128 0.41758 0.0
O371 O 0.47707 0.89687 0.45929 0.0
H372 H 0.40052 0.85185 0.39306 0.0
H373 H 0.43383 0.90012 0.48365 0.0
H374 H 0.42928 0.73406 0.32995 0.0
H375 H 0.57507 0.87744 0.45736 0.0
H376 H 0.46626 0.71782 0.33843 0.0
H377 H 0.5956 0.88764 0.39966 0.0
O378 O 0.42631 0.78519 0.42819 0.0
H379 H 0.46064 0.85173 0.5677 0.0
H380 H 0.38565 0.82699 0.47925 0.0
H381 H 0.3695 0.81248 0.53764 0.0
H382 H 0.40713 0.82488 0.58235 0.0
H383 H 0.47582 0.86554 0.50894 0.0
H384 H 0.40205 0.92238 0.47648 0.0
H385 H 0.36884 0.90893 0.42697 0.0
O386 O 0.41054 0.81815 0.43007 0.0
C387 C 0.4582 0.85112 0.37414 0.0
C388 C 0.38251 0.87935 0.40679 0.0
C389 C 0.40154 0.90688 0.45808 0.0
N390 N 0.41887 0.87455 0.43891 0.0
C391 C 0.4008 0.86717 0.4115 0.0
C392 C 0.41953 0.89426 0.46196 0.0
C393 C 0.3829 0.89931 0.4303 0.0
C394 C 0.53015 0.84862 0.44072 0.0
N395 N 0.5117 0.836 0.41392 0.0
C396 C 0.56058 0.86737 0.43605 0.0
C397 C 0.57207 0.87313 0.40366 0.0
C398 C 0.5531 0.86014 0.37645 0.0
C399 C 0.52279 0.84155 0.38208 0.0
C400 C 0.48849 0.74858 0.37868 0.0
C401 C 0.44742 0.76685 0.36918 0.0
C402 C 0.489 0.77099 0.39837 0.0
N403 N 0.46874 0.77996 0.39332 0.0
C404 C 0.4462 0.74436 0.34905 0.0
C405 C 0.46693 0.73523 0.35385 0.0
C406 C 0.40577 0.79167 0.42782 0.0
C407 C 0.44404 0.84628 0.54845 0.0
C408 C 0.40217 0.83242 0.49853 0.0
C409 C 0.39289 0.8242 0.53157 0.0
C410 C 0.41401 0.83118 0.55665 0.0
N411 N 0.43167 0.84723 0.49068 0.0
C412 C 0.4525 0.85417 0.51515 0.0
Co413 Co 0.57739 0.42461 0.6213 0.0
Co414 Co 0.64971 0.45283 0.59342 0.0
O415 O 0.62001 0.45364 0.62315 0.0
C416 C 0.58093 0.48433 0.62845 0.0
O417 O 0.61 0.49938 0.62779 0.0
C418 C 0.67003 0.44883 0.66167 0.0
O419 O 0.64203 0.43126 0.66928 0.0
O420 O 0.6332 0.40979 0.60049 0.0
O421 O 0.58561 0.39164 0.61461 0.0
H422 H 0.68447 0.41256 0.50064 0.0
H423 H 0.60234 0.46558 0.67973 0.0
O424 O 0.56659 0.45612 0.62714 0.0
H425 H 0.5557 0.36477 0.72732 0.0
H426 H 0.4707 0.3791 0.65707 0.0
H427 H 0.53994 0.37285 0.57796 0.0
H428 H 0.5541 0.37208 0.66654 0.0
H429 H 0.5243 0.41514 0.65992 0.0
O430 O 0.67718 0.46052 0.63257 0.0
H431 H 0.64748 0.41421 0.53762 0.0
H432 H 0.71544 0.48998 0.58732 0.0
H433 H 0.48654 0.33621 0.57444 0.0
H434 H 0.60411 0.45929 0.7406 0.0
H435 H 0.45151 0.3392 0.61418 0.0
H436 H 0.58081 0.40857 0.76484 0.0
O437 O 0.57681 0.42994 0.57205 0.0
H438 H 0.69071 0.55857 0.63002 0.0
H439 H 0.66573 0.49162 0.53302 0.0
H440 H 0.68652 0.54528 0.52361 0.0
H441 H 0.69925 0.57916 0.57234 0.0
H442 H 0.66947 0.50469 0.63826 0.0
H443 H 0.75323 0.48906 0.551 0.0
H444 H 0.7378 0.4502 0.50722 0.0
O445 O 0.62286 0.44405 0.55363 0.0
C446 C 0.6075 0.38834 0.60729 0.0
C447 C 0.69147 0.42971 0.51951 0.0
C448 C 0.73005 0.47261 0.54781 0.0
N449 N 0.67925 0.45239 0.56431 0.0
C450 C 0.6706 0.43083 0.54043 0.0
C451 C 0.70856 0.47302 0.56831 0.0
C452 C 0.72138 0.4508 0.52324 0.0
C453 C 0.59164 0.44346 0.68999 0.0
N454 N 0.57775 0.41928 0.66948 0.0
C455 C 0.59293 0.44002 0.72454 0.0
C456 C 0.57991 0.41156 0.73812 0.0
C457 C 0.56585 0.38699 0.71708 0.0
C458 C 0.56504 0.39129 0.68265 0.0
C459 C 0.48574 0.37752 0.63966 0.0
C460 C 0.52486 0.37419 0.5955 0.0
C461 C 0.51612 0.39789 0.64112 0.0
N462 N 0.53527 0.39594 0.61932 0.0
C463 C 0.49464 0.35342 0.59331 0.0
C464 C 0.475 0.35514 0.6156 0.0
C465 C 0.59564 0.43612 0.54865 0.0
C466 C 0.68529 0.54404 0.60859 0.0
C467 C 0.67095 0.50618 0.55435 0.0
C468 C 0.68286 0.53657 0.54886 0.0
C469 C 0.69004 0.55557 0.57621 0.0
N470 N 0.66637 0.49506 0.58618 0.0
C471 C 0.67338 0.51354 0.61311 0.0
Co472 Co 0.18166 0.66089 0.76179 0.0
Co473 Co 0.16242 0.58824 0.77589 0.0
O474 O 0.16266 0.62449 0.78805 0.0
C475 C 0.2094 0.67849 0.82829 0.0
O476 O 0.21391 0.65601 0.82477 0.0
C477 C 0.10002 0.57032 0.78923 0.0
O478 O 0.10343 0.59192 0.76936 0.0
O479 O 0.14735 0.589 0.73043 0.0
O480 O 0.16861 0.63777 0.71824 0.0
H481 H 0.18306 0.52279 0.70179 0.0
H482 H 0.14048 0.65466 0.81647 0.0
O483 O 0.19588 0.68418 0.80521 0.0
H484 H 0.09607 0.66778 0.71334 0.0
H485 H 0.21106 0.76713 0.7386 0.0
H486 H 0.21785 0.68084 0.69978 0.0
H487 H 0.14381 0.66858 0.71137 0.0
H488 H 0.18668 0.71999 0.77013 0.0
O489 O 0.12103 0.56481 0.79316 0.0
H490 H 0.18349 0.56879 0.71754 0.0
H491 H 0.13911 0.52914 0.80856 0.0
H492 H 0.24239 0.72745 0.66736 0.0
H493 H 0.09279 0.65384 0.81963 0.0
H494 H 0.23906 0.77101 0.68675 0.0
H495 H 0.07023 0.66032 0.76778 0.0
O496 O 0.21906 0.65988 0.75934 0.0
H497 H 0.16607 0.59697 0.90142 0.0
H498 H 0.2116 0.58008 0.80194 0.0
H499 H 0.23243 0.58156 0.85784 0.0
H500 H 0.20964 0.59007 0.9081 0.0
H501 H 0.14614 0.59569 0.845 0.0
H502 H 0.13794 0.48258 0.79364 0.0
H503 H 0.16017 0.47927 0.73999 0.0
O504 O 0.20394 0.61119 0.75908 0.0
C505 C 0.15457 0.6103 0.70988 0.0
C506 C 0.17338 0.52398 0.72528 0.0
C507 C 0.14801 0.50141 0.77681 0.0
N508 N 0.16153 0.5517 0.76404 0.0
C509 C 0.17361 0.54999 0.73437 0.0
C510 C 0.14866 0.52779 0.78508 0.0
C511 C 0.1605 0.49957 0.74671 0.0
C512 C 0.13097 0.65785 0.79387 0.0
N513 N 0.14495 0.66181 0.76379 0.0
C514 C 0.1039 0.65723 0.79579 0.0
C515 C 0.09123 0.66081 0.76667 0.0
C516 C 0.1057 0.66497 0.73611 0.0
C517 C 0.13269 0.66536 0.73513 0.0
C518 C 0.2126 0.74828 0.72986 0.0
C519 C 0.21613 0.69964 0.70824 0.0
C520 C 0.19888 0.72157 0.74762 0.0
N521 N 0.20062 0.69765 0.7366 0.0
C522 C 0.23015 0.726 0.68984 0.0
C523 C 0.22831 0.75044 0.70076 0.0
C524 C 0.22398 0.63839 0.75629 0.0
C525 C 0.17613 0.59316 0.87973 0.0
C526 C 0.20155 0.58383 0.82365 0.0
C527 C 0.21342 0.58458 0.85527 0.0
C528 C 0.20061 0.58933 0.88345 0.0
N529 N 0.17759 0.58769 0.82018 0.0
C530 C 0.16485 0.59225 0.84772 0.0
Co531 Co 0.52937 0.19776 0.92764 0.0
Co532 Co 0.54652 0.14209 0.93269 0.0
O533 O 0.5216 0.15906 0.94433 0.0
C534 C 0.52456 0.20081 1.00058 0.0
O535 O 0.54106 0.18839 1.00219 0.0
C536 C 0.48345 0.09069 0.93563 0.0
O537 O 0.47277 0.10844 0.94048 0.0
O538 O 0.5407 0.1465 0.88432 0.0
O539 O 0.54333 0.19089 0.88311 0.0
H540 H 0.62708 0.13787 0.86826 0.0
H541 H 0.47031 0.15885 0.95795 0.0
O542 O 0.51696 0.20619 0.97219 0.0
H543 H 0.45033 0.17319 0.84069 0.0
H544 H 0.50749 0.28105 0.91418 0.0
H545 H 0.57804 0.24673 0.88921 0.0
H546 H 0.50162 0.19703 0.86204 0.0
H547 H 0.49754 0.23177 0.93314 0.0
O548 O 0.51117 0.1009 0.93168 0.0
H549 H 0.5962 0.1592 0.88516 0.0
H550 H 0.54899 0.08823 0.95357 0.0
H551 H 0.58879 0.29605 0.86958 0.0
H552 H 0.41863 0.13493 0.9378 0.0
H553 H 0.55336 0.31353 0.88207 0.0
H554 H 0.40839 0.14193 0.87872 0.0
O555 O 0.57054 0.21686 0.94416 0.0
H556 H 0.51428 0.11371 0.05257 0.0
H557 H 0.59925 0.15696 0.97504 0.0
H558 H 0.60768 0.15246 0.03494 0.0
H559 H 0.56499 0.13053 0.07417 0.0
H560 H 0.50694 0.11924 0.9928 0.0
H561 H 0.57933 0.06608 0.9373 0.0
H562 H 0.61875 0.09098 0.89442 0.0
O563 O 0.58307 0.18239 0.93309 0.0
C564 C 0.54496 0.16973 0.86884 0.0
C565 C 0.61005 0.12687 0.88707 0.0
C566 C 0.58321 0.08655 0.92578 0.0
N567 N 0.57095 0.12512 0.92051 0.0
C568 C 0.59252 0.13888 0.8968 0.0
C569 C 0.56607 0.09918 0.93485 0.0
C570 C 0.60533 0.10054 0.90172 0.0
C571 C 0.46601 0.16216 0.93228 0.0
N572 N 0.48895 0.17916 0.91116 0.0
C573 C 0.43671 0.14848 0.92098 0.0
C574 C 0.43098 0.15239 0.88782 0.0
C575 C 0.45451 0.16988 0.86645 0.0
C576 C 0.48352 0.18319 0.87863 0.0
C577 C 0.52303 0.27363 0.90844 0.0
C578 C 0.56235 0.25401 0.89439 0.0
C579 C 0.51751 0.24575 0.9191 0.0
N580 N 0.53698 0.2362 0.91183 0.0
C581 C 0.56863 0.28204 0.88336 0.0
C582 C 0.54877 0.29185 0.89043 0.0
C583 C 0.58974 0.20884 0.94059 0.0
C584 C 0.53304 0.12308 0.03569 0.0
C585 C 0.58053 0.14749 0.9919 0.0
C586 C 0.58545 0.14493 0.02582 0.0
C587 C 0.5615 0.1326 0.04781 0.0
N588 N 0.55251 0.13793 0.98008 0.0
C589 C 0.52896 0.12598 1.00161 0.0
Co590 Co 0.42061 0.57391 0.10837 0.0
Co591 Co 0.34624 0.53932 0.08917 0.0
O592 O 0.37929 0.54447 0.11665 0.0
C593 C 0.41972 0.51683 0.11847 0.0
O594 O 0.39833 0.50393 0.09631 0.0
C595 C 0.33007 0.55079 0.15651 0.0
O596 O 0.3557 0.57557 0.15628 0.0
O597 O 0.36027 0.58258 0.09079 0.0
O598 O 0.40978 0.60377 0.09427 0.0
H599 H 0.29741 0.5633 0.99522 0.0
H600 H 0.40085 0.54328 0.17406 0.0
O601 O 0.43217 0.54464 0.12358 0.0
H602 H 0.44773 0.65006 0.19953 0.0
H603 H 0.52988 0.62689 0.13451 0.0
H604 H 0.45324 0.6192 0.056 0.0
H605 H 0.4457 0.63304 0.14151 0.0
H606 H 0.47709 0.59067 0.14439 0.0
O607 O 0.32234 0.53309 0.13151 0.0
H608 H 0.3396 0.56936 0.02939 0.0
H609 H 0.28102 0.49799 0.09213 0.0
H610 H 0.50572 0.65579 0.04519 0.0
H611 H 0.40267 0.55934 0.23246 0.0
H612 H 0.54449 0.65982 0.08465 0.0
H613 H 0.42616 0.61309 0.24552 0.0
O614 O 0.41753 0.56096 0.0608 0.0
H615 H 0.32098 0.44039 0.13799 0.0
H616 H 0.32684 0.49465 0.03429 0.0
H617 H 0.31106 0.44142 0.0313 0.0
H618 H 0.30803 0.41393 0.08343 0.0
H619 H 0.3369 0.49368 0.13978 0.0
H620 H 0.23815 0.49125 0.05877 0.0
H621 H 0.24625 0.524 1.00986 0.0
O622 O 0.36997 0.54571 0.0469 0.0
C623 C 0.38627 0.60524 0.09075 0.0
C624 C 0.29361 0.54882 0.0164 0.0
C625 C 0.26034 0.50841 0.05209 0.0
N626 N 0.31276 0.53387 0.06251 0.0
C627 C 0.31741 0.55209 0.03576 0.0
C628 C 0.28468 0.51235 0.07091 0.0
C629 C 0.2649 0.52679 0.02465 0.0
C630 C 0.41142 0.56672 0.17954 0.0
N631 N 0.4234 0.58719 0.15437 0.0
C632 C 0.41226 0.57568 0.21267 0.0
C633 C 0.4254 0.60583 0.21997 0.0
C634 C 0.4375 0.62658 0.19418 0.0
C635 C 0.43625 0.6168 0.16135 0.0
C636 C 0.5132 0.62531 0.11711 0.0
C637 C 0.46995 0.62079 0.07323 0.0
C638 C 0.48328 0.60477 0.1225 0.0
N639 N 0.46208 0.60276 0.1007 0.0
C640 C 0.49965 0.64156 0.067 0.0
C641 C 0.52139 0.6438 0.08914 0.0
C642 C 0.39667 0.553 0.03933 0.0
C643 C 0.32211 0.4521 0.11512 0.0
C644 C 0.32563 0.48284 0.05706 0.0
C645 C 0.31662 0.45269 0.05523 0.0
C646 C 0.3149 0.43728 0.08449 0.0
N647 N 0.33265 0.4972 0.0872 0.0
C648 C 0.33098 0.48224 0.116 0.0
Co649 Co 0.80436 0.34715 0.25446 0.0
Co650 Co 0.84002 0.41758 0.28812 0.0
O651 O 0.82937 0.37591 0.28831 0.0
C652 C 0.77503 0.3215 0.31865 0.0
O653 O 0.77966 0.3481 0.32562 0.0
C654 C 0.89796 0.41988 0.29739 0.0
O655 O 0.89229 0.40205 0.27174 0.0
O656 O 0.8542 0.42232 0.24092 0.0
O657 O 0.82445 0.37738 0.21801 0.0
H658 H 0.84424 0.50937 0.2415 0.0
H659 H 0.83752 0.33147 0.30286 0.0
O660 O 0.78346 0.31658 0.2906 0.0
H661 H 0.87397 0.3241 0.19142 0.0
H662 H 0.75051 0.24574 0.20178 0.0
H663 H 0.77298 0.34951 0.19353 0.0
H664 H 0.83518 0.33776 0.19698 0.0
H665 H 0.78214 0.28269 0.24407 0.0
O666 O 0.88004 0.42865 0.30558 0.0
H667 H 0.83031 0.45659 0.24182 0.0
H668 H 0.87402 0.46803 0.33513 0.0
H669 H 0.74159 0.31341 0.15046 0.0
H670 H 0.87619 0.3175 0.29847 0.0
H671 H 0.73014 0.26109 0.15446 0.0
H672 H 0.89471 0.31382 0.24243 0.0
O673 O 0.77376 0.35918 0.25853 0.0
H674 H 0.83031 0.38374 0.40781 0.0
H675 H 0.79959 0.43313 0.32447 0.0
H676 H 0.7799 0.42559 0.38197 0.0
H677 H 0.79523 0.4007 0.42408 0.0
H678 H 0.8492 0.39139 0.34997 0.0
H679 H 0.8886 0.52099 0.33571 0.0
H680 H 0.8736 0.54197 0.28871 0.0
O681 O 0.80016 0.40757 0.27137 0.0
C682 C 0.84372 0.40501 0.21564 0.0
C683 C 0.85088 0.50049 0.26215 0.0
C684 C 0.87581 0.50701 0.31499 0.0
N685 N 0.85126 0.4592 0.28847 0.0
C686 C 0.84302 0.4706 0.26249 0.0
C687 C 0.86756 0.47702 0.31447 0.0
C688 C 0.86737 0.51877 0.28863 0.0
C689 C 0.8453 0.32966 0.27838 0.0
N690 N 0.83404 0.3353 0.2502 0.0
C691 C 0.86727 0.32185 0.27606 0.0
C692 C 0.87768 0.31983 0.24461 0.0
C693 C 0.86607 0.32561 0.21598 0.0
C694 C 0.84416 0.33341 0.21928 0.0
C695 C 0.75537 0.26848 0.19974 0.0
C696 C 0.76826 0.32683 0.19531 0.0
C697 C 0.77319 0.28947 0.22366 0.0
N698 N 0.77955 0.31825 0.22111 0.0
C699 C 0.7504 0.30646 0.17091 0.0
C700 C 0.74396 0.27711 0.17319 0.0
C701 C 0.77612 0.38452 0.26281 0.0
C702 C 0.82356 0.39472 0.38972 0.0
C703 C 0.80636 0.42225 0.34262 0.0
C704 C 0.79518 0.41811 0.37518 0.0
C705 C 0.80383 0.40418 0.39881 0.0
N706 N 0.82565 0.41283 0.33385 0.0
C707 C 0.83432 0.39927 0.35695 0.0
H708 H 0.27558 0.62362 0.42124 0.0
H709 H 0.21362 0.65638 0.41495 0.0
H710 H 0.25551 0.70781 0.41608 0.0
H711 H 0.32654 0.67872 0.47762 0.0
H712 H 0.35885 0.68128 0.45796 0.0
H713 H 0.32394 0.64704 0.4562 0.0
H714 H 0.32711 0.64751 0.39135 0.0
H715 H 0.36201 0.6818 0.3929 0.0
H716 H 0.33177 0.67946 0.3685 0.0
H717 H 0.30396 0.7555 0.41879 0.0
H718 H 0.35575 0.79631 0.42262 0.0
H719 H 0.38563 0.73193 0.42659 0.0
C720 C 0.27072 0.64155 0.42007 0.0
C721 C 0.24129 0.63594 0.41802 0.0
C722 C 0.23598 0.6601 0.41649 0.0
C723 C 0.25961 0.68939 0.41711 0.0
C724 C 0.28831 0.69407 0.41915 0.0
C725 C 0.29395 0.67084 0.42054 0.0
C726 C 0.32681 0.68184 0.42279 0.0
C727 C 0.33447 0.67162 0.4556 0.0
C728 C 0.33755 0.67208 0.39205 0.0
C729 C 0.33877 0.71494 0.42267 0.0
C730 C 0.31623 0.72155 0.42052 0.0
C731 C 0.32184 0.75065 0.4204 0.0
C732 C 0.35133 0.77365 0.42262 0.0
C733 C 0.37479 0.76734 0.42491 0.0
C734 C 0.36827 0.73755 0.42479 0.0
H735 H 0.6499 0.26459 0.56925 0.0
H736 H 0.55932 0.19848 0.59491 0.0
H737 H 0.54761 0.23837 0.60384 0.0
H738 H 0.65847 0.31618 0.63048 0.0
H739 H 0.68041 0.34844 0.60485 0.0
H740 H 0.68115 0.31474 0.59733 0.0
H741 H 0.66562 0.31428 0.53556 0.0
H742 H 0.66524 0.34826 0.54263 0.0
H743 H 0.63271 0.31616 0.52637 0.0
H744 H 0.54666 0.28543 0.61324 0.0
H745 H 0.55583 0.33639 0.61997 0.0
H746 H 0.64737 0.37121 0.58906 0.0
C747 C 0.62743 0.25834 0.57619 0.0
C748 C 0.60552 0.22838 0.58134 0.0
C749 C 0.57647 0.22128 0.59074 0.0
C750 C 0.5696 0.24376 0.59592 0.0
C751 C 0.592 0.27309 0.59152 0.0
C752 C 0.62024 0.2804 0.5816 0.0
C753 C 0.64064 0.31362 0.57995 0.0
C754 C 0.66669 0.32383 0.60463 0.0
C755 C 0.65169 0.32366 0.54399 0.0
C756 C 0.6195 0.32388 0.59084 0.0
C757 C 0.59155 0.3002 0.5973 0.0
C758 C 0.56841 0.30419 0.60809 0.0
C759 C 0.5739 0.33323 0.61195 0.0
C760 C 0.60236 0.35785 0.60508 0.0
C761 C 0.6254 0.35294 0.59459 0.0
H762 H 0.24293 0.59884 0.74568 0.0
H763 H 0.27487 0.69283 0.76016 0.0
H764 H 0.32633 0.70241 0.76217 0.0
H765 H 0.29146 0.59381 0.80224 0.0
H766 H 0.29661 0.56773 0.77763 0.0
H767 H 0.2626 0.56861 0.77428 0.0
H768 H 0.26993 0.57677 0.71013 0.0
H769 H 0.30373 0.57541 0.71314 0.0
H770 H 0.30413 0.60706 0.69421 0.0
H771 H 0.37398 0.70096 0.76602 0.0
H772 H 0.41437 0.68916 0.76704 0.0
H773 H 0.34974 0.5959 0.75178 0.0
C774 C 0.26068 0.62155 0.74881 0.0
C775 C 0.25486 0.64507 0.75285 0.0
C776 C 0.27882 0.67445 0.75688 0.0
C777 C 0.30808 0.6801 0.75821 0.0
C778 C 0.31286 0.65616 0.75535 0.0
C779 C 0.28982 0.62754 0.75035 0.0
C780 C 0.30056 0.6055 0.74903 0.0
C781 C 0.28701 0.58257 0.7775 0.0
C782 C 0.29422 0.5903 0.71457 0.0
C783 C 0.33331 0.62617 0.75435 0.0
C784 C 0.34006 0.65529 0.75792 0.0
C785 C 0.369 0.67825 0.76311 0.0
C786 C 0.39173 0.67129 0.76385 0.0
C787 C 0.38524 0.6416 0.75941 0.0
C788 C 0.35554 0.61883 0.75518 0.0
H789 H 0.72589 0.37388 0.93017 0.0
H790 H 0.78271 0.33533 0.91999 0.0
H791 H 0.73964 0.28556 0.92805 0.0
H792 H 0.67753 0.32298 0.99393 0.0
H793 H 0.64461 0.32118 0.97689 0.0
H794 H 0.68015 0.35426 0.97144 0.0
H795 H 0.67238 0.35083 0.90704 0.0
H796 H 0.63675 0.31795 0.91245 0.0
H797 H 0.66408 0.31703 0.88567 0.0
H798 H 0.69055 0.23986 0.93484 0.0
H799 H 0.63794 0.20096 0.93838 0.0
H800 H 0.61313 0.26904 0.94525 0.0
C801 C 0.72932 0.35501 0.92971 0.0
C802 C 0.75775 0.35864 0.92442 0.0
C803 C 0.76121 0.33327 0.92395 0.0
C804 C 0.73688 0.30483 0.92864 0.0
C805 C 0.70925 0.30206 0.93386 0.0
C806 C 0.70526 0.32639 0.93436 0.0
C807 C 0.67298 0.31708 0.93943 0.0
C808 C 0.66857 0.32962 0.97239 0.0
C809 C 0.66085 0.32626 0.90935 0.0
C810 C 0.6595 0.28374 0.94125 0.0
C811 C 0.68082 0.27555 0.93815 0.0
C812 C 0.67361 0.24593 0.93758 0.0
C813 C 0.64367 0.22401 0.93963 0.0
C814 C 0.62136 0.23189 0.94222 0.0
C815 C 0.62959 0.2622 0.94362 0.0
H816 H 0.33635 0.72754 0.09679 0.0
H817 H 0.42989 0.79233 0.11003 0.0
H818 H 0.44194 0.75256 0.10724 0.0
H819 H 0.33813 0.66927 0.14757 0.0
H820 H 0.31199 0.63977 0.12095 0.0
H821 H 0.31026 0.67332 0.12522 0.0
H822 H 0.3142 0.67997 0.06072 0.0
H823 H 0.31649 0.64675 0.0563 0.0
H824 H 0.34521 0.68132 0.03914 0.0
H825 H 0.44496 0.70777 0.098 0.0
H826 H 0.4383 0.65803 0.09183 0.0
H827 H 0.3426 0.62053 0.08799 0.0
C828 C 0.3593 0.73329 0.09962 0.0
C829 C 0.38218 0.76314 0.10314 0.0
C830 C 0.41194 0.76972 0.10688 0.0
C831 C 0.41909 0.7473 0.10529 0.0
C832 C 0.39623 0.71835 0.10054 0.0
C833 C 0.36688 0.71106 0.09852 0.0
C834 C 0.34675 0.67792 0.09379 0.0
C835 C 0.32553 0.66427 0.12367 0.0
C836 C 0.32966 0.67111 0.06051 0.0
C837 C 0.36956 0.66799 0.09299 0.0
C838 C 0.39791 0.69183 0.09661 0.0
C839 C 0.42287 0.68877 0.0957 0.0
C840 C 0.41877 0.66033 0.09209 0.0
C841 C 0.38986 0.6352 0.08993 0.0
C842 C 0.36495 0.63922 0.08977 0.0
H843 H 0.71733 0.3406 0.26039 0.0
H844 H 0.77552 0.43623 0.25512 0.0
H845 H 0.73226 0.44283 0.24968 0.0
H846 H 0.66155 0.3362 0.20141 0.0
H847 H 0.6309 0.30789 0.22496 0.0
H848 H 0.66658 0.31021 0.22648 0.0
H849 H 0.66668 0.31394 0.29122 0.0
H850 H 0.63109 0.31175 0.28988 0.0
H851 H 0.66195 0.34264 0.31038 0.0
H852 H 0.6836 0.4398 0.24679 0.0
H853 H 0.63146 0.42724 0.24737 0.0
H854 H 0.60389 0.33357 0.25544 0.0
C855 C 0.72095 0.36288 0.25768 0.0
C856 C 0.74985 0.38787 0.25807 0.0
C857 C 0.75365 0.41671 0.25493 0.0
C858 C 0.72921 0.42074 0.25172 0.0
C859 C 0.70109 0.39575 0.25179 0.0
C860 C 0.69671 0.36738 0.25471 0.0
C861 C 0.66394 0.3445 0.25549 0.0
C862 C 0.65524 0.32346 0.22528 0.0
C863 C 0.65543 0.3272 0.28872 0.0
C864 C 0.65075 0.36457 0.25284 0.0
C865 C 0.67264 0.39401 0.25051 0.0
C866 C 0.66617 0.41683 0.24842 0.0
C867 C 0.63643 0.40941 0.24879 0.0
C868 C 0.61348 0.37938 0.25138 0.0
C869 C 0.62086 0.35672 0.25332 0.0
H870 H 0.19571 0.6189 0.6627 0.0
H871 H 0.10133 0.5814 0.67766 0.0
H872 H 0.09198 0.56205 0.61946 0.0
H873 H 0.19877 0.63922 0.57448 0.0
H874 H 0.2258 0.62859 0.56401 0.0
H875 H 0.22486 0.64137 0.60565 0.0
H876 H 0.21969 0.5929 0.63012 0.0
H877 H 0.22013 0.57974 0.58853 0.0
H878 H 0.18965 0.5576 0.61631 0.0
H879 H 0.0932 0.54709 0.55953 0.0
H880 H 0.10449 0.53673 0.50271 0.0
H881 H 0.19794 0.58019 0.52802 0.0
C882 C 0.17317 0.60725 0.65328 0.0
C883 C 0.1492 0.60233 0.67408 0.0
C884 C 0.11991 0.58594 0.66167 0.0
C885 C 0.11446 0.57476 0.62879 0.0
C886 C 0.13854 0.57962 0.60894 0.0
C887 C 0.16733 0.59539 0.62074 0.0
C888 C 0.1891 0.59616 0.59493 0.0
C889 C 0.21092 0.62824 0.58413 0.0
C890 C 0.20561 0.58067 0.60828 0.0
C891 C 0.16812 0.57854 0.56664 0.0
C892 C 0.13907 0.56941 0.5752 0.0
C893 C 0.11583 0.55391 0.55271 0.0
C894 C 0.12243 0.54805 0.52052 0.0
C895 C 0.152 0.55717 0.51111 0.0
C896 C 0.17506 0.57227 0.53475 0.0
H897 H 0.58508 0.12477 0.69262 0.0
H898 H 0.65109 0.21798 0.68079 0.0
H899 H 0.63616 0.22902 0.73479 0.0
H900 H 0.52933 0.13445 0.72978 0.0
H901 H 0.51731 0.10441 0.75937 0.0
H902 H 0.5338 0.10308 0.72027 0.0
H903 H 0.57357 0.09649 0.7521 0.0
H904 H 0.55681 0.0972 0.79126 0.0
H905 H 0.59559 0.12287 0.78406 0.0
H906 H 0.61067 0.23106 0.7869 0.0
H907 H 0.58316 0.22266 0.83965 0.0
H908 H 0.53621 0.12776 0.82102 0.0
C909 C 0.59685 0.14741 0.70169 0.0
C910 C 0.61924 0.1705 0.68215 0.0
C911 C 0.63395 0.19982 0.69506 0.0
C912 C 0.62546 0.20641 0.7257 0.0
C913 C 0.6026 0.18338 0.74363 0.0
C914 C 0.58906 0.15434 0.73265 0.0
C915 C 0.56546 0.13372 0.75725 0.0
C916 C 0.53465 0.11799 0.74067 0.0
C917 C 0.57334 0.11125 0.77205 0.0
C918 C 0.56766 0.15581 0.78351 0.0
C919 C 0.58889 0.18438 0.77477 0.0
C920 C 0.59425 0.20875 0.79424 0.0
C921 C 0.57823 0.20376 0.82404 0.0
C922 C 0.55743 0.17457 0.83451 0.0
C923 C 0.55192 0.15033 0.81368 0.0
H924 H 0.4333 0.60196 1.00202 0.0
H925 H 0.3755 0.50674 0.99544 0.0
H926 H 0.38635 0.50879 0.93471 0.0
H927 H 0.41049 0.61842 0.92497 0.0
H928 H 0.44651 0.64898 0.91415 0.0
H929 H 0.43664 0.63967 0.95746 0.0
H930 H 0.48303 0.63442 0.96636 0.0
H931 H 0.49304 0.6437 0.923 0.0
H932 H 0.48868 0.60962 0.93995 0.0
H933 H 0.40248 0.52134 0.87492 0.0
H934 H 0.41812 0.54321 0.81901 0.0
H935 H 0.4638 0.63146 0.86289 0.0
C936 C 0.42352 0.58151 0.98788 0.0
C937 C 0.40414 0.55402 1.00344 0.0
C938 C 0.39071 0.52786 0.98397 0.0
C939 C 0.39684 0.52887 0.94955 0.0
C940 C 0.4161 0.55631 0.9349 0.0
C941 C 0.42899 0.58223 0.95333 0.0
C942 C 0.44689 0.60907 0.93091 0.0
C943 C 0.43438 0.63028 0.93194 0.0
C944 C 0.47987 0.62515 0.94064 0.0
C945 C 0.44189 0.59423 0.89689 0.0
C946 C 0.42442 0.56375 0.89998 0.0
C947 C 0.41617 0.54516 0.87224 0.0
C948 C 0.42529 0.55794 0.84043 0.0
C949 C 0.4423 0.58924 0.83616 0.0
C950 C 0.45112 0.60752 0.86507 0.0
H951 H 0.83758 0.37615 0.15591 0.0
H952 H 0.86674 0.46344 0.19775 0.0
H953 H 0.87113 0.48358 0.14077 0.0
H954 H 0.8874 0.40359 0.08192 0.0
H955 H 0.86025 0.37487 0.05527 0.0
H956 H 0.86133 0.36792 0.09935 0.0
H957 H 0.80598 0.35291 0.10453 0.0
H958 H 0.8048 0.3601 0.06062 0.0
H959 H 0.7943 0.37858 0.09121 0.0
H960 H 0.86525 0.49246 0.07936 0.0
H961 H 0.85721 0.49092 0.01792 0.0
H962 H 0.8369 0.39941 0.01606 0.0
C963 C 0.84552 0.39964 0.15314 0.0
C964 C 0.85156 0.41811 0.18149 0.0
C965 C 0.86188 0.44875 0.17658 0.0
C966 C 0.86439 0.46043 0.14424 0.0
C967 C 0.85727 0.44139 0.11693 0.0
C968 C 0.84883 0.41182 0.12102 0.0
C969 C 0.84225 0.396 0.08758 0.0
C970 C 0.86412 0.38495 0.08062 0.0
C971 C 0.80992 0.3704 0.0859 0.0
C972 C 0.84746 0.42106 0.06412 0.0
C973 C 0.85584 0.44703 0.08151 0.0
C974 C 0.85943 0.47246 0.0654 0.0
C975 C 0.85469 0.47139 0.03061 0.0
C976 C 0.84703 0.44526 0.01232 0.0
C977 C 0.84351 0.4199 0.02936 0.0
H978 H 0.37772 0.81191 0.19538 0.0
H979 H 0.42346 0.90624 0.17398 0.0
H980 H 0.44758 0.91642 0.22974 0.0
H981 H 0.36624 0.81588 0.28475 0.0
H982 H 0.37342 0.78633 0.29502 0.0
H983 H 0.35818 0.78697 0.2547 0.0
H984 H 0.40149 0.78474 0.22582 0.0
H985 H 0.41713 0.78457 0.26604 0.0
H986 H 0.43917 0.81253 0.2355 0.0
H987 H 0.46608 0.91611 0.28861 0.0
H988 H 0.47885 0.90536 0.34469 0.0
H989 H 0.42479 0.81102 0.32543 0.0
C990 C 0.39226 0.83476 0.20276 0.0
C991 C 0.39817 0.85839 0.18064 0.0
C992 C 0.41826 0.88788 0.19072 0.0
C993 C 0.43213 0.89383 0.22229 0.0
C994 C 0.42618 0.87 0.24328 0.0
C995 C 0.40684 0.84103 0.23384 0.0
C996 C 0.40549 0.81934 0.26023 0.0
C997 C 0.37396 0.80105 0.27452 0.0
C998 C 0.41648 0.7991 0.24604 0.0
C999 C 0.4269 0.84061 0.28616 0.0
C1000 C 0.43838 0.86975 0.27605 0.0
C1001 C 0.45749 0.89337 0.29655 0.0
C1002 C 0.46472 0.88708 0.32831 0.0
C1003 C 0.45339 0.8574 0.33911 0.0
C1004 C 0.43451 0.83392 0.31747 0.0
H1005 H 0.56727 0.37124 0.36247 0.0
H1006 H 0.51277 0.41138 0.34606 0.0
H1007 H 0.52261 0.43049 0.40422 0.0
H1008 H 0.54864 0.35068 0.44944 0.0
H1009 H 0.58587 0.36037 0.46104 0.0
H1010 H 0.57289 0.34834 0.41898 0.0
H1011 H 0.61732 0.39669 0.39583 0.0
H1012 H 0.63027 0.40899 0.43784 0.0
H1013 H 0.62321 0.43209 0.41007 0.0
H1014 H 0.53703 0.44358 0.46495 0.0
H1015 H 0.55802 0.45297 0.52231 0.0
H1016 H 0.60735 0.40895 0.49714 0.0
C1017 C 0.55708 0.38368 0.37136 0.0
C1018 C 0.53882 0.38944 0.35009 0.0
C1019 C 0.52658 0.40654 0.36215 0.0
C1020 C 0.53206 0.41747 0.39509 0.0
C1021 C 0.55038 0.41165 0.41538 0.0
C1022 C 0.56299 0.39545 0.40387 0.0
C1023 C 0.58315 0.39373 0.43013 0.0
C1024 C 0.57196 0.36135 0.44051 0.0
C1025 C 0.6154 0.40877 0.41772 0.0
C1026 C 0.5797 0.41124 0.45833 0.0
C1027 C 0.5604 0.42106 0.44946 0.0
C1028 C 0.55248 0.43636 0.47199 0.0
C1029 C 0.56449 0.44162 0.50445 0.0
C1030 C 0.5847 0.43222 0.51382 0.0
C1031 C 0.59254 0.41705 0.49032 0.0
H1032 H 0.94909 0.41811 0.28311 0.0
H1033 H 0.90688 0.4435 0.35972 0.0
H1034 H 0.95142 0.46261 0.39466 0.0
H1035 H 0.99172 0.39751 0.34188 0.0
H1036 H 0.02382 0.41279 0.31504 0.0
H1037 H 0.98728 0.39763 0.2971 0.0
H1038 H 0.00371 0.44738 0.26642 0.0
H1039 H 0.04022 0.46262 0.28421 0.0
H1040 H 0.01934 0.48129 0.29031 0.0
H1041 H 0.00133 0.48462 0.41824 0.0
H1042 H 0.05494 0.50787 0.42975 0.0
H1043 H 0.06599 0.46739 0.34023 0.0
C1044 C 0.94911 0.42719 0.3075 0.0
C1045 C 0.92451 0.42936 0.31857 0.0
C1046 C 0.92548 0.44175 0.35049 0.0
C1047 C 0.95064 0.45251 0.37072 0.0
C1048 C 0.97469 0.45062 0.35892 0.0
C1049 C 0.97426 0.4382 0.32819 0.0
C1050 C 0.00416 0.4411 0.32071 0.0
C1051 C 0.00158 0.41042 0.31856 0.0
C1052 C 0.01764 0.45918 0.28851 0.0
C1053 C 0.02155 0.45793 0.35152 0.0
C1054 C 0.0039 0.4629 0.37329 0.0
C1055 C 0.01529 0.48032 0.40188 0.0
C1056 C 0.04568 0.49346 0.40818 0.0
C1057 C 0.06419 0.48882 0.38623 0.0
C1058 C 0.05196 0.47039 0.3579 0.0
H1059 H 0.49079 0.94146 0.49446 0.0
H1060 H 0.56559 0.93724 0.45313 0.0
H1061 H 0.59975 0.98028 0.48819 0.0
H1062 H 0.52504 0.01969 0.49632 0.0
H1063 H 0.50708 0.02014 0.53467 0.0
H1064 H 0.48935 0.9886 0.50721 0.0
H1065 H 0.48557 0.95422 0.5564 0.0
H1066 H 0.50379 0.98582 0.58386 0.0
H1067 H 0.5187 0.96144 0.57857 0.0
H1068 H 0.6256 0.02532 0.52728 0.0
H1069 H 0.64048 0.07012 0.56198 0.0
H1070 H 0.54782 0.04254 0.5772 0.0
C1071 C 0.51434 0.94944 0.49271 0.0
C1072 C 0.52554 0.93599 0.47107 0.0
C1073 C 0.55654 0.94732 0.46946 0.0
C1074 C 0.57607 0.97158 0.48946 0.0
C1075 C 0.56414 0.98405 0.5109 0.0
C1076 C 0.53395 0.9734 0.51234 0.0
C1077 C 0.52648 0.99123 0.53606 0.0
C1078 C 0.5111 0.00578 0.51745 0.0
C1079 C 0.50752 0.97202 0.56547 0.0
C1080 C 0.55722 0.01399 0.5475 0.0
C1081 C 0.57875 0.00946 0.53313 0.0
C1082 C 0.60889 0.02888 0.53889 0.0
C1083 C 0.61715 0.05412 0.55883 0.0
C1084 C 0.59527 0.05965 0.57234 0.0
C1085 C 0.56502 0.03877 0.56738 0.0
H1086 H 0.52556 0.57977 0.72791 0.0
H1087 H 0.44299 0.53038 0.67259 0.0
H1088 H 0.46527 0.5073 0.63862 0.0
H1089 H 0.57514 0.59236 0.65715 0.0
H1090 H 0.6013 0.58745 0.68199 0.0
H1091 H 0.57964 0.60175 0.70103 0.0
H1092 H 0.56005 0.55975 0.74537 0.0
H1093 H 0.58181 0.54552 0.72665 0.0
H1094 H 0.54238 0.52163 0.73176 0.0
H1095 H 0.4944 0.48717 0.61321 0.0
H1096 H 0.52857 0.46902 0.59924 0.0
H1097 H 0.59328 0.53161 0.6694 0.0
C1098 C 0.51221 0.56415 0.70861 0.0
C1099 C 0.4825 0.55687 0.70297 0.0
C1100 C 0.46576 0.53631 0.67746 0.0
C1101 C 0.47826 0.52319 0.65785 0.0
C1102 C 0.50757 0.53093 0.6639 0.0
C1103 C 0.52436 0.55079 0.68868 0.0
C1104 C 0.5549 0.55398 0.69093 0.0
C1105 C 0.57918 0.58578 0.68225 0.0
C1106 C 0.56007 0.54465 0.72574 0.0
C1107 C 0.55228 0.5322 0.66408 0.0
C1108 C 0.52483 0.51946 0.64864 0.0
C1109 C 0.51612 0.49723 0.62471 0.0
C1110 C 0.53565 0.4871 0.61695 0.0
C1111 C 0.56358 0.49925 0.63295 0.0
C1112 C 0.57234 0.52258 0.65622 0.0
H1113 H 0.05224 0.57933 0.79341 0.0
H1114 H 0.08708 0.52488 0.83249 0.0
H1115 H 0.04384 0.49927 0.86954 0.0
H1116 H 0.02104 0.58668 0.87184 0.0
H1117 H 0.98861 0.58414 0.85235 0.0
H1118 H 0.02293 0.59933 0.82938 0.0
H1119 H 0.99643 0.56081 0.78211 0.0
H1120 H 0.96204 0.54576 0.80476 0.0
H1121 H 0.97609 0.52185 0.79236 0.0
H1122 H 0.99672 0.47807 0.90042 0.0
H1123 H 0.94615 0.46025 0.92146 0.0
H1124 H 0.94113 0.52839 0.86391 0.0
C1125 C 0.05072 0.56198 0.80971 0.0
C1126 C 0.07307 0.55411 0.80998 0.0
C1127 C 0.07028 0.53132 0.83175 0.0
C1128 C 0.04587 0.51672 0.85307 0.0
C1129 C 0.02444 0.52517 0.85246 0.0
C1130 C 0.02642 0.5471 0.83128 0.0
C1131 C -0.00044 0.55095 0.83486 0.0
C1132 C 0.00858 0.58213 0.84789 0.0
C1133 C 0.98252 0.54444 0.80154 0.0
C1134 C 0.98199 0.52737 0.86092 0.0
C1135 C -0.003 0.51301 0.87085 0.0
C1136 C 0.98483 0.4893 0.89317 0.0
C1137 C 0.95614 0.47937 0.90499 0.0
C1138 C 0.93997 0.49318 0.89457 0.0
C1139 C 0.95332 0.51793 0.87287 0.0
H1140 H 0.44286 0.06443 0.98565 0.0
H1141 H 0.4852 0.04599 0.90322 0.0
H1142 H 0.46317 0.99405 0.92216 0.0
H1143 H 0.45881 0.02716 0.0442 0.0
H1144 H 0.42499 0.01248 0.06805 0.0
H1145 H 0.43777 0.04606 0.04426 0.0
H1146 H 0.38779 0.02298 0.01237 0.0
H1147 H 0.37455 0.98937 0.03649 0.0
H1148 H 0.37412 0.98786 0.99138 0.0
H1149 H 0.44456 0.94807 0.95425 0.0
H1150 H 0.42875 0.90905 0.99676 0.0
H1151 H 0.39847 0.95616 0.0604 0.0
C1152 C 0.4462 0.04897 0.97076 0.0
C1153 C 0.46503 0.05879 0.94251 0.0
C1154 C 0.47033 0.03856 0.92452 0.0
C1155 C 0.45793 0.00909 0.93511 0.0
C1156 C 0.44045 0.00032 0.96386 0.0
C1157 C 0.43432 0.0195 0.98138 0.0
C1158 C 0.41821 0.00549 0.01387 0.0
C1159 C 0.43602 0.02389 0.04438 0.0
C1160 C 0.38679 0.00116 0.01349 0.0
C1161 C 0.41731 0.97594 0.01245 0.0
C1162 C 0.42993 0.97341 0.9831 0.0
C1163 C 0.43408 0.94947 0.977 0.0
C1164 C 0.4252 0.92751 1.00152 0.0
C1165 C 0.41227 0.9295 0.03193 0.0
C1166 C 0.40789 0.95386 0.03722 0.0
H1167 H 0.40979 0.45962 0.11042 0.0
H1168 H 0.44608 0.53429 0.17927 0.0
H1169 H 0.45778 0.50606 0.2194 0.0
H1170 H 0.37983 0.39991 0.17462 0.0
H1171 H 0.39086 0.37716 0.15183 0.0
H1172 H 0.38142 0.40144 0.12951 0.0
H1173 H 0.43251 0.42644 0.09986 0.0
H1174 H 0.44189 0.40203 0.12177 0.0
H1175 H 0.46584 0.44166 0.12478 0.0
H1176 H 0.46974 0.47302 0.25006 0.0
H1177 H 0.48595 0.43797 0.26747 0.0
H1178 H 0.44339 0.38376 0.18006 0.0
C1179 C 0.41985 0.46978 0.13413 0.0
C1180 C 0.42681 0.49911 0.14171 0.0
C1181 C 0.44047 0.51188 0.17276 0.0
C1182 C 0.447 0.49592 0.19598 0.0
C1183 C 0.43997 0.46719 0.18785 0.0
C1184 C 0.42704 0.45422 0.15761 0.0
C1185 C 0.42485 0.42414 0.15405 0.0
C1186 C 0.3923 0.39918 0.15241 0.0
C1187 C 0.44232 0.42355 0.1233 0.0
C1188 C 0.43938 0.42282 0.18655 0.0
C1189 C 0.44731 0.44772 0.20586 0.0
C1190 C 0.46321 0.45313 0.23557 0.0
C1191 C 0.47225 0.43312 0.2453 0.0
C1192 C 0.46534 0.40801 0.22544 0.0
C1193 C 0.44798 0.40228 0.19621 0.0
H1194 H 0.26095 0.58892 0.31409 0.0
H1195 H 0.21318 0.49521 0.33865 0.0
H1196 H 0.23478 0.48476 0.28868 0.0
H1197 H 0.25545 0.58252 0.22508 0.0
H1198 H 0.29252 0.61275 0.2177 0.0
H1199 H 0.2728 0.6125 0.25481 0.0
H1200 H 0.31582 0.61716 0.29188 0.0
H1201 H 0.33576 0.61763 0.25487 0.0
H1202 H 0.32809 0.59055 0.28723 0.0
H1203 H 0.2598 0.48481 0.23319 0.0
H1204 H 0.29062 0.49588 0.18204 0.0
H1205 H 0.32508 0.58996 0.19754 0.0
C1206 C 0.25502 0.56618 0.30894 0.0
C1207 C 0.23518 0.5428 0.33002 0.0
C1208 C 0.22835 0.51342 0.32279 0.0
C1209 C 0.2404 0.5073 0.2944 0.0
C1210 C 0.25973 0.5309 0.2739 0.0
C1211 C 0.2674 0.55982 0.28127 0.0
C1212 C 0.2896 0.58142 0.25627 0.0
C1213 C 0.27682 0.59828 0.23735 0.0
C1214 C 0.31906 0.60295 0.2736 0.0
C1215 C 0.29304 0.56018 0.23334 0.0
C1216 C 0.27534 0.53108 0.24355 0.0
C1217 C 0.27398 0.50755 0.22528 0.0
C1218 C 0.29142 0.51401 0.19619 0.0
C1219 C 0.3104 0.54375 0.18603 0.0
C1220 C 0.31107 0.56701 0.20494 0.0
H1221 H 0.77528 0.32618 0.38675 0.0
H1222 H 0.73885 0.26236 0.3057 0.0
H1223 H 0.70898 0.22264 0.34659 0.0
H1224 H 0.78025 0.27524 0.44717 0.0
H1225 H 0.77102 0.29084 0.48224 0.0
H1226 H 0.79024 0.31378 0.44666 0.0
H1227 H 0.74921 0.32765 0.44005 0.0
H1228 H 0.72983 0.30475 0.47549 0.0
H1229 H 0.7111 0.29857 0.4358 0.0
H1230 H 0.67858 0.19157 0.39574 0.0
H1231 H 0.65418 0.1702 0.45008 0.0
H1232 H 0.71435 0.25297 0.4996 0.0
C1233 C 0.76123 0.30376 0.37768 0.0
C1234 C 0.75917 0.29727 0.34311 0.0
C1235 C 0.74076 0.2677 0.33213 0.0
C1236 C 0.7237 0.24506 0.35515 0.0
C1237 C 0.72591 0.25228 0.38909 0.0
C1238 C 0.74468 0.28081 0.40038 0.0
C1239 C 0.743 0.28278 0.4381 0.0
C1240 C 0.77291 0.29115 0.45451 0.0
C1241 C 0.73266 0.30473 0.44792 0.0
C1242 C 0.7197 0.25108 0.44624 0.0
C1243 C 0.70994 0.23387 0.41759 0.0
C1244 C 0.68656 0.2046 0.41842 0.0
C1245 C 0.67282 0.19267 0.44929 0.0
C1246 C 0.68292 0.20977 0.47891 0.0
C1247 C 0.70687 0.23919 0.47738 0.0
H1248 H 0.42854 0.69097 0.65681 0.0
H1249 H 0.52147 0.71686 0.6632 0.0
H1250 H 0.53128 0.74672 0.61113 0.0
H1251 H 0.42076 0.68313 0.56912 0.0
H1252 H 0.39619 0.69802 0.56594 0.0
H1253 H 0.39716 0.67972 0.60382 0.0
H1254 H 0.40878 0.72644 0.6384 0.0
H1255 H 0.40756 0.74481 0.60068 0.0
H1256 H 0.44003 0.76187 0.62702 0.0
H1257 H 0.52918 0.77085 0.55485 0.0
H1258 H 0.51675 0.79102 0.50486 0.0
H1259 H 0.42574 0.7508 0.53895 0.0
C1260 C 0.45107 0.7031 0.64747 0.0
C1261 C 0.47427 0.70154 0.66397 0.0
C1262 C 0.50342 0.71791 0.65104 0.0
C1263 C 0.5091 0.73475 0.62139 0.0
C1264 C 0.48546 0.73531 0.60537 0.0
C1265 C 0.45712 0.72025 0.61846 0.0
C1266 C 0.43542 0.72442 0.59717 0.0
C1267 C 0.41095 0.69455 0.58319 0.0
C1268 C 0.42218 0.74034 0.617 0.0
C1269 C 0.45578 0.744 0.56968 0.0
C1270 C 0.48452 0.74988 0.57445 0.0
C1271 C 0.50679 0.7666 0.55122 0.0
C1272 C 0.49953 0.77784 0.5228 0.0
C1273 C 0.47035 0.77268 0.51812 0.0
C1274 C 0.44834 0.75546 0.54196 0.0
H1275 H 0.73729 0.44313 0.8405 0.0
H1276 H 0.81113 0.4466 0.78672 0.0
H1277 H 0.79076 0.45304 0.73332 0.0
H1278 H 0.68301 0.39857 0.77909 0.0
H1279 H 0.66079 0.41588 0.78466 0.0
H1280 H 0.6827 0.41469 0.81891 0.0
H1281 H 0.70864 0.47188 0.82452 0.0
H1282 H 0.68684 0.47324 0.79018 0.0
H1283 H 0.72674 0.49488 0.78858 0.0
H1284 H 0.7626 0.45962 0.6859 0.0
H1285 H 0.72544 0.45896 0.6468 0.0
H1286 H 0.66701 0.4458 0.73042 0.0
C1287 C 0.74927 0.44566 0.81745 0.0
C1288 C 0.77598 0.44487 0.81758 0.0
C1289 C 0.79073 0.44737 0.787 0.0
C1290 C 0.77939 0.45116 0.75664 0.0
C1291 C 0.75293 0.45174 0.75722 0.0
C1292 C 0.73775 0.44853 0.78674 0.0
C1293 C 0.70843 0.44724 0.78001 0.0
C1294 C 0.68219 0.41731 0.79134 0.0
C1295 C 0.70763 0.47337 0.79683 0.0
C1296 C 0.70951 0.4502 0.74214 0.0
C1297 C 0.73566 0.45341 0.7296 0.0
C1298 C 0.74198 0.45699 0.69542 0.0
C1299 C 0.72081 0.45673 0.67342 0.0
C1300 C 0.69334 0.45226 0.68556 0.0
C1301 C 0.68779 0.44915 0.72043 0.0
H1302 H 0.31438 0.74283 0.9879 0.0
H1303 H 0.26831 0.78966 0.01548 0.0
H1304 H 0.23618 0.76919 0.96521 0.0
H1305 H 0.31425 0.75199 0.89979 0.0
H1306 H 0.30798 0.71543 0.89035 0.0
H1307 H 0.32691 0.7338 0.92833 0.0
H1308 H 0.28847 0.68896 0.96327 0.0
H1309 H 0.2695 0.67037 0.92537 0.0
H1310 H 0.24953 0.67635 0.95839 0.0
H1311 H 0.21077 0.74489 0.90897 0.0
H1312 H 0.19183 0.71574 0.85641 0.0
H1313 H 0.25344 0.68341 0.86917 0.0
C1314 C 0.2975 0.74878 0.98347 0.0
C1315 C 0.29395 0.76799 1.00549 0.0
C1316 C 0.27136 0.77492 0.99896 0.0
C1317 C 0.25312 0.76349 0.9704 0.0
C1318 C 0.25748 0.74483 0.94894 0.0
C1319 C 0.27889 0.73723 0.95557 0.0
C1320 C 0.27889 0.71627 0.92936 0.0
C1321 C 0.30878 0.73022 0.91087 0.0
C1322 C 0.27113 0.68621 0.94504 0.0
C1323 C 0.25434 0.7134 0.90662 0.0
C1324 C 0.24233 0.73018 0.91797 0.0
C1325 C 0.21989 0.73149 0.90013 0.0
C1326 C 0.20934 0.71499 0.87024 0.0
C1327 C 0.22097 0.69713 0.85881 0.0
C1328 C 0.2438 0.69656 0.87737 0.0
H1329 H 0.52661 0.3175 0.13026 0.0
H1330 H 0.49933 0.24926 0.20653 0.0
H1331 H 0.49346 0.21292 0.16313 0.0
H1332 H 0.47581 0.26815 0.06418 0.0
H1333 H 0.50251 0.28713 0.03141 0.0
H1334 H 0.50238 0.30717 0.06813 0.0
H1335 H 0.55768 0.32412 0.07859 0.0
H1336 H 0.558 0.3041 0.04204 0.0
H1337 H 0.56894 0.29663 0.08208 0.0
H1338 H 0.49726 0.18608 0.11292 0.0
H1339 H 0.50609 0.16932 0.05839 0.0
H1340 H 0.52673 0.25342 0.01369 0.0
C1341 C 0.51896 0.29479 0.13775 0.0
C1342 C 0.51347 0.28619 0.17179 0.0
C1343 C 0.5035 0.25629 0.1806 0.0
C1344 C 0.50014 0.23551 0.15612 0.0
C1345 C 0.50627 0.24482 0.12287 0.0
C1346 C 0.51498 0.27362 0.11356 0.0
C1347 C 0.52097 0.27812 0.07624 0.0
C1348 C 0.49911 0.28558 0.05897 0.0
C1349 C 0.55332 0.30216 0.06935 0.0
C1350 C 0.51519 0.24761 0.06618 0.0
C1351 C 0.50682 0.22876 0.09351 0.0
C1352 C 0.50306 0.20035 0.09118 0.0
C1353 C 0.50816 0.19105 0.06021 0.0
C1354 C 0.51641 0.20987 0.03189 0.0
C1355 C 0.51952 0.23832 0.0348 0.0
loop_
_geom_bond_atom_site_label_1
_geom_bond_atom_site_label_2
_geom_bond_distance
_geom_bond_site_symmetry_2
_ccdc_geom_bond_type
Co0 O2 2.143 . S
Co0 O8 2.074 . S
Co0 O11 2.093 . S
Co0 O24 2.097 . S
Co0 N41 2.151 . S
Co0 N49 2.214 . S
Co1 O2 2.160 . S
Co1 O7 2.058 . S
Co1 O17 2.057 . S
Co1 O32 2.037 . S
Co1 N36 2.145 . S
Co1 N57 2.257 . S
O2 Co0 2.143 . S
O2 Co1 2.160 . S
C3 O4 1.278 . S
C3 O11 1.224 . S
O4 C3 1.278 . S
C5 O6 1.245 . S
C5 O17 1.232 . S
O6 C5 1.245 . S
O7 Co1 2.058 . S
O7 C33 1.269 . S
O8 Co0 2.074 . S
O8 C33 1.257 . S
H9 C34 0.930 . S
H10 C40 0.930 . S
O11 Co0 2.093 . S
O11 C3 1.224 . S
H12 C44 0.929 . S
H13 C46 0.930 . S
H14 C47 0.930 . S
H15 C45 0.929 . S
H16 C48 0.928 . S
O17 Co1 2.057 . S
O17 C5 1.232 . S
H18 C37 0.929 . S
H19 C38 0.929 . S
H20 C50 0.931 . S
H21 C42 0.929 . S
H22 C51 0.930 . S
H23 C43 0.931 . S
O24 Co0 2.097 . S
O24 C52 1.214 . S
H25 C53 0.929 . S
H26 C54 0.929 . S
H27 C55 0.930 . S
H28 C56 0.929 . S
H29 C58 0.930 . S
H30 C35 0.930 . S
H31 C39 0.930 . S
O32 Co1 2.037 . S
O32 C52 1.234 . S
C33 O7 1.269 . S
C33 O8 1.257 . S
C34 H9 0.930 . S
C34 C37 1.388 . S
C34 C39 1.418 . S
C35 H30 0.930 . S
C35 C38 1.404 . S
C35 C39 1.353 . S
N36 Co1 2.145 . S
N36 C37 1.397 . S
N36 C38 1.334 . S
C37 H18 0.929 . S
C37 C34 1.388 . S
C37 N36 1.397 . S
C38 H19 0.929 . S
C38 C35 1.404 . S
C38 N36 1.334 . S
C39 H31 0.930 . S
C39 C34 1.418 . S
C39 C35 1.353 . S
C40 H10 0.930 . S
C40 N41 1.330 . S
C40 C42 1.446 . S
N41 Co0 2.151 . S
N41 C40 1.330 . S
N41 C45 1.418 . S
C42 H21 0.929 . S
C42 C40 1.446 . S
C42 C43 1.332 . S
C43 H23 0.931 . S
C43 C42 1.332 . S
C43 C44 1.267 . S
C44 H12 0.929 . S
C44 C43 1.267 . S
C44 C45 1.251 . S
C45 H15 0.929 . S
C45 N41 1.418 . S
C45 C44 1.251 . S
C46 H13 0.930 . S
C46 C48 1.406 . S
C46 C51 1.261 . S
C47 H14 0.930 . S
C47 N49 1.325 . S
C47 C50 1.357 . S
C48 H16 0.928 . S
C48 C46 1.406 . S
C48 N49 1.261 . S
N49 Co0 2.214 . S
N49 C47 1.325 . S
N49 C48 1.261 . S
C50 H20 0.931 . S
C50 C47 1.357 . S
C50 C51 1.312 . S
C51 H22 0.930 . S
C51 C46 1.261 . S
C51 C50 1.312 . S
C52 O24 1.214 . S
C52 O32 1.234 . S
C53 H25 0.929 . S
C53 C56 1.391 . S
C53 C58 1.391 . S
C54 H26 0.929 . S
C54 C55 1.390 . S
C54 N57 1.391 . S
C55 H27 0.930 . S
C55 C54 1.390 . S
C55 C56 1.392 . S
C56 H28 0.929 . S
C56 C53 1.391 . S
C56 C55 1.392 . S
N57 Co1 2.257 . S
N57 C54 1.391 . S
N57 C58 1.388 . S
C58 H29 0.930 . S
C58 C53 1.391 . S
C58 N57 1.388 . S
Co59 O61 2.143 . S
Co59 O67 2.074 . S
Co59 O70 2.093 . S
Co59 O83 2.097 . S
Co59 N100 2.151 . S
Co59 N108 2.214 . S
Co60 O61 2.160 . S
Co60 O66 2.058 . S
Co60 O76 2.057 . S
Co60 O91 2.037 . S
Co60 N95 2.145 . S
Co60 N116 2.257 . S
O61 Co59 2.143 . S
O61 Co60 2.160 . S
C62 O63 1.278 . S
C62 O70 1.224 . S
O63 C62 1.278 . S
C64 O65 1.245 . S
C64 O76 1.232 . S
O65 C64 1.245 . S
O66 Co60 2.058 . S
O66 C92 1.269 . S
O67 Co59 2.074 . S
O67 C92 1.257 . S
H68 C93 0.930 . S
H69 C99 0.930 . S
O70 Co59 2.093 . S
O70 C62 1.224 . S
H71 C103 0.929 . S
H72 C105 0.930 . S
H73 C106 0.930 . S
H74 C104 0.929 . S
H75 C107 0.928 . S
O76 Co60 2.057 . S
O76 C64 1.232 . S
H77 C96 0.929 . S
H78 C97 0.929 . S
H79 C109 0.931 . S
H80 C101 0.929 . S
H81 C110 0.930 . S
H82 C102 0.931 . S
O83 Co59 2.097 . S
O83 C111 1.214 . S
H84 C112 0.929 . S
H85 C113 0.929 . S
H86 C114 0.930 . S
H87 C115 0.929 . S
H88 C117 0.930 . S
H89 C94 0.930 . S
H90 C98 0.930 . S
O91 Co60 2.037 . S
O91 C111 1.234 . S
C92 O66 1.269 . S
C92 O67 1.257 . S
C93 H68 0.930 . S
C93 C96 1.388 . S
C93 C98 1.418 . S
C94 H89 0.930 . S
C94 C97 1.404 . S
C94 C98 1.353 . S
N95 Co60 2.145 . S
N95 C96 1.397 . S
N95 C97 1.334 . S
C96 H77 0.929 . S
C96 C93 1.388 . S
C96 N95 1.397 . S
C97 H78 0.929 . S
C97 C94 1.404 . S
C97 N95 1.334 . S
C98 H90 0.930 . S
C98 C93 1.418 . S
C98 C94 1.353 . S
C99 H69 0.930 . S
C99 N100 1.330 . S
C99 C101 1.446 . S
N100 Co59 2.151 . S
N100 C99 1.330 . S
N100 C104 1.418 . S
C101 H80 0.929 . S
C101 C99 1.446 . S
C101 C102 1.332 . S
C102 H82 0.931 . S
C102 C101 1.332 . S
C102 C103 1.267 . S
C103 H71 0.929 . S
C103 C102 1.267 . S
C103 C104 1.251 . S
C104 H74 0.929 . S
C104 N100 1.418 . S
C104 C103 1.251 . S
C105 H72 0.930 . S
C105 C107 1.406 . S
C105 C110 1.261 . S
C106 H73 0.930 . S
C106 N108 1.325 . S
C106 C109 1.357 . S
C107 H75 0.928 . S
C107 C105 1.406 . S
C107 N108 1.261 . S
N108 Co59 2.214 . S
N108 C106 1.325 . S
N108 C107 1.261 . S
C109 H79 0.931 . S
C109 C106 1.357 . S
C109 C110 1.312 . S
C110 H81 0.930 . S
C110 C105 1.261 . S
C110 C109 1.312 . S
C111 O83 1.214 . S
C111 O91 1.234 . S
C112 H84 0.929 . S
C112 C115 1.391 . S
C112 C117 1.391 . S
C113 H85 0.929 . S
C113 C114 1.390 . S
C113 N116 1.391 . S
C114 H86 0.930 . S
C114 C113 1.390 . S
C114 C115 1.392 . S
C115 H87 0.929 . S
C115 C112 1.391 . S
C115 C114 1.392 . S
N116 Co60 2.257 . S
N116 C113 1.391 . S
N116 C117 1.388 . S
C117 H88 0.930 . S
C117 C112 1.391 . S
C117 N116 1.388 . S
Co118 O120 2.143 . S
Co118 O126 2.074 . S
Co118 O129 2.093 . S
Co118 O142 2.097 . S
Co118 N159 2.151 . S
Co118 N167 2.214 . S
Co119 O120 2.160 . S
Co119 O125 2.058 . S
Co119 O135 2.057 . S
Co119 O150 2.037 . S
Co119 N154 2.145 . S
Co119 N175 2.257 . S
O120 Co118 2.143 . S
O120 Co119 2.160 . S
C121 O122 1.278 . S
C121 O129 1.224 . S
O122 C121 1.278 . S
C123 O124 1.245 . S
C123 O135 1.232 . S
O124 C123 1.245 . S
O125 Co119 2.058 . S
O125 C151 1.269 . S
O126 Co118 2.074 . S
O126 C151 1.257 . S
H127 C152 0.930 . S
H128 C158 0.930 . S
O129 Co118 2.093 . S
O129 C121 1.224 . S
H130 C162 0.929 . S
H131 C164 0.930 . S
H132 C165 0.930 . S
H133 C163 0.929 . S
H134 C166 0.928 . S
O135 Co119 2.057 . S
O135 C123 1.232 . S
H136 C155 0.929 . S
H137 C156 0.929 . S
H138 C168 0.931 . S
H139 C160 0.929 . S
H140 C169 0.930 . S
H141 C161 0.931 . S
O142 Co118 2.097 . S
O142 C170 1.214 . S
H143 C171 0.929 . S
H144 C172 0.929 . S
H145 C173 0.930 . S
H146 C174 0.929 . S
H147 C176 0.930 . S
H148 C153 0.930 . S
H149 C157 0.930 . S
O150 Co119 2.037 . S
O150 C170 1.234 . S
C151 O125 1.269 . S
C151 O126 1.257 . S
C152 H127 0.930 . S
C152 C155 1.388 . S
C152 C157 1.418 . S
C153 H148 0.930 . S
C153 C156 1.404 . S
C153 C157 1.353 . S
N154 Co119 2.145 . S
N154 C155 1.397 . S
N154 C156 1.334 . S
C155 H136 0.929 . S
C155 C152 1.388 . S
C155 N154 1.397 . S
C156 H137 0.929 . S
C156 C153 1.404 . S
C156 N154 1.334 . S
C157 H149 0.930 . S
C157 C152 1.418 . S
C157 C153 1.353 . S
C158 H128 0.930 . S
C158 N159 1.330 . S
C158 C160 1.446 . S
N159 Co118 2.151 . S
N159 C158 1.330 . S
N159 C163 1.418 . S
C160 H139 0.929 . S
C160 C158 1.446 . S
C160 C161 1.332 . S
C161 H141 0.931 . S
C161 C160 1.332 . S
C161 C162 1.267 . S
C162 H130 0.929 . S
C162 C161 1.267 . S
C162 C163 1.251 . S
C163 H133 0.929 . S
C163 N159 1.418 . S
C163 C162 1.251 . S
C164 H131 0.930 . S
C164 C166 1.406 . S
C164 C169 1.261 . S
C165 H132 0.930 . S
C165 N167 1.325 . S
C165 C168 1.357 . S
C166 H134 0.928 . S
C166 C164 1.406 . S
C166 N167 1.261 . S
N167 Co118 2.214 . S
N167 C165 1.325 . S
N167 C166 1.261 . S
C168 H138 0.931 . S
C168 C165 1.357 . S
C168 C169 1.312 . S
C169 H140 0.930 . S
C169 C164 1.261 . S
C169 C168 1.312 . S
C170 O142 1.214 . S
C170 O150 1.234 . S
C171 H143 0.929 . S
C171 C174 1.391 . S
C171 C176 1.391 . S
C172 H144 0.929 . S
C172 C173 1.390 . S
C172 N175 1.391 . S
C173 H145 0.930 . S
C173 C172 1.390 . S
C173 C174 1.392 . S
C174 H146 0.929 . S
C174 C171 1.391 . S
C174 C173 1.392 . S
N175 Co119 2.257 . S
N175 C172 1.391 . S
N175 C176 1.388 . S
C176 H147 0.930 . S
C176 C171 1.391 . S
C176 N175 1.388 . S
Co177 O179 2.143 . S
Co177 O185 2.074 . S
Co177 O188 2.093 . S
Co177 O201 2.097 . S
Co177 N218 2.151 . S
Co177 N226 2.214 . S
Co178 O179 2.160 . S
Co178 O184 2.058 . S
Co178 O194 2.057 . S
Co178 O209 2.037 . S
Co178 N213 2.145 . S
Co178 N234 2.257 . S
O179 Co177 2.143 . S
O179 Co178 2.160 . S
C180 O181 1.278 . S
C180 O188 1.224 . S
O181 C180 1.278 . S
C182 O183 1.245 . S
C182 O194 1.232 . S
O183 C182 1.245 . S
O184 Co178 2.058 . S
O184 C210 1.269 . S
O185 Co177 2.074 . S
O185 C210 1.257 . S
H186 C211 0.930 1_554 S
H187 C217 0.930 . S
O188 Co177 2.093 . S
O188 C180 1.224 . S
H189 C221 0.929 . S
H190 C223 0.930 . S
H191 C224 0.930 . S
H192 C222 0.929 . S
H193 C225 0.928 . S
O194 Co178 2.057 . S
O194 C182 1.232 . S
H195 C214 0.929 . S
H196 C215 0.929 . S
H197 C227 0.931 . S
H198 C219 0.929 . S
H199 C228 0.930 . S
H200 C220 0.931 . S
O201 Co177 2.097 . S
O201 C229 1.214 . S
H202 C230 0.929 . S
H203 C231 0.929 . S
H204 C232 0.930 . S
H205 C233 0.929 . S
H206 C235 0.930 . S
H207 C212 0.930 . S
H208 C216 0.930 . S
O209 Co178 2.037 . S
O209 C229 1.234 . S
C210 O184 1.269 . S
C210 O185 1.257 . S
C211 H186 0.930 1_556 S
C211 C214 1.388 . S
C211 C216 1.418 . S
C212 H207 0.930 . S
C212 C215 1.404 . S
C212 C216 1.353 . S
N213 Co178 2.145 . S
N213 C214 1.397 . S
N213 C215 1.334 . S
C214 H195 0.929 . S
C214 C211 1.388 . S
C214 N213 1.397 . S
C215 H196 0.929 . S
C215 C212 1.404 . S
C215 N213 1.334 . S
C216 H208 0.930 . S
C216 C211 1.418 . S
C216 C212 1.353 . S
C217 H187 0.930 . S
C217 N218 1.330 . S
C217 C219 1.446 . S
N218 Co177 2.151 . S
N218 C217 1.330 . S
N218 C222 1.418 . S
C219 H198 0.929 . S
C219 C217 1.446 . S
C219 C220 1.332 . S
C220 H200 0.931 . S
C220 C219 1.332 . S
C220 C221 1.267 . S
C221 H189 0.929 . S
C221 C220 1.267 . S
C221 C222 1.251 . S
C222 H192 0.929 . S
C222 N218 1.418 . S
C222 C221 1.251 . S
C223 H190 0.930 . S
C223 C225 1.406 . S
C223 C228 1.261 . S
C224 H191 0.930 . S
C224 N226 1.325 . S
C224 C227 1.357 . S
C225 H193 0.928 . S
C225 C223 1.406 . S
C225 N226 1.261 . S
N226 Co177 2.214 . S
N226 C224 1.325 . S
N226 C225 1.261 . S
C227 H197 0.931 . S
C227 C224 1.357 . S
C227 C228 1.312 . S
C228 H199 0.930 . S
C228 C223 1.261 . S
C228 C227 1.312 . S
C229 O201 1.214 . S
C229 O209 1.234 . S
C230 H202 0.929 . S
C230 C233 1.391 . S
C230 C235 1.391 . S
C231 H203 0.929 . S
C231 C232 1.390 . S
C231 N234 1.391 . S
C232 H204 0.930 . S
C232 C231 1.390 . S
C232 C233 1.392 . S
C233 H205 0.929 . S
C233 C230 1.391 . S
C233 C232 1.392 . S
N234 Co178 2.257 . S
N234 C231 1.391 . S
N234 C235 1.388 . S
C235 H206 0.930 . S
C235 C230 1.391 . S
C235 N234 1.388 . S
Co236 O238 2.143 . S
Co236 O244 2.074 . S
Co236 O247 2.093 . S
Co236 O260 2.097 . S
Co236 N277 2.151 . S
Co236 N285 2.214 . S
Co237 O238 2.160 . S
Co237 O243 2.058 . S
Co237 O253 2.057 . S
Co237 O268 2.037 . S
Co237 N272 2.145 . S
Co237 N293 2.257 . S
O238 Co236 2.143 . S
O238 Co237 2.160 . S
C239 O240 1.278 1_554 S
C239 O247 1.224 . S
O240 C239 1.278 1_556 S
C241 O242 1.245 . S
C241 O253 1.232 . S
O242 C241 1.245 . S
O243 Co237 2.058 . S
O243 C269 1.269 . S
O244 Co236 2.074 . S
O244 C269 1.257 . S
H245 C270 0.930 . S
H246 C276 0.930 . S
O247 Co236 2.093 . S
O247 C239 1.224 . S
H248 C280 0.929 . S
H249 C282 0.930 . S
H250 C283 0.930 . S
H251 C281 0.929 . S
H252 C284 0.928 . S
O253 Co237 2.057 . S
O253 C241 1.232 . S
H254 C273 0.929 . S
H255 C274 0.929 . S
H256 C286 0.931 . S
H257 C278 0.929 . S
H258 C287 0.930 . S
H259 C279 0.931 . S
O260 Co236 2.097 . S
O260 C288 1.214 . S
H261 C289 0.929 . S
H262 C290 0.929 . S
H263 C291 0.930 . S
H264 C292 0.929 . S
H265 C294 0.930 . S
H266 C271 0.930 . S
H267 C275 0.930 . S
O268 Co237 2.037 . S
O268 C288 1.234 . S
C269 O243 1.269 . S
C269 O244 1.257 . S
C270 H245 0.930 . S
C270 C273 1.388 . S
C270 C275 1.418 . S
C271 H266 0.930 . S
C271 C274 1.404 . S
C271 C275 1.353 . S
N272 Co237 2.145 . S
N272 C273 1.397 . S
N272 C274 1.334 . S
C273 H254 0.929 . S
C273 C270 1.388 . S
C273 N272 1.397 . S
C274 H255 0.929 . S
C274 C271 1.404 . S
C274 N272 1.334 . S
C275 H267 0.930 . S
C275 C270 1.418 . S
C275 C271 1.353 . S
C276 H246 0.930 . S
C276 N277 1.330 . S
C276 C278 1.446 . S
N277 Co236 2.151 . S
N277 C276 1.330 . S
N277 C281 1.418 . S
C278 H257 0.929 . S
C278 C276 1.446 . S
C278 C279 1.332 . S
C279 H259 0.931 . S
C279 C278 1.332 . S
C279 C280 1.267 . S
C280 H248 0.929 . S
C280 C279 1.267 . S
C280 C281 1.251 . S
C281 H251 0.929 . S
C281 N277 1.418 . S
C281 C280 1.251 . S
C282 H249 0.930 . S
C282 C284 1.406 . S
C282 C287 1.261 . S
C283 H250 0.930 . S
C283 N285 1.325 . S
C283 C286 1.357 . S
C284 H252 0.928 . S
C284 C282 1.406 . S
C284 N285 1.261 . S
N285 Co236 2.214 . S
N285 C283 1.325 . S
N285 C284 1.261 . S
C286 H256 0.931 . S
C286 C283 1.357 . S
C286 C287 1.312 . S
C287 H258 0.930 . S
C287 C282 1.261 . S
C287 C286 1.312 . S
C288 O260 1.214 . S
C288 O268 1.234 . S
C289 H261 0.929 . S
C289 C292 1.391 . S
C289 C294 1.391 . S
C290 H262 0.929 . S
C290 C291 1.390 1_554 S
C290 N293 1.391 . S
C291 H263 0.930 . S
C291 C290 1.390 1_556 S
C291 C292 1.392 . S
C292 H264 0.929 . S
C292 C289 1.391 . S
C292 C291 1.392 . S
N293 Co237 2.257 . S
N293 C290 1.391 . S
N293 C294 1.388 1_554 S
C294 H265 0.930 . S
C294 C289 1.391 . S
C294 N293 1.388 1_556 S
Co295 O297 2.143 . S
Co295 O303 2.074 . S
Co295 O306 2.093 . S
Co295 O319 2.097 . S
Co295 N336 2.151 . S
Co295 N344 2.214 . S
Co296 O297 2.160 . S
Co296 O302 2.058 . S
Co296 O312 2.057 . S
Co296 O327 2.037 . S
Co296 N331 2.145 . S
Co296 N352 2.257 . S
O297 Co295 2.143 . S
O297 Co296 2.160 . S
C298 O299 1.278 . S
C298 O306 1.224 . S
O299 C298 1.278 . S
C300 O301 1.245 . S
C300 O312 1.232 . S
O301 C300 1.245 . S
O302 Co296 2.058 . S
O302 C328 1.269 . S
O303 Co295 2.074 . S
O303 C328 1.257 . S
H304 C329 0.930 . S
H305 C335 0.930 . S
O306 Co295 2.093 . S
O306 C298 1.224 . S
H307 C339 0.929 . S
H308 C341 0.930 . S
H309 C342 0.930 . S
H310 C340 0.929 . S
H311 C343 0.928 . S
O312 Co296 2.057 . S
O312 C300 1.232 . S
H313 C332 0.929 . S
H314 C333 0.929 . S
H315 C345 0.931 . S
H316 C337 0.929 . S
H317 C346 0.930 . S
H318 C338 0.931 . S
O319 Co295 2.097 . S
O319 C347 1.214 . S
H320 C348 0.929 . S
H321 C349 0.929 . S
H322 C350 0.930 . S
H323 C351 0.929 . S
H324 C353 0.930 . S
H325 C330 0.930 . S
H326 C334 0.930 . S
O327 Co296 2.037 . S
O327 C347 1.234 . S
C328 O302 1.269 . S
C328 O303 1.257 . S
C329 H304 0.930 . S
C329 C332 1.388 . S
C329 C334 1.418 . S
C330 H325 0.930 . S
C330 C333 1.404 . S
C330 C334 1.353 . S
N331 Co296 2.145 . S
N331 C332 1.397 . S
N331 C333 1.334 . S
C332 H313 0.929 . S
C332 C329 1.388 . S
C332 N331 1.397 . S
C333 H314 0.929 . S
C333 C330 1.404 . S
C333 N331 1.334 . S
C334 H326 0.930 . S
C334 C329 1.418 . S
C334 C330 1.353 . S
C335 H305 0.930 . S
C335 N336 1.330 . S
C335 C337 1.446 . S
N336 Co295 2.151 . S
N336 C335 1.330 . S
N336 C340 1.418 . S
C337 H316 0.929 . S
C337 C335 1.446 . S
C337 C338 1.332 . S
C338 H318 0.931 . S
C338 C337 1.332 . S
C338 C339 1.267 . S
C339 H307 0.929 . S
C339 C338 1.267 . S
C339 C340 1.251 . S
C340 H310 0.929 . S
C340 N336 1.418 . S
C340 C339 1.251 . S
C341 H308 0.930 . S
C341 C343 1.406 . S
C341 C346 1.261 . S
C342 H309 0.930 . S
C342 N344 1.325 . S
C342 C345 1.357 . S
C343 H311 0.928 . S
C343 C341 1.406 . S
C343 N344 1.261 . S
N344 Co295 2.214 . S
N344 C342 1.325 . S
N344 C343 1.261 . S
C345 H315 0.931 . S
C345 C342 1.357 . S
C345 C346 1.312 . S
C346 H317 0.930 . S
C346 C341 1.261 . S
C346 C345 1.312 . S
C347 O319 1.214 . S
C347 O327 1.234 . S
C348 H320 0.929 . S
C348 C351 1.391 . S
C348 C353 1.391 . S
C349 H321 0.929 . S
C349 C350 1.390 . S
C349 N352 1.391 . S
C350 H322 0.930 . S
C350 C349 1.390 . S
C350 C351 1.392 . S
C351 H323 0.929 . S
C351 C348 1.391 . S
C351 C350 1.392 . S
N352 Co296 2.257 . S
N352 C349 1.391 . S
N352 C353 1.388 . S
C353 H324 0.930 . S
C353 C348 1.391 . S
C353 N352 1.388 . S
Co354 O356 2.143 . S
Co354 O362 2.074 . S
Co354 O365 2.093 . S
Co354 O378 2.097 . S
Co354 N395 2.151 . S
Co354 N403 2.214 . S
Co355 O356 2.160 . S
Co355 O361 2.058 . S
Co355 O371 2.057 . S
Co355 O386 2.037 . S
Co355 N390 2.145 . S
Co355 N411 2.257 . S
O356 Co354 2.143 . S
O356 Co355 2.160 . S
C357 O358 1.278 . S
C357 O365 1.224 . S
O358 C357 1.278 . S
C359 O360 1.245 . S
C359 O371 1.232 . S
O360 C359 1.245 . S
O361 Co355 2.058 . S
O361 C387 1.269 . S
O362 Co354 2.074 . S
O362 C387 1.257 . S
H363 C388 0.930 . S
H364 C394 0.930 . S
O365 Co354 2.093 . S
O365 C357 1.224 . S
H366 C398 0.929 . S
H367 C400 0.930 . S
H368 C401 0.930 . S
H369 C399 0.929 . S
H370 C402 0.928 . S
O371 Co355 2.057 . S
O371 C359 1.232 . S
H372 C391 0.929 . S
H373 C392 0.929 . S
H374 C404 0.931 . S
H375 C396 0.929 . S
H376 C405 0.930 . S
H377 C397 0.931 . S
O378 Co354 2.097 . S
O378 C406 1.214 . S
H379 C407 0.929 . S
H380 C408 0.929 . S
H381 C409 0.930 . S
H382 C410 0.929 . S
H383 C412 0.930 . S
H384 C389 0.930 . S
H385 C393 0.930 . S
O386 Co355 2.037 . S
O386 C406 1.234 . S
C387 O361 1.269 . S
C387 O362 1.257 . S
C388 H363 0.930 . S
C388 C391 1.388 . S
C388 C393 1.418 . S
C389 H384 0.930 . S
C389 C392 1.404 . S
C389 C393 1.353 . S
N390 Co355 2.145 . S
N390 C391 1.397 . S
N390 C392 1.334 . S
C391 H372 0.929 . S
C391 C388 1.388 . S
C391 N390 1.397 . S
C392 H373 0.929 . S
C392 C389 1.404 . S
C392 N390 1.334 . S
C393 H385 0.930 . S
C393 C388 1.418 . S
C393 C389 1.353 . S
C394 H364 0.930 . S
C394 N395 1.330 . S
C394 C396 1.446 . S
N395 Co354 2.151 . S
N395 C394 1.330 . S
N395 C399 1.418 . S
C396 H375 0.929 . S
C396 C394 1.446 . S
C396 C397 1.332 . S
C397 H377 0.931 . S
C397 C396 1.332 . S
C397 C398 1.267 . S
C398 H366 0.929 . S
C398 C397 1.267 . S
C398 C399 1.251 . S
C399 H369 0.929 . S
C399 N395 1.418 . S
C399 C398 1.251 . S
C400 H367 0.930 . S
C400 C402 1.406 . S
C400 C405 1.261 . S
C401 H368 0.930 . S
C401 N403 1.325 . S
C401 C404 1.357 . S
C402 H370 0.928 . S
C402 C400 1.406 . S
C402 N403 1.261 . S
N403 Co354 2.214 . S
N403 C401 1.325 . S
N403 C402 1.261 . S
C404 H374 0.931 . S
C404 C401 1.357 . S
C404 C405 1.312 . S
C405 H376 0.930 . S
C405 C400 1.261 . S
C405 C404 1.312 . S
C406 O378 1.214 . S
C406 O386 1.234 . S
C407 H379 0.929 . S
C407 C410 1.391 . S
C407 C412 1.391 . S
C408 H380 0.929 . S
C408 C409 1.390 . S
C408 N411 1.391 . S
C409 H381 0.930 . S
C409 C408 1.390 . S
C409 C410 1.392 . S
C410 H382 0.929 . S
C410 C407 1.391 . S
C410 C409 1.392 . S
N411 Co355 2.257 . S
N411 C408 1.391 . S
N411 C412 1.388 . S
C412 H383 0.930 . S
C412 C407 1.391 . S
C412 N411 1.388 . S
Co413 O415 2.143 . S
Co413 O421 2.074 . S
Co413 O424 2.093 . S
Co413 O437 2.097 . S
Co413 N454 2.151 . S
Co413 N462 2.214 . S
Co414 O415 2.160 . S
Co414 O420 2.058 . S
Co414 O430 2.057 . S
Co414 O445 2.037 . S
Co414 N449 2.145 . S
Co414 N470 2.257 . S
O415 Co413 2.143 . S
O415 Co414 2.160 . S
C416 O417 1.278 . S
C416 O424 1.224 . S
O417 C416 1.278 . S
C418 O419 1.245 . S
C418 O430 1.232 . S
O419 C418 1.245 . S
O420 Co414 2.058 . S
O420 C446 1.269 . S
O421 Co413 2.074 . S
O421 C446 1.257 . S
H422 C447 0.930 . S
H423 C453 0.930 . S
O424 Co413 2.093 . S
O424 C416 1.224 . S
H425 C457 0.929 . S
H426 C459 0.930 . S
H427 C460 0.930 . S
H428 C458 0.929 . S
H429 C461 0.928 . S
O430 Co414 2.057 . S
O430 C418 1.232 . S
H431 C450 0.929 . S
H432 C451 0.929 . S
H433 C463 0.931 . S
H434 C455 0.929 . S
H435 C464 0.930 . S
H436 C456 0.931 . S
O437 Co413 2.097 . S
O437 C465 1.214 . S
H438 C466 0.929 . S
H439 C467 0.929 . S
H440 C468 0.930 . S
H441 C469 0.929 . S
H442 C471 0.930 . S
H443 C448 0.930 . S
H444 C452 0.930 . S
O445 Co414 2.037 . S
O445 C465 1.234 . S
C446 O420 1.269 . S
C446 O421 1.257 . S
C447 H422 0.930 . S
C447 C450 1.388 . S
C447 C452 1.418 . S
C448 H443 0.930 . S
C448 C451 1.404 . S
C448 C452 1.353 . S
N449 Co414 2.145 . S
N449 C450 1.397 . S
N449 C451 1.334 . S
C450 H431 0.929 . S
C450 C447 1.388 . S
C450 N449 1.397 . S
C451 H432 0.929 . S
C451 C448 1.404 . S
C451 N449 1.334 . S
C452 H444 0.930 . S
C452 C447 1.418 . S
C452 C448 1.353 . S
C453 H423 0.930 . S
C453 N454 1.330 . S
C453 C455 1.446 . S
N454 Co413 2.151 . S
N454 C453 1.330 . S
N454 C458 1.418 . S
C455 H434 0.929 . S
C455 C453 1.446 . S
C455 C456 1.332 . S
C456 H436 0.931 . S
C456 C455 1.332 . S
C456 C457 1.267 . S
C457 H425 0.929 . S
C457 C456 1.267 . S
C457 C458 1.251 . S
C458 H428 0.929 . S
C458 N454 1.418 . S
C458 C457 1.251 . S
C459 H426 0.930 . S
C459 C461 1.406 . S
C459 C464 1.261 . S
C460 H427 0.930 . S
C460 N462 1.325 . S
C460 C463 1.357 . S
C461 H429 0.928 . S
C461 C459 1.406 . S
C461 N462 1.261 . S
N462 Co413 2.214 . S
N462 C460 1.325 . S
N462 C461 1.261 . S
C463 H433 0.931 . S
C463 C460 1.357 . S
C463 C464 1.312 . S
C464 H435 0.930 . S
C464 C459 1.261 . S
C464 C463 1.312 . S
C465 O437 1.214 . S
C465 O445 1.234 . S
C466 H438 0.929 . S
C466 C469 1.391 . S
C466 C471 1.391 . S
C467 H439 0.929 . S
C467 C468 1.390 . S
C467 N470 1.391 . S
C468 H440 0.930 . S
C468 C467 1.390 . S
C468 C469 1.392 . S
C469 H441 0.929 . S
C469 C466 1.391 . S
C469 C468 1.392 . S
N470 Co414 2.257 . S
N470 C467 1.391 . S
N470 C471 1.388 . S
C471 H442 0.930 . S
C471 C466 1.391 . S
C471 N470 1.388 . S
Co472 O474 2.143 . S
Co472 O480 2.074 . S
Co472 O483 2.093 . S
Co472 O496 2.097 . S
Co472 N513 2.151 . S
Co472 N521 2.214 . S
Co473 O474 2.160 . S
Co473 O479 2.058 . S
Co473 O489 2.057 . S
Co473 O504 2.037 . S
Co473 N508 2.145 . S
Co473 N529 2.257 . S
O474 Co472 2.143 . S
O474 Co473 2.160 . S
C475 O476 1.278 . S
C475 O483 1.224 . S
O476 C475 1.278 . S
C477 O478 1.245 . S
C477 O489 1.232 . S
O478 C477 1.245 . S
O479 Co473 2.058 . S
O479 C505 1.269 . S
O480 Co472 2.074 . S
O480 C505 1.257 . S
H481 C506 0.930 . S
H482 C512 0.930 . S
O483 Co472 2.093 . S
O483 C475 1.224 . S
H484 C516 0.929 . S
H485 C518 0.930 . S
H486 C519 0.930 . S
H487 C517 0.929 . S
H488 C520 0.928 . S
O489 Co473 2.057 . S
O489 C477 1.232 . S
H490 C509 0.929 . S
H491 C510 0.929 . S
H492 C522 0.931 . S
H493 C514 0.929 . S
H494 C523 0.930 . S
H495 C515 0.931 . S
O496 Co472 2.097 . S
O496 C524 1.214 . S
H497 C525 0.929 . S
H498 C526 0.929 . S
H499 C527 0.930 . S
H500 C528 0.929 . S
H501 C530 0.930 . S
H502 C507 0.930 . S
H503 C511 0.930 . S
O504 Co473 2.037 . S
O504 C524 1.234 . S
C505 O479 1.269 . S
C505 O480 1.257 . S
C506 H481 0.930 . S
C506 C509 1.388 . S
C506 C511 1.418 . S
C507 H502 0.930 . S
C507 C510 1.404 . S
C507 C511 1.353 . S
N508 Co473 2.145 . S
N508 C509 1.397 . S
N508 C510 1.334 . S
C509 H490 0.929 . S
C509 C506 1.388 . S
C509 N508 1.397 . S
C510 H491 0.929 . S
C510 C507 1.404 . S
C510 N508 1.334 . S
C511 H503 0.930 . S
C511 C506 1.418 . S
C511 C507 1.353 . S
C512 H482 0.930 . S
C512 N513 1.330 . S
C512 C514 1.446 . S
N513 Co472 2.151 . S
N513 C512 1.330 . S
N513 C517 1.418 . S
C514 H493 0.929 . S
C514 C512 1.446 . S
C514 C515 1.332 . S
C515 H495 0.931 . S
C515 C514 1.332 . S
C515 C516 1.267 . S
C516 H484 0.929 . S
C516 C515 1.267 . S
C516 C517 1.251 . S
C517 H487 0.929 . S
C517 N513 1.418 . S
C517 C516 1.251 . S
C518 H485 0.930 . S
C518 C520 1.406 . S
C518 C523 1.261 . S
C519 H486 0.930 . S
C519 N521 1.325 . S
C519 C522 1.357 . S
C520 H488 0.928 . S
C520 C518 1.406 . S
C520 N521 1.261 . S
N521 Co472 2.214 . S
N521 C519 1.325 . S
N521 C520 1.261 . S
C522 H492 0.931 . S
C522 C519 1.357 . S
C522 C523 1.312 . S
C523 H494 0.930 . S
C523 C518 1.261 . S
C523 C522 1.312 . S
C524 O496 1.214 . S
C524 O504 1.234 . S
C525 H497 0.929 . S
C525 C528 1.391 . S
C525 C530 1.391 . S
C526 H498 0.929 . S
C526 C527 1.390 . S
C526 N529 1.391 . S
C527 H499 0.930 . S
C527 C526 1.390 . S
C527 C528 1.392 . S
C528 H500 0.929 . S
C528 C525 1.391 . S
C528 C527 1.392 . S
N529 Co473 2.257 . S
N529 C526 1.391 . S
N529 C530 1.388 . S
C530 H501 0.930 . S
C530 C525 1.391 . S
C530 N529 1.388 . S
Co531 O533 2.143 . S
Co531 O539 2.074 . S
Co531 O542 2.093 . S
Co531 O555 2.097 . S
Co531 N572 2.151 . S
Co531 N580 2.214 . S
Co532 O533 2.160 . S
Co532 O538 2.058 . S
Co532 O548 2.057 . S
Co532 O563 2.037 . S
Co532 N567 2.145 . S
Co532 N588 2.257 . S
O533 Co531 2.143 . S
O533 Co532 2.160 . S
C534 O535 1.278 1_556 S
C534 O542 1.224 . S
O535 C534 1.278 1_554 S
C536 O537 1.245 . S
C536 O548 1.232 . S
O537 C536 1.245 . S
O538 Co532 2.058 . S
O538 C564 1.269 . S
O539 Co531 2.074 . S
O539 C564 1.257 . S
H540 C565 0.930 . S
H541 C571 0.930 . S
O542 Co531 2.093 . S
O542 C534 1.224 . S
H543 C575 0.929 . S
H544 C577 0.930 . S
H545 C578 0.930 . S
H546 C576 0.929 . S
H547 C579 0.928 . S
O548 Co532 2.057 . S
O548 C536 1.232 . S
H549 C568 0.929 . S
H550 C569 0.929 . S
H551 C581 0.931 . S
H552 C573 0.929 . S
H553 C582 0.930 . S
H554 C574 0.931 . S
O555 Co531 2.097 . S
O555 C583 1.214 . S
H556 C584 0.929 . S
H557 C585 0.929 . S
H558 C586 0.930 . S
H559 C587 0.929 . S
H560 C589 0.930 . S
H561 C566 0.930 . S
H562 C570 0.930 . S
O563 Co532 2.037 . S
O563 C583 1.234 . S
C564 O538 1.269 . S
C564 O539 1.257 . S
C565 H540 0.930 . S
C565 C568 1.388 . S
C565 C570 1.418 . S
C566 H561 0.930 . S
C566 C569 1.404 . S
C566 C570 1.353 . S
N567 Co532 2.145 . S
N567 C568 1.397 . S
N567 C569 1.334 . S
C568 H549 0.929 . S
C568 C565 1.388 . S
C568 N567 1.397 . S
C569 H550 0.929 . S
C569 C566 1.404 . S
C569 N567 1.334 . S
C570 H562 0.930 . S
C570 C565 1.418 . S
C570 C566 1.353 . S
C571 H541 0.930 . S
C571 N572 1.330 . S
C571 C573 1.446 . S
N572 Co531 2.151 . S
N572 C571 1.330 . S
N572 C576 1.418 . S
C573 H552 0.929 . S
C573 C571 1.446 . S
C573 C574 1.332 . S
C574 H554 0.931 . S
C574 C573 1.332 . S
C574 C575 1.267 . S
C575 H543 0.929 . S
C575 C574 1.267 . S
C575 C576 1.251 . S
C576 H546 0.929 . S
C576 N572 1.418 . S
C576 C575 1.251 . S
C577 H544 0.930 . S
C577 C579 1.406 . S
C577 C582 1.261 . S
C578 H545 0.930 . S
C578 N580 1.325 . S
C578 C581 1.357 . S
C579 H547 0.928 . S
C579 C577 1.406 . S
C579 N580 1.261 . S
N580 Co531 2.214 . S
N580 C578 1.325 . S
N580 C579 1.261 . S
C581 H551 0.931 . S
C581 C578 1.357 . S
C581 C582 1.312 . S
C582 H553 0.930 . S
C582 C577 1.261 . S
C582 C581 1.312 . S
C583 O555 1.214 . S
C583 O563 1.234 . S
C584 H556 0.929 . S
C584 C587 1.391 . S
C584 C589 1.391 . S
C585 H557 0.929 . S
C585 C586 1.390 1_556 S
C585 N588 1.391 . S
C586 H558 0.930 . S
C586 C585 1.390 1_554 S
C586 C587 1.392 . S
C587 H559 0.929 . S
C587 C584 1.391 . S
C587 C586 1.392 . S
N588 Co532 2.257 . S
N588 C585 1.391 . S
N588 C589 1.388 1_556 S
C589 H560 0.930 . S
C589 C584 1.391 . S
C589 N588 1.388 1_554 S
Co590 O592 2.143 . S
Co590 O598 2.074 . S
Co590 O601 2.093 . S
Co590 O614 2.097 . S
Co590 N631 2.151 . S
Co590 N639 2.214 . S
Co591 O592 2.160 . S
Co591 O597 2.058 . S
Co591 O607 2.057 . S
Co591 O622 2.037 . S
Co591 N626 2.145 . S
Co591 N647 2.257 . S
O592 Co590 2.143 . S
O592 Co591 2.160 . S
C593 O594 1.278 . S
C593 O601 1.224 . S
O594 C593 1.278 . S
C595 O596 1.245 . S
C595 O607 1.232 . S
O596 C595 1.245 . S
O597 Co591 2.058 . S
O597 C623 1.269 . S
O598 Co590 2.074 . S
O598 C623 1.257 . S
H599 C624 0.930 1_556 S
H600 C630 0.930 . S
O601 Co590 2.093 . S
O601 C593 1.224 . S
H602 C634 0.929 . S
H603 C636 0.930 . S
H604 C637 0.930 . S
H605 C635 0.929 . S
H606 C638 0.928 . S
O607 Co591 2.057 . S
O607 C595 1.232 . S
H608 C627 0.929 . S
H609 C628 0.929 . S
H610 C640 0.931 . S
H611 C632 0.929 . S
H612 C641 0.930 . S
H613 C633 0.931 . S
O614 Co590 2.097 . S
O614 C642 1.214 . S
H615 C643 0.929 . S
H616 C644 0.929 . S
H617 C645 0.930 . S
H618 C646 0.929 . S
H619 C648 0.930 . S
H620 C625 0.930 . S
H621 C629 0.930 . S
O622 Co591 2.037 . S
O622 C642 1.234 . S
C623 O597 1.269 . S
C623 O598 1.257 . S
C624 H599 0.930 1_554 S
C624 C627 1.388 . S
C624 C629 1.418 . S
C625 H620 0.930 . S
C625 C628 1.404 . S
C625 C629 1.353 . S
N626 Co591 2.145 . S
N626 C627 1.397 . S
N626 C628 1.334 . S
C627 H608 0.929 . S
C627 C624 1.388 . S
C627 N626 1.397 . S
C628 H609 0.929 . S
C628 C625 1.404 . S
C628 N626 1.334 . S
C629 H621 0.930 . S
C629 C624 1.418 . S
C629 C625 1.353 . S
C630 H600 0.930 . S
C630 N631 1.330 . S
C630 C632 1.446 . S
N631 Co590 2.151 . S
N631 C630 1.330 . S
N631 C635 1.418 . S
C632 H611 0.929 . S
C632 C630 1.446 . S
C632 C633 1.332 . S
C633 H613 0.931 . S
C633 C632 1.332 . S
C633 C634 1.267 . S
C634 H602 0.929 . S
C634 C633 1.267 . S
C634 C635 1.251 . S
C635 H605 0.929 . S
C635 N631 1.418 . S
C635 C634 1.251 . S
C636 H603 0.930 . S
C636 C638 1.406 . S
C636 C641 1.261 . S
C637 H604 0.930 . S
C637 N639 1.325 . S
C637 C640 1.357 . S
C638 H606 0.928 . S
C638 C636 1.406 . S
C638 N639 1.261 . S
N639 Co590 2.214 . S
N639 C637 1.325 . S
N639 C638 1.261 . S
C640 H610 0.931 . S
C640 C637 1.357 . S
C640 C641 1.312 . S
C641 H612 0.930 . S
C641 C636 1.261 . S
C641 C640 1.312 . S
C642 O614 1.214 . S
C642 O622 1.234 . S
C643 H615 0.929 . S
C643 C646 1.391 . S
C643 C648 1.391 . S
C644 H616 0.929 . S
C644 C645 1.390 . S
C644 N647 1.391 . S
C645 H617 0.930 . S
C645 C644 1.390 . S
C645 C646 1.392 . S
C646 H618 0.929 . S
C646 C643 1.391 . S
C646 C645 1.392 . S
N647 Co591 2.257 . S
N647 C644 1.391 . S
N647 C648 1.388 . S
C648 H619 0.930 . S
C648 C643 1.391 . S
C648 N647 1.388 . S
Co649 O651 2.143 . S
Co649 O657 2.074 . S
Co649 O660 2.093 . S
Co649 O673 2.097 . S
Co649 N690 2.151 . S
Co649 N698 2.214 . S
Co650 O651 2.160 . S
Co650 O656 2.058 . S
Co650 O666 2.057 . S
Co650 O681 2.037 . S
Co650 N685 2.145 . S
Co650 N706 2.257 . S
O651 Co649 2.143 . S
O651 Co650 2.160 . S
C652 O653 1.278 . S
C652 O660 1.224 . S
O653 C652 1.278 . S
C654 O655 1.245 . S
C654 O666 1.232 . S
O655 C654 1.245 . S
O656 Co650 2.058 . S
O656 C682 1.269 . S
O657 Co649 2.074 . S
O657 C682 1.257 . S
H658 C683 0.930 . S
H659 C689 0.930 . S
O660 Co649 2.093 . S
O660 C652 1.224 . S
H661 C693 0.929 . S
H662 C695 0.930 . S
H663 C696 0.930 . S
H664 C694 0.929 . S
H665 C697 0.928 . S
O666 Co650 2.057 . S
O666 C654 1.232 . S
H667 C686 0.929 . S
H668 C687 0.929 . S
H669 C699 0.931 . S
H670 C691 0.929 . S
H671 C700 0.930 . S
H672 C692 0.931 . S
O673 Co649 2.097 . S
O673 C701 1.214 . S
H674 C702 0.929 . S
H675 C703 0.929 . S
H676 C704 0.930 . S
H677 C705 0.929 . S
H678 C707 0.930 . S
H679 C684 0.930 . S
H680 C688 0.930 . S
O681 Co650 2.037 . S
O681 C701 1.234 . S
C682 O656 1.269 . S
C682 O657 1.257 . S
C683 H658 0.930 . S
C683 C686 1.388 . S
C683 C688 1.418 . S
C684 H679 0.930 . S
C684 C687 1.404 . S
C684 C688 1.353 . S
N685 Co650 2.145 . S
N685 C686 1.397 . S
N685 C687 1.334 . S
C686 H667 0.929 . S
C686 C683 1.388 . S
C686 N685 1.397 . S
C687 H668 0.929 . S
C687 C684 1.404 . S
C687 N685 1.334 . S
C688 H680 0.930 . S
C688 C683 1.418 . S
C688 C684 1.353 . S
C689 H659 0.930 . S
C689 N690 1.330 . S
C689 C691 1.446 . S
N690 Co649 2.151 . S
N690 C689 1.330 . S
N690 C694 1.418 . S
C691 H670 0.929 . S
C691 C689 1.446 . S
C691 C692 1.332 . S
C692 H672 0.931 . S
C692 C691 1.332 . S
C692 C693 1.267 . S
C693 H661 0.929 . S
C693 C692 1.267 . S
C693 C694 1.251 . S
C694 H664 0.929 . S
C694 N690 1.418 . S
C694 C693 1.251 . S
C695 H662 0.930 . S
C695 C697 1.406 . S
C695 C700 1.261 . S
C696 H663 0.930 . S
C696 N698 1.325 . S
C696 C699 1.357 . S
C697 H665 0.928 . S
C697 C695 1.406 . S
C697 N698 1.261 . S
N698 Co649 2.214 . S
N698 C696 1.325 . S
N698 C697 1.261 . S
C699 H669 0.931 . S
C699 C696 1.357 . S
C699 C700 1.312 . S
C700 H671 0.930 . S
C700 C695 1.261 . S
C700 C699 1.312 . S
C701 O673 1.214 . S
C701 O681 1.234 . S
C702 H674 0.929 . S
C702 C705 1.391 . S
C702 C707 1.391 . S
C703 H675 0.929 . S
C703 C704 1.390 . S
C703 N706 1.391 . S
C704 H676 0.930 . S
C704 C703 1.390 . S
C704 C705 1.392 . S
C705 H677 0.929 . S
C705 C702 1.391 . S
C705 C704 1.392 . S
N706 Co650 2.257 . S
N706 C703 1.391 . S
N706 C707 1.388 . S
C707 H678 0.930 . S
C707 C702 1.391 . S
C707 N706 1.388 . S
H708 C720 0.930 . S
H709 C722 0.930 . S
H710 C723 0.930 . S
H711 C727 0.959 . S
H712 C727 0.959 . S
H713 C727 0.961 . S
H714 C728 0.960 . S
H715 C728 0.961 . S
H716 C728 0.959 . S
H717 C731 0.929 . S
H718 C732 0.931 . S
H719 C734 0.930 . S
C720 H708 0.930 . S
C720 C721 1.399 . S
C720 C725 1.399 . S
C721 C720 1.399 . S
C721 C722 1.376 . S
C722 H709 0.930 . S
C722 C721 1.376 . S
C722 C723 1.388 . S
C723 H710 0.930 . S
C723 C722 1.388 . S
C723 C724 1.390 . S
C724 C723 1.390 . S
C724 C725 1.394 . S
C724 C730 1.465 . S
C725 C720 1.399 . S
C725 C724 1.394 . S
C725 C726 1.516 . S
C726 C725 1.516 . S
C726 C727 1.502 . S
C726 C728 1.561 . S
C726 C729 1.526 . S
C727 H711 0.959 . S
C727 H712 0.959 . S
C727 H713 0.961 . S
C727 C726 1.502 . S
C728 H714 0.960 . S
C728 H715 0.961 . S
C728 H716 0.959 . S
C728 C726 1.561 . S
C729 C726 1.526 . S
C729 C730 1.396 . S
C729 C734 1.390 . S
C730 C724 1.465 . S
C730 C729 1.396 . S
C730 C731 1.399 . S
C731 H717 0.929 . S
C731 C730 1.399 . S
C731 C732 1.385 . S
C732 H718 0.931 . S
C732 C731 1.385 . S
C732 C733 1.389 . S
C733 C732 1.389 . S
C733 C734 1.387 . S
C734 H719 0.930 . S
C734 C729 1.390 . S
C734 C733 1.387 . S
H735 C747 0.930 . S
H736 C749 0.930 . S
H737 C750 0.930 . S
H738 C754 0.959 . S
H739 C754 0.959 . S
H740 C754 0.961 . S
H741 C755 0.960 . S
H742 C755 0.961 . S
H743 C755 0.959 . S
H744 C758 0.929 . S
H745 C759 0.931 . S
H746 C761 0.930 . S
C747 H735 0.930 . S
C747 C748 1.399 . S
C747 C752 1.399 . S
C748 C747 1.399 . S
C748 C749 1.376 . S
C749 H736 0.930 . S
C749 C748 1.376 . S
C749 C750 1.388 . S
C750 H737 0.930 . S
C750 C749 1.388 . S
C750 C751 1.390 . S
C751 C750 1.390 . S
C751 C752 1.394 . S
C751 C757 1.465 . S
C752 C747 1.399 . S
C752 C751 1.394 . S
C752 C753 1.516 . S
C753 C752 1.516 . S
C753 C754 1.502 . S
C753 C755 1.561 . S
C753 C756 1.526 . S
C754 H738 0.959 . S
C754 H739 0.959 . S
C754 H740 0.961 . S
C754 C753 1.502 . S
C755 H741 0.960 . S
C755 H742 0.961 . S
C755 H743 0.959 . S
C755 C753 1.561 . S
C756 C753 1.526 . S
C756 C757 1.396 . S
C756 C761 1.390 . S
C757 C751 1.465 . S
C757 C756 1.396 . S
C757 C758 1.399 . S
C758 H744 0.929 . S
C758 C757 1.399 . S
C758 C759 1.385 . S
C759 H745 0.931 . S
C759 C758 1.385 . S
C759 C760 1.389 . S
C760 C759 1.389 . S
C760 C761 1.387 . S
C761 H746 0.930 . S
C761 C756 1.390 . S
C761 C760 1.387 . S
H762 C774 0.930 . S
H763 C776 0.930 . S
H764 C777 0.930 . S
H765 C781 0.959 . S
H766 C781 0.959 . S
H767 C781 0.961 . S
H768 C782 0.960 . S
H769 C782 0.961 . S
H770 C782 0.959 . S
H771 C785 0.929 . S
H772 C786 0.931 . S
H773 C788 0.930 . S
C774 H762 0.930 . S
C774 C775 1.399 . S
C774 C779 1.399 . S
C775 C774 1.399 . S
C775 C776 1.376 . S
C776 H763 0.930 . S
C776 C775 1.376 . S
C776 C777 1.388 . S
C777 H764 0.930 . S
C777 C776 1.388 . S
C777 C778 1.390 . S
C778 C777 1.390 . S
C778 C779 1.394 . S
C778 C784 1.465 . S
C779 C774 1.399 . S
C779 C778 1.394 . S
C779 C780 1.516 . S
C780 C779 1.516 . S
C780 C781 1.502 . S
C780 C782 1.561 . S
C780 C783 1.526 . S
C781 H765 0.959 . S
C781 H766 0.959 . S
C781 H767 0.961 . S
C781 C780 1.502 . S
C782 H768 0.960 . S
C782 H769 0.961 . S
C782 H770 0.959 . S
C782 C780 1.561 . S
C783 C780 1.526 . S
C783 C784 1.396 . S
C783 C788 1.390 . S
C784 C778 1.465 . S
C784 C783 1.396 . S
C784 C785 1.399 . S
C785 H771 0.929 . S
C785 C784 1.399 . S
C785 C786 1.385 . S
C786 H772 0.931 . S
C786 C785 1.385 . S
C786 C787 1.389 . S
C787 C786 1.389 . S
C787 C788 1.387 . S
C788 H773 0.930 . S
C788 C783 1.390 . S
C788 C787 1.387 . S
H789 C801 0.930 . S
H790 C803 0.930 . S
H791 C804 0.930 . S
H792 C808 0.959 . S
H793 C808 0.959 . S
H794 C808 0.961 . S
H795 C809 0.960 . S
H796 C809 0.961 . S
H797 C809 0.959 . S
H798 C812 0.929 . S
H799 C813 0.931 . S
H800 C815 0.930 . S
C801 H789 0.930 . S
C801 C802 1.399 . S
C801 C806 1.399 . S
C802 C801 1.399 . S
C802 C803 1.376 . S
C803 H790 0.930 . S
C803 C802 1.376 . S
C803 C804 1.388 . S
C804 H791 0.930 . S
C804 C803 1.388 . S
C804 C805 1.390 . S
C805 C804 1.390 . S
C805 C806 1.394 . S
C805 C811 1.465 . S
C806 C801 1.399 . S
C806 C805 1.394 . S
C806 C807 1.516 . S
C807 C806 1.516 . S
C807 C808 1.502 . S
C807 C809 1.561 . S
C807 C810 1.526 . S
C808 H792 0.959 . S
C808 H793 0.959 . S
C808 H794 0.961 . S
C808 C807 1.502 . S
C809 H795 0.960 . S
C809 H796 0.961 . S
C809 H797 0.959 . S
C809 C807 1.561 . S
C810 C807 1.526 . S
C810 C811 1.396 . S
C810 C815 1.390 . S
C811 C805 1.465 . S
C811 C810 1.396 . S
C811 C812 1.399 . S
C812 H798 0.929 . S
C812 C811 1.399 . S
C812 C813 1.385 . S
C813 H799 0.931 . S
C813 C812 1.385 . S
C813 C814 1.389 . S
C814 C813 1.389 . S
C814 C815 1.387 . S
C815 H800 0.930 . S
C815 C810 1.390 . S
C815 C814 1.387 . S
H816 C828 0.930 . S
H817 C830 0.930 . S
H818 C831 0.930 . S
H819 C835 0.959 . S
H820 C835 0.959 . S
H821 C835 0.961 . S
H822 C836 0.960 . S
H823 C836 0.961 . S
H824 C836 0.959 . S
H825 C839 0.929 . S
H826 C840 0.931 . S
H827 C842 0.930 . S
C828 H816 0.930 . S
C828 C829 1.399 . S
C828 C833 1.399 . S
C829 C828 1.399 . S
C829 C830 1.376 . S
C830 H817 0.930 . S
C830 C829 1.376 . S
C830 C831 1.388 . S
C831 H818 0.930 . S
C831 C830 1.388 . S
C831 C832 1.390 . S
C832 C831 1.390 . S
C832 C833 1.394 . S
C832 C838 1.465 . S
C833 C828 1.399 . S
C833 C832 1.394 . S
C833 C834 1.516 . S
C834 C833 1.516 . S
C834 C835 1.502 . S
C834 C836 1.561 . S
C834 C837 1.526 . S
C835 H819 0.959 . S
C835 H820 0.959 . S
C835 H821 0.961 . S
C835 C834 1.502 . S
C836 H822 0.960 . S
C836 H823 0.961 . S
C836 H824 0.959 . S
C836 C834 1.561 . S
C837 C834 1.526 . S
C837 C838 1.396 . S
C837 C842 1.390 . S
C838 C832 1.465 . S
C838 C837 1.396 . S
C838 C839 1.399 . S
C839 H825 0.929 . S
C839 C838 1.399 . S
C839 C840 1.385 . S
C840 H826 0.931 . S
C840 C839 1.385 . S
C840 C841 1.389 . S
C841 C840 1.389 . S
C841 C842 1.387 . S
C842 H827 0.930 . S
C842 C837 1.390 . S
C842 C841 1.387 . S
H843 C855 0.930 . S
H844 C857 0.930 . S
H845 C858 0.930 . S
H846 C862 0.959 . S
H847 C862 0.959 . S
H848 C862 0.961 . S
H849 C863 0.960 . S
H850 C863 0.961 . S
H851 C863 0.959 . S
H852 C866 0.929 . S
H853 C867 0.931 . S
H854 C869 0.930 . S
C855 H843 0.930 . S
C855 C856 1.399 . S
C855 C860 1.399 . S
C856 C855 1.399 . S
C856 C857 1.376 . S
C857 H844 0.930 . S
C857 C856 1.376 . S
C857 C858 1.388 . S
C858 H845 0.930 . S
C858 C857 1.388 . S
C858 C859 1.390 . S
C859 C858 1.390 . S
C859 C860 1.394 . S
C859 C865 1.465 . S
C860 C855 1.399 . S
C860 C859 1.394 . S
C860 C861 1.516 . S
C861 C860 1.516 . S
C861 C862 1.502 . S
C861 C863 1.561 . S
C861 C864 1.526 . S
C862 H846 0.959 . S
C862 H847 0.959 . S
C862 H848 0.961 . S
C862 C861 1.502 . S
C863 H849 0.960 . S
C863 H850 0.961 . S
C863 H851 0.959 . S
C863 C861 1.561 . S
C864 C861 1.526 . S
C864 C865 1.396 . S
C864 C869 1.390 . S
C865 C859 1.465 . S
C865 C864 1.396 . S
C865 C866 1.399 . S
C866 H852 0.929 . S
C866 C865 1.399 . S
C866 C867 1.385 . S
C867 H853 0.931 . S
C867 C866 1.385 . S
C867 C868 1.389 . S
C868 C867 1.389 . S
C868 C869 1.387 . S
C869 H854 0.930 . S
C869 C864 1.390 . S
C869 C868 1.387 . S
H870 C882 0.930 . S
H871 C884 0.930 . S
H872 C885 0.930 . S
H873 C889 0.959 . S
H874 C889 0.959 . S
H875 C889 0.961 . S
H876 C890 0.960 . S
H877 C890 0.961 . S
H878 C890 0.959 . S
H879 C893 0.929 . S
H880 C894 0.931 . S
H881 C896 0.930 . S
C882 H870 0.930 . S
C882 C883 1.399 . S
C882 C887 1.399 . S
C883 C882 1.399 . S
C883 C884 1.376 . S
C884 H871 0.930 . S
C884 C883 1.376 . S
C884 C885 1.388 . S
C885 H872 0.930 . S
C885 C884 1.388 . S
C885 C886 1.390 . S
C886 C885 1.390 . S
C886 C887 1.394 . S
C886 C892 1.465 . S
C887 C882 1.399 . S
C887 C886 1.394 . S
C887 C888 1.516 . S
C888 C887 1.516 . S
C888 C889 1.502 . S
C888 C890 1.561 . S
C888 C891 1.526 . S
C889 H873 0.959 . S
C889 H874 0.959 . S
C889 H875 0.961 . S
C889 C888 1.502 . S
C890 H876 0.960 . S
C890 H877 0.961 . S
C890 H878 0.959 . S
C890 C888 1.561 . S
C891 C888 1.526 . S
C891 C892 1.396 . S
C891 C896 1.390 . S
C892 C886 1.465 . S
C892 C891 1.396 . S
C892 C893 1.399 . S
C893 H879 0.929 . S
C893 C892 1.399 . S
C893 C894 1.385 . S
C894 H880 0.931 . S
C894 C893 1.385 . S
C894 C895 1.389 . S
C895 C894 1.389 . S
C895 C896 1.387 . S
C896 H881 0.930 . S
C896 C891 1.390 . S
C896 C895 1.387 . S
H897 C909 0.930 . S
H898 C911 0.930 . S
H899 C912 0.930 . S
H900 C916 0.959 . S
H901 C916 0.959 . S
H902 C916 0.961 . S
H903 C917 0.960 . S
H904 C917 0.961 . S
H905 C917 0.959 . S
H906 C920 0.929 . S
H907 C921 0.931 . S
H908 C923 0.930 . S
C909 H897 0.930 . S
C909 C910 1.399 . S
C909 C914 1.399 . S
C910 C909 1.399 . S
C910 C911 1.376 . S
C911 H898 0.930 . S
C911 C910 1.376 . S
C911 C912 1.388 . S
C912 H899 0.930 . S
C912 C911 1.388 . S
C912 C913 1.390 . S
C913 C912 1.390 . S
C913 C914 1.394 . S
C913 C919 1.465 . S
C914 C909 1.399 . S
C914 C913 1.394 . S
C914 C915 1.516 . S
C915 C914 1.516 . S
C915 C916 1.502 . S
C915 C917 1.561 . S
C915 C918 1.526 . S
C916 H900 0.959 . S
C916 H901 0.959 . S
C916 H902 0.961 . S
C916 C915 1.502 . S
C917 H903 0.960 . S
C917 H904 0.961 . S
C917 H905 0.959 . S
C917 C915 1.561 . S
C918 C915 1.526 . S
C918 C919 1.396 . S
C918 C923 1.390 . S
C919 C913 1.465 . S
C919 C918 1.396 . S
C919 C920 1.399 . S
C920 H906 0.929 . S
C920 C919 1.399 . S
C920 C921 1.385 . S
C921 H907 0.931 . S
C921 C920 1.385 . S
C921 C922 1.389 . S
C922 C921 1.389 . S
C922 C923 1.387 . S
C923 H908 0.930 . S
C923 C918 1.390 . S
C923 C922 1.387 . S
H924 C936 0.930 . S
H925 C938 0.930 . S
H926 C939 0.930 . S
H927 C943 0.959 . S
H928 C943 0.959 . S
H929 C943 0.961 . S
H930 C944 0.960 . S
H931 C944 0.961 . S
H932 C944 0.959 . S
H933 C947 0.929 . S
H934 C948 0.931 . S
H935 C950 0.930 . S
C936 H924 0.930 . S
C936 C937 1.399 . S
C936 C941 1.399 . S
C937 C936 1.399 . S
C937 C938 1.376 . S
C938 H925 0.930 . S
C938 C937 1.376 . S
C938 C939 1.388 . S
C939 H926 0.930 . S
C939 C938 1.388 . S
C939 C940 1.390 . S
C940 C939 1.390 . S
C940 C941 1.394 . S
C940 C946 1.465 . S
C941 C936 1.399 . S
C941 C940 1.394 . S
C941 C942 1.516 . S
C942 C941 1.516 . S
C942 C943 1.502 . S
C942 C944 1.561 . S
C942 C945 1.526 . S
C943 H927 0.959 . S
C943 H928 0.959 . S
C943 H929 0.961 . S
C943 C942 1.502 . S
C944 H930 0.960 . S
C944 H931 0.961 . S
C944 H932 0.959 . S
C944 C942 1.561 . S
C945 C942 1.526 . S
C945 C946 1.396 . S
C945 C950 1.390 . S
C946 C940 1.465 . S
C946 C945 1.396 . S
C946 C947 1.399 . S
C947 H933 0.929 . S
C947 C946 1.399 . S
C947 C948 1.385 . S
C948 H934 0.931 . S
C948 C947 1.385 . S
C948 C949 1.389 . S
C949 C948 1.389 . S
C949 C950 1.387 . S
C950 H935 0.930 . S
C950 C945 1.390 . S
C950 C949 1.387 . S
H951 C963 0.930 . S
H952 C965 0.930 . S
H953 C966 0.930 . S
H954 C970 0.959 . S
H955 C970 0.959 . S
H956 C970 0.961 . S
H957 C971 0.960 . S
H958 C971 0.961 . S
H959 C971 0.959 . S
H960 C974 0.929 . S
H961 C975 0.931 1_556 S
H962 C977 0.930 . S
C963 H951 0.930 . S
C963 C964 1.399 . S
C963 C968 1.399 . S
C964 C963 1.399 . S
C964 C965 1.376 . S
C965 H952 0.930 . S
C965 C964 1.376 . S
C965 C966 1.388 . S
C966 H953 0.930 . S
C966 C965 1.388 . S
C966 C967 1.390 . S
C967 C966 1.390 . S
C967 C968 1.394 . S
C967 C973 1.465 . S
C968 C963 1.399 . S
C968 C967 1.394 . S
C968 C969 1.516 . S
C969 C968 1.516 . S
C969 C970 1.502 . S
C969 C971 1.561 . S
C969 C972 1.526 . S
C970 H954 0.959 . S
C970 H955 0.959 . S
C970 H956 0.961 . S
C970 C969 1.502 . S
C971 H957 0.960 . S
C971 H958 0.961 . S
C971 H959 0.959 . S
C971 C969 1.561 . S
C972 C969 1.526 . S
C972 C973 1.396 . S
C972 C977 1.390 . S
C973 C967 1.465 . S
C973 C972 1.396 . S
C973 C974 1.399 . S
C974 H960 0.929 . S
C974 C973 1.399 . S
C974 C975 1.385 . S
C975 H961 0.931 1_554 S
C975 C974 1.385 . S
C975 C976 1.389 . S
C976 C975 1.389 . S
C976 C977 1.387 . S
C977 H962 0.930 . S
C977 C972 1.390 . S
C977 C976 1.387 . S
H978 C990 0.930 . S
H979 C992 0.930 . S
H980 C993 0.930 . S
H981 C997 0.959 . S
H982 C997 0.959 . S
H983 C997 0.961 . S
H984 C998 0.960 . S
H985 C998 0.961 . S
H986 C998 0.959 . S
H987 C1001 0.929 . S
H988 C1002 0.931 . S
H989 C1004 0.930 . S
C990 H978 0.930 . S
C990 C991 1.399 . S
C990 C995 1.399 . S
C991 C990 1.399 . S
C991 C992 1.376 . S
C992 H979 0.930 . S
C992 C991 1.376 . S
C992 C993 1.388 . S
C993 H980 0.930 . S
C993 C992 1.388 . S
C993 C994 1.390 . S
C994 C993 1.390 . S
C994 C995 1.394 . S
C994 C1000 1.465 . S
C995 C990 1.399 . S
C995 C994 1.394 . S
C995 C996 1.516 . S
C996 C995 1.516 . S
C996 C997 1.502 . S
C996 C998 1.561 . S
C996 C999 1.526 . S
C997 H981 0.959 . S
C997 H982 0.959 . S
C997 H983 0.961 . S
C997 C996 1.502 . S
C998 H984 0.960 . S
C998 H985 0.961 . S
C998 H986 0.959 . S
C998 C996 1.561 . S
C999 C996 1.526 . S
C999 C1000 1.396 . S
C999 C1004 1.390 . S
C1000 C994 1.465 . S
C1000 C999 1.396 . S
C1000 C1001 1.399 . S
C1001 H987 0.929 . S
C1001 C1000 1.399 . S
C1001 C1002 1.385 . S
C1002 H988 0.931 . S
C1002 C1001 1.385 . S
C1002 C1003 1.389 . S
C1003 C1002 1.389 . S
C1003 C1004 1.387 . S
C1004 H989 0.930 . S
C1004 C999 1.390 . S
C1004 C1003 1.387 . S
H1005 C1017 0.930 . S
H1006 C1019 0.930 . S
H1007 C1020 0.930 . S
H1008 C1024 0.959 . S
H1009 C1024 0.959 . S
H1010 C1024 0.961 . S
H1011 C1025 0.960 . S
H1012 C1025 0.961 . S
H1013 C1025 0.959 . S
H1014 C1028 0.929 . S
H1015 C1029 0.931 . S
H1016 C1031 0.930 . S
C1017 H1005 0.930 . S
C1017 C1018 1.399 . S
C1017 C1022 1.399 . S
C1018 C1017 1.399 . S
C1018 C1019 1.376 . S
C1019 H1006 0.930 . S
C1019 C1018 1.376 . S
C1019 C1020 1.388 . S
C1020 H1007 0.930 . S
C1020 C1019 1.388 . S
C1020 C1021 1.390 . S
C1021 C1020 1.390 . S
C1021 C1022 1.394 . S
C1021 C1027 1.465 . S
C1022 C1017 1.399 . S
C1022 C1021 1.394 . S
C1022 C1023 1.516 . S
C1023 C1022 1.516 . S
C1023 C1024 1.502 . S
C1023 C1025 1.561 . S
C1023 C1026 1.526 . S
C1024 H1008 0.959 . S
C1024 H1009 0.959 . S
C1024 H1010 0.961 . S
C1024 C1023 1.502 . S
C1025 H1011 0.960 . S
C1025 H1012 0.961 . S
C1025 H1013 0.959 . S
C1025 C1023 1.561 . S
C1026 C1023 1.526 . S
C1026 C1027 1.396 . S
C1026 C1031 1.390 . S
C1027 C1021 1.465 . S
C1027 C1026 1.396 . S
C1027 C1028 1.399 . S
C1028 H1014 0.929 . S
C1028 C1027 1.399 . S
C1028 C1029 1.385 . S
C1029 H1015 0.931 . S
C1029 C1028 1.385 . S
C1029 C1030 1.389 . S
C1030 C1029 1.389 . S
C1030 C1031 1.387 . S
C1031 H1016 0.930 . S
C1031 C1026 1.390 . S
C1031 C1030 1.387 . S
H1032 C1044 0.930 . S
H1033 C1046 0.930 . S
H1034 C1047 0.930 . S
H1035 C1051 0.959 1_655 S
H1036 C1051 0.959 . S
H1037 C1051 0.961 1_655 S
H1038 C1052 0.960 . S
H1039 C1052 0.961 . S
H1040 C1052 0.959 . S
H1041 C1055 0.929 . S
H1042 C1056 0.931 . S
H1043 C1058 0.930 . S
C1044 H1032 0.930 . S
C1044 C1045 1.399 . S
C1044 C1049 1.399 . S
C1045 C1044 1.399 . S
C1045 C1046 1.376 . S
C1046 H1033 0.930 . S
C1046 C1045 1.376 . S
C1046 C1047 1.388 . S
C1047 H1034 0.930 . S
C1047 C1046 1.388 . S
C1047 C1048 1.390 . S
C1048 C1047 1.390 . S
C1048 C1049 1.394 . S
C1048 C1054 1.465 1_655 S
C1049 C1044 1.399 . S
C1049 C1048 1.394 . S
C1049 C1050 1.516 1_655 S
C1050 C1049 1.516 1_455 S
C1050 C1051 1.502 . S
C1050 C1052 1.561 . S
C1050 C1053 1.526 . S
C1051 H1035 0.959 1_455 S
C1051 H1036 0.959 . S
C1051 H1037 0.961 1_455 S
C1051 C1050 1.502 . S
C1052 H1038 0.960 . S
C1052 H1039 0.961 . S
C1052 H1040 0.959 . S
C1052 C1050 1.561 . S
C1053 C1050 1.526 . S
C1053 C1054 1.396 . S
C1053 C1058 1.390 . S
C1054 C1048 1.465 1_455 S
C1054 C1053 1.396 . S
C1054 C1055 1.399 . S
C1055 H1041 0.929 . S
C1055 C1054 1.399 . S
C1055 C1056 1.385 . S
C1056 H1042 0.931 . S
C1056 C1055 1.385 . S
C1056 C1057 1.389 . S
C1057 C1056 1.389 . S
C1057 C1058 1.387 . S
C1058 H1043 0.930 . S
C1058 C1053 1.390 . S
C1058 C1057 1.387 . S
H1059 C1071 0.930 . S
H1060 C1073 0.930 . S
H1061 C1074 0.930 . S
H1062 C1078 0.971 . S
H1063 C1078 0.959 1_545 S
H1064 C1078 0.961 . S
H1065 C1079 0.960 . S
H1066 C1079 0.961 . S
H1067 C1079 0.959 . S
H1068 C1082 0.929 . S
H1069 C1083 0.931 . S
H1070 C1085 0.930 . S
C1071 H1059 0.930 . S
C1071 C1072 1.399 . S
C1071 C1076 1.399 . S
C1072 C1071 1.399 . S
C1072 C1073 1.376 . S
C1073 H1060 0.930 . S
C1073 C1072 1.376 . S
C1073 C1074 1.388 . S
C1074 H1061 0.930 . S
C1074 C1073 1.388 . S
C1074 C1075 1.390 . S
C1075 C1074 1.390 . S
C1075 C1076 1.394 . S
C1075 C1081 1.465 1_565 S
C1076 C1071 1.399 . S
C1076 C1075 1.394 . S
C1076 C1077 1.516 . S
C1077 C1076 1.516 . S
C1077 C1078 1.502 . S
C1077 C1079 1.561 . S
C1077 C1080 1.526 1_565 S
C1078 H1062 0.971 . S
C1078 H1063 0.959 1_565 S
C1078 H1064 0.961 . S
C1078 C1077 1.502 . S
C1079 H1065 0.960 . S
C1079 H1066 0.961 . S
C1079 H1067 0.959 . S
C1079 C1077 1.561 . S
C1080 C1077 1.526 1_545 S
C1080 C1081 1.396 . S
C1080 C1085 1.390 . S
C1081 C1075 1.465 1_545 S
C1081 C1080 1.396 . S
C1081 C1082 1.399 . S
C1082 H1068 0.929 . S
C1082 C1081 1.399 . S
C1082 C1083 1.385 . S
C1083 H1069 0.931 . S
C1083 C1082 1.385 . S
C1083 C1084 1.389 . S
C1084 C1083 1.389 . S
C1084 C1085 1.387 . S
C1085 H1070 0.930 . S
C1085 C1080 1.390 . S
C1085 C1084 1.387 . S
H1086 C1098 0.930 . S
H1087 C1100 0.930 . S
H1088 C1101 0.930 . S
H1089 C1105 0.959 . S
H1090 C1105 0.959 . S
H1091 C1105 0.961 . S
H1092 C1106 0.960 . S
H1093 C1106 0.961 . S
H1094 C1106 0.959 . S
H1095 C1109 0.929 . S
H1096 C1110 0.931 . S
H1097 C1112 0.930 . S
C1098 H1086 0.930 . S
C1098 C1099 1.399 . S
C1098 C1103 1.399 . S
C1099 C1098 1.399 . S
C1099 C1100 1.376 . S
C1100 H1087 0.930 . S
C1100 C1099 1.376 . S
C1100 C1101 1.388 . S
C1101 H1088 0.930 . S
C1101 C1100 1.388 . S
C1101 C1102 1.390 . S
C1102 C1101 1.390 . S
C1102 C1103 1.394 . S
C1102 C1108 1.465 . S
C1103 C1098 1.399 . S
C1103 C1102 1.394 . S
C1103 C1104 1.516 . S
C1104 C1103 1.516 . S
C1104 C1105 1.502 . S
C1104 C1106 1.561 . S
C1104 C1107 1.526 . S
C1105 H1089 0.959 . S
C1105 H1090 0.959 . S
C1105 H1091 0.961 . S
C1105 C1104 1.502 . S
C1106 H1092 0.960 . S
C1106 H1093 0.961 . S
C1106 H1094 0.959 . S
C1106 C1104 1.561 . S
C1107 C1104 1.526 . S
C1107 C1108 1.396 . S
C1107 C1112 1.390 . S
C1108 C1102 1.465 . S
C1108 C1107 1.396 . S
C1108 C1109 1.399 . S
C1109 H1095 0.929 . S
C1109 C1108 1.399 . S
C1109 C1110 1.385 . S
C1110 H1096 0.931 . S
C1110 C1109 1.385 . S
C1110 C1111 1.389 . S
C1111 C1110 1.389 . S
C1111 C1112 1.387 . S
C1112 H1097 0.930 . S
C1112 C1107 1.390 . S
C1112 C1111 1.387 . S
H1113 C1125 0.930 . S
H1114 C1127 0.930 . S
H1115 C1128 0.930 . S
H1116 C1132 0.959 1_455 S
H1117 C1132 0.959 . S
H1118 C1132 0.961 1_455 S
H1119 C1133 0.960 . S
H1120 C1133 0.961 . S
H1121 C1133 0.959 . S
H1122 C1136 0.929 . S
H1123 C1137 0.931 . S
H1124 C1139 0.930 . S
C1125 H1113 0.930 . S
C1125 C1126 1.399 . S
C1125 C1130 1.399 . S
C1126 C1125 1.399 . S
C1126 C1127 1.376 . S
C1127 H1114 0.930 . S
C1127 C1126 1.376 . S
C1127 C1128 1.388 . S
C1128 H1115 0.930 . S
C1128 C1127 1.388 . S
C1128 C1129 1.390 . S
C1129 C1128 1.390 . S
C1129 C1130 1.394 . S
C1129 C1135 1.465 1_455 S
C1130 C1125 1.399 . S
C1130 C1129 1.394 . S
C1130 C1131 1.516 1_455 S
C1131 C1130 1.516 1_655 S
C1131 C1132 1.502 . S
C1131 C1133 1.561 . S
C1131 C1134 1.526 . S
C1132 H1116 0.959 1_655 S
C1132 H1117 0.959 . S
C1132 H1118 0.961 1_655 S
C1132 C1131 1.502 . S
C1133 H1119 0.960 . S
C1133 H1120 0.961 . S
C1133 H1121 0.959 . S
C1133 C1131 1.561 . S
C1134 C1131 1.526 . S
C1134 C1135 1.396 . S
C1134 C1139 1.390 . S
C1135 C1129 1.465 1_655 S
C1135 C1134 1.396 . S
C1135 C1136 1.399 . S
C1136 H1122 0.929 . S
C1136 C1135 1.399 . S
C1136 C1137 1.385 . S
C1137 H1123 0.931 . S
C1137 C1136 1.385 . S
C1137 C1138 1.389 . S
C1138 C1137 1.389 . S
C1138 C1139 1.387 . S
C1139 H1124 0.930 . S
C1139 C1134 1.390 . S
C1139 C1138 1.387 . S
H1140 C1152 0.930 1_554 S
H1141 C1154 0.930 . S
H1142 C1155 0.930 . S
H1143 C1159 0.959 . S
H1144 C1159 0.959 . S
H1145 C1159 0.961 . S
H1146 C1160 0.960 . S
H1147 C1160 0.961 . S
H1148 C1160 0.959 . S
H1149 C1163 0.929 . S
H1150 C1164 0.931 . S
H1151 C1166 0.930 . S
C1152 H1140 0.930 1_556 S
C1152 C1153 1.399 . S
C1152 C1157 1.399 1_556 S
C1153 C1152 1.399 . S
C1153 C1154 1.376 . S
C1154 H1141 0.930 . S
C1154 C1153 1.376 . S
C1154 C1155 1.388 . S
C1155 H1142 0.930 . S
C1155 C1154 1.388 . S
C1155 C1156 1.390 . S
C1156 C1155 1.390 . S
C1156 C1157 1.394 1_556 S
C1156 C1162 1.465 1_545 S
C1157 C1152 1.399 1_554 S
C1157 C1156 1.394 1_554 S
C1157 C1158 1.516 . S
C1158 C1157 1.516 . S
C1158 C1159 1.502 . S
C1158 C1160 1.561 . S
C1158 C1161 1.526 1_545 S
C1159 H1143 0.959 . S
C1159 H1144 0.959 . S
C1159 H1145 0.961 . S
C1159 C1158 1.502 . S
C1160 H1146 0.960 . S
C1160 H1147 0.961 . S
C1160 H1148 0.959 . S
C1160 C1158 1.561 . S
C1161 C1158 1.526 1_565 S
C1161 C1162 1.396 1_554 S
C1161 C1166 1.390 . S
C1162 C1156 1.465 1_565 S
C1162 C1161 1.396 1_556 S
C1162 C1163 1.399 . S
C1163 H1149 0.929 . S
C1163 C1162 1.399 . S
C1163 C1164 1.385 . S
C1164 H1150 0.931 . S
C1164 C1163 1.385 . S
C1164 C1165 1.389 1_556 S
C1165 C1164 1.389 1_554 S
C1165 C1166 1.387 . S
C1166 H1151 0.930 . S
C1166 C1161 1.390 . S
C1166 C1165 1.387 . S
H1167 C1179 0.930 . S
H1168 C1181 0.930 . S
H1169 C1182 0.930 . S
H1170 C1186 0.959 . S
H1171 C1186 0.959 . S
H1172 C1186 0.961 . S
H1173 C1187 0.960 . S
H1174 C1187 0.961 . S
H1175 C1187 0.959 . S
H1176 C1190 0.929 . S
H1177 C1191 0.931 . S
H1178 C1193 0.930 . S
C1179 H1167 0.930 . S
C1179 C1180 1.399 . S
C1179 C1184 1.399 . S
C1180 C1179 1.399 . S
C1180 C1181 1.376 . S
C1181 H1168 0.930 . S
C1181 C1180 1.376 . S
C1181 C1182 1.388 . S
C1182 H1169 0.930 . S
C1182 C1181 1.388 . S
C1182 C1183 1.390 . S
C1183 C1182 1.390 . S
C1183 C1184 1.394 . S
C1183 C1189 1.465 . S
C1184 C1179 1.399 . S
C1184 C1183 1.394 . S
C1184 C1185 1.516 . S
C1185 C1184 1.516 . S
C1185 C1186 1.502 . S
C1185 C1187 1.561 . S
C1185 C1188 1.526 . S
C1186 H1170 0.959 . S
C1186 H1171 0.959 . S
C1186 H1172 0.961 . S
C1186 C1185 1.502 . S
C1187 H1173 0.960 . S
C1187 H1174 0.961 . S
C1187 H1175 0.959 . S
C1187 C1185 1.561 . S
C1188 C1185 1.526 . S
C1188 C1189 1.396 . S
C1188 C1193 1.390 . S
C1189 C1183 1.465 . S
C1189 C1188 1.396 . S
C1189 C1190 1.399 . S
C1190 H1176 0.929 . S
C1190 C1189 1.399 . S
C1190 C1191 1.385 . S
C1191 H1177 0.931 . S
C1191 C1190 1.385 . S
C1191 C1192 1.389 . S
C1192 C1191 1.389 . S
C1192 C1193 1.387 . S
C1193 H1178 0.930 . S
C1193 C1188 1.390 . S
C1193 C1192 1.387 . S
H1194 C1206 0.930 . S
H1195 C1208 0.930 . S
H1196 C1209 0.930 . S
H1197 C1213 0.959 . S
H1198 C1213 0.959 . S
H1199 C1213 0.961 . S
H1200 C1214 0.960 . S
H1201 C1214 0.961 . S
H1202 C1214 0.959 . S
H1203 C1217 0.929 . S
H1204 C1218 0.931 . S
H1205 C1220 0.930 . S
C1206 H1194 0.930 . S
C1206 C1207 1.399 . S
C1206 C1211 1.399 . S
C1207 C1206 1.399 . S
C1207 C1208 1.376 . S
C1208 H1195 0.930 . S
C1208 C1207 1.376 . S
C1208 C1209 1.388 . S
C1209 H1196 0.930 . S
C1209 C1208 1.388 . S
C1209 C1210 1.390 . S
C1210 C1209 1.390 . S
C1210 C1211 1.394 . S
C1210 C1216 1.465 . S
C1211 C1206 1.399 . S
C1211 C1210 1.394 . S
C1211 C1212 1.516 . S
C1212 C1211 1.516 . S
C1212 C1213 1.502 . S
C1212 C1214 1.561 . S
C1212 C1215 1.526 . S
C1213 H1197 0.959 . S
C1213 H1198 0.959 . S
C1213 H1199 0.961 . S
C1213 C1212 1.502 . S
C1214 H1200 0.960 . S
C1214 H1201 0.961 . S
C1214 H1202 0.959 . S
C1214 C1212 1.561 . S
C1215 C1212 1.526 . S
C1215 C1216 1.396 . S
C1215 C1220 1.390 . S
C1216 C1210 1.465 . S
C1216 C1215 1.396 . S
C1216 C1217 1.399 . S
C1217 H1203 0.929 . S
C1217 C1216 1.399 . S
C1217 C1218 1.385 . S
C1218 H1204 0.931 . S
C1218 C1217 1.385 . S
C1218 C1219 1.389 . S
C1219 C1218 1.389 . S
C1219 C1220 1.387 . S
C1220 H1205 0.930 . S
C1220 C1215 1.390 . S
C1220 C1219 1.387 . S
H1221 C1233 0.930 . S
H1222 C1235 0.930 . S
H1223 C1236 0.930 . S
H1224 C1240 0.959 . S
H1225 C1240 0.959 . S
H1226 C1240 0.961 . S
H1227 C1241 0.960 . S
H1228 C1241 0.961 . S
H1229 C1241 0.959 . S
H1230 C1244 0.929 . S
H1231 C1245 0.931 . S
H1232 C1247 0.930 . S
C1233 H1221 0.930 . S
C1233 C1234 1.399 . S
C1233 C1238 1.399 . S
C1234 C1233 1.399 . S
C1234 C1235 1.376 . S
C1235 H1222 0.930 . S
C1235 C1234 1.376 . S
C1235 C1236 1.388 . S
C1236 H1223 0.930 . S
C1236 C1235 1.388 . S
C1236 C1237 1.390 . S
C1237 C1236 1.390 . S
C1237 C1238 1.394 . S
C1237 C1243 1.465 . S
C1238 C1233 1.399 . S
C1238 C1237 1.394 . S
C1238 C1239 1.516 . S
C1239 C1238 1.516 . S
C1239 C1240 1.502 . S
C1239 C1241 1.561 . S
C1239 C1242 1.526 . S
C1240 H1224 0.959 . S
C1240 H1225 0.959 . S
C1240 H1226 0.961 . S
C1240 C1239 1.502 . S
C1241 H1227 0.960 . S
C1241 H1228 0.961 . S
C1241 H1229 0.959 . S
C1241 C1239 1.561 . S
C1242 C1239 1.526 . S
C1242 C1243 1.396 . S
C1242 C1247 1.390 . S
C1243 C1237 1.465 . S
C1243 C1242 1.396 . S
C1243 C1244 1.399 . S
C1244 H1230 0.929 . S
C1244 C1243 1.399 . S
C1244 C1245 1.385 . S
C1245 H1231 0.931 . S
C1245 C1244 1.385 . S
C1245 C1246 1.389 . S
C1246 C1245 1.389 . S
C1246 C1247 1.387 . S
C1247 H1232 0.930 . S
C1247 C1242 1.390 . S
C1247 C1246 1.387 . S
H1248 C1260 0.930 . S
H1249 C1262 0.930 . S
H1250 C1263 0.930 . S
H1251 C1267 0.959 . S
H1252 C1267 0.959 . S
H1253 C1267 0.961 . S
H1254 C1268 0.960 . S
H1255 C1268 0.961 . S
H1256 C1268 0.959 . S
H1257 C1271 0.929 . S
H1258 C1272 0.931 . S
H1259 C1274 0.930 . S
C1260 H1248 0.930 . S
C1260 C1261 1.399 . S
C1260 C1265 1.399 . S
C1261 C1260 1.399 . S
C1261 C1262 1.376 . S
C1262 H1249 0.930 . S
C1262 C1261 1.376 . S
C1262 C1263 1.388 . S
C1263 H1250 0.930 . S
C1263 C1262 1.388 . S
C1263 C1264 1.390 . S
C1264 C1263 1.390 . S
C1264 C1265 1.394 . S
C1264 C1270 1.465 . S
C1265 C1260 1.399 . S
C1265 C1264 1.394 . S
C1265 C1266 1.516 . S
C1266 C1265 1.516 . S
C1266 C1267 1.502 . S
C1266 C1268 1.561 . S
C1266 C1269 1.526 . S
C1267 H1251 0.959 . S
C1267 H1252 0.959 . S
C1267 H1253 0.961 . S
C1267 C1266 1.502 . S
C1268 H1254 0.960 . S
C1268 H1255 0.961 . S
C1268 H1256 0.959 . S
C1268 C1266 1.561 . S
C1269 C1266 1.526 . S
C1269 C1270 1.396 . S
C1269 C1274 1.390 . S
C1270 C1264 1.465 . S
C1270 C1269 1.396 . S
C1270 C1271 1.399 . S
C1271 H1257 0.929 . S
C1271 C1270 1.399 . S
C1271 C1272 1.385 . S
C1272 H1258 0.931 . S
C1272 C1271 1.385 . S
C1272 C1273 1.389 . S
C1273 C1272 1.389 . S
C1273 C1274 1.387 . S
C1274 H1259 0.930 . S
C1274 C1269 1.390 . S
C1274 C1273 1.387 . S
H1275 C1287 0.930 . S
H1276 C1289 0.930 . S
H1277 C1290 0.930 . S
H1278 C1294 0.959 . S
H1279 C1294 0.959 . S
H1280 C1294 0.961 . S
H1281 C1295 0.960 . S
H1282 C1295 0.961 . S
H1283 C1295 0.959 . S
H1284 C1298 0.929 . S
H1285 C1299 0.931 . S
H1286 C1301 0.930 . S
C1287 H1275 0.930 . S
C1287 C1288 1.399 . S
C1287 C1292 1.399 . S
C1288 C1287 1.399 . S
C1288 C1289 1.376 . S
C1289 H1276 0.930 . S
C1289 C1288 1.376 . S
C1289 C1290 1.388 . S
C1290 H1277 0.930 . S
C1290 C1289 1.388 . S
C1290 C1291 1.390 . S
C1291 C1290 1.390 . S
C1291 C1292 1.394 . S
C1291 C1297 1.465 . S
C1292 C1287 1.399 . S
C1292 C1291 1.394 . S
C1292 C1293 1.516 . S
C1293 C1292 1.516 . S
C1293 C1294 1.502 . S
C1293 C1295 1.561 . S
C1293 C1296 1.526 . S
C1294 H1278 0.959 . S
C1294 H1279 0.959 . S
C1294 H1280 0.961 . S
C1294 C1293 1.502 . S
C1295 H1281 0.960 . S
C1295 H1282 0.961 . S
C1295 H1283 0.959 . S
C1295 C1293 1.561 . S
C1296 C1293 1.526 . S
C1296 C1297 1.396 . S
C1296 C1301 1.390 . S
C1297 C1291 1.465 . S
C1297 C1296 1.396 . S
C1297 C1298 1.399 . S
C1298 H1284 0.929 . S
C1298 C1297 1.399 . S
C1298 C1299 1.385 . S
C1299 H1285 0.931 . S
C1299 C1298 1.385 . S
C1299 C1300 1.389 . S
C1300 C1299 1.389 . S
C1300 C1301 1.387 . S
C1301 H1286 0.930 . S
C1301 C1296 1.390 . S
C1301 C1300 1.387 . S
H1302 C1314 0.930 . S
H1303 C1316 0.930 1_554 S
H1304 C1317 0.930 . S
H1305 C1321 0.959 . S
H1306 C1321 0.959 . S
H1307 C1321 0.961 . S
H1308 C1322 0.960 . S
H1309 C1322 0.961 . S
H1310 C1322 0.959 . S
H1311 C1325 0.929 . S
H1312 C1326 0.931 . S
H1313 C1328 0.930 . S
C1314 H1302 0.930 . S
C1314 C1315 1.399 . S
C1314 C1319 1.399 . S
C1315 C1314 1.399 . S
C1315 C1316 1.376 . S
C1316 H1303 0.930 1_556 S
C1316 C1315 1.376 . S
C1316 C1317 1.388 . S
C1317 H1304 0.930 . S
C1317 C1316 1.388 . S
C1317 C1318 1.390 . S
C1318 C1317 1.390 . S
C1318 C1319 1.394 . S
C1318 C1324 1.465 . S
C1319 C1314 1.399 . S
C1319 C1318 1.394 . S
C1319 C1320 1.516 . S
C1320 C1319 1.516 . S
C1320 C1321 1.502 . S
C1320 C1322 1.561 . S
C1320 C1323 1.526 . S
C1321 H1305 0.959 . S
C1321 H1306 0.959 . S
C1321 H1307 0.961 . S
C1321 C1320 1.502 . S
C1322 H1308 0.960 . S
C1322 H1309 0.961 . S
C1322 H1310 0.959 . S
C1322 C1320 1.561 . S
C1323 C1320 1.526 . S
C1323 C1324 1.396 . S
C1323 C1328 1.390 . S
C1324 C1318 1.465 . S
C1324 C1323 1.396 . S
C1324 C1325 1.399 . S
C1325 H1311 0.929 . S
C1325 C1324 1.399 . S
C1325 C1326 1.385 . S
C1326 H1312 0.931 . S
C1326 C1325 1.385 . S
C1326 C1327 1.389 . S
C1327 C1326 1.389 . S
C1327 C1328 1.387 . S
C1328 H1313 0.930 . S
C1328 C1323 1.390 . S
C1328 C1327 1.387 . S
H1329 C1341 0.930 . S
H1330 C1343 0.930 . S
H1331 C1344 0.930 . S
H1332 C1348 0.959 . S
H1333 C1348 0.959 . S
H1334 C1348 0.961 . S
H1335 C1349 0.960 . S
H1336 C1349 0.961 . S
H1337 C1349 0.959 . S
H1338 C1352 0.929 . S
H1339 C1353 0.931 . S
H1340 C1355 0.930 . S
C1341 H1329 0.930 . S
C1341 C1342 1.399 . S
C1341 C1346 1.399 . S
C1342 C1341 1.399 . S
C1342 C1343 1.376 . S
C1343 H1330 0.930 . S
C1343 C1342 1.376 . S
C1343 C1344 1.388 . S
C1344 H1331 0.930 . S
C1344 C1343 1.388 . S
C1344 C1345 1.390 . S
C1345 C1344 1.390 . S
C1345 C1346 1.394 . S
C1345 C1351 1.465 . S
C1346 C1341 1.399 . S
C1346 C1345 1.394 . S
C1346 C1347 1.516 . S
C1347 C1346 1.516 . S
C1347 C1348 1.502 . S
C1347 C1349 1.561 . S
C1347 C1350 1.526 . S
C1348 H1332 0.959 . S
C1348 H1333 0.959 . S
C1348 H1334 0.961 . S
C1348 C1347 1.502 . S
C1349 H1335 0.960 . S
C1349 H1336 0.961 . S
C1349 H1337 0.959 . S
C1349 C1347 1.561 . S
C1350 C1347 1.526 . S
C1350 C1351 1.396 . S
C1350 C1355 1.390 . S
C1351 C1345 1.465 . S
C1351 C1350 1.396 . S
C1351 C1352 1.399 . S
C1352 H1338 0.929 . S
C1352 C1351 1.399 . S
C1352 C1353 1.385 . S
C1353 H1339 0.931 . S
C1353 C1352 1.385 . S
C1353 C1354 1.389 . S
C1354 C1353 1.389 . S
C1354 C1355 1.387 . S
C1355 H1340 0.930 . S
C1355 C1350 1.390 . S
C1355 C1354 1.387 . S
C721 C33 1.042 . S
C733 C406 1.016 . S
C748 C111 1.047 . S
C760 C446 1.023 . S
C775 C524 1.028 . S
C787 C170 1.002 . S
C802 C210 1.046 . S
C814 C583 1.023 . S
C829 C288 1.050 . S
C841 C623 1.031 . S
C856 C701 1.007 . S
C868 C347 1.043 . S
C883 C505 1.671 . S
C895 C52 1.742 . S
C910 C92 1.719 . S
C922 C564 1.679 . S
C937 C642 1.742 1_556 S
C949 C151 1.674 . S
C964 C682 1.730 . S
C976 C229 1.695 1_554 S
C991 C269 1.685 . S
C1003 C387 1.723 . S
C1018 C328 1.672 . S
C1030 C465 1.742 . S
C1045 C654 1.448 . S
C1057 C3 1.440 . S
C1072 C359 1.442 . S
C1084 C64 1.440 . S
C1099 C123 1.445 . S
C1111 C416 1.436 . S
C1126 C477 1.448 . S
C1138 C180 1.440 . S
C1153 C536 1.446 . S
C1165 C241 1.441 . S
C1180 C593 1.441 . S
C1192 C300 1.449 . S
C1207 C5 1.291 . S
C1219 C595 1.291 . S
C1234 C652 1.228 . S
C1246 C62 1.251 . S
C1261 C121 1.212 . S
C1273 C357 1.232 . S
C1288 C182 1.228 . S
C1300 C418 1.228 . S
C1315 C239 1.205 1_556 S
C1327 C475 1.220 . S
C1342 C298 1.215 . S
C1354 C534 1.236 1_554 S
