# Generated by pormake.
# Topology vby, (6)-cn, num edge types: 1
# Building blocks:
#     Node 0, Type 0, BuildingBlock: JUFBIX_clean_sbu_0, # of connection points: 6
#     Node 1, Type 0, BuildingBlock: JUFBIX_clean_sbu_0, # of connection points: 6
#     Node 2, Type 0, BuildingBlock: JUFBIX_clean_sbu_0, # of connection points: 6
#     Node 3, Type 0, BuildingBlock: JUFBIX_clean_sbu_0, # of connection points: 6
#     Node 4, Type 0, BuildingBlock: JUFBIX_clean_sbu_0, # of connection points: 6
#     Node 5, Type 0, BuildingBlock: JUFBIX_clean_sbu_0, # of connection points: 6
#     Node 6, Type 0, BuildingBlock: JUFBIX_clean_sbu_0, # of connection points: 6
#     Node 7, Type 0, BuildingBlock: JUFBIX_clean_sbu_0, # of connection points: 6
#     Edge 8, Type (0, 0), BuildingBlock: XUDNAN_clean_linker_2, # of connection points: 2
#     Edge 9, Type (0, 0), BuildingBlock: XUDNAN_clean_linker_2, # of connection points: 2
#     Edge 10, Type (0, 0), BuildingBlock: XUDNAN_clean_linker_2, # of connection points: 2
#     Edge 11, Type (0, 0), BuildingBlock: XUDNAN_clean_linker_2, # of connection points: 2
#     Edge 12, Type (0, 0), BuildingBlock: XUDNAN_clean_linker_2, # of connection points: 2
#     Edge 13, Type (0, 0), BuildingBlock: XUDNAN_clean_linker_2, # of connection points: 2
#     Edge 14, Type (0, 0), BuildingBlock: XUDNAN_clean_linker_2, # of connection points: 2
#     Edge 15, Type (0, 0), BuildingBlock: XUDNAN_clean_linker_2, # of connection points: 2
#     Edge 16, Type (0, 0), BuildingBlock: XUDNAN_clean_linker_2, # of connection points: 2
#     Edge 17, Type (0, 0), BuildingBlock: XUDNAN_clean_linker_2, # of connection points: 2
#     Edge 18, Type (0, 0), BuildingBlock: XUDNAN_clean_linker_2, # of connection points: 2
#     Edge 19, Type (0, 0), BuildingBlock: XUDNAN_clean_linker_2, # of connection points: 2
#     Edge 20, Type (0, 0), BuildingBlock: XUDNAN_clean_linker_2, # of connection points: 2
#     Edge 21, Type (0, 0), BuildingBlock: XUDNAN_clean_linker_2, # of connection points: 2
#     Edge 22, Type (0, 0), BuildingBlock: XUDNAN_clean_linker_2, # of connection points: 2
#     Edge 23, Type (0, 0), BuildingBlock: XUDNAN_clean_linker_2, # of connection points: 2
#     Edge 24, Type (0, 0), BuildingBlock: XUDNAN_clean_linker_2, # of connection points: 2
#     Edge 25, Type (0, 0), BuildingBlock: XUDNAN_clean_linker_2, # of connection points: 2
#     Edge 26, Type (0, 0), BuildingBlock: XUDNAN_clean_linker_2, # of connection points: 2
#     Edge 27, Type (0, 0), BuildingBlock: XUDNAN_clean_linker_2, # of connection points: 2
#     Edge 28, Type (0, 0), BuildingBlock: XUDNAN_clean_linker_2, # of connection points: 2
#     Edge 29, Type (0, 0), BuildingBlock: XUDNAN_clean_linker_2, # of connection points: 2
#     Edge 30, Type (0, 0), BuildingBlock: XUDNAN_clean_linker_2, # of connection points: 2
#     Edge 31, Type (0, 0), BuildingBlock: XUDNAN_clean_linker_2, # of connection points: 2
# Relax obj value: 0.152
# Max RMSD: 0.158
# Mean RMSD: 0.158
data_MOF--net-vby--node1-JUFBIX_clean_sbu_0--edge1-XUDNAN_clean_linker_2
_symmetry_space_group_name_H-M    P1
_symmetry_Int_Tables_number       1
_symmetry_cell_setting            triclinic
loop_
_symmetry_equiv_pos_as_xyz
'x, y, z'
_cell_length_a     19.343872
_cell_length_b     54.86666
_cell_length_c     28.994603
_cell_angle_alpha  89.829103
_cell_angle_beta   93.030043
_cell_angle_gamma 89.950798
loop_
_atom_site_label
_atom_site_type_symbol
_atom_site_fract_x
_atom_site_fract_y
_atom_site_fract_z
_atom_type_partial_charge
Co0 Co 0.04792 0.37645 0.03948 0.0
C1 C 0.09252 0.38649 0.95332 0.0
Co2 Co 0.15052 0.39467 0.04313 0.0
C3 C 0.89648 0.37361 0.02571 0.0
C4 C 0.94201 0.34078 0.0535 0.0
N5 N 0.95835 0.36328 0.03858 0.0
N6 N 0.84283 0.35829 0.03162 0.0
C7 C 0.87155 0.33764 0.04898 0.0
H8 H 0.89071 0.39192 1.0121 0.0
H9 H 0.97866 0.32753 0.06773 0.0
C10 C 0.09894 0.38562 0.12933 0.0
N11 N 0.24105 0.40678 0.04455 0.0
C12 C 0.29396 0.39676 0.02252 0.0
C13 C 0.27133 0.42339 0.07316 0.0
N14 N 0.35647 0.40571 0.03719 0.0
C15 C 0.34211 0.42279 0.06871 0.0
C16 C 0.05003 0.42844 0.03985 0.0
O17 O 0.04893 0.37715 0.1043 0.0
O18 O 0.15203 0.39382 0.10998 0.0
O19 O 0.11493 0.4256 0.04407 0.0
O20 O 1.01046 0.40975 0.03674 0.0
O21 O 0.14446 0.39584 0.97588 0.0
H22 H 0.24433 0.43403 0.09792 0.0
H23 H 0.28663 0.38211 0.99788 0.0
O24 O 0.04553 0.37603 0.97491 0.0
O25 O 0.09034 0.34362 0.04172 0.0
O26 O 0.18741 0.36374 0.04269 0.0
C27 C 0.15638 0.34356 0.04312 0.0
H28 H 0.84336 0.32157 0.05884 0.0
H29 H 0.3801 0.43293 0.08956 0.0
Co30 Co 0.90332 0.63892 0.02116 0.0
C31 C 0.94331 0.65207 0.93297 0.0
Co32 Co 1.00955 0.65375 0.01932 0.0
C33 C 0.7611 0.6364 0.04591 0.0
C34 C 0.78237 0.61072 0.99321 0.0
N35 N 0.81309 0.62718 0.02198 0.0
N36 N 0.69872 0.62701 0.03232 0.0
C37 C 0.71226 0.61057 0.99948 0.0
H38 H 0.76871 0.65069 0.07125 0.0
H39 H 0.80852 0.60068 0.96719 0.0
C40 C 0.97663 0.63954 0.10669 0.0
N41 N 0.09861 0.66617 0.01763 0.0
C42 C 0.15967 0.65634 0.03319 0.0
C43 C 0.11516 0.68818 1.0006 0.0
N44 N 0.21326 0.67158 0.02701 0.0
C45 C 0.18538 0.69161 1.00655 0.0
C46 C 0.9074 0.68872 0.03441 0.0
O47 O 0.91785 0.63387 0.08751 0.0
O48 O 0.0227 0.64891 0.08281 0.0
O49 O 0.97244 0.68675 0.02982 0.0
O50 O 0.87026 0.66988 0.03118 0.0
O51 O 0.99816 0.6582 0.95568 0.0
H52 H 0.07843 0.70099 0.98486 0.0
H53 H 0.16459 0.63861 0.04953 0.0
O54 O 0.89247 0.64382 0.95465 0.0
O55 O 0.93505 0.608 1.01104 0.0
O56 O 0.04281 0.62052 1.00892 0.0
C57 C 0.99813 0.60335 1.00598 0.0
H58 H 0.6739 0.60044 0.97891 0.0
H59 H 0.21394 0.70749 0.99615 0.0
Co60 Co 0.13764 0.64417 0.53084 0.0
C61 C 0.05086 0.65006 0.60445 0.0
Co62 Co 0.02952 0.65318 0.50991 0.0
C63 C 0.28388 0.64303 0.52451 0.0
C64 C 0.25413 0.62182 0.58216 0.0
N65 N 0.22838 0.63616 0.54748 0.0
N66 N 0.34328 0.63336 0.54283 0.0
C67 C 0.32503 0.62012 0.57946 0.0
H68 H 0.28062 0.65492 0.49462 0.0
H69 H 0.22324 0.61276 0.60708 0.0
C70 C 0.10798 0.6469 0.43497 0.0
N71 N 0.93971 0.66169 0.49154 0.0
C72 C 0.87893 0.65173 0.50263 0.0
C73 C 0.92243 0.67908 0.45998 0.0
N74 N 0.82473 0.66207 0.47865 0.0
C75 C 0.85196 0.6793 0.4519 0.0
C76 C 0.11893 0.69337 0.52132 0.0
O77 O 0.1576 0.64256 0.46468 0.0
O78 O 0.0491 0.65185 0.44894 0.0
O79 O 0.05623 0.68749 0.51085 0.0
O80 O 0.16202 0.67684 0.53264 0.0
O81 O 1.00747 0.65448 0.57126 0.0
H82 H 0.959 0.69047 0.44297 0.0
H83 H 0.87472 0.63664 0.52647 0.0
O84 O 0.11375 0.64551 0.59578 0.0
O85 O 0.11583 0.61165 0.52882 0.0
O86 O 1.00669 0.61837 0.50805 0.0
C87 C 0.05653 0.60348 0.51697 0.0
H88 H 0.35995 0.60936 0.60168 0.0
H89 H 0.82296 0.6911 0.42794 0.0
Co90 Co 1.00089 0.37526 0.5433 0.0
C91 C 0.94197 0.38565 0.62598 0.0
Co92 Co 0.89662 0.39213 0.53383 0.0
C93 C 0.14641 0.37255 0.53033 0.0
C94 C 0.11813 0.34655 0.581 0.0
N95 N 0.09133 0.36357 0.55156 0.0
N96 N 0.20674 0.36201 0.54527 0.0
C97 C 0.18907 0.34558 0.57729 0.0
H98 H 0.14236 0.38726 0.50542 0.0
H99 H 0.0883 0.33594 0.60437 0.0
C100 C 0.96318 0.3828 0.45163 0.0
N101 N 0.80657 0.40465 0.52365 0.0
C102 C 0.74437 0.39441 0.53128 0.0
C103 C 0.79053 0.42541 0.50034 0.0
N104 N 0.69076 0.40775 0.513 0.0
C105 C 0.71991 0.42737 0.49388 0.0
C106 C 0.99585 0.42688 0.53912 0.0
O107 O 1.00836 0.37361 0.47966 0.0
O108 O 0.90769 0.39151 0.46704 0.0
O109 O 0.9314 0.42332 0.5358 0.0
O110 O 0.03666 0.4086 0.54231 0.0
O111 O 0.89004 0.3932 0.60065 0.0
H112 H 0.82781 0.43787 0.48686 0.0
H113 H 0.73839 0.37686 0.54751 0.0
O114 O 0.99444 0.37716 0.60709 0.0
O115 O 0.9618 0.34233 0.54444 0.0
O116 O 0.86143 0.36067 0.53268 0.0
C117 C 0.89575 0.34122 0.53972 0.0
H118 H 0.22469 0.33378 0.59683 0.0
H119 H 0.69224 0.4418 0.47526 0.0
Co120 Co 0.52832 0.87485 1.00167 0.0
C121 C 0.56408 0.87808 0.91145 0.0
Co122 Co 0.63595 0.8872 0.99541 0.0
C123 C 0.3866 0.87569 0.02646 0.0
C124 C 0.40884 0.84388 0.98748 0.0
N125 N 0.4385 0.86388 1.00668 0.0
N126 N 0.32502 0.86424 0.01957 0.0
C127 C 0.33922 0.84406 0.99526 0.0
H128 H 0.394 0.89281 0.04438 0.0
H129 H 0.43547 0.83065 0.96727 0.0
C130 C 0.59231 0.88523 0.08583 0.0
N131 N 0.72532 0.89858 0.99004 0.0
C132 C 0.78503 0.89093 1.01174 0.0
C133 C 0.74368 0.91752 0.96352 0.0
N134 N 0.83939 0.90464 1.0002 0.0
C135 C 0.81362 0.92139 0.96997 0.0
C136 C 0.54119 0.92493 0.99161 0.0
O137 O 0.53697 0.87838 0.06468 0.0
O138 O 0.64552 0.88962 0.06277 0.0
O139 O 0.60427 0.919 0.99236 0.0
O140 O 0.49548 0.90846 0.99552 0.0
O141 O 0.62274 0.88516 0.92858 0.0
H142 H 0.70834 0.92798 0.94109 0.0
H143 H 0.78841 0.87594 0.03614 0.0
O144 O 0.51768 0.87164 0.93803 0.0
O145 O 0.56424 0.84168 1.00806 0.0
O146 O 0.66902 0.85529 0.99812 0.0
C147 C 0.62893 0.8376 1.00501 0.0
H148 H 0.30165 0.83099 0.98166 0.0
H149 H 0.84348 0.93526 0.95338 0.0
Co150 Co 0.40672 0.13743 0.03753 0.0
C151 C 0.44041 0.14511 0.94505 0.0
Co152 Co 0.51128 0.15147 0.02769 0.0
C153 C 0.26408 0.13765 0.062 0.0
C154 C 0.28735 0.10661 0.02123 0.0
N155 N 0.31688 0.12601 0.04277 0.0
N156 N 0.20226 0.1268 0.05224 0.0
C157 C 0.21714 0.10703 0.02697 0.0
H158 H 0.27076 0.15451 0.08092 0.0
H159 H 0.31434 0.0939 1.0001 0.0
C160 C 0.48496 0.14245 0.11966 0.0
N161 N 0.60012 0.16335 0.02139 0.0
C162 C 0.66175 0.15475 0.03872 0.0
C163 C 0.61557 0.18409 0.99905 0.0
N164 N 0.71463 0.16957 0.02851 0.0
C165 C 0.68568 0.188 1.00353 0.0
C166 C 0.41327 0.1879 0.03798 0.0
O167 O 0.42273 0.13832 0.10463 0.0
O168 O 0.52981 0.14817 0.09118 0.0
O169 O 0.47802 0.18407 0.03642 0.0
O170 O 0.37264 0.16983 0.03706 0.0
O171 O 0.49405 0.15456 0.96419 0.0
H172 H 0.57802 0.1958 0.98104 0.0
H173 H 0.66747 0.13836 0.05945 0.0
O174 O 0.39471 0.13595 0.97017 0.0
O175 O 0.43998 0.10543 0.03769 0.0
O176 O 0.54204 0.11838 0.0186 0.0
C177 C 0.50086 0.10082 0.02615 0.0
H178 H 0.17968 0.09468 1.01084 0.0
H179 H 0.71336 0.20319 0.98937 0.0
Co180 Co 0.65248 0.136 0.54635 0.0
C181 C 0.59537 0.14354 0.6314 0.0
Co182 Co 0.54341 0.148 0.54103 0.0
C183 C 0.80079 0.13614 0.56678 0.0
C184 C 0.76533 0.10241 0.53715 0.0
N185 N 0.74308 0.12459 0.55019 0.0
N186 N 0.85727 0.1219 0.56509 0.0
C187 C 0.83551 0.10066 0.54663 0.0
H188 H 0.80164 0.15457 0.58005 0.0
H189 H 0.73288 0.08837 0.52136 0.0
C190 C 0.5956 0.13974 0.45568 0.0
N191 N 0.45328 0.15918 0.53721 0.0
C192 C 0.39911 0.14987 0.55871 0.0
C193 C 0.42754 0.17855 0.51337 0.0
N194 N 0.34018 0.16263 0.54938 0.0
C195 C 0.35815 0.18075 0.52078 0.0
C196 C 0.64206 0.18571 0.54122 0.0
O197 O 0.65077 0.13431 0.47966 0.0
O198 O 0.54263 0.1465 0.47622 0.0
O199 O 0.5773 0.1812 0.53979 0.0
O200 O 0.68448 0.16815 0.54385 0.0
O201 O 0.54308 0.14944 0.60568 0.0
H202 H 0.45733 0.19034 0.49201 0.0
H203 H 0.40312 0.13379 0.5803 0.0
O204 O 0.65127 0.13726 0.61314 0.0
O205 O 0.62139 0.1043 0.54928 0.0
O206 O 0.51171 0.11422 0.543 0.0
C207 C 0.55866 0.09799 0.54816 0.0
H208 H 0.86839 0.0853 0.53948 0.0
H209 H 0.32401 0.19473 0.50628 0.0
Co210 Co 0.5065 0.87148 0.50313 0.0
C211 C 0.43542 0.87489 0.58125 0.0
Co212 Co 0.40223 0.88752 0.48834 0.0
C213 C 0.65296 0.87064 0.49515 0.0
C214 C 0.62327 0.8415 0.53891 0.0
N215 N 0.59719 0.86023 0.51324 0.0
N216 N 0.71278 0.85918 0.50787 0.0
C217 C 0.69443 0.84084 0.53577 0.0
H218 H 0.64967 0.88669 0.47342 0.0
H219 H 0.59262 0.82914 0.55857 0.0
C220 C 0.48094 0.88502 0.41139 0.0
N221 N 0.31243 0.89946 0.47699 0.0
C222 C 0.25071 0.88892 0.48479 0.0
C223 C 0.29587 0.92034 0.45439 0.0
N224 N 0.19661 0.90231 0.46731 0.0
C225 C 0.22513 0.92215 0.44846 0.0
C226 C 0.49677 0.92263 0.51128 0.0
O227 O 0.52325 0.87567 0.44109 0.0
O228 O 0.42072 0.89109 0.42326 0.0
O229 O 0.4341 0.91887 0.49896 0.0
O230 O 0.53827 0.90459 0.51582 0.0
O231 O 0.38765 0.88411 0.5543 0.0
H232 H 0.33297 0.93311 0.44162 0.0
H233 H 0.24562 0.87125 0.50096 0.0
O234 O 0.4909 0.86757 0.5646 0.0
O235 O 0.47103 0.8386 0.4911 0.0
O236 O 0.36992 0.85622 0.47746 0.0
C237 C 0.40623 0.83704 0.48021 0.0
H238 H 0.7296 0.82766 0.55204 0.0
H239 H 0.19689 0.93676 0.43078 0.0
H240 H 0.48306 0.42798 0.05033 0.0
H241 H 0.38482 0.36058 1.00356 0.0
H242 H 0.49863 0.34293 0.99136 0.0
H243 H 0.62662 0.42635 0.97205 0.0
H244 H 0.68893 0.43797 1.01488 0.0
H245 H 0.59907 0.4465 1.01653 0.0
H246 H 0.59709 0.43083 0.1008 0.0
H247 H 0.68684 0.42229 0.09942 0.0
H248 H 0.62328 0.39993 0.11394 0.0
H249 H 0.6223 0.331 0.98944 0.0
H250 H 0.74901 0.32577 0.99805 0.0
H251 H 0.77072 0.40022 0.04622 0.0
C252 C 0.48529 0.40959 0.03717 0.0
C253 C 0.42393 0.39594 0.02749 0.0
C254 C 0.42997 0.37185 1.01036 0.0
C255 C 0.49484 0.36149 1.0035 0.0
C256 C 0.55388 0.37534 1.0137 0.0
C257 C 0.54997 0.39889 0.03006 0.0
C258 C 0.62201 0.40929 0.0403 0.0
C259 C 0.6349 0.43134 1.00907 0.0
C260 C 0.63292 0.41597 0.09166 0.0
C261 C 0.66677 0.38772 0.028 0.0
C262 C 0.62609 0.36841 1.0125 0.0
C263 C 0.65472 0.34606 1.00113 0.0
C264 C 0.7267 0.34322 1.00629 0.0
C265 C 0.7697 0.36257 0.0226 0.0
C266 C 0.73923 0.38526 0.0329 0.0
H267 H 0.28695 0.62982 0.01794 0.0
H268 H 0.30301 0.70503 0.06224 0.0
H269 H 0.4293 0.70019 0.07639 0.0
H270 H 0.42711 0.60494 0.09805 0.0
H271 H 0.45741 0.58439 0.05512 0.0
H272 H 0.36717 0.59271 0.05436 0.0
H273 H 0.37285 0.60741 0.96966 0.0
H274 H 0.46299 0.59925 0.97021 0.0
H275 H 0.4363 0.62991 0.95551 0.0
H276 H 0.55359 0.68863 0.07877 0.0
H277 H 0.66864 0.67168 0.06723 0.0
H278 H 0.5744 0.60348 0.02121 0.0
C279 C 0.31706 0.64499 0.0318 0.0
C280 C 0.28548 0.66776 0.03935 0.0
C281 C 0.32649 0.68749 0.05621 0.0
C282 C 0.39807 0.68486 0.06458 0.0
C283 C 0.428 0.66236 0.05583 0.0
C284 C 0.38896 0.64273 0.03985 0.0
C285 C 0.43501 0.62125 0.02939 0.0
C286 C 0.42082 0.59954 0.06113 0.0
C287 C 0.42625 0.61404 0.97815 0.0
C288 C 0.50593 0.63213 0.04082 0.0
C289 C 0.50048 0.65573 0.05666 0.0
C290 C 0.55859 0.67001 0.06713 0.0
C291 C 0.62409 0.66009 0.06066 0.0
C292 C 0.63136 0.63605 0.04355 0.0
C293 C 0.57107 0.62186 0.03427 0.0
H294 H 0.75361 0.64826 0.55281 0.0
H295 H 0.73346 0.66143 0.40519 0.0
H296 H 0.60827 0.65308 0.4055 0.0
H297 H 0.62318 0.59937 0.55618 0.0
H298 H 0.59099 0.60965 0.61001 0.0
H299 H 0.68028 0.61469 0.59782 0.0
H300 H 0.66488 0.66095 0.61172 0.0
H301 H 0.57559 0.65608 0.62378 0.0
H302 H 0.59751 0.67731 0.5793 0.0
H303 H 0.48601 0.64572 0.42179 0.0
H304 H 0.37159 0.63982 0.45323 0.0
H305 H 0.46815 0.63207 0.59107 0.0
C306 C 0.72282 0.6489 0.52055 0.0
C307 C 0.75289 0.65548 0.47894 0.0
C308 C 0.71109 0.65664 0.43743 0.0
C309 C 0.64014 0.65178 0.43723 0.0
C310 C 0.61174 0.64581 0.47887 0.0
C311 C 0.65151 0.6443 0.51981 0.0
C312 C 0.60687 0.63885 0.56007 0.0
C313 C 0.62651 0.61417 0.58232 0.0
C314 C 0.6115 0.65954 0.59581 0.0
C315 C 0.53587 0.63789 0.53532 0.0
C316 C 0.54022 0.6418 0.48847 0.0
C317 C 0.48182 0.64256 0.45839 0.0
C318 C 0.41698 0.63941 0.47668 0.0
C319 C 0.41083 0.63566 0.52466 0.0
C320 C 0.47131 0.63465 0.55423 0.0
H321 H 0.61663 0.38247 0.57517 0.0
H322 H 0.60049 0.41801 0.44117 0.0
H323 H 0.47627 0.40823 0.43389 0.0
H324 H 0.49261 0.3334 0.54707 0.0
H325 H 0.45654 0.33377 0.60312 0.0
H326 H 0.54555 0.34238 0.59717 0.0
H327 H 0.52254 0.38378 0.63628 0.0
H328 H 0.43356 0.3753 0.64233 0.0
H329 H 0.4539 0.40314 0.61283 0.0
H330 H 0.35395 0.39574 0.44118 0.0
H331 H 0.23923 0.38244 0.4638 0.0
H332 H 0.33081 0.35568 0.59431 0.0
C333 C 0.58695 0.38793 0.54416 0.0
C334 C 0.61837 0.40116 0.50885 0.0
C335 C 0.57757 0.40823 0.46898 0.0
C336 C 0.50697 0.40257 0.46433 0.0
C337 C 0.47741 0.38982 0.49986 0.0
C338 C 0.51581 0.38259 0.53908 0.0
C339 C 0.47004 0.36994 0.57284 0.0
C340 C 0.49253 0.34329 0.58049 0.0
C341 C 0.47002 0.38388 0.61878 0.0
C342 C 0.39998 0.37153 0.54661 0.0
C343 C 0.40585 0.38287 0.50442 0.0
C344 C 0.34862 0.38687 0.47419 0.0
C345 C 0.28339 0.37939 0.48757 0.0
C346 C 0.27527 0.36816 0.53108 0.0
C347 C 0.33492 0.36397 0.56068 0.0
H348 H 0.91428 0.86291 1.00774 0.0
H349 H 0.92538 0.94112 0.02603 0.0
H350 H 0.0514 0.93814 0.04391 0.0
H351 H 0.05641 0.84627 0.09649 0.0
H352 H 0.08758 0.82224 0.06073 0.0
H353 H 0.99686 0.82998 0.0579 0.0
H354 H 1.00107 0.83654 0.96962 0.0
H355 H 0.09178 0.82917 0.9723 0.0
H356 H 0.06246 0.85784 0.94782 0.0
H357 H 0.17566 0.9277 0.04995 0.0
H358 H 0.29154 0.91102 0.04157 0.0
H359 H 0.20283 0.83896 0.0189 0.0
C360 C 0.94325 0.8792 1.01705 0.0
C361 C 0.91061 0.90224 1.01608 0.0
C362 C 0.94991 0.92337 0.02682 0.0
C363 C 0.02123 0.92181 0.03724 0.0
C364 C 0.05247 0.89895 0.03665 0.0
C365 C 1.01492 0.87796 0.02694 0.0
C366 C 0.06246 0.85612 0.02345 0.0
C367 C 0.05009 0.83755 0.06195 0.0
C368 C 0.05392 0.84424 0.97544 0.0
C369 C 0.13254 0.86833 0.0308 0.0
C370 C 0.12532 0.89292 0.03929 0.0
C371 C 0.18215 0.90838 0.04416 0.0
C372 C 0.24822 0.89859 0.03943 0.0
C373 C 0.25735 0.8735 0.02956 0.0
C374 C 0.19832 0.85818 0.02622 0.0
H375 H 0.07855 0.10248 0.04687 0.0
H376 H 0.16965 0.17389 0.07241 0.0
H377 H 0.05371 0.19144 0.07687 0.0
H378 H 0.94296 0.12285 0.97193 0.0
H379 H 0.87935 0.10174 0.99147 0.0
H380 H 0.96976 0.09385 0.99623 0.0
H381 H 0.96165 0.08635 0.08403 0.0
H382 H 0.87101 0.09418 0.07952 0.0
H383 H 0.92892 0.11013 0.11974 0.0
H384 H 0.92901 0.20243 0.06992 0.0
H385 H 0.80277 0.20575 0.05373 0.0
H386 H 0.7903 0.12773 0.03212 0.0
C387 C 0.07444 0.12175 0.05393 0.0
C388 C 0.13418 0.13662 0.05948 0.0
C389 C 0.12565 0.16181 0.06878 0.0
C390 C 0.05961 0.17208 0.0712 0.0
C391 C 1.00219 0.15699 0.06449 0.0
C392 C 1.00876 0.13234 0.05633 0.0
C393 C 0.9384 0.12055 0.04727 0.0
C394 C 0.93229 0.10908 0.99885 0.0
C395 C 0.92417 0.10169 0.0849 0.0
C396 C 0.89148 0.14257 0.0504 0.0
C397 C 0.9295 0.16336 0.0607 0.0
C398 C 0.89857 0.18624 0.06246 0.0
C399 C 0.82701 0.18798 0.05297 0.0
C400 C 0.78698 0.167 0.0419 0.0
C401 C 0.81959 0.14396 0.04137 0.0
H402 H 0.21607 0.17979 0.51318 0.0
H403 H 0.30807 0.13282 0.6208 0.0
H404 H 0.192 0.12018 0.64145 0.0
H405 H 0.06357 0.19858 0.57859 0.0
H406 H 1.00835 0.19891 0.52652 0.0
H407 H 0.09895 0.20604 0.52401 0.0
H408 H 0.10978 0.17217 0.46237 0.0
H409 H 1.01969 0.16477 0.46594 0.0
H410 H 0.08449 0.14144 0.47582 0.0
H411 H 0.06782 0.10811 0.64297 0.0
H412 H 0.94239 0.09999 0.62847 0.0
H413 H 0.93012 0.15723 0.52555 0.0
C414 C 0.21234 0.16735 0.54189 0.0
C415 C 0.27206 0.15716 0.5648 0.0
C416 C 0.26378 0.14059 0.60179 0.0
C417 C 0.19781 0.13344 0.61423 0.0
C418 C 0.14038 0.14338 0.59011 0.0
C419 C 0.14688 0.16029 0.55523 0.0
C420 C 0.07692 0.16723 0.53308 0.0
C421 C 0.06103 0.1943 0.54107 0.0
C422 C 0.0725 0.16102 0.48125 0.0
C423 C 0.03031 0.15094 0.55994 0.0
C424 C 0.06798 0.13734 0.59275 0.0
C425 C 0.03744 0.11912 0.61838 0.0
C426 C 0.96663 0.11457 0.60997 0.0
C427 C 0.92746 0.12841 0.57683 0.0
C428 C 0.95927 0.14704 0.55208 0.0
H429 H 0.83795 0.85162 0.55471 0.0
H430 H 0.74273 0.88048 0.42701 0.0
H431 H 0.85702 0.89311 0.40245 0.0
H432 H 0.96414 0.89834 0.57217 0.0
H433 H 0.03252 0.87843 0.59401 0.0
H434 H 0.9435 0.87041 0.60131 0.0
H435 H 0.96227 0.82912 0.56076 0.0
H436 H 0.05147 0.837 0.55342 0.0
H437 H 0.99606 0.82878 0.504 0.0
H438 H 0.97914 0.90435 0.39256 0.0
H439 H 0.10395 0.91322 0.39735 0.0
H440 H 0.12444 0.87692 0.53053 0.0
C441 C 0.84136 0.86029 0.52134 0.0
C442 C 0.78091 0.86523 0.493 0.0
C443 C 0.78773 0.87688 0.44977 0.0
C444 C 0.85264 0.88397 0.43529 0.0
C445 C 0.91082 0.8792 0.46421 0.0
C446 C 0.90619 0.86754 0.50623 0.0
C447 C 0.97728 0.86535 0.53101 0.0
C448 C 0.97946 0.87895 0.57737 0.0
C449 C 0.99798 0.83846 0.53768 0.0
C450 C 0.02212 0.8779 0.49656 0.0
C451 C 0.98238 0.88563 0.45828 0.0
C452 C 1.0109 0.89832 0.42227 0.0
C453 C 0.08186 0.90343 0.42548 0.0
C454 C 0.12405 0.89592 0.4644 0.0
C455 C 0.09367 0.88271 0.50019 0.0
H456 H 0.08825 0.57262 0.05427 0.0
H457 H 0.93828 0.57655 0.9381 0.0
H458 H 0.93079 0.53172 0.93628 0.0
H459 H 0.17495 0.51492 1.01557 0.0
H460 H 0.18812 0.5043 0.07427 0.0
H461 H 0.18807 0.5365 0.06197 0.0
H462 H 0.09235 0.54235 0.1202 0.0
H463 H 0.09013 0.51007 0.13131 0.0
H464 H 1.01208 0.52586 0.11199 0.0
H465 H 0.92581 0.48707 0.95445 0.0
H466 H 0.94534 0.44432 0.97998 0.0
H467 H 0.1011 0.46904 0.08228 0.0
C468 C 0.05681 0.56392 0.02704 0.0
C469 C 1.01482 0.57788 0.99576 0.0
C470 C 0.9718 0.566 0.96175 0.0
C471 C 0.96651 0.54059 0.96081 0.0
C472 C 1.00514 0.52728 0.99389 0.0
C473 C 0.05126 0.5384 0.0254 0.0
C474 C 0.08522 0.51974 0.05788 0.0
C475 C 0.16375 0.5188 0.05205 0.0
C476 C 0.06894 0.52482 0.10832 0.0
C477 C 0.04985 0.49666 0.04028 0.0
C478 C 1.00319 0.50142 1.00373 0.0
C479 C 0.96293 0.48302 0.98266 0.0
C480 C 0.97344 0.45888 0.99779 0.0
C481 C 0.02437 0.45351 0.03308 0.0
C482 C 0.06152 0.47274 0.05531 0.0
H483 H 0.92426 0.46788 0.55862 0.0
H484 H 0.12138 0.44307 0.51113 0.0
H485 H 0.1536 0.48594 0.49565 0.0
H486 H 0.8943 0.51529 0.47622 0.0
H487 H 0.85672 0.53603 0.51601 0.0
H488 H 0.84973 0.50361 0.52465 0.0
H489 H 0.9065 0.50766 0.60724 0.0
H490 H 0.91244 0.54013 0.59919 0.0
H491 H 0.98902 0.52272 0.61539 0.0
H492 H 0.1613 0.53068 0.48207 0.0
H493 H 0.15321 0.57535 0.48112 0.0
H494 H 0.95099 0.57167 0.53888 0.0
C495 C 0.97462 0.47147 0.5454 0.0
C496 C 0.02057 0.45221 0.536 0.0
C497 C 0.08591 0.45759 0.51893 0.0
C498 C 0.10417 0.48182 0.50964 0.0
C499 C 0.05661 0.50027 0.51799 0.0
C500 C 0.99371 0.49544 0.53626 0.0
C501 C 0.95249 0.51862 0.54291 0.0
C502 C 0.88427 0.51836 0.51317 0.0
C503 C 0.93937 0.52251 0.59423 0.0
C504 C 1.00216 0.53742 0.5255 0.0
C505 C 0.06144 0.52628 0.51083 0.0
C506 C 0.11542 0.53958 0.49369 0.0
C507 C 0.1101 0.56494 0.49322 0.0
C508 C 0.05148 0.57692 0.51005 0.0
C509 C 0.99584 0.56297 0.52528 0.0
H510 H 0.46118 0.95601 0.04156 0.0
H511 H 0.59061 0.95217 0.92423 0.0
H512 H 0.59526 0.99697 0.92067 0.0
H513 H 0.36452 1.01278 1.00153 0.0
H514 H 0.36148 0.02409 0.05969 0.0
H515 H 0.3611 0.99172 0.04922 0.0
H516 H 0.46779 0.98708 0.10642 0.0
H517 H 0.46983 0.01948 0.11604 0.0
H518 H 0.54536 1.00412 0.09663 0.0
H519 H 0.60092 0.04147 0.93659 0.0
H520 H 0.58776 0.08417 0.962 0.0
H521 H 0.45098 0.06 0.06682 0.0
C522 C 0.48773 0.96471 1.01398 0.0
C523 C 0.52498 0.95078 0.98286 0.0
C524 C 0.56133 0.96267 0.94811 0.0
C525 C 0.56467 0.98807 0.94598 0.0
C526 C 0.53077 1.0014 0.97862 0.0
C527 C 0.49131 0.99028 1.01117 0.0
C528 C 0.4621 1.00909 0.04307 0.0
C529 C 0.38258 1.00944 0.03806 0.0
C530 C 0.48783 1.00466 0.09352 0.0
C531 C 0.49281 0.03224 0.02399 0.0
C532 C 0.53273 0.02735 0.98707 0.0
C533 C 0.56893 0.04563 0.96504 0.0
C534 C 0.562 0.06976 0.98006 0.0
C535 C 0.51866 0.0753 1.01635 0.0
C536 C 0.48448 0.05622 0.03891 0.0
H537 H 0.46388 0.06772 0.50176 0.0
H538 H 0.62653 0.06953 0.61055 0.0
H539 H 0.62829 0.02475 0.61344 0.0
H540 H 0.37486 1.01208 0.5463 0.0
H541 H 0.35441 1.00094 0.48877 0.0
H542 H 0.35996 0.03326 0.49916 0.0
H543 H 0.45022 0.03683 0.43657 0.0
H544 H 0.44628 1.00446 0.42681 0.0
H545 H 0.52818 0.01877 0.44191 0.0
H546 H 0.62483 0.98021 0.59755 0.0
H547 H 0.60109 0.93777 0.57226 0.0
H548 H 0.43867 0.96425 0.47586 0.0
C549 C 0.49771 0.05861 0.52731 0.0
C550 C 0.54476 0.07198 0.5561 0.0
C551 C 0.58989 0.05951 0.5883 0.0
C552 C 0.59158 0.03409 0.59011 0.0
C553 C 0.54733 0.0213 0.55974 0.0
C554 C 0.49998 0.03301 0.5297 0.0
C555 C 0.46024 0.01469 0.49967 0.0
C556 C 0.38277 0.01527 0.50905 0.0
C557 C 0.47197 0.01896 0.4482 0.0
C558 C 0.49391 0.99114 0.51688 0.0
C559 C 0.54431 0.99537 0.55132 0.0
C560 C 0.58467 0.97655 0.57108 0.0
C561 C 0.57149 0.95258 0.55623 0.0
C562 C 0.51805 0.9478 0.52238 0.0
C563 C 0.47957 0.9674 0.50214 0.0
H564 H 0.12239 0.29377 0.03087 0.0
H565 H 0.29373 0.34315 0.06427 0.0
H566 H 0.37447 0.30922 0.06634 0.0
H567 H 0.19076 0.2436 0.10495 0.0
H568 H 0.16316 0.21999 0.06506 0.0
H569 H 0.11542 0.24815 0.06655 0.0
H570 H 0.13069 0.25427 0.97912 0.0
H571 H 0.17853 0.22612 0.97751 0.0
H572 H 0.2165 0.25399 0.95769 0.0
H573 H 0.43991 0.27144 0.06184 0.0
H574 H 0.48586 0.22978 0.05524 0.0
H575 H 0.27669 0.20268 0.02787 0.0
C576 C 0.17671 0.29731 0.039 0.0
C577 C 0.20102 0.32139 0.04685 0.0
C578 C 0.27294 0.32512 0.0574 0.0
C579 C 0.31989 0.30588 0.05888 0.0
C580 C 0.29496 0.28261 0.05025 0.0
C581 C 0.22528 0.27799 0.04095 0.0
C582 C 0.21395 0.25084 0.03298 0.0
C583 C 0.1681 0.24001 0.06959 0.0
C584 C 0.18309 0.24603 0.9839 0.0
C585 C 0.28802 0.24135 0.03898 0.0
C586 C 0.33362 0.26015 0.04874 0.0
C587 C 0.40484 0.25642 0.05457 0.0
C588 C 0.43053 0.2327 0.05063 0.0
C589 C 0.38512 0.21294 0.04125 0.0
C590 C 0.31279 0.2174 0.03538 0.0
H591 H 0.75104 0.82054 0.97401 0.0
H592 H 0.57896 0.8 0.05603 0.0
H593 H 0.64015 0.76181 0.07881 0.0
H594 H 0.78435 0.75987 0.93162 0.0
H595 H 0.87682 0.7641 0.93264 0.0
H596 H 0.81992 0.78988 0.92397 0.0
H597 H 0.88272 0.81151 0.99361 0.0
H598 H 0.93897 0.78557 1.00296 0.0
H599 H 0.88848 0.79655 0.0491 0.0
H600 H 0.72105 0.72719 0.09515 0.0
H601 H 0.80545 0.69383 0.09272 0.0
H602 H 0.92395 0.73498 0.99624 0.0
C603 C 0.72596 0.80789 0.99648 0.0
C604 C 0.66014 0.81322 1.01339 0.0
C605 C 0.62891 0.79619 0.04244 0.0
C606 C 0.66371 0.77462 0.05595 0.0
C607 C 0.72931 0.77029 0.0397 0.0
C608 C 0.7595 0.78612 1.00972 0.0
C609 C 0.82879 0.77641 0.99526 0.0
C610 C 0.82735 0.77231 0.94276 0.0
C611 C 0.88824 0.79353 1.01118 0.0
C612 C 0.83271 0.75243 0.0216 0.0
C613 C 0.77528 0.74968 0.04774 0.0
C614 C 0.76593 0.7291 0.07468 0.0
C615 C 0.81446 0.71029 0.07317 0.0
C616 C 0.87133 0.7118 0.04433 0.0
C617 C 0.88186 0.73351 0.01927 0.0
H618 H 0.23357 0.71404 0.5637 0.0
H619 H 0.06961 0.72756 0.45881 0.0
H620 H 0.13269 0.76395 0.43282 0.0
H621 H 0.26908 0.77855 0.59076 0.0
H622 H 0.36067 0.77319 0.60032 0.0
H623 H 0.29996 0.74933 0.61172 0.0
H624 H 0.36403 0.72085 0.55699 0.0
H625 H 0.42354 0.74489 0.54422 0.0
H626 H 0.37394 0.73008 0.49798 0.0
H627 H 0.2179 0.7964 0.41421 0.0
H628 H 0.30706 0.82839 0.41398 0.0
H629 H 0.41551 0.79472 0.53242 0.0
C630 C 0.21007 0.72503 0.53599 0.0
C631 C 0.14641 0.71809 0.51336 0.0
C632 C 0.11761 0.73277 0.47707 0.0
C633 C 0.15363 0.75324 0.46169 0.0
C634 C 0.21788 0.75883 0.48333 0.0
C635 C 0.24495 0.74558 0.52055 0.0
C636 C 0.31446 0.75571 0.53823 0.0
C637 C 0.3108 0.76474 0.58822 0.0
C638 C 0.3724 0.73674 0.5341 0.0
C639 C 0.32271 0.77671 0.50486 0.0
C640 C 0.26672 0.77787 0.47311 0.0
C641 C 0.26169 0.79573 0.43901 0.0
C642 C 0.31305 0.81366 0.43887 0.0
C643 C 0.36864 0.81384 0.47278 0.0
C644 C 0.37474 0.79466 0.50534 0.0
H645 H 0.92534 0.29212 0.52024 0.0
H646 H 0.77318 0.33967 0.57849 0.0
H647 H 0.69224 0.30572 0.58271 0.0
H648 H 0.80799 0.25548 0.45211 0.0
H649 H 0.85074 0.2268 0.4644 0.0
H650 H 0.89983 0.25469 0.46639 0.0
H651 H 0.94393 0.24478 0.54999 0.0
H652 H 0.89452 0.21691 0.54881 0.0
H653 H 0.88248 0.23907 0.5934 0.0
H654 H 0.62266 0.26841 0.57476 0.0
H655 H 0.57434 0.22692 0.56623 0.0
H656 H 0.77119 0.20135 0.51936 0.0
C657 C 0.87546 0.29518 0.53449 0.0
C658 C 0.85494 0.31883 0.54764 0.0
C659 C 0.78927 0.32202 0.56648 0.0
C660 C 0.7428 0.30277 0.56941 0.0
C661 C 0.76286 0.28003 0.55438 0.0
C662 C 0.82801 0.27581 0.53839 0.0
C663 C 0.83551 0.24913 0.5255 0.0
C664 C 0.84932 0.24637 0.47404 0.0
C665 C 0.89252 0.23675 0.55626 0.0
C666 C 0.76417 0.2395 0.53592 0.0
C667 C 0.72311 0.25777 0.55216 0.0
C668 C 0.65445 0.25377 0.56264 0.0
C669 C 0.62724 0.23021 0.55738 0.0
C670 C 0.66894 0.21094 0.54239 0.0
C671 C 0.73818 0.21574 0.53123 0.0
H672 H 0.99397 0.36722 0.17905 0.0
H673 H 0.18553 0.40834 0.19421 0.0
H674 H 0.16659 0.41382 0.27732 0.0
H675 H 0.89668 0.40297 0.25613 0.0
H676 H 0.85184 0.37726 0.27926 0.0
H677 H 0.88049 0.37625 0.22117 0.0
H678 H 0.949 0.3366 0.24024 0.0
H679 H 0.91986 0.33729 0.2982 0.0
H680 H 1.01117 0.33604 0.28881 0.0
H681 H 0.12666 0.41502 0.35807 0.0
H682 H 0.07341 0.40956 0.43278 0.0
H683 H 0.90649 0.36785 0.36598 0.0
C684 C 0.03232 0.37729 0.19981 0.0
C685 C 0.0915 0.38736 0.17998 0.0
C686 C 0.14014 0.40036 0.20853 0.0
C687 C 0.12952 0.40368 0.25571 0.0
C688 C 0.07005 0.39387 0.27381 0.0
C689 C 0.02255 0.38075 0.24686 0.0
C690 C 0.96343 0.37178 0.27499 0.0
C691 C 0.894 0.38272 0.25679 0.0
C692 C 0.96074 0.34377 0.2756 0.0
C693 C 0.9851 0.38185 0.32224 0.0
C694 C 0.04666 0.39464 0.32051 0.0
C695 C 0.07844 0.40514 0.35972 0.0
C696 C 0.04766 0.40201 0.40193 0.0
C697 C 0.98554 0.38855 0.40491 0.0
C698 C 0.95314 0.37864 0.36441 0.0
H699 H 0.93829 0.66413 0.18299 0.0
H700 H 0.06495 0.60451 0.13835 0.0
H701 H 0.12079 0.60116 0.21705 0.0
H702 H 0.06836 0.69258 0.25285 0.0
H703 H 1.01246 0.70186 0.29742 0.0
H704 H 0.9777 0.69808 0.23904 0.0
H705 H 0.88673 0.6673 0.26648 0.0
H706 H 0.91981 0.67161 0.32509 0.0
H707 H 0.91508 0.6414 0.30092 0.0
H708 H 0.16613 0.6057 0.30153 0.0
H709 H 0.18642 0.61509 0.3851 0.0
H710 H 0.03496 0.67326 0.37103 0.0
C711 C 0.97592 0.64983 0.19042 0.0
C712 C 0.99591 0.63403 0.15535 0.0
C713 C 0.04769 0.61626 0.16545 0.0
C714 C 0.0802 0.61443 0.20982 0.0
C715 C 0.06094 0.63077 0.24355 0.0
C716 C 1.00934 0.64794 0.23443 0.0
C717 C 0.99948 0.66381 0.27609 0.0
C718 C 1.01547 0.69067 0.2657 0.0
C719 C 0.92594 0.66084 0.29316 0.0
C720 C 0.05338 0.65296 0.30995 0.0
C721 C 0.08863 0.63394 0.29084 0.0
C722 C 0.13899 0.62066 0.31677 0.0
C723 C 0.15106 0.62629 0.364 0.0
C724 C 0.11283 0.64501 0.38438 0.0
C725 C 0.06551 0.65896 0.35632 0.0
H726 H 0.05427 0.65986 0.88035 0.0
H727 H 0.83412 0.64393 0.86975 0.0
H728 H 0.83904 0.64169 0.7846 0.0
H729 H 0.06157 0.69669 0.77722 0.0
H730 H 0.14439 0.68473 0.76256 0.0
H731 H 0.12252 0.68617 0.82212 0.0
H732 H 0.14691 0.63993 0.83105 0.0
H733 H 0.16833 0.63827 0.77144 0.0
H734 H 0.10201 0.61877 0.79263 0.0
H735 H 0.86844 0.64095 0.7014 0.0
H736 H 0.91849 0.64142 0.62538 0.0
H737 H 0.12187 0.65612 0.68992 0.0
C738 C 1.00667 0.65619 0.86023 0.0
C739 C 0.9434 0.65231 0.88179 0.0
C740 C 0.88288 0.64715 0.85405 0.0
C741 C 0.88533 0.64579 0.80572 0.0
C742 C 0.9488 0.64942 0.78583 0.0
C743 C 1.00838 0.65448 0.81222 0.0
C744 C 0.07045 0.65691 0.78253 0.0
C745 C 0.10155 0.68266 0.78634 0.0
C746 C 0.12514 0.6373 0.79518 0.0
C747 C 0.03653 0.6525 0.73499 0.0
C748 C 0.96626 0.64832 0.73786 0.0
C749 C 0.92329 0.64419 0.69881 0.0
C750 C 0.95247 0.64455 0.6557 0.0
C751 C 0.02431 0.64887 0.65155 0.0
C752 C 0.06703 0.65263 0.69194 0.0
H753 H 1.00962 0.35569 0.68792 0.0
H754 H 0.88994 0.42251 0.67814 0.0
H755 H 0.92198 0.43112 0.76055 0.0
H756 H 0.96679 0.33977 0.8062 0.0
H757 H 0.05173 0.32736 0.81994 0.0
H758 H 1.01558 0.32635 0.76145 0.0
H759 H 0.12428 0.34859 0.73409 0.0
H760 H 0.1599 0.35029 0.79266 0.0
H761 H 0.14814 0.37771 0.75875 0.0
H762 H 0.97727 0.43407 0.84208 0.0
H763 H 0.03221 0.42753 0.92021 0.0
H764 H 0.11041 0.35764 0.87755 0.0
C765 C 0.98878 0.37187 0.70344 0.0
C766 C 0.94694 0.38841 0.67682 0.0
C767 C 0.92109 0.40944 0.69814 0.0
C768 C 0.93982 0.41459 0.74471 0.0
C769 C 0.98359 0.39834 0.76943 0.0
C770 C 1.00615 0.37707 0.74981 0.0
C771 C 0.05214 0.36244 0.78368 0.0
C772 C 1.01959 0.33751 0.79341 0.0
C773 C 0.12544 0.3596 0.76624 0.0
C774 C 0.05243 0.37883 0.82563 0.0
C775 C 1.01359 0.39967 0.81643 0.0
C776 C 1.00741 0.41778 0.84958 0.0
C777 C 0.03946 0.41406 0.89364 0.0
C778 C 0.07664 0.39237 0.90433 0.0
C779 C 0.08368 0.37463 0.86979 0.0
H780 H 0.4795 0.88165 0.1374 0.0
H781 H 0.70035 0.8964 0.14894 0.0
H782 H 0.69304 0.90108 0.23375 0.0
H783 H 0.4287 0.92397 0.22509 0.0
H784 H 0.36262 0.90397 0.24507 0.0
H785 H 0.38512 0.90303 0.18558 0.0
H786 H 0.4104 0.85678 0.19311 0.0
H787 H 0.38779 0.85751 0.2525 0.0
H788 H 0.4712 0.84605 0.23792 0.0
H789 H 0.66181 0.90161 0.3171 0.0
H790 H 0.61133 0.89763 0.39282 0.0
H791 H 0.40963 0.8832 0.32601 0.0
C792 C 0.52668 0.88598 0.15747 0.0
C793 C 0.59083 0.88859 0.13646 0.0
C794 C 0.65083 0.89431 0.16425 0.0
C795 C 0.64699 0.89706 0.21233 0.0
C796 C 0.58272 0.89422 0.2317 0.0
C797 C 0.52368 0.88886 0.20502 0.0
C798 C 0.46124 0.88586 0.23403 0.0
C799 C 0.40618 0.90538 0.2217 0.0
C800 C 0.43091 0.86001 0.22909 0.0
C801 C 0.4944 0.88993 0.28176 0.0
C802 C 0.56445 0.89485 0.27952 0.0
C803 C 0.60705 0.89799 0.31912 0.0
C804 C 0.57778 0.8956 0.36198 0.0
C805 C 0.50647 0.89013 0.36521 0.0
C806 C 0.46392 0.88776 0.32451 0.0
H807 H 0.41317 0.14787 0.20023 0.0
H808 H 0.6137 0.1291 0.14967 0.0
H809 H 0.66221 0.12529 0.22924 0.0
H810 H 0.47979 0.1846 0.29407 0.0
H811 H 0.41675 0.17511 0.33405 0.0
H812 H 0.39501 0.17484 0.27288 0.0
H813 H 0.3624 0.12915 0.27755 0.0
H814 H 0.38373 0.12933 0.33881 0.0
H815 H 0.42463 0.1077 0.3023 0.0
H816 H 0.69182 0.12478 0.31367 0.0
H817 H 0.69948 0.12773 0.39883 0.0
H818 H 0.48191 0.14765 0.39649 0.0
C819 C 0.4669 0.14263 0.20609 0.0
C820 C 0.50951 0.13882 0.16859 0.0
C821 C 0.57998 0.1323 0.17771 0.0
C822 C 0.6082 0.12999 0.22288 0.0
C823 C 0.56562 0.13431 0.25906 0.0
C824 C 0.49652 0.14048 0.25143 0.0
C825 C 0.46353 0.14508 0.29699 0.0
C826 C 0.43723 0.17148 0.29963 0.0
C827 C 0.40512 0.12672 0.30433 0.0
C828 C 0.52499 0.14069 0.33092 0.0
C829 C 0.58321 0.13436 0.30824 0.0
C830 C 0.6465 0.12965 0.33197 0.0
C831 C 0.65045 0.13141 0.38035 0.0
C832 C 0.59155 0.13794 0.40449 0.0
C833 C 0.52806 0.14262 0.37918 0.0
H834 H 0.44868 0.17799 0.87476 0.0
H835 H 0.44668 0.10074 0.90548 0.0
H836 H 0.49287 0.092 0.82924 0.0
H837 H 0.39753 0.17089 0.74807 0.0
H838 H 0.45068 0.19637 0.73299 0.0
H839 H 0.41134 0.19578 0.78793 0.0
H840 H 0.53256 0.20187 0.82863 0.0
H841 H 0.57263 0.20148 0.77399 0.0
H842 H 0.60045 0.18026 0.81881 0.0
H843 H 0.55684 0.09252 0.75497 0.0
H844 H 0.60513 0.10106 0.67908 0.0
H845 H 0.55499 0.17753 0.6932 0.0
C846 C 0.45478 0.1592 0.86435 0.0
C847 C 0.44246 0.13996 0.89533 0.0
C848 C 0.45353 0.11562 0.8815 0.0
C849 C 0.48092 0.11055 0.83861 0.0
C850 C 0.49552 0.13003 0.80963 0.0
C851 C 0.48018 0.1538 0.8211 0.0
C852 C 0.50045 0.17139 0.78368 0.0
C853 C 0.43618 0.18437 0.76186 0.0
C854 C 0.55474 0.18984 0.80243 0.0
C855 C 0.53134 0.15391 0.74998 0.0
C856 C 0.52924 0.13018 0.76599 0.0
C857 C 0.5578 0.11099 0.74183 0.0
C858 C 0.58619 0.11604 0.69919 0.0
C859 C 0.58481 0.13997 0.68092 0.0
C860 C 0.5577 0.15914 0.7069 0.0
H861 H 0.51975 0.84987 0.64252 0.0
H862 H 0.35043 0.90196 0.63499 0.0
H863 H 0.36736 0.90881 0.71935 0.0
H864 H 0.48902 0.8247 0.75705 0.0
H865 H 0.58037 0.82193 0.7719 0.0
H866 H 0.54886 0.81938 0.71254 0.0
H867 H 0.63277 0.85377 0.69048 0.0
H868 H 0.66326 0.85691 0.74992 0.0
H869 H 0.6284 0.88296 0.71857 0.0
H870 H 0.40945 0.91223 0.80283 0.0
H871 H 0.46477 0.90899 0.88134 0.0
H872 H 0.60978 0.85571 0.83334 0.0
C873 C 0.48498 0.86234 0.65865 0.0
C874 C 0.43345 0.87536 0.63218 0.0
C875 C 0.38952 0.89158 0.65465 0.0
C876 C 0.39931 0.89573 0.70242 0.0
C877 C 0.45303 0.88346 0.7269 0.0
C878 C 0.4944 0.86681 0.70588 0.0
C879 C 0.55031 0.85668 0.73927 0.0
C880 C 0.54158 0.82903 0.74557 0.0
C881 C 0.62297 0.86296 0.72361 0.0
C882 C 0.5345 0.87039 0.78265 0.0
C883 C 0.47818 0.88576 0.77466 0.0
C884 C 0.45335 0.90024 0.8094 0.0
C885 C 0.48539 0.89841 0.85369 0.0
C886 C 0.54193 0.88238 0.86287 0.0
C887 C 0.56759 0.86845 0.82681 0.0
loop_
_geom_bond_atom_site_label_1
_geom_bond_atom_site_label_2
_geom_bond_distance
_geom_bond_site_symmetry_2
_ccdc_geom_bond_type
Co0 N5 2.057 1_554 S
Co0 O17 2.021 . S
Co0 O20 2.062 . S
Co0 O24 2.117 1_654 S
Co0 O25 2.020 1_655 S
C1 O21 1.259 . S
C1 O24 1.258 . S
Co2 N11 2.057 . S
Co2 O18 2.117 . S
Co2 O19 2.020 . S
Co2 O21 2.021 1_554 S
Co2 O26 2.062 . S
C3 N5 1.316 1_554 S
C3 N6 1.347 1_554 S
C3 H8 0.931 . S
C4 N5 1.375 . S
C4 C7 1.350 . S
C4 H9 0.930 . S
N5 Co0 2.057 1_556 S
N5 C3 1.316 1_556 S
N5 C4 1.375 . S
N6 C3 1.347 1_556 S
N6 C7 1.373 . S
C7 C4 1.350 . S
C7 N6 1.373 . S
C7 H28 0.931 . S
H8 C3 0.931 . S
H9 C4 0.930 . S
C10 O17 1.259 1_455 S
C10 O18 1.258 . S
N11 Co2 2.057 . S
N11 C12 1.316 1_554 S
N11 C13 1.375 . S
C12 N11 1.316 1_556 S
C12 N14 1.347 1_556 S
C12 H23 0.931 . S
C13 N11 1.375 . S
C13 C15 1.350 . S
C13 H22 0.930 . S
N14 C12 1.347 1_554 S
N14 C15 1.373 . S
C15 C13 1.350 . S
C15 N14 1.373 . S
C15 H29 0.931 . S
C16 O19 1.256 . S
C16 O20 1.255 1_455 S
O17 Co0 2.021 . S
O17 C10 1.259 1_655 S
O18 Co2 2.117 . S
O18 C10 1.258 . S
O19 Co2 2.020 . S
O19 C16 1.256 . S
O20 Co0 2.062 . S
O20 C16 1.255 1_655 S
O21 C1 1.259 . S
O21 Co2 2.021 1_556 S
H22 C13 0.930 . S
H23 C12 0.931 . S
O24 Co0 2.117 1_456 S
O24 C1 1.258 . S
O25 Co0 2.020 1_455 S
O25 C27 1.256 . S
O26 Co2 2.062 . S
O26 C27 1.255 . S
C27 O25 1.256 . S
C27 O26 1.255 . S
H28 C7 0.931 . S
H29 C15 0.931 . S
Co30 N35 2.057 1_554 S
Co30 O47 2.021 . S
Co30 O50 2.062 . S
Co30 O54 2.117 1_554 S
Co30 O55 2.020 . S
C31 O51 1.259 1_655 S
C31 O54 1.258 . S
Co32 N41 2.057 . S
Co32 O48 2.117 1_455 S
Co32 O49 2.020 1_455 S
Co32 O51 2.021 1_554 S
Co32 O56 2.062 . S
C33 N35 1.316 1_554 S
C33 N36 1.347 1_554 S
C33 H38 0.931 . S
C34 N35 1.375 . S
C34 C37 1.350 . S
C34 H39 0.930 . S
N35 Co30 2.057 1_556 S
N35 C33 1.316 1_556 S
N35 C34 1.375 . S
N36 C33 1.347 1_556 S
N36 C37 1.373 . S
C37 C34 1.350 . S
C37 N36 1.373 . S
C37 H58 0.931 . S
H38 C33 0.931 . S
H39 C34 0.930 . S
C40 O47 1.259 . S
C40 O48 1.258 . S
N41 Co32 2.057 . S
N41 C42 1.316 1_554 S
N41 C43 1.375 . S
C42 N41 1.316 1_556 S
C42 N44 1.347 1_556 S
C42 H53 0.931 . S
C43 N41 1.375 . S
C43 C45 1.350 . S
C43 H52 0.930 . S
N44 C42 1.347 1_554 S
N44 C45 1.373 . S
C45 C43 1.350 . S
C45 N44 1.373 . S
C45 H59 0.931 . S
C46 O49 1.256 . S
C46 O50 1.255 . S
O47 Co30 2.021 . S
O47 C40 1.259 . S
O48 Co32 2.117 1_655 S
O48 C40 1.258 . S
O49 Co32 2.020 1_655 S
O49 C46 1.256 . S
O50 Co30 2.062 . S
O50 C46 1.255 . S
O51 C31 1.259 1_455 S
O51 Co32 2.021 1_556 S
H52 C43 0.930 . S
H53 C42 0.931 . S
O54 Co30 2.117 1_556 S
O54 C31 1.258 . S
O55 Co30 2.020 . S
O55 C57 1.256 . S
O56 Co32 2.062 . S
O56 C57 1.255 1_455 S
C57 O55 1.256 . S
C57 O56 1.255 1_655 S
H58 C37 0.931 . S
H59 C45 0.931 . S
Co60 N65 2.057 . S
Co60 O77 2.021 . S
Co60 O80 2.062 . S
Co60 O84 2.117 . S
Co60 O85 2.020 . S
C61 O81 1.259 1_455 S
C61 O84 1.258 . S
Co62 N71 2.057 . S
Co62 O78 2.117 1_655 S
Co62 O79 2.020 1_655 S
Co62 O81 2.021 . S
Co62 O86 2.062 . S
C63 N65 1.316 . S
C63 N66 1.347 . S
C63 H68 0.931 . S
C64 N65 1.375 . S
C64 C67 1.350 . S
C64 H69 0.930 . S
N65 Co60 2.057 . S
N65 C63 1.316 . S
N65 C64 1.375 . S
N66 C63 1.347 . S
N66 C67 1.373 . S
C67 C64 1.350 . S
C67 N66 1.373 . S
C67 H88 0.931 . S
H68 C63 0.931 . S
H69 C64 0.930 . S
C70 O77 1.259 . S
C70 O78 1.258 . S
N71 Co62 2.057 . S
N71 C72 1.316 . S
N71 C73 1.375 . S
C72 N71 1.316 . S
C72 N74 1.347 . S
C72 H83 0.931 . S
C73 N71 1.375 . S
C73 C75 1.350 . S
C73 H82 0.930 . S
N74 C72 1.347 . S
N74 C75 1.373 . S
C75 C73 1.350 . S
C75 N74 1.373 . S
C75 H89 0.931 . S
C76 O79 1.256 . S
C76 O80 1.255 . S
O77 Co60 2.021 . S
O77 C70 1.259 . S
O78 Co62 2.117 1_455 S
O78 C70 1.258 . S
O79 Co62 2.020 1_455 S
O79 C76 1.256 . S
O80 Co60 2.062 . S
O80 C76 1.255 . S
O81 C61 1.259 1_655 S
O81 Co62 2.021 . S
H82 C73 0.930 . S
H83 C72 0.931 . S
O84 Co60 2.117 . S
O84 C61 1.258 . S
O85 Co60 2.020 . S
O85 C87 1.256 . S
O86 Co62 2.062 . S
O86 C87 1.255 1_655 S
C87 O85 1.256 . S
C87 O86 1.255 1_455 S
H88 C67 0.931 . S
H89 C75 0.931 . S
Co90 N95 2.057 . S
Co90 O107 2.021 . S
Co90 O110 2.062 . S
Co90 O114 2.117 1_455 S
Co90 O115 2.020 1_455 S
C91 O111 1.259 . S
C91 O114 1.258 . S
Co92 N101 2.057 . S
Co92 O108 2.117 . S
Co92 O109 2.020 . S
Co92 O111 2.021 . S
Co92 O116 2.062 . S
C93 N95 1.316 . S
C93 N96 1.347 . S
C93 H98 0.931 . S
C94 N95 1.375 . S
C94 C97 1.350 . S
C94 H99 0.930 . S
N95 Co90 2.057 . S
N95 C93 1.316 . S
N95 C94 1.375 . S
N96 C93 1.347 . S
N96 C97 1.373 . S
C97 C94 1.350 . S
C97 N96 1.373 . S
C97 H118 0.931 . S
H98 C93 0.931 . S
H99 C94 0.930 . S
C100 O107 1.259 1_655 S
C100 O108 1.258 . S
N101 Co92 2.057 . S
N101 C102 1.316 . S
N101 C103 1.375 . S
C102 N101 1.316 . S
C102 N104 1.347 . S
C102 H113 0.931 . S
C103 N101 1.375 . S
C103 C105 1.350 . S
C103 H112 0.930 . S
N104 C102 1.347 . S
N104 C105 1.373 . S
C105 C103 1.350 . S
C105 N104 1.373 . S
C105 H119 0.931 . S
C106 O109 1.256 . S
C106 O110 1.255 1_655 S
O107 Co90 2.021 . S
O107 C100 1.259 1_455 S
O108 Co92 2.117 . S
O108 C100 1.258 . S
O109 Co92 2.020 . S
O109 C106 1.256 . S
O110 Co90 2.062 . S
O110 C106 1.255 1_455 S
O111 C91 1.259 . S
O111 Co92 2.021 . S
H112 C103 0.930 . S
H113 C102 0.931 . S
O114 Co90 2.117 1_655 S
O114 C91 1.258 . S
O115 Co90 2.020 1_655 S
O115 C117 1.256 . S
O116 Co92 2.062 . S
O116 C117 1.255 . S
C117 O115 1.256 . S
C117 O116 1.255 . S
H118 C97 0.931 . S
H119 C105 0.931 . S
Co120 N125 2.057 1_554 S
Co120 O137 2.021 . S
Co120 O140 2.062 . S
Co120 O144 2.117 1_554 S
Co120 O145 2.020 . S
C121 O141 1.259 . S
C121 O144 1.258 . S
Co122 N131 2.057 . S
Co122 O138 2.117 . S
Co122 O139 2.020 . S
Co122 O141 2.021 1_554 S
Co122 O146 2.062 . S
C123 N125 1.316 1_554 S
C123 N126 1.347 1_554 S
C123 H128 0.931 . S
C124 N125 1.375 . S
C124 C127 1.350 . S
C124 H129 0.930 . S
N125 Co120 2.057 1_556 S
N125 C123 1.316 1_556 S
N125 C124 1.375 . S
N126 C123 1.347 1_556 S
N126 C127 1.373 . S
C127 C124 1.350 . S
C127 N126 1.373 . S
C127 H148 0.931 . S
H128 C123 0.931 . S
H129 C124 0.930 . S
C130 O137 1.259 . S
C130 O138 1.258 . S
N131 Co122 2.057 . S
N131 C132 1.316 1_554 S
N131 C133 1.375 . S
C132 N131 1.316 1_556 S
C132 N134 1.347 1_556 S
C132 H143 0.931 . S
C133 N131 1.375 . S
C133 C135 1.350 . S
C133 H142 0.930 . S
N134 C132 1.347 1_554 S
N134 C135 1.373 . S
C135 C133 1.350 . S
C135 N134 1.373 . S
C135 H149 0.931 . S
C136 O139 1.256 . S
C136 O140 1.255 . S
O137 Co120 2.021 . S
O137 C130 1.259 . S
O138 Co122 2.117 . S
O138 C130 1.258 . S
O139 Co122 2.020 . S
O139 C136 1.256 . S
O140 Co120 2.062 . S
O140 C136 1.255 . S
O141 C121 1.259 . S
O141 Co122 2.021 1_556 S
H142 C133 0.930 . S
H143 C132 0.931 . S
O144 Co120 2.117 1_556 S
O144 C121 1.258 . S
O145 Co120 2.020 . S
O145 C147 1.256 . S
O146 Co122 2.062 . S
O146 C147 1.255 . S
C147 O145 1.256 . S
C147 O146 1.255 . S
H148 C127 0.931 . S
H149 C135 0.931 . S
Co150 N155 2.057 1_554 S
Co150 O167 2.021 . S
Co150 O170 2.062 . S
Co150 O174 2.117 1_554 S
Co150 O175 2.020 . S
C151 O171 1.259 . S
C151 O174 1.258 . S
Co152 N161 2.057 . S
Co152 O168 2.117 . S
Co152 O169 2.020 . S
Co152 O171 2.021 1_554 S
Co152 O176 2.062 . S
C153 N155 1.316 1_554 S
C153 N156 1.347 1_554 S
C153 H158 0.931 . S
C154 N155 1.375 . S
C154 C157 1.350 . S
C154 H159 0.930 . S
N155 Co150 2.057 1_556 S
N155 C153 1.316 1_556 S
N155 C154 1.375 . S
N156 C153 1.347 1_556 S
N156 C157 1.373 . S
C157 C154 1.350 . S
C157 N156 1.373 . S
C157 H178 0.931 . S
H158 C153 0.931 . S
H159 C154 0.930 . S
C160 O167 1.259 . S
C160 O168 1.258 . S
N161 Co152 2.057 . S
N161 C162 1.316 1_554 S
N161 C163 1.375 . S
C162 N161 1.316 1_556 S
C162 N164 1.347 1_556 S
C162 H173 0.931 . S
C163 N161 1.375 . S
C163 C165 1.350 . S
C163 H172 0.930 . S
N164 C162 1.347 1_554 S
N164 C165 1.373 . S
C165 C163 1.350 . S
C165 N164 1.373 . S
C165 H179 0.931 . S
C166 O169 1.256 . S
C166 O170 1.255 . S
O167 Co150 2.021 . S
O167 C160 1.259 . S
O168 Co152 2.117 . S
O168 C160 1.258 . S
O169 Co152 2.020 . S
O169 C166 1.256 . S
O170 Co150 2.062 . S
O170 C166 1.255 . S
O171 C151 1.259 . S
O171 Co152 2.021 1_556 S
H172 C163 0.930 . S
H173 C162 0.931 . S
O174 Co150 2.117 1_556 S
O174 C151 1.258 . S
O175 Co150 2.020 . S
O175 C177 1.256 . S
O176 Co152 2.062 . S
O176 C177 1.255 . S
C177 O175 1.256 . S
C177 O176 1.255 . S
H178 C157 0.931 . S
H179 C165 0.931 . S
Co180 N185 2.057 . S
Co180 O197 2.021 . S
Co180 O200 2.062 . S
Co180 O204 2.117 . S
Co180 O205 2.020 . S
C181 O201 1.259 . S
C181 O204 1.258 . S
Co182 N191 2.057 . S
Co182 O198 2.117 . S
Co182 O199 2.020 . S
Co182 O201 2.021 . S
Co182 O206 2.062 . S
C183 N185 1.316 . S
C183 N186 1.347 . S
C183 H188 0.931 . S
C184 N185 1.375 . S
C184 C187 1.350 . S
C184 H189 0.930 . S
N185 Co180 2.057 . S
N185 C183 1.316 . S
N185 C184 1.375 . S
N186 C183 1.347 . S
N186 C187 1.373 . S
C187 C184 1.350 . S
C187 N186 1.373 . S
C187 H208 0.931 . S
H188 C183 0.931 . S
H189 C184 0.930 . S
C190 O197 1.259 . S
C190 O198 1.258 . S
N191 Co182 2.057 . S
N191 C192 1.316 . S
N191 C193 1.375 . S
C192 N191 1.316 . S
C192 N194 1.347 . S
C192 H203 0.931 . S
C193 N191 1.375 . S
C193 C195 1.350 . S
C193 H202 0.930 . S
N194 C192 1.347 . S
N194 C195 1.373 . S
C195 C193 1.350 . S
C195 N194 1.373 . S
C195 H209 0.931 . S
C196 O199 1.256 . S
C196 O200 1.255 . S
O197 Co180 2.021 . S
O197 C190 1.259 . S
O198 Co182 2.117 . S
O198 C190 1.258 . S
O199 Co182 2.020 . S
O199 C196 1.256 . S
O200 Co180 2.062 . S
O200 C196 1.255 . S
O201 C181 1.259 . S
O201 Co182 2.021 . S
H202 C193 0.930 . S
H203 C192 0.931 . S
O204 Co180 2.117 . S
O204 C181 1.258 . S
O205 Co180 2.020 . S
O205 C207 1.256 . S
O206 Co182 2.062 . S
O206 C207 1.255 . S
C207 O205 1.256 . S
C207 O206 1.255 . S
H208 C187 0.931 . S
H209 C195 0.931 . S
Co210 N215 2.057 . S
Co210 O227 2.021 . S
Co210 O230 2.062 . S
Co210 O234 2.117 . S
Co210 O235 2.020 . S
C211 O231 1.259 . S
C211 O234 1.258 . S
Co212 N221 2.057 . S
Co212 O228 2.117 . S
Co212 O229 2.020 . S
Co212 O231 2.021 . S
Co212 O236 2.062 . S
C213 N215 1.316 . S
C213 N216 1.347 . S
C213 H218 0.931 . S
C214 N215 1.375 . S
C214 C217 1.350 . S
C214 H219 0.930 . S
N215 Co210 2.057 . S
N215 C213 1.316 . S
N215 C214 1.375 . S
N216 C213 1.347 . S
N216 C217 1.373 . S
C217 C214 1.350 . S
C217 N216 1.373 . S
C217 H238 0.931 . S
H218 C213 0.931 . S
H219 C214 0.930 . S
C220 O227 1.259 . S
C220 O228 1.258 . S
N221 Co212 2.057 . S
N221 C222 1.316 . S
N221 C223 1.375 . S
C222 N221 1.316 . S
C222 N224 1.347 . S
C222 H233 0.931 . S
C223 N221 1.375 . S
C223 C225 1.350 . S
C223 H232 0.930 . S
N224 C222 1.347 . S
N224 C225 1.373 . S
C225 C223 1.350 . S
C225 N224 1.373 . S
C225 H239 0.931 . S
C226 O229 1.256 . S
C226 O230 1.255 . S
O227 Co210 2.021 . S
O227 C220 1.259 . S
O228 Co212 2.117 . S
O228 C220 1.258 . S
O229 Co212 2.020 . S
O229 C226 1.256 . S
O230 Co210 2.062 . S
O230 C226 1.255 . S
O231 C211 1.259 . S
O231 Co212 2.021 . S
H232 C223 0.930 . S
H233 C222 0.931 . S
O234 Co210 2.117 . S
O234 C211 1.258 . S
O235 Co210 2.020 . S
O235 C237 1.256 . S
O236 Co212 2.062 . S
O236 C237 1.255 . S
C237 O235 1.256 . S
C237 O236 1.255 . S
H238 C217 0.931 . S
H239 C225 0.931 . S
H240 C252 0.930 . S
H241 C254 0.930 . S
H242 C255 0.930 . S
H243 C259 0.959 . S
H244 C259 0.959 . S
H245 C259 0.961 . S
H246 C260 0.960 . S
H247 C260 0.961 . S
H248 C260 0.959 . S
H249 C263 0.929 . S
H250 C264 0.931 . S
H251 C266 0.930 . S
C252 H240 0.930 . S
C252 C253 1.399 . S
C252 C257 1.399 . S
C253 C252 1.399 . S
C253 C254 1.376 1_554 S
C254 H241 0.930 . S
C254 C253 1.376 1_556 S
C254 C255 1.388 . S
C255 H242 0.930 . S
C255 C254 1.388 . S
C255 C256 1.390 . S
C256 C255 1.390 . S
C256 C257 1.394 1_556 S
C256 C262 1.465 . S
C257 C252 1.399 . S
C257 C256 1.394 1_554 S
C257 C258 1.516 . S
C258 C257 1.516 . S
C258 C259 1.502 . S
C258 C260 1.561 . S
C258 C261 1.526 . S
C259 H243 0.959 . S
C259 H244 0.959 . S
C259 H245 0.961 . S
C259 C258 1.502 . S
C260 H246 0.960 . S
C260 H247 0.961 . S
C260 H248 0.959 . S
C260 C258 1.561 . S
C261 C258 1.526 . S
C261 C262 1.396 1_554 S
C261 C266 1.390 . S
C262 C256 1.465 . S
C262 C261 1.396 1_556 S
C262 C263 1.399 . S
C263 H249 0.929 . S
C263 C262 1.399 . S
C263 C264 1.385 . S
C264 H250 0.931 . S
C264 C263 1.385 . S
C264 C265 1.389 1_556 S
C265 C264 1.389 1_554 S
C265 C266 1.387 . S
C266 H251 0.930 . S
C266 C261 1.390 . S
C266 C265 1.387 . S
H267 C279 0.930 . S
H268 C281 0.930 . S
H269 C282 0.930 . S
H270 C286 0.959 . S
H271 C286 0.959 . S
H272 C286 0.961 . S
H273 C287 0.960 . S
H274 C287 0.961 . S
H275 C287 0.959 . S
H276 C290 0.929 . S
H277 C291 0.931 . S
H278 C293 0.930 . S
C279 H267 0.930 . S
C279 C280 1.399 1_556 S
C279 C284 1.399 . S
C280 C279 1.399 1_554 S
C280 C281 1.376 . S
C281 H268 0.930 . S
C281 C280 1.376 . S
C281 C282 1.388 . S
C282 H269 0.930 . S
C282 C281 1.388 . S
C282 C283 1.390 . S
C283 C282 1.390 . S
C283 C284 1.394 1_554 S
C283 C289 1.465 . S
C284 C279 1.399 . S
C284 C283 1.394 1_556 S
C284 C285 1.516 . S
C285 C284 1.516 . S
C285 C286 1.502 . S
C285 C287 1.561 . S
C285 C288 1.526 . S
C286 H270 0.959 . S
C286 H271 0.959 . S
C286 H272 0.961 . S
C286 C285 1.502 . S
C287 H273 0.960 . S
C287 H274 0.961 . S
C287 H275 0.959 . S
C287 C285 1.561 . S
C288 C285 1.526 . S
C288 C289 1.396 1_556 S
C288 C293 1.390 . S
C289 C283 1.465 . S
C289 C288 1.396 1_554 S
C289 C290 1.399 . S
C290 H276 0.929 . S
C290 C289 1.399 . S
C290 C291 1.385 . S
C291 H277 0.931 . S
C291 C290 1.385 . S
C291 C292 1.389 . S
C292 C291 1.389 . S
C292 C293 1.387 1_554 S
C293 H278 0.930 . S
C293 C288 1.390 . S
C293 C292 1.387 1_556 S
H294 C306 0.930 . S
H295 C308 0.930 . S
H296 C309 0.930 . S
H297 C313 0.959 . S
H298 C313 0.959 . S
H299 C313 0.961 . S
H300 C314 0.960 . S
H301 C314 0.961 . S
H302 C314 0.959 . S
H303 C317 0.929 . S
H304 C318 0.931 . S
H305 C320 0.930 . S
C306 H294 0.930 . S
C306 C307 1.399 . S
C306 C311 1.399 . S
C307 C306 1.399 . S
C307 C308 1.376 . S
C308 H295 0.930 . S
C308 C307 1.376 . S
C308 C309 1.388 . S
C309 H296 0.930 . S
C309 C308 1.388 . S
C309 C310 1.390 . S
C310 C309 1.390 . S
C310 C311 1.394 . S
C310 C316 1.465 . S
C311 C306 1.399 . S
C311 C310 1.394 . S
C311 C312 1.516 . S
C312 C311 1.516 . S
C312 C313 1.502 . S
C312 C314 1.561 . S
C312 C315 1.526 . S
C313 H297 0.959 . S
C313 H298 0.959 . S
C313 H299 0.961 . S
C313 C312 1.502 . S
C314 H300 0.960 . S
C314 H301 0.961 . S
C314 H302 0.959 . S
C314 C312 1.561 . S
C315 C312 1.526 . S
C315 C316 1.396 . S
C315 C320 1.390 . S
C316 C310 1.465 . S
C316 C315 1.396 . S
C316 C317 1.399 . S
C317 H303 0.929 . S
C317 C316 1.399 . S
C317 C318 1.385 . S
C318 H304 0.931 . S
C318 C317 1.385 . S
C318 C319 1.389 . S
C319 C318 1.389 . S
C319 C320 1.387 . S
C320 H305 0.930 . S
C320 C315 1.390 . S
C320 C319 1.387 . S
H321 C333 0.930 . S
H322 C335 0.930 . S
H323 C336 0.930 . S
H324 C340 0.959 . S
H325 C340 0.959 . S
H326 C340 0.961 . S
H327 C341 0.960 . S
H328 C341 0.961 . S
H329 C341 0.959 . S
H330 C344 0.929 . S
H331 C345 0.931 . S
H332 C347 0.930 . S
C333 H321 0.930 . S
C333 C334 1.399 . S
C333 C338 1.399 . S
C334 C333 1.399 . S
C334 C335 1.376 . S
C335 H322 0.930 . S
C335 C334 1.376 . S
C335 C336 1.388 . S
C336 H323 0.930 . S
C336 C335 1.388 . S
C336 C337 1.390 . S
C337 C336 1.390 . S
C337 C338 1.394 . S
C337 C343 1.465 . S
C338 C333 1.399 . S
C338 C337 1.394 . S
C338 C339 1.516 . S
C339 C338 1.516 . S
C339 C340 1.502 . S
C339 C341 1.561 . S
C339 C342 1.526 . S
C340 H324 0.959 . S
C340 H325 0.959 . S
C340 H326 0.961 . S
C340 C339 1.502 . S
C341 H327 0.960 . S
C341 H328 0.961 . S
C341 H329 0.959 . S
C341 C339 1.561 . S
C342 C339 1.526 . S
C342 C343 1.396 . S
C342 C347 1.390 . S
C343 C337 1.465 . S
C343 C342 1.396 . S
C343 C344 1.399 . S
C344 H330 0.929 . S
C344 C343 1.399 . S
C344 C345 1.385 . S
C345 H331 0.931 . S
C345 C344 1.385 . S
C345 C346 1.389 . S
C346 C345 1.389 . S
C346 C347 1.387 . S
C347 H332 0.930 . S
C347 C342 1.390 . S
C347 C346 1.387 . S
H348 C360 0.930 . S
H349 C362 0.930 . S
H350 C363 0.930 1_455 S
H351 C367 0.959 . S
H352 C367 0.959 . S
H353 C367 0.961 . S
H354 C368 0.960 . S
H355 C368 0.961 . S
H356 C368 0.959 . S
H357 C371 0.929 . S
H358 C372 0.931 . S
H359 C374 0.930 . S
C360 H348 0.930 . S
C360 C361 1.399 1_556 S
C360 C365 1.399 1_655 S
C361 C360 1.399 1_554 S
C361 C362 1.376 . S
C362 H349 0.930 . S
C362 C361 1.376 . S
C362 C363 1.388 . S
C363 H350 0.930 1_655 S
C363 C362 1.388 . S
C363 C364 1.390 1_655 S
C364 C363 1.390 1_455 S
C364 C365 1.394 1_554 S
C364 C370 1.465 . S
C365 C360 1.399 1_455 S
C365 C364 1.394 1_556 S
C365 C366 1.516 . S
C366 C365 1.516 . S
C366 C367 1.502 . S
C366 C368 1.561 . S
C366 C369 1.526 . S
C367 H351 0.959 . S
C367 H352 0.959 . S
C367 H353 0.961 . S
C367 C366 1.502 . S
C368 H354 0.960 . S
C368 H355 0.961 . S
C368 H356 0.959 . S
C368 C366 1.561 . S
C369 C366 1.526 . S
C369 C370 1.396 1_556 S
C369 C374 1.390 . S
C370 C364 1.465 . S
C370 C369 1.396 1_554 S
C370 C371 1.399 . S
C371 H357 0.929 . S
C371 C370 1.399 . S
C371 C372 1.385 . S
C372 H358 0.931 . S
C372 C371 1.385 . S
C372 C373 1.389 . S
C373 C372 1.389 . S
C373 C374 1.387 1_554 S
C374 H359 0.930 . S
C374 C369 1.390 . S
C374 C373 1.387 1_556 S
H375 C387 0.930 . S
H376 C389 0.930 . S
H377 C390 0.930 . S
H378 C394 0.959 . S
H379 C394 0.959 . S
H380 C394 0.961 . S
H381 C395 0.960 . S
H382 C395 0.961 . S
H383 C395 0.959 . S
H384 C398 0.929 . S
H385 C399 0.931 . S
H386 C401 0.930 . S
C387 H375 0.930 . S
C387 C388 1.399 1_556 S
C387 C392 1.399 1_455 S
C388 C387 1.399 1_554 S
C388 C389 1.376 . S
C389 H376 0.930 . S
C389 C388 1.376 . S
C389 C390 1.388 . S
C390 H377 0.930 . S
C390 C389 1.388 . S
C390 C391 1.390 1_455 S
C391 C390 1.390 1_655 S
C391 C392 1.394 1_554 S
C391 C397 1.465 . S
C392 C387 1.399 1_655 S
C392 C391 1.394 1_556 S
C392 C393 1.516 . S
C393 C392 1.516 . S
C393 C394 1.502 . S
C393 C395 1.561 . S
C393 C396 1.526 . S
C394 H378 0.959 . S
C394 H379 0.959 . S
C394 H380 0.961 . S
C394 C393 1.502 . S
C395 H381 0.960 . S
C395 H382 0.961 . S
C395 H383 0.959 . S
C395 C393 1.561 . S
C396 C393 1.526 . S
C396 C397 1.396 1_556 S
C396 C401 1.390 . S
C397 C391 1.465 . S
C397 C396 1.396 1_554 S
C397 C398 1.399 . S
C398 H384 0.929 . S
C398 C397 1.399 . S
C398 C399 1.385 . S
C399 H385 0.931 . S
C399 C398 1.385 . S
C399 C400 1.389 . S
C400 C399 1.389 . S
C400 C401 1.387 1_554 S
C401 H386 0.930 . S
C401 C396 1.390 . S
C401 C400 1.387 1_556 S
H402 C414 0.930 . S
H403 C416 0.930 . S
H404 C417 0.930 . S
H405 C421 0.959 . S
H406 C421 0.959 . S
H407 C421 0.961 . S
H408 C422 0.960 . S
H409 C422 0.961 . S
H410 C422 0.959 . S
H411 C425 0.929 1_455 S
H412 C426 0.931 . S
H413 C428 0.930 . S
C414 H402 0.930 . S
C414 C415 1.399 . S
C414 C419 1.399 . S
C415 C414 1.399 . S
C415 C416 1.376 . S
C416 H403 0.930 . S
C416 C415 1.376 . S
C416 C417 1.388 . S
C417 H404 0.930 . S
C417 C416 1.388 . S
C417 C418 1.390 . S
C418 C417 1.390 . S
C418 C419 1.394 . S
C418 C424 1.465 . S
C419 C414 1.399 . S
C419 C418 1.394 . S
C419 C420 1.516 . S
C420 C419 1.516 . S
C420 C421 1.502 . S
C420 C422 1.561 . S
C420 C423 1.537 . S
C421 H405 0.959 . S
C421 H406 0.959 . S
C421 H407 0.961 . S
C421 C420 1.502 . S
C422 H408 0.960 . S
C422 H409 0.961 . S
C422 H410 0.959 . S
C422 C420 1.561 . S
C423 C420 1.537 . S
C423 C424 1.401 . S
C423 C428 1.375 1_455 S
C424 C418 1.465 . S
C424 C423 1.401 . S
C424 C425 1.399 1_455 S
C425 H411 0.929 1_655 S
C425 C424 1.399 1_655 S
C425 C426 1.385 . S
C426 H412 0.931 . S
C426 C425 1.385 . S
C426 C427 1.389 . S
C427 C426 1.389 . S
C427 C428 1.387 . S
C428 H413 0.930 . S
C428 C423 1.375 1_655 S
C428 C427 1.387 . S
H429 C441 0.930 . S
H430 C443 0.930 . S
H431 C444 0.930 . S
H432 C448 0.959 . S
H433 C448 0.959 . S
H434 C448 0.961 . S
H435 C449 0.960 . S
H436 C449 0.961 . S
H437 C449 0.959 . S
H438 C452 0.929 . S
H439 C453 0.931 . S
H440 C455 0.930 . S
C441 H429 0.930 . S
C441 C442 1.399 . S
C441 C446 1.399 . S
C442 C441 1.399 . S
C442 C443 1.376 . S
C443 H430 0.930 . S
C443 C442 1.376 . S
C443 C444 1.388 . S
C444 H431 0.930 . S
C444 C443 1.388 . S
C444 C445 1.390 . S
C445 C444 1.390 . S
C445 C446 1.394 . S
C445 C451 1.465 . S
C446 C441 1.399 . S
C446 C445 1.394 . S
C446 C447 1.516 . S
C447 C446 1.516 . S
C447 C448 1.502 . S
C447 C449 1.561 . S
C447 C450 1.526 . S
C448 H432 0.959 . S
C448 H433 0.959 . S
C448 H434 0.961 . S
C448 C447 1.502 . S
C449 H435 0.960 . S
C449 H436 0.961 . S
C449 H437 0.959 . S
C449 C447 1.561 . S
C450 C447 1.526 . S
C450 C451 1.396 . S
C450 C455 1.390 1_655 S
C451 C445 1.465 . S
C451 C450 1.396 . S
C451 C452 1.399 1_655 S
C452 H438 0.929 . S
C452 C451 1.399 1_455 S
C452 C453 1.385 . S
C453 H439 0.931 . S
C453 C452 1.385 . S
C453 C454 1.389 . S
C454 C453 1.389 . S
C454 C455 1.387 . S
C455 H440 0.930 . S
C455 C450 1.390 1_455 S
C455 C454 1.387 . S
H456 C468 0.930 . S
H457 C470 0.930 . S
H458 C471 0.930 . S
H459 C475 0.959 . S
H460 C475 0.959 . S
H461 C475 0.961 . S
H462 C476 0.960 . S
H463 C476 0.961 . S
H464 C476 0.959 1_655 S
H465 C479 0.929 . S
H466 C480 0.931 . S
H467 C482 0.930 . S
C468 H456 0.930 . S
C468 C469 1.399 1_455 S
C468 C473 1.399 . S
C469 C468 1.399 1_655 S
C469 C470 1.376 1_554 S
C470 H457 0.930 . S
C470 C469 1.376 1_556 S
C470 C471 1.388 . S
C471 H458 0.930 . S
C471 C470 1.388 . S
C471 C472 1.390 . S
C472 C471 1.390 . S
C472 C473 1.394 1_656 S
C472 C478 1.465 . S
C473 C468 1.399 . S
C473 C472 1.394 1_454 S
C473 C474 1.516 . S
C474 C473 1.516 . S
C474 C475 1.502 . S
C474 C476 1.561 . S
C474 C477 1.526 . S
C475 H459 0.959 . S
C475 H460 0.959 . S
C475 H461 0.961 . S
C475 C474 1.502 . S
C476 H462 0.960 . S
C476 H463 0.961 . S
C476 H464 0.959 1_455 S
C476 C474 1.561 . S
C477 C474 1.526 . S
C477 C478 1.396 1_454 S
C477 C482 1.390 . S
C478 C472 1.465 . S
C478 C477 1.396 1_656 S
C478 C479 1.399 . S
C479 H465 0.929 . S
C479 C478 1.399 . S
C479 C480 1.385 . S
C480 H466 0.931 . S
C480 C479 1.385 . S
C480 C481 1.389 1_656 S
C481 C480 1.389 1_454 S
C481 C482 1.387 . S
C482 H467 0.930 . S
C482 C477 1.390 . S
C482 C481 1.387 . S
H483 C495 0.930 . S
H484 C497 0.930 . S
H485 C498 0.930 . S
H486 C502 0.959 . S
H487 C502 0.959 . S
H488 C502 0.961 . S
H489 C503 0.960 . S
H490 C503 0.961 . S
H491 C503 0.959 . S
H492 C506 0.929 . S
H493 C507 0.931 . S
H494 C509 0.930 . S
C495 H483 0.930 . S
C495 C496 1.399 . S
C495 C500 1.399 . S
C496 C495 1.399 . S
C496 C497 1.376 1_655 S
C497 H484 0.930 . S
C497 C496 1.376 1_455 S
C497 C498 1.388 . S
C498 H485 0.930 . S
C498 C497 1.388 . S
C498 C499 1.390 . S
C499 C498 1.390 . S
C499 C500 1.394 1_455 S
C499 C505 1.465 . S
C500 C495 1.399 . S
C500 C499 1.394 1_655 S
C500 C501 1.516 . S
C501 C500 1.516 . S
C501 C502 1.502 . S
C501 C503 1.561 1_655 S
C501 C504 1.526 1_655 S
C502 H486 0.959 . S
C502 H487 0.959 . S
C502 H488 0.961 . S
C502 C501 1.502 . S
C503 H489 0.960 . S
C503 H490 0.961 . S
C503 H491 0.959 . S
C503 C501 1.561 1_455 S
C504 C501 1.526 1_455 S
C504 C505 1.396 . S
C504 C509 1.390 . S
C505 C499 1.465 . S
C505 C504 1.396 . S
C505 C506 1.399 . S
C506 H492 0.929 . S
C506 C505 1.399 . S
C506 C507 1.385 . S
C507 H493 0.931 . S
C507 C506 1.385 . S
C507 C508 1.389 . S
C508 C507 1.389 . S
C508 C509 1.387 . S
C509 H494 0.930 . S
C509 C504 1.390 . S
C509 C508 1.387 . S
H510 C522 0.930 . S
H511 C524 0.930 . S
H512 C525 0.930 . S
H513 C529 0.959 1_556 S
H514 C529 0.959 1_545 S
H515 C529 0.961 . S
H516 C530 0.960 . S
H517 C530 0.961 1_545 S
H518 C530 0.959 1_545 S
H519 C533 0.929 . S
H520 C534 0.931 . S
H521 C536 0.930 . S
C522 H510 0.930 . S
C522 C523 1.399 . S
C522 C527 1.399 . S
C523 C522 1.399 . S
C523 C524 1.376 1_554 S
C524 H511 0.930 . S
C524 C523 1.376 1_556 S
C524 C525 1.388 . S
C525 H512 0.930 . S
C525 C524 1.388 . S
C525 C526 1.390 1_556 S
C526 C525 1.390 1_554 S
C526 C527 1.394 . S
C526 C532 1.466 1_565 S
C527 C522 1.399 . S
C527 C526 1.394 . S
C527 C528 1.516 . S
C528 C527 1.516 . S
C528 C529 1.502 . S
C528 C530 1.561 . S
C528 C531 1.526 1_565 S
C529 H513 0.959 1_554 S
C529 H514 0.959 1_565 S
C529 H515 0.961 . S
C529 C528 1.502 . S
C530 H516 0.960 . S
C530 H517 0.961 1_565 S
C530 H518 0.959 1_565 S
C530 C528 1.561 . S
C531 C528 1.526 1_545 S
C531 C532 1.402 . S
C531 C536 1.390 . S
C532 C526 1.466 1_545 S
C532 C531 1.402 . S
C532 C533 1.394 1_554 S
C533 H519 0.929 . S
C533 C532 1.394 1_556 S
C533 C534 1.385 . S
C534 H520 0.931 . S
C534 C533 1.385 . S
C534 C535 1.389 1_556 S
C535 C534 1.389 1_554 S
C535 C536 1.387 . S
C536 H521 0.930 . S
C536 C531 1.390 . S
C536 C535 1.387 . S
H537 C549 0.930 . S
H538 C551 0.930 . S
H539 C552 0.930 . S
H540 C556 0.959 . S
H541 C556 0.959 1_565 S
H542 C556 0.961 . S
H543 C557 0.972 . S
H544 C557 0.951 1_565 S
H545 C557 0.956 1_565 S
H546 C560 0.929 . S
H547 C561 0.931 . S
H548 C563 0.930 . S
C549 H537 0.930 . S
C549 C550 1.399 . S
C549 C554 1.399 . S
C550 C549 1.399 . S
C550 C551 1.376 . S
C551 H538 0.930 . S
C551 C550 1.376 . S
C551 C552 1.388 . S
C552 H539 0.930 . S
C552 C551 1.388 . S
C552 C553 1.390 . S
C553 C552 1.390 . S
C553 C554 1.394 . S
C553 C559 1.465 1_545 S
C554 C549 1.399 . S
C554 C553 1.394 . S
C554 C555 1.516 . S
C555 C554 1.516 . S
C555 C556 1.502 . S
C555 C557 1.562 . S
C555 C558 1.526 1_545 S
C556 H540 0.959 . S
C556 H541 0.959 1_545 S
C556 H542 0.961 . S
C556 C555 1.502 . S
C557 H543 0.972 . S
C557 H544 0.951 1_545 S
C557 H545 0.956 1_545 S
C557 C555 1.562 . S
C558 C555 1.526 1_565 S
C558 C559 1.396 . S
C558 C563 1.390 . S
C559 C553 1.465 1_565 S
C559 C558 1.396 . S
C559 C560 1.399 . S
C560 H546 0.929 . S
C560 C559 1.399 . S
C560 C561 1.385 . S
C561 H547 0.931 . S
C561 C560 1.385 . S
C561 C562 1.389 . S
C562 C561 1.389 . S
C562 C563 1.387 . S
C563 H548 0.930 . S
C563 C558 1.390 . S
C563 C562 1.387 . S
H564 C576 0.930 . S
H565 C578 0.930 . S
H566 C579 0.930 . S
H567 C583 0.959 . S
H568 C583 0.959 . S
H569 C583 0.961 . S
H570 C584 0.960 . S
H571 C584 0.961 . S
H572 C584 0.959 . S
H573 C587 0.929 . S
H574 C588 0.931 . S
H575 C590 0.930 . S
C576 H564 0.930 . S
C576 C577 1.399 1_556 S
C576 C581 1.399 . S
C577 C576 1.399 1_554 S
C577 C578 1.376 . S
C578 H565 0.930 . S
C578 C577 1.376 . S
C578 C579 1.388 . S
C579 H566 0.930 . S
C579 C578 1.388 . S
C579 C580 1.390 . S
C580 C579 1.390 . S
C580 C581 1.394 1_554 S
C580 C586 1.465 . S
C581 C576 1.399 . S
C581 C580 1.394 1_556 S
C581 C582 1.516 . S
C582 C581 1.516 . S
C582 C583 1.502 . S
C582 C584 1.561 . S
C582 C585 1.526 . S
C583 H567 0.959 . S
C583 H568 0.959 . S
C583 H569 0.961 . S
C583 C582 1.502 . S
C584 H570 0.960 . S
C584 H571 0.961 . S
C584 H572 0.959 . S
C584 C582 1.561 . S
C585 C582 1.526 . S
C585 C586 1.396 1_556 S
C585 C590 1.390 . S
C586 C580 1.465 . S
C586 C585 1.396 1_554 S
C586 C587 1.399 . S
C587 H573 0.929 . S
C587 C586 1.399 . S
C587 C588 1.385 . S
C588 H574 0.931 . S
C588 C587 1.385 . S
C588 C589 1.389 . S
C589 C588 1.389 . S
C589 C590 1.387 1_554 S
C590 H575 0.930 . S
C590 C585 1.390 . S
C590 C589 1.387 1_556 S
H591 C603 0.930 . S
H592 C605 0.930 . S
H593 C606 0.930 . S
H594 C610 0.959 . S
H595 C610 0.959 . S
H596 C610 0.961 . S
H597 C611 0.960 . S
H598 C611 0.961 . S
H599 C611 0.959 . S
H600 C614 0.929 . S
H601 C615 0.931 . S
H602 C617 0.930 . S
C603 H591 0.930 . S
C603 C604 1.399 1_556 S
C603 C608 1.399 . S
C604 C603 1.399 1_554 S
C604 C605 1.376 . S
C605 H592 0.930 . S
C605 C604 1.376 . S
C605 C606 1.388 . S
C606 H593 0.930 . S
C606 C605 1.388 . S
C606 C607 1.390 . S
C607 C606 1.390 . S
C607 C608 1.394 1_554 S
C607 C613 1.465 . S
C608 C603 1.399 . S
C608 C607 1.394 1_556 S
C608 C609 1.516 . S
C609 C608 1.516 . S
C609 C610 1.502 . S
C609 C611 1.561 . S
C609 C612 1.526 . S
C610 H594 0.959 . S
C610 H595 0.959 . S
C610 H596 0.961 . S
C610 C609 1.502 . S
C611 H597 0.960 . S
C611 H598 0.961 . S
C611 H599 0.959 . S
C611 C609 1.561 . S
C612 C609 1.526 . S
C612 C613 1.396 1_556 S
C612 C617 1.390 . S
C613 C607 1.465 . S
C613 C612 1.396 1_554 S
C613 C614 1.399 . S
C614 H600 0.929 . S
C614 C613 1.399 . S
C614 C615 1.385 . S
C615 H601 0.931 . S
C615 C614 1.385 . S
C615 C616 1.389 . S
C616 C615 1.389 . S
C616 C617 1.387 1_554 S
C617 H602 0.930 . S
C617 C612 1.390 . S
C617 C616 1.387 1_556 S
H618 C630 0.930 . S
H619 C632 0.930 . S
H620 C633 0.930 . S
H621 C637 0.959 . S
H622 C637 0.959 . S
H623 C637 0.961 . S
H624 C638 0.960 . S
H625 C638 0.961 . S
H626 C638 0.959 . S
H627 C641 0.929 . S
H628 C642 0.931 . S
H629 C644 0.930 . S
C630 H618 0.930 . S
C630 C631 1.399 . S
C630 C635 1.399 . S
C631 C630 1.399 . S
C631 C632 1.376 . S
C632 H619 0.930 . S
C632 C631 1.376 . S
C632 C633 1.388 . S
C633 H620 0.930 . S
C633 C632 1.388 . S
C633 C634 1.390 . S
C634 C633 1.390 . S
C634 C635 1.394 . S
C634 C640 1.465 . S
C635 C630 1.399 . S
C635 C634 1.394 . S
C635 C636 1.516 . S
C636 C635 1.516 . S
C636 C637 1.502 . S
C636 C638 1.561 . S
C636 C639 1.526 . S
C637 H621 0.959 . S
C637 H622 0.959 . S
C637 H623 0.961 . S
C637 C636 1.502 . S
C638 H624 0.960 . S
C638 H625 0.961 . S
C638 H626 0.959 . S
C638 C636 1.561 . S
C639 C636 1.526 . S
C639 C640 1.396 . S
C639 C644 1.390 . S
C640 C634 1.465 . S
C640 C639 1.396 . S
C640 C641 1.399 . S
C641 H627 0.929 . S
C641 C640 1.399 . S
C641 C642 1.385 . S
C642 H628 0.931 . S
C642 C641 1.385 . S
C642 C643 1.389 . S
C643 C642 1.389 . S
C643 C644 1.387 . S
C644 H629 0.930 . S
C644 C639 1.390 . S
C644 C643 1.387 . S
H645 C657 0.930 . S
H646 C659 0.930 . S
H647 C660 0.930 . S
H648 C664 0.959 . S
H649 C664 0.959 . S
H650 C664 0.961 . S
H651 C665 0.960 . S
H652 C665 0.961 . S
H653 C665 0.959 . S
H654 C668 0.929 . S
H655 C669 0.931 . S
H656 C671 0.930 . S
C657 H645 0.930 . S
C657 C658 1.399 . S
C657 C662 1.399 . S
C658 C657 1.399 . S
C658 C659 1.376 . S
C659 H646 0.930 . S
C659 C658 1.376 . S
C659 C660 1.388 . S
C660 H647 0.930 . S
C660 C659 1.388 . S
C660 C661 1.390 . S
C661 C660 1.390 . S
C661 C662 1.394 . S
C661 C667 1.465 . S
C662 C657 1.399 . S
C662 C661 1.394 . S
C662 C663 1.516 . S
C663 C662 1.516 . S
C663 C664 1.502 . S
C663 C665 1.561 . S
C663 C666 1.526 . S
C664 H648 0.959 . S
C664 H649 0.959 . S
C664 H650 0.961 . S
C664 C663 1.502 . S
C665 H651 0.960 . S
C665 H652 0.961 . S
C665 H653 0.959 . S
C665 C663 1.561 . S
C666 C663 1.526 . S
C666 C667 1.396 . S
C666 C671 1.390 . S
C667 C661 1.465 . S
C667 C666 1.396 . S
C667 C668 1.399 . S
C668 H654 0.929 . S
C668 C667 1.399 . S
C668 C669 1.385 . S
C669 H655 0.931 . S
C669 C668 1.385 . S
C669 C670 1.389 . S
C670 C669 1.389 . S
C670 C671 1.387 . S
C671 H656 0.930 . S
C671 C666 1.390 . S
C671 C670 1.387 . S
H672 C684 0.930 . S
H673 C686 0.930 . S
H674 C687 0.930 . S
H675 C691 0.959 . S
H676 C691 0.959 . S
H677 C691 0.961 . S
H678 C692 0.960 . S
H679 C692 0.961 . S
H680 C692 0.959 . S
H681 C695 0.929 . S
H682 C696 0.931 . S
H683 C698 0.930 . S
C684 H672 0.930 . S
C684 C685 1.399 . S
C684 C689 1.399 . S
C685 C684 1.399 . S
C685 C686 1.376 . S
C686 H673 0.930 . S
C686 C685 1.376 . S
C686 C687 1.388 . S
C687 H674 0.930 . S
C687 C686 1.388 . S
C687 C688 1.390 . S
C688 C687 1.390 . S
C688 C689 1.394 . S
C688 C694 1.465 . S
C689 C684 1.399 . S
C689 C688 1.394 . S
C689 C690 1.516 1_455 S
C690 C689 1.516 1_655 S
C690 C691 1.502 . S
C690 C692 1.561 1_655 S
C690 C693 1.526 . S
C691 H675 0.959 . S
C691 H676 0.959 . S
C691 H677 0.961 . S
C691 C690 1.502 . S
C692 H678 0.960 . S
C692 H679 0.961 . S
C692 H680 0.959 . S
C692 C690 1.561 1_455 S
C693 C690 1.526 . S
C693 C694 1.396 1_655 S
C693 C698 1.390 . S
C694 C688 1.465 . S
C694 C693 1.396 1_455 S
C694 C695 1.399 . S
C695 H681 0.929 . S
C695 C694 1.399 . S
C695 C696 1.385 1_455 S
C696 H682 0.931 . S
C696 C695 1.385 1_655 S
C696 C697 1.389 . S
C697 C696 1.389 . S
C697 C698 1.387 . S
C698 H683 0.930 . S
C698 C693 1.390 . S
C698 C697 1.387 . S
H699 C711 0.930 . S
H700 C713 0.930 . S
H701 C714 0.930 . S
H702 C718 0.959 . S
H703 C718 0.959 . S
H704 C718 0.961 . S
H705 C719 0.960 . S
H706 C719 0.961 . S
H707 C719 0.959 . S
H708 C722 0.929 . S
H709 C723 0.931 . S
H710 C725 0.930 . S
C711 H699 0.930 . S
C711 C712 1.399 . S
C711 C716 1.399 . S
C712 C711 1.399 . S
C712 C713 1.376 . S
C713 H700 0.930 . S
C713 C712 1.376 . S
C713 C714 1.388 1_655 S
C714 H701 0.930 . S
C714 C713 1.388 1_455 S
C714 C715 1.390 . S
C715 C714 1.390 . S
C715 C716 1.394 1_455 S
C715 C721 1.465 . S
C716 C711 1.399 . S
C716 C715 1.394 1_655 S
C716 C717 1.516 . S
C717 C716 1.516 . S
C717 C718 1.502 . S
C717 C719 1.561 1_655 S
C717 C720 1.526 1_655 S
C718 H702 0.959 . S
C718 H703 0.959 . S
C718 H704 0.961 . S
C718 C717 1.502 . S
C719 H705 0.960 . S
C719 H706 0.961 . S
C719 H707 0.959 . S
C719 C717 1.561 1_455 S
C720 C717 1.526 1_455 S
C720 C721 1.396 . S
C720 C725 1.390 . S
C721 C715 1.465 . S
C721 C720 1.396 . S
C721 C722 1.399 . S
C722 H708 0.929 . S
C722 C721 1.399 . S
C722 C723 1.385 . S
C723 H709 0.931 . S
C723 C722 1.385 . S
C723 C724 1.389 . S
C724 C723 1.389 . S
C724 C725 1.387 . S
C725 H710 0.930 . S
C725 C720 1.390 . S
C725 C724 1.387 . S
H726 C738 0.930 1_455 S
H727 C740 0.930 . S
H728 C741 0.930 . S
H729 C745 0.959 1_655 S
H730 C745 0.959 . S
H731 C745 0.961 . S
H732 C746 0.960 . S
H733 C746 0.961 . S
H734 C746 0.959 . S
H735 C749 0.929 . S
H736 C750 0.931 1_655 S
H737 C752 0.930 . S
C738 H726 0.930 1_655 S
C738 C739 1.399 . S
C738 C743 1.399 1_655 S
C739 C738 1.399 . S
C739 C740 1.376 . S
C740 H727 0.930 . S
C740 C739 1.376 . S
C740 C741 1.388 . S
C741 H728 0.930 . S
C741 C740 1.388 . S
C741 C742 1.390 . S
C742 C741 1.390 . S
C742 C743 1.394 1_655 S
C742 C748 1.465 . S
C743 C738 1.399 1_455 S
C743 C742 1.394 1_455 S
C743 C744 1.516 . S
C744 C743 1.516 . S
C744 C745 1.502 . S
C744 C746 1.561 . S
C744 C747 1.526 . S
C745 H729 0.959 1_455 S
C745 H730 0.959 . S
C745 H731 0.961 . S
C745 C744 1.502 . S
C746 H732 0.960 . S
C746 H733 0.961 . S
C746 H734 0.959 . S
C746 C744 1.561 . S
C747 C744 1.526 . S
C747 C748 1.396 1_455 S
C747 C752 1.390 . S
C748 C742 1.465 . S
C748 C747 1.396 1_655 S
C748 C749 1.399 . S
C749 H735 0.929 . S
C749 C748 1.399 . S
C749 C750 1.385 1_655 S
C750 H736 0.931 1_455 S
C750 C749 1.385 1_455 S
C750 C751 1.389 . S
C751 C750 1.389 . S
C751 C752 1.387 . S
C752 H737 0.930 . S
C752 C747 1.390 . S
C752 C751 1.387 . S
H753 C765 0.930 . S
H754 C767 0.930 . S
H755 C768 0.930 . S
H756 C772 0.959 . S
H757 C772 0.959 . S
H758 C772 0.961 . S
H759 C773 0.960 . S
H760 C773 0.961 . S
H761 C773 0.959 . S
H762 C776 0.929 . S
H763 C777 0.931 . S
H764 C779 0.930 . S
C765 H753 0.930 . S
C765 C766 1.399 . S
C765 C770 1.399 . S
C766 C765 1.399 . S
C766 C767 1.376 . S
C767 H754 0.930 . S
C767 C766 1.376 . S
C767 C768 1.388 . S
C768 H755 0.930 . S
C768 C767 1.388 . S
C768 C769 1.390 . S
C769 C768 1.390 . S
C769 C770 1.394 . S
C769 C775 1.465 . S
C770 C765 1.399 . S
C770 C769 1.394 . S
C770 C771 1.516 1_655 S
C771 C770 1.516 1_455 S
C771 C772 1.502 . S
C771 C773 1.561 1_455 S
C771 C774 1.526 . S
C772 H756 0.959 . S
C772 H757 0.959 . S
C772 H758 0.961 . S
C772 C771 1.502 . S
C773 H759 0.960 . S
C773 H760 0.961 . S
C773 H761 0.959 . S
C773 C771 1.561 1_655 S
C774 C771 1.526 . S
C774 C775 1.396 1_455 S
C774 C779 1.390 . S
C775 C769 1.465 . S
C775 C774 1.396 1_655 S
C775 C776 1.399 . S
C776 H762 0.929 . S
C776 C775 1.399 . S
C776 C777 1.385 1_655 S
C777 H763 0.931 . S
C777 C776 1.385 1_455 S
C777 C778 1.389 . S
C778 C777 1.389 . S
C778 C779 1.387 . S
C779 H764 0.930 . S
C779 C774 1.390 . S
C779 C778 1.387 . S
H780 C792 0.930 . S
H781 C794 0.930 . S
H782 C795 0.930 . S
H783 C799 0.959 . S
H784 C799 0.959 . S
H785 C799 0.961 . S
H786 C800 0.960 . S
H787 C800 0.961 . S
H788 C800 0.959 . S
H789 C803 0.929 . S
H790 C804 0.931 . S
H791 C806 0.930 . S
C792 H780 0.930 . S
C792 C793 1.399 . S
C792 C797 1.399 . S
C793 C792 1.399 . S
C793 C794 1.376 . S
C794 H781 0.930 . S
C794 C793 1.376 . S
C794 C795 1.388 . S
C795 H782 0.930 . S
C795 C794 1.388 . S
C795 C796 1.390 . S
C796 C795 1.390 . S
C796 C797 1.394 . S
C796 C802 1.465 . S
C797 C792 1.399 . S
C797 C796 1.394 . S
C797 C798 1.516 . S
C798 C797 1.516 . S
C798 C799 1.502 . S
C798 C800 1.561 . S
C798 C801 1.526 . S
C799 H783 0.959 . S
C799 H784 0.959 . S
C799 H785 0.961 . S
C799 C798 1.502 . S
C800 H786 0.960 . S
C800 H787 0.961 . S
C800 H788 0.959 . S
C800 C798 1.561 . S
C801 C798 1.526 . S
C801 C802 1.396 . S
C801 C806 1.390 . S
C802 C796 1.465 . S
C802 C801 1.396 . S
C802 C803 1.399 . S
C803 H789 0.929 . S
C803 C802 1.399 . S
C803 C804 1.385 . S
C804 H790 0.931 . S
C804 C803 1.385 . S
C804 C805 1.389 . S
C805 C804 1.389 . S
C805 C806 1.387 . S
C806 H791 0.930 . S
C806 C801 1.390 . S
C806 C805 1.387 . S
H807 C819 0.930 . S
H808 C821 0.930 . S
H809 C822 0.930 . S
H810 C826 0.959 . S
H811 C826 0.959 . S
H812 C826 0.961 . S
H813 C827 0.960 . S
H814 C827 0.961 . S
H815 C827 0.959 . S
H816 C830 0.929 . S
H817 C831 0.931 . S
H818 C833 0.930 . S
C819 H807 0.930 . S
C819 C820 1.399 . S
C819 C824 1.399 . S
C820 C819 1.399 . S
C820 C821 1.376 . S
C821 H808 0.930 . S
C821 C820 1.376 . S
C821 C822 1.388 . S
C822 H809 0.930 . S
C822 C821 1.388 . S
C822 C823 1.390 . S
C823 C822 1.390 . S
C823 C824 1.394 . S
C823 C829 1.465 . S
C824 C819 1.399 . S
C824 C823 1.394 . S
C824 C825 1.516 . S
C825 C824 1.516 . S
C825 C826 1.502 . S
C825 C827 1.561 . S
C825 C828 1.526 . S
C826 H810 0.959 . S
C826 H811 0.959 . S
C826 H812 0.961 . S
C826 C825 1.502 . S
C827 H813 0.960 . S
C827 H814 0.961 . S
C827 H815 0.959 . S
C827 C825 1.561 . S
C828 C825 1.526 . S
C828 C829 1.396 . S
C828 C833 1.390 . S
C829 C823 1.465 . S
C829 C828 1.396 . S
C829 C830 1.399 . S
C830 H816 0.929 . S
C830 C829 1.399 . S
C830 C831 1.385 . S
C831 H817 0.931 . S
C831 C830 1.385 . S
C831 C832 1.389 . S
C832 C831 1.389 . S
C832 C833 1.387 . S
C833 H818 0.930 . S
C833 C828 1.390 . S
C833 C832 1.387 . S
H834 C846 0.930 . S
H835 C848 0.930 . S
H836 C849 0.930 . S
H837 C853 0.959 . S
H838 C853 0.959 . S
H839 C853 0.961 . S
H840 C854 0.960 . S
H841 C854 0.961 . S
H842 C854 0.959 . S
H843 C857 0.929 . S
H844 C858 0.931 . S
H845 C860 0.930 . S
C846 H834 0.930 . S
C846 C847 1.399 . S
C846 C851 1.399 . S
C847 C846 1.399 . S
C847 C848 1.376 . S
C848 H835 0.930 . S
C848 C847 1.376 . S
C848 C849 1.388 . S
C849 H836 0.930 . S
C849 C848 1.388 . S
C849 C850 1.390 . S
C850 C849 1.390 . S
C850 C851 1.394 . S
C850 C856 1.465 . S
C851 C846 1.399 . S
C851 C850 1.394 . S
C851 C852 1.516 . S
C852 C851 1.516 . S
C852 C853 1.502 . S
C852 C854 1.561 . S
C852 C855 1.526 . S
C853 H837 0.959 . S
C853 H838 0.959 . S
C853 H839 0.961 . S
C853 C852 1.502 . S
C854 H840 0.960 . S
C854 H841 0.961 . S
C854 H842 0.959 . S
C854 C852 1.561 . S
C855 C852 1.526 . S
C855 C856 1.396 . S
C855 C860 1.390 . S
C856 C850 1.465 . S
C856 C855 1.396 . S
C856 C857 1.399 . S
C857 H843 0.929 . S
C857 C856 1.399 . S
C857 C858 1.385 . S
C858 H844 0.931 . S
C858 C857 1.385 . S
C858 C859 1.389 . S
C859 C858 1.389 . S
C859 C860 1.387 . S
C860 H845 0.930 . S
C860 C855 1.390 . S
C860 C859 1.387 . S
H861 C873 0.930 . S
H862 C875 0.930 . S
H863 C876 0.930 . S
H864 C880 0.959 . S
H865 C880 0.959 . S
H866 C880 0.961 . S
H867 C881 0.960 . S
H868 C881 0.961 . S
H869 C881 0.959 . S
H870 C884 0.929 . S
H871 C885 0.931 . S
H872 C887 0.930 . S
C873 H861 0.930 . S
C873 C874 1.399 . S
C873 C878 1.399 . S
C874 C873 1.399 . S
C874 C875 1.376 . S
C875 H862 0.930 . S
C875 C874 1.376 . S
C875 C876 1.388 . S
C876 H863 0.930 . S
C876 C875 1.388 . S
C876 C877 1.390 . S
C877 C876 1.390 . S
C877 C878 1.394 . S
C877 C883 1.465 . S
C878 C873 1.399 . S
C878 C877 1.394 . S
C878 C879 1.516 . S
C879 C878 1.516 . S
C879 C880 1.502 . S
C879 C881 1.561 . S
C879 C882 1.526 . S
C880 H864 0.959 . S
C880 H865 0.959 . S
C880 H866 0.961 . S
C880 C879 1.502 . S
C881 H867 0.960 . S
C881 H868 0.961 . S
C881 H869 0.959 . S
C881 C879 1.561 . S
C882 C879 1.526 . S
C882 C883 1.396 . S
C882 C887 1.390 . S
C883 C877 1.465 . S
C883 C882 1.396 . S
C883 C884 1.399 . S
C884 H870 0.929 . S
C884 C883 1.399 . S
C884 C885 1.385 . S
C885 H871 0.931 . S
C885 C884 1.385 . S
C885 C886 1.389 . S
C886 C885 1.389 . S
C886 C887 1.387 . S
C887 H872 0.930 . S
C887 C882 1.390 . S
C887 C886 1.387 . S
C253 N14 1.146 . S
C265 N6 1.090 1_554 S
C280 N44 1.101 . S
C292 N36 1.148 1_554 S
C307 N74 1.087 . S
C319 N66 1.154 . S
C334 N104 1.107 . S
C346 N96 1.143 . S
C361 N134 1.090 . S
C373 N126 1.154 1_554 S
C388 N156 1.144 1_554 S
C400 N164 1.092 . S
C415 N194 1.148 . S
C427 N186 1.089 . S
C442 N216 1.147 . S
C454 N224 1.090 . S
C469 C57 1.573 . S
C481 C16 1.588 . S
C496 C106 1.589 . S
C508 C87 1.577 . S
C523 C136 1.571 . S
C535 C177 1.592 . S
C550 C207 1.573 . S
C562 C226 1.587 . S
C577 C27 1.739 . S
C589 C166 1.767 . S
C604 C147 1.754 . S
C616 C46 1.752 . S
C631 C76 1.736 . S
C643 C237 1.772 . S
C658 C117 1.763 . S
C670 C196 1.760 . S
C685 C10 1.667 . S
C697 C100 1.638 . S
C712 C40 1.581 . S
C724 C70 1.596 . S
C739 C31 1.655 . S
C751 C61 1.637 . S
C766 C91 1.597 . S
C778 C1 1.586 . S
C793 C130 1.669 . S
C805 C220 1.632 . S
C820 C160 1.581 . S
C832 C190 1.596 . S
C847 C151 1.625 . S
C859 C181 1.665 . S
C874 C211 1.598 . S
C886 C121 1.584 . S
