# Generated by pormake.
# Topology whp, (6)-cn, num edge types: 1
# Building blocks:
#     Node 0, Type 0, BuildingBlock: IZENUY_clean_sbu_0, # of connection points: 6
#     Node 1, Type 0, BuildingBlock: IZENUY_clean_sbu_0, # of connection points: 6
#     Node 2, Type 0, BuildingBlock: IZENUY_clean_sbu_0, # of connection points: 6
#     Node 3, Type 0, BuildingBlock: IZENUY_clean_sbu_0, # of connection points: 6
#     Node 4, Type 0, BuildingBlock: IZENUY_clean_sbu_0, # of connection points: 6
#     Node 5, Type 0, BuildingBlock: IZENUY_clean_sbu_0, # of connection points: 6
#     Node 6, Type 0, BuildingBlock: IZENUY_clean_sbu_0, # of connection points: 6
#     Node 7, Type 0, BuildingBlock: IZENUY_clean_sbu_0, # of connection points: 6
#     Node 8, Type 0, BuildingBlock: IZENUY_clean_sbu_0, # of connection points: 6
#     Node 9, Type 0, BuildingBlock: IZENUY_clean_sbu_0, # of connection points: 6
#     Node 10, Type 0, BuildingBlock: IZENUY_clean_sbu_0, # of connection points: 6
#     Node 11, Type 0, BuildingBlock: IZENUY_clean_sbu_0, # of connection points: 6
#     Node 12, Type 0, BuildingBlock: IZENUY_clean_sbu_0, # of connection points: 6
#     Node 13, Type 0, BuildingBlock: IZENUY_clean_sbu_0, # of connection points: 6
#     Node 14, Type 0, BuildingBlock: IZENUY_clean_sbu_0, # of connection points: 6
#     Node 15, Type 0, BuildingBlock: IZENUY_clean_sbu_0, # of connection points: 6
#     Edge 16, Type (0, 0), BuildingBlock: XIVTED_clean_linker_0, # of connection points: 2
#     Edge 17, Type (0, 0), BuildingBlock: XIVTED_clean_linker_0, # of connection points: 2
#     Edge 18, Type (0, 0), BuildingBlock: XIVTED_clean_linker_0, # of connection points: 2
#     Edge 19, Type (0, 0), BuildingBlock: XIVTED_clean_linker_0, # of connection points: 2
#     Edge 20, Type (0, 0), BuildingBlock: XIVTED_clean_linker_0, # of connection points: 2
#     Edge 21, Type (0, 0), BuildingBlock: XIVTED_clean_linker_0, # of connection points: 2
#     Edge 22, Type (0, 0), BuildingBlock: XIVTED_clean_linker_0, # of connection points: 2
#     Edge 23, Type (0, 0), BuildingBlock: XIVTED_clean_linker_0, # of connection points: 2
#     Edge 24, Type (0, 0), BuildingBlock: XIVTED_clean_linker_0, # of connection points: 2
#     Edge 25, Type (0, 0), BuildingBlock: XIVTED_clean_linker_0, # of connection points: 2
#     Edge 26, Type (0, 0), BuildingBlock: XIVTED_clean_linker_0, # of connection points: 2
#     Edge 27, Type (0, 0), BuildingBlock: XIVTED_clean_linker_0, # of connection points: 2
#     Edge 28, Type (0, 0), BuildingBlock: XIVTED_clean_linker_0, # of connection points: 2
#     Edge 29, Type (0, 0), BuildingBlock: XIVTED_clean_linker_0, # of connection points: 2
#     Edge 30, Type (0, 0), BuildingBlock: XIVTED_clean_linker_0, # of connection points: 2
#     Edge 31, Type (0, 0), BuildingBlock: XIVTED_clean_linker_0, # of connection points: 2
#     Edge 32, Type (0, 0), BuildingBlock: XIVTED_clean_linker_0, # of connection points: 2
#     Edge 33, Type (0, 0), BuildingBlock: XIVTED_clean_linker_0, # of connection points: 2
#     Edge 34, Type (0, 0), BuildingBlock: XIVTED_clean_linker_0, # of connection points: 2
#     Edge 35, Type (0, 0), BuildingBlock: XIVTED_clean_linker_0, # of connection points: 2
#     Edge 36, Type (0, 0), BuildingBlock: XIVTED_clean_linker_0, # of connection points: 2
#     Edge 37, Type (0, 0), BuildingBlock: XIVTED_clean_linker_0, # of connection points: 2
#     Edge 38, Type (0, 0), BuildingBlock: XIVTED_clean_linker_0, # of connection points: 2
#     Edge 39, Type (0, 0), BuildingBlock: XIVTED_clean_linker_0, # of connection points: 2
#     Edge 40, Type (0, 0), BuildingBlock: XIVTED_clean_linker_0, # of connection points: 2
#     Edge 41, Type (0, 0), BuildingBlock: XIVTED_clean_linker_0, # of connection points: 2
#     Edge 42, Type (0, 0), BuildingBlock: XIVTED_clean_linker_0, # of connection points: 2
#     Edge 43, Type (0, 0), BuildingBlock: XIVTED_clean_linker_0, # of connection points: 2
#     Edge 44, Type (0, 0), BuildingBlock: XIVTED_clean_linker_0, # of connection points: 2
#     Edge 45, Type (0, 0), BuildingBlock: XIVTED_clean_linker_0, # of connection points: 2
#     Edge 46, Type (0, 0), BuildingBlock: XIVTED_clean_linker_0, # of connection points: 2
#     Edge 47, Type (0, 0), BuildingBlock: XIVTED_clean_linker_0, # of connection points: 2
#     Edge 48, Type (0, 0), BuildingBlock: XIVTED_clean_linker_0, # of connection points: 2
#     Edge 49, Type (0, 0), BuildingBlock: XIVTED_clean_linker_0, # of connection points: 2
#     Edge 50, Type (0, 0), BuildingBlock: XIVTED_clean_linker_0, # of connection points: 2
#     Edge 51, Type (0, 0), BuildingBlock: XIVTED_clean_linker_0, # of connection points: 2
#     Edge 52, Type (0, 0), BuildingBlock: XIVTED_clean_linker_0, # of connection points: 2
#     Edge 53, Type (0, 0), BuildingBlock: XIVTED_clean_linker_0, # of connection points: 2
#     Edge 54, Type (0, 0), BuildingBlock: XIVTED_clean_linker_0, # of connection points: 2
#     Edge 55, Type (0, 0), BuildingBlock: XIVTED_clean_linker_0, # of connection points: 2
#     Edge 56, Type (0, 0), BuildingBlock: XIVTED_clean_linker_0, # of connection points: 2
#     Edge 57, Type (0, 0), BuildingBlock: XIVTED_clean_linker_0, # of connection points: 2
#     Edge 58, Type (0, 0), BuildingBlock: XIVTED_clean_linker_0, # of connection points: 2
#     Edge 59, Type (0, 0), BuildingBlock: XIVTED_clean_linker_0, # of connection points: 2
#     Edge 60, Type (0, 0), BuildingBlock: XIVTED_clean_linker_0, # of connection points: 2
#     Edge 61, Type (0, 0), BuildingBlock: XIVTED_clean_linker_0, # of connection points: 2
#     Edge 62, Type (0, 0), BuildingBlock: XIVTED_clean_linker_0, # of connection points: 2
#     Edge 63, Type (0, 0), BuildingBlock: XIVTED_clean_linker_0, # of connection points: 2
# Relax obj value: 0.322
# Max RMSD: 0.246
# Mean RMSD: 0.246
data_MOF--net-whp--node1-IZENUY_clean_sbu_0--edge1-XIVTED_clean_linker_0
_symmetry_space_group_name_H-M    P1
_symmetry_Int_Tables_number       1
_symmetry_cell_setting            triclinic
loop_
_symmetry_equiv_pos_as_xyz
'x, y, z'
_cell_length_a     47.798949
_cell_length_b     47.798245
_cell_length_c     29.110773
_cell_angle_alpha  90.024855
_cell_angle_beta   89.973495
_cell_angle_gamma 89.992408
loop_
_atom_site_label
_atom_site_type_symbol
_atom_site_fract_x
_atom_site_fract_y
_atom_site_fract_z
_atom_type_partial_charge
Fe0 Fe 0.34416 0.53073 0.29666 0.0
Fe1 Fe 0.30586 0.56627 0.35705 0.0
O2 O 0.31134 0.53581 0.32388 0.0
Fe3 Fe 0.28399 0.51065 0.31892 0.0
O4 O 0.2836 0.51381 0.25739 0.0
O5 O 0.32923 0.51339 0.24555 0.0
O6 O 0.3419 0.56335 0.26487 0.0
C7 C 0.33951 0.58684 0.28406 0.0
C8 C 0.33324 0.47744 0.32716 0.0
O9 O 0.3297 0.58865 0.32424 0.0
C10 C 0.27816 0.52509 0.40888 0.0
O11 O 0.36462 0.54724 0.3432 0.0
O12 O 0.33323 0.55631 0.39654 0.0
O13 O 0.30762 0.47983 0.31634 0.0
O14 O 0.34942 0.49816 0.32648 0.0
C15 C 0.25638 0.56346 0.3114 0.0
O16 O 0.28107 0.55027 0.39686 0.0
O17 O 0.28226 0.50548 0.38076 0.0
C18 C 0.35827 0.55198 0.38486 0.0
O19 O 0.27825 0.57746 0.31912 0.0
O20 O 0.25558 0.53729 0.31978 0.0
C21 C 0.30428 0.51162 0.23086 0.0
Fe22 Fe 0.99961 0.28613 0.81965 0.0
Fe23 Fe 0.97969 0.34515 0.79002 0.0
O24 O 0.97468 0.31366 0.82124 0.0
Fe25 Fe 0.94435 0.30965 0.85527 0.0
O26 O 0.93256 0.28115 0.81963 0.0
O27 O 0.97258 0.25815 0.8228 0.0
O28 O 0.99654 0.28314 0.75849 0.0
C29 C 0.99794 0.30218 0.72876 0.0
C30 C 0.98484 0.28217 0.90939 0.0
O31 O 0.99615 0.32786 0.73984 0.0
C32 C 0.96041 0.36242 0.87789 0.0
O33 O 0.03065 0.30921 0.81493 0.0
O34 O 0.0127 0.35159 0.8177 0.0
O35 O 0.95984 0.28542 0.89666 0.0
O36 O 1.00456 0.28689 0.88178 0.0
C37 C 0.92338 0.34084 0.78004 0.0
O38 O 0.96412 0.36744 0.83538 0.0
O39 O 0.95539 0.33795 0.89198 0.0
C40 C 0.03319 0.33532 0.82149 0.0
O41 O 0.94661 0.34185 0.75976 0.0
O42 O 0.92207 0.33299 0.82136 0.0
C43 C 0.94648 0.25899 0.81361 0.0
Fe44 Fe 0.22659 0.99928 0.32538 0.0
Fe45 Fe 0.16704 0.98018 0.29834 0.0
O46 O 0.19881 0.97481 0.32859 0.0
Fe47 Fe 0.20288 0.94475 0.3632 0.0
O48 O 0.23099 0.93234 0.3272 0.0
O49 O 0.25441 0.97206 0.32899 0.0
O50 O 0.22893 0.99519 0.26449 0.0
C51 C 0.20961 0.99739 0.23543 0.0
C52 C 0.23104 0.98583 0.41532 0.0
O53 O 0.18402 0.9964 0.24744 0.0
C54 C 0.1503 0.96113 0.3867 0.0
O55 O 0.20383 0.03052 0.31989 0.0
O56 O 0.16133 0.01339 0.32619 0.0
O57 O 0.22758 0.96059 0.40385 0.0
O58 O 0.22624 1.00512 0.38704 0.0
C59 C 0.17063 0.92372 0.28891 0.0
O60 O 0.14505 0.96496 0.34431 0.0
O61 O 0.17488 0.95621 0.40036 0.0
C62 C 0.17798 0.03366 0.32834 0.0
O63 O 0.1696 0.94689 0.26836 0.0
O64 O 0.17909 0.92247 0.32997 0.0
C65 C 0.25325 0.94592 0.32032 0.0
Fe66 Fe 0.51095 0.22696 0.81899 0.0
Fe67 Fe 0.53013 0.1666 0.79552 0.0
O68 O 0.53578 0.19925 0.82305 0.0
Fe69 Fe 0.56649 0.20418 0.85582 0.0
O70 O 0.57795 0.23167 0.81782 0.0
O71 O 0.53806 0.2549 0.81934 0.0
O72 O 0.51349 0.22753 0.75741 0.0
C73 C 0.51087 0.20701 0.73063 0.0
C74 C 0.52618 0.2325 0.90866 0.0
O75 O 0.51289 0.18196 0.74475 0.0
C76 C 0.55077 0.15213 0.88363 0.0
O77 O 0.47977 0.20384 0.81704 0.0
O78 O 0.49752 0.16164 0.82544 0.0
O79 O 0.55119 0.22924 0.89597 0.0
O80 O 0.50632 0.22861 0.881 0.0
C81 C 0.58638 0.17043 0.78244 0.0
O82 O 0.54632 0.14581 0.84189 0.0
O83 O 0.55609 0.17698 0.89526 0.0
C84 C 0.47709 0.17815 0.82713 0.0
O85 O 0.56278 0.16842 0.76347 0.0
O86 O 0.58839 0.17998 0.82276 0.0
C87 C 0.56416 0.25374 0.81043 0.0
Fe88 Fe 0.80592 0.44323 0.13618 0.0
Fe89 Fe 0.78413 0.49732 0.18071 0.0
O90 O 0.8112 0.47211 0.1734 0.0
Fe91 Fe 0.84381 0.47547 0.20202 0.0
O92 O 0.84052 0.44139 0.22945 0.0
O93 O 0.82999 0.41937 0.16602 0.0
O94 O 0.77795 0.43012 0.17182 0.0
C95 C 0.75648 0.44414 0.18249 0.0
C96 C 0.85832 0.45929 0.11134 0.0
O97 O 0.75591 0.47072 0.17844 0.0
C98 C 0.83391 0.53017 0.17629 0.0
O99 O 0.78107 0.46065 0.09824 0.0
O100 O 0.78204 0.50457 0.11943 0.0
O101 O 0.86442 0.46111 0.15372 0.0
O102 O 0.8334 0.45543 0.09864 0.0
C103 C 0.80402 0.4933 0.269 0.0
O104 O 0.80801 0.52782 0.18521 0.0
O105 O 0.84995 0.50931 0.17677 0.0
C106 C 0.77765 0.4862 0.08934 0.0
O107 O 0.78359 0.49256 0.24189 0.0
O108 O 0.82898 0.49069 0.25487 0.0
C109 C 0.83926 0.41901 0.20667 0.0
Fe110 Fe 0.06528 0.80688 0.63675 0.0
Fe111 Fe 0.01142 0.78353 0.67858 0.0
O112 O 0.0363 0.81086 0.6741 0.0
Fe113 Fe 0.03261 0.84233 0.70583 0.0
O114 O 0.0667 0.83819 0.73282 0.0
O115 O 0.08866 0.83067 0.66822 0.0
O116 O 0.07871 0.77828 0.67069 0.0
C117 C 0.06485 0.75637 0.67938 0.0
C118 C 0.04886 0.85974 0.61624 0.0
O119 O 0.03834 0.75559 0.67398 0.0
C120 C 0.97816 0.83304 0.67863 0.0
O121 O 0.04834 0.78234 0.59727 0.0
O122 O 1.00432 0.78379 0.61716 0.0
O123 O 0.04684 0.86449 0.65916 0.0
O124 O 0.05261 0.83519 0.60133 0.0
C125 C 0.01623 0.79991 0.76889 0.0
O126 O 0.98065 0.8069 0.68528 0.0
O127 O 0.99883 0.84919 0.68116 0.0
C128 C 0.02288 0.77872 0.5877 0.0
O129 O 0.01655 0.78083 0.73927 0.0
O130 O 0.01745 0.82551 0.75749 0.0
C131 C 0.08897 0.83837 0.70975 0.0
Fe132 Fe 0.70223 0.06722 0.13562 0.0
Fe133 Fe 0.727 0.01318 0.17372 0.0
O134 O 0.699 0.03739 0.1711 0.0
Fe135 Fe 0.6678 0.03239 0.20291 0.0
O136 O 0.67111 0.06613 0.23156 0.0
O137 O 0.6777 0.08927 0.16795 0.0
O138 O 0.73014 0.08056 0.17115 0.0
C139 C 0.7525 0.06719 0.17871 0.0
C140 C 0.65001 0.04954 0.114 0.0
O141 O 0.75415 0.04101 0.17018 0.0
C142 C 0.67838 0.97861 0.1733 0.0
O143 O 0.72738 0.0519 0.09527 0.0
O144 O 0.72654 0.00741 0.11185 0.0
O145 O 0.64522 0.04677 0.15683 0.0
O146 O 0.67442 0.05445 0.09933 0.0
C147 C 0.71097 0.01572 0.26456 0.0
O148 O 0.70451 0.98169 0.17914 0.0
O149 O 0.66172 0.99882 0.1769 0.0
C150 C 0.73133 0.02678 0.0837 0.0
O151 O 0.72988 0.01702 0.23466 0.0
O152 O 0.68527 0.0169 0.25365 0.0
C153 C 0.6704 0.08878 0.20961 0.0
Fe154 Fe 0.49978 0.72892 0.68441 0.0
Fe155 Fe 0.47885 0.66938 0.70812 0.0
O156 O 0.47464 0.70174 0.67948 0.0
Fe157 Fe 0.4447 0.70692 0.64484 0.0
O158 O 0.43263 0.73414 0.6828 0.0
O159 O 0.4728 0.75711 0.68344 0.0
O160 O 0.49663 0.72994 0.74603 0.0
C161 C 0.49777 0.70966 0.77351 0.0
C162 C 0.48588 0.73599 0.59463 0.0
O163 O 0.49525 0.68458 0.75978 0.0
C164 C 0.4599 0.65473 0.61847 0.0
O165 O 0.53052 0.70524 0.68733 0.0
O166 O 0.512 0.6632 0.68061 0.0
O167 O 0.46068 0.73263 0.60618 0.0
O168 O 0.50519 0.7302 0.62242 0.0
C169 C 0.42268 0.6737 0.71678 0.0
O170 O 0.46327 0.64871 0.66073 0.0
O171 O 0.45604 0.67974 0.60588 0.0
C172 C 0.53277 0.67929 0.67865 0.0
O173 O 0.44557 0.67284 0.73799 0.0
O174 O 0.42199 0.68229 0.6758 0.0
C175 C 0.44656 0.75594 0.69169 0.0
Fe176 Fe 0.72595 0.50102 0.67625 0.0
Fe177 Fe 0.66684 0.48123 0.70525 0.0
O178 O 0.69842 0.47615 0.6743 0.0
Fe179 Fe 0.70259 0.44582 0.64027 0.0
O180 O 0.73097 0.43402 0.67614 0.0
O181 O 0.75398 0.474 0.67304 0.0
O182 O 0.72875 0.49772 0.73724 0.0
C183 C 0.70968 0.49935 0.76688 0.0
C184 C 0.73034 0.48647 0.58671 0.0
O185 O 0.684 0.49776 0.75566 0.0
C186 C 0.64979 0.46157 0.61723 0.0
O187 O 0.70289 0.5321 0.68113 0.0
O188 O 0.66051 0.51426 0.67747 0.0
O189 O 0.727 0.4614 0.59904 0.0
O190 O 0.72529 0.50611 0.6143 0.0
C191 C 0.67094 0.4249 0.71522 0.0
O192 O 0.6447 0.46563 0.65967 0.0
O193 O 0.67436 0.45678 0.60331 0.0
C194 C 0.67683 0.53474 0.6742 0.0
O195 O 0.67 0.44813 0.73552 0.0
O196 O 0.67911 0.42353 0.67403 0.0
C197 C 0.75314 0.4479 0.68219 0.0
Fe198 Fe 0.00864 0.72657 0.1834 0.0
Fe199 Fe 0.02869 0.6663 0.20522 0.0
O200 O 0.03389 0.69929 0.17866 0.0
Fe201 Fe 0.0646 0.70503 0.14624 0.0
O202 O 0.07553 0.73228 0.18516 0.0
O203 O 0.03533 0.75494 0.18374 0.0
O204 O 0.01119 0.72664 0.245 0.0
C205 C 0.00911 0.70585 0.27131 0.0
C206 C 0.02395 0.73314 0.09396 0.0
O207 O 0.01128 0.68095 0.25648 0.0
C208 C 0.04986 0.65304 0.11671 0.0
O209 O 0.97778 0.70296 0.18488 0.0
O210 O 0.99619 0.66116 0.17517 0.0
O211 O 0.04898 0.7303 0.10686 0.0
O212 O 1.00406 0.72865 0.12137 0.0
C213 C 0.0848 0.67055 0.21844 0.0
O214 O 0.04521 0.64622 0.1582 0.0
O215 O 0.05474 0.67811 0.10588 0.0
C216 C 0.97548 0.67732 0.17417 0.0
O217 O 0.06122 0.66827 0.23734 0.0
O218 O 0.0868 0.68074 0.17856 0.0
C219 C 0.06143 0.75413 0.19279 0.0
Fe220 Fe 0.78586 0.01211 0.67722 0.0
Fe221 Fe 0.84565 0.03248 0.70126 0.0
O222 O 0.81316 0.03738 0.6729 0.0
Fe223 Fe 0.80796 0.06776 0.63936 0.0
O224 O 0.77966 0.07893 0.67616 0.0
O225 O 0.75735 0.03856 0.67516 0.0
O226 O 0.78463 0.01552 0.73868 0.0
C227 C 0.80494 0.01358 0.766 0.0
C228 C 0.78102 0.0262 0.58697 0.0
O229 O 0.83009 0.01537 0.75215 0.0
C230 C 0.86086 0.05348 0.61326 0.0
O231 O 0.80955 0.9814 0.68091 0.0
O232 O 0.85142 0.99977 0.67199 0.0
O233 O 0.78386 0.05145 0.59872 0.0
O234 O 0.78489 0.00672 0.61539 0.0
C235 C 0.84051 0.08863 0.71344 0.0
O236 O 0.86674 0.04883 0.65514 0.0
O237 O 0.83597 0.05791 0.60087 0.0
C238 C 0.83531 0.979 0.67106 0.0
O239 O 0.84285 0.06517 0.73265 0.0
O240 O 0.8312 0.09039 0.67294 0.0
C241 C 0.75779 0.06477 0.68325 0.0
Fe242 Fe 0.48051 0.84489 0.20858 0.0
Fe243 Fe 0.44524 0.80654 0.14781 0.0
O244 O 0.47576 0.81223 0.18081 0.0
Fe245 Fe 0.50123 0.78524 0.18485 0.0
O246 O 0.4986 0.78434 0.24652 0.0
O247 O 0.49786 0.82985 0.25959 0.0
O248 O 0.44789 0.84204 0.24026 0.0
C249 C 0.42442 0.83998 0.221 0.0
C250 C 0.53392 0.83483 0.17726 0.0
O251 O 0.42269 0.83042 0.18061 0.0
C252 C 0.48623 0.77829 0.0955 0.0
O253 O 0.4639 0.86528 0.16208 0.0
O254 O 0.45511 0.83397 0.10833 0.0
O255 O 0.53184 0.80906 0.18714 0.0
O256 O 0.51308 0.85082 0.17902 0.0
C257 C 0.44865 0.75718 0.19323 0.0
O258 O 0.46113 0.78139 0.10797 0.0
O259 O 0.5059 0.78406 0.12268 0.0
C260 C 0.45935 0.85901 0.1203 0.0
O261 O 0.43437 0.77895 0.18597 0.0
O262 O 0.47478 0.75663 0.1843 0.0
C263 C 0.50015 0.80479 0.27368 0.0
Fe264 Fe 0.16867 0.534 0.79582 0.0
Fe265 Fe 0.20473 0.56683 0.86378 0.0
O266 O 0.20026 0.53758 0.82717 0.0
Fe267 Fe 0.22724 0.51229 0.82309 0.0
O268 O 0.22991 0.51691 0.76228 0.0
O269 O 0.18519 0.51807 0.74453 0.0
O270 O 0.17322 0.56774 0.76782 0.0
C271 C 0.17355 0.59027 0.79022 0.0
C272 C 0.17739 0.47967 0.82397 0.0
O273 O 0.18126 0.59027 0.83175 0.0
C274 C 0.23222 0.5244 0.91372 0.0
O275 O 0.14678 0.54905 0.8422 0.0
O276 O 0.1763 0.5549 0.89964 0.0
O277 O 0.2035 0.48183 0.81695 0.0
O278 O 0.16145 0.50052 0.82151 0.0
C279 C 0.25518 0.56522 0.82111 0.0
O280 O 0.22902 0.54983 0.90357 0.0
O281 O 0.2269 0.50567 0.88466 0.0
C282 C 0.15169 0.55132 0.88502 0.0
O283 O 0.23349 0.57952 0.82942 0.0
O284 O 0.25554 0.53877 0.82715 0.0
C285 C 0.21072 0.5163 0.73287 0.0
Fe286 Fe 0.94669 0.19935 0.35501 0.0
Fe287 Fe 1.00106 0.22412 0.31538 0.0
O288 O 0.97719 0.19585 0.32098 0.0
Fe289 Fe 0.98397 0.16385 0.29214 0.0
O290 O 0.94726 0.1542 0.2847 0.0
O291 O 0.92364 0.19108 0.30691 0.0
O292 O 0.94122 0.23655 0.34184 0.0
C293 C 0.95076 0.25201 0.31016 0.0
C294 C 0.96659 0.14505 0.376 0.0
O295 O 0.9741 0.24683 0.29158 0.0
C296 C 0.03764 0.18025 0.32145 0.0
O297 O 0.96711 0.20744 0.40556 0.0
O298 O 0.99542 0.23804 0.37371 0.0
O299 O 0.98585 0.14464 0.34619 0.0
O300 O 0.9471 0.16297 0.3745 0.0
C301 C 0.99702 0.20199 0.22562 0.0
O302 O 0.02975 0.20312 0.33895 0.0
O303 O 0.02212 0.16716 0.29376 0.0
C304 C 0.9847 0.22693 0.40905 0.0
O305 O 0.01064 0.21559 0.25566 0.0
O306 O 0.98207 0.18133 0.23698 0.0
C307 C 0.92502 0.16847 0.28458 0.0
Fe308 Fe 0.34245 0.98158 0.79952 0.0
Fe309 Fe 0.30435 0.94711 0.86207 0.0
O310 O 0.30965 0.97698 0.82717 0.0
Fe311 Fe 0.28242 1.00216 0.82088 0.0
O312 O 0.28221 0.99819 0.75952 0.0
O313 O 0.32777 0.99848 0.74797 0.0
O314 O 0.33965 0.94867 0.76891 0.0
C315 C 0.3376 0.92542 0.78898 0.0
C316 C 0.33188 0.03522 0.82863 0.0
O317 O 0.32794 0.92409 0.8294 0.0
C318 C 0.27611 0.98926 0.91164 0.0
O319 O 0.36305 0.96546 0.84611 0.0
O320 O 0.33207 0.95779 0.90044 0.0
O321 O 0.30624 0.03285 0.81781 0.0
O322 O 0.34799 0.01443 0.82834 0.0
C323 C 0.2546 0.94915 0.81673 0.0
O324 O 0.27993 0.96387 0.90168 0.0
O325 O 0.28015 0.00824 0.88242 0.0
C326 C 0.35704 0.9616 0.88807 0.0
O327 O 0.27619 0.93505 0.82601 0.0
O328 O 0.25409 0.97562 0.82195 0.0
C329 C 0.30291 1.00002 0.73305 0.0
Fe330 Fe 0.51065 0.28358 0.32293 0.0
Fe331 Fe 0.5325 0.34229 0.2967 0.0
O332 O 0.53588 0.31059 0.32779 0.0
Fe333 Fe 0.56489 0.306 0.36483 0.0
O334 O 0.57784 0.27742 0.33029 0.0
O335 O 0.53717 0.25529 0.32708 0.0
O336 O 0.51574 0.28118 0.26218 0.0
C337 C 0.51554 0.30046 0.23291 0.0
C338 C 0.5222 0.27809 0.41359 0.0
O339 O 0.51706 0.32596 0.24484 0.0
C340 C 0.54924 0.35895 0.3865 0.0
O341 O 0.48019 0.30734 0.31657 0.0
O342 O 0.49883 0.34938 0.32173 0.0
O343 O 0.54767 0.2815 0.40391 0.0
O344 O 0.50361 0.28358 0.38441 0.0
C345 C 0.58883 0.33743 0.29213 0.0
O346 O 0.54712 0.36401 0.34369 0.0
O347 O 0.55272 0.33426 0.40088 0.0
C348 C 0.47795 0.33344 0.32374 0.0
O349 O 0.56647 0.3379 0.26934 0.0
O350 O 0.58852 0.32962 0.33358 0.0
C351 C 0.56366 0.25572 0.32154 0.0
H352 H 0.41068 0.57285 0.36886 0.0
H353 H 0.43794 0.60289 0.63514 0.0
H354 H 0.35569 0.54591 0.47778 0.0
H355 H 0.46745 0.65611 0.52567 0.0
H356 H 0.41944 0.57029 0.57767 0.0
H357 H 0.44298 0.59159 0.42666 0.0
C358 C 0.40577 0.57024 0.40493 0.0
C359 C 0.38034 0.55822 0.41869 0.0
C360 C 0.4305 0.58883 0.56635 0.0
C361 C 0.41707 0.5794 0.48456 0.0
C362 C 0.44119 0.60733 0.59904 0.0
C363 C 0.45388 0.63237 0.585 0.0
C364 C 0.43289 0.5953 0.51947 0.0
C365 C 0.45743 0.63719 0.53782 0.0
C366 C 0.4241 0.58105 0.4378 0.0
C367 C 0.37492 0.55543 0.46583 0.0
N368 N 0.44675 0.61893 0.50667 0.0
N369 N 0.39302 0.56618 0.49712 0.0
H370 H 0.85524 0.46957 0.01949 0.0
H371 H 0.97366 0.36317 0.96844 0.0
H372 H 0.91188 0.44068 0.12464 0.0
H373 H 0.93641 0.41343 0.86178 0.0
H374 H 0.95637 0.39617 0.0258 0.0
H375 H 0.88867 0.45472 0.96095 0.0
C376 C 0.87498 0.46054 0.03022 0.0
C377 C 0.88061 0.45578 0.07685 0.0
C378 C 0.95252 0.40044 0.98982 0.0
C379 C 0.91874 0.43839 0.01016 0.0
C380 C 0.96235 0.38158 0.95712 0.0
C381 C 0.95602 0.38546 0.91057 0.0
C382 C 0.93558 0.42288 0.97588 0.0
C383 C 0.94156 0.40968 0.89747 0.0
C384 C 0.89412 0.45218 0.99682 0.0
C385 C 0.90663 0.44445 0.089 0.0
N386 N 0.93118 0.42716 0.93014 0.0
N387 N 0.92449 0.43552 0.05577 0.0
H388 H 0.07038 0.91155 0.63485 0.0
H389 H 0.09752 0.94162 0.36907 0.0
H390 H 0.03852 0.86058 0.52425 0.0
H391 H 0.15108 0.9697 0.47907 0.0
H392 H 0.06391 0.92458 0.42626 0.0
H393 H 0.08762 0.94531 0.57822 0.0
C394 C 0.06631 0.90787 0.59874 0.0
C395 C 0.0535 0.88304 0.58402 0.0
C396 C 0.08274 0.93507 0.43776 0.0
C397 C 0.07312 0.92138 0.51942 0.0
C398 C 0.10183 0.94489 0.40521 0.0
C399 C 0.12729 0.95655 0.41954 0.0
C400 C 0.08914 0.93726 0.48472 0.0
C401 C 0.13188 0.96031 0.46672 0.0
C402 C 0.07627 0.92705 0.56649 0.0
C403 C 0.04878 0.87926 0.53687 0.0
N404 N 0.11314 0.95038 0.49769 0.0
N405 N 0.05892 0.89806 0.50615 0.0
H406 H 0.54315 0.15599 0.97598 0.0
H407 H 0.64861 0.03664 0.02316 0.0
H408 H 0.5682 0.09822 0.86973 0.0
H409 H 0.59912 0.07333 0.13147 0.0
H410 H 0.61518 0.05432 0.96677 0.0
H411 H 0.55865 0.12252 0.03392 0.0
C412 C 0.55149 0.136 0.96493 0.0
C413 C 0.55493 0.13001 0.91812 0.0
C414 C 0.61118 0.05791 0.00292 0.0
C415 C 0.57309 0.09184 0.98407 0.0
C416 C 0.63028 0.04787 0.03505 0.0
C417 C 0.62674 0.05394 0.0818 0.0
C418 C 0.58886 0.07478 0.01765 0.0
C419 C 0.60262 0.06834 0.09563 0.0
C420 C 0.5602 0.11684 0.99799 0.0
C421 C 0.56544 0.10371 0.90554 0.0
N422 N 0.58491 0.07892 0.06353 0.0
N423 N 0.5748 0.08581 0.93838 0.0
H424 H 0.57035 0.41111 0.36885 0.0
H425 H 0.59775 0.44017 0.63512 0.0
H426 H 0.53966 0.35891 0.47877 0.0
H427 H 0.64988 0.47084 0.52512 0.0
H428 H 0.56457 0.42228 0.57791 0.0
H429 H 0.58739 0.44468 0.42599 0.0
C430 C 0.56653 0.40708 0.40493 0.0
C431 C 0.55405 0.382 0.41925 0.0
C432 C 0.58298 0.43351 0.56643 0.0
C433 C 0.57345 0.42014 0.48448 0.0
C434 C 0.6018 0.44384 0.599 0.0
C435 C 0.62676 0.45653 0.58464 0.0
C436 C 0.58913 0.43622 0.51942 0.0
C437 C 0.63106 0.46071 0.53747 0.0
C438 C 0.57637 0.42616 0.43748 0.0
C439 C 0.54965 0.3778 0.46641 0.0
N440 N 0.6126 0.45029 0.50649 0.0
N441 N 0.55964 0.39651 0.49741 0.0
H442 H 0.15018 0.53886 0.97608 0.0
H443 H 0.04334 0.65769 0.02421 0.0
H444 H 0.10129 0.57625 0.8678 0.0
H445 H 0.06826 0.59936 0.12959 0.0
H446 H 0.06017 0.62509 0.96583 0.0
H447 H 0.11679 0.55677 0.03244 0.0
C448 C 0.13203 0.55035 0.96418 0.0
C449 C 0.12861 0.55645 0.91742 0.0
C450 C 0.06143 0.6191 0.00164 0.0
C451 C 0.09073 0.57749 0.98158 0.0
C452 C 0.05193 0.63775 0.03496 0.0
C453 C 0.05488 0.63135 0.08171 0.0
C454 C 0.07457 0.59418 0.01525 0.0
C455 C 0.06581 0.60515 0.09387 0.0
C456 C 0.11294 0.56051 0.9963 0.0
C457 C 0.10469 0.57119 0.90361 0.0
N458 N 0.07588 0.58775 0.06082 0.0
N459 N 0.08697 0.58181 0.93571 0.0
H460 H 0.94242 0.09475 0.36046 0.0
H461 H 0.91445 0.07192 0.62869 0.0
H462 H 0.98016 0.14505 0.46633 0.0
H463 H 0.85832 0.04634 0.52053 0.0
H464 H 0.94844 0.08676 0.57026 0.0
H465 H 0.92226 0.06436 0.41979 0.0
C466 C 0.94745 0.09859 0.39621 0.0
C467 C 0.9632 0.12205 0.4088 0.0
C468 C 0.92888 0.07741 0.55945 0.0
C469 C 0.93958 0.08821 0.47662 0.0
C470 C 0.90954 0.06886 0.59271 0.0
C471 C 0.88339 0.05828 0.57934 0.0
C472 C 0.92213 0.07492 0.51265 0.0
C473 C 0.87808 0.05481 0.53228 0.0
C474 C 0.93568 0.08153 0.43003 0.0
C475 C 0.96842 0.12682 0.4555 0.0
N476 N 0.89717 0.06329 0.50065 0.0
N477 N 0.95636 0.11023 0.48787 0.0
H478 H 0.40918 0.94039 0.87117 0.0
H479 H 0.43878 0.91145 0.13693 0.0
H480 H 0.35531 0.96834 0.98098 0.0
H481 H 0.46541 0.85677 0.02731 0.0
H482 H 0.42031 0.94414 0.07955 0.0
H483 H 0.44182 0.92174 0.92844 0.0
C484 C 0.40459 0.94324 0.90731 0.0
C485 C 0.37935 0.95549 0.9215 0.0
C486 C 0.43073 0.92524 0.06818 0.0
C487 C 0.41648 0.93443 0.98675 0.0
C488 C 0.44137 0.90668 0.10079 0.0
C489 C 0.45321 0.88122 0.0867 0.0
C490 C 0.43237 0.91841 0.02135 0.0
C491 C 0.45601 0.876 0.03951 0.0
C492 C 0.42312 0.9325 0.93987 0.0
C493 C 0.37437 0.95862 0.96872 0.0
N494 N 0.44542 0.89434 0.00845 0.0
N495 N 0.39266 0.94791 0.99973 0.0
H496 H 0.36778 0.465 0.39732 0.0
H497 H 0.42744 0.32625 0.27892 0.0
H498 H 0.32918 0.42823 0.27803 0.0
H499 H 0.46691 0.37186 0.38892 0.0
H500 H 0.38588 0.35662 0.28676 0.0
H501 H 0.39789 0.42414 0.40444 0.0
C502 C 0.36526 0.44791 0.37319 0.0
C503 C 0.34604 0.44995 0.33706 0.0
C504 C 0.40344 0.35954 0.30975 0.0
C505 C 0.3813 0.4033 0.34379 0.0
C506 C 0.42701 0.34211 0.3055 0.0
C507 C 0.4506 0.34672 0.33321 0.0
C508 C 0.40356 0.38142 0.3422 0.0
C509 C 0.44921 0.36775 0.36669 0.0
C510 C 0.3826 0.42461 0.37702 0.0
C511 C 0.34366 0.42729 0.30657 0.0
N512 N 0.42627 0.38434 0.37 0.0
N513 N 0.36151 0.40506 0.31008 0.0
H514 H 0.08382 0.32802 0.77733 0.0
H515 H 0.1414 0.46836 0.89255 0.0
H516 H 0.04403 0.37331 0.88741 0.0
H517 H 0.18208 0.42979 0.77663 0.0
H518 H 0.11151 0.42742 0.9005 0.0
H519 H 0.12515 0.35866 0.78507 0.0
C520 C 0.08417 0.34382 0.804 0.0
C521 C 0.06056 0.34828 0.83174 0.0
C522 C 0.12718 0.42752 0.87363 0.0
C523 C 0.10726 0.38339 0.84047 0.0
C524 C 0.14436 0.45089 0.86929 0.0
C525 C 0.16414 0.45241 0.83389 0.0
C526 C 0.12919 0.4056 0.84158 0.0
C527 C 0.16713 0.42927 0.80456 0.0
C528 C 0.1076 0.36144 0.80817 0.0
C529 C 0.06179 0.36929 0.86524 0.0
N530 N 0.14943 0.40694 0.8085 0.0
N531 N 0.08456 0.38611 0.8684 0.0
H532 H 0.18684 0.08216 0.27988 0.0
H533 H 0.0588 0.16118 0.40263 0.0
H534 H 0.14008 0.04812 0.39343 0.0
H535 H 0.07885 0.17076 0.25926 0.0
H536 H 0.09962 0.13019 0.41135 0.0
H537 H 0.1581 0.12493 0.28404 0.0
C538 C 0.17114 0.08408 0.30654 0.0
C539 C 0.16571 0.06166 0.33629 0.0
C540 C 0.09551 0.13974 0.3783 0.0
C541 C 0.13301 0.11023 0.34135 0.0
C542 C 0.07245 0.15761 0.37348 0.0
C543 C 0.06572 0.16862 0.33028 0.0
C544 C 0.112 0.13315 0.33972 0.0
C545 C 0.08356 0.16278 0.2932 0.0
C546 C 0.15464 0.10832 0.30869 0.0
C547 C 0.14482 0.06496 0.36978 0.0
N548 N 0.1058 0.14532 0.29866 0.0
N549 N 0.12916 0.08869 0.3713 0.0
H550 H 0.32549 0.08502 0.78166 0.0
H551 H 0.46482 0.14398 0.8979 0.0
H552 H 0.36892 0.04733 0.89559 0.0
H553 H 0.42752 0.18274 0.77925 0.0
H554 H 0.42352 0.11463 0.90656 0.0
H555 H 0.35617 0.12635 0.78841 0.0
C556 C 0.34088 0.08584 0.80893 0.0
C557 C 0.34481 0.06276 0.83803 0.0
C558 C 0.42396 0.12981 0.87896 0.0
C559 C 0.38 0.10952 0.84567 0.0
C560 C 0.44753 0.1467 0.87424 0.0
C561 C 0.44953 0.16576 0.83787 0.0
C562 C 0.40234 0.13135 0.84633 0.0
C563 C 0.42662 0.1684 0.80798 0.0
C564 C 0.35852 0.10928 0.81254 0.0
C565 C 0.36531 0.06463 0.87231 0.0
N566 N 0.40412 0.15096 0.81232 0.0
N567 N 0.38219 0.08739 0.8749 0.0
H568 H 0.96326 0.64341 0.10301 0.0
H569 H 0.82572 0.58059 0.22105 0.0
H570 H 0.92635 0.68028 0.22371 0.0
H571 H 0.87273 0.54186 0.11184 0.0
H572 H 0.85532 0.62271 0.21358 0.0
H573 H 0.92296 0.61255 0.09574 0.0
C574 C 0.94622 0.64543 0.12738 0.0
C575 C 0.94808 0.66439 0.16394 0.0
C576 C 0.85873 0.60517 0.1907 0.0
C577 C 0.90213 0.62821 0.15706 0.0
C578 C 0.84174 0.58126 0.19474 0.0
C579 C 0.84694 0.55772 0.16716 0.0
C580 C 0.88075 0.60546 0.15853 0.0
C581 C 0.86816 0.55948 0.13401 0.0
C582 C 0.92326 0.62764 0.12348 0.0
C583 C 0.92553 0.66606 0.19479 0.0
N584 N 0.88429 0.58275 0.13086 0.0
N585 N 0.90365 0.64779 0.19118 0.0
H586 H 0.92793 0.82773 0.72502 0.0
H587 H 0.87146 0.96633 0.60308 0.0
H588 H 0.96703 0.86937 0.61056 0.0
H589 H 0.82986 0.92978 0.71982 0.0
H590 H 0.901 0.92501 0.59704 0.0
H591 H 0.88693 0.85876 0.71629 0.0
C592 C 0.92748 0.8428 0.69725 0.0
C593 C 0.95082 0.84612 0.66849 0.0
C594 C 0.88519 0.92562 0.62367 0.0
C595 C 0.9045 0.88169 0.65862 0.0
C596 C 0.8682 0.94922 0.62691 0.0
C597 C 0.84826 0.95144 0.66197 0.0
C598 C 0.88284 0.90418 0.6565 0.0
C599 C 0.84492 0.92872 0.69208 0.0
C600 C 0.90424 0.86063 0.69249 0.0
C601 C 0.94947 0.86623 0.63355 0.0
N602 N 0.86244 0.90619 0.68923 0.0
N603 N 0.92692 0.8833 0.62986 0.0
H604 H 0.54493 0.87021 0.10754 0.0
H605 H 0.68524 0.92896 0.22041 0.0
H606 H 0.58416 0.8302 0.22337 0.0
H607 H 0.64153 0.96622 0.10644 0.0
H608 H 0.65457 0.88757 0.21425 0.0
H609 H 0.58599 0.89978 0.0981 0.0
C610 C 0.56256 0.86731 0.13046 0.0
C611 C 0.56118 0.84782 0.16628 0.0
C612 C 0.65218 0.90453 0.18993 0.0
C613 C 0.60817 0.88243 0.15685 0.0
C614 C 0.66983 0.92799 0.1932 0.0
C615 C 0.66582 0.95094 0.16387 0.0
C616 C 0.63058 0.90419 0.15701 0.0
C617 C 0.64524 0.94895 0.12977 0.0
C618 C 0.58601 0.88431 0.12526 0.0
C619 C 0.58455 0.84492 0.19512 0.0
N620 N 0.62833 0.92621 0.12756 0.0
N621 N 0.60695 0.86245 0.19035 0.0
H622 H 0.58342 0.6862 0.72302 0.0
H623 H 0.64147 0.54675 0.60505 0.0
H624 H 0.54367 0.64144 0.61237 0.0
H625 H 0.6816 0.58428 0.72229 0.0
H626 H 0.61154 0.58775 0.59783 0.0
H627 H 0.62477 0.65561 0.71478 0.0
C628 C 0.58376 0.67051 0.69616 0.0
C629 C 0.56013 0.6662 0.66841 0.0
C630 C 0.62713 0.58743 0.6248 0.0
C631 C 0.60692 0.63117 0.65906 0.0
C632 C 0.64436 0.56404 0.62868 0.0
C633 C 0.66399 0.5622 0.66423 0.0
C634 C 0.62894 0.60903 0.65746 0.0
C635 C 0.66681 0.58508 0.69416 0.0
C636 C 0.60721 0.65293 0.6917 0.0
C637 C 0.56141 0.64535 0.63461 0.0
N638 N 0.64908 0.60741 0.69066 0.0
N639 N 0.58421 0.62857 0.63115 0.0
H640 H 0.22443 0.47841 0.96883 0.0
H641 H 0.33512 0.52966 0.15737 0.0
H642 H 0.27235 0.55454 0.95701 0.0
H643 H 0.26042 0.48375 0.19254 0.0
H644 H 0.32103 0.5282 0.07624 0.0
H645 H 0.24611 0.47001 0.0444 0.0
C646 C 0.23974 0.4931 0.9819 0.0
C647 C 0.24637 0.51736 0.95718 0.0
C648 C 0.30801 0.51807 0.10177 0.0
C649 C 0.27148 0.50768 0.0423 0.0
C650 C 0.31611 0.51876 0.14788 0.0
C651 C 0.29874 0.50707 0.18157 0.0
C652 C 0.28268 0.50518 0.08942 0.0
C653 C 0.27421 0.49332 0.16755 0.0
C654 C 0.25202 0.48835 0.02484 0.0
C655 C 0.26635 0.53579 0.97543 0.0
N656 N 0.26683 0.49284 0.12252 0.0
N657 N 0.27821 0.53058 0.01688 0.0
H658 H 0.99573 0.33433 0.64938 0.0
H659 H 0.98061 0.19994 0.49087 0.0
H660 H 0.00713 0.24948 0.69698 0.0
H661 H 1.00185 0.28009 0.43231 0.0
H662 H 0.98737 0.21938 0.56738 0.0
H663 H 0.99588 0.31676 0.56973 0.0
C664 C 0.99859 0.31217 0.6432 0.0
C665 C 1.00112 0.29338 0.6801 0.0
C666 C 0.99079 0.23274 0.53787 0.0
C667 C 1.00096 0.27326 0.58961 0.0
C668 C 0.98683 0.22165 0.49415 0.0
C669 C 0.99067 0.23842 0.4552 0.0
C670 C 0.99818 0.26102 0.54299 0.0
C671 C 0.99883 0.26642 0.46153 0.0
C672 C 0.99865 0.30218 0.59782 0.0
C673 C 1.00477 0.26484 0.66995 0.0
N674 N 1.00203 0.27699 0.50472 0.0
N675 N 1.00428 0.25572 0.62592 0.0
H676 H 0.23183 0.02265 0.93776 0.0
H677 H 0.26267 1.00009 0.20256 0.0
H678 H 0.29738 0.96978 0.99071 0.0
H679 H 0.17664 1.00373 0.15712 0.0
H680 H 0.27798 1.00256 0.12358 0.0
H681 H 0.21354 0.0282 0.0169 0.0
C682 C 0.24256 0.01267 0.96613 0.0
C683 C 0.26617 0.99586 0.95817 0.0
C684 C 0.25574 1.00299 0.13083 0.0
C685 C 0.24576 1.00222 0.0474 0.0
C686 C 0.24684 1.0016 0.17606 0.0
C687 C 0.21816 1.00129 0.1868 0.0
C688 C 0.23603 1.00429 0.09545 0.0
C689 C 0.19892 1.00363 0.15044 0.0
C690 C 0.23201 0.0156 0.01088 0.0
C691 C 0.27916 0.98294 0.9956 0.0
N692 N 0.20821 1.0049 0.10608 0.0
N693 N 0.26891 0.98653 0.03856 0.0
H694 H 0.55121 0.23578 0.45269 0.0
H695 H 0.48297 0.25155 0.69468 0.0
H696 H 0.47749 0.28656 0.47134 0.0
H697 H 0.52676 0.17629 0.65558 0.0
H698 H 0.48011 0.26497 0.61379 0.0
H699 H 0.54268 0.21384 0.52705 0.0
C700 C 0.53308 0.24215 0.47246 0.0
C701 C 0.51515 0.26319 0.45629 0.0
C702 C 0.48988 0.24528 0.62281 0.0
C703 C 0.50547 0.2384 0.54157 0.0
C704 C 0.49165 0.23767 0.66893 0.0
C705 C 0.50538 0.2129 0.68174 0.0
C706 C 0.50253 0.22836 0.5894 0.0
C707 C 0.51604 0.19556 0.64708 0.0
C708 C 0.52812 0.22948 0.51469 0.0
C709 C 0.49179 0.27045 0.48282 0.0
N710 N 0.51488 0.2039 0.60245 0.0
N711 N 0.48788 0.25843 0.52475 0.0
H712 H 0.83306 0.47312 0.3431 0.0
H713 H 0.72432 0.53167 0.52927 0.0
H714 H 0.76119 0.52297 0.30655 0.0
H715 H 0.76902 0.45381 0.54459 0.0
H716 H 0.74636 0.53787 0.45342 0.0
H717 H 0.81849 0.47547 0.42403 0.0
C718 C 0.81456 0.48498 0.35224 0.0
C719 C 0.79812 0.49761 0.31823 0.0
C720 C 0.75146 0.51961 0.47376 0.0
C721 C 0.78155 0.50055 0.4101 0.0
C722 C 0.73897 0.51611 0.51687 0.0
C723 C 0.7446 0.49203 0.54273 0.0
C724 C 0.7701 0.49919 0.45721 0.0
C725 C 0.76378 0.47246 0.52532 0.0
C726 C 0.80619 0.48619 0.39822 0.0
C727 C 0.77424 0.51264 0.33177 0.0
N728 N 0.77585 0.47646 0.48365 0.0
N729 N 0.76661 0.51364 0.37667 0.0
H730 H 0.03105 0.74951 0.80279 0.0
H731 H 0.98379 0.76995 0.06179 0.0
H732 H 0.99893 0.8298 0.84594 0.0
H733 H 0.05357 0.71896 0.01905 0.0
H734 H 0.97999 0.78803 0.98233 0.0
H735 H 0.02978 0.73358 0.88164 0.0
C736 C 0.02355 0.76384 0.82887 0.0
C737 C 0.0151 0.79112 0.81761 0.0
C738 C 0.99603 0.77286 0.99069 0.0
C739 C 0.01361 0.77271 0.90868 0.0
C740 C 0.99802 0.76239 0.03563 0.0
C741 C 0.01902 0.74299 0.04671 0.0
C742 C 0.01472 0.76319 0.95696 0.0
C743 C 0.03717 0.73399 0.01194 0.0
C744 C 0.02294 0.75469 0.87401 0.0
C745 C 0.00579 0.80868 0.85323 0.0
N746 N 0.0345 0.74403 0.96871 0.0
N747 N 1.00518 0.79913 0.89745 0.0
H748 H 0.67957 1.0033 0.34242 0.0
H749 H 0.80003 0.05082 0.51022 0.0
H750 H 0.76343 0.02316 0.29749 0.0
H751 H 0.74033 0.98953 0.5571 0.0
H752 H 0.78226 0.04555 0.43229 0.0
H753 H 0.69682 1.00214 0.42246 0.0
C754 C 0.70149 0.00725 0.34923 0.0
C755 C 0.72001 0.01342 0.31312 0.0
C756 C 0.77313 0.03303 0.45945 0.0
C757 C 0.73956 0.01238 0.40374 0.0
C758 C 0.78327 0.03604 0.50385 0.0
C759 C 0.77171 0.02043 0.53978 0.0
C760 C 0.75079 0.01472 0.45089 0.0
C761 C 0.74993 1.00165 0.52993 0.0
C762 C 0.71129 0.00643 0.39471 0.0
C763 C 0.74826 0.01828 0.32392 0.0
N764 N 0.73983 0.99951 0.48623 0.0
N765 N 0.75701 0.01793 0.36807 0.0
H766 H 0.45419 0.73921 0.05281 0.0
H767 H 0.52573 0.75373 0.81135 0.0
H768 H 0.53077 0.78595 0.03694 0.0
H769 H 0.47828 0.68026 0.84782 0.0
H770 H 0.527 0.76732 0.89241 0.0
H771 H 0.46124 0.7188 0.97673 0.0
C772 C 0.4726 0.74508 0.03331 0.0
C773 C 0.49186 0.76444 0.05101 0.0
C774 C 0.51669 0.74802 0.88277 0.0
C775 C 0.49984 0.74137 0.96363 0.0
C776 C 0.51586 0.74028 0.83655 0.0
C777 C 0.50177 0.71587 0.82287 0.0
C778 C 0.50272 0.73161 0.91547 0.0
C779 C 0.48944 0.69918 0.85693 0.0
C780 C 0.47667 0.73327 0.99003 0.0
C781 C 0.51546 0.77108 0.02449 0.0
N782 N 0.48977 0.70761 0.90161 0.0
N783 N 0.51857 0.75991 0.98171 0.0
H784 H 0.763 0.50054 0.79886 0.0
H785 H 0.73445 0.52145 0.06481 0.0
H786 H 0.67736 0.50583 0.84595 0.0
H787 H 0.7978 0.46681 0.00935 0.0
H788 H 0.71593 0.52837 0.98613 0.0
H789 H 0.77882 0.50185 0.87766 0.0
C790 C 0.74737 0.50223 0.82568 0.0
C791 C 0.71862 0.50273 0.81544 0.0
C792 C 0.73398 0.51507 0.99151 0.0
C793 C 0.73709 0.50437 0.90657 0.0
C794 C 0.74467 0.51136 0.03601 0.0
C795 C 0.7677 0.49366 0.04314 0.0
C796 C 0.74704 0.50155 0.9544 0.0
C797 C 0.78003 0.48065 0.00513 0.0
C798 C 0.75657 0.50293 0.8708 0.0
C799 C 0.69966 0.50515 0.85222 0.0
N800 N 0.76967 0.48499 0.96244 0.0
N801 N 0.70924 0.50576 0.89644 0.0
H802 H 0.0279 0.67529 0.34455 0.0
H803 H 0.9763 0.78562 0.53361 0.0
H804 H 0.98049 0.74914 0.30996 0.0
H805 H 0.05331 0.73898 0.54389 0.0
H806 H 0.96758 0.76356 0.45839 0.0
H807 H 0.02669 0.68948 0.42567 0.0
C808 C 0.0167 0.69411 0.35419 0.0
C809 C 1.00454 0.71124 0.32064 0.0
C810 C 0.98619 0.75801 0.47755 0.0
C811 C 1.00296 0.72742 0.41277 0.0
C812 C 0.99112 0.77051 0.52028 0.0
C813 C 0.01572 0.76436 0.54446 0.0
C814 C 1.00567 0.73881 0.45976 0.0
C815 C 0.03431 0.74462 0.5259 0.0
C816 C 0.01617 0.70227 0.40028 0.0
C817 C 0.99043 0.73554 0.33483 0.0
N818 N 0.02891 0.73254 0.48467 0.0
N819 N 0.99011 0.743 0.37985 0.0
H820 H 0.76958 0.05963 0.04085 0.0
H821 H 0.76151 0.98432 0.80274 0.0
H822 H 0.72622 0.98093 0.0272 0.0
H823 H 0.8334 0.03368 0.8407 0.0
H824 H 0.74693 0.98328 0.88333 0.0
H825 H 0.79176 0.05179 0.96635 0.0
C826 C 0.76479 0.04062 0.02213 0.0
C827 C 0.74586 0.02098 0.03994 0.0
C828 C 0.76615 0.99392 0.87416 0.0
C829 C 0.77101 0.01204 0.95448 0.0
C830 C 0.77444 0.9946 0.82823 0.0
C831 C 0.79864 0.00923 0.81514 0.0
C832 C 0.78174 0.00861 0.90705 0.0
C833 C 0.81467 0.02211 0.84945 0.0
C834 C 0.77764 0.03608 0.97982 0.0
C835 C 0.74068 0.99657 0.01456 0.0
N836 N 0.80564 0.02197 0.89381 0.0
N837 N 0.75284 0.99299 0.97262 0.0
H838 H 0.52809 0.76088 0.312 0.0
H839 H 0.45422 0.77506 0.55118 0.0
H840 H 0.48069 0.83457 0.34756 0.0
H841 H 0.53124 0.72875 0.5377 0.0
H842 H 0.46221 0.79574 0.47556 0.0
H843 H 0.52885 0.7474 0.39312 0.0
C844 C 0.51817 0.77442 0.33703 0.0
C845 C 0.50421 0.79884 0.32308 0.0
C846 C 0.47754 0.78132 0.48932 0.0
C847 C 0.50453 0.78321 0.41569 0.0
C848 C 0.47292 0.76935 0.53231 0.0
C849 C 0.49204 0.75002 0.55052 0.0
C850 C 0.5011 0.7734 0.4637 0.0
C851 C 0.51603 0.74358 0.52483 0.0
C852 C 0.51869 0.76675 0.38328 0.0
C853 C 0.49177 0.81565 0.3569 0.0
N854 N 0.51967 0.75489 0.48227 0.0
N855 N 0.49176 0.80725 0.40159 0.0
H856 H 0.17824 0.50494 0.65584 0.0
H857 H 0.29819 0.54942 0.48505 0.0
H858 H 0.26306 0.52231 0.69858 0.0
H859 H 0.23691 0.48929 0.43964 0.0
H860 H 0.28096 0.54459 0.56338 0.0
H861 H 0.1947 0.50333 0.57535 0.0
C862 C 0.2002 0.50826 0.64845 0.0
C863 C 0.21923 0.51387 0.68407 0.0
C864 C 0.27136 0.53223 0.53645 0.0
C865 C 0.23789 0.5123 0.59297 0.0
C866 C 0.28119 0.53499 0.49183 0.0
C867 C 0.26904 0.51957 0.45621 0.0
C868 C 0.24874 0.51438 0.54556 0.0
C869 C 0.24696 0.50125 0.46657 0.0
C870 C 0.20954 0.50718 0.60273 0.0
C871 C 0.2475 0.51792 0.67254 0.0
N872 N 0.23717 0.49936 0.51051 0.0
N873 N 0.25583 0.51732 0.62817 0.0
H874 H 0.96544 0.18295 0.15388 0.0
H875 H 0.03213 0.28411 0.96386 0.0
H876 H 0.03228 0.24052 0.18592 0.0
H877 H 0.94914 0.24881 0.9566 0.0
H878 H 0.03811 0.2621 0.03988 0.0
H879 H 0.96532 0.20024 0.07509 0.0
C880 C 0.98032 0.19901 0.14428 0.0
C881 C 0.99876 0.21043 0.17673 0.0
C882 C 0.01869 0.25918 0.02134 0.0
C883 C 0.99864 0.23041 0.08639 0.0
C884 C 0.01532 0.27162 0.97807 0.0
C885 C 0.99003 0.26848 0.95413 0.0
C886 C 0.99682 0.24311 0.04005 0.0
C887 C 0.96887 0.2521 0.97403 0.0
C888 C 0.98015 0.20897 0.09929 0.0
C889 C 0.01756 0.23125 0.16212 0.0
N890 N 0.97277 0.24003 0.01565 0.0
N891 N 0.01696 0.24067 0.118 0.0
H892 H 0.22523 0.03252 0.46927 0.0
H893 H 0.33287 0.97929 0.66057 0.0
H894 H 0.26843 0.9534 0.46118 0.0
H895 H 0.26006 0.02872 0.69358 0.0
H896 H 0.31857 0.97953 0.57944 0.0
H897 H 0.24684 0.04066 0.54487 0.0
C898 C 0.23945 0.01705 0.48322 0.0
C899 C 0.24481 0.99211 0.45943 0.0
C900 C 0.30604 0.99068 0.60449 0.0
C901 C 0.26989 1.00151 0.54463 0.0
C902 C 0.31427 0.99071 0.65054 0.0
C903 C 0.29746 1.0038 0.68363 0.0
C904 C 0.2812 1.0043 0.5916 0.0
C905 C 0.27341 0.01813 0.66905 0.0
C906 C 0.2517 0.02168 0.52616 0.0
C907 C 0.26342 0.97271 0.47882 0.0
N908 N 0.26592 0.01795 0.62406 0.0
N909 N 0.27534 0.97784 0.52028 0.0
H910 H 0.55322 0.21498 0.98417 0.0
H911 H 0.50214 0.33231 0.156 0.0
H912 H 0.48864 0.27203 0.94034 0.0
H913 H 0.52599 0.24901 0.19822 0.0
H914 H 0.5016 0.31588 0.07539 0.0
H915 H 0.54861 0.23258 0.06231 0.0
C916 C 0.53793 0.23118 0.99121 0.0
C917 C 0.52118 0.24201 0.95605 0.0
C918 C 0.50667 0.30135 0.10267 0.0
C919 C 0.51613 0.26268 0.04528 0.0
C920 C 0.50715 0.31069 0.14845 0.0
C921 C 0.51413 0.29204 0.18396 0.0
C922 C 0.51381 0.27345 0.09276 0.0
C923 C 0.52038 0.26421 0.17226 0.0
C924 C 0.53528 0.2412 0.03575 0.0
C925 C 0.50169 0.26301 0.96686 0.0
N926 N 0.5203 0.25591 0.12785 0.0
N927 N 0.49987 0.27298 0.0107 0.0
H928 H 0.25348 0.61512 0.27248 0.0
H929 H 0.08665 0.62766 0.2816 0.0
H930 H 0.20106 0.54745 0.31968 0.0
H931 H 0.13959 0.68098 0.19945 0.0
H932 H 0.12822 0.60107 0.30533 0.0
H933 H 0.21177 0.64207 0.25379 0.0
C934 C 0.23315 0.60587 0.27885 0.0
C935 C 0.23081 0.57892 0.29766 0.0
C936 C 0.13067 0.6187 0.28234 0.0
C937 C 0.18273 0.60998 0.27663 0.0
C938 C 0.10703 0.63406 0.26916 0.0
C939 C 0.10966 0.65657 0.23843 0.0
C940 C 0.15711 0.62618 0.26515 0.0
C941 C 0.13655 0.66373 0.22302 0.0
C942 C 0.20931 0.62131 0.26813 0.0
C943 C 0.20385 0.56806 0.30497 0.0
N944 N 0.15915 0.64861 0.23651 0.0
N945 N 0.18082 0.5837 0.29467 0.0
H946 H 0.82846 0.14317 0.69539 0.0
H947 H 0.96341 0.20404 0.82154 0.0
H948 H 0.88268 0.0912 0.77754 0.0
H949 H 0.89431 0.2553 0.77646 0.0
H950 H 0.93624 0.16213 0.80154 0.0
H951 H 0.85392 0.18442 0.72176 0.0
C952 C 0.84556 0.14049 0.71941 0.0
C953 C 0.85345 0.11372 0.73429 0.0
C954 C 0.92707 0.18259 0.79623 0.0
C955 C 0.88311 0.16087 0.76398 0.0
C956 C 0.94262 0.2065 0.80732 0.0
C957 C 0.93113 0.23323 0.80068 0.0
C958 C 0.90005 0.18551 0.77779 0.0
C959 C 0.90401 0.23515 0.78236 0.0
C960 C 0.86012 0.16404 0.73442 0.0
C961 C 0.87579 0.11148 0.76544 0.0
N962 N 0.8895 0.21167 0.77139 0.0
N963 N 0.89008 0.13474 0.77886 0.0
H964 H 0.25573 0.89424 0.28107 0.0
H965 H 0.42246 0.88108 0.28721 0.0
H966 H 0.30868 0.96136 0.3288 0.0
H967 H 0.36956 0.83055 0.20037 0.0
H968 H 0.38097 0.90706 0.31293 0.0
H969 H 0.29729 0.86739 0.2606 0.0
C970 C 0.27613 0.90336 0.2873 0.0
C971 C 0.27868 0.93015 0.30667 0.0
C972 C 0.3785 0.89017 0.28846 0.0
C973 C 0.32653 0.89925 0.28355 0.0
C974 C 0.40211 0.87516 0.27408 0.0
C975 C 0.39948 0.85361 0.2415 0.0
C976 C 0.35206 0.88329 0.27065 0.0
C977 C 0.3726 0.84706 0.22536 0.0
C978 C 0.29987 0.888 0.2755 0.0
C979 C 0.30572 0.94086 0.31372 0.0
N980 N 0.34999 0.8618 0.2401 0.0
N981 N 0.32863 0.92531 0.30238 0.0
H982 H 0.61546 0.2562 0.76995 0.0
H983 H 0.63009 0.42272 0.78186 0.0
H984 H 0.54893 0.30913 0.82003 0.0
H985 H 0.68024 0.37028 0.6936 0.0
H986 H 0.60376 0.38115 0.80635 0.0
H987 H 0.64261 0.29776 0.75076 0.0
C988 C 0.60651 0.27661 0.77686 0.0
C989 C 0.57982 0.27916 0.79658 0.0
C990 C 0.62066 0.3788 0.78187 0.0
C991 C 0.61108 0.32699 0.77505 0.0
C992 C 0.63588 0.40243 0.76825 0.0
C993 C 0.65739 0.39994 0.73559 0.0
C994 C 0.6273 0.35251 0.76319 0.0
C995 C 0.66377 0.37318 0.7187 0.0
C996 C 0.62205 0.30034 0.76585 0.0
C997 C 0.56933 0.30619 0.80459 0.0
N998 N 0.64882 0.35057 0.73267 0.0
N999 N 0.58506 0.3291 0.79404 0.0
H1000 H 0.73842 0.39344 0.15118 0.0
H1001 H 0.62384 0.37076 0.34104 0.0
H1002 H 0.71649 0.46004 0.24449 0.0
H1003 H 0.60967 0.33937 0.20405 0.0
H1004 H 0.66369 0.39782 0.31245 0.0
H1005 H 0.69661 0.36758 0.17576 0.0
C1006 C 0.72478 0.4026 0.17683 0.0
C1007 C 0.73085 0.4289 0.19591 0.0
C1008 C 0.65187 0.38496 0.28873 0.0
C1009 C 0.68355 0.39925 0.22462 0.0
C1010 C 0.62933 0.36932 0.305 0.0
C1011 C 0.6136 0.35265 0.27483 0.0
C1012 C 0.65922 0.38339 0.24221 0.0
C1013 C 0.62134 0.35194 0.22835 0.0
C1014 C 0.70094 0.38792 0.19058 0.0
C1015 C 0.71244 0.43989 0.22882 0.0
N1016 N 0.64389 0.36686 0.21346 0.0
N1017 N 0.6898 0.42482 0.24268 0.0
H1018 H 0.11635 0.73954 0.64952 0.0
H1019 H 0.13905 0.62466 0.83818 0.0
H1020 H 0.04854 0.71506 0.73863 0.0
H1021 H 0.1721 0.61108 0.70208 0.0
H1022 H 0.11141 0.66391 0.80881 0.0
H1023 H 0.14268 0.69801 0.6741 0.0
C1024 C 0.10701 0.72539 0.6742 0.0
C1025 C 0.08024 0.73069 0.69217 0.0
C1026 C 0.12476 0.65236 0.78546 0.0
C1027 C 0.11045 0.68374 0.72098 0.0
C1028 C 0.14074 0.63017 0.80218 0.0
C1029 C 0.15805 0.61478 0.77249 0.0
C1030 C 0.12664 0.65972 0.73898 0.0
C1031 C 0.15905 0.62251 0.72602 0.0
C1032 C 0.12197 0.70171 0.68797 0.0
C1033 C 0.06905 0.71165 0.72387 0.0
N1034 N 0.1438 0.64474 0.71071 0.0
N1035 N 0.0844 0.68922 0.73786 0.0
H1036 H 0.75537 0.12151 0.2085 0.0
H1037 H 0.9218 0.12025 0.23486 0.0
H1038 H 0.80707 0.04919 0.1821 0.0
H1039 H 0.87019 0.18702 0.28798 0.0
H1040 H 0.88004 0.09637 0.20797 0.0
H1041 H 0.79707 0.14762 0.23143 0.0
C1042 C 0.77549 0.1111 0.20741 0.0
C1043 C 0.77768 0.08305 0.1932 0.0
C1044 C 0.87777 0.11627 0.22538 0.0
C1045 C 0.82554 0.113 0.21932 0.0
C1046 C 0.90167 0.13006 0.24068 0.0
C1047 C 0.89959 0.15568 0.26416 0.0
C1048 C 0.85137 0.1281 0.23327 0.0
C1049 C 0.87284 0.16731 0.27019 0.0
C1050 C 0.79927 0.12606 0.22061 0.0
C1051 C 0.80431 0.0707 0.1928 0.0
N1052 N 0.84974 0.15336 0.255 0.0
N1053 N 0.82717 0.08577 0.20552 0.0
H1054 H 0.37797 0.92339 0.7217 0.0
H1055 H 0.39616 0.75751 0.73487 0.0
H1056 H 0.33017 0.87073 0.81306 0.0
H1057 H 0.46095 0.81154 0.68211 0.0
H1058 H 0.36869 0.79859 0.75566 0.0
H1059 H 0.40503 0.88231 0.69759 0.0
C1060 C 0.37287 0.90315 0.73619 0.0
C1061 C 0.35175 0.9005 0.76952 0.0
C1062 C 0.38894 0.80152 0.73967 0.0
C1063 C 0.38274 0.85356 0.74225 0.0
C1064 C 0.40465 0.77807 0.72772 0.0
C1065 C 0.43092 0.78109 0.70671 0.0
C1066 C 0.3993 0.82834 0.73005 0.0
C1067 C 0.44089 0.80827 0.6985 0.0
C1068 C 0.38852 0.8798 0.72273 0.0
C1069 C 0.34628 0.87378 0.7874 0.0
N1070 N 0.42496 0.8309 0.7099 0.0
N1071 N 0.36164 0.8514 0.77353 0.0
H1072 H 0.86894 0.32965 0.79975 0.0
H1073 H 0.80817 0.46442 0.67301 0.0
H1074 H 0.92073 0.38247 0.71488 0.0
H1075 H 0.75677 0.39594 0.72009 0.0
H1076 H 0.85005 0.43699 0.69238 0.0
H1077 H 0.82776 0.35543 0.77407 0.0
C1078 C 0.87159 0.3465 0.77524 0.0
C1079 C 0.89829 0.35389 0.75937 0.0
C1080 C 0.82956 0.42802 0.69827 0.0
C1081 C 0.85121 0.38397 0.7305 0.0
C1082 C 0.80568 0.44372 0.68756 0.0
C1083 C 0.77891 0.43247 0.69492 0.0
C1084 C 0.82659 0.40109 0.71707 0.0
C1085 C 0.77694 0.40545 0.71362 0.0
C1086 C 0.84807 0.36125 0.76064 0.0
C1087 C 0.90049 0.37595 0.72768 0.0
N1088 N 0.8004 0.39081 0.72422 0.0
N1089 N 0.87727 0.39046 0.71467 0.0
H1090 H 0.18132 0.86921 0.30898 0.0
H1091 H 0.04497 0.80927 0.18494 0.0
H1092 H 0.1281 0.92124 0.22524 0.0
H1093 H 0.11315 0.7574 0.23173 0.0
H1094 H 0.07266 0.85097 0.20444 0.0
H1095 H 0.15471 0.82822 0.28468 0.0
C1096 C 0.1642 0.87195 0.28502 0.0
C1097 C 0.15698 0.89867 0.26903 0.0
C1098 C 0.08149 0.83042 0.21033 0.0
C1099 C 0.12593 0.8518 0.24176 0.0
C1100 C 0.06562 0.80664 0.19958 0.0
C1101 C 0.07674 0.77978 0.20669 0.0
C1102 C 0.10846 0.82727 0.22891 0.0
C1103 C 0.10373 0.77764 0.22546 0.0
C1104 C 0.14896 0.84854 0.27122 0.0
C1105 C 0.13453 0.90098 0.23809 0.0
N1106 N 0.11855 0.801 0.23603 0.0
N1107 N 0.11958 0.87787 0.22584 0.0
H1108 H 0.703 0.04676 0.67783 0.0
H1109 H 0.64091 0.18339 0.79826 0.0
H1110 H 0.75338 0.11753 0.71831 0.0
H1111 H 0.58892 0.12668 0.72082 0.0
H1112 H 0.68225 0.15787 0.77246 0.0
H1113 H 0.66076 0.07355 0.69761 0.0
C1114 C 0.70521 0.06783 0.69102 0.0
C1115 C 0.73182 0.07988 0.69639 0.0
C1116 C 0.66185 0.15111 0.76068 0.0
C1117 C 0.68365 0.11057 0.71904 0.0
C1118 C 0.63822 0.16571 0.77537 0.0
C1119 C 0.61141 0.15719 0.76163 0.0
C1120 C 0.65878 0.12741 0.73259 0.0
C1121 C 0.60922 0.1341 0.73195 0.0
C1122 C 0.68109 0.08316 0.70199 0.0
C1123 C 0.73336 0.10736 0.71341 0.0
N1124 N 0.63258 0.11978 0.71882 0.0
N1125 N 0.7097 0.12165 0.72428 0.0
H1126 H 0.46563 0.70221 0.18466 0.0
H1127 H 0.32706 0.64131 0.30114 0.0
H1128 H 0.39668 0.75334 0.23086 0.0
H1129 H 0.3837 0.58929 0.22348 0.0
H1130 H 0.35371 0.68244 0.27797 0.0
H1131 H 0.43795 0.66021 0.20247 0.0
C1132 C 0.44481 0.70461 0.19882 0.0
C1133 C 0.43346 0.73134 0.20626 0.0
C1134 C 0.36022 0.66209 0.26556 0.0
C1135 C 0.40175 0.68355 0.22642 0.0
C1136 C 0.34495 0.6386 0.27869 0.0
C1137 C 0.35315 0.61185 0.26419 0.0
C1138 C 0.38423 0.6589 0.2382 0.0
C1139 C 0.37653 0.60957 0.23515 0.0
C1140 C 0.42896 0.68067 0.2086 0.0
C1141 C 0.40628 0.7332 0.22436 0.0
N1142 N 0.39148 0.63279 0.2235 0.0
N1143 N 0.39146 0.7097 0.23389 0.0
H1144 H 0.40265 0.67203 0.80528 0.0
H1145 H 0.29599 0.54784 0.76194 0.0
H1146 H 0.3881 0.63929 0.66928 0.0
H1147 H 0.27328 0.61621 0.85122 0.0
H1148 H 0.33775 0.57417 0.73798 0.0
H1149 H 0.36219 0.6448 0.83329 0.0
C1150 C 0.39095 0.65913 0.78146 0.0
C1151 C 0.39839 0.65812 0.73489 0.0
C1152 C 0.32365 0.58323 0.76303 0.0
C1153 C 0.35316 0.62651 0.7667 0.0
C1154 C 0.29998 0.56824 0.77681 0.0
C1155 C 0.28117 0.58 0.80832 0.0
C1156 C 0.32889 0.60975 0.78197 0.0
C1157 C 0.2872 0.60656 0.82649 0.0
C1158 C 0.36798 0.6437 0.79736 0.0
C1159 C 0.38273 0.64097 0.70533 0.0
N1160 N 0.31068 0.6205 0.81331 0.0
N1161 N 0.36103 0.62562 0.7218 0.0
H1162 H 0.85996 0.37613 0.15496 0.0
H1163 H 0.91281 0.28147 0.36146 0.0
H1164 H 0.85337 0.40433 0.29543 0.0
H1165 H 0.95192 0.27994 0.22787 0.0
H1166 H 0.88529 0.32228 0.3376 0.0
H1167 H 0.88751 0.33612 0.18078 0.0
C1168 C 0.86401 0.37377 0.19136 0.0
C1169 C 0.85422 0.39366 0.22312 0.0
C1170 C 0.89998 0.31305 0.31365 0.0
C1171 C 0.88585 0.34766 0.25281 0.0
C1172 C 0.91562 0.28972 0.3271 0.0
C1173 C 0.93473 0.27727 0.29658 0.0
C1174 C 0.90295 0.32364 0.26898 0.0
C1175 C 0.93756 0.28894 0.25258 0.0
C1176 C 0.87998 0.35101 0.20596 0.0
C1177 C 0.86049 0.38954 0.26978 0.0
N1178 N 0.92164 0.31128 0.23994 0.0
N1179 N 0.87577 0.36689 0.28329 0.0
H1180 H 0.12296 0.87251 0.66028 0.0
H1181 H 0.23675 0.89896 0.8498 0.0
H1182 H 0.1098 0.84147 0.79772 0.0
H1183 H 0.21422 0.96433 0.75471 0.0
H1184 H 0.19528 0.87241 0.82598 0.0
H1185 H 0.16192 0.901 0.68842 0.0
C1186 C 0.1285 0.87145 0.69633 0.0
C1187 C 0.11332 0.85441 0.72673 0.0
C1188 C 0.19936 0.89264 0.81062 0.0
C1189 C 0.15791 0.88685 0.75887 0.0
C1190 C 0.22301 0.90772 0.82395 0.0
C1191 C 0.22885 0.93386 0.8041 0.0
C1192 C 0.18191 0.90336 0.7762 0.0
C1193 C 0.21034 0.94433 0.77095 0.0
C1194 C 0.15051 0.88792 0.71234 0.0
C1195 C 0.12107 0.85425 0.77322 0.0
N1196 N 0.18788 0.92883 0.75747 0.0
N1197 N 0.14312 0.86999 0.78785 0.0
H1198 H 0.634 0.12184 0.16331 0.0
H1199 H 0.61524 0.23845 0.35031 0.0
H1200 H 0.67008 0.10987 0.29766 0.0
H1201 H 0.54626 0.21428 0.26347 0.0
H1202 H 0.64069 0.19631 0.32598 0.0
H1203 H 0.60669 0.16112 0.19328 0.0
C1204 C 0.63633 0.12766 0.19909 0.0
C1205 C 0.65445 0.11276 0.22808 0.0
C1206 C 0.61991 0.2002 0.31259 0.0
C1207 C 0.62346 0.15778 0.26226 0.0
C1208 C 0.60546 0.22424 0.32617 0.0
C1209 C 0.57863 0.22981 0.30874 0.0
C1210 C 0.60778 0.18212 0.28033 0.0
C1211 C 0.56684 0.21067 0.27779 0.0
C1212 C 0.62057 0.14988 0.21616 0.0
C1213 C 0.65635 0.12089 0.27429 0.0
N1214 N 0.58168 0.18786 0.26398 0.0
N1215 N 0.6413 0.14319 0.28991 0.0
loop_
_geom_bond_atom_site_label_1
_geom_bond_atom_site_label_2
_geom_bond_distance
_geom_bond_site_symmetry_2
_ccdc_geom_bond_type
Fe0 O2 1.918 . S
Fe0 O5 1.997 . S
Fe0 O6 2.002 . S
Fe0 O11 1.976 . S
Fe0 O14 1.996 . S
Fe1 O2 1.918 . S
Fe1 O9 1.997 . S
Fe1 O12 1.996 . S
Fe1 O16 1.976 . S
Fe1 O19 2.002 . S
O2 Fe0 1.918 . S
O2 Fe1 1.918 . S
O2 Fe3 1.918 . S
Fe3 O2 1.918 . S
Fe3 O4 2.002 . S
Fe3 O13 1.976 . S
Fe3 O17 1.996 . S
Fe3 O20 1.997 . S
O4 Fe3 2.002 . S
O4 C21 1.295 . S
O5 Fe0 1.997 . S
O5 C21 1.235 . S
O6 Fe0 2.002 . S
O6 C7 1.295 . S
C7 O6 1.295 . S
C7 O9 1.235 . S
C8 O13 1.287 . S
C8 O14 1.255 . S
O9 Fe1 1.997 . S
O9 C7 1.235 . S
C10 O16 1.287 . S
C10 O17 1.255 . S
O11 Fe0 1.976 . S
O11 C18 1.287 . S
O12 Fe1 1.996 . S
O12 C18 1.255 . S
O13 Fe3 1.976 . S
O13 C8 1.287 . S
O14 Fe0 1.996 . S
O14 C8 1.255 . S
C15 O19 1.295 . S
C15 O20 1.235 . S
O16 Fe1 1.976 . S
O16 C10 1.287 . S
O17 Fe3 1.996 . S
O17 C10 1.255 . S
C18 O11 1.287 . S
C18 O12 1.255 . S
O19 Fe1 2.002 . S
O19 C15 1.295 . S
O20 Fe3 1.997 . S
O20 C15 1.235 . S
C21 O4 1.295 . S
C21 O5 1.235 . S
Fe22 O24 1.918 . S
Fe22 O27 1.997 . S
Fe22 O28 2.001 1_655 S
Fe22 O33 1.976 1_655 S
Fe22 O36 1.996 1_655 S
Fe23 O24 1.918 . S
Fe23 O31 1.997 . S
Fe23 O34 1.996 1_655 S
Fe23 O38 1.976 . S
Fe23 O41 2.002 . S
O24 Fe22 1.918 . S
O24 Fe23 1.918 . S
O24 Fe25 1.918 . S
Fe25 O24 1.918 . S
Fe25 O26 2.002 . S
Fe25 O35 1.976 . S
Fe25 O39 1.996 . S
Fe25 O42 1.997 . S
O26 Fe25 2.002 . S
O26 C43 1.295 . S
O27 Fe22 1.997 . S
O27 C43 1.235 . S
O28 Fe22 2.001 1_455 S
O28 C29 1.289 1_455 S
C29 O28 1.289 1_655 S
C29 O31 1.235 . S
C30 O35 1.287 . S
C30 O36 1.255 1_655 S
O31 Fe23 1.997 . S
O31 C29 1.235 . S
C32 O38 1.287 . S
C32 O39 1.255 . S
O33 Fe22 1.976 1_455 S
O33 C40 1.287 . S
O34 Fe23 1.996 1_455 S
O34 C40 1.255 . S
O35 Fe25 1.976 . S
O35 C30 1.287 . S
O36 Fe22 1.996 1_455 S
O36 C30 1.255 1_455 S
C37 O41 1.295 . S
C37 O42 1.235 . S
O38 Fe23 1.976 . S
O38 C32 1.287 . S
O39 Fe25 1.996 . S
O39 C32 1.255 . S
C40 O33 1.287 . S
C40 O34 1.255 . S
O41 Fe23 2.002 . S
O41 C37 1.295 . S
O42 Fe25 1.997 . S
O42 C37 1.235 . S
C43 O26 1.295 . S
C43 O27 1.235 . S
Fe44 O46 1.918 . S
Fe44 O49 1.997 . S
Fe44 O50 2.001 1_565 S
Fe44 O55 1.976 1_565 S
Fe44 O58 1.996 1_565 S
Fe45 O46 1.918 . S
Fe45 O53 1.997 . S
Fe45 O56 1.996 1_565 S
Fe45 O60 1.976 . S
Fe45 O63 2.002 . S
O46 Fe44 1.918 . S
O46 Fe45 1.918 . S
O46 Fe47 1.918 . S
Fe47 O46 1.918 . S
Fe47 O48 2.002 . S
Fe47 O57 1.976 . S
Fe47 O61 1.996 . S
Fe47 O64 1.997 . S
O48 Fe47 2.002 . S
O48 C65 1.295 . S
O49 Fe44 1.997 . S
O49 C65 1.235 . S
O50 Fe44 2.001 1_545 S
O50 C51 1.289 1_545 S
C51 O50 1.289 1_565 S
C51 O53 1.235 . S
C52 O57 1.287 . S
C52 O58 1.255 1_565 S
O53 Fe45 1.997 . S
O53 C51 1.235 . S
C54 O60 1.287 . S
C54 O61 1.255 . S
O55 Fe44 1.976 1_545 S
O55 C62 1.287 . S
O56 Fe45 1.996 1_545 S
O56 C62 1.255 . S
O57 Fe47 1.976 . S
O57 C52 1.287 . S
O58 Fe44 1.996 1_545 S
O58 C52 1.255 1_545 S
C59 O63 1.295 . S
C59 O64 1.235 . S
O60 Fe45 1.976 . S
O60 C54 1.287 . S
O61 Fe47 1.996 . S
O61 C54 1.255 . S
C62 O55 1.287 . S
C62 O56 1.255 . S
O63 Fe45 2.002 . S
O63 C59 1.295 . S
O64 Fe47 1.997 . S
O64 C59 1.235 . S
C65 O48 1.295 . S
C65 O49 1.235 . S
Fe66 O68 1.918 . S
Fe66 O71 1.997 . S
Fe66 O72 2.002 . S
Fe66 O77 1.976 . S
Fe66 O80 1.996 . S
Fe67 O68 1.918 . S
Fe67 O75 1.997 . S
Fe67 O78 1.996 . S
Fe67 O82 1.976 . S
Fe67 O85 2.002 . S
O68 Fe66 1.918 . S
O68 Fe67 1.918 . S
O68 Fe69 1.918 . S
Fe69 O68 1.918 . S
Fe69 O70 2.002 . S
Fe69 O79 1.976 . S
Fe69 O83 1.996 . S
Fe69 O86 1.997 . S
O70 Fe69 2.002 . S
O70 C87 1.295 . S
O71 Fe66 1.997 . S
O71 C87 1.235 . S
O72 Fe66 2.002 . S
O72 C73 1.295 . S
C73 O72 1.295 . S
C73 O75 1.235 . S
C74 O79 1.287 . S
C74 O80 1.255 . S
O75 Fe67 1.997 . S
O75 C73 1.235 . S
C76 O82 1.287 . S
C76 O83 1.255 . S
O77 Fe66 1.976 . S
O77 C84 1.287 . S
O78 Fe67 1.996 . S
O78 C84 1.255 . S
O79 Fe69 1.976 . S
O79 C74 1.287 . S
O80 Fe66 1.996 . S
O80 C74 1.255 . S
C81 O85 1.295 . S
C81 O86 1.235 . S
O82 Fe67 1.976 . S
O82 C76 1.287 . S
O83 Fe69 1.996 . S
O83 C76 1.255 . S
C84 O77 1.287 . S
C84 O78 1.255 . S
O85 Fe67 2.002 . S
O85 C81 1.295 . S
O86 Fe69 1.997 . S
O86 C81 1.235 . S
C87 O70 1.295 . S
C87 O71 1.235 . S
Fe88 O90 1.918 . S
Fe88 O93 1.997 . S
Fe88 O94 2.002 . S
Fe88 O99 1.976 . S
Fe88 O102 1.996 . S
Fe89 O90 1.918 . S
Fe89 O97 1.997 . S
Fe89 O100 1.996 . S
Fe89 O104 1.976 . S
Fe89 O107 2.002 . S
O90 Fe88 1.918 . S
O90 Fe89 1.918 . S
O90 Fe91 1.918 . S
Fe91 O90 1.918 . S
Fe91 O92 2.002 . S
Fe91 O101 1.976 . S
Fe91 O105 1.996 . S
Fe91 O108 1.997 . S
O92 Fe91 2.002 . S
O92 C109 1.295 . S
O93 Fe88 1.997 . S
O93 C109 1.235 . S
O94 Fe88 2.002 . S
O94 C95 1.295 . S
C95 O94 1.295 . S
C95 O97 1.235 . S
C96 O101 1.287 . S
C96 O102 1.255 . S
O97 Fe89 1.997 . S
O97 C95 1.235 . S
C98 O104 1.287 . S
C98 O105 1.255 . S
O99 Fe88 1.976 . S
O99 C106 1.287 . S
O100 Fe89 1.996 . S
O100 C106 1.255 . S
O101 Fe91 1.976 . S
O101 C96 1.287 . S
O102 Fe88 1.996 . S
O102 C96 1.255 . S
C103 O107 1.295 . S
C103 O108 1.235 . S
O104 Fe89 1.976 . S
O104 C98 1.287 . S
O105 Fe91 1.996 . S
O105 C98 1.255 . S
C106 O99 1.287 . S
C106 O100 1.255 . S
O107 Fe89 2.002 . S
O107 C103 1.295 . S
O108 Fe91 1.997 . S
O108 C103 1.235 . S
C109 O92 1.295 . S
C109 O93 1.235 . S
Fe110 O112 1.918 . S
Fe110 O115 1.997 . S
Fe110 O116 2.002 . S
Fe110 O121 1.976 . S
Fe110 O124 1.996 . S
Fe111 O112 1.918 . S
Fe111 O119 1.997 . S
Fe111 O122 1.996 1_455 S
Fe111 O126 1.976 1_455 S
Fe111 O129 2.001 1_455 S
O112 Fe110 1.918 . S
O112 Fe111 1.918 . S
O112 Fe113 1.918 . S
Fe113 O112 1.918 . S
Fe113 O114 2.002 . S
Fe113 O123 1.976 . S
Fe113 O127 1.996 1_455 S
Fe113 O130 1.997 . S
O114 Fe113 2.002 . S
O114 C131 1.295 . S
O115 Fe110 1.997 . S
O115 C131 1.235 . S
O116 Fe110 2.002 . S
O116 C117 1.295 . S
C117 O116 1.295 . S
C117 O119 1.235 . S
C118 O123 1.287 . S
C118 O124 1.255 . S
O119 Fe111 1.997 . S
O119 C117 1.235 . S
C120 O126 1.287 . S
C120 O127 1.255 . S
O121 Fe110 1.976 . S
O121 C128 1.287 . S
O122 Fe111 1.996 1_655 S
O122 C128 1.255 1_655 S
O123 Fe113 1.976 . S
O123 C118 1.287 . S
O124 Fe110 1.996 . S
O124 C118 1.255 . S
C125 O129 1.289 1_455 S
C125 O130 1.235 . S
O126 Fe111 1.976 1_655 S
O126 C120 1.287 . S
O127 Fe113 1.996 1_655 S
O127 C120 1.255 . S
C128 O121 1.287 . S
C128 O122 1.255 1_455 S
O129 Fe111 2.001 1_655 S
O129 C125 1.289 1_655 S
O130 Fe113 1.997 . S
O130 C125 1.235 . S
C131 O114 1.295 . S
C131 O115 1.235 . S
Fe132 O134 1.918 . S
Fe132 O137 1.997 . S
Fe132 O138 2.002 . S
Fe132 O143 1.976 . S
Fe132 O146 1.996 . S
Fe133 O134 1.918 . S
Fe133 O141 1.997 . S
Fe133 O144 1.996 1_545 S
Fe133 O148 1.976 1_545 S
Fe133 O151 2.001 1_545 S
O134 Fe132 1.918 . S
O134 Fe133 1.918 . S
O134 Fe135 1.918 . S
Fe135 O134 1.918 . S
Fe135 O136 2.002 . S
Fe135 O145 1.976 . S
Fe135 O149 1.996 1_545 S
Fe135 O152 1.997 . S
O136 Fe135 2.002 . S
O136 C153 1.295 . S
O137 Fe132 1.997 . S
O137 C153 1.235 . S
O138 Fe132 2.002 . S
O138 C139 1.295 . S
C139 O138 1.295 . S
C139 O141 1.235 . S
C140 O145 1.287 . S
C140 O146 1.255 . S
O141 Fe133 1.997 . S
O141 C139 1.235 . S
C142 O148 1.287 . S
C142 O149 1.255 . S
O143 Fe132 1.976 . S
O143 C150 1.287 . S
O144 Fe133 1.996 1_565 S
O144 C150 1.255 1_565 S
O145 Fe135 1.976 . S
O145 C140 1.287 . S
O146 Fe132 1.996 . S
O146 C140 1.255 . S
C147 O151 1.289 1_545 S
C147 O152 1.235 . S
O148 Fe133 1.976 1_565 S
O148 C142 1.287 . S
O149 Fe135 1.996 1_565 S
O149 C142 1.255 . S
C150 O143 1.287 . S
C150 O144 1.255 1_545 S
O151 Fe133 2.001 1_565 S
O151 C147 1.289 1_565 S
O152 Fe135 1.997 . S
O152 C147 1.235 . S
C153 O136 1.295 . S
C153 O137 1.235 . S
Fe154 O156 1.918 . S
Fe154 O159 1.997 . S
Fe154 O160 2.002 . S
Fe154 O165 1.976 . S
Fe154 O168 1.996 . S
Fe155 O156 1.918 . S
Fe155 O163 1.997 . S
Fe155 O166 1.996 . S
Fe155 O170 1.976 . S
Fe155 O173 2.002 . S
O156 Fe154 1.918 . S
O156 Fe155 1.918 . S
O156 Fe157 1.918 . S
Fe157 O156 1.918 . S
Fe157 O158 2.002 . S
Fe157 O167 1.976 . S
Fe157 O171 1.996 . S
Fe157 O174 1.997 . S
O158 Fe157 2.002 . S
O158 C175 1.295 . S
O159 Fe154 1.997 . S
O159 C175 1.235 . S
O160 Fe154 2.002 . S
O160 C161 1.295 . S
C161 O160 1.295 . S
C161 O163 1.235 . S
C162 O167 1.287 . S
C162 O168 1.255 . S
O163 Fe155 1.997 . S
O163 C161 1.235 . S
C164 O170 1.287 . S
C164 O171 1.255 . S
O165 Fe154 1.976 . S
O165 C172 1.287 . S
O166 Fe155 1.996 . S
O166 C172 1.255 . S
O167 Fe157 1.976 . S
O167 C162 1.287 . S
O168 Fe154 1.996 . S
O168 C162 1.255 . S
C169 O173 1.295 . S
C169 O174 1.235 . S
O170 Fe155 1.976 . S
O170 C164 1.287 . S
O171 Fe157 1.996 . S
O171 C164 1.255 . S
C172 O165 1.287 . S
C172 O166 1.255 . S
O173 Fe155 2.002 . S
O173 C169 1.295 . S
O174 Fe157 1.997 . S
O174 C169 1.235 . S
C175 O158 1.295 . S
C175 O159 1.235 . S
Fe176 O178 1.918 . S
Fe176 O181 1.997 . S
Fe176 O182 2.002 . S
Fe176 O187 1.976 . S
Fe176 O190 1.996 . S
Fe177 O178 1.918 . S
Fe177 O185 1.997 . S
Fe177 O188 1.996 . S
Fe177 O192 1.976 . S
Fe177 O195 2.002 . S
O178 Fe176 1.918 . S
O178 Fe177 1.918 . S
O178 Fe179 1.918 . S
Fe179 O178 1.918 . S
Fe179 O180 2.002 . S
Fe179 O189 1.976 . S
Fe179 O193 1.996 . S
Fe179 O196 1.997 . S
O180 Fe179 2.002 . S
O180 C197 1.295 . S
O181 Fe176 1.997 . S
O181 C197 1.235 . S
O182 Fe176 2.002 . S
O182 C183 1.295 . S
C183 O182 1.295 . S
C183 O185 1.235 . S
C184 O189 1.287 . S
C184 O190 1.255 . S
O185 Fe177 1.997 . S
O185 C183 1.235 . S
C186 O192 1.287 . S
C186 O193 1.255 . S
O187 Fe176 1.976 . S
O187 C194 1.287 . S
O188 Fe177 1.996 . S
O188 C194 1.255 . S
O189 Fe179 1.976 . S
O189 C184 1.287 . S
O190 Fe176 1.996 . S
O190 C184 1.255 . S
C191 O195 1.295 . S
C191 O196 1.235 . S
O192 Fe177 1.976 . S
O192 C186 1.287 . S
O193 Fe179 1.996 . S
O193 C186 1.255 . S
C194 O187 1.287 . S
C194 O188 1.255 . S
O195 Fe177 2.002 . S
O195 C191 1.295 . S
O196 Fe179 1.997 . S
O196 C191 1.235 . S
C197 O180 1.295 . S
C197 O181 1.235 . S
Fe198 O200 1.918 . S
Fe198 O203 1.997 . S
Fe198 O204 2.001 1_455 S
Fe198 O209 1.976 1_455 S
Fe198 O212 1.996 1_455 S
Fe199 O200 1.918 . S
Fe199 O207 1.997 . S
Fe199 O210 1.996 1_455 S
Fe199 O214 1.976 . S
Fe199 O217 2.002 . S
O200 Fe198 1.918 . S
O200 Fe199 1.918 . S
O200 Fe201 1.918 . S
Fe201 O200 1.918 . S
Fe201 O202 2.002 . S
Fe201 O211 1.976 . S
Fe201 O215 1.996 . S
Fe201 O218 1.997 . S
O202 Fe201 2.002 . S
O202 C219 1.295 . S
O203 Fe198 1.997 . S
O203 C219 1.235 . S
O204 Fe198 2.001 1_655 S
O204 C205 1.289 1_655 S
C205 O204 1.289 1_455 S
C205 O207 1.235 . S
C206 O211 1.287 . S
C206 O212 1.255 1_455 S
O207 Fe199 1.997 . S
O207 C205 1.235 . S
C208 O214 1.287 . S
C208 O215 1.255 . S
O209 Fe198 1.976 1_655 S
O209 C216 1.287 . S
O210 Fe199 1.996 1_655 S
O210 C216 1.255 . S
O211 Fe201 1.976 . S
O211 C206 1.287 . S
O212 Fe198 1.996 1_655 S
O212 C206 1.255 1_655 S
C213 O217 1.295 . S
C213 O218 1.235 . S
O214 Fe199 1.976 . S
O214 C208 1.287 . S
O215 Fe201 1.996 . S
O215 C208 1.255 . S
C216 O209 1.287 . S
C216 O210 1.255 . S
O217 Fe199 2.002 . S
O217 C213 1.295 . S
O218 Fe201 1.997 . S
O218 C213 1.235 . S
C219 O202 1.295 . S
C219 O203 1.235 . S
Fe220 O222 1.918 . S
Fe220 O225 1.997 . S
Fe220 O226 2.001 1_545 S
Fe220 O231 1.976 1_545 S
Fe220 O234 1.996 1_545 S
Fe221 O222 1.918 . S
Fe221 O229 1.997 . S
Fe221 O232 1.996 1_545 S
Fe221 O236 1.976 . S
Fe221 O239 2.002 . S
O222 Fe220 1.918 . S
O222 Fe221 1.918 . S
O222 Fe223 1.918 . S
Fe223 O222 1.918 . S
Fe223 O224 2.002 . S
Fe223 O233 1.976 . S
Fe223 O237 1.996 . S
Fe223 O240 1.997 . S
O224 Fe223 2.002 . S
O224 C241 1.295 . S
O225 Fe220 1.997 . S
O225 C241 1.235 . S
O226 Fe220 2.001 1_565 S
O226 C227 1.289 1_565 S
C227 O226 1.289 1_545 S
C227 O229 1.235 . S
C228 O233 1.287 . S
C228 O234 1.255 1_545 S
O229 Fe221 1.997 . S
O229 C227 1.235 . S
C230 O236 1.287 . S
C230 O237 1.255 . S
O231 Fe220 1.976 1_565 S
O231 C238 1.287 . S
O232 Fe221 1.996 1_565 S
O232 C238 1.255 . S
O233 Fe223 1.976 . S
O233 C228 1.287 . S
O234 Fe220 1.996 1_565 S
O234 C228 1.255 1_565 S
C235 O239 1.295 . S
C235 O240 1.235 . S
O236 Fe221 1.976 . S
O236 C230 1.287 . S
O237 Fe223 1.996 . S
O237 C230 1.255 . S
C238 O231 1.287 . S
C238 O232 1.255 . S
O239 Fe221 2.002 . S
O239 C235 1.295 . S
O240 Fe223 1.997 . S
O240 C235 1.235 . S
C241 O224 1.295 . S
C241 O225 1.235 . S
Fe242 O244 1.918 . S
Fe242 O247 1.997 . S
Fe242 O248 2.002 . S
Fe242 O253 1.976 . S
Fe242 O256 1.996 . S
Fe243 O244 1.918 . S
Fe243 O251 1.997 . S
Fe243 O254 1.996 . S
Fe243 O258 1.976 . S
Fe243 O261 2.002 . S
O244 Fe242 1.918 . S
O244 Fe243 1.918 . S
O244 Fe245 1.918 . S
Fe245 O244 1.918 . S
Fe245 O246 2.002 . S
Fe245 O255 1.976 . S
Fe245 O259 1.996 . S
Fe245 O262 1.997 . S
O246 Fe245 2.002 . S
O246 C263 1.295 . S
O247 Fe242 1.997 . S
O247 C263 1.235 . S
O248 Fe242 2.002 . S
O248 C249 1.295 . S
C249 O248 1.295 . S
C249 O251 1.235 . S
C250 O255 1.287 . S
C250 O256 1.255 . S
O251 Fe243 1.997 . S
O251 C249 1.235 . S
C252 O258 1.287 . S
C252 O259 1.255 . S
O253 Fe242 1.976 . S
O253 C260 1.287 . S
O254 Fe243 1.996 . S
O254 C260 1.255 . S
O255 Fe245 1.976 . S
O255 C250 1.287 . S
O256 Fe242 1.996 . S
O256 C250 1.255 . S
C257 O261 1.295 . S
C257 O262 1.235 . S
O258 Fe243 1.976 . S
O258 C252 1.287 . S
O259 Fe245 1.996 . S
O259 C252 1.255 . S
C260 O253 1.287 . S
C260 O254 1.255 . S
O261 Fe243 2.002 . S
O261 C257 1.295 . S
O262 Fe245 1.997 . S
O262 C257 1.235 . S
C263 O246 1.295 . S
C263 O247 1.235 . S
Fe264 O266 1.918 . S
Fe264 O269 1.997 . S
Fe264 O270 2.002 . S
Fe264 O275 1.976 . S
Fe264 O278 1.996 . S
Fe265 O266 1.918 . S
Fe265 O273 1.997 . S
Fe265 O276 1.996 . S
Fe265 O280 1.976 . S
Fe265 O283 2.002 . S
O266 Fe264 1.918 . S
O266 Fe265 1.918 . S
O266 Fe267 1.918 . S
Fe267 O266 1.918 . S
Fe267 O268 2.002 . S
Fe267 O277 1.976 . S
Fe267 O281 1.996 . S
Fe267 O284 1.997 . S
O268 Fe267 2.002 . S
O268 C285 1.295 . S
O269 Fe264 1.997 . S
O269 C285 1.235 . S
O270 Fe264 2.002 . S
O270 C271 1.295 . S
C271 O270 1.295 . S
C271 O273 1.235 . S
C272 O277 1.287 . S
C272 O278 1.255 . S
O273 Fe265 1.997 . S
O273 C271 1.235 . S
C274 O280 1.287 . S
C274 O281 1.255 . S
O275 Fe264 1.976 . S
O275 C282 1.287 . S
O276 Fe265 1.996 . S
O276 C282 1.255 . S
O277 Fe267 1.976 . S
O277 C272 1.287 . S
O278 Fe264 1.996 . S
O278 C272 1.255 . S
C279 O283 1.295 . S
C279 O284 1.235 . S
O280 Fe265 1.976 . S
O280 C274 1.287 . S
O281 Fe267 1.996 . S
O281 C274 1.255 . S
C282 O275 1.287 . S
C282 O276 1.255 . S
O283 Fe265 2.002 . S
O283 C279 1.295 . S
O284 Fe267 1.997 . S
O284 C279 1.235 . S
C285 O268 1.295 . S
C285 O269 1.235 . S
Fe286 O288 1.918 . S
Fe286 O291 1.997 . S
Fe286 O292 2.002 . S
Fe286 O297 1.976 . S
Fe286 O300 1.996 . S
Fe287 O288 1.918 . S
Fe287 O295 1.997 . S
Fe287 O298 1.996 1_655 S
Fe287 O302 1.976 1_655 S
Fe287 O305 2.001 1_655 S
O288 Fe286 1.918 . S
O288 Fe287 1.918 . S
O288 Fe289 1.918 . S
Fe289 O288 1.918 . S
Fe289 O290 2.002 . S
Fe289 O299 1.976 . S
Fe289 O303 1.996 1_655 S
Fe289 O306 1.997 . S
O290 Fe289 2.002 . S
O290 C307 1.295 . S
O291 Fe286 1.997 . S
O291 C307 1.235 . S
O292 Fe286 2.002 . S
O292 C293 1.295 . S
C293 O292 1.295 . S
C293 O295 1.235 . S
C294 O299 1.287 . S
C294 O300 1.255 . S
O295 Fe287 1.997 . S
O295 C293 1.235 . S
C296 O302 1.287 . S
C296 O303 1.255 . S
O297 Fe286 1.976 . S
O297 C304 1.287 . S
O298 Fe287 1.996 1_455 S
O298 C304 1.255 1_455 S
O299 Fe289 1.976 . S
O299 C294 1.287 . S
O300 Fe286 1.996 . S
O300 C294 1.255 . S
C301 O305 1.289 1_655 S
C301 O306 1.235 . S
O302 Fe287 1.976 1_455 S
O302 C296 1.287 . S
O303 Fe289 1.996 1_455 S
O303 C296 1.255 . S
C304 O297 1.287 . S
C304 O298 1.255 1_655 S
O305 Fe287 2.001 1_455 S
O305 C301 1.289 1_455 S
O306 Fe289 1.997 . S
O306 C301 1.235 . S
C307 O290 1.295 . S
C307 O291 1.235 . S
Fe308 O310 1.918 . S
Fe308 O313 1.997 . S
Fe308 O314 2.002 . S
Fe308 O319 1.976 . S
Fe308 O322 1.996 1_565 S
Fe309 O310 1.918 . S
Fe309 O317 1.997 . S
Fe309 O320 1.996 . S
Fe309 O324 1.976 . S
Fe309 O327 2.002 . S
O310 Fe308 1.918 . S
O310 Fe309 1.918 . S
O310 Fe311 1.918 . S
Fe311 O310 1.918 . S
Fe311 O312 2.001 1_565 S
Fe311 O321 1.976 1_565 S
Fe311 O325 1.996 1_565 S
Fe311 O328 1.997 . S
O312 Fe311 2.001 1_545 S
O312 C329 1.289 1_545 S
O313 Fe308 1.997 . S
O313 C329 1.235 . S
O314 Fe308 2.002 . S
O314 C315 1.295 . S
C315 O314 1.295 . S
C315 O317 1.235 . S
C316 O321 1.287 . S
C316 O322 1.255 . S
O317 Fe309 1.997 . S
O317 C315 1.235 . S
C318 O324 1.287 . S
C318 O325 1.255 1_565 S
O319 Fe308 1.976 . S
O319 C326 1.287 . S
O320 Fe309 1.996 . S
O320 C326 1.255 . S
O321 Fe311 1.976 1_545 S
O321 C316 1.287 . S
O322 Fe308 1.996 1_545 S
O322 C316 1.255 . S
C323 O327 1.295 . S
C323 O328 1.235 . S
O324 Fe309 1.976 . S
O324 C318 1.287 . S
O325 Fe311 1.996 1_545 S
O325 C318 1.255 1_545 S
C326 O319 1.287 . S
C326 O320 1.255 . S
O327 Fe309 2.002 . S
O327 C323 1.295 . S
O328 Fe311 1.997 . S
O328 C323 1.235 . S
C329 O312 1.289 1_565 S
C329 O313 1.235 . S
Fe330 O332 1.918 . S
Fe330 O335 1.997 . S
Fe330 O336 2.002 . S
Fe330 O341 1.976 . S
Fe330 O344 1.996 . S
Fe331 O332 1.918 . S
Fe331 O339 1.997 . S
Fe331 O342 1.996 . S
Fe331 O346 1.976 . S
Fe331 O349 2.002 . S
O332 Fe330 1.918 . S
O332 Fe331 1.918 . S
O332 Fe333 1.918 . S
Fe333 O332 1.918 . S
Fe333 O334 2.002 . S
Fe333 O343 1.976 . S
Fe333 O347 1.996 . S
Fe333 O350 1.997 . S
O334 Fe333 2.002 . S
O334 C351 1.295 . S
O335 Fe330 1.997 . S
O335 C351 1.235 . S
O336 Fe330 2.002 . S
O336 C337 1.295 . S
C337 O336 1.295 . S
C337 O339 1.235 . S
C338 O343 1.287 . S
C338 O344 1.255 . S
O339 Fe331 1.997 . S
O339 C337 1.235 . S
C340 O346 1.287 . S
C340 O347 1.255 . S
O341 Fe330 1.976 . S
O341 C348 1.287 . S
O342 Fe331 1.996 . S
O342 C348 1.255 . S
O343 Fe333 1.976 . S
O343 C338 1.287 . S
O344 Fe330 1.996 . S
O344 C338 1.255 . S
C345 O349 1.295 . S
C345 O350 1.235 . S
O346 Fe331 1.976 . S
O346 C340 1.287 . S
O347 Fe333 1.996 . S
O347 C340 1.255 . S
C348 O341 1.287 . S
C348 O342 1.255 . S
O349 Fe331 2.002 . S
O349 C345 1.295 . S
O350 Fe333 1.997 . S
O350 C345 1.235 . S
C351 O334 1.295 . S
C351 O335 1.235 . S
H352 C358 0.930 . S
H353 C362 0.930 . S
H354 C367 0.929 . S
H355 C365 0.929 . S
H356 C360 0.929 . S
H357 C366 0.929 . S
C358 H352 0.930 . S
C358 C359 1.367 . S
C358 C366 1.378 . S
C359 C358 1.367 . S
C359 C367 1.433 . S
C360 H356 0.929 . S
C360 C362 1.378 . S
C360 C364 1.350 . S
C361 C364 1.463 . S
C361 C366 1.350 . S
C361 N369 1.427 . S
C362 H353 0.930 . S
C362 C360 1.378 . S
C362 C363 1.367 . S
C363 C362 1.367 . S
C363 C365 1.433 . S
C364 C360 1.350 . S
C364 C361 1.463 . S
C364 N368 1.427 . S
C365 H355 0.929 . S
C365 C363 1.433 . S
C365 N368 1.384 . S
C366 H357 0.929 . S
C366 C358 1.378 . S
C366 C361 1.350 . S
C367 H354 0.929 . S
C367 C359 1.433 . S
C367 N369 1.384 . S
N368 C364 1.427 . S
N368 C365 1.384 . S
N369 C361 1.427 . S
N369 C367 1.384 . S
H370 C376 0.930 . S
H371 C380 0.930 . S
H372 C385 0.929 . S
H373 C383 0.929 . S
H374 C378 0.929 1_554 S
H375 C384 0.929 1_556 S
C376 H370 0.930 . S
C376 C377 1.367 . S
C376 C384 1.378 . S
C377 C376 1.367 . S
C377 C385 1.433 . S
C378 H374 0.929 1_556 S
C378 C380 1.378 . S
C378 C382 1.350 . S
C379 C382 1.463 1_554 S
C379 C384 1.350 . S
C379 N387 1.427 . S
C380 H371 0.930 . S
C380 C378 1.378 . S
C380 C381 1.367 . S
C381 C380 1.367 . S
C381 C383 1.433 . S
C382 C378 1.350 . S
C382 C379 1.463 1_556 S
C382 N386 1.427 . S
C383 H373 0.929 . S
C383 C381 1.433 . S
C383 N386 1.384 . S
C384 H375 0.929 1_554 S
C384 C376 1.378 . S
C384 C379 1.350 . S
C385 H372 0.929 . S
C385 C377 1.433 . S
C385 N387 1.384 . S
N386 C382 1.427 . S
N386 C383 1.384 . S
N387 C379 1.427 . S
N387 C385 1.384 . S
H388 C394 0.930 . S
H389 C398 0.930 . S
H390 C403 0.929 . S
H391 C401 0.929 . S
H392 C396 0.929 . S
H393 C402 0.929 . S
C394 H388 0.930 . S
C394 C395 1.367 . S
C394 C402 1.378 . S
C395 C394 1.367 . S
C395 C403 1.433 . S
C396 H392 0.929 . S
C396 C398 1.378 . S
C396 C400 1.350 . S
C397 C400 1.463 . S
C397 C402 1.350 . S
C397 N405 1.427 . S
C398 H389 0.930 . S
C398 C396 1.378 . S
C398 C399 1.367 . S
C399 C398 1.367 . S
C399 C401 1.433 . S
C400 C396 1.350 . S
C400 C397 1.463 . S
C400 N404 1.427 . S
C401 H391 0.929 . S
C401 C399 1.433 . S
C401 N404 1.384 . S
C402 H393 0.929 . S
C402 C394 1.378 . S
C402 C397 1.350 . S
C403 H390 0.929 . S
C403 C395 1.433 . S
C403 N405 1.384 . S
N404 C400 1.427 . S
N404 C401 1.384 . S
N405 C397 1.427 . S
N405 C403 1.384 . S
H406 C412 0.930 . S
H407 C416 0.930 . S
H408 C421 0.929 . S
H409 C419 0.929 . S
H410 C414 0.929 1_556 S
H411 C420 0.929 1_554 S
C412 H406 0.930 . S
C412 C413 1.367 . S
C412 C420 1.378 . S
C413 C412 1.367 . S
C413 C421 1.433 . S
C414 H410 0.929 1_554 S
C414 C416 1.378 . S
C414 C418 1.350 . S
C415 C418 1.463 1_556 S
C415 C420 1.350 . S
C415 N423 1.427 . S
C416 H407 0.930 . S
C416 C414 1.378 . S
C416 C417 1.367 . S
C417 C416 1.367 . S
C417 C419 1.433 . S
C418 C414 1.350 . S
C418 C415 1.463 1_554 S
C418 N422 1.427 . S
C419 H409 0.929 . S
C419 C417 1.433 . S
C419 N422 1.384 . S
C420 H411 0.929 1_556 S
C420 C412 1.378 . S
C420 C415 1.350 . S
C421 H408 0.929 . S
C421 C413 1.433 . S
C421 N423 1.384 . S
N422 C418 1.427 . S
N422 C419 1.384 . S
N423 C415 1.427 . S
N423 C421 1.384 . S
H424 C430 0.930 . S
H425 C434 0.930 . S
H426 C439 0.929 . S
H427 C437 0.929 . S
H428 C432 0.929 . S
H429 C438 0.929 . S
C430 H424 0.930 . S
C430 C431 1.367 . S
C430 C438 1.378 . S
C431 C430 1.367 . S
C431 C439 1.433 . S
C432 H428 0.929 . S
C432 C434 1.378 . S
C432 C436 1.350 . S
C433 C436 1.463 . S
C433 C438 1.350 . S
C433 N441 1.427 . S
C434 H425 0.930 . S
C434 C432 1.378 . S
C434 C435 1.367 . S
C435 C434 1.367 . S
C435 C437 1.433 . S
C436 C432 1.350 . S
C436 C433 1.463 . S
C436 N440 1.427 . S
C437 H427 0.929 . S
C437 C435 1.433 . S
C437 N440 1.384 . S
C438 H429 0.929 . S
C438 C430 1.378 . S
C438 C433 1.350 . S
C439 H426 0.929 . S
C439 C431 1.433 . S
C439 N441 1.384 . S
N440 C436 1.427 . S
N440 C437 1.384 . S
N441 C433 1.427 . S
N441 C439 1.384 . S
H442 C448 0.930 . S
H443 C452 0.930 . S
H444 C457 0.929 . S
H445 C455 0.929 . S
H446 C450 0.929 1_556 S
H447 C456 0.929 1_554 S
C448 H442 0.930 . S
C448 C449 1.367 . S
C448 C456 1.378 . S
C449 C448 1.367 . S
C449 C457 1.433 . S
C450 H446 0.929 1_554 S
C450 C452 1.378 . S
C450 C454 1.350 . S
C451 C454 1.463 1_556 S
C451 C456 1.350 . S
C451 N459 1.427 . S
C452 H443 0.930 . S
C452 C450 1.378 . S
C452 C453 1.367 . S
C453 C452 1.367 . S
C453 C455 1.433 . S
C454 C450 1.350 . S
C454 C451 1.463 1_554 S
C454 N458 1.427 . S
C455 H445 0.929 . S
C455 C453 1.433 . S
C455 N458 1.384 . S
C456 H447 0.929 1_556 S
C456 C448 1.378 . S
C456 C451 1.350 . S
C457 H444 0.929 . S
C457 C449 1.433 . S
C457 N459 1.384 . S
N458 C454 1.427 . S
N458 C455 1.384 . S
N459 C451 1.427 . S
N459 C457 1.384 . S
H460 C466 0.930 . S
H461 C470 0.930 . S
H462 C475 0.929 . S
H463 C473 0.929 . S
H464 C468 0.929 . S
H465 C474 0.929 . S
C466 H460 0.930 . S
C466 C467 1.367 . S
C466 C474 1.378 . S
C467 C466 1.367 . S
C467 C475 1.433 . S
C468 H464 0.929 . S
C468 C470 1.378 . S
C468 C472 1.350 . S
C469 C472 1.463 . S
C469 C474 1.350 . S
C469 N477 1.427 . S
C470 H461 0.930 . S
C470 C468 1.378 . S
C470 C471 1.367 . S
C471 C470 1.367 . S
C471 C473 1.433 . S
C472 C468 1.350 . S
C472 C469 1.463 . S
C472 N476 1.427 . S
C473 H463 0.929 . S
C473 C471 1.433 . S
C473 N476 1.384 . S
C474 H465 0.929 . S
C474 C466 1.378 . S
C474 C469 1.350 . S
C475 H462 0.929 . S
C475 C467 1.433 . S
C475 N477 1.384 . S
N476 C472 1.427 . S
N476 C473 1.384 . S
N477 C469 1.427 . S
N477 C475 1.384 . S
H478 C484 0.930 . S
H479 C488 0.930 . S
H480 C493 0.929 . S
H481 C491 0.929 . S
H482 C486 0.929 . S
H483 C492 0.929 . S
C484 H478 0.930 . S
C484 C485 1.367 . S
C484 C492 1.378 . S
C485 C484 1.367 . S
C485 C493 1.433 . S
C486 H482 0.929 . S
C486 C488 1.378 . S
C486 C490 1.350 . S
C487 C490 1.463 1_556 S
C487 C492 1.350 . S
C487 N495 1.427 . S
C488 H479 0.930 . S
C488 C486 1.378 . S
C488 C489 1.367 . S
C489 C488 1.367 . S
C489 C491 1.433 . S
C490 C486 1.350 . S
C490 C487 1.463 1_554 S
C490 N494 1.427 . S
C491 H481 0.929 . S
C491 C489 1.433 . S
C491 N494 1.384 . S
C492 H483 0.929 . S
C492 C484 1.378 . S
C492 C487 1.350 . S
C493 H480 0.929 . S
C493 C485 1.433 . S
C493 N495 1.384 . S
N494 C490 1.427 . S
N494 C491 1.384 . S
N495 C487 1.427 . S
N495 C493 1.384 . S
H496 C502 0.930 . S
H497 C506 0.930 . S
H498 C511 0.929 . S
H499 C509 0.929 . S
H500 C504 0.929 . S
H501 C510 0.929 . S
C502 H496 0.930 . S
C502 C503 1.367 . S
C502 C510 1.378 . S
C503 C502 1.367 . S
C503 C511 1.433 . S
C504 H500 0.929 . S
C504 C506 1.378 . S
C504 C508 1.350 . S
C505 C508 1.463 . S
C505 C510 1.350 . S
C505 N513 1.427 . S
C506 H497 0.930 . S
C506 C504 1.378 . S
C506 C507 1.367 . S
C507 C506 1.367 . S
C507 C509 1.433 . S
C508 C504 1.350 . S
C508 C505 1.463 . S
C508 N512 1.427 . S
C509 H499 0.929 . S
C509 C507 1.433 . S
C509 N512 1.384 . S
C510 H501 0.929 . S
C510 C502 1.378 . S
C510 C505 1.350 . S
C511 H498 0.929 . S
C511 C503 1.433 . S
C511 N513 1.384 . S
N512 C508 1.427 . S
N512 C509 1.384 . S
N513 C505 1.427 . S
N513 C511 1.384 . S
H514 C520 0.930 . S
H515 C524 0.930 . S
H516 C529 0.929 . S
H517 C527 0.929 . S
H518 C522 0.929 . S
H519 C528 0.929 . S
C520 H514 0.930 . S
C520 C521 1.367 . S
C520 C528 1.378 . S
C521 C520 1.367 . S
C521 C529 1.433 . S
C522 H518 0.929 . S
C522 C524 1.378 . S
C522 C526 1.350 . S
C523 C526 1.463 . S
C523 C528 1.350 . S
C523 N531 1.427 . S
C524 H515 0.930 . S
C524 C522 1.378 . S
C524 C525 1.367 . S
C525 C524 1.367 . S
C525 C527 1.433 . S
C526 C522 1.350 . S
C526 C523 1.463 . S
C526 N530 1.427 . S
C527 H517 0.929 . S
C527 C525 1.433 . S
C527 N530 1.384 . S
C528 H519 0.929 . S
C528 C520 1.378 . S
C528 C523 1.350 . S
C529 H516 0.929 . S
C529 C521 1.433 . S
C529 N531 1.384 . S
N530 C526 1.427 . S
N530 C527 1.384 . S
N531 C523 1.427 . S
N531 C529 1.384 . S
H532 C538 0.930 . S
H533 C542 0.930 . S
H534 C547 0.929 . S
H535 C545 0.929 . S
H536 C540 0.929 . S
H537 C546 0.929 . S
C538 H532 0.930 . S
C538 C539 1.367 . S
C538 C546 1.378 . S
C539 C538 1.367 . S
C539 C547 1.433 . S
C540 H536 0.929 . S
C540 C542 1.378 . S
C540 C544 1.350 . S
C541 C544 1.463 . S
C541 C546 1.350 . S
C541 N549 1.427 . S
C542 H533 0.930 . S
C542 C540 1.378 . S
C542 C543 1.367 . S
C543 C542 1.367 . S
C543 C545 1.433 . S
C544 C540 1.350 . S
C544 C541 1.463 . S
C544 N548 1.427 . S
C545 H535 0.929 . S
C545 C543 1.433 . S
C545 N548 1.384 . S
C546 H537 0.929 . S
C546 C538 1.378 . S
C546 C541 1.350 . S
C547 H534 0.929 . S
C547 C539 1.433 . S
C547 N549 1.384 . S
N548 C544 1.427 . S
N548 C545 1.384 . S
N549 C541 1.427 . S
N549 C547 1.384 . S
H550 C556 0.930 . S
H551 C560 0.930 . S
H552 C565 0.929 . S
H553 C563 0.929 . S
H554 C558 0.929 . S
H555 C564 0.929 . S
C556 H550 0.930 . S
C556 C557 1.367 . S
C556 C564 1.378 . S
C557 C556 1.367 . S
C557 C565 1.433 . S
C558 H554 0.929 . S
C558 C560 1.378 . S
C558 C562 1.350 . S
C559 C562 1.463 . S
C559 C564 1.350 . S
C559 N567 1.427 . S
C560 H551 0.930 . S
C560 C558 1.378 . S
C560 C561 1.367 . S
C561 C560 1.367 . S
C561 C563 1.433 . S
C562 C558 1.350 . S
C562 C559 1.463 . S
C562 N566 1.427 . S
C563 H553 0.929 . S
C563 C561 1.433 . S
C563 N566 1.384 . S
C564 H555 0.929 . S
C564 C556 1.378 . S
C564 C559 1.350 . S
C565 H552 0.929 . S
C565 C557 1.433 . S
C565 N567 1.384 . S
N566 C562 1.427 . S
N566 C563 1.384 . S
N567 C559 1.427 . S
N567 C565 1.384 . S
H568 C574 0.930 . S
H569 C578 0.930 . S
H570 C583 0.929 . S
H571 C581 0.929 . S
H572 C576 0.929 . S
H573 C582 0.929 . S
C574 H568 0.930 . S
C574 C575 1.367 . S
C574 C582 1.378 . S
C575 C574 1.367 . S
C575 C583 1.433 . S
C576 H572 0.929 . S
C576 C578 1.378 . S
C576 C580 1.350 . S
C577 C580 1.463 . S
C577 C582 1.350 . S
C577 N585 1.427 . S
C578 H569 0.930 . S
C578 C576 1.378 . S
C578 C579 1.367 . S
C579 C578 1.367 . S
C579 C581 1.433 . S
C580 C576 1.350 . S
C580 C577 1.463 . S
C580 N584 1.427 . S
C581 H571 0.929 . S
C581 C579 1.433 . S
C581 N584 1.384 . S
C582 H573 0.929 . S
C582 C574 1.378 . S
C582 C577 1.350 . S
C583 H570 0.929 . S
C583 C575 1.433 . S
C583 N585 1.384 . S
N584 C580 1.427 . S
N584 C581 1.384 . S
N585 C577 1.427 . S
N585 C583 1.384 . S
H586 C592 0.930 . S
H587 C596 0.930 . S
H588 C601 0.929 . S
H589 C599 0.929 . S
H590 C594 0.929 . S
H591 C600 0.929 . S
C592 H586 0.930 . S
C592 C593 1.367 . S
C592 C600 1.378 . S
C593 C592 1.367 . S
C593 C601 1.433 . S
C594 H590 0.929 . S
C594 C596 1.378 . S
C594 C598 1.350 . S
C595 C598 1.463 . S
C595 C600 1.350 . S
C595 N603 1.427 . S
C596 H587 0.930 . S
C596 C594 1.378 . S
C596 C597 1.367 . S
C597 C596 1.367 . S
C597 C599 1.433 . S
C598 C594 1.350 . S
C598 C595 1.463 . S
C598 N602 1.427 . S
C599 H589 0.929 . S
C599 C597 1.433 . S
C599 N602 1.384 . S
C600 H591 0.929 . S
C600 C592 1.378 . S
C600 C595 1.350 . S
C601 H588 0.929 . S
C601 C593 1.433 . S
C601 N603 1.384 . S
N602 C598 1.427 . S
N602 C599 1.384 . S
N603 C595 1.427 . S
N603 C601 1.384 . S
H604 C610 0.930 . S
H605 C614 0.930 . S
H606 C619 0.929 . S
H607 C617 0.929 . S
H608 C612 0.929 . S
H609 C618 0.929 . S
C610 H604 0.930 . S
C610 C611 1.367 . S
C610 C618 1.378 . S
C611 C610 1.367 . S
C611 C619 1.433 . S
C612 H608 0.929 . S
C612 C614 1.378 . S
C612 C616 1.350 . S
C613 C616 1.463 . S
C613 C618 1.350 . S
C613 N621 1.427 . S
C614 H605 0.930 . S
C614 C612 1.378 . S
C614 C615 1.367 . S
C615 C614 1.367 . S
C615 C617 1.433 . S
C616 C612 1.350 . S
C616 C613 1.463 . S
C616 N620 1.427 . S
C617 H607 0.929 . S
C617 C615 1.433 . S
C617 N620 1.384 . S
C618 H609 0.929 . S
C618 C610 1.378 . S
C618 C613 1.350 . S
C619 H606 0.929 . S
C619 C611 1.433 . S
C619 N621 1.384 . S
N620 C616 1.427 . S
N620 C617 1.384 . S
N621 C613 1.427 . S
N621 C619 1.384 . S
H622 C628 0.930 . S
H623 C632 0.930 . S
H624 C637 0.929 . S
H625 C635 0.929 . S
H626 C630 0.929 . S
H627 C636 0.929 . S
C628 H622 0.930 . S
C628 C629 1.367 . S
C628 C636 1.378 . S
C629 C628 1.367 . S
C629 C637 1.433 . S
C630 H626 0.929 . S
C630 C632 1.378 . S
C630 C634 1.350 . S
C631 C634 1.463 . S
C631 C636 1.350 . S
C631 N639 1.427 . S
C632 H623 0.930 . S
C632 C630 1.378 . S
C632 C633 1.367 . S
C633 C632 1.367 . S
C633 C635 1.433 . S
C634 C630 1.350 . S
C634 C631 1.463 . S
C634 N638 1.427 . S
C635 H625 0.929 . S
C635 C633 1.433 . S
C635 N638 1.384 . S
C636 H627 0.929 . S
C636 C628 1.378 . S
C636 C631 1.350 . S
C637 H624 0.929 . S
C637 C629 1.433 . S
C637 N639 1.384 . S
N638 C634 1.427 . S
N638 C635 1.384 . S
N639 C631 1.427 . S
N639 C637 1.384 . S
H640 C646 0.930 . S
H641 C650 0.930 . S
H642 C655 0.929 . S
H643 C653 0.929 . S
H644 C648 0.929 . S
H645 C654 0.929 . S
C646 H640 0.930 . S
C646 C647 1.367 . S
C646 C654 1.378 1_556 S
C647 C646 1.367 . S
C647 C655 1.433 . S
C648 H644 0.929 . S
C648 C650 1.378 . S
C648 C652 1.350 . S
C649 C652 1.463 . S
C649 C654 1.350 . S
C649 N657 1.427 . S
C650 H641 0.930 . S
C650 C648 1.378 . S
C650 C651 1.367 . S
C651 C650 1.367 . S
C651 C653 1.433 . S
C652 C648 1.350 . S
C652 C649 1.463 . S
C652 N656 1.427 . S
C653 H643 0.929 . S
C653 C651 1.433 . S
C653 N656 1.384 . S
C654 H645 0.929 . S
C654 C646 1.378 1_554 S
C654 C649 1.350 . S
C655 H642 0.929 . S
C655 C647 1.433 . S
C655 N657 1.384 1_556 S
N656 C652 1.427 . S
N656 C653 1.384 . S
N657 C649 1.427 . S
N657 C655 1.384 1_554 S
H658 C664 0.930 . S
H659 C668 0.930 . S
H660 C673 0.929 . S
H661 C671 0.929 . S
H662 C666 0.929 . S
H663 C672 0.929 . S
C664 H658 0.930 . S
C664 C665 1.367 . S
C664 C672 1.378 . S
C665 C664 1.367 . S
C665 C673 1.433 . S
C666 H662 0.929 . S
C666 C668 1.378 . S
C666 C670 1.350 . S
C667 C670 1.463 . S
C667 C672 1.350 . S
C667 N675 1.427 . S
C668 H659 0.930 . S
C668 C666 1.378 . S
C668 C669 1.367 . S
C669 C668 1.367 . S
C669 C671 1.433 . S
C670 C666 1.350 . S
C670 C667 1.463 . S
C670 N674 1.427 . S
C671 H661 0.929 . S
C671 C669 1.433 . S
C671 N674 1.384 . S
C672 H663 0.929 . S
C672 C664 1.378 . S
C672 C667 1.350 . S
C673 H660 0.929 . S
C673 C665 1.433 . S
C673 N675 1.384 . S
N674 C670 1.427 . S
N674 C671 1.384 . S
N675 C667 1.427 . S
N675 C673 1.384 . S
H676 C682 0.930 1_545 S
H677 C686 0.930 . S
H678 C691 0.929 . S
H679 C689 0.929 . S
H680 C684 0.929 . S
H681 C690 0.917 1_545 S
C682 H676 0.930 1_565 S
C682 C683 1.367 . S
C682 C690 1.379 1_556 S
C683 C682 1.367 . S
C683 C691 1.433 . S
C684 H680 0.929 . S
C684 C686 1.378 . S
C684 C688 1.350 . S
C685 C688 1.463 . S
C685 C690 1.362 . S
C685 N693 1.427 . S
C686 H677 0.930 . S
C686 C684 1.378 . S
C686 C687 1.367 . S
C687 C686 1.367 . S
C687 C689 1.433 1_565 S
C688 C684 1.350 . S
C688 C685 1.463 . S
C688 N692 1.421 1_565 S
C689 H679 0.929 . S
C689 C687 1.433 1_545 S
C689 N692 1.384 . S
C690 H681 0.917 1_565 S
C690 C682 1.379 1_554 S
C690 C685 1.362 . S
C691 H678 0.929 . S
C691 C683 1.433 . S
C691 N693 1.384 1_556 S
N692 C688 1.421 1_545 S
N692 C689 1.384 . S
N693 C685 1.427 . S
N693 C691 1.384 1_554 S
H694 C700 0.930 . S
H695 C704 0.930 . S
H696 C709 0.929 . S
H697 C707 0.929 . S
H698 C702 0.929 . S
H699 C708 0.929 . S
C700 H694 0.930 . S
C700 C701 1.367 . S
C700 C708 1.378 . S
C701 C700 1.367 . S
C701 C709 1.433 . S
C702 H698 0.929 . S
C702 C704 1.378 . S
C702 C706 1.350 . S
C703 C706 1.463 . S
C703 C708 1.350 . S
C703 N711 1.427 . S
C704 H695 0.930 . S
C704 C702 1.378 . S
C704 C705 1.367 . S
C705 C704 1.367 . S
C705 C707 1.433 . S
C706 C702 1.350 . S
C706 C703 1.463 . S
C706 N710 1.427 . S
C707 H697 0.929 . S
C707 C705 1.433 . S
C707 N710 1.384 . S
C708 H699 0.929 . S
C708 C700 1.378 . S
C708 C703 1.350 . S
C709 H696 0.929 . S
C709 C701 1.433 . S
C709 N711 1.384 . S
N710 C706 1.427 . S
N710 C707 1.384 . S
N711 C703 1.427 . S
N711 C709 1.384 . S
H712 C718 0.930 . S
H713 C722 0.930 . S
H714 C727 0.929 . S
H715 C725 0.929 . S
H716 C720 0.929 . S
H717 C726 0.929 . S
C718 H712 0.930 . S
C718 C719 1.367 . S
C718 C726 1.378 . S
C719 C718 1.367 . S
C719 C727 1.433 . S
C720 H716 0.929 . S
C720 C722 1.378 . S
C720 C724 1.350 . S
C721 C724 1.463 . S
C721 C726 1.350 . S
C721 N729 1.427 . S
C722 H713 0.930 . S
C722 C720 1.378 . S
C722 C723 1.367 . S
C723 C722 1.367 . S
C723 C725 1.433 . S
C724 C720 1.350 . S
C724 C721 1.463 . S
C724 N728 1.427 . S
C725 H715 0.929 . S
C725 C723 1.433 . S
C725 N728 1.384 . S
C726 H717 0.929 . S
C726 C718 1.378 . S
C726 C721 1.350 . S
C727 H714 0.929 . S
C727 C719 1.433 . S
C727 N729 1.384 . S
N728 C724 1.427 . S
N728 C725 1.384 . S
N729 C721 1.427 . S
N729 C727 1.384 . S
H730 C736 0.930 . S
H731 C740 0.930 . S
H732 C745 0.929 . S
H733 C743 0.929 . S
H734 C738 0.929 . S
H735 C744 0.929 . S
C736 H730 0.930 . S
C736 C737 1.367 . S
C736 C744 1.378 . S
C737 C736 1.367 . S
C737 C745 1.433 1_455 S
C738 H734 0.929 . S
C738 C740 1.378 1_556 S
C738 C742 1.350 1_655 S
C739 C742 1.463 . S
C739 C744 1.350 . S
C739 N747 1.427 1_455 S
C740 H731 0.930 . S
C740 C738 1.378 1_554 S
C740 C741 1.367 1_655 S
C741 C740 1.367 1_455 S
C741 C743 1.433 . S
C742 C738 1.350 1_455 S
C742 C739 1.463 . S
C742 N746 1.427 . S
C743 H733 0.929 . S
C743 C741 1.433 . S
C743 N746 1.384 1_554 S
C744 H735 0.929 . S
C744 C736 1.378 . S
C744 C739 1.350 . S
C745 H732 0.929 . S
C745 C737 1.433 1_655 S
C745 N747 1.384 . S
N746 C742 1.427 . S
N746 C743 1.384 1_556 S
N747 C739 1.427 1_655 S
N747 C745 1.384 . S
H748 C754 0.930 . S
H749 C758 0.930 . S
H750 C763 0.929 . S
H751 C761 0.929 . S
H752 C756 0.929 . S
H753 C762 0.929 . S
C754 H748 0.930 . S
C754 C755 1.367 1_565 S
C754 C762 1.378 . S
C755 C754 1.367 1_545 S
C755 C763 1.433 . S
C756 H752 0.929 . S
C756 C758 1.378 . S
C756 C760 1.350 . S
C757 C760 1.463 . S
C757 C762 1.350 1_545 S
C757 N765 1.427 . S
C758 H749 0.930 . S
C758 C756 1.378 . S
C758 C759 1.367 . S
C759 C758 1.367 . S
C759 C761 1.433 1_545 S
C760 C756 1.350 . S
C760 C757 1.463 . S
C760 N764 1.427 1_545 S
C761 H751 0.929 . S
C761 C759 1.433 1_565 S
C761 N764 1.384 . S
C762 H753 0.929 . S
C762 C754 1.378 . S
C762 C757 1.350 1_565 S
C763 H750 0.929 . S
C763 C755 1.433 . S
C763 N765 1.384 . S
N764 C760 1.427 1_565 S
N764 C761 1.384 . S
N765 C757 1.427 . S
N765 C763 1.384 . S
H766 C772 0.930 . S
H767 C776 0.930 . S
H768 C781 0.929 . S
H769 C779 0.929 . S
H770 C774 0.929 . S
H771 C780 0.929 . S
C772 H766 0.930 . S
C772 C773 1.367 . S
C772 C780 1.378 1_554 S
C773 C772 1.367 . S
C773 C781 1.433 . S
C774 H770 0.929 . S
C774 C776 1.378 . S
C774 C778 1.350 . S
C775 C778 1.463 . S
C775 C780 1.350 . S
C775 N783 1.427 . S
C776 H767 0.930 . S
C776 C774 1.378 . S
C776 C777 1.367 . S
C777 C776 1.367 . S
C777 C779 1.433 . S
C778 C774 1.350 . S
C778 C775 1.463 . S
C778 N782 1.427 . S
C779 H769 0.929 . S
C779 C777 1.433 . S
C779 N782 1.384 . S
C780 H771 0.929 . S
C780 C772 1.378 1_556 S
C780 C775 1.350 . S
C781 H768 0.929 . S
C781 C773 1.433 . S
C781 N783 1.384 1_554 S
N782 C778 1.427 . S
N782 C779 1.384 . S
N783 C775 1.427 . S
N783 C781 1.384 1_556 S
H784 C790 0.930 . S
H785 C794 0.930 . S
H786 C799 0.929 . S
H787 C797 0.929 . S
H788 C792 0.929 . S
H789 C798 0.929 . S
C790 H784 0.930 . S
C790 C791 1.367 . S
C790 C798 1.378 . S
C791 C790 1.367 . S
C791 C799 1.433 . S
C792 H788 0.929 . S
C792 C794 1.378 1_556 S
C792 C796 1.350 . S
C793 C796 1.463 . S
C793 C798 1.350 . S
C793 N801 1.427 . S
C794 H785 0.930 . S
C794 C792 1.378 1_554 S
C794 C795 1.367 . S
C795 C794 1.367 . S
C795 C797 1.433 . S
C796 C792 1.350 . S
C796 C793 1.463 . S
C796 N800 1.427 . S
C797 H787 0.929 . S
C797 C795 1.433 . S
C797 N800 1.384 1_554 S
C798 H789 0.929 . S
C798 C790 1.378 . S
C798 C793 1.350 . S
C799 H786 0.929 . S
C799 C791 1.433 . S
C799 N801 1.384 . S
N800 C796 1.427 . S
N800 C797 1.384 1_556 S
N801 C793 1.427 . S
N801 C799 1.384 . S
H802 C808 0.930 . S
H803 C812 0.930 . S
H804 C817 0.929 . S
H805 C815 0.929 . S
H806 C810 0.929 . S
H807 C816 0.929 . S
C808 H802 0.930 . S
C808 C809 1.367 . S
C808 C816 1.378 . S
C809 C808 1.367 . S
C809 C817 1.433 1_455 S
C810 H806 0.929 . S
C810 C812 1.378 . S
C810 C814 1.350 1_655 S
C811 C814 1.463 . S
C811 C816 1.350 . S
C811 N819 1.427 1_455 S
C812 H803 0.930 . S
C812 C810 1.378 . S
C812 C813 1.367 1_655 S
C813 C812 1.367 1_455 S
C813 C815 1.433 . S
C814 C810 1.350 1_455 S
C814 C811 1.463 . S
C814 N818 1.427 . S
C815 H805 0.929 . S
C815 C813 1.433 . S
C815 N818 1.384 . S
C816 H807 0.929 . S
C816 C808 1.378 . S
C816 C811 1.350 . S
C817 H804 0.929 . S
C817 C809 1.433 1_655 S
C817 N819 1.384 . S
N818 C814 1.427 . S
N818 C815 1.384 . S
N819 C811 1.427 1_655 S
N819 C817 1.384 . S
H820 C826 0.930 . S
H821 C830 0.930 . S
H822 C835 0.930 1_565 S
H823 C833 0.929 . S
H824 C828 0.929 . S
H825 C834 0.929 . S
C826 H820 0.930 . S
C826 C827 1.367 . S
C826 C834 1.378 1_554 S
C827 C826 1.367 . S
C827 C835 1.432 . S
C828 H824 0.929 . S
C828 C830 1.378 . S
C828 C832 1.350 1_565 S
C829 C832 1.463 . S
C829 C834 1.350 . S
C829 N837 1.420 1_545 S
C830 H821 0.930 . S
C830 C828 1.378 . S
C830 C831 1.367 1_565 S
C831 C830 1.367 1_545 S
C831 C833 1.433 . S
C832 C828 1.350 1_545 S
C832 C829 1.463 . S
C832 N836 1.427 . S
C833 H823 0.929 . S
C833 C831 1.433 . S
C833 N836 1.384 . S
C834 H825 0.929 . S
C834 C826 1.378 1_556 S
C834 C829 1.350 . S
C835 H822 0.930 1_545 S
C835 C827 1.432 . S
C835 N837 1.383 1_544 S
N836 C832 1.427 . S
N836 C833 1.384 . S
N837 C829 1.420 1_565 S
N837 C835 1.383 1_566 S
H838 C844 0.930 . S
H839 C848 0.930 . S
H840 C853 0.929 . S
H841 C851 0.929 . S
H842 C846 0.929 . S
H843 C852 0.929 . S
C844 H838 0.930 . S
C844 C845 1.367 . S
C844 C852 1.378 . S
C845 C844 1.367 . S
C845 C853 1.433 . S
C846 H842 0.929 . S
C846 C848 1.378 . S
C846 C850 1.350 . S
C847 C850 1.463 . S
C847 C852 1.350 . S
C847 N855 1.427 . S
C848 H839 0.930 . S
C848 C846 1.378 . S
C848 C849 1.367 . S
C849 C848 1.367 . S
C849 C851 1.433 . S
C850 C846 1.350 . S
C850 C847 1.463 . S
C850 N854 1.427 . S
C851 H841 0.929 . S
C851 C849 1.433 . S
C851 N854 1.384 . S
C852 H843 0.929 . S
C852 C844 1.378 . S
C852 C847 1.350 . S
C853 H840 0.929 . S
C853 C845 1.433 . S
C853 N855 1.384 . S
N854 C850 1.427 . S
N854 C851 1.384 . S
N855 C847 1.427 . S
N855 C853 1.384 . S
H856 C862 0.930 . S
H857 C866 0.930 . S
H858 C871 0.929 . S
H859 C869 0.929 . S
H860 C864 0.929 . S
H861 C870 0.929 . S
C862 H856 0.930 . S
C862 C863 1.367 . S
C862 C870 1.378 . S
C863 C862 1.367 . S
C863 C871 1.433 . S
C864 H860 0.929 . S
C864 C866 1.378 . S
C864 C868 1.350 . S
C865 C868 1.463 . S
C865 C870 1.350 . S
C865 N873 1.427 . S
C866 H857 0.930 . S
C866 C864 1.378 . S
C866 C867 1.367 . S
C867 C866 1.367 . S
C867 C869 1.433 . S
C868 C864 1.350 . S
C868 C865 1.463 . S
C868 N872 1.427 . S
C869 H859 0.929 . S
C869 C867 1.433 . S
C869 N872 1.384 . S
C870 H861 0.929 . S
C870 C862 1.378 . S
C870 C865 1.350 . S
C871 H858 0.929 . S
C871 C863 1.433 . S
C871 N873 1.384 . S
N872 C868 1.427 . S
N872 C869 1.384 . S
N873 C865 1.427 . S
N873 C871 1.384 . S
H874 C880 0.930 . S
H875 C884 0.930 . S
H876 C889 0.929 . S
H877 C887 0.929 . S
H878 C882 0.929 . S
H879 C888 0.929 . S
C880 H874 0.930 . S
C880 C881 1.367 . S
C880 C888 1.378 . S
C881 C880 1.367 . S
C881 C889 1.433 . S
C882 H878 0.929 . S
C882 C884 1.378 1_554 S
C882 C886 1.350 . S
C883 C886 1.463 . S
C883 C888 1.350 . S
C883 N891 1.427 . S
C884 H875 0.930 . S
C884 C882 1.378 1_556 S
C884 C885 1.367 . S
C885 C884 1.367 . S
C885 C887 1.433 . S
C886 C882 1.350 . S
C886 C883 1.463 . S
C886 N890 1.427 . S
C887 H877 0.929 . S
C887 C885 1.433 . S
C887 N890 1.384 1_556 S
C888 H879 0.929 . S
C888 C880 1.378 . S
C888 C883 1.350 . S
C889 H876 0.929 . S
C889 C881 1.433 . S
C889 N891 1.384 . S
N890 C886 1.427 . S
N890 C887 1.384 1_554 S
N891 C883 1.427 . S
N891 C889 1.384 . S
H892 C898 0.930 . S
H893 C902 0.930 . S
H894 C907 0.929 . S
H895 C905 0.929 . S
H896 C900 0.929 . S
H897 C906 0.929 . S
C898 H892 0.930 . S
C898 C899 1.367 1_545 S
C898 C906 1.378 . S
C899 C898 1.367 1_565 S
C899 C907 1.433 . S
C900 H896 0.929 . S
C900 C902 1.378 . S
C900 C904 1.350 . S
C901 C904 1.463 . S
C901 C906 1.350 1_565 S
C901 N909 1.427 . S
C902 H893 0.930 . S
C902 C900 1.378 . S
C902 C903 1.367 . S
C903 C902 1.367 . S
C903 C905 1.433 1_565 S
C904 C900 1.350 . S
C904 C901 1.463 . S
C904 N908 1.427 1_565 S
C905 H895 0.929 . S
C905 C903 1.433 1_545 S
C905 N908 1.384 . S
C906 H897 0.929 . S
C906 C898 1.378 . S
C906 C901 1.350 1_545 S
C907 H894 0.929 . S
C907 C899 1.433 . S
C907 N909 1.384 . S
N908 C904 1.427 1_545 S
N908 C905 1.384 . S
N909 C901 1.427 . S
N909 C907 1.384 . S
H910 C916 0.930 . S
H911 C920 0.930 . S
H912 C925 0.929 . S
H913 C923 0.929 . S
H914 C918 0.929 . S
H915 C924 0.929 . S
C916 H910 0.930 . S
C916 C917 1.367 . S
C916 C924 1.378 1_556 S
C917 C916 1.367 . S
C917 C925 1.433 . S
C918 H914 0.929 . S
C918 C920 1.378 . S
C918 C922 1.350 . S
C919 C922 1.463 . S
C919 C924 1.350 . S
C919 N927 1.427 . S
C920 H911 0.930 . S
C920 C918 1.378 . S
C920 C921 1.367 . S
C921 C920 1.367 . S
C921 C923 1.433 . S
C922 C918 1.350 . S
C922 C919 1.463 . S
C922 N926 1.427 . S
C923 H913 0.929 . S
C923 C921 1.433 . S
C923 N926 1.384 . S
C924 H915 0.929 . S
C924 C916 1.378 1_554 S
C924 C919 1.350 . S
C925 H912 0.929 . S
C925 C917 1.433 . S
C925 N927 1.384 1_556 S
N926 C922 1.427 . S
N926 C923 1.384 . S
N927 C919 1.427 . S
N927 C925 1.384 1_554 S
H928 C934 0.930 . S
H929 C938 0.930 . S
H930 C943 0.929 . S
H931 C941 0.929 . S
H932 C936 0.929 . S
H933 C942 0.929 . S
C934 H928 0.930 . S
C934 C935 1.367 . S
C934 C942 1.378 . S
C935 C934 1.367 . S
C935 C943 1.433 . S
C936 H932 0.929 . S
C936 C938 1.378 . S
C936 C940 1.350 . S
C937 C940 1.463 . S
C937 C942 1.350 . S
C937 N945 1.427 . S
C938 H929 0.930 . S
C938 C936 1.378 . S
C938 C939 1.367 . S
C939 C938 1.367 . S
C939 C941 1.433 . S
C940 C936 1.350 . S
C940 C937 1.463 . S
C940 N944 1.427 . S
C941 H931 0.929 . S
C941 C939 1.433 . S
C941 N944 1.384 . S
C942 H933 0.929 . S
C942 C934 1.378 . S
C942 C937 1.350 . S
C943 H930 0.929 . S
C943 C935 1.433 . S
C943 N945 1.384 . S
N944 C940 1.427 . S
N944 C941 1.384 . S
N945 C937 1.427 . S
N945 C943 1.384 . S
H946 C952 0.930 . S
H947 C956 0.930 . S
H948 C961 0.929 . S
H949 C959 0.929 . S
H950 C954 0.929 . S
H951 C960 0.929 . S
C952 H946 0.930 . S
C952 C953 1.367 . S
C952 C960 1.378 . S
C953 C952 1.367 . S
C953 C961 1.433 . S
C954 H950 0.929 . S
C954 C956 1.378 . S
C954 C958 1.350 . S
C955 C958 1.463 . S
C955 C960 1.350 . S
C955 N963 1.427 . S
C956 H947 0.930 . S
C956 C954 1.378 . S
C956 C957 1.367 . S
C957 C956 1.367 . S
C957 C959 1.433 . S
C958 C954 1.350 . S
C958 C955 1.463 . S
C958 N962 1.427 . S
C959 H949 0.929 . S
C959 C957 1.433 . S
C959 N962 1.384 . S
C960 H951 0.929 . S
C960 C952 1.378 . S
C960 C955 1.350 . S
C961 H948 0.929 . S
C961 C953 1.433 . S
C961 N963 1.384 . S
N962 C958 1.427 . S
N962 C959 1.384 . S
N963 C955 1.427 . S
N963 C961 1.384 . S
H964 C970 0.930 . S
H965 C974 0.930 . S
H966 C979 0.929 . S
H967 C977 0.929 . S
H968 C972 0.929 . S
H969 C978 0.929 . S
C970 H964 0.930 . S
C970 C971 1.367 . S
C970 C978 1.378 . S
C971 C970 1.367 . S
C971 C979 1.433 . S
C972 H968 0.929 . S
C972 C974 1.378 . S
C972 C976 1.350 . S
C973 C976 1.463 . S
C973 C978 1.350 . S
C973 N981 1.427 . S
C974 H965 0.930 . S
C974 C972 1.378 . S
C974 C975 1.367 . S
C975 C974 1.367 . S
C975 C977 1.433 . S
C976 C972 1.350 . S
C976 C973 1.463 . S
C976 N980 1.427 . S
C977 H967 0.929 . S
C977 C975 1.433 . S
C977 N980 1.384 . S
C978 H969 0.929 . S
C978 C970 1.378 . S
C978 C973 1.350 . S
C979 H966 0.929 . S
C979 C971 1.433 . S
C979 N981 1.384 . S
N980 C976 1.427 . S
N980 C977 1.384 . S
N981 C973 1.427 . S
N981 C979 1.384 . S
H982 C988 0.930 . S
H983 C992 0.930 . S
H984 C997 0.929 . S
H985 C995 0.929 . S
H986 C990 0.929 . S
H987 C996 0.929 . S
C988 H982 0.930 . S
C988 C989 1.367 . S
C988 C996 1.378 . S
C989 C988 1.367 . S
C989 C997 1.433 . S
C990 H986 0.929 . S
C990 C992 1.378 . S
C990 C994 1.350 . S
C991 C994 1.463 . S
C991 C996 1.350 . S
C991 N999 1.427 . S
C992 H983 0.930 . S
C992 C990 1.378 . S
C992 C993 1.367 . S
C993 C992 1.367 . S
C993 C995 1.433 . S
C994 C990 1.350 . S
C994 C991 1.463 . S
C994 N998 1.427 . S
C995 H985 0.929 . S
C995 C993 1.433 . S
C995 N998 1.384 . S
C996 H987 0.929 . S
C996 C988 1.378 . S
C996 C991 1.350 . S
C997 H984 0.929 . S
C997 C989 1.433 . S
C997 N999 1.384 . S
N998 C994 1.427 . S
N998 C995 1.384 . S
N999 C991 1.427 . S
N999 C997 1.384 . S
H1000 C1006 0.930 . S
H1001 C1010 0.930 . S
H1002 C1015 0.929 . S
H1003 C1013 0.929 . S
H1004 C1008 0.929 . S
H1005 C1014 0.929 . S
C1006 H1000 0.930 . S
C1006 C1007 1.367 . S
C1006 C1014 1.378 . S
C1007 C1006 1.367 . S
C1007 C1015 1.433 . S
C1008 H1004 0.929 . S
C1008 C1010 1.378 . S
C1008 C1012 1.350 . S
C1009 C1012 1.463 . S
C1009 C1014 1.350 . S
C1009 N1017 1.427 . S
C1010 H1001 0.930 . S
C1010 C1008 1.378 . S
C1010 C1011 1.367 . S
C1011 C1010 1.367 . S
C1011 C1013 1.433 . S
C1012 C1008 1.350 . S
C1012 C1009 1.463 . S
C1012 N1016 1.427 . S
C1013 H1003 0.929 . S
C1013 C1011 1.433 . S
C1013 N1016 1.384 . S
C1014 H1005 0.929 . S
C1014 C1006 1.378 . S
C1014 C1009 1.350 . S
C1015 H1002 0.929 . S
C1015 C1007 1.433 . S
C1015 N1017 1.384 . S
N1016 C1012 1.427 . S
N1016 C1013 1.384 . S
N1017 C1009 1.427 . S
N1017 C1015 1.384 . S
H1018 C1024 0.930 . S
H1019 C1028 0.930 . S
H1020 C1033 0.929 . S
H1021 C1031 0.929 . S
H1022 C1026 0.929 . S
H1023 C1032 0.929 . S
C1024 H1018 0.930 . S
C1024 C1025 1.367 . S
C1024 C1032 1.378 . S
C1025 C1024 1.367 . S
C1025 C1033 1.433 . S
C1026 H1022 0.929 . S
C1026 C1028 1.378 . S
C1026 C1030 1.350 . S
C1027 C1030 1.463 . S
C1027 C1032 1.350 . S
C1027 N1035 1.427 . S
C1028 H1019 0.930 . S
C1028 C1026 1.378 . S
C1028 C1029 1.367 . S
C1029 C1028 1.367 . S
C1029 C1031 1.433 . S
C1030 C1026 1.350 . S
C1030 C1027 1.463 . S
C1030 N1034 1.427 . S
C1031 H1021 0.929 . S
C1031 C1029 1.433 . S
C1031 N1034 1.384 . S
C1032 H1023 0.929 . S
C1032 C1024 1.378 . S
C1032 C1027 1.350 . S
C1033 H1020 0.929 . S
C1033 C1025 1.433 . S
C1033 N1035 1.384 . S
N1034 C1030 1.427 . S
N1034 C1031 1.384 . S
N1035 C1027 1.427 . S
N1035 C1033 1.384 . S
H1036 C1042 0.930 . S
H1037 C1046 0.930 . S
H1038 C1051 0.929 . S
H1039 C1049 0.929 . S
H1040 C1044 0.929 . S
H1041 C1050 0.929 . S
C1042 H1036 0.930 . S
C1042 C1043 1.367 . S
C1042 C1050 1.378 . S
C1043 C1042 1.367 . S
C1043 C1051 1.433 . S
C1044 H1040 0.929 . S
C1044 C1046 1.378 . S
C1044 C1048 1.350 . S
C1045 C1048 1.463 . S
C1045 C1050 1.350 . S
C1045 N1053 1.427 . S
C1046 H1037 0.930 . S
C1046 C1044 1.378 . S
C1046 C1047 1.367 . S
C1047 C1046 1.367 . S
C1047 C1049 1.433 . S
C1048 C1044 1.350 . S
C1048 C1045 1.463 . S
C1048 N1052 1.427 . S
C1049 H1039 0.929 . S
C1049 C1047 1.433 . S
C1049 N1052 1.384 . S
C1050 H1041 0.929 . S
C1050 C1042 1.378 . S
C1050 C1045 1.350 . S
C1051 H1038 0.929 . S
C1051 C1043 1.433 . S
C1051 N1053 1.384 . S
N1052 C1048 1.427 . S
N1052 C1049 1.384 . S
N1053 C1045 1.427 . S
N1053 C1051 1.384 . S
H1054 C1060 0.930 . S
H1055 C1064 0.930 . S
H1056 C1069 0.929 . S
H1057 C1067 0.929 . S
H1058 C1062 0.929 . S
H1059 C1068 0.929 . S
C1060 H1054 0.930 . S
C1060 C1061 1.367 . S
C1060 C1068 1.378 . S
C1061 C1060 1.367 . S
C1061 C1069 1.433 . S
C1062 H1058 0.929 . S
C1062 C1064 1.378 . S
C1062 C1066 1.350 . S
C1063 C1066 1.463 . S
C1063 C1068 1.350 . S
C1063 N1071 1.427 . S
C1064 H1055 0.930 . S
C1064 C1062 1.378 . S
C1064 C1065 1.367 . S
C1065 C1064 1.367 . S
C1065 C1067 1.433 . S
C1066 C1062 1.350 . S
C1066 C1063 1.463 . S
C1066 N1070 1.427 . S
C1067 H1057 0.929 . S
C1067 C1065 1.433 . S
C1067 N1070 1.384 . S
C1068 H1059 0.929 . S
C1068 C1060 1.378 . S
C1068 C1063 1.350 . S
C1069 H1056 0.929 . S
C1069 C1061 1.433 . S
C1069 N1071 1.384 . S
N1070 C1066 1.427 . S
N1070 C1067 1.384 . S
N1071 C1063 1.427 . S
N1071 C1069 1.384 . S
H1072 C1078 0.930 . S
H1073 C1082 0.930 . S
H1074 C1087 0.929 . S
H1075 C1085 0.929 . S
H1076 C1080 0.929 . S
H1077 C1086 0.929 . S
C1078 H1072 0.930 . S
C1078 C1079 1.367 . S
C1078 C1086 1.378 . S
C1079 C1078 1.367 . S
C1079 C1087 1.433 . S
C1080 H1076 0.929 . S
C1080 C1082 1.378 . S
C1080 C1084 1.350 . S
C1081 C1084 1.463 . S
C1081 C1086 1.350 . S
C1081 N1089 1.427 . S
C1082 H1073 0.930 . S
C1082 C1080 1.378 . S
C1082 C1083 1.367 . S
C1083 C1082 1.367 . S
C1083 C1085 1.433 . S
C1084 C1080 1.350 . S
C1084 C1081 1.463 . S
C1084 N1088 1.427 . S
C1085 H1075 0.929 . S
C1085 C1083 1.433 . S
C1085 N1088 1.384 . S
C1086 H1077 0.929 . S
C1086 C1078 1.378 . S
C1086 C1081 1.350 . S
C1087 H1074 0.929 . S
C1087 C1079 1.433 . S
C1087 N1089 1.384 . S
N1088 C1084 1.427 . S
N1088 C1085 1.384 . S
N1089 C1081 1.427 . S
N1089 C1087 1.384 . S
H1090 C1096 0.930 . S
H1091 C1100 0.930 . S
H1092 C1105 0.929 . S
H1093 C1103 0.929 . S
H1094 C1098 0.929 . S
H1095 C1104 0.929 . S
C1096 H1090 0.930 . S
C1096 C1097 1.367 . S
C1096 C1104 1.378 . S
C1097 C1096 1.367 . S
C1097 C1105 1.433 . S
C1098 H1094 0.929 . S
C1098 C1100 1.378 . S
C1098 C1102 1.350 . S
C1099 C1102 1.463 . S
C1099 C1104 1.350 . S
C1099 N1107 1.427 . S
C1100 H1091 0.930 . S
C1100 C1098 1.378 . S
C1100 C1101 1.367 . S
C1101 C1100 1.367 . S
C1101 C1103 1.433 . S
C1102 C1098 1.350 . S
C1102 C1099 1.463 . S
C1102 N1106 1.427 . S
C1103 H1093 0.929 . S
C1103 C1101 1.433 . S
C1103 N1106 1.384 . S
C1104 H1095 0.929 . S
C1104 C1096 1.378 . S
C1104 C1099 1.350 . S
C1105 H1092 0.929 . S
C1105 C1097 1.433 . S
C1105 N1107 1.384 . S
N1106 C1102 1.427 . S
N1106 C1103 1.384 . S
N1107 C1099 1.427 . S
N1107 C1105 1.384 . S
H1108 C1114 0.930 . S
H1109 C1118 0.930 . S
H1110 C1123 0.929 . S
H1111 C1121 0.929 . S
H1112 C1116 0.929 . S
H1113 C1122 0.929 . S
C1114 H1108 0.930 . S
C1114 C1115 1.367 . S
C1114 C1122 1.378 . S
C1115 C1114 1.367 . S
C1115 C1123 1.433 . S
C1116 H1112 0.929 . S
C1116 C1118 1.378 . S
C1116 C1120 1.350 . S
C1117 C1120 1.463 . S
C1117 C1122 1.350 . S
C1117 N1125 1.427 . S
C1118 H1109 0.930 . S
C1118 C1116 1.378 . S
C1118 C1119 1.367 . S
C1119 C1118 1.367 . S
C1119 C1121 1.433 . S
C1120 C1116 1.350 . S
C1120 C1117 1.463 . S
C1120 N1124 1.427 . S
C1121 H1111 0.929 . S
C1121 C1119 1.433 . S
C1121 N1124 1.384 . S
C1122 H1113 0.929 . S
C1122 C1114 1.378 . S
C1122 C1117 1.350 . S
C1123 H1110 0.929 . S
C1123 C1115 1.433 . S
C1123 N1125 1.384 . S
N1124 C1120 1.427 . S
N1124 C1121 1.384 . S
N1125 C1117 1.427 . S
N1125 C1123 1.384 . S
H1126 C1132 0.930 . S
H1127 C1136 0.930 . S
H1128 C1141 0.929 . S
H1129 C1139 0.929 . S
H1130 C1134 0.929 . S
H1131 C1140 0.929 . S
C1132 H1126 0.930 . S
C1132 C1133 1.367 . S
C1132 C1140 1.378 . S
C1133 C1132 1.367 . S
C1133 C1141 1.433 . S
C1134 H1130 0.929 . S
C1134 C1136 1.378 . S
C1134 C1138 1.350 . S
C1135 C1138 1.463 . S
C1135 C1140 1.350 . S
C1135 N1143 1.427 . S
C1136 H1127 0.930 . S
C1136 C1134 1.378 . S
C1136 C1137 1.367 . S
C1137 C1136 1.367 . S
C1137 C1139 1.433 . S
C1138 C1134 1.350 . S
C1138 C1135 1.463 . S
C1138 N1142 1.427 . S
C1139 H1129 0.929 . S
C1139 C1137 1.433 . S
C1139 N1142 1.384 . S
C1140 H1131 0.929 . S
C1140 C1132 1.378 . S
C1140 C1135 1.350 . S
C1141 H1128 0.929 . S
C1141 C1133 1.433 . S
C1141 N1143 1.384 . S
N1142 C1138 1.427 . S
N1142 C1139 1.384 . S
N1143 C1135 1.427 . S
N1143 C1141 1.384 . S
H1144 C1150 0.930 . S
H1145 C1154 0.930 . S
H1146 C1159 0.929 . S
H1147 C1157 0.929 . S
H1148 C1152 0.929 . S
H1149 C1158 0.929 . S
C1150 H1144 0.930 . S
C1150 C1151 1.367 . S
C1150 C1158 1.378 . S
C1151 C1150 1.367 . S
C1151 C1159 1.433 . S
C1152 H1148 0.929 . S
C1152 C1154 1.378 . S
C1152 C1156 1.350 . S
C1153 C1156 1.463 . S
C1153 C1158 1.350 . S
C1153 N1161 1.427 . S
C1154 H1145 0.930 . S
C1154 C1152 1.378 . S
C1154 C1155 1.367 . S
C1155 C1154 1.367 . S
C1155 C1157 1.433 . S
C1156 C1152 1.350 . S
C1156 C1153 1.463 . S
C1156 N1160 1.427 . S
C1157 H1147 0.929 . S
C1157 C1155 1.433 . S
C1157 N1160 1.384 . S
C1158 H1149 0.929 . S
C1158 C1150 1.378 . S
C1158 C1153 1.350 . S
C1159 H1146 0.929 . S
C1159 C1151 1.433 . S
C1159 N1161 1.384 . S
N1160 C1156 1.427 . S
N1160 C1157 1.384 . S
N1161 C1153 1.427 . S
N1161 C1159 1.384 . S
H1162 C1168 0.930 . S
H1163 C1172 0.930 . S
H1164 C1177 0.929 . S
H1165 C1175 0.929 . S
H1166 C1170 0.929 . S
H1167 C1176 0.929 . S
C1168 H1162 0.930 . S
C1168 C1169 1.367 . S
C1168 C1176 1.378 . S
C1169 C1168 1.367 . S
C1169 C1177 1.433 . S
C1170 H1166 0.929 . S
C1170 C1172 1.378 . S
C1170 C1174 1.350 . S
C1171 C1174 1.463 . S
C1171 C1176 1.350 . S
C1171 N1179 1.427 . S
C1172 H1163 0.930 . S
C1172 C1170 1.378 . S
C1172 C1173 1.367 . S
C1173 C1172 1.367 . S
C1173 C1175 1.433 . S
C1174 C1170 1.350 . S
C1174 C1171 1.463 . S
C1174 N1178 1.427 . S
C1175 H1165 0.929 . S
C1175 C1173 1.433 . S
C1175 N1178 1.384 . S
C1176 H1167 0.929 . S
C1176 C1168 1.378 . S
C1176 C1171 1.350 . S
C1177 H1164 0.929 . S
C1177 C1169 1.433 . S
C1177 N1179 1.384 . S
N1178 C1174 1.427 . S
N1178 C1175 1.384 . S
N1179 C1171 1.427 . S
N1179 C1177 1.384 . S
H1180 C1186 0.930 . S
H1181 C1190 0.930 . S
H1182 C1195 0.929 . S
H1183 C1193 0.929 . S
H1184 C1188 0.929 . S
H1185 C1194 0.929 . S
C1186 H1180 0.930 . S
C1186 C1187 1.367 . S
C1186 C1194 1.378 . S
C1187 C1186 1.367 . S
C1187 C1195 1.433 . S
C1188 H1184 0.929 . S
C1188 C1190 1.378 . S
C1188 C1192 1.350 . S
C1189 C1192 1.463 . S
C1189 C1194 1.350 . S
C1189 N1197 1.427 . S
C1190 H1181 0.930 . S
C1190 C1188 1.378 . S
C1190 C1191 1.367 . S
C1191 C1190 1.367 . S
C1191 C1193 1.433 . S
C1192 C1188 1.350 . S
C1192 C1189 1.463 . S
C1192 N1196 1.427 . S
C1193 H1183 0.929 . S
C1193 C1191 1.433 . S
C1193 N1196 1.384 . S
C1194 H1185 0.929 . S
C1194 C1186 1.378 . S
C1194 C1189 1.350 . S
C1195 H1182 0.929 . S
C1195 C1187 1.433 . S
C1195 N1197 1.384 . S
N1196 C1192 1.427 . S
N1196 C1193 1.384 . S
N1197 C1189 1.427 . S
N1197 C1195 1.384 . S
H1198 C1204 0.930 . S
H1199 C1208 0.930 . S
H1200 C1213 0.929 . S
H1201 C1211 0.929 . S
H1202 C1206 0.929 . S
H1203 C1212 0.929 . S
C1204 H1198 0.930 . S
C1204 C1205 1.367 . S
C1204 C1212 1.378 . S
C1205 C1204 1.367 . S
C1205 C1213 1.433 . S
C1206 H1202 0.929 . S
C1206 C1208 1.378 . S
C1206 C1210 1.350 . S
C1207 C1210 1.463 . S
C1207 C1212 1.350 . S
C1207 N1215 1.427 . S
C1208 H1199 0.930 . S
C1208 C1206 1.378 . S
C1208 C1209 1.367 . S
C1209 C1208 1.367 . S
C1209 C1211 1.433 . S
C1210 C1206 1.350 . S
C1210 C1207 1.463 . S
C1210 N1214 1.427 . S
C1211 H1201 0.929 . S
C1211 C1209 1.433 . S
C1211 N1214 1.384 . S
C1212 H1203 0.929 . S
C1212 C1204 1.378 . S
C1212 C1207 1.350 . S
C1213 H1200 0.929 . S
C1213 C1205 1.433 . S
C1213 N1215 1.384 . S
N1214 C1210 1.427 . S
N1214 C1211 1.384 . S
N1215 C1207 1.427 . S
N1215 C1213 1.384 . S
C359 C18 0.993 . S
C363 C164 1.010 . S
C377 C96 0.997 . S
C381 C32 1.005 . S
C395 C118 1.004 . S
C399 C54 1.001 . S
C413 C76 1.006 . S
C417 C140 0.996 . S
C431 C340 1.010 . S
C435 C186 0.993 . S
C449 C282 0.999 . S
C453 C208 1.003 . S
C467 C294 1.005 . S
C471 C230 1.000 . S
C485 C326 1.010 . S
C489 C260 0.993 . S
C503 C8 1.243 . S
C507 C348 1.246 . S
C521 C40 1.245 . S
C525 C272 1.244 . S
C539 C62 1.251 . S
C543 C296 1.238 . S
C557 C316 1.241 . S
C561 C84 1.247 . S
C575 C216 1.242 . S
C579 C98 1.246 . S
C593 C120 1.240 . S
C597 C238 1.248 . S
C611 C250 1.246 . S
C615 C142 1.243 . S
C629 C172 1.241 . S
C633 C194 1.247 . S
C647 C274 1.416 . S
C651 C21 1.402 . S
C665 C29 1.409 . S
C669 C304 1.412 . S
C683 C318 1.414 . S
C687 C51 1.400 . S
C701 C338 1.411 . S
C705 C73 1.402 . S
C719 C103 1.410 . S
C723 C184 1.412 . S
C737 C125 1.401 . S
C741 C206 1.415 . S
C755 C147 1.409 . S
C759 C228 1.409 . S
C773 C252 1.410 . S
C777 C161 1.402 . S
C791 C183 1.401 . S
C795 C106 1.415 . S
C809 C205 1.408 . S
C813 C128 1.414 . S
C827 C150 1.411 . S
C831 C227 1.402 . S
C845 C263 1.402 . S
C849 C162 1.411 . S
C863 C285 1.410 . S
C867 C10 1.410 . S
C881 C301 1.409 . S
C885 C30 1.412 . S
C899 C52 1.415 . S
C903 C329 1.401 . S
C917 C74 1.411 . S
C921 C337 1.410 . S
C935 C15 1.544 . S
C939 C213 1.489 . S
C953 C235 1.499 . S
C957 C43 1.550 . S
C971 C65 1.548 . S
C975 C249 1.498 . S
C989 C87 1.544 . S
C993 C191 1.488 . S
C1007 C95 1.545 . S
C1011 C345 1.489 . S
C1025 C117 1.544 . S
C1029 C271 1.488 . S
C1043 C139 1.545 . S
C1047 C307 1.489 . S
C1061 C315 1.493 . S
C1065 C175 1.546 . S
C1079 C37 1.504 . S
C1083 C197 1.552 . S
C1097 C59 1.492 . S
C1101 C219 1.546 . S
C1115 C241 1.550 . S
C1119 C81 1.499 . S
C1133 C257 1.551 . S
C1137 C7 1.503 . S
C1151 C169 1.502 . S
C1155 C279 1.550 . S
C1169 C109 1.490 . S
C1173 C293 1.545 . S
C1187 C131 1.490 . S
C1191 C323 1.545 . S
C1205 C153 1.491 . S
C1209 C351 1.546 . S
