# Generated by pormake.
# Topology pcu-i, (5)-cn, num edge types: 1
# Building blocks:
#     Node 0, Type 0, BuildingBlock: BEQFEK_clean_sbu_0, # of connection points: 5
#     Node 1, Type 0, BuildingBlock: BEQFEK_clean_sbu_0, # of connection points: 5
#     Node 2, Type 0, BuildingBlock: BEQFEK_clean_sbu_0, # of connection points: 5
#     Node 3, Type 0, BuildingBlock: BEQFEK_clean_sbu_0, # of connection points: 5
#     Node 4, Type 0, BuildingBlock: BEQFEK_clean_sbu_0, # of connection points: 5
#     Node 5, Type 0, BuildingBlock: BEQFEK_clean_sbu_0, # of connection points: 5
#     Node 6, Type 0, BuildingBlock: BEQFEK_clean_sbu_0, # of connection points: 5
#     Node 7, Type 0, BuildingBlock: BEQFEK_clean_sbu_0, # of connection points: 5
#     Node 8, Type 0, BuildingBlock: BEQFEK_clean_sbu_0, # of connection points: 5
#     Node 9, Type 0, BuildingBlock: BEQFEK_clean_sbu_0, # of connection points: 5
#     Node 10, Type 0, BuildingBlock: BEQFEK_clean_sbu_0, # of connection points: 5
#     Node 11, Type 0, BuildingBlock: BEQFEK_clean_sbu_0, # of connection points: 5
#     Node 12, Type 0, BuildingBlock: BEQFEK_clean_sbu_0, # of connection points: 5
#     Node 13, Type 0, BuildingBlock: BEQFEK_clean_sbu_0, # of connection points: 5
#     Node 14, Type 0, BuildingBlock: BEQFEK_clean_sbu_0, # of connection points: 5
#     Node 15, Type 0, BuildingBlock: BEQFEK_clean_sbu_0, # of connection points: 5
#     Node 16, Type 0, BuildingBlock: BEQFEK_clean_sbu_0, # of connection points: 5
#     Node 17, Type 0, BuildingBlock: BEQFEK_clean_sbu_0, # of connection points: 5
#     Node 18, Type 0, BuildingBlock: BEQFEK_clean_sbu_0, # of connection points: 5
#     Node 19, Type 0, BuildingBlock: BEQFEK_clean_sbu_0, # of connection points: 5
#     Node 20, Type 0, BuildingBlock: BEQFEK_clean_sbu_0, # of connection points: 5
#     Node 21, Type 0, BuildingBlock: BEQFEK_clean_sbu_0, # of connection points: 5
#     Node 22, Type 0, BuildingBlock: BEQFEK_clean_sbu_0, # of connection points: 5
#     Node 23, Type 0, BuildingBlock: BEQFEK_clean_sbu_0, # of connection points: 5
#     Edge 24, Type (0, 0), BuildingBlock: ZUJKAS_clean_linker_0, # of connection points: 2
#     Edge 25, Type (0, 0), BuildingBlock: ZUJKAS_clean_linker_0, # of connection points: 2
#     Edge 26, Type (0, 0), BuildingBlock: ZUJKAS_clean_linker_0, # of connection points: 2
#     Edge 27, Type (0, 0), BuildingBlock: ZUJKAS_clean_linker_0, # of connection points: 2
#     Edge 28, Type (0, 0), BuildingBlock: ZUJKAS_clean_linker_0, # of connection points: 2
#     Edge 29, Type (0, 0), BuildingBlock: ZUJKAS_clean_linker_0, # of connection points: 2
#     Edge 30, Type (0, 0), BuildingBlock: ZUJKAS_clean_linker_0, # of connection points: 2
#     Edge 31, Type (0, 0), BuildingBlock: ZUJKAS_clean_linker_0, # of connection points: 2
#     Edge 32, Type (0, 0), BuildingBlock: ZUJKAS_clean_linker_0, # of connection points: 2
#     Edge 33, Type (0, 0), BuildingBlock: ZUJKAS_clean_linker_0, # of connection points: 2
#     Edge 34, Type (0, 0), BuildingBlock: ZUJKAS_clean_linker_0, # of connection points: 2
#     Edge 35, Type (0, 0), BuildingBlock: ZUJKAS_clean_linker_0, # of connection points: 2
#     Edge 36, Type (0, 0), BuildingBlock: ZUJKAS_clean_linker_0, # of connection points: 2
#     Edge 37, Type (0, 0), BuildingBlock: ZUJKAS_clean_linker_0, # of connection points: 2
#     Edge 38, Type (0, 0), BuildingBlock: ZUJKAS_clean_linker_0, # of connection points: 2
#     Edge 39, Type (0, 0), BuildingBlock: ZUJKAS_clean_linker_0, # of connection points: 2
#     Edge 40, Type (0, 0), BuildingBlock: ZUJKAS_clean_linker_0, # of connection points: 2
#     Edge 41, Type (0, 0), BuildingBlock: ZUJKAS_clean_linker_0, # of connection points: 2
#     Edge 42, Type (0, 0), BuildingBlock: ZUJKAS_clean_linker_0, # of connection points: 2
#     Edge 43, Type (0, 0), BuildingBlock: ZUJKAS_clean_linker_0, # of connection points: 2
#     Edge 44, Type (0, 0), BuildingBlock: ZUJKAS_clean_linker_0, # of connection points: 2
#     Edge 45, Type (0, 0), BuildingBlock: ZUJKAS_clean_linker_0, # of connection points: 2
#     Edge 46, Type (0, 0), BuildingBlock: ZUJKAS_clean_linker_0, # of connection points: 2
#     Edge 47, Type (0, 0), BuildingBlock: ZUJKAS_clean_linker_0, # of connection points: 2
#     Edge 48, Type (0, 0), BuildingBlock: ZUJKAS_clean_linker_0, # of connection points: 2
#     Edge 49, Type (0, 0), BuildingBlock: ZUJKAS_clean_linker_0, # of connection points: 2
#     Edge 50, Type (0, 0), BuildingBlock: ZUJKAS_clean_linker_0, # of connection points: 2
#     Edge 51, Type (0, 0), BuildingBlock: ZUJKAS_clean_linker_0, # of connection points: 2
#     Edge 52, Type (0, 0), BuildingBlock: ZUJKAS_clean_linker_0, # of connection points: 2
#     Edge 53, Type (0, 0), BuildingBlock: ZUJKAS_clean_linker_0, # of connection points: 2
#     Edge 54, Type (0, 0), BuildingBlock: ZUJKAS_clean_linker_0, # of connection points: 2
#     Edge 55, Type (0, 0), BuildingBlock: ZUJKAS_clean_linker_0, # of connection points: 2
#     Edge 56, Type (0, 0), BuildingBlock: ZUJKAS_clean_linker_0, # of connection points: 2
#     Edge 57, Type (0, 0), BuildingBlock: ZUJKAS_clean_linker_0, # of connection points: 2
#     Edge 58, Type (0, 0), BuildingBlock: ZUJKAS_clean_linker_0, # of connection points: 2
#     Edge 59, Type (0, 0), BuildingBlock: ZUJKAS_clean_linker_0, # of connection points: 2
#     Edge 60, Type (0, 0), BuildingBlock: ZUJKAS_clean_linker_0, # of connection points: 2
#     Edge 61, Type (0, 0), BuildingBlock: ZUJKAS_clean_linker_0, # of connection points: 2
#     Edge 62, Type (0, 0), BuildingBlock: ZUJKAS_clean_linker_0, # of connection points: 2
#     Edge 63, Type (0, 0), BuildingBlock: ZUJKAS_clean_linker_0, # of connection points: 2
#     Edge 64, Type (0, 0), BuildingBlock: ZUJKAS_clean_linker_0, # of connection points: 2
#     Edge 65, Type (0, 0), BuildingBlock: ZUJKAS_clean_linker_0, # of connection points: 2
#     Edge 66, Type (0, 0), BuildingBlock: ZUJKAS_clean_linker_0, # of connection points: 2
#     Edge 67, Type (0, 0), BuildingBlock: ZUJKAS_clean_linker_0, # of connection points: 2
#     Edge 68, Type (0, 0), BuildingBlock: ZUJKAS_clean_linker_0, # of connection points: 2
#     Edge 69, Type (0, 0), BuildingBlock: ZUJKAS_clean_linker_0, # of connection points: 2
#     Edge 70, Type (0, 0), BuildingBlock: ZUJKAS_clean_linker_0, # of connection points: 2
#     Edge 71, Type (0, 0), BuildingBlock: ZUJKAS_clean_linker_0, # of connection points: 2
#     Edge 72, Type (0, 0), BuildingBlock: ZUJKAS_clean_linker_0, # of connection points: 2
#     Edge 73, Type (0, 0), BuildingBlock: ZUJKAS_clean_linker_0, # of connection points: 2
#     Edge 74, Type (0, 0), BuildingBlock: ZUJKAS_clean_linker_0, # of connection points: 2
#     Edge 75, Type (0, 0), BuildingBlock: ZUJKAS_clean_linker_0, # of connection points: 2
#     Edge 76, Type (0, 0), BuildingBlock: ZUJKAS_clean_linker_0, # of connection points: 2
#     Edge 77, Type (0, 0), BuildingBlock: ZUJKAS_clean_linker_0, # of connection points: 2
#     Edge 78, Type (0, 0), BuildingBlock: ZUJKAS_clean_linker_0, # of connection points: 2
#     Edge 79, Type (0, 0), BuildingBlock: ZUJKAS_clean_linker_0, # of connection points: 2
#     Edge 80, Type (0, 0), BuildingBlock: ZUJKAS_clean_linker_0, # of connection points: 2
#     Edge 81, Type (0, 0), BuildingBlock: ZUJKAS_clean_linker_0, # of connection points: 2
#     Edge 82, Type (0, 0), BuildingBlock: ZUJKAS_clean_linker_0, # of connection points: 2
#     Edge 83, Type (0, 0), BuildingBlock: ZUJKAS_clean_linker_0, # of connection points: 2
# Relax obj value: 0.229
# Max RMSD: 0.180
# Mean RMSD: 0.180
data_MOF--net-pcu-i--node1-BEQFEK_clean_sbu_0--edge1-ZUJKAS_clean_linker_0
_symmetry_space_group_name_H-M    P1
_symmetry_Int_Tables_number       1
_symmetry_cell_setting            triclinic
loop_
_symmetry_equiv_pos_as_xyz
'x, y, z'
_cell_length_a     71.867021
_cell_length_b     71.876446
_cell_length_c     71.948396
_cell_angle_alpha  89.98147
_cell_angle_beta   90.000412
_cell_angle_gamma 90.010713
loop_
_atom_site_label
_atom_site_type_symbol
_atom_site_fract_x
_atom_site_fract_y
_atom_site_fract_z
_atom_type_partial_charge
Co0 Co 0.14104 0.12491 0.37288 0.0
Co1 Co 0.14025 0.16746 0.36377 0.0
C2 C 0.10528 0.14532 0.3663 0.0
O3 O 0.1143 0.13061 0.37016 0.0
O4 O 0.1136 0.16065 0.36341 0.0
C5 C 0.1326 0.08767 0.36436 0.0
O6 O 0.12099 0.09601 0.35297 0.0
C7 C 0.13368 0.19964 0.34048 0.0
C8 C 0.15139 0.22123 0.35335 0.0
C9 C 0.13939 0.21797 0.33861 0.0
N10 N 0.14191 0.19244 0.35557 0.0
N11 N 0.15228 0.20545 0.36341 0.0
C12 C 0.12221 0.18841 0.32722 0.0
H13 H 0.12497 0.17334 0.32909 0.0
H14 H 0.12523 0.19247 0.31264 0.0
H15 H 0.10725 0.191 0.33002 0.0
C16 C 0.16779 0.12525 0.34166 0.0
N17 N 0.15494 0.13369 0.35234 0.0
N18 N 0.15468 0.15158 0.34844 0.0
C19 C 0.16743 0.1551 0.33515 0.0
C20 C 0.17606 0.13851 0.33038 0.0
C21 C 0.17275 0.10507 0.34305 0.0
H22 H 0.16051 0.09659 0.33904 0.0
H23 H 0.18449 0.10133 0.33378 0.0
H24 H 0.17637 0.10162 0.35765 0.0
O25 O 0.15077 0.13629 0.39597 0.0
O26 O 0.15006 0.16648 0.38925 0.0
H27 H 0.17507 0.18318 0.3416 0.0
H28 H 0.18636 0.17409 0.32119 0.0
C29 C 0.17318 0.17423 0.32921 0.0
H30 H 0.16211 0.18036 0.32041 0.0
H31 H 0.16037 0.20338 0.37526 0.0
O32 O 0.14312 0.09751 0.37462 0.0
C33 C 0.15371 0.15322 0.40039 0.0
Co34 Co 0.86863 0.14269 0.36929 0.0
Co35 Co 0.82608 0.14326 0.36032 0.0
C36 C 0.8474 0.10776 0.36065 0.0
O37 O 0.86231 0.11632 0.36482 0.0
O38 O 0.83216 0.11647 0.3584 0.0
C39 C 0.90587 0.13502 0.35964 0.0
O40 O 0.89763 0.1248 0.34692 0.0
C41 C 0.79185 0.13763 0.33949 0.0
C42 C 0.77322 0.15897 0.35145 0.0
C43 C 0.77411 0.14506 0.33815 0.0
N44 N 0.80099 0.14668 0.35299 0.0
N45 N 0.78974 0.15925 0.36027 0.0
C46 C 0.80078 0.12369 0.32686 0.0
H47 H 0.81609 0.12566 0.32663 0.0
H48 H 0.79523 0.12494 0.31252 0.0
H49 H 0.79773 0.10948 0.33207 0.0
C50 C 0.86872 0.17159 0.3401 0.0
N51 N 0.86006 0.15818 0.3499 0.0
N52 N 0.84225 0.15812 0.34566 0.0
C53 C 0.83905 0.17134 0.33278 0.0
C54 C 0.8557 0.18036 0.32889 0.0
C55 C 0.88843 0.17752 0.34342 0.0
H56 H 0.89154 0.17715 0.35851 0.0
H57 H 0.89793 0.16768 0.33628 0.0
H58 H 0.89112 0.19176 0.33814 0.0
O59 O 0.85778 0.15081 0.39306 0.0
O60 O 0.82758 0.15122 0.38649 0.0
H61 H 0.81138 0.18182 0.33582 0.0
H62 H 0.82124 0.18547 0.31295 0.0
C63 C 0.82029 0.17568 0.32484 0.0
H64 H 0.81366 0.16267 0.31994 0.0
H65 H 0.7935 0.16836 0.37093 0.0
O66 O 0.89597 0.14415 0.37106 0.0
C67 C 0.84095 0.15368 0.39781 0.0
Co68 Co 0.85207 0.8712 0.36554 0.0
Co69 Co 0.85224 0.82792 0.36109 0.0
C70 C 0.88753 0.84997 0.36096 0.0
O71 O 0.87883 0.86519 0.36332 0.0
O72 O 0.87889 0.83458 0.3597 0.0
C73 C 0.86021 0.90876 0.35568 0.0
O74 O 0.87328 0.90094 0.34558 0.0
C75 C 0.85781 0.79363 0.34066 0.0
C76 C 0.84157 0.77322 0.35694 0.0
C77 C 0.85246 0.77507 0.34113 0.0
N78 N 0.85043 0.80224 0.35545 0.0
N79 N 0.84093 0.78996 0.36529 0.0
C80 C 0.86822 0.80364 0.32566 0.0
H81 H 0.86552 0.81882 0.32639 0.0
H82 H 0.86417 0.79831 0.31176 0.0
H83 H 0.88336 0.80133 0.3276 0.0
C84 C 0.8253 0.86808 0.33468 0.0
N85 N 0.83802 0.86053 0.34613 0.0
N86 N 0.83765 0.8423 0.34439 0.0
C87 C 0.82454 0.83767 0.33182 0.0
C88 C 0.81636 0.85387 0.32523 0.0
C89 C 0.82105 0.88845 0.3337 0.0
H90 H 0.81639 0.89339 0.34755 0.0
H91 H 0.83389 0.89612 0.32995 0.0
H92 H 0.8102 0.89159 0.3232 0.0
O93 O 0.84228 0.86223 0.38955 0.0
O94 O 0.84305 0.83146 0.38662 0.0
H95 H 0.81703 0.81048 0.34153 0.0
H96 H 0.80436 0.8179 0.32119 0.0
C97 C 0.81808 0.81819 0.32823 0.0
H98 H 0.82836 0.81103 0.31925 0.0
H99 H 0.83364 0.79312 0.37742 0.0
O100 O 0.84944 0.89855 0.36527 0.0
C101 C 0.83946 0.84599 0.39605 0.0
Co102 Co 0.1243 0.85208 0.36905 0.0
Co103 Co 0.16729 0.85383 0.36271 0.0
C104 C 0.14404 0.88826 0.36315 0.0
O105 O 0.12932 0.87898 0.36631 0.0
O106 O 0.15967 0.88021 0.36124 0.0
C107 C 0.08686 0.85934 0.35952 0.0
O108 O 0.09484 0.87165 0.34863 0.0
C109 C 0.19984 0.86024 0.34012 0.0
C110 C 0.22213 0.84567 0.35548 0.0
C111 C 0.21863 0.8558 0.33944 0.0
N112 N 0.19267 0.85306 0.35575 0.0
N113 N 0.20606 0.84458 0.36506 0.0
C114 C 0.18825 0.86949 0.3255 0.0
H115 H 0.17329 0.86628 0.32757 0.0
H116 H 0.19261 0.86493 0.31142 0.0
H117 H 0.19007 0.88478 0.3265 0.0
C118 C 0.12704 0.82515 0.3382 0.0
N119 N 0.13463 0.83813 0.34936 0.0
N120 N 0.15278 0.83835 0.34691 0.0
C121 C 0.15734 0.82534 0.3342 0.0
C122 C 0.14117 0.81666 0.32821 0.0
C123 C 0.10674 0.8205 0.33778 0.0
H124 H 0.09876 0.83309 0.33386 0.0
H125 H 0.10356 0.80936 0.32761 0.0
H126 H 0.10217 0.81612 0.35184 0.0
O127 O 0.13467 0.84302 0.39284 0.0
O128 O 0.16525 0.84504 0.38853 0.0
H129 H 0.17729 0.8054 0.32354 0.0
H130 H 0.18302 0.82947 0.31981 0.0
C131 C 0.17685 0.81949 0.32982 0.0
H132 H 0.18537 0.81949 0.34265 0.0
H133 H 0.20412 0.83763 0.37761 0.0
O134 O 0.09697 0.84899 0.36967 0.0
C135 C 0.1513 0.84106 0.39867 0.0
Co136 Co 0.14063 0.8713 0.62182 0.0
Co137 Co 0.14079 0.82853 0.62982 0.0
C138 C 0.10533 0.8502 0.62775 0.0
O139 O 0.11399 0.86522 0.62425 0.0
O140 O 0.11404 0.83505 0.63047 0.0
C141 C 0.1314 0.90898 0.62879 0.0
O142 O 0.11863 0.90122 0.63932 0.0
C143 C 0.13518 0.79657 0.6535 0.0
C144 C 0.15058 0.77425 0.63906 0.0
C145 C 0.13999 0.77792 0.65476 0.0
N146 N 0.14252 0.8035 0.63784 0.0
N147 N 0.15156 0.79009 0.62911 0.0
C148 C 0.12522 0.80827 0.66756 0.0
H149 H 0.12841 0.82322 0.6654 0.0
H150 H 0.1292 0.80412 0.68187 0.0
H151 H 0.10999 0.80632 0.6659 0.0
C152 C 0.16719 0.87097 0.65307 0.0
N153 N 0.15466 0.86239 0.64213 0.0
N154 N 0.15539 0.84435 0.64512 0.0
C155 C 0.1687 0.84081 0.65784 0.0
C156 C 0.17656 0.85759 0.66335 0.0
C157 C 0.1706 0.89151 0.65301 0.0
H158 H 0.15728 0.89886 0.6555 0.0
H159 H 0.18062 0.89574 0.66395 0.0
H160 H 0.17593 0.8958 0.63918 0.0
O161 O 0.15024 0.86031 0.59851 0.0
O162 O 0.14977 0.82988 0.60406 0.0
H163 H 0.18986 0.82206 0.66843 0.0
H164 H 0.16613 0.81516 0.67264 0.0
C165 C 0.17566 0.82171 0.66242 0.0
H166 H 0.17591 0.81301 0.64971 0.0
H167 H 0.15868 0.79185 0.61661 0.0
O168 O 0.14271 0.89867 0.61995 0.0
C169 C 0.15305 0.84358 0.59334 0.0
Co170 Co 0.12052 0.14394 0.61482 0.0
Co171 Co 0.16275 0.14345 0.62524 0.0
C172 C 0.1403 0.10829 0.62144 0.0
O173 O 0.12543 0.1171 0.61767 0.0
O174 O 0.15549 0.11685 0.62449 0.0
C175 C 0.08284 0.13494 0.60537 0.0
O176 O 0.0901 0.11926 0.59944 0.0
C177 C 0.1928 0.13798 0.65165 0.0
C178 C 0.21685 0.15076 0.63736 0.0
C179 C 0.21156 0.14194 0.65366 0.0
N180 N 0.18719 0.14444 0.63507 0.0
N181 N 0.20163 0.15196 0.62652 0.0
C182 C 0.18052 0.12743 0.66477 0.0
H183 H 0.16857 0.12122 0.6573 0.0
H184 H 0.1749 0.13703 0.67544 0.0
H185 H 0.18855 0.11637 0.67196 0.0
C186 C 0.1193 0.16939 0.64688 0.0
N187 N 0.12847 0.15729 0.63596 0.0
N188 N 0.14633 0.15786 0.63995 0.0
C189 C 0.14916 0.1708 0.65321 0.0
C190 C 0.13209 0.17836 0.65816 0.0
C191 C 0.09878 0.17283 0.64588 0.0
H192 H 0.09552 0.18026 0.63276 0.0
H193 H 0.09128 0.15934 0.64575 0.0
H194 H 0.09384 0.18121 0.65785 0.0
O195 O 0.13323 0.15368 0.59234 0.0
O196 O 0.16322 0.15362 0.59996 0.0
H197 H 0.17765 0.17735 0.64674 0.0
H198 H 0.16705 0.19282 0.66333 0.0
C199 C 0.16791 0.17814 0.65864 0.0
H200 H 0.17353 0.16973 0.67026 0.0
H201 H 0.20105 0.15803 0.61335 0.0
O202 O 0.09345 0.14747 0.61188 0.0
C203 C 0.15023 0.15696 0.58842 0.0
Co204 Co 0.85021 0.12025 0.61892 0.0
Co205 Co 0.84873 0.16312 0.62634 0.0
C206 C 0.88481 0.1423 0.62509 0.0
O207 O 0.87651 0.12703 0.62194 0.0
O208 O 0.87574 0.15734 0.62719 0.0
C209 C 0.85902 0.08403 0.63004 0.0
O210 O 0.8683 0.09351 0.64261 0.0
C211 C 0.8509 0.19488 0.65102 0.0
C212 C 0.83803 0.21745 0.63457 0.0
C213 C 0.84576 0.21344 0.65176 0.0
N214 N 0.8461 0.18812 0.63432 0.0
N215 N 0.83857 0.20168 0.62445 0.0
C216 C 0.86089 0.18383 0.66559 0.0
H217 H 0.86867 0.17217 0.65919 0.0
H218 H 0.85067 0.17779 0.67543 0.0
H219 H 0.87056 0.19285 0.67355 0.0
C220 C 0.82225 0.12041 0.64913 0.0
N221 N 0.83528 0.12904 0.63877 0.0
N222 N 0.83405 0.14713 0.6414 0.0
C223 C 0.8198 0.15061 0.65309 0.0
C224 C 0.81206 0.1338 0.65855 0.0
C225 C 0.81908 0.09982 0.64924 0.0
H226 H 0.8317 0.09283 0.65463 0.0
H227 H 0.80726 0.09576 0.65827 0.0
H228 H 0.81655 0.09488 0.63486 0.0
O229 O 0.84084 0.13071 0.59515 0.0
O230 O 0.83978 0.16118 0.60068 0.0
H231 H 0.79639 0.16845 0.65961 0.0
H232 H 0.81858 0.1766 0.66759 0.0
C233 C 0.81136 0.16947 0.65601 0.0
H234 H 0.81272 0.17798 0.64325 0.0
H235 H 0.83354 0.20011 0.61093 0.0
O236 O 0.84962 0.09278 0.61789 0.0
C237 C 0.83726 0.14732 0.58996 0.0
Co238 Co 0.86971 0.84885 0.6197 0.0
Co239 Co 0.8273 0.85112 0.62889 0.0
C240 C 0.85188 0.88464 0.63086 0.0
O241 O 0.86607 0.8754 0.62575 0.0
O242 O 0.83609 0.87689 0.6329 0.0
C243 C 0.90701 0.85656 0.60943 0.0
O244 O 0.89941 0.87153 0.60219 0.0
C245 C 0.79573 0.85694 0.65314 0.0
C246 C 0.77248 0.84433 0.63748 0.0
C247 C 0.77675 0.85344 0.65394 0.0
N248 N 0.80226 0.85029 0.637 0.0
N249 N 0.78832 0.84289 0.6276 0.0
C250 C 0.80798 0.86505 0.66789 0.0
H251 H 0.82265 0.86077 0.66571 0.0
H252 H 0.8033 0.86058 0.6819 0.0
H253 H 0.80733 0.88046 0.66713 0.0
C254 C 0.86796 0.81934 0.64806 0.0
N255 N 0.86 0.8332 0.63834 0.0
N256 N 0.84208 0.83366 0.642 0.0
C257 C 0.838 0.81991 0.65408 0.0
C258 C 0.8543 0.81045 0.65835 0.0
C259 C 0.88824 0.81464 0.64723 0.0
H260 H 0.89156 0.80895 0.63328 0.0
H261 H 0.89658 0.82747 0.64923 0.0
H262 H 0.89218 0.80435 0.65802 0.0
O263 O 0.85777 0.84323 0.59568 0.0
O264 O 0.8276 0.84539 0.60212 0.0
H265 H 0.80915 0.81566 0.64772 0.0
H266 H 0.81813 0.80023 0.66535 0.0
C267 C 0.81867 0.81461 0.65978 0.0
H268 H 0.81378 0.82431 0.67072 0.0
H269 H 0.78967 0.83666 0.61458 0.0
O270 O 0.89668 0.84461 0.61732 0.0
C271 C 0.84078 0.84245 0.59067 0.0
Co272 Co 0.37094 0.13846 0.12226 0.0
Co273 Co 0.36267 0.13862 0.16494 0.0
C274 C 0.3613 0.10354 0.14278 0.0
O275 O 0.36543 0.11217 0.12793 0.0
O276 O 0.35978 0.11209 0.15818 0.0
C277 C 0.36012 0.13225 0.08526 0.0
O278 O 0.34695 0.12281 0.09372 0.0
C279 C 0.33983 0.13372 0.19779 0.0
C280 C 0.35339 0.15205 0.21841 0.0
C281 C 0.33826 0.14042 0.21577 0.0
N282 N 0.35499 0.14133 0.19002 0.0
N283 N 0.36323 0.15206 0.20247 0.0
C284 C 0.32752 0.12001 0.18805 0.0
H285 H 0.32331 0.12562 0.17431 0.0
H286 H 0.31507 0.11632 0.19634 0.0
H287 H 0.33554 0.10709 0.18548 0.0
C288 C 0.34264 0.16827 0.123 0.0
N289 N 0.35228 0.15455 0.13135 0.0
N290 N 0.34844 0.15449 0.14924 0.0
C291 C 0.33604 0.16811 0.1528 0.0
C292 C 0.33198 0.17727 0.13629 0.0
C293 C 0.34545 0.17414 0.10322 0.0
H294 H 0.36043 0.1734 0.09959 0.0
H295 H 0.33768 0.16455 0.09397 0.0
H296 H 0.34045 0.18853 0.10075 0.0
O297 O 0.39512 0.14535 0.13317 0.0
O298 O 0.38919 0.14571 0.16351 0.0
H299 H 0.34012 0.17645 0.18107 0.0
H300 H 0.31808 0.18384 0.17136 0.0
C301 C 0.32851 0.1725 0.17171 0.0
H302 H 0.32166 0.15999 0.17748 0.0
H303 H 0.37526 0.15978 0.19991 0.0
O304 O 0.37244 0.14041 0.09495 0.0
C305 C 0.40034 0.14784 0.14991 0.0
Co306 Co 0.84985 0.37026 0.12446 0.0
Co307 Co 0.85176 0.36556 0.16759 0.0
C308 C 0.88623 0.36816 0.14432 0.0
O309 O 0.87683 0.36968 0.12943 0.0
O310 O 0.87827 0.3664 0.16001 0.0
C311 C 0.85785 0.37776 0.08658 0.0
O312 O 0.87142 0.38761 0.09387 0.0
C313 C 0.86039 0.34528 0.2012 0.0
C314 C 0.84315 0.35932 0.22241 0.0
C315 C 0.85548 0.34469 0.21986 0.0
N316 N 0.85135 0.35949 0.1932 0.0
N317 N 0.84128 0.36805 0.20595 0.0
C318 C 0.87177 0.33152 0.19047 0.0
H319 H 0.8687 0.33255 0.17539 0.0
H320 H 0.86895 0.31714 0.19533 0.0
H321 H 0.88675 0.33459 0.19258 0.0
C322 C 0.82543 0.33757 0.1282 0.0
N323 N 0.8376 0.34981 0.13545 0.0
N324 N 0.83792 0.34796 0.15364 0.0
C325 C 0.82566 0.33466 0.15859 0.0
C326 C 0.81745 0.32758 0.14263 0.0
C327 C 0.81972 0.33742 0.1082 0.0
H328 H 0.8141 0.35129 0.1044 0.0
H329 H 0.83212 0.3348 0.0994 0.0
H330 H 0.80903 0.32667 0.10531 0.0
O331 O 0.83907 0.39378 0.13388 0.0
O332 O 0.8403 0.39022 0.16456 0.0
H333 H 0.81743 0.34285 0.18602 0.0
H334 H 0.8088 0.32021 0.17909 0.0
C335 C 0.82074 0.32994 0.17826 0.0
H336 H 0.83283 0.3232 0.18502 0.0
H337 H 0.83271 0.37945 0.20331 0.0
O338 O 0.84658 0.36935 0.09726 0.0
C339 C 0.83599 0.39974 0.15027 0.0
Co340 Co 0.61467 0.84658 0.121 0.0
Co341 Co 0.62652 0.84784 0.16281 0.0
C342 C 0.6255 0.88226 0.14013 0.0
O343 O 0.61958 0.87317 0.12618 0.0
O344 O 0.62928 0.87419 0.1554 0.0
C345 C 0.62376 0.85302 0.08385 0.0
O346 O 0.63712 0.86237 0.0921 0.0
C347 C 0.65095 0.85307 0.19449 0.0
C348 C 0.63813 0.83522 0.21601 0.0
C349 C 0.65313 0.84683 0.21257 0.0
N350 N 0.63553 0.84529 0.18745 0.0
N351 N 0.62778 0.8348 0.2004 0.0
C352 C 0.66271 0.86679 0.18412 0.0
H353 H 0.6553 0.88031 0.18378 0.0
H354 H 0.66458 0.86215 0.16953 0.0
H355 H 0.67642 0.86905 0.19078 0.0
C356 C 0.64341 0.81719 0.1203 0.0
N357 N 0.63431 0.83106 0.129 0.0
N358 N 0.63959 0.83169 0.1465 0.0
C359 C 0.65245 0.81835 0.14944 0.0
C360 C 0.65524 0.80871 0.13295 0.0
C361 C 0.63908 0.8107 0.101 0.0
H362 H 0.62388 0.81143 0.09848 0.0
H363 H 0.64617 0.81995 0.09088 0.0
H364 H 0.64385 0.79622 0.09865 0.0
O365 O 0.59151 0.83913 0.13352 0.0
O366 O 0.59983 0.84103 0.16322 0.0
H367 H 0.651 0.81066 0.17815 0.0
H368 H 0.6724 0.80373 0.16683 0.0
C369 C 0.66165 0.81474 0.16777 0.0
H370 H 0.66852 0.82762 0.17262 0.0
H371 H 0.61564 0.82708 0.19847 0.0
O372 O 0.61179 0.84459 0.09377 0.0
C373 C 0.58768 0.83775 0.15076 0.0
Co374 Co 0.14109 0.61585 0.12244 0.0
Co375 Co 0.14143 0.62569 0.16477 0.0
C376 C 0.10592 0.62363 0.14263 0.0
O377 O 0.11446 0.61942 0.12774 0.0
O378 O 0.11469 0.6265 0.15772 0.0
C379 C 0.13181 0.60521 0.08526 0.0
O380 O 0.11685 0.59825 0.09312 0.0
C381 C 0.13836 0.65231 0.19494 0.0
C382 C 0.14995 0.63688 0.21886 0.0
C383 C 0.14264 0.65394 0.21365 0.0
N384 N 0.14322 0.63521 0.18928 0.0
N385 N 0.15002 0.62597 0.20364 0.0
C386 C 0.12902 0.66637 0.18273 0.0
H387 H 0.12188 0.65943 0.17096 0.0
H388 H 0.13956 0.67596 0.17686 0.0
H389 H 0.11887 0.67471 0.19084 0.0
C390 C 0.16802 0.64671 0.12137 0.0
N391 N 0.15539 0.63634 0.13051 0.0
N392 N 0.15658 0.63977 0.14842 0.0
C393 C 0.17057 0.65193 0.15135 0.0
C394 C 0.17813 0.65689 0.13427 0.0
C395 C 0.17074 0.64623 0.10075 0.0
H396 H 0.15701 0.64641 0.09371 0.0
H397 H 0.17906 0.65828 0.09587 0.0
H398 H 0.17797 0.63315 0.0969 0.0
O399 O 0.1501 0.59286 0.13472 0.0
O400 O 0.15028 0.59984 0.16483 0.0
H401 H 0.17684 0.64397 0.17951 0.0
H402 H 0.19393 0.65893 0.16899 0.0
C403 C 0.17882 0.65597 0.17006 0.0
H404 H 0.17194 0.66836 0.17613 0.0
H405 H 0.15489 0.61231 0.20301 0.0
O406 O 0.14408 0.61296 0.09532 0.0
C407 C 0.15317 0.58844 0.15161 0.0
Co408 Co 0.37372 0.84766 0.86714 0.0
Co409 Co 0.36394 0.8475 0.82483 0.0
C410 C 0.36709 0.88302 0.84575 0.0
O411 O 0.37115 0.8742 0.86052 0.0
O412 O 0.3637 0.87445 0.83065 0.0
C413 C 0.36471 0.85676 0.90396 0.0
O414 O 0.3524 0.86711 0.89526 0.0
C415 C 0.34209 0.85349 0.79133 0.0
C416 C 0.35344 0.83226 0.77221 0.0
C417 C 0.34011 0.84613 0.77363 0.0
N418 N 0.35593 0.84439 0.79994 0.0
N419 N 0.36284 0.8319 0.78838 0.0
C420 C 0.32984 0.86741 0.8008 0.0
H421 H 0.33053 0.86565 0.81611 0.0
H422 H 0.3152 0.86593 0.79611 0.0
H423 H 0.3347 0.88164 0.7973 0.0
C424 C 0.34243 0.82095 0.86804 0.0
N425 N 0.35304 0.83356 0.85911 0.0
N426 N 0.34869 0.83359 0.84134 0.0
C427 C 0.33508 0.82102 0.83841 0.0
C428 C 0.33069 0.81261 0.85522 0.0
C429 C 0.34529 0.81528 0.88786 0.0
H430 H 0.36038 0.81429 0.8909 0.0
H431 H 0.33919 0.82603 0.89708 0.0
H432 H 0.33861 0.80172 0.89097 0.0
O433 O 0.39671 0.83761 0.85603 0.0
O434 O 0.38962 0.83792 0.82597 0.0
H435 H 0.33816 0.81066 0.81072 0.0
H436 H 0.31546 0.80638 0.82075 0.0
C437 C 0.32709 0.81647 0.81975 0.0
H438 H 0.32175 0.82935 0.81321 0.0
H439 H 0.37363 0.82277 0.79173 0.0
O440 O 0.37572 0.84672 0.89447 0.0
C441 C 0.40097 0.83451 0.83912 0.0
Co442 Co 0.14273 0.3724 0.86802 0.0
Co443 Co 0.14145 0.36212 0.82583 0.0
C444 C 0.10767 0.35914 0.84942 0.0
O445 O 0.11652 0.36509 0.86351 0.0
O446 O 0.11569 0.357 0.83383 0.0
C447 C 0.14014 0.36054 0.90475 0.0
O448 O 0.13439 0.34555 0.89602 0.0
C449 C 0.13688 0.33812 0.7938 0.0
C450 C 0.15135 0.3535 0.77143 0.0
C451 C 0.14162 0.33729 0.77518 0.0
N452 N 0.14368 0.35399 0.80085 0.0
N453 N 0.15222 0.36321 0.78743 0.0
C454 C 0.12514 0.32475 0.80464 0.0
H455 H 0.11036 0.32901 0.80335 0.0
H456 H 0.129 0.32514 0.81957 0.0
H457 H 0.12636 0.31035 0.79934 0.0
C458 C 0.17481 0.34634 0.86672 0.0
N459 N 0.15992 0.3546 0.85886 0.0
N460 N 0.15912 0.34992 0.84119 0.0
C461 C 0.17332 0.3383 0.83732 0.0
C462 C 0.18372 0.3357 0.85336 0.0
C463 C 0.1817 0.35033 0.88595 0.0
H464 H 0.1789 0.36503 0.88966 0.0
H465 H 0.17433 0.34118 0.89595 0.0
H466 H 0.19686 0.34762 0.88715 0.0
O467 O 0.14757 0.39661 0.85612 0.0
O468 O 0.1461 0.38923 0.82614 0.0
H469 H 0.17932 0.34117 0.8083 0.0
H470 H 0.18888 0.32029 0.81865 0.0
C471 C 0.17685 0.32993 0.81858 0.0
H472 H 0.16445 0.32195 0.8142 0.0
H473 H 0.15872 0.37607 0.78921 0.0
O474 O 0.145 0.37465 0.89528 0.0
C475 C 0.14841 0.40117 0.83902 0.0
Co476 Co 0.62276 0.13905 0.8665 0.0
Co477 Co 0.6296 0.13902 0.8236 0.0
C478 C 0.63102 0.10387 0.84552 0.0
O479 O 0.62757 0.11261 0.86051 0.0
O480 O 0.63225 0.11237 0.83005 0.0
C481 C 0.63484 0.13323 0.9034 0.0
O482 O 0.64784 0.12362 0.89488 0.0
C483 C 0.64896 0.13342 0.78848 0.0
C484 C 0.63573 0.15443 0.77033 0.0
C485 C 0.64942 0.14086 0.77071 0.0
N486 N 0.6356 0.14217 0.79813 0.0
N487 N 0.62754 0.15451 0.78715 0.0
C488 C 0.66234 0.11988 0.79695 0.0
H489 H 0.66294 0.12174 0.81224 0.0
H490 H 0.67647 0.12168 0.79101 0.0
H491 H 0.65755 0.10551 0.79395 0.0
C492 C 0.65134 0.16859 0.86458 0.0
N493 N 0.64129 0.15491 0.85668 0.0
N494 N 0.64475 0.15449 0.83873 0.0
C495 C 0.65745 0.16769 0.83468 0.0
C496 C 0.66199 0.1771 0.85093 0.0
C497 C 0.64889 0.17494 0.88426 0.0
H498 H 0.63405 0.17396 0.88831 0.0
H499 H 0.65715 0.16581 0.89356 0.0
H500 H 0.6536 0.18951 0.88618 0.0
O501 O 0.59822 0.14627 0.85672 0.0
O502 O 0.60331 0.14643 0.82627 0.0
H503 H 0.65368 0.17726 0.8068 0.0
H504 H 0.67687 0.18107 0.81584 0.0
C505 C 0.66489 0.17135 0.81559 0.0
H506 H 0.66954 0.15811 0.80929 0.0
H507 H 0.61684 0.1634 0.79134 0.0
O508 O 0.62227 0.14113 0.89382 0.0
C509 C 0.59257 0.14876 0.84013 0.0
Co510 Co 0.85067 0.62268 0.87183 0.0
Co511 Co 0.85062 0.62989 0.82897 0.0
C512 C 0.88543 0.63299 0.85109 0.0
O513 O 0.8768 0.62878 0.86592 0.0
O514 O 0.87697 0.63406 0.83562 0.0
C515 C 0.85528 0.6361 0.90804 0.0
O516 O 0.86161 0.65048 0.89868 0.0
C517 C 0.85505 0.65157 0.79531 0.0
C518 C 0.83756 0.63654 0.77497 0.0
C519 C 0.84878 0.65207 0.77712 0.0
N520 N 0.84766 0.63661 0.80364 0.0
N521 N 0.83739 0.62753 0.79139 0.0
C522 C 0.86839 0.66456 0.80468 0.0
H523 H 0.88191 0.65734 0.80643 0.0
H524 H 0.8632 0.66813 0.81876 0.0
H525 H 0.87088 0.67738 0.79651 0.0
C526 C 0.81969 0.64968 0.87012 0.0
N527 N 0.83393 0.64046 0.86219 0.0
N528 N 0.83412 0.64394 0.84423 0.0
C529 C 0.82015 0.65581 0.84021 0.0
C530 C 0.81056 0.6598 0.8565 0.0
C531 C 0.8134 0.64685 0.88977 0.0
H532 H 0.81585 0.63225 0.89409 0.0
H533 H 0.82145 0.65619 0.89903 0.0
H534 H 0.7984 0.65008 0.89141 0.0
O535 O 0.84439 0.59803 0.86174 0.0
O536 O 0.84486 0.60306 0.83124 0.0
H537 H 0.81212 0.65115 0.81195 0.0
H538 H 0.80454 0.67334 0.82117 0.0
C539 C 0.81593 0.66295 0.82112 0.0
H540 H 0.82848 0.66973 0.81534 0.0
H541 H 0.82999 0.61538 0.79435 0.0
O542 O 0.84936 0.622 0.89918 0.0
C543 C 0.84263 0.59225 0.8451 0.0
Co544 Co 0.12273 0.371 0.1397 0.0
Co545 Co 0.16528 0.3619 0.13965 0.0
C546 C 0.14329 0.36386 0.10436 0.0
O547 O 0.12836 0.36783 0.113 0.0
O548 O 0.15848 0.3611 0.11301 0.0
C549 C 0.08513 0.38021 0.13021 0.0
O550 O 0.09272 0.38714 0.11511 0.0
C551 C 0.19787 0.3389 0.13338 0.0
C552 C 0.21915 0.35238 0.15099 0.0
C553 C 0.21631 0.33754 0.139 0.0
N554 N 0.19028 0.35379 0.14167 0.0
N555 N 0.20308 0.36193 0.15202 0.0
C556 C 0.18691 0.32547 0.12183 0.0
H557 H 0.17179 0.32706 0.12457 0.0
H558 H 0.1912 0.31094 0.12482 0.0
H559 H 0.18945 0.3284 0.10691 0.0
C560 C 0.12255 0.33985 0.16635 0.0
N561 N 0.13135 0.35057 0.15379 0.0
N562 N 0.14927 0.34687 0.15417 0.0
C563 C 0.1525 0.33381 0.16721 0.0
C564 C 0.13566 0.3289 0.17529 0.0
C565 C 0.10243 0.34193 0.17133 0.0
H566 H 0.09979 0.35645 0.17587 0.0
H567 H 0.09378 0.33927 0.15883 0.0
H568 H 0.09821 0.33227 0.18258 0.0
O569 O 0.13414 0.39421 0.14907 0.0
O570 O 0.16434 0.3876 0.14896 0.0
H571 H 0.18036 0.33918 0.17628 0.0
H572 H 0.17092 0.31734 0.18461 0.0
C573 C 0.17145 0.32711 0.17269 0.0
H574 H 0.17787 0.31978 0.16078 0.0
H575 H 0.20075 0.37378 0.16007 0.0
O576 O 0.09548 0.37294 0.14253 0.0
C577 C 0.15099 0.39878 0.15216 0.0
Co578 Co 0.12131 0.62279 0.85078 0.0
Co579 Co 0.16433 0.62903 0.85257 0.0
C580 C 0.1419 0.62494 0.88707 0.0
O581 O 0.12711 0.62269 0.87763 0.0
O582 O 0.15745 0.62786 0.87916 0.0
C583 C 0.08476 0.63433 0.85868 0.0
O584 O 0.0938 0.64573 0.86974 0.0
C585 C 0.19822 0.64962 0.86051 0.0
C586 C 0.2182 0.63757 0.84052 0.0
C587 C 0.21631 0.65128 0.85396 0.0
N588 N 0.18985 0.63574 0.85126 0.0
N589 N 0.20194 0.62833 0.83959 0.0
C590 C 0.18818 0.66239 0.87354 0.0
H591 H 0.17291 0.66123 0.87158 0.0
H592 H 0.19256 0.67703 0.87129 0.0
H593 H 0.19157 0.65846 0.88806 0.0
C594 C 0.12377 0.65509 0.82581 0.0
N595 N 0.13142 0.6436 0.83846 0.0
N596 N 0.1495 0.64643 0.83912 0.0
C597 C 0.1539 0.66004 0.82698 0.0
C598 C 0.13775 0.66594 0.81815 0.0
C599 C 0.10415 0.65338 0.81898 0.0
H600 H 0.10037 0.6385 0.81756 0.0
H601 H 0.09464 0.65985 0.82926 0.0
H602 H 0.10214 0.66033 0.80536 0.0
O603 O 0.13103 0.6001 0.83902 0.0
O604 O 0.16167 0.60401 0.84127 0.0
H605 H 0.18174 0.65448 0.81794 0.0
H606 H 0.17369 0.67773 0.8125 0.0
C607 C 0.17334 0.6664 0.82296 0.0
H608 H 0.17971 0.67175 0.83588 0.0
H609 H 0.19885 0.61749 0.83045 0.0
O610 O 0.09393 0.62291 0.8488 0.0
C611 C 0.1476 0.59443 0.83631 0.0
Co612 Co 0.36747 0.12002 0.85091 0.0
Co613 Co 0.36209 0.16322 0.85079 0.0
C614 C 0.36099 0.14092 0.88605 0.0
O615 O 0.36362 0.12569 0.87745 0.0
O616 O 0.36013 0.15634 0.8774 0.0
C617 C 0.37458 0.08203 0.85999 0.0
O618 O 0.3822 0.08929 0.87492 0.0
C619 C 0.3411 0.19738 0.8558 0.0
C620 C 0.35792 0.21794 0.84032 0.0
C621 C 0.34174 0.216 0.85067 0.0
N622 N 0.35615 0.18884 0.84884 0.0
N623 N 0.36628 0.2012 0.83976 0.0
C624 C 0.32585 0.18727 0.86575 0.0
H625 H 0.32666 0.17211 0.86293 0.0
H626 H 0.31203 0.19263 0.86142 0.0
H627 H 0.32744 0.18941 0.88094 0.0
C628 C 0.33696 0.12246 0.82369 0.0
N629 N 0.34836 0.13039 0.83622 0.0
N630 N 0.3462 0.14856 0.83573 0.0
C631 C 0.33352 0.15281 0.82259 0.0
C632 C 0.32721 0.13639 0.81461 0.0
C633 C 0.33591 0.10196 0.82019 0.0
H634 H 0.33444 0.09451 0.83361 0.0
H635 H 0.32398 0.09833 0.81111 0.0
H636 H 0.34903 0.09727 0.81355 0.0
O637 O 0.39198 0.12958 0.84276 0.0
O638 O 0.38785 0.16021 0.84229 0.0
H639 H 0.32301 0.17226 0.80208 0.0
H640 H 0.31961 0.17885 0.82599 0.0
C641 C 0.3294 0.17218 0.81612 0.0
H642 H 0.34238 0.18048 0.81572 0.0
H643 H 0.37868 0.19813 0.83288 0.0
O644 O 0.36758 0.09273 0.84781 0.0
C645 C 0.39803 0.14597 0.83975 0.0
Co646 Co 0.87219 0.36407 0.85283 0.0
Co647 Co 0.82891 0.35966 0.85428 0.0
C648 C 0.85203 0.35768 0.88866 0.0
O649 O 0.86693 0.36045 0.87955 0.0
O650 O 0.83636 0.3568 0.88053 0.0
C651 C 0.90866 0.35062 0.85824 0.0
O652 O 0.8996 0.33774 0.86751 0.0
C653 C 0.79507 0.33873 0.86014 0.0
C654 C 0.77372 0.35565 0.84589 0.0
C655 C 0.77626 0.33924 0.85574 0.0
N656 N 0.80316 0.35404 0.85321 0.0
N657 N 0.79034 0.36426 0.84491 0.0
C658 C 0.80576 0.32329 0.86914 0.0
H659 H 0.82079 0.3244 0.86575 0.0
H660 H 0.80042 0.30955 0.86454 0.0
H661 H 0.80421 0.3243 0.88445 0.0
C662 C 0.86781 0.33499 0.82402 0.0
N663 N 0.86092 0.34562 0.83781 0.0
N664 N 0.84269 0.34386 0.83821 0.0
C665 C 0.8374 0.33204 0.82465 0.0
C666 C 0.85315 0.32598 0.81533 0.0
C667 C 0.88794 0.33427 0.8187 0.0
H668 H 0.89335 0.34861 0.81685 0.0
H669 H 0.8959 0.32755 0.83006 0.0
H670 H 0.89027 0.32615 0.80582 0.0
O671 O 0.86312 0.38882 0.845 0.0
O672 O 0.83237 0.38574 0.84658 0.0
H673 H 0.80984 0.34206 0.81908 0.0
H674 H 0.81667 0.32257 0.80488 0.0
C675 C 0.81762 0.32875 0.81897 0.0
H676 H 0.81099 0.31909 0.82898 0.0
H677 H 0.79301 0.37684 0.8382 0.0
O678 O 0.89956 0.3635 0.85026 0.0
C679 C 0.84678 0.39548 0.84322 0.0
Co680 Co 0.61777 0.86754 0.84886 0.0
Co681 Co 0.62646 0.82489 0.84929 0.0
C682 C 0.62333 0.84649 0.88446 0.0
O683 O 0.62003 0.86147 0.87564 0.0
O684 O 0.62613 0.83126 0.87593 0.0
C685 C 0.62844 0.90449 0.85616 0.0
O686 O 0.64073 0.89581 0.86653 0.0
C687 C 0.64765 0.79121 0.85655 0.0
C688 C 0.63545 0.77126 0.83661 0.0
C689 C 0.64906 0.77303 0.85016 0.0
N690 N 0.63393 0.79969 0.84717 0.0
N691 N 0.62649 0.78766 0.83545 0.0
C692 C 0.66023 0.80116 0.86984 0.0
H693 H 0.65943 0.81642 0.86766 0.0
H694 H 0.67484 0.79649 0.86807 0.0
H695 H 0.65578 0.79807 0.88428 0.0
C696 C 0.64914 0.86702 0.82219 0.0
N697 N 0.63833 0.85862 0.83499 0.0
N698 N 0.64239 0.84078 0.83553 0.0
C699 C 0.65611 0.83728 0.82326 0.0
C700 C 0.6608 0.85378 0.81438 0.0
C701 C 0.6464 0.88662 0.81567 0.0
H702 H 0.63136 0.88999 0.81527 0.0
H703 H 0.65333 0.89624 0.82554 0.0
H704 H 0.65237 0.88886 0.80163 0.0
O705 O 0.59455 0.85675 0.83879 0.0
O706 O 0.60112 0.82654 0.83904 0.0
H707 H 0.65292 0.80922 0.81384 0.0
H708 H 0.67585 0.81884 0.80972 0.0
C709 C 0.66397 0.81835 0.81954 0.0
H710 H 0.66898 0.81223 0.83272 0.0
H711 H 0.61562 0.79078 0.82635 0.0
O712 O 0.61665 0.89496 0.84706 0.0
C713 C 0.59007 0.8399 0.83553 0.0
Co714 Co 0.86891 0.61869 0.14249 0.0
Co715 Co 0.82668 0.62914 0.14131 0.0
C716 C 0.84983 0.6303 0.10715 0.0
O717 O 0.8641 0.62484 0.11606 0.0
O718 O 0.83432 0.63274 0.11528 0.0
C719 C 0.906 0.63004 0.13931 0.0
O720 O 0.89759 0.64509 0.13322 0.0
C721 C 0.79363 0.65163 0.13491 0.0
C722 C 0.77259 0.63773 0.1525 0.0
C723 C 0.7751 0.65247 0.1403 0.0
N724 N 0.8016 0.63707 0.14345 0.0
N725 N 0.78894 0.62871 0.15383 0.0
C726 C 0.80422 0.6653 0.1233 0.0
H727 H 0.81931 0.6646 0.12651 0.0
H728 H 0.79911 0.67967 0.12576 0.0
H729 H 0.80226 0.66187 0.1084 0.0
C730 C 0.868 0.64615 0.17338 0.0
N731 N 0.86 0.6374 0.15886 0.0
N732 N 0.84235 0.64222 0.15795 0.0
C733 C 0.83864 0.65446 0.17163 0.0
C734 C 0.85474 0.65729 0.18188 0.0
C735 C 0.88715 0.64204 0.18047 0.0
H736 H 0.89066 0.62722 0.17807 0.0
H737 H 0.89733 0.65085 0.17294 0.0
H738 H 0.88831 0.6451 0.19554 0.0
O739 O 0.85698 0.59476 0.14871 0.0
O740 O 0.82704 0.60244 0.14765 0.0
H741 H 0.81005 0.65191 0.17951 0.0
H742 H 0.82042 0.67403 0.18569 0.0
C743 C 0.8199 0.66291 0.17502 0.0
H744 H 0.81463 0.66908 0.16196 0.0
H745 H 0.79154 0.61698 0.16199 0.0
O746 O 0.89622 0.61629 0.14457 0.0
C747 C 0.83984 0.59049 0.15029 0.0
Co748 Co 0.36807 0.86731 0.13992 0.0
Co749 Co 0.36087 0.8244 0.13717 0.0
C750 C 0.36513 0.84774 0.10322 0.0
O751 O 0.36754 0.86236 0.11286 0.0
O752 O 0.36236 0.83206 0.1109 0.0
C753 C 0.35699 0.90423 0.13334 0.0
O754 O 0.34511 0.89568 0.12239 0.0
C755 C 0.34039 0.79039 0.12808 0.0
C756 C 0.35104 0.7707 0.14914 0.0
C757 C 0.33815 0.77248 0.13493 0.0
N758 N 0.35361 0.79895 0.13815 0.0
N759 N 0.36017 0.787 0.15048 0.0
C760 C 0.33033 0.79934 0.11218 0.0
H761 H 0.34043 0.80633 0.10293 0.0
H762 H 0.32068 0.81011 0.11758 0.0
H763 H 0.32248 0.78902 0.10384 0.0
C764 C 0.33579 0.86484 0.16495 0.0
N765 N 0.34714 0.8573 0.15212 0.0
N766 N 0.34373 0.83936 0.15078 0.0
C767 C 0.32978 0.83498 0.16253 0.0
C768 C 0.32434 0.85096 0.17193 0.0
C769 C 0.33816 0.88409 0.17259 0.0
H770 H 0.35316 0.88755 0.17358 0.0
H771 H 0.33142 0.89417 0.16306 0.0
H772 H 0.33185 0.88556 0.18658 0.0
O773 O 0.39064 0.85677 0.15125 0.0
O774 O 0.38584 0.82629 0.14866 0.0
H775 H 0.33366 0.80689 0.17159 0.0
H776 H 0.31023 0.81554 0.17484 0.0
C777 C 0.32252 0.81568 0.16553 0.0
H778 H 0.31834 0.80963 0.15203 0.0
H779 H 0.37043 0.79018 0.16024 0.0
O780 O 0.36853 0.89463 0.14265 0.0
C781 C 0.39582 0.84001 0.15378 0.0
Co782 Co 0.6239 0.11877 0.13653 0.0
Co783 Co 0.63107 0.16164 0.1385 0.0
C784 C 0.63228 0.14091 0.10245 0.0
O785 O 0.62868 0.12558 0.11048 0.0
O786 O 0.63359 0.15597 0.11164 0.0
C787 C 0.63417 0.0817 0.1285 0.0
O788 O 0.64748 0.09016 0.11925 0.0
C789 C 0.65422 0.19448 0.13542 0.0
C790 C 0.63915 0.2152 0.15239 0.0
C791 C 0.65515 0.21261 0.14194 0.0
N792 N 0.63846 0.18675 0.14174 0.0
N793 N 0.62934 0.19925 0.15166 0.0
C794 C 0.66882 0.18388 0.12503 0.0
H795 H 0.66692 0.16869 0.12701 0.0
H796 H 0.68294 0.18802 0.12973 0.0
H797 H 0.66756 0.18701 0.10998 0.0
C798 C 0.65316 0.11892 0.16555 0.0
N799 N 0.64291 0.12756 0.15247 0.0
N800 N 0.64576 0.14562 0.15354 0.0
C801 C 0.65775 0.14907 0.16752 0.0
C802 C 0.66292 0.13226 0.17549 0.0
C803 C 0.65312 0.09833 0.16876 0.0
H804 H 0.65865 0.0913 0.15624 0.0
H805 H 0.66192 0.09427 0.18073 0.0
H806 H 0.63864 0.09347 0.17104 0.0
O807 O 0.59966 0.12907 0.14457 0.0
O808 O 0.60491 0.15952 0.1462 0.0
H809 H 0.66796 0.16761 0.18907 0.0
H810 H 0.67205 0.17507 0.16553 0.0
C811 C 0.66196 0.16811 0.17488 0.0
H812 H 0.64905 0.1765 0.17534 0.0
H813 H 0.61674 0.19671 0.15839 0.0
O814 O 0.62234 0.09136 0.13738 0.0
C815 C 0.59416 0.14557 0.14804 0.0
H816 H 0.18429 0.16881 0.57615 0.0
H817 H 0.19284 0.17758 0.54444 0.0
H818 H 0.13602 0.16921 0.52693 0.0
H819 H 0.12727 0.16094 0.5585 0.0
H820 H 0.19152 0.15526 0.51568 0.0
H821 H 0.14806 0.21595 0.49938 0.0
H822 H 0.15185 0.20827 0.52299 0.0
H823 H 0.1335 0.19823 0.5091 0.0
C824 C 0.17354 0.16919 0.5656 0.0
C825 C 0.15511 0.16407 0.5698 0.0
C826 C 0.17845 0.17427 0.54752 0.0
C827 C 0.16502 0.17437 0.5334 0.0
C828 C 0.14652 0.16981 0.53771 0.0
H829 H 0.15667 0.13001 0.43024 0.0
H830 H 0.16534 0.1383 0.46185 0.0
C831 C 0.14157 0.16486 0.55576 0.0
C832 C 0.17049 0.17661 0.51373 0.0
H833 H 0.154 0.19452 0.47317 0.0
C834 C 0.18373 0.16426 0.50641 0.0
C835 C 0.16083 0.18874 0.50165 0.0
C836 C 0.14795 0.20368 0.50878 0.0
C837 C 0.18595 0.16223 0.48719 0.0
C838 C 0.17426 0.17243 0.47511 0.0
C839 C 0.16264 0.18632 0.48243 0.0
C840 C 0.17172 0.16708 0.45545 0.0
C841 C 0.20019 0.14858 0.48006 0.0
C842 C 0.17214 0.18055 0.44135 0.0
C843 C 0.16679 0.17591 0.42329 0.0
C844 C 0.16092 0.15772 0.41904 0.0
C845 C 0.16119 0.14411 0.43304 0.0
C846 C 0.16636 0.1488 0.4511 0.0
H847 H 0.2125 0.14813 0.4894 0.0
H848 H 0.19403 0.13442 0.47985 0.0
H849 H 0.20491 0.15217 0.4658 0.0
H850 H 0.17608 0.19476 0.44445 0.0
H851 H 0.16686 0.18669 0.41276 0.0
H852 H 0.8646 0.1535 0.42741 0.0
H853 H 0.85682 0.15882 0.45991 0.0
H854 H 0.80024 0.1718 0.44459 0.0
H855 H 0.80777 0.16596 0.41193 0.0
H856 H 0.84272 0.1885 0.47932 0.0
H857 H 0.79366 0.12842 0.48023 0.0
H858 H 0.80906 0.13275 0.46093 0.0
H859 H 0.78866 0.14683 0.46409 0.0
C860 C 0.85054 0.15765 0.43088 0.0
C861 C 0.83673 0.15901 0.41715 0.0
C862 C 0.84612 0.16074 0.44946 0.0
C863 C 0.82789 0.16538 0.45464 0.0
C864 C 0.81429 0.16783 0.44088 0.0
H865 H 0.82124 0.1789 0.57614 0.0
H866 H 0.81393 0.18573 0.54364 0.0
C867 C 0.81865 0.16453 0.42226 0.0
C868 C 0.8232 0.16632 0.47458 0.0
H869 H 0.80128 0.14185 0.50879 0.0
C870 C 0.8334 0.17857 0.48582 0.0
C871 C 0.81101 0.15329 0.48288 0.0
C872 C 0.80003 0.13947 0.47149 0.0
C873 C 0.83283 0.17722 0.50523 0.0
C874 C 0.82132 0.16357 0.51353 0.0
C875 C 0.81006 0.15227 0.5023 0.0
C876 C 0.82294 0.15889 0.53344 0.0
C877 C 0.84563 0.18944 0.51656 0.0
C878 C 0.82946 0.1412 0.53851 0.0
C879 C 0.83337 0.13714 0.55704 0.0
C880 C 0.83097 0.15079 0.57078 0.0
C881 C 0.82351 0.1682 0.56579 0.0
C882 C 0.81937 0.17216 0.54725 0.0
H883 H 0.85593 0.19688 0.50776 0.0
H884 H 0.83726 0.20001 0.52406 0.0
H885 H 0.8533 0.18106 0.52702 0.0
H886 H 0.83226 0.13075 0.52802 0.0
H887 H 0.83902 0.1236 0.56045 0.0
H888 H 0.84137 0.81521 0.41815 0.0
H889 H 0.8341 0.81328 0.45119 0.0
H890 H 0.81448 0.87002 0.45032 0.0
H891 H 0.82236 0.87228 0.41737 0.0
H892 H 0.84024 0.86549 0.47549 0.0
H893 H 0.7891 0.80871 0.48379 0.0
H894 H 0.8088 0.80114 0.47053 0.0
H895 H 0.79399 0.81925 0.46152 0.0
C896 C 0.83516 0.82716 0.4249 0.0
C897 C 0.83267 0.84399 0.41527 0.0
C898 C 0.8308 0.82596 0.44376 0.0
C899 C 0.82353 0.84143 0.45316 0.0
C900 C 0.82003 0.8579 0.44328 0.0
H901 H 0.80677 0.84497 0.57369 0.0
H902 H 0.80043 0.84382 0.54028 0.0
C903 C 0.82463 0.8592 0.42451 0.0
C904 C 0.82246 0.84138 0.47367 0.0
H905 H 0.80776 0.81602 0.51102 0.0
C906 C 0.83283 0.85486 0.48323 0.0
C907 C 0.8127 0.82759 0.48378 0.0
C908 C 0.80037 0.81349 0.47435 0.0
C909 C 0.83443 0.85445 0.50257 0.0
C910 C 0.8258 0.83989 0.51255 0.0
C911 C 0.81464 0.82693 0.50319 0.0
C912 C 0.8289 0.83781 0.53265 0.0
C913 C 0.84561 0.86943 0.51214 0.0
C914 C 0.84686 0.83413 0.53928 0.0
C915 C 0.85059 0.83491 0.55826 0.0
C916 C 0.83634 0.83926 0.57091 0.0
C917 C 0.81808 0.84173 0.56428 0.0
C918 C 0.81439 0.84103 0.54524 0.0
H919 H 0.8471 0.88201 0.50327 0.0
H920 H 0.83905 0.87355 0.52549 0.0
H921 H 0.85976 0.86405 0.51517 0.0
H922 H 0.85815 0.83136 0.52969 0.0
H923 H 0.86474 0.83268 0.56293 0.0
H924 H 0.16459 0.86883 0.5674 0.0
H925 H 0.16861 0.86346 0.53413 0.0
H926 H 0.1579 0.80496 0.542 0.0
H927 H 0.15413 0.81006 0.57538 0.0
H928 H 0.18598 0.81406 0.51383 0.0
H929 H 0.11907 0.85199 0.50616 0.0
H930 H 0.13672 0.86468 0.51848 0.0
H931 H 0.12742 0.84364 0.52829 0.0
C932 C 0.16343 0.85476 0.56214 0.0
C933 C 0.15864 0.83994 0.57395 0.0
C934 C 0.16577 0.85173 0.54315 0.0
C935 C 0.16319 0.8339 0.5357 0.0
C936 C 0.15986 0.81883 0.54758 0.0
H937 H 0.12673 0.82364 0.42175 0.0
H938 H 0.13068 0.81735 0.45487 0.0
C939 C 0.15764 0.82181 0.56661 0.0
C940 C 0.16166 0.83148 0.51545 0.0
H941 H 0.13533 0.84488 0.4785 0.0
C942 C 0.17488 0.82067 0.50603 0.0
C943 C 0.14686 0.83974 0.50551 0.0
C944 C 0.13159 0.85052 0.51511 0.0
C945 C 0.17405 0.8185 0.48665 0.0
C946 C 0.15979 0.82763 0.47661 0.0
C947 C 0.14627 0.83791 0.4862 0.0
C948 C 0.15893 0.82775 0.45611 0.0
C949 C 0.18835 0.80644 0.47716 0.0
C950 C 0.17369 0.8352 0.44575 0.0
C951 C 0.17153 0.83864 0.42679 0.0
C952 C 0.15444 0.83503 0.41799 0.0
C953 C 0.13999 0.82676 0.42821 0.0
C954 C 0.14225 0.82308 0.44709 0.0
H955 H 0.19403 0.79579 0.48682 0.0
H956 H 0.18239 0.7993 0.46484 0.0
H957 H 0.20011 0.81528 0.47247 0.0
H958 H 0.18651 0.83935 0.45249 0.0
H959 H 0.18291 0.84506 0.41927 0.0
H960 H 0.42913 0.14782 0.12529 0.0
H961 H 0.46191 0.15317 0.13181 0.0
H962 H 0.44893 0.16456 0.18924 0.0
H963 H 0.41595 0.1587 0.18296 0.0
H964 H 0.48102 0.18322 0.14552 0.0
H965 H 0.48637 0.12232 0.1932 0.0
H966 H 0.46618 0.12625 0.17886 0.0
H967 H 0.46986 0.14005 0.19934 0.0
C968 C 0.43317 0.15156 0.1393 0.0
C969 C 0.41996 0.1526 0.15365 0.0
C970 C 0.45192 0.15468 0.14299 0.0
C971 C 0.45784 0.159 0.16106 0.0
C972 C 0.44465 0.16087 0.17529 0.0
H973 H 0.57926 0.17692 0.16363 0.0
H974 H 0.54659 0.1826 0.17137 0.0
C975 C 0.42584 0.15757 0.17165 0.0
C976 C 0.47799 0.16051 0.16477 0.0
H977 H 0.51409 0.13699 0.18461 0.0
C978 C 0.48831 0.17336 0.15432 0.0
C979 C 0.48733 0.14758 0.17628 0.0
C980 C 0.47695 0.13317 0.1875 0.0
C981 C 0.50778 0.17276 0.15398 0.0
C982 C 0.51712 0.15924 0.16483 0.0
C983 C 0.50682 0.1473 0.17633 0.0
C984 C 0.53716 0.15547 0.16236 0.0
C985 C 0.51807 0.18566 0.14098 0.0
C986 C 0.54274 0.13806 0.15553 0.0
C987 C 0.56136 0.13467 0.15137 0.0
C988 C 0.57472 0.1487 0.15382 0.0
C989 C 0.56922 0.16593 0.16132 0.0
C990 C 0.55058 0.16922 0.16571 0.0
H991 H 0.50855 0.19286 0.13117 0.0
H992 H 0.52543 0.19644 0.14922 0.0
H993 H 0.5286 0.17789 0.13278 0.0
H994 H 0.53257 0.12725 0.15286 0.0
H995 H 0.56516 0.12124 0.14567 0.0
H996 H 0.80515 0.57713 0.1586 0.0
H997 H 0.79642 0.54491 0.16521 0.0
H998 H 0.85369 0.52811 0.15874 0.0
H999 H 0.86261 0.5602 0.15256 0.0
H1000 H 0.79929 0.51567 0.14268 0.0
H1001 H 0.83998 0.50149 0.20592 0.0
H1002 H 0.83596 0.52484 0.19756 0.0
H1003 H 0.85492 0.51114 0.18847 0.0
C1004 C 0.81593 0.5666 0.1588 0.0
C1005 C 0.8346 0.57121 0.15505 0.0
C1006 C 0.8109 0.54823 0.16263 0.0
C1007 C 0.82446 0.53421 0.16284 0.0
C1008 C 0.84309 0.53881 0.15921 0.0
H1009 H 0.83342 0.42748 0.12456 0.0
H1010 H 0.8246 0.45969 0.12999 0.0
C1011 C 0.84814 0.55715 0.1555 0.0
C1012 C 0.81916 0.51449 0.16512 0.0
H1013 H 0.83415 0.47465 0.1858 0.0
C1014 C 0.80653 0.50672 0.15243 0.0
C1015 C 0.82809 0.50289 0.17824 0.0
C1016 C 0.84031 0.5106 0.19344 0.0
C1017 C 0.80408 0.48741 0.15127 0.0
C1018 C 0.81496 0.47569 0.16273 0.0
C1019 C 0.82609 0.48359 0.1767 0.0
C1020 C 0.81713 0.45559 0.15889 0.0
C1021 C 0.79036 0.4798 0.13735 0.0
C1022 C 0.81603 0.44255 0.17336 0.0
C1023 C 0.82153 0.42416 0.17039 0.0
C1024 C 0.82814 0.41852 0.15288 0.0
C1025 C 0.82832 0.43137 0.13818 0.0
C1026 C 0.82306 0.44978 0.14122 0.0
H1027 H 0.7783 0.48933 0.13579 0.0
H1028 H 0.7972 0.4787 0.12357 0.0
H1029 H 0.78517 0.46584 0.14147 0.0
H1030 H 0.81161 0.44676 0.18712 0.0
H1031 H 0.82109 0.41451 0.18195 0.0
H1032 H 0.55856 0.82824 0.12835 0.0
H1033 H 0.52592 0.82536 0.13719 0.0
H1034 H 0.5403 0.83466 0.1946 0.0
H1035 H 0.57316 0.8375 0.18598 0.0
H1036 H 0.50956 0.80463 0.18387 0.0
H1037 H 0.50153 0.87683 0.15735 0.0
H1038 H 0.51409 0.86123 0.14236 0.0
H1039 H 0.52368 0.86741 0.16457 0.0
C1040 C 0.55489 0.82937 0.1429 0.0
C1041 C 0.56842 0.83341 0.15642 0.0
C1042 C 0.53626 0.82764 0.14792 0.0
C1043 C 0.53085 0.82993 0.16648 0.0
C1044 C 0.54434 0.83282 0.18021 0.0
H1045 H 0.41552 0.86271 0.1768 0.0
H1046 H 0.44789 0.85899 0.18647 0.0
C1047 C 0.56305 0.83452 0.17522 0.0
C1048 C 0.51096 0.83159 0.17091 0.0
H1049 H 0.47387 0.85951 0.16197 0.0
C1050 C 0.50169 0.81671 0.17942 0.0
C1051 C 0.50096 0.84757 0.16546 0.0
C1052 C 0.51055 0.86428 0.15706 0.0
C1053 C 0.48226 0.81697 0.18157 0.0
C1054 C 0.47206 0.83235 0.17466 0.0
C1055 C 0.48162 0.84768 0.16724 0.0
C1056 C 0.45155 0.8323 0.17299 0.0
C1057 C 0.4729 0.8007 0.19094 0.0
C1058 C 0.44265 0.81823 0.16277 0.0
C1059 C 0.42408 0.82021 0.15748 0.0
C1060 C 0.41428 0.83652 0.16191 0.0
C1061 C 0.42286 0.85011 0.173 0.0
C1062 C 0.4413 0.84795 0.17861 0.0
H1063 H 0.48221 0.7943 0.20148 0.0
H1064 H 0.45972 0.80491 0.19781 0.0
H1065 H 0.46973 0.7899 0.18038 0.0
H1066 H 0.45037 0.80628 0.15781 0.0
H1067 H 0.4178 0.80954 0.14889 0.0
H1068 H 0.18441 0.41197 0.16477 0.0
H1069 H 0.19187 0.44387 0.17393 0.0
H1070 H 0.13495 0.46004 0.1637 0.0
H1071 H 0.12727 0.42825 0.15506 0.0
H1072 H 0.19068 0.47297 0.15211 0.0
H1073 H 0.14443 0.48707 0.21126 0.0
H1074 H 0.14906 0.46369 0.20329 0.0
H1075 H 0.13088 0.47743 0.19274 0.0
C1076 C 0.17341 0.42227 0.16478 0.0
C1077 C 0.15525 0.41761 0.1591 0.0
C1078 C 0.17769 0.44045 0.17009 0.0
C1079 C 0.1639 0.45425 0.16984 0.0
C1080 C 0.1457 0.44951 0.16459 0.0
H1081 H 0.15624 0.55897 0.12796 0.0
H1082 H 0.16425 0.52705 0.13575 0.0
C1083 C 0.14136 0.43134 0.15943 0.0
C1084 C 0.16878 0.47403 0.17262 0.0
H1085 H 0.151 0.51391 0.1909 0.0
C1086 C 0.18238 0.48188 0.16101 0.0
C1087 C 0.15844 0.48565 0.18463 0.0
C1088 C 0.14506 0.47793 0.19883 0.0
C1089 C 0.18442 0.5012 0.15961 0.0
C1090 C 0.17218 0.51284 0.16967 0.0
C1091 C 0.16008 0.50498 0.18281 0.0
C1092 C 0.16971 0.53267 0.16484 0.0
C1093 C 0.1991 0.50891 0.14676 0.0
C1094 C 0.16977 0.54641 0.17867 0.0
C1095 C 0.16484 0.56469 0.1743 0.0
C1096 C 0.15972 0.56948 0.15604 0.0
C1097 C 0.16019 0.55578 0.14214 0.0
C1098 C 0.16499 0.53753 0.14654 0.0
H1099 H 0.21148 0.49966 0.14641 0.0
H1100 H 0.19344 0.50962 0.13242 0.0
H1101 H 0.20358 0.52307 0.15102 0.0
H1102 H 0.1732 0.5429 0.19291 0.0
H1103 H 0.16469 0.57496 0.18532 0.0
H1104 H 0.41384 0.82279 0.80529 0.0
H1105 H 0.44586 0.81475 0.7971 0.0
H1106 H 0.46261 0.82355 0.85402 0.0
H1107 H 0.43072 0.83109 0.86241 0.0
H1108 H 0.47412 0.83781 0.79873 0.0
H1109 H 0.49129 0.7774 0.84231 0.0
H1110 H 0.46755 0.78463 0.83834 0.0
H1111 H 0.48116 0.79502 0.85669 0.0
C1112 C 0.42429 0.82266 0.81614 0.0
C1113 C 0.41978 0.8277 0.8345 0.0
C1114 C 0.44255 0.818 0.81143 0.0
C1115 C 0.45656 0.81825 0.82499 0.0
C1116 C 0.45194 0.8227 0.84342 0.0
H1117 H 0.56028 0.8633 0.83283 0.0
H1118 H 0.52849 0.85513 0.82456 0.0
C1119 C 0.4337 0.82722 0.84817 0.0
C1120 C 0.47635 0.81646 0.81971 0.0
H1121 H 0.5172 0.799 0.83607 0.0
C1122 C 0.48352 0.82893 0.8065 0.0
C1123 C 0.4886 0.80451 0.82938 0.0
C1124 C 0.48167 0.7895 0.84229 0.0
C1125 C 0.50274 0.83116 0.80421 0.0
C1126 C 0.51497 0.82104 0.8158 0.0
C1127 C 0.50782 0.80713 0.82749 0.0
C1128 C 0.53471 0.82636 0.81802 0.0
C1129 C 0.50969 0.8449 0.78996 0.0
C1130 C 0.54878 0.81287 0.8173 0.0
C1131 C 0.56696 0.81743 0.82239 0.0
C1132 C 0.57134 0.83558 0.8283 0.0
C1133 C 0.55738 0.84923 0.82827 0.0
C1134 C 0.53921 0.84462 0.82334 0.0
H1135 H 0.50018 0.84542 0.77779 0.0
H1136 H 0.50999 0.85901 0.79619 0.0
H1137 H 0.5239 0.84133 0.78505 0.0
H1138 H 0.54557 0.79868 0.81336 0.0
H1139 H 0.57745 0.80662 0.82215 0.0
H1140 H 0.15451 0.43037 0.8625 0.0
H1141 H 0.15639 0.46327 0.85444 0.0
H1142 H 0.15082 0.44973 0.79634 0.0
H1143 H 0.14902 0.41661 0.80418 0.0
H1144 H 0.17874 0.47932 0.80652 0.0
H1145 H 0.10763 0.48952 0.83477 0.0
H1146 H 0.1231 0.47745 0.85025 0.0
H1147 H 0.11664 0.46692 0.82852 0.0
C1148 C 0.15386 0.4343 0.84798 0.0
C1149 C 0.15134 0.42088 0.834 0.0
C1150 C 0.15497 0.4531 0.84341 0.0
C1151 C 0.15352 0.45881 0.82485 0.0
C1152 C 0.15192 0.44549 0.81075 0.0
H1153 H 0.12377 0.57503 0.81417 0.0
H1154 H 0.12626 0.54239 0.80508 0.0
C1155 C 0.15082 0.42662 0.81529 0.0
C1156 C 0.15227 0.47879 0.82054 0.0
H1157 H 0.12585 0.51679 0.83022 0.0
C1158 C 0.16708 0.48758 0.8114 0.0
C1159 C 0.13681 0.48931 0.82651 0.0
C1160 C 0.12004 0.48032 0.8354 0.0
C1161 C 0.16734 0.50699 0.80913 0.0
C1162 C 0.15256 0.51769 0.81653 0.0
C1163 C 0.13725 0.50864 0.82462 0.0
C1164 C 0.15322 0.53821 0.81786 0.0
C1165 C 0.18351 0.5158 0.79909 0.0
C1166 C 0.16785 0.54688 0.82747 0.0
C1167 C 0.16656 0.5656 0.83246 0.0
C1168 C 0.15042 0.57579 0.8283 0.0
C1169 C 0.13627 0.56741 0.81776 0.0
C1170 C 0.13772 0.54881 0.81248 0.0
H1171 H 0.18935 0.50618 0.7885 0.0
H1172 H 0.1794 0.52896 0.79214 0.0
H1173 H 0.19473 0.51888 0.80924 0.0
H1174 H 0.17972 0.53892 0.83222 0.0
H1175 H 0.17766 0.57172 0.84062 0.0
H1176 H 0.42637 0.12083 0.8417 0.0
H1177 H 0.45926 0.12644 0.83553 0.0
H1178 H 0.44669 0.18249 0.81808 0.0
H1179 H 0.41375 0.1772 0.82481 0.0
H1180 H 0.4792 0.13687 0.80495 0.0
H1181 H 0.48308 0.19104 0.86016 0.0
H1182 H 0.46298 0.17633 0.85724 0.0
H1183 H 0.46692 0.19548 0.84166 0.0
C1184 C 0.43056 0.1343 0.8364 0.0
C1185 C 0.41754 0.14867 0.83403 0.0
C1186 C 0.44935 0.13748 0.83283 0.0
C1187 C 0.45541 0.15499 0.8267 0.0
C1188 C 0.44232 0.16903 0.82325 0.0
H1189 H 0.57654 0.16027 0.80758 0.0
H1190 H 0.54342 0.16555 0.80166 0.0
C1191 C 0.42353 0.16595 0.82705 0.0
C1192 C 0.47556 0.15863 0.82515 0.0
H1193 H 0.51102 0.18235 0.84591 0.0
C1194 C 0.48621 0.14699 0.81368 0.0
C1195 C 0.48454 0.17185 0.83664 0.0
C1196 C 0.47387 0.18432 0.84974 0.0
C1197 C 0.50569 0.14742 0.81418 0.0
C1198 C 0.51467 0.16022 0.82613 0.0
C1199 C 0.50401 0.17263 0.83675 0.0
C1200 C 0.53485 0.15919 0.82979 0.0
C1201 C 0.51643 0.13336 0.80286 0.0
C1202 C 0.54099 0.15473 0.84774 0.0
C1203 C 0.55985 0.15197 0.85124 0.0
C1204 C 0.57289 0.15351 0.83679 0.0
C1205 C 0.56678 0.15874 0.81895 0.0
C1206 C 0.54788 0.16169 0.81551 0.0
H1207 H 0.50727 0.12233 0.79708 0.0
H1208 H 0.52332 0.14052 0.79106 0.0
H1209 H 0.52738 0.12665 0.81143 0.0
H1210 H 0.53112 0.15278 0.85896 0.0
H1211 H 0.5641 0.14801 0.86514 0.0
H1212 H 0.84699 0.57271 0.81279 0.0
H1213 H 0.84448 0.53905 0.80869 0.0
H1214 H 0.82691 0.53329 0.86574 0.0
H1215 H 0.82986 0.56682 0.87012 0.0
H1216 H 0.85654 0.51192 0.85754 0.0
H1217 H 0.80173 0.50226 0.80406 0.0
H1218 H 0.81982 0.51814 0.79736 0.0
H1219 H 0.80482 0.52385 0.81652 0.0
C1220 C 0.84227 0.56431 0.82437 0.0
C1221 C 0.83883 0.57236 0.84185 0.0
C1222 C 0.84071 0.5451 0.82195 0.0
C1223 C 0.83537 0.53374 0.83687 0.0
C1224 C 0.83104 0.54187 0.85406 0.0
H1225 H 0.81495 0.41622 0.84457 0.0
H1226 H 0.81218 0.44984 0.84047 0.0
C1227 C 0.8328 0.561 0.85655 0.0
C1228 C 0.83645 0.51329 0.83537 0.0
H1229 H 0.81994 0.47558 0.81172 0.0
C1230 C 0.84848 0.50397 0.84756 0.0
C1231 C 0.82588 0.50301 0.82235 0.0
C1232 C 0.8122 0.51229 0.80943 0.0
C1233 C 0.85022 0.48462 0.8472 0.0
C1234 C 0.84003 0.47434 0.8339 0.0
C1235 C 0.82792 0.4836 0.8217 0.0
C1236 C 0.84113 0.45387 0.83331 0.0
C1237 C 0.86259 0.47532 0.86142 0.0
C1238 C 0.85818 0.44502 0.82993 0.0
C1239 C 0.8599 0.42587 0.8325 0.0
C1240 C 0.8445 0.41526 0.83825 0.0
C1241 C 0.82712 0.42402 0.84029 0.0
C1242 C 0.82547 0.44321 0.83789 0.0
H1243 H 0.86579 0.4847 0.87327 0.0
H1244 H 0.85599 0.46249 0.86695 0.0
H1245 H 0.87595 0.47139 0.85476 0.0
H1246 H 0.87033 0.45305 0.82604 0.0
H1247 H 0.87341 0.41948 0.83051 0.0
H1248 H 0.11338 0.91027 0.36794 0.0
H1249 H 0.11197 0.94422 0.36765 0.0
H1250 H 0.17087 0.94678 0.35652 0.0
H1251 H 0.17246 0.9128 0.35659 0.0
H1252 H 0.13189 0.9688 0.391 0.0
H1253 H 0.1477 0.98052 0.31628 0.0
H1254 H 0.1406 0.95815 0.32527 0.0
H1255 H 0.1641 0.96608 0.32844 0.0
C1256 C 0.12603 0.91801 0.36529 0.0
C1257 C 0.14303 0.9088 0.36226 0.0
C1258 C 0.12519 0.93741 0.36517 0.0
C1259 C 0.14128 0.94795 0.3619 0.0
C1260 C 0.15825 0.93885 0.35878 0.0
H1261 H 0.15603 0.06595 0.38511 0.0
H1262 H 0.15838 0.03197 0.38489 0.0
C1263 C 0.15913 0.91944 0.35891 0.0
C1264 C 0.14033 0.96849 0.36228 0.0
H1265 H 0.14625 0.00723 0.33552 0.0
C1266 C 0.13502 0.97724 0.37889 0.0
C1267 C 0.14428 0.97936 0.34639 0.0
C1268 C 0.14934 0.9706 0.32802 0.0
C1269 C 0.13364 -0.00333 0.38006 0.0
C1270 C 0.13792 0.00756 0.36427 0.0
C1271 C 0.14312 -0.0012 0.34763 0.0
C1272 C 0.13655 0.02807 0.36454 0.0
C1273 C 0.12726 0.00536 0.39805 0.0
C1274 C 0.12373 0.03708 0.35294 0.0
C1275 C 0.12239 0.05644 0.35298 0.0
C1276 C 0.13394 0.06716 0.36457 0.0
C1277 C 0.14686 0.05809 0.37611 0.0
C1278 C 0.14818 0.03869 0.37606 0.0
H1279 H 0.12054 0.99502 0.40738 0.0
H1280 H 0.13947 0.01126 0.40544 0.0
H1281 H 0.11728 0.01685 0.39538 0.0
H1282 H 0.11468 0.02909 0.34392 0.0
H1283 H 0.11231 0.06299 0.3439 0.0
H1284 H 0.931 0.11564 0.33878 0.0
H1285 H 0.96495 0.11757 0.34013 0.0
H1286 H 0.96102 0.15927 0.38304 0.0
H1287 H 0.92708 0.15726 0.38201 0.0
H1288 H 0.98779 0.1482 0.33399 0.0
H1289 H -0.0037 0.12073 0.40564 0.0
H1290 H 0.97482 0.11857 0.39281 0.0
H1291 H 0.98074 0.1402 0.40387 0.0
C1292 C 0.93735 0.12518 0.34856 0.0
C1293 C 0.92637 0.1362 0.36038 0.0
C1294 C 0.95673 0.12627 0.34929 0.0
C1295 C 0.96545 0.13836 0.36186 0.0
C1296 C 0.95454 0.14958 0.37351 0.0
H1297 H 0.0811 0.17387 0.35901 0.0
H1298 H 0.04713 0.17241 0.35769 0.0
C1299 C 0.93516 0.14845 0.37284 0.0
C1300 C 0.98598 0.13943 0.36256 0.0
H1301 H 0.0233 0.13301 0.39115 0.0
C1302 C -0.00442 0.14486 0.34647 0.0
C1303 C -0.00395 0.13486 0.37881 0.0
C1304 C 0.9865 0.12809 0.39623 0.0
C1305 C 0.01506 0.14601 0.34623 0.0
C1306 C 0.0251 0.1419 0.36263 0.0
C1307 C 0.01551 0.1363 0.37867 0.0
C1308 C 0.04563 0.14287 0.36333 0.0
C1309 C 0.02474 0.15124 0.32837 0.0
C1310 C 0.05597 0.12682 0.36731 0.0
C1311 C 0.07534 0.12761 0.36821 0.0
C1312 C 0.08474 0.14452 0.36522 0.0
C1313 C 0.07431 0.16062 0.36131 0.0
C1314 C 0.05491 0.1598 0.36045 0.0
H1315 H 0.0155 0.14946 0.31612 0.0
H1316 H 0.02897 0.16607 0.32903 0.0
H1317 H 0.03746 0.14272 0.32627 0.0
H1318 H 0.04902 0.11364 0.36964 0.0
H1319 H 0.08293 0.11495 0.37126 0.0
H1320 H 0.83436 0.9291 0.37472 0.0
H1321 H 0.83032 0.96287 0.37456 0.0
H1322 H 0.87626 0.96835 0.33639 0.0
H1323 H 0.88035 0.93458 0.33632 0.0
H1324 H 0.85677 0.98972 0.38498 0.0
H1325 H 0.83429 -0.00126 0.31171 0.0
H1326 H 0.834 0.97647 0.32334 0.0
H1327 H 0.85546 0.98574 0.31448 0.0
C1328 C 0.84357 0.93747 0.36622 0.0
C1329 C 0.85767 0.92916 0.3555 0.0
C1330 C 0.84122 0.95675 0.36615 0.0
C1331 C 0.85283 0.96803 0.35527 0.0
C1332 C 0.86694 0.95982 0.3446 0.0
H1333 H 0.8771 0.08462 0.36584 0.0
H1334 H 0.87747 0.0507 0.3645 0.0
C1335 C 0.86932 0.94053 0.34467 0.0
C1336 C 0.85068 0.98847 0.35571 0.0
H1337 H 0.84208 0.02632 0.32836 0.0
C1338 C 0.85345 -0.00227 0.37264 0.0
C1339 C 0.84611 -0.00119 0.33961 0.0
C1340 C 0.84211 0.98945 0.32128 0.0
C1341 C 0.85229 0.01716 0.37381 0.0
C1342 C 0.84849 0.02754 0.35756 0.0
C1343 C 0.84517 0.01827 0.34073 0.0
C1344 C 0.84826 0.04809 0.35774 0.0
C1345 C 0.85508 0.02642 0.39243 0.0
C1346 C 0.8318 0.05782 0.35385 0.0
C1347 C 0.83152 0.07725 0.35455 0.0
C1348 C 0.84775 0.08724 0.35904 0.0
C1349 C 0.86432 0.07739 0.36246 0.0
C1350 C 0.86456 0.05799 0.36179 0.0
H1351 H 0.85321 0.01647 0.4041 0.0
H1352 H 0.86944 0.03204 0.3932 0.0
H1353 H 0.84523 0.03817 0.39428 0.0
H1354 H 0.81912 0.05036 0.35058 0.0
H1355 H 0.81855 0.0844 0.35177 0.0
H1356 H 0.91084 0.8205 0.35469 0.0
H1357 H 0.94487 0.82062 0.35471 0.0
H1358 H 0.94482 0.87966 0.36535 0.0
H1359 H 0.91083 0.87972 0.36551 0.0
H1360 H 0.96954 0.84161 0.33193 0.0
H1361 H 0.97803 0.85769 0.40694 0.0
H1362 H 0.95637 0.84948 0.3972 0.0
H1363 H 0.96304 0.87344 0.39462 0.0
C1364 C 0.91804 0.83352 0.35705 0.0
C1365 C 0.9081 0.85009 0.36023 0.0
C1366 C 0.93748 0.83355 0.35704 0.0
C1367 C 0.94729 0.85009 0.36033 0.0
C1368 C 0.93745 0.86669 0.36314 0.0
H1369 H 0.06154 0.87867 0.33886 0.0
H1370 H 0.02772 0.87522 0.33893 0.0
C1371 C 0.91803 0.86671 0.36311 0.0
C1372 C 0.96784 0.85005 0.36059 0.0
H1373 H 0.00528 0.85935 0.38824 0.0
C1374 C 0.97739 0.84538 0.34425 0.0
C1375 C 0.97796 0.85472 0.37678 0.0
C1376 C 0.96837 0.85896 0.39495 0.0
C1377 C -0.00311 0.8458 0.34351 0.0
C1378 C 0.00698 0.85122 0.35948 0.0
C1379 C -0.00256 0.85536 0.37598 0.0
C1380 C 0.02746 0.85304 0.35927 0.0
C1381 C 0.00653 0.84034 0.3257 0.0
C1382 C 0.03844 0.84196 0.37098 0.0
C1383 C 0.05778 0.84394 0.37104 0.0
C1384 C 0.06642 0.85716 0.35948 0.0
C1385 C 0.05533 0.86832 0.34787 0.0
C1386 C 0.03601 0.8663 0.3478 0.0
H1387 H -0.00272 0.83203 0.31653 0.0
H1388 H 0.01063 0.85311 0.31805 0.0
H1389 H 0.01932 0.83217 0.3286 0.0
H1390 H 0.03204 0.83173 0.38001 0.0
H1391 H 0.06593 0.83515 0.38016 0.0
H1392 H 0.16908 0.0848 0.62978 0.0
H1393 H 0.16861 0.05079 0.63026 0.0
H1394 H 0.11051 0.0512 0.61531 0.0
H1395 H 0.11082 0.08518 0.61457 0.0
H1396 H 0.14637 0.0273 0.65212 0.0
H1397 H 0.13409 0.01609 0.57677 0.0
H1398 H 0.14171 0.03813 0.58611 0.0
H1399 H 0.11766 0.03144 0.58766 0.0
C1400 C 0.1562 0.07768 0.62652 0.0
C1401 C 0.14 0.08772 0.62204 0.0
C1402 C 0.15597 0.05825 0.62682 0.0
C1403 C 0.13961 0.04854 0.62255 0.0
C1404 C 0.12337 0.05847 0.61829 0.0
H1405 H 0.11024 0.93479 0.6469 0.0
H1406 H 0.11304 0.96864 0.64542 0.0
C1407 C 0.12356 0.07789 0.61799 0.0
C1408 C 0.13939 0.02798 0.62302 0.0
H1409 H 0.13129 0.98956 0.59637 0.0
C1410 C 0.14317 0.01902 0.63993 0.0
C1411 C 0.13544 0.01728 0.60702 0.0
C1412 C 0.13216 0.02618 0.58831 0.0
C1413 C 0.14265 -0.00043 0.64137 0.0
C1414 C 0.138 0.98891 0.62553 0.0
C1415 C 0.13468 -0.00216 0.60852 0.0
C1416 C 0.13635 0.96844 0.62639 0.0
C1417 C 0.14721 0.99059 0.65977 0.0
C1418 C 0.1483 0.95719 0.61587 0.0
C1419 C 0.14671 0.93783 0.61663 0.0
C1420 C 0.13304 0.92944 0.62784 0.0
C1421 C 0.12097 0.94081 0.6382 0.0
C1422 C 0.1226 0.96014 0.63745 0.0
H1423 H 0.15492 0.00022 0.66908 0.0
H1424 H 0.13409 0.98657 0.66684 0.0
H1425 H 0.15567 0.97782 0.65774 0.0
H1426 H 0.15894 0.96339 0.60717 0.0
H1427 H 0.1562 0.92946 0.60845 0.0
H1428 H 0.05601 0.10927 0.59717 0.0
H1429 H 0.02235 0.11258 0.60104 0.0
H1430 H 0.02985 0.16915 0.6195 0.0
H1431 H 0.06352 0.16603 0.61569 0.0
H1432 H 0.00495 0.12307 0.63665 0.0
H1433 H 0.98827 0.1714 0.57848 0.0
H1434 H 0.00911 0.15733 0.57876 0.0
H1435 H 0.00753 0.17759 0.59322 0.0
C1436 C 0.05051 0.1225 0.60183 0.0
C1437 C 0.06244 0.13738 0.60614 0.0
C1438 C 0.0313 0.12434 0.60406 0.0
C1439 C 0.0237 0.14113 0.61043 0.0
C1440 C 0.03549 0.15615 0.61435 0.0
H1441 H 0.90789 0.17222 0.63065 0.0
H1442 H 0.94194 0.17266 0.62886 0.0
C1443 C 0.05471 0.15431 0.61222 0.0
C1444 C 0.00352 0.14255 0.61396 0.0
H1445 H 0.96366 0.16316 0.59855 0.0
C1446 C -0.00412 0.13184 0.62835 0.0
C1447 C 0.99189 0.15418 0.60323 0.0
C1448 C -0.0005 0.16573 0.58746 0.0
C1449 C 0.97679 0.13235 0.63226 0.0
C1450 C 0.96502 0.14356 0.62117 0.0
C1451 C 0.97274 0.15459 0.60702 0.0
C1452 C 0.94455 0.1432 0.62331 0.0
C1453 C 0.96943 0.12101 0.64831 0.0
C1454 C 0.93481 0.1265 0.62074 0.0
C1455 C 0.91545 0.12616 0.62183 0.0
C1456 C 0.9054 0.14259 0.62529 0.0
C1457 C 0.91521 0.15932 0.628 0.0
C1458 C 0.93464 0.15961 0.62695 0.0
H1459 H 0.98049 0.11809 0.6587 0.0
H1460 H 0.95775 0.12823 0.65538 0.0
H1461 H 0.96426 0.10746 0.64301 0.0
H1462 H 0.94217 0.11375 0.61749 0.0
H1463 H 0.90837 0.11305 0.61956 0.0
H1464 H 0.8786 0.9076 0.61684 0.0
H1465 H 0.87982 0.94145 0.61869 0.0
H1466 H 0.83031 0.94151 0.65266 0.0
H1467 H 0.82854 0.90761 0.65015 0.0
H1468 H 0.82741 0.96648 0.62659 0.0
H1469 H 0.89644 0.97497 0.65934 0.0
H1470 H 0.89806 0.96167 0.63835 0.0
H1471 H 0.88503 0.95268 0.65779 0.0
C1472 C 0.8681 0.9148 0.62492 0.0
C1473 C 0.8535 0.90495 0.63341 0.0
C1474 C 0.86889 0.93416 0.62606 0.0
C1475 C 0.85537 0.94403 0.63612 0.0
C1476 C 0.84094 0.93418 0.64488 0.0
H1477 H 0.86736 0.06212 0.65976 0.0
H1478 H 0.86546 0.02826 0.66177 0.0
C1479 C 0.83995 0.91482 0.64347 0.0
C1480 C 0.85565 0.96465 0.63652 0.0
H1481 H 0.88368 0.00208 0.64463 0.0
C1482 C 0.83965 0.97427 0.63074 0.0
C1483 C 0.87151 0.97484 0.64218 0.0
C1484 C 0.88864 0.96549 0.64995 0.0
C1485 C 0.83921 0.99376 0.63007 0.0
C1486 C 0.85546 0.0039 0.63465 0.0
C1487 C 0.87131 0.99431 0.64084 0.0
C1488 C 0.85631 0.02448 0.63335 0.0
C1489 C 0.82122 0.00322 0.6248 0.0
C1490 C 0.85199 0.03363 0.61663 0.0
C1491 C 0.85276 0.05302 0.61555 0.0
C1492 C 0.85833 0.06355 0.63102 0.0
C1493 C 0.86307 0.05436 0.64759 0.0
C1494 C 0.86198 0.03501 0.64876 0.0
H1495 H 0.80902 0.99417 0.62768 0.0
H1496 H 0.81938 0.01652 0.63243 0.0
H1497 H 0.82132 0.00624 0.60967 0.0
H1498 H 0.84815 0.02578 0.60438 0.0
H1499 H 0.84922 0.05975 0.60255 0.0
H1500 H 0.08224 0.87908 0.61894 0.0
H1501 H 0.04839 0.87839 0.61604 0.0
H1502 H 0.0479 0.82073 0.63255 0.0
H1503 H 0.08183 0.8212 0.63555 0.0
H1504 H 0.02815 0.85257 0.59179 0.0
H1505 H 0.0084 0.8471 0.66642 0.0
H1506 H 0.0309 0.85553 0.65902 0.0
H1507 H 0.02579 0.83112 0.65814 0.0
C1508 C 0.07496 0.86628 0.62216 0.0
C1509 C 0.08476 0.85018 0.62746 0.0
C1510 C 0.05564 0.86592 0.62044 0.0
C1511 C 0.04573 0.84955 0.62416 0.0
C1512 C 0.05535 0.83355 0.62981 0.0
H1513 H 0.9269 0.82673 0.62207 0.0
H1514 H 0.96072 0.82385 0.62432 0.0
C1515 C 0.07472 0.83385 0.63146 0.0
C1516 C 0.0254 0.8491 0.62138 0.0
H1517 H 0.98408 0.84603 0.64446 0.0
C1518 C 0.01847 0.85112 0.60327 0.0
C1519 C 0.01293 0.84706 0.63641 0.0
C1520 C 0.01978 0.84519 0.65614 0.0
C1521 C -0.00072 0.85116 0.59975 0.0
C1522 C 0.98677 0.84958 0.61484 0.0
C1523 C 0.99373 0.84726 0.63293 0.0
C1524 C 0.96638 0.85086 0.61229 0.0
C1525 C 0.99262 0.85267 0.57992 0.0
C1526 C 0.95839 0.867 0.60475 0.0
C1527 C 0.93908 0.86865 0.60333 0.0
C1528 C 0.92743 0.85428 0.60967 0.0
C1529 C 0.93549 0.83805 0.61706 0.0
C1530 C 0.9548 0.83638 0.61837 0.0
H1531 H 0.0035 0.8481 0.56994 0.0
H1532 H 0.97991 0.84419 0.57763 0.0
H1533 H 0.98925 0.86741 0.5768 0.0
H1534 H 0.96706 0.87851 0.60036 0.0
H1535 H 0.9333 0.88137 0.5977 0.0
H1536 H 0.35663 0.17068 0.90943 0.0
H1537 H 0.35659 0.1704 0.94343 0.0
H1538 H 0.36223 0.11067 0.94311 0.0
H1539 H 0.36256 0.11076 0.90919 0.0
H1540 H 0.33287 0.1523 0.9684 0.0
H1541 H 0.40574 0.1279 0.97576 0.0
H1542 H 0.39652 0.13667 0.95413 0.0
H1543 H 0.3916 0.11322 0.96133 0.0
C1544 C 0.35784 0.15746 0.91657 0.0
C1545 C 0.35976 0.14075 0.90658 0.0
C1546 C 0.3578 0.15735 0.93599 0.0
C1547 C 0.35976 0.14055 0.94572 0.0
C1548 C 0.36112 0.12381 0.93582 0.0
H1549 H 0.33629 0.11592 0.06063 0.0
H1550 H 0.33619 0.11895 0.02681 0.0
C1551 C 0.36119 0.1239 0.91643 0.0
C1552 C 0.36032 0.1405 0.96625 0.0
H1553 H 0.38726 0.12793 0.00323 0.0
C1554 C 0.34478 0.14707 0.97605 0.0
C1555 C 0.37602 0.13395 0.97613 0.0
C1556 C 0.3935 0.1277 0.96633 0.0
C1557 C 0.34432 0.14679 -0.00447 0.0
C1558 C 0.35969 0.13945 0.00538 0.0
C1559 C 0.37543 0.13336 -0.0044 0.0
C1560 C 0.35966 0.13779 0.02586 0.0
C1561 C 0.32747 0.15448 0.0054 0.0
C1562 C 0.37321 0.147 0.03646 0.0
C1563 C 0.37341 0.14518 0.05578 0.0
C1564 C 0.3601 0.13403 0.06481 0.0
C1565 C 0.34666 0.12469 0.05411 0.0
C1566 C 0.3465 0.1265 0.0348 0.0
H1567 H 0.31941 0.16405 -0.00367 0.0
H1568 H 0.31818 0.14281 0.00943 0.0
H1569 H 0.33153 0.16205 0.01822 0.0
H1570 H 0.38356 0.15568 0.02977 0.0
H1571 H 0.38394 0.15255 0.06363 0.0
H1572 H 0.88224 0.38988 0.06008 0.0
H1573 H 0.88033 0.38504 0.02646 0.0
H1574 H 0.82835 0.35592 0.0334 0.0
H1575 H 0.83011 0.36058 0.06705 0.0
H1576 H 0.87588 0.34715 0.00845 0.0
H1577 H 0.81962 0.39808 0.99269 0.0
H1578 H 0.83403 0.39989 0.0132 0.0
H1579 H 0.81613 0.38255 0.01203 0.0
C1580 C 0.87033 0.38255 0.05447 0.0
C1581 C 0.85631 0.37563 0.06622 0.0
C1582 C 0.8693 0.37977 0.03529 0.0
C1583 C 0.85416 0.37022 0.02756 0.0
C1584 C 0.84005 0.36346 0.03917 0.0
H1585 H 0.82392 0.34845 0.91262 0.0
H1586 H 0.82456 0.34958 0.94658 0.0
C1587 C 0.84111 0.36611 0.05837 0.0
C1588 C 0.85341 0.3669 0.00735 0.0
H1589 H 0.83082 0.37999 0.9678 0.0
C1590 C 0.86604 0.35428 -0.00049 0.0
C1591 C 0.84044 0.37615 -0.00411 0.0
C1592 C 0.8268 0.39003 0.00376 0.0
C1593 C 0.86601 0.35061 0.98037 0.0
C1594 C 0.85331 0.36019 0.96878 0.0
C1595 C 0.84053 0.37265 0.97672 0.0
C1596 C 0.85341 0.35802 0.94832 0.0
C1597 C 0.87938 0.3363 0.97281 0.0
C1598 C 0.86946 0.3623 0.93806 0.0
C1599 C 0.8692 0.36151 0.91868 0.0
C1600 C 0.85278 0.35674 0.90918 0.0
C1601 C 0.83679 0.3522 0.91951 0.0
C1602 C 0.83711 0.35286 0.93891 0.0
H1603 H 0.88373 0.32628 0.98374 0.0
H1604 H 0.87313 0.32841 0.9611 0.0
H1605 H 0.89207 0.34343 0.96767 0.0
H1606 H 0.88205 0.36676 0.94502 0.0
H1607 H 0.88171 0.36524 0.91116 0.0
H1608 H 0.62817 0.81694 0.90796 0.0
H1609 H 0.62725 0.81712 0.9419 0.0
H1610 H 0.61823 0.87643 0.9415 0.0
H1611 H 0.61879 0.87641 0.90755 0.0
H1612 H 0.64969 0.83582 0.96665 0.0
H1613 H 0.57605 0.85754 0.97455 0.0
H1614 H 0.58551 0.84948 0.95275 0.0
H1615 H 0.58956 0.87298 0.9603 0.0
C1616 C 0.62594 0.83004 0.91506 0.0
C1617 C 0.62342 0.84665 0.90502 0.0
C1618 C 0.62542 0.8301 0.93446 0.0
C1619 C 0.62233 0.84672 0.94417 0.0
C1620 C 0.62018 0.86338 0.93424 0.0
H1621 H 0.64628 0.87074 0.05902 0.0
H1622 H 0.64567 0.86843 0.02517 0.0
C1623 C 0.62064 0.86335 0.91483 0.0
C1624 C 0.62184 0.8467 0.96471 0.0
H1625 H 0.59468 0.85799 0.00195 0.0
C1626 C 0.63763 0.84057 0.97438 0.0
C1627 C 0.60597 0.85263 0.97473 0.0
C1628 C 0.58823 0.85836 0.96508 0.0
C1629 C 0.63818 0.84065 0.99386 0.0
C1630 C 0.62263 0.84737 0.00386 0.0
C1631 C 0.60665 0.85304 0.99421 0.0
C1632 C 0.62279 0.84887 0.02435 0.0
C1633 C 0.65534 0.8334 0.00355 0.0
C1634 C 0.60977 0.83904 0.03505 0.0
C1635 C 0.60997 0.84043 0.05443 0.0
C1636 C 0.62317 0.85176 0.06337 0.0
C1637 C 0.63602 0.86179 0.05256 0.0
C1638 C 0.63577 0.86041 0.03322 0.0
H1639 H 0.66359 0.82412 0.99436 0.0
H1640 H 0.66431 0.8453 0.00756 0.0
H1641 H 0.65161 0.82562 0.01636 0.0
H1642 H 0.59957 0.83014 0.02842 0.0
H1643 H 0.59989 0.83255 0.06237 0.0
H1644 H 0.10639 0.59383 0.05936 0.0
H1645 H 0.10892 0.59622 0.02551 0.0
H1646 H 0.16391 0.61954 0.03108 0.0
H1647 H 0.16158 0.6172 0.06489 0.0
H1648 H 0.11567 0.63091 0.00596 0.0
H1649 H 0.16967 0.57738 0.99171 0.0
H1650 H 0.15617 0.57767 0.0129 0.0
H1651 H 0.17505 0.59373 0.00984 0.0
C1652 C 0.11911 0.59926 0.05339 0.0
C1653 C 0.13378 0.60534 0.06481 0.0
C1654 C 0.12051 0.60064 0.03407 0.0
C1655 C 0.13665 0.6079 0.02586 0.0
C1656 C 0.15145 0.61365 0.03718 0.0
H1657 H 0.16977 0.63157 0.91221 0.0
H1658 H 0.16834 0.62813 0.94603 0.0
C1659 C 0.15005 0.61237 0.05649 0.0
C1660 C 0.13758 0.61051 0.00552 0.0
H1661 H 0.16074 0.59663 0.96653 0.0
C1662 C 0.12545 0.62338 -0.00271 0.0
C1663 C 0.15049 0.60076 0.99438 0.0
C1664 C 0.16352 0.58649 0.00257 0.0
C1665 C 0.12602 0.62694 0.97814 0.0
C1666 C 0.13879 0.61704 0.96692 0.0
C1667 C 0.15098 0.60421 0.97519 0.0
C1668 C 0.13949 0.61954 0.94651 0.0
C1669 C 0.11323 0.64158 0.97019 0.0
C1670 C 0.12377 0.61573 0.93561 0.0
C1671 C 0.12448 0.6178 0.91634 0.0
C1672 C 0.14103 0.62348 0.90756 0.0
C1673 C 0.1568 0.6272 0.91853 0.0
C1674 C 0.15603 0.62521 0.93784 0.0
H1675 H 0.10844 0.65147 0.98105 0.0
H1676 H 0.1202 0.64957 0.95896 0.0
H1677 H 0.10075 0.63472 0.96424 0.0
H1678 H 0.111 0.61091 0.94199 0.0
H1679 H 0.11212 0.61466 0.90832 0.0
H1680 H 0.36923 0.879 0.08185 0.0
H1681 H 0.36934 0.88102 0.04792 0.0
H1682 H 0.36225 0.82156 0.04422 0.0
H1683 H 0.36202 0.81934 0.07808 0.0
H1684 H 0.39346 0.86321 0.02224 0.0
H1685 H 0.3196 0.84278 0.01217 0.0
H1686 H 0.32872 0.85004 0.0344 0.0
H1687 H 0.33301 0.82688 0.02602 0.0
C1688 C 0.36767 0.86633 0.07384 0.0
C1689 C 0.36547 0.84901 0.0827 0.0
C1690 C 0.36776 0.86753 0.05447 0.0
C1691 C 0.36554 0.85147 0.04364 0.0
C1692 C 0.36363 0.83415 0.05238 0.0
H1693 H 0.38769 0.8362 0.92624 0.0
H1694 H 0.38831 0.83549 0.96023 0.0
C1695 C 0.36356 0.83292 0.07174 0.0
C1696 C 0.36538 0.85282 0.02315 0.0
H1697 H 0.33826 0.84494 0.98505 0.0
C1698 C 0.3814 0.85928 0.01407 0.0
C1699 C 0.34951 0.84788 0.01264 0.0
C1700 C 0.33166 0.84166 0.02177 0.0
C1701 C 0.38209 0.86062 0.99464 0.0
C1702 C 0.36642 0.85514 0.9841 0.0
C1703 C 0.3503 0.84898 0.9932 0.0
C1704 C 0.36637 0.85582 0.96357 0.0
C1705 C 0.39947 0.86812 0.98555 0.0
C1706 C 0.35358 0.86723 0.95426 0.0
C1707 C 0.35312 0.86761 0.93487 0.0
C1708 C 0.36538 0.85649 0.92447 0.0
C1709 C 0.37814 0.84501 0.93386 0.0
C1710 C 0.37858 0.84465 0.95327 0.0
H1711 H 0.4083 0.8759 -0.00443 0.0
H1712 H 0.40778 0.85635 0.98002 0.0
H1713 H 0.39594 0.87746 0.97377 0.0
H1714 H 0.34398 0.87588 0.96201 0.0
H1715 H 0.34311 0.87658 0.92806 0.0
H1716 H 0.14475 0.39063 0.92754 0.0
H1717 H 0.14589 0.39079 0.96152 0.0
H1718 H 0.13997 0.33105 0.9621 0.0
H1719 H 0.13819 0.33085 0.9282 0.0
H1720 H 0.11733 0.34678 0.98661 0.0
H1721 H 0.18806 0.37624 -0.00481 0.0
H1722 H 0.17312 0.3909 0.98161 0.0
H1723 H 0.17942 0.36822 0.97305 0.0
C1724 C 0.14379 0.37752 0.93492 0.0
C1725 C 0.14139 0.36072 0.92522 0.0
C1726 C 0.14458 0.37762 0.95432 0.0
C1727 C 0.14335 0.36089 0.96433 0.0
C1728 C 0.14101 0.34411 0.95465 0.0
H1729 H 0.16971 0.34876 0.08157 0.0
H1730 H 0.16937 0.34732 0.04762 0.0
C1731 C 0.14 0.34402 0.93528 0.0
C1732 C 0.14374 0.36088 0.98492 0.0
H1733 H 0.16927 0.37464 0.02246 0.0
C1734 C 0.12874 0.35277 0.99446 0.0
C1735 C 0.15876 0.36846 -0.00488 0.0
C1736 C 0.17584 0.37627 0.98572 0.0
C1737 C 0.12823 0.35225 0.01393 0.0
C1738 C 0.14285 0.36058 0.02414 0.0
C1739 C 0.15798 0.36844 0.01461 0.0
C1740 C 0.1428 0.36119 0.04472 0.0
C1741 C 0.11219 0.34246 0.02332 0.0
C1742 C 0.12804 0.3696 0.05433 0.0
C1743 C 0.12807 0.37023 0.07373 0.0
C1744 C 0.14306 0.36278 0.08385 0.0
C1745 C 0.15796 0.35461 0.07417 0.0
C1746 C 0.1578 0.3538 0.05478 0.0
H1747 H 0.10555 0.33214 0.01392 0.0
H1748 H 0.1168 0.33517 0.03612 0.0
H1749 H 0.10147 0.35285 0.0272 0.0
H1750 H 0.11657 0.37587 0.04684 0.0
H1751 H 0.11649 0.37682 0.08076 0.0
H1752 H 0.63757 0.1712 0.07986 0.0
H1753 H 0.63841 0.17165 0.04583 0.0
H1754 H 0.63235 0.11198 0.04478 0.0
H1755 H 0.63126 0.11133 0.07866 0.0
H1756 H 0.6624 0.1535 0.02053 0.0
H1757 H 0.58913 0.13062 0.0123 0.0
H1758 H 0.59833 0.13898 0.0341 0.0
H1759 H 0.60281 0.1155 0.02672 0.0
C1760 C 0.63647 0.15816 0.07239 0.0
C1761 C 0.63414 0.14125 0.08198 0.0
C1762 C 0.63697 0.15846 0.05297 0.0
C1763 C 0.63508 0.14189 0.04286 0.0
C1764 C 0.63342 0.12495 0.05237 0.0
H1765 H 0.6589 0.1172 0.92807 0.0
H1766 H 0.65922 0.12065 0.96187 0.0
C1767 C 0.63289 0.12462 0.07174 0.0
C1768 C 0.6347 0.14222 0.02233 0.0
H1769 H 0.60791 0.13034 0.98504 0.0
C1770 C 0.65046 0.14857 0.01273 0.0
C1771 C 0.61897 0.13605 0.01225 0.0
C1772 C 0.60127 0.13007 0.02184 0.0
C1773 C 0.65113 0.14835 0.99324 0.0
C1774 C 0.63573 0.14133 0.9832 0.0
C1775 C 0.61977 0.13553 0.9928 0.0
C1776 C 0.6359 0.13968 0.96271 0.0
C1777 C 0.66823 0.15574 0.98358 0.0
C1778 C 0.62241 0.1489 0.95206 0.0
C1779 C 0.62207 0.14682 0.93277 0.0
C1780 C 0.63518 0.13541 0.92381 0.0
C1781 C 0.64866 0.12615 0.93454 0.0
C1782 C 0.64896 0.12822 0.95384 0.0
H1783 H 0.67632 0.1652 0.99274 0.0
H1784 H 0.67738 0.14392 0.97972 0.0
H1785 H 0.66447 0.16335 0.97068 0.0
H1786 H 0.61214 0.15772 0.95868 0.0
H1787 H 0.61153 0.15416 0.9249 0.0
H1788 H 0.84911 0.60704 0.93169 0.0
H1789 H 0.84814 0.60787 0.96562 0.0
H1790 H 0.85827 0.66703 0.96459 0.0
H1791 H 0.85987 0.66621 0.93065 0.0
H1792 H 0.87938 0.6503 0.9901 0.0
H1793 H 0.80654 0.62648 -0.00205 0.0
H1794 H 0.82036 0.61038 0.98485 0.0
H1795 H 0.81612 0.63336 0.97582 0.0
C1796 C 0.85106 0.62024 0.93868 0.0
C1797 C 0.8545 0.63658 0.92852 0.0
C1798 C 0.85038 0.62071 0.95807 0.0
C1799 C 0.85275 0.63757 0.96761 0.0
C1800 C 0.85631 0.65388 0.95749 0.0
H1801 H 0.82535 0.64888 0.08481 0.0
H1802 H 0.82671 0.6524 0.05107 0.0
C1803 C 0.85721 0.65339 0.93811 0.0
C1804 C 0.85205 0.63812 0.98817 0.0
H1805 H 0.82522 0.62624 0.02542 0.0
C1806 C 0.86748 0.64519 -0.00216 0.0
C1807 C 0.83638 0.63175 -0.00178 0.0
C1808 C 0.81884 0.62525 0.98867 0.0
C1809 C 0.86785 0.64564 0.01732 0.0
C1810 C 0.8526 0.63831 0.02738 0.0
C1811 C 0.83699 0.63166 0.01769 0.0
C1812 C 0.85252 0.6372 0.04793 0.0
C1813 C 0.88447 0.65419 0.02688 0.0
C1814 C 0.8666 0.62751 0.05738 0.0
C1815 C 0.866 0.62571 0.0767 0.0
C1816 C 0.85108 0.63321 0.08687 0.0
C1817 C 0.837 0.64291 0.07737 0.0
C1818 C 0.83776 0.64493 0.05809 0.0
H1819 H 0.8917 0.6643 0.01768 0.0
H1820 H 0.88037 0.66143 0.03988 0.0
H1821 H 0.89456 0.64307 0.03044 0.0
H1822 H 0.87785 0.62098 0.0498 0.0
H1823 H 0.87695 0.61798 0.08359 0.0
H1824 H 0.91128 0.362 0.17237 0.0
H1825 H 0.94522 0.36473 0.17083 0.0
H1826 H 0.94158 0.37921 0.11279 0.0
H1827 H 0.90772 0.37656 0.11411 0.0
H1828 H 0.97023 0.34484 0.14528 0.0
H1829 H 0.97283 0.42177 0.13756 0.0
H1830 H 0.95268 0.40972 0.14655 0.0
H1831 H 0.95732 0.40979 0.12203 0.0
C1832 C 0.91768 0.36577 0.15927 0.0
C1833 C 0.90678 0.36914 0.14338 0.0
C1834 C 0.93705 0.36731 0.15843 0.0
C1835 C 0.94579 0.37242 0.14177 0.0
C1836 C 0.93501 0.37554 0.12584 0.0
H1837 H 0.05869 0.39089 0.10503 0.0
H1838 H 0.02487 0.38892 0.10842 0.0
C1839 C 0.91568 0.3739 0.12662 0.0
C1840 C 0.96624 0.37417 0.14089 0.0
H1841 H 0.00122 0.40546 0.13374 0.0
C1842 C 0.97707 0.35808 0.14288 0.0
C1843 C 0.97498 0.39149 0.13767 0.0
C1844 C 0.96392 0.40924 0.13596 0.0
C1845 C -0.00349 0.35876 0.14129 0.0
C1846 C 0.00529 0.37609 0.13806 0.0
C1847 C 0.99443 0.39221 0.13621 0.0
C1848 C 0.02575 0.37775 0.13634 0.0
C1849 C 0.00739 0.34084 0.14251 0.0
C1850 C 0.03739 0.37248 0.15106 0.0
C1851 C 0.0567 0.37348 0.14915 0.0
C1852 C 0.0647 0.37998 0.13252 0.0
C1853 C 0.05297 0.38578 0.11799 0.0
C1854 C 0.03365 0.38467 0.1199 0.0
H1855 H -0.00158 0.32851 0.13998 0.0
H1856 H 0.01899 0.34069 0.13232 0.0
H1857 H 0.01339 0.3395 0.15665 0.0
H1858 H 0.03155 0.36753 0.16403 0.0
H1859 H 0.06534 0.36907 0.16067 0.0
H1860 H 0.90793 0.63223 0.8817 0.0
H1861 H 0.94182 0.63429 0.88258 0.0
H1862 H 0.94315 0.64137 0.82308 0.0
H1863 H 0.90921 0.63947 0.822 0.0
H1864 H 0.96615 0.60999 0.8641 0.0
H1865 H 0.97705 0.68341 0.84245 0.0
H1866 H 0.95487 0.67483 0.85057 0.0
H1867 H 0.96243 0.66996 0.82728 0.0
C1868 C 0.91537 0.63444 0.8688 0.0
C1869 C 0.90583 0.63568 0.85177 0.0
C1870 C 0.93474 0.63559 0.86935 0.0
C1871 C 0.94493 0.63813 0.85293 0.0
C1872 C 0.93549 0.63972 0.83594 0.0
H1873 H 0.06198 0.61314 0.8368 0.0
H1874 H 0.02801 0.61417 0.83516 0.0
C1875 C 0.91609 0.63856 0.83536 0.0
C1876 C 0.96548 0.63802 0.85353 0.0
H1877 H 0.00396 0.66437 0.84461 0.0
C1878 C 0.97444 0.62188 0.85988 0.0
C1879 C 0.97617 0.65361 0.84813 0.0
C1880 C 0.96719 0.67152 0.84187 0.0
C1881 C 0.99389 0.62085 0.86084 0.0
C1882 C 0.0046 0.6363 0.85506 0.0
C1883 C -0.00435 0.65251 0.84888 0.0
C1884 C 0.02514 0.63598 0.85567 0.0
C1885 C 0.0028 0.60337 0.86832 0.0
C1886 C 0.03474 0.64821 0.86745 0.0
C1887 C 0.05413 0.6477 0.8684 0.0
C1888 C 0.06426 0.63501 0.8575 0.0
C1889 C 0.05459 0.62299 0.84548 0.0
C1890 C 0.03519 0.62351 0.84455 0.0
H1891 H 0.99271 0.59464 0.87611 0.0
H1892 H 0.00825 0.59501 0.85655 0.0
H1893 H 0.01465 0.60679 0.87763 0.0
H1894 H 0.02719 0.65798 0.87608 0.0
H1895 H 0.06117 0.65719 0.87774 0.0
H1896 H 0.36149 0.06273 0.82996 0.0
H1897 H 0.35919 0.02895 0.8264 0.0
H1898 H 0.38314 0.02142 0.88082 0.0
H1899 H 0.38551 0.05516 0.88457 0.0
H1900 H 0.38912 0.0016 0.82917 0.0
H1901 H 0.33328 0.99153 0.88166 0.0
H1902 H 0.33832 0.01389 0.87135 0.0
H1903 H 0.353 0.00482 0.88941 0.0
C1904 C 0.36628 0.0539 0.84118 0.0
C1905 C 0.37362 0.06163 0.8576 0.0
C1906 C 0.36497 0.03462 0.8391 0.0
C1907 C 0.37078 0.02278 0.85344 0.0
C1908 C 0.37834 0.0304 0.86972 0.0
H1909 H 0.37591 0.90566 0.87489 0.0
H1910 H 0.37637 0.93956 0.8755 0.0
C1911 C 0.37975 0.04967 0.87179 0.0
C1912 C 0.36907 0.0024 0.85137 0.0
H1913 H 0.34762 0.9643 0.8698 0.0
C1914 C 0.37996 0.99341 0.83793 0.0
C1915 C 0.35708 0.99187 0.86283 0.0
C1916 C 0.34461 0.00098 0.87704 0.0
C1917 C 0.37964 0.97397 0.83605 0.0
C1918 C 0.3678 0.96339 0.84769 0.0
C1919 C 0.35668 0.97246 0.86091 0.0
C1920 C 0.36734 0.94281 0.847 0.0
C1921 C 0.39244 0.9649 0.82212 0.0
C1922 C 0.36186 0.9334 0.83081 0.0
C1923 C 0.36165 0.91394 0.83036 0.0
C1924 C 0.36678 0.9036 0.84617 0.0
C1925 C 0.37192 0.91315 0.86245 0.0
C1926 C 0.37218 0.93254 0.86285 0.0
H1927 H 0.40366 0.97449 0.81751 0.0
H1928 H 0.39892 0.95219 0.82803 0.0
H1929 H 0.38429 0.96077 0.80969 0.0
H1930 H 0.35768 0.94108 0.81856 0.0
H1931 H 0.3575 0.90703 0.81765 0.0
H1932 H 0.93213 0.3784 0.84734 0.0
H1933 H 0.96605 0.37735 0.84554 0.0
H1934 H 0.96533 0.32002 0.86336 0.0
H1935 H 0.93142 0.32121 0.86589 0.0
H1936 H 0.99122 0.33853 0.88131 0.0
H1937 H -0.00198 0.35432 0.80641 0.0
H1938 H 0.98524 0.3721 0.81831 0.0
H1939 H 0.97594 0.34885 0.81699 0.0
C1940 C 0.9392 0.36554 0.85077 0.0
C1941 C 0.92913 0.34987 0.8567 0.0
C1942 C 0.95858 0.36491 0.8496 0.0
C1943 C 0.96822 0.34848 0.85391 0.0
C1944 C 0.95818 0.33282 0.85986 0.0
H1945 H 0.086 0.33797 0.82646 0.0
H1946 H 0.05236 0.33327 0.82824 0.0
C1947 C 0.93881 0.33352 0.8613 0.0
C1948 C 0.98882 0.34787 0.85294 0.0
H1949 H 0.0257 0.35756 0.82471 0.0
C1950 C -0.00124 0.3425 0.86887 0.0
C1951 C -0.00132 0.35268 0.83661 0.0
C1952 C 0.9889 0.35711 0.81857 0.0
C1953 C 0.01828 0.34236 0.86909 0.0
C1954 C 0.02812 0.34837 0.85313 0.0
C1955 C 0.01818 0.35318 0.83703 0.0
C1956 C 0.04868 0.35016 0.85288 0.0
C1957 C 0.02808 0.33556 0.88635 0.0
C1958 C 0.05782 0.36118 0.86615 0.0
C1959 C 0.07708 0.36362 0.86535 0.0
C1960 C 0.08751 0.35547 0.85097 0.0
C1961 C 0.07834 0.34446 0.83768 0.0
C1962 C 0.05912 0.34177 0.83867 0.0
H1963 H 0.01921 0.32573 0.89433 0.0
H1964 H 0.04138 0.3285 0.88292 0.0
H1965 H 0.03113 0.3476 0.89552 0.0
H1966 H 0.05003 0.36828 0.8769 0.0
H1967 H 0.08371 0.37237 0.87566 0.0
H1968 H 0.63654 0.08009 0.81625 0.0
H1969 H 0.63652 0.04605 0.81698 0.0
H1970 H 0.62918 0.04716 0.87644 0.0
H1971 H 0.62898 0.08111 0.87591 0.0
H1972 H 0.65941 0.02069 0.83651 0.0
H1973 H 0.58537 0.01523 0.8578 0.0
H1974 H 0.59539 0.0365 0.84895 0.0
H1975 H 0.59924 0.02972 0.87269 0.0
C1976 C 0.635 0.07311 0.82951 0.0
C1977 C 0.63256 0.08334 0.846 0.0
C1978 C 0.635 0.05367 0.82988 0.0
C1979 C 0.63249 0.04415 0.84671 0.0
C1980 C 0.63074 0.05428 0.86326 0.0
H1981 H 0.65188 0.92874 0.87363 0.0
H1982 H 0.65299 0.96255 0.87035 0.0
C1983 C 0.63073 0.07369 0.86292 0.0
C1984 C 0.6315 0.0236 0.84699 0.0
H1985 H 0.60314 0.98735 0.85867 0.0
C1986 C 0.6471 0.01337 0.84127 0.0
C1987 C 0.6153 0.01414 0.85292 0.0
C1988 C 0.59779 0.02443 0.85828 0.0
C1989 C 0.64709 0.99385 0.8418 0.0
C1990 C 0.63116 0.98442 0.84849 0.0
C1991 C 0.6154 0.99465 0.85373 0.0
C1992 C 0.63059 0.96392 0.85031 0.0
C1993 C 0.66406 0.98349 0.83506 0.0
C1994 C 0.6173 0.95356 0.84048 0.0
C1995 C 0.61653 0.93423 0.84241 0.0
C1996 C 0.62898 0.92496 0.85432 0.0
C1997 C 0.64215 0.93543 0.86429 0.0
C1998 C 0.6429 0.95475 0.86234 0.0
H1999 H 0.67285 0.9923 0.82589 0.0
H2000 H 0.6726 0.97928 0.84721 0.0
H2001 H 0.66005 0.97072 0.82736 0.0
H2002 H 0.60759 0.96042 0.83122 0.0
H2003 H 0.60622 0.92657 0.83454 0.0
H2004 H 0.08305 0.63927 0.16872 0.0
H2005 H 0.04903 0.6403 0.1685 0.0
H2006 H 0.04837 0.6107 0.11634 0.0
H2007 H 0.08232 0.61017 0.11613 0.0
H2008 H 0.0247 0.63881 0.11562 0.0
H2009 H 0.01374 0.59867 0.18046 0.0
H2010 H 0.02789 0.61892 0.18395 0.0
H2011 H 0.03616 0.60037 0.16931 0.0
C2012 C 0.07565 0.63296 0.15722 0.0
C2013 C 0.08537 0.62458 0.14248 0.0
C2014 C 0.05621 0.63344 0.15718 0.0
C2015 C 0.04615 0.62522 0.1426 0.0
C2016 C 0.05584 0.61704 0.12778 0.0
H2017 H 0.92798 0.59943 0.14449 0.0
H2018 H 0.96201 0.59823 0.14494 0.0
C2019 C 0.07526 0.61677 0.12768 0.0
C2020 C 0.02552 0.62554 0.14246 0.0
H2021 H 0.98708 0.61367 0.16769 0.0
C2022 C 0.01647 0.63324 0.12697 0.0
C2023 C 0.0148 0.61798 0.15714 0.0
C2024 C 0.02363 0.60834 0.17356 0.0
C2025 C -0.003 0.63379 0.12584 0.0
C2026 C 0.98629 0.62702 0.1409 0.0
C2027 C 0.99532 0.61908 0.15627 0.0
C2028 C 0.96569 0.62785 0.14087 0.0
C2029 C 0.98815 0.64125 0.10833 0.0
C2030 C 0.95647 0.64493 0.13876 0.0
C2031 C 0.93707 0.64562 0.13826 0.0
C2032 C 0.92651 0.62928 0.14022 0.0
C2033 C 0.93575 0.61225 0.1429 0.0
C2034 C 0.95518 0.61155 0.14317 0.0
H2035 H -0.00217 0.64045 0.09631 0.0
H2036 H 0.97528 0.63347 0.1048 0.0
H2037 H 0.98447 0.65609 0.1104 0.0
H2038 H 0.96429 0.65775 0.13752 0.0
H2039 H 0.93034 0.65899 0.13644 0.0
H2040 H 0.36234 0.08096 0.11226 0.0
H2041 H 0.36014 0.04709 0.11142 0.0
H2042 H 0.35317 0.04583 0.17093 0.0
H2043 H 0.35518 0.07978 0.17196 0.0
H2044 H 0.38394 0.02228 0.1296 0.0
H2045 H 0.31051 0.01275 0.15182 0.0
H2046 H 0.31948 0.03482 0.14381 0.0
H2047 H 0.32438 0.02696 0.16701 0.0
C2048 C 0.36017 0.07354 0.12518 0.0
C2049 C 0.35892 0.0831 0.14219 0.0
C2050 C 0.35893 0.05417 0.12465 0.0
C2051 C 0.35632 0.04401 0.14108 0.0
C2052 C 0.35486 0.05347 0.15806 0.0
H2053 H 0.37902 0.92609 0.15533 0.0
H2054 H 0.37878 0.96003 0.15766 0.0
C2055 C 0.35608 0.07287 0.15862 0.0
C2056 C 0.35605 0.02346 0.14045 0.0
H2057 H 0.32895 0.98548 0.14928 0.0
C2058 C 0.37193 0.01421 0.13388 0.0
C2059 C 0.34028 0.01306 0.14592 0.0
C2060 C 0.32261 0.02236 0.15239 0.0
C2061 C 0.37251 0.99476 0.13271 0.0
C2062 C 0.35689 0.98433 0.13854 0.0
C2063 C 0.34094 0.99357 0.14498 0.0
C2064 C 0.35668 0.96379 0.13759 0.0
C2065 C 0.3897 0.98555 0.12492 0.0
C2066 C 0.34402 0.95471 0.12587 0.0
C2067 C 0.34407 0.93533 0.12454 0.0
C2068 C 0.35674 0.92472 0.135 0.0
C2069 C 0.36919 0.93387 0.14699 0.0
C2070 C 0.36912 0.95325 0.1483 0.0
H2071 H 0.39856 -0.00446 0.11714 0.0
H2072 H 0.39808 0.97978 0.13652 0.0
H2073 H 0.38591 0.9739 0.11552 0.0
H2074 H 0.33427 0.96264 0.11756 0.0
H2075 H 0.33425 0.9287 0.11524 0.0
H2076 H 0.66192 0.05727 0.11993 0.0
H2077 H 0.661 0.02335 0.12194 0.0
H2078 H 0.60396 0.02589 0.14053 0.0
H2079 H 0.60504 0.05987 0.13926 0.0
H2080 H 0.62301 0.002 0.16076 0.0
H2081 H 0.63713 0.98783 0.08644 0.0
H2082 H 0.65509 0.00152 0.09702 0.0
H2083 H 0.63192 0.01084 0.09496 0.0
C2084 C 0.64915 0.05059 0.12435 0.0
C2085 C 0.63351 0.0612 0.12933 0.0
C2086 C 0.64861 0.0312 0.12538 0.0
C2087 C 0.63229 0.02206 0.13099 0.0
C2088 C 0.61668 0.03265 0.13607 0.0
H2089 H 0.60922 0.9051 0.11465 0.0
H2090 H 0.61091 0.93897 0.11304 0.0
C2091 C 0.61731 0.05205 0.13532 0.0
C2092 C 0.63158 0.00148 0.13208 0.0
H2093 H 0.63869 0.96186 0.10695 0.0
C2094 C 0.62634 0.99321 0.14897 0.0
C2095 C 0.63568 0.99004 0.1166 0.0
C2096 C 0.64008 -0.002 0.09769 0.0
C2097 C 0.6252 0.97383 0.15087 0.0
C2098 C 0.63008 0.96237 0.13562 0.0
C2099 C 0.63519 0.97065 0.11869 0.0
C2100 C 0.62934 0.94179 0.13668 0.0
C2101 C 0.61826 0.96589 0.16902 0.0
C2102 C 0.63936 0.93207 0.15034 0.0
C2103 C 0.63817 0.9127 0.15148 0.0
C2104 C 0.62729 0.90269 0.13871 0.0
C2105 C 0.61775 0.91241 0.12469 0.0
C2106 C 0.6187 0.93178 0.12375 0.0
H2107 H 0.60997 0.97625 0.17694 0.0
H2108 H 0.60953 0.95336 0.16671 0.0
H2109 H 0.63034 0.96188 0.17774 0.0
H2110 H 0.64812 0.93945 0.16011 0.0
H2111 H 0.64587 0.90558 0.16228 0.0
H2112 H 0.10663 0.22403 0.32012 0.0
H2113 H 0.10205 0.2431 0.29219 0.0
H2114 H 0.15959 0.25994 0.29418 0.0
H2115 H 0.16434 0.2408 0.32196 0.0
H2116 H 0.11404 0.28569 0.28713 0.0
H2117 H 0.14659 0.23255 0.24114 0.0
H2118 H 0.13567 0.22661 0.26298 0.0
H2119 H 0.15808 0.23756 0.26283 0.0
C2120 C 0.1183 0.23174 0.31454 0.0
C2121 C 0.13594 0.23067 0.32291 0.0
C2122 C 0.11562 0.24271 0.29874 0.0
C2123 C 0.13055 0.25267 0.29115 0.0
C2124 C 0.14797 0.2522 0.29987 0.0
H2125 H 0.14999 0.33564 0.20939 0.0
H2126 H 0.146 0.31693 0.23761 0.0
C2127 C 0.15063 0.24135 0.31572 0.0
C2128 C 0.12827 0.26306 0.27368 0.0
H2129 H 0.14046 0.26207 0.22791 0.0
C2130 C 0.11961 0.28051 0.27412 0.0
C2131 C 0.1354 0.25605 0.25679 0.0
C2132 C 0.14438 0.23711 0.25573 0.0
C2133 C 0.11856 0.29155 0.25807 0.0
C2134 C 0.1265 0.28491 0.24136 0.0
C2135 C 0.13444 0.2671 0.24079 0.0
C2136 C 0.12789 0.29668 0.22462 0.0
C2137 C 0.10917 0.31028 0.25914 0.0
C2138 C 0.11924 0.29127 0.20798 0.0
C2139 C 0.12161 0.30188 0.19188 0.0
C2140 C 0.13285 0.31782 0.19223 0.0
C2141 C 0.14138 0.32328 0.20888 0.0
C2142 C 0.13895 0.31274 0.22497 0.0
H2143 H 0.09952 0.31113 0.27118 0.0
H2144 H 0.11992 0.32124 0.26084 0.0
H2145 H 0.10128 0.31327 0.24621 0.0
H2146 H 0.11078 0.2788 0.20746 0.0
H2147 H 0.1149 0.29754 0.17911 0.0
H2148 H 0.65238 0.11442 0.20718 0.0
H2149 H 0.6698 0.11226 0.23639 0.0
H2150 H 0.71481 0.14354 0.21183 0.0
H2151 H 0.69774 0.14494 0.18236 0.0
H2152 H 0.72723 0.1144 0.23271 0.0
H2153 H 0.67494 0.15579 0.2718 0.0
H2154 H 0.66595 0.13506 0.26119 0.0
H2155 H 0.67448 0.15367 0.24683 0.0
C2156 C 0.66617 0.12045 0.20796 0.0
C2157 C 0.67387 0.12972 0.19261 0.0
C2158 C 0.67597 0.11944 0.22468 0.0
C2159 C 0.69343 0.12802 0.22634 0.0
C2160 C 0.70132 0.13687 0.21083 0.0
H2161 H 0.75364 0.17017 0.31895 0.0
H2162 H 0.73274 0.16409 0.29282 0.0
C2163 C 0.6916 0.13771 0.19407 0.0
C2164 C 0.70338 0.12829 0.2443 0.0
H2165 H 0.7007 0.1446 0.28875 0.0
C2166 C 0.72142 0.12089 0.24502 0.0
C2167 C 0.69576 0.13695 0.26023 0.0
C2168 C 0.67679 0.14598 0.26002 0.0
C2169 C 0.73227 0.12228 0.26114 0.0
C2170 C 0.72462 0.13087 0.27711 0.0
C2171 C 0.70642 0.13789 0.27652 0.0
C2172 C 0.73585 0.13414 0.294 0.0
C2173 C 0.75209 0.11533 0.26062 0.0
C2174 C 0.74401 0.11929 0.30369 0.0
C2175 C 0.7561 0.12276 0.31847 0.0
C2176 C 0.75998 0.14112 0.32389 0.0
C2177 C 0.75091 0.1559 0.31495 0.0
C2178 C 0.739 0.15244 0.30004 0.0
H2179 H 0.75708 0.11319 0.24616 0.0
H2180 H 0.76162 0.12523 0.26766 0.0
H2181 H 0.75292 0.10178 0.26797 0.0
H2182 H 0.7413 0.10505 0.29958 0.0
H2183 H 0.76256 0.11113 0.32553 0.0
H2184 H 0.82784 0.74854 0.33051 0.0
H2185 H 0.83094 0.72636 0.30496 0.0
H2186 H 0.88615 0.74702 0.2936 0.0
H2187 H 0.88344 0.76869 0.31964 0.0
H2188 H 0.83615 0.73717 0.26841 0.0
H2189 H 0.89327 0.69061 0.29175 0.0
H2190 H 0.88081 0.70568 0.30749 0.0
H2191 H 0.89866 0.715 0.29268 0.0
C2192 C 0.84077 0.74813 0.32278 0.0
C2193 C 0.85522 0.76066 0.32677 0.0
C2194 C 0.84249 0.7355 0.30817 0.0
C2195 C 0.85878 0.73505 0.29744 0.0
C2196 C 0.87354 0.74703 0.30184 0.0
H2197 H 0.8811 0.68312 0.19034 0.0
H2198 H 0.8834 0.70174 0.21894 0.0
C2199 C 0.87183 0.75964 0.3165 0.0
C2200 C 0.8596 0.72314 0.28073 0.0
H2201 H 0.88319 0.68726 0.26041 0.0
C2202 C 0.84639 0.72621 0.2667 0.0
C2203 C 0.87307 0.70896 0.27853 0.0
C2204 C 0.88717 0.7047 0.29347 0.0
C2205 C 0.84629 0.71547 0.25048 0.0
C2206 C 0.85965 0.70125 0.24834 0.0
C2207 C 0.87301 0.69826 0.26221 0.0
C2208 C 0.8594 0.68904 0.23193 0.0
C2209 C 0.83194 0.71939 0.23567 0.0
C2210 C 0.84539 0.6756 0.23011 0.0
C2211 C 0.84411 0.66501 0.21394 0.0
C2212 C 0.85674 0.66784 0.19933 0.0
C2213 C 0.87117 0.68084 0.20143 0.0
C2214 C 0.8725 0.6914 0.21768 0.0
H2215 H 0.82457 0.73277 0.23808 0.0
H2216 H 0.83857 0.71981 0.22173 0.0
H2217 H 0.82147 0.70804 0.23557 0.0
H2218 H 0.83528 0.67355 0.24109 0.0
H2219 H 0.83315 0.65473 0.21276 0.0
H2220 H 0.32656 0.82974 0.20308 0.0
H2221 H 0.30837 0.83292 0.23162 0.0
H2222 H 0.27885 0.87941 0.20769 0.0
H2223 H 0.29647 0.87563 0.17872 0.0
H2224 H 0.30724 0.86251 0.25487 0.0
H2225 H 0.23655 0.84786 0.22719 0.0
H2226 H 0.25741 0.84299 0.21412 0.0
H2227 H 0.24853 0.86634 0.21542 0.0
C2228 C 0.31582 0.84029 0.20376 0.0
C2229 C 0.31257 0.85221 0.18866 0.0
C2230 C 0.30561 0.84224 0.2201 0.0
C2231 C 0.2921 0.85623 0.22167 0.0
C2232 C 0.2889 0.86824 0.20661 0.0
H2233 H 0.22162 0.88574 0.31583 0.0
H2234 H 0.24046 0.88766 0.28757 0.0
C2235 C 0.299 0.86616 0.19016 0.0
C2236 C 0.28188 0.85854 0.23935 0.0
H2237 H 0.23848 0.85762 0.25853 0.0
C2238 C 0.2922 0.86146 0.25567 0.0
C2239 C 0.26227 0.85721 0.24031 0.0
C2240 C 0.25053 0.85326 0.22337 0.0
C2241 C 0.28341 0.8629 0.273 0.0
C2242 C 0.26387 0.86136 0.27394 0.0
C2243 C 0.2535 0.85888 0.25763 0.0
C2244 C 0.25393 0.86111 0.29183 0.0
C2245 C 0.29501 0.86596 0.2902 0.0
C2246 C 0.25555 0.84565 0.30359 0.0
C2247 C 0.24455 0.84433 0.31951 0.0
C2248 C 0.23168 0.85841 0.3238 0.0
C2249 C 0.23084 0.87434 0.31249 0.0
C2250 C 0.24174 0.87557 0.29648 0.0
H2251 H 0.30934 0.87062 0.28675 0.0
H2252 H 0.2884 0.87647 0.29939 0.0
H2253 H 0.29598 0.85272 0.29807 0.0
H2254 H 0.26482 0.83429 0.30008 0.0
H2255 H 0.24555 0.83193 0.32801 0.0
H2256 H 0.10884 0.77475 0.67668 0.0
H2257 H 0.10514 0.75528 0.70435 0.0
H2258 H 0.15931 0.73135 0.6949 0.0
H2259 H 0.16342 0.75122 0.66755 0.0
H2260 H 0.12379 0.70609 0.70451 0.0
H2261 H 0.14179 0.76437 0.75246 0.0
H2262 H 0.12603 0.76851 0.73339 0.0
H2263 H 0.15007 0.76385 0.72875 0.0
C2264 C 0.12007 0.76556 0.68062 0.0
C2265 C 0.13669 0.76494 0.67033 0.0
C2266 C 0.11783 0.7543 0.69628 0.0
C2267 C 0.13205 0.74213 0.70166 0.0
C2268 C 0.14824 0.74077 0.69091 0.0
H2269 H 0.15678 0.66195 0.7858 0.0
H2270 H 0.15372 0.68061 0.75755 0.0
C2271 C 0.15054 0.75209 0.67532 0.0
C2272 C 0.1305 0.73139 0.719 0.0
H2273 H 0.13676 0.73498 0.76581 0.0
C2274 C 0.12648 0.71236 0.71796 0.0
C2275 C 0.13384 0.73978 0.73641 0.0
C2276 C 0.13824 0.76025 0.738 0.0
C2277 C 0.126 0.70133 0.73402 0.0
C2278 C 0.13019 0.70954 0.75141 0.0
C2279 C 0.13364 0.72873 0.75245 0.0
C2280 C 0.132 0.69835 0.76855 0.0
C2281 C 0.12095 0.68103 0.73221 0.0
C2282 C 0.1213 0.70261 0.78432 0.0
C2283 C 0.12338 0.69224 0.80062 0.0
C2284 C 0.13624 0.67758 0.80135 0.0
C2285 C 0.14699 0.67341 0.78562 0.0
C2286 C 0.14502 0.68384 0.76941 0.0
H2287 H 0.1124 0.67846 0.71961 0.0
H2288 H 0.13388 0.67269 0.7309 0.0
H2289 H 0.11316 0.67603 0.74457 0.0
H2290 H 0.11128 0.71386 0.78397 0.0
H2291 H 0.11491 0.69557 0.81262 0.0
H2292 H 0.2477 0.13082 0.65367 0.0
H2293 H 0.26803 0.12636 0.68072 0.0
H2294 H 0.22303 0.14239 0.71704 0.0
H2295 H 0.20281 0.14684 0.69022 0.0
H2296 H 0.27826 0.15246 0.70623 0.0
H2297 H 0.24114 0.09481 0.74142 0.0
H2298 H 0.23661 0.1012 0.71758 0.0
H2299 H 0.2262 0.11413 0.73631 0.0
C2300 C 0.24214 0.13315 0.66747 0.0
C2301 C 0.22356 0.13863 0.66992 0.0
C2302 C 0.25371 0.13059 0.68286 0.0
C2303 C 0.24687 0.13357 0.70089 0.0
C2304 C 0.22839 0.13934 0.7033 0.0
H2305 H 0.29227 0.14993 0.80988 0.0
H2306 H 0.27301 0.14805 0.78169 0.0
C2307 C 0.21682 0.14181 0.68795 0.0
C2308 C 0.25932 0.13195 0.71714 0.0
H2309 H 0.26337 0.11159 0.75982 0.0
C2310 C 0.27516 0.14334 0.71784 0.0
C2311 C 0.2552 0.12001 0.73224 0.0
C2312 C 0.23896 0.10671 0.7318 0.0
C2313 C 0.28665 0.1436 0.73357 0.0
C2314 C 0.28217 0.13213 0.74885 0.0
C2315 C 0.2666 0.12044 0.74804 0.0
C2316 C 0.29337 0.13245 0.76596 0.0
C2317 C 0.30322 0.15649 0.73403 0.0
C2318 C 0.31098 0.1241 0.76632 0.0
C2319 C 0.32188 0.12511 0.78233 0.0
C2320 C 0.31528 0.13448 0.79811 0.0
C2321 C 0.29756 0.14264 0.7978 0.0
C2322 C 0.2866 0.14153 0.78182 0.0
H2323 H 0.30351 0.16609 0.72192 0.0
H2324 H 0.30311 0.16486 0.747 0.0
H2325 H 0.31621 0.14814 0.73396 0.0
H2326 H 0.31634 0.11702 0.75416 0.0
H2327 H 0.33563 0.11892 0.78225 0.0
H2328 H 0.84055 0.29083 0.81027 0.0
H2329 H 0.84008 0.273 0.78116 0.0
H2330 H 0.86539 0.31928 0.75247 0.0
H2331 H 0.86608 0.33697 0.78161 0.0
H2332 H 0.82217 0.2824 0.74845 0.0
H2333 H 0.89838 0.27577 0.73708 0.0
H2334 H 0.8886 0.28282 0.75909 0.0
H2335 H 0.8903 0.29919 0.74028 0.0
C2336 C 0.8462 0.29701 0.79774 0.0
C2337 C 0.85365 0.31502 0.79807 0.0
C2338 C 0.8459 0.28691 0.78119 0.0
C2339 C 0.853 0.29473 0.76477 0.0
C2340 C 0.86029 0.31283 0.76509 0.0
H2341 H 0.85561 0.25 0.65161 0.0
H2342 H 0.85697 0.27119 0.67842 0.0
C2343 C 0.86067 0.3229 0.78167 0.0
C2344 C 0.85207 0.28416 0.74719 0.0
H2345 H 0.87874 0.26484 0.71301 0.0
C2346 C 0.83453 0.27856 0.7407 0.0
C2347 C 0.86824 0.27931 0.73708 0.0
C2348 C 0.88747 0.28442 0.74378 0.0
C2349 C 0.83273 0.26808 0.72439 0.0
C2350 C 0.84889 0.26297 0.71448 0.0
C2351 C 0.8664 0.26889 0.7207 0.0
C2352 C 0.84797 0.25046 0.69828 0.0
C2353 C 0.81356 0.26252 0.71786 0.0
C2354 C 0.84257 0.23189 0.70074 0.0
C2355 C 0.84188 0.21985 0.68559 0.0
C2356 C 0.84673 0.22616 0.66777 0.0
C2357 C 0.85194 0.24482 0.66527 0.0
C2358 C 0.85275 0.25687 0.6805 0.0
H2359 H 0.80253 0.27117 0.72437 0.0
H2360 H 0.81243 0.26372 0.70252 0.0
H2361 H 0.81098 0.24778 0.72169 0.0
H2362 H 0.83891 0.22672 0.7144 0.0
H2363 H 0.83721 0.20571 0.68781 0.0
H2364 H 0.65971 0.83403 0.78225 0.0
H2365 H 0.67962 0.83779 0.75494 0.0
H2366 H 0.70768 0.8837 0.78156 0.0
H2367 H 0.68824 0.87938 0.80932 0.0
H2368 H 0.68368 0.86777 0.7319 0.0
H2369 H 0.75083 0.85059 0.76633 0.0
H2370 H 0.72863 0.84621 0.77718 0.0
H2371 H 0.73809 0.86935 0.77678 0.0
C2372 C 0.67037 0.84468 0.78237 0.0
C2373 C 0.67282 0.85616 0.79795 0.0
C2374 C 0.68158 0.84695 0.76673 0.0
C2375 C 0.69531 0.86082 0.76636 0.0
C2376 C 0.69745 0.87264 0.78175 0.0
H2377 H 0.77594 0.88313 0.67805 0.0
H2378 H 0.75569 0.88706 0.70508 0.0
C2379 C 0.68632 0.87025 0.7975 0.0
C2380 C 0.70724 0.86279 0.74975 0.0
H2381 H 0.75209 0.85895 0.73467 0.0
C2382 C 0.69865 0.86594 0.73251 0.0
C2383 C 0.72676 0.86044 0.75064 0.0
C2384 C 0.73666 0.8563 0.76868 0.0
C2385 C 0.70905 0.86645 0.71604 0.0
C2386 C 0.72846 0.86365 0.71691 0.0
C2387 C 0.73716 0.86113 0.73416 0.0
C2388 C 0.73988 0.86198 0.69997 0.0
C2389 C 0.69922 0.86979 0.69782 0.0
C2390 C 0.73759 0.8466 0.68822 0.0
C2391 C 0.74936 0.84412 0.67301 0.0
C2392 C 0.76371 0.8569 0.66943 0.0
C2393 C 0.76553 0.87264 0.68087 0.0
C2394 C 0.75382 0.87506 0.69616 0.0
H2395 H 0.68524 0.87606 0.69989 0.0
H2396 H 0.70757 0.87906 0.68871 0.0
H2397 H 0.69739 0.85631 0.69052 0.0
H2398 H 0.727 0.83626 0.69111 0.0
H2399 H 0.74758 0.83189 0.66439 0.0
H2400 H 0.20999 0.12619 0.34144 0.0
H2401 H 0.23872 0.1254 0.323 0.0
H2402 H 0.2085 0.14572 0.27529 0.0
H2403 H 0.17983 0.14671 0.29382 0.0
H2404 H 0.24768 0.1069 0.29001 0.0
H2405 H 0.25058 0.18354 0.28134 0.0
H2406 H 0.23539 0.17237 0.29792 0.0
H2407 H 0.22901 0.1735 0.27377 0.0
C2408 C 0.20953 0.13023 0.32694 0.0
C2409 C 0.19286 0.13643 0.3189 0.0
C2410 C 0.22587 0.12985 0.31648 0.0
C2411 C 0.22574 0.13579 0.29791 0.0
C2412 C 0.20893 0.14143 0.28972 0.0
H2413 H 0.30183 0.14557 0.20751 0.0
H2414 H 0.27526 0.14352 0.22864 0.0
C2415 C 0.1926 0.14187 0.3002 0.0
C2416 C 0.24323 0.1364 0.28717 0.0
H2417 H 0.2714 0.16572 0.2627 0.0
C2418 C 0.25299 0.11976 0.28416 0.0
C2419 C 0.25015 0.15326 0.27976 0.0
C2420 C 0.24085 0.17171 0.2835 0.0
C2421 C 0.26918 0.11944 0.27327 0.0
C2422 C 0.27571 0.13621 0.26538 0.0
C2423 C 0.26621 0.15289 0.26875 0.0
C2424 C 0.29186 0.13665 0.25277 0.0
C2425 C 0.27887 0.10117 0.26974 0.0
C2426 C 0.30994 0.13361 0.25947 0.0
C2427 C 0.32514 0.13469 0.24738 0.0
C2428 C 0.32234 0.13859 0.22848 0.0
C2429 C 0.30425 0.14188 0.22191 0.0
C2430 C 0.28912 0.14088 0.23396 0.0
H2431 H 0.27055 0.08911 0.27468 0.0
H2432 H 0.28171 0.09943 0.25467 0.0
H2433 H 0.29244 0.10108 0.27711 0.0
H2434 H 0.31229 0.13065 0.27405 0.0
H2435 H 0.33904 0.13245 0.25275 0.0
H2436 H 0.88806 0.32521 0.22477 0.0
H2437 H 0.8927 0.29784 0.24454 0.0
H2438 H 0.83722 0.30415 0.26642 0.0
H2439 H 0.83221 0.33111 0.24627 0.0
H2440 H 0.87102 0.29556 0.29314 0.0
H2441 H 0.85973 0.24831 0.23265 0.0
H2442 H 0.87508 0.268 0.23014 0.0
H2443 H 0.85059 0.27172 0.23297 0.0
C2444 C 0.8768 0.32068 0.23366 0.0
C2445 C 0.85954 0.3299 0.23353 0.0
C2446 C 0.87956 0.30521 0.24508 0.0
C2447 C 0.86521 0.29897 0.25667 0.0
C2448 C 0.84841 0.30882 0.25746 0.0
H2449 H 0.83598 0.21244 0.33184 0.0
H2450 H 0.84056 0.24128 0.31442 0.0
C2451 C 0.8456 0.3242 0.24598 0.0
C2452 C 0.86708 0.28143 0.26708 0.0
H2453 H 0.86291 0.23447 0.26201 0.0
C2454 C 0.86947 0.28216 0.28638 0.0
C2455 C 0.86515 0.26409 0.25808 0.0
C2456 C 0.86243 0.2628 0.23732 0.0
C2457 C 0.8696 0.26584 0.29706 0.0
C2458 C 0.86673 0.2485 0.28818 0.0
C2459 C 0.86504 0.24779 0.26877 0.0
C2460 C 0.86423 0.23109 0.29882 0.0
C2461 C 0.87274 0.26734 0.31774 0.0
C2462 C 0.87559 0.2156 0.29533 0.0
C2463 C 0.87271 0.19897 0.30498 0.0
C2464 C 0.85837 0.19763 0.31816 0.0
C2465 C 0.84697 0.2131 0.32156 0.0
C2466 C 0.84977 0.22965 0.31185 0.0
H2467 H 0.88068 0.28012 0.3213 0.0
H2468 H 0.85908 0.26815 0.32489 0.0
H2469 H 0.88038 0.25507 0.32318 0.0
H2470 H 0.8867 0.2164 0.28518 0.0
H2471 H 0.88164 0.18716 0.30218 0.0
H2472 H 0.68939 0.84095 0.20421 0.0
H2473 H 0.71625 0.84437 0.22481 0.0
H2474 H 0.67984 0.8612 0.26946 0.0
H2475 H 0.65283 0.85758 0.24879 0.0
H2476 H 0.72893 0.87546 0.24349 0.0
H2477 H 0.70962 0.81892 0.29265 0.0
H2478 H 0.69835 0.82186 0.27043 0.0
H2479 H 0.69227 0.83665 0.28963 0.0
C2480 C 0.68719 0.84565 0.21835 0.0
C2481 C 0.6692 0.84942 0.2249 0.0
C2482 C 0.70248 0.84748 0.23011 0.0
C2483 C 0.69999 0.85293 0.24866 0.0
C2484 C 0.682 0.85672 0.25525 0.0
H2485 H 0.78324 0.86875 0.33543 0.0
H2486 H 0.75451 0.87001 0.31698 0.0
C2487 C 0.66665 0.85477 0.24348 0.0
C2488 C 0.71638 0.85457 0.26095 0.0
H2489 H 0.7367 0.83618 0.29969 0.0
C2490 C 0.73062 0.86692 0.25581 0.0
C2491 C 0.71849 0.84338 0.27698 0.0
C2492 C 0.70396 0.82933 0.28272 0.0
C2493 C 0.74703 0.86825 0.26623 0.0
C2494 C 0.74922 0.85688 0.28207 0.0
C2495 C 0.73485 0.84486 0.28749 0.0
C2496 C 0.76663 0.85678 0.29285 0.0
C2497 C 0.76198 0.88173 0.26027 0.0
C2498 C 0.78278 0.84882 0.28531 0.0
C2499 C 0.79909 0.84803 0.29581 0.0
C2500 C 0.79942 0.85531 0.31387 0.0
C2501 C 0.78327 0.86331 0.32138 0.0
C2502 C 0.76693 0.86397 0.31094 0.0
H2503 H 0.75677 0.89191 0.24988 0.0
H2504 H 0.76751 0.88943 0.27246 0.0
H2505 H 0.77367 0.87389 0.25395 0.0
H2506 H 0.78265 0.843 0.27142 0.0
H2507 H 0.81141 0.84167 0.2899 0.0
H2508 H 0.15092 0.68993 0.20483 0.0
H2509 H 0.14906 0.71714 0.22503 0.0
H2510 H 0.12975 0.68245 0.27003 0.0
H2511 H 0.13164 0.65506 0.24977 0.0
H2512 H 0.11896 0.73216 0.2436 0.0
H2513 H 0.17386 0.70948 0.29305 0.0
H2514 H 0.17021 0.69827 0.27091 0.0
H2515 H 0.15515 0.69317 0.2902 0.0
C2516 C 0.14592 0.68814 0.2189 0.0
C2517 C 0.14105 0.67047 0.22566 0.0
C2518 C 0.14504 0.70366 0.23048 0.0
C2519 C 0.13943 0.70176 0.24904 0.0
C2520 C 0.13443 0.68414 0.25582 0.0
H2521 H 0.12669 0.78305 0.33753 0.0
H2522 H 0.12523 0.755 0.31813 0.0
C2523 C 0.13542 0.66857 0.24425 0.0
C2524 C 0.13885 0.71831 0.26122 0.0
H2525 H 0.15757 0.73711 0.30056 0.0
C2526 C 0.1274 0.73326 0.25605 0.0
C2527 C 0.14992 0.71966 0.27742 0.0
C2528 C 0.16312 0.70438 0.28318 0.0
C2529 C 0.12667 0.74955 0.26673 0.0
C2530 C 0.13778 0.75091 0.28285 0.0
C2531 C 0.14906 0.73591 0.28816 0.0
C2532 C 0.13816 0.76794 0.29425 0.0
C2533 C 0.11394 0.76516 0.26082 0.0
C2534 C 0.14605 0.78435 0.2872 0.0
C2535 C 0.14691 0.8003 0.29824 0.0
C2536 C 0.13979 0.80002 0.31637 0.0
C2537 C 0.13196 0.78359 0.32344 0.0
C2538 C 0.1312 0.76762 0.31245 0.0
H2539 H 0.10357 0.7605 0.25035 0.0
H2540 H 0.10644 0.77099 0.27299 0.0
H2541 H 0.12236 0.77649 0.25457 0.0
H2542 H 0.15174 0.78472 0.27326 0.0
H2543 H 0.15314 0.81284 0.29266 0.0
H2544 H 0.32137 0.82104 0.75269 0.0
H2545 H 0.29507 0.82687 0.73198 0.0
H2546 H 0.29946 0.88577 0.74274 0.0
H2547 H 0.32576 0.87996 0.76362 0.0
H2548 H 0.26422 0.87315 0.74706 0.0
H2549 H 0.29254 0.84816 0.68011 0.0
H2550 H 0.29476 0.83099 0.69805 0.0
H2551 H 0.30713 0.85269 0.70002 0.0
C2552 C 0.3169 0.83526 0.75041 0.0
C2553 C 0.32536 0.85003 0.75994 0.0
C2554 C 0.30194 0.83858 0.73852 0.0
C2555 C 0.29546 0.85677 0.73568 0.0
C2556 C 0.30426 0.87163 0.74477 0.0
H2557 H 0.20821 0.87576 0.65345 0.0
H2558 H 0.23706 0.87843 0.67136 0.0
C2559 C 0.31917 0.86829 0.75677 0.0
C2560 C 0.27864 0.86003 0.72431 0.0
H2561 H 0.25919 0.85033 0.6822 0.0
C2562 C 0.26318 0.86841 0.73278 0.0
C2563 C 0.27742 0.8541 0.70562 0.0
C2564 C 0.29393 0.84617 0.69536 0.0
C2565 C 0.24624 0.87027 0.72331 0.0
C2566 C 0.24466 0.86316 0.70506 0.0
C2567 C 0.26036 0.85555 0.6963 0.0
C2568 C 0.22674 0.86289 0.69498 0.0
C2569 C 0.2302 0.87977 0.73297 0.0
C2570 C 0.21141 0.85328 0.70236 0.0
C2571 C 0.19487 0.85199 0.69227 0.0
C2572 C 0.19351 0.86011 0.6746 0.0
C2573 C 0.20883 0.86974 0.66724 0.0
C2574 C 0.22532 0.87114 0.67737 0.0
H2575 H 0.23518 0.88941 0.74397 0.0
H2576 H 0.22154 0.88773 0.72297 0.0
H2577 H 0.2213 0.8691 0.73971 0.0
H2578 H 0.21237 0.84639 0.71571 0.0
H2579 H 0.18324 0.84437 0.69809 0.0
H2580 H 0.15153 0.30126 0.77987 0.0
H2581 H 0.1461 0.27532 0.75852 0.0
H2582 H 0.12 0.31282 0.71958 0.0
H2583 H 0.12548 0.33889 0.74104 0.0
H2584 H 0.11192 0.26235 0.74451 0.0
H2585 H 0.15957 0.28608 0.68829 0.0
H2586 H 0.16016 0.29584 0.71139 0.0
H2587 H 0.14213 0.3025 0.69544 0.0
C2588 C 0.14441 0.30387 0.76686 0.0
C2589 C 0.13851 0.32186 0.76217 0.0
C2590 C 0.14143 0.28913 0.75466 0.0
C2591 C 0.13269 0.2922 0.73751 0.0
C2592 C 0.12695 0.31024 0.73269 0.0
H2593 H 0.1146 0.21068 0.64912 0.0
H2594 H 0.11185 0.23874 0.66835 0.0
C2595 C 0.13001 0.32504 0.74491 0.0
C2596 C 0.12965 0.27635 0.72482 0.0
H2597 H 0.1433 0.2581 0.68324 0.0
C2598 C 0.11866 0.26145 0.73105 0.0
C2599 C 0.13844 0.27531 0.70728 0.0
C2600 C 0.15086 0.29069 0.70019 0.0
C2601 C 0.11652 0.24533 0.72032 0.0
C2602 C 0.12577 0.24407 0.70306 0.0
C2603 C 0.13623 0.2592 0.69652 0.0
C2604 C 0.12585 0.22673 0.69212 0.0
C2605 C 0.10452 0.22971 0.72758 0.0
C2606 C 0.13461 0.21079 0.6992 0.0
C2607 C 0.13617 0.19483 0.68829 0.0
C2608 C 0.12896 0.19462 0.67019 0.0
C2609 C 0.11994 0.21047 0.6632 0.0
C2610 C 0.11846 0.22647 0.67408 0.0
H2611 H 0.09461 0.23466 0.73835 0.0
H2612 H 0.09653 0.2231 0.71613 0.0
H2613 H 0.11355 0.21894 0.73397 0.0
H2614 H 0.14072 0.21089 0.71297 0.0
H2615 H 0.1433 0.18277 0.69384 0.0
H2616 H 0.66331 0.10755 0.75875 0.0
H2617 H 0.68922 0.10274 0.7371 0.0
H2618 H 0.69301 0.16204 0.7285 0.0
H2619 H 0.66696 0.16685 0.74982 0.0
H2620 H 0.69778 0.14258 0.69636 0.0
H2621 H 0.74237 0.11381 0.75261 0.0
H2622 H 0.72109 0.10132 0.7487 0.0
H2623 H 0.7203 0.12482 0.75721 0.0
C2624 C 0.66969 0.11951 0.75218 0.0
C2625 C 0.6635 0.13759 0.7562 0.0
C2626 C 0.68445 0.11676 0.73985 0.0
C2627 C 0.69331 0.13207 0.73159 0.0
C2628 C 0.68643 0.15005 0.73484 0.0
H2629 H 0.80439 0.14762 0.69268 0.0
H2630 H 0.77489 0.14569 0.70968 0.0
C2631 C 0.67157 0.15278 0.74699 0.0
C2632 C 0.71029 0.12963 0.72027 0.0
H2633 H 0.75557 0.11558 0.72271 0.0
C2634 C 0.7104 0.13656 0.70204 0.0
C2635 C 0.72676 0.12199 0.72787 0.0
C2636 C 0.72777 0.1152 0.74772 0.0
C2637 C 0.72666 0.13638 0.69128 0.0
C2638 C 0.74309 0.12864 0.69885 0.0
C2639 C 0.74288 0.12137 0.71694 0.0
C2640 C 0.76099 0.12909 0.68875 0.0
C2641 C 0.72629 0.14519 0.67223 0.0
C2642 C 0.76296 0.12018 0.67152 0.0
C2643 C 0.77971 0.12144 0.66176 0.0
C2644 C 0.79479 0.1313 0.6693 0.0
C2645 C 0.79293 0.13986 0.68671 0.0
C2646 C 0.77616 0.13873 0.69638 0.0
H2647 H 0.71399 0.15437 0.67036 0.0
H2648 H 0.73907 0.15352 0.66974 0.0
H2649 H 0.72561 0.1341 0.66153 0.0
H2650 H 0.75151 0.11243 0.66554 0.0
H2651 H 0.78074 0.11505 0.64817 0.0
H2652 H 0.84214 0.68874 0.78246 0.0
H2653 H 0.84581 0.714 0.75999 0.0
H2654 H 0.86356 0.67449 0.71845 0.0
H2655 H 0.85974 0.64907 0.74103 0.0
H2656 H 0.87789 0.72485 0.74122 0.0
H2657 H 0.82195 0.70317 0.69226 0.0
H2658 H 0.82409 0.69352 0.71532 0.0
H2659 H 0.83943 0.68597 0.69711 0.0
C2660 C 0.84704 0.68551 0.76859 0.0
C2661 C 0.85108 0.66712 0.76349 0.0
C2662 C 0.84902 0.69989 0.75577 0.0
C2663 C 0.8549 0.69608 0.73758 0.0
C2664 C 0.85879 0.67766 0.73237 0.0
H2665 H 0.86876 0.77721 0.64763 0.0
H2666 H 0.87093 0.7486 0.66622 0.0
C2667 C 0.85671 0.66322 0.74523 0.0
C2668 C 0.857 0.71161 0.72429 0.0
H2669 H 0.83875 0.73031 0.68467 0.0
C2670 C 0.86943 0.72599 0.72878 0.0
C2671 C 0.84597 0.71298 0.70807 0.0
C2672 C 0.83199 0.69819 0.7029 0.0
C2673 C 0.87081 0.74195 0.71769 0.0
C2674 C 0.85938 0.74356 0.70183 0.0
C2675 C 0.84745 0.72892 0.69691 0.0
C2676 C 0.85874 0.76084 0.69083 0.0
C2677 C 0.88431 0.75708 0.7231 0.0
C2678 C 0.85105 0.77702 0.69857 0.0
C2679 C 0.84975 0.79324 0.68802 0.0
C2680 C 0.85619 0.79349 0.66963 0.0
C2681 C 0.86393 0.77732 0.6619 0.0
C2682 C 0.86511 0.76103 0.67242 0.0
H2683 H 0.89498 0.75198 0.73304 0.0
H2684 H 0.89143 0.7628 0.71063 0.0
H2685 H 0.87656 0.76861 0.72983 0.0
H2686 H 0.84584 0.77699 0.71271 0.0
H2687 H 0.84368 0.80559 0.69416 0.0
H2688 H 0.30431 0.18312 0.11122 0.0
H2689 H 0.28603 0.21164 0.10675 0.0
H2690 H 0.31631 0.23792 0.15141 0.0
H2691 H 0.33506 0.20979 0.15531 0.0
H2692 H 0.26312 0.22819 0.13124 0.0
H2693 H 0.319 0.27742 0.11182 0.0
H2694 H 0.32244 0.25254 0.112 0.0
H2695 H 0.32407 0.26571 0.13323 0.0
C2696 C 0.30711 0.1951 0.11991 0.0
C2697 C 0.32088 0.19432 0.13371 0.0
C2698 C 0.29671 0.21132 0.11737 0.0
C2699 C 0.30004 0.22698 0.12854 0.0
C2700 C 0.31382 0.22616 0.14234 0.0
H2701 H 0.2425 0.32398 0.16252 0.0
H2702 H 0.26342 0.29761 0.15745 0.0
C2703 C 0.32429 0.21002 0.14477 0.0
C2704 C 0.28832 0.24379 0.12668 0.0
H2705 H 0.2903 0.29109 0.12264 0.0
C2706 C 0.26902 0.2419 0.12902 0.0
C2707 C 0.29606 0.26166 0.12369 0.0
C2708 C 0.31651 0.26445 0.11985 0.0
C2709 C 0.25736 0.25752 0.12937 0.0
C2710 C 0.26525 0.27538 0.12731 0.0
C2711 C 0.28441 0.2773 0.12432 0.0
C2712 C 0.25385 0.29224 0.12948 0.0
C2713 C 0.23678 0.25497 0.13265 0.0
C2714 C 0.24197 0.29811 0.1152 0.0
C2715 C 0.2301 0.31324 0.11799 0.0
C2716 C 0.22979 0.32249 0.1352 0.0
C2717 C 0.24232 0.31702 0.14917 0.0
C2718 C 0.25425 0.30199 0.14632 0.0
H2719 H 0.23301 0.24019 0.13513 0.0
H2720 H 0.23231 0.26336 0.14482 0.0
H2721 H 0.22893 0.26006 0.12038 0.0
H2722 H 0.24172 0.29082 0.10202 0.0
H2723 H 0.22119 0.3176 0.1067 0.0
H2724 H 0.23797 0.66861 0.82847 0.0
H2725 H 0.25789 0.69581 0.83313 0.0
H2726 H 0.24462 0.69577 0.89156 0.0
H2727 H 0.22478 0.66831 0.88707 0.0
H2728 H 0.24172 0.73159 0.85272 0.0
H2729 H 0.30512 0.69906 0.88344 0.0
H2730 H 0.29006 0.68625 0.86792 0.0
H2731 H 0.28233 0.69165 0.89095 0.0
C2732 C 0.23949 0.67422 0.84236 0.0
C2733 C 0.2296 0.66656 0.85737 0.0
C2734 C 0.25078 0.68978 0.84497 0.0
C2735 C 0.25258 0.69774 0.86264 0.0
C2736 C 0.2433 0.68976 0.87781 0.0
H2737 H 0.30188 0.80852 0.87944 0.0
H2738 H 0.2823 0.78074 0.88385 0.0
C2739 C 0.2319 0.67422 0.8752 0.0
C2740 C 0.26346 0.71496 0.86482 0.0
H2741 H 0.30638 0.73117 0.87692 0.0
C2742 C 0.25577 0.73163 0.85825 0.0
C2743 C 0.28174 0.71476 0.87196 0.0
C2744 C 0.29046 0.69702 0.87898 0.0
C2745 C 0.26615 0.74814 0.85816 0.0
C2746 C 0.28461 0.74787 0.8649 0.0
C2747 C 0.29216 0.73127 0.87189 0.0
C2748 C 0.2968 0.76431 0.86323 0.0
C2749 C 0.25762 0.76556 0.85013 0.0
C2750 C 0.31151 0.76403 0.85044 0.0
C2751 C 0.32255 0.77977 0.84789 0.0
C2752 C 0.31905 0.79599 0.85814 0.0
C2753 C 0.30464 0.79615 0.8713 0.0
C2754 C 0.29352 0.78038 0.8738 0.0
H2755 H 0.24411 0.76277 0.84316 0.0
H2756 H 0.25522 0.77577 0.86144 0.0
H2757 H 0.26724 0.77204 0.83992 0.0
H2758 H 0.31424 0.75171 0.8422 0.0
H2759 H 0.33382 0.7793 0.83791 0.0
H2760 H 0.3326 0.2436 0.82664 0.0
H2761 H 0.3076 0.26643 0.82967 0.0
H2762 H 0.29354 0.24404 0.88351 0.0
H2763 H 0.31908 0.22178 0.88097 0.0
H2764 H 0.27081 0.25714 0.83278 0.0
H2765 H 0.29288 0.29979 0.8932 0.0
H2766 H 0.30865 0.28456 0.88094 0.0
H2767 H 0.29256 0.27521 0.89765 0.0
C2768 C 0.32438 0.24373 0.83927 0.0
C2769 C 0.32749 0.23057 0.85336 0.0
C2770 C 0.31009 0.25675 0.84095 0.0
C2771 C 0.29877 0.25695 0.85682 0.0
C2772 C 0.30225 0.24426 0.87122 0.0
H2773 H 0.19215 0.30926 0.87904 0.0
H2774 H 0.22086 0.29073 0.88103 0.0
C2775 C 0.31662 0.23128 0.86958 0.0
C2776 C 0.28241 0.26938 0.85753 0.0
H2777 H 0.2618 0.3042 0.88243 0.0
C2778 C 0.26891 0.26751 0.84357 0.0
C2779 C 0.27994 0.2828 0.87171 0.0
C2780 C 0.29435 0.28587 0.88664 0.0
C2781 C 0.25291 0.27861 0.84345 0.0
C2782 C 0.25045 0.292 0.85759 0.0
C2783 C 0.26383 0.29386 0.87165 0.0
C2784 C 0.23407 0.30431 0.85767 0.0
C2785 C 0.23862 0.27586 0.82832 0.0
C2786 C 0.23236 0.31826 0.84417 0.0
C2787 C 0.21611 0.3288 0.84306 0.0
C2788 C 0.20134 0.32541 0.85535 0.0
C2789 C 0.20337 0.31197 0.86936 0.0
C2790 C 0.21968 0.30146 0.87051 0.0
H2791 H 0.24101 0.26281 0.82039 0.0
H2792 H 0.22438 0.27551 0.8343 0.0
H2793 H 0.2393 0.28772 0.81846 0.0
H2794 H 0.24346 0.32073 0.83427 0.0
H2795 H 0.21497 0.33942 0.83243 0.0
H2796 H 0.66025 0.20877 0.83027 0.0
H2797 H 0.67917 0.23688 0.83372 0.0
H2798 H 0.70731 0.21217 0.88062 0.0
H2799 H 0.68903 0.18365 0.87656 0.0
H2800 H 0.68185 0.26081 0.86277 0.0
H2801 H 0.75059 0.22839 0.84872 0.0
H2802 H 0.72894 0.21654 0.84416 0.0
H2803 H 0.73801 0.21771 0.86743 0.0
C2804 C 0.67076 0.20923 0.84106 0.0
C2805 C 0.6735 0.19399 0.85294 0.0
C2806 C 0.68139 0.22533 0.84315 0.0
C2807 C 0.69485 0.22648 0.85723 0.0
C2808 C 0.69732 0.2114 0.86938 0.0
H2809 H 0.77196 0.31566 0.88553 0.0
H2810 H 0.75108 0.28885 0.8876 0.0
C2811 C 0.68681 0.19521 0.86716 0.0
C2812 C 0.70614 0.24358 0.85921 0.0
H2813 H 0.75072 0.25989 0.85818 0.0
C2814 C 0.69691 0.26061 0.86178 0.0
C2815 C 0.72578 0.24326 0.85791 0.0
C2816 C 0.73643 0.22553 0.85423 0.0
C2817 C 0.70683 0.27737 0.86301 0.0
C2818 C 0.72641 0.27702 0.86159 0.0
C2819 C 0.73567 0.26 0.85938 0.0
C2820 C 0.73759 0.29421 0.86128 0.0
C2821 C 0.69638 0.29535 0.86579 0.0
C2822 C 0.73668 0.30614 0.84589 0.0
C2823 C 0.74884 0.32122 0.84448 0.0
C2824 C 0.76218 0.32449 0.85839 0.0
C2825 C 0.76237 0.31306 0.87424 0.0
C2826 C 0.7503 0.2979 0.87557 0.0
H2827 H 0.68187 0.2929 0.87055 0.0
H2828 H 0.70359 0.3043 0.87611 0.0
H2829 H 0.69584 0.30304 0.85243 0.0
H2830 H 0.72705 0.30337 0.83464 0.0
H2831 H 0.74831 0.32984 0.83214 0.0
H2832 H 0.66593 0.76574 0.88373 0.0
H2833 H 0.6925 0.7451 0.88924 0.0
H2834 H 0.6907 0.72736 0.83205 0.0
H2835 H 0.66457 0.74837 0.82623 0.0
H2836 H 0.69532 0.69844 0.86769 0.0
H2837 H 0.74517 0.75718 0.85791 0.0
H2838 H 0.72398 0.76051 0.87095 0.0
H2839 H 0.72288 0.75712 0.84632 0.0
C2840 C 0.6713 0.7576 0.87229 0.0
C2841 C 0.66358 0.75911 0.85439 0.0
C2842 C 0.68629 0.74566 0.87553 0.0
C2843 C 0.69352 0.73492 0.86099 0.0
C2844 C 0.68522 0.73562 0.8434 0.0
H2845 H 0.77858 0.65604 0.8366 0.0
H2846 H 0.74986 0.67397 0.83999 0.0
C2847 C 0.67033 0.7476 0.84012 0.0
C2848 C 0.71055 0.72389 0.86363 0.0
H2849 H 0.75775 0.72719 0.86087 0.0
C2850 C 0.70901 0.70467 0.86643 0.0
C2851 C 0.72826 0.73222 0.86211 0.0
C2852 C 0.73037 0.75289 0.85914 0.0
C2853 C 0.72491 0.69339 0.86731 0.0
C2854 C 0.74266 0.70158 0.86481 0.0
C2855 C 0.74414 0.72094 0.8627 0.0
C2856 C 0.7598 0.69031 0.86326 0.0
C2857 C 0.72254 0.67284 0.87089 0.0
C2858 C 0.7751 0.69395 0.87483 0.0
C2859 C 0.79166 0.68405 0.87257 0.0
C2860 C 0.79316 0.67045 0.85867 0.0
C2861 C 0.77782 0.66671 0.84721 0.0
C2862 C 0.76133 0.6767 0.84936 0.0
H2863 H 0.70943 0.66995 0.87856 0.0
H2864 H 0.7218 0.6654 0.8574 0.0
H2865 H 0.73439 0.66712 0.87898 0.0
H2866 H 0.77424 0.70451 0.88553 0.0
H2867 H 0.80335 0.6871 0.88158 0.0
H2868 H 0.68087 0.80205 0.10594 0.0
H2869 H 0.69948 0.77372 0.10158 0.0
H2870 H 0.67306 0.74909 0.14953 0.0
H2871 H 0.65399 0.77698 0.15338 0.0
H2872 H 0.72445 0.75943 0.1255 0.0
H2873 H 0.66951 0.70717 0.11265 0.0
H2874 H 0.6651 0.73188 0.1115 0.0
H2875 H 0.66513 0.71999 0.13356 0.0
C2876 C 0.67894 0.79044 0.11535 0.0
C2877 C 0.66623 0.79164 0.1301 0.0
C2878 C 0.68953 0.77432 0.11287 0.0
C2879 C 0.68743 0.75919 0.12505 0.0
C2880 C 0.67459 0.7604 0.13969 0.0
H2881 H 0.74809 0.66592 0.16295 0.0
H2882 H 0.72617 0.69117 0.1565 0.0
C2883 C 0.66394 0.77642 0.14208 0.0
C2884 C 0.69964 0.74271 0.12347 0.0
H2885 H 0.69915 0.69522 0.1232 0.0
C2886 C 0.71895 0.7454 0.12462 0.0
C2887 C 0.69241 0.72444 0.12225 0.0
C2888 C 0.67191 0.7207 0.11972 0.0
C2889 C 0.73117 0.73025 0.12561 0.0
C2890 C 0.72384 0.71202 0.12538 0.0
C2891 C 0.70463 0.70928 0.12349 0.0
C2892 C 0.73589 0.69574 0.12842 0.0
C2893 C 0.75176 0.73375 0.12773 0.0
C2894 C 0.74817 0.68975 0.11455 0.0
C2895 C 0.76062 0.67528 0.11815 0.0
C2896 C 0.76109 0.6668 0.13576 0.0
C2897 C 0.74816 0.67232 0.14932 0.0
C2898 C 0.73566 0.68671 0.14567 0.0
H2899 H 0.75501 0.74876 0.12948 0.0
H2900 H 0.75724 0.72601 0.13992 0.0
H2901 H 0.75917 0.72858 0.11522 0.0
H2902 H 0.74829 0.69644 0.10105 0.0
H2903 H 0.76985 0.6708 0.10716 0.0
H2904 H 0.20852 0.64742 0.11356 0.0
H2905 H 0.23758 0.66502 0.11022 0.0
H2906 H 0.21547 0.70824 0.14541 0.0
H2907 H 0.18619 0.69093 0.14841 0.0
H2908 H 0.24201 0.70616 0.09836 0.0
H2909 H 0.26634 0.68765 0.16943 0.0
H2910 H 0.24931 0.67399 0.15695 0.0
H2911 H 0.24267 0.69561 0.16749 0.0
C2912 C 0.20972 0.66087 0.12022 0.0
C2913 C 0.19513 0.66795 0.13112 0.0
C2914 C 0.22633 0.6708 0.11841 0.0
C2915 C 0.22859 0.68779 0.12768 0.0
C2916 C 0.21393 0.69506 0.13828 0.0
H2917 H 0.30146 0.77969 0.12829 0.0
H2918 H 0.27649 0.75725 0.12362 0.0
C2919 C 0.19729 0.6852 0.13998 0.0
C2920 C 0.24645 0.69779 0.12675 0.0
H2921 H 0.28329 0.71106 0.15347 0.0
C2922 C 0.25118 0.7071 0.1103 0.0
C2923 C 0.25839 0.6987 0.1423 0.0
C2924 C 0.25408 0.68836 0.16004 0.0
C2925 C 0.26728 0.71811 0.10931 0.0
C2926 C 0.27873 0.71978 0.1252 0.0
C2927 C 0.27442 0.70974 0.14134 0.0
C2928 C 0.29432 0.73311 0.12594 0.0
C2929 C 0.27177 0.72809 0.09143 0.0
C2930 C 0.31257 0.72692 0.12897 0.0
C2931 C 0.32698 0.73977 0.13134 0.0
C2932 C 0.32328 0.75896 0.13074 0.0
C2933 C 0.30494 0.76505 0.12785 0.0
C2934 C 0.29061 0.75224 0.12534 0.0
H2935 H 0.26462 0.72163 0.07936 0.0
H2936 H 0.26707 0.74276 0.09249 0.0
H2937 H 0.287 0.72813 0.08881 0.0
H2938 H 0.3156 0.71218 0.12978 0.0
H2939 H 0.34096 0.73474 0.13389 0.0
H2940 H 0.66875 0.23499 0.16906 0.0
H2941 H 0.6961 0.25528 0.1675 0.0
H2942 H 0.70421 0.24016 0.11007 0.0
H2943 H 0.6767 0.22006 0.11145 0.0
H2944 H 0.73345 0.24179 0.15677 0.0
H2945 H 0.7061 0.29881 0.11205 0.0
H2946 H 0.69103 0.2834 0.12499 0.0
H2947 H 0.7022 0.27534 0.10421 0.0
C2948 C 0.67625 0.23618 0.15605 0.0
C2949 C 0.67083 0.22575 0.14046 0.0
C2950 C 0.69187 0.24768 0.15521 0.0
C2951 C 0.70209 0.24916 0.13869 0.0
C2952 C 0.69641 0.23921 0.12292 0.0
H2953 H 0.81437 0.29378 0.12601 0.0
H2954 H 0.78638 0.27409 0.12421 0.0
C2955 C 0.68085 0.2276 0.12379 0.0
C2956 C 0.71919 0.26049 0.13825 0.0
H2957 H 0.73787 0.30031 0.12042 0.0
C2958 C 0.73449 0.25456 0.1488 0.0
C2959 C 0.72032 0.27713 0.12787 0.0
C2960 C 0.70404 0.28421 0.1167 0.0
C2961 C 0.751 0.26491 0.14926 0.0
C2962 C 0.75218 0.28151 0.13882 0.0
C2963 C 0.73688 0.28746 0.12827 0.0
C2964 C 0.76893 0.29335 0.1394 0.0
C2965 C 0.76694 0.2583 0.1612 0.0
C2966 C 0.76816 0.31067 0.1483 0.0
C2967 C 0.78403 0.32178 0.14939 0.0
C2968 C 0.80082 0.31571 0.14151 0.0
C2969 C 0.80153 0.29855 0.1323 0.0
C2970 C 0.78565 0.28737 0.13129 0.0
H2971 H 0.76273 0.24686 0.1707 0.0
H2972 H 0.77831 0.25312 0.15213 0.0
H2973 H 0.77258 0.26995 0.16962 0.0
H2974 H 0.75533 0.3155 0.15457 0.0
H2975 H 0.78322 0.33513 0.15633 0.0
loop_
_geom_bond_atom_site_label_1
_geom_bond_atom_site_label_2
_geom_bond_distance
_geom_bond_site_symmetry_2
_ccdc_geom_bond_type
Co0 O3 1.970 . S
Co0 N17 1.989 . S
Co0 O25 1.967 . S
Co0 O32 1.920 . S
Co1 O4 1.966 . S
Co1 N10 2.022 . S
Co1 N18 1.993 . S
Co1 O26 1.941 . S
C2 O3 1.258 . S
C2 O4 1.263 . S
O3 Co0 1.970 . S
O3 C2 1.258 . S
O4 Co1 1.966 . S
O4 C2 1.263 . S
C5 O6 1.235 . S
C5 O32 1.289 . S
O6 C5 1.235 . S
C7 C9 1.400 . S
C7 N10 1.351 . S
C7 C12 1.501 . S
C8 C9 1.387 . S
C8 N11 1.341 . S
C9 C7 1.400 . S
C9 C8 1.387 . S
N10 Co1 2.022 . S
N10 C7 1.351 . S
N10 N11 1.365 . S
N11 C8 1.341 . S
N11 N10 1.365 . S
N11 H31 0.862 . S
C12 C7 1.501 . S
C12 H13 0.961 . S
C12 H14 0.961 . S
C12 H15 0.960 . S
H13 C12 0.961 . S
H14 C12 0.961 . S
H15 C12 0.960 . S
C16 N17 1.342 . S
C16 C20 1.401 . S
C16 C21 1.499 . S
N17 Co0 1.989 . S
N17 C16 1.342 . S
N17 N18 1.388 . S
N18 Co1 1.993 . S
N18 N17 1.388 . S
N18 C19 1.346 . S
C19 N18 1.346 . S
C19 C20 1.396 . S
C19 C29 1.510 . S
C20 C16 1.401 . S
C20 C19 1.396 . S
C21 C16 1.499 . S
C21 H22 0.959 . S
C21 H23 0.960 . S
C21 H24 0.961 . S
H22 C21 0.959 . S
H23 C21 0.960 . S
H24 C21 0.961 . S
O25 Co0 1.967 . S
O25 C33 1.258 . S
O26 Co1 1.941 . S
O26 C33 1.266 . S
H27 C29 0.959 . S
H28 C29 0.961 . S
C29 C19 1.510 . S
C29 H27 0.959 . S
C29 H28 0.961 . S
C29 H30 0.960 . S
H30 C29 0.960 . S
H31 N11 0.862 . S
O32 Co0 1.920 . S
O32 C5 1.289 . S
C33 O25 1.258 . S
C33 O26 1.266 . S
Co34 O37 1.970 . S
Co34 N51 1.989 . S
Co34 O59 1.967 . S
Co34 O66 1.920 . S
Co35 O38 1.966 . S
Co35 N44 2.022 . S
Co35 N52 1.993 . S
Co35 O60 1.941 . S
C36 O37 1.258 . S
C36 O38 1.263 . S
O37 Co34 1.970 . S
O37 C36 1.258 . S
O38 Co35 1.966 . S
O38 C36 1.263 . S
C39 O40 1.235 . S
C39 O66 1.289 . S
O40 C39 1.235 . S
C41 C43 1.400 . S
C41 N44 1.351 . S
C41 C46 1.501 . S
C42 C43 1.387 . S
C42 N45 1.341 . S
C43 C41 1.400 . S
C43 C42 1.387 . S
N44 Co35 2.022 . S
N44 C41 1.351 . S
N44 N45 1.365 . S
N45 C42 1.341 . S
N45 N44 1.365 . S
N45 H65 0.862 . S
C46 C41 1.501 . S
C46 H47 0.961 . S
C46 H48 0.961 . S
C46 H49 0.960 . S
H47 C46 0.961 . S
H48 C46 0.961 . S
H49 C46 0.960 . S
C50 N51 1.342 . S
C50 C54 1.401 . S
C50 C55 1.499 . S
N51 Co34 1.989 . S
N51 C50 1.342 . S
N51 N52 1.388 . S
N52 Co35 1.993 . S
N52 N51 1.388 . S
N52 C53 1.346 . S
C53 N52 1.346 . S
C53 C54 1.396 . S
C53 C63 1.510 . S
C54 C50 1.401 . S
C54 C53 1.396 . S
C55 C50 1.499 . S
C55 H56 0.959 . S
C55 H57 0.960 . S
C55 H58 0.961 . S
H56 C55 0.959 . S
H57 C55 0.960 . S
H58 C55 0.961 . S
O59 Co34 1.967 . S
O59 C67 1.258 . S
O60 Co35 1.941 . S
O60 C67 1.266 . S
H61 C63 0.959 . S
H62 C63 0.961 . S
C63 C53 1.510 . S
C63 H61 0.959 . S
C63 H62 0.961 . S
C63 H64 0.960 . S
H64 C63 0.960 . S
H65 N45 0.862 . S
O66 Co34 1.920 . S
O66 C39 1.289 . S
C67 O59 1.258 . S
C67 O60 1.266 . S
Co68 O71 1.970 . S
Co68 N85 1.989 . S
Co68 O93 1.967 . S
Co68 O100 1.920 . S
Co69 O72 1.966 . S
Co69 N78 2.022 . S
Co69 N86 1.993 . S
Co69 O94 1.941 . S
C70 O71 1.258 . S
C70 O72 1.263 . S
O71 Co68 1.970 . S
O71 C70 1.258 . S
O72 Co69 1.966 . S
O72 C70 1.263 . S
C73 O74 1.235 . S
C73 O100 1.289 . S
O74 C73 1.235 . S
C75 C77 1.400 . S
C75 N78 1.351 . S
C75 C80 1.501 . S
C76 C77 1.387 . S
C76 N79 1.341 . S
C77 C75 1.400 . S
C77 C76 1.387 . S
N78 Co69 2.022 . S
N78 C75 1.351 . S
N78 N79 1.365 . S
N79 C76 1.341 . S
N79 N78 1.365 . S
N79 H99 0.862 . S
C80 C75 1.501 . S
C80 H81 0.961 . S
C80 H82 0.961 . S
C80 H83 0.960 . S
H81 C80 0.961 . S
H82 C80 0.961 . S
H83 C80 0.960 . S
C84 N85 1.342 . S
C84 C88 1.401 . S
C84 C89 1.499 . S
N85 Co68 1.989 . S
N85 C84 1.342 . S
N85 N86 1.388 . S
N86 Co69 1.993 . S
N86 N85 1.388 . S
N86 C87 1.346 . S
C87 N86 1.346 . S
C87 C88 1.396 . S
C87 C97 1.510 . S
C88 C84 1.401 . S
C88 C87 1.396 . S
C89 C84 1.499 . S
C89 H90 0.959 . S
C89 H91 0.960 . S
C89 H92 0.961 . S
H90 C89 0.959 . S
H91 C89 0.960 . S
H92 C89 0.961 . S
O93 Co68 1.967 . S
O93 C101 1.258 . S
O94 Co69 1.941 . S
O94 C101 1.266 . S
H95 C97 0.959 . S
H96 C97 0.961 . S
C97 C87 1.510 . S
C97 H95 0.959 . S
C97 H96 0.961 . S
C97 H98 0.960 . S
H98 C97 0.960 . S
H99 N79 0.862 . S
O100 Co68 1.920 . S
O100 C73 1.289 . S
C101 O93 1.258 . S
C101 O94 1.266 . S
Co102 O105 1.970 . S
Co102 N119 1.989 . S
Co102 O127 1.967 . S
Co102 O134 1.920 . S
Co103 O106 1.966 . S
Co103 N112 2.022 . S
Co103 N120 1.993 . S
Co103 O128 1.941 . S
C104 O105 1.258 . S
C104 O106 1.263 . S
O105 Co102 1.970 . S
O105 C104 1.258 . S
O106 Co103 1.966 . S
O106 C104 1.263 . S
C107 O108 1.235 . S
C107 O134 1.289 . S
O108 C107 1.235 . S
C109 C111 1.400 . S
C109 N112 1.351 . S
C109 C114 1.501 . S
C110 C111 1.387 . S
C110 N113 1.341 . S
C111 C109 1.400 . S
C111 C110 1.387 . S
N112 Co103 2.022 . S
N112 C109 1.351 . S
N112 N113 1.365 . S
N113 C110 1.341 . S
N113 N112 1.365 . S
N113 H133 0.862 . S
C114 C109 1.501 . S
C114 H115 0.961 . S
C114 H116 0.961 . S
C114 H117 0.960 . S
H115 C114 0.961 . S
H116 C114 0.961 . S
H117 C114 0.960 . S
C118 N119 1.342 . S
C118 C122 1.401 . S
C118 C123 1.499 . S
N119 Co102 1.989 . S
N119 C118 1.342 . S
N119 N120 1.388 . S
N120 Co103 1.993 . S
N120 N119 1.388 . S
N120 C121 1.346 . S
C121 N120 1.346 . S
C121 C122 1.396 . S
C121 C131 1.510 . S
C122 C118 1.401 . S
C122 C121 1.396 . S
C123 C118 1.499 . S
C123 H124 0.959 . S
C123 H125 0.960 . S
C123 H126 0.961 . S
H124 C123 0.959 . S
H125 C123 0.960 . S
H126 C123 0.961 . S
O127 Co102 1.967 . S
O127 C135 1.258 . S
O128 Co103 1.941 . S
O128 C135 1.266 . S
H129 C131 0.959 . S
H130 C131 0.961 . S
C131 C121 1.510 . S
C131 H129 0.959 . S
C131 H130 0.961 . S
C131 H132 0.960 . S
H132 C131 0.960 . S
H133 N113 0.862 . S
O134 Co102 1.920 . S
O134 C107 1.289 . S
C135 O127 1.258 . S
C135 O128 1.266 . S
Co136 O139 1.970 . S
Co136 N153 1.989 . S
Co136 O161 1.967 . S
Co136 O168 1.920 . S
Co137 O140 1.966 . S
Co137 N146 2.022 . S
Co137 N154 1.993 . S
Co137 O162 1.941 . S
C138 O139 1.258 . S
C138 O140 1.263 . S
O139 Co136 1.970 . S
O139 C138 1.258 . S
O140 Co137 1.966 . S
O140 C138 1.263 . S
C141 O142 1.235 . S
C141 O168 1.289 . S
O142 C141 1.235 . S
C143 C145 1.400 . S
C143 N146 1.351 . S
C143 C148 1.501 . S
C144 C145 1.387 . S
C144 N147 1.341 . S
C145 C143 1.400 . S
C145 C144 1.387 . S
N146 Co137 2.022 . S
N146 C143 1.351 . S
N146 N147 1.365 . S
N147 C144 1.341 . S
N147 N146 1.365 . S
N147 H167 0.862 . S
C148 C143 1.501 . S
C148 H149 0.961 . S
C148 H150 0.961 . S
C148 H151 0.960 . S
H149 C148 0.961 . S
H150 C148 0.961 . S
H151 C148 0.960 . S
C152 N153 1.342 . S
C152 C156 1.401 . S
C152 C157 1.499 . S
N153 Co136 1.989 . S
N153 C152 1.342 . S
N153 N154 1.388 . S
N154 Co137 1.993 . S
N154 N153 1.388 . S
N154 C155 1.346 . S
C155 N154 1.346 . S
C155 C156 1.396 . S
C155 C165 1.510 . S
C156 C152 1.401 . S
C156 C155 1.396 . S
C157 C152 1.499 . S
C157 H158 0.959 . S
C157 H159 0.960 . S
C157 H160 0.961 . S
H158 C157 0.959 . S
H159 C157 0.960 . S
H160 C157 0.961 . S
O161 Co136 1.967 . S
O161 C169 1.258 . S
O162 Co137 1.941 . S
O162 C169 1.266 . S
H163 C165 0.959 . S
H164 C165 0.961 . S
C165 C155 1.510 . S
C165 H163 0.959 . S
C165 H164 0.961 . S
C165 H166 0.960 . S
H166 C165 0.960 . S
H167 N147 0.862 . S
O168 Co136 1.920 . S
O168 C141 1.289 . S
C169 O161 1.258 . S
C169 O162 1.266 . S
Co170 O173 1.970 . S
Co170 N187 1.989 . S
Co170 O195 1.967 . S
Co170 O202 1.920 . S
Co171 O174 1.966 . S
Co171 N180 2.022 . S
Co171 N188 1.993 . S
Co171 O196 1.941 . S
C172 O173 1.258 . S
C172 O174 1.263 . S
O173 Co170 1.970 . S
O173 C172 1.258 . S
O174 Co171 1.966 . S
O174 C172 1.263 . S
C175 O176 1.235 . S
C175 O202 1.289 . S
O176 C175 1.235 . S
C177 C179 1.400 . S
C177 N180 1.351 . S
C177 C182 1.501 . S
C178 C179 1.387 . S
C178 N181 1.341 . S
C179 C177 1.400 . S
C179 C178 1.387 . S
N180 Co171 2.022 . S
N180 C177 1.351 . S
N180 N181 1.365 . S
N181 C178 1.341 . S
N181 N180 1.365 . S
N181 H201 0.862 . S
C182 C177 1.501 . S
C182 H183 0.961 . S
C182 H184 0.961 . S
C182 H185 0.960 . S
H183 C182 0.961 . S
H184 C182 0.961 . S
H185 C182 0.960 . S
C186 N187 1.342 . S
C186 C190 1.401 . S
C186 C191 1.499 . S
N187 Co170 1.989 . S
N187 C186 1.342 . S
N187 N188 1.388 . S
N188 Co171 1.993 . S
N188 N187 1.388 . S
N188 C189 1.346 . S
C189 N188 1.346 . S
C189 C190 1.396 . S
C189 C199 1.510 . S
C190 C186 1.401 . S
C190 C189 1.396 . S
C191 C186 1.499 . S
C191 H192 0.959 . S
C191 H193 0.960 . S
C191 H194 0.961 . S
H192 C191 0.959 . S
H193 C191 0.960 . S
H194 C191 0.961 . S
O195 Co170 1.967 . S
O195 C203 1.258 . S
O196 Co171 1.941 . S
O196 C203 1.266 . S
H197 C199 0.959 . S
H198 C199 0.961 . S
C199 C189 1.510 . S
C199 H197 0.959 . S
C199 H198 0.961 . S
C199 H200 0.960 . S
H200 C199 0.960 . S
H201 N181 0.862 . S
O202 Co170 1.920 . S
O202 C175 1.289 . S
C203 O195 1.258 . S
C203 O196 1.266 . S
Co204 O207 1.970 . S
Co204 N221 1.989 . S
Co204 O229 1.967 . S
Co204 O236 1.920 . S
Co205 O208 1.966 . S
Co205 N214 2.022 . S
Co205 N222 1.993 . S
Co205 O230 1.941 . S
C206 O207 1.258 . S
C206 O208 1.263 . S
O207 Co204 1.970 . S
O207 C206 1.258 . S
O208 Co205 1.966 . S
O208 C206 1.263 . S
C209 O210 1.235 . S
C209 O236 1.289 . S
O210 C209 1.235 . S
C211 C213 1.400 . S
C211 N214 1.351 . S
C211 C216 1.501 . S
C212 C213 1.387 . S
C212 N215 1.341 . S
C213 C211 1.400 . S
C213 C212 1.387 . S
N214 Co205 2.022 . S
N214 C211 1.351 . S
N214 N215 1.365 . S
N215 C212 1.341 . S
N215 N214 1.365 . S
N215 H235 0.862 . S
C216 C211 1.501 . S
C216 H217 0.961 . S
C216 H218 0.961 . S
C216 H219 0.960 . S
H217 C216 0.961 . S
H218 C216 0.961 . S
H219 C216 0.960 . S
C220 N221 1.342 . S
C220 C224 1.401 . S
C220 C225 1.499 . S
N221 Co204 1.989 . S
N221 C220 1.342 . S
N221 N222 1.388 . S
N222 Co205 1.993 . S
N222 N221 1.388 . S
N222 C223 1.346 . S
C223 N222 1.346 . S
C223 C224 1.396 . S
C223 C233 1.510 . S
C224 C220 1.401 . S
C224 C223 1.396 . S
C225 C220 1.499 . S
C225 H226 0.959 . S
C225 H227 0.960 . S
C225 H228 0.961 . S
H226 C225 0.959 . S
H227 C225 0.960 . S
H228 C225 0.961 . S
O229 Co204 1.967 . S
O229 C237 1.258 . S
O230 Co205 1.941 . S
O230 C237 1.266 . S
H231 C233 0.959 . S
H232 C233 0.961 . S
C233 C223 1.510 . S
C233 H231 0.959 . S
C233 H232 0.961 . S
C233 H234 0.960 . S
H234 C233 0.960 . S
H235 N215 0.862 . S
O236 Co204 1.920 . S
O236 C209 1.289 . S
C237 O229 1.258 . S
C237 O230 1.266 . S
Co238 O241 1.970 . S
Co238 N255 1.989 . S
Co238 O263 1.967 . S
Co238 O270 1.920 . S
Co239 O242 1.966 . S
Co239 N248 2.022 . S
Co239 N256 1.993 . S
Co239 O264 1.941 . S
C240 O241 1.258 . S
C240 O242 1.263 . S
O241 Co238 1.970 . S
O241 C240 1.258 . S
O242 Co239 1.966 . S
O242 C240 1.263 . S
C243 O244 1.235 . S
C243 O270 1.289 . S
O244 C243 1.235 . S
C245 C247 1.400 . S
C245 N248 1.351 . S
C245 C250 1.501 . S
C246 C247 1.387 . S
C246 N249 1.341 . S
C247 C245 1.400 . S
C247 C246 1.387 . S
N248 Co239 2.022 . S
N248 C245 1.351 . S
N248 N249 1.365 . S
N249 C246 1.341 . S
N249 N248 1.365 . S
N249 H269 0.862 . S
C250 C245 1.501 . S
C250 H251 0.961 . S
C250 H252 0.961 . S
C250 H253 0.960 . S
H251 C250 0.961 . S
H252 C250 0.961 . S
H253 C250 0.960 . S
C254 N255 1.342 . S
C254 C258 1.401 . S
C254 C259 1.499 . S
N255 Co238 1.989 . S
N255 C254 1.342 . S
N255 N256 1.388 . S
N256 Co239 1.993 . S
N256 N255 1.388 . S
N256 C257 1.346 . S
C257 N256 1.346 . S
C257 C258 1.396 . S
C257 C267 1.510 . S
C258 C254 1.401 . S
C258 C257 1.396 . S
C259 C254 1.499 . S
C259 H260 0.959 . S
C259 H261 0.960 . S
C259 H262 0.961 . S
H260 C259 0.959 . S
H261 C259 0.960 . S
H262 C259 0.961 . S
O263 Co238 1.967 . S
O263 C271 1.258 . S
O264 Co239 1.941 . S
O264 C271 1.266 . S
H265 C267 0.959 . S
H266 C267 0.961 . S
C267 C257 1.510 . S
C267 H265 0.959 . S
C267 H266 0.961 . S
C267 H268 0.960 . S
H268 C267 0.960 . S
H269 N249 0.862 . S
O270 Co238 1.920 . S
O270 C243 1.289 . S
C271 O263 1.258 . S
C271 O264 1.266 . S
Co272 O275 1.970 . S
Co272 N289 1.989 . S
Co272 O297 1.967 . S
Co272 O304 1.920 . S
Co273 O276 1.966 . S
Co273 N282 2.022 . S
Co273 N290 1.993 . S
Co273 O298 1.941 . S
C274 O275 1.258 . S
C274 O276 1.263 . S
O275 Co272 1.970 . S
O275 C274 1.258 . S
O276 Co273 1.966 . S
O276 C274 1.263 . S
C277 O278 1.235 . S
C277 O304 1.289 . S
O278 C277 1.235 . S
C279 C281 1.400 . S
C279 N282 1.351 . S
C279 C284 1.501 . S
C280 C281 1.387 . S
C280 N283 1.341 . S
C281 C279 1.400 . S
C281 C280 1.387 . S
N282 Co273 2.022 . S
N282 C279 1.351 . S
N282 N283 1.365 . S
N283 C280 1.341 . S
N283 N282 1.365 . S
N283 H303 0.862 . S
C284 C279 1.501 . S
C284 H285 0.961 . S
C284 H286 0.961 . S
C284 H287 0.960 . S
H285 C284 0.961 . S
H286 C284 0.961 . S
H287 C284 0.960 . S
C288 N289 1.342 . S
C288 C292 1.401 . S
C288 C293 1.499 . S
N289 Co272 1.989 . S
N289 C288 1.342 . S
N289 N290 1.388 . S
N290 Co273 1.993 . S
N290 N289 1.388 . S
N290 C291 1.346 . S
C291 N290 1.346 . S
C291 C292 1.396 . S
C291 C301 1.510 . S
C292 C288 1.401 . S
C292 C291 1.396 . S
C293 C288 1.499 . S
C293 H294 0.959 . S
C293 H295 0.960 . S
C293 H296 0.961 . S
H294 C293 0.959 . S
H295 C293 0.960 . S
H296 C293 0.961 . S
O297 Co272 1.967 . S
O297 C305 1.258 . S
O298 Co273 1.941 . S
O298 C305 1.266 . S
H299 C301 0.959 . S
H300 C301 0.961 . S
C301 C291 1.510 . S
C301 H299 0.959 . S
C301 H300 0.961 . S
C301 H302 0.960 . S
H302 C301 0.960 . S
H303 N283 0.862 . S
O304 Co272 1.920 . S
O304 C277 1.289 . S
C305 O297 1.258 . S
C305 O298 1.266 . S
Co306 O309 1.970 . S
Co306 N323 1.989 . S
Co306 O331 1.967 . S
Co306 O338 1.920 . S
Co307 O310 1.966 . S
Co307 N316 2.022 . S
Co307 N324 1.993 . S
Co307 O332 1.941 . S
C308 O309 1.258 . S
C308 O310 1.263 . S
O309 Co306 1.970 . S
O309 C308 1.258 . S
O310 Co307 1.966 . S
O310 C308 1.263 . S
C311 O312 1.235 . S
C311 O338 1.289 . S
O312 C311 1.235 . S
C313 C315 1.400 . S
C313 N316 1.351 . S
C313 C318 1.501 . S
C314 C315 1.387 . S
C314 N317 1.341 . S
C315 C313 1.400 . S
C315 C314 1.387 . S
N316 Co307 2.022 . S
N316 C313 1.351 . S
N316 N317 1.365 . S
N317 C314 1.341 . S
N317 N316 1.365 . S
N317 H337 0.862 . S
C318 C313 1.501 . S
C318 H319 0.961 . S
C318 H320 0.961 . S
C318 H321 0.960 . S
H319 C318 0.961 . S
H320 C318 0.961 . S
H321 C318 0.960 . S
C322 N323 1.342 . S
C322 C326 1.401 . S
C322 C327 1.499 . S
N323 Co306 1.989 . S
N323 C322 1.342 . S
N323 N324 1.388 . S
N324 Co307 1.993 . S
N324 N323 1.388 . S
N324 C325 1.346 . S
C325 N324 1.346 . S
C325 C326 1.396 . S
C325 C335 1.510 . S
C326 C322 1.401 . S
C326 C325 1.396 . S
C327 C322 1.499 . S
C327 H328 0.959 . S
C327 H329 0.960 . S
C327 H330 0.961 . S
H328 C327 0.959 . S
H329 C327 0.960 . S
H330 C327 0.961 . S
O331 Co306 1.967 . S
O331 C339 1.258 . S
O332 Co307 1.941 . S
O332 C339 1.266 . S
H333 C335 0.959 . S
H334 C335 0.961 . S
C335 C325 1.510 . S
C335 H333 0.959 . S
C335 H334 0.961 . S
C335 H336 0.960 . S
H336 C335 0.960 . S
H337 N317 0.862 . S
O338 Co306 1.920 . S
O338 C311 1.289 . S
C339 O331 1.258 . S
C339 O332 1.266 . S
Co340 O343 1.970 . S
Co340 N357 1.989 . S
Co340 O365 1.967 . S
Co340 O372 1.920 . S
Co341 O344 1.966 . S
Co341 N350 2.022 . S
Co341 N358 1.993 . S
Co341 O366 1.941 . S
C342 O343 1.258 . S
C342 O344 1.263 . S
O343 Co340 1.970 . S
O343 C342 1.258 . S
O344 Co341 1.966 . S
O344 C342 1.263 . S
C345 O346 1.235 . S
C345 O372 1.289 . S
O346 C345 1.235 . S
C347 C349 1.400 . S
C347 N350 1.351 . S
C347 C352 1.501 . S
C348 C349 1.387 . S
C348 N351 1.341 . S
C349 C347 1.400 . S
C349 C348 1.387 . S
N350 Co341 2.022 . S
N350 C347 1.351 . S
N350 N351 1.365 . S
N351 C348 1.341 . S
N351 N350 1.365 . S
N351 H371 0.862 . S
C352 C347 1.501 . S
C352 H353 0.961 . S
C352 H354 0.961 . S
C352 H355 0.960 . S
H353 C352 0.961 . S
H354 C352 0.961 . S
H355 C352 0.960 . S
C356 N357 1.342 . S
C356 C360 1.401 . S
C356 C361 1.499 . S
N357 Co340 1.989 . S
N357 C356 1.342 . S
N357 N358 1.388 . S
N358 Co341 1.993 . S
N358 N357 1.388 . S
N358 C359 1.346 . S
C359 N358 1.346 . S
C359 C360 1.396 . S
C359 C369 1.510 . S
C360 C356 1.401 . S
C360 C359 1.396 . S
C361 C356 1.499 . S
C361 H362 0.959 . S
C361 H363 0.960 . S
C361 H364 0.961 . S
H362 C361 0.959 . S
H363 C361 0.960 . S
H364 C361 0.961 . S
O365 Co340 1.967 . S
O365 C373 1.258 . S
O366 Co341 1.941 . S
O366 C373 1.266 . S
H367 C369 0.959 . S
H368 C369 0.961 . S
C369 C359 1.510 . S
C369 H367 0.959 . S
C369 H368 0.961 . S
C369 H370 0.960 . S
H370 C369 0.960 . S
H371 N351 0.862 . S
O372 Co340 1.920 . S
O372 C345 1.289 . S
C373 O365 1.258 . S
C373 O366 1.266 . S
Co374 O377 1.970 . S
Co374 N391 1.989 . S
Co374 O399 1.967 . S
Co374 O406 1.920 . S
Co375 O378 1.966 . S
Co375 N384 2.022 . S
Co375 N392 1.993 . S
Co375 O400 1.941 . S
C376 O377 1.258 . S
C376 O378 1.263 . S
O377 Co374 1.970 . S
O377 C376 1.258 . S
O378 Co375 1.966 . S
O378 C376 1.263 . S
C379 O380 1.235 . S
C379 O406 1.289 . S
O380 C379 1.235 . S
C381 C383 1.400 . S
C381 N384 1.351 . S
C381 C386 1.501 . S
C382 C383 1.387 . S
C382 N385 1.341 . S
C383 C381 1.400 . S
C383 C382 1.387 . S
N384 Co375 2.022 . S
N384 C381 1.351 . S
N384 N385 1.365 . S
N385 C382 1.341 . S
N385 N384 1.365 . S
N385 H405 0.862 . S
C386 C381 1.501 . S
C386 H387 0.961 . S
C386 H388 0.961 . S
C386 H389 0.960 . S
H387 C386 0.961 . S
H388 C386 0.961 . S
H389 C386 0.960 . S
C390 N391 1.342 . S
C390 C394 1.401 . S
C390 C395 1.499 . S
N391 Co374 1.989 . S
N391 C390 1.342 . S
N391 N392 1.388 . S
N392 Co375 1.993 . S
N392 N391 1.388 . S
N392 C393 1.346 . S
C393 N392 1.346 . S
C393 C394 1.396 . S
C393 C403 1.510 . S
C394 C390 1.401 . S
C394 C393 1.396 . S
C395 C390 1.499 . S
C395 H396 0.959 . S
C395 H397 0.960 . S
C395 H398 0.961 . S
H396 C395 0.959 . S
H397 C395 0.960 . S
H398 C395 0.961 . S
O399 Co374 1.967 . S
O399 C407 1.258 . S
O400 Co375 1.941 . S
O400 C407 1.266 . S
H401 C403 0.959 . S
H402 C403 0.961 . S
C403 C393 1.510 . S
C403 H401 0.959 . S
C403 H402 0.961 . S
C403 H404 0.960 . S
H404 C403 0.960 . S
H405 N385 0.862 . S
O406 Co374 1.920 . S
O406 C379 1.289 . S
C407 O399 1.258 . S
C407 O400 1.266 . S
Co408 O411 1.970 . S
Co408 N425 1.989 . S
Co408 O433 1.967 . S
Co408 O440 1.920 . S
Co409 O412 1.966 . S
Co409 N418 2.022 . S
Co409 N426 1.993 . S
Co409 O434 1.941 . S
C410 O411 1.258 . S
C410 O412 1.263 . S
O411 Co408 1.970 . S
O411 C410 1.258 . S
O412 Co409 1.966 . S
O412 C410 1.263 . S
C413 O414 1.235 . S
C413 O440 1.289 . S
O414 C413 1.235 . S
C415 C417 1.400 . S
C415 N418 1.351 . S
C415 C420 1.501 . S
C416 C417 1.387 . S
C416 N419 1.341 . S
C417 C415 1.400 . S
C417 C416 1.387 . S
N418 Co409 2.022 . S
N418 C415 1.351 . S
N418 N419 1.365 . S
N419 C416 1.341 . S
N419 N418 1.365 . S
N419 H439 0.862 . S
C420 C415 1.501 . S
C420 H421 0.961 . S
C420 H422 0.961 . S
C420 H423 0.960 . S
H421 C420 0.961 . S
H422 C420 0.961 . S
H423 C420 0.960 . S
C424 N425 1.342 . S
C424 C428 1.401 . S
C424 C429 1.499 . S
N425 Co408 1.989 . S
N425 C424 1.342 . S
N425 N426 1.388 . S
N426 Co409 1.993 . S
N426 N425 1.388 . S
N426 C427 1.346 . S
C427 N426 1.346 . S
C427 C428 1.396 . S
C427 C437 1.510 . S
C428 C424 1.401 . S
C428 C427 1.396 . S
C429 C424 1.499 . S
C429 H430 0.959 . S
C429 H431 0.960 . S
C429 H432 0.961 . S
H430 C429 0.959 . S
H431 C429 0.960 . S
H432 C429 0.961 . S
O433 Co408 1.967 . S
O433 C441 1.258 . S
O434 Co409 1.941 . S
O434 C441 1.266 . S
H435 C437 0.959 . S
H436 C437 0.961 . S
C437 C427 1.510 . S
C437 H435 0.959 . S
C437 H436 0.961 . S
C437 H438 0.960 . S
H438 C437 0.960 . S
H439 N419 0.862 . S
O440 Co408 1.920 . S
O440 C413 1.289 . S
C441 O433 1.258 . S
C441 O434 1.266 . S
Co442 O445 1.970 . S
Co442 N459 1.989 . S
Co442 O467 1.967 . S
Co442 O474 1.920 . S
Co443 O446 1.966 . S
Co443 N452 2.022 . S
Co443 N460 1.993 . S
Co443 O468 1.941 . S
C444 O445 1.258 . S
C444 O446 1.263 . S
O445 Co442 1.970 . S
O445 C444 1.258 . S
O446 Co443 1.966 . S
O446 C444 1.263 . S
C447 O448 1.235 . S
C447 O474 1.289 . S
O448 C447 1.235 . S
C449 C451 1.400 . S
C449 N452 1.351 . S
C449 C454 1.501 . S
C450 C451 1.387 . S
C450 N453 1.341 . S
C451 C449 1.400 . S
C451 C450 1.387 . S
N452 Co443 2.022 . S
N452 C449 1.351 . S
N452 N453 1.365 . S
N453 C450 1.341 . S
N453 N452 1.365 . S
N453 H473 0.862 . S
C454 C449 1.501 . S
C454 H455 0.961 . S
C454 H456 0.961 . S
C454 H457 0.960 . S
H455 C454 0.961 . S
H456 C454 0.961 . S
H457 C454 0.960 . S
C458 N459 1.342 . S
C458 C462 1.401 . S
C458 C463 1.499 . S
N459 Co442 1.989 . S
N459 C458 1.342 . S
N459 N460 1.388 . S
N460 Co443 1.993 . S
N460 N459 1.388 . S
N460 C461 1.346 . S
C461 N460 1.346 . S
C461 C462 1.396 . S
C461 C471 1.510 . S
C462 C458 1.401 . S
C462 C461 1.396 . S
C463 C458 1.499 . S
C463 H464 0.959 . S
C463 H465 0.960 . S
C463 H466 0.961 . S
H464 C463 0.959 . S
H465 C463 0.960 . S
H466 C463 0.961 . S
O467 Co442 1.967 . S
O467 C475 1.258 . S
O468 Co443 1.941 . S
O468 C475 1.266 . S
H469 C471 0.959 . S
H470 C471 0.961 . S
C471 C461 1.510 . S
C471 H469 0.959 . S
C471 H470 0.961 . S
C471 H472 0.960 . S
H472 C471 0.960 . S
H473 N453 0.862 . S
O474 Co442 1.920 . S
O474 C447 1.289 . S
C475 O467 1.258 . S
C475 O468 1.266 . S
Co476 O479 1.970 . S
Co476 N493 1.989 . S
Co476 O501 1.967 . S
Co476 O508 1.920 . S
Co477 O480 1.966 . S
Co477 N486 2.022 . S
Co477 N494 1.993 . S
Co477 O502 1.941 . S
C478 O479 1.258 . S
C478 O480 1.263 . S
O479 Co476 1.970 . S
O479 C478 1.258 . S
O480 Co477 1.966 . S
O480 C478 1.263 . S
C481 O482 1.235 . S
C481 O508 1.289 . S
O482 C481 1.235 . S
C483 C485 1.400 . S
C483 N486 1.351 . S
C483 C488 1.501 . S
C484 C485 1.387 . S
C484 N487 1.341 . S
C485 C483 1.400 . S
C485 C484 1.387 . S
N486 Co477 2.022 . S
N486 C483 1.351 . S
N486 N487 1.365 . S
N487 C484 1.341 . S
N487 N486 1.365 . S
N487 H507 0.862 . S
C488 C483 1.501 . S
C488 H489 0.961 . S
C488 H490 0.961 . S
C488 H491 0.960 . S
H489 C488 0.961 . S
H490 C488 0.961 . S
H491 C488 0.960 . S
C492 N493 1.342 . S
C492 C496 1.401 . S
C492 C497 1.499 . S
N493 Co476 1.989 . S
N493 C492 1.342 . S
N493 N494 1.388 . S
N494 Co477 1.993 . S
N494 N493 1.388 . S
N494 C495 1.346 . S
C495 N494 1.346 . S
C495 C496 1.396 . S
C495 C505 1.510 . S
C496 C492 1.401 . S
C496 C495 1.396 . S
C497 C492 1.499 . S
C497 H498 0.959 . S
C497 H499 0.960 . S
C497 H500 0.961 . S
H498 C497 0.959 . S
H499 C497 0.960 . S
H500 C497 0.961 . S
O501 Co476 1.967 . S
O501 C509 1.258 . S
O502 Co477 1.941 . S
O502 C509 1.266 . S
H503 C505 0.959 . S
H504 C505 0.961 . S
C505 C495 1.510 . S
C505 H503 0.959 . S
C505 H504 0.961 . S
C505 H506 0.960 . S
H506 C505 0.960 . S
H507 N487 0.862 . S
O508 Co476 1.920 . S
O508 C481 1.289 . S
C509 O501 1.258 . S
C509 O502 1.266 . S
Co510 O513 1.970 . S
Co510 N527 1.989 . S
Co510 O535 1.967 . S
Co510 O542 1.920 . S
Co511 O514 1.966 . S
Co511 N520 2.022 . S
Co511 N528 1.993 . S
Co511 O536 1.941 . S
C512 O513 1.258 . S
C512 O514 1.263 . S
O513 Co510 1.970 . S
O513 C512 1.258 . S
O514 Co511 1.966 . S
O514 C512 1.263 . S
C515 O516 1.235 . S
C515 O542 1.289 . S
O516 C515 1.235 . S
C517 C519 1.400 . S
C517 N520 1.351 . S
C517 C522 1.501 . S
C518 C519 1.387 . S
C518 N521 1.341 . S
C519 C517 1.400 . S
C519 C518 1.387 . S
N520 Co511 2.022 . S
N520 C517 1.351 . S
N520 N521 1.365 . S
N521 C518 1.341 . S
N521 N520 1.365 . S
N521 H541 0.862 . S
C522 C517 1.501 . S
C522 H523 0.961 . S
C522 H524 0.961 . S
C522 H525 0.960 . S
H523 C522 0.961 . S
H524 C522 0.961 . S
H525 C522 0.960 . S
C526 N527 1.342 . S
C526 C530 1.401 . S
C526 C531 1.499 . S
N527 Co510 1.989 . S
N527 C526 1.342 . S
N527 N528 1.388 . S
N528 Co511 1.993 . S
N528 N527 1.388 . S
N528 C529 1.346 . S
C529 N528 1.346 . S
C529 C530 1.396 . S
C529 C539 1.510 . S
C530 C526 1.401 . S
C530 C529 1.396 . S
C531 C526 1.499 . S
C531 H532 0.959 . S
C531 H533 0.960 . S
C531 H534 0.961 . S
H532 C531 0.959 . S
H533 C531 0.960 . S
H534 C531 0.961 . S
O535 Co510 1.967 . S
O535 C543 1.258 . S
O536 Co511 1.941 . S
O536 C543 1.266 . S
H537 C539 0.959 . S
H538 C539 0.961 . S
C539 C529 1.510 . S
C539 H537 0.959 . S
C539 H538 0.961 . S
C539 H540 0.960 . S
H540 C539 0.960 . S
H541 N521 0.862 . S
O542 Co510 1.920 . S
O542 C515 1.289 . S
C543 O535 1.258 . S
C543 O536 1.266 . S
Co544 O547 1.970 . S
Co544 N561 1.989 . S
Co544 O569 1.967 . S
Co544 O576 1.920 . S
Co545 O548 1.966 . S
Co545 N554 2.022 . S
Co545 N562 1.993 . S
Co545 O570 1.941 . S
C546 O547 1.258 . S
C546 O548 1.263 . S
O547 Co544 1.970 . S
O547 C546 1.258 . S
O548 Co545 1.966 . S
O548 C546 1.263 . S
C549 O550 1.235 . S
C549 O576 1.289 . S
O550 C549 1.235 . S
C551 C553 1.400 . S
C551 N554 1.351 . S
C551 C556 1.501 . S
C552 C553 1.387 . S
C552 N555 1.341 . S
C553 C551 1.400 . S
C553 C552 1.387 . S
N554 Co545 2.022 . S
N554 C551 1.351 . S
N554 N555 1.365 . S
N555 C552 1.341 . S
N555 N554 1.365 . S
N555 H575 0.862 . S
C556 C551 1.501 . S
C556 H557 0.961 . S
C556 H558 0.961 . S
C556 H559 0.960 . S
H557 C556 0.961 . S
H558 C556 0.961 . S
H559 C556 0.960 . S
C560 N561 1.342 . S
C560 C564 1.401 . S
C560 C565 1.499 . S
N561 Co544 1.989 . S
N561 C560 1.342 . S
N561 N562 1.388 . S
N562 Co545 1.993 . S
N562 N561 1.388 . S
N562 C563 1.346 . S
C563 N562 1.346 . S
C563 C564 1.396 . S
C563 C573 1.510 . S
C564 C560 1.401 . S
C564 C563 1.396 . S
C565 C560 1.499 . S
C565 H566 0.959 . S
C565 H567 0.960 . S
C565 H568 0.961 . S
H566 C565 0.959 . S
H567 C565 0.960 . S
H568 C565 0.961 . S
O569 Co544 1.967 . S
O569 C577 1.258 . S
O570 Co545 1.941 . S
O570 C577 1.266 . S
H571 C573 0.959 . S
H572 C573 0.961 . S
C573 C563 1.510 . S
C573 H571 0.959 . S
C573 H572 0.961 . S
C573 H574 0.960 . S
H574 C573 0.960 . S
H575 N555 0.862 . S
O576 Co544 1.920 . S
O576 C549 1.289 . S
C577 O569 1.258 . S
C577 O570 1.266 . S
Co578 O581 1.970 . S
Co578 N595 1.989 . S
Co578 O603 1.967 . S
Co578 O610 1.920 . S
Co579 O582 1.966 . S
Co579 N588 2.022 . S
Co579 N596 1.993 . S
Co579 O604 1.941 . S
C580 O581 1.258 . S
C580 O582 1.263 . S
O581 Co578 1.970 . S
O581 C580 1.258 . S
O582 Co579 1.966 . S
O582 C580 1.263 . S
C583 O584 1.235 . S
C583 O610 1.289 . S
O584 C583 1.235 . S
C585 C587 1.400 . S
C585 N588 1.351 . S
C585 C590 1.501 . S
C586 C587 1.387 . S
C586 N589 1.341 . S
C587 C585 1.400 . S
C587 C586 1.387 . S
N588 Co579 2.022 . S
N588 C585 1.351 . S
N588 N589 1.365 . S
N589 C586 1.341 . S
N589 N588 1.365 . S
N589 H609 0.862 . S
C590 C585 1.501 . S
C590 H591 0.961 . S
C590 H592 0.961 . S
C590 H593 0.960 . S
H591 C590 0.961 . S
H592 C590 0.961 . S
H593 C590 0.960 . S
C594 N595 1.342 . S
C594 C598 1.401 . S
C594 C599 1.499 . S
N595 Co578 1.989 . S
N595 C594 1.342 . S
N595 N596 1.388 . S
N596 Co579 1.993 . S
N596 N595 1.388 . S
N596 C597 1.346 . S
C597 N596 1.346 . S
C597 C598 1.396 . S
C597 C607 1.510 . S
C598 C594 1.401 . S
C598 C597 1.396 . S
C599 C594 1.499 . S
C599 H600 0.959 . S
C599 H601 0.960 . S
C599 H602 0.961 . S
H600 C599 0.959 . S
H601 C599 0.960 . S
H602 C599 0.961 . S
O603 Co578 1.967 . S
O603 C611 1.258 . S
O604 Co579 1.941 . S
O604 C611 1.266 . S
H605 C607 0.959 . S
H606 C607 0.961 . S
C607 C597 1.510 . S
C607 H605 0.959 . S
C607 H606 0.961 . S
C607 H608 0.960 . S
H608 C607 0.960 . S
H609 N589 0.862 . S
O610 Co578 1.920 . S
O610 C583 1.289 . S
C611 O603 1.258 . S
C611 O604 1.266 . S
Co612 O615 1.970 . S
Co612 N629 1.989 . S
Co612 O637 1.967 . S
Co612 O644 1.920 . S
Co613 O616 1.966 . S
Co613 N622 2.022 . S
Co613 N630 1.993 . S
Co613 O638 1.941 . S
C614 O615 1.258 . S
C614 O616 1.263 . S
O615 Co612 1.970 . S
O615 C614 1.258 . S
O616 Co613 1.966 . S
O616 C614 1.263 . S
C617 O618 1.235 . S
C617 O644 1.289 . S
O618 C617 1.235 . S
C619 C621 1.400 . S
C619 N622 1.351 . S
C619 C624 1.501 . S
C620 C621 1.387 . S
C620 N623 1.341 . S
C621 C619 1.400 . S
C621 C620 1.387 . S
N622 Co613 2.022 . S
N622 C619 1.351 . S
N622 N623 1.365 . S
N623 C620 1.341 . S
N623 N622 1.365 . S
N623 H643 0.862 . S
C624 C619 1.501 . S
C624 H625 0.961 . S
C624 H626 0.961 . S
C624 H627 0.960 . S
H625 C624 0.961 . S
H626 C624 0.961 . S
H627 C624 0.960 . S
C628 N629 1.342 . S
C628 C632 1.401 . S
C628 C633 1.499 . S
N629 Co612 1.989 . S
N629 C628 1.342 . S
N629 N630 1.388 . S
N630 Co613 1.993 . S
N630 N629 1.388 . S
N630 C631 1.346 . S
C631 N630 1.346 . S
C631 C632 1.396 . S
C631 C641 1.510 . S
C632 C628 1.401 . S
C632 C631 1.396 . S
C633 C628 1.499 . S
C633 H634 0.959 . S
C633 H635 0.960 . S
C633 H636 0.961 . S
H634 C633 0.959 . S
H635 C633 0.960 . S
H636 C633 0.961 . S
O637 Co612 1.967 . S
O637 C645 1.258 . S
O638 Co613 1.941 . S
O638 C645 1.266 . S
H639 C641 0.959 . S
H640 C641 0.961 . S
C641 C631 1.510 . S
C641 H639 0.959 . S
C641 H640 0.961 . S
C641 H642 0.960 . S
H642 C641 0.960 . S
H643 N623 0.862 . S
O644 Co612 1.920 . S
O644 C617 1.289 . S
C645 O637 1.258 . S
C645 O638 1.266 . S
Co646 O649 1.970 . S
Co646 N663 1.989 . S
Co646 O671 1.967 . S
Co646 O678 1.920 . S
Co647 O650 1.966 . S
Co647 N656 2.022 . S
Co647 N664 1.993 . S
Co647 O672 1.941 . S
C648 O649 1.258 . S
C648 O650 1.263 . S
O649 Co646 1.970 . S
O649 C648 1.258 . S
O650 Co647 1.966 . S
O650 C648 1.263 . S
C651 O652 1.235 . S
C651 O678 1.289 . S
O652 C651 1.235 . S
C653 C655 1.400 . S
C653 N656 1.351 . S
C653 C658 1.501 . S
C654 C655 1.387 . S
C654 N657 1.341 . S
C655 C653 1.400 . S
C655 C654 1.387 . S
N656 Co647 2.022 . S
N656 C653 1.351 . S
N656 N657 1.365 . S
N657 C654 1.341 . S
N657 N656 1.365 . S
N657 H677 0.862 . S
C658 C653 1.501 . S
C658 H659 0.961 . S
C658 H660 0.961 . S
C658 H661 0.960 . S
H659 C658 0.961 . S
H660 C658 0.961 . S
H661 C658 0.960 . S
C662 N663 1.342 . S
C662 C666 1.401 . S
C662 C667 1.499 . S
N663 Co646 1.989 . S
N663 C662 1.342 . S
N663 N664 1.388 . S
N664 Co647 1.993 . S
N664 N663 1.388 . S
N664 C665 1.346 . S
C665 N664 1.346 . S
C665 C666 1.396 . S
C665 C675 1.510 . S
C666 C662 1.401 . S
C666 C665 1.396 . S
C667 C662 1.499 . S
C667 H668 0.959 . S
C667 H669 0.960 . S
C667 H670 0.961 . S
H668 C667 0.959 . S
H669 C667 0.960 . S
H670 C667 0.961 . S
O671 Co646 1.967 . S
O671 C679 1.258 . S
O672 Co647 1.941 . S
O672 C679 1.266 . S
H673 C675 0.959 . S
H674 C675 0.961 . S
C675 C665 1.510 . S
C675 H673 0.959 . S
C675 H674 0.961 . S
C675 H676 0.960 . S
H676 C675 0.960 . S
H677 N657 0.862 . S
O678 Co646 1.920 . S
O678 C651 1.289 . S
C679 O671 1.258 . S
C679 O672 1.266 . S
Co680 O683 1.970 . S
Co680 N697 1.989 . S
Co680 O705 1.967 . S
Co680 O712 1.920 . S
Co681 O684 1.966 . S
Co681 N690 2.022 . S
Co681 N698 1.993 . S
Co681 O706 1.941 . S
C682 O683 1.258 . S
C682 O684 1.263 . S
O683 Co680 1.970 . S
O683 C682 1.258 . S
O684 Co681 1.966 . S
O684 C682 1.263 . S
C685 O686 1.235 . S
C685 O712 1.289 . S
O686 C685 1.235 . S
C687 C689 1.400 . S
C687 N690 1.351 . S
C687 C692 1.501 . S
C688 C689 1.387 . S
C688 N691 1.341 . S
C689 C687 1.400 . S
C689 C688 1.387 . S
N690 Co681 2.022 . S
N690 C687 1.351 . S
N690 N691 1.365 . S
N691 C688 1.341 . S
N691 N690 1.365 . S
N691 H711 0.862 . S
C692 C687 1.501 . S
C692 H693 0.961 . S
C692 H694 0.961 . S
C692 H695 0.960 . S
H693 C692 0.961 . S
H694 C692 0.961 . S
H695 C692 0.960 . S
C696 N697 1.342 . S
C696 C700 1.401 . S
C696 C701 1.499 . S
N697 Co680 1.989 . S
N697 C696 1.342 . S
N697 N698 1.388 . S
N698 Co681 1.993 . S
N698 N697 1.388 . S
N698 C699 1.346 . S
C699 N698 1.346 . S
C699 C700 1.396 . S
C699 C709 1.510 . S
C700 C696 1.401 . S
C700 C699 1.396 . S
C701 C696 1.499 . S
C701 H702 0.959 . S
C701 H703 0.960 . S
C701 H704 0.961 . S
H702 C701 0.959 . S
H703 C701 0.960 . S
H704 C701 0.961 . S
O705 Co680 1.967 . S
O705 C713 1.258 . S
O706 Co681 1.941 . S
O706 C713 1.266 . S
H707 C709 0.959 . S
H708 C709 0.961 . S
C709 C699 1.510 . S
C709 H707 0.959 . S
C709 H708 0.961 . S
C709 H710 0.960 . S
H710 C709 0.960 . S
H711 N691 0.862 . S
O712 Co680 1.920 . S
O712 C685 1.289 . S
C713 O705 1.258 . S
C713 O706 1.266 . S
Co714 O717 1.970 . S
Co714 N731 1.989 . S
Co714 O739 1.967 . S
Co714 O746 1.920 . S
Co715 O718 1.966 . S
Co715 N724 2.022 . S
Co715 N732 1.993 . S
Co715 O740 1.941 . S
C716 O717 1.258 . S
C716 O718 1.263 . S
O717 Co714 1.970 . S
O717 C716 1.258 . S
O718 Co715 1.966 . S
O718 C716 1.263 . S
C719 O720 1.235 . S
C719 O746 1.289 . S
O720 C719 1.235 . S
C721 C723 1.400 . S
C721 N724 1.351 . S
C721 C726 1.501 . S
C722 C723 1.387 . S
C722 N725 1.341 . S
C723 C721 1.400 . S
C723 C722 1.387 . S
N724 Co715 2.022 . S
N724 C721 1.351 . S
N724 N725 1.365 . S
N725 C722 1.341 . S
N725 N724 1.365 . S
N725 H745 0.862 . S
C726 C721 1.501 . S
C726 H727 0.961 . S
C726 H728 0.961 . S
C726 H729 0.960 . S
H727 C726 0.961 . S
H728 C726 0.961 . S
H729 C726 0.960 . S
C730 N731 1.342 . S
C730 C734 1.401 . S
C730 C735 1.499 . S
N731 Co714 1.989 . S
N731 C730 1.342 . S
N731 N732 1.388 . S
N732 Co715 1.993 . S
N732 N731 1.388 . S
N732 C733 1.346 . S
C733 N732 1.346 . S
C733 C734 1.396 . S
C733 C743 1.510 . S
C734 C730 1.401 . S
C734 C733 1.396 . S
C735 C730 1.499 . S
C735 H736 0.959 . S
C735 H737 0.960 . S
C735 H738 0.961 . S
H736 C735 0.959 . S
H737 C735 0.960 . S
H738 C735 0.961 . S
O739 Co714 1.967 . S
O739 C747 1.258 . S
O740 Co715 1.941 . S
O740 C747 1.266 . S
H741 C743 0.959 . S
H742 C743 0.961 . S
C743 C733 1.510 . S
C743 H741 0.959 . S
C743 H742 0.961 . S
C743 H744 0.960 . S
H744 C743 0.960 . S
H745 N725 0.862 . S
O746 Co714 1.920 . S
O746 C719 1.289 . S
C747 O739 1.258 . S
C747 O740 1.266 . S
Co748 O751 1.970 . S
Co748 N765 1.989 . S
Co748 O773 1.967 . S
Co748 O780 1.920 . S
Co749 O752 1.966 . S
Co749 N758 2.022 . S
Co749 N766 1.993 . S
Co749 O774 1.941 . S
C750 O751 1.258 . S
C750 O752 1.263 . S
O751 Co748 1.970 . S
O751 C750 1.258 . S
O752 Co749 1.966 . S
O752 C750 1.263 . S
C753 O754 1.235 . S
C753 O780 1.289 . S
O754 C753 1.235 . S
C755 C757 1.400 . S
C755 N758 1.351 . S
C755 C760 1.501 . S
C756 C757 1.387 . S
C756 N759 1.341 . S
C757 C755 1.400 . S
C757 C756 1.387 . S
N758 Co749 2.022 . S
N758 C755 1.351 . S
N758 N759 1.365 . S
N759 C756 1.341 . S
N759 N758 1.365 . S
N759 H779 0.862 . S
C760 C755 1.501 . S
C760 H761 0.961 . S
C760 H762 0.961 . S
C760 H763 0.960 . S
H761 C760 0.961 . S
H762 C760 0.961 . S
H763 C760 0.960 . S
C764 N765 1.342 . S
C764 C768 1.401 . S
C764 C769 1.499 . S
N765 Co748 1.989 . S
N765 C764 1.342 . S
N765 N766 1.388 . S
N766 Co749 1.993 . S
N766 N765 1.388 . S
N766 C767 1.346 . S
C767 N766 1.346 . S
C767 C768 1.396 . S
C767 C777 1.510 . S
C768 C764 1.401 . S
C768 C767 1.396 . S
C769 C764 1.499 . S
C769 H770 0.959 . S
C769 H771 0.960 . S
C769 H772 0.961 . S
H770 C769 0.959 . S
H771 C769 0.960 . S
H772 C769 0.961 . S
O773 Co748 1.967 . S
O773 C781 1.258 . S
O774 Co749 1.941 . S
O774 C781 1.266 . S
H775 C777 0.959 . S
H776 C777 0.961 . S
C777 C767 1.510 . S
C777 H775 0.959 . S
C777 H776 0.961 . S
C777 H778 0.960 . S
H778 C777 0.960 . S
H779 N759 0.862 . S
O780 Co748 1.920 . S
O780 C753 1.289 . S
C781 O773 1.258 . S
C781 O774 1.266 . S
Co782 O785 1.970 . S
Co782 N799 1.989 . S
Co782 O807 1.967 . S
Co782 O814 1.920 . S
Co783 O786 1.966 . S
Co783 N792 2.022 . S
Co783 N800 1.993 . S
Co783 O808 1.941 . S
C784 O785 1.258 . S
C784 O786 1.263 . S
O785 Co782 1.970 . S
O785 C784 1.258 . S
O786 Co783 1.966 . S
O786 C784 1.263 . S
C787 O788 1.235 . S
C787 O814 1.289 . S
O788 C787 1.235 . S
C789 C791 1.400 . S
C789 N792 1.351 . S
C789 C794 1.501 . S
C790 C791 1.387 . S
C790 N793 1.341 . S
C791 C789 1.400 . S
C791 C790 1.387 . S
N792 Co783 2.022 . S
N792 C789 1.351 . S
N792 N793 1.365 . S
N793 C790 1.341 . S
N793 N792 1.365 . S
N793 H813 0.862 . S
C794 C789 1.501 . S
C794 H795 0.961 . S
C794 H796 0.961 . S
C794 H797 0.960 . S
H795 C794 0.961 . S
H796 C794 0.961 . S
H797 C794 0.960 . S
C798 N799 1.342 . S
C798 C802 1.401 . S
C798 C803 1.499 . S
N799 Co782 1.989 . S
N799 C798 1.342 . S
N799 N800 1.388 . S
N800 Co783 1.993 . S
N800 N799 1.388 . S
N800 C801 1.346 . S
C801 N800 1.346 . S
C801 C802 1.396 . S
C801 C811 1.510 . S
C802 C798 1.401 . S
C802 C801 1.396 . S
C803 C798 1.499 . S
C803 H804 0.959 . S
C803 H805 0.960 . S
C803 H806 0.961 . S
H804 C803 0.959 . S
H805 C803 0.960 . S
H806 C803 0.961 . S
O807 Co782 1.967 . S
O807 C815 1.258 . S
O808 Co783 1.941 . S
O808 C815 1.266 . S
H809 C811 0.959 . S
H810 C811 0.961 . S
C811 C801 1.510 . S
C811 H809 0.959 . S
C811 H810 0.961 . S
C811 H812 0.960 . S
H812 C811 0.960 . S
H813 N793 0.862 . S
O814 Co782 1.920 . S
O814 C787 1.289 . S
C815 O807 1.258 . S
C815 O808 1.266 . S
H816 C824 0.929 . S
H817 C826 0.930 . S
H818 C828 0.930 . S
H819 C831 0.929 . S
H820 C834 0.930 . S
H821 C836 0.960 . S
H822 C836 0.960 . S
H823 C836 0.960 . S
C824 H816 0.929 . S
C824 C825 1.377 . S
C824 C826 1.384 . S
C825 C824 1.377 . S
C825 C831 1.390 . S
C826 H817 0.930 . S
C826 C824 1.384 . S
C826 C827 1.372 . S
C827 C826 1.372 . S
C827 C828 1.400 . S
C827 C832 1.490 . S
C828 H818 0.930 . S
C828 C827 1.400 . S
C828 C831 1.386 . S
H829 C845 0.930 . S
H830 C846 0.931 . S
C831 H819 0.929 . S
C831 C825 1.390 . S
C831 C828 1.386 . S
C832 C827 1.490 . S
C832 C834 1.395 . S
C832 C835 1.403 . S
H833 C839 0.930 . S
C834 H820 0.930 . S
C834 C832 1.395 . S
C834 C837 1.403 . S
C835 C832 1.403 . S
C835 C836 1.524 . S
C835 C839 1.400 . S
C836 H821 0.960 . S
C836 H822 0.960 . S
C836 H823 0.960 . S
C836 C835 1.524 . S
C837 C834 1.403 . S
C837 C838 1.392 . S
C837 C841 1.495 . S
C838 C837 1.392 . S
C838 C839 1.385 . S
C838 C840 1.478 . S
C839 H833 0.930 . S
C839 C835 1.400 . S
C839 C838 1.385 . S
C840 C838 1.478 . S
C840 C842 1.381 . S
C840 C846 1.383 . S
C841 C837 1.495 . S
C841 H847 0.959 . S
C841 H848 0.961 . S
C841 H849 0.960 . S
C842 C840 1.381 . S
C842 C843 1.394 . S
C842 H850 0.930 . S
C843 C842 1.394 . S
C843 C844 1.383 . S
C843 H851 0.929 . S
C844 C843 1.383 . S
C844 C845 1.377 . S
C845 H829 0.930 . S
C845 C844 1.377 . S
C845 C846 1.379 . S
C846 H830 0.931 . S
C846 C840 1.383 . S
C846 C845 1.379 . S
H847 C841 0.959 . S
H848 C841 0.961 . S
H849 C841 0.960 . S
H850 C842 0.930 . S
H851 C843 0.929 . S
H852 C860 0.929 . S
H853 C862 0.930 . S
H854 C864 0.930 . S
H855 C867 0.929 . S
H856 C870 0.930 . S
H857 C872 0.960 . S
H858 C872 0.960 . S
H859 C872 0.960 . S
C860 H852 0.929 . S
C860 C861 1.377 . S
C860 C862 1.384 . S
C861 C860 1.377 . S
C861 C867 1.390 . S
C862 H853 0.930 . S
C862 C860 1.384 . S
C862 C863 1.372 . S
C863 C862 1.372 . S
C863 C864 1.400 . S
C863 C868 1.490 . S
C864 H854 0.930 . S
C864 C863 1.400 . S
C864 C867 1.386 . S
H865 C881 0.930 . S
H866 C882 0.931 . S
C867 H855 0.929 . S
C867 C861 1.390 . S
C867 C864 1.386 . S
C868 C863 1.490 . S
C868 C870 1.395 . S
C868 C871 1.403 . S
H869 C875 0.930 . S
C870 H856 0.930 . S
C870 C868 1.395 . S
C870 C873 1.403 . S
C871 C868 1.403 . S
C871 C872 1.524 . S
C871 C875 1.400 . S
C872 H857 0.960 . S
C872 H858 0.960 . S
C872 H859 0.960 . S
C872 C871 1.524 . S
C873 C870 1.403 . S
C873 C874 1.392 . S
C873 C877 1.495 . S
C874 C873 1.392 . S
C874 C875 1.385 . S
C874 C876 1.478 . S
C875 H869 0.930 . S
C875 C871 1.400 . S
C875 C874 1.385 . S
C876 C874 1.478 . S
C876 C878 1.381 . S
C876 C882 1.383 . S
C877 C873 1.495 . S
C877 H883 0.959 . S
C877 H884 0.961 . S
C877 H885 0.960 . S
C878 C876 1.381 . S
C878 C879 1.394 . S
C878 H886 0.930 . S
C879 C878 1.394 . S
C879 C880 1.383 . S
C879 H887 0.929 . S
C880 C879 1.383 . S
C880 C881 1.377 . S
C881 H865 0.930 . S
C881 C880 1.377 . S
C881 C882 1.379 . S
C882 H866 0.931 . S
C882 C876 1.383 . S
C882 C881 1.379 . S
H883 C877 0.959 . S
H884 C877 0.961 . S
H885 C877 0.960 . S
H886 C878 0.930 . S
H887 C879 0.929 . S
H888 C896 0.929 . S
H889 C898 0.930 . S
H890 C900 0.930 . S
H891 C903 0.929 . S
H892 C906 0.930 . S
H893 C908 0.960 . S
H894 C908 0.960 . S
H895 C908 0.960 . S
C896 H888 0.929 . S
C896 C897 1.377 . S
C896 C898 1.384 . S
C897 C896 1.377 . S
C897 C903 1.390 . S
C898 H889 0.930 . S
C898 C896 1.384 . S
C898 C899 1.372 . S
C899 C898 1.372 . S
C899 C900 1.400 . S
C899 C904 1.490 . S
C900 H890 0.930 . S
C900 C899 1.400 . S
C900 C903 1.386 . S
H901 C917 0.930 . S
H902 C918 0.931 . S
C903 H891 0.929 . S
C903 C897 1.390 . S
C903 C900 1.386 . S
C904 C899 1.490 . S
C904 C906 1.395 . S
C904 C907 1.403 . S
H905 C911 0.930 . S
C906 H892 0.930 . S
C906 C904 1.395 . S
C906 C909 1.403 . S
C907 C904 1.403 . S
C907 C908 1.524 . S
C907 C911 1.400 . S
C908 H893 0.960 . S
C908 H894 0.960 . S
C908 H895 0.960 . S
C908 C907 1.524 . S
C909 C906 1.403 . S
C909 C910 1.392 . S
C909 C913 1.495 . S
C910 C909 1.392 . S
C910 C911 1.385 . S
C910 C912 1.478 . S
C911 H905 0.930 . S
C911 C907 1.400 . S
C911 C910 1.385 . S
C912 C910 1.478 . S
C912 C914 1.381 . S
C912 C918 1.383 . S
C913 C909 1.495 . S
C913 H919 0.959 . S
C913 H920 0.961 . S
C913 H921 0.960 . S
C914 C912 1.381 . S
C914 C915 1.394 . S
C914 H922 0.930 . S
C915 C914 1.394 . S
C915 C916 1.383 . S
C915 H923 0.929 . S
C916 C915 1.383 . S
C916 C917 1.377 . S
C917 H901 0.930 . S
C917 C916 1.377 . S
C917 C918 1.379 . S
C918 H902 0.931 . S
C918 C912 1.383 . S
C918 C917 1.379 . S
H919 C913 0.959 . S
H920 C913 0.961 . S
H921 C913 0.960 . S
H922 C914 0.930 . S
H923 C915 0.929 . S
H924 C932 0.929 . S
H925 C934 0.930 . S
H926 C936 0.930 . S
H927 C939 0.929 . S
H928 C942 0.930 . S
H929 C944 0.960 . S
H930 C944 0.960 . S
H931 C944 0.960 . S
C932 H924 0.929 . S
C932 C933 1.377 . S
C932 C934 1.384 . S
C933 C932 1.377 . S
C933 C939 1.390 . S
C934 H925 0.930 . S
C934 C932 1.384 . S
C934 C935 1.372 . S
C935 C934 1.372 . S
C935 C936 1.400 . S
C935 C940 1.490 . S
C936 H926 0.930 . S
C936 C935 1.400 . S
C936 C939 1.386 . S
H937 C953 0.930 . S
H938 C954 0.931 . S
C939 H927 0.929 . S
C939 C933 1.390 . S
C939 C936 1.386 . S
C940 C935 1.490 . S
C940 C942 1.395 . S
C940 C943 1.403 . S
H941 C947 0.930 . S
C942 H928 0.930 . S
C942 C940 1.395 . S
C942 C945 1.403 . S
C943 C940 1.403 . S
C943 C944 1.524 . S
C943 C947 1.400 . S
C944 H929 0.960 . S
C944 H930 0.960 . S
C944 H931 0.960 . S
C944 C943 1.524 . S
C945 C942 1.403 . S
C945 C946 1.392 . S
C945 C949 1.495 . S
C946 C945 1.392 . S
C946 C947 1.385 . S
C946 C948 1.478 . S
C947 H941 0.930 . S
C947 C943 1.400 . S
C947 C946 1.385 . S
C948 C946 1.478 . S
C948 C950 1.381 . S
C948 C954 1.383 . S
C949 C945 1.495 . S
C949 H955 0.959 . S
C949 H956 0.961 . S
C949 H957 0.960 . S
C950 C948 1.381 . S
C950 C951 1.394 . S
C950 H958 0.930 . S
C951 C950 1.394 . S
C951 C952 1.383 . S
C951 H959 0.929 . S
C952 C951 1.383 . S
C952 C953 1.377 . S
C953 H937 0.930 . S
C953 C952 1.377 . S
C953 C954 1.379 . S
C954 H938 0.931 . S
C954 C948 1.383 . S
C954 C953 1.379 . S
H955 C949 0.959 . S
H956 C949 0.961 . S
H957 C949 0.960 . S
H958 C950 0.930 . S
H959 C951 0.929 . S
H960 C968 0.929 . S
H961 C970 0.930 . S
H962 C972 0.930 . S
H963 C975 0.929 . S
H964 C978 0.930 . S
H965 C980 0.960 . S
H966 C980 0.960 . S
H967 C980 0.960 . S
C968 H960 0.929 . S
C968 C969 1.377 . S
C968 C970 1.384 . S
C969 C968 1.377 . S
C969 C975 1.390 . S
C970 H961 0.930 . S
C970 C968 1.384 . S
C970 C971 1.372 . S
C971 C970 1.372 . S
C971 C972 1.400 . S
C971 C976 1.490 . S
C972 H962 0.930 . S
C972 C971 1.400 . S
C972 C975 1.386 . S
H973 C989 0.930 . S
H974 C990 0.931 . S
C975 H963 0.929 . S
C975 C969 1.390 . S
C975 C972 1.386 . S
C976 C971 1.490 . S
C976 C978 1.395 . S
C976 C979 1.403 . S
H977 C983 0.930 . S
C978 H964 0.930 . S
C978 C976 1.395 . S
C978 C981 1.403 . S
C979 C976 1.403 . S
C979 C980 1.524 . S
C979 C983 1.400 . S
C980 H965 0.960 . S
C980 H966 0.960 . S
C980 H967 0.960 . S
C980 C979 1.524 . S
C981 C978 1.403 . S
C981 C982 1.392 . S
C981 C985 1.495 . S
C982 C981 1.392 . S
C982 C983 1.385 . S
C982 C984 1.478 . S
C983 H977 0.930 . S
C983 C979 1.400 . S
C983 C982 1.385 . S
C984 C982 1.478 . S
C984 C986 1.381 . S
C984 C990 1.383 . S
C985 C981 1.495 . S
C985 H991 0.959 . S
C985 H992 0.961 . S
C985 H993 0.960 . S
C986 C984 1.381 . S
C986 C987 1.394 . S
C986 H994 0.930 . S
C987 C986 1.394 . S
C987 C988 1.383 . S
C987 H995 0.929 . S
C988 C987 1.383 . S
C988 C989 1.377 . S
C989 H973 0.930 . S
C989 C988 1.377 . S
C989 C990 1.379 . S
C990 H974 0.931 . S
C990 C984 1.383 . S
C990 C989 1.379 . S
H991 C985 0.959 . S
H992 C985 0.961 . S
H993 C985 0.960 . S
H994 C986 0.930 . S
H995 C987 0.929 . S
H996 C1004 0.929 . S
H997 C1006 0.930 . S
H998 C1008 0.930 . S
H999 C1011 0.929 . S
H1000 C1014 0.930 . S
H1001 C1016 0.960 . S
H1002 C1016 0.960 . S
H1003 C1016 0.960 . S
C1004 H996 0.929 . S
C1004 C1005 1.377 . S
C1004 C1006 1.384 . S
C1005 C1004 1.377 . S
C1005 C1011 1.390 . S
C1006 H997 0.930 . S
C1006 C1004 1.384 . S
C1006 C1007 1.372 . S
C1007 C1006 1.372 . S
C1007 C1008 1.400 . S
C1007 C1012 1.490 . S
C1008 H998 0.930 . S
C1008 C1007 1.400 . S
C1008 C1011 1.386 . S
H1009 C1025 0.930 . S
H1010 C1026 0.931 . S
C1011 H999 0.929 . S
C1011 C1005 1.390 . S
C1011 C1008 1.386 . S
C1012 C1007 1.490 . S
C1012 C1014 1.395 . S
C1012 C1015 1.403 . S
H1013 C1019 0.930 . S
C1014 H1000 0.930 . S
C1014 C1012 1.395 . S
C1014 C1017 1.403 . S
C1015 C1012 1.403 . S
C1015 C1016 1.524 . S
C1015 C1019 1.400 . S
C1016 H1001 0.960 . S
C1016 H1002 0.960 . S
C1016 H1003 0.960 . S
C1016 C1015 1.524 . S
C1017 C1014 1.403 . S
C1017 C1018 1.392 . S
C1017 C1021 1.495 . S
C1018 C1017 1.392 . S
C1018 C1019 1.385 . S
C1018 C1020 1.478 . S
C1019 H1013 0.930 . S
C1019 C1015 1.400 . S
C1019 C1018 1.385 . S
C1020 C1018 1.478 . S
C1020 C1022 1.381 . S
C1020 C1026 1.383 . S
C1021 C1017 1.495 . S
C1021 H1027 0.959 . S
C1021 H1028 0.961 . S
C1021 H1029 0.960 . S
C1022 C1020 1.381 . S
C1022 C1023 1.394 . S
C1022 H1030 0.930 . S
C1023 C1022 1.394 . S
C1023 C1024 1.383 . S
C1023 H1031 0.929 . S
C1024 C1023 1.383 . S
C1024 C1025 1.377 . S
C1025 H1009 0.930 . S
C1025 C1024 1.377 . S
C1025 C1026 1.379 . S
C1026 H1010 0.931 . S
C1026 C1020 1.383 . S
C1026 C1025 1.379 . S
H1027 C1021 0.959 . S
H1028 C1021 0.961 . S
H1029 C1021 0.960 . S
H1030 C1022 0.930 . S
H1031 C1023 0.929 . S
H1032 C1040 0.929 . S
H1033 C1042 0.930 . S
H1034 C1044 0.930 . S
H1035 C1047 0.929 . S
H1036 C1050 0.930 . S
H1037 C1052 0.960 . S
H1038 C1052 0.960 . S
H1039 C1052 0.960 . S
C1040 H1032 0.929 . S
C1040 C1041 1.377 . S
C1040 C1042 1.384 . S
C1041 C1040 1.377 . S
C1041 C1047 1.390 . S
C1042 H1033 0.930 . S
C1042 C1040 1.384 . S
C1042 C1043 1.372 . S
C1043 C1042 1.372 . S
C1043 C1044 1.400 . S
C1043 C1048 1.490 . S
C1044 H1034 0.930 . S
C1044 C1043 1.400 . S
C1044 C1047 1.386 . S
H1045 C1061 0.930 . S
H1046 C1062 0.931 . S
C1047 H1035 0.929 . S
C1047 C1041 1.390 . S
C1047 C1044 1.386 . S
C1048 C1043 1.490 . S
C1048 C1050 1.395 . S
C1048 C1051 1.403 . S
H1049 C1055 0.930 . S
C1050 H1036 0.930 . S
C1050 C1048 1.395 . S
C1050 C1053 1.403 . S
C1051 C1048 1.403 . S
C1051 C1052 1.524 . S
C1051 C1055 1.400 . S
C1052 H1037 0.960 . S
C1052 H1038 0.960 . S
C1052 H1039 0.960 . S
C1052 C1051 1.524 . S
C1053 C1050 1.403 . S
C1053 C1054 1.392 . S
C1053 C1057 1.495 . S
C1054 C1053 1.392 . S
C1054 C1055 1.385 . S
C1054 C1056 1.478 . S
C1055 H1049 0.930 . S
C1055 C1051 1.400 . S
C1055 C1054 1.385 . S
C1056 C1054 1.478 . S
C1056 C1058 1.381 . S
C1056 C1062 1.383 . S
C1057 C1053 1.495 . S
C1057 H1063 0.959 . S
C1057 H1064 0.961 . S
C1057 H1065 0.960 . S
C1058 C1056 1.381 . S
C1058 C1059 1.394 . S
C1058 H1066 0.930 . S
C1059 C1058 1.394 . S
C1059 C1060 1.383 . S
C1059 H1067 0.929 . S
C1060 C1059 1.383 . S
C1060 C1061 1.377 . S
C1061 H1045 0.930 . S
C1061 C1060 1.377 . S
C1061 C1062 1.379 . S
C1062 H1046 0.931 . S
C1062 C1056 1.383 . S
C1062 C1061 1.379 . S
H1063 C1057 0.959 . S
H1064 C1057 0.961 . S
H1065 C1057 0.960 . S
H1066 C1058 0.930 . S
H1067 C1059 0.929 . S
H1068 C1076 0.929 . S
H1069 C1078 0.930 . S
H1070 C1080 0.930 . S
H1071 C1083 0.929 . S
H1072 C1086 0.930 . S
H1073 C1088 0.960 . S
H1074 C1088 0.960 . S
H1075 C1088 0.960 . S
C1076 H1068 0.929 . S
C1076 C1077 1.377 . S
C1076 C1078 1.384 . S
C1077 C1076 1.377 . S
C1077 C1083 1.390 . S
C1078 H1069 0.930 . S
C1078 C1076 1.384 . S
C1078 C1079 1.372 . S
C1079 C1078 1.372 . S
C1079 C1080 1.400 . S
C1079 C1084 1.490 . S
C1080 H1070 0.930 . S
C1080 C1079 1.400 . S
C1080 C1083 1.386 . S
H1081 C1097 0.930 . S
H1082 C1098 0.931 . S
C1083 H1071 0.929 . S
C1083 C1077 1.390 . S
C1083 C1080 1.386 . S
C1084 C1079 1.490 . S
C1084 C1086 1.395 . S
C1084 C1087 1.403 . S
H1085 C1091 0.930 . S
C1086 H1072 0.930 . S
C1086 C1084 1.395 . S
C1086 C1089 1.403 . S
C1087 C1084 1.403 . S
C1087 C1088 1.524 . S
C1087 C1091 1.400 . S
C1088 H1073 0.960 . S
C1088 H1074 0.960 . S
C1088 H1075 0.960 . S
C1088 C1087 1.524 . S
C1089 C1086 1.403 . S
C1089 C1090 1.392 . S
C1089 C1093 1.495 . S
C1090 C1089 1.392 . S
C1090 C1091 1.385 . S
C1090 C1092 1.478 . S
C1091 H1085 0.930 . S
C1091 C1087 1.400 . S
C1091 C1090 1.385 . S
C1092 C1090 1.478 . S
C1092 C1094 1.381 . S
C1092 C1098 1.383 . S
C1093 C1089 1.495 . S
C1093 H1099 0.959 . S
C1093 H1100 0.961 . S
C1093 H1101 0.960 . S
C1094 C1092 1.381 . S
C1094 C1095 1.394 . S
C1094 H1102 0.930 . S
C1095 C1094 1.394 . S
C1095 C1096 1.383 . S
C1095 H1103 0.929 . S
C1096 C1095 1.383 . S
C1096 C1097 1.377 . S
C1097 H1081 0.930 . S
C1097 C1096 1.377 . S
C1097 C1098 1.379 . S
C1098 H1082 0.931 . S
C1098 C1092 1.383 . S
C1098 C1097 1.379 . S
H1099 C1093 0.959 . S
H1100 C1093 0.961 . S
H1101 C1093 0.960 . S
H1102 C1094 0.930 . S
H1103 C1095 0.929 . S
H1104 C1112 0.929 . S
H1105 C1114 0.930 . S
H1106 C1116 0.930 . S
H1107 C1119 0.929 . S
H1108 C1122 0.930 . S
H1109 C1124 0.960 . S
H1110 C1124 0.960 . S
H1111 C1124 0.960 . S
C1112 H1104 0.929 . S
C1112 C1113 1.377 . S
C1112 C1114 1.384 . S
C1113 C1112 1.377 . S
C1113 C1119 1.390 . S
C1114 H1105 0.930 . S
C1114 C1112 1.384 . S
C1114 C1115 1.372 . S
C1115 C1114 1.372 . S
C1115 C1116 1.400 . S
C1115 C1120 1.490 . S
C1116 H1106 0.930 . S
C1116 C1115 1.400 . S
C1116 C1119 1.386 . S
H1117 C1133 0.930 . S
H1118 C1134 0.931 . S
C1119 H1107 0.929 . S
C1119 C1113 1.390 . S
C1119 C1116 1.386 . S
C1120 C1115 1.490 . S
C1120 C1122 1.395 . S
C1120 C1123 1.403 . S
H1121 C1127 0.930 . S
C1122 H1108 0.930 . S
C1122 C1120 1.395 . S
C1122 C1125 1.403 . S
C1123 C1120 1.403 . S
C1123 C1124 1.524 . S
C1123 C1127 1.400 . S
C1124 H1109 0.960 . S
C1124 H1110 0.960 . S
C1124 H1111 0.960 . S
C1124 C1123 1.524 . S
C1125 C1122 1.403 . S
C1125 C1126 1.392 . S
C1125 C1129 1.495 . S
C1126 C1125 1.392 . S
C1126 C1127 1.385 . S
C1126 C1128 1.478 . S
C1127 H1121 0.930 . S
C1127 C1123 1.400 . S
C1127 C1126 1.385 . S
C1128 C1126 1.478 . S
C1128 C1130 1.381 . S
C1128 C1134 1.383 . S
C1129 C1125 1.495 . S
C1129 H1135 0.959 . S
C1129 H1136 0.961 . S
C1129 H1137 0.960 . S
C1130 C1128 1.381 . S
C1130 C1131 1.394 . S
C1130 H1138 0.930 . S
C1131 C1130 1.394 . S
C1131 C1132 1.383 . S
C1131 H1139 0.929 . S
C1132 C1131 1.383 . S
C1132 C1133 1.377 . S
C1133 H1117 0.930 . S
C1133 C1132 1.377 . S
C1133 C1134 1.379 . S
C1134 H1118 0.931 . S
C1134 C1128 1.383 . S
C1134 C1133 1.379 . S
H1135 C1129 0.959 . S
H1136 C1129 0.961 . S
H1137 C1129 0.960 . S
H1138 C1130 0.930 . S
H1139 C1131 0.929 . S
H1140 C1148 0.929 . S
H1141 C1150 0.930 . S
H1142 C1152 0.930 . S
H1143 C1155 0.929 . S
H1144 C1158 0.930 . S
H1145 C1160 0.960 . S
H1146 C1160 0.960 . S
H1147 C1160 0.960 . S
C1148 H1140 0.929 . S
C1148 C1149 1.377 . S
C1148 C1150 1.384 . S
C1149 C1148 1.377 . S
C1149 C1155 1.390 . S
C1150 H1141 0.930 . S
C1150 C1148 1.384 . S
C1150 C1151 1.372 . S
C1151 C1150 1.372 . S
C1151 C1152 1.400 . S
C1151 C1156 1.490 . S
C1152 H1142 0.930 . S
C1152 C1151 1.400 . S
C1152 C1155 1.386 . S
H1153 C1169 0.930 . S
H1154 C1170 0.931 . S
C1155 H1143 0.929 . S
C1155 C1149 1.390 . S
C1155 C1152 1.386 . S
C1156 C1151 1.490 . S
C1156 C1158 1.395 . S
C1156 C1159 1.403 . S
H1157 C1163 0.930 . S
C1158 H1144 0.930 . S
C1158 C1156 1.395 . S
C1158 C1161 1.403 . S
C1159 C1156 1.403 . S
C1159 C1160 1.524 . S
C1159 C1163 1.400 . S
C1160 H1145 0.960 . S
C1160 H1146 0.960 . S
C1160 H1147 0.960 . S
C1160 C1159 1.524 . S
C1161 C1158 1.403 . S
C1161 C1162 1.392 . S
C1161 C1165 1.495 . S
C1162 C1161 1.392 . S
C1162 C1163 1.385 . S
C1162 C1164 1.478 . S
C1163 H1157 0.930 . S
C1163 C1159 1.400 . S
C1163 C1162 1.385 . S
C1164 C1162 1.478 . S
C1164 C1166 1.381 . S
C1164 C1170 1.383 . S
C1165 C1161 1.495 . S
C1165 H1171 0.959 . S
C1165 H1172 0.961 . S
C1165 H1173 0.960 . S
C1166 C1164 1.381 . S
C1166 C1167 1.394 . S
C1166 H1174 0.930 . S
C1167 C1166 1.394 . S
C1167 C1168 1.383 . S
C1167 H1175 0.929 . S
C1168 C1167 1.383 . S
C1168 C1169 1.377 . S
C1169 H1153 0.930 . S
C1169 C1168 1.377 . S
C1169 C1170 1.379 . S
C1170 H1154 0.931 . S
C1170 C1164 1.383 . S
C1170 C1169 1.379 . S
H1171 C1165 0.959 . S
H1172 C1165 0.961 . S
H1173 C1165 0.960 . S
H1174 C1166 0.930 . S
H1175 C1167 0.929 . S
H1176 C1184 0.929 . S
H1177 C1186 0.930 . S
H1178 C1188 0.930 . S
H1179 C1191 0.929 . S
H1180 C1194 0.930 . S
H1181 C1196 0.960 . S
H1182 C1196 0.960 . S
H1183 C1196 0.960 . S
C1184 H1176 0.929 . S
C1184 C1185 1.377 . S
C1184 C1186 1.384 . S
C1185 C1184 1.377 . S
C1185 C1191 1.390 . S
C1186 H1177 0.930 . S
C1186 C1184 1.384 . S
C1186 C1187 1.372 . S
C1187 C1186 1.372 . S
C1187 C1188 1.400 . S
C1187 C1192 1.490 . S
C1188 H1178 0.930 . S
C1188 C1187 1.400 . S
C1188 C1191 1.386 . S
H1189 C1205 0.930 . S
H1190 C1206 0.931 . S
C1191 H1179 0.929 . S
C1191 C1185 1.390 . S
C1191 C1188 1.386 . S
C1192 C1187 1.490 . S
C1192 C1194 1.395 . S
C1192 C1195 1.403 . S
H1193 C1199 0.930 . S
C1194 H1180 0.930 . S
C1194 C1192 1.395 . S
C1194 C1197 1.403 . S
C1195 C1192 1.403 . S
C1195 C1196 1.524 . S
C1195 C1199 1.400 . S
C1196 H1181 0.960 . S
C1196 H1182 0.960 . S
C1196 H1183 0.960 . S
C1196 C1195 1.524 . S
C1197 C1194 1.403 . S
C1197 C1198 1.392 . S
C1197 C1201 1.495 . S
C1198 C1197 1.392 . S
C1198 C1199 1.385 . S
C1198 C1200 1.478 . S
C1199 H1193 0.930 . S
C1199 C1195 1.400 . S
C1199 C1198 1.385 . S
C1200 C1198 1.478 . S
C1200 C1202 1.381 . S
C1200 C1206 1.383 . S
C1201 C1197 1.495 . S
C1201 H1207 0.959 . S
C1201 H1208 0.961 . S
C1201 H1209 0.960 . S
C1202 C1200 1.381 . S
C1202 C1203 1.394 . S
C1202 H1210 0.930 . S
C1203 C1202 1.394 . S
C1203 C1204 1.383 . S
C1203 H1211 0.929 . S
C1204 C1203 1.383 . S
C1204 C1205 1.377 . S
C1205 H1189 0.930 . S
C1205 C1204 1.377 . S
C1205 C1206 1.379 . S
C1206 H1190 0.931 . S
C1206 C1200 1.383 . S
C1206 C1205 1.379 . S
H1207 C1201 0.959 . S
H1208 C1201 0.961 . S
H1209 C1201 0.960 . S
H1210 C1202 0.930 . S
H1211 C1203 0.929 . S
H1212 C1220 0.929 . S
H1213 C1222 0.930 . S
H1214 C1224 0.930 . S
H1215 C1227 0.929 . S
H1216 C1230 0.930 . S
H1217 C1232 0.960 . S
H1218 C1232 0.960 . S
H1219 C1232 0.960 . S
C1220 H1212 0.929 . S
C1220 C1221 1.377 . S
C1220 C1222 1.384 . S
C1221 C1220 1.377 . S
C1221 C1227 1.390 . S
C1222 H1213 0.930 . S
C1222 C1220 1.384 . S
C1222 C1223 1.372 . S
C1223 C1222 1.372 . S
C1223 C1224 1.400 . S
C1223 C1228 1.490 . S
C1224 H1214 0.930 . S
C1224 C1223 1.400 . S
C1224 C1227 1.386 . S
H1225 C1241 0.930 . S
H1226 C1242 0.931 . S
C1227 H1215 0.929 . S
C1227 C1221 1.390 . S
C1227 C1224 1.386 . S
C1228 C1223 1.490 . S
C1228 C1230 1.395 . S
C1228 C1231 1.403 . S
H1229 C1235 0.930 . S
C1230 H1216 0.930 . S
C1230 C1228 1.395 . S
C1230 C1233 1.403 . S
C1231 C1228 1.403 . S
C1231 C1232 1.524 . S
C1231 C1235 1.400 . S
C1232 H1217 0.960 . S
C1232 H1218 0.960 . S
C1232 H1219 0.960 . S
C1232 C1231 1.524 . S
C1233 C1230 1.403 . S
C1233 C1234 1.392 . S
C1233 C1237 1.495 . S
C1234 C1233 1.392 . S
C1234 C1235 1.385 . S
C1234 C1236 1.478 . S
C1235 H1229 0.930 . S
C1235 C1231 1.400 . S
C1235 C1234 1.385 . S
C1236 C1234 1.478 . S
C1236 C1238 1.381 . S
C1236 C1242 1.383 . S
C1237 C1233 1.495 . S
C1237 H1243 0.959 . S
C1237 H1244 0.961 . S
C1237 H1245 0.960 . S
C1238 C1236 1.381 . S
C1238 C1239 1.394 . S
C1238 H1246 0.930 . S
C1239 C1238 1.394 . S
C1239 C1240 1.383 . S
C1239 H1247 0.929 . S
C1240 C1239 1.383 . S
C1240 C1241 1.377 . S
C1241 H1225 0.930 . S
C1241 C1240 1.377 . S
C1241 C1242 1.379 . S
C1242 H1226 0.931 . S
C1242 C1236 1.383 . S
C1242 C1241 1.379 . S
H1243 C1237 0.959 . S
H1244 C1237 0.961 . S
H1245 C1237 0.960 . S
H1246 C1238 0.930 . S
H1247 C1239 0.929 . S
H1248 C1256 0.929 . S
H1249 C1258 0.930 . S
H1250 C1260 0.930 . S
H1251 C1263 0.929 . S
H1252 C1266 0.930 . S
H1253 C1268 0.960 . S
H1254 C1268 0.960 . S
H1255 C1268 0.960 . S
C1256 H1248 0.929 . S
C1256 C1257 1.377 . S
C1256 C1258 1.384 . S
C1257 C1256 1.377 . S
C1257 C1263 1.390 . S
C1258 H1249 0.930 . S
C1258 C1256 1.384 . S
C1258 C1259 1.372 . S
C1259 C1258 1.372 . S
C1259 C1260 1.400 . S
C1259 C1264 1.490 . S
C1260 H1250 0.930 . S
C1260 C1259 1.400 . S
C1260 C1263 1.386 . S
H1261 C1277 0.930 . S
H1262 C1278 0.931 . S
C1263 H1251 0.929 . S
C1263 C1257 1.390 . S
C1263 C1260 1.386 . S
C1264 C1259 1.490 . S
C1264 C1266 1.395 . S
C1264 C1267 1.403 . S
H1265 C1271 0.930 1_545 S
C1266 H1252 0.930 . S
C1266 C1264 1.395 . S
C1266 C1269 1.403 . S
C1267 C1264 1.403 . S
C1267 C1268 1.524 . S
C1267 C1271 1.400 . S
C1268 H1253 0.960 . S
C1268 H1254 0.960 . S
C1268 H1255 0.960 . S
C1268 C1267 1.524 . S
C1269 C1266 1.403 . S
C1269 C1270 1.392 1_565 S
C1269 C1273 1.495 1_565 S
C1270 C1269 1.392 1_545 S
C1270 C1271 1.385 1_545 S
C1270 C1272 1.478 . S
C1271 H1265 0.930 1_565 S
C1271 C1267 1.400 . S
C1271 C1270 1.385 1_565 S
C1272 C1270 1.478 . S
C1272 C1274 1.381 . S
C1272 C1278 1.383 . S
C1273 C1269 1.495 1_545 S
C1273 H1279 0.959 1_545 S
C1273 H1280 0.961 . S
C1273 H1281 0.960 . S
C1274 C1272 1.381 . S
C1274 C1275 1.394 . S
C1274 H1282 0.930 . S
C1275 C1274 1.394 . S
C1275 C1276 1.383 . S
C1275 H1283 0.929 . S
C1276 C1275 1.383 . S
C1276 C1277 1.377 . S
C1277 H1261 0.930 . S
C1277 C1276 1.377 . S
C1277 C1278 1.379 . S
C1278 H1262 0.931 . S
C1278 C1272 1.383 . S
C1278 C1277 1.379 . S
H1279 C1273 0.959 1_565 S
H1280 C1273 0.961 . S
H1281 C1273 0.960 . S
H1282 C1274 0.930 . S
H1283 C1275 0.929 . S
H1284 C1292 0.929 . S
H1285 C1294 0.930 . S
H1286 C1296 0.930 . S
H1287 C1299 0.929 . S
H1288 C1302 0.930 1_655 S
H1289 C1304 0.946 1_455 S
H1290 C1304 0.970 . S
H1291 C1304 0.971 . S
C1292 H1284 0.929 . S
C1292 C1293 1.377 . S
C1292 C1294 1.384 . S
C1293 C1292 1.377 . S
C1293 C1299 1.390 . S
C1294 H1285 0.930 . S
C1294 C1292 1.384 . S
C1294 C1295 1.372 . S
C1295 C1294 1.372 . S
C1295 C1296 1.400 . S
C1295 C1300 1.490 . S
C1296 H1286 0.930 . S
C1296 C1295 1.400 . S
C1296 C1299 1.386 . S
H1297 C1313 0.930 . S
H1298 C1314 0.931 . S
C1299 H1287 0.929 . S
C1299 C1293 1.390 . S
C1299 C1296 1.386 . S
C1300 C1295 1.490 . S
C1300 C1302 1.395 1_655 S
C1300 C1303 1.403 1_655 S
H1301 C1307 0.930 . S
C1302 H1288 0.930 1_455 S
C1302 C1300 1.395 1_455 S
C1302 C1305 1.403 . S
C1303 C1300 1.403 1_455 S
C1303 C1304 1.517 1_455 S
C1303 C1307 1.400 . S
C1304 H1289 0.946 1_655 S
C1304 H1290 0.970 . S
C1304 H1291 0.971 . S
C1304 C1303 1.517 1_655 S
C1305 C1302 1.403 . S
C1305 C1306 1.392 . S
C1305 C1309 1.495 . S
C1306 C1305 1.392 . S
C1306 C1307 1.385 . S
C1306 C1308 1.478 . S
C1307 H1301 0.930 . S
C1307 C1303 1.400 . S
C1307 C1306 1.385 . S
C1308 C1306 1.478 . S
C1308 C1310 1.381 . S
C1308 C1314 1.383 . S
C1309 C1305 1.495 . S
C1309 H1315 0.959 . S
C1309 H1316 0.961 . S
C1309 H1317 0.960 . S
C1310 C1308 1.381 . S
C1310 C1311 1.394 . S
C1310 H1318 0.930 . S
C1311 C1310 1.394 . S
C1311 C1312 1.383 . S
C1311 H1319 0.929 . S
C1312 C1311 1.383 . S
C1312 C1313 1.377 . S
C1313 H1297 0.930 . S
C1313 C1312 1.377 . S
C1313 C1314 1.379 . S
C1314 H1298 0.931 . S
C1314 C1308 1.383 . S
C1314 C1313 1.379 . S
H1315 C1309 0.959 . S
H1316 C1309 0.961 . S
H1317 C1309 0.960 . S
H1318 C1310 0.930 . S
H1319 C1311 0.929 . S
H1320 C1328 0.929 . S
H1321 C1330 0.930 . S
H1322 C1332 0.930 . S
H1323 C1335 0.929 . S
H1324 C1338 0.930 1_565 S
H1325 C1340 0.960 1_545 S
H1326 C1340 0.960 . S
H1327 C1340 0.960 . S
C1328 H1320 0.929 . S
C1328 C1329 1.377 . S
C1328 C1330 1.384 . S
C1329 C1328 1.377 . S
C1329 C1335 1.390 . S
C1330 H1321 0.930 . S
C1330 C1328 1.384 . S
C1330 C1331 1.372 . S
C1331 C1330 1.372 . S
C1331 C1332 1.400 . S
C1331 C1336 1.490 . S
C1332 H1322 0.930 . S
C1332 C1331 1.400 . S
C1332 C1335 1.386 . S
H1333 C1349 0.930 . S
H1334 C1350 0.931 . S
C1335 H1323 0.929 . S
C1335 C1329 1.390 . S
C1335 C1332 1.386 . S
C1336 C1331 1.490 . S
C1336 C1338 1.395 1_565 S
C1336 C1339 1.403 1_565 S
H1337 C1343 0.930 . S
C1338 H1324 0.930 1_545 S
C1338 C1336 1.395 1_545 S
C1338 C1341 1.403 . S
C1339 C1336 1.403 1_545 S
C1339 C1340 1.524 1_545 S
C1339 C1343 1.400 . S
C1340 H1325 0.960 1_565 S
C1340 H1326 0.960 . S
C1340 H1327 0.960 . S
C1340 C1339 1.524 1_565 S
C1341 C1338 1.403 . S
C1341 C1342 1.392 . S
C1341 C1345 1.495 . S
C1342 C1341 1.392 . S
C1342 C1343 1.385 . S
C1342 C1344 1.478 . S
C1343 H1337 0.930 . S
C1343 C1339 1.400 . S
C1343 C1342 1.385 . S
C1344 C1342 1.478 . S
C1344 C1346 1.381 . S
C1344 C1350 1.383 . S
C1345 C1341 1.495 . S
C1345 H1351 0.959 . S
C1345 H1352 0.961 . S
C1345 H1353 0.960 . S
C1346 C1344 1.381 . S
C1346 C1347 1.394 . S
C1346 H1354 0.930 . S
C1347 C1346 1.394 . S
C1347 C1348 1.383 . S
C1347 H1355 0.929 . S
C1348 C1347 1.383 . S
C1348 C1349 1.377 . S
C1349 H1333 0.930 . S
C1349 C1348 1.377 . S
C1349 C1350 1.379 . S
C1350 H1334 0.931 . S
C1350 C1344 1.383 . S
C1350 C1349 1.379 . S
H1351 C1345 0.959 . S
H1352 C1345 0.961 . S
H1353 C1345 0.960 . S
H1354 C1346 0.930 . S
H1355 C1347 0.929 . S
H1356 C1364 0.929 . S
H1357 C1366 0.930 . S
H1358 C1368 0.930 . S
H1359 C1371 0.929 . S
H1360 C1374 0.930 . S
H1361 C1376 0.960 . S
H1362 C1376 0.960 . S
H1363 C1376 0.960 . S
C1364 H1356 0.929 . S
C1364 C1365 1.377 . S
C1364 C1366 1.384 . S
C1365 C1364 1.377 . S
C1365 C1371 1.390 . S
C1366 H1357 0.930 . S
C1366 C1364 1.384 . S
C1366 C1367 1.372 . S
C1367 C1366 1.372 . S
C1367 C1368 1.400 . S
C1367 C1372 1.490 . S
C1368 H1358 0.930 . S
C1368 C1367 1.400 . S
C1368 C1371 1.386 . S
H1369 C1385 0.930 . S
H1370 C1386 0.931 . S
C1371 H1359 0.929 . S
C1371 C1365 1.390 . S
C1371 C1368 1.386 . S
C1372 C1367 1.490 . S
C1372 C1374 1.395 . S
C1372 C1375 1.403 . S
H1373 C1379 0.930 1_455 S
C1374 H1360 0.930 . S
C1374 C1372 1.395 . S
C1374 C1377 1.403 . S
C1375 C1372 1.403 . S
C1375 C1376 1.524 . S
C1375 C1379 1.400 . S
C1376 H1361 0.960 . S
C1376 H1362 0.960 . S
C1376 H1363 0.960 . S
C1376 C1375 1.524 . S
C1377 C1374 1.403 . S
C1377 C1378 1.392 1_655 S
C1377 C1381 1.495 1_655 S
C1378 C1377 1.392 1_455 S
C1378 C1379 1.385 1_455 S
C1378 C1380 1.478 . S
C1379 H1373 0.930 1_655 S
C1379 C1375 1.400 . S
C1379 C1378 1.385 1_655 S
C1380 C1378 1.478 . S
C1380 C1382 1.381 . S
C1380 C1386 1.383 . S
C1381 C1377 1.495 1_455 S
C1381 H1387 0.959 1_455 S
C1381 H1388 0.961 . S
C1381 H1389 0.960 . S
C1382 C1380 1.381 . S
C1382 C1383 1.394 . S
C1382 H1390 0.930 . S
C1383 C1382 1.394 . S
C1383 C1384 1.383 . S
C1383 H1391 0.929 . S
C1384 C1383 1.383 . S
C1384 C1385 1.377 . S
C1385 H1369 0.930 . S
C1385 C1384 1.377 . S
C1385 C1386 1.379 . S
C1386 H1370 0.931 . S
C1386 C1380 1.383 . S
C1386 C1385 1.379 . S
H1387 C1381 0.959 1_655 S
H1388 C1381 0.961 . S
H1389 C1381 0.960 . S
H1390 C1382 0.930 . S
H1391 C1383 0.929 . S
H1392 C1400 0.929 . S
H1393 C1402 0.930 . S
H1394 C1404 0.930 . S
H1395 C1407 0.929 . S
H1396 C1410 0.930 . S
H1397 C1412 0.960 . S
H1398 C1412 0.960 . S
H1399 C1412 0.960 . S
C1400 H1392 0.929 . S
C1400 C1401 1.377 . S
C1400 C1402 1.384 . S
C1401 C1400 1.377 . S
C1401 C1407 1.390 . S
C1402 H1393 0.930 . S
C1402 C1400 1.384 . S
C1402 C1403 1.372 . S
C1403 C1402 1.372 . S
C1403 C1404 1.400 . S
C1403 C1408 1.490 . S
C1404 H1394 0.930 . S
C1404 C1403 1.400 . S
C1404 C1407 1.386 . S
H1405 C1421 0.930 . S
H1406 C1422 0.931 . S
C1407 H1395 0.929 . S
C1407 C1401 1.390 . S
C1407 C1404 1.386 . S
C1408 C1403 1.490 . S
C1408 C1410 1.395 . S
C1408 C1411 1.403 . S
H1409 C1415 0.930 1_565 S
C1410 H1396 0.930 . S
C1410 C1408 1.395 . S
C1410 C1413 1.403 . S
C1411 C1408 1.403 . S
C1411 C1412 1.524 . S
C1411 C1415 1.400 . S
C1412 H1397 0.960 . S
C1412 H1398 0.960 . S
C1412 H1399 0.960 . S
C1412 C1411 1.524 . S
C1413 C1410 1.403 . S
C1413 C1414 1.392 1_545 S
C1413 C1417 1.495 1_545 S
C1414 C1413 1.392 1_565 S
C1414 C1415 1.385 1_565 S
C1414 C1416 1.478 . S
C1415 H1409 0.930 1_545 S
C1415 C1411 1.400 . S
C1415 C1414 1.385 1_545 S
C1416 C1414 1.478 . S
C1416 C1418 1.381 . S
C1416 C1422 1.383 . S
C1417 C1413 1.495 1_565 S
C1417 H1423 0.959 1_565 S
C1417 H1424 0.961 . S
C1417 H1425 0.960 . S
C1418 C1416 1.381 . S
C1418 C1419 1.394 . S
C1418 H1426 0.930 . S
C1419 C1418 1.394 . S
C1419 C1420 1.383 . S
C1419 H1427 0.929 . S
C1420 C1419 1.383 . S
C1420 C1421 1.377 . S
C1421 H1405 0.930 . S
C1421 C1420 1.377 . S
C1421 C1422 1.379 . S
C1422 H1406 0.931 . S
C1422 C1416 1.383 . S
C1422 C1421 1.379 . S
H1423 C1417 0.959 1_545 S
H1424 C1417 0.961 . S
H1425 C1417 0.960 . S
H1426 C1418 0.930 . S
H1427 C1419 0.929 . S
H1428 C1436 0.929 . S
H1429 C1438 0.930 . S
H1430 C1440 0.930 . S
H1431 C1443 0.929 . S
H1432 C1446 0.930 1_455 S
H1433 C1448 0.959 1_655 S
H1434 C1448 0.960 . S
H1435 C1448 0.961 . S
C1436 H1428 0.929 . S
C1436 C1437 1.377 . S
C1436 C1438 1.384 . S
C1437 C1436 1.377 . S
C1437 C1443 1.390 . S
C1438 H1429 0.930 . S
C1438 C1436 1.384 . S
C1438 C1439 1.372 . S
C1439 C1438 1.372 . S
C1439 C1440 1.400 . S
C1439 C1444 1.490 . S
C1440 H1430 0.930 . S
C1440 C1439 1.400 . S
C1440 C1443 1.386 . S
H1441 C1457 0.930 . S
H1442 C1458 0.931 . S
C1443 H1431 0.929 . S
C1443 C1437 1.390 . S
C1443 C1440 1.386 . S
C1444 C1439 1.490 . S
C1444 C1446 1.395 1_455 S
C1444 C1447 1.403 1_455 S
H1445 C1451 0.930 . S
C1446 H1432 0.930 1_655 S
C1446 C1444 1.395 1_655 S
C1446 C1449 1.403 . S
C1447 C1444 1.403 1_655 S
C1447 C1448 1.523 1_655 S
C1447 C1451 1.400 . S
C1448 H1433 0.959 1_455 S
C1448 H1434 0.960 . S
C1448 H1435 0.961 . S
C1448 C1447 1.523 1_455 S
C1449 C1446 1.403 . S
C1449 C1450 1.392 . S
C1449 C1453 1.495 . S
C1450 C1449 1.392 . S
C1450 C1451 1.385 . S
C1450 C1452 1.478 . S
C1451 H1445 0.930 . S
C1451 C1447 1.400 . S
C1451 C1450 1.385 . S
C1452 C1450 1.478 . S
C1452 C1454 1.381 . S
C1452 C1458 1.383 . S
C1453 C1449 1.495 . S
C1453 H1459 0.959 . S
C1453 H1460 0.961 . S
C1453 H1461 0.960 . S
C1454 C1452 1.381 . S
C1454 C1455 1.394 . S
C1454 H1462 0.930 . S
C1455 C1454 1.394 . S
C1455 C1456 1.383 . S
C1455 H1463 0.929 . S
C1456 C1455 1.383 . S
C1456 C1457 1.377 . S
C1457 H1441 0.930 . S
C1457 C1456 1.377 . S
C1457 C1458 1.379 . S
C1458 H1442 0.931 . S
C1458 C1452 1.383 . S
C1458 C1457 1.379 . S
H1459 C1453 0.959 . S
H1460 C1453 0.961 . S
H1461 C1453 0.960 . S
H1462 C1454 0.930 . S
H1463 C1455 0.929 . S
H1464 C1472 0.929 . S
H1465 C1474 0.930 . S
H1466 C1476 0.930 . S
H1467 C1479 0.929 . S
H1468 C1482 0.930 . S
H1469 C1484 0.960 . S
H1470 C1484 0.960 . S
H1471 C1484 0.960 . S
C1472 H1464 0.929 . S
C1472 C1473 1.377 . S
C1472 C1474 1.384 . S
C1473 C1472 1.377 . S
C1473 C1479 1.390 . S
C1474 H1465 0.930 . S
C1474 C1472 1.384 . S
C1474 C1475 1.372 . S
C1475 C1474 1.372 . S
C1475 C1476 1.400 . S
C1475 C1480 1.490 . S
C1476 H1466 0.930 . S
C1476 C1475 1.400 . S
C1476 C1479 1.386 . S
H1477 C1493 0.930 . S
H1478 C1494 0.931 . S
C1479 H1467 0.929 . S
C1479 C1473 1.390 . S
C1479 C1476 1.386 . S
C1480 C1475 1.490 . S
C1480 C1482 1.395 . S
C1480 C1483 1.403 . S
H1481 C1487 0.930 1_545 S
C1482 H1468 0.930 . S
C1482 C1480 1.395 . S
C1482 C1485 1.403 . S
C1483 C1480 1.403 . S
C1483 C1484 1.524 . S
C1483 C1487 1.400 . S
C1484 H1469 0.960 . S
C1484 H1470 0.960 . S
C1484 H1471 0.960 . S
C1484 C1483 1.524 . S
C1485 C1482 1.403 . S
C1485 C1486 1.392 1_565 S
C1485 C1489 1.483 1_565 S
C1486 C1485 1.392 1_545 S
C1486 C1487 1.385 1_545 S
C1486 C1488 1.478 . S
C1487 H1481 0.930 1_565 S
C1487 C1483 1.400 . S
C1487 C1486 1.385 1_565 S
C1488 C1486 1.478 . S
C1488 C1490 1.381 . S
C1488 C1494 1.383 . S
C1489 C1485 1.483 1_545 S
C1489 H1495 0.933 1_545 S
C1489 H1496 0.980 . S
C1489 H1497 0.980 . S
C1490 C1488 1.381 . S
C1490 C1491 1.394 . S
C1490 H1498 0.930 . S
C1491 C1490 1.394 . S
C1491 C1492 1.383 . S
C1491 H1499 0.929 . S
C1492 C1491 1.383 . S
C1492 C1493 1.377 . S
C1493 H1477 0.930 . S
C1493 C1492 1.377 . S
C1493 C1494 1.379 . S
C1494 H1478 0.931 . S
C1494 C1488 1.383 . S
C1494 C1493 1.379 . S
H1495 C1489 0.933 1_565 S
H1496 C1489 0.980 . S
H1497 C1489 0.980 . S
H1498 C1490 0.930 . S
H1499 C1491 0.929 . S
H1500 C1508 0.929 . S
H1501 C1510 0.930 . S
H1502 C1512 0.930 . S
H1503 C1515 0.929 . S
H1504 C1518 0.930 . S
H1505 C1520 0.960 . S
H1506 C1520 0.960 . S
H1507 C1520 0.960 . S
C1508 H1500 0.929 . S
C1508 C1509 1.377 . S
C1508 C1510 1.384 . S
C1509 C1508 1.377 . S
C1509 C1515 1.390 . S
C1510 H1501 0.930 . S
C1510 C1508 1.384 . S
C1510 C1511 1.372 . S
C1511 C1510 1.372 . S
C1511 C1512 1.400 . S
C1511 C1516 1.490 . S
C1512 H1502 0.930 . S
C1512 C1511 1.400 . S
C1512 C1515 1.386 . S
H1513 C1529 0.930 . S
H1514 C1530 0.931 . S
C1515 H1503 0.929 . S
C1515 C1509 1.390 . S
C1515 C1512 1.386 . S
C1516 C1511 1.490 . S
C1516 C1518 1.395 . S
C1516 C1519 1.403 . S
H1517 C1523 0.930 1_655 S
C1518 H1504 0.930 . S
C1518 C1516 1.395 . S
C1518 C1521 1.403 . S
C1519 C1516 1.403 . S
C1519 C1520 1.524 . S
C1519 C1523 1.400 . S
C1520 H1505 0.960 . S
C1520 H1506 0.960 . S
C1520 H1507 0.960 . S
C1520 C1519 1.524 . S
C1521 C1518 1.403 . S
C1521 C1522 1.392 1_455 S
C1521 C1525 1.495 1_455 S
C1522 C1521 1.392 1_655 S
C1522 C1523 1.385 1_655 S
C1522 C1524 1.478 . S
C1523 H1517 0.930 1_455 S
C1523 C1519 1.400 . S
C1523 C1522 1.385 1_455 S
C1524 C1522 1.478 . S
C1524 C1526 1.381 . S
C1524 C1530 1.383 . S
C1525 C1521 1.495 1_655 S
C1525 H1531 0.959 1_655 S
C1525 H1532 0.961 . S
C1525 H1533 0.960 . S
C1526 C1524 1.381 . S
C1526 C1527 1.394 . S
C1526 H1534 0.930 . S
C1527 C1526 1.394 . S
C1527 C1528 1.383 . S
C1527 H1535 0.929 . S
C1528 C1527 1.383 . S
C1528 C1529 1.377 . S
C1529 H1513 0.930 . S
C1529 C1528 1.377 . S
C1529 C1530 1.379 . S
C1530 H1514 0.931 . S
C1530 C1524 1.383 . S
C1530 C1529 1.379 . S
H1531 C1525 0.959 1_455 S
H1532 C1525 0.961 . S
H1533 C1525 0.960 . S
H1534 C1526 0.930 . S
H1535 C1527 0.929 . S
H1536 C1544 0.929 . S
H1537 C1546 0.930 . S
H1538 C1548 0.930 . S
H1539 C1551 0.929 . S
H1540 C1554 0.930 . S
H1541 C1556 0.960 . S
H1542 C1556 0.960 . S
H1543 C1556 0.960 . S
C1544 H1536 0.929 . S
C1544 C1545 1.377 . S
C1544 C1546 1.384 . S
C1545 C1544 1.377 . S
C1545 C1551 1.390 . S
C1546 H1537 0.930 . S
C1546 C1544 1.384 . S
C1546 C1547 1.372 . S
C1547 C1546 1.372 . S
C1547 C1548 1.400 . S
C1547 C1552 1.490 . S
C1548 H1538 0.930 . S
C1548 C1547 1.400 . S
C1548 C1551 1.386 . S
H1549 C1565 0.930 . S
H1550 C1566 0.931 . S
C1551 H1539 0.929 . S
C1551 C1545 1.390 . S
C1551 C1548 1.386 . S
C1552 C1547 1.490 . S
C1552 C1554 1.395 . S
C1552 C1555 1.403 . S
H1553 C1559 0.930 1_554 S
C1554 H1540 0.930 . S
C1554 C1552 1.395 . S
C1554 C1557 1.403 . S
C1555 C1552 1.403 . S
C1555 C1556 1.524 . S
C1555 C1559 1.400 . S
C1556 H1541 0.960 . S
C1556 H1542 0.960 . S
C1556 H1543 0.960 . S
C1556 C1555 1.524 . S
C1557 C1554 1.403 . S
C1557 C1558 1.392 1_556 S
C1557 C1561 1.495 1_556 S
C1558 C1557 1.392 1_554 S
C1558 C1559 1.385 1_554 S
C1558 C1560 1.478 . S
C1559 H1553 0.930 1_556 S
C1559 C1555 1.400 . S
C1559 C1558 1.385 1_556 S
C1560 C1558 1.478 . S
C1560 C1562 1.381 . S
C1560 C1566 1.383 . S
C1561 C1557 1.495 1_554 S
C1561 H1567 0.959 1_554 S
C1561 H1568 0.961 . S
C1561 H1569 0.960 . S
C1562 C1560 1.381 . S
C1562 C1563 1.394 . S
C1562 H1570 0.930 . S
C1563 C1562 1.394 . S
C1563 C1564 1.383 . S
C1563 H1571 0.929 . S
C1564 C1563 1.383 . S
C1564 C1565 1.377 . S
C1565 H1549 0.930 . S
C1565 C1564 1.377 . S
C1565 C1566 1.379 . S
C1566 H1550 0.931 . S
C1566 C1560 1.383 . S
C1566 C1565 1.379 . S
H1567 C1561 0.959 1_556 S
H1568 C1561 0.961 . S
H1569 C1561 0.960 . S
H1570 C1562 0.930 . S
H1571 C1563 0.929 . S
H1572 C1580 0.929 . S
H1573 C1582 0.930 . S
H1574 C1584 0.930 . S
H1575 C1587 0.929 . S
H1576 C1590 0.930 1_554 S
H1577 C1592 0.957 1_556 S
H1578 C1592 0.962 . S
H1579 C1592 0.963 . S
C1580 H1572 0.929 . S
C1580 C1581 1.377 . S
C1580 C1582 1.384 . S
C1581 C1580 1.377 . S
C1581 C1587 1.390 . S
C1582 H1573 0.930 . S
C1582 C1580 1.384 . S
C1582 C1583 1.372 . S
C1583 C1582 1.372 . S
C1583 C1584 1.400 . S
C1583 C1588 1.490 . S
C1584 H1574 0.930 . S
C1584 C1583 1.400 . S
C1584 C1587 1.386 . S
H1585 C1601 0.930 . S
H1586 C1602 0.931 . S
C1587 H1575 0.929 . S
C1587 C1581 1.390 . S
C1587 C1584 1.386 . S
C1588 C1583 1.490 . S
C1588 C1590 1.395 1_554 S
C1588 C1591 1.403 1_554 S
H1589 C1595 0.930 . S
C1590 H1576 0.930 1_556 S
C1590 C1588 1.395 1_556 S
C1590 C1593 1.403 . S
C1591 C1588 1.403 1_556 S
C1591 C1592 1.522 1_556 S
C1591 C1595 1.400 . S
C1592 H1577 0.957 1_554 S
C1592 H1578 0.962 . S
C1592 H1579 0.963 . S
C1592 C1591 1.522 1_554 S
C1593 C1590 1.403 . S
C1593 C1594 1.392 . S
C1593 C1597 1.495 . S
C1594 C1593 1.392 . S
C1594 C1595 1.385 . S
C1594 C1596 1.478 . S
C1595 H1589 0.930 . S
C1595 C1591 1.400 . S
C1595 C1594 1.385 . S
C1596 C1594 1.478 . S
C1596 C1598 1.381 . S
C1596 C1602 1.383 . S
C1597 C1593 1.495 . S
C1597 H1603 0.959 . S
C1597 H1604 0.961 . S
C1597 H1605 0.960 . S
C1598 C1596 1.381 . S
C1598 C1599 1.394 . S
C1598 H1606 0.930 . S
C1599 C1598 1.394 . S
C1599 C1600 1.383 . S
C1599 H1607 0.929 . S
C1600 C1599 1.383 . S
C1600 C1601 1.377 . S
C1601 H1585 0.930 . S
C1601 C1600 1.377 . S
C1601 C1602 1.379 . S
C1602 H1586 0.931 . S
C1602 C1596 1.383 . S
C1602 C1601 1.379 . S
H1603 C1597 0.959 . S
H1604 C1597 0.961 . S
H1605 C1597 0.960 . S
H1606 C1598 0.930 . S
H1607 C1599 0.929 . S
H1608 C1616 0.929 . S
H1609 C1618 0.930 . S
H1610 C1620 0.930 . S
H1611 C1623 0.929 . S
H1612 C1626 0.930 . S
H1613 C1628 0.960 . S
H1614 C1628 0.960 . S
H1615 C1628 0.960 . S
C1616 H1608 0.929 . S
C1616 C1617 1.377 . S
C1616 C1618 1.384 . S
C1617 C1616 1.377 . S
C1617 C1623 1.390 . S
C1618 H1609 0.930 . S
C1618 C1616 1.384 . S
C1618 C1619 1.372 . S
C1619 C1618 1.372 . S
C1619 C1620 1.400 . S
C1619 C1624 1.490 . S
C1620 H1610 0.930 . S
C1620 C1619 1.400 . S
C1620 C1623 1.386 . S
H1621 C1637 0.930 . S
H1622 C1638 0.931 . S
C1623 H1611 0.929 . S
C1623 C1617 1.390 . S
C1623 C1620 1.386 . S
C1624 C1619 1.490 . S
C1624 C1626 1.395 . S
C1624 C1627 1.403 . S
H1625 C1631 0.930 1_554 S
C1626 H1612 0.930 . S
C1626 C1624 1.395 . S
C1626 C1629 1.403 . S
C1627 C1624 1.403 . S
C1627 C1628 1.524 . S
C1627 C1631 1.400 . S
C1628 H1613 0.960 . S
C1628 H1614 0.960 . S
C1628 H1615 0.960 . S
C1628 C1627 1.524 . S
C1629 C1626 1.403 . S
C1629 C1630 1.392 1_556 S
C1629 C1633 1.495 1_556 S
C1630 C1629 1.392 1_554 S
C1630 C1631 1.385 1_554 S
C1630 C1632 1.478 . S
C1631 H1625 0.930 1_556 S
C1631 C1627 1.400 . S
C1631 C1630 1.385 1_556 S
C1632 C1630 1.478 . S
C1632 C1634 1.381 . S
C1632 C1638 1.383 . S
C1633 C1629 1.495 1_554 S
C1633 H1639 0.959 1_554 S
C1633 H1640 0.961 . S
C1633 H1641 0.960 . S
C1634 C1632 1.381 . S
C1634 C1635 1.394 . S
C1634 H1642 0.930 . S
C1635 C1634 1.394 . S
C1635 C1636 1.383 . S
C1635 H1643 0.929 . S
C1636 C1635 1.383 . S
C1636 C1637 1.377 . S
C1637 H1621 0.930 . S
C1637 C1636 1.377 . S
C1637 C1638 1.379 . S
C1638 H1622 0.931 . S
C1638 C1632 1.383 . S
C1638 C1637 1.379 . S
H1639 C1633 0.959 1_556 S
H1640 C1633 0.961 . S
H1641 C1633 0.960 . S
H1642 C1634 0.930 . S
H1643 C1635 0.929 . S
H1644 C1652 0.929 . S
H1645 C1654 0.930 . S
H1646 C1656 0.930 . S
H1647 C1659 0.929 . S
H1648 C1662 0.930 1_554 S
H1649 C1664 0.959 1_556 S
H1650 C1664 0.960 . S
H1651 C1664 0.961 . S
C1652 H1644 0.929 . S
C1652 C1653 1.377 . S
C1652 C1654 1.384 . S
C1653 C1652 1.377 . S
C1653 C1659 1.390 . S
C1654 H1645 0.930 . S
C1654 C1652 1.384 . S
C1654 C1655 1.372 . S
C1655 C1654 1.372 . S
C1655 C1656 1.400 . S
C1655 C1660 1.490 . S
C1656 H1646 0.930 . S
C1656 C1655 1.400 . S
C1656 C1659 1.386 . S
H1657 C1673 0.930 . S
H1658 C1674 0.931 . S
C1659 H1647 0.929 . S
C1659 C1653 1.390 . S
C1659 C1656 1.386 . S
C1660 C1655 1.490 . S
C1660 C1662 1.395 1_554 S
C1660 C1663 1.403 1_554 S
H1661 C1667 0.930 . S
C1662 H1648 0.930 1_556 S
C1662 C1660 1.395 1_556 S
C1662 C1665 1.403 . S
C1663 C1660 1.403 1_556 S
C1663 C1664 1.523 1_556 S
C1663 C1667 1.400 . S
C1664 H1649 0.959 1_554 S
C1664 H1650 0.960 . S
C1664 H1651 0.961 . S
C1664 C1663 1.523 1_554 S
C1665 C1662 1.403 . S
C1665 C1666 1.392 . S
C1665 C1669 1.495 . S
C1666 C1665 1.392 . S
C1666 C1667 1.385 . S
C1666 C1668 1.478 . S
C1667 H1661 0.930 . S
C1667 C1663 1.400 . S
C1667 C1666 1.385 . S
C1668 C1666 1.478 . S
C1668 C1670 1.381 . S
C1668 C1674 1.383 . S
C1669 C1665 1.495 . S
C1669 H1675 0.959 . S
C1669 H1676 0.961 . S
C1669 H1677 0.960 . S
C1670 C1668 1.381 . S
C1670 C1671 1.394 . S
C1670 H1678 0.930 . S
C1671 C1670 1.394 . S
C1671 C1672 1.383 . S
C1671 H1679 0.929 . S
C1672 C1671 1.383 . S
C1672 C1673 1.377 . S
C1673 H1657 0.930 . S
C1673 C1672 1.377 . S
C1673 C1674 1.379 . S
C1674 H1658 0.931 . S
C1674 C1668 1.383 . S
C1674 C1673 1.379 . S
H1675 C1669 0.959 . S
H1676 C1669 0.961 . S
H1677 C1669 0.960 . S
H1678 C1670 0.930 . S
H1679 C1671 0.929 . S
H1680 C1688 0.929 . S
H1681 C1690 0.930 . S
H1682 C1692 0.930 . S
H1683 C1695 0.929 . S
H1684 C1698 0.930 . S
H1685 C1700 0.960 . S
H1686 C1700 0.960 . S
H1687 C1700 0.960 . S
C1688 H1680 0.929 . S
C1688 C1689 1.377 . S
C1688 C1690 1.384 . S
C1689 C1688 1.377 . S
C1689 C1695 1.390 . S
C1690 H1681 0.930 . S
C1690 C1688 1.384 . S
C1690 C1691 1.372 . S
C1691 C1690 1.372 . S
C1691 C1692 1.400 . S
C1691 C1696 1.490 . S
C1692 H1682 0.930 . S
C1692 C1691 1.400 . S
C1692 C1695 1.386 . S
H1693 C1709 0.930 . S
H1694 C1710 0.931 . S
C1695 H1683 0.929 . S
C1695 C1689 1.390 . S
C1695 C1692 1.386 . S
C1696 C1691 1.490 . S
C1696 C1698 1.395 . S
C1696 C1699 1.403 . S
H1697 C1703 0.930 1_556 S
C1698 H1684 0.930 . S
C1698 C1696 1.395 . S
C1698 C1701 1.403 . S
C1699 C1696 1.403 . S
C1699 C1700 1.524 . S
C1699 C1703 1.400 . S
C1700 H1685 0.960 . S
C1700 H1686 0.960 . S
C1700 H1687 0.960 . S
C1700 C1699 1.524 . S
C1701 C1698 1.403 . S
C1701 C1702 1.392 1_554 S
C1701 C1705 1.495 1_554 S
C1702 C1701 1.392 1_556 S
C1702 C1703 1.385 1_556 S
C1702 C1704 1.478 . S
C1703 H1697 0.930 1_554 S
C1703 C1699 1.400 . S
C1703 C1702 1.385 1_554 S
C1704 C1702 1.478 . S
C1704 C1706 1.381 . S
C1704 C1710 1.383 . S
C1705 C1701 1.495 1_556 S
C1705 H1711 0.959 1_556 S
C1705 H1712 0.961 . S
C1705 H1713 0.960 . S
C1706 C1704 1.381 . S
C1706 C1707 1.394 . S
C1706 H1714 0.930 . S
C1707 C1706 1.394 . S
C1707 C1708 1.383 . S
C1707 H1715 0.929 . S
C1708 C1707 1.383 . S
C1708 C1709 1.377 . S
C1709 H1693 0.930 . S
C1709 C1708 1.377 . S
C1709 C1710 1.379 . S
C1710 H1694 0.931 . S
C1710 C1704 1.383 . S
C1710 C1709 1.379 . S
H1711 C1705 0.959 1_554 S
H1712 C1705 0.961 . S
H1713 C1705 0.960 . S
H1714 C1706 0.930 . S
H1715 C1707 0.929 . S
H1716 C1724 0.929 . S
H1717 C1726 0.930 . S
H1718 C1728 0.930 . S
H1719 C1731 0.929 . S
H1720 C1734 0.930 1_556 S
H1721 C1736 0.960 1_554 S
H1722 C1736 0.960 . S
H1723 C1736 0.960 . S
C1724 H1716 0.929 . S
C1724 C1725 1.377 . S
C1724 C1726 1.384 . S
C1725 C1724 1.377 . S
C1725 C1731 1.390 . S
C1726 H1717 0.930 . S
C1726 C1724 1.384 . S
C1726 C1727 1.372 . S
C1727 C1726 1.372 . S
C1727 C1728 1.400 . S
C1727 C1732 1.490 . S
C1728 H1718 0.930 . S
C1728 C1727 1.400 . S
C1728 C1731 1.386 . S
H1729 C1745 0.930 . S
H1730 C1746 0.931 . S
C1731 H1719 0.929 . S
C1731 C1725 1.390 . S
C1731 C1728 1.386 . S
C1732 C1727 1.490 . S
C1732 C1734 1.395 1_556 S
C1732 C1735 1.403 1_556 S
H1733 C1739 0.930 . S
C1734 H1720 0.930 1_554 S
C1734 C1732 1.395 1_554 S
C1734 C1737 1.403 . S
C1735 C1732 1.403 1_554 S
C1735 C1736 1.524 1_554 S
C1735 C1739 1.400 . S
C1736 H1721 0.960 1_556 S
C1736 H1722 0.960 . S
C1736 H1723 0.960 . S
C1736 C1735 1.524 1_556 S
C1737 C1734 1.403 . S
C1737 C1738 1.392 . S
C1737 C1741 1.495 . S
C1738 C1737 1.392 . S
C1738 C1739 1.385 . S
C1738 C1740 1.478 . S
C1739 H1733 0.930 . S
C1739 C1735 1.400 . S
C1739 C1738 1.385 . S
C1740 C1738 1.478 . S
C1740 C1742 1.381 . S
C1740 C1746 1.383 . S
C1741 C1737 1.495 . S
C1741 H1747 0.959 . S
C1741 H1748 0.961 . S
C1741 H1749 0.960 . S
C1742 C1740 1.381 . S
C1742 C1743 1.394 . S
C1742 H1750 0.930 . S
C1743 C1742 1.394 . S
C1743 C1744 1.383 . S
C1743 H1751 0.929 . S
C1744 C1743 1.383 . S
C1744 C1745 1.377 . S
C1745 H1729 0.930 . S
C1745 C1744 1.377 . S
C1745 C1746 1.379 . S
C1746 H1730 0.931 . S
C1746 C1740 1.383 . S
C1746 C1745 1.379 . S
H1747 C1741 0.959 . S
H1748 C1741 0.961 . S
H1749 C1741 0.960 . S
H1750 C1742 0.930 . S
H1751 C1743 0.929 . S
H1752 C1760 0.929 . S
H1753 C1762 0.930 . S
H1754 C1764 0.930 . S
H1755 C1767 0.929 . S
H1756 C1770 0.930 . S
H1757 C1772 0.960 . S
H1758 C1772 0.960 . S
H1759 C1772 0.960 . S
C1760 H1752 0.929 . S
C1760 C1761 1.377 . S
C1760 C1762 1.384 . S
C1761 C1760 1.377 . S
C1761 C1767 1.390 . S
C1762 H1753 0.930 . S
C1762 C1760 1.384 . S
C1762 C1763 1.372 . S
C1763 C1762 1.372 . S
C1763 C1764 1.400 . S
C1763 C1768 1.490 . S
C1764 H1754 0.930 . S
C1764 C1763 1.400 . S
C1764 C1767 1.386 . S
H1765 C1781 0.930 . S
H1766 C1782 0.931 . S
C1767 H1755 0.929 . S
C1767 C1761 1.390 . S
C1767 C1764 1.386 . S
C1768 C1763 1.490 . S
C1768 C1770 1.395 . S
C1768 C1771 1.403 . S
H1769 C1775 0.930 1_556 S
C1770 H1756 0.930 . S
C1770 C1768 1.395 . S
C1770 C1773 1.403 . S
C1771 C1768 1.403 . S
C1771 C1772 1.524 . S
C1771 C1775 1.400 . S
C1772 H1757 0.960 . S
C1772 H1758 0.960 . S
C1772 H1759 0.960 . S
C1772 C1771 1.524 . S
C1773 C1770 1.403 . S
C1773 C1774 1.392 1_554 S
C1773 C1777 1.495 1_554 S
C1774 C1773 1.392 1_556 S
C1774 C1775 1.385 1_556 S
C1774 C1776 1.478 . S
C1775 H1769 0.930 1_554 S
C1775 C1771 1.400 . S
C1775 C1774 1.385 1_554 S
C1776 C1774 1.478 . S
C1776 C1778 1.381 . S
C1776 C1782 1.383 . S
C1777 C1773 1.495 1_556 S
C1777 H1783 0.959 1_556 S
C1777 H1784 0.961 . S
C1777 H1785 0.960 . S
C1778 C1776 1.381 . S
C1778 C1779 1.394 . S
C1778 H1786 0.930 . S
C1779 C1778 1.394 . S
C1779 C1780 1.383 . S
C1779 H1787 0.929 . S
C1780 C1779 1.383 . S
C1780 C1781 1.377 . S
C1781 H1765 0.930 . S
C1781 C1780 1.377 . S
C1781 C1782 1.379 . S
C1782 H1766 0.931 . S
C1782 C1776 1.383 . S
C1782 C1781 1.379 . S
H1783 C1777 0.959 1_554 S
H1784 C1777 0.961 . S
H1785 C1777 0.960 . S
H1786 C1778 0.930 . S
H1787 C1779 0.929 . S
H1788 C1796 0.929 . S
H1789 C1798 0.930 . S
H1790 C1800 0.930 . S
H1791 C1803 0.929 . S
H1792 C1806 0.930 1_556 S
H1793 C1808 0.919 1_554 S
H1794 C1808 0.988 . S
H1795 C1808 0.996 . S
C1796 H1788 0.929 . S
C1796 C1797 1.377 . S
C1796 C1798 1.384 . S
C1797 C1796 1.377 . S
C1797 C1803 1.390 . S
C1798 H1789 0.930 . S
C1798 C1796 1.384 . S
C1798 C1799 1.372 . S
C1799 C1798 1.372 . S
C1799 C1800 1.400 . S
C1799 C1804 1.490 . S
C1800 H1790 0.930 . S
C1800 C1799 1.400 . S
C1800 C1803 1.386 . S
H1801 C1817 0.930 . S
H1802 C1818 0.931 . S
C1803 H1791 0.929 . S
C1803 C1797 1.390 . S
C1803 C1800 1.386 . S
C1804 C1799 1.490 . S
C1804 C1806 1.395 1_556 S
C1804 C1807 1.403 1_556 S
H1805 C1811 0.930 . S
C1806 H1792 0.930 1_554 S
C1806 C1804 1.395 1_554 S
C1806 C1809 1.403 . S
C1807 C1804 1.403 1_554 S
C1807 C1808 1.504 1_554 S
C1807 C1811 1.400 . S
C1808 H1793 0.919 1_556 S
C1808 H1794 0.988 . S
C1808 H1795 0.996 . S
C1808 C1807 1.504 1_556 S
C1809 C1806 1.403 . S
C1809 C1810 1.392 . S
C1809 C1813 1.495 . S
C1810 C1809 1.392 . S
C1810 C1811 1.385 . S
C1810 C1812 1.478 . S
C1811 H1805 0.930 . S
C1811 C1807 1.400 . S
C1811 C1810 1.385 . S
C1812 C1810 1.478 . S
C1812 C1814 1.381 . S
C1812 C1818 1.383 . S
C1813 C1809 1.495 . S
C1813 H1819 0.959 . S
C1813 H1820 0.961 . S
C1813 H1821 0.960 . S
C1814 C1812 1.381 . S
C1814 C1815 1.394 . S
C1814 H1822 0.930 . S
C1815 C1814 1.394 . S
C1815 C1816 1.383 . S
C1815 H1823 0.929 . S
C1816 C1815 1.383 . S
C1816 C1817 1.377 . S
C1817 H1801 0.930 . S
C1817 C1816 1.377 . S
C1817 C1818 1.379 . S
C1818 H1802 0.931 . S
C1818 C1812 1.383 . S
C1818 C1817 1.379 . S
H1819 C1813 0.959 . S
H1820 C1813 0.961 . S
H1821 C1813 0.960 . S
H1822 C1814 0.930 . S
H1823 C1815 0.929 . S
H1824 C1832 0.929 . S
H1825 C1834 0.930 . S
H1826 C1836 0.930 . S
H1827 C1839 0.929 . S
H1828 C1842 0.930 . S
H1829 C1844 0.960 . S
H1830 C1844 0.960 . S
H1831 C1844 0.960 . S
C1832 H1824 0.929 . S
C1832 C1833 1.377 . S
C1832 C1834 1.384 . S
C1833 C1832 1.377 . S
C1833 C1839 1.390 . S
C1834 H1825 0.930 . S
C1834 C1832 1.384 . S
C1834 C1835 1.372 . S
C1835 C1834 1.372 . S
C1835 C1836 1.400 . S
C1835 C1840 1.490 . S
C1836 H1826 0.930 . S
C1836 C1835 1.400 . S
C1836 C1839 1.386 . S
H1837 C1853 0.930 . S
H1838 C1854 0.931 . S
C1839 H1827 0.929 . S
C1839 C1833 1.390 . S
C1839 C1836 1.386 . S
C1840 C1835 1.490 . S
C1840 C1842 1.395 . S
C1840 C1843 1.403 . S
H1841 C1847 0.930 1_455 S
C1842 H1828 0.930 . S
C1842 C1840 1.395 . S
C1842 C1845 1.403 . S
C1843 C1840 1.403 . S
C1843 C1844 1.524 . S
C1843 C1847 1.400 . S
C1844 H1829 0.960 . S
C1844 H1830 0.960 . S
C1844 H1831 0.960 . S
C1844 C1843 1.524 . S
C1845 C1842 1.403 . S
C1845 C1846 1.392 1_655 S
C1845 C1849 1.495 1_655 S
C1846 C1845 1.392 1_455 S
C1846 C1847 1.385 1_455 S
C1846 C1848 1.478 . S
C1847 H1841 0.930 1_655 S
C1847 C1843 1.400 . S
C1847 C1846 1.385 1_655 S
C1848 C1846 1.478 . S
C1848 C1850 1.381 . S
C1848 C1854 1.383 . S
C1849 C1845 1.495 1_455 S
C1849 H1855 0.959 1_455 S
C1849 H1856 0.961 . S
C1849 H1857 0.960 . S
C1850 C1848 1.381 . S
C1850 C1851 1.394 . S
C1850 H1858 0.930 . S
C1851 C1850 1.394 . S
C1851 C1852 1.383 . S
C1851 H1859 0.929 . S
C1852 C1851 1.383 . S
C1852 C1853 1.377 . S
C1853 H1837 0.930 . S
C1853 C1852 1.377 . S
C1853 C1854 1.379 . S
C1854 H1838 0.931 . S
C1854 C1848 1.383 . S
C1854 C1853 1.379 . S
H1855 C1849 0.959 1_655 S
H1856 C1849 0.961 . S
H1857 C1849 0.960 . S
H1858 C1850 0.930 . S
H1859 C1851 0.929 . S
H1860 C1868 0.929 . S
H1861 C1870 0.930 . S
H1862 C1872 0.930 . S
H1863 C1875 0.929 . S
H1864 C1878 0.930 . S
H1865 C1880 0.960 . S
H1866 C1880 0.960 . S
H1867 C1880 0.960 . S
C1868 H1860 0.929 . S
C1868 C1869 1.377 . S
C1868 C1870 1.384 . S
C1869 C1868 1.377 . S
C1869 C1875 1.390 . S
C1870 H1861 0.930 . S
C1870 C1868 1.384 . S
C1870 C1871 1.372 . S
C1871 C1870 1.372 . S
C1871 C1872 1.400 . S
C1871 C1876 1.490 . S
C1872 H1862 0.930 . S
C1872 C1871 1.400 . S
C1872 C1875 1.386 . S
H1873 C1889 0.930 . S
H1874 C1890 0.931 . S
C1875 H1863 0.929 . S
C1875 C1869 1.390 . S
C1875 C1872 1.386 . S
C1876 C1871 1.490 . S
C1876 C1878 1.395 . S
C1876 C1879 1.403 . S
H1877 C1883 0.930 1_455 S
C1878 H1864 0.930 . S
C1878 C1876 1.395 . S
C1878 C1881 1.403 . S
C1879 C1876 1.403 . S
C1879 C1880 1.524 . S
C1879 C1883 1.400 . S
C1880 H1865 0.960 . S
C1880 H1866 0.960 . S
C1880 H1867 0.960 . S
C1880 C1879 1.524 . S
C1881 C1878 1.403 . S
C1881 C1882 1.392 1_655 S
C1881 C1885 1.495 1_655 S
C1882 C1881 1.392 1_455 S
C1882 C1883 1.385 1_455 S
C1882 C1884 1.478 . S
C1883 H1877 0.930 1_655 S
C1883 C1879 1.400 . S
C1883 C1882 1.385 1_655 S
C1884 C1882 1.478 . S
C1884 C1886 1.381 . S
C1884 C1890 1.383 . S
C1885 C1881 1.495 1_455 S
C1885 H1891 0.959 1_455 S
C1885 H1892 0.961 . S
C1885 H1893 0.960 . S
C1886 C1884 1.381 . S
C1886 C1887 1.394 . S
C1886 H1894 0.930 . S
C1887 C1886 1.394 . S
C1887 C1888 1.383 . S
C1887 H1895 0.929 . S
C1888 C1887 1.383 . S
C1888 C1889 1.377 . S
C1889 H1873 0.930 . S
C1889 C1888 1.377 . S
C1889 C1890 1.379 . S
C1890 H1874 0.931 . S
C1890 C1884 1.383 . S
C1890 C1889 1.379 . S
H1891 C1885 0.959 1_655 S
H1892 C1885 0.961 . S
H1893 C1885 0.960 . S
H1894 C1886 0.930 . S
H1895 C1887 0.929 . S
H1896 C1904 0.929 . S
H1897 C1906 0.930 . S
H1898 C1908 0.930 . S
H1899 C1911 0.929 . S
H1900 C1914 0.930 1_545 S
H1901 C1916 0.960 1_565 S
H1902 C1916 0.960 . S
H1903 C1916 0.960 . S
C1904 H1896 0.929 . S
C1904 C1905 1.377 . S
C1904 C1906 1.384 . S
C1905 C1904 1.377 . S
C1905 C1911 1.390 . S
C1906 H1897 0.930 . S
C1906 C1904 1.384 . S
C1906 C1907 1.372 . S
C1907 C1906 1.372 . S
C1907 C1908 1.400 . S
C1907 C1912 1.490 . S
C1908 H1898 0.930 . S
C1908 C1907 1.400 . S
C1908 C1911 1.386 . S
H1909 C1925 0.930 . S
H1910 C1926 0.931 . S
C1911 H1899 0.929 . S
C1911 C1905 1.390 . S
C1911 C1908 1.386 . S
C1912 C1907 1.490 . S
C1912 C1914 1.395 1_545 S
C1912 C1915 1.403 1_545 S
H1913 C1919 0.930 . S
C1914 H1900 0.930 1_565 S
C1914 C1912 1.395 1_565 S
C1914 C1917 1.403 . S
C1915 C1912 1.403 1_565 S
C1915 C1916 1.524 1_565 S
C1915 C1919 1.400 . S
C1916 H1901 0.960 1_545 S
C1916 H1902 0.960 . S
C1916 H1903 0.960 . S
C1916 C1915 1.524 1_545 S
C1917 C1914 1.403 . S
C1917 C1918 1.392 . S
C1917 C1921 1.495 . S
C1918 C1917 1.392 . S
C1918 C1919 1.385 . S
C1918 C1920 1.478 . S
C1919 H1913 0.930 . S
C1919 C1915 1.400 . S
C1919 C1918 1.385 . S
C1920 C1918 1.478 . S
C1920 C1922 1.381 . S
C1920 C1926 1.383 . S
C1921 C1917 1.495 . S
C1921 H1927 0.959 . S
C1921 H1928 0.961 . S
C1921 H1929 0.960 . S
C1922 C1920 1.381 . S
C1922 C1923 1.394 . S
C1922 H1930 0.930 . S
C1923 C1922 1.394 . S
C1923 C1924 1.383 . S
C1923 H1931 0.929 . S
C1924 C1923 1.383 . S
C1924 C1925 1.377 . S
C1925 H1909 0.930 . S
C1925 C1924 1.377 . S
C1925 C1926 1.379 . S
C1926 H1910 0.931 . S
C1926 C1920 1.383 . S
C1926 C1925 1.379 . S
H1927 C1921 0.959 . S
H1928 C1921 0.961 . S
H1929 C1921 0.960 . S
H1930 C1922 0.930 . S
H1931 C1923 0.929 . S
H1932 C1940 0.929 . S
H1933 C1942 0.930 . S
H1934 C1944 0.930 . S
H1935 C1947 0.929 . S
H1936 C1950 0.930 1_655 S
H1937 C1952 0.960 1_455 S
H1938 C1952 0.960 . S
H1939 C1952 0.960 . S
C1940 H1932 0.929 . S
C1940 C1941 1.377 . S
C1940 C1942 1.384 . S
C1941 C1940 1.377 . S
C1941 C1947 1.390 . S
C1942 H1933 0.930 . S
C1942 C1940 1.384 . S
C1942 C1943 1.372 . S
C1943 C1942 1.372 . S
C1943 C1944 1.400 . S
C1943 C1948 1.490 . S
C1944 H1934 0.930 . S
C1944 C1943 1.400 . S
C1944 C1947 1.386 . S
H1945 C1961 0.930 . S
H1946 C1962 0.931 . S
C1947 H1935 0.929 . S
C1947 C1941 1.390 . S
C1947 C1944 1.386 . S
C1948 C1943 1.490 . S
C1948 C1950 1.395 1_655 S
C1948 C1951 1.403 1_655 S
H1949 C1955 0.930 . S
C1950 H1936 0.930 1_455 S
C1950 C1948 1.395 1_455 S
C1950 C1953 1.403 . S
C1951 C1948 1.403 1_455 S
C1951 C1952 1.524 1_455 S
C1951 C1955 1.400 . S
C1952 H1937 0.960 1_655 S
C1952 H1938 0.960 . S
C1952 H1939 0.960 . S
C1952 C1951 1.524 1_655 S
C1953 C1950 1.403 . S
C1953 C1954 1.392 . S
C1953 C1957 1.495 . S
C1954 C1953 1.392 . S
C1954 C1955 1.385 . S
C1954 C1956 1.478 . S
C1955 H1949 0.930 . S
C1955 C1951 1.400 . S
C1955 C1954 1.385 . S
C1956 C1954 1.478 . S
C1956 C1958 1.381 . S
C1956 C1962 1.383 . S
C1957 C1953 1.495 . S
C1957 H1963 0.959 . S
C1957 H1964 0.961 . S
C1957 H1965 0.960 . S
C1958 C1956 1.381 . S
C1958 C1959 1.394 . S
C1958 H1966 0.930 . S
C1959 C1958 1.394 . S
C1959 C1960 1.383 . S
C1959 H1967 0.929 . S
C1960 C1959 1.383 . S
C1960 C1961 1.377 . S
C1961 H1945 0.930 . S
C1961 C1960 1.377 . S
C1961 C1962 1.379 . S
C1962 H1946 0.931 . S
C1962 C1956 1.383 . S
C1962 C1961 1.379 . S
H1963 C1957 0.959 . S
H1964 C1957 0.961 . S
H1965 C1957 0.960 . S
H1966 C1958 0.930 . S
H1967 C1959 0.929 . S
H1968 C1976 0.929 . S
H1969 C1978 0.930 . S
H1970 C1980 0.930 . S
H1971 C1983 0.929 . S
H1972 C1986 0.930 . S
H1973 C1988 0.960 . S
H1974 C1988 0.960 . S
H1975 C1988 0.960 . S
C1976 H1968 0.929 . S
C1976 C1977 1.377 . S
C1976 C1978 1.384 . S
C1977 C1976 1.377 . S
C1977 C1983 1.390 . S
C1978 H1969 0.930 . S
C1978 C1976 1.384 . S
C1978 C1979 1.372 . S
C1979 C1978 1.372 . S
C1979 C1980 1.400 . S
C1979 C1984 1.490 . S
C1980 H1970 0.930 . S
C1980 C1979 1.400 . S
C1980 C1983 1.386 . S
H1981 C1997 0.930 . S
H1982 C1998 0.931 . S
C1983 H1971 0.929 . S
C1983 C1977 1.390 . S
C1983 C1980 1.386 . S
C1984 C1979 1.490 . S
C1984 C1986 1.395 . S
C1984 C1987 1.403 . S
H1985 C1991 0.930 1_565 S
C1986 H1972 0.930 . S
C1986 C1984 1.395 . S
C1986 C1989 1.403 . S
C1987 C1984 1.403 . S
C1987 C1988 1.524 . S
C1987 C1991 1.400 . S
C1988 H1973 0.960 . S
C1988 H1974 0.960 . S
C1988 H1975 0.960 . S
C1988 C1987 1.524 . S
C1989 C1986 1.403 . S
C1989 C1990 1.392 1_545 S
C1989 C1993 1.495 1_545 S
C1990 C1989 1.392 1_565 S
C1990 C1991 1.385 1_565 S
C1990 C1992 1.478 . S
C1991 H1985 0.930 1_545 S
C1991 C1987 1.400 . S
C1991 C1990 1.385 1_545 S
C1992 C1990 1.478 . S
C1992 C1994 1.381 . S
C1992 C1998 1.383 . S
C1993 C1989 1.495 1_565 S
C1993 H1999 0.959 1_565 S
C1993 H2000 0.961 . S
C1993 H2001 0.960 . S
C1994 C1992 1.381 . S
C1994 C1995 1.394 . S
C1994 H2002 0.930 . S
C1995 C1994 1.394 . S
C1995 C1996 1.383 . S
C1995 H2003 0.929 . S
C1996 C1995 1.383 . S
C1996 C1997 1.377 . S
C1997 H1981 0.930 . S
C1997 C1996 1.377 . S
C1997 C1998 1.379 . S
C1998 H1982 0.931 . S
C1998 C1992 1.383 . S
C1998 C1997 1.379 . S
H1999 C1993 0.959 1_545 S
H2000 C1993 0.961 . S
H2001 C1993 0.960 . S
H2002 C1994 0.930 . S
H2003 C1995 0.929 . S
H2004 C2012 0.929 . S
H2005 C2014 0.930 . S
H2006 C2016 0.930 . S
H2007 C2019 0.929 . S
H2008 C2022 0.930 . S
H2009 C2024 0.960 . S
H2010 C2024 0.960 . S
H2011 C2024 0.960 . S
C2012 H2004 0.929 . S
C2012 C2013 1.377 . S
C2012 C2014 1.384 . S
C2013 C2012 1.377 . S
C2013 C2019 1.390 . S
C2014 H2005 0.930 . S
C2014 C2012 1.384 . S
C2014 C2015 1.372 . S
C2015 C2014 1.372 . S
C2015 C2016 1.400 . S
C2015 C2020 1.490 . S
C2016 H2006 0.930 . S
C2016 C2015 1.400 . S
C2016 C2019 1.386 . S
H2017 C2033 0.930 . S
H2018 C2034 0.931 . S
C2019 H2007 0.929 . S
C2019 C2013 1.390 . S
C2019 C2016 1.386 . S
C2020 C2015 1.490 . S
C2020 C2022 1.395 . S
C2020 C2023 1.403 . S
H2021 C2027 0.930 1_655 S
C2022 H2008 0.930 . S
C2022 C2020 1.395 . S
C2022 C2025 1.403 . S
C2023 C2020 1.403 . S
C2023 C2024 1.524 . S
C2023 C2027 1.400 . S
C2024 H2009 0.960 . S
C2024 H2010 0.960 . S
C2024 H2011 0.960 . S
C2024 C2023 1.524 . S
C2025 C2022 1.403 . S
C2025 C2026 1.392 1_455 S
C2025 C2029 1.495 1_455 S
C2026 C2025 1.392 1_655 S
C2026 C2027 1.385 1_655 S
C2026 C2028 1.478 . S
C2027 H2021 0.930 1_455 S
C2027 C2023 1.400 . S
C2027 C2026 1.385 1_455 S
C2028 C2026 1.478 . S
C2028 C2030 1.381 . S
C2028 C2034 1.383 . S
C2029 C2025 1.495 1_655 S
C2029 H2035 0.959 1_655 S
C2029 H2036 0.961 . S
C2029 H2037 0.960 . S
C2030 C2028 1.381 . S
C2030 C2031 1.394 . S
C2030 H2038 0.930 . S
C2031 C2030 1.394 . S
C2031 C2032 1.383 . S
C2031 H2039 0.929 . S
C2032 C2031 1.383 . S
C2032 C2033 1.377 . S
C2033 H2017 0.930 . S
C2033 C2032 1.377 . S
C2033 C2034 1.379 . S
C2034 H2018 0.931 . S
C2034 C2028 1.383 . S
C2034 C2033 1.379 . S
H2035 C2029 0.959 1_455 S
H2036 C2029 0.961 . S
H2037 C2029 0.960 . S
H2038 C2030 0.930 . S
H2039 C2031 0.929 . S
H2040 C2048 0.929 . S
H2041 C2050 0.930 . S
H2042 C2052 0.930 . S
H2043 C2055 0.929 . S
H2044 C2058 0.930 . S
H2045 C2060 0.960 . S
H2046 C2060 0.960 . S
H2047 C2060 0.960 . S
C2048 H2040 0.929 . S
C2048 C2049 1.377 . S
C2048 C2050 1.384 . S
C2049 C2048 1.377 . S
C2049 C2055 1.390 . S
C2050 H2041 0.930 . S
C2050 C2048 1.384 . S
C2050 C2051 1.372 . S
C2051 C2050 1.372 . S
C2051 C2052 1.400 . S
C2051 C2056 1.490 . S
C2052 H2042 0.930 . S
C2052 C2051 1.400 . S
C2052 C2055 1.386 . S
H2053 C2069 0.930 . S
H2054 C2070 0.931 . S
C2055 H2043 0.929 . S
C2055 C2049 1.390 . S
C2055 C2052 1.386 . S
C2056 C2051 1.490 . S
C2056 C2058 1.395 . S
C2056 C2059 1.403 . S
H2057 C2063 0.930 1_565 S
C2058 H2044 0.930 . S
C2058 C2056 1.395 . S
C2058 C2061 1.403 . S
C2059 C2056 1.403 . S
C2059 C2060 1.524 . S
C2059 C2063 1.400 . S
C2060 H2045 0.960 . S
C2060 H2046 0.960 . S
C2060 H2047 0.960 . S
C2060 C2059 1.524 . S
C2061 C2058 1.403 . S
C2061 C2062 1.392 1_545 S
C2061 C2065 1.495 1_545 S
C2062 C2061 1.392 1_565 S
C2062 C2063 1.385 1_565 S
C2062 C2064 1.478 . S
C2063 H2057 0.930 1_545 S
C2063 C2059 1.400 . S
C2063 C2062 1.385 1_545 S
C2064 C2062 1.478 . S
C2064 C2066 1.381 . S
C2064 C2070 1.383 . S
C2065 C2061 1.495 1_565 S
C2065 H2071 0.959 1_565 S
C2065 H2072 0.961 . S
C2065 H2073 0.960 . S
C2066 C2064 1.381 . S
C2066 C2067 1.394 . S
C2066 H2074 0.930 . S
C2067 C2066 1.394 . S
C2067 C2068 1.383 . S
C2067 H2075 0.929 . S
C2068 C2067 1.383 . S
C2068 C2069 1.377 . S
C2069 H2053 0.930 . S
C2069 C2068 1.377 . S
C2069 C2070 1.379 . S
C2070 H2054 0.931 . S
C2070 C2064 1.383 . S
C2070 C2069 1.379 . S
H2071 C2065 0.959 1_545 S
H2072 C2065 0.961 . S
H2073 C2065 0.960 . S
H2074 C2066 0.930 . S
H2075 C2067 0.929 . S
H2076 C2084 0.929 . S
H2077 C2086 0.930 . S
H2078 C2088 0.930 . S
H2079 C2091 0.929 . S
H2080 C2094 0.930 1_545 S
H2081 C2096 0.960 1_565 S
H2082 C2096 0.960 . S
H2083 C2096 0.960 . S
C2084 H2076 0.929 . S
C2084 C2085 1.377 . S
C2084 C2086 1.384 . S
C2085 C2084 1.377 . S
C2085 C2091 1.390 . S
C2086 H2077 0.930 . S
C2086 C2084 1.384 . S
C2086 C2087 1.372 . S
C2087 C2086 1.372 . S
C2087 C2088 1.400 . S
C2087 C2092 1.490 . S
C2088 H2078 0.930 . S
C2088 C2087 1.400 . S
C2088 C2091 1.386 . S
H2089 C2105 0.930 . S
H2090 C2106 0.931 . S
C2091 H2079 0.929 . S
C2091 C2085 1.390 . S
C2091 C2088 1.386 . S
C2092 C2087 1.490 . S
C2092 C2094 1.395 1_545 S
C2092 C2095 1.403 1_545 S
H2093 C2099 0.930 . S
C2094 H2080 0.930 1_565 S
C2094 C2092 1.395 1_565 S
C2094 C2097 1.403 . S
C2095 C2092 1.403 1_565 S
C2095 C2096 1.524 1_565 S
C2095 C2099 1.400 . S
C2096 H2081 0.960 1_545 S
C2096 H2082 0.960 . S
C2096 H2083 0.960 . S
C2096 C2095 1.524 1_545 S
C2097 C2094 1.403 . S
C2097 C2098 1.392 . S
C2097 C2101 1.495 . S
C2098 C2097 1.392 . S
C2098 C2099 1.385 . S
C2098 C2100 1.478 . S
C2099 H2093 0.930 . S
C2099 C2095 1.400 . S
C2099 C2098 1.385 . S
C2100 C2098 1.478 . S
C2100 C2102 1.381 . S
C2100 C2106 1.383 . S
C2101 C2097 1.495 . S
C2101 H2107 0.959 . S
C2101 H2108 0.961 . S
C2101 H2109 0.960 . S
C2102 C2100 1.381 . S
C2102 C2103 1.394 . S
C2102 H2110 0.930 . S
C2103 C2102 1.394 . S
C2103 C2104 1.383 . S
C2103 H2111 0.929 . S
C2104 C2103 1.383 . S
C2104 C2105 1.377 . S
C2105 H2089 0.930 . S
C2105 C2104 1.377 . S
C2105 C2106 1.379 . S
C2106 H2090 0.931 . S
C2106 C2100 1.383 . S
C2106 C2105 1.379 . S
H2107 C2101 0.959 . S
H2108 C2101 0.961 . S
H2109 C2101 0.960 . S
H2110 C2102 0.930 . S
H2111 C2103 0.929 . S
H2112 C2120 0.929 . S
H2113 C2122 0.930 . S
H2114 C2124 0.930 . S
H2115 C2127 0.929 . S
H2116 C2130 0.930 . S
H2117 C2132 0.960 . S
H2118 C2132 0.960 . S
H2119 C2132 0.960 . S
C2120 H2112 0.929 . S
C2120 C2121 1.377 . S
C2120 C2122 1.384 . S
C2121 C2120 1.377 . S
C2121 C2127 1.390 . S
C2122 H2113 0.930 . S
C2122 C2120 1.384 . S
C2122 C2123 1.372 . S
C2123 C2122 1.372 . S
C2123 C2124 1.400 . S
C2123 C2128 1.490 . S
C2124 H2114 0.930 . S
C2124 C2123 1.400 . S
C2124 C2127 1.386 . S
H2125 C2141 0.930 . S
H2126 C2142 0.931 . S
C2127 H2115 0.929 . S
C2127 C2121 1.390 . S
C2127 C2124 1.386 . S
C2128 C2123 1.490 . S
C2128 C2130 1.395 . S
C2128 C2131 1.403 . S
H2129 C2135 0.930 . S
C2130 H2116 0.930 . S
C2130 C2128 1.395 . S
C2130 C2133 1.403 . S
C2131 C2128 1.403 . S
C2131 C2132 1.524 . S
C2131 C2135 1.400 . S
C2132 H2117 0.960 . S
C2132 H2118 0.960 . S
C2132 H2119 0.960 . S
C2132 C2131 1.524 . S
C2133 C2130 1.403 . S
C2133 C2134 1.392 . S
C2133 C2137 1.495 . S
C2134 C2133 1.392 . S
C2134 C2135 1.385 . S
C2134 C2136 1.478 . S
C2135 H2129 0.930 . S
C2135 C2131 1.400 . S
C2135 C2134 1.385 . S
C2136 C2134 1.478 . S
C2136 C2138 1.381 . S
C2136 C2142 1.383 . S
C2137 C2133 1.495 . S
C2137 H2143 0.959 . S
C2137 H2144 0.961 . S
C2137 H2145 0.960 . S
C2138 C2136 1.381 . S
C2138 C2139 1.394 . S
C2138 H2146 0.930 . S
C2139 C2138 1.394 . S
C2139 C2140 1.383 . S
C2139 H2147 0.929 . S
C2140 C2139 1.383 . S
C2140 C2141 1.377 . S
C2141 H2125 0.930 . S
C2141 C2140 1.377 . S
C2141 C2142 1.379 . S
C2142 H2126 0.931 . S
C2142 C2136 1.383 . S
C2142 C2141 1.379 . S
H2143 C2137 0.959 . S
H2144 C2137 0.961 . S
H2145 C2137 0.960 . S
H2146 C2138 0.930 . S
H2147 C2139 0.929 . S
H2148 C2156 0.929 . S
H2149 C2158 0.930 . S
H2150 C2160 0.930 . S
H2151 C2163 0.929 . S
H2152 C2166 0.930 . S
H2153 C2168 0.960 . S
H2154 C2168 0.960 . S
H2155 C2168 0.960 . S
C2156 H2148 0.929 . S
C2156 C2157 1.377 . S
C2156 C2158 1.384 . S
C2157 C2156 1.377 . S
C2157 C2163 1.390 . S
C2158 H2149 0.930 . S
C2158 C2156 1.384 . S
C2158 C2159 1.372 . S
C2159 C2158 1.372 . S
C2159 C2160 1.400 . S
C2159 C2164 1.490 . S
C2160 H2150 0.930 . S
C2160 C2159 1.400 . S
C2160 C2163 1.386 . S
H2161 C2177 0.930 . S
H2162 C2178 0.931 . S
C2163 H2151 0.929 . S
C2163 C2157 1.390 . S
C2163 C2160 1.386 . S
C2164 C2159 1.490 . S
C2164 C2166 1.395 . S
C2164 C2167 1.403 . S
H2165 C2171 0.930 . S
C2166 H2152 0.930 . S
C2166 C2164 1.395 . S
C2166 C2169 1.403 . S
C2167 C2164 1.403 . S
C2167 C2168 1.524 . S
C2167 C2171 1.400 . S
C2168 H2153 0.960 . S
C2168 H2154 0.960 . S
C2168 H2155 0.960 . S
C2168 C2167 1.524 . S
C2169 C2166 1.403 . S
C2169 C2170 1.392 . S
C2169 C2173 1.495 . S
C2170 C2169 1.392 . S
C2170 C2171 1.385 . S
C2170 C2172 1.478 . S
C2171 H2165 0.930 . S
C2171 C2167 1.400 . S
C2171 C2170 1.385 . S
C2172 C2170 1.478 . S
C2172 C2174 1.381 . S
C2172 C2178 1.383 . S
C2173 C2169 1.495 . S
C2173 H2179 0.959 . S
C2173 H2180 0.961 . S
C2173 H2181 0.960 . S
C2174 C2172 1.381 . S
C2174 C2175 1.394 . S
C2174 H2182 0.930 . S
C2175 C2174 1.394 . S
C2175 C2176 1.383 . S
C2175 H2183 0.929 . S
C2176 C2175 1.383 . S
C2176 C2177 1.377 . S
C2177 H2161 0.930 . S
C2177 C2176 1.377 . S
C2177 C2178 1.379 . S
C2178 H2162 0.931 . S
C2178 C2172 1.383 . S
C2178 C2177 1.379 . S
H2179 C2173 0.959 . S
H2180 C2173 0.961 . S
H2181 C2173 0.960 . S
H2182 C2174 0.930 . S
H2183 C2175 0.929 . S
H2184 C2192 0.929 . S
H2185 C2194 0.930 . S
H2186 C2196 0.930 . S
H2187 C2199 0.929 . S
H2188 C2202 0.930 . S
H2189 C2204 0.960 . S
H2190 C2204 0.960 . S
H2191 C2204 0.960 . S
C2192 H2184 0.929 . S
C2192 C2193 1.377 . S
C2192 C2194 1.384 . S
C2193 C2192 1.377 . S
C2193 C2199 1.390 . S
C2194 H2185 0.930 . S
C2194 C2192 1.384 . S
C2194 C2195 1.372 . S
C2195 C2194 1.372 . S
C2195 C2196 1.400 . S
C2195 C2200 1.490 . S
C2196 H2186 0.930 . S
C2196 C2195 1.400 . S
C2196 C2199 1.386 . S
H2197 C2213 0.930 . S
H2198 C2214 0.931 . S
C2199 H2187 0.929 . S
C2199 C2193 1.390 . S
C2199 C2196 1.386 . S
C2200 C2195 1.490 . S
C2200 C2202 1.395 . S
C2200 C2203 1.403 . S
H2201 C2207 0.930 . S
C2202 H2188 0.930 . S
C2202 C2200 1.395 . S
C2202 C2205 1.403 . S
C2203 C2200 1.403 . S
C2203 C2204 1.524 . S
C2203 C2207 1.400 . S
C2204 H2189 0.960 . S
C2204 H2190 0.960 . S
C2204 H2191 0.960 . S
C2204 C2203 1.524 . S
C2205 C2202 1.403 . S
C2205 C2206 1.392 . S
C2205 C2209 1.495 . S
C2206 C2205 1.392 . S
C2206 C2207 1.385 . S
C2206 C2208 1.478 . S
C2207 H2201 0.930 . S
C2207 C2203 1.400 . S
C2207 C2206 1.385 . S
C2208 C2206 1.478 . S
C2208 C2210 1.381 . S
C2208 C2214 1.383 . S
C2209 C2205 1.495 . S
C2209 H2215 0.959 . S
C2209 H2216 0.961 . S
C2209 H2217 0.960 . S
C2210 C2208 1.381 . S
C2210 C2211 1.394 . S
C2210 H2218 0.930 . S
C2211 C2210 1.394 . S
C2211 C2212 1.383 . S
C2211 H2219 0.929 . S
C2212 C2211 1.383 . S
C2212 C2213 1.377 . S
C2213 H2197 0.930 . S
C2213 C2212 1.377 . S
C2213 C2214 1.379 . S
C2214 H2198 0.931 . S
C2214 C2208 1.383 . S
C2214 C2213 1.379 . S
H2215 C2209 0.959 . S
H2216 C2209 0.961 . S
H2217 C2209 0.960 . S
H2218 C2210 0.930 . S
H2219 C2211 0.929 . S
H2220 C2228 0.929 . S
H2221 C2230 0.930 . S
H2222 C2232 0.930 . S
H2223 C2235 0.929 . S
H2224 C2238 0.930 . S
H2225 C2240 0.960 . S
H2226 C2240 0.960 . S
H2227 C2240 0.960 . S
C2228 H2220 0.929 . S
C2228 C2229 1.377 . S
C2228 C2230 1.384 . S
C2229 C2228 1.377 . S
C2229 C2235 1.390 . S
C2230 H2221 0.930 . S
C2230 C2228 1.384 . S
C2230 C2231 1.372 . S
C2231 C2230 1.372 . S
C2231 C2232 1.400 . S
C2231 C2236 1.490 . S
C2232 H2222 0.930 . S
C2232 C2231 1.400 . S
C2232 C2235 1.386 . S
H2233 C2249 0.930 . S
H2234 C2250 0.931 . S
C2235 H2223 0.929 . S
C2235 C2229 1.390 . S
C2235 C2232 1.386 . S
C2236 C2231 1.490 . S
C2236 C2238 1.395 . S
C2236 C2239 1.403 . S
H2237 C2243 0.930 . S
C2238 H2224 0.930 . S
C2238 C2236 1.395 . S
C2238 C2241 1.403 . S
C2239 C2236 1.403 . S
C2239 C2240 1.524 . S
C2239 C2243 1.400 . S
C2240 H2225 0.960 . S
C2240 H2226 0.960 . S
C2240 H2227 0.960 . S
C2240 C2239 1.524 . S
C2241 C2238 1.403 . S
C2241 C2242 1.392 . S
C2241 C2245 1.495 . S
C2242 C2241 1.392 . S
C2242 C2243 1.385 . S
C2242 C2244 1.478 . S
C2243 H2237 0.930 . S
C2243 C2239 1.400 . S
C2243 C2242 1.385 . S
C2244 C2242 1.478 . S
C2244 C2246 1.381 . S
C2244 C2250 1.383 . S
C2245 C2241 1.495 . S
C2245 H2251 0.959 . S
C2245 H2252 0.961 . S
C2245 H2253 0.960 . S
C2246 C2244 1.381 . S
C2246 C2247 1.394 . S
C2246 H2254 0.930 . S
C2247 C2246 1.394 . S
C2247 C2248 1.383 . S
C2247 H2255 0.929 . S
C2248 C2247 1.383 . S
C2248 C2249 1.377 . S
C2249 H2233 0.930 . S
C2249 C2248 1.377 . S
C2249 C2250 1.379 . S
C2250 H2234 0.931 . S
C2250 C2244 1.383 . S
C2250 C2249 1.379 . S
H2251 C2245 0.959 . S
H2252 C2245 0.961 . S
H2253 C2245 0.960 . S
H2254 C2246 0.930 . S
H2255 C2247 0.929 . S
H2256 C2264 0.929 . S
H2257 C2266 0.930 . S
H2258 C2268 0.930 . S
H2259 C2271 0.929 . S
H2260 C2274 0.930 . S
H2261 C2276 0.960 . S
H2262 C2276 0.960 . S
H2263 C2276 0.960 . S
C2264 H2256 0.929 . S
C2264 C2265 1.377 . S
C2264 C2266 1.384 . S
C2265 C2264 1.377 . S
C2265 C2271 1.390 . S
C2266 H2257 0.930 . S
C2266 C2264 1.384 . S
C2266 C2267 1.372 . S
C2267 C2266 1.372 . S
C2267 C2268 1.400 . S
C2267 C2272 1.490 . S
C2268 H2258 0.930 . S
C2268 C2267 1.400 . S
C2268 C2271 1.386 . S
H2269 C2285 0.930 . S
H2270 C2286 0.931 . S
C2271 H2259 0.929 . S
C2271 C2265 1.390 . S
C2271 C2268 1.386 . S
C2272 C2267 1.490 . S
C2272 C2274 1.395 . S
C2272 C2275 1.403 . S
H2273 C2279 0.930 . S
C2274 H2260 0.930 . S
C2274 C2272 1.395 . S
C2274 C2277 1.403 . S
C2275 C2272 1.403 . S
C2275 C2276 1.524 . S
C2275 C2279 1.400 . S
C2276 H2261 0.960 . S
C2276 H2262 0.960 . S
C2276 H2263 0.960 . S
C2276 C2275 1.524 . S
C2277 C2274 1.403 . S
C2277 C2278 1.392 . S
C2277 C2281 1.495 . S
C2278 C2277 1.392 . S
C2278 C2279 1.385 . S
C2278 C2280 1.478 . S
C2279 H2273 0.930 . S
C2279 C2275 1.400 . S
C2279 C2278 1.385 . S
C2280 C2278 1.478 . S
C2280 C2282 1.381 . S
C2280 C2286 1.383 . S
C2281 C2277 1.495 . S
C2281 H2287 0.959 . S
C2281 H2288 0.961 . S
C2281 H2289 0.960 . S
C2282 C2280 1.381 . S
C2282 C2283 1.394 . S
C2282 H2290 0.930 . S
C2283 C2282 1.394 . S
C2283 C2284 1.383 . S
C2283 H2291 0.929 . S
C2284 C2283 1.383 . S
C2284 C2285 1.377 . S
C2285 H2269 0.930 . S
C2285 C2284 1.377 . S
C2285 C2286 1.379 . S
C2286 H2270 0.931 . S
C2286 C2280 1.383 . S
C2286 C2285 1.379 . S
H2287 C2281 0.959 . S
H2288 C2281 0.961 . S
H2289 C2281 0.960 . S
H2290 C2282 0.930 . S
H2291 C2283 0.929 . S
H2292 C2300 0.929 . S
H2293 C2302 0.930 . S
H2294 C2304 0.930 . S
H2295 C2307 0.929 . S
H2296 C2310 0.930 . S
H2297 C2312 0.960 . S
H2298 C2312 0.960 . S
H2299 C2312 0.960 . S
C2300 H2292 0.929 . S
C2300 C2301 1.377 . S
C2300 C2302 1.384 . S
C2301 C2300 1.377 . S
C2301 C2307 1.390 . S
C2302 H2293 0.930 . S
C2302 C2300 1.384 . S
C2302 C2303 1.372 . S
C2303 C2302 1.372 . S
C2303 C2304 1.400 . S
C2303 C2308 1.490 . S
C2304 H2294 0.930 . S
C2304 C2303 1.400 . S
C2304 C2307 1.386 . S
H2305 C2321 0.930 . S
H2306 C2322 0.931 . S
C2307 H2295 0.929 . S
C2307 C2301 1.390 . S
C2307 C2304 1.386 . S
C2308 C2303 1.490 . S
C2308 C2310 1.395 . S
C2308 C2311 1.403 . S
H2309 C2315 0.930 . S
C2310 H2296 0.930 . S
C2310 C2308 1.395 . S
C2310 C2313 1.403 . S
C2311 C2308 1.403 . S
C2311 C2312 1.524 . S
C2311 C2315 1.400 . S
C2312 H2297 0.960 . S
C2312 H2298 0.960 . S
C2312 H2299 0.960 . S
C2312 C2311 1.524 . S
C2313 C2310 1.403 . S
C2313 C2314 1.392 . S
C2313 C2317 1.495 . S
C2314 C2313 1.392 . S
C2314 C2315 1.385 . S
C2314 C2316 1.478 . S
C2315 H2309 0.930 . S
C2315 C2311 1.400 . S
C2315 C2314 1.385 . S
C2316 C2314 1.478 . S
C2316 C2318 1.381 . S
C2316 C2322 1.383 . S
C2317 C2313 1.495 . S
C2317 H2323 0.959 . S
C2317 H2324 0.961 . S
C2317 H2325 0.960 . S
C2318 C2316 1.381 . S
C2318 C2319 1.394 . S
C2318 H2326 0.930 . S
C2319 C2318 1.394 . S
C2319 C2320 1.383 . S
C2319 H2327 0.929 . S
C2320 C2319 1.383 . S
C2320 C2321 1.377 . S
C2321 H2305 0.930 . S
C2321 C2320 1.377 . S
C2321 C2322 1.379 . S
C2322 H2306 0.931 . S
C2322 C2316 1.383 . S
C2322 C2321 1.379 . S
H2323 C2317 0.959 . S
H2324 C2317 0.961 . S
H2325 C2317 0.960 . S
H2326 C2318 0.930 . S
H2327 C2319 0.929 . S
H2328 C2336 0.929 . S
H2329 C2338 0.930 . S
H2330 C2340 0.930 . S
H2331 C2343 0.929 . S
H2332 C2346 0.930 . S
H2333 C2348 0.960 . S
H2334 C2348 0.960 . S
H2335 C2348 0.960 . S
C2336 H2328 0.929 . S
C2336 C2337 1.377 . S
C2336 C2338 1.384 . S
C2337 C2336 1.377 . S
C2337 C2343 1.390 . S
C2338 H2329 0.930 . S
C2338 C2336 1.384 . S
C2338 C2339 1.372 . S
C2339 C2338 1.372 . S
C2339 C2340 1.400 . S
C2339 C2344 1.490 . S
C2340 H2330 0.930 . S
C2340 C2339 1.400 . S
C2340 C2343 1.386 . S
H2341 C2357 0.930 . S
H2342 C2358 0.931 . S
C2343 H2331 0.929 . S
C2343 C2337 1.390 . S
C2343 C2340 1.386 . S
C2344 C2339 1.490 . S
C2344 C2346 1.395 . S
C2344 C2347 1.403 . S
H2345 C2351 0.930 . S
C2346 H2332 0.930 . S
C2346 C2344 1.395 . S
C2346 C2349 1.403 . S
C2347 C2344 1.403 . S
C2347 C2348 1.524 . S
C2347 C2351 1.400 . S
C2348 H2333 0.960 . S
C2348 H2334 0.960 . S
C2348 H2335 0.960 . S
C2348 C2347 1.524 . S
C2349 C2346 1.403 . S
C2349 C2350 1.392 . S
C2349 C2353 1.495 . S
C2350 C2349 1.392 . S
C2350 C2351 1.385 . S
C2350 C2352 1.478 . S
C2351 H2345 0.930 . S
C2351 C2347 1.400 . S
C2351 C2350 1.385 . S
C2352 C2350 1.478 . S
C2352 C2354 1.381 . S
C2352 C2358 1.383 . S
C2353 C2349 1.495 . S
C2353 H2359 0.959 . S
C2353 H2360 0.961 . S
C2353 H2361 0.960 . S
C2354 C2352 1.381 . S
C2354 C2355 1.394 . S
C2354 H2362 0.930 . S
C2355 C2354 1.394 . S
C2355 C2356 1.383 . S
C2355 H2363 0.929 . S
C2356 C2355 1.383 . S
C2356 C2357 1.377 . S
C2357 H2341 0.930 . S
C2357 C2356 1.377 . S
C2357 C2358 1.379 . S
C2358 H2342 0.931 . S
C2358 C2352 1.383 . S
C2358 C2357 1.379 . S
H2359 C2353 0.959 . S
H2360 C2353 0.961 . S
H2361 C2353 0.960 . S
H2362 C2354 0.930 . S
H2363 C2355 0.929 . S
H2364 C2372 0.929 . S
H2365 C2374 0.930 . S
H2366 C2376 0.930 . S
H2367 C2379 0.929 . S
H2368 C2382 0.930 . S
H2369 C2384 0.960 . S
H2370 C2384 0.960 . S
H2371 C2384 0.960 . S
C2372 H2364 0.929 . S
C2372 C2373 1.377 . S
C2372 C2374 1.384 . S
C2373 C2372 1.377 . S
C2373 C2379 1.390 . S
C2374 H2365 0.930 . S
C2374 C2372 1.384 . S
C2374 C2375 1.372 . S
C2375 C2374 1.372 . S
C2375 C2376 1.400 . S
C2375 C2380 1.490 . S
C2376 H2366 0.930 . S
C2376 C2375 1.400 . S
C2376 C2379 1.386 . S
H2377 C2393 0.930 . S
H2378 C2394 0.931 . S
C2379 H2367 0.929 . S
C2379 C2373 1.390 . S
C2379 C2376 1.386 . S
C2380 C2375 1.490 . S
C2380 C2382 1.395 . S
C2380 C2383 1.403 . S
H2381 C2387 0.930 . S
C2382 H2368 0.930 . S
C2382 C2380 1.395 . S
C2382 C2385 1.403 . S
C2383 C2380 1.403 . S
C2383 C2384 1.524 . S
C2383 C2387 1.400 . S
C2384 H2369 0.960 . S
C2384 H2370 0.960 . S
C2384 H2371 0.960 . S
C2384 C2383 1.524 . S
C2385 C2382 1.403 . S
C2385 C2386 1.392 . S
C2385 C2389 1.495 . S
C2386 C2385 1.392 . S
C2386 C2387 1.385 . S
C2386 C2388 1.478 . S
C2387 H2381 0.930 . S
C2387 C2383 1.400 . S
C2387 C2386 1.385 . S
C2388 C2386 1.478 . S
C2388 C2390 1.381 . S
C2388 C2394 1.383 . S
C2389 C2385 1.495 . S
C2389 H2395 0.959 . S
C2389 H2396 0.961 . S
C2389 H2397 0.960 . S
C2390 C2388 1.381 . S
C2390 C2391 1.394 . S
C2390 H2398 0.930 . S
C2391 C2390 1.394 . S
C2391 C2392 1.383 . S
C2391 H2399 0.929 . S
C2392 C2391 1.383 . S
C2392 C2393 1.377 . S
C2393 H2377 0.930 . S
C2393 C2392 1.377 . S
C2393 C2394 1.379 . S
C2394 H2378 0.931 . S
C2394 C2388 1.383 . S
C2394 C2393 1.379 . S
H2395 C2389 0.959 . S
H2396 C2389 0.961 . S
H2397 C2389 0.960 . S
H2398 C2390 0.930 . S
H2399 C2391 0.929 . S
H2400 C2408 0.929 . S
H2401 C2410 0.930 . S
H2402 C2412 0.930 . S
H2403 C2415 0.929 . S
H2404 C2418 0.930 . S
H2405 C2420 0.960 . S
H2406 C2420 0.960 . S
H2407 C2420 0.960 . S
C2408 H2400 0.929 . S
C2408 C2409 1.377 . S
C2408 C2410 1.384 . S
C2409 C2408 1.377 . S
C2409 C2415 1.390 . S
C2410 H2401 0.930 . S
C2410 C2408 1.384 . S
C2410 C2411 1.372 . S
C2411 C2410 1.372 . S
C2411 C2412 1.400 . S
C2411 C2416 1.490 . S
C2412 H2402 0.930 . S
C2412 C2411 1.400 . S
C2412 C2415 1.386 . S
H2413 C2429 0.930 . S
H2414 C2430 0.931 . S
C2415 H2403 0.929 . S
C2415 C2409 1.390 . S
C2415 C2412 1.386 . S
C2416 C2411 1.490 . S
C2416 C2418 1.395 . S
C2416 C2419 1.403 . S
H2417 C2423 0.930 . S
C2418 H2404 0.930 . S
C2418 C2416 1.395 . S
C2418 C2421 1.403 . S
C2419 C2416 1.403 . S
C2419 C2420 1.524 . S
C2419 C2423 1.400 . S
C2420 H2405 0.960 . S
C2420 H2406 0.960 . S
C2420 H2407 0.960 . S
C2420 C2419 1.524 . S
C2421 C2418 1.403 . S
C2421 C2422 1.392 . S
C2421 C2425 1.495 . S
C2422 C2421 1.392 . S
C2422 C2423 1.385 . S
C2422 C2424 1.478 . S
C2423 H2417 0.930 . S
C2423 C2419 1.400 . S
C2423 C2422 1.385 . S
C2424 C2422 1.478 . S
C2424 C2426 1.381 . S
C2424 C2430 1.383 . S
C2425 C2421 1.495 . S
C2425 H2431 0.959 . S
C2425 H2432 0.961 . S
C2425 H2433 0.960 . S
C2426 C2424 1.381 . S
C2426 C2427 1.394 . S
C2426 H2434 0.930 . S
C2427 C2426 1.394 . S
C2427 C2428 1.383 . S
C2427 H2435 0.929 . S
C2428 C2427 1.383 . S
C2428 C2429 1.377 . S
C2429 H2413 0.930 . S
C2429 C2428 1.377 . S
C2429 C2430 1.379 . S
C2430 H2414 0.931 . S
C2430 C2424 1.383 . S
C2430 C2429 1.379 . S
H2431 C2425 0.959 . S
H2432 C2425 0.961 . S
H2433 C2425 0.960 . S
H2434 C2426 0.930 . S
H2435 C2427 0.929 . S
H2436 C2444 0.929 . S
H2437 C2446 0.930 . S
H2438 C2448 0.930 . S
H2439 C2451 0.929 . S
H2440 C2454 0.930 . S
H2441 C2456 0.960 . S
H2442 C2456 0.960 . S
H2443 C2456 0.960 . S
C2444 H2436 0.929 . S
C2444 C2445 1.377 . S
C2444 C2446 1.384 . S
C2445 C2444 1.377 . S
C2445 C2451 1.390 . S
C2446 H2437 0.930 . S
C2446 C2444 1.384 . S
C2446 C2447 1.372 . S
C2447 C2446 1.372 . S
C2447 C2448 1.400 . S
C2447 C2452 1.490 . S
C2448 H2438 0.930 . S
C2448 C2447 1.400 . S
C2448 C2451 1.386 . S
H2449 C2465 0.930 . S
H2450 C2466 0.931 . S
C2451 H2439 0.929 . S
C2451 C2445 1.390 . S
C2451 C2448 1.386 . S
C2452 C2447 1.490 . S
C2452 C2454 1.395 . S
C2452 C2455 1.403 . S
H2453 C2459 0.930 . S
C2454 H2440 0.930 . S
C2454 C2452 1.395 . S
C2454 C2457 1.403 . S
C2455 C2452 1.403 . S
C2455 C2456 1.524 . S
C2455 C2459 1.400 . S
C2456 H2441 0.960 . S
C2456 H2442 0.960 . S
C2456 H2443 0.960 . S
C2456 C2455 1.524 . S
C2457 C2454 1.403 . S
C2457 C2458 1.392 . S
C2457 C2461 1.495 . S
C2458 C2457 1.392 . S
C2458 C2459 1.385 . S
C2458 C2460 1.478 . S
C2459 H2453 0.930 . S
C2459 C2455 1.400 . S
C2459 C2458 1.385 . S
C2460 C2458 1.478 . S
C2460 C2462 1.381 . S
C2460 C2466 1.383 . S
C2461 C2457 1.495 . S
C2461 H2467 0.959 . S
C2461 H2468 0.961 . S
C2461 H2469 0.960 . S
C2462 C2460 1.381 . S
C2462 C2463 1.394 . S
C2462 H2470 0.930 . S
C2463 C2462 1.394 . S
C2463 C2464 1.383 . S
C2463 H2471 0.929 . S
C2464 C2463 1.383 . S
C2464 C2465 1.377 . S
C2465 H2449 0.930 . S
C2465 C2464 1.377 . S
C2465 C2466 1.379 . S
C2466 H2450 0.931 . S
C2466 C2460 1.383 . S
C2466 C2465 1.379 . S
H2467 C2461 0.959 . S
H2468 C2461 0.961 . S
H2469 C2461 0.960 . S
H2470 C2462 0.930 . S
H2471 C2463 0.929 . S
H2472 C2480 0.929 . S
H2473 C2482 0.930 . S
H2474 C2484 0.930 . S
H2475 C2487 0.929 . S
H2476 C2490 0.930 . S
H2477 C2492 0.960 . S
H2478 C2492 0.960 . S
H2479 C2492 0.960 . S
C2480 H2472 0.929 . S
C2480 C2481 1.377 . S
C2480 C2482 1.384 . S
C2481 C2480 1.377 . S
C2481 C2487 1.390 . S
C2482 H2473 0.930 . S
C2482 C2480 1.384 . S
C2482 C2483 1.372 . S
C2483 C2482 1.372 . S
C2483 C2484 1.400 . S
C2483 C2488 1.490 . S
C2484 H2474 0.930 . S
C2484 C2483 1.400 . S
C2484 C2487 1.386 . S
H2485 C2501 0.930 . S
H2486 C2502 0.931 . S
C2487 H2475 0.929 . S
C2487 C2481 1.390 . S
C2487 C2484 1.386 . S
C2488 C2483 1.490 . S
C2488 C2490 1.395 . S
C2488 C2491 1.403 . S
H2489 C2495 0.930 . S
C2490 H2476 0.930 . S
C2490 C2488 1.395 . S
C2490 C2493 1.403 . S
C2491 C2488 1.403 . S
C2491 C2492 1.524 . S
C2491 C2495 1.400 . S
C2492 H2477 0.960 . S
C2492 H2478 0.960 . S
C2492 H2479 0.960 . S
C2492 C2491 1.524 . S
C2493 C2490 1.403 . S
C2493 C2494 1.392 . S
C2493 C2497 1.495 . S
C2494 C2493 1.392 . S
C2494 C2495 1.385 . S
C2494 C2496 1.478 . S
C2495 H2489 0.930 . S
C2495 C2491 1.400 . S
C2495 C2494 1.385 . S
C2496 C2494 1.478 . S
C2496 C2498 1.381 . S
C2496 C2502 1.383 . S
C2497 C2493 1.495 . S
C2497 H2503 0.959 . S
C2497 H2504 0.961 . S
C2497 H2505 0.960 . S
C2498 C2496 1.381 . S
C2498 C2499 1.394 . S
C2498 H2506 0.930 . S
C2499 C2498 1.394 . S
C2499 C2500 1.383 . S
C2499 H2507 0.929 . S
C2500 C2499 1.383 . S
C2500 C2501 1.377 . S
C2501 H2485 0.930 . S
C2501 C2500 1.377 . S
C2501 C2502 1.379 . S
C2502 H2486 0.931 . S
C2502 C2496 1.383 . S
C2502 C2501 1.379 . S
H2503 C2497 0.959 . S
H2504 C2497 0.961 . S
H2505 C2497 0.960 . S
H2506 C2498 0.930 . S
H2507 C2499 0.929 . S
H2508 C2516 0.929 . S
H2509 C2518 0.930 . S
H2510 C2520 0.930 . S
H2511 C2523 0.929 . S
H2512 C2526 0.930 . S
H2513 C2528 0.960 . S
H2514 C2528 0.960 . S
H2515 C2528 0.960 . S
C2516 H2508 0.929 . S
C2516 C2517 1.377 . S
C2516 C2518 1.384 . S
C2517 C2516 1.377 . S
C2517 C2523 1.390 . S
C2518 H2509 0.930 . S
C2518 C2516 1.384 . S
C2518 C2519 1.372 . S
C2519 C2518 1.372 . S
C2519 C2520 1.400 . S
C2519 C2524 1.490 . S
C2520 H2510 0.930 . S
C2520 C2519 1.400 . S
C2520 C2523 1.386 . S
H2521 C2537 0.930 . S
H2522 C2538 0.931 . S
C2523 H2511 0.929 . S
C2523 C2517 1.390 . S
C2523 C2520 1.386 . S
C2524 C2519 1.490 . S
C2524 C2526 1.395 . S
C2524 C2527 1.403 . S
H2525 C2531 0.930 . S
C2526 H2512 0.930 . S
C2526 C2524 1.395 . S
C2526 C2529 1.403 . S
C2527 C2524 1.403 . S
C2527 C2528 1.524 . S
C2527 C2531 1.400 . S
C2528 H2513 0.960 . S
C2528 H2514 0.960 . S
C2528 H2515 0.960 . S
C2528 C2527 1.524 . S
C2529 C2526 1.403 . S
C2529 C2530 1.392 . S
C2529 C2533 1.495 . S
C2530 C2529 1.392 . S
C2530 C2531 1.385 . S
C2530 C2532 1.478 . S
C2531 H2525 0.930 . S
C2531 C2527 1.400 . S
C2531 C2530 1.385 . S
C2532 C2530 1.478 . S
C2532 C2534 1.381 . S
C2532 C2538 1.383 . S
C2533 C2529 1.495 . S
C2533 H2539 0.959 . S
C2533 H2540 0.961 . S
C2533 H2541 0.960 . S
C2534 C2532 1.381 . S
C2534 C2535 1.394 . S
C2534 H2542 0.930 . S
C2535 C2534 1.394 . S
C2535 C2536 1.383 . S
C2535 H2543 0.929 . S
C2536 C2535 1.383 . S
C2536 C2537 1.377 . S
C2537 H2521 0.930 . S
C2537 C2536 1.377 . S
C2537 C2538 1.379 . S
C2538 H2522 0.931 . S
C2538 C2532 1.383 . S
C2538 C2537 1.379 . S
H2539 C2533 0.959 . S
H2540 C2533 0.961 . S
H2541 C2533 0.960 . S
H2542 C2534 0.930 . S
H2543 C2535 0.929 . S
H2544 C2552 0.929 . S
H2545 C2554 0.930 . S
H2546 C2556 0.930 . S
H2547 C2559 0.929 . S
H2548 C2562 0.930 . S
H2549 C2564 0.960 . S
H2550 C2564 0.960 . S
H2551 C2564 0.960 . S
C2552 H2544 0.929 . S
C2552 C2553 1.377 . S
C2552 C2554 1.384 . S
C2553 C2552 1.377 . S
C2553 C2559 1.390 . S
C2554 H2545 0.930 . S
C2554 C2552 1.384 . S
C2554 C2555 1.372 . S
C2555 C2554 1.372 . S
C2555 C2556 1.400 . S
C2555 C2560 1.490 . S
C2556 H2546 0.930 . S
C2556 C2555 1.400 . S
C2556 C2559 1.386 . S
H2557 C2573 0.930 . S
H2558 C2574 0.931 . S
C2559 H2547 0.929 . S
C2559 C2553 1.390 . S
C2559 C2556 1.386 . S
C2560 C2555 1.490 . S
C2560 C2562 1.395 . S
C2560 C2563 1.403 . S
H2561 C2567 0.930 . S
C2562 H2548 0.930 . S
C2562 C2560 1.395 . S
C2562 C2565 1.403 . S
C2563 C2560 1.403 . S
C2563 C2564 1.524 . S
C2563 C2567 1.400 . S
C2564 H2549 0.960 . S
C2564 H2550 0.960 . S
C2564 H2551 0.960 . S
C2564 C2563 1.524 . S
C2565 C2562 1.403 . S
C2565 C2566 1.392 . S
C2565 C2569 1.495 . S
C2566 C2565 1.392 . S
C2566 C2567 1.385 . S
C2566 C2568 1.478 . S
C2567 H2561 0.930 . S
C2567 C2563 1.400 . S
C2567 C2566 1.385 . S
C2568 C2566 1.478 . S
C2568 C2570 1.381 . S
C2568 C2574 1.383 . S
C2569 C2565 1.495 . S
C2569 H2575 0.959 . S
C2569 H2576 0.961 . S
C2569 H2577 0.960 . S
C2570 C2568 1.381 . S
C2570 C2571 1.394 . S
C2570 H2578 0.930 . S
C2571 C2570 1.394 . S
C2571 C2572 1.383 . S
C2571 H2579 0.929 . S
C2572 C2571 1.383 . S
C2572 C2573 1.377 . S
C2573 H2557 0.930 . S
C2573 C2572 1.377 . S
C2573 C2574 1.379 . S
C2574 H2558 0.931 . S
C2574 C2568 1.383 . S
C2574 C2573 1.379 . S
H2575 C2569 0.959 . S
H2576 C2569 0.961 . S
H2577 C2569 0.960 . S
H2578 C2570 0.930 . S
H2579 C2571 0.929 . S
H2580 C2588 0.929 . S
H2581 C2590 0.930 . S
H2582 C2592 0.930 . S
H2583 C2595 0.929 . S
H2584 C2598 0.930 . S
H2585 C2600 0.960 . S
H2586 C2600 0.960 . S
H2587 C2600 0.960 . S
C2588 H2580 0.929 . S
C2588 C2589 1.377 . S
C2588 C2590 1.384 . S
C2589 C2588 1.377 . S
C2589 C2595 1.390 . S
C2590 H2581 0.930 . S
C2590 C2588 1.384 . S
C2590 C2591 1.372 . S
C2591 C2590 1.372 . S
C2591 C2592 1.400 . S
C2591 C2596 1.490 . S
C2592 H2582 0.930 . S
C2592 C2591 1.400 . S
C2592 C2595 1.386 . S
H2593 C2609 0.930 . S
H2594 C2610 0.931 . S
C2595 H2583 0.929 . S
C2595 C2589 1.390 . S
C2595 C2592 1.386 . S
C2596 C2591 1.490 . S
C2596 C2598 1.395 . S
C2596 C2599 1.403 . S
H2597 C2603 0.930 . S
C2598 H2584 0.930 . S
C2598 C2596 1.395 . S
C2598 C2601 1.403 . S
C2599 C2596 1.403 . S
C2599 C2600 1.524 . S
C2599 C2603 1.400 . S
C2600 H2585 0.960 . S
C2600 H2586 0.960 . S
C2600 H2587 0.960 . S
C2600 C2599 1.524 . S
C2601 C2598 1.403 . S
C2601 C2602 1.392 . S
C2601 C2605 1.495 . S
C2602 C2601 1.392 . S
C2602 C2603 1.385 . S
C2602 C2604 1.478 . S
C2603 H2597 0.930 . S
C2603 C2599 1.400 . S
C2603 C2602 1.385 . S
C2604 C2602 1.478 . S
C2604 C2606 1.381 . S
C2604 C2610 1.383 . S
C2605 C2601 1.495 . S
C2605 H2611 0.959 . S
C2605 H2612 0.961 . S
C2605 H2613 0.960 . S
C2606 C2604 1.381 . S
C2606 C2607 1.394 . S
C2606 H2614 0.930 . S
C2607 C2606 1.394 . S
C2607 C2608 1.383 . S
C2607 H2615 0.929 . S
C2608 C2607 1.383 . S
C2608 C2609 1.377 . S
C2609 H2593 0.930 . S
C2609 C2608 1.377 . S
C2609 C2610 1.379 . S
C2610 H2594 0.931 . S
C2610 C2604 1.383 . S
C2610 C2609 1.379 . S
H2611 C2605 0.959 . S
H2612 C2605 0.961 . S
H2613 C2605 0.960 . S
H2614 C2606 0.930 . S
H2615 C2607 0.929 . S
H2616 C2624 0.929 . S
H2617 C2626 0.930 . S
H2618 C2628 0.930 . S
H2619 C2631 0.929 . S
H2620 C2634 0.930 . S
H2621 C2636 0.960 . S
H2622 C2636 0.960 . S
H2623 C2636 0.960 . S
C2624 H2616 0.929 . S
C2624 C2625 1.377 . S
C2624 C2626 1.384 . S
C2625 C2624 1.377 . S
C2625 C2631 1.390 . S
C2626 H2617 0.930 . S
C2626 C2624 1.384 . S
C2626 C2627 1.372 . S
C2627 C2626 1.372 . S
C2627 C2628 1.400 . S
C2627 C2632 1.490 . S
C2628 H2618 0.930 . S
C2628 C2627 1.400 . S
C2628 C2631 1.386 . S
H2629 C2645 0.930 . S
H2630 C2646 0.931 . S
C2631 H2619 0.929 . S
C2631 C2625 1.390 . S
C2631 C2628 1.386 . S
C2632 C2627 1.490 . S
C2632 C2634 1.395 . S
C2632 C2635 1.403 . S
H2633 C2639 0.930 . S
C2634 H2620 0.930 . S
C2634 C2632 1.395 . S
C2634 C2637 1.403 . S
C2635 C2632 1.403 . S
C2635 C2636 1.524 . S
C2635 C2639 1.400 . S
C2636 H2621 0.960 . S
C2636 H2622 0.960 . S
C2636 H2623 0.960 . S
C2636 C2635 1.524 . S
C2637 C2634 1.403 . S
C2637 C2638 1.392 . S
C2637 C2641 1.495 . S
C2638 C2637 1.392 . S
C2638 C2639 1.385 . S
C2638 C2640 1.478 . S
C2639 H2633 0.930 . S
C2639 C2635 1.400 . S
C2639 C2638 1.385 . S
C2640 C2638 1.478 . S
C2640 C2642 1.381 . S
C2640 C2646 1.383 . S
C2641 C2637 1.495 . S
C2641 H2647 0.959 . S
C2641 H2648 0.961 . S
C2641 H2649 0.960 . S
C2642 C2640 1.381 . S
C2642 C2643 1.394 . S
C2642 H2650 0.930 . S
C2643 C2642 1.394 . S
C2643 C2644 1.383 . S
C2643 H2651 0.929 . S
C2644 C2643 1.383 . S
C2644 C2645 1.377 . S
C2645 H2629 0.930 . S
C2645 C2644 1.377 . S
C2645 C2646 1.379 . S
C2646 H2630 0.931 . S
C2646 C2640 1.383 . S
C2646 C2645 1.379 . S
H2647 C2641 0.959 . S
H2648 C2641 0.961 . S
H2649 C2641 0.960 . S
H2650 C2642 0.930 . S
H2651 C2643 0.929 . S
H2652 C2660 0.929 . S
H2653 C2662 0.930 . S
H2654 C2664 0.930 . S
H2655 C2667 0.929 . S
H2656 C2670 0.930 . S
H2657 C2672 0.960 . S
H2658 C2672 0.960 . S
H2659 C2672 0.960 . S
C2660 H2652 0.929 . S
C2660 C2661 1.377 . S
C2660 C2662 1.384 . S
C2661 C2660 1.377 . S
C2661 C2667 1.390 . S
C2662 H2653 0.930 . S
C2662 C2660 1.384 . S
C2662 C2663 1.372 . S
C2663 C2662 1.372 . S
C2663 C2664 1.400 . S
C2663 C2668 1.490 . S
C2664 H2654 0.930 . S
C2664 C2663 1.400 . S
C2664 C2667 1.386 . S
H2665 C2681 0.930 . S
H2666 C2682 0.931 . S
C2667 H2655 0.929 . S
C2667 C2661 1.390 . S
C2667 C2664 1.386 . S
C2668 C2663 1.490 . S
C2668 C2670 1.395 . S
C2668 C2671 1.403 . S
H2669 C2675 0.930 . S
C2670 H2656 0.930 . S
C2670 C2668 1.395 . S
C2670 C2673 1.403 . S
C2671 C2668 1.403 . S
C2671 C2672 1.524 . S
C2671 C2675 1.400 . S
C2672 H2657 0.960 . S
C2672 H2658 0.960 . S
C2672 H2659 0.960 . S
C2672 C2671 1.524 . S
C2673 C2670 1.403 . S
C2673 C2674 1.392 . S
C2673 C2677 1.495 . S
C2674 C2673 1.392 . S
C2674 C2675 1.385 . S
C2674 C2676 1.478 . S
C2675 H2669 0.930 . S
C2675 C2671 1.400 . S
C2675 C2674 1.385 . S
C2676 C2674 1.478 . S
C2676 C2678 1.381 . S
C2676 C2682 1.383 . S
C2677 C2673 1.495 . S
C2677 H2683 0.959 . S
C2677 H2684 0.961 . S
C2677 H2685 0.960 . S
C2678 C2676 1.381 . S
C2678 C2679 1.394 . S
C2678 H2686 0.930 . S
C2679 C2678 1.394 . S
C2679 C2680 1.383 . S
C2679 H2687 0.929 . S
C2680 C2679 1.383 . S
C2680 C2681 1.377 . S
C2681 H2665 0.930 . S
C2681 C2680 1.377 . S
C2681 C2682 1.379 . S
C2682 H2666 0.931 . S
C2682 C2676 1.383 . S
C2682 C2681 1.379 . S
H2683 C2677 0.959 . S
H2684 C2677 0.961 . S
H2685 C2677 0.960 . S
H2686 C2678 0.930 . S
H2687 C2679 0.929 . S
H2688 C2696 0.929 . S
H2689 C2698 0.930 . S
H2690 C2700 0.930 . S
H2691 C2703 0.929 . S
H2692 C2706 0.930 . S
H2693 C2708 0.960 . S
H2694 C2708 0.960 . S
H2695 C2708 0.960 . S
C2696 H2688 0.929 . S
C2696 C2697 1.377 . S
C2696 C2698 1.384 . S
C2697 C2696 1.377 . S
C2697 C2703 1.390 . S
C2698 H2689 0.930 . S
C2698 C2696 1.384 . S
C2698 C2699 1.372 . S
C2699 C2698 1.372 . S
C2699 C2700 1.400 . S
C2699 C2704 1.490 . S
C2700 H2690 0.930 . S
C2700 C2699 1.400 . S
C2700 C2703 1.386 . S
H2701 C2717 0.930 . S
H2702 C2718 0.931 . S
C2703 H2691 0.929 . S
C2703 C2697 1.390 . S
C2703 C2700 1.386 . S
C2704 C2699 1.490 . S
C2704 C2706 1.395 . S
C2704 C2707 1.403 . S
H2705 C2711 0.930 . S
C2706 H2692 0.930 . S
C2706 C2704 1.395 . S
C2706 C2709 1.403 . S
C2707 C2704 1.403 . S
C2707 C2708 1.524 . S
C2707 C2711 1.400 . S
C2708 H2693 0.960 . S
C2708 H2694 0.960 . S
C2708 H2695 0.960 . S
C2708 C2707 1.524 . S
C2709 C2706 1.403 . S
C2709 C2710 1.392 . S
C2709 C2713 1.495 . S
C2710 C2709 1.392 . S
C2710 C2711 1.385 . S
C2710 C2712 1.478 . S
C2711 H2705 0.930 . S
C2711 C2707 1.400 . S
C2711 C2710 1.385 . S
C2712 C2710 1.478 . S
C2712 C2714 1.381 . S
C2712 C2718 1.383 . S
C2713 C2709 1.495 . S
C2713 H2719 0.959 . S
C2713 H2720 0.961 . S
C2713 H2721 0.960 . S
C2714 C2712 1.381 . S
C2714 C2715 1.394 . S
C2714 H2722 0.930 . S
C2715 C2714 1.394 . S
C2715 C2716 1.383 . S
C2715 H2723 0.929 . S
C2716 C2715 1.383 . S
C2716 C2717 1.377 . S
C2717 H2701 0.930 . S
C2717 C2716 1.377 . S
C2717 C2718 1.379 . S
C2718 H2702 0.931 . S
C2718 C2712 1.383 . S
C2718 C2717 1.379 . S
H2719 C2713 0.959 . S
H2720 C2713 0.961 . S
H2721 C2713 0.960 . S
H2722 C2714 0.930 . S
H2723 C2715 0.929 . S
H2724 C2732 0.929 . S
H2725 C2734 0.930 . S
H2726 C2736 0.930 . S
H2727 C2739 0.929 . S
H2728 C2742 0.930 . S
H2729 C2744 0.960 . S
H2730 C2744 0.960 . S
H2731 C2744 0.960 . S
C2732 H2724 0.929 . S
C2732 C2733 1.377 . S
C2732 C2734 1.384 . S
C2733 C2732 1.377 . S
C2733 C2739 1.390 . S
C2734 H2725 0.930 . S
C2734 C2732 1.384 . S
C2734 C2735 1.372 . S
C2735 C2734 1.372 . S
C2735 C2736 1.400 . S
C2735 C2740 1.490 . S
C2736 H2726 0.930 . S
C2736 C2735 1.400 . S
C2736 C2739 1.386 . S
H2737 C2753 0.930 . S
H2738 C2754 0.931 . S
C2739 H2727 0.929 . S
C2739 C2733 1.390 . S
C2739 C2736 1.386 . S
C2740 C2735 1.490 . S
C2740 C2742 1.395 . S
C2740 C2743 1.403 . S
H2741 C2747 0.930 . S
C2742 H2728 0.930 . S
C2742 C2740 1.395 . S
C2742 C2745 1.403 . S
C2743 C2740 1.403 . S
C2743 C2744 1.524 . S
C2743 C2747 1.400 . S
C2744 H2729 0.960 . S
C2744 H2730 0.960 . S
C2744 H2731 0.960 . S
C2744 C2743 1.524 . S
C2745 C2742 1.403 . S
C2745 C2746 1.392 . S
C2745 C2749 1.495 . S
C2746 C2745 1.392 . S
C2746 C2747 1.385 . S
C2746 C2748 1.478 . S
C2747 H2741 0.930 . S
C2747 C2743 1.400 . S
C2747 C2746 1.385 . S
C2748 C2746 1.478 . S
C2748 C2750 1.381 . S
C2748 C2754 1.383 . S
C2749 C2745 1.495 . S
C2749 H2755 0.959 . S
C2749 H2756 0.961 . S
C2749 H2757 0.960 . S
C2750 C2748 1.381 . S
C2750 C2751 1.394 . S
C2750 H2758 0.930 . S
C2751 C2750 1.394 . S
C2751 C2752 1.383 . S
C2751 H2759 0.929 . S
C2752 C2751 1.383 . S
C2752 C2753 1.377 . S
C2753 H2737 0.930 . S
C2753 C2752 1.377 . S
C2753 C2754 1.379 . S
C2754 H2738 0.931 . S
C2754 C2748 1.383 . S
C2754 C2753 1.379 . S
H2755 C2749 0.959 . S
H2756 C2749 0.961 . S
H2757 C2749 0.960 . S
H2758 C2750 0.930 . S
H2759 C2751 0.929 . S
H2760 C2768 0.929 . S
H2761 C2770 0.930 . S
H2762 C2772 0.930 . S
H2763 C2775 0.929 . S
H2764 C2778 0.930 . S
H2765 C2780 0.960 . S
H2766 C2780 0.960 . S
H2767 C2780 0.960 . S
C2768 H2760 0.929 . S
C2768 C2769 1.377 . S
C2768 C2770 1.384 . S
C2769 C2768 1.377 . S
C2769 C2775 1.390 . S
C2770 H2761 0.930 . S
C2770 C2768 1.384 . S
C2770 C2771 1.372 . S
C2771 C2770 1.372 . S
C2771 C2772 1.400 . S
C2771 C2776 1.490 . S
C2772 H2762 0.930 . S
C2772 C2771 1.400 . S
C2772 C2775 1.386 . S
H2773 C2789 0.930 . S
H2774 C2790 0.931 . S
C2775 H2763 0.929 . S
C2775 C2769 1.390 . S
C2775 C2772 1.386 . S
C2776 C2771 1.490 . S
C2776 C2778 1.395 . S
C2776 C2779 1.403 . S
H2777 C2783 0.930 . S
C2778 H2764 0.930 . S
C2778 C2776 1.395 . S
C2778 C2781 1.403 . S
C2779 C2776 1.403 . S
C2779 C2780 1.524 . S
C2779 C2783 1.400 . S
C2780 H2765 0.960 . S
C2780 H2766 0.960 . S
C2780 H2767 0.960 . S
C2780 C2779 1.524 . S
C2781 C2778 1.403 . S
C2781 C2782 1.392 . S
C2781 C2785 1.495 . S
C2782 C2781 1.392 . S
C2782 C2783 1.385 . S
C2782 C2784 1.478 . S
C2783 H2777 0.930 . S
C2783 C2779 1.400 . S
C2783 C2782 1.385 . S
C2784 C2782 1.478 . S
C2784 C2786 1.381 . S
C2784 C2790 1.383 . S
C2785 C2781 1.495 . S
C2785 H2791 0.959 . S
C2785 H2792 0.961 . S
C2785 H2793 0.960 . S
C2786 C2784 1.381 . S
C2786 C2787 1.394 . S
C2786 H2794 0.930 . S
C2787 C2786 1.394 . S
C2787 C2788 1.383 . S
C2787 H2795 0.929 . S
C2788 C2787 1.383 . S
C2788 C2789 1.377 . S
C2789 H2773 0.930 . S
C2789 C2788 1.377 . S
C2789 C2790 1.379 . S
C2790 H2774 0.931 . S
C2790 C2784 1.383 . S
C2790 C2789 1.379 . S
H2791 C2785 0.959 . S
H2792 C2785 0.961 . S
H2793 C2785 0.960 . S
H2794 C2786 0.930 . S
H2795 C2787 0.929 . S
H2796 C2804 0.929 . S
H2797 C2806 0.930 . S
H2798 C2808 0.930 . S
H2799 C2811 0.929 . S
H2800 C2814 0.930 . S
H2801 C2816 0.960 . S
H2802 C2816 0.960 . S
H2803 C2816 0.960 . S
C2804 H2796 0.929 . S
C2804 C2805 1.377 . S
C2804 C2806 1.384 . S
C2805 C2804 1.377 . S
C2805 C2811 1.390 . S
C2806 H2797 0.930 . S
C2806 C2804 1.384 . S
C2806 C2807 1.372 . S
C2807 C2806 1.372 . S
C2807 C2808 1.400 . S
C2807 C2812 1.490 . S
C2808 H2798 0.930 . S
C2808 C2807 1.400 . S
C2808 C2811 1.386 . S
H2809 C2825 0.930 . S
H2810 C2826 0.931 . S
C2811 H2799 0.929 . S
C2811 C2805 1.390 . S
C2811 C2808 1.386 . S
C2812 C2807 1.490 . S
C2812 C2814 1.395 . S
C2812 C2815 1.403 . S
H2813 C2819 0.930 . S
C2814 H2800 0.930 . S
C2814 C2812 1.395 . S
C2814 C2817 1.403 . S
C2815 C2812 1.403 . S
C2815 C2816 1.524 . S
C2815 C2819 1.400 . S
C2816 H2801 0.960 . S
C2816 H2802 0.960 . S
C2816 H2803 0.960 . S
C2816 C2815 1.524 . S
C2817 C2814 1.403 . S
C2817 C2818 1.392 . S
C2817 C2821 1.495 . S
C2818 C2817 1.392 . S
C2818 C2819 1.385 . S
C2818 C2820 1.478 . S
C2819 H2813 0.930 . S
C2819 C2815 1.400 . S
C2819 C2818 1.385 . S
C2820 C2818 1.478 . S
C2820 C2822 1.381 . S
C2820 C2826 1.383 . S
C2821 C2817 1.495 . S
C2821 H2827 0.959 . S
C2821 H2828 0.961 . S
C2821 H2829 0.960 . S
C2822 C2820 1.381 . S
C2822 C2823 1.394 . S
C2822 H2830 0.930 . S
C2823 C2822 1.394 . S
C2823 C2824 1.383 . S
C2823 H2831 0.929 . S
C2824 C2823 1.383 . S
C2824 C2825 1.377 . S
C2825 H2809 0.930 . S
C2825 C2824 1.377 . S
C2825 C2826 1.379 . S
C2826 H2810 0.931 . S
C2826 C2820 1.383 . S
C2826 C2825 1.379 . S
H2827 C2821 0.959 . S
H2828 C2821 0.961 . S
H2829 C2821 0.960 . S
H2830 C2822 0.930 . S
H2831 C2823 0.929 . S
H2832 C2840 0.929 . S
H2833 C2842 0.930 . S
H2834 C2844 0.930 . S
H2835 C2847 0.929 . S
H2836 C2850 0.930 . S
H2837 C2852 0.960 . S
H2838 C2852 0.960 . S
H2839 C2852 0.960 . S
C2840 H2832 0.929 . S
C2840 C2841 1.377 . S
C2840 C2842 1.384 . S
C2841 C2840 1.377 . S
C2841 C2847 1.390 . S
C2842 H2833 0.930 . S
C2842 C2840 1.384 . S
C2842 C2843 1.372 . S
C2843 C2842 1.372 . S
C2843 C2844 1.400 . S
C2843 C2848 1.490 . S
C2844 H2834 0.930 . S
C2844 C2843 1.400 . S
C2844 C2847 1.386 . S
H2845 C2861 0.930 . S
H2846 C2862 0.931 . S
C2847 H2835 0.929 . S
C2847 C2841 1.390 . S
C2847 C2844 1.386 . S
C2848 C2843 1.490 . S
C2848 C2850 1.395 . S
C2848 C2851 1.403 . S
H2849 C2855 0.930 . S
C2850 H2836 0.930 . S
C2850 C2848 1.395 . S
C2850 C2853 1.403 . S
C2851 C2848 1.403 . S
C2851 C2852 1.524 . S
C2851 C2855 1.400 . S
C2852 H2837 0.960 . S
C2852 H2838 0.960 . S
C2852 H2839 0.960 . S
C2852 C2851 1.524 . S
C2853 C2850 1.403 . S
C2853 C2854 1.392 . S
C2853 C2857 1.495 . S
C2854 C2853 1.392 . S
C2854 C2855 1.385 . S
C2854 C2856 1.478 . S
C2855 H2849 0.930 . S
C2855 C2851 1.400 . S
C2855 C2854 1.385 . S
C2856 C2854 1.478 . S
C2856 C2858 1.381 . S
C2856 C2862 1.383 . S
C2857 C2853 1.495 . S
C2857 H2863 0.959 . S
C2857 H2864 0.961 . S
C2857 H2865 0.960 . S
C2858 C2856 1.381 . S
C2858 C2859 1.394 . S
C2858 H2866 0.930 . S
C2859 C2858 1.394 . S
C2859 C2860 1.383 . S
C2859 H2867 0.929 . S
C2860 C2859 1.383 . S
C2860 C2861 1.377 . S
C2861 H2845 0.930 . S
C2861 C2860 1.377 . S
C2861 C2862 1.379 . S
C2862 H2846 0.931 . S
C2862 C2856 1.383 . S
C2862 C2861 1.379 . S
H2863 C2857 0.959 . S
H2864 C2857 0.961 . S
H2865 C2857 0.960 . S
H2866 C2858 0.930 . S
H2867 C2859 0.929 . S
H2868 C2876 0.929 . S
H2869 C2878 0.930 . S
H2870 C2880 0.930 . S
H2871 C2883 0.929 . S
H2872 C2886 0.930 . S
H2873 C2888 0.960 . S
H2874 C2888 0.960 . S
H2875 C2888 0.960 . S
C2876 H2868 0.929 . S
C2876 C2877 1.377 . S
C2876 C2878 1.384 . S
C2877 C2876 1.377 . S
C2877 C2883 1.390 . S
C2878 H2869 0.930 . S
C2878 C2876 1.384 . S
C2878 C2879 1.372 . S
C2879 C2878 1.372 . S
C2879 C2880 1.400 . S
C2879 C2884 1.490 . S
C2880 H2870 0.930 . S
C2880 C2879 1.400 . S
C2880 C2883 1.386 . S
H2881 C2897 0.930 . S
H2882 C2898 0.931 . S
C2883 H2871 0.929 . S
C2883 C2877 1.390 . S
C2883 C2880 1.386 . S
C2884 C2879 1.490 . S
C2884 C2886 1.395 . S
C2884 C2887 1.403 . S
H2885 C2891 0.930 . S
C2886 H2872 0.930 . S
C2886 C2884 1.395 . S
C2886 C2889 1.403 . S
C2887 C2884 1.403 . S
C2887 C2888 1.524 . S
C2887 C2891 1.400 . S
C2888 H2873 0.960 . S
C2888 H2874 0.960 . S
C2888 H2875 0.960 . S
C2888 C2887 1.524 . S
C2889 C2886 1.403 . S
C2889 C2890 1.392 . S
C2889 C2893 1.495 . S
C2890 C2889 1.392 . S
C2890 C2891 1.385 . S
C2890 C2892 1.478 . S
C2891 H2885 0.930 . S
C2891 C2887 1.400 . S
C2891 C2890 1.385 . S
C2892 C2890 1.478 . S
C2892 C2894 1.381 . S
C2892 C2898 1.383 . S
C2893 C2889 1.495 . S
C2893 H2899 0.959 . S
C2893 H2900 0.961 . S
C2893 H2901 0.960 . S
C2894 C2892 1.381 . S
C2894 C2895 1.394 . S
C2894 H2902 0.930 . S
C2895 C2894 1.394 . S
C2895 C2896 1.383 . S
C2895 H2903 0.929 . S
C2896 C2895 1.383 . S
C2896 C2897 1.377 . S
C2897 H2881 0.930 . S
C2897 C2896 1.377 . S
C2897 C2898 1.379 . S
C2898 H2882 0.931 . S
C2898 C2892 1.383 . S
C2898 C2897 1.379 . S
H2899 C2893 0.959 . S
H2900 C2893 0.961 . S
H2901 C2893 0.960 . S
H2902 C2894 0.930 . S
H2903 C2895 0.929 . S
H2904 C2912 0.929 . S
H2905 C2914 0.930 . S
H2906 C2916 0.930 . S
H2907 C2919 0.929 . S
H2908 C2922 0.930 . S
H2909 C2924 0.960 . S
H2910 C2924 0.960 . S
H2911 C2924 0.960 . S
C2912 H2904 0.929 . S
C2912 C2913 1.377 . S
C2912 C2914 1.384 . S
C2913 C2912 1.377 . S
C2913 C2919 1.390 . S
C2914 H2905 0.930 . S
C2914 C2912 1.384 . S
C2914 C2915 1.372 . S
C2915 C2914 1.372 . S
C2915 C2916 1.400 . S
C2915 C2920 1.490 . S
C2916 H2906 0.930 . S
C2916 C2915 1.400 . S
C2916 C2919 1.386 . S
H2917 C2933 0.930 . S
H2918 C2934 0.931 . S
C2919 H2907 0.929 . S
C2919 C2913 1.390 . S
C2919 C2916 1.386 . S
C2920 C2915 1.490 . S
C2920 C2922 1.395 . S
C2920 C2923 1.403 . S
H2921 C2927 0.930 . S
C2922 H2908 0.930 . S
C2922 C2920 1.395 . S
C2922 C2925 1.403 . S
C2923 C2920 1.403 . S
C2923 C2924 1.524 . S
C2923 C2927 1.400 . S
C2924 H2909 0.960 . S
C2924 H2910 0.960 . S
C2924 H2911 0.960 . S
C2924 C2923 1.524 . S
C2925 C2922 1.403 . S
C2925 C2926 1.392 . S
C2925 C2929 1.495 . S
C2926 C2925 1.392 . S
C2926 C2927 1.385 . S
C2926 C2928 1.478 . S
C2927 H2921 0.930 . S
C2927 C2923 1.400 . S
C2927 C2926 1.385 . S
C2928 C2926 1.478 . S
C2928 C2930 1.381 . S
C2928 C2934 1.383 . S
C2929 C2925 1.495 . S
C2929 H2935 0.959 . S
C2929 H2936 0.961 . S
C2929 H2937 0.960 . S
C2930 C2928 1.381 . S
C2930 C2931 1.394 . S
C2930 H2938 0.930 . S
C2931 C2930 1.394 . S
C2931 C2932 1.383 . S
C2931 H2939 0.929 . S
C2932 C2931 1.383 . S
C2932 C2933 1.377 . S
C2933 H2917 0.930 . S
C2933 C2932 1.377 . S
C2933 C2934 1.379 . S
C2934 H2918 0.931 . S
C2934 C2928 1.383 . S
C2934 C2933 1.379 . S
H2935 C2929 0.959 . S
H2936 C2929 0.961 . S
H2937 C2929 0.960 . S
H2938 C2930 0.930 . S
H2939 C2931 0.929 . S
H2940 C2948 0.929 . S
H2941 C2950 0.930 . S
H2942 C2952 0.930 . S
H2943 C2955 0.929 . S
H2944 C2958 0.930 . S
H2945 C2960 0.960 . S
H2946 C2960 0.960 . S
H2947 C2960 0.960 . S
C2948 H2940 0.929 . S
C2948 C2949 1.377 . S
C2948 C2950 1.384 . S
C2949 C2948 1.377 . S
C2949 C2955 1.390 . S
C2950 H2941 0.930 . S
C2950 C2948 1.384 . S
C2950 C2951 1.372 . S
C2951 C2950 1.372 . S
C2951 C2952 1.400 . S
C2951 C2956 1.490 . S
C2952 H2942 0.930 . S
C2952 C2951 1.400 . S
C2952 C2955 1.386 . S
H2953 C2969 0.930 . S
H2954 C2970 0.931 . S
C2955 H2943 0.929 . S
C2955 C2949 1.390 . S
C2955 C2952 1.386 . S
C2956 C2951 1.490 . S
C2956 C2958 1.395 . S
C2956 C2959 1.403 . S
H2957 C2963 0.930 . S
C2958 H2944 0.930 . S
C2958 C2956 1.395 . S
C2958 C2961 1.403 . S
C2959 C2956 1.403 . S
C2959 C2960 1.524 . S
C2959 C2963 1.400 . S
C2960 H2945 0.960 . S
C2960 H2946 0.960 . S
C2960 H2947 0.960 . S
C2960 C2959 1.524 . S
C2961 C2958 1.403 . S
C2961 C2962 1.392 . S
C2961 C2965 1.495 . S
C2962 C2961 1.392 . S
C2962 C2963 1.385 . S
C2962 C2964 1.478 . S
C2963 H2957 0.930 . S
C2963 C2959 1.400 . S
C2963 C2962 1.385 . S
C2964 C2962 1.478 . S
C2964 C2966 1.381 . S
C2964 C2970 1.383 . S
C2965 C2961 1.495 . S
C2965 H2971 0.959 . S
C2965 H2972 0.961 . S
C2965 H2973 0.960 . S
C2966 C2964 1.381 . S
C2966 C2967 1.394 . S
C2966 H2974 0.930 . S
C2967 C2966 1.394 . S
C2967 C2968 1.383 . S
C2967 H2975 0.929 . S
C2968 C2967 1.383 . S
C2968 C2969 1.377 . S
C2969 H2953 0.930 . S
C2969 C2968 1.377 . S
C2969 C2970 1.379 . S
C2970 H2954 0.931 . S
C2970 C2964 1.383 . S
C2970 C2969 1.379 . S
H2971 C2965 0.959 . S
H2972 C2965 0.961 . S
H2973 C2965 0.960 . S
H2974 C2966 0.930 . S
H2975 C2967 0.929 . S
C825 C203 0.415 . S
C844 C33 0.415 . S
C861 C67 0.399 . S
C880 C237 0.419 . S
C897 C101 0.413 . S
C916 C271 0.387 . S
C933 C169 0.399 . S
C952 C135 0.426 . S
C969 C305 0.399 . S
C988 C815 0.399 . S
C1005 C747 0.415 . S
C1024 C339 0.417 . S
C1041 C373 0.399 . S
C1060 C781 0.423 . S
C1077 C577 0.414 . S
C1096 C407 0.433 . S
C1113 C441 0.415 . S
C1132 C713 0.412 . S
C1149 C475 0.399 . S
C1168 C611 0.419 . S
C1185 C645 0.399 . S
C1204 C509 0.393 . S
C1221 C543 0.412 . S
C1240 C679 0.383 . S
C1257 C104 1.963 . S
C1276 C5 1.917 . S
C1293 C39 1.913 . S
C1312 C2 1.960 . S
C1329 C73 1.914 . S
C1348 C36 1.957 . S
C1365 C70 1.962 . S
C1384 C107 1.897 . S
C1401 C172 1.962 . S
C1420 C141 1.900 . S
C1437 C175 1.914 . S
C1456 C206 1.960 . S
C1473 C240 1.962 . S
C1492 C209 1.925 . S
C1509 C138 1.963 . S
C1528 C243 1.923 . S
C1545 C614 1.962 . S
C1564 C277 1.915 . S
C1581 C311 1.914 . S
C1600 C648 1.960 . S
C1617 C682 1.962 . S
C1636 C345 1.912 . S
C1653 C379 1.915 . S
C1672 C580 1.960 . S
C1689 C750 1.963 . S
C1708 C413 1.910 . S
C1725 C447 1.915 . S
C1744 C546 1.958 . S
C1761 C784 1.962 . S
C1780 C481 1.917 . S
C1797 C515 1.916 . S
C1816 C716 1.959 . S
C1833 C308 1.962 . S
C1852 C549 1.891 . S
C1869 C512 1.963 . S
C1888 C583 1.919 . S
C1905 C617 1.911 . S
C1924 C410 1.956 . S
C1941 C651 1.915 . S
C1960 C444 1.957 . S
C1977 C478 1.962 . S
C1996 C685 1.915 . S
C2013 C376 1.962 . S
C2032 C719 1.891 . S
C2049 C274 1.963 . S
C2068 C753 1.905 . S
C2085 C787 1.908 . S
C2104 C342 1.957 . S
C2121 C9 1.241 . S
C2140 C564 1.259 . S
C2157 C802 1.254 . S
C2176 C43 1.251 . S
C2193 C77 1.237 . S
C2212 C734 1.240 . S
C2229 C768 1.250 . S
C2248 C111 1.224 . S
C2265 C145 1.243 . S
C2284 C598 1.256 . S
C2301 C179 1.244 . S
C2320 C632 1.253 . S
C2337 C666 1.252 . S
C2356 C213 1.217 . S
C2373 C700 1.250 . S
C2392 C247 1.223 . S
C2409 C20 1.253 . S
C2428 C281 1.256 . S
C2445 C315 1.243 . S
C2464 C54 1.257 . S
C2481 C349 1.237 . S
C2500 C88 1.254 . S
C2517 C383 1.235 . S
C2536 C122 1.246 . S
C2553 C417 1.235 . S
C2572 C156 1.245 . S
C2589 C451 1.235 . S
C2608 C190 1.250 . S
C2625 C485 1.243 . S
C2644 C224 1.254 . S
C2661 C519 1.236 . S
C2680 C258 1.253 . S
C2697 C292 1.254 . S
C2716 C553 1.242 . S
C2733 C587 1.236 . S
C2752 C428 1.242 . S
C2769 C621 1.238 . S
C2788 C462 1.240 . S
C2805 C496 1.250 . S
C2824 C655 1.232 . S
C2841 C689 1.243 . S
C2860 C530 1.257 . S
C2877 C360 1.254 . S
C2896 C723 1.238 . S
C2913 C394 1.253 . S
C2932 C757 1.257 . S
C2949 C791 1.237 . S
C2968 C326 1.241 . S
