# Generated by pormake.
# Topology zft, (5)-cn, num edge types: 1
# Building blocks:
#     Node 0, Type 0, BuildingBlock: XOMCOT_clean_sbu_0, # of connection points: 5
#     Node 1, Type 0, BuildingBlock: XOMCOT_clean_sbu_0, # of connection points: 5
#     Node 2, Type 0, BuildingBlock: XOMCOT_clean_sbu_0, # of connection points: 5
#     Node 3, Type 0, BuildingBlock: XOMCOT_clean_sbu_0, # of connection points: 5
#     Node 4, Type 0, BuildingBlock: XOMCOT_clean_sbu_0, # of connection points: 5
#     Node 5, Type 0, BuildingBlock: XOMCOT_clean_sbu_0, # of connection points: 5
#     Node 6, Type 0, BuildingBlock: XOMCOT_clean_sbu_0, # of connection points: 5
#     Node 7, Type 0, BuildingBlock: XOMCOT_clean_sbu_0, # of connection points: 5
#     Edge 8, Type (0, 0), BuildingBlock: EZIPEK_clean_linker_0, # of connection points: 2
#     Edge 9, Type (0, 0), BuildingBlock: EZIPEK_clean_linker_0, # of connection points: 2
#     Edge 10, Type (0, 0), BuildingBlock: EZIPEK_clean_linker_0, # of connection points: 2
#     Edge 11, Type (0, 0), BuildingBlock: EZIPEK_clean_linker_0, # of connection points: 2
#     Edge 12, Type (0, 0), BuildingBlock: EZIPEK_clean_linker_0, # of connection points: 2
#     Edge 13, Type (0, 0), BuildingBlock: EZIPEK_clean_linker_0, # of connection points: 2
#     Edge 14, Type (0, 0), BuildingBlock: EZIPEK_clean_linker_0, # of connection points: 2
#     Edge 15, Type (0, 0), BuildingBlock: EZIPEK_clean_linker_0, # of connection points: 2
#     Edge 16, Type (0, 0), BuildingBlock: EZIPEK_clean_linker_0, # of connection points: 2
#     Edge 17, Type (0, 0), BuildingBlock: EZIPEK_clean_linker_0, # of connection points: 2
#     Edge 18, Type (0, 0), BuildingBlock: EZIPEK_clean_linker_0, # of connection points: 2
#     Edge 19, Type (0, 0), BuildingBlock: EZIPEK_clean_linker_0, # of connection points: 2
#     Edge 20, Type (0, 0), BuildingBlock: EZIPEK_clean_linker_0, # of connection points: 2
#     Edge 21, Type (0, 0), BuildingBlock: EZIPEK_clean_linker_0, # of connection points: 2
#     Edge 22, Type (0, 0), BuildingBlock: EZIPEK_clean_linker_0, # of connection points: 2
#     Edge 23, Type (0, 0), BuildingBlock: EZIPEK_clean_linker_0, # of connection points: 2
#     Edge 24, Type (0, 0), BuildingBlock: EZIPEK_clean_linker_0, # of connection points: 2
#     Edge 25, Type (0, 0), BuildingBlock: EZIPEK_clean_linker_0, # of connection points: 2
#     Edge 26, Type (0, 0), BuildingBlock: EZIPEK_clean_linker_0, # of connection points: 2
#     Edge 27, Type (0, 0), BuildingBlock: EZIPEK_clean_linker_0, # of connection points: 2
# Relax obj value: 0.079
# Max RMSD: 0.166
# Mean RMSD: 0.166
data_MOF--net-zft--node1-XOMCOT_clean_sbu_0--edge1-EZIPEK_clean_linker_0
_symmetry_space_group_name_H-M    P1
_symmetry_Int_Tables_number       1
_symmetry_cell_setting            triclinic
loop_
_symmetry_equiv_pos_as_xyz
'x, y, z'
_cell_length_a     21.133063
_cell_length_b     21.391933
_cell_length_c     40.400401
_cell_angle_alpha  89.920019
_cell_angle_beta   89.577949
_cell_angle_gamma 90.184262
loop_
_atom_site_label
_atom_site_type_symbol
_atom_site_fract_x
_atom_site_fract_y
_atom_site_fract_z
_atom_type_partial_charge
Co0 Co 0.14856 0.29972 0.15749 0.0
C1 C 0.22709 0.40043 0.12857 0.0
C2 C 0.28336 0.32183 0.14316 0.0
C3 C 0.32335 0.37048 0.13458 0.0
N4 N 0.22307 0.3409 0.13965 0.0
N5 N 0.28774 0.4199 0.1258 0.0
H6 H 0.1866 0.43037 0.12486 0.0
H7 H 0.29723 0.27744 0.15364 0.0
C8 C 0.15727 0.16461 0.13517 0.0
O9 O 0.09618 0.16486 0.12946 0.0
N10 N 0.07335 0.25916 0.17605 0.0
C11 C 1.0121 0.27053 0.1687 0.0
C12 C 0.97408 0.22971 0.18584 0.0
C13 C 0.07108 0.21253 0.19875 0.0
N14 N 1.01103 0.19293 0.20438 0.0
C15 C 0.06548 0.36378 0.1138 0.0
C16 C 0.08301 0.29096 0.05828 0.0
C17 C 0.03582 0.33695 0.05821 0.0
C18 C 0.02853 0.37456 0.08612 0.0
C19 C 0.11812 0.28063 0.08712 0.0
N20 N 0.10602 0.31414 0.11525 0.0
H21 H 0.05784 0.39352 0.13491 0.0
H22 H 0.15469 0.2459 0.08649 0.0
H23 H 0.99454 0.30543 0.15209 0.0
H24 H 0.11245 0.19224 0.2101 0.0
O25 O 0.12426 0.37619 0.17963 0.0
O26 O 0.18587 0.30432 0.20125 0.0
O27 O 0.18522 0.21496 0.1443 0.0
C28 C 0.159 0.35876 0.20423 0.0
H29 H 0.37435 0.37109 0.13687 0.0
H30 H 0.92299 0.22657 0.18455 0.0
H31 H 0.09166 0.26264 0.03652 0.0
H32 H 0.99371 0.41163 0.08671 0.0
Co33 Co 0.25781 0.6481 0.40895 0.0
C34 C 0.15156 0.72265 0.38365 0.0
C35 C 0.24003 0.76561 0.37033 0.0
C36 C 0.19131 0.80241 0.35861 0.0
N37 N 0.21489 0.71582 0.38628 0.0
N38 N 0.13598 0.77572 0.36773 0.0
H39 H 0.11707 0.69043 0.39392 0.0
H40 H 0.29004 0.77531 0.36771 0.0
C41 C 0.39227 0.64716 0.38352 0.0
O42 O 0.38866 0.58602 0.38122 0.0
N43 N 0.2988 0.5791 0.43202 0.0
C44 C 0.27753 0.51957 0.43408 0.0
C45 C 0.31845 0.48503 0.4528 0.0
C46 C 0.35168 0.58012 0.45086 0.0
N47 N 0.36507 0.52288 0.46309 0.0
C48 C 0.1898 0.55577 0.37216 0.0
C49 C 0.25981 0.56349 0.31441 0.0
C50 C 0.21128 0.51893 0.31695 0.0
C51 C 0.1749 0.51653 0.34587 0.0
C52 C 0.27213 0.60294 0.34117 0.0
N53 N 0.24047 0.59564 0.37054 0.0
H54 H 0.1603 0.55342 0.39399 0.0
H55 H 0.30595 0.6401 0.33773 0.0
H56 H 0.2346 0.50164 0.42357 0.0
H57 H 0.38003 0.6212 0.45535 0.0
O58 O 0.18173 0.63123 0.43419 0.0
O59 O 0.25787 0.69624 0.44967 0.0
O60 O 0.34296 0.67873 0.39126 0.0
C61 C 0.20309 0.67068 0.45575 0.0
H62 H 0.196 0.84629 0.34543 0.0
H63 H 0.31436 0.43573 0.45859 0.0
H64 H 0.28674 0.56879 0.29165 0.0
H65 H 0.13519 0.48458 0.34807 0.0
Co66 Co 0.89779 0.74913 0.6563 0.0
C67 C 0.81409 0.64437 0.63792 0.0
C68 C 0.77717 0.73013 0.61879 0.0
C69 C 0.73943 0.6811 0.60805 0.0
N70 N 0.82408 0.7069 0.6377 0.0
N71 N 0.76308 0.6276 0.6204 0.0
H72 H 0.84443 0.61065 0.64978 0.0
H73 H 0.77173 0.77876 0.61214 0.0
C74 C 0.88135 0.88991 0.64371 0.0
O75 O 0.94049 0.90207 0.65063 0.0
N76 N 0.97373 0.78607 0.67486 0.0
C77 C 0.03284 0.76645 0.66742 0.0
C78 C 0.07561 0.80013 0.68545 0.0
C79 C 0.98137 0.82889 0.69913 0.0
N80 N 0.04332 0.83987 0.70494 0.0
C81 C 0.95257 0.67821 0.60345 0.0
C82 C 1.0116 0.77726 0.57189 0.0
C83 C 1.02399 0.71643 0.5611 0.0
C84 C 0.99211 0.66659 0.57635 0.0
C85 C 0.96925 0.787 0.5979 0.0
N86 N 0.94195 0.73781 0.61423 0.0
H87 H 0.93307 0.63883 0.6167 0.0
H88 H 0.96233 0.83396 0.60591 0.0
H89 H 0.04442 0.72994 0.64996 0.0
H90 H 0.94291 0.85332 0.71121 0.0
O91 O 0.922 0.67257 0.67826 0.0
O92 O 0.85929 0.74552 0.69972 0.0
O93 O 0.8603 0.83355 0.64267 0.0
C94 C 0.88657 0.69149 0.70275 0.0
H95 H 0.69929 0.68419 0.59166 0.0
H96 H 0.12667 0.7971 0.6838 0.0
H97 H 0.03545 0.81698 0.56067 0.0
H98 H 1.00042 0.61888 0.56853 0.0
Co99 Co 0.79786 0.3988 0.90704 0.0
C100 C 0.89884 0.30638 0.89082 0.0
C101 C 0.8169 0.2923 0.86071 0.0
C102 C 0.8645 0.25303 0.84971 0.0
N103 N 0.83837 0.32601 0.88657 0.0
N104 N 0.91577 0.2624 0.8687 0.0
H105 H 0.93189 0.3264 0.90813 0.0
H106 H 0.77129 0.29839 0.84922 0.0
C107 C 0.65526 0.38715 0.89088 0.0
O108 O 0.64347 0.44532 0.89857 0.0
N109 N 0.76093 0.47204 0.92815 0.0
C110 C 0.78302 0.53095 0.92458 0.0
C111 C 0.74681 0.57056 0.94351 0.0
C112 C 0.71386 0.47621 0.95098 0.0
N113 N 0.70302 0.53626 0.95974 0.0
C114 C 0.86978 0.44446 0.85171 0.0
C115 C 0.77856 0.52277 0.82646 0.0
C116 C 0.83837 0.52155 0.81143 0.0
C117 C 0.88389 0.48052 0.82378 0.0
C118 C 0.76543 0.48348 0.85315 0.0
N119 N 0.81085 0.44537 0.86592 0.0
H120 H 0.90719 0.41727 0.86248 0.0
H121 H 0.72011 0.48757 0.86467 0.0
H122 H 0.82256 0.54436 0.90895 0.0
H123 H 0.68635 0.43673 0.95984 0.0
O124 O 0.87632 0.42018 0.92806 0.0
O125 O 0.8023 0.35853 0.94989 0.0
O126 O 0.71153 0.36454 0.89225 0.0
C127 C 0.85792 0.3846 0.95248 0.0
H128 H 0.86274 0.22235 0.82845 0.0
H129 H 0.75107 0.62096 0.94468 0.0
H130 H 0.74236 0.55452 0.81784 0.0
H131 H 0.9308 0.47849 0.81285 0.0
Co132 Co 0.65533 0.25137 0.57446 0.0
C133 C 0.71832 0.15422 0.61224 0.0
C134 C 0.78597 0.22169 0.5947 0.0
C135 C 0.81815 0.17022 0.6063 0.0
N136 N 0.72328 0.21174 0.5985 0.0
N137 N 0.77536 0.1277 0.61674 0.0
H138 H 0.67397 0.1294 0.61539 0.0
H139 H 0.80667 0.26041 0.58117 0.0
C140 C 0.71676 0.36417 0.61006 0.0
O141 O 0.75475 0.33029 0.62822 0.0
N142 N 0.58598 0.28851 0.55009 0.0
C143 C 0.53753 0.25791 0.53557 0.0
C144 C 0.49829 0.30062 0.52087 0.0
C145 C 0.57569 0.34972 0.54362 0.0
N146 N 0.52236 0.3579 0.5261 0.0
C147 C 0.54993 0.19281 0.60774 0.0
C148 C 0.5683 0.24699 0.66895 0.0
C149 C 0.51689 0.20652 0.66467 0.0
C150 C 0.50791 0.17909 0.63364 0.0
C151 C 0.60853 0.26022 0.64222 0.0
N152 N 0.5983 0.2346 0.61176 0.0
H153 H 0.54419 0.16854 0.58464 0.0
H154 H 0.64865 0.28971 0.6466 0.0
H155 H 0.53194 0.20781 0.53437 0.0
H156 H 0.60641 0.38765 0.55097 0.0
O157 O 0.64598 0.17388 0.54979 0.0
O158 O 0.70726 0.25306 0.53444 0.0
O159 O 0.67636 0.33893 0.59081 0.0
C160 C 0.68591 0.19723 0.52839 0.0
H161 H 0.86864 0.16234 0.60455 0.0
H162 H 0.45609 0.29053 0.50679 0.0
H163 H 0.57741 0.26797 0.69285 0.0
H164 H 0.46937 0.14651 0.62966 0.0
Co165 Co 0.29849 0.13783 0.82539 0.0
C166 C 0.39876 0.23079 0.84087 0.0
C167 C 0.31607 0.24534 0.87091 0.0
C168 C 0.36377 0.28428 0.88198 0.0
N169 N 0.33798 0.21157 0.84506 0.0
N170 N 0.41554 0.27455 0.86307 0.0
H171 H 0.4321 0.21035 0.82364 0.0
H172 H 0.2702 0.23924 0.88251 0.0
C173 C 0.15549 0.14646 0.84323 0.0
O174 O 0.14399 0.0881 0.83567 0.0
N175 N 0.26333 0.06318 0.80543 0.0
C176 C 0.2879 1.00541 0.80906 0.0
C177 C 0.25263 0.96373 0.79117 0.0
C178 C 0.21578 0.05644 0.78355 0.0
N179 N 0.20702 0.99576 0.77558 0.0
C180 C 0.37382 0.09175 0.87914 0.0
C181 C 0.28254 1.01391 0.90601 0.0
C182 C 0.34291 1.01444 0.91995 0.0
C183 C 0.38861 0.05515 0.90673 0.0
C184 C 0.26877 0.05391 0.87991 0.0
N185 N 0.31419 0.09158 0.86623 0.0
H186 H 0.41101 0.11888 0.86765 0.0
H187 H 0.22274 0.05073 0.86946 0.0
H188 H 0.32858 0.9942 0.82401 0.0
H189 H 0.1866 0.09444 0.77478 0.0
O190 O 0.37626 0.11926 0.8019 0.0
O191 O 0.29869 0.17837 0.78259 0.0
O192 O 0.2118 0.16953 0.84175 0.0
C193 C 0.35444 0.15398 0.77805 0.0
H194 H 0.36182 0.31464 0.90337 0.0
H195 H 0.25876 0.91353 0.79027 0.0
H196 H 0.24611 0.98252 0.91525 0.0
H197 H 0.43594 0.05678 0.91681 0.0
Co198 Co 0.40229 0.79698 0.0788 0.0
C199 C 0.32871 0.90126 0.10644 0.0
C200 C 0.2686 0.82258 0.09609 0.0
C201 C 0.23123 0.87301 0.10471 0.0
N202 N 0.32961 0.84078 0.09668 0.0
N203 N 0.26911 0.92258 0.11085 0.0
H204 H 0.37061 0.9302 0.10841 0.0
H205 H 0.25223 0.77728 0.08786 0.0
C206 C 0.3955 0.66515 0.10564 0.0
O207 O 0.45687 0.6668 0.11052 0.0
N208 N 0.47694 0.75535 0.06026 0.0
C209 C 0.53645 0.77879 0.05941 0.0
C210 C 0.57564 0.73806 0.04317 0.0
C211 C 0.48085 0.70103 0.04302 0.0
N212 N 0.5409 0.68926 0.03303 0.0
C213 C 0.49031 0.86192 0.12003 0.0
C214 C 0.46466 0.79782 0.17793 0.0
C215 C 0.51533 0.84015 0.17691 0.0
C216 C 0.52678 0.87383 0.14785 0.0
C217 C 0.42992 0.78669 0.14917 0.0
N218 N 0.44634 0.81499 0.11997 0.0
H219 H 0.49817 0.89039 0.09836 0.0
H220 H 0.38953 0.75596 0.15065 0.0
H221 H 0.55123 0.82367 0.06839 0.0
H222 H 0.44103 0.67103 0.03768 0.0
O223 O 0.42431 0.87147 0.05392 0.0
O224 O 0.36297 0.7948 0.03564 0.0
O225 O 0.36656 0.71414 0.09565 0.0
C226 C 0.38915 0.84904 0.03048 0.0
H227 H 0.18002 0.87392 0.10533 0.0
H228 H 0.62575 0.74435 0.03838 0.0
H229 H 0.45266 0.77322 0.20059 0.0
H230 H 0.56379 0.90895 0.14667 0.0
Co231 Co 0.75659 0.89587 0.32741 0.0
C232 C 0.65465 0.80943 0.34986 0.0
C233 C 0.7446 0.76686 0.35777 0.0
C234 C 0.69776 0.72518 0.36732 0.0
N235 N 0.7178 0.82082 0.34748 0.0
N236 N 0.64143 0.75229 0.36207 0.0
H237 H 0.61815 0.84173 0.34246 0.0
H238 H 0.7943 0.75646 0.35751 0.0
C239 C 0.87402 0.84986 0.36286 0.0
O240 O 0.84264 0.84745 0.39104 0.0
N241 N 0.79222 0.96988 0.30683 0.0
C242 C 0.76546 0.02702 0.30705 0.0
C243 C 0.80526 0.06831 0.2911 0.0
C244 C 0.8481 0.97698 0.29076 0.0
N245 N 0.85688 0.03681 0.28093 0.0
C246 C 0.69498 0.94465 0.38567 0.0
C247 C 0.7942 1.0207 0.40479 0.0
C248 C 0.7364 0.02456 0.42178 0.0
C249 C 0.68685 0.98497 0.4125 0.0
C250 C 0.80084 0.97855 0.37865 0.0
N251 N 0.75147 0.94138 0.36912 0.0
H252 H 0.65453 0.91881 0.37728 0.0
H253 H 0.84479 0.97831 0.36484 0.0
H254 H 0.72037 0.03795 0.31845 0.0
H255 H 0.88142 0.93958 0.28625 0.0
O256 O 0.67513 0.91789 0.30956 0.0
O257 O 0.74661 0.85856 0.28431 0.0
O258 O 0.84602 0.86608 0.33628 0.0
C259 C 0.69075 0.88411 0.28401 0.0
H260 H 0.70439 0.67805 0.37641 0.0
H261 H 0.79711 0.11769 0.28715 0.0
H262 H 0.83327 0.05124 0.4111 0.0
H263 H 0.64127 0.98746 0.42486 0.0
C264 C 0.17753 0.3735 0.26547 0.0
C265 C 0.16936 0.40012 0.23351 0.0
C266 C 0.17559 0.50456 0.25847 0.0
C267 C 0.1956 0.47772 0.28859 0.0
N268 N 0.22618 0.38555 0.31909 0.0
N269 N 0.17542 0.49419 0.19945 0.0
C270 C 0.19974 0.4118 0.29165 0.0
C271 C 0.17212 0.46657 0.22989 0.0
N272 N 0.16079 0.31279 0.27154 0.0
N273 N 0.15845 0.56608 0.25715 0.0
H274 H 0.17817 0.46956 0.17748 0.0
H275 H 0.18391 0.54186 0.19622 0.0
H276 H 0.15855 0.59525 0.27782 0.0
H277 H 0.1375 0.58605 0.2364 0.0
H278 H 0.16108 0.29322 0.29518 0.0
H279 H 0.13878 0.28457 0.25403 0.0
H280 H 0.23561 0.33787 0.32093 0.0
H281 H 0.24433 0.41199 0.33852 0.0
C282 C 0.12515 0.66633 0.54077 0.0
C283 C 0.07205 0.70539 0.53472 0.0
C284 C 0.11815 0.73477 0.48139 0.0
C285 C 0.16417 0.68756 0.4848 0.0
N286 N 0.2072 0.60218 0.51626 0.0
N287 N 1.01183 0.76602 0.4954 0.0
C288 C 0.16645 0.65132 0.51407 0.0
C289 C 0.06672 0.73669 0.5039 0.0
N290 N 0.138 0.64604 0.57208 0.0
N291 N 0.12447 0.77906 0.45734 0.0
H292 H 0.97148 0.76551 0.51042 0.0
H293 H 1.00437 0.78474 0.47191 0.0
H294 H 0.16444 0.78158 0.44213 0.0
H295 H 0.09462 0.81761 0.45591 0.0
H296 H 0.17923 0.62205 0.57803 0.0
H297 H 0.11117 0.65897 0.5927 0.0
H298 H 0.20614 0.57023 0.53576 0.0
H299 H 0.23888 0.59096 0.49731 0.0
C300 C 0.81266 0.56504 0.75547 0.0
C301 C 0.85297 0.56447 0.78337 0.0
C302 C 0.91905 0.64516 0.75708 0.0
C303 C 0.87387 0.65087 0.73157 0.0
N304 N 0.76771 0.62942 0.7128 0.0
N305 N 0.93595 0.61615 0.81418 0.0
C306 C 0.81755 0.6149 0.73263 0.0
C307 C 0.90411 0.6078 0.7852 0.0
N308 N 0.77104 0.51716 0.75012 0.0
N309 N 0.97581 0.67559 0.75467 0.0
H310 H 0.92404 0.59277 0.83601 0.0
H311 H 0.96962 0.65125 0.81748 0.0
H312 H 0.98746 0.70482 0.73485 0.0
H313 H 1.01283 0.66804 0.77109 0.0
H314 H 0.74464 0.51335 0.72851 0.0
H315 H 0.7683 0.47788 0.7654 0.0
H316 H 0.72395 0.60701 0.71468 0.0
H317 H 0.76743 0.66893 0.69773 0.0
C318 C 0.91037 0.30918 0.99216 0.0
C319 C 0.90142 0.37128 0.98038 0.0
C320 C 0.99035 0.40622 0.01428 0.0
C321 C 0.99301 0.34657 0.02955 0.0
N322 N 0.94478 0.24502 0.03786 0.0
N323 N 0.92341 0.4815 0.98718 0.0
C324 C 0.94999 0.29899 0.01989 0.0
C325 C 0.93879 0.42062 -0.00661 0.0
N326 N 0.88405 0.25935 0.97616 0.0
N327 N 0.03765 0.4488 0.01921 0.0
H328 H 0.88329 0.49435 0.97397 0.0
H329 H 0.94607 0.51906 -0.00148 0.0
H330 H 0.07734 0.43907 0.03353 0.0
H331 H 0.04066 0.4909 0.00627 0.0
H332 H 0.89509 0.21318 0.98198 0.0
H333 H 0.8569 0.26339 0.9549 0.0
H334 H 0.90937 0.21196 0.03372 0.0
H335 H 0.97148 0.23603 0.05891 0.0
C336 C 0.66865 0.1636 0.46935 0.0
C337 C 0.70553 0.16144 0.49848 0.0
C338 C 0.76283 0.07059 0.47727 0.0
C339 C 0.72658 0.0726 0.44791 0.0
N340 N 0.6569 0.13082 0.41223 0.0
N341 N 0.80374 0.13038 0.52299 0.0
C342 C 0.68271 0.12197 0.44282 0.0
C343 C 0.75754 0.12016 0.50032 0.0
N344 N 0.62078 0.20596 0.46692 0.0
N345 N 0.80075 1.02048 0.48378 0.0
H346 H 0.80374 0.17022 0.53763 0.0
H347 H 0.8454 0.10453 0.52401 0.0
H348 H 0.80469 0.98218 0.46796 0.0
H349 H 0.82364 1.01436 0.50631 0.0
H350 H 0.58646 0.2046 0.44858 0.0
H351 H 0.61508 0.24213 0.48389 0.0
H352 H 0.62925 0.16925 0.4061 0.0
H353 H 0.66781 0.10274 0.39192 0.0
C354 C 0.42367 0.11743 0.73105 0.0
C355 C 0.39298 0.16726 0.74784 0.0
C356 C 0.43549 0.24085 0.70656 0.0
C357 C 0.47311 0.19247 0.69282 0.0
N358 N 0.51168 0.08652 0.69616 0.0
N359 N 0.38035 0.279 0.75499 0.0
C360 C 0.46963 0.13116 0.7062 0.0
C361 C 0.40149 0.22975 0.73649 0.0
N362 N 0.40715 0.0569 0.73777 0.0
N363 N 0.43081 0.29702 0.69061 0.0
H364 H 0.35693 0.27389 0.77758 0.0
H365 H 0.39181 0.32531 0.74955 0.0
H366 H 0.45409 0.30668 0.66832 0.0
H367 H 0.39891 0.33161 0.69774 0.0
H368 H 0.42369 1.01913 0.72398 0.0
H369 H 0.37156 0.04488 0.75463 0.0
H370 H 0.51533 0.04302 0.70762 0.0
H371 H 0.54706 0.09495 0.67857 0.0
C372 C 0.42114 0.89046 0.9745 0.0
C373 C 0.37592 0.88624 0.00047 0.0
C374 C 0.31614 0.97184 0.9762 0.0
C375 C 0.35705 0.97194 0.9482 0.0
N376 N 0.43948 0.919 0.91723 0.0
N377 N 0.26993 0.90855 0.01944 0.0
C378 C 0.40738 0.92791 0.94631 0.0
C379 C 0.32004 0.92234 -0.00075 0.0
N380 N 0.47675 0.85841 0.97654 0.0
N381 N 0.27499 1.02003 0.98147 0.0
H382 H 0.26999 0.87022 0.03526 0.0
H383 H 0.22624 0.93074 0.01763 0.0
H384 H 0.27375 0.05962 0.96639 0.0
H385 H 0.24722 0.02376 0.0028 0.0
H386 H 0.5142 0.86499 0.95996 0.0
H387 H 0.48682 0.82815 -0.00395 0.0
H388 H 0.47249 0.88347 0.91384 0.0
H389 H 0.42844 0.94253 0.89543 0.0
C390 C 0.63575 0.81053 0.24483 0.0
C391 C 0.6452 0.87229 0.25688 0.0
C392 C 0.55975 0.90924 0.22121 0.0
C393 C 0.55699 0.84974 0.20591 0.0
N394 N 0.60166 0.7467 0.19891 0.0
N395 N 0.62478 0.98291 0.2509 0.0
C396 C 0.59757 0.8011 0.21651 0.0
C397 C 0.60937 0.92242 0.24364 0.0
N398 N 0.66055 0.76036 0.26114 0.0
N399 N 0.51434 0.95284 0.21477 0.0
H400 H 0.66325 0.99501 0.26553 0.0
H401 H 0.60392 1.02115 0.23934 0.0
H402 H 0.47653 0.94431 0.19892 0.0
H403 H 0.5107 0.99481 0.22771 0.0
H404 H 0.64955 0.71427 0.25507 0.0
H405 H 0.68628 0.76421 0.28291 0.0
H406 H 0.63567 0.71271 0.20358 0.0
H407 H 0.57528 0.73797 0.1777 0.0
C408 C 0.20882 0.99415 0.14708 0.0
C409 C 0.24862 0.9854 0.11921 0.0
C410 C 0.24156 0.09827 0.10709 0.0
C411 C 0.19313 0.1045 0.13152 0.0
N412 N 0.12874 0.05624 0.17429 0.0
N413 N 0.29927 0.02868 0.07058 0.0
C414 C 0.17624 0.05175 0.15135 0.0
C415 C 0.26474 0.0375 0.09886 0.0
N416 N 0.20434 0.94783 0.1703 0.0
N417 N 0.26551 0.15008 0.09158 0.0
H418 H 0.31696 0.98548 0.06347 0.0
H419 H 0.30636 0.06321 0.05273 0.0
H420 H 0.24923 0.19512 0.09606 0.0
H421 H 0.30558 0.1492 0.07644 0.0
H422 H 0.18115 0.95313 0.19295 0.0
H423 H 0.22987 0.9063 0.16844 0.0
H424 H 0.10869 1.01771 0.18622 0.0
H425 H 0.10679 0.09814 0.18012 0.0
C426 C 0.55383 0.68284 0.34469 0.0
C427 C 0.5791 0.72614 0.36755 0.0
C428 C 0.48108 0.7206 0.40061 0.0
C429 C 0.45435 0.67897 0.37687 0.0
N430 N 0.46059 0.63198 0.32265 0.0
N431 N 0.56577 0.79276 0.41476 0.0
C432 C 0.48959 0.66312 0.34792 0.0
C433 C 0.54215 0.74709 0.39467 0.0
N434 N 0.59162 0.66034 0.3199 0.0
N435 N 0.44992 0.73253 0.42969 0.0
H436 H 0.61199 0.80959 0.41259 0.0
H437 H 0.53875 0.81656 0.4323 0.0
H438 H 0.40435 0.71701 0.43498 0.0
H439 H 0.47062 0.75503 0.44973 0.0
H440 H 0.57889 0.62341 0.30455 0.0
H441 H 0.63795 0.67574 0.31616 0.0
H442 H 0.48145 0.62458 0.29958 0.0
H443 H 0.41309 0.61888 0.32341 0.0
C444 C 0.81118 0.04963 0.65723 0.0
C445 C 0.78868 0.06361 0.62525 0.0
C446 C 0.81502 0.95759 0.60647 0.0
C447 C 0.83909 0.94418 0.63836 0.0
N448 N 0.84397 0.96998 0.69627 0.0
N449 N 0.75277 0.02714 0.57227 0.0
C450 C 0.8319 0.988 0.66448 0.0
C451 C 0.785 1.01614 0.60081 0.0
N452 N 0.81416 0.0961 0.68031 0.0
N453 N 0.8242 0.91618 0.58117 0.0
H454 H 0.73064 0.06952 0.56744 0.0
H455 H 0.74298 0.9927 0.55485 0.0
H456 H 0.84492 0.87249 0.58455 0.0
H457 H 0.81477 0.92647 0.5565 0.0
H458 H 0.83671 0.09142 0.70299 0.0
H459 H 0.79642 0.14082 0.67591 0.0
H460 H 0.83509 0.99791 0.71685 0.0
H461 H 0.85707 0.92442 0.70229 0.0
C462 C 0.51483 0.27513 0.89531 0.0
C463 C 0.47875 0.29808 0.86848 0.0
C464 C 0.56797 0.3645 0.85121 0.0
C465 C 0.60046 0.34821 0.88061 0.0
N466 N 0.60405 0.29074 0.93193 0.0
N467 N 0.46817 0.36616 0.82165 0.0
C468 C 0.57408 0.30359 0.90284 0.0
C469 C 0.50489 0.34279 0.84641 0.0
N470 N 0.49276 0.22518 0.91309 0.0
N471 N 0.59807 0.4001 0.82777 0.0
H472 H 0.42183 0.35104 0.81779 0.0
H473 H 0.48164 0.40332 0.80648 0.0
H474 H 0.64463 0.41556 0.83049 0.0
H475 H 0.57945 0.40951 0.80452 0.0
H476 H 0.51931 0.20186 0.93082 0.0
H477 H 0.44951 0.2037 0.90811 0.0
H478 H 0.5837 0.26457 0.95099 0.0
H479 H 0.64821 0.30932 0.93788 0.0
C480 C 0.67995 0.47164 0.62709 0.0
C481 C 0.7241 0.43337 0.60991 0.0
C482 C 0.78384 0.527 0.59297 0.0
C483 C 0.74462 0.56394 0.6136 0.0
N484 N 0.65841 0.5727 0.6522 0.0
N485 N 0.81884 0.42349 0.57665 0.0
C486 C 0.69297 0.5367 0.63089 0.0
C487 C 0.7762 0.46083 0.59275 0.0
N488 N 0.62558 0.44588 0.63962 0.0
N489 N 0.82775 0.55599 0.5732 0.0
H490 H 0.81291 0.37531 0.57429 0.0
H491 H 0.86166 0.43951 0.56695 0.0
H492 H 0.83333 0.60448 0.57279 0.0
H493 H 0.85481 0.53318 0.55535 0.0
H494 H 0.58861 0.47209 0.64952 0.0
H495 H 0.61517 0.39836 0.63784 0.0
H496 H 0.62471 0.55479 0.6686 0.0
H497 H 0.66647 0.62055 0.65492 0.0
C498 C 0.06511 0.16925 0.88173 0.0
C499 C 0.10015 0.18552 0.85284 0.0
C500 C 1.01708 0.26012 0.83743 0.0
C501 C 0.97866 0.23755 0.86379 0.0
N502 N 0.96322 0.16893 0.91015 0.0
N503 N 0.10821 0.2433 0.80166 0.0
C504 C 1.00221 0.192 0.88591 0.0
C505 C 0.07618 0.23076 0.83044 0.0
N506 N 0.09266 0.13276 0.90536 0.0
N507 N 0.99736 0.31059 0.81958 0.0
H508 H 0.15215 0.22389 0.79597 0.0
H509 H 0.08963 0.26996 0.78249 0.0
H510 H 0.95422 0.33263 0.82412 0.0
H511 H 1.02565 0.3337 0.80223 0.0
H512 H 0.07215 0.12333 0.92833 0.0
H513 H 0.13897 0.11643 0.9031 0.0
H514 H 0.97472 0.13132 0.9253 0.0
H515 H 0.91701 0.18482 0.91354 0.0
C516 C 0.36257 0.57664 0.1436 0.0
C517 C 0.36027 0.60537 0.11181 0.0
C518 C 0.30813 0.51122 0.08957 0.0
C519 C 0.30952 0.4835 0.12133 0.0
N520 N 0.32459 0.4937 0.1799 0.0
N521 N 0.31943 0.60451 0.05593 0.0
C522 C 0.33289 0.51744 0.14874 0.0
C523 C 0.3291 0.57423 0.08527 0.0
N524 N 0.39353 0.60568 0.16892 0.0
N525 N 0.28933 0.47593 0.06323 0.0
H526 H 0.33523 0.64968 0.05106 0.0
H527 H 0.29116 0.5868 0.03713 0.0
H528 H 0.27342 0.42995 0.06586 0.0
H529 H 0.29385 0.49017 0.03868 0.0
H530 H 0.4041 0.5839 0.19125 0.0
H531 H 0.41146 0.65097 0.16718 0.0
H532 H 0.33402 0.51861 0.20143 0.0
H533 H 0.30257 0.45078 0.18436 0.0
C534 C 0.96561 0.7849 0.3412 0.0
C535 C 0.94306 0.83426 0.36185 0.0
C536 C 0.05127 0.8508 0.38276 0.0
C537 C 0.07252 0.79939 0.36364 0.0
N538 N 0.05569 0.72592 0.31999 0.0
N539 N 0.96386 0.91389 0.40278 0.0
C540 C 0.03112 0.76885 0.34154 0.0
C541 C 0.98593 0.86742 0.38258 0.0
N542 N 0.92394 0.75103 0.32263 0.0
N543 N 0.09418 0.88471 0.40048 0.0
H544 H 0.91805 0.93131 0.40163 0.0
H545 H 0.98981 0.93404 0.42178 0.0
H546 H 0.14142 0.87188 0.40273 0.0
H547 H 0.08442 0.92726 0.41178 0.0
H548 H 0.93545 0.70987 0.31035 0.0
H549 H 0.87619 0.7618 0.32063 0.0
H550 H 0.03059 0.70557 0.30074 0.0
H551 H 0.10357 0.7141 0.31971 0.0
C552 C 0.91242 0.05502 0.22783 0.0
C553 C 0.90896 0.06353 0.26255 0.0
C554 C 0.98732 0.14808 0.25902 0.0
C555 C 0.98797 0.14185 0.22439 0.0
N556 N 0.96552 0.08124 0.17604 0.0
N557 N 0.95181 0.10655 0.31236 0.0
C558 C 0.95547 0.09202 0.20894 0.0
C559 C 0.94998 0.10619 0.27859 0.0
N560 N 0.87132 1.01484 0.21282 0.0
N561 N 1.0195 0.19747 0.2719 0.0
H562 H 0.92436 0.07587 0.32661 0.0
H563 H 0.98338 0.13313 0.32612 0.0
H564 H 1.01939 0.20984 0.29684 0.0
H565 H 1.01939 0.20984 0.29684 0.0
H566 H 0.86642 1.01121 0.18728 0.0
H567 H 0.83927 0.98718 0.22606 0.0
H568 H 0.9478 0.04259 0.16349 0.0
H569 H 0.99642 0.10873 0.16193 0.0
C570 C 0.44963 0.44642 0.53243 0.0
C571 C 0.49639 0.41511 0.51363 0.0
C572 C 0.47245 0.47981 0.46544 0.0
C573 C 0.41825 0.50231 0.48226 0.0
N574 N 0.35909 0.51657 0.53231 0.0
N575 N 0.55751 0.40347 0.46384 0.0
C576 C 0.40895 0.48946 0.5163 0.0
C577 C 0.51033 0.4334 0.48074 0.0
N578 N 0.44351 0.43301 0.56536 0.0
N579 N 0.48622 0.50218 0.43459 0.0
H580 H 0.58662 0.37049 0.47511 0.0
H581 H 0.56684 0.40957 0.43873 0.0
H582 H 0.45909 0.53694 0.42367 0.0
H583 H 0.5267 0.49073 0.42115 0.0
H584 H 0.41214 0.45535 0.58133 0.0
H585 H 0.47293 0.401 0.57717 0.0
H586 H 0.34513 0.50628 0.55644 0.0
H587 H 0.33144 0.55038 0.5208 0.0
C588 C 0.10657 0.93632 0.70619 0.0
C589 C 0.07165 0.88979 0.72349 0.0
C590 C 0.11176 0.92956 0.77596 0.0
C591 C 0.15501 0.96797 0.75821 0.0
N592 N 0.19593 1.00783 0.70673 0.0
N593 N 0.0404 0.8405 0.77451 0.0
C594 C 0.15224 0.97237 0.72337 0.0
C595 C 0.07301 0.88675 0.75842 0.0
N596 N 0.09603 0.9452 0.67323 0.0
N597 N 0.10842 0.93419 0.80962 0.0
H598 H 1.01114 0.80908 0.76217 0.0
H599 H 0.04491 0.83108 0.79966 0.0
H600 H 0.13666 0.96531 0.82285 0.0
H601 H 0.07439 0.91149 0.82405 0.0
H602 H 0.11586 0.98169 0.65955 0.0
H603 H 0.06277 0.91897 0.66026 0.0
H604 H 0.20105 1.00779 0.68109 0.0
H605 H 0.22996 0.0346 0.71883 0.0
C606 C 0.65006 0.55822 0.0133 0.0
C607 C 0.65052 0.56159 0.97832 0.0
C608 C 0.56435 0.63823 0.97973 0.0
C609 C 0.56611 0.6372 0.0147 0.0
N610 N 0.59826 0.58778 0.06498 0.0
N611 N 0.59952 0.59198 0.92792 0.0
C612 C 0.60467 0.59365 0.03149 0.0
C613 C 0.6043 0.59723 0.96147 0.0
N614 N 0.69564 0.52439 0.02897 0.0
N615 N 0.52751 0.68142 0.96419 0.0
H616 H 0.62905 0.56284 0.91412 0.0
H617 H 0.56363 0.61235 0.91413 0.0
H618 H 0.49685 0.71083 0.97713 0.0
H619 H 0.52918 0.69011 0.93885 0.0
H620 H 0.70234 0.52461 0.05445 0.0
H621 H 0.72919 0.49813 0.01607 0.0
H622 H 0.6214 0.55411 0.07898 0.0
H623 H 0.56532 0.614 0.07839 0.0
loop_
_geom_bond_atom_site_label_1
_geom_bond_atom_site_label_2
_geom_bond_distance
_geom_bond_site_symmetry_2
_ccdc_geom_bond_type
Co0 N4 2.148 . S
Co0 N10 2.128 . S
Co0 N20 2.194 . S
Co0 O25 2.351 . S
Co0 O26 2.155 . S
Co0 O27 2.096 . S
C1 N4 1.301 . S
C1 N5 1.328 . S
C1 H6 0.930 . S
C2 C3 1.333 . S
C2 N4 1.317 . S
C2 H7 0.930 . S
C3 C2 1.333 . S
C3 N5 1.350 . S
C3 H29 0.931 . S
N4 Co0 2.148 . S
N4 C1 1.301 . S
N4 C2 1.317 . S
N5 C1 1.328 . S
N5 C3 1.350 . S
H6 C1 0.930 . S
H7 C2 0.930 . S
C8 O9 1.224 . S
C8 O27 1.247 . S
O9 C8 1.224 . S
N10 Co0 2.128 . S
N10 C11 1.355 1_455 S
N10 C13 1.311 . S
C11 N10 1.355 1_655 S
C11 C12 1.363 . S
C11 H23 0.929 . S
C12 C11 1.363 . S
C12 N14 1.375 . S
C12 H30 0.931 . S
C13 N10 1.311 . S
C13 N14 1.347 1_455 S
C13 H24 0.929 . S
N14 C12 1.375 . S
N14 C13 1.347 1_655 S
C15 C18 1.365 1_455 S
C15 N20 1.328 . S
C15 H21 0.929 . S
C16 C17 1.362 1_455 S
C16 C19 1.378 . S
C16 H31 0.929 . S
C17 C16 1.362 1_655 S
C17 C18 1.366 . S
C18 C15 1.365 1_655 S
C18 C17 1.366 . S
C18 H32 0.930 . S
C19 C16 1.378 . S
C19 N20 1.315 . S
C19 H22 0.930 . S
N20 Co0 2.194 . S
N20 C15 1.328 . S
N20 C19 1.315 . S
H21 C15 0.929 . S
H22 C19 0.930 . S
H23 C11 0.929 . S
H24 C13 0.929 . S
O25 Co0 2.351 . S
O25 C28 1.244 . S
O26 Co0 2.155 . S
O26 C28 1.240 . S
O27 Co0 2.096 . S
O27 C8 1.247 . S
C28 O25 1.244 . S
C28 O26 1.240 . S
H29 C3 0.931 . S
H30 C12 0.931 . S
H31 C16 0.929 . S
H32 C18 0.930 . S
Co33 N37 2.148 . S
Co33 N43 2.128 . S
Co33 N53 2.194 . S
Co33 O58 2.351 . S
Co33 O59 2.155 . S
Co33 O60 2.096 . S
C34 N37 1.301 . S
C34 N38 1.328 . S
C34 H39 0.930 . S
C35 C36 1.333 . S
C35 N37 1.317 . S
C35 H40 0.930 . S
C36 C35 1.333 . S
C36 N38 1.350 . S
C36 H62 0.931 . S
N37 Co33 2.148 . S
N37 C34 1.301 . S
N37 C35 1.317 . S
N38 C34 1.328 . S
N38 C36 1.350 . S
H39 C34 0.930 . S
H40 C35 0.930 . S
C41 O42 1.224 . S
C41 O60 1.247 . S
O42 C41 1.224 . S
N43 Co33 2.128 . S
N43 C44 1.355 . S
N43 C46 1.311 . S
C44 N43 1.355 . S
C44 C45 1.363 . S
C44 H56 0.929 . S
C45 C44 1.363 . S
C45 N47 1.375 . S
C45 H63 0.931 . S
C46 N43 1.311 . S
C46 N47 1.347 . S
C46 H57 0.929 . S
N47 C45 1.375 . S
N47 C46 1.347 . S
C48 C51 1.365 . S
C48 N53 1.328 . S
C48 H54 0.929 . S
C49 C50 1.362 . S
C49 C52 1.378 . S
C49 H64 0.929 . S
C50 C49 1.362 . S
C50 C51 1.366 . S
C51 C48 1.365 . S
C51 C50 1.366 . S
C51 H65 0.930 . S
C52 C49 1.378 . S
C52 N53 1.315 . S
C52 H55 0.930 . S
N53 Co33 2.194 . S
N53 C48 1.328 . S
N53 C52 1.315 . S
H54 C48 0.929 . S
H55 C52 0.930 . S
H56 C44 0.929 . S
H57 C46 0.929 . S
O58 Co33 2.351 . S
O58 C61 1.244 . S
O59 Co33 2.155 . S
O59 C61 1.240 . S
O60 Co33 2.096 . S
O60 C41 1.247 . S
C61 O58 1.244 . S
C61 O59 1.240 . S
H62 C36 0.931 . S
H63 C45 0.931 . S
H64 C49 0.929 . S
H65 C51 0.930 . S
Co66 N70 2.148 . S
Co66 N76 2.128 . S
Co66 N86 2.194 . S
Co66 O91 2.351 . S
Co66 O92 2.155 . S
Co66 O93 2.096 . S
C67 N70 1.301 . S
C67 N71 1.328 . S
C67 H72 0.930 . S
C68 C69 1.333 . S
C68 N70 1.317 . S
C68 H73 0.930 . S
C69 C68 1.333 . S
C69 N71 1.350 . S
C69 H95 0.931 . S
N70 Co66 2.148 . S
N70 C67 1.301 . S
N70 C68 1.317 . S
N71 C67 1.328 . S
N71 C69 1.350 . S
H72 C67 0.930 . S
H73 C68 0.930 . S
C74 O75 1.224 . S
C74 O93 1.247 . S
O75 C74 1.224 . S
N76 Co66 2.128 . S
N76 C77 1.355 1_655 S
N76 C79 1.311 . S
C77 N76 1.355 1_455 S
C77 C78 1.363 . S
C77 H89 0.929 . S
C78 C77 1.363 . S
C78 N80 1.375 . S
C78 H96 0.931 . S
C79 N76 1.311 . S
C79 N80 1.347 1_655 S
C79 H90 0.929 . S
N80 C78 1.375 . S
N80 C79 1.347 1_455 S
C81 C84 1.365 1_655 S
C81 N86 1.328 . S
C81 H87 0.929 . S
C82 C83 1.362 1_655 S
C82 C85 1.378 . S
C82 H97 0.929 . S
C83 C82 1.362 1_455 S
C83 C84 1.366 . S
C84 C81 1.365 1_455 S
C84 C83 1.366 . S
C84 H98 0.930 . S
C85 C82 1.378 . S
C85 N86 1.315 . S
C85 H88 0.930 . S
N86 Co66 2.194 . S
N86 C81 1.328 . S
N86 C85 1.315 . S
H87 C81 0.929 . S
H88 C85 0.930 . S
H89 C77 0.929 . S
H90 C79 0.929 . S
O91 Co66 2.351 . S
O91 C94 1.244 . S
O92 Co66 2.155 . S
O92 C94 1.240 . S
O93 Co66 2.096 . S
O93 C74 1.247 . S
C94 O91 1.244 . S
C94 O92 1.240 . S
H95 C69 0.931 . S
H96 C78 0.931 . S
H97 C82 0.929 . S
H98 C84 0.930 . S
Co99 N103 2.148 . S
Co99 N109 2.128 . S
Co99 N119 2.194 . S
Co99 O124 2.351 . S
Co99 O125 2.155 . S
Co99 O126 2.096 . S
C100 N103 1.301 . S
C100 N104 1.328 . S
C100 H105 0.930 . S
C101 C102 1.333 . S
C101 N103 1.317 . S
C101 H106 0.930 . S
C102 C101 1.333 . S
C102 N104 1.350 . S
C102 H128 0.931 . S
N103 Co99 2.148 . S
N103 C100 1.301 . S
N103 C101 1.317 . S
N104 C100 1.328 . S
N104 C102 1.350 . S
H105 C100 0.930 . S
H106 C101 0.930 . S
C107 O108 1.224 . S
C107 O126 1.247 . S
O108 C107 1.224 . S
N109 Co99 2.128 . S
N109 C110 1.355 . S
N109 C112 1.311 . S
C110 N109 1.355 . S
C110 C111 1.363 . S
C110 H122 0.929 . S
C111 C110 1.363 . S
C111 N113 1.375 . S
C111 H129 0.931 . S
C112 N109 1.311 . S
C112 N113 1.347 . S
C112 H123 0.929 . S
N113 C111 1.375 . S
N113 C112 1.347 . S
C114 C117 1.365 . S
C114 N119 1.328 . S
C114 H120 0.929 . S
C115 C116 1.362 . S
C115 C118 1.378 . S
C115 H130 0.929 . S
C116 C115 1.362 . S
C116 C117 1.366 . S
C117 C114 1.365 . S
C117 C116 1.366 . S
C117 H131 0.930 . S
C118 C115 1.378 . S
C118 N119 1.315 . S
C118 H121 0.930 . S
N119 Co99 2.194 . S
N119 C114 1.328 . S
N119 C118 1.315 . S
H120 C114 0.929 . S
H121 C118 0.930 . S
H122 C110 0.929 . S
H123 C112 0.929 . S
O124 Co99 2.351 . S
O124 C127 1.244 . S
O125 Co99 2.155 . S
O125 C127 1.240 . S
O126 Co99 2.096 . S
O126 C107 1.247 . S
C127 O124 1.244 . S
C127 O125 1.240 . S
H128 C102 0.931 . S
H129 C111 0.931 . S
H130 C115 0.929 . S
H131 C117 0.930 . S
Co132 N136 2.148 . S
Co132 N142 2.128 . S
Co132 N152 2.194 . S
Co132 O157 2.351 . S
Co132 O158 2.155 . S
Co132 O159 2.096 . S
C133 N136 1.301 . S
C133 N137 1.328 . S
C133 H138 0.930 . S
C134 C135 1.333 . S
C134 N136 1.317 . S
C134 H139 0.930 . S
C135 C134 1.333 . S
C135 N137 1.350 . S
C135 H161 0.931 . S
N136 Co132 2.148 . S
N136 C133 1.301 . S
N136 C134 1.317 . S
N137 C133 1.328 . S
N137 C135 1.350 . S
H138 C133 0.930 . S
H139 C134 0.930 . S
C140 O141 1.224 . S
C140 O159 1.247 . S
O141 C140 1.224 . S
N142 Co132 2.128 . S
N142 C143 1.355 . S
N142 C145 1.311 . S
C143 N142 1.355 . S
C143 C144 1.363 . S
C143 H155 0.929 . S
C144 C143 1.363 . S
C144 N146 1.375 . S
C144 H162 0.931 . S
C145 N142 1.311 . S
C145 N146 1.347 . S
C145 H156 0.929 . S
N146 C144 1.375 . S
N146 C145 1.347 . S
C147 C150 1.365 . S
C147 N152 1.328 . S
C147 H153 0.929 . S
C148 C149 1.362 . S
C148 C151 1.378 . S
C148 H163 0.929 . S
C149 C148 1.362 . S
C149 C150 1.366 . S
C150 C147 1.365 . S
C150 C149 1.366 . S
C150 H164 0.930 . S
C151 C148 1.378 . S
C151 N152 1.315 . S
C151 H154 0.930 . S
N152 Co132 2.194 . S
N152 C147 1.328 . S
N152 C151 1.315 . S
H153 C147 0.929 . S
H154 C151 0.930 . S
H155 C143 0.929 . S
H156 C145 0.929 . S
O157 Co132 2.351 . S
O157 C160 1.244 . S
O158 Co132 2.155 . S
O158 C160 1.240 . S
O159 Co132 2.096 . S
O159 C140 1.247 . S
C160 O157 1.244 . S
C160 O158 1.240 . S
H161 C135 0.931 . S
H162 C144 0.931 . S
H163 C148 0.929 . S
H164 C150 0.930 . S
Co165 N169 2.148 . S
Co165 N175 2.128 . S
Co165 N185 2.194 . S
Co165 O190 2.351 . S
Co165 O191 2.155 . S
Co165 O192 2.096 . S
C166 N169 1.301 . S
C166 N170 1.328 . S
C166 H171 0.930 . S
C167 C168 1.333 . S
C167 N169 1.317 . S
C167 H172 0.930 . S
C168 C167 1.333 . S
C168 N170 1.350 . S
C168 H194 0.931 . S
N169 Co165 2.148 . S
N169 C166 1.301 . S
N169 C167 1.317 . S
N170 C166 1.328 . S
N170 C168 1.350 . S
H171 C166 0.930 . S
H172 C167 0.930 . S
C173 O174 1.224 . S
C173 O192 1.247 . S
O174 C173 1.224 . S
N175 Co165 2.128 . S
N175 C176 1.355 1_545 S
N175 C178 1.311 . S
C176 N175 1.355 1_565 S
C176 C177 1.363 . S
C176 H188 0.929 . S
C177 C176 1.363 . S
C177 N179 1.375 . S
C177 H195 0.931 . S
C178 N175 1.311 . S
C178 N179 1.347 1_545 S
C178 H189 0.929 . S
N179 C177 1.375 . S
N179 C178 1.347 1_565 S
C180 C183 1.365 1_545 S
C180 N185 1.328 . S
C180 H186 0.929 . S
C181 C182 1.362 1_545 S
C181 C184 1.378 . S
C181 H196 0.929 . S
C182 C181 1.362 1_565 S
C182 C183 1.366 . S
C183 C180 1.365 1_565 S
C183 C182 1.366 . S
C183 H197 0.930 . S
C184 C181 1.378 . S
C184 N185 1.315 . S
C184 H187 0.930 . S
N185 Co165 2.194 . S
N185 C180 1.328 . S
N185 C184 1.315 . S
H186 C180 0.929 . S
H187 C184 0.930 . S
H188 C176 0.929 . S
H189 C178 0.929 . S
O190 Co165 2.351 . S
O190 C193 1.244 . S
O191 Co165 2.155 . S
O191 C193 1.240 . S
O192 Co165 2.096 . S
O192 C173 1.247 . S
C193 O190 1.244 . S
C193 O191 1.240 . S
H194 C168 0.931 . S
H195 C177 0.931 . S
H196 C181 0.929 . S
H197 C183 0.930 . S
Co198 N202 2.148 . S
Co198 N208 2.128 . S
Co198 N218 2.194 . S
Co198 O223 2.351 . S
Co198 O224 2.155 . S
Co198 O225 2.096 . S
C199 N202 1.301 . S
C199 N203 1.328 . S
C199 H204 0.930 . S
C200 C201 1.333 . S
C200 N202 1.317 . S
C200 H205 0.930 . S
C201 C200 1.333 . S
C201 N203 1.350 . S
C201 H227 0.931 . S
N202 Co198 2.148 . S
N202 C199 1.301 . S
N202 C200 1.317 . S
N203 C199 1.328 . S
N203 C201 1.350 . S
H204 C199 0.930 . S
H205 C200 0.930 . S
C206 O207 1.224 . S
C206 O225 1.247 . S
O207 C206 1.224 . S
N208 Co198 2.128 . S
N208 C209 1.355 . S
N208 C211 1.311 . S
C209 N208 1.355 . S
C209 C210 1.363 . S
C209 H221 0.929 . S
C210 C209 1.363 . S
C210 N212 1.375 . S
C210 H228 0.931 . S
C211 N208 1.311 . S
C211 N212 1.347 . S
C211 H222 0.929 . S
N212 C210 1.375 . S
N212 C211 1.347 . S
C213 C216 1.365 . S
C213 N218 1.328 . S
C213 H219 0.929 . S
C214 C215 1.362 . S
C214 C217 1.378 . S
C214 H229 0.929 . S
C215 C214 1.362 . S
C215 C216 1.366 . S
C216 C213 1.365 . S
C216 C215 1.366 . S
C216 H230 0.930 . S
C217 C214 1.378 . S
C217 N218 1.315 . S
C217 H220 0.930 . S
N218 Co198 2.194 . S
N218 C213 1.328 . S
N218 C217 1.315 . S
H219 C213 0.929 . S
H220 C217 0.930 . S
H221 C209 0.929 . S
H222 C211 0.929 . S
O223 Co198 2.351 . S
O223 C226 1.244 . S
O224 Co198 2.155 . S
O224 C226 1.240 . S
O225 Co198 2.096 . S
O225 C206 1.247 . S
C226 O223 1.244 . S
C226 O224 1.240 . S
H227 C201 0.931 . S
H228 C210 0.931 . S
H229 C214 0.929 . S
H230 C216 0.930 . S
Co231 N235 2.148 . S
Co231 N241 2.128 . S
Co231 N251 2.194 . S
Co231 O256 2.351 . S
Co231 O257 2.155 . S
Co231 O258 2.096 . S
C232 N235 1.301 . S
C232 N236 1.328 . S
C232 H237 0.930 . S
C233 C234 1.333 . S
C233 N235 1.317 . S
C233 H238 0.930 . S
C234 C233 1.333 . S
C234 N236 1.350 . S
C234 H260 0.931 . S
N235 Co231 2.148 . S
N235 C232 1.301 . S
N235 C233 1.317 . S
N236 C232 1.328 . S
N236 C234 1.350 . S
H237 C232 0.930 . S
H238 C233 0.930 . S
C239 O240 1.224 . S
C239 O258 1.247 . S
O240 C239 1.224 . S
N241 Co231 2.128 . S
N241 C242 1.355 1_565 S
N241 C244 1.311 . S
C242 N241 1.355 1_545 S
C242 C243 1.363 . S
C242 H254 0.929 . S
C243 C242 1.363 . S
C243 N245 1.375 . S
C243 H261 0.931 . S
C244 N241 1.311 . S
C244 N245 1.347 1_565 S
C244 H255 0.929 . S
N245 C243 1.375 . S
N245 C244 1.347 1_545 S
C246 C249 1.365 1_565 S
C246 N251 1.328 . S
C246 H252 0.929 . S
C247 C248 1.362 1_565 S
C247 C250 1.378 . S
C247 H262 0.929 . S
C248 C247 1.362 1_545 S
C248 C249 1.366 . S
C249 C246 1.365 1_545 S
C249 C248 1.366 . S
C249 H263 0.930 . S
C250 C247 1.378 . S
C250 N251 1.315 . S
C250 H253 0.930 . S
N251 Co231 2.194 . S
N251 C246 1.328 . S
N251 C250 1.315 . S
H252 C246 0.929 . S
H253 C250 0.930 . S
H254 C242 0.929 . S
H255 C244 0.929 . S
O256 Co231 2.351 . S
O256 C259 1.244 . S
O257 Co231 2.155 . S
O257 C259 1.240 . S
O258 Co231 2.096 . S
O258 C239 1.247 . S
C259 O256 1.244 . S
C259 O257 1.240 . S
H260 C234 0.931 . S
H261 C243 0.931 . S
H262 C247 0.929 . S
H263 C249 0.930 . S
C264 C265 1.363 . S
C264 C270 1.379 . S
C264 N272 1.356 . S
C265 C264 1.363 . S
C265 C271 1.363 . S
C266 C267 1.363 . S
C266 C271 1.379 . S
C266 N273 1.356 . S
C267 C266 1.363 . S
C267 C270 1.363 . S
N268 C270 1.356 . S
N268 H280 0.984 . S
N268 H281 0.985 . S
N269 C271 1.356 . S
N269 H274 0.984 . S
N269 H275 0.985 . S
C270 C264 1.379 . S
C270 C267 1.363 . S
C270 N268 1.356 . S
C271 C265 1.363 . S
C271 C266 1.379 . S
C271 N269 1.356 . S
N272 C264 1.356 . S
N272 H278 0.984 . S
N272 H279 0.984 . S
N273 C266 1.356 . S
N273 H276 0.984 . S
N273 H277 0.985 . S
H274 N269 0.984 . S
H275 N269 0.985 . S
H276 N273 0.984 . S
H277 N273 0.985 . S
H278 N272 0.984 . S
H279 N272 0.984 . S
H280 N268 0.984 . S
H281 N268 0.985 . S
C282 C283 1.363 . S
C282 C288 1.379 . S
C282 N290 1.356 . S
C283 C282 1.363 . S
C283 C289 1.363 . S
C284 C285 1.363 . S
C284 C289 1.379 . S
C284 N291 1.356 . S
C285 C284 1.363 . S
C285 C288 1.363 . S
N286 C288 1.356 . S
N286 H298 0.984 . S
N286 H299 0.985 . S
N287 C289 1.356 . S
N287 H292 0.984 1_455 S
N287 H293 0.985 1_455 S
C288 C282 1.379 . S
C288 C285 1.363 . S
C288 N286 1.356 . S
C289 C283 1.363 . S
C289 C284 1.379 . S
C289 N287 1.356 . S
N290 C282 1.356 . S
N290 H296 0.984 . S
N290 H297 0.984 . S
N291 C284 1.356 . S
N291 H294 0.984 . S
N291 H295 0.985 . S
H292 N287 0.984 1_655 S
H293 N287 0.985 1_655 S
H294 N291 0.984 . S
H295 N291 0.985 . S
H296 N290 0.984 . S
H297 N290 0.984 . S
H298 N286 0.984 . S
H299 N286 0.985 . S
C300 C301 1.363 . S
C300 C306 1.379 . S
C300 N308 1.356 . S
C301 C300 1.363 . S
C301 C307 1.363 . S
C302 C303 1.363 . S
C302 C307 1.379 . S
C302 N309 1.356 . S
C303 C302 1.363 . S
C303 C306 1.363 . S
N304 C306 1.356 . S
N304 H316 0.984 . S
N304 H317 0.985 . S
N305 C307 1.356 . S
N305 H310 0.984 . S
N305 H311 0.985 . S
C306 C300 1.379 . S
C306 C303 1.363 . S
C306 N304 1.356 . S
C307 C301 1.363 . S
C307 C302 1.379 . S
C307 N305 1.356 . S
N308 C300 1.356 . S
N308 H314 0.984 . S
N308 H315 0.984 . S
N309 C302 1.356 . S
N309 H312 0.984 . S
N309 H313 0.985 . S
H310 N305 0.984 . S
H311 N305 0.985 . S
H312 N309 0.984 . S
H313 N309 0.985 . S
H314 N308 0.984 . S
H315 N308 0.984 . S
H316 N304 0.984 . S
H317 N304 0.985 . S
C318 C319 1.363 1_554 S
C318 C324 1.379 . S
C318 N326 1.356 1_554 S
C319 C318 1.363 1_556 S
C319 C325 1.363 1_556 S
C320 C321 1.363 . S
C320 C325 1.379 . S
C320 N327 1.356 1_655 S
C321 C320 1.363 . S
C321 C324 1.363 . S
N322 C324 1.356 . S
N322 H334 0.984 . S
N322 H335 0.985 . S
N323 C325 1.356 1_556 S
N323 H328 0.984 . S
N323 H329 0.985 . S
C324 C318 1.379 . S
C324 C321 1.363 . S
C324 N322 1.356 . S
C325 C319 1.363 1_554 S
C325 C320 1.379 . S
C325 N323 1.356 1_554 S
N326 C318 1.356 1_556 S
N326 H332 0.984 . S
N326 H333 0.984 . S
N327 C320 1.356 1_455 S
N327 H330 0.984 . S
N327 H331 0.985 . S
H328 N323 0.984 . S
H329 N323 0.985 . S
H330 N327 0.984 . S
H331 N327 0.985 . S
H332 N326 0.984 . S
H333 N326 0.984 . S
H334 N322 0.984 . S
H335 N322 0.985 . S
C336 C337 1.363 . S
C336 C342 1.379 . S
C336 N344 1.356 . S
C337 C336 1.363 . S
C337 C343 1.363 . S
C338 C339 1.363 . S
C338 C343 1.379 . S
C338 N345 1.346 1_545 S
C339 C338 1.363 . S
C339 C342 1.363 . S
N340 C342 1.356 . S
N340 H352 0.984 . S
N340 H353 0.985 . S
N341 C343 1.356 . S
N341 H346 0.984 . S
N341 H347 0.985 . S
C342 C336 1.379 . S
C342 C339 1.363 . S
C342 N340 1.356 . S
C343 C337 1.363 . S
C343 C338 1.379 . S
C343 N341 1.356 . S
N344 C336 1.356 . S
N344 H350 0.984 . S
N344 H351 0.984 . S
N345 C338 1.346 1_565 S
N345 H348 0.988 . S
N345 H349 0.992 . S
H346 N341 0.984 . S
H347 N341 0.985 . S
H348 N345 0.988 . S
H349 N345 0.992 . S
H350 N344 0.984 . S
H351 N344 0.984 . S
H352 N340 0.984 . S
H353 N340 0.985 . S
C354 C355 1.363 . S
C354 C360 1.379 . S
C354 N362 1.356 . S
C355 C354 1.363 . S
C355 C361 1.363 . S
C356 C357 1.363 . S
C356 C361 1.379 . S
C356 N363 1.356 . S
C357 C356 1.363 . S
C357 C360 1.363 . S
N358 C360 1.356 . S
N358 H370 0.984 . S
N358 H371 0.985 . S
N359 C361 1.356 . S
N359 H364 0.984 . S
N359 H365 0.985 . S
C360 C354 1.379 . S
C360 C357 1.363 . S
C360 N358 1.356 . S
C361 C355 1.363 . S
C361 C356 1.379 . S
C361 N359 1.356 . S
N362 C354 1.356 . S
N362 H368 0.984 . S
N362 H369 0.984 . S
N363 C356 1.356 . S
N363 H366 0.984 . S
N363 H367 0.985 . S
H364 N359 0.984 . S
H365 N359 0.985 . S
H366 N363 0.984 . S
H367 N363 0.985 . S
H368 N362 0.984 . S
H369 N362 0.984 . S
H370 N358 0.984 . S
H371 N358 0.985 . S
C372 C373 1.363 1_556 S
C372 C378 1.379 . S
C372 N380 1.356 . S
C373 C372 1.363 1_554 S
C373 C379 1.363 . S
C374 C375 1.363 . S
C374 C379 1.379 1_556 S
C374 N381 1.356 1_565 S
C375 C374 1.363 . S
C375 C378 1.363 . S
N376 C378 1.356 . S
N376 H388 0.984 . S
N376 H389 0.985 . S
N377 C379 1.356 . S
N377 H382 0.984 . S
N377 H383 0.985 . S
C378 C372 1.379 . S
C378 C375 1.363 . S
C378 N376 1.356 . S
C379 C373 1.363 . S
C379 C374 1.379 1_554 S
C379 N377 1.356 . S
N380 C372 1.356 . S
N380 H386 0.984 . S
N380 H387 0.984 1_556 S
N381 C374 1.356 1_545 S
N381 H384 0.984 . S
N381 H385 0.985 . S
H382 N377 0.984 . S
H383 N377 0.985 . S
H384 N381 0.984 . S
H385 N381 0.985 . S
H386 N380 0.984 . S
H387 N380 0.984 1_554 S
H388 N376 0.984 . S
H389 N376 0.985 . S
C390 C391 1.363 . S
C390 C396 1.379 . S
C390 N398 1.356 . S
C391 C390 1.363 . S
C391 C397 1.363 . S
C392 C393 1.363 . S
C392 C397 1.379 . S
C392 N399 1.356 . S
C393 C392 1.363 . S
C393 C396 1.363 . S
N394 C396 1.356 . S
N394 H406 0.984 . S
N394 H407 0.985 . S
N395 C397 1.356 . S
N395 H400 0.984 . S
N395 H401 0.985 1_565 S
C396 C390 1.379 . S
C396 C393 1.363 . S
C396 N394 1.356 . S
C397 C391 1.363 . S
C397 C392 1.379 . S
C397 N395 1.356 . S
N398 C390 1.356 . S
N398 H404 0.984 . S
N398 H405 0.984 . S
N399 C392 1.356 . S
N399 H402 0.984 . S
N399 H403 0.985 . S
H400 N395 0.984 . S
H401 N395 0.985 1_545 S
H402 N399 0.984 . S
H403 N399 0.985 . S
H404 N398 0.984 . S
H405 N398 0.984 . S
H406 N394 0.984 . S
H407 N394 0.985 . S
C408 C409 1.363 . S
C408 C414 1.379 1_565 S
C408 N416 1.356 . S
C409 C408 1.363 . S
C409 C415 1.363 1_565 S
C410 C411 1.363 . S
C410 C415 1.379 . S
C410 N417 1.356 . S
C411 C410 1.363 . S
C411 C414 1.363 . S
N412 C414 1.356 . S
N412 H424 0.984 . S
N412 H425 0.985 . S
N413 C415 1.356 1_565 S
N413 H418 0.984 . S
N413 H419 0.985 1_565 S
C414 C408 1.379 1_545 S
C414 C411 1.363 . S
C414 N412 1.356 . S
C415 C409 1.363 1_545 S
C415 C410 1.379 . S
C415 N413 1.356 1_545 S
N416 C408 1.356 . S
N416 H422 0.984 . S
N416 H423 0.984 . S
N417 C410 1.356 . S
N417 H420 0.984 . S
N417 H421 0.985 . S
H418 N413 0.984 . S
H419 N413 0.985 1_545 S
H420 N417 0.984 . S
H421 N417 0.985 . S
H422 N416 0.984 . S
H423 N416 0.984 . S
H424 N412 0.984 . S
H425 N412 0.985 . S
C426 C427 1.363 . S
C426 C432 1.379 . S
C426 N434 1.356 . S
C427 C426 1.363 . S
C427 C433 1.363 . S
C428 C429 1.363 . S
C428 C433 1.379 . S
C428 N435 1.356 . S
C429 C428 1.363 . S
C429 C432 1.363 . S
N430 C432 1.356 . S
N430 H442 0.984 . S
N430 H443 0.985 . S
N431 C433 1.356 . S
N431 H436 0.984 . S
N431 H437 0.985 . S
C432 C426 1.379 . S
C432 C429 1.363 . S
C432 N430 1.356 . S
C433 C427 1.363 . S
C433 C428 1.379 . S
C433 N431 1.356 . S
N434 C426 1.356 . S
N434 H440 0.984 . S
N434 H441 0.984 . S
N435 C428 1.356 . S
N435 H438 0.984 . S
N435 H439 0.985 . S
H436 N431 0.984 . S
H437 N431 0.985 . S
H438 N435 0.984 . S
H439 N435 0.985 . S
H440 N434 0.984 . S
H441 N434 0.984 . S
H442 N430 0.984 . S
H443 N430 0.985 . S
C444 C445 1.363 . S
C444 C450 1.379 1_545 S
C444 N452 1.356 . S
C445 C444 1.363 . S
C445 C451 1.363 1_545 S
C446 C447 1.363 . S
C446 C451 1.379 . S
C446 N453 1.356 . S
C447 C446 1.363 . S
C447 C450 1.363 . S
N448 C450 1.356 . S
N448 H460 0.984 . S
N448 H461 0.985 . S
N449 C451 1.356 1_545 S
N449 H454 0.984 . S
N449 H455 0.985 1_545 S
C450 C444 1.379 1_565 S
C450 C447 1.363 . S
C450 N448 1.356 . S
C451 C445 1.363 1_565 S
C451 C446 1.379 . S
C451 N449 1.356 1_565 S
N452 C444 1.356 . S
N452 H458 0.984 . S
N452 H459 0.984 . S
N453 C446 1.356 . S
N453 H456 0.984 . S
N453 H457 0.985 . S
H454 N449 0.984 . S
H455 N449 0.985 1_565 S
H456 N453 0.984 . S
H457 N453 0.985 . S
H458 N452 0.984 . S
H459 N452 0.984 . S
H460 N448 0.984 . S
H461 N448 0.985 . S
C462 C463 1.363 . S
C462 C468 1.379 . S
C462 N470 1.356 . S
C463 C462 1.363 . S
C463 C469 1.363 . S
C464 C465 1.363 . S
C464 C469 1.379 . S
C464 N471 1.356 . S
C465 C464 1.363 . S
C465 C468 1.363 . S
N466 C468 1.356 . S
N466 H478 0.984 . S
N466 H479 0.985 . S
N467 C469 1.356 . S
N467 H472 0.984 . S
N467 H473 0.985 . S
C468 C462 1.379 . S
C468 C465 1.363 . S
C468 N466 1.356 . S
C469 C463 1.363 . S
C469 C464 1.379 . S
C469 N467 1.356 . S
N470 C462 1.356 . S
N470 H476 0.984 . S
N470 H477 0.984 . S
N471 C464 1.356 . S
N471 H474 0.984 . S
N471 H475 0.985 . S
H472 N467 0.984 . S
H473 N467 0.985 . S
H474 N471 0.984 . S
H475 N471 0.985 . S
H476 N470 0.984 . S
H477 N470 0.984 . S
H478 N466 0.984 . S
H479 N466 0.985 . S
C480 C481 1.363 . S
C480 C486 1.379 . S
C480 N488 1.356 . S
C481 C480 1.363 . S
C481 C487 1.363 . S
C482 C483 1.363 . S
C482 C487 1.379 . S
C482 N489 1.356 . S
C483 C482 1.363 . S
C483 C486 1.363 . S
N484 C486 1.356 . S
N484 H496 0.984 . S
N484 H497 0.985 . S
N485 C487 1.356 . S
N485 H490 0.984 . S
N485 H491 0.985 . S
C486 C480 1.379 . S
C486 C483 1.363 . S
C486 N484 1.356 . S
C487 C481 1.363 . S
C487 C482 1.379 . S
C487 N485 1.356 . S
N488 C480 1.356 . S
N488 H494 0.984 . S
N488 H495 0.984 . S
N489 C482 1.356 . S
N489 H492 0.984 . S
N489 H493 0.985 . S
H490 N485 0.984 . S
H491 N485 0.985 . S
H492 N489 0.984 . S
H493 N489 0.985 . S
H494 N488 0.984 . S
H495 N488 0.984 . S
H496 N484 0.984 . S
H497 N484 0.985 . S
C498 C499 1.363 . S
C498 C504 1.379 . S
C498 N506 1.356 . S
C499 C498 1.363 . S
C499 C505 1.363 . S
C500 C501 1.363 1_455 S
C500 C505 1.379 . S
C500 N507 1.356 1_455 S
C501 C500 1.363 1_655 S
C501 C504 1.363 1_655 S
N502 C504 1.356 1_655 S
N502 H514 0.984 . S
N502 H515 0.985 . S
N503 C505 1.356 . S
N503 H508 0.984 . S
N503 H509 0.985 . S
C504 C498 1.379 . S
C504 C501 1.363 1_455 S
C504 N502 1.356 1_455 S
C505 C499 1.363 . S
C505 C500 1.379 . S
C505 N503 1.356 . S
N506 C498 1.356 . S
N506 H512 0.984 . S
N506 H513 0.984 . S
N507 C500 1.356 1_655 S
N507 H510 0.984 . S
N507 H511 0.985 . S
H508 N503 0.984 . S
H509 N503 0.985 . S
H510 N507 0.984 . S
H511 N507 0.985 . S
H512 N506 0.984 . S
H513 N506 0.984 . S
H514 N502 0.984 . S
H515 N502 0.985 . S
C516 C517 1.363 . S
C516 C522 1.379 . S
C516 N524 1.356 . S
C517 C516 1.363 . S
C517 C523 1.363 . S
C518 C519 1.363 . S
C518 C523 1.379 . S
C518 N525 1.356 . S
C519 C518 1.363 . S
C519 C522 1.363 . S
N520 C522 1.356 . S
N520 H532 0.984 . S
N520 H533 0.985 . S
N521 C523 1.356 . S
N521 H526 0.984 . S
N521 H527 0.985 . S
C522 C516 1.379 . S
C522 C519 1.363 . S
C522 N520 1.356 . S
C523 C517 1.363 . S
C523 C518 1.379 . S
C523 N521 1.356 . S
N524 C516 1.356 . S
N524 H530 0.984 . S
N524 H531 0.984 . S
N525 C518 1.356 . S
N525 H528 0.984 . S
N525 H529 0.985 . S
H526 N521 0.984 . S
H527 N521 0.985 . S
H528 N525 0.984 . S
H529 N525 0.985 . S
H530 N524 0.984 . S
H531 N524 0.984 . S
H532 N520 0.984 . S
H533 N520 0.985 . S
C534 C535 1.363 . S
C534 C540 1.379 . S
C534 N542 1.356 . S
C535 C534 1.363 . S
C535 C541 1.363 . S
C536 C537 1.363 1_655 S
C536 C541 1.379 . S
C536 N543 1.356 1_655 S
C537 C536 1.363 1_455 S
C537 C540 1.363 1_455 S
N538 C540 1.356 1_455 S
N538 H550 0.984 . S
N538 H551 0.985 . S
N539 C541 1.356 . S
N539 H544 0.984 . S
N539 H545 0.985 . S
C540 C534 1.379 . S
C540 C537 1.363 1_655 S
C540 N538 1.356 1_655 S
C541 C535 1.363 . S
C541 C536 1.379 . S
C541 N539 1.356 . S
N542 C534 1.356 . S
N542 H548 0.984 . S
N542 H549 0.984 . S
N543 C536 1.356 1_455 S
N543 H546 0.984 . S
N543 H547 0.985 . S
H544 N539 0.984 . S
H545 N539 0.985 . S
H546 N543 0.984 . S
H547 N543 0.985 . S
H548 N542 0.984 . S
H549 N542 0.984 . S
H550 N538 0.984 . S
H551 N538 0.985 . S
C552 C553 1.363 . S
C552 C558 1.379 . S
C552 N560 1.356 1_545 S
C553 C552 1.363 . S
C553 C559 1.363 . S
C554 C555 1.363 . S
C554 C559 1.379 . S
C554 N561 1.356 . S
C555 C554 1.363 . S
C555 C558 1.363 . S
N556 C558 1.356 1_455 S
N556 H568 0.984 1_545 S
N556 H569 0.985 . S
N557 C559 1.356 . S
N557 H562 0.984 . S
N557 H563 0.985 . S
C558 C552 1.379 . S
C558 C555 1.363 . S
C558 N556 1.356 1_655 S
C559 C553 1.363 . S
C559 C554 1.379 . S
C559 N557 1.356 . S
N560 C552 1.356 1_565 S
N560 H566 0.984 . S
N560 H567 0.984 . S
N561 C554 1.356 . S
N561 H564 0.984 . S
N561 H565 0.985 . S
H562 N557 0.984 . S
H563 N557 0.985 . S
H564 N561 0.984 . S
H565 N561 0.985 . S
H566 N560 0.984 . S
H567 N560 0.984 . S
H568 N556 0.984 1_565 S
H569 N556 0.985 . S
C570 C571 1.363 . S
C570 C576 1.379 . S
C570 N578 1.356 . S
C571 C570 1.363 . S
C571 C577 1.363 . S
C572 C573 1.363 . S
C572 C577 1.379 . S
C572 N579 1.356 . S
C573 C572 1.363 . S
C573 C576 1.363 . S
N574 C576 1.356 . S
N574 H586 0.984 . S
N574 H587 0.985 . S
N575 C577 1.356 . S
N575 H580 0.984 . S
N575 H581 0.985 . S
C576 C570 1.379 . S
C576 C573 1.363 . S
C576 N574 1.356 . S
C577 C571 1.363 . S
C577 C572 1.379 . S
C577 N575 1.356 . S
N578 C570 1.356 . S
N578 H584 0.984 . S
N578 H585 0.984 . S
N579 C572 1.356 . S
N579 H582 0.984 . S
N579 H583 0.985 . S
H580 N575 0.984 . S
H581 N575 0.985 . S
H582 N579 0.984 . S
H583 N579 0.985 . S
H584 N578 0.984 . S
H585 N578 0.984 . S
H586 N574 0.984 . S
H587 N574 0.985 . S
C588 C589 1.363 . S
C588 C594 1.379 . S
C588 N596 1.356 . S
C589 C588 1.363 . S
C589 C595 1.363 . S
C590 C591 1.363 . S
C590 C595 1.379 . S
C590 N597 1.356 . S
C591 C590 1.363 . S
C591 C594 1.363 . S
N592 C594 1.356 1_545 S
N592 H604 0.984 . S
N592 H605 0.985 . S
N593 C595 1.356 . S
N593 H598 0.984 1_455 S
N593 H599 0.985 . S
C594 C588 1.379 . S
C594 C591 1.363 . S
C594 N592 1.356 1_565 S
C595 C589 1.363 . S
C595 C590 1.379 . S
C595 N593 1.356 . S
N596 C588 1.356 . S
N596 H602 0.984 . S
N596 H603 0.984 . S
N597 C590 1.356 . S
N597 H600 0.984 . S
N597 H601 0.985 . S
H598 N593 0.984 1_655 S
H599 N593 0.985 . S
H600 N597 0.984 . S
H601 N597 0.985 . S
H602 N596 0.984 . S
H603 N596 0.984 . S
H604 N592 0.984 . S
H605 N592 0.985 . S
C606 C607 1.363 1_554 S
C606 C612 1.379 . S
C606 N614 1.356 . S
C607 C606 1.363 1_556 S
C607 C613 1.363 . S
C608 C609 1.363 1_556 S
C608 C613 1.379 . S
C608 N615 1.356 . S
C609 C608 1.363 1_554 S
C609 C612 1.363 . S
N610 C612 1.356 . S
N610 H622 0.984 . S
N610 H623 0.985 . S
N611 C613 1.356 . S
N611 H616 0.984 . S
N611 H617 0.985 . S
C612 C606 1.379 . S
C612 C609 1.363 . S
C612 N610 1.356 . S
C613 C607 1.363 . S
C613 C608 1.379 . S
C613 N611 1.356 . S
N614 C606 1.356 . S
N614 H620 0.986 . S
N614 H621 0.983 1_554 S
N615 C608 1.356 . S
N615 H618 0.983 1_556 S
N615 H619 0.986 . S
H616 N611 0.984 . S
H617 N611 0.985 . S
H618 N615 0.983 1_554 S
H619 N615 0.986 . S
H620 N614 0.986 . S
H621 N614 0.983 1_556 S
H622 N610 0.984 . S
H623 N610 0.985 . S
C265 C28 1.234 . S
C267 C50 1.225 . S
C283 C83 1.225 . S
C285 C61 1.234 . S
C301 C116 1.225 . S
C303 C94 1.234 . S
C319 C127 1.234 . S
C321 C17 1.225 . S
C337 C160 1.234 . S
C339 C248 1.225 . S
C355 C193 1.234 . S
C357 C149 1.225 . S
C373 C226 1.234 . S
C375 C182 1.225 . S
C391 C259 1.234 . S
C393 C215 1.225 . S
C409 N203 1.808 . S
C411 C8 1.785 . S
C427 N236 1.808 . S
C429 C41 1.785 . S
C445 N137 1.808 . S
C447 C74 1.785 . S
C463 N170 1.808 . S
C465 C107 1.785 . S
C481 C140 1.785 . S
C483 N71 1.808 . S
C499 C173 1.785 . S
C501 N104 1.808 . S
C517 C206 1.785 . S
C519 N5 1.808 . S
C535 C239 1.785 . S
C537 N38 1.808 . S
C553 N245 1.486 . S
C555 N14 1.486 . S
C571 N146 1.486 . S
C573 N47 1.486 . S
C589 N80 1.486 . S
C591 N179 1.486 . S
C607 N113 1.486 . S
C609 N212 1.486 . S
