# Generated by pormake.
# Topology sni, (6)-cn, num edge types: 1
# Building blocks:
#     Node 0, Type 0, BuildingBlock: MIDCAF_clean_sbu_0, # of connection points: 6
#     Node 1, Type 0, BuildingBlock: MIDCAF_clean_sbu_0, # of connection points: 6
#     Node 2, Type 0, BuildingBlock: MIDCAF_clean_sbu_0, # of connection points: 6
#     Node 3, Type 0, BuildingBlock: MIDCAF_clean_sbu_0, # of connection points: 6
#     Node 4, Type 0, BuildingBlock: MIDCAF_clean_sbu_0, # of connection points: 6
#     Node 5, Type 0, BuildingBlock: MIDCAF_clean_sbu_0, # of connection points: 6
#     Node 6, Type 0, BuildingBlock: MIDCAF_clean_sbu_0, # of connection points: 6
#     Node 7, Type 0, BuildingBlock: MIDCAF_clean_sbu_0, # of connection points: 6
#     Edge 8, Type (0, 0), BuildingBlock: EZIPEK_clean_linker_0, # of connection points: 2
#     Edge 9, Type (0, 0), BuildingBlock: EZIPEK_clean_linker_0, # of connection points: 2
#     Edge 10, Type (0, 0), BuildingBlock: EZIPEK_clean_linker_0, # of connection points: 2
#     Edge 11, Type (0, 0), BuildingBlock: EZIPEK_clean_linker_0, # of connection points: 2
#     Edge 12, Type (0, 0), BuildingBlock: EZIPEK_clean_linker_0, # of connection points: 2
#     Edge 13, Type (0, 0), BuildingBlock: EZIPEK_clean_linker_0, # of connection points: 2
#     Edge 14, Type (0, 0), BuildingBlock: EZIPEK_clean_linker_0, # of connection points: 2
#     Edge 15, Type (0, 0), BuildingBlock: EZIPEK_clean_linker_0, # of connection points: 2
#     Edge 16, Type (0, 0), BuildingBlock: EZIPEK_clean_linker_0, # of connection points: 2
#     Edge 17, Type (0, 0), BuildingBlock: EZIPEK_clean_linker_0, # of connection points: 2
#     Edge 18, Type (0, 0), BuildingBlock: EZIPEK_clean_linker_0, # of connection points: 2
#     Edge 19, Type (0, 0), BuildingBlock: EZIPEK_clean_linker_0, # of connection points: 2
#     Edge 20, Type (0, 0), BuildingBlock: EZIPEK_clean_linker_0, # of connection points: 2
#     Edge 21, Type (0, 0), BuildingBlock: EZIPEK_clean_linker_0, # of connection points: 2
#     Edge 22, Type (0, 0), BuildingBlock: EZIPEK_clean_linker_0, # of connection points: 2
#     Edge 23, Type (0, 0), BuildingBlock: EZIPEK_clean_linker_0, # of connection points: 2
#     Edge 24, Type (0, 0), BuildingBlock: EZIPEK_clean_linker_0, # of connection points: 2
#     Edge 25, Type (0, 0), BuildingBlock: EZIPEK_clean_linker_0, # of connection points: 2
#     Edge 26, Type (0, 0), BuildingBlock: EZIPEK_clean_linker_0, # of connection points: 2
#     Edge 27, Type (0, 0), BuildingBlock: EZIPEK_clean_linker_0, # of connection points: 2
#     Edge 28, Type (0, 0), BuildingBlock: EZIPEK_clean_linker_0, # of connection points: 2
#     Edge 29, Type (0, 0), BuildingBlock: EZIPEK_clean_linker_0, # of connection points: 2
#     Edge 30, Type (0, 0), BuildingBlock: EZIPEK_clean_linker_0, # of connection points: 2
#     Edge 31, Type (0, 0), BuildingBlock: EZIPEK_clean_linker_0, # of connection points: 2
# Relax obj value: 0.345
# Max RMSD: 0.257
# Mean RMSD: 0.257
data_MOF--net-sni--node1-MIDCAF_clean_sbu_0--edge1-EZIPEK_clean_linker_0
_symmetry_space_group_name_H-M    P1
_symmetry_Int_Tables_number       1
_symmetry_cell_setting            triclinic
loop_
_symmetry_equiv_pos_as_xyz
'x, y, z'
_cell_length_a     31.291465
_cell_length_b     31.216705
_cell_length_c     12.298618
_cell_angle_alpha  90.370218
_cell_angle_beta   89.638396
_cell_angle_gamma 90.588636
loop_
_atom_site_label
_atom_site_type_symbol
_atom_site_fract_x
_atom_site_fract_y
_atom_site_fract_z
_atom_type_partial_charge
Zn0 Zn 0.65797 0.09896 0.77863 0.0
Zn1 Zn 0.6639 0.07502 0.1557 0.0
Zn2 Zn 0.64252 0.09523 0.97343 0.0
C3 C 0.64691 0.00033 0.10347 0.0
C4 C 0.57247 0.10487 0.12734 0.0
O5 O 0.69229 0.14597 0.95087 0.0
O6 O 0.69258 0.15033 0.7715 0.0
C7 C 0.67738 0.01843 0.82114 0.0
O8 O 0.63484 0.02579 0.02748 0.0
O9 O 0.67598 0.01293 0.16699 0.0
O10 O 0.60143 0.09139 0.18985 0.0
O11 O 0.58034 0.11042 1.0262 0.0
O12 O 0.68663 0.04481 0.74741 0.0
O13 O 0.65958 0.03148 0.90965 0.0
O14 O 0.5818 0.11579 0.90833 0.0
O15 O 0.59755 0.10483 0.73476 0.0
C16 C 0.57089 0.11466 0.80791 0.0
O17 O 0.68372 0.14328 0.0688 0.0
O18 O 0.70375 0.11434 0.22408 0.0
C19 C 0.70494 0.16421 0.86236 0.0
C20 C 0.70251 0.14626 0.16231 0.0
Zn21 Zn 0.86743 0.63944 0.87573 0.0
Zn22 Zn 0.84132 0.69246 0.21865 0.0
Zn23 Zn 0.85042 0.6641 0.04681 0.0
C24 C 0.92421 0.6756 0.22174 0.0
C25 C 0.79718 0.61946 0.22944 0.0
O26 O 0.80685 0.69804 0.93938 0.0
O27 O 0.81494 0.65339 0.80074 0.0
C28 C 0.93753 0.68149 0.91306 0.0
O29 O 0.91527 0.67479 0.11931 0.0
O30 O 0.89473 0.67894 0.29095 0.0
O31 O 0.79096 0.65684 0.26565 0.0
O32 O 0.82226 0.61377 0.14742 0.0
O33 O 0.91768 0.67069 0.82851 0.0
O34 O 0.91939 0.67754 1.00721 0.0
O35 O 0.82709 0.59638 0.0282 0.0
O36 O 0.87254 0.57818 0.8998 0.0
C37 C 0.84203 0.56793 0.96225 0.0
O38 O 0.80887 0.72229 0.03991 0.0
O39 O 0.83521 0.75337 0.18511 0.0
C40 C 0.79509 0.68351 0.84577 0.0
C41 C 0.81182 0.75559 0.10253 0.0
Zn42 Zn 0.30206 0.81427 0.16978 0.0
Zn43 Zn 0.36431 0.86265 0.8634 0.0
Zn44 Zn 0.33535 0.83727 1.01631 0.0
C45 C 0.43321 0.85656 0.97226 0.0
C46 C 0.30089 0.91927 0.90328 0.0
O47 O 0.29011 0.78398 0.98218 0.0
O48 O 0.24512 0.80252 0.11024 0.0
C49 C 0.37923 0.78066 0.18829 0.0
O50 O 0.40636 0.82991 1.01525 0.0
O51 O 0.41828 0.8873 0.91908 0.0
O52 O 0.32007 0.90316 0.82289 0.0
O53 O 0.30802 0.90345 0.99831 0.0
O54 O 0.34173 0.76736 0.20777 0.0
O55 O 0.38533 0.81142 0.12045 0.0
O56 O 0.31151 0.89338 0.11155 0.0
O57 O 0.30415 0.86155 0.271 0.0
C58 C 0.30556 0.89521 0.21577 0.0
O59 O 0.3104 0.79986 0.87564 0.0
O60 O 0.36602 0.8106 0.76804 0.0
C61 C 0.25421 0.77825 0.03165 0.0
C62 C 0.33055 0.79227 0.78588 0.0
Zn63 Zn 0.1292 0.32778 0.21646 0.0
Zn64 Zn 0.15021 0.38073 0.8428 0.0
Zn65 Zn 0.13836 0.3642 0.0433 0.0
C66 C 0.17702 0.45294 0.95826 0.0
C67 C 0.06309 0.36592 0.8661 0.0
O68 O 0.18056 0.30681 0.06776 0.0
O69 O 0.15972 0.27475 0.21926 0.0
C70 C 0.16818 0.40895 0.25875 0.0
O71 O 0.16507 0.43055 0.04113 0.0
O72 O 0.17398 0.43786 0.86337 0.0
O73 O 0.091 0.37497 0.79537 0.0
O74 O 0.0737 0.36124 0.96672 0.0
O75 O 0.15609 0.37419 0.30066 0.0
O76 O 0.16294 0.41429 0.15566 0.0
O77 O 0.06802 0.35699 0.08481 0.0
O78 O 0.06925 0.3234 0.2427 0.0
C79 C 0.04859 0.34179 0.16971 0.0
O80 O 0.1809 0.31749 0.95771 0.0
O81 O 0.18884 0.33791 0.78647 0.0
C82 C 0.18437 0.27663 0.13841 0.0
C83 C 0.19685 0.31215 0.86155 0.0
Zn84 Zn 0.62136 0.76263 0.82419 0.0
Zn85 Zn 0.59087 0.76011 0.3283 0.0
Zn86 Zn 0.60895 0.79545 0.49366 0.0
C87 C 0.58483 0.84603 0.28459 0.0
C88 C 0.52429 0.74441 0.43666 0.0
O89 O 0.64403 0.73682 0.5054 0.0
O90 O 0.61501 0.74146 0.66434 0.0
C91 C 0.65602 0.84071 0.72705 0.0
O92 O 0.61133 0.84256 0.36369 0.0
O93 O 0.56346 0.8133 0.25598 0.0
O94 O 0.54971 0.71793 0.39317 0.0
O95 O 0.54027 0.77961 0.4742 0.0
O96 O 0.65404 0.82007 0.81672 0.0
O97 O 0.63891 0.82456 0.641 0.0
O98 O 0.54922 0.80912 0.58217 0.0
O99 O 0.58173 0.76771 0.69363 0.0
C100 C 0.5528 0.79526 0.67938 0.0
O101 O 0.65211 0.81609 0.36262 0.0
O102 O 0.65377 0.75139 0.29222 0.0
C103 C 0.64544 0.72776 0.6054 0.0
C104 C 0.67039 0.7885 0.30038 0.0
Zn105 Zn 0.10648 0.58102 0.29185 0.0
Zn106 Zn 0.19736 0.70983 0.75013 0.0
Zn107 Zn 0.15587 0.6474 0.54919 0.0
C108 C 0.19972 0.6116 0.76729 0.0
C109 C 0.10468 0.70331 0.74453 0.0
O110 O 0.17313 0.66094 0.36905 0.0
O111 O 0.14638 0.62452 0.22191 0.0
C112 C 0.15615 0.5606 0.49928 0.0
O113 O 0.18369 0.6064 0.67161 0.0
O114 O 0.20785 0.64856 0.80713 0.0
O115 O 0.13697 0.71971 0.79196 0.0
O116 O 0.10764 0.68 0.65701 0.0
O117 O 0.12969 0.58193 0.44508 0.0
O118 O 0.17276 0.58046 0.57919 0.0
O119 O 0.08876 0.66518 0.55032 0.0
O120 O 0.10012 0.61504 0.43338 0.0
C121 C 0.07559 0.64422 0.46776 0.0
O122 O 0.20285 0.68284 0.45652 0.0
O123 O 0.18241 0.71746 0.596 0.0
C124 C 0.17007 0.65387 0.26446 0.0
C125 C 0.21042 0.71245 0.52434 0.0
Zn126 Zn 0.31758 0.08326 0.20932 0.0
Zn127 Zn 0.35997 0.15795 0.82918 0.0
Zn128 Zn 0.33169 0.12921 0.51679 0.0
C129 C 0.40877 0.14358 0.61121 0.0
C130 C 0.30336 0.08058 0.76162 0.0
O131 O 0.29037 0.17641 0.44098 0.0
O132 O 0.30104 0.12578 0.32615 0.0
C133 C 0.40326 0.11135 0.30259 0.0
O134 O 0.40056 0.13386 0.51316 0.0
O135 O 0.37703 0.1537 0.66958 0.0
O136 O 0.32228 0.10446 0.83219 0.0
O137 O 0.30746 0.08632 0.65675 0.0
O138 O 0.38086 0.09623 0.22389 0.0
O139 O 0.38796 0.12164 0.39815 0.0
O140 O 0.30532 0.06675 0.5408 0.0
O141 O 0.30406 0.08326 0.37134 0.0
C142 C 0.30035 0.05463 0.44284 0.0
O143 O 0.29692 0.18821 0.54767 0.0
O144 O 0.33781 0.17544 0.68266 0.0
C145 C 0.28571 0.16244 0.34434 0.0
C146 C 0.30684 0.19642 0.6458 0.0
Zn147 Zn 0.81262 0.36296 0.86594 0.0
Zn148 Zn 0.79841 0.37807 0.33446 0.0
Zn149 Zn 0.81037 0.36908 0.52789 0.0
C150 C 0.88702 0.36507 0.37379 0.0
C151 C 0.77805 0.45535 0.4028 0.0
O152 O 0.77133 0.31319 0.57131 0.0
O153 O 0.78903 0.34504 0.71963 0.0
C154 C 0.89223 0.35399 0.70754 0.0
O155 O 0.87608 0.36168 0.47431 0.0
O156 O 0.85955 0.37234 0.30194 0.0
O157 O 0.77697 0.43523 0.31387 0.0
O158 O 0.78776 0.43567 0.49131 0.0
O159 O 0.87246 0.35562 0.7993 0.0
O160 O 0.87373 0.35807 0.61325 0.0
O161 O 0.78814 0.43054 0.60382 0.0
O162 O 0.78007 0.39025 0.74257 0.0
C163 C 0.78236 0.42801 0.7066 0.0
O164 O 0.77136 0.31343 0.45759 0.0
O165 O 0.76404 0.33015 0.28406 0.0
C166 C 0.77282 0.31234 0.67463 0.0
C167 C 0.75828 0.30411 0.36045 0.0
C168 C 0.47495 0.07969 0.29678 0.0
C169 C 0.44938 0.11586 0.27996 0.0
C170 C 0.50642 0.14819 0.16858 0.0
C171 C 0.52877 0.10891 0.17245 0.0
N172 N 0.52762 0.03359 0.21582 0.0
N173 N 0.4386 0.18415 0.19506 0.0
C174 C 0.5113 0.07363 0.23031 0.0
C175 C 0.46458 0.15022 0.21472 0.0
N176 N 0.46429 0.05103 0.37587 0.0
N177 N 0.52538 0.18357 0.12374 0.0
H178 H 0.4088 0.1874 0.2326 0.0
H179 H 0.44573 0.2078 0.13822 0.0
H180 H 0.55582 0.18308 0.08884 0.0
H181 H 0.51225 0.21405 0.12821 0.0
H182 H 0.48365 0.02539 0.3966 0.0
H183 H 0.43883 0.05636 0.42909 0.0
H184 H 0.5137 0.00618 0.24938 0.0
H185 H 0.55177 0.02726 0.15934 0.0
C186 C 0.8124 0.57105 0.38366 0.0
C187 C 0.78479 0.58279 0.29823 0.0
C188 C 0.74102 0.51911 0.33279 0.0
C189 C 0.77445 0.50248 0.39714 0.0
N190 N 0.84381 0.51294 0.48158 0.0
N191 N 0.71989 0.57147 0.19826 0.0
C192 C 0.8101 0.52888 0.42491 0.0
C193 C 0.74777 0.55811 0.27567 0.0
N194 N 0.8411 0.60005 0.42497 0.0
N195 N 0.70329 0.49693 0.32577 0.0
H196 H 0.72309 0.60116 0.16031 0.0
H197 H 0.69473 0.55272 0.16897 0.0
H198 H 0.69796 0.46862 0.36885 0.0
H199 H 0.67643 0.50827 0.28611 0.0
H200 H 0.85901 0.59445 0.4945 0.0
H201 H 0.84349 0.63144 0.39758 0.0
H202 H 0.87299 0.52905 0.48889 0.0
H203 H 0.84432 0.48264 0.51573 0.0
C204 C 0.45218 0.77788 0.43275 0.0
C205 C 0.47798 0.74256 0.4064 0.0
C206 C 0.43204 0.72597 0.25042 0.0
C207 C 0.41325 0.76694 0.26281 0.0
N208 N 0.40438 0.83209 0.36804 0.0
N209 N 0.47827 0.67195 0.32803 0.0
C210 C 0.42268 0.79282 0.35532 0.0
C211 C 0.46352 0.71293 0.32644 0.0
N212 N 0.45419 0.79506 0.53474 0.0
N213 N 0.42117 0.70065 0.16357 0.0
H214 H 0.49767 0.66118 0.39074 0.0
H215 H 0.46765 0.64765 0.2763 0.0
H216 H 0.39813 0.70943 0.10714 0.0
H217 H 0.43658 0.67231 0.14333 0.0
H218 H 0.43403 0.81911 0.56291 0.0
H219 H 0.4721 0.78044 0.59508 0.0
H220 H 0.41368 0.854 0.42783 0.0
H221 H 0.38213 0.84413 0.31398 0.0
C222 C 0.20037 0.48258 0.29265 0.0
C223 C 0.18212 0.44448 0.33382 0.0
C224 C 0.16364 0.48087 0.50461 0.0
C225 C 0.17357 0.52031 0.45462 0.0
N226 N 0.21132 0.55916 0.31587 0.0
N227 N 0.17559 0.40463 0.50184 0.0
C228 C 0.19555 0.52118 0.35327 0.0
C229 C 0.1726 0.44243 0.44729 0.0
N230 N 0.22527 0.48069 0.20144 0.0
N231 N 0.14421 0.48007 0.60436 0.0
H232 H 0.18927 0.3775 0.46679 0.0
H233 H 0.17134 0.40212 0.58567 0.0
H234 H 0.13882 0.50775 0.65026 0.0
H235 H 0.13153 0.4522 0.63854 0.0
H236 H 0.24184 0.50671 0.16897 0.0
H237 H 0.23301 0.45144 0.16519 0.0
H238 H 0.22334 0.56395 0.23779 0.0
H239 H 0.21221 0.58609 0.36614 0.0
C240 C 0.50919 0.78405 0.84852 0.0
C241 C 0.52891 0.81297 0.77384 0.0
C242 C 0.50333 0.87345 0.88425 0.0
C243 C 0.47816 0.84431 0.94557 0.0
N244 N 0.47889 0.77565 0.02895 0.0
N245 N 0.54989 0.88556 0.72819 0.0
C246 C 0.48823 0.80064 0.9417 0.0
C247 C 0.52807 0.85794 0.7947 0.0
N248 N 0.50746 0.74106 0.82684 0.0
N249 N 0.50308 0.91571 0.91361 0.0
H250 H 0.57007 0.87539 0.66589 0.0
H251 H 0.54793 0.91873 0.73311 0.0
H252 H 0.4865 0.92602 0.98287 0.0
H253 H 0.52097 0.93968 0.87593 0.0
H254 H 0.48973 0.7196 0.87401 0.0
H255 H 0.51991 0.72725 0.75624 0.0
H256 H 0.48822 0.7438 0.03502 0.0
H257 H 0.46745 0.78943 0.10068 0.0
C258 C 0.15333 0.52689 0.95611 0.0
C259 C 0.1881 0.49895 0.96436 0.0
C260 C 0.23412 0.55266 0.8751 0.0
C261 C 0.19706 0.57486 0.84308 0.0
N262 N 0.11984 0.58036 0.84586 0.0
N263 N 0.26264 0.48486 0.93635 0.0
C264 C 0.15621 0.56166 0.88292 0.0
C265 C 0.22916 0.51227 0.9275 0.0
N266 N 0.11684 0.51868 1.01396 0.0
N267 N 0.27363 0.56948 0.85312 0.0
H268 H 0.25958 0.45566 0.97678 0.0
H269 H 0.2924 0.49022 0.9003 0.0
H270 H 0.27783 0.59864 0.81338 0.0
H271 H 0.30181 0.55636 0.88202 0.0
H272 H 0.09123 0.53974 1.01748 0.0
H273 H 0.11452 0.49294 0.06755 0.0
H274 H 0.08929 0.56853 0.86306 0.0
H275 H 0.11998 0.60584 0.79159 0.0
C276 C 0.47742 0.17131 0.68627 0.0
C277 C 0.45038 0.1359 0.66172 0.0
C278 C 0.50029 0.08685 0.74733 0.0
C279 C 0.52675 0.12242 0.7744 0.0
N280 N 0.53817 0.19856 0.78868 0.0
N281 N 0.43078 0.06168 0.68746 0.0
C282 C 0.51445 0.16478 0.75008 0.0
C283 C 0.46028 0.09407 0.69749 0.0
N284 N 0.46822 0.21085 0.64578 0.0
N285 N 0.51395 0.04616 0.76727 0.0
H286 H 0.40103 0.0659 0.65166 0.0
H287 H 0.43423 0.03157 0.722 0.0
H288 H 0.54187 0.03978 0.80999 0.0
H289 H 0.49884 0.01874 0.73706 0.0
H290 H 0.48873 0.23721 0.65135 0.0
H291 H 0.44117 0.21666 0.59913 0.0
H292 H 0.52903 0.2304 0.78244 0.0
H293 H 0.56555 0.19451 0.8354 0.0
C294 C 0.84856 0.49301 0.90572 0.0
C295 C 0.82062 0.52602 0.93765 0.0
C296 C 0.76386 0.49016 0.83098 0.0
C297 C 0.79508 0.46368 0.78119 0.0
N298 N 0.86968 0.44929 0.75384 0.0
N299 N 0.7496 0.55579 0.93063 0.0
C300 C 0.8381 0.46728 0.81462 0.0
C301 C 0.7773 0.52416 0.90206 0.0
N302 N 0.88645 0.48831 0.95837 0.0
N303 N 0.72156 0.4831 0.80985 0.0
H304 H 0.75675 0.57899 0.98875 0.0
H305 H 0.71983 0.55952 0.89464 0.0
H306 H 0.71101 0.45977 0.75481 0.0
H307 H 0.69704 0.49841 0.85203 0.0
H308 H 0.90707 0.46295 0.94238 0.0
H309 H 0.89457 0.50748 1.02525 0.0
H310 H 0.90196 0.45432 0.77041 0.0
H311 H 0.86343 0.43465 0.67932 0.0
C312 C 0.01609 0.67091 0.9376 0.0
C313 C 0.98212 0.69609 0.89869 0.0
C314 C 0.02987 0.73019 0.76559 0.0
C315 C 0.06363 0.70474 0.80377 0.0
N316 N 0.09234 0.66136 0.94845 0.0
N317 N 0.95901 0.75811 0.80097 0.0
C318 C 0.05798 0.67892 0.8979 0.0
C319 C -0.01 0.72875 0.82119 0.0
N320 N 0.00813 0.63697 1.00476 0.0
N321 N 0.03559 0.7548 0.67506 0.0
H322 H 0.92981 0.7579 0.84262 0.0
H323 H 0.96372 0.78475 0.75162 0.0
H324 H 0.065 0.75769 0.63512 0.0
H325 H 0.01074 0.77033 0.63614 0.0
H326 H 0.03096 0.61421 1.02387 0.0
H327 H 0.97789 0.62926 0.03482 0.0
H328 H 0.09008 0.64552 1.02259 0.0
H329 H 0.12375 0.66527 0.92171 0.0
C330 C 0.27578 0.03606 0.9196 0.0
C331 C 0.2789 0.0428 0.80579 0.0
C332 C 0.26292 0.96758 0.77367 0.0
C333 C 0.27624 0.95925 0.88187 0.0
N334 N 0.27089 0.98416 0.06542 0.0
N335 N 0.23994 0.02183 0.64699 0.0
C336 C 0.27487 -0.00681 0.95825 0.0
C337 C 0.26174 0.01063 0.73764 0.0
N338 N 0.26978 0.07023 0.98767 0.0
N339 N 0.25237 0.93439 0.70597 0.0
H340 H 0.23397 0.05393 0.62979 0.0
H341 H 0.22321 -0.00013 0.599 0.0
H342 H 0.24888 0.90311 0.73461 0.0
H343 H 0.24765 0.938 0.62273 0.0
H344 H 0.26525 0.06777 0.07117 0.0
H345 H 0.26447 0.10095 0.95789 0.0
H346 H 0.2748 0.00657 0.1276 0.0
H347 H 0.25996 0.95401 0.08878 0.0
C348 C 0.96444 0.3884 0.70155 0.0
C349 C 0.93941 0.35098 0.71819 0.0
C350 C -0.00278 0.32107 0.829 0.0
C351 C 0.01846 0.36144 0.82716 0.0
N352 N 0.01889 0.43578 0.77478 0.0
N353 N 0.93161 0.28093 0.7969 0.0
C354 C 0.00117 0.39566 0.76654 0.0
C355 C 0.956 0.31692 0.78108 0.0
N356 N 0.95327 0.41709 0.62374 0.0
N357 N 0.01699 0.28638 0.87256 0.0
H358 H 0.90292 0.27568 0.75587 0.0
H359 H 0.93888 0.25734 0.85314 0.0
H360 H 0.04689 0.28824 0.90933 0.0
H361 H 0.00516 0.25519 0.86584 0.0
H362 H 0.97266 0.44287 0.60089 0.0
H363 H 0.92669 0.41272 0.57454 0.0
H364 H 0.00511 0.46287 0.74125 0.0
H365 H 0.04491 0.44275 0.82478 0.0
C366 C 0.65276 0.95913 0.70009 0.0
C367 C 0.67753 0.97249 0.79095 0.0
C368 C 0.70136 0.89861 0.81459 0.0
C369 C 0.6738 0.88547 0.72894 0.0
N370 N 0.64627 0.90726 0.55572 0.0
N371 N 0.72658 0.95598 0.9343 0.0
C372 C 0.65648 0.91684 0.66066 0.0
C373 C 0.70262 0.94254 0.84783 0.0
N374 N 0.62334 0.98577 0.65539 0.0
N375 N 0.72848 0.86931 0.85721 0.0
H376 H 0.7291 -0.01186 0.95716 0.0
H377 H 0.74266 0.9355 0.98596 0.0
H378 H 0.73162 0.83907 0.82166 0.0
H379 H 0.75066 0.87579 0.91786 0.0
H380 H 0.60145 0.97524 0.59725 0.0
H381 H 0.61725 0.01651 0.68484 0.0
H382 H 0.63664 0.93044 0.50073 0.0
H383 H 0.65487 0.87842 0.51934 0.0
C384 C 0.97641 0.31503 0.21598 0.0
C385 C 0.00357 0.35079 0.19714 0.0
C386 C 0.95542 0.39627 0.30488 0.0
C387 C 0.93106 0.35939 0.33353 0.0
N388 N 0.92006 0.28307 0.32637 0.0
N389 N 0.02156 0.42506 0.2306 0.0
C390 C 0.94216 0.31852 0.29194 0.0
C391 C -0.00647 0.39149 0.24243 0.0
N392 N 0.98364 0.27779 0.16015 0.0
N393 N 0.94146 0.436 0.33523 0.0
H394 H 0.04867 0.42357 0.18108 0.0
H395 H 0.01908 0.45375 0.27375 0.0
H396 H 0.91496 0.44053 0.38581 0.0
H397 H 0.95468 0.46443 0.30584 0.0
H398 H 0.96316 0.25132 0.16219 0.0
H399 H 0.00849 0.27501 0.10356 0.0
H400 H 0.92846 0.25182 0.30623 0.0
H401 H 0.89527 0.28481 0.38334 0.0
C402 C 0.59456 0.88919 0.11153 0.0
C403 C 0.58452 0.88688 0.22409 0.0
C404 C 0.60463 0.96186 0.2491 0.0
C405 C 0.61929 0.96336 0.13885 0.0
N406 N 0.60825 0.93549 0.95781 0.0
N407 N 0.56139 0.92456 0.38371 0.0
C408 C 0.60806 0.92923 0.06721 0.0
C409 C 0.58345 0.92459 0.28737 0.0
N410 N 0.59195 0.85347 0.04736 0.0
N411 N 0.61081 -0.00409 0.31788 0.0
H412 H 0.54508 0.89739 0.41178 0.0
H413 H 0.55547 0.95209 0.4294 0.0
H414 H 0.62087 0.02603 0.29225 0.0
H415 H 0.60636 -0.00581 0.40168 0.0
H416 H 0.60452 0.85189 0.96898 0.0
H417 H 0.57766 0.825 0.07267 0.0
H418 H 0.5994 0.91222 0.90124 0.0
H419 H 0.61124 0.96581 0.92459 0.0
C420 C 0.97593 0.62584 0.30132 0.0
C421 C 0.96746 0.66759 0.2636 0.0
C422 C 0.03087 0.69524 0.35865 0.0
C423 C 0.0364 0.65425 0.40625 0.0
N424 N 0.00985 0.58252 0.43787 0.0
N425 N 0.98407 0.74289 0.26011 0.0
C426 C 0.00783 0.62001 0.38115 0.0
C427 C -0.00571 0.70257 0.29299 0.0
N428 N 0.95316 0.59177 0.26075 0.0
N429 N 0.06127 0.72655 0.37225 0.0
H430 H 0.95901 0.74868 0.20669 0.0
H431 H -0.00101 0.77058 0.28935 0.0
H432 H 0.08867 0.72252 0.41859 0.0
H433 H 0.06127 0.75542 0.33037 0.0
H434 H 0.9604 0.55997 0.27707 0.0
H435 H 0.92951 0.5952 0.20204 0.0
H436 H -0.01272 0.55793 0.43106 0.0
H437 H 0.03166 0.57763 0.50029 0.0
C438 C 0.26284 0.95175 0.31015 0.0
C439 C 0.30312 0.93591 0.27595 0.0
C440 C 0.33895 -0.0112 0.3913 0.0
C441 C 0.29947 0.00948 0.4083 0.0
N442 N 0.2238 0.01351 0.37496 0.0
N443 N 0.38011 0.94108 0.27667 0.0
C444 C 0.26123 -0.00842 0.36604 0.0
C445 C 0.34142 0.95486 0.31467 0.0
N446 N 0.22627 0.92913 0.28801 0.0
N447 N 0.37393 0.00135 0.44931 0.0
H448 H 0.38315 0.91621 0.22013 0.0
H449 H 0.40887 0.95669 0.29405 0.0
H450 H 0.37279 0.02606 0.50652 0.0
H451 H 0.40247 0.98444 0.44897 0.0
H452 H 0.19657 0.93714 0.32061 0.0
H453 H 0.22612 0.90073 0.24273 0.0
H454 H 0.19599 0.00439 0.33446 0.0
H455 H 0.22133 0.04229 0.41811 0.0
C456 C 0.699 0.25734 0.29175 0.0
C457 C 0.7415 0.26122 0.3301 0.0
C458 C 0.75976 0.1931 0.24136 0.0
C459 C 0.71674 0.18805 0.20791 0.0
N460 N 0.64323 0.21093 0.22053 0.0
N461 N 0.81046 0.2297 0.35908 0.0
C462 C 0.6857 0.219 0.23813 0.0
C463 C 0.77121 0.22791 0.31097 0.0
N464 N 0.67154 0.29075 0.30515 0.0
N465 N 0.78994 0.16536 0.203 0.0
H466 H 0.81995 0.25478 0.41009 0.0
H467 H 0.83215 0.20465 0.35672 0.0
H468 H 0.78255 0.14013 0.15003 0.0
H469 H 0.82261 0.16953 0.21514 0.0
H470 H 0.64205 0.29241 0.26666 0.0
H471 H 0.67928 0.31795 0.35107 0.0
H472 H 0.61888 0.22987 0.25215 0.0
H473 H 0.63186 0.18354 0.18096 0.0
C474 C 0.74033 0.78211 0.05183 0.0
C475 C 0.77932 0.79011 0.10328 0.0
C476 C 0.74277 0.82209 0.25855 0.0
C477 C 0.70478 0.80096 0.22288 0.0
N478 N 0.66368 0.77337 0.07136 0.0
N479 N 0.81659 0.84117 0.21364 0.0
C480 C 0.70215 0.78577 0.11352 0.0
C481 C 0.77986 0.819 0.1919 0.0
N482 N 0.74063 0.77225 0.94429 0.0
N483 N 0.74461 0.84159 0.35809 0.0
H484 H 0.84351 0.83784 0.16363 0.0
H485 H 0.81905 0.86489 0.27325 0.0
H486 H 0.71804 0.84596 0.40789 0.0
H487 H 0.77293 0.85269 0.39278 0.0
H488 H 0.71321 0.76766 0.89814 0.0
H489 H 0.76927 0.77376 0.90033 0.0
H490 H 0.66032 0.75726 0.99758 0.0
H491 H 0.63492 0.77885 0.11212 0.0
C492 C 0.18692 0.73827 0.0457 0.0
C493 C 0.23172 0.73649 0.03271 0.0
C494 C 0.23601 0.67933 0.16605 0.0
C495 C 0.19158 0.68312 0.18675 0.0
N496 N 0.12327 0.71367 0.14227 0.0
N497 N 0.2947 0.69361 0.04186 0.0
C498 C 0.16633 0.71128 0.12347 0.0
C499 C 0.25462 0.70254 0.07899 0.0
N500 N 0.16526 0.76813 0.98769 0.0
N501 N 0.26098 0.65575 0.2332 0.0
H502 H 0.30831 0.71008 0.97684 0.0
H503 H 0.31205 0.66713 0.06664 0.0
H504 H 0.249 0.64056 0.30194 0.0
H505 H 0.29421 0.65527 0.22794 0.0
H506 H 0.13263 0.77366 0.9937 0.0
H507 H 0.18092 0.78706 0.92972 0.0
H508 H 0.10258 0.73306 0.09946 0.0
H509 H 0.10754 0.69552 0.2013 0.0
C510 C 0.28422 0.23089 0.24215 0.0
C511 C 0.26776 0.18888 0.25724 0.0
C512 C 0.21096 0.20327 0.12744 0.0
C513 C 0.22066 0.24726 0.13713 0.0
N514 N 0.26859 0.30399 0.19196 0.0
N515 N 0.21696 0.13308 0.20794 0.0
C516 C 0.25882 0.26127 0.18782 0.0
C517 C 0.23235 0.1739 0.19526 0.0
N518 N 0.32392 0.24151 0.28012 0.0
N519 N 0.17981 0.19042 0.05693 0.0
H520 H 0.23105 0.11062 0.25818 0.0
H521 H 0.18861 0.12201 0.17343 0.0
H522 H 0.16362 0.21249 1.00925 0.0
H523 H 0.17301 0.15848 0.03861 0.0
H524 H 0.33916 0.2706 0.26398 0.0
H525 H 0.34335 0.21946 0.31906 0.0
H526 H 0.29287 0.31701 0.23977 0.0
H527 H 0.25102 0.32674 0.15013 0.0
C528 C 0.26191 0.77217 0.53741 0.0
C529 C 0.25406 0.72782 0.54876 0.0
C530 C 0.30691 0.72378 0.6942 0.0
C531 C 0.30934 0.76914 0.69506 0.0
N532 N 0.3004 0.83569 0.59834 0.0
N533 N 0.2779 0.6592 0.60844 0.0
C534 C 0.29081 0.79308 0.6095 0.0
C535 C 0.27989 0.7028 0.6172 0.0
N536 N 0.23946 0.79427 0.4614 0.0
N537 N 0.32998 0.70123 0.76789 0.0
H538 H 0.2587 0.64376 0.55101 0.0
H539 H 0.29741 0.63847 0.6508 0.0
H540 H 0.35226 0.71597 0.81909 0.0
H541 H 0.32701 0.66837 0.77968 0.0
H542 H 0.23938 0.82746 0.45468 0.0
H543 H 0.22005 0.77858 0.40459 0.0
H544 H 0.2907 0.8543 0.53335 0.0
H545 H 0.32059 0.8524 0.65087 0.0
C546 C 0.23587 0.21028 0.73224 0.0
C547 C 0.27946 0.22209 0.7183 0.0
C548 C 0.26975 0.28336 0.84062 0.0
C549 C 0.22513 0.27623 0.83616 0.0
N550 N 0.16455 0.2333 0.78179 0.0
N551 N 0.33891 0.26941 0.75889 0.0
C552 C 0.20786 0.23939 0.78453 0.0
C553 C 0.297 0.258 0.77439 0.0
N554 N 0.22167 0.17086 0.69836 0.0
N555 N 0.28571 0.31491 0.90683 0.0
H556 H 0.3599 0.25193 0.71013 0.0
H557 H 0.35236 0.29782 0.78812 0.0
H558 H 0.266 0.3344 0.95423 0.0
H559 H 0.31813 0.3193 0.92222 0.0
H560 H 0.19123 0.15886 0.71572 0.0
H561 H 0.24161 0.14834 0.66178 0.0
H562 H 0.14957 0.21004 0.73396 0.0
H563 H 0.1434 0.25296 0.82448 0.0
C564 C 0.72234 0.27839 0.80758 0.0
C565 C 0.75926 0.27515 0.7403 0.0
C566 C 0.77037 0.20158 0.8012 0.0
C567 C 0.73134 0.2036 0.85982 0.0
N568 N 0.67715 0.24578 0.94643 0.0
N569 N 0.8236 0.23807 0.68923 0.0
C570 C 0.71 0.24297 0.8732 0.0
C571 C 0.78513 0.2381 0.7427 0.0
N572 N 0.69769 0.31429 0.80339 0.0
N573 N 0.79177 0.16365 0.79794 0.0
H574 H 0.83479 0.26407 0.64398 0.0
H575 H 0.84561 0.21343 0.69357 0.0
H576 H 0.78219 0.1376 0.84547 0.0
H577 H 0.81815 0.15757 0.74857 0.0
H578 H 0.6681 0.31711 0.84166 0.0
H579 H 0.70538 0.34065 0.75517 0.0
H580 H 0.66223 0.27428 0.96782 0.0
H581 H 0.66735 0.2198 0.99341 0.0
C582 C 0.68258 0.68405 0.74275 0.0
C583 C 0.68547 0.71523 0.65941 0.0
C584 C 0.76129 0.72658 0.70061 0.0
C585 C 0.75686 0.69874 0.79038 0.0
N586 N 0.71184 0.65752 0.9109 0.0
N587 N 0.72569 0.77381 0.57726 0.0
C588 C 0.71698 0.67952 0.8159 0.0
C589 C 0.72434 0.73854 0.64248 0.0
N590 N 0.64742 0.65782 0.74982 0.0
N591 N 0.80081 0.74176 0.67115 0.0
H592 H 0.69957 0.78513 0.53495 0.0
H593 H 0.75191 0.79459 0.57349 0.0
H594 H 0.82828 0.7359 0.71616 0.0
H595 H 0.80663 0.75787 0.59852 0.0
H596 H 0.6454 0.63178 0.80222 0.0
H597 H 0.62198 0.65935 0.69557 0.0
H598 H 0.68233 0.64632 0.93892 0.0
H599 H 0.73642 0.65414 0.96701 0.0
loop_
_geom_bond_atom_site_label_1
_geom_bond_atom_site_label_2
_geom_bond_distance
_geom_bond_site_symmetry_2
_ccdc_geom_bond_type
Zn0 O6 1.920 . S
Zn0 O12 1.898 . S
Zn0 O15 1.905 . S
Zn1 O9 1.905 . S
Zn1 O10 1.898 . S
Zn1 O18 1.920 . S
Zn2 O5 2.080 1_554 S
Zn2 O8 2.114 . S
Zn2 O11 2.120 . S
Zn2 O13 2.120 1_554 S
Zn2 O14 2.114 1_554 S
Zn2 O17 2.080 . S
C3 O8 1.166 . S
C3 O9 1.182 . S
C4 O10 1.167 . S
C4 O11 1.299 . S
O5 Zn2 2.080 1_556 S
O5 C19 1.305 . S
O6 Zn0 1.920 . S
O6 C19 1.234 . S
C7 O12 1.167 . S
C7 O13 1.299 . S
O8 Zn2 2.114 . S
O8 C3 1.166 . S
O9 Zn1 1.905 . S
O9 C3 1.182 . S
O10 Zn1 1.898 . S
O10 C4 1.167 . S
O11 Zn2 2.120 . S
O11 C4 1.299 . S
O12 Zn0 1.898 . S
O12 C7 1.167 . S
O13 Zn2 2.120 1_556 S
O13 C7 1.299 . S
O14 Zn2 2.114 1_556 S
O14 C16 1.166 . S
O15 Zn0 1.905 . S
O15 C16 1.182 . S
C16 O14 1.166 . S
C16 O15 1.182 . S
O17 Zn2 2.080 . S
O17 C20 1.305 . S
O18 Zn1 1.920 . S
O18 C20 1.234 . S
C19 O5 1.305 . S
C19 O6 1.234 . S
C20 O17 1.305 . S
C20 O18 1.234 . S
Zn21 O27 1.920 . S
Zn21 O33 1.898 . S
Zn21 O36 1.905 . S
Zn22 O30 1.905 . S
Zn22 O31 1.898 . S
Zn22 O39 1.920 . S
Zn23 O26 2.080 1_554 S
Zn23 O29 2.114 . S
Zn23 O32 2.120 . S
Zn23 O34 2.120 1_554 S
Zn23 O35 2.114 1_554 S
Zn23 O38 2.080 . S
C24 O29 1.166 . S
C24 O30 1.182 . S
C25 O31 1.167 . S
C25 O32 1.299 . S
O26 Zn23 2.080 1_556 S
O26 C40 1.305 . S
O27 Zn21 1.920 . S
O27 C40 1.234 . S
C28 O33 1.167 . S
C28 O34 1.299 . S
O29 Zn23 2.114 . S
O29 C24 1.166 . S
O30 Zn22 1.905 . S
O30 C24 1.182 . S
O31 Zn22 1.898 . S
O31 C25 1.167 . S
O32 Zn23 2.120 . S
O32 C25 1.299 . S
O33 Zn21 1.898 . S
O33 C28 1.167 . S
O34 Zn23 2.120 1_556 S
O34 C28 1.299 . S
O35 Zn23 2.114 1_556 S
O35 C37 1.166 . S
O36 Zn21 1.905 . S
O36 C37 1.182 . S
C37 O35 1.166 . S
C37 O36 1.182 . S
O38 Zn23 2.080 . S
O38 C41 1.305 . S
O39 Zn22 1.920 . S
O39 C41 1.234 . S
C40 O26 1.305 . S
C40 O27 1.234 . S
C41 O38 1.305 . S
C41 O39 1.234 . S
Zn42 O48 1.920 . S
Zn42 O54 1.898 . S
Zn42 O57 1.905 . S
Zn43 O51 1.905 . S
Zn43 O52 1.898 . S
Zn43 O60 1.920 . S
Zn44 O47 2.080 . S
Zn44 O50 2.114 1_554 S
Zn44 O53 2.120 1_554 S
Zn44 O55 2.120 . S
Zn44 O56 2.114 . S
Zn44 O59 2.080 1_554 S
C45 O50 1.166 . S
C45 O51 1.182 . S
C46 O52 1.167 . S
C46 O53 1.299 . S
O47 Zn44 2.080 . S
O47 C61 1.305 . S
O48 Zn42 1.920 . S
O48 C61 1.234 . S
C49 O54 1.167 . S
C49 O55 1.299 . S
O50 Zn44 2.114 1_556 S
O50 C45 1.166 . S
O51 Zn43 1.905 . S
O51 C45 1.182 . S
O52 Zn43 1.898 . S
O52 C46 1.167 . S
O53 Zn44 2.120 1_556 S
O53 C46 1.299 . S
O54 Zn42 1.898 . S
O54 C49 1.167 . S
O55 Zn44 2.120 . S
O55 C49 1.299 . S
O56 Zn44 2.114 . S
O56 C58 1.166 . S
O57 Zn42 1.905 . S
O57 C58 1.182 . S
C58 O56 1.166 . S
C58 O57 1.182 . S
O59 Zn44 2.080 1_556 S
O59 C62 1.305 . S
O60 Zn43 1.920 . S
O60 C62 1.234 . S
C61 O47 1.305 . S
C61 O48 1.234 . S
C62 O59 1.305 . S
C62 O60 1.234 . S
Zn63 O69 1.920 . S
Zn63 O75 1.898 . S
Zn63 O78 1.905 . S
Zn64 O72 1.905 . S
Zn64 O73 1.898 . S
Zn64 O81 1.920 . S
Zn65 O68 2.080 . S
Zn65 O71 2.114 1_554 S
Zn65 O74 2.120 1_554 S
Zn65 O76 2.120 . S
Zn65 O77 2.114 . S
Zn65 O80 2.080 1_554 S
C66 O71 1.166 . S
C66 O72 1.182 . S
C67 O73 1.167 . S
C67 O74 1.299 . S
O68 Zn65 2.080 . S
O68 C82 1.305 . S
O69 Zn63 1.920 . S
O69 C82 1.234 . S
C70 O75 1.167 . S
C70 O76 1.299 . S
O71 Zn65 2.114 1_556 S
O71 C66 1.166 . S
O72 Zn64 1.905 . S
O72 C66 1.182 . S
O73 Zn64 1.898 . S
O73 C67 1.167 . S
O74 Zn65 2.120 1_556 S
O74 C67 1.299 . S
O75 Zn63 1.898 . S
O75 C70 1.167 . S
O76 Zn65 2.120 . S
O76 C70 1.299 . S
O77 Zn65 2.114 . S
O77 C79 1.166 . S
O78 Zn63 1.905 . S
O78 C79 1.182 . S
C79 O77 1.166 . S
C79 O78 1.182 . S
O80 Zn65 2.080 1_556 S
O80 C83 1.305 . S
O81 Zn64 1.920 . S
O81 C83 1.234 . S
C82 O68 1.305 . S
C82 O69 1.234 . S
C83 O80 1.305 . S
C83 O81 1.234 . S
Zn84 O90 1.920 . S
Zn84 O96 1.898 . S
Zn84 O99 1.905 . S
Zn85 O93 1.905 . S
Zn85 O94 1.898 . S
Zn85 O102 1.920 . S
Zn86 O89 2.080 . S
Zn86 O92 2.114 . S
Zn86 O95 2.120 . S
Zn86 O97 2.120 . S
Zn86 O98 2.114 . S
Zn86 O101 2.080 . S
C87 O92 1.166 . S
C87 O93 1.182 . S
C88 O94 1.167 . S
C88 O95 1.299 . S
O89 Zn86 2.080 . S
O89 C103 1.305 . S
O90 Zn84 1.920 . S
O90 C103 1.234 . S
C91 O96 1.167 . S
C91 O97 1.299 . S
O92 Zn86 2.114 . S
O92 C87 1.166 . S
O93 Zn85 1.905 . S
O93 C87 1.182 . S
O94 Zn85 1.898 . S
O94 C88 1.167 . S
O95 Zn86 2.120 . S
O95 C88 1.299 . S
O96 Zn84 1.898 . S
O96 C91 1.167 . S
O97 Zn86 2.120 . S
O97 C91 1.299 . S
O98 Zn86 2.114 . S
O98 C100 1.166 . S
O99 Zn84 1.905 . S
O99 C100 1.182 . S
C100 O98 1.166 . S
C100 O99 1.182 . S
O101 Zn86 2.080 . S
O101 C104 1.305 . S
O102 Zn85 1.920 . S
O102 C104 1.234 . S
C103 O89 1.305 . S
C103 O90 1.234 . S
C104 O101 1.305 . S
C104 O102 1.234 . S
Zn105 O111 1.920 . S
Zn105 O117 1.898 . S
Zn105 O120 1.905 . S
Zn106 O114 1.905 . S
Zn106 O115 1.898 . S
Zn106 O123 1.920 . S
Zn107 O110 2.080 . S
Zn107 O113 2.114 . S
Zn107 O116 2.120 . S
Zn107 O118 2.120 . S
Zn107 O119 2.114 . S
Zn107 O122 2.080 . S
C108 O113 1.166 . S
C108 O114 1.182 . S
C109 O115 1.167 . S
C109 O116 1.299 . S
O110 Zn107 2.080 . S
O110 C124 1.305 . S
O111 Zn105 1.920 . S
O111 C124 1.234 . S
C112 O117 1.167 . S
C112 O118 1.299 . S
O113 Zn107 2.114 . S
O113 C108 1.166 . S
O114 Zn106 1.905 . S
O114 C108 1.182 . S
O115 Zn106 1.898 . S
O115 C109 1.167 . S
O116 Zn107 2.120 . S
O116 C109 1.299 . S
O117 Zn105 1.898 . S
O117 C112 1.167 . S
O118 Zn107 2.120 . S
O118 C112 1.299 . S
O119 Zn107 2.114 . S
O119 C121 1.166 . S
O120 Zn105 1.905 . S
O120 C121 1.182 . S
C121 O119 1.166 . S
C121 O120 1.182 . S
O122 Zn107 2.080 . S
O122 C125 1.305 . S
O123 Zn106 1.920 . S
O123 C125 1.234 . S
C124 O110 1.305 . S
C124 O111 1.234 . S
C125 O122 1.305 . S
C125 O123 1.234 . S
Zn126 O132 1.920 . S
Zn126 O138 1.898 . S
Zn126 O141 1.905 . S
Zn127 O135 1.905 . S
Zn127 O136 1.898 . S
Zn127 O144 1.920 . S
Zn128 O131 2.080 . S
Zn128 O134 2.114 . S
Zn128 O137 2.120 . S
Zn128 O139 2.120 . S
Zn128 O140 2.114 . S
Zn128 O143 2.080 . S
C129 O134 1.166 . S
C129 O135 1.182 . S
C130 O136 1.167 . S
C130 O137 1.299 . S
O131 Zn128 2.080 . S
O131 C145 1.305 . S
O132 Zn126 1.920 . S
O132 C145 1.234 . S
C133 O138 1.167 . S
C133 O139 1.299 . S
O134 Zn128 2.114 . S
O134 C129 1.166 . S
O135 Zn127 1.905 . S
O135 C129 1.182 . S
O136 Zn127 1.898 . S
O136 C130 1.167 . S
O137 Zn128 2.120 . S
O137 C130 1.299 . S
O138 Zn126 1.898 . S
O138 C133 1.167 . S
O139 Zn128 2.120 . S
O139 C133 1.299 . S
O140 Zn128 2.114 . S
O140 C142 1.166 . S
O141 Zn126 1.905 . S
O141 C142 1.182 . S
C142 O140 1.166 . S
C142 O141 1.182 . S
O143 Zn128 2.080 . S
O143 C146 1.305 . S
O144 Zn127 1.920 . S
O144 C146 1.234 . S
C145 O131 1.305 . S
C145 O132 1.234 . S
C146 O143 1.305 . S
C146 O144 1.234 . S
Zn147 O153 1.920 . S
Zn147 O159 1.898 . S
Zn147 O162 1.905 . S
Zn148 O156 1.905 . S
Zn148 O157 1.898 . S
Zn148 O165 1.920 . S
Zn149 O152 2.080 . S
Zn149 O155 2.114 . S
Zn149 O158 2.120 . S
Zn149 O160 2.120 . S
Zn149 O161 2.114 . S
Zn149 O164 2.080 . S
C150 O155 1.166 . S
C150 O156 1.182 . S
C151 O157 1.167 . S
C151 O158 1.299 . S
O152 Zn149 2.080 . S
O152 C166 1.305 . S
O153 Zn147 1.920 . S
O153 C166 1.234 . S
C154 O159 1.167 . S
C154 O160 1.299 . S
O155 Zn149 2.114 . S
O155 C150 1.166 . S
O156 Zn148 1.905 . S
O156 C150 1.182 . S
O157 Zn148 1.898 . S
O157 C151 1.167 . S
O158 Zn149 2.120 . S
O158 C151 1.299 . S
O159 Zn147 1.898 . S
O159 C154 1.167 . S
O160 Zn149 2.120 . S
O160 C154 1.299 . S
O161 Zn149 2.114 . S
O161 C163 1.166 . S
O162 Zn147 1.905 . S
O162 C163 1.182 . S
C163 O161 1.166 . S
C163 O162 1.182 . S
O164 Zn149 2.080 . S
O164 C167 1.305 . S
O165 Zn148 1.920 . S
O165 C167 1.234 . S
C166 O152 1.305 . S
C166 O153 1.234 . S
C167 O164 1.305 . S
C167 O165 1.234 . S
C168 C169 1.363 . S
C168 C174 1.379 . S
C168 N176 1.356 . S
C169 C168 1.363 . S
C169 C175 1.363 . S
C170 C171 1.363 . S
C170 C175 1.379 . S
C170 N177 1.356 . S
C171 C170 1.363 . S
C171 C174 1.363 . S
N172 C174 1.356 . S
N172 H184 0.984 . S
N172 H185 0.985 . S
N173 C175 1.356 . S
N173 H178 0.984 . S
N173 H179 0.985 . S
C174 C168 1.379 . S
C174 C171 1.363 . S
C174 N172 1.356 . S
C175 C169 1.363 . S
C175 C170 1.379 . S
C175 N173 1.356 . S
N176 C168 1.356 . S
N176 H182 0.984 . S
N176 H183 0.984 . S
N177 C170 1.356 . S
N177 H180 0.984 . S
N177 H181 0.985 . S
H178 N173 0.984 . S
H179 N173 0.985 . S
H180 N177 0.984 . S
H181 N177 0.985 . S
H182 N176 0.984 . S
H183 N176 0.984 . S
H184 N172 0.984 . S
H185 N172 0.985 . S
C186 C187 1.363 . S
C186 C192 1.379 . S
C186 N194 1.356 . S
C187 C186 1.363 . S
C187 C193 1.363 . S
C188 C189 1.363 . S
C188 C193 1.379 . S
C188 N195 1.356 . S
C189 C188 1.363 . S
C189 C192 1.363 . S
N190 C192 1.356 . S
N190 H202 0.984 . S
N190 H203 0.985 . S
N191 C193 1.356 . S
N191 H196 0.984 . S
N191 H197 0.985 . S
C192 C186 1.379 . S
C192 C189 1.363 . S
C192 N190 1.356 . S
C193 C187 1.363 . S
C193 C188 1.379 . S
C193 N191 1.356 . S
N194 C186 1.356 . S
N194 H200 0.984 . S
N194 H201 0.984 . S
N195 C188 1.356 . S
N195 H198 0.984 . S
N195 H199 0.985 . S
H196 N191 0.984 . S
H197 N191 0.985 . S
H198 N195 0.984 . S
H199 N195 0.985 . S
H200 N194 0.984 . S
H201 N194 0.984 . S
H202 N190 0.984 . S
H203 N190 0.985 . S
C204 C205 1.363 . S
C204 C210 1.379 . S
C204 N212 1.356 . S
C205 C204 1.363 . S
C205 C211 1.363 . S
C206 C207 1.363 . S
C206 C211 1.379 . S
C206 N213 1.356 . S
C207 C206 1.363 . S
C207 C210 1.363 . S
N208 C210 1.356 . S
N208 H220 0.984 . S
N208 H221 0.985 . S
N209 C211 1.356 . S
N209 H214 0.984 . S
N209 H215 0.985 . S
C210 C204 1.379 . S
C210 C207 1.363 . S
C210 N208 1.356 . S
C211 C205 1.363 . S
C211 C206 1.379 . S
C211 N209 1.356 . S
N212 C204 1.356 . S
N212 H218 0.984 . S
N212 H219 0.984 . S
N213 C206 1.356 . S
N213 H216 0.984 . S
N213 H217 0.985 . S
H214 N209 0.984 . S
H215 N209 0.985 . S
H216 N213 0.984 . S
H217 N213 0.985 . S
H218 N212 0.984 . S
H219 N212 0.984 . S
H220 N208 0.984 . S
H221 N208 0.985 . S
C222 C223 1.363 . S
C222 C228 1.379 . S
C222 N230 1.356 . S
C223 C222 1.363 . S
C223 C229 1.363 . S
C224 C225 1.363 . S
C224 C229 1.379 . S
C224 N231 1.356 . S
C225 C224 1.363 . S
C225 C228 1.363 . S
N226 C228 1.356 . S
N226 H238 0.984 . S
N226 H239 0.985 . S
N227 C229 1.356 . S
N227 H232 0.984 . S
N227 H233 0.985 . S
C228 C222 1.379 . S
C228 C225 1.363 . S
C228 N226 1.356 . S
C229 C223 1.363 . S
C229 C224 1.379 . S
C229 N227 1.356 . S
N230 C222 1.356 . S
N230 H236 0.979 1_554 S
N230 H237 0.984 . S
N231 C224 1.356 . S
N231 H234 0.984 . S
N231 H235 0.985 . S
H232 N227 0.984 . S
H233 N227 0.985 . S
H234 N231 0.984 . S
H235 N231 0.985 . S
H236 N230 0.979 1_556 S
H237 N230 0.984 . S
H238 N226 0.984 . S
H239 N226 0.985 . S
C240 C241 1.363 . S
C240 C246 1.379 . S
C240 N248 1.356 . S
C241 C240 1.363 . S
C241 C247 1.363 . S
C242 C243 1.363 . S
C242 C247 1.379 . S
C242 N249 1.356 . S
C243 C242 1.363 . S
C243 C246 1.363 . S
N244 C246 1.356 . S
N244 H256 0.984 . S
N244 H257 0.985 . S
N245 C247 1.356 . S
N245 H250 0.984 . S
N245 H251 0.985 . S
C246 C240 1.379 . S
C246 C243 1.363 . S
C246 N244 1.356 . S
C247 C241 1.363 . S
C247 C242 1.379 . S
C247 N245 1.356 . S
N248 C240 1.356 . S
N248 H254 0.984 . S
N248 H255 0.984 . S
N249 C242 1.356 . S
N249 H252 0.984 . S
N249 H253 0.985 . S
H250 N245 0.984 . S
H251 N245 0.985 . S
H252 N249 0.984 . S
H253 N249 0.985 . S
H254 N248 0.984 . S
H255 N248 0.984 . S
H256 N244 0.984 . S
H257 N244 0.985 . S
C258 C259 1.363 . S
C258 C264 1.379 . S
C258 N266 1.356 . S
C259 C258 1.363 . S
C259 C265 1.363 . S
C260 C261 1.363 . S
C260 C265 1.379 . S
C260 N267 1.356 . S
C261 C260 1.363 . S
C261 C264 1.363 . S
N262 C264 1.356 . S
N262 H274 0.984 . S
N262 H275 0.985 . S
N263 C265 1.356 . S
N263 H268 0.984 . S
N263 H269 0.985 . S
C264 C258 1.379 . S
C264 C261 1.363 . S
C264 N262 1.356 . S
C265 C259 1.363 . S
C265 C260 1.379 . S
C265 N263 1.356 . S
N266 C258 1.356 . S
N266 H272 0.984 . S
N266 H273 0.984 . S
N267 C260 1.356 . S
N267 H270 0.984 . S
N267 H271 0.985 . S
H268 N263 0.984 . S
H269 N263 0.985 . S
H270 N267 0.984 . S
H271 N267 0.985 . S
H272 N266 0.984 . S
H273 N266 0.984 . S
H274 N262 0.984 . S
H275 N262 0.985 . S
C276 C277 1.363 . S
C276 C282 1.379 . S
C276 N284 1.356 . S
C277 C276 1.363 . S
C277 C283 1.363 . S
C278 C279 1.363 . S
C278 C283 1.379 . S
C278 N285 1.356 . S
C279 C278 1.363 . S
C279 C282 1.363 . S
N280 C282 1.356 . S
N280 H292 0.984 . S
N280 H293 0.985 . S
N281 C283 1.356 . S
N281 H286 0.984 . S
N281 H287 0.985 . S
C282 C276 1.379 . S
C282 C279 1.363 . S
C282 N280 1.356 . S
C283 C277 1.363 . S
C283 C278 1.379 . S
C283 N281 1.356 . S
N284 C276 1.356 . S
N284 H290 0.984 . S
N284 H291 0.984 . S
N285 C278 1.356 . S
N285 H288 0.984 . S
N285 H289 0.985 . S
H286 N281 0.984 . S
H287 N281 0.985 . S
H288 N285 0.984 . S
H289 N285 0.985 . S
H290 N284 0.984 . S
H291 N284 0.984 . S
H292 N280 0.984 . S
H293 N280 0.985 . S
C294 C295 1.363 . S
C294 C300 1.379 . S
C294 N302 1.356 . S
C295 C294 1.363 . S
C295 C301 1.363 . S
C296 C297 1.363 . S
C296 C301 1.379 . S
C296 N303 1.356 . S
C297 C296 1.363 . S
C297 C300 1.363 . S
N298 C300 1.356 . S
N298 H310 0.984 . S
N298 H311 0.985 . S
N299 C301 1.356 . S
N299 H304 0.984 . S
N299 H305 0.985 . S
C300 C294 1.379 . S
C300 C297 1.363 . S
C300 N298 1.356 . S
C301 C295 1.363 . S
C301 C296 1.379 . S
C301 N299 1.356 . S
N302 C294 1.356 . S
N302 H308 0.984 . S
N302 H309 0.984 . S
N303 C296 1.356 . S
N303 H306 0.984 . S
N303 H307 0.985 . S
H304 N299 0.984 . S
H305 N299 0.985 . S
H306 N303 0.984 . S
H307 N303 0.985 . S
H308 N302 0.984 . S
H309 N302 0.984 . S
H310 N298 0.984 . S
H311 N298 0.985 . S
C312 C313 1.363 . S
C312 C318 1.379 1_655 S
C312 N320 1.356 . S
C313 C312 1.363 . S
C313 C319 1.363 . S
C314 C315 1.363 . S
C314 C319 1.379 1_455 S
C314 N321 1.356 . S
C315 C314 1.363 . S
C315 C318 1.363 . S
N316 C318 1.356 . S
N316 H328 0.984 . S
N316 H329 0.985 . S
N317 C319 1.356 . S
N317 H322 0.984 . S
N317 H323 0.985 . S
C318 C312 1.379 1_455 S
C318 C315 1.363 . S
C318 N316 1.356 . S
C319 C313 1.363 . S
C319 C314 1.379 1_655 S
C319 N317 1.356 . S
N320 C312 1.356 . S
N320 H326 0.984 . S
N320 H327 0.984 . S
N321 C314 1.356 . S
N321 H324 0.984 . S
N321 H325 0.985 . S
H322 N317 0.984 . S
H323 N317 0.985 . S
H324 N321 0.984 . S
H325 N321 0.985 . S
H326 N320 0.984 . S
H327 N320 0.984 . S
H328 N316 0.984 . S
H329 N316 0.985 . S
C330 C331 1.363 . S
C330 C336 1.402 . S
C330 N338 1.356 . S
C331 C330 1.363 . S
C331 C337 1.339 1_545 S
C332 C333 1.363 . S
C332 C337 1.402 . S
C332 N339 1.356 . S
C333 C332 1.363 . S
C333 C336 1.339 1_565 S
N334 C336 1.349 1_565 S
N334 H346 0.984 1_566 S
N334 H347 0.985 . S
N335 C337 1.349 1_545 S
N335 H340 0.984 . S
N335 H341 0.985 1_545 S
C336 C330 1.402 . S
C336 C333 1.339 1_545 S
C336 N334 1.349 1_545 S
C337 C331 1.339 1_565 S
C337 C332 1.402 . S
C337 N335 1.349 1_565 S
N338 C330 1.356 . S
N338 H344 0.984 . S
N338 H345 0.984 . S
N339 C332 1.356 . S
N339 H342 0.984 . S
N339 H343 0.985 . S
H340 N335 0.984 . S
H341 N335 0.985 1_565 S
H342 N339 0.984 . S
H343 N339 0.985 . S
H344 N338 0.984 . S
H345 N338 0.984 . S
H346 N334 0.984 1_544 S
H347 N334 0.985 . S
C348 C349 1.363 . S
C348 C354 1.379 1_655 S
C348 N356 1.356 . S
C349 C348 1.363 . S
C349 C355 1.363 . S
C350 C351 1.363 . S
C350 C355 1.379 1_455 S
C350 N357 1.356 . S
C351 C350 1.363 . S
C351 C354 1.363 . S
N352 C354 1.356 . S
N352 H364 0.984 . S
N352 H365 0.985 . S
N353 C355 1.356 . S
N353 H358 0.984 . S
N353 H359 0.985 . S
C354 C348 1.379 1_455 S
C354 C351 1.363 . S
C354 N352 1.356 . S
C355 C349 1.363 . S
C355 C350 1.379 1_655 S
C355 N353 1.356 . S
N356 C348 1.356 . S
N356 H362 0.984 . S
N356 H363 0.984 . S
N357 C350 1.356 . S
N357 H360 0.984 . S
N357 H361 0.985 . S
H358 N353 0.984 . S
H359 N353 0.985 . S
H360 N357 0.984 . S
H361 N357 0.985 . S
H362 N356 0.984 . S
H363 N356 0.984 . S
H364 N352 0.984 . S
H365 N352 0.985 . S
C366 C367 1.363 . S
C366 C372 1.356 1_545 S
C366 N374 1.356 . S
C367 C366 1.363 . S
C367 C373 1.386 . S
C368 C369 1.363 . S
C368 C373 1.356 1_565 S
C368 N375 1.356 . S
C369 C368 1.363 . S
C369 C372 1.386 . S
N370 C372 1.365 . S
N370 H382 0.984 1_565 S
N370 H383 0.985 . S
N371 C373 1.365 . S
N371 H376 0.984 . S
N371 H377 0.985 1_545 S
C372 C366 1.356 1_565 S
C372 C369 1.386 . S
C372 N370 1.365 . S
C373 C367 1.386 . S
C373 C368 1.356 1_545 S
C373 N371 1.365 . S
N374 C366 1.356 . S
N374 H380 0.984 . S
N374 H381 0.984 . S
N375 C368 1.356 . S
N375 H378 0.984 . S
N375 H379 0.985 . S
H376 N371 0.984 . S
H377 N371 0.985 1_565 S
H378 N375 0.984 . S
H379 N375 0.985 . S
H380 N374 0.984 . S
H381 N374 0.984 . S
H382 N370 0.984 1_545 S
H383 N370 0.985 . S
C384 C385 1.363 . S
C384 C390 1.379 1_455 S
C384 N392 1.356 . S
C385 C384 1.363 . S
C385 C391 1.363 . S
C386 C387 1.363 . S
C386 C391 1.379 1_655 S
C386 N393 1.356 . S
C387 C386 1.363 . S
C387 C390 1.363 . S
N388 C390 1.356 . S
N388 H400 0.984 . S
N388 H401 0.985 . S
N389 C391 1.356 . S
N389 H394 0.984 . S
N389 H395 0.985 . S
C390 C384 1.379 1_655 S
C390 C387 1.363 . S
C390 N388 1.356 . S
C391 C385 1.363 . S
C391 C386 1.379 1_455 S
C391 N389 1.356 . S
N392 C384 1.356 . S
N392 H398 0.979 1_455 S
N392 H399 0.984 . S
N393 C386 1.356 . S
N393 H396 0.984 . S
N393 H397 0.979 1_655 S
H394 N389 0.984 . S
H395 N389 0.985 . S
H396 N393 0.984 . S
H397 N393 0.979 1_455 S
H398 N392 0.979 1_655 S
H399 N392 0.984 . S
H400 N388 0.984 . S
H401 N388 0.985 . S
C402 C403 1.363 . S
C402 C408 1.379 . S
C402 N410 1.356 . S
C403 C402 1.363 . S
C403 C409 1.363 1_565 S
C404 C405 1.363 . S
C404 C409 1.379 . S
C404 N411 1.356 . S
C405 C404 1.363 . S
C405 C408 1.363 1_545 S
N406 C408 1.356 . S
N406 H418 0.984 1_554 S
N406 H419 0.985 1_565 S
N407 C409 1.356 . S
N407 H412 0.984 1_545 S
N407 H413 0.985 . S
C408 C402 1.379 . S
C408 C405 1.363 1_565 S
C408 N406 1.356 . S
C409 C403 1.363 1_545 S
C409 C404 1.379 . S
C409 N407 1.356 . S
N410 C402 1.356 . S
N410 H416 0.984 . S
N410 H417 0.984 . S
N411 C404 1.356 . S
N411 H414 0.984 . S
N411 H415 0.985 . S
H412 N407 0.984 1_565 S
H413 N407 0.985 . S
H414 N411 0.984 . S
H415 N411 0.985 . S
H416 N410 0.984 . S
H417 N410 0.984 . S
H418 N406 0.984 1_556 S
H419 N406 0.985 1_545 S
C420 C421 1.363 . S
C420 C426 1.379 1_655 S
C420 N428 1.356 . S
C421 C420 1.363 . S
C421 C427 1.363 . S
C422 C423 1.363 . S
C422 C427 1.379 1_455 S
C422 N429 1.356 . S
C423 C422 1.363 . S
C423 C426 1.363 . S
N424 C426 1.356 . S
N424 H436 0.979 1_455 S
N424 H437 0.985 . S
N425 C427 1.356 . S
N425 H430 0.984 . S
N425 H431 0.979 1_655 S
C426 C420 1.379 1_455 S
C426 C423 1.363 . S
C426 N424 1.356 . S
C427 C421 1.363 . S
C427 C422 1.379 1_655 S
C427 N425 1.356 . S
N428 C420 1.356 . S
N428 H434 0.984 . S
N428 H435 0.984 . S
N429 C422 1.356 . S
N429 H432 0.984 . S
N429 H433 0.985 . S
H430 N425 0.984 . S
H431 N425 0.979 1_455 S
H432 N429 0.984 . S
H433 N429 0.985 . S
H434 N428 0.984 . S
H435 N428 0.984 . S
H436 N424 0.979 1_655 S
H437 N424 0.985 . S
C438 C439 1.363 . S
C438 C444 1.379 . S
C438 N446 1.356 . S
C439 C438 1.363 . S
C439 C445 1.363 1_565 S
C440 C441 1.363 . S
C440 C445 1.379 . S
C440 N447 1.356 . S
C441 C440 1.363 . S
C441 C444 1.363 1_545 S
N442 C444 1.357 . S
N442 H454 0.988 . S
N442 H455 0.980 1_565 S
N443 C445 1.357 . S
N443 H448 0.980 1_545 S
N443 H449 0.988 . S
C444 C438 1.379 . S
C444 C441 1.363 1_565 S
C444 N442 1.357 . S
C445 C439 1.363 1_545 S
C445 C440 1.379 . S
C445 N443 1.357 . S
N446 C438 1.356 . S
N446 H452 0.984 . S
N446 H453 0.984 . S
N447 C440 1.356 . S
N447 H450 0.984 . S
N447 H451 0.985 . S
H448 N443 0.980 1_565 S
H449 N443 0.988 . S
H450 N447 0.984 . S
H451 N447 0.985 . S
H452 N446 0.984 . S
H453 N446 0.984 . S
H454 N442 0.988 . S
H455 N442 0.980 1_545 S
C456 C457 1.363 . S
C456 C462 1.379 . S
C456 N464 1.356 . S
C457 C456 1.363 . S
C457 C463 1.363 . S
C458 C459 1.363 . S
C458 C463 1.379 . S
C458 N465 1.356 . S
C459 C458 1.363 . S
C459 C462 1.363 . S
N460 C462 1.356 . S
N460 H472 0.984 . S
N460 H473 0.985 . S
N461 C463 1.356 . S
N461 H466 0.984 . S
N461 H467 0.985 . S
C462 C456 1.379 . S
C462 C459 1.363 . S
C462 N460 1.356 . S
C463 C457 1.363 . S
C463 C458 1.379 . S
C463 N461 1.356 . S
N464 C456 1.356 . S
N464 H470 0.984 . S
N464 H471 0.984 . S
N465 C458 1.356 . S
N465 H468 0.984 . S
N465 H469 0.985 . S
H466 N461 0.984 . S
H467 N461 0.985 . S
H468 N465 0.984 . S
H469 N465 0.985 . S
H470 N464 0.984 . S
H471 N464 0.984 . S
H472 N460 0.984 . S
H473 N460 0.985 . S
C474 C475 1.363 . S
C474 C480 1.379 . S
C474 N482 1.356 . S
C475 C474 1.363 . S
C475 C481 1.363 . S
C476 C477 1.363 . S
C476 C481 1.379 . S
C476 N483 1.356 . S
C477 C476 1.363 . S
C477 C480 1.363 . S
N478 C480 1.356 . S
N478 H490 0.984 . S
N478 H491 0.985 . S
N479 C481 1.356 . S
N479 H484 0.984 . S
N479 H485 0.985 . S
C480 C474 1.379 . S
C480 C477 1.363 . S
C480 N478 1.356 . S
C481 C475 1.363 . S
C481 C476 1.379 . S
C481 N479 1.356 . S
N482 C474 1.356 . S
N482 H488 0.978 1_554 S
N482 H489 0.984 . S
N483 C476 1.356 . S
N483 H486 0.984 . S
N483 H487 0.985 . S
H484 N479 0.984 . S
H485 N479 0.985 . S
H486 N483 0.984 . S
H487 N483 0.985 . S
H488 N482 0.978 1_556 S
H489 N482 0.984 . S
H490 N478 0.984 . S
H491 N478 0.985 . S
C492 C493 1.363 . S
C492 C498 1.379 . S
C492 N500 1.356 . S
C493 C492 1.363 . S
C493 C499 1.363 . S
C494 C495 1.363 . S
C494 C499 1.379 . S
C494 N501 1.356 . S
C495 C494 1.363 . S
C495 C498 1.363 . S
N496 C498 1.356 . S
N496 H508 0.984 . S
N496 H509 0.985 . S
N497 C499 1.356 . S
N497 H502 0.984 . S
N497 H503 0.985 . S
C498 C492 1.379 . S
C498 C495 1.363 . S
C498 N496 1.356 . S
C499 C493 1.363 . S
C499 C494 1.379 . S
C499 N497 1.356 . S
N500 C492 1.356 . S
N500 H506 0.984 . S
N500 H507 0.984 . S
N501 C494 1.356 . S
N501 H504 0.984 . S
N501 H505 0.985 . S
H502 N497 0.984 . S
H503 N497 0.985 . S
H504 N501 0.984 . S
H505 N501 0.985 . S
H506 N500 0.984 . S
H507 N500 0.984 . S
H508 N496 0.984 . S
H509 N496 0.985 . S
C510 C511 1.363 . S
C510 C516 1.379 . S
C510 N518 1.356 . S
C511 C510 1.363 . S
C511 C517 1.363 . S
C512 C513 1.363 . S
C512 C517 1.379 . S
C512 N519 1.356 . S
C513 C512 1.363 . S
C513 C516 1.363 . S
N514 C516 1.356 . S
N514 H526 0.984 . S
N514 H527 0.985 . S
N515 C517 1.356 . S
N515 H520 0.984 . S
N515 H521 0.985 . S
C516 C510 1.379 . S
C516 C513 1.363 . S
C516 N514 1.356 . S
C517 C511 1.363 . S
C517 C512 1.379 . S
C517 N515 1.356 . S
N518 C510 1.356 . S
N518 H524 0.984 . S
N518 H525 0.984 . S
N519 C512 1.356 . S
N519 H522 0.984 . S
N519 H523 0.985 . S
H520 N515 0.984 . S
H521 N515 0.985 . S
H522 N519 0.984 . S
H523 N519 0.985 . S
H524 N518 0.984 . S
H525 N518 0.984 . S
H526 N514 0.984 . S
H527 N514 0.985 . S
C528 C529 1.363 . S
C528 C534 1.379 . S
C528 N536 1.356 . S
C529 C528 1.363 . S
C529 C535 1.363 . S
C530 C531 1.363 . S
C530 C535 1.379 . S
C530 N537 1.356 . S
C531 C530 1.363 . S
C531 C534 1.363 . S
N532 C534 1.356 . S
N532 H544 0.984 . S
N532 H545 0.985 . S
N533 C535 1.356 . S
N533 H538 0.984 . S
N533 H539 0.985 . S
C534 C528 1.379 . S
C534 C531 1.363 . S
C534 N532 1.356 . S
C535 C529 1.363 . S
C535 C530 1.379 . S
C535 N533 1.356 . S
N536 C528 1.356 . S
N536 H542 0.984 . S
N536 H543 0.984 . S
N537 C530 1.356 . S
N537 H540 0.984 . S
N537 H541 0.983 1_556 S
H538 N533 0.984 . S
H539 N533 0.985 . S
H540 N537 0.984 . S
H541 N537 0.983 1_554 S
H542 N536 0.984 . S
H543 N536 0.984 . S
H544 N532 0.984 . S
H545 N532 0.985 . S
C546 C547 1.363 . S
C546 C552 1.379 . S
C546 N554 1.356 . S
C547 C546 1.363 . S
C547 C553 1.363 . S
C548 C549 1.363 . S
C548 C553 1.379 . S
C548 N555 1.356 . S
C549 C548 1.363 . S
C549 C552 1.363 . S
N550 C552 1.356 . S
N550 H562 0.984 . S
N550 H563 0.985 . S
N551 C553 1.356 . S
N551 H556 0.984 . S
N551 H557 0.985 . S
C552 C546 1.379 . S
C552 C549 1.363 . S
C552 N550 1.356 . S
C553 C547 1.363 . S
C553 C548 1.379 . S
C553 N551 1.356 . S
N554 C546 1.356 . S
N554 H560 0.984 . S
N554 H561 0.984 . S
N555 C548 1.356 . S
N555 H558 0.984 . S
N555 H559 0.985 . S
H556 N551 0.984 . S
H557 N551 0.985 . S
H558 N555 0.984 . S
H559 N555 0.985 . S
H560 N554 0.984 . S
H561 N554 0.984 . S
H562 N550 0.984 . S
H563 N550 0.985 . S
C564 C565 1.363 . S
C564 C570 1.379 . S
C564 N572 1.356 . S
C565 C564 1.363 . S
C565 C571 1.363 . S
C566 C567 1.363 . S
C566 C571 1.379 . S
C566 N573 1.356 . S
C567 C566 1.363 . S
C567 C570 1.363 . S
N568 C570 1.356 . S
N568 H580 0.984 . S
N568 H581 0.985 . S
N569 C571 1.356 . S
N569 H574 0.984 . S
N569 H575 0.985 . S
C570 C564 1.379 . S
C570 C567 1.363 . S
C570 N568 1.356 . S
C571 C565 1.363 . S
C571 C566 1.379 . S
C571 N569 1.356 . S
N572 C564 1.356 . S
N572 H578 0.984 . S
N572 H579 0.984 . S
N573 C566 1.356 . S
N573 H576 0.984 . S
N573 H577 0.985 . S
H574 N569 0.984 . S
H575 N569 0.985 . S
H576 N573 0.984 . S
H577 N573 0.985 . S
H578 N572 0.984 . S
H579 N572 0.984 . S
H580 N568 0.984 . S
H581 N568 0.985 . S
C582 C583 1.363 . S
C582 C588 1.379 . S
C582 N590 1.356 . S
C583 C582 1.363 . S
C583 C589 1.363 . S
C584 C585 1.363 . S
C584 C589 1.379 . S
C584 N591 1.356 . S
C585 C584 1.363 . S
C585 C588 1.363 . S
N586 C588 1.356 . S
N586 H598 0.984 . S
N586 H599 0.985 . S
N587 C589 1.356 . S
N587 H592 0.984 . S
N587 H593 0.985 . S
C588 C582 1.379 . S
C588 C585 1.363 . S
C588 N586 1.356 . S
C589 C583 1.363 . S
C589 C584 1.379 . S
C589 N587 1.356 . S
N590 C582 1.356 . S
N590 H596 0.984 . S
N590 H597 0.984 . S
N591 C584 1.356 . S
N591 H594 0.984 . S
N591 H595 0.985 . S
H592 N587 0.984 . S
H593 N587 0.985 . S
H594 N591 0.984 . S
H595 N591 0.985 . S
H596 N590 0.984 . S
H597 N590 0.984 . S
H598 N586 0.984 . S
H599 N586 0.985 . S
C169 C133 1.423 . S
C171 C4 1.423 . S
C187 C25 1.423 . S
C189 C151 1.423 . S
C205 C88 1.423 . S
C207 C49 1.423 . S
C223 C70 1.423 . S
C225 C112 1.423 . S
C241 C100 1.204 . S
C243 C45 1.204 . S
C259 C66 1.204 . S
C261 C108 1.204 . S
C277 C129 1.204 . S
C279 C16 1.204 . S
C295 C37 1.204 . S
C297 C163 1.204 . S
C313 C28 1.423 . S
C315 C109 1.424 . S
C331 C130 1.423 . S
C333 C46 1.424 . S
C349 C154 1.423 . S
C351 C67 1.424 . S
C367 C7 1.423 . S
C369 C91 1.424 . S
C385 C79 1.204 . S
C387 C150 1.204 . S
C403 C87 1.204 . S
C405 C3 1.204 . S
C421 C24 1.204 . S
C423 C121 1.204 . S
C439 C58 1.204 . S
C441 C142 1.204 . S
C457 C167 1.125 . S
C459 C20 1.125 . S
C475 C41 1.125 . S
C477 C104 1.125 . S
C493 C61 1.125 . S
C495 C124 1.125 . S
C511 C145 1.125 . S
C513 C82 1.125 . S
C529 C125 1.125 . S
C531 C62 1.125 . S
C547 C146 1.125 . S
C549 C83 1.125 . S
C565 C166 1.125 . S
C567 C19 1.125 . S
C583 C103 1.125 . S
C585 C40 1.125 . S
