# Generated by pormake.
# Topology wjh, (4)-cn, num edge types: 1
# Building blocks:
#     Node 0, Type 0, BuildingBlock: TATPOV_clean_sbu_0, # of connection points: 4
#     Node 1, Type 0, BuildingBlock: TATPOV_clean_sbu_0, # of connection points: 4
#     Node 2, Type 0, BuildingBlock: TATPOV_clean_sbu_0, # of connection points: 4
#     Node 3, Type 0, BuildingBlock: TATPOV_clean_sbu_0, # of connection points: 4
#     Node 4, Type 0, BuildingBlock: TATPOV_clean_sbu_0, # of connection points: 4
#     Node 5, Type 0, BuildingBlock: TATPOV_clean_sbu_0, # of connection points: 4
#     Node 6, Type 0, BuildingBlock: TATPOV_clean_sbu_0, # of connection points: 4
#     Node 7, Type 0, BuildingBlock: TATPOV_clean_sbu_0, # of connection points: 4
#     Node 8, Type 0, BuildingBlock: TATPOV_clean_sbu_0, # of connection points: 4
#     Node 9, Type 0, BuildingBlock: TATPOV_clean_sbu_0, # of connection points: 4
#     Node 10, Type 0, BuildingBlock: TATPOV_clean_sbu_0, # of connection points: 4
#     Node 11, Type 0, BuildingBlock: TATPOV_clean_sbu_0, # of connection points: 4
#     Edge 12, Type (0, 0), BuildingBlock: OJICUG_clean_linker_0, # of connection points: 2
#     Edge 13, Type (0, 0), BuildingBlock: OJICUG_clean_linker_0, # of connection points: 2
#     Edge 14, Type (0, 0), BuildingBlock: OJICUG_clean_linker_0, # of connection points: 2
#     Edge 15, Type (0, 0), BuildingBlock: OJICUG_clean_linker_0, # of connection points: 2
#     Edge 16, Type (0, 0), BuildingBlock: OJICUG_clean_linker_0, # of connection points: 2
#     Edge 17, Type (0, 0), BuildingBlock: OJICUG_clean_linker_0, # of connection points: 2
#     Edge 18, Type (0, 0), BuildingBlock: OJICUG_clean_linker_0, # of connection points: 2
#     Edge 19, Type (0, 0), BuildingBlock: OJICUG_clean_linker_0, # of connection points: 2
#     Edge 20, Type (0, 0), BuildingBlock: OJICUG_clean_linker_0, # of connection points: 2
#     Edge 21, Type (0, 0), BuildingBlock: OJICUG_clean_linker_0, # of connection points: 2
#     Edge 22, Type (0, 0), BuildingBlock: OJICUG_clean_linker_0, # of connection points: 2
#     Edge 23, Type (0, 0), BuildingBlock: OJICUG_clean_linker_0, # of connection points: 2
#     Edge 24, Type (0, 0), BuildingBlock: OJICUG_clean_linker_0, # of connection points: 2
#     Edge 25, Type (0, 0), BuildingBlock: OJICUG_clean_linker_0, # of connection points: 2
#     Edge 26, Type (0, 0), BuildingBlock: OJICUG_clean_linker_0, # of connection points: 2
#     Edge 27, Type (0, 0), BuildingBlock: OJICUG_clean_linker_0, # of connection points: 2
#     Edge 28, Type (0, 0), BuildingBlock: OJICUG_clean_linker_0, # of connection points: 2
#     Edge 29, Type (0, 0), BuildingBlock: OJICUG_clean_linker_0, # of connection points: 2
#     Edge 30, Type (0, 0), BuildingBlock: OJICUG_clean_linker_0, # of connection points: 2
#     Edge 31, Type (0, 0), BuildingBlock: OJICUG_clean_linker_0, # of connection points: 2
#     Edge 32, Type (0, 0), BuildingBlock: OJICUG_clean_linker_0, # of connection points: 2
#     Edge 33, Type (0, 0), BuildingBlock: OJICUG_clean_linker_0, # of connection points: 2
#     Edge 34, Type (0, 0), BuildingBlock: OJICUG_clean_linker_0, # of connection points: 2
#     Edge 35, Type (0, 0), BuildingBlock: OJICUG_clean_linker_0, # of connection points: 2
# Relax obj value: 0.163
# Max RMSD: 0.153
# Mean RMSD: 0.153
data_MOF--net-wjh--node1-TATPOV_clean_sbu_0--edge1-OJICUG_clean_linker_0
_symmetry_space_group_name_H-M    P1
_symmetry_Int_Tables_number       1
_symmetry_cell_setting            triclinic
loop_
_symmetry_equiv_pos_as_xyz
'x, y, z'
_cell_length_a     45.616209
_cell_length_b     46.232301
_cell_length_c     18.008072
_cell_angle_alpha  89.888841
_cell_angle_beta   89.717997
_cell_angle_gamma 121.31633
loop_
_atom_site_label
_atom_site_type_symbol
_atom_site_fract_x
_atom_site_fract_y
_atom_site_fract_z
_atom_type_partial_charge
Zn0 Zn 0.45461 0.11439 0.24311 0.0
Zn1 Zn 0.48696 0.11389 0.12236 0.0
O2 O 0.49624 0.16284 0.13004 0.0
O3 O 0.47189 0.16299 0.23603 0.0
O4 O 0.51237 0.11384 0.02714 0.0
O5 O 0.40908 0.07919 0.20779 0.0
O6 O 0.43617 0.0742 0.11145 0.0
C7 C 0.48991 0.17857 0.17983 0.0
C8 C 0.50439 0.09815 0.27525 0.0
O9 O 0.51065 0.10346 0.20589 0.0
O10 O 0.48036 0.10023 0.3046 0.0
C11 C 0.5445 0.12499 0.0288 0.0
O12 O 0.56092 0.13698 0.09158 0.0
C13 C 0.40867 0.06385 0.1495 0.0
Zn14 Zn 0.29765 0.40097 0.33148 0.0
Zn15 Zn 0.32365 0.44227 0.20665 0.0
O16 O 0.27305 0.42924 0.21533 0.0
O17 O 0.25203 0.39496 0.3127 0.0
O18 O 0.34501 0.47245 0.11285 0.0
O19 O 0.31339 0.37089 0.2944 0.0
O20 O 0.33502 0.40478 0.19682 0.0
C21 C 0.24852 0.41138 0.26087 0.0
C22 C 0.34944 0.46953 0.36247 0.0
O23 O 0.34977 0.47356 0.29239 0.0
O24 O 0.32987 0.44087 0.39206 0.0
C25 C 0.37768 0.49088 0.10872 0.0
O26 O 0.39576 0.48943 0.16362 0.0
C27 C 0.33033 0.37923 0.23433 0.0
Zn28 Zn 0.85807 0.31908 0.49033 0.0
Zn29 Zn 0.83361 0.33457 0.37903 0.0
O30 O 0.80248 0.28221 0.39462 0.0
O31 O 0.83497 0.27058 0.46324 0.0
O32 O 0.81962 0.35183 0.28915 0.0
O33 O 0.90694 0.35153 0.46591 0.0
O34 O 0.88597 0.35753 0.36129 0.0
C35 C 0.8074 0.2607 0.42841 0.0
C36 C 0.82186 0.35095 0.53339 0.0
O37 O 0.82279 0.35614 0.4638 0.0
O38 O 0.83346 0.33346 0.55948 0.0
C39 C 0.81041 0.33919 0.22467 0.0
O40 O 0.80634 0.30941 0.21107 0.0
C41 C 0.91163 0.36422 0.40167 0.0
Zn42 Zn 0.45214 0.84024 0.79329 0.0
Zn43 Zn 0.42278 0.83504 0.6676 0.0
O44 O 0.42836 0.79324 0.66507 0.0
O45 O 0.46199 0.80542 0.76258 0.0
O46 O 0.40037 0.83676 0.56909 0.0
O47 O 0.48865 0.88819 0.78357 0.0
O48 O 0.47062 0.8801 0.66779 0.0
C49 C 0.44692 0.78703 0.70719 0.0
C50 C 0.38604 0.82523 0.81843 0.0
O51 O 0.38776 0.83004 0.74829 0.0
O52 O 0.41084 0.82658 0.85244 0.0
C53 C 0.37095 0.81278 0.54839 0.0
O54 O 0.35491 0.78532 0.58973 0.0
C55 C 0.49271 0.89823 0.71704 0.0
Zn56 Zn 0.67743 0.58181 0.80694 0.0
Zn57 Zn 0.6486 0.53892 0.69244 0.0
O58 O 0.69666 0.54619 0.71222 0.0
O59 O 0.724 0.59005 0.78675 0.0
O60 O 0.62784 0.50831 0.60012 0.0
O61 O 0.66132 0.61195 0.77404 0.0
O62 O 0.63938 0.57783 0.67799 0.0
C63 C 0.72337 0.56671 0.74907 0.0
C64 C 0.62232 0.51496 0.84739 0.0
O65 O 0.61929 0.51016 0.77758 0.0
O66 O 0.64589 0.54273 0.87381 0.0
C67 C 0.59523 0.49218 0.59377 0.0
O68 O 0.57726 0.49633 0.6453 0.0
C69 C 0.64407 0.60344 0.71496 0.0
Zn70 Zn 0.11586 0.65635 0.96647 0.0
Zn71 Zn 0.13801 0.64761 0.85412 0.0
O72 O 0.16301 0.69964 0.87786 0.0
O73 O 0.11914 0.69867 0.92913 0.0
O74 O 0.15139 0.63736 0.75182 0.0
O75 O 0.07046 0.61426 0.96788 0.0
O76 O 0.08453 0.61965 0.84983 0.0
C77 C 0.14986 0.71556 0.90713 0.0
C78 C 0.16323 0.6385 0.9989 0.0
O79 O 0.15552 0.62817 0.93212 0.0
O80 O 0.15388 0.6578 0.02532 0.0
C81 C 0.14545 0.60739 0.74182 0.0
O82 O 0.13374 0.58611 0.79813 0.0
C83 C 0.06194 0.60582 0.9013 0.0
Zn84 Zn 0.86103 0.51253 0.76117 0.0
Zn85 Zn 0.84222 0.4797 0.87838 0.0
O86 O 0.81377 0.50328 0.86669 0.0
O87 O 0.84718 0.54487 0.79014 0.0
O88 O 0.82921 0.45173 0.97584 0.0
O89 O 0.90964 0.52618 0.7682 0.0
O90 O 0.89534 0.51096 0.88475 0.0
C91 C 0.82106 0.5304 0.83175 0.0
C92 C 0.8216 0.445 0.72931 0.0
O93 O 0.82836 0.44422 0.79747 0.0
O94 O 0.82947 0.47283 0.69913 0.0
C95 C 0.80968 0.41951 0.97641 0.0
O96 O 0.79437 0.4041 0.91469 0.0
C97 C 0.91832 0.52518 0.83412 0.0
Zn98 Zn 0.2493 0.8677 0.02835 0.0
Zn99 Zn 0.28411 0.8551 0.16545 0.0
O100 O 0.23387 0.81708 0.17111 0.0
O101 O 0.2173 0.84722 0.11569 0.0
O102 O 0.30946 0.85109 0.25673 0.0
O103 O 0.28481 0.91614 0.04582 0.0
O104 O 0.29899 0.90574 0.15667 0.0
C105 C 0.21233 0.81824 0.12901 0.0
C106 C 0.2926 0.83714 1.00679 0.0
O107 O 0.30172 0.84302 0.07475 0.0
O108 O 0.27015 0.84263 0.9803 0.0
C109 C 0.301 0.82283 0.28729 0.0
O110 O 0.27498 0.79501 0.25997 0.0
C111 C 0.30077 0.92638 0.10666 0.0
Zn112 Zn 0.47647 0.34059 0.07187 0.0
Zn113 Zn 0.5091 0.37278 0.19553 0.0
O114 O 0.51306 0.32994 0.1933 0.0
O115 O 0.48985 0.30695 0.0855 0.0
O116 O 0.53536 0.40015 0.28878 0.0
O117 O 0.432 0.33329 0.10574 0.0
O118 O 0.45924 0.36288 0.20505 0.0
C119 C 0.50531 0.30734 0.14375 0.0
C120 C 0.5306 0.40565 0.03999 0.0
O121 O 0.53553 0.40614 0.10979 0.0
O122 O 0.5057 0.38008 1.01004 0.0
C123 C 0.52052 0.40259 0.34659 0.0
O124 O 0.48683 0.38589 0.34873 0.0
C125 C 0.43202 0.34717 0.16606 0.0
Zn126 Zn 0.10585 0.46939 0.21048 0.0
Zn127 Zn 0.12816 0.49963 0.3384 0.0
O128 O 0.15172 0.47135 0.3268 0.0
O129 O 0.12722 0.44236 0.2248 0.0
O130 O 0.1405 0.52366 0.44066 0.0
O131 O 0.05657 0.45023 0.23217 0.0
O132 O 0.07501 0.46956 0.34459 0.0
C133 C 0.14787 0.44957 0.27783 0.0
C134 C 0.14978 0.53909 0.19057 0.0
O135 O 0.14849 0.53886 0.26138 0.0
O136 O 0.13344 0.5118 0.15479 0.0
C137 C 0.1419 0.55181 0.44953 0.0
O138 O 0.137 0.5661 0.39169 0.0
C139 C 0.05035 0.45262 0.29953 0.0
Zn140 Zn 0.64672 0.07003 0.51716 0.0
Zn141 Zn 0.62579 0.09697 0.6221 0.0
O142 O 0.675 0.13417 0.58883 0.0
O143 O 0.69523 0.10835 0.52178 0.0
O144 O 0.60878 0.11361 0.70845 0.0
O145 O 0.62762 0.02605 0.57054 0.0
O146 O 0.61157 0.0491 0.6559 0.0
C147 C 0.69907 0.13512 0.55002 0.0
C148 C 0.59448 0.08355 0.47067 0.0
O149 O 0.595 0.09199 0.53807 0.0
O150 O 0.61488 0.07469 0.44728 0.0
C151 C 0.61737 0.11319 0.77548 0.0
O152 O 0.64049 0.10505 0.78891 0.0
C153 C 0.61188 0.02359 0.6304 0.0
Zn154 Zn 0.49527 0.64581 0.57991 0.0
Zn155 Zn 0.46322 0.60977 0.70554 0.0
O156 O 0.45814 0.65176 0.7089 0.0
O157 O 0.48978 0.6831 0.61392 0.0
O158 O 0.43742 0.58078 0.79842 0.0
O159 O 0.53686 0.6448 0.60229 0.0
O160 O 0.51318 0.61921 0.70885 0.0
C161 C 0.47086 0.67865 0.66944 0.0
C162 C 0.43728 0.58203 0.54889 0.0
O163 O 0.43639 0.5786 0.61928 0.0
O164 O 0.45951 0.60944 0.5182 0.0
C165 C 0.45215 0.58033 0.85807 0.0
O166 O 0.48568 0.59986 0.86226 0.0
C167 C 0.53849 0.63213 0.66316 0.0
C168 C 0.55332 0.08912 0.29448 0.0
C169 C 0.52611 0.09158 0.32355 0.0
H170 H 0.59653 0.08439 0.31891 0.0
C171 C 0.52054 0.08941 0.4007 0.0
H172 H 0.55809 0.09062 0.2352 0.0
C173 C 0.5425 0.08618 0.44817 0.0
C174 C 0.57028 0.08472 0.41951 0.0
H175 H 0.49966 0.09105 0.42494 0.0
H176 H 0.53787 0.08521 0.50746 0.0
C177 C 0.57522 0.08553 0.34227 0.0
C178 C 0.39368 0.53044 0.37892 0.0
C179 C 0.37142 0.49847 0.4102 0.0
H180 H 0.43177 0.58207 0.39848 0.0
C181 C 0.37002 0.49437 0.48778 0.0
H182 H 0.39518 0.53439 0.31936 0.0
C183 C 0.39091 0.52172 0.53324 0.0
C184 C 0.41357 0.55357 0.50184 0.0
H185 H 0.35292 0.47001 0.51355 0.0
H186 H 0.38962 0.51776 0.59277 0.0
C187 C 0.41458 0.55776 0.42434 0.0
C188 C 0.80557 0.41712 0.6061 0.0
C189 C 0.81084 0.4153 0.68232 0.0
H190 H 0.80459 0.39757 0.49834 0.0
C191 C 0.81178 0.38744 0.71026 0.0
H192 H 0.80395 0.43794 0.58328 0.0
C193 C 0.81225 0.36437 0.66155 0.0
C194 C 0.81165 0.36888 0.58453 0.0
H195 H 0.81515 0.38503 0.76899 0.0
H196 H 0.81573 0.34461 0.68408 0.0
C197 C 0.80596 0.394 0.55742 0.0
C198 C 0.33354 0.82894 0.83242 0.0
C199 C 0.35697 0.82123 0.86261 0.0
H200 H 0.29417 0.83975 0.85504 0.0
C201 C 0.35492 0.81327 0.9386 0.0
H202 H 0.33433 0.83481 0.77391 0.0
C203 C 0.33223 0.81628 0.98495 0.0
C204 C 0.31101 0.82706 0.95608 0.0
H205 H 0.37215 0.80646 0.96324 0.0
H206 H 0.33256 0.81178 0.04393 0.0
C207 C 0.31059 0.83175 0.87893 0.0
C208 C 0.54854 0.43191 0.91513 0.0
C209 C 0.55392 0.43437 0.99223 0.0
H210 H 0.56587 0.45542 0.80921 0.0
C211 C 0.58163 0.46395 0.02192 0.0
H212 H 0.52737 0.40945 0.89038 0.0
C213 C 0.6038 0.49054 0.97491 0.0
C214 C 0.59856 0.48773 0.89772 0.0
H215 H 0.58628 0.4665 0.08115 0.0
H216 H 0.62521 0.51305 0.99894 0.0
C217 C 0.57065 0.45828 0.8684 0.0
C218 C 0.16843 0.59987 0.17633 0.0
C219 C 0.16667 0.57083 0.14793 0.0
H220 H 0.16997 0.64564 0.1498 0.0
C221 C 0.17473 0.57008 0.07278 0.0
H222 H 0.16296 0.60129 0.23437 0.0
C223 C 0.1786 0.59528 0.02424 0.0
C224 C 0.17435 0.62139 0.0505 0.0
H225 H 0.17462 0.54833 0.05008 0.0
H226 H 0.18108 0.59219 0.96535 0.0
C227 C 0.17241 0.62521 0.12767 0.0
C228 C 0.50745 0.26541 0.22649 0.0
C229 C 0.51066 0.27901 0.15538 0.0
H230 H 0.49822 0.22233 0.28982 0.0
C231 C 0.51292 0.26178 0.09333 0.0
H232 H 0.50569 0.27824 0.27505 0.0
C233 C 0.50873 0.22987 0.10155 0.0
C234 C 0.50181 0.21467 0.17186 0.0
H235 H 0.51581 0.27208 0.03784 0.0
H236 H 0.50845 0.21621 0.05248 0.0
C237 C 0.50282 0.2333 0.23464 0.0
C238 C 0.20607 0.42192 0.19976 0.0
C239 C 0.21899 0.4159 0.26432 0.0
H240 H 0.17263 0.43661 0.15406 0.0
C241 C 0.20672 0.41888 0.33415 0.0
H242 H 0.21541 0.42011 0.14557 0.0
C243 C 0.18316 0.42947 0.33935 0.0
C244 C 0.17077 0.43612 0.27473 0.0
H245 H 0.21677 0.41487 0.38496 0.0
H246 H 0.17504 0.43289 0.39357 0.0
C247 C 0.18171 0.4314 0.2049 0.0
C248 C 0.72193 0.19423 0.50617 0.0
C249 C 0.7276 0.16775 0.52187 0.0
H250 H 0.74221 0.24379 0.45979 0.0
C251 C 0.75858 0.17081 0.49896 0.0
H252 H 0.69788 0.19216 0.52124 0.0
C253 C 0.78392 0.20034 0.46354 0.0
C254 C 0.77829 0.22689 0.44816 0.0
H255 H 0.7633 0.15047 0.50895 0.0
H256 H 0.80825 0.20279 0.44963 0.0
C257 C 0.74687 0.22335 0.46893 0.0
C258 C 0.4244 0.72586 0.68315 0.0
C259 C 0.45217 0.75895 0.69319 0.0
H260 H 0.40863 0.67345 0.67108 0.0
C261 C 0.4855 0.7649 0.69952 0.0
H262 H 0.39846 0.72084 0.67956 0.0
C263 C 0.49121 0.73826 0.69468 0.0
C264 C 0.46358 0.70515 0.68563 0.0
H265 H 0.5072 0.79029 0.70802 0.0
H266 H 0.51727 0.74351 0.69747 0.0
C267 C 0.43009 0.6989 0.68005 0.0
C268 C 0.73876 0.52364 0.77638 0.0
C269 C 0.74925 0.55783 0.76581 0.0
H270 H 0.75306 0.48825 0.8103 0.0
C271 C 0.78285 0.58306 0.78436 0.0
H272 H 0.71266 0.50369 0.76463 0.0
C273 C 0.80591 0.57418 0.81058 0.0
C274 C 0.79535 0.53999 0.82123 0.0
H275 H 0.79127 0.6096 0.77829 0.0
H276 H 0.83219 0.59398 0.82134 0.0
C277 C 0.7615 0.51481 0.80469 0.0
C278 C 0.15952 0.7691 0.96225 0.0
C279 C 0.17173 0.74732 0.94775 0.0
H280 H 0.16268 0.80834 0.03127 0.0
C281 C 0.19868 0.75018 0.99097 0.0
H282 H 0.13818 0.76682 0.93104 0.0
C283 C 0.21149 0.77266 0.05065 0.0
C284 C 0.19837 0.79359 0.06704 0.0
H285 H 0.20798 0.7331 0.98261 0.0
H286 H 0.23148 0.77337 0.08426 0.0
C287 C 0.173 0.79227 0.02066 0.0
C288 C 0.61384 0.12542 0.90984 0.0
C289 C 0.59944 0.11857 0.83851 0.0
H290 H 0.60813 0.13311 0.02481 0.0
C291 C 0.56696 0.11479 0.82957 0.0
H292 H 0.63876 0.12849 0.91887 0.0
C293 C 0.54897 0.11689 0.89098 0.0
C294 C 0.56333 0.12339 0.96246 0.0
H295 H 0.555 0.10927 0.77549 0.0
H296 H 0.5238 0.1133 0.88249 0.0
C297 C 0.59619 0.12807 0.97074 0.0
C298 C 0.39623 0.53624 0.92032 0.0
C299 C 0.43225 0.55761 0.92189 0.0
H300 H 0.35058 0.49849 0.97764 0.0
C301 C 0.44961 0.55688 0.98552 0.0
H302 H 0.38194 0.53608 0.87231 0.0
C303 C 0.43175 0.53539 0.04539 0.0
C304 C 0.39582 0.51386 0.04404 0.0
H305 H 0.47726 0.57286 0.98921 0.0
H306 H 0.44634 0.5357 0.09298 0.0
C307 C 0.37821 0.51467 0.98075 0.0
C308 C 0.79247 0.36364 0.03601 0.0
C309 C 0.80731 0.39892 0.0426 0.0
H310 H 0.78192 0.31733 0.08753 0.0
C311 C 0.82142 0.41406 0.1113 0.0
H312 H 0.78138 0.351 0.98403 0.0
C313 C 0.82135 0.39452 0.17122 0.0
C314 C 0.80761 0.35943 0.16359 0.0
H315 H 0.83303 0.4411 0.11846 0.0
H316 H 0.83302 0.40713 0.22288 0.0
C317 C 0.79283 0.34424 0.09544 0.0
C318 C 0.32367 0.78748 0.45403 0.0
C319 C 0.35409 0.81579 0.48015 0.0
H320 H 0.28349 0.76745 0.37369 0.0
C321 C 0.36727 0.84672 0.44157 0.0
H322 H 0.31267 0.76322 0.48196 0.0
C323 C 0.35018 0.84925 0.37917 0.0
C324 C 0.31968 0.82083 0.35337 0.0
H325 H 0.39056 0.8691 0.46009 0.0
H326 H 0.36091 0.87345 0.35113 0.0
C327 C 0.30686 0.78992 0.39159 0.0
C328 C 0.59476 0.46565 0.4697 0.0
C329 C 0.57705 0.46889 0.53033 0.0
H330 H 0.59106 0.44232 0.36398 0.0
C331 C 0.54094 0.44962 0.53009 0.0
H332 H 0.62254 0.48007 0.46792 0.0
C333 C 0.52302 0.42804 0.47112 0.0
C334 C 0.5405 0.42498 0.40997 0.0
H335 H 0.52626 0.4512 0.57567 0.0
H336 H 0.49524 0.4139 0.47343 0.0
C337 C 0.57669 0.44399 0.4101 0.0
C338 C 0.15083 0.59983 0.53182 0.0
C339 C 0.14628 0.56736 0.5245 0.0
H340 H 0.15463 0.63817 0.60538 0.0
C341 C 0.144 0.54943 0.58953 0.0
H342 H 0.15286 0.61453 0.48305 0.0
C343 C 0.14484 0.56299 0.65975 0.0
C344 C 0.14829 0.595 0.66706 0.0
H345 H 0.14051 0.52444 0.58628 0.0
H346 H 0.14207 0.54797 0.70846 0.0
C347 C 0.15198 0.61353 0.6021 0.0
C348 C 0.35675 0.01142 0.19509 0.0
C349 C 0.37791 0.03055 0.13496 0.0
H350 H 0.31605 0.96303 0.23346 0.0
C351 C 0.37147 0.01593 0.06429 0.0
H352 H 0.3613 0.0219 0.25052 0.0
C353 C 0.34489 0.98241 0.05445 0.0
C354 C 0.32518 0.9628 0.11558 0.0
H355 H 0.38747 0.03008 0.01725 0.0
H356 H 0.34095 0.97129 0.99977 0.0
C357 C 0.33097 0.97768 0.1857 0.0
C358 C 0.39345 0.35123 0.2584 0.0
C359 C 0.40194 0.34944 0.18447 0.0
H360 H 0.36251 0.36073 0.33197 0.0
C361 C 0.38342 0.35315 0.12681 0.0
H362 H 0.40741 0.34844 0.30355 0.0
C363 C 0.35849 0.36109 0.14279 0.0
C364 C 0.35093 0.36419 0.21666 0.0
H365 H 0.38972 0.35209 0.06917 0.0
H366 H 0.34608 0.36604 0.09759 0.0
C367 C 0.36764 0.35798 0.27442 0.0
C368 C 0.00764 0.42471 0.40217 0.0
C369 C 0.01463 0.43279 0.32652 0.0
H370 H 0.9696 0.3962 0.48495 0.0
C371 C -0.01269 0.41911 0.27586 0.0
H372 H 0.02817 0.43472 0.44241 0.0
C373 C 0.9537 0.39711 0.30021 0.0
C374 C 0.9469 0.38803 0.37547 0.0
H375 H -0.00805 0.42498 0.21714 0.0
H376 H 0.9332 0.38668 0.25989 0.0
C377 C 0.97413 0.40235 0.42633 0.0
C378 C 0.54136 0.95582 0.74867 0.0
C379 C 0.52451 0.92973 0.69652 0.0
H380 H 0.583 0.00634 0.76884 0.0
C381 C 0.53933 0.93319 0.62627 0.0
H382 H 0.53059 0.9535 0.80367 0.0
C383 C 0.56997 0.96275 0.60749 0.0
C384 C 0.58581 -0.01025 0.65799 0.0
H385 H 0.5272 0.91309 0.58575 0.0
H386 H 0.58003 0.96521 0.5517 0.0
C387 C 0.57155 -0.0142 0.72923 0.0
C388 C 0.6112 0.61762 0.6276 0.0
C389 C 0.62226 0.61742 0.69984 0.0
H390 H 0.5762 0.6232 0.5596 0.0
C391 C 0.6075 0.62496 0.75994 0.0
H392 H 0.62194 0.61152 0.58067 0.0
C393 C 0.58048 0.63035 0.74838 0.0
C394 C 0.56867 0.62939 0.67636 0.0
H395 H 0.61522 0.62442 0.81648 0.0
H396 H 0.5684 0.63456 0.79566 0.0
C397 C 0.58497 0.62412 0.61584 0.0
C398 C 0.01457 0.5756 0.81001 0.0
C399 C 0.02556 0.58205 0.88391 0.0
H400 H 0.97198 0.55231 0.7364 0.0
C401 C 0.00112 0.56713 0.94155 0.0
H402 H 0.03278 0.58651 0.76445 0.0
C403 C 0.96621 0.54747 0.92559 0.0
C404 C 0.95514 0.54248 0.85172 0.0
H405 H 0.00884 0.57139 0.99922 0.0
H406 H 0.94792 0.5372 0.97111 0.0
C407 C -0.02031 0.55603 0.79407 0.0
loop_
_geom_bond_atom_site_label_1
_geom_bond_atom_site_label_2
_geom_bond_distance
_geom_bond_site_symmetry_2
_ccdc_geom_bond_type
Zn0 O3 2.031 . S
Zn0 O5 2.049 . S
Zn0 O10 2.067 . S
Zn1 O2 1.962 . S
Zn1 O4 1.986 1_554 S
Zn1 O6 1.996 . S
Zn1 O9 1.943 . S
O2 Zn1 1.962 . S
O2 C7 1.254 . S
O3 Zn0 2.031 . S
O3 C7 1.269 . S
O4 Zn1 1.986 1_556 S
O4 C11 1.262 . S
O5 Zn0 2.049 . S
O5 C13 1.260 . S
O6 Zn1 1.996 . S
O6 C13 1.257 . S
C7 O2 1.254 . S
C7 O3 1.269 . S
C8 O9 1.249 . S
C8 O10 1.270 . S
O9 Zn1 1.943 . S
O9 C8 1.249 . S
O10 Zn0 2.067 . S
O10 C8 1.270 . S
C11 O4 1.262 . S
C11 O12 1.232 . S
O12 C11 1.232 . S
C13 O5 1.260 . S
C13 O6 1.257 . S
Zn14 O17 2.031 . S
Zn14 O19 2.049 . S
Zn14 O24 2.067 . S
Zn15 O16 1.962 . S
Zn15 O18 1.986 . S
Zn15 O20 1.996 . S
Zn15 O23 1.943 . S
O16 Zn15 1.962 . S
O16 C21 1.254 . S
O17 Zn14 2.031 . S
O17 C21 1.269 . S
O18 Zn15 1.986 . S
O18 C25 1.262 . S
O19 Zn14 2.049 . S
O19 C27 1.260 . S
O20 Zn15 1.996 . S
O20 C27 1.257 . S
C21 O16 1.254 . S
C21 O17 1.269 . S
C22 O23 1.249 . S
C22 O24 1.270 . S
O23 Zn15 1.943 . S
O23 C22 1.249 . S
O24 Zn14 2.067 . S
O24 C22 1.270 . S
C25 O18 1.262 . S
C25 O26 1.232 . S
O26 C25 1.232 . S
C27 O19 1.260 . S
C27 O20 1.257 . S
Zn28 O31 2.031 . S
Zn28 O33 2.049 . S
Zn28 O38 2.067 . S
Zn29 O30 1.962 . S
Zn29 O32 1.986 . S
Zn29 O34 1.996 . S
Zn29 O37 1.943 . S
O30 Zn29 1.962 . S
O30 C35 1.254 . S
O31 Zn28 2.031 . S
O31 C35 1.269 . S
O32 Zn29 1.986 . S
O32 C39 1.262 . S
O33 Zn28 2.049 . S
O33 C41 1.260 . S
O34 Zn29 1.996 . S
O34 C41 1.257 . S
C35 O30 1.254 . S
C35 O31 1.269 . S
C36 O37 1.249 . S
C36 O38 1.270 . S
O37 Zn29 1.943 . S
O37 C36 1.249 . S
O38 Zn28 2.067 . S
O38 C36 1.270 . S
C39 O32 1.262 . S
C39 O40 1.232 . S
O40 C39 1.232 . S
C41 O33 1.260 . S
C41 O34 1.257 . S
Zn42 O45 2.031 . S
Zn42 O47 2.049 . S
Zn42 O52 2.067 . S
Zn43 O44 1.962 . S
Zn43 O46 1.986 . S
Zn43 O48 1.996 . S
Zn43 O51 1.943 . S
O44 Zn43 1.962 . S
O44 C49 1.254 . S
O45 Zn42 2.031 . S
O45 C49 1.269 . S
O46 Zn43 1.986 . S
O46 C53 1.262 . S
O47 Zn42 2.049 . S
O47 C55 1.260 . S
O48 Zn43 1.996 . S
O48 C55 1.257 . S
C49 O44 1.254 . S
C49 O45 1.269 . S
C50 O51 1.249 . S
C50 O52 1.270 . S
O51 Zn43 1.943 . S
O51 C50 1.249 . S
O52 Zn42 2.067 . S
O52 C50 1.270 . S
C53 O46 1.262 . S
C53 O54 1.232 . S
O54 C53 1.232 . S
C55 O47 1.260 . S
C55 O48 1.257 . S
Zn56 O59 2.031 . S
Zn56 O61 2.049 . S
Zn56 O66 2.067 . S
Zn57 O58 1.962 . S
Zn57 O60 1.986 . S
Zn57 O62 1.996 . S
Zn57 O65 1.943 . S
O58 Zn57 1.962 . S
O58 C63 1.254 . S
O59 Zn56 2.031 . S
O59 C63 1.269 . S
O60 Zn57 1.986 . S
O60 C67 1.262 . S
O61 Zn56 2.049 . S
O61 C69 1.260 . S
O62 Zn57 1.996 . S
O62 C69 1.257 . S
C63 O58 1.254 . S
C63 O59 1.269 . S
C64 O65 1.249 . S
C64 O66 1.270 . S
O65 Zn57 1.943 . S
O65 C64 1.249 . S
O66 Zn56 2.067 . S
O66 C64 1.270 . S
C67 O60 1.262 . S
C67 O68 1.232 . S
O68 C67 1.232 . S
C69 O61 1.260 . S
C69 O62 1.257 . S
Zn70 O73 2.031 1_554 S
Zn70 O75 2.049 1_554 S
Zn70 O80 2.067 . S
Zn71 O72 1.962 . S
Zn71 O74 1.986 . S
Zn71 O76 1.996 . S
Zn71 O79 1.943 . S
O72 Zn71 1.962 . S
O72 C77 1.254 . S
O73 Zn70 2.031 1_556 S
O73 C77 1.269 . S
O74 Zn71 1.986 . S
O74 C81 1.262 . S
O75 Zn70 2.049 1_556 S
O75 C83 1.260 . S
O76 Zn71 1.996 . S
O76 C83 1.257 . S
C77 O72 1.254 . S
C77 O73 1.269 . S
C78 O79 1.249 1_554 S
C78 O80 1.270 . S
O79 Zn71 1.943 . S
O79 C78 1.249 1_556 S
O80 Zn70 2.067 . S
O80 C78 1.270 . S
C81 O74 1.262 . S
C81 O82 1.232 . S
O82 C81 1.232 . S
C83 O75 1.260 . S
C83 O76 1.257 . S
Zn84 O87 2.031 . S
Zn84 O89 2.049 . S
Zn84 O94 2.067 . S
Zn85 O86 1.962 . S
Zn85 O88 1.986 . S
Zn85 O90 1.996 . S
Zn85 O93 1.943 . S
O86 Zn85 1.962 . S
O86 C91 1.254 . S
O87 Zn84 2.031 . S
O87 C91 1.269 . S
O88 Zn85 1.986 . S
O88 C95 1.262 1_556 S
O89 Zn84 2.049 . S
O89 C97 1.260 . S
O90 Zn85 1.996 . S
O90 C97 1.257 . S
C91 O86 1.254 . S
C91 O87 1.269 . S
C92 O93 1.249 . S
C92 O94 1.270 . S
O93 Zn85 1.943 . S
O93 C92 1.249 . S
O94 Zn84 2.067 . S
O94 C92 1.270 . S
C95 O88 1.262 1_554 S
C95 O96 1.232 1_554 S
O96 C95 1.232 1_556 S
C97 O89 1.260 . S
C97 O90 1.257 . S
Zn98 O101 2.031 . S
Zn98 O103 2.049 . S
Zn98 O108 2.067 . S
Zn99 O100 1.962 . S
Zn99 O102 1.986 . S
Zn99 O104 1.996 . S
Zn99 O107 1.943 1_554 S
O100 Zn99 1.962 . S
O100 C105 1.254 . S
O101 Zn98 2.031 . S
O101 C105 1.269 1_556 S
O102 Zn99 1.986 . S
O102 C109 1.262 . S
O103 Zn98 2.049 . S
O103 C111 1.260 1_556 S
O104 Zn99 1.996 . S
O104 C111 1.257 . S
C105 O100 1.254 . S
C105 O101 1.269 1_554 S
C106 O107 1.249 . S
C106 O108 1.270 . S
O107 Zn99 1.943 1_556 S
O107 C106 1.249 . S
O108 Zn98 2.067 . S
O108 C106 1.270 . S
C109 O102 1.262 . S
C109 O110 1.232 . S
O110 C109 1.232 . S
C111 O103 1.260 1_554 S
C111 O104 1.257 . S
Zn112 O115 2.031 . S
Zn112 O117 2.049 . S
Zn112 O122 2.067 . S
Zn113 O114 1.962 . S
Zn113 O116 1.986 . S
Zn113 O118 1.996 . S
Zn113 O121 1.943 . S
O114 Zn113 1.962 . S
O114 C119 1.254 . S
O115 Zn112 2.031 . S
O115 C119 1.269 . S
O116 Zn113 1.986 . S
O116 C123 1.262 . S
O117 Zn112 2.049 . S
O117 C125 1.260 . S
O118 Zn113 1.996 . S
O118 C125 1.257 . S
C119 O114 1.254 . S
C119 O115 1.269 . S
C120 O121 1.249 . S
C120 O122 1.270 . S
O121 Zn113 1.943 . S
O121 C120 1.249 . S
O122 Zn112 2.067 . S
O122 C120 1.270 . S
C123 O116 1.262 . S
C123 O124 1.232 . S
O124 C123 1.232 . S
C125 O117 1.260 . S
C125 O118 1.257 . S
Zn126 O129 2.031 . S
Zn126 O131 2.049 . S
Zn126 O136 2.067 . S
Zn127 O128 1.962 . S
Zn127 O130 1.986 . S
Zn127 O132 1.996 . S
Zn127 O135 1.943 . S
O128 Zn127 1.962 . S
O128 C133 1.254 . S
O129 Zn126 2.031 . S
O129 C133 1.269 . S
O130 Zn127 1.986 . S
O130 C137 1.262 . S
O131 Zn126 2.049 . S
O131 C139 1.260 . S
O132 Zn127 1.996 . S
O132 C139 1.257 . S
C133 O128 1.254 . S
C133 O129 1.269 . S
C134 O135 1.249 . S
C134 O136 1.270 . S
O135 Zn127 1.943 . S
O135 C134 1.249 . S
O136 Zn126 2.067 . S
O136 C134 1.270 . S
C137 O130 1.262 . S
C137 O138 1.232 . S
O138 C137 1.232 . S
C139 O131 1.260 . S
C139 O132 1.257 . S
Zn140 O143 2.031 . S
Zn140 O145 2.049 . S
Zn140 O150 2.067 . S
Zn141 O142 1.962 . S
Zn141 O144 1.986 . S
Zn141 O146 1.996 . S
Zn141 O149 1.943 . S
O142 Zn141 1.962 . S
O142 C147 1.254 . S
O143 Zn140 2.031 . S
O143 C147 1.269 . S
O144 Zn141 1.986 . S
O144 C151 1.262 . S
O145 Zn140 2.049 . S
O145 C153 1.260 . S
O146 Zn141 1.996 . S
O146 C153 1.257 . S
C147 O142 1.254 . S
C147 O143 1.269 . S
C148 O149 1.249 . S
C148 O150 1.270 . S
O149 Zn141 1.943 . S
O149 C148 1.249 . S
O150 Zn140 2.067 . S
O150 C148 1.270 . S
C151 O144 1.262 . S
C151 O152 1.232 . S
O152 C151 1.232 . S
C153 O145 1.260 . S
C153 O146 1.257 . S
Zn154 O157 2.031 . S
Zn154 O159 2.049 . S
Zn154 O164 2.067 . S
Zn155 O156 1.962 . S
Zn155 O158 1.986 . S
Zn155 O160 1.996 . S
Zn155 O163 1.943 . S
O156 Zn155 1.962 . S
O156 C161 1.254 . S
O157 Zn154 2.031 . S
O157 C161 1.269 . S
O158 Zn155 1.986 . S
O158 C165 1.262 . S
O159 Zn154 2.049 . S
O159 C167 1.260 . S
O160 Zn155 1.996 . S
O160 C167 1.257 . S
C161 O156 1.254 . S
C161 O157 1.269 . S
C162 O163 1.249 . S
C162 O164 1.270 . S
O163 Zn155 1.943 . S
O163 C162 1.249 . S
O164 Zn154 2.067 . S
O164 C162 1.270 . S
C165 O158 1.262 . S
C165 O166 1.232 . S
O166 C165 1.232 . S
C167 O159 1.260 . S
C167 O160 1.257 . S
C168 C169 1.387 . S
C168 H172 0.950 . S
C168 C177 1.390 . S
C169 C168 1.387 . S
C169 C171 1.387 . S
H170 C177 0.950 . S
C171 C169 1.387 . S
C171 C173 1.390 . S
C171 H175 0.950 . S
H172 C168 0.950 . S
C173 C171 1.390 . S
C173 C174 1.387 . S
C173 H176 0.950 . S
C174 C173 1.387 . S
C174 C177 1.387 . S
H175 C171 0.950 . S
H176 C173 0.950 . S
C177 C168 1.390 . S
C177 H170 0.950 . S
C177 C174 1.387 . S
C178 C179 1.387 . S
C178 H182 0.950 . S
C178 C187 1.390 . S
C179 C178 1.387 . S
C179 C181 1.387 . S
H180 C187 0.950 . S
C181 C179 1.387 . S
C181 C183 1.390 . S
C181 H185 0.950 . S
H182 C178 0.950 . S
C183 C181 1.390 . S
C183 C184 1.387 . S
C183 H186 0.950 . S
C184 C183 1.387 . S
C184 C187 1.387 . S
H185 C181 0.950 . S
H186 C183 0.950 . S
C187 C178 1.390 . S
C187 H180 0.950 . S
C187 C184 1.387 . S
C188 C189 1.387 . S
C188 H192 0.950 . S
C188 C197 1.390 . S
C189 C188 1.387 . S
C189 C191 1.387 . S
H190 C197 0.950 . S
C191 C189 1.387 . S
C191 C193 1.390 . S
C191 H195 0.950 . S
H192 C188 0.950 . S
C193 C191 1.390 . S
C193 C194 1.387 . S
C193 H196 0.950 . S
C194 C193 1.387 . S
C194 C197 1.387 . S
H195 C191 0.950 . S
H196 C193 0.950 . S
C197 C188 1.390 . S
C197 H190 0.950 . S
C197 C194 1.387 . S
C198 C199 1.387 . S
C198 H202 0.950 . S
C198 C207 1.390 . S
C199 C198 1.387 . S
C199 C201 1.387 . S
H200 C207 0.950 . S
C201 C199 1.387 . S
C201 C203 1.390 . S
C201 H205 0.950 . S
H202 C198 0.950 . S
C203 C201 1.390 . S
C203 C204 1.387 . S
C203 H206 0.950 . S
C204 C203 1.387 . S
C204 C207 1.387 . S
H205 C201 0.950 . S
H206 C203 0.950 . S
C207 C198 1.390 . S
C207 H200 0.950 . S
C207 C204 1.387 . S
C208 C209 1.387 1_556 S
C208 H212 0.950 . S
C208 C217 1.390 . S
C209 C208 1.387 1_554 S
C209 C211 1.387 . S
H210 C217 0.950 . S
C211 C209 1.387 . S
C211 C213 1.390 1_554 S
C211 H215 0.950 . S
H212 C208 0.950 . S
C213 C211 1.390 1_556 S
C213 C214 1.387 . S
C213 H216 0.950 . S
C214 C213 1.387 . S
C214 C217 1.387 . S
H215 C211 0.950 . S
H216 C213 0.950 . S
C217 C208 1.390 . S
C217 H210 0.950 . S
C217 C214 1.387 . S
C218 C219 1.387 . S
C218 H222 0.950 . S
C218 C227 1.390 . S
C219 C218 1.387 . S
C219 C221 1.387 . S
H220 C227 0.950 . S
C221 C219 1.387 . S
C221 C223 1.390 . S
C221 H225 0.950 . S
H222 C218 0.950 . S
C223 C221 1.390 . S
C223 C224 1.387 . S
C223 H226 0.950 . S
C224 C223 1.387 . S
C224 C227 1.387 . S
H225 C221 0.950 . S
H226 C223 0.950 . S
C227 C218 1.390 . S
C227 H220 0.950 . S
C227 C224 1.387 . S
C228 C229 1.387 . S
C228 H232 0.950 . S
C228 C237 1.390 . S
C229 C228 1.387 . S
C229 C231 1.387 . S
H230 C237 0.950 . S
C231 C229 1.387 . S
C231 C233 1.390 . S
C231 H235 0.950 . S
H232 C228 0.950 . S
C233 C231 1.390 . S
C233 C234 1.387 . S
C233 H236 0.950 . S
C234 C233 1.387 . S
C234 C237 1.387 . S
H235 C231 0.950 . S
H236 C233 0.950 . S
C237 C228 1.390 . S
C237 H230 0.950 . S
C237 C234 1.387 . S
C238 C239 1.387 . S
C238 H242 0.950 . S
C238 C247 1.390 . S
C239 C238 1.387 . S
C239 C241 1.387 . S
H240 C247 0.950 . S
C241 C239 1.387 . S
C241 C243 1.390 . S
C241 H245 0.950 . S
H242 C238 0.950 . S
C243 C241 1.390 . S
C243 C244 1.387 . S
C243 H246 0.950 . S
C244 C243 1.387 . S
C244 C247 1.387 . S
H245 C241 0.950 . S
H246 C243 0.950 . S
C247 C238 1.390 . S
C247 H240 0.950 . S
C247 C244 1.387 . S
C248 C249 1.387 . S
C248 H252 0.950 . S
C248 C257 1.390 . S
C249 C248 1.387 . S
C249 C251 1.387 . S
H250 C257 0.950 . S
C251 C249 1.387 . S
C251 C253 1.390 . S
C251 H255 0.950 . S
H252 C248 0.950 . S
C253 C251 1.390 . S
C253 C254 1.387 . S
C253 H256 0.950 . S
C254 C253 1.387 . S
C254 C257 1.387 . S
H255 C251 0.950 . S
H256 C253 0.950 . S
C257 C248 1.390 . S
C257 H250 0.950 . S
C257 C254 1.387 . S
C258 C259 1.387 . S
C258 H262 0.950 . S
C258 C267 1.390 . S
C259 C258 1.387 . S
C259 C261 1.387 . S
H260 C267 0.950 . S
C261 C259 1.387 . S
C261 C263 1.390 . S
C261 H265 0.950 . S
H262 C258 0.950 . S
C263 C261 1.390 . S
C263 C264 1.387 . S
C263 H266 0.950 . S
C264 C263 1.387 . S
C264 C267 1.387 . S
H265 C261 0.950 . S
H266 C263 0.950 . S
C267 C258 1.390 . S
C267 H260 0.950 . S
C267 C264 1.387 . S
C268 C269 1.387 . S
C268 H272 0.950 . S
C268 C277 1.390 . S
C269 C268 1.387 . S
C269 C271 1.387 . S
H270 C277 0.950 . S
C271 C269 1.387 . S
C271 C273 1.390 . S
C271 H275 0.950 . S
H272 C268 0.950 . S
C273 C271 1.390 . S
C273 C274 1.387 . S
C273 H276 0.950 . S
C274 C273 1.387 . S
C274 C277 1.387 . S
H275 C271 0.950 . S
H276 C273 0.950 . S
C277 C268 1.390 . S
C277 H270 0.950 . S
C277 C274 1.387 . S
C278 C279 1.387 . S
C278 H282 0.950 . S
C278 C287 1.390 . S
C279 C278 1.387 . S
C279 C281 1.387 1_556 S
H280 C287 0.950 . S
C281 C279 1.387 1_554 S
C281 C283 1.390 . S
C281 H285 0.950 . S
H282 C278 0.950 . S
C283 C281 1.390 . S
C283 C284 1.387 1_554 S
C283 H286 0.950 . S
C284 C283 1.387 1_556 S
C284 C287 1.387 . S
H285 C281 0.950 . S
H286 C283 0.950 . S
C287 C278 1.390 . S
C287 H280 0.950 . S
C287 C284 1.387 . S
C288 C289 1.387 . S
C288 H292 0.950 . S
C288 C297 1.390 . S
C289 C288 1.387 . S
C289 C291 1.387 . S
H290 C297 0.950 . S
C291 C289 1.387 . S
C291 C293 1.390 . S
C291 H295 0.950 . S
H292 C288 0.950 . S
C293 C291 1.390 . S
C293 C294 1.387 . S
C293 H296 0.950 . S
C294 C293 1.387 . S
C294 C297 1.387 . S
H295 C291 0.950 . S
H296 C293 0.950 . S
C297 C288 1.390 . S
C297 H290 0.950 . S
C297 C294 1.387 . S
C298 C299 1.387 . S
C298 H302 0.950 . S
C298 C307 1.390 . S
C299 C298 1.387 . S
C299 C301 1.387 . S
H300 C307 0.950 . S
C301 C299 1.387 . S
C301 C303 1.390 1_556 S
C301 H305 0.950 . S
H302 C298 0.950 . S
C303 C301 1.390 1_554 S
C303 C304 1.387 . S
C303 H306 0.950 . S
C304 C303 1.387 . S
C304 C307 1.387 1_554 S
H305 C301 0.950 . S
H306 C303 0.950 . S
C307 C298 1.390 . S
C307 H300 0.950 . S
C307 C304 1.387 1_556 S
C308 C309 1.387 . S
C308 H312 0.950 . S
C308 C317 1.390 . S
C309 C308 1.387 . S
C309 C311 1.387 . S
H310 C317 0.950 . S
C311 C309 1.387 . S
C311 C313 1.390 . S
C311 H315 0.950 . S
H312 C308 0.950 . S
C313 C311 1.390 . S
C313 C314 1.387 . S
C313 H316 0.950 . S
C314 C313 1.387 . S
C314 C317 1.387 . S
H315 C311 0.950 . S
H316 C313 0.950 . S
C317 C308 1.390 . S
C317 H310 0.950 . S
C317 C314 1.387 . S
C318 C319 1.387 . S
C318 H322 0.950 . S
C318 C327 1.390 . S
C319 C318 1.387 . S
C319 C321 1.387 . S
H320 C327 0.950 . S
C321 C319 1.387 . S
C321 C323 1.390 . S
C321 H325 0.950 . S
H322 C318 0.950 . S
C323 C321 1.390 . S
C323 C324 1.387 . S
C323 H326 0.950 . S
C324 C323 1.387 . S
C324 C327 1.387 . S
H325 C321 0.950 . S
H326 C323 0.950 . S
C327 C318 1.390 . S
C327 H320 0.950 . S
C327 C324 1.387 . S
C328 C329 1.387 . S
C328 H332 0.950 . S
C328 C337 1.390 . S
C329 C328 1.387 . S
C329 C331 1.387 . S
H330 C337 0.950 . S
C331 C329 1.387 . S
C331 C333 1.390 . S
C331 H335 0.950 . S
H332 C328 0.950 . S
C333 C331 1.390 . S
C333 C334 1.387 . S
C333 H336 0.950 . S
C334 C333 1.387 . S
C334 C337 1.387 . S
H335 C331 0.950 . S
H336 C333 0.950 . S
C337 C328 1.390 . S
C337 H330 0.950 . S
C337 C334 1.387 . S
C338 C339 1.387 . S
C338 H342 0.950 . S
C338 C347 1.390 . S
C339 C338 1.387 . S
C339 C341 1.387 . S
H340 C347 0.950 . S
C341 C339 1.387 . S
C341 C343 1.390 . S
C341 H345 0.950 . S
H342 C338 0.950 . S
C343 C341 1.390 . S
C343 C344 1.387 . S
C343 H346 0.950 . S
C344 C343 1.387 . S
C344 C347 1.387 . S
H345 C341 0.950 . S
H346 C343 0.950 . S
C347 C338 1.390 . S
C347 H340 0.950 . S
C347 C344 1.387 . S
C348 C349 1.387 . S
C348 H352 0.950 . S
C348 C357 1.390 1_545 S
C349 C348 1.387 . S
C349 C351 1.387 . S
H350 C357 0.950 . S
C351 C349 1.387 . S
C351 C353 1.390 1_545 S
C351 H355 0.950 . S
H352 C348 0.950 . S
C353 C351 1.390 1_565 S
C353 C354 1.387 . S
C353 H356 0.950 . S
C354 C353 1.387 . S
C354 C357 1.387 . S
H355 C351 0.950 . S
H356 C353 0.950 . S
C357 C348 1.390 1_565 S
C357 H350 0.950 . S
C357 C354 1.387 . S
C358 C359 1.387 . S
C358 H362 0.950 . S
C358 C367 1.390 . S
C359 C358 1.387 . S
C359 C361 1.387 . S
H360 C367 0.950 . S
C361 C359 1.387 . S
C361 C363 1.390 . S
C361 H365 0.950 . S
H362 C358 0.950 . S
C363 C361 1.390 . S
C363 C364 1.387 . S
C363 H366 0.950 . S
C364 C363 1.387 . S
C364 C367 1.387 . S
H365 C361 0.950 . S
H366 C363 0.950 . S
C367 C358 1.390 . S
C367 H360 0.950 . S
C367 C364 1.387 . S
C368 C369 1.387 . S
C368 H372 0.950 . S
C368 C377 1.390 1_455 S
C369 C368 1.387 . S
C369 C371 1.387 . S
H370 C377 0.950 . S
C371 C369 1.387 . S
C371 C373 1.390 1_455 S
C371 H375 0.950 . S
H372 C368 0.950 . S
C373 C371 1.390 1_655 S
C373 C374 1.387 . S
C373 H376 0.950 . S
C374 C373 1.387 . S
C374 C377 1.387 . S
H375 C371 0.950 . S
H376 C373 0.950 . S
C377 C368 1.390 1_655 S
C377 H370 0.950 . S
C377 C374 1.387 . S
C378 C379 1.387 . S
C378 H382 0.950 . S
C378 C387 1.390 1_565 S
C379 C378 1.387 . S
C379 C381 1.387 . S
H380 C387 0.950 . S
C381 C379 1.387 . S
C381 C383 1.390 1_565 S
C381 H385 0.950 . S
H382 C378 0.950 . S
C383 C381 1.390 1_545 S
C383 C384 1.387 . S
C383 H386 0.950 . S
C384 C383 1.387 . S
C384 C387 1.387 . S
H385 C381 0.950 . S
H386 C383 0.950 . S
C387 C378 1.390 1_545 S
C387 H380 0.950 . S
C387 C384 1.387 . S
C388 C389 1.387 . S
C388 H392 0.950 . S
C388 C397 1.390 . S
C389 C388 1.387 . S
C389 C391 1.387 . S
H390 C397 0.950 . S
C391 C389 1.387 . S
C391 C393 1.390 . S
C391 H395 0.950 . S
H392 C388 0.950 . S
C393 C391 1.390 . S
C393 C394 1.387 . S
C393 H396 0.950 . S
C394 C393 1.387 . S
C394 C397 1.387 . S
H395 C391 0.950 . S
H396 C393 0.950 . S
C397 C388 1.390 . S
C397 H390 0.950 . S
C397 C394 1.387 . S
C398 C399 1.387 . S
C398 H402 0.950 . S
C398 C407 1.390 1_455 S
C399 C398 1.387 . S
C399 C401 1.387 . S
H400 C407 0.950 . S
C401 C399 1.387 . S
C401 C403 1.390 1_455 S
C401 H405 0.950 1_556 S
H402 C398 0.950 . S
C403 C401 1.390 1_655 S
C403 C404 1.387 . S
C403 H406 0.950 . S
C404 C403 1.387 . S
C404 C407 1.387 . S
H405 C401 0.950 1_554 S
H406 C403 0.950 . S
C407 C398 1.390 1_655 S
C407 H400 0.950 . S
C407 C404 1.387 . S
C169 C8 1.597 . S
C174 C148 1.597 . S
C179 C22 1.597 . S
C184 C162 1.599 . S
C189 C92 1.598 . S
C194 C36 1.597 . S
C199 C50 1.597 . S
C204 C106 1.597 . S
C209 C120 1.599 . S
C214 C64 1.597 . S
C219 C134 1.597 . S
C224 C78 1.597 . S
C229 C119 1.206 . S
C234 C7 1.207 . S
C239 C21 1.204 . S
C244 C133 1.204 . S
C249 C147 1.205 . S
C254 C35 1.205 . S
C259 C49 1.205 . S
C264 C161 1.205 . S
C269 C63 1.205 . S
C274 C91 1.205 . S
C279 C77 1.206 . S
C284 C105 1.207 1_556 S
C289 C151 1.411 . S
C294 C11 1.411 . S
C299 C165 1.411 . S
C304 C25 1.411 . S
C309 C95 1.411 . S
C314 C39 1.411 . S
C319 C53 1.411 . S
C324 C109 1.411 . S
C329 C67 1.411 . S
C334 C123 1.411 . S
C339 C137 1.411 . S
C344 C81 1.411 . S
C349 C13 1.331 . S
C354 C111 1.331 . S
C359 C125 1.329 . S
C364 C27 1.330 . S
C369 C139 1.329 . S
C374 C41 1.330 . S
C379 C55 1.331 . S
C384 C153 1.331 . S
C389 C69 1.329 . S
C394 C167 1.329 . S
C399 C83 1.329 . S
C404 C97 1.330 . S
