# Generated by pormake.
# Topology smd, (6)-cn, num edge types: 1
# Building blocks:
#     Node 0, Type 0, BuildingBlock: NUHQIS_clean_sbu_0, # of connection points: 6
#     Node 1, Type 0, BuildingBlock: NUHQIS_clean_sbu_0, # of connection points: 6
#     Node 2, Type 0, BuildingBlock: NUHQIS_clean_sbu_0, # of connection points: 6
#     Node 3, Type 0, BuildingBlock: NUHQIS_clean_sbu_0, # of connection points: 6
#     Node 4, Type 0, BuildingBlock: NUHQIS_clean_sbu_0, # of connection points: 6
#     Node 5, Type 0, BuildingBlock: NUHQIS_clean_sbu_0, # of connection points: 6
#     Node 6, Type 0, BuildingBlock: NUHQIS_clean_sbu_0, # of connection points: 6
#     Node 7, Type 0, BuildingBlock: NUHQIS_clean_sbu_0, # of connection points: 6
#     Node 8, Type 0, BuildingBlock: NUHQIS_clean_sbu_0, # of connection points: 6
#     Node 9, Type 0, BuildingBlock: NUHQIS_clean_sbu_0, # of connection points: 6
#     Node 10, Type 0, BuildingBlock: NUHQIS_clean_sbu_0, # of connection points: 6
#     Node 11, Type 0, BuildingBlock: NUHQIS_clean_sbu_0, # of connection points: 6
#     Node 12, Type 0, BuildingBlock: NUHQIS_clean_sbu_0, # of connection points: 6
#     Node 13, Type 0, BuildingBlock: NUHQIS_clean_sbu_0, # of connection points: 6
#     Node 14, Type 0, BuildingBlock: NUHQIS_clean_sbu_0, # of connection points: 6
#     Node 15, Type 0, BuildingBlock: NUHQIS_clean_sbu_0, # of connection points: 6
#     Node 16, Type 0, BuildingBlock: NUHQIS_clean_sbu_0, # of connection points: 6
#     Node 17, Type 0, BuildingBlock: NUHQIS_clean_sbu_0, # of connection points: 6
#     Edge 18, Type (0, 0), BuildingBlock: OJICUG_clean_linker_0, # of connection points: 2
#     Edge 19, Type (0, 0), BuildingBlock: OJICUG_clean_linker_0, # of connection points: 2
#     Edge 20, Type (0, 0), BuildingBlock: OJICUG_clean_linker_0, # of connection points: 2
#     Edge 21, Type (0, 0), BuildingBlock: OJICUG_clean_linker_0, # of connection points: 2
#     Edge 22, Type (0, 0), BuildingBlock: OJICUG_clean_linker_0, # of connection points: 2
#     Edge 23, Type (0, 0), BuildingBlock: OJICUG_clean_linker_0, # of connection points: 2
#     Edge 24, Type (0, 0), BuildingBlock: OJICUG_clean_linker_0, # of connection points: 2
#     Edge 25, Type (0, 0), BuildingBlock: OJICUG_clean_linker_0, # of connection points: 2
#     Edge 26, Type (0, 0), BuildingBlock: OJICUG_clean_linker_0, # of connection points: 2
#     Edge 27, Type (0, 0), BuildingBlock: OJICUG_clean_linker_0, # of connection points: 2
#     Edge 28, Type (0, 0), BuildingBlock: OJICUG_clean_linker_0, # of connection points: 2
#     Edge 29, Type (0, 0), BuildingBlock: OJICUG_clean_linker_0, # of connection points: 2
#     Edge 30, Type (0, 0), BuildingBlock: OJICUG_clean_linker_0, # of connection points: 2
#     Edge 31, Type (0, 0), BuildingBlock: OJICUG_clean_linker_0, # of connection points: 2
#     Edge 32, Type (0, 0), BuildingBlock: OJICUG_clean_linker_0, # of connection points: 2
#     Edge 33, Type (0, 0), BuildingBlock: OJICUG_clean_linker_0, # of connection points: 2
#     Edge 34, Type (0, 0), BuildingBlock: OJICUG_clean_linker_0, # of connection points: 2
#     Edge 35, Type (0, 0), BuildingBlock: OJICUG_clean_linker_0, # of connection points: 2
#     Edge 36, Type (0, 0), BuildingBlock: OJICUG_clean_linker_0, # of connection points: 2
#     Edge 37, Type (0, 0), BuildingBlock: OJICUG_clean_linker_0, # of connection points: 2
#     Edge 38, Type (0, 0), BuildingBlock: OJICUG_clean_linker_0, # of connection points: 2
#     Edge 39, Type (0, 0), BuildingBlock: OJICUG_clean_linker_0, # of connection points: 2
#     Edge 40, Type (0, 0), BuildingBlock: OJICUG_clean_linker_0, # of connection points: 2
#     Edge 41, Type (0, 0), BuildingBlock: OJICUG_clean_linker_0, # of connection points: 2
#     Edge 42, Type (0, 0), BuildingBlock: OJICUG_clean_linker_0, # of connection points: 2
#     Edge 43, Type (0, 0), BuildingBlock: OJICUG_clean_linker_0, # of connection points: 2
#     Edge 44, Type (0, 0), BuildingBlock: OJICUG_clean_linker_0, # of connection points: 2
#     Edge 45, Type (0, 0), BuildingBlock: OJICUG_clean_linker_0, # of connection points: 2
#     Edge 46, Type (0, 0), BuildingBlock: OJICUG_clean_linker_0, # of connection points: 2
#     Edge 47, Type (0, 0), BuildingBlock: OJICUG_clean_linker_0, # of connection points: 2
#     Edge 48, Type (0, 0), BuildingBlock: OJICUG_clean_linker_0, # of connection points: 2
#     Edge 49, Type (0, 0), BuildingBlock: OJICUG_clean_linker_0, # of connection points: 2
#     Edge 50, Type (0, 0), BuildingBlock: OJICUG_clean_linker_0, # of connection points: 2
#     Edge 51, Type (0, 0), BuildingBlock: OJICUG_clean_linker_0, # of connection points: 2
#     Edge 52, Type (0, 0), BuildingBlock: OJICUG_clean_linker_0, # of connection points: 2
#     Edge 53, Type (0, 0), BuildingBlock: OJICUG_clean_linker_0, # of connection points: 2
#     Edge 54, Type (0, 0), BuildingBlock: OJICUG_clean_linker_0, # of connection points: 2
#     Edge 55, Type (0, 0), BuildingBlock: OJICUG_clean_linker_0, # of connection points: 2
#     Edge 56, Type (0, 0), BuildingBlock: OJICUG_clean_linker_0, # of connection points: 2
#     Edge 57, Type (0, 0), BuildingBlock: OJICUG_clean_linker_0, # of connection points: 2
#     Edge 58, Type (0, 0), BuildingBlock: OJICUG_clean_linker_0, # of connection points: 2
#     Edge 59, Type (0, 0), BuildingBlock: OJICUG_clean_linker_0, # of connection points: 2
#     Edge 60, Type (0, 0), BuildingBlock: OJICUG_clean_linker_0, # of connection points: 2
#     Edge 61, Type (0, 0), BuildingBlock: OJICUG_clean_linker_0, # of connection points: 2
#     Edge 62, Type (0, 0), BuildingBlock: OJICUG_clean_linker_0, # of connection points: 2
#     Edge 63, Type (0, 0), BuildingBlock: OJICUG_clean_linker_0, # of connection points: 2
#     Edge 64, Type (0, 0), BuildingBlock: OJICUG_clean_linker_0, # of connection points: 2
#     Edge 65, Type (0, 0), BuildingBlock: OJICUG_clean_linker_0, # of connection points: 2
#     Edge 66, Type (0, 0), BuildingBlock: OJICUG_clean_linker_0, # of connection points: 2
#     Edge 67, Type (0, 0), BuildingBlock: OJICUG_clean_linker_0, # of connection points: 2
#     Edge 68, Type (0, 0), BuildingBlock: OJICUG_clean_linker_0, # of connection points: 2
#     Edge 69, Type (0, 0), BuildingBlock: OJICUG_clean_linker_0, # of connection points: 2
#     Edge 70, Type (0, 0), BuildingBlock: OJICUG_clean_linker_0, # of connection points: 2
#     Edge 71, Type (0, 0), BuildingBlock: OJICUG_clean_linker_0, # of connection points: 2
# Relax obj value: 0.290
# Max RMSD: 0.378
# Mean RMSD: 0.350
data_MOF--net-smd--node1-NUHQIS_clean_sbu_0--edge1-OJICUG_clean_linker_0
_symmetry_space_group_name_H-M    P1
_symmetry_Int_Tables_number       1
_symmetry_cell_setting            triclinic
loop_
_symmetry_equiv_pos_as_xyz
'x, y, z'
_cell_length_a     45.06069
_cell_length_b     44.74919
_cell_length_c     20.65463
_cell_angle_alpha  91.928354
_cell_angle_beta   92.497063
_cell_angle_gamma 119.8074
loop_
_atom_site_label
_atom_site_type_symbol
_atom_site_fract_x
_atom_site_fract_y
_atom_site_fract_z
_atom_type_partial_charge
Tb0 Tb 0.09374 0.30174 0.60026 0.0
Eu1 Eu 1.04355 0.27604 0.46604 0.0
C2 C 0.11069 0.26662 0.48521 0.0
C3 C 0.11247 0.34661 0.47943 0.0
C4 C 0.11315 0.3243 0.77658 0.0
C5 C 0.12417 0.34731 0.88904 0.0
C6 C 0.13534 0.348 0.82645 0.0
C7 C 0.0793 0.30059 0.78975 0.0
C8 C 0.06808 0.29998 0.85208 0.0
C9 C 0.09048 0.32299 0.90291 0.0
C10 C 0.12526 0.32425 0.71115 0.0
O11 O 1.06122 0.32417 0.59204 0.0
O12 O 1.01246 0.27916 0.54912 0.0
O13 O 1.02916 0.22792 0.51684 0.0
O14 O 1.04705 0.25309 0.62065 0.0
C15 C 1.0282 0.30481 0.59368 0.0
O16 O 1.01151 0.286 0.39779 0.0
O17 O 1.02113 0.24414 0.37545 0.0
O18 O 0.09197 0.27367 0.44411 0.0
O19 O 0.11028 0.2705 0.54839 0.0
O20 O 0.12516 0.33485 0.52426 0.0
O21 O 0.07941 0.33282 0.46838 0.0
C22 C 1.02918 0.22563 0.57997 0.0
O23 O 0.11674 0.29409 0.68397 0.0
O24 O 0.12072 0.34335 0.67017 0.0
C25 C 1.0202 0.27663 0.28865 0.0
C26 C 1.04285 0.29858 0.164 0.0
C27 C 1.00957 0.27092 0.17113 0.0
C28 C 0.99841 0.26006 0.23281 0.0
C29 C 1.05303 0.30485 0.28209 0.0
C30 C 1.06421 0.31577 0.22052 0.0
C31 C 1.00941 0.26352 0.35322 0.0
H32 H 0.14198 0.36573 0.92667 0.0
H33 H 0.16144 0.36679 0.81718 0.0
H34 H 1.06158 0.28225 0.75189 0.0
H35 H 1.04209 0.2807 0.86084 0.0
H36 H 0.99249 0.25679 0.12894 0.0
H37 H 0.97301 0.23821 0.2368 0.0
H38 H 0.07027 0.31808 0.32462 0.0
H39 H 0.08974 0.3375 0.21724 0.0
Tb40 Tb 0.84488 0.80234 0.46617 0.0
Eu41 Eu 0.82542 0.83331 0.59244 0.0
C42 C 0.89932 0.83778 0.58272 0.0
C43 C 0.81812 0.75987 0.58942 0.0
C44 C 0.84238 0.77978 0.29185 0.0
C45 C 0.83608 0.76195 0.17709 0.0
C46 C 0.84397 0.75867 0.24201 0.0
C47 C 0.83204 0.80366 0.27609 0.0
C48 C 0.82413 0.80695 0.21141 0.0
C49 C 0.82646 0.78647 0.16083 0.0
C50 C 0.85227 0.77759 0.35991 0.0
O51 O 0.79051 0.78279 0.46837 0.0
O52 O 0.7899 0.83004 0.50489 0.0
O53 O 0.85952 0.87932 0.53907 0.0
O54 O 0.84767 0.85115 0.43814 0.0
C55 C 0.7781 0.80342 0.46226 0.0
O56 O 0.78639 0.82794 0.65767 0.0
O57 O 0.83908 0.86802 0.67929 0.0
O58 O 0.87461 0.83191 0.62141 0.0
O59 O 0.89369 0.83397 0.51946 0.0
O60 O 0.8418 0.76921 0.54676 0.0
O61 O 0.80109 0.77622 0.59533 0.0
C62 C 0.85942 0.87984 0.47572 0.0
O63 O 0.87562 0.80655 0.38951 0.0
O64 O 0.8272 0.76045 0.39669 0.0
C65 C 0.80795 0.83871 0.76725 0.0
C66 C 0.80984 0.81751 0.89433 0.0
C67 C 0.80391 0.84511 0.88344 0.0
C68 C 0.80303 0.85562 0.82051 0.0
C69 C 0.81334 0.81085 0.7776 0.0
C70 C 0.81423 0.80033 0.84039 0.0
C71 C 0.80873 0.85072 0.7013 0.0
H72 H 0.83765 0.74536 0.13964 0.0
H73 H 0.85175 0.73998 0.25319 0.0
H74 H 0.83056 0.82018 0.31381 0.0
H75 H 0.81721 0.82634 0.201 0.0
H76 H 0.80085 0.85923 0.92375 0.0
H77 H 0.79902 0.87728 0.81356 0.0
H78 H 0.8172 0.79742 0.73709 0.0
H79 H 0.81837 0.77871 0.84664 0.0
Tb80 Tb 0.28183 1.03028 0.59645 0.0
Eu81 Eu 0.29724 0.07765 0.47318 0.0
C82 C 0.22646 1.00701 0.48323 0.0
C83 C 0.31488 1.02037 0.47419 0.0
C84 C 0.28311 1.00647 0.76459 0.0
C85 C 0.28822 0.99295 0.87608 0.0
C86 C 0.28045 0.98271 0.80976 0.0
C87 C 0.29451 1.04074 0.7862 0.0
C88 C 0.30244 0.05106 0.85219 0.0
C89 C 0.29893 1.02719 0.89811 0.0
C90 C 0.27341 0.99568 0.69521 0.0
O91 O 0.33437 0.07176 0.61382 0.0
O92 O 0.33305 0.11442 0.55726 0.0
O93 O 0.26304 0.08901 0.53082 0.0
O94 O 0.27658 0.07515 0.62971 0.0
C95 C 0.34622 0.10449 0.60461 0.0
O96 O 0.33444 0.11025 0.40606 0.0
O97 O 0.28105 0.09503 0.38805 0.0
O98 O 0.25101 1.02401 0.44401 0.0
O99 O 0.23255 1.01289 0.54613 0.0
O100 O 0.28947 1.00312 0.51144 0.0
O101 O 0.32996 0.05373 0.48043 0.0
C102 C 0.26423 0.09121 0.59433 0.0
O103 O 0.25043 1.00214 0.66949 0.0
O104 O 0.29875 1.00441 0.65808 0.0
C105 C 0.31183 0.09693 0.29769 0.0
C106 C 0.31233 0.07338 0.1693 0.0
C107 C 0.32145 0.10802 0.18405 0.0
C108 C 0.32126 0.11968 0.24773 0.0
C109 C 0.30304 0.06251 0.28354 0.0
C110 C 0.30346 0.05087 0.22009 0.0
C111 C 0.31114 0.1089 0.36452 0.0
H112 H 0.28564 0.97405 0.91016 0.0
H113 H 0.27192 0.95618 0.79388 0.0
H114 H 0.29649 0.05932 0.75198 0.0
H115 H 0.31018 0.07747 0.86741 0.0
H116 H 0.32795 0.12598 0.14615 0.0
H117 H 0.32809 0.14634 0.25782 0.0
H118 H 0.29565 1.04457 0.32162 0.0
H119 H 0.29681 1.02422 0.21091 0.0
Tb120 Tb 0.09077 0.83271 0.60436 0.0
Eu121 Eu 1.04042 0.8016 0.47079 0.0
C122 C 0.11344 0.80734 0.48144 0.0
C123 C 0.10563 0.88011 0.48755 0.0
C124 C 0.10989 0.83558 0.78073 0.0
C125 C 0.12178 0.82684 0.89245 0.0
C126 C 0.13299 0.8376 0.83075 0.0
C127 C 0.07521 0.8219 0.79291 0.0
C128 C 1.06397 0.81114 0.85449 0.0
C129 C 0.08715 0.81379 0.90541 0.0
C130 C 0.12188 0.84726 0.7159 0.0
O131 O 1.0415 0.82987 0.62454 0.0
O132 O 1.02531 0.83625 0.52167 0.0
O133 O 1.01218 0.76753 0.55423 0.0
O134 O 1.06312 0.77722 0.59427 0.0
C135 C 1.02349 0.83825 0.58457 0.0
O136 O 1.01324 0.80671 0.38548 0.0
O137 O 1.01134 0.75812 0.39941 0.0
O138 O 0.0808 0.78665 0.4659 0.0
O139 O 0.12407 0.83126 0.52987 0.0
O140 O 0.10544 0.8783 0.55094 0.0
O141 O 0.0872 0.85263 0.44727 0.0
C142 C 1.03004 0.76069 0.59731 0.0
O143 O 0.12034 0.82381 0.67463 0.0
O144 O 0.11059 0.86592 0.6888 0.0
C145 C 1.01601 0.77662 0.29245 0.0
C146 C 1.03896 0.78314 0.16542 0.0
C147 C 1.00506 0.77489 0.17556 0.0
C148 C 0.99374 0.77172 0.23849 0.0
C149 C 1.04955 0.78394 0.28253 0.0
C150 C 1.06089 0.78711 0.21976 0.0
C151 C 1.00519 0.77652 0.35898 0.0
H152 H 0.14027 0.8287 0.92999 0.0
H153 H 0.15977 0.84765 0.82218 0.0
H154 H 1.05681 0.81972 0.75484 0.0
H155 H 1.03722 0.80153 0.86251 0.0
H156 H 0.98756 0.77199 0.13503 0.0
H157 H 0.96782 0.76623 0.24509 0.0
H158 H 0.0672 0.78789 0.32353 0.0
H159 H 0.08699 0.79304 0.21386 0.0
Tb160 Tb 0.30279 0.26428 0.48234 0.0
Eu161 Eu 0.28569 0.29635 0.60973 0.0
C162 C 0.35151 0.28834 0.61054 0.0
C163 C 0.27032 0.21735 0.59803 0.0
C164 C 0.31808 0.25948 0.30974 0.0
C165 C 0.3187 0.25143 0.19298 0.0
C166 C 0.31919 0.24049 0.25556 0.0
C167 C 0.31689 0.28985 0.30068 0.0
C168 C 0.31647 0.30088 0.23817 0.0
C169 C 0.31706 0.28163 0.18336 0.0
C170 C 0.31689 0.24696 0.37523 0.0
O171 O 0.25726 0.26917 0.45541 0.0
O172 O 0.23571 0.26115 0.55519 0.0
O173 O 0.29231 0.3313 0.52547 0.0
O174 O 0.33183 0.3199 0.48676 0.0
C175 C 0.23122 0.26019 0.49214 0.0
O176 O 0.25249 0.29367 0.6858 0.0
O177 O 0.30266 0.33883 0.68378 0.0
O178 O 0.34067 0.31015 0.62116 0.0
O179 O 0.33733 0.26434 0.56223 0.0
O180 O 0.2711 0.21915 0.5347 0.0
O181 O 0.28076 0.24504 0.63764 0.0
C182 C 0.31683 0.3384 0.48594 0.0
O183 O 0.33987 0.26896 0.41882 0.0
O184 O 0.28664 0.23104 0.39786 0.0
C185 C 0.28373 0.31836 0.78627 0.0
C186 C 0.29919 0.31165 0.9174 0.0
C187 C 0.29432 0.33918 0.89998 0.0
C188 C 0.28669 0.3425 0.83492 0.0
C189 C 0.28859 0.29095 0.80345 0.0
C190 C 0.29629 0.28765 0.86815 0.0
C191 C 0.27611 0.32182 0.71759 0.0
H192 H 0.31867 0.23566 0.15201 0.0
H193 H 0.31991 0.21688 0.26154 0.0
H194 H 0.31594 0.30486 0.34196 0.0
H195 H 0.31565 0.32446 0.23283 0.0
H196 H 0.2966 0.35826 0.93655 0.0
H197 H 0.28298 0.36379 0.8226 0.0
H198 H 0.28611 0.27184 0.76677 0.0
H199 H 0.29923 0.26579 0.87971 0.0
Tb200 Tb 0.84363 1.02549 0.59852 0.0
Eu201 Eu 0.85289 0.07101 0.47393 0.0
C202 C 0.78631 1.001 0.48401 0.0
C203 C 0.86891 1.00833 0.4736 0.0
C204 C 0.83575 1.0025 0.76869 0.0
C205 C 0.81372 0.98735 0.87525 0.0
C206 C 0.815 0.97765 0.81069 0.0
C207 C 0.85545 1.03715 0.79222 0.0
C208 C 0.85394 1.04691 0.85642 0.0
C209 C 0.83296 1.02217 0.89866 0.0
C210 C 0.83516 0.99264 0.69964 0.0
O211 O 0.88866 0.07721 0.62469 0.0
O212 O 0.9051 0.09018 0.52158 0.0
O213 O 0.84938 0.10196 0.56165 0.0
O214 O 0.81785 0.05425 0.61762 0.0
C215 C 0.91217 0.09534 0.58435 0.0
O216 O 0.88264 0.09917 0.39402 0.0
O217 O 0.83293 0.09406 0.40556 0.0
O218 O 0.79728 1.0337 0.47877 0.0
O219 O 0.8042 0.9912 0.52096 0.0
O220 O 0.87562 1.01569 0.53625 0.0
O221 O 0.85377 1.02204 0.43937 0.0
C222 C 0.83072 0.0873 0.61103 0.0
O223 O 0.81009 0.99084 0.66265 0.0
O224 O 0.86422 1.00865 0.67253 0.0
C225 C 0.84868 0.09155 0.29892 0.0
C226 C 0.83662 0.06784 0.16678 0.0
C227 C 0.85737 0.10325 0.18527 0.0
C228 C 0.86336 0.11496 0.2508 0.0
C229 C 0.82701 0.05642 0.28074 0.0
C230 C 0.82092 1.04467 0.21531 0.0
C231 C 0.85817 0.10329 0.36791 0.0
H232 H 0.79717 0.96771 0.90648 0.0
H233 H 0.79945 0.95082 0.79332 0.0
H234 H 0.87162 0.05681 0.76063 0.0
H235 H 0.86944 0.07384 0.87313 0.0
H236 H 0.87015 0.12179 0.1494 0.0
H237 H 0.88031 0.14215 0.26403 0.0
H238 H 0.8155 1.03799 0.31734 0.0
H239 H 0.80433 1.01735 0.20287 0.0
Tb240 Tb 0.71251 0.6017 0.79941 0.0
Eu241 Eu 0.76339 0.63261 0.93301 0.0
C242 C 0.69804 0.55446 0.9168 0.0
C243 C 0.68964 0.62641 0.92336 0.0
C244 C 0.69361 0.59696 0.62261 0.0
C245 C 0.68162 0.60073 0.50811 0.0
C246 C 0.67017 0.59095 0.57006 0.0
C247 C 0.72875 0.61335 0.61254 0.0
C248 C 0.74026 0.62334 0.55078 0.0
C249 C 0.71683 0.61688 0.49753 0.0
C250 C 0.68144 0.58636 0.68773 0.0
O251 O 0.74037 0.65723 0.80954 0.0
O252 O 0.79129 0.66678 0.84961 0.0
O253 O 0.77746 0.59732 0.88116 0.0
O254 O 0.7617 0.60473 0.77883 0.0
C255 C 0.77348 0.67369 0.8066 0.0
O256 O 0.7925 0.67581 1.005 0.0
O257 O 0.79176 0.6276 1.01642 0.0
O258 O 0.71675 0.58182 0.9571 0.0
O259 O 0.69799 0.55628 0.85339 0.0
O260 O 0.67911 0.60353 0.8731 0.0
O261 O 0.72223 0.64638 0.94092 0.0
C262 C 0.77934 0.59574 0.81823 0.0
O263 O 0.6922 0.56761 0.71619 0.0
O264 O 0.6836 0.6106 0.72772 0.0
C265 C 0.78842 0.6563 0.1108 0.0
C266 C 0.76545 0.64807 0.23789 0.0
C267 C 0.80055 0.662 0.22798 0.0
C268 C 0.8119 0.66598 0.16494 0.0
C269 C 0.75364 0.64346 0.12052 0.0
C270 C 0.74226 0.63944 0.18323 0.0
C271 C 0.7994 0.65742 0.04418 0.0
H272 H 0.66288 0.59576 0.46851 0.0
H273 H 0.64297 0.57854 0.57685 0.0
H274 H 0.74733 0.61833 0.65248 0.0
H275 H 0.76748 0.6354 0.5445 0.0
H276 H 0.81912 0.66874 0.2688 0.0
H277 H 0.83888 0.67591 0.15846 0.0
H278 H 0.7352 0.6359 0.07929 0.0
H279 H 0.71517 0.62922 0.18883 0.0
Tb280 Tb 0.51081 0.13904 0.80728 0.0
Eu281 Eu 0.49755 0.17323 0.93812 0.0
C282 C 0.56802 0.17276 0.91965 0.0
C283 C 0.48217 0.09886 0.93109 0.0
C284 C 0.505 0.10821 0.63537 0.0
C285 C 0.51732 0.1096 0.52163 0.0
C286 C 0.5254 0.1073 0.58685 0.0
C287 C 0.47543 0.10982 0.61737 0.0
C288 C 0.46742 0.11232 0.55221 0.0
C289 C 0.48875 0.1131 0.50367 0.0
C290 C 0.51634 0.11028 0.70442 0.0
O291 O 0.45835 0.12865 0.79689 0.0
O292 O 0.46199 0.17445 0.85717 0.0
O293 O 0.53013 0.21824 0.88048 0.0
O294 O 0.51762 0.18941 0.77935 0.0
C295 C 0.4481 0.15101 0.80805 0.0
O296 O 0.46081 0.16923 1.00802 0.0
O297 O 0.51457 0.20705 1.02678 0.0
O298 O 0.54458 0.16729 0.96103 0.0
O299 O 0.56095 0.17036 0.85685 0.0
O300 O 0.50592 0.10632 0.88964 0.0
O301 O 0.46602 0.11609 0.92929 0.0
C302 C 0.52965 0.21823 0.81683 0.0
O303 O 0.53953 0.14087 0.72837 0.0
O304 O 0.49244 0.09457 0.74447 0.0
C305 C 0.4836 0.17834 0.11659 0.0
C306 C 0.47977 0.15202 0.2408 0.0
C307 C 0.45649 0.1625 0.21896 0.0
C308 C 0.45839 0.17548 0.1575 0.0
C309 C 0.50667 0.1676 0.13786 0.0
C310 C 0.50479 0.15463 0.1992 0.0
C311 C 0.48461 0.1909 0.05088 0.0
H312 H 0.53442 0.1103 0.48571 0.0
H313 H 0.5483 0.10601 0.59966 0.0
H314 H 0.45903 0.11006 0.65388 0.0
H315 H 0.44488 0.11431 0.53994 0.0
H316 H 0.43657 0.16043 0.24915 0.0
H317 H 0.44003 0.18315 0.14176 0.0
H318 H 0.52607 0.16903 0.10689 0.0
H319 H 0.52339 0.14721 0.21441 0.0
Tb320 Tb 0.96326 0.4053 0.81052 0.0
Eu321 Eu 0.94669 0.35958 0.93614 0.0
C322 C 0.93331 0.42406 0.9279 0.0
C323 C 1.01417 0.43109 0.93561 0.0
C324 C 0.98174 0.42606 0.64097 0.0
C325 C 0.98702 0.43614 0.52628 0.0
C326 C 0.98488 0.44678 0.58951 0.0
C327 C 0.98148 0.39486 0.62885 0.0
C328 C 0.98367 0.38421 0.56568 0.0
C329 C 0.98605 0.40453 0.51346 0.0
C330 C 0.97789 0.43656 0.70683 0.0
O331 O 0.99065 0.37726 0.8071 0.0
O332 O 0.95158 0.32843 0.85059 0.0
O333 O 0.8964 0.34316 0.88314 0.0
O334 O 0.91712 0.3544 0.78263 0.0
C335 C 0.97549 0.34385 0.80958 0.0
O336 O 0.96232 0.33211 1.00261 0.0
O337 O 0.91578 0.33369 1.01633 0.0
O338 O 0.94477 0.40846 0.96645 0.0
O339 O 0.93121 0.41893 0.86459 0.0
O340 O 0.99922 0.44056 0.89087 0.0
O341 O 1.00244 0.3985 0.94447 0.0
C342 C 0.89143 0.338 0.82006 0.0
O343 O 0.94703 0.42013 0.7267 0.0
O344 O 1.00065 0.43929 0.75125 0.0
C345 C 0.94953 0.33748 0.11006 0.0
C346 C 0.97014 0.35918 0.24226 0.0
C347 C 0.96377 0.32653 0.21827 0.0
C348 C 0.95363 0.31582 0.15259 0.0
C349 C 0.95674 0.37037 0.13345 0.0
C350 C 0.96693 0.38111 0.1988 0.0
C351 C 0.93813 0.32609 0.04133 0.0
H352 H 0.98832 0.45218 0.48717 0.0
H353 H 0.98506 0.4709 0.59803 0.0
H354 H 0.97915 0.37855 0.66814 0.0
H355 H 0.98327 0.35995 0.55771 0.0
H356 H 0.96644 0.30922 0.25034 0.0
H357 H 0.94867 0.29054 0.13516 0.0
H358 H 0.95389 0.38755 0.10132 0.0
H359 H 0.97119 0.40621 0.21566 0.0
Tb360 Tb 0.75688 0.16157 0.93382 0.0
Eu361 Eu 0.70637 0.13177 0.80048 0.0
C362 C 0.77925 0.13708 0.80939 0.0
C363 C 0.77187 0.2101 0.81875 0.0
C364 C 0.77589 0.16301 0.10985 0.0
C365 C 0.7877 0.15517 0.22219 0.0
C366 C 0.79898 0.16551 0.16035 0.0
C367 C 0.74115 0.14914 0.12158 0.0
C368 C 0.72984 0.13888 0.18333 0.0
C369 C 0.75302 0.14214 0.23484 0.0
C370 C 0.78801 0.17466 0.04513 0.0
O371 O 0.70817 0.15986 0.95483 0.0
O372 O 0.69193 0.16666 0.85226 0.0
O373 O 0.67781 0.0978 0.88378 0.0
O374 O 0.72846 0.10614 0.92173 0.0
C375 C 0.69036 0.16866 0.91522 0.0
O376 O 0.67939 0.13752 0.71559 0.0
O377 O 0.67676 0.08854 0.72889 0.0
O378 O 0.74657 0.11665 0.7938 0.0
O379 O 0.79006 0.16053 0.85868 0.0
O380 O 0.77213 0.20773 0.88201 0.0
O381 O 0.75311 0.18301 0.77777 0.0
C382 C 0.69547 0.09021 0.92583 0.0
O383 O 0.78546 0.15094 1.00329 0.0
O384 O 0.77763 0.19424 1.0188 0.0
C385 C 0.68185 0.10745 0.62226 0.0
C386 C 0.70487 0.11386 0.49534 0.0
C387 C 0.671 0.10576 0.50538 0.0
C388 C 0.65964 0.10264 0.56826 0.0
C389 C 0.71539 0.11474 0.61247 0.0
C390 C 0.72677 0.11786 0.54975 0.0
C391 C 0.67098 0.1073 0.68874 0.0
H392 H 0.8062 0.15742 0.26011 0.0
H393 H 0.82581 0.17568 0.15209 0.0
H394 H 0.72276 0.14659 0.08309 0.0
H395 H 0.70305 0.12926 0.19101 0.0
H396 H 0.65353 0.10285 0.4648 0.0
H397 H 0.63373 0.0972 0.57479 0.0
H398 H 0.73301 0.11867 0.65353 0.0
H399 H 0.75285 0.12367 0.54394 0.0
Tb400 Tb 0.95621 0.62935 0.93376 0.0
Eu401 Eu 0.97615 0.60019 0.80599 0.0
C402 C 0.98608 0.67398 0.81451 0.0
C403 C 0.90266 0.59483 0.81646 0.0
C404 C 0.95415 0.64984 0.10702 0.0
C405 C 0.9716 0.67441 0.21839 0.0
C406 C 0.96301 0.67704 0.15353 0.0
C407 C 0.9541 0.62001 0.12627 0.0
C408 C 0.96291 0.61746 0.19068 0.0
C409 C 0.97174 0.64457 0.23763 0.0
C410 C 0.94605 0.65292 0.03833 0.0
O411 O 0.95273 0.58025 0.96101 0.0
O412 O 0.94284 0.55345 0.85894 0.0
O413 O 1.01113 0.6013 0.89122 0.0
O414 O 1.01041 0.64644 0.94301 0.0
C415 C 0.94208 0.55215 0.92224 0.0
O416 O 0.96223 0.56661 0.71741 0.0
O417 O 1.01516 0.60587 0.74061 0.0
O418 O 1.00313 0.65761 0.81029 0.0
O419 O 0.961 0.66352 0.85407 0.0
O420 O 0.90802 0.5961 0.87949 0.0
O421 O 0.92784 0.60306 0.7779 0.0
C422 C 1.02278 0.62556 0.9388 0.0
O423 O 0.97226 0.67057 1.00428 0.0
O424 O 0.92316 0.6245 1.00637 0.0
C425 C 0.99439 0.59592 0.63051 0.0
C426 C 0.99298 0.61723 0.50351 0.0
C427 C 0.99132 0.58543 0.5136 0.0
C428 C 0.99203 0.57493 0.57645 0.0
C429 C 0.99647 0.62784 0.621 0.0
C430 C 0.99589 0.63845 0.55816 0.0
C431 C 0.99282 0.58364 0.69632 0.0
H432 H 0.97848 0.69582 0.25331 0.0
H433 H 0.96333 0.70031 0.13962 0.0
H434 H 0.94747 0.59866 0.09135 0.0
H435 H 0.96226 0.59394 0.20391 0.0
H436 H 0.98846 0.56811 0.47288 0.0
H437 H 0.99008 0.55009 0.58279 0.0
H438 H 0.99812 0.6444 0.66216 0.0
H439 H 0.99764 0.66323 0.55248 0.0
Tb440 Tb 0.50676 0.36026 0.93699 0.0
Eu441 Eu 0.51865 0.4069 0.81297 0.0
C442 C 0.45253 0.3345 0.81659 0.0
C443 C 0.53456 0.34384 0.81352 0.0
C444 C 0.49792 0.34075 0.1086 0.0
C445 C 0.47688 0.3294 0.21658 0.0
C446 C 0.47646 0.31778 0.15252 0.0
C447 C 0.51967 0.37554 0.12943 0.0
C448 C 0.52001 0.38719 0.19317 0.0
C449 C 0.49875 0.36427 0.23771 0.0
C450 C 0.49628 0.32892 0.04039 0.0
O451 O 0.55291 0.41125 0.96326 0.0
O452 O 0.57023 0.42345 0.86052 0.0
O453 O 0.51553 0.43737 0.90195 0.0
O454 O 0.47939 0.38805 0.94731 0.0
C455 C 0.57711 0.42823 0.9233 0.0
O456 O 0.54924 0.43584 0.73458 0.0
O457 O 0.50011 0.43209 0.74686 0.0
O458 O 0.46322 0.36705 0.80914 0.0
O459 O 0.46915 0.32521 0.85811 0.0
O460 O 0.53814 0.34846 0.87698 0.0
O461 O 0.52133 0.35898 0.778 0.0
C462 C 0.4945 0.42159 0.94748 0.0
O463 O 0.47201 0.3282 1.00262 0.0
O464 O 0.52529 0.34253 1.01287 0.0
C465 C 0.51652 0.43182 0.63987 0.0
C466 C 0.50578 0.41171 0.50614 0.0
C467 C 0.52844 0.44625 0.5282 0.0
C468 C 0.53378 0.45618 0.59451 0.0
C469 C 0.49281 0.39765 0.61806 0.0
C470 C 0.48737 0.38767 0.55173 0.0
C471 C 0.52555 0.44149 0.70965 0.0
H472 H 0.46042 0.311 0.24974 0.0
H473 H 0.45932 0.29088 0.13721 0.0
H474 H 0.53603 0.3939 0.09606 0.0
H475 H 0.53667 0.41431 0.20729 0.0
H476 H 0.54261 0.46548 0.49424 0.0
H477 H 0.55215 0.48268 0.61051 0.0
H478 H 0.47935 0.37847 0.65252 0.0
H479 H 0.46994 0.36084 0.53647 0.0
Tb480 Tb 0.42644 0.96847 0.26739 0.0
Eu481 Eu 0.37666 0.9403 0.13362 0.0
C482 C 0.44461 0.93316 0.15465 0.0
C483 C 0.44396 1.01224 0.14499 0.0
C484 C 0.44583 0.99204 0.44266 0.0
C485 C 0.45666 1.00307 0.55992 0.0
C486 C 0.46883 1.00552 0.49782 0.0
C487 C 0.41055 0.97732 0.45014 0.0
C488 C 0.39836 0.9748 0.51207 0.0
C489 C 0.42118 0.98693 0.56799 0.0
C490 C 0.4583 0.99182 0.37779 0.0
O491 O 0.39339 0.99044 0.26114 0.0
O492 O 0.34526 0.94481 0.2145 0.0
O493 O 0.36328 0.89329 0.18751 0.0
O494 O 0.37979 0.92038 0.28974 0.0
C495 C 0.36009 0.97144 0.25727 0.0
O496 O 0.3442 0.94848 0.06297 0.0
O497 O 0.3545 0.90674 0.04495 0.0
O498 O 0.42599 0.93981 0.11271 0.0
O499 O 0.44337 0.93691 0.21759 0.0
O500 O 0.45724 1.00151 0.19068 0.0
O501 O 0.41084 0.99727 0.13345 0.0
C502 C 0.36269 0.89213 0.25078 0.0
O503 O 0.44965 0.96145 0.35159 0.0
O504 O 0.4537 1.01055 0.33602 0.0
C505 C 0.35301 0.93733 0.95513 0.0
C506 C 0.37369 0.95817 0.82901 0.0
C507 C 0.33867 0.93838 0.84061 0.0
C508 C 0.32847 0.92805 0.90302 0.0
C509 C 0.3879 0.95794 0.94441 0.0
C510 C 0.39814 0.96824 0.88207 0.0
C511 C 0.34239 0.92533 1.02039 0.0
H512 H 0.47501 1.01261 0.60169 0.0
H513 H 0.49616 1.01716 0.49303 0.0
H514 H 0.39236 0.96708 0.40808 0.0
H515 H 0.37097 0.96292 0.51616 0.0
H516 H 0.31908 0.9307 0.80134 0.0
H517 H 0.30141 0.91252 0.91042 0.0
H518 H 0.40727 0.96561 0.98416 0.0
H519 H 0.4253 0.9832 0.87522 0.0
Tb520 Tb 0.18025 0.47322 0.14239 0.0
Eu521 Eu 0.16398 0.50549 0.27263 0.0
C522 C 0.2355 0.50662 0.25843 0.0
C523 C 0.15079 0.43182 0.2644 0.0
C524 C 0.17655 0.44431 0.97038 0.0
C525 C 0.18898 0.44666 0.85661 0.0
C526 C 0.19748 0.44471 0.92177 0.0
C527 C 0.14622 0.44454 0.95257 0.0
C528 C 0.13775 0.44663 0.88747 0.0
C529 C 0.15942 0.44848 0.8388 0.0
C530 C 0.18789 0.44626 0.03938 0.0
O531 O 0.12727 0.461 0.13008 0.0
O532 O 0.12855 0.5057 0.19025 0.0
O533 O 0.19691 0.55118 0.21691 0.0
O534 O 0.18595 0.52324 0.1153 0.0
C535 C 0.11577 0.48235 0.14088 0.0
O536 O 0.12616 0.49929 0.34184 0.0
O537 O 0.17904 0.53958 0.36062 0.0
O538 O 0.21123 0.50045 0.29823 0.0
O539 O 0.22953 0.50462 0.19529 0.0
O540 O 0.17514 0.44011 0.22402 0.0
O541 O 0.13386 0.44826 0.26181 0.0
C542 C 0.1972 0.5517 0.1534 0.0
O543 O 0.21009 0.47702 0.06421 0.0
O544 O 0.16403 0.42935 0.07888 0.0
C545 C 0.14905 0.51007 0.45063 0.0
C546 C 0.147 0.48484 0.57537 0.0
C547 C 0.12219 0.49321 0.55305 0.0
C548 C 0.1232 0.50563 0.49128 0.0
C549 C 0.1737 0.50152 0.4725 0.0
C550 C 0.17269 0.48905 0.53408 0.0
C551 C 0.14919 0.52199 0.38459 0.0
H552 H 0.20639 0.44827 0.82057 0.0
H553 H 0.22099 0.44455 0.93442 0.0
H554 H 0.12949 0.44394 0.98918 0.0
H555 H 0.11452 0.44739 0.87533 0.0
H556 H 0.10178 0.48988 0.5831 0.0
H557 H 0.10365 0.51161 0.4751 0.0
H558 H 0.19366 0.5042 0.44177 0.0
H559 H 0.19243 0.48327 0.54971 0.0
Tb560 Tb 0.62248 0.70243 0.24781 0.0
Eu561 Eu 0.62676 0.74714 0.12519 0.0
C562 C 0.55857 0.67614 0.15065 0.0
C563 C 0.63605 0.6806 0.10831 0.0
C564 C 0.62736 0.68774 0.42152 0.0
C565 C 0.61544 0.6738 0.53354 0.0
C566 C 0.61454 0.66331 0.46851 0.0
C567 C 0.64132 0.72288 0.44044 0.0
C568 C 0.64241 0.7334 0.50542 0.0
C569 C 0.62931 0.70898 0.55272 0.0
C570 C 0.62589 0.67654 0.35296 0.0
O571 O 0.67371 0.73366 0.21836 0.0
O572 O 0.66982 0.78042 0.20425 0.0
O573 O 0.59408 0.75495 0.19342 0.0
O574 O 0.62033 0.74867 0.28455 0.0
C575 C 0.6873 0.76677 0.22912 0.0
O576 O 0.65942 0.78342 0.05666 0.0
O577 O 0.6052 0.76653 0.05227 0.0
O578 O 0.57852 0.69411 0.10518 0.0
O579 O 0.56978 0.68216 0.21196 0.0
O580 O 0.623 0.66971 0.16496 0.0
O581 O 0.64545 0.7119 0.09151 0.0
C582 C 0.60233 0.76112 0.25573 0.0
O583 O 0.59732 0.66708 0.31873 0.0
O584 O 0.65235 0.69647 0.32139 0.0
C585 C 0.63107 0.77214 0.9533 0.0
C586 C 0.62995 0.7523 0.82151 0.0
C587 C 0.64537 0.78745 0.84263 0.0
C588 C 0.64598 0.79726 0.90805 0.0
C589 C 0.61542 0.73713 0.93244 0.0
C590 C 0.61492 0.72729 0.86734 0.0
C591 C 0.63362 0.78212 1.02281 0.0
H592 H 0.60551 0.6544 0.56892 0.0
H593 H 0.60377 0.63611 0.45488 0.0
H594 H 0.65128 0.74223 0.40493 0.0
H595 H 0.6529 0.76062 0.51839 0.0
H596 H 0.65684 0.80738 0.80858 0.0
H597 H 0.65836 0.82442 0.9234 0.0
H598 H 0.60397 0.71737 0.96684 0.0
H599 H 0.60336 0.70006 0.85325 0.0
Tb600 Tb 0.4247 0.49673 0.27615 0.0
Eu601 Eu 0.37448 0.46827 0.14318 0.0
C602 C 0.44667 0.4723 0.1515 0.0
C603 C 0.43943 0.5467 0.16378 0.0
C604 C 0.44302 0.49714 0.45151 0.0
C605 C 0.45376 0.49407 0.56692 0.0
C606 C 0.46599 0.50427 0.50555 0.0
C607 C 0.40764 0.47882 0.45922 0.0
C608 C 0.3954 0.46869 0.52039 0.0
C609 C 0.41829 0.47665 0.5753 0.0
C610 C 0.45578 0.50905 0.38738 0.0
O611 O 0.37596 0.49474 0.29814 0.0
O612 O 0.35998 0.50269 0.19632 0.0
O613 O 0.34567 0.43351 0.22549 0.0
O614 O 0.39621 0.44132 0.26317 0.0
C615 C 0.35828 0.50403 0.25927 0.0
O616 O 0.34754 0.47467 0.05907 0.0
O617 O 0.34494 0.42558 0.07049 0.0
O618 O 0.41393 0.45221 0.13628 0.0
O619 O 0.45778 0.49604 0.20033 0.0
O620 O 0.43944 0.54342 0.22675 0.0
O621 O 0.4212 0.51993 0.12177 0.0
C622 C 0.36316 0.42521 0.26656 0.0
O623 O 0.4528 0.48529 0.34514 0.0
O624 O 0.44597 0.52913 0.3614 0.0
C625 C 0.34938 0.44501 0.96454 0.0
C626 C 0.37033 0.45032 0.83609 0.0
C627 C 0.33564 0.43782 0.84791 0.0
C628 C 0.32531 0.43525 0.91148 0.0
C629 C 0.38387 0.45679 0.95327 0.0
C630 C 0.39424 0.45938 0.88977 0.0
C631 C 0.33894 0.44458 1.03138 0.0
H632 H 0.47212 0.50077 0.6081 0.0
H633 H 0.49338 0.51818 0.50051 0.0
H634 H 0.38945 0.47269 0.41795 0.0
H635 H 0.36795 0.45474 0.52474 0.0
H636 H 0.31639 0.43009 0.80799 0.0
H637 H 0.29857 0.42601 0.91917 0.0
H638 H 0.40292 0.46468 0.99368 0.0
H639 H 0.4212 0.46955 0.88292 0.0
Tb640 Tb 0.63763 0.93235 0.14695 0.0
Eu641 Eu 0.62121 0.96513 0.27391 0.0
C642 C 0.68754 0.95907 0.27308 0.0
C643 C 0.60728 0.88669 0.26501 0.0
C644 C 0.65082 0.92468 0.97425 0.0
C645 C 0.6479 0.91342 0.85769 0.0
C646 C 0.65017 0.90415 0.92096 0.0
C647 C 0.6498 0.95503 0.96357 0.0
C648 C 0.64765 0.96441 0.90029 0.0
C649 C 0.64617 0.94344 0.84651 0.0
C650 C 0.65083 0.91354 0.04053 0.0
O651 O 0.59138 0.93621 0.12108 0.0
O652 O 0.57105 0.92822 0.22177 0.0
O653 O 0.62628 0.9992 0.1891 0.0
O654 O 0.66536 0.98795 0.14663 0.0
C655 C 0.56575 0.92709 0.15891 0.0
O656 O 0.58761 0.96433 0.34765 0.0
O657 O 0.63969 1.00663 0.35039 0.0
O658 O 0.67681 0.98117 0.28004 0.0
O659 O 0.67301 0.93397 0.22687 0.0
O660 O 0.60698 0.88781 0.20151 0.0
O661 O 0.61776 0.9147 0.30372 0.0
C662 C 0.65003 1.00616 0.14775 0.0
O663 O 0.67414 0.9365 0.08253 0.0
O664 O 0.62094 0.89766 0.0646 0.0
C665 C 0.61737 0.98534 0.4503 0.0
C666 C 0.62805 0.97408 0.58103 0.0
C667 C 0.62636 1.00362 0.56523 0.0
C668 C 0.62101 1.00915 0.50031 0.0
C669 C 0.61951 0.95617 0.46586 0.0
C670 C 0.62493 0.95067 0.53032 0.0
C671 C 0.61205 0.99093 0.38184 0.0
H672 H 0.64733 0.89696 0.81742 0.0
H673 H 0.65092 0.88066 0.92825 0.0
H674 H 0.65003 0.97112 1.00418 0.0
H675 H 0.64607 0.9875 0.89353 0.0
H676 H 0.62846 1.02208 0.60303 0.0
H677 H 0.61942 1.03179 0.48917 0.0
H678 H 0.61694 0.93753 0.42804 0.0
H679 H 0.62682 0.92805 0.54035 0.0
Tb680 Tb 0.17565 0.69427 0.27136 0.0
Eu681 Eu 0.18625 0.7402 0.14702 0.0
C682 C 0.11967 0.67006 0.15487 0.0
C683 C 0.20321 0.67823 0.14829 0.0
C684 C 0.16754 0.67198 0.44124 0.0
C685 C 0.14626 0.65937 0.54888 0.0
C686 C 0.14588 0.64849 0.48427 0.0
C687 C 0.18953 0.70647 0.46357 0.0
C688 C 0.18976 0.7174 0.52776 0.0
C689 C 0.16823 0.69401 0.5714 0.0
C690 C 0.16573 0.66116 0.37235 0.0
O691 O 0.22121 0.74543 0.29863 0.0
O692 O 0.23811 0.759 0.1958 0.0
O693 O 0.18321 0.77149 0.23437 0.0
O694 O 0.15069 0.72392 0.28985 0.0
C695 C 0.24496 0.76357 0.25866 0.0
O696 O 0.21657 0.76893 0.06819 0.0
O697 O 0.16653 0.76331 0.07838 0.0
O698 O 0.13054 0.70278 0.15045 0.0
O699 O 0.13734 0.66021 0.19226 0.0
O700 O 0.20864 0.68498 0.21119 0.0
O701 O 0.18824 0.69177 0.11299 0.0
C702 C 0.16426 0.75706 0.28344 0.0
O703 O 0.14123 0.66081 0.33586 0.0
O704 O 0.19464 0.67544 0.34444 0.0
C705 C 0.18366 0.76252 0.97226 0.0
C706 C 0.17375 0.74109 0.83936 0.0
C707 C 0.19521 0.77605 0.86017 0.0
C708 C 0.20011 0.78665 0.92609 0.0
C709 C 0.16121 0.72783 0.95167 0.0
C710 C 0.15614 0.71721 0.88568 0.0
C711 C 0.19224 0.77316 0.04175 0.0
H712 H 0.1296 0.64058 0.58129 0.0
H713 H 0.12856 0.6218 0.46781 0.0
H714 H 0.20614 0.72521 0.431 0.0
H715 H 0.20649 0.74439 0.54284 0.0
H716 H 0.20874 0.79511 0.82552 0.0
H717 H 0.21752 0.81352 0.94118 0.0
H718 H 0.14846 0.70881 0.98681 0.0
H719 H 0.13965 0.69009 0.87127 0.0
C720 C 0.15424 0.38495 0.32582 0.0
C721 C 0.14829 0.41292 0.32403 0.0
H722 H 0.1477 0.3416 0.37842 0.0
C723 C 0.13733 0.4222 0.38029 0.0
H724 H 0.16248 0.37699 0.28336 0.0
C725 C 0.13026 0.40295 0.43504 0.0
C726 C 0.13359 0.37349 0.43539 0.0
H727 H 0.13255 0.44361 0.38115 0.0
H728 H 0.11943 0.40951 0.47527 0.0
C729 C 0.14646 0.3651 0.38084 0.0
C730 C 0.75605 0.776 0.35067 0.0
C731 C 0.75682 0.79867 0.40064 0.0
H732 H 0.73552 0.75025 0.25739 0.0
C733 C 0.73765 0.81532 0.38919 0.0
H734 H 0.77064 0.7629 0.35609 0.0
C735 C 0.71665 0.80751 0.33075 0.0
C736 C 0.7149 0.78329 0.28282 0.0
H737 H 0.7379 0.83326 0.42602 0.0
H738 H 0.70069 0.81907 0.32453 0.0
C739 C 0.73592 0.76882 0.29303 0.0
C740 C 0.34656 1.02826 0.37458 0.0
C741 C 0.32293 1.00518 0.41628 0.0
H742 H 0.37468 1.03554 0.2907 0.0
C743 C 0.3076 0.96951 0.39946 0.0
H744 H 0.35884 0.05594 0.38431 0.0
C745 C 0.31716 0.95761 0.34391 0.0
C746 C 0.34179 0.98126 0.30421 0.0
H747 H 0.28908 0.95096 0.42987 0.0
H748 H 0.30669 0.93017 0.33404 0.0
C749 C 0.3555 1.01658 0.3197 0.0
C750 C 0.36412 0.12804 0.71894 0.0
C751 C 0.3728 0.12901 0.65397 0.0
H752 H 0.38144 0.13485 0.81997 0.0
C753 C 0.40749 0.14431 0.64155 0.0
H754 H 0.33747 0.11597 0.72979 0.0
C755 C 0.43264 0.15533 0.6932 0.0
C756 C 0.42355 0.15108 0.75807 0.0
H757 H 0.41488 0.14469 0.59224 0.0
H758 H 0.45899 0.16454 0.68227 0.0
C759 C 0.38926 0.13894 0.77067 0.0
C760 C 0.96368 0.30242 0.71262 0.0
C761 C 0.98624 0.32555 0.76338 0.0
H762 H 0.95889 0.27736 0.61816 0.0
C763 C 1.02149 0.33902 0.75937 0.0
H764 H 0.93636 0.29249 0.71351 0.0
C765 C 1.03423 0.33143 0.70486 0.0
C766 C 1.01222 0.30974 0.65215 0.0
H767 H 1.03954 0.35733 0.79698 0.0
H768 H 1.0618 0.34368 0.70367 0.0
C769 C 0.97659 0.2943 0.65751 0.0
C770 C 0.77501 0.70912 0.64157 0.0
C771 C 0.80981 0.73214 0.635 0.0
H772 H 0.73677 0.67415 0.69985 0.0
C773 C 0.83382 0.73442 0.68401 0.0
H774 H 0.75579 0.70719 0.60556 0.0
C775 C 0.82281 0.71498 0.73965 0.0
C776 C 0.78756 0.69354 0.74761 0.0
H777 H 0.86078 0.75279 0.68143 0.0
H778 H 0.84165 0.71786 0.7774 0.0
C779 C 0.76411 0.69049 0.69677 0.0
C780 C 1.03979 0.74347 0.70645 0.0
C781 C 1.01614 0.74056 0.65609 0.0
H782 H 1.04851 0.72632 0.79683 0.0
C783 C 0.98095 0.71894 0.66429 0.0
H784 H 0.0671 0.76001 0.70326 0.0
C785 C 0.97018 0.69926 0.71972 0.0
C786 C 0.99441 0.70136 0.76807 0.0
H787 H 0.96197 0.71616 0.62696 0.0
H788 H 0.94324 0.68092 0.72266 0.0
C789 C 1.02915 0.72443 0.76121 0.0
C790 C 0.36631 0.28652 0.72696 0.0
C791 C 0.37545 0.28832 0.66223 0.0
H792 H 0.38372 0.29889 0.82787 0.0
C793 C 0.40942 0.29804 0.6508 0.0
H794 H 0.34034 0.27941 0.73707 0.0
C795 C 0.43429 0.30881 0.70322 0.0
C796 C 0.42558 0.30997 0.76771 0.0
H797 H 0.41739 0.30042 0.60161 0.0
H798 H 0.4609 0.31939 0.69287 0.0
C799 C 0.39108 0.29734 0.77914 0.0
C800 C 0.81198 0.10851 0.77798 0.0
C801 C 0.80283 0.13355 0.76622 0.0
H802 H 0.82782 0.07459 0.73785 0.0
C803 C 0.80702 0.14676 0.70405 0.0
H804 H 0.80794 0.09701 0.82446 0.0
C805 C 0.81867 0.13394 0.65378 0.0
C806 C 0.82537 0.10699 0.66458 0.0
H807 H 0.79879 0.16511 0.69294 0.0
H808 H 0.81985 0.14318 0.60564 0.0
C809 C 0.823 0.09539 0.72786 0.0
C810 C 0.74246 0.96298 0.31894 0.0
C811 C 0.71006 0.95905 0.32784 0.0
H812 H 0.79248 0.97904 0.3634 0.0
C813 C 0.7012 0.96148 0.39159 0.0
H814 H 0.75025 0.96196 0.27042 0.0
C815 C 0.72503 0.9706 0.44479 0.0
C816 C 0.75839 0.97741 0.43568 0.0
H817 H 0.67648 0.95882 0.39983 0.0
H818 H 0.71831 0.9754 0.49224 0.0
C819 C 0.76651 0.97234 0.37248 0.0
C820 C 0.14041 0.81648 0.37551 0.0
C821 C 0.1371 0.80401 0.43822 0.0
H822 H 0.15233 0.81208 0.27678 0.0
C823 C 0.14708 0.77962 0.45059 0.0
H824 H 0.13147 0.83422 0.36391 0.0
C825 C 0.15799 0.76635 0.40052 0.0
C826 C 0.1594 0.77715 0.33679 0.0
H827 H 0.14372 0.76868 0.49755 0.0
H828 H 0.16349 0.74601 0.41092 0.0
C829 C 0.15194 0.80352 0.32533 0.0
C830 C 0.37219 0.39903 0.36476 0.0
C831 C 0.34912 0.40347 0.32349 0.0
H832 H 0.38043 0.37707 0.44878 0.0
C833 C 0.3149 0.38898 0.34069 0.0
H834 H 0.39885 0.40987 0.35452 0.0
C835 C 0.30414 0.36962 0.39662 0.0
C836 C 0.32753 0.36476 0.43633 0.0
H837 H 0.29648 0.39219 0.31074 0.0
H838 H 0.2774 0.35728 0.40707 0.0
C839 C 0.3617 0.38035 0.41989 0.0
C840 C 1.03049 0.45254 0.05121 0.0
C841 C 1.03971 0.45559 0.98638 0.0
H842 H 1.04767 0.45943 0.15225 0.0
C843 C 0.0745 0.47423 0.97453 0.0
H844 H 1.00378 0.43776 0.06155 0.0
C845 C 0.09959 0.48675 1.02656 0.0
C846 C 0.09032 0.48083 0.09117 0.0
H847 H 0.08233 0.47629 0.92527 0.0
H848 H 0.12631 0.4985 1.01602 0.0
C849 C 1.05556 0.46503 0.10323 0.0
C850 C 0.65142 0.65024 0.94643 0.0
C851 C 0.66555 0.62997 0.96516 0.0
H852 H 0.63043 0.68145 0.97731 0.0
C853 C 0.66462 0.6216 1.03061 0.0
H854 H 0.65242 0.6577 0.89684 0.0
C855 C 0.65227 0.63551 0.07745 0.0
C856 C 0.64102 0.65839 0.05953 0.0
H857 H 0.67565 0.60617 0.04634 0.0
H858 H 0.6541 0.63055 0.12801 0.0
C859 C 0.63926 0.6642 0.993 0.0
C860 C 0.48578 0.05181 0.99189 0.0
C861 C 0.47918 0.07937 0.99021 0.0
H862 H 0.48014 1.00862 0.04425 0.0
C863 C 0.46746 0.0879 0.0463 0.0
H864 H 0.49468 1.04445 0.94966 0.0
C865 C 0.4604 0.06837 0.10068 0.0
C866 C 0.46457 1.03941 0.10095 0.0
H867 H 0.46222 0.10902 0.04742 0.0
H868 H 0.4491 0.07439 0.14077 0.0
C869 C 0.47809 1.0317 0.0466 0.0
C870 C 0.7054 0.06991 1.03143 0.0
C871 C 0.68172 0.07026 0.98491 0.0
H872 H 0.71395 0.05117 0.1199 0.0
C873 C 0.64676 0.05265 0.99784 0.0
H874 H 0.7326 0.08333 1.02464 0.0
C875 C 0.63595 1.03385 0.05434 0.0
C876 C 0.65998 1.03275 0.09896 0.0
H877 H 0.62781 0.05258 0.96368 0.0
H878 H 0.60881 1.01874 0.06119 0.0
C879 C 0.69477 0.05171 0.08715 0.0
C880 C 1.05892 0.64029 0.11237 0.0
C881 C 0.0923 0.64662 0.10554 0.0
H882 H 1.0109 0.62813 0.06438 0.0
C883 C 0.10111 0.6407 0.04355 0.0
H884 H 1.0517 0.64573 0.1588 0.0
C885 C 0.07759 0.63062 0.98888 0.0
C886 C 1.04512 0.627 0.99538 0.0
H887 H 0.12718 0.6471 1.03614 0.0
H888 H 0.08584 0.62872 0.94119 0.0
C889 C 1.03569 0.63058 0.05804 0.0
C890 C 0.48061 0.48507 0.05302 0.0
C891 C 0.46977 0.46698 0.10986 0.0
H892 H 0.49752 0.48544 0.95657 0.0
C893 C 0.47083 0.43641 0.11456 0.0
H894 H 0.47861 0.50794 0.04694 0.0
C895 C 0.48039 0.42305 0.06254 0.0
C896 C 0.48947 0.4399 1.00411 0.0
H897 H 0.46155 0.42129 0.15657 0.0
H898 H 0.47893 0.39836 0.06708 0.0
C899 C 0.49088 0.4719 1.00081 0.0
C900 C 0.1379 0.23052 0.49298 0.0
C901 C 0.13612 0.25736 0.4632 0.0
H902 H 0.16962 0.20982 0.52334 0.0
C903 C 0.1639 0.28027 0.42855 0.0
H904 H 0.11701 0.21266 0.52042 0.0
C905 C 0.1944 0.27871 0.43033 0.0
C906 C 0.1973 0.25419 0.46682 0.0
H907 H 0.16348 0.30154 0.40612 0.0
H908 H 0.21668 0.29884 0.40929 0.0
C909 C 0.16808 0.22891 0.49467 0.0
C910 C 0.84386 0.94951 0.41616 0.0
C911 C 0.87217 0.9787 0.4482 0.0
H912 H 0.8178 0.89428 0.39835 0.0
C913 C 0.89979 0.97537 0.47349 0.0
H914 H 0.82187 0.95098 0.39749 0.0
C915 C 0.89737 0.94301 0.47434 0.0
C916 C 0.86742 0.91321 0.44937 0.0
H917 H 0.92183 0.99728 0.49888 0.0
H918 H 0.91755 0.94085 0.50044 0.0
C919 C 0.8415 0.91692 0.41672 0.0
C920 C 0.13362 0.94388 0.49274 0.0
C921 C 0.13107 0.91376 0.46406 0.0
H922 H 0.16592 0.99776 0.51861 0.0
C923 C 0.15795 0.91669 0.42746 0.0
H924 H 0.11346 0.94237 0.52165 0.0
C925 C 0.18837 0.94871 0.42584 0.0
C926 C 0.19209 0.97807 0.46069 0.0
H927 H 0.15697 0.8938 0.40602 0.0
H928 H 0.21009 0.94965 0.40343 0.0
C929 C 0.16368 0.97565 0.49086 0.0
C930 C 0.28725 0.17983 0.65807 0.0
C931 C 0.26205 0.18355 0.62251 0.0
H932 H 0.30727 0.14616 0.67864 0.0
C933 C 0.23307 0.15387 0.59419 0.0
H934 H 0.31018 0.20243 0.67928 0.0
C935 C 0.23122 0.12176 0.59448 0.0
C936 C 0.25852 0.11869 0.62239 0.0
H937 H 0.21346 0.15607 0.56602 0.0
H938 H 0.2103 0.10011 0.56617 0.0
C939 C 0.28551 0.14752 0.65795 0.0
C940 C 0.9485 0.15383 0.6423 0.0
C941 C 0.94603 0.12534 0.60614 0.0
H942 H 0.97787 0.20892 0.66337 0.0
C943 C 0.97468 0.12957 0.5744 0.0
H944 H 0.9265 0.15145 0.66595 0.0
C945 C 1.0037 0.16215 0.57263 0.0
C946 C 1.00489 0.19135 0.60276 0.0
H947 H 0.97335 0.10818 0.54562 0.0
H948 H 1.02404 0.16499 0.54278 0.0
C949 C 0.97787 0.18673 0.64067 0.0
C950 C 0.96993 0.82167 0.64253 0.0
C951 C 0.99669 0.84543 0.60689 0.0
H952 H 0.91721 0.80103 0.66435 0.0
C953 C 0.99311 0.8715 0.57795 0.0
H954 H 0.9718 0.80093 0.66434 0.0
C955 C 0.96219 0.87163 0.57822 0.0
C956 C 0.934 0.84562 0.60726 0.0
H957 H 1.01323 0.89001 0.54989 0.0
H958 H 0.95925 0.89012 0.55009 0.0
C959 C 0.93867 0.82175 0.64264 0.0
C960 C 0.83985 0.56149 0.82164 0.0
C961 C 0.8681 0.58763 0.79293 0.0
H962 H 0.789 0.54335 0.85076 0.0
C963 C 0.86367 0.61191 0.75856 0.0
H964 H 0.8426 0.5426 0.84878 0.0
C965 C 0.83261 0.61231 0.75961 0.0
C966 C 0.80588 0.58846 0.79517 0.0
H967 H 0.88518 0.63267 0.737 0.0
H968 H 0.8309 0.63331 0.73861 0.0
C969 C 0.80915 0.56197 0.82291 0.0
C970 C 0.51221 0.28613 0.75427 0.0
C971 C 0.53974 0.31571 0.78689 0.0
H972 H 0.48769 0.23101 0.73687 0.0
C973 C 0.56781 0.31348 0.81323 0.0
H974 H 0.48988 0.28686 0.73486 0.0
C975 C 0.56643 0.2816 0.81492 0.0
C976 C 0.53711 0.25129 0.78967 0.0
H977 H 0.5892 0.33574 0.83925 0.0
H978 H 0.5868 0.28019 0.84202 0.0
C979 C 0.51092 0.25405 0.75558 0.0
C980 C 0.82441 0.24779 0.76044 0.0
C981 C 0.79693 0.24407 0.79599 0.0
H982 H 0.87672 0.28166 0.73869 0.0
C983 C 0.7986 0.27373 0.82492 0.0
H984 H 0.82408 0.22525 0.73885 0.0
C985 C 0.82843 0.30581 0.8245 0.0
C986 C 0.85745 0.309 0.79559 0.0
H987 H 0.77796 0.27157 0.8531 0.0
H988 H 0.82999 0.32752 0.85254 0.0
C989 C 0.85457 0.28014 0.76025 0.0
C990 C 0.90451 0.48875 0.9191 0.0
C991 C 0.93344 0.51841 0.94767 0.0
H992 H 0.88116 0.43473 0.89309 0.0
C993 C 0.95809 0.51454 0.98492 0.0
H994 H 0.88532 0.49104 0.88964 0.0
C995 C 0.95574 0.48197 0.98681 0.0
C996 C 0.92871 0.45306 0.95149 0.0
H997 H 0.98099 0.5371 1.00634 0.0
H998 H 0.97698 0.48029 1.00941 0.0
C999 C 0.90211 0.45645 0.92119 0.0
C1000 C 0.6161 0.48611 0.98118 0.0
C1001 C 0.61177 0.45675 0.94532 0.0
H1002 H 0.648 0.54102 1.00128 0.0
C1003 C 0.63966 0.45901 0.91345 0.0
H1004 H 0.59475 0.48527 1.00493 0.0
C1005 C 0.66975 0.49068 0.91088 0.0
C1006 C 0.6728 0.52084 0.94054 0.0
H1007 H 0.63692 0.4369 0.8849 0.0
H1008 H 0.68945 0.49211 0.88071 0.0
C1009 C 0.64656 0.51805 0.9789 0.0
C1010 C 0.63749 0.15358 0.97465 0.0
C1011 C 0.66419 0.17665 0.93803 0.0
H1012 H 0.58524 0.13454 0.99872 0.0
C1013 C 0.66108 0.20291 0.90873 0.0
H1014 H 0.63899 0.13269 0.99668 0.0
C1015 C 0.63066 0.20396 0.9099 0.0
C1016 C 0.60255 0.1788 0.94046 0.0
H1017 H 0.68115 0.22089 0.87992 0.0
H1018 H 0.62808 0.2227 0.88192 0.0
C1019 C 0.60675 0.15465 0.97584 0.0
C1020 C 0.50287 0.89631 0.16555 0.0
C1021 C 0.53152 0.92094 0.13531 0.0
H1022 H 0.45232 0.88059 0.19385 0.0
C1023 C 0.52799 0.9448 0.09779 0.0
H1024 H 0.50488 0.8777 0.19497 0.0
C1025 C 0.4975 0.94638 0.097 0.0
C1026 C 0.47039 0.92416 0.13377 0.0
H1027 H 0.54982 0.96442 0.07486 0.0
H1028 H 0.49657 0.96712 0.07332 0.0
C1029 C 0.47274 0.89797 0.16496 0.0
C1030 C 0.23575 0.64706 0.15085 0.0
C1031 C 0.20801 0.64953 0.12334 0.0
H1032 H 0.25422 0.61353 0.18075 0.0
C1033 C 0.18066 0.62004 0.09007 0.0
H1034 H 0.25707 0.66926 0.17719 0.0
C1035 C 0.17917 0.58789 0.09171 0.0
C1036 C 0.20496 0.58493 0.12679 0.0
H1037 H 0.15862 0.62087 0.0696 0.0
H1038 H 0.15606 0.56493 0.07223 0.0
C1039 C 0.23414 0.61511 0.15293 0.0
C1040 C 0.51704 0.61881 0.09234 0.0
C1041 C 0.52341 0.64667 0.13562 0.0
H1042 H 0.48438 0.56453 0.06622 0.0
C1043 C 0.49801 0.64251 0.17728 0.0
H1044 H 0.53645 0.62116 0.06046 0.0
C1045 C 0.46861 0.6104 0.18076 0.0
C1046 C 0.46378 0.58151 0.14274 0.0
H1047 H 0.50225 0.66347 0.21127 0.0
H1048 H 0.45092 0.60756 0.21717 0.0
C1049 C 0.48728 0.58635 0.0958 0.0
C1050 C 0.56924 0.79152 0.26404 0.0
C1051 C 0.59787 0.78905 0.28612 0.0
H1052 H 0.54969 0.82511 0.24129 0.0
C1053 C 0.6258 0.81819 0.31898 0.0
H1054 H 0.54732 0.76953 0.23853 0.0
C1055 C 0.62706 0.85031 0.32086 0.0
C1056 C 0.6003 0.85343 0.29024 0.0
H1057 H 0.64823 0.81714 0.33626 0.0
H1058 H 0.65054 0.87319 0.3393 0.0
C1059 C 0.57055 0.82339 0.26563 0.0
C1060 C 0.31162 0.85457 0.3132 0.0
C1061 C 0.33833 0.85833 0.27524 0.0
H1062 H 0.26015 0.82027 0.33913 0.0
C1063 C 0.33675 0.8286 0.24681 0.0
H1064 H 0.31203 0.87713 0.33494 0.0
C1065 C 0.30751 0.7963 0.24983 0.0
C1066 C 0.27903 0.79295 0.28101 0.0
H1067 H 0.35691 0.83075 0.21716 0.0
H1068 H 0.3058 0.77446 0.222 0.0
C1069 C 0.282 0.82198 0.3159 0.0
C1070 C 0.30441 0.48732 0.31601 0.0
C1071 C 0.3319 0.51157 0.28245 0.0
H1072 H 0.25142 0.46703 0.33586 0.0
C1073 C 0.32922 0.53847 0.25493 0.0
H1074 H 0.30557 0.46591 0.33645 0.0
C1075 C 0.29852 0.53903 0.25439 0.0
C1076 C 0.26976 0.5128 0.2816 0.0
H1077 H 0.34989 0.55731 0.22834 0.0
H1078 H 0.29632 0.5583 0.22746 0.0
C1079 C 0.27342 0.48795 0.31561 0.0
C1080 C 1.03418 0.30663 0.04529 0.0
C1081 C 1.05585 0.30803 0.09798 0.0
H1082 H 1.02818 0.31092 0.94303 0.0
C1083 C 0.08974 0.31686 0.08637 0.0
H1084 H 1.00818 0.30066 0.05246 0.0
C1085 C 0.10124 0.32287 1.02366 0.0
C1086 C 0.07919 0.32014 0.97059 0.0
H1087 H 0.10711 0.31778 0.12532 0.0
H1088 H 0.12705 0.32824 1.01644 0.0
C1089 C 1.04568 0.31257 0.98247 0.0
C1090 C 0.79475 0.7997 0.07276 0.0
C1091 C 0.82048 0.79196 0.09153 0.0
H1092 H 0.77086 0.81328 0.99619 0.0
C1093 C 0.84162 0.79123 0.04406 0.0
H1094 H 0.77756 0.7999 0.1076 0.0
C1095 C 0.83774 0.79888 0.98011 0.0
C1096 C 0.81261 0.8075 0.96173 0.0
H1097 H 0.86204 0.78591 0.05672 0.0
H1098 H 0.85524 0.79911 0.94555 0.0
C1099 C 0.79091 0.80741 1.00879 0.0
C1100 C 0.28398 1.02769 0.07749 0.0
C1101 C 0.31068 0.06049 0.10092 0.0
H1102 H 0.25935 0.99157 0.99547 0.0
C1103 C 0.33489 0.08127 0.05778 0.0
H1104 H 0.26459 1.01113 0.10893 0.0
C1105 C 0.33174 0.07005 0.99246 0.0
C1106 C 0.30442 1.03771 0.96872 0.0
H1107 H 0.35618 0.10636 0.07435 0.0
H1108 H 0.35056 0.08686 0.96033 0.0
C1109 C 0.28095 1.01642 1.0123 0.0
C1110 C 0.09625 0.82463 1.02716 0.0
C1111 C 0.07548 0.80436 0.97222 0.0
H1112 H 0.10101 0.83413 0.13037 0.0
C1113 C 1.04302 0.77598 0.98174 0.0
H1114 H 0.12113 0.84699 1.02192 0.0
C1115 C 1.03137 0.76866 0.04428 0.0
C1116 C 1.05191 0.78943 0.099 0.0
H1117 H 1.02654 0.75938 0.94079 0.0
H1118 H 1.00624 0.7467 0.04978 0.0
C1119 C 0.08466 0.81725 0.08958 0.0
C1120 C 0.29254 0.30489 0.10003 0.0
C1121 C 0.31468 0.29215 0.11633 0.0
H1122 H 0.27011 0.32078 1.02485 0.0
C1123 C 0.3334 0.28817 0.06733 0.0
H1124 H 0.27744 0.30798 0.13625 0.0
C1125 C 0.32916 0.2955 1.00337 0.0
C1126 C 0.30608 0.30701 0.9866 0.0
H1127 H 0.35125 0.27916 0.0783 0.0
H1128 H 0.34383 0.29187 0.96686 0.0
C1129 C 0.28833 0.31226 1.03602 0.0
C1130 C 0.83073 0.07373 0.04659 0.0
C1131 C 0.83317 0.05495 0.09782 0.0
H1132 H 0.82831 0.07789 0.94365 0.0
C1133 C 0.83398 1.02446 0.08267 0.0
H1134 H 0.82946 0.09698 0.05638 0.0
C1135 C 0.83314 1.01345 1.01812 0.0
C1136 C 0.83167 1.03274 0.96706 0.0
H1137 H 0.83642 1.00962 0.12078 0.0
H1138 H 0.83478 0.99041 1.00829 0.0
C1139 C 0.83006 0.06278 0.98199 0.0
C1140 C 0.77096 0.66411 0.35823 0.0
C1141 C 0.75273 0.64094 0.30442 0.0
H1142 H 0.77372 0.67514 0.46095 0.0
C1143 C 0.72236 0.61025 0.31472 0.0
H1144 H 0.79421 0.68817 0.35201 0.0
C1145 C 0.71063 0.60279 0.37697 0.0
C1146 C 0.72892 0.62575 0.43091 0.0
H1147 H 0.70797 0.59146 0.27478 0.0
H1148 H 0.6876 0.5785 0.38301 0.0
C1149 C 0.7592 0.65662 0.4207 0.0
C1150 C 0.48806 0.10343 0.38234 0.0
C1151 C 0.48295 0.12034 0.43568 0.0
H1152 H 0.4902 0.0994 0.27914 0.0
C1153 C 0.47454 0.14612 0.42384 0.0
H1154 H 0.49405 0.08309 0.38963 0.0
C1155 C 0.47259 0.15567 0.36064 0.0
C1156 C 0.4789 0.13965 0.30742 0.0
H1157 H 0.47088 0.16002 0.46375 0.0
H1158 H 0.46749 0.17663 0.3539 0.0
C1159 C 0.48596 0.11288 0.31901 0.0
C1160 C 0.95913 0.34625 0.35895 0.0
C1161 C 0.97781 0.3697 0.31283 0.0
H1162 H 0.94677 0.33891 0.45809 0.0
C1163 C 1.00168 0.40398 0.33429 0.0
H1164 H 0.94032 0.31976 0.34403 0.0
C1165 C 1.00542 0.41499 0.39982 0.0
C1166 C 0.98536 0.39198 0.44542 0.0
H1167 H 1.01697 0.42251 0.30016 0.0
H1168 H 1.02358 0.44171 0.41457 0.0
C1169 C 0.96284 0.35727 0.42446 0.0
C1170 C 0.7087 0.10542 0.31185 0.0
C1171 C 0.74132 0.1334 0.30185 0.0
H1172 H 0.67176 0.07716 0.38032 0.0
C1173 C 0.76222 0.15395 0.35647 0.0
H1174 H 0.69208 0.0886 0.27126 0.0
C1175 C 0.75064 0.14717 0.419 0.0
C1176 C 0.71776 0.11971 0.42885 0.0
H1177 H 0.78722 0.17607 0.35088 0.0
H1178 H 0.76713 0.1642 0.4595 0.0
C1179 C 0.69704 0.09876 0.37447 0.0
C1180 C 1.00039 0.626 0.32143 0.0
C1181 C 0.98007 0.64094 0.30649 0.0
H1182 H 1.02112 0.60764 0.39496 0.0
C1183 C 0.96614 0.6504 0.35753 0.0
H1184 H 1.01209 0.61907 0.2834 0.0
C1185 C 0.9711 0.64361 0.42161 0.0
C1186 C 0.99028 0.62735 0.43626 0.0
H1187 H 0.95019 0.66175 0.34765 0.0
H1188 H 0.95872 0.64988 0.45924 0.0
C1189 C 1.00549 0.61937 0.38543 0.0
C1190 C 0.53165 0.40051 0.33879 0.0
C1191 C 0.50005 0.37674 0.30614 0.0
H1192 H 0.55818 0.42985 0.42708 0.0
C1193 C 0.47001 0.36501 0.33951 0.0
H1194 H 0.55536 0.40961 0.31511 0.0
C1195 C 0.47165 0.37664 0.40412 0.0
C1196 C 0.50336 0.40033 0.43665 0.0
H1197 H 0.44518 0.34707 0.31554 0.0
H1198 H 0.4481 0.36725 0.42849 0.0
C1199 C 0.53328 0.41217 0.40309 0.0
C1200 C 0.42473 1.00561 0.68651 0.0
C1201 C 0.40794 0.9808 0.63428 0.0
H1202 H 0.42686 1.01842 0.78826 0.0
C1203 C 0.37901 0.9492 0.6464 0.0
H1204 H 0.44676 1.0304 0.67885 0.0
C1205 C 0.3676 0.94229 0.709 0.0
C1206 C 0.38475 0.96676 0.76157 0.0
H1207 H 0.36574 0.92919 0.60781 0.0
H1208 H 0.34595 0.9172 0.71649 0.0
C1209 C 0.41329 0.9987 0.7493 0.0
C1210 C 0.15871 0.4386 0.71755 0.0
C1211 C 0.15279 0.45497 0.77072 0.0
H1212 H 0.16074 0.43448 0.61433 0.0
C1213 C 0.14266 0.47947 0.75857 0.0
H1214 H 0.16596 0.41918 0.72508 0.0
C1215 C 0.13984 0.48838 0.6952 0.0
C1216 C 0.147 0.47299 0.64217 0.0
H1217 H 0.1383 0.49291 0.79834 0.0
H1218 H 0.13337 0.50839 0.68812 0.0
C1219 C 0.15579 0.44745 0.65408 0.0
C1220 C 0.60085 0.71233 0.72192 0.0
C1221 C 0.62974 0.74158 0.75228 0.0
H1222 H 0.57799 0.67933 0.63543 0.0
C1223 C 0.65855 0.76006 0.71627 0.0
H1224 H 0.578 0.6978 0.74772 0.0
C1225 C 0.65846 0.7495 0.65166 0.0
C1226 C 0.62962 0.72014 0.62156 0.0
H1227 H 0.68145 0.78236 0.73834 0.0
H1228 H 0.68121 0.76403 0.62556 0.0
C1229 C 0.60083 0.70171 0.65748 0.0
C1230 C 0.4082 0.44947 0.74979 0.0
C1231 C 0.38174 0.45539 0.76838 0.0
H1232 H 0.44022 0.45109 0.67445 0.0
C1233 C 0.36694 0.46741 0.72216 0.0
H1234 H 0.4199 0.43973 0.7836 0.0
C1235 C 0.37845 0.4737 0.65959 0.0
C1236 C 0.40522 0.46831 0.6413 0.0
H1237 H 0.34703 0.47297 0.73477 0.0
H1238 H 0.36697 0.48377 0.62603 0.0
C1239 C 0.41985 0.45594 0.68712 0.0
C1240 C 0.65915 0.98602 0.75983 0.0
C1241 C 0.64142 0.95189 0.77903 0.0
H1242 H 0.66928 1.01983 0.6822 0.0
C1243 C 0.61865 0.92558 0.73321 0.0
H1244 H 0.67701 1.00689 0.79386 0.0
C1245 C 0.61409 0.93298 0.66965 0.0
C1246 C 0.63227 0.96692 0.64984 0.0
H1247 H 0.60393 0.89916 0.74666 0.0
H1248 H 0.59599 0.91201 0.63607 0.0
C1249 C 0.65466 0.99345 0.69589 0.0
C1250 C 0.139 0.69358 0.67322 0.0
C1251 C 0.16919 0.70586 0.64013 0.0
H1252 H 0.11664 0.69538 0.76192 0.0
C1253 C 0.2006 0.7299 0.67316 0.0
H1254 H 0.11432 0.67542 0.64904 0.0
C1255 C 0.20183 0.74153 0.73728 0.0
C1256 C 0.17175 0.7293 0.77037 0.0
H1257 H 0.22444 0.73939 0.64981 0.0
H1258 H 0.22656 0.75961 0.76147 0.0
C1259 C 0.14029 0.70511 0.73776 0.0
loop_
_geom_bond_atom_site_label_1
_geom_bond_atom_site_label_2
_geom_bond_distance
_geom_bond_site_symmetry_2
_ccdc_geom_bond_type
Tb0 C10 2.825 . S
Tb0 O11 2.347 1_455 S
Tb0 O14 2.366 1_455 S
Tb0 O19 2.418 . S
Tb0 O20 2.384 . S
Tb0 O23 2.479 . S
Tb0 O24 2.471 . S
Eu1 O12 2.418 . S
Eu1 O13 2.384 . S
Eu1 O16 2.479 . S
Eu1 O17 2.471 1_655 S
Eu1 O18 2.347 1_655 S
Eu1 O21 2.366 1_655 S
Eu1 C31 2.825 . S
C2 O18 1.259 . S
C2 O19 1.265 . S
C3 O20 1.255 . S
C3 O21 1.265 . S
C4 C6 1.380 . S
C4 C7 1.374 1_455 S
C4 C10 1.507 . S
C5 C6 1.384 . S
C5 C9 1.387 . S
C5 H32 0.930 . S
C6 C4 1.380 . S
C6 C5 1.384 . S
C6 H33 0.931 . S
C7 C4 1.374 1_655 S
C7 C8 1.390 . S
C7 H34 0.930 . S
C8 C7 1.390 . S
C8 C9 1.391 1_655 S
C8 H35 0.930 . S
C9 C5 1.387 . S
C9 C8 1.391 1_455 S
C10 Tb0 2.825 . S
C10 C4 1.507 . S
C10 O23 1.238 . S
C10 O24 1.247 . S
O11 Tb0 2.347 1_655 S
O11 C15 1.259 . S
O12 Eu1 2.418 . S
O12 C15 1.265 . S
O13 Eu1 2.384 . S
O13 C22 1.255 . S
O14 Tb0 2.366 1_655 S
O14 C22 1.265 . S
C15 O11 1.259 . S
C15 O12 1.265 . S
O16 Eu1 2.479 . S
O16 C31 1.238 . S
O17 Eu1 2.471 1_455 S
O17 C31 1.247 1_455 S
O18 Eu1 2.347 1_455 S
O18 C2 1.259 . S
O19 Tb0 2.418 . S
O19 C2 1.265 . S
O20 Tb0 2.384 . S
O20 C3 1.255 . S
O21 Eu1 2.366 1_455 S
O21 C3 1.265 . S
C22 O13 1.255 . S
C22 O14 1.265 . S
O23 Tb0 2.479 . S
O23 C10 1.238 . S
O24 Tb0 2.471 . S
O24 C10 1.247 . S
C25 C28 1.380 . S
C25 C29 1.374 1_655 S
C25 C31 1.507 . S
C26 C27 1.387 1_455 S
C26 C30 1.391 . S
C27 C26 1.387 1_655 S
C27 C28 1.384 . S
C27 H36 0.930 . S
C28 C25 1.380 . S
C28 C27 1.384 . S
C28 H37 0.931 . S
C29 C25 1.374 1_455 S
C29 C30 1.390 . S
C29 H38 0.930 . S
C30 C26 1.391 . S
C30 C29 1.390 . S
C30 H39 0.930 . S
C31 Eu1 2.825 . S
C31 O16 1.238 . S
C31 O17 1.247 1_655 S
C31 C25 1.507 . S
H32 C5 0.930 . S
H33 C6 0.931 . S
H34 C7 0.930 . S
H35 C8 0.930 . S
H36 C27 0.930 . S
H37 C28 0.931 . S
H38 C29 0.930 . S
H39 C30 0.930 . S
Tb40 C50 2.825 . S
Tb40 O51 2.347 . S
Tb40 O54 2.366 . S
Tb40 O59 2.418 . S
Tb40 O60 2.384 . S
Tb40 O63 2.479 . S
Tb40 O64 2.471 . S
Eu41 O52 2.418 . S
Eu41 O53 2.384 . S
Eu41 O56 2.479 . S
Eu41 O57 2.471 . S
Eu41 O58 2.347 . S
Eu41 O61 2.366 . S
Eu41 C71 2.825 . S
C42 O58 1.259 . S
C42 O59 1.265 . S
C43 O60 1.255 . S
C43 O61 1.265 . S
C44 C46 1.380 . S
C44 C47 1.374 . S
C44 C50 1.507 . S
C45 C46 1.384 . S
C45 C49 1.387 . S
C45 H72 0.930 . S
C46 C44 1.380 . S
C46 C45 1.384 . S
C46 H73 0.931 . S
C47 C44 1.374 . S
C47 C48 1.390 . S
C47 H74 0.930 . S
C48 C47 1.390 . S
C48 C49 1.391 . S
C48 H75 0.930 . S
C49 C45 1.387 . S
C49 C48 1.391 . S
C50 Tb40 2.825 . S
C50 C44 1.507 . S
C50 O63 1.238 . S
C50 O64 1.247 . S
O51 Tb40 2.347 . S
O51 C55 1.259 . S
O52 Eu41 2.418 . S
O52 C55 1.265 . S
O53 Eu41 2.384 . S
O53 C62 1.255 . S
O54 Tb40 2.366 . S
O54 C62 1.265 . S
C55 O51 1.259 . S
C55 O52 1.265 . S
O56 Eu41 2.479 . S
O56 C71 1.238 . S
O57 Eu41 2.471 . S
O57 C71 1.247 . S
O58 Eu41 2.347 . S
O58 C42 1.259 . S
O59 Tb40 2.418 . S
O59 C42 1.265 . S
O60 Tb40 2.384 . S
O60 C43 1.255 . S
O61 Eu41 2.366 . S
O61 C43 1.265 . S
C62 O53 1.255 . S
C62 O54 1.265 . S
O63 Tb40 2.479 . S
O63 C50 1.238 . S
O64 Tb40 2.471 . S
O64 C50 1.247 . S
C65 C68 1.380 . S
C65 C69 1.374 . S
C65 C71 1.507 . S
C66 C67 1.387 . S
C66 C70 1.391 . S
C67 C66 1.387 . S
C67 C68 1.384 . S
C67 H76 0.930 . S
C68 C65 1.380 . S
C68 C67 1.384 . S
C68 H77 0.931 . S
C69 C65 1.374 . S
C69 C70 1.390 . S
C69 H78 0.930 . S
C70 C66 1.391 . S
C70 C69 1.390 . S
C70 H79 0.930 . S
C71 Eu41 2.825 . S
C71 O56 1.238 . S
C71 O57 1.247 . S
C71 C65 1.507 . S
H72 C45 0.930 . S
H73 C46 0.931 . S
H74 C47 0.930 . S
H75 C48 0.930 . S
H76 C67 0.930 . S
H77 C68 0.931 . S
H78 C69 0.930 . S
H79 C70 0.930 . S
Tb80 C90 2.825 . S
Tb80 O91 2.347 1_565 S
Tb80 O94 2.366 1_565 S
Tb80 O99 2.418 . S
Tb80 O100 2.384 . S
Tb80 O103 2.479 . S
Tb80 O104 2.471 1_565 S
Eu81 O92 2.418 . S
Eu81 O93 2.384 . S
Eu81 O96 2.479 . S
Eu81 O97 2.471 1_545 S
Eu81 O98 2.347 1_545 S
Eu81 O101 2.366 1_545 S
Eu81 C111 2.825 . S
C82 O98 1.259 . S
C82 O99 1.265 . S
C83 O100 1.255 . S
C83 O101 1.265 . S
C84 C86 1.380 . S
C84 C87 1.374 1_565 S
C84 C90 1.507 . S
C85 C86 1.384 . S
C85 C89 1.387 1_565 S
C85 H112 0.930 . S
C86 C84 1.380 . S
C86 C85 1.384 . S
C86 H113 0.931 . S
C87 C84 1.374 1_545 S
C87 C88 1.390 . S
C87 H114 0.930 . S
C88 C87 1.390 . S
C88 C89 1.391 . S
C88 H115 0.930 . S
C89 C85 1.387 1_545 S
C89 C88 1.391 . S
C90 Tb80 2.825 . S
C90 C84 1.507 . S
C90 O103 1.238 . S
C90 O104 1.247 1_565 S
O91 Tb80 2.347 1_545 S
O91 C95 1.259 . S
O92 Eu81 2.418 . S
O92 C95 1.265 . S
O93 Eu81 2.384 . S
O93 C102 1.255 . S
O94 Tb80 2.366 1_545 S
O94 C102 1.265 . S
C95 O91 1.259 . S
C95 O92 1.265 . S
O96 Eu81 2.479 . S
O96 C111 1.238 . S
O97 Eu81 2.471 1_565 S
O97 C111 1.247 1_565 S
O98 Eu81 2.347 1_565 S
O98 C82 1.259 . S
O99 Tb80 2.418 . S
O99 C82 1.265 . S
O100 Tb80 2.384 . S
O100 C83 1.255 . S
O101 Eu81 2.366 1_565 S
O101 C83 1.265 . S
C102 O93 1.255 . S
C102 O94 1.265 . S
O103 Tb80 2.479 . S
O103 C90 1.238 . S
O104 Tb80 2.471 1_545 S
O104 C90 1.247 1_545 S
C105 C108 1.380 . S
C105 C109 1.374 1_545 S
C105 C111 1.507 . S
C106 C107 1.387 1_565 S
C106 C110 1.391 . S
C107 C106 1.387 1_545 S
C107 C108 1.384 . S
C107 H116 0.930 . S
C108 C105 1.380 . S
C108 C107 1.384 . S
C108 H117 0.931 . S
C109 C105 1.374 1_565 S
C109 C110 1.390 . S
C109 H118 0.930 . S
C110 C106 1.391 . S
C110 C109 1.390 . S
C110 H119 0.930 . S
C111 Eu81 2.825 . S
C111 O96 1.238 . S
C111 O97 1.247 1_545 S
C111 C105 1.507 . S
H112 C85 0.930 . S
H113 C86 0.931 . S
H114 C87 0.930 . S
H115 C88 0.930 . S
H116 C107 0.930 . S
H117 C108 0.931 . S
H118 C109 0.930 . S
H119 C110 0.930 . S
Tb120 C130 2.825 . S
Tb120 O131 2.347 1_455 S
Tb120 O134 2.366 1_455 S
Tb120 O139 2.418 . S
Tb120 O140 2.384 . S
Tb120 O143 2.479 . S
Tb120 O144 2.471 . S
Eu121 O132 2.418 . S
Eu121 O133 2.384 . S
Eu121 O136 2.479 . S
Eu121 O137 2.471 1_655 S
Eu121 O138 2.347 1_655 S
Eu121 O141 2.366 1_655 S
Eu121 C151 2.825 . S
C122 O138 1.259 . S
C122 O139 1.265 . S
C123 O140 1.255 . S
C123 O141 1.265 . S
C124 C126 1.380 . S
C124 C127 1.374 1_455 S
C124 C130 1.507 . S
C125 C126 1.384 . S
C125 C129 1.387 . S
C125 H152 0.930 . S
C126 C124 1.380 . S
C126 C125 1.384 . S
C126 H153 0.931 . S
C127 C124 1.374 1_655 S
C127 C128 1.390 . S
C127 H154 0.930 . S
C128 C127 1.390 . S
C128 C129 1.391 1_655 S
C128 H155 0.930 . S
C129 C125 1.387 . S
C129 C128 1.391 1_455 S
C130 Tb120 2.825 . S
C130 C124 1.507 . S
C130 O143 1.238 . S
C130 O144 1.247 . S
O131 Tb120 2.347 1_655 S
O131 C135 1.259 . S
O132 Eu121 2.418 . S
O132 C135 1.265 . S
O133 Eu121 2.384 . S
O133 C142 1.255 . S
O134 Tb120 2.366 1_655 S
O134 C142 1.265 . S
C135 O131 1.259 . S
C135 O132 1.265 . S
O136 Eu121 2.479 . S
O136 C151 1.238 . S
O137 Eu121 2.471 1_455 S
O137 C151 1.247 1_455 S
O138 Eu121 2.347 1_455 S
O138 C122 1.259 . S
O139 Tb120 2.418 . S
O139 C122 1.265 . S
O140 Tb120 2.384 . S
O140 C123 1.255 . S
O141 Eu121 2.366 1_455 S
O141 C123 1.265 . S
C142 O133 1.255 . S
C142 O134 1.265 . S
O143 Tb120 2.479 . S
O143 C130 1.238 . S
O144 Tb120 2.471 . S
O144 C130 1.247 . S
C145 C148 1.380 . S
C145 C149 1.374 1_655 S
C145 C151 1.507 . S
C146 C147 1.387 1_455 S
C146 C150 1.391 . S
C147 C146 1.387 1_655 S
C147 C148 1.384 . S
C147 H156 0.930 . S
C148 C145 1.380 . S
C148 C147 1.384 . S
C148 H157 0.931 . S
C149 C145 1.374 1_455 S
C149 C150 1.390 . S
C149 H158 0.930 . S
C150 C146 1.391 . S
C150 C149 1.390 . S
C150 H159 0.930 . S
C151 Eu121 2.825 . S
C151 O136 1.238 . S
C151 O137 1.247 1_655 S
C151 C145 1.507 . S
H152 C125 0.930 . S
H153 C126 0.931 . S
H154 C127 0.930 . S
H155 C128 0.930 . S
H156 C147 0.930 . S
H157 C148 0.931 . S
H158 C149 0.930 . S
H159 C150 0.930 . S
Tb160 C170 2.825 . S
Tb160 O171 2.347 . S
Tb160 O174 2.366 . S
Tb160 O179 2.418 . S
Tb160 O180 2.384 . S
Tb160 O183 2.479 . S
Tb160 O184 2.471 . S
Eu161 O172 2.418 . S
Eu161 O173 2.384 . S
Eu161 O176 2.479 . S
Eu161 O177 2.471 . S
Eu161 O178 2.347 . S
Eu161 O181 2.366 . S
Eu161 C191 2.825 . S
C162 O178 1.259 . S
C162 O179 1.265 . S
C163 O180 1.255 . S
C163 O181 1.265 . S
C164 C166 1.380 . S
C164 C167 1.374 . S
C164 C170 1.507 . S
C165 C166 1.384 . S
C165 C169 1.387 . S
C165 H192 0.930 . S
C166 C164 1.380 . S
C166 C165 1.384 . S
C166 H193 0.931 . S
C167 C164 1.374 . S
C167 C168 1.390 . S
C167 H194 0.930 . S
C168 C167 1.390 . S
C168 C169 1.391 . S
C168 H195 0.930 . S
C169 C165 1.387 . S
C169 C168 1.391 . S
C170 Tb160 2.825 . S
C170 C164 1.507 . S
C170 O183 1.238 . S
C170 O184 1.247 . S
O171 Tb160 2.347 . S
O171 C175 1.259 . S
O172 Eu161 2.418 . S
O172 C175 1.265 . S
O173 Eu161 2.384 . S
O173 C182 1.255 . S
O174 Tb160 2.366 . S
O174 C182 1.265 . S
C175 O171 1.259 . S
C175 O172 1.265 . S
O176 Eu161 2.479 . S
O176 C191 1.238 . S
O177 Eu161 2.471 . S
O177 C191 1.247 . S
O178 Eu161 2.347 . S
O178 C162 1.259 . S
O179 Tb160 2.418 . S
O179 C162 1.265 . S
O180 Tb160 2.384 . S
O180 C163 1.255 . S
O181 Eu161 2.366 . S
O181 C163 1.265 . S
C182 O173 1.255 . S
C182 O174 1.265 . S
O183 Tb160 2.479 . S
O183 C170 1.238 . S
O184 Tb160 2.471 . S
O184 C170 1.247 . S
C185 C188 1.380 . S
C185 C189 1.374 . S
C185 C191 1.507 . S
C186 C187 1.387 . S
C186 C190 1.391 . S
C187 C186 1.387 . S
C187 C188 1.384 . S
C187 H196 0.930 . S
C188 C185 1.380 . S
C188 C187 1.384 . S
C188 H197 0.931 . S
C189 C185 1.374 . S
C189 C190 1.390 . S
C189 H198 0.930 . S
C190 C186 1.391 . S
C190 C189 1.390 . S
C190 H199 0.930 . S
C191 Eu161 2.825 . S
C191 O176 1.238 . S
C191 O177 1.247 . S
C191 C185 1.507 . S
H192 C165 0.930 . S
H193 C166 0.931 . S
H194 C167 0.930 . S
H195 C168 0.930 . S
H196 C187 0.930 . S
H197 C188 0.931 . S
H198 C189 0.930 . S
H199 C190 0.930 . S
Tb200 C210 2.825 . S
Tb200 O211 2.347 1_565 S
Tb200 O214 2.366 1_565 S
Tb200 O219 2.418 . S
Tb200 O220 2.384 . S
Tb200 O223 2.479 . S
Tb200 O224 2.471 1_565 S
Eu201 O212 2.418 . S
Eu201 O213 2.384 . S
Eu201 O216 2.479 . S
Eu201 O217 2.470 1_545 S
Eu201 O218 2.347 1_545 S
Eu201 O221 2.366 1_545 S
Eu201 C231 2.825 . S
C202 O218 1.259 . S
C202 O219 1.265 . S
C203 O220 1.255 . S
C203 O221 1.265 . S
C204 C206 1.380 1_545 S
C204 C207 1.374 . S
C204 C210 1.507 1_545 S
C205 C206 1.384 . S
C205 C209 1.387 1_565 S
C205 H232 0.930 . S
C206 C204 1.380 1_565 S
C206 C205 1.384 . S
C206 H233 0.931 . S
C207 C204 1.374 . S
C207 C208 1.390 . S
C207 H234 0.930 . S
C208 C207 1.390 . S
C208 C209 1.391 . S
C208 H235 0.930 . S
C209 C205 1.387 1_545 S
C209 C208 1.391 . S
C210 Tb200 2.825 . S
C210 C204 1.507 1_565 S
C210 O223 1.238 . S
C210 O224 1.247 1_565 S
O211 Tb200 2.347 1_545 S
O211 C215 1.259 . S
O212 Eu201 2.418 . S
O212 C215 1.265 . S
O213 Eu201 2.384 . S
O213 C222 1.255 . S
O214 Tb200 2.366 1_545 S
O214 C222 1.265 . S
C215 O211 1.259 . S
C215 O212 1.265 . S
O216 Eu201 2.479 . S
O216 C231 1.238 . S
O217 Eu201 2.470 1_565 S
O217 C231 1.246 1_565 S
O218 Eu201 2.347 1_565 S
O218 C202 1.259 . S
O219 Tb200 2.418 . S
O219 C202 1.265 . S
O220 Tb200 2.384 . S
O220 C203 1.255 . S
O221 Eu201 2.366 1_565 S
O221 C203 1.265 . S
C222 O213 1.255 . S
C222 O214 1.265 . S
O223 Tb200 2.479 . S
O223 C210 1.238 . S
O224 Tb200 2.471 1_545 S
O224 C210 1.247 1_545 S
C225 C228 1.380 . S
C225 C229 1.374 1_545 S
C225 C231 1.507 . S
C226 C227 1.387 1_565 S
C226 C230 1.391 . S
C227 C226 1.387 1_545 S
C227 C228 1.384 . S
C227 H236 0.930 . S
C228 C225 1.380 . S
C228 C227 1.384 . S
C228 H237 0.931 . S
C229 C225 1.374 1_565 S
C229 C230 1.390 . S
C229 H238 0.930 . S
C230 C226 1.391 . S
C230 C229 1.390 . S
C230 H239 0.930 . S
C231 Eu201 2.825 . S
C231 O216 1.238 . S
C231 O217 1.246 1_545 S
C231 C225 1.507 . S
H232 C205 0.930 . S
H233 C206 0.931 . S
H234 C207 0.930 . S
H235 C208 0.930 . S
H236 C227 0.930 . S
H237 C228 0.931 . S
H238 C229 0.930 . S
H239 C230 0.930 . S
Tb240 C250 2.825 . S
Tb240 O251 2.347 . S
Tb240 O254 2.366 . S
Tb240 O259 2.418 . S
Tb240 O260 2.384 . S
Tb240 O263 2.479 . S
Tb240 O264 2.471 . S
Eu241 O252 2.418 . S
Eu241 O253 2.384 . S
Eu241 O256 2.479 . S
Eu241 O257 2.471 . S
Eu241 O258 2.347 . S
Eu241 O261 2.366 . S
Eu241 C271 2.842 . S
C242 O258 1.259 . S
C242 O259 1.265 . S
C243 O260 1.255 . S
C243 O261 1.265 . S
C244 C246 1.380 . S
C244 C247 1.374 . S
C244 C250 1.507 . S
C245 C246 1.384 . S
C245 C249 1.387 . S
C245 H272 0.930 . S
C246 C244 1.380 . S
C246 C245 1.384 . S
C246 H273 0.931 . S
C247 C244 1.374 . S
C247 C248 1.390 . S
C247 H274 0.930 . S
C248 C247 1.390 . S
C248 C249 1.391 . S
C248 H275 0.930 . S
C249 C245 1.387 . S
C249 C248 1.391 . S
C250 Tb240 2.825 . S
C250 C244 1.507 . S
C250 O263 1.238 . S
C250 O264 1.247 . S
O251 Tb240 2.347 . S
O251 C255 1.259 . S
O252 Eu241 2.418 . S
O252 C255 1.265 . S
O253 Eu241 2.384 . S
O253 C262 1.255 . S
O254 Tb240 2.366 . S
O254 C262 1.265 . S
C255 O251 1.259 . S
C255 O252 1.265 . S
O256 Eu241 2.479 . S
O256 C271 1.246 . S
O257 Eu241 2.471 . S
O257 C271 1.255 . S
O258 Eu241 2.347 . S
O258 C242 1.259 . S
O259 Tb240 2.418 . S
O259 C242 1.265 . S
O260 Tb240 2.384 . S
O260 C243 1.255 . S
O261 Eu241 2.366 . S
O261 C243 1.265 . S
C262 O253 1.255 . S
C262 O254 1.265 . S
O263 Tb240 2.479 . S
O263 C250 1.238 . S
O264 Tb240 2.471 . S
O264 C250 1.247 . S
C265 C268 1.380 . S
C265 C269 1.374 . S
C265 C271 1.491 1_554 S
C266 C267 1.387 . S
C266 C270 1.391 . S
C267 C266 1.387 . S
C267 C268 1.384 . S
C267 H276 0.930 . S
C268 C265 1.380 . S
C268 C267 1.384 . S
C268 H277 0.931 . S
C269 C265 1.374 . S
C269 C270 1.390 . S
C269 H278 0.930 . S
C270 C266 1.391 . S
C270 C269 1.390 . S
C270 H279 0.930 . S
C271 Eu241 2.842 . S
C271 O256 1.246 . S
C271 O257 1.255 . S
C271 C265 1.491 1_556 S
H272 C245 0.930 . S
H273 C246 0.931 . S
H274 C247 0.930 . S
H275 C248 0.930 . S
H276 C267 0.930 . S
H277 C268 0.931 . S
H278 C269 0.930 . S
H279 C270 0.930 . S
Tb280 C290 2.825 . S
Tb280 O291 2.347 . S
Tb280 O294 2.366 . S
Tb280 O299 2.418 . S
Tb280 O300 2.384 . S
Tb280 O303 2.479 . S
Tb280 O304 2.471 . S
Eu281 O292 2.418 . S
Eu281 O293 2.384 . S
Eu281 O296 2.479 . S
Eu281 O297 2.471 . S
Eu281 O298 2.347 . S
Eu281 O301 2.366 . S
Eu281 C311 2.825 . S
C282 O298 1.259 . S
C282 O299 1.265 . S
C283 O300 1.255 . S
C283 O301 1.265 . S
C284 C286 1.380 . S
C284 C287 1.374 . S
C284 C290 1.507 . S
C285 C286 1.384 . S
C285 C289 1.387 . S
C285 H312 0.930 . S
C286 C284 1.380 . S
C286 C285 1.384 . S
C286 H313 0.931 . S
C287 C284 1.374 . S
C287 C288 1.390 . S
C287 H314 0.930 . S
C288 C287 1.390 . S
C288 C289 1.391 . S
C288 H315 0.930 . S
C289 C285 1.387 . S
C289 C288 1.391 . S
C290 Tb280 2.825 . S
C290 C284 1.507 . S
C290 O303 1.238 . S
C290 O304 1.247 . S
O291 Tb280 2.347 . S
O291 C295 1.259 . S
O292 Eu281 2.418 . S
O292 C295 1.265 . S
O293 Eu281 2.384 . S
O293 C302 1.255 . S
O294 Tb280 2.366 . S
O294 C302 1.265 . S
C295 O291 1.259 . S
C295 O292 1.265 . S
O296 Eu281 2.479 . S
O296 C311 1.238 . S
O297 Eu281 2.471 . S
O297 C311 1.247 . S
O298 Eu281 2.347 . S
O298 C282 1.259 . S
O299 Tb280 2.418 . S
O299 C282 1.265 . S
O300 Tb280 2.384 . S
O300 C283 1.255 . S
O301 Eu281 2.366 . S
O301 C283 1.265 . S
C302 O293 1.255 . S
C302 O294 1.265 . S
O303 Tb280 2.479 . S
O303 C290 1.238 . S
O304 Tb280 2.471 . S
O304 C290 1.247 . S
C305 C308 1.380 . S
C305 C309 1.374 . S
C305 C311 1.507 1_554 S
C306 C307 1.387 . S
C306 C310 1.391 . S
C307 C306 1.387 . S
C307 C308 1.384 . S
C307 H316 0.930 . S
C308 C305 1.380 . S
C308 C307 1.384 . S
C308 H317 0.931 . S
C309 C305 1.374 . S
C309 C310 1.390 . S
C309 H318 0.930 . S
C310 C306 1.391 . S
C310 C309 1.390 . S
C310 H319 0.930 . S
C311 Eu281 2.825 . S
C311 O296 1.238 . S
C311 O297 1.247 . S
C311 C305 1.507 1_556 S
H312 C285 0.930 . S
H313 C286 0.931 . S
H314 C287 0.930 . S
H315 C288 0.930 . S
H316 C307 0.930 . S
H317 C308 0.931 . S
H318 C309 0.930 . S
H319 C310 0.930 . S
Tb320 C330 2.825 . S
Tb320 O331 2.347 . S
Tb320 O334 2.366 . S
Tb320 O339 2.418 . S
Tb320 O340 2.384 . S
Tb320 O343 2.479 . S
Tb320 O344 2.471 . S
Eu321 O332 2.418 . S
Eu321 O333 2.384 . S
Eu321 O336 2.479 . S
Eu321 O337 2.471 . S
Eu321 O338 2.347 . S
Eu321 O341 2.366 . S
Eu321 C351 2.825 . S
C322 O338 1.259 . S
C322 O339 1.265 . S
C323 O340 1.255 . S
C323 O341 1.265 . S
C324 C326 1.380 . S
C324 C327 1.374 . S
C324 C330 1.507 . S
C325 C326 1.384 . S
C325 C329 1.387 . S
C325 H352 0.930 . S
C326 C324 1.380 . S
C326 C325 1.384 . S
C326 H353 0.931 . S
C327 C324 1.374 . S
C327 C328 1.390 . S
C327 H354 0.930 . S
C328 C327 1.390 . S
C328 C329 1.391 . S
C328 H355 0.930 . S
C329 C325 1.387 . S
C329 C328 1.391 . S
C330 Tb320 2.825 . S
C330 C324 1.507 . S
C330 O343 1.238 . S
C330 O344 1.247 . S
O331 Tb320 2.347 . S
O331 C335 1.259 . S
O332 Eu321 2.418 . S
O332 C335 1.265 . S
O333 Eu321 2.384 . S
O333 C342 1.255 . S
O334 Tb320 2.366 . S
O334 C342 1.265 . S
C335 O331 1.259 . S
C335 O332 1.265 . S
O336 Eu321 2.479 . S
O336 C351 1.238 . S
O337 Eu321 2.471 . S
O337 C351 1.247 . S
O338 Eu321 2.347 . S
O338 C322 1.259 . S
O339 Tb320 2.418 . S
O339 C322 1.265 . S
O340 Tb320 2.384 . S
O340 C323 1.255 . S
O341 Eu321 2.366 . S
O341 C323 1.265 . S
C342 O333 1.255 . S
C342 O334 1.265 . S
O343 Tb320 2.479 . S
O343 C330 1.238 . S
O344 Tb320 2.471 . S
O344 C330 1.247 . S
C345 C348 1.380 . S
C345 C349 1.374 . S
C345 C351 1.507 1_554 S
C346 C347 1.387 . S
C346 C350 1.391 . S
C347 C346 1.387 . S
C347 C348 1.384 . S
C347 H356 0.930 . S
C348 C345 1.380 . S
C348 C347 1.384 . S
C348 H357 0.931 . S
C349 C345 1.374 . S
C349 C350 1.390 . S
C349 H358 0.930 . S
C350 C346 1.391 . S
C350 C349 1.390 . S
C350 H359 0.930 . S
C351 Eu321 2.825 . S
C351 O336 1.238 . S
C351 O337 1.247 . S
C351 C345 1.507 1_556 S
H352 C325 0.930 . S
H353 C326 0.931 . S
H354 C327 0.930 . S
H355 C328 0.930 . S
H356 C347 0.930 . S
H357 C348 0.931 . S
H358 C349 0.930 . S
H359 C350 0.930 . S
Tb360 C370 2.825 1_556 S
Tb360 O371 2.347 . S
Tb360 O374 2.366 . S
Tb360 O379 2.418 . S
Tb360 O380 2.384 . S
Tb360 O383 2.479 . S
Tb360 O384 2.471 . S
Eu361 O372 2.418 . S
Eu361 O373 2.384 . S
Eu361 O376 2.479 . S
Eu361 O377 2.471 . S
Eu361 O378 2.347 . S
Eu361 O381 2.366 . S
Eu361 C391 2.825 . S
C362 O378 1.259 . S
C362 O379 1.265 . S
C363 O380 1.255 . S
C363 O381 1.265 . S
C364 C366 1.380 . S
C364 C367 1.374 . S
C364 C370 1.507 . S
C365 C366 1.384 . S
C365 C369 1.387 . S
C365 H392 0.930 . S
C366 C364 1.380 . S
C366 C365 1.384 . S
C366 H393 0.931 . S
C367 C364 1.374 . S
C367 C368 1.390 . S
C367 H394 0.930 . S
C368 C367 1.390 . S
C368 C369 1.391 . S
C368 H395 0.930 . S
C369 C365 1.387 . S
C369 C368 1.391 . S
C370 Tb360 2.825 1_554 S
C370 C364 1.507 . S
C370 O383 1.238 1_554 S
C370 O384 1.247 1_554 S
O371 Tb360 2.347 . S
O371 C375 1.259 . S
O372 Eu361 2.418 . S
O372 C375 1.265 . S
O373 Eu361 2.384 . S
O373 C382 1.255 . S
O374 Tb360 2.366 . S
O374 C382 1.265 . S
C375 O371 1.259 . S
C375 O372 1.265 . S
O376 Eu361 2.479 . S
O376 C391 1.238 . S
O377 Eu361 2.471 . S
O377 C391 1.247 . S
O378 Eu361 2.347 . S
O378 C362 1.259 . S
O379 Tb360 2.418 . S
O379 C362 1.265 . S
O380 Tb360 2.384 . S
O380 C363 1.255 . S
O381 Eu361 2.366 . S
O381 C363 1.265 . S
C382 O373 1.255 . S
C382 O374 1.265 . S
O383 Tb360 2.479 . S
O383 C370 1.238 1_556 S
O384 Tb360 2.471 . S
O384 C370 1.247 1_556 S
C385 C388 1.380 . S
C385 C389 1.374 . S
C385 C391 1.507 . S
C386 C387 1.387 . S
C386 C390 1.391 . S
C387 C386 1.387 . S
C387 C388 1.384 . S
C387 H396 0.930 . S
C388 C385 1.380 . S
C388 C387 1.384 . S
C388 H397 0.931 . S
C389 C385 1.374 . S
C389 C390 1.390 . S
C389 H398 0.930 . S
C390 C386 1.391 . S
C390 C389 1.390 . S
C390 H399 0.930 . S
C391 Eu361 2.825 . S
C391 O376 1.238 . S
C391 O377 1.247 . S
C391 C385 1.507 . S
H392 C365 0.930 . S
H393 C366 0.931 . S
H394 C367 0.930 . S
H395 C368 0.930 . S
H396 C387 0.930 . S
H397 C388 0.931 . S
H398 C389 0.930 . S
H399 C390 0.930 . S
Tb400 C410 2.825 1_556 S
Tb400 O411 2.347 . S
Tb400 O414 2.366 . S
Tb400 O419 2.418 . S
Tb400 O420 2.384 . S
Tb400 O423 2.479 1_556 S
Tb400 O424 2.471 . S
Eu401 O412 2.418 . S
Eu401 O413 2.384 . S
Eu401 O416 2.479 . S
Eu401 O417 2.471 . S
Eu401 O418 2.347 . S
Eu401 O421 2.366 . S
Eu401 C431 2.825 . S
C402 O418 1.259 . S
C402 O419 1.265 . S
C403 O420 1.255 . S
C403 O421 1.265 . S
C404 C406 1.380 . S
C404 C407 1.374 . S
C404 C410 1.507 . S
C405 C406 1.384 . S
C405 C409 1.387 . S
C405 H432 0.930 . S
C406 C404 1.380 . S
C406 C405 1.384 . S
C406 H433 0.931 . S
C407 C404 1.374 . S
C407 C408 1.390 . S
C407 H434 0.930 . S
C408 C407 1.390 . S
C408 C409 1.391 . S
C408 H435 0.930 . S
C409 C405 1.387 . S
C409 C408 1.391 . S
C410 Tb400 2.825 1_554 S
C410 C404 1.507 . S
C410 O423 1.238 . S
C410 O424 1.247 1_554 S
O411 Tb400 2.347 . S
O411 C415 1.259 . S
O412 Eu401 2.418 . S
O412 C415 1.265 . S
O413 Eu401 2.384 . S
O413 C422 1.255 . S
O414 Tb400 2.366 . S
O414 C422 1.265 . S
C415 O411 1.259 . S
C415 O412 1.265 . S
O416 Eu401 2.479 . S
O416 C431 1.238 . S
O417 Eu401 2.471 . S
O417 C431 1.247 . S
O418 Eu401 2.347 . S
O418 C402 1.259 . S
O419 Tb400 2.418 . S
O419 C402 1.265 . S
O420 Tb400 2.384 . S
O420 C403 1.255 . S
O421 Eu401 2.366 . S
O421 C403 1.265 . S
C422 O413 1.255 . S
C422 O414 1.265 . S
O423 Tb400 2.479 1_554 S
O423 C410 1.238 . S
O424 Tb400 2.471 . S
O424 C410 1.247 1_556 S
C425 C428 1.380 . S
C425 C429 1.374 . S
C425 C431 1.507 . S
C426 C427 1.387 . S
C426 C430 1.391 . S
C427 C426 1.387 . S
C427 C428 1.384 . S
C427 H436 0.930 . S
C428 C425 1.380 . S
C428 C427 1.384 . S
C428 H437 0.931 . S
C429 C425 1.374 . S
C429 C430 1.390 . S
C429 H438 0.930 . S
C430 C426 1.391 . S
C430 C429 1.390 . S
C430 H439 0.930 . S
C431 Eu401 2.825 . S
C431 O416 1.238 . S
C431 O417 1.247 . S
C431 C425 1.507 . S
H432 C405 0.930 . S
H433 C406 0.931 . S
H434 C407 0.930 . S
H435 C408 0.930 . S
H436 C427 0.930 . S
H437 C428 0.931 . S
H438 C429 0.930 . S
H439 C430 0.930 . S
Tb440 C450 2.825 1_556 S
Tb440 O451 2.347 . S
Tb440 O454 2.366 . S
Tb440 O459 2.418 . S
Tb440 O460 2.384 . S
Tb440 O463 2.479 . S
Tb440 O464 2.471 . S
Eu441 O452 2.418 . S
Eu441 O453 2.384 . S
Eu441 O456 2.479 . S
Eu441 O457 2.471 . S
Eu441 O458 2.347 . S
Eu441 O461 2.366 . S
Eu441 C471 2.825 . S
C442 O458 1.259 . S
C442 O459 1.265 . S
C443 O460 1.255 . S
C443 O461 1.265 . S
C444 C446 1.380 . S
C444 C447 1.374 . S
C444 C450 1.507 . S
C445 C446 1.384 . S
C445 C449 1.387 . S
C445 H472 0.930 . S
C446 C444 1.380 . S
C446 C445 1.384 . S
C446 H473 0.931 . S
C447 C444 1.374 . S
C447 C448 1.390 . S
C447 H474 0.930 . S
C448 C447 1.390 . S
C448 C449 1.391 . S
C448 H475 0.930 . S
C449 C445 1.387 . S
C449 C448 1.391 . S
C450 Tb440 2.825 1_554 S
C450 C444 1.507 . S
C450 O463 1.238 1_554 S
C450 O464 1.247 1_554 S
O451 Tb440 2.347 . S
O451 C455 1.259 . S
O452 Eu441 2.418 . S
O452 C455 1.265 . S
O453 Eu441 2.384 . S
O453 C462 1.255 . S
O454 Tb440 2.366 . S
O454 C462 1.265 . S
C455 O451 1.259 . S
C455 O452 1.265 . S
O456 Eu441 2.479 . S
O456 C471 1.238 . S
O457 Eu441 2.471 . S
O457 C471 1.247 . S
O458 Eu441 2.347 . S
O458 C442 1.259 . S
O459 Tb440 2.418 . S
O459 C442 1.265 . S
O460 Tb440 2.384 . S
O460 C443 1.255 . S
O461 Eu441 2.366 . S
O461 C443 1.265 . S
C462 O453 1.255 . S
C462 O454 1.265 . S
O463 Tb440 2.479 . S
O463 C450 1.238 1_556 S
O464 Tb440 2.471 . S
O464 C450 1.247 1_556 S
C465 C468 1.380 . S
C465 C469 1.374 . S
C465 C471 1.507 . S
C466 C467 1.387 . S
C466 C470 1.391 . S
C467 C466 1.387 . S
C467 C468 1.384 . S
C467 H476 0.930 . S
C468 C465 1.380 . S
C468 C467 1.384 . S
C468 H477 0.931 . S
C469 C465 1.374 . S
C469 C470 1.390 . S
C469 H478 0.930 . S
C470 C466 1.391 . S
C470 C469 1.390 . S
C470 H479 0.930 . S
C471 Eu441 2.825 . S
C471 O456 1.238 . S
C471 O457 1.247 . S
C471 C465 1.507 . S
H472 C445 0.930 . S
H473 C446 0.931 . S
H474 C447 0.930 . S
H475 C448 0.930 . S
H476 C467 0.930 . S
H477 C468 0.931 . S
H478 C469 0.930 . S
H479 C470 0.930 . S
Tb480 C490 2.825 . S
Tb480 O491 2.347 . S
Tb480 O494 2.366 . S
Tb480 O499 2.418 . S
Tb480 O500 2.384 . S
Tb480 O503 2.479 . S
Tb480 O504 2.471 . S
Eu481 O492 2.418 . S
Eu481 O493 2.384 . S
Eu481 O496 2.479 1_554 S
Eu481 O497 2.471 1_554 S
Eu481 O498 2.347 . S
Eu481 O501 2.366 . S
Eu481 C511 2.825 1_554 S
C482 O498 1.259 . S
C482 O499 1.265 . S
C483 O500 1.255 . S
C483 O501 1.265 . S
C484 C486 1.380 . S
C484 C487 1.374 . S
C484 C490 1.507 . S
C485 C486 1.384 . S
C485 C489 1.387 . S
C485 H512 0.930 . S
C486 C484 1.380 . S
C486 C485 1.384 . S
C486 H513 0.931 . S
C487 C484 1.374 . S
C487 C488 1.390 . S
C487 H514 0.930 . S
C488 C487 1.390 . S
C488 C489 1.391 . S
C488 H515 0.930 . S
C489 C485 1.387 . S
C489 C488 1.391 . S
C490 Tb480 2.825 . S
C490 C484 1.507 . S
C490 O503 1.238 . S
C490 O504 1.247 . S
O491 Tb480 2.347 . S
O491 C495 1.259 . S
O492 Eu481 2.418 . S
O492 C495 1.265 . S
O493 Eu481 2.384 . S
O493 C502 1.255 . S
O494 Tb480 2.366 . S
O494 C502 1.265 . S
C495 O491 1.259 . S
C495 O492 1.265 . S
O496 Eu481 2.479 1_556 S
O496 C511 1.238 . S
O497 Eu481 2.471 1_556 S
O497 C511 1.247 . S
O498 Eu481 2.347 . S
O498 C482 1.259 . S
O499 Tb480 2.418 . S
O499 C482 1.265 . S
O500 Tb480 2.384 . S
O500 C483 1.255 . S
O501 Eu481 2.366 . S
O501 C483 1.265 . S
C502 O493 1.255 . S
C502 O494 1.265 . S
O503 Tb480 2.479 . S
O503 C490 1.238 . S
O504 Tb480 2.471 . S
O504 C490 1.247 . S
C505 C508 1.380 . S
C505 C509 1.374 . S
C505 C511 1.507 . S
C506 C507 1.387 . S
C506 C510 1.391 . S
C507 C506 1.387 . S
C507 C508 1.384 . S
C507 H516 0.930 . S
C508 C505 1.380 . S
C508 C507 1.384 . S
C508 H517 0.931 . S
C509 C505 1.374 . S
C509 C510 1.390 . S
C509 H518 0.930 . S
C510 C506 1.391 . S
C510 C509 1.390 . S
C510 H519 0.930 . S
C511 Eu481 2.825 1_556 S
C511 O496 1.238 . S
C511 O497 1.247 . S
C511 C505 1.507 . S
H512 C485 0.930 . S
H513 C486 0.931 . S
H514 C487 0.930 . S
H515 C488 0.930 . S
H516 C507 0.930 . S
H517 C508 0.931 . S
H518 C509 0.930 . S
H519 C510 0.930 . S
Tb520 C530 2.825 1_554 S
Tb520 O531 2.347 . S
Tb520 O534 2.366 . S
Tb520 O539 2.418 . S
Tb520 O540 2.384 . S
Tb520 O543 2.479 1_554 S
Tb520 O544 2.471 1_554 S
Eu521 O532 2.418 . S
Eu521 O533 2.384 . S
Eu521 O536 2.479 . S
Eu521 O537 2.471 . S
Eu521 O538 2.347 . S
Eu521 O541 2.366 . S
Eu521 C551 2.825 . S
C522 O538 1.259 . S
C522 O539 1.265 . S
C523 O540 1.255 . S
C523 O541 1.265 . S
C524 C526 1.380 . S
C524 C527 1.374 . S
C524 C530 1.507 . S
C525 C526 1.384 . S
C525 C529 1.387 . S
C525 H552 0.930 . S
C526 C524 1.380 . S
C526 C525 1.384 . S
C526 H553 0.931 . S
C527 C524 1.374 . S
C527 C528 1.390 . S
C527 H554 0.930 . S
C528 C527 1.390 . S
C528 C529 1.391 . S
C528 H555 0.930 . S
C529 C525 1.387 . S
C529 C528 1.391 . S
C530 Tb520 2.825 1_556 S
C530 C524 1.507 . S
C530 O543 1.238 . S
C530 O544 1.247 . S
O531 Tb520 2.347 . S
O531 C535 1.259 . S
O532 Eu521 2.418 . S
O532 C535 1.265 . S
O533 Eu521 2.384 . S
O533 C542 1.255 . S
O534 Tb520 2.366 . S
O534 C542 1.265 . S
C535 O531 1.259 . S
C535 O532 1.265 . S
O536 Eu521 2.479 . S
O536 C551 1.238 . S
O537 Eu521 2.471 . S
O537 C551 1.247 . S
O538 Eu521 2.347 . S
O538 C522 1.259 . S
O539 Tb520 2.418 . S
O539 C522 1.265 . S
O540 Tb520 2.384 . S
O540 C523 1.255 . S
O541 Eu521 2.366 . S
O541 C523 1.265 . S
C542 O533 1.255 . S
C542 O534 1.265 . S
O543 Tb520 2.479 1_556 S
O543 C530 1.238 . S
O544 Tb520 2.471 1_556 S
O544 C530 1.247 . S
C545 C548 1.380 . S
C545 C549 1.374 . S
C545 C551 1.507 . S
C546 C547 1.387 . S
C546 C550 1.391 . S
C547 C546 1.387 . S
C547 C548 1.384 . S
C547 H556 0.930 . S
C548 C545 1.380 . S
C548 C547 1.384 . S
C548 H557 0.931 . S
C549 C545 1.374 . S
C549 C550 1.390 . S
C549 H558 0.930 . S
C550 C546 1.391 . S
C550 C549 1.390 . S
C550 H559 0.930 . S
C551 Eu521 2.825 . S
C551 O536 1.238 . S
C551 O537 1.247 . S
C551 C545 1.507 . S
H552 C525 0.930 . S
H553 C526 0.931 . S
H554 C527 0.930 . S
H555 C528 0.930 . S
H556 C547 0.930 . S
H557 C548 0.931 . S
H558 C549 0.930 . S
H559 C550 0.930 . S
Tb560 C570 2.825 . S
Tb560 O571 2.347 . S
Tb560 O574 2.366 . S
Tb560 O579 2.418 . S
Tb560 O580 2.384 . S
Tb560 O583 2.479 . S
Tb560 O584 2.471 . S
Eu561 O572 2.418 . S
Eu561 O573 2.384 . S
Eu561 O576 2.479 . S
Eu561 O577 2.471 . S
Eu561 O578 2.347 . S
Eu561 O581 2.366 . S
Eu561 C591 2.825 1_554 S
C562 O578 1.259 . S
C562 O579 1.265 . S
C563 O580 1.255 . S
C563 O581 1.265 . S
C564 C566 1.380 . S
C564 C567 1.374 . S
C564 C570 1.507 . S
C565 C566 1.384 . S
C565 C569 1.387 . S
C565 H592 0.930 . S
C566 C564 1.380 . S
C566 C565 1.384 . S
C566 H593 0.931 . S
C567 C564 1.374 . S
C567 C568 1.390 . S
C567 H594 0.930 . S
C568 C567 1.390 . S
C568 C569 1.391 . S
C568 H595 0.930 . S
C569 C565 1.387 . S
C569 C568 1.391 . S
C570 Tb560 2.825 . S
C570 C564 1.507 . S
C570 O583 1.238 . S
C570 O584 1.247 . S
O571 Tb560 2.347 . S
O571 C575 1.259 . S
O572 Eu561 2.418 . S
O572 C575 1.265 . S
O573 Eu561 2.384 . S
O573 C582 1.255 . S
O574 Tb560 2.366 . S
O574 C582 1.265 . S
C575 O571 1.259 . S
C575 O572 1.265 . S
O576 Eu561 2.479 . S
O576 C591 1.238 1_554 S
O577 Eu561 2.471 . S
O577 C591 1.247 1_554 S
O578 Eu561 2.347 . S
O578 C562 1.259 . S
O579 Tb560 2.418 . S
O579 C562 1.265 . S
O580 Tb560 2.384 . S
O580 C563 1.255 . S
O581 Eu561 2.366 . S
O581 C563 1.265 . S
C582 O573 1.255 . S
C582 O574 1.265 . S
O583 Tb560 2.479 . S
O583 C570 1.238 . S
O584 Tb560 2.471 . S
O584 C570 1.247 . S
C585 C588 1.380 . S
C585 C589 1.374 . S
C585 C591 1.507 . S
C586 C587 1.387 . S
C586 C590 1.391 . S
C587 C586 1.387 . S
C587 C588 1.384 . S
C587 H596 0.930 . S
C588 C585 1.380 . S
C588 C587 1.384 . S
C588 H597 0.931 . S
C589 C585 1.374 . S
C589 C590 1.390 . S
C589 H598 0.930 . S
C590 C586 1.391 . S
C590 C589 1.390 . S
C590 H599 0.930 . S
C591 Eu561 2.825 1_556 S
C591 O576 1.238 1_556 S
C591 O577 1.247 1_556 S
C591 C585 1.507 . S
H592 C565 0.930 . S
H593 C566 0.931 . S
H594 C567 0.930 . S
H595 C568 0.930 . S
H596 C587 0.930 . S
H597 C588 0.931 . S
H598 C589 0.930 . S
H599 C590 0.930 . S
Tb600 C610 2.825 . S
Tb600 O611 2.347 . S
Tb600 O614 2.366 . S
Tb600 O619 2.418 . S
Tb600 O620 2.384 . S
Tb600 O623 2.479 . S
Tb600 O624 2.471 . S
Eu601 O612 2.418 . S
Eu601 O613 2.384 . S
Eu601 O616 2.469 1_554 S
Eu601 O617 2.471 . S
Eu601 O618 2.347 . S
Eu601 O621 2.366 . S
Eu601 C631 2.825 1_554 S
C602 O618 1.259 . S
C602 O619 1.265 . S
C603 O620 1.255 . S
C603 O621 1.265 . S
C604 C606 1.380 . S
C604 C607 1.374 . S
C604 C610 1.507 . S
C605 C606 1.384 . S
C605 C609 1.387 . S
C605 H632 0.930 . S
C606 C604 1.380 . S
C606 C605 1.384 . S
C606 H633 0.931 . S
C607 C604 1.374 . S
C607 C608 1.390 . S
C607 H634 0.930 . S
C608 C607 1.390 . S
C608 C609 1.391 . S
C608 H635 0.930 . S
C609 C605 1.387 . S
C609 C608 1.391 . S
C610 Tb600 2.825 . S
C610 C604 1.507 . S
C610 O623 1.238 . S
C610 O624 1.247 . S
O611 Tb600 2.347 . S
O611 C615 1.259 . S
O612 Eu601 2.418 . S
O612 C615 1.265 . S
O613 Eu601 2.384 . S
O613 C622 1.255 . S
O614 Tb600 2.366 . S
O614 C622 1.265 . S
C615 O611 1.259 . S
C615 O612 1.265 . S
O616 Eu601 2.469 1_556 S
O616 C631 1.243 . S
O617 Eu601 2.471 . S
O617 C631 1.247 1_554 S
O618 Eu601 2.347 . S
O618 C602 1.259 . S
O619 Tb600 2.418 . S
O619 C602 1.265 . S
O620 Tb600 2.384 . S
O620 C603 1.255 . S
O621 Eu601 2.366 . S
O621 C603 1.265 . S
C622 O613 1.255 . S
C622 O614 1.265 . S
O623 Tb600 2.479 . S
O623 C610 1.238 . S
O624 Tb600 2.471 . S
O624 C610 1.247 . S
C625 C628 1.380 . S
C625 C629 1.374 . S
C625 C631 1.507 . S
C626 C627 1.387 . S
C626 C630 1.391 . S
C627 C626 1.387 . S
C627 C628 1.384 . S
C627 H636 0.930 . S
C628 C625 1.380 . S
C628 C627 1.384 . S
C628 H637 0.931 . S
C629 C625 1.374 . S
C629 C630 1.390 . S
C629 H638 0.930 . S
C630 C626 1.391 . S
C630 C629 1.390 . S
C630 H639 0.930 . S
C631 Eu601 2.825 1_556 S
C631 O616 1.243 . S
C631 O617 1.247 1_556 S
C631 C625 1.507 . S
H632 C605 0.930 . S
H633 C606 0.931 . S
H634 C607 0.930 . S
H635 C608 0.930 . S
H636 C627 0.930 . S
H637 C628 0.931 . S
H638 C629 0.930 . S
H639 C630 0.930 . S
Tb640 C650 2.825 . S
Tb640 O651 2.347 . S
Tb640 O654 2.366 . S
Tb640 O659 2.418 . S
Tb640 O660 2.384 . S
Tb640 O663 2.479 . S
Tb640 O664 2.471 . S
Eu641 O652 2.418 . S
Eu641 O653 2.384 . S
Eu641 O656 2.479 . S
Eu641 O657 2.471 . S
Eu641 O658 2.347 . S
Eu641 O661 2.366 . S
Eu641 C671 2.825 . S
C642 O658 1.259 . S
C642 O659 1.265 . S
C643 O660 1.255 . S
C643 O661 1.265 . S
C644 C646 1.380 . S
C644 C647 1.374 . S
C644 C650 1.507 1_556 S
C645 C646 1.384 . S
C645 C649 1.387 . S
C645 H672 0.930 . S
C646 C644 1.380 . S
C646 C645 1.384 . S
C646 H673 0.931 . S
C647 C644 1.374 . S
C647 C648 1.390 . S
C647 H674 0.930 . S
C648 C647 1.390 . S
C648 C649 1.391 . S
C648 H675 0.930 . S
C649 C645 1.387 . S
C649 C648 1.391 . S
C650 Tb640 2.825 . S
C650 C644 1.507 1_554 S
C650 O663 1.238 . S
C650 O664 1.247 . S
O651 Tb640 2.347 . S
O651 C655 1.259 . S
O652 Eu641 2.418 . S
O652 C655 1.265 . S
O653 Eu641 2.384 . S
O653 C662 1.255 . S
O654 Tb640 2.366 . S
O654 C662 1.265 . S
C655 O651 1.259 . S
C655 O652 1.265 . S
O656 Eu641 2.479 . S
O656 C671 1.238 . S
O657 Eu641 2.471 . S
O657 C671 1.247 . S
O658 Eu641 2.347 . S
O658 C642 1.259 . S
O659 Tb640 2.418 . S
O659 C642 1.265 . S
O660 Tb640 2.384 . S
O660 C643 1.255 . S
O661 Eu641 2.366 . S
O661 C643 1.265 . S
C662 O653 1.255 . S
C662 O654 1.265 . S
O663 Tb640 2.479 . S
O663 C650 1.238 . S
O664 Tb640 2.471 . S
O664 C650 1.247 . S
C665 C668 1.380 . S
C665 C669 1.374 . S
C665 C671 1.507 . S
C666 C667 1.387 . S
C666 C670 1.391 . S
C667 C666 1.387 . S
C667 C668 1.384 . S
C667 H676 0.930 . S
C668 C665 1.380 . S
C668 C667 1.384 . S
C668 H677 0.931 . S
C669 C665 1.374 . S
C669 C670 1.390 . S
C669 H678 0.930 . S
C670 C666 1.391 . S
C670 C669 1.390 . S
C670 H679 0.930 . S
C671 Eu641 2.825 . S
C671 O656 1.238 . S
C671 O657 1.247 . S
C671 C665 1.507 . S
H672 C645 0.930 . S
H673 C646 0.931 . S
H674 C647 0.930 . S
H675 C648 0.930 . S
H676 C667 0.930 . S
H677 C668 0.931 . S
H678 C669 0.930 . S
H679 C670 0.930 . S
Tb680 C690 2.825 . S
Tb680 O691 2.347 . S
Tb680 O694 2.366 . S
Tb680 O699 2.418 . S
Tb680 O700 2.384 . S
Tb680 O703 2.479 . S
Tb680 O704 2.471 . S
Eu681 O692 2.418 . S
Eu681 O693 2.384 . S
Eu681 O696 2.479 . S
Eu681 O697 2.471 . S
Eu681 O698 2.347 . S
Eu681 O701 2.366 . S
Eu681 C711 2.825 . S
C682 O698 1.259 . S
C682 O699 1.265 . S
C683 O700 1.255 . S
C683 O701 1.265 . S
C684 C686 1.380 . S
C684 C687 1.374 . S
C684 C690 1.507 . S
C685 C686 1.384 . S
C685 C689 1.387 . S
C685 H712 0.930 . S
C686 C684 1.380 . S
C686 C685 1.384 . S
C686 H713 0.931 . S
C687 C684 1.374 . S
C687 C688 1.390 . S
C687 H714 0.930 . S
C688 C687 1.390 . S
C688 C689 1.391 . S
C688 H715 0.930 . S
C689 C685 1.387 . S
C689 C688 1.391 . S
C690 Tb680 2.825 . S
C690 C684 1.507 . S
C690 O703 1.238 . S
C690 O704 1.247 . S
O691 Tb680 2.347 . S
O691 C695 1.259 . S
O692 Eu681 2.418 . S
O692 C695 1.265 . S
O693 Eu681 2.384 . S
O693 C702 1.255 . S
O694 Tb680 2.366 . S
O694 C702 1.265 . S
C695 O691 1.259 . S
C695 O692 1.265 . S
O696 Eu681 2.479 . S
O696 C711 1.238 . S
O697 Eu681 2.471 . S
O697 C711 1.247 . S
O698 Eu681 2.347 . S
O698 C682 1.259 . S
O699 Tb680 2.418 . S
O699 C682 1.265 . S
O700 Tb680 2.384 . S
O700 C683 1.255 . S
O701 Eu681 2.366 . S
O701 C683 1.265 . S
C702 O693 1.255 . S
C702 O694 1.265 . S
O703 Tb680 2.479 . S
O703 C690 1.238 . S
O704 Tb680 2.471 . S
O704 C690 1.247 . S
C705 C708 1.380 . S
C705 C709 1.374 . S
C705 C711 1.507 1_556 S
C706 C707 1.387 . S
C706 C710 1.391 . S
C707 C706 1.387 . S
C707 C708 1.384 . S
C707 H716 0.930 . S
C708 C705 1.380 . S
C708 C707 1.384 . S
C708 H717 0.931 . S
C709 C705 1.374 . S
C709 C710 1.390 . S
C709 H718 0.930 . S
C710 C706 1.391 . S
C710 C709 1.390 . S
C710 H719 0.930 . S
C711 Eu681 2.825 . S
C711 O696 1.238 . S
C711 O697 1.247 . S
C711 C705 1.507 1_554 S
H712 C685 0.930 . S
H713 C686 0.931 . S
H714 C687 0.930 . S
H715 C688 0.930 . S
H716 C707 0.930 . S
H717 C708 0.931 . S
H718 C709 0.930 . S
H719 C710 0.930 . S
C720 C721 1.387 . S
C720 H724 0.950 . S
C720 C729 1.390 . S
C721 C720 1.387 . S
C721 C723 1.387 . S
H722 C729 0.950 . S
C723 C721 1.387 . S
C723 C725 1.390 . S
C723 H727 0.950 . S
H724 C720 0.950 . S
C725 C723 1.390 . S
C725 C726 1.387 . S
C725 H728 0.950 . S
C726 C725 1.387 . S
C726 C729 1.387 . S
H727 C723 0.950 . S
H728 C725 0.950 . S
C729 C720 1.390 . S
C729 H722 0.950 . S
C729 C726 1.387 . S
C730 C731 1.387 . S
C730 H734 0.950 . S
C730 C739 1.390 . S
C731 C730 1.387 . S
C731 C733 1.387 . S
H732 C739 0.950 . S
C733 C731 1.387 . S
C733 C735 1.390 . S
C733 H737 0.950 . S
H734 C730 0.950 . S
C735 C733 1.390 . S
C735 C736 1.387 . S
C735 H738 0.950 . S
C736 C735 1.387 . S
C736 C739 1.387 . S
H737 C733 0.950 . S
H738 C735 0.950 . S
C739 C730 1.390 . S
C739 H732 0.950 . S
C739 C736 1.387 . S
C740 C741 1.387 . S
C740 H744 0.950 . S
C740 C749 1.390 . S
C741 C740 1.387 . S
C741 C743 1.387 . S
H742 C749 0.950 . S
C743 C741 1.387 . S
C743 C745 1.390 . S
C743 H747 0.950 . S
H744 C740 0.950 . S
C745 C743 1.390 . S
C745 C746 1.387 . S
C745 H748 0.950 . S
C746 C745 1.387 . S
C746 C749 1.387 . S
H747 C743 0.950 . S
H748 C745 0.950 . S
C749 C740 1.390 . S
C749 H742 0.950 . S
C749 C746 1.387 . S
C750 C751 1.387 . S
C750 H754 0.950 . S
C750 C759 1.390 . S
C751 C750 1.387 . S
C751 C753 1.387 . S
H752 C759 0.950 . S
C753 C751 1.387 . S
C753 C755 1.390 . S
C753 H757 0.950 . S
H754 C750 0.950 . S
C755 C753 1.390 . S
C755 C756 1.387 . S
C755 H758 0.950 . S
C756 C755 1.387 . S
C756 C759 1.387 . S
H757 C753 0.950 . S
H758 C755 0.950 . S
C759 C750 1.390 . S
C759 H752 0.950 . S
C759 C756 1.387 . S
C760 C761 1.387 . S
C760 H764 0.950 . S
C760 C769 1.390 . S
C761 C760 1.387 . S
C761 C763 1.387 . S
H762 C769 0.950 . S
C763 C761 1.387 . S
C763 C765 1.390 . S
C763 H767 0.950 . S
H764 C760 0.950 . S
C765 C763 1.390 . S
C765 C766 1.387 . S
C765 H768 0.950 . S
C766 C765 1.387 . S
C766 C769 1.387 . S
H767 C763 0.950 . S
H768 C765 0.950 . S
C769 C760 1.390 . S
C769 H762 0.950 . S
C769 C766 1.387 . S
C770 C771 1.387 . S
C770 H774 0.950 . S
C770 C779 1.390 . S
C771 C770 1.387 . S
C771 C773 1.387 . S
H772 C779 0.950 . S
C773 C771 1.387 . S
C773 C775 1.390 . S
C773 H777 0.950 . S
H774 C770 0.950 . S
C775 C773 1.390 . S
C775 C776 1.387 . S
C775 H778 0.950 . S
C776 C775 1.387 . S
C776 C779 1.387 . S
H777 C773 0.950 . S
H778 C775 0.950 . S
C779 C770 1.390 . S
C779 H772 0.950 . S
C779 C776 1.387 . S
C780 C781 1.387 . S
C780 H784 0.950 . S
C780 C789 1.390 . S
C781 C780 1.387 . S
C781 C783 1.387 . S
H782 C789 0.950 . S
C783 C781 1.387 . S
C783 C785 1.390 . S
C783 H787 0.950 . S
H784 C780 0.950 . S
C785 C783 1.390 . S
C785 C786 1.387 . S
C785 H788 0.950 . S
C786 C785 1.387 . S
C786 C789 1.387 . S
H787 C783 0.950 . S
H788 C785 0.950 . S
C789 C780 1.390 . S
C789 H782 0.950 . S
C789 C786 1.387 . S
C790 C791 1.387 . S
C790 H794 0.950 . S
C790 C799 1.390 . S
C791 C790 1.387 . S
C791 C793 1.387 . S
H792 C799 0.950 . S
C793 C791 1.387 . S
C793 C795 1.390 . S
C793 H797 0.950 . S
H794 C790 0.950 . S
C795 C793 1.390 . S
C795 C796 1.387 . S
C795 H798 0.950 . S
C796 C795 1.387 . S
C796 C799 1.387 . S
H797 C793 0.950 . S
H798 C795 0.950 . S
C799 C790 1.390 . S
C799 H792 0.950 . S
C799 C796 1.387 . S
C800 C801 1.387 . S
C800 H804 0.950 . S
C800 C809 1.390 . S
C801 C800 1.387 . S
C801 C803 1.387 . S
H802 C809 0.950 . S
C803 C801 1.387 . S
C803 C805 1.390 . S
C803 H807 0.950 . S
H804 C800 0.950 . S
C805 C803 1.390 . S
C805 C806 1.387 . S
C805 H808 0.950 . S
C806 C805 1.387 . S
C806 C809 1.387 . S
H807 C803 0.950 . S
H808 C805 0.950 . S
C809 C800 1.390 . S
C809 H802 0.950 . S
C809 C806 1.387 . S
C810 C811 1.387 . S
C810 H814 0.950 . S
C810 C819 1.390 . S
C811 C810 1.387 . S
C811 C813 1.387 . S
H812 C819 0.950 . S
C813 C811 1.387 . S
C813 C815 1.390 . S
C813 H817 0.950 . S
H814 C810 0.950 . S
C815 C813 1.390 . S
C815 C816 1.387 . S
C815 H818 0.950 . S
C816 C815 1.387 . S
C816 C819 1.387 . S
H817 C813 0.950 . S
H818 C815 0.950 . S
C819 C810 1.390 . S
C819 H812 0.950 . S
C819 C816 1.387 . S
C820 C821 1.387 . S
C820 H824 0.950 . S
C820 C829 1.390 . S
C821 C820 1.387 . S
C821 C823 1.387 . S
H822 C829 0.950 . S
C823 C821 1.387 . S
C823 C825 1.390 . S
C823 H827 0.950 . S
H824 C820 0.950 . S
C825 C823 1.390 . S
C825 C826 1.387 . S
C825 H828 0.950 . S
C826 C825 1.387 . S
C826 C829 1.387 . S
H827 C823 0.950 . S
H828 C825 0.950 . S
C829 C820 1.390 . S
C829 H822 0.950 . S
C829 C826 1.387 . S
C830 C831 1.387 . S
C830 H834 0.950 . S
C830 C839 1.390 . S
C831 C830 1.387 . S
C831 C833 1.387 . S
H832 C839 0.950 . S
C833 C831 1.387 . S
C833 C835 1.390 . S
C833 H837 0.950 . S
H834 C830 0.950 . S
C835 C833 1.390 . S
C835 C836 1.387 . S
C835 H838 0.950 . S
C836 C835 1.387 . S
C836 C839 1.387 . S
H837 C833 0.950 . S
H838 C835 0.950 . S
C839 C830 1.390 . S
C839 H832 0.950 . S
C839 C836 1.387 . S
C840 C841 1.387 . S
C840 H844 0.950 . S
C840 C849 1.390 1_556 S
C841 C840 1.387 . S
C841 C843 1.387 1_655 S
H842 C849 0.950 . S
C843 C841 1.387 1_455 S
C843 C845 1.390 1_556 S
C843 H847 0.950 . S
H844 C840 0.950 . S
C845 C843 1.390 1_554 S
C845 C846 1.387 . S
C845 H848 0.950 . S
C846 C845 1.387 . S
C846 C849 1.387 1_455 S
H847 C843 0.950 . S
H848 C845 0.950 . S
C849 C840 1.390 1_554 S
C849 H842 0.950 . S
C849 C846 1.387 1_655 S
C850 C851 1.387 . S
C850 H854 0.950 . S
C850 C859 1.390 1_556 S
C851 C850 1.387 . S
C851 C853 1.387 . S
H852 C859 0.950 . S
C853 C851 1.387 . S
C853 C855 1.390 1_556 S
C853 H857 0.950 . S
H854 C850 0.950 . S
C855 C853 1.390 1_554 S
C855 C856 1.387 . S
C855 H858 0.950 . S
C856 C855 1.387 . S
C856 C859 1.387 . S
H857 C853 0.950 . S
H858 C855 0.950 . S
C859 C850 1.390 1_554 S
C859 H852 0.950 . S
C859 C856 1.387 . S
C860 C861 1.387 1_565 S
C860 H864 0.950 . S
C860 C869 1.390 . S
C861 C860 1.387 1_545 S
C861 C863 1.387 . S
H862 C869 0.950 . S
C863 C861 1.387 . S
C863 C865 1.390 1_556 S
C863 H867 0.950 . S
H864 C860 0.950 . S
C865 C863 1.390 1_554 S
C865 C866 1.387 1_545 S
C865 H868 0.950 . S
C866 C865 1.387 1_565 S
C866 C869 1.387 1_554 S
H867 C863 0.950 . S
H868 C865 0.950 . S
C869 C860 1.390 . S
C869 H862 0.950 . S
C869 C866 1.387 1_556 S
C870 C871 1.387 . S
C870 H874 0.950 . S
C870 C879 1.390 1_546 S
C871 C870 1.387 . S
C871 C873 1.387 . S
H872 C879 0.950 . S
C873 C871 1.387 . S
C873 C875 1.390 1_546 S
C873 H877 0.950 . S
H874 C870 0.950 . S
C875 C873 1.390 1_564 S
C875 C876 1.387 . S
C875 H878 0.950 . S
C876 C875 1.387 . S
C876 C879 1.387 . S
H877 C873 0.950 . S
H878 C875 0.950 . S
C879 C870 1.390 1_564 S
C879 H872 0.950 . S
C879 C876 1.387 . S
C880 C881 1.387 1_655 S
C880 H884 0.950 . S
C880 C889 1.390 . S
C881 C880 1.387 1_455 S
C881 C883 1.387 . S
H882 C889 0.950 . S
C883 C881 1.387 . S
C883 C885 1.390 1_554 S
C883 H887 0.950 . S
H884 C880 0.950 . S
C885 C883 1.390 1_556 S
C885 C886 1.387 1_455 S
C885 H888 0.950 . S
C886 C885 1.387 1_655 S
C886 C889 1.387 1_556 S
H887 C883 0.950 . S
H888 C885 0.950 . S
C889 C880 1.390 . S
C889 H882 0.950 . S
C889 C886 1.387 1_554 S
C890 C891 1.387 . S
C890 H894 0.950 . S
C890 C899 1.390 1_554 S
C891 C890 1.387 . S
C891 C893 1.387 . S
H892 C899 0.950 . S
C893 C891 1.387 . S
C893 C895 1.390 1_554 S
C893 H897 0.950 . S
H894 C890 0.950 . S
C895 C893 1.390 1_556 S
C895 C896 1.387 . S
C895 H898 0.950 . S
C896 C895 1.387 . S
C896 C899 1.387 . S
H897 C893 0.950 . S
H898 C895 0.950 . S
C899 C890 1.390 1_556 S
C899 H892 0.950 . S
C899 C896 1.387 . S
C900 C901 1.387 . S
C900 H904 0.950 . S
C900 C909 1.390 . S
C901 C900 1.387 . S
C901 C903 1.387 . S
H902 C909 0.950 . S
C903 C901 1.387 . S
C903 C905 1.390 . S
C903 H907 0.950 . S
H904 C900 0.950 . S
C905 C903 1.390 . S
C905 C906 1.387 . S
C905 H908 0.950 . S
C906 C905 1.387 . S
C906 C909 1.387 . S
H907 C903 0.950 . S
H908 C905 0.950 . S
C909 C900 1.390 . S
C909 H902 0.950 . S
C909 C906 1.387 . S
C910 C911 1.387 . S
C910 H914 0.950 . S
C910 C919 1.390 . S
C911 C910 1.387 . S
C911 C913 1.387 . S
H912 C919 0.950 . S
C913 C911 1.387 . S
C913 C915 1.390 . S
C913 H917 0.950 . S
H914 C910 0.950 . S
C915 C913 1.390 . S
C915 C916 1.387 . S
C915 H918 0.950 . S
C916 C915 1.387 . S
C916 C919 1.387 . S
H917 C913 0.950 . S
H918 C915 0.950 . S
C919 C910 1.390 . S
C919 H912 0.950 . S
C919 C916 1.387 . S
C920 C921 1.387 . S
C920 H924 0.950 . S
C920 C929 1.390 . S
C921 C920 1.387 . S
C921 C923 1.387 . S
H922 C929 0.950 . S
C923 C921 1.387 . S
C923 C925 1.390 . S
C923 H927 0.950 . S
H924 C920 0.950 . S
C925 C923 1.390 . S
C925 C926 1.387 . S
C925 H928 0.950 . S
C926 C925 1.387 . S
C926 C929 1.387 . S
H927 C923 0.950 . S
H928 C925 0.950 . S
C929 C920 1.390 . S
C929 H922 0.950 . S
C929 C926 1.387 . S
C930 C931 1.387 . S
C930 H934 0.950 . S
C930 C939 1.390 . S
C931 C930 1.387 . S
C931 C933 1.387 . S
H932 C939 0.950 . S
C933 C931 1.387 . S
C933 C935 1.390 . S
C933 H937 0.950 . S
H934 C930 0.950 . S
C935 C933 1.390 . S
C935 C936 1.387 . S
C935 H938 0.950 . S
C936 C935 1.387 . S
C936 C939 1.387 . S
H937 C933 0.950 . S
H938 C935 0.950 . S
C939 C930 1.390 . S
C939 H932 0.950 . S
C939 C936 1.387 . S
C940 C941 1.387 . S
C940 H944 0.950 . S
C940 C949 1.390 . S
C941 C940 1.387 . S
C941 C943 1.387 . S
H942 C949 0.950 . S
C943 C941 1.387 . S
C943 C945 1.390 . S
C943 H947 0.950 . S
H944 C940 0.950 . S
C945 C943 1.390 . S
C945 C946 1.387 . S
C945 H948 0.950 . S
C946 C945 1.387 . S
C946 C949 1.387 . S
H947 C943 0.950 . S
H948 C945 0.950 . S
C949 C940 1.390 . S
C949 H942 0.950 . S
C949 C946 1.387 . S
C950 C951 1.387 . S
C950 H954 0.950 . S
C950 C959 1.390 . S
C951 C950 1.387 . S
C951 C953 1.387 . S
H952 C959 0.950 . S
C953 C951 1.387 . S
C953 C955 1.390 . S
C953 H957 0.950 . S
H954 C950 0.950 . S
C955 C953 1.390 . S
C955 C956 1.387 . S
C955 H958 0.950 . S
C956 C955 1.387 . S
C956 C959 1.387 . S
H957 C953 0.950 . S
H958 C955 0.950 . S
C959 C950 1.390 . S
C959 H952 0.950 . S
C959 C956 1.387 . S
C960 C961 1.387 . S
C960 H964 0.950 . S
C960 C969 1.390 . S
C961 C960 1.387 . S
C961 C963 1.387 . S
H962 C969 0.950 . S
C963 C961 1.387 . S
C963 C965 1.390 . S
C963 H967 0.950 . S
H964 C960 0.950 . S
C965 C963 1.390 . S
C965 C966 1.387 . S
C965 H968 0.950 . S
C966 C965 1.387 . S
C966 C969 1.387 . S
H967 C963 0.950 . S
H968 C965 0.950 . S
C969 C960 1.390 . S
C969 H962 0.950 . S
C969 C966 1.387 . S
C970 C971 1.387 . S
C970 H974 0.950 . S
C970 C979 1.390 . S
C971 C970 1.387 . S
C971 C973 1.387 . S
H972 C979 0.950 . S
C973 C971 1.387 . S
C973 C975 1.390 . S
C973 H977 0.950 . S
H974 C970 0.950 . S
C975 C973 1.390 . S
C975 C976 1.387 . S
C975 H978 0.950 . S
C976 C975 1.387 . S
C976 C979 1.387 . S
H977 C973 0.950 . S
H978 C975 0.950 . S
C979 C970 1.390 . S
C979 H972 0.950 . S
C979 C976 1.387 . S
C980 C981 1.387 . S
C980 H984 0.950 . S
C980 C989 1.390 . S
C981 C980 1.387 . S
C981 C983 1.387 . S
H982 C989 0.950 . S
C983 C981 1.387 . S
C983 C985 1.390 . S
C983 H987 0.950 . S
H984 C980 0.950 . S
C985 C983 1.390 . S
C985 C986 1.387 . S
C985 H988 0.950 . S
C986 C985 1.387 . S
C986 C989 1.387 . S
H987 C983 0.950 . S
H988 C985 0.950 . S
C989 C980 1.390 . S
C989 H982 0.950 . S
C989 C986 1.387 . S
C990 C991 1.387 . S
C990 H994 0.950 . S
C990 C999 1.390 . S
C991 C990 1.387 . S
C991 C993 1.387 . S
H992 C999 0.950 . S
C993 C991 1.387 . S
C993 C995 1.390 . S
C993 H997 0.950 . S
H994 C990 0.950 . S
C995 C993 1.390 . S
C995 C996 1.387 . S
C995 H998 0.950 . S
C996 C995 1.387 . S
C996 C999 1.387 . S
H997 C993 0.950 . S
H998 C995 0.950 . S
C999 C990 1.390 . S
C999 H992 0.950 . S
C999 C996 1.387 . S
C1000 C1001 1.387 . S
C1000 H1004 0.950 . S
C1000 C1009 1.390 . S
C1001 C1000 1.387 . S
C1001 C1003 1.387 . S
H1002 C1009 0.950 . S
C1003 C1001 1.387 . S
C1003 C1005 1.390 . S
C1003 H1007 0.950 . S
H1004 C1000 0.950 . S
C1005 C1003 1.390 . S
C1005 C1006 1.387 . S
C1005 H1008 0.950 . S
C1006 C1005 1.387 . S
C1006 C1009 1.387 . S
H1007 C1003 0.950 . S
H1008 C1005 0.950 . S
C1009 C1000 1.390 . S
C1009 H1002 0.950 . S
C1009 C1006 1.387 . S
C1010 C1011 1.387 . S
C1010 H1014 0.950 . S
C1010 C1019 1.390 . S
C1011 C1010 1.387 . S
C1011 C1013 1.387 . S
H1012 C1019 0.950 . S
C1013 C1011 1.387 . S
C1013 C1015 1.390 . S
C1013 H1017 0.950 . S
H1014 C1010 0.950 . S
C1015 C1013 1.390 . S
C1015 C1016 1.387 . S
C1015 H1018 0.950 . S
C1016 C1015 1.387 . S
C1016 C1019 1.387 . S
H1017 C1013 0.950 . S
H1018 C1015 0.950 . S
C1019 C1010 1.390 . S
C1019 H1012 0.950 . S
C1019 C1016 1.387 . S
C1020 C1021 1.387 . S
C1020 H1024 0.950 . S
C1020 C1029 1.390 . S
C1021 C1020 1.387 . S
C1021 C1023 1.387 . S
H1022 C1029 0.950 . S
C1023 C1021 1.387 . S
C1023 C1025 1.390 . S
C1023 H1027 0.950 . S
H1024 C1020 0.950 . S
C1025 C1023 1.390 . S
C1025 C1026 1.387 . S
C1025 H1028 0.950 . S
C1026 C1025 1.387 . S
C1026 C1029 1.387 . S
H1027 C1023 0.950 . S
H1028 C1025 0.950 . S
C1029 C1020 1.390 . S
C1029 H1022 0.950 . S
C1029 C1026 1.387 . S
C1030 C1031 1.387 . S
C1030 H1034 0.950 . S
C1030 C1039 1.390 . S
C1031 C1030 1.387 . S
C1031 C1033 1.387 . S
H1032 C1039 0.950 . S
C1033 C1031 1.387 . S
C1033 C1035 1.390 . S
C1033 H1037 0.950 . S
H1034 C1030 0.950 . S
C1035 C1033 1.390 . S
C1035 C1036 1.387 . S
C1035 H1038 0.950 . S
C1036 C1035 1.387 . S
C1036 C1039 1.387 . S
H1037 C1033 0.950 . S
H1038 C1035 0.950 . S
C1039 C1030 1.390 . S
C1039 H1032 0.950 . S
C1039 C1036 1.387 . S
C1040 C1041 1.387 . S
C1040 H1044 0.950 . S
C1040 C1049 1.390 . S
C1041 C1040 1.387 . S
C1041 C1043 1.387 . S
H1042 C1049 0.950 . S
C1043 C1041 1.387 . S
C1043 C1045 1.390 . S
C1043 H1047 0.950 . S
H1044 C1040 0.950 . S
C1045 C1043 1.390 . S
C1045 C1046 1.387 . S
C1045 H1048 0.950 . S
C1046 C1045 1.387 . S
C1046 C1049 1.387 . S
H1047 C1043 0.950 . S
H1048 C1045 0.950 . S
C1049 C1040 1.390 . S
C1049 H1042 0.950 . S
C1049 C1046 1.387 . S
C1050 C1051 1.387 . S
C1050 H1054 0.950 . S
C1050 C1059 1.390 . S
C1051 C1050 1.387 . S
C1051 C1053 1.387 . S
H1052 C1059 0.950 . S
C1053 C1051 1.387 . S
C1053 C1055 1.390 . S
C1053 H1057 0.950 . S
H1054 C1050 0.950 . S
C1055 C1053 1.390 . S
C1055 C1056 1.387 . S
C1055 H1058 0.950 . S
C1056 C1055 1.387 . S
C1056 C1059 1.387 . S
H1057 C1053 0.950 . S
H1058 C1055 0.950 . S
C1059 C1050 1.390 . S
C1059 H1052 0.950 . S
C1059 C1056 1.387 . S
C1060 C1061 1.387 . S
C1060 H1064 0.950 . S
C1060 C1069 1.390 . S
C1061 C1060 1.387 . S
C1061 C1063 1.387 . S
H1062 C1069 0.950 . S
C1063 C1061 1.387 . S
C1063 C1065 1.390 . S
C1063 H1067 0.950 . S
H1064 C1060 0.950 . S
C1065 C1063 1.390 . S
C1065 C1066 1.387 . S
C1065 H1068 0.950 . S
C1066 C1065 1.387 . S
C1066 C1069 1.387 . S
H1067 C1063 0.950 . S
H1068 C1065 0.950 . S
C1069 C1060 1.390 . S
C1069 H1062 0.950 . S
C1069 C1066 1.387 . S
C1070 C1071 1.387 . S
C1070 H1074 0.950 . S
C1070 C1079 1.390 . S
C1071 C1070 1.387 . S
C1071 C1073 1.387 . S
H1072 C1079 0.950 . S
C1073 C1071 1.387 . S
C1073 C1075 1.390 . S
C1073 H1077 0.950 . S
H1074 C1070 0.950 . S
C1075 C1073 1.390 . S
C1075 C1076 1.387 . S
C1075 H1078 0.950 . S
C1076 C1075 1.387 . S
C1076 C1079 1.387 . S
H1077 C1073 0.950 . S
H1078 C1075 0.950 . S
C1079 C1070 1.390 . S
C1079 H1072 0.950 . S
C1079 C1076 1.387 . S
C1080 C1081 1.387 1_655 S
C1080 H1084 0.950 . S
C1080 C1089 1.390 1_554 S
C1081 C1080 1.387 1_455 S
C1081 C1083 1.387 . S
H1082 C1089 0.950 . S
C1083 C1081 1.387 . S
C1083 C1085 1.390 . S
C1083 H1087 0.950 . S
H1084 C1080 0.950 . S
C1085 C1083 1.390 . S
C1085 C1086 1.387 1_554 S
C1085 H1088 0.950 . S
C1086 C1085 1.387 1_556 S
C1086 C1089 1.387 1_455 S
H1087 C1083 0.950 . S
H1088 C1085 0.950 . S
C1089 C1080 1.390 1_556 S
C1089 H1082 0.950 . S
C1089 C1086 1.387 1_655 S
C1090 C1091 1.387 . S
C1090 H1094 0.950 . S
C1090 C1099 1.390 1_554 S
C1091 C1090 1.387 . S
C1091 C1093 1.387 . S
H1092 C1099 0.950 . S
C1093 C1091 1.387 . S
C1093 C1095 1.390 1_554 S
C1093 H1097 0.950 . S
H1094 C1090 0.950 . S
C1095 C1093 1.390 1_556 S
C1095 C1096 1.387 . S
C1095 H1098 0.950 . S
C1096 C1095 1.387 . S
C1096 C1099 1.387 . S
H1097 C1093 0.950 . S
H1098 C1095 0.950 . S
C1099 C1090 1.390 1_556 S
C1099 H1092 0.950 . S
C1099 C1096 1.387 . S
C1100 C1101 1.387 . S
C1100 H1104 0.950 . S
C1100 C1109 1.390 1_564 S
C1101 C1100 1.387 . S
C1101 C1103 1.387 . S
H1102 C1109 0.950 . S
C1103 C1101 1.387 . S
C1103 C1105 1.390 1_564 S
C1103 H1107 0.950 . S
H1104 C1100 0.950 . S
C1105 C1103 1.390 1_546 S
C1105 C1106 1.387 . S
C1105 H1108 0.950 . S
C1106 C1105 1.387 . S
C1106 C1109 1.387 . S
H1107 C1103 0.950 . S
H1108 C1105 0.950 . S
C1109 C1100 1.390 1_546 S
C1109 H1102 0.950 . S
C1109 C1106 1.387 . S
C1110 C1111 1.387 1_554 S
C1110 H1114 0.950 1_554 S
C1110 C1119 1.390 . S
C1111 C1110 1.387 1_556 S
C1111 C1113 1.387 1_456 S
H1112 C1119 0.950 . S
C1113 C1111 1.387 1_654 S
C1113 C1115 1.390 . S
C1113 H1117 0.950 1_554 S
H1114 C1110 0.950 1_556 S
C1115 C1113 1.390 . S
C1115 C1116 1.387 1_655 S
C1115 H1118 0.950 . S
C1116 C1115 1.387 1_455 S
C1116 C1119 1.387 . S
H1117 C1113 0.950 1_556 S
H1118 C1115 0.950 . S
C1119 C1110 1.390 . S
C1119 H1112 0.950 . S
C1119 C1116 1.387 . S
C1120 C1121 1.387 . S
C1120 H1124 0.950 . S
C1120 C1129 1.390 . S
C1121 C1120 1.387 . S
C1121 C1123 1.387 . S
H1122 C1129 0.950 1_556 S
C1123 C1121 1.387 . S
C1123 C1125 1.390 . S
C1123 H1127 0.950 . S
H1124 C1120 0.950 . S
C1125 C1123 1.390 . S
C1125 C1126 1.387 1_554 S
C1125 H1128 0.950 1_554 S
C1126 C1125 1.387 1_556 S
C1126 C1129 1.387 1_556 S
H1127 C1123 0.950 . S
H1128 C1125 0.950 1_556 S
C1129 C1120 1.390 . S
C1129 H1122 0.950 1_554 S
C1129 C1126 1.387 1_554 S
C1130 C1131 1.387 1_545 S
C1130 H1134 0.950 . S
C1130 C1139 1.390 . S
C1131 C1130 1.387 1_565 S
C1131 C1133 1.387 . S
H1132 C1139 0.950 . S
C1133 C1131 1.387 . S
C1133 C1135 1.390 1_554 S
C1133 H1137 0.950 . S
H1134 C1130 0.950 . S
C1135 C1133 1.390 1_556 S
C1135 C1136 1.387 1_565 S
C1135 H1138 0.950 . S
C1136 C1135 1.387 1_545 S
C1136 C1139 1.387 1_556 S
H1137 C1133 0.950 . S
H1138 C1135 0.950 . S
C1139 C1130 1.390 . S
C1139 H1132 0.950 . S
C1139 C1136 1.387 1_554 S
C1140 C1141 1.387 . S
C1140 H1144 0.950 . S
C1140 C1149 1.390 . S
C1141 C1140 1.387 . S
C1141 C1143 1.387 . S
H1142 C1149 0.950 . S
C1143 C1141 1.387 . S
C1143 C1145 1.390 . S
C1143 H1147 0.950 . S
H1144 C1140 0.950 . S
C1145 C1143 1.390 . S
C1145 C1146 1.387 . S
C1145 H1148 0.950 . S
C1146 C1145 1.387 . S
C1146 C1149 1.387 . S
H1147 C1143 0.950 . S
H1148 C1145 0.950 . S
C1149 C1140 1.390 . S
C1149 H1142 0.950 . S
C1149 C1146 1.387 . S
C1150 C1151 1.387 . S
C1150 H1154 0.950 . S
C1150 C1159 1.390 . S
C1151 C1150 1.387 . S
C1151 C1153 1.387 . S
H1152 C1159 0.950 . S
C1153 C1151 1.387 . S
C1153 C1155 1.390 . S
C1153 H1157 0.950 . S
H1154 C1150 0.950 . S
C1155 C1153 1.390 . S
C1155 C1156 1.387 . S
C1155 H1158 0.950 . S
C1156 C1155 1.387 . S
C1156 C1159 1.387 . S
H1157 C1153 0.950 . S
H1158 C1155 0.950 . S
C1159 C1150 1.390 . S
C1159 H1152 0.950 . S
C1159 C1156 1.387 . S
C1160 C1161 1.387 . S
C1160 H1164 0.950 . S
C1160 C1169 1.390 . S
C1161 C1160 1.387 . S
C1161 C1163 1.387 . S
H1162 C1169 0.950 . S
C1163 C1161 1.387 . S
C1163 C1165 1.390 . S
C1163 H1167 0.950 . S
H1164 C1160 0.950 . S
C1165 C1163 1.390 . S
C1165 C1166 1.387 . S
C1165 H1168 0.950 . S
C1166 C1165 1.387 . S
C1166 C1169 1.387 . S
H1167 C1163 0.950 . S
H1168 C1165 0.950 . S
C1169 C1160 1.390 . S
C1169 H1162 0.950 . S
C1169 C1166 1.387 . S
C1170 C1171 1.387 . S
C1170 H1174 0.950 . S
C1170 C1179 1.390 . S
C1171 C1170 1.387 . S
C1171 C1173 1.387 . S
H1172 C1179 0.950 . S
C1173 C1171 1.387 . S
C1173 C1175 1.390 . S
C1173 H1177 0.950 . S
H1174 C1170 0.950 . S
C1175 C1173 1.390 . S
C1175 C1176 1.387 . S
C1175 H1178 0.950 . S
C1176 C1175 1.387 . S
C1176 C1179 1.387 . S
H1177 C1173 0.950 . S
H1178 C1175 0.950 . S
C1179 C1170 1.390 . S
C1179 H1172 0.950 . S
C1179 C1176 1.387 . S
C1180 C1181 1.387 . S
C1180 H1184 0.950 . S
C1180 C1189 1.390 . S
C1181 C1180 1.387 . S
C1181 C1183 1.387 . S
H1182 C1189 0.950 . S
C1183 C1181 1.387 . S
C1183 C1185 1.390 . S
C1183 H1187 0.950 . S
H1184 C1180 0.950 . S
C1185 C1183 1.390 . S
C1185 C1186 1.387 . S
C1185 H1188 0.950 . S
C1186 C1185 1.387 . S
C1186 C1189 1.387 . S
H1187 C1183 0.950 . S
H1188 C1185 0.950 . S
C1189 C1180 1.390 . S
C1189 H1182 0.950 . S
C1189 C1186 1.387 . S
C1190 C1191 1.387 . S
C1190 H1194 0.950 . S
C1190 C1199 1.390 . S
C1191 C1190 1.387 . S
C1191 C1193 1.387 . S
H1192 C1199 0.950 . S
C1193 C1191 1.387 . S
C1193 C1195 1.390 . S
C1193 H1197 0.950 . S
H1194 C1190 0.950 . S
C1195 C1193 1.390 . S
C1195 C1196 1.387 . S
C1195 H1198 0.950 . S
C1196 C1195 1.387 . S
C1196 C1199 1.387 . S
H1197 C1193 0.950 . S
H1198 C1195 0.950 . S
C1199 C1190 1.390 . S
C1199 H1192 0.950 . S
C1199 C1196 1.387 . S
C1200 C1201 1.387 . S
C1200 H1204 0.950 . S
C1200 C1209 1.390 . S
C1201 C1200 1.387 . S
C1201 C1203 1.387 . S
H1202 C1209 0.950 . S
C1203 C1201 1.387 . S
C1203 C1205 1.390 . S
C1203 H1207 0.950 . S
H1204 C1200 0.950 . S
C1205 C1203 1.390 . S
C1205 C1206 1.387 . S
C1205 H1208 0.950 . S
C1206 C1205 1.387 . S
C1206 C1209 1.387 . S
H1207 C1203 0.950 . S
H1208 C1205 0.950 . S
C1209 C1200 1.390 . S
C1209 H1202 0.950 . S
C1209 C1206 1.387 . S
C1210 C1211 1.387 . S
C1210 H1214 0.950 . S
C1210 C1219 1.390 . S
C1211 C1210 1.387 . S
C1211 C1213 1.387 . S
H1212 C1219 0.950 . S
C1213 C1211 1.387 . S
C1213 C1215 1.390 . S
C1213 H1217 0.950 . S
H1214 C1210 0.950 . S
C1215 C1213 1.390 . S
C1215 C1216 1.387 . S
C1215 H1218 0.950 . S
C1216 C1215 1.387 . S
C1216 C1219 1.387 . S
H1217 C1213 0.950 . S
H1218 C1215 0.950 . S
C1219 C1210 1.390 . S
C1219 H1212 0.950 . S
C1219 C1216 1.387 . S
C1220 C1221 1.387 . S
C1220 H1224 0.950 . S
C1220 C1229 1.390 . S
C1221 C1220 1.387 . S
C1221 C1223 1.387 . S
H1222 C1229 0.950 . S
C1223 C1221 1.387 . S
C1223 C1225 1.390 . S
C1223 H1227 0.950 . S
H1224 C1220 0.950 . S
C1225 C1223 1.390 . S
C1225 C1226 1.387 . S
C1225 H1228 0.950 . S
C1226 C1225 1.387 . S
C1226 C1229 1.387 . S
H1227 C1223 0.950 . S
H1228 C1225 0.950 . S
C1229 C1220 1.390 . S
C1229 H1222 0.950 . S
C1229 C1226 1.387 . S
C1230 C1231 1.387 . S
C1230 H1234 0.950 . S
C1230 C1239 1.390 . S
C1231 C1230 1.387 . S
C1231 C1233 1.387 . S
H1232 C1239 0.950 . S
C1233 C1231 1.387 . S
C1233 C1235 1.390 . S
C1233 H1237 0.950 . S
H1234 C1230 0.950 . S
C1235 C1233 1.390 . S
C1235 C1236 1.387 . S
C1235 H1238 0.950 . S
C1236 C1235 1.387 . S
C1236 C1239 1.387 . S
H1237 C1233 0.950 . S
H1238 C1235 0.950 . S
C1239 C1230 1.390 . S
C1239 H1232 0.950 . S
C1239 C1236 1.387 . S
C1240 C1241 1.387 . S
C1240 H1244 0.950 . S
C1240 C1249 1.390 . S
C1241 C1240 1.387 . S
C1241 C1243 1.387 . S
H1242 C1249 0.950 . S
C1243 C1241 1.387 . S
C1243 C1245 1.390 . S
C1243 H1247 0.950 . S
H1244 C1240 0.950 . S
C1245 C1243 1.390 . S
C1245 C1246 1.387 . S
C1245 H1248 0.950 . S
C1246 C1245 1.387 . S
C1246 C1249 1.387 . S
H1247 C1243 0.950 . S
H1248 C1245 0.950 . S
C1249 C1240 1.390 . S
C1249 H1242 0.950 . S
C1249 C1246 1.387 . S
C1250 C1251 1.387 . S
C1250 H1254 0.950 . S
C1250 C1259 1.390 . S
C1251 C1250 1.387 . S
C1251 C1253 1.387 . S
H1252 C1259 0.950 . S
C1253 C1251 1.387 . S
C1253 C1255 1.390 . S
C1253 H1257 0.950 . S
H1254 C1250 0.950 . S
C1255 C1253 1.390 . S
C1255 C1256 1.387 . S
C1255 H1258 0.950 . S
C1256 C1255 1.387 . S
C1256 C1259 1.387 . S
H1257 C1253 0.950 . S
H1258 C1255 0.950 . S
C1259 C1250 1.390 . S
C1259 H1252 0.950 . S
C1259 C1256 1.387 . S
C721 C523 2.480 . S
C726 C3 2.489 . S
C731 C55 2.067 . S
C736 C575 2.060 . S
C741 C83 2.295 . S
C746 C495 2.311 . S
C751 C95 1.926 . S
C756 C295 1.931 . S
C761 C335 2.198 . S
C766 C15 2.192 . S
C771 C43 2.353 . S
C776 C255 2.384 . S
C781 C142 2.277 . S
C786 C402 2.288 . S
C791 C162 1.814 . S
C796 C442 1.810 . S
C801 C362 2.040 . S
C806 C222 2.020 . S
C811 C642 2.075 . S
C816 C202 2.075 . S
C821 C122 2.305 . S
C826 C702 2.289 . S
C831 C622 2.496 . S
C836 C182 2.484 . S
C841 C323 2.186 . S
C846 C535 2.216 . S
C851 C243 2.386 . S
C856 C563 2.386 . S
C861 C283 2.617 . S
C866 C483 2.632 . S
C871 C382 2.731 . S
C876 C662 2.722 . S
C881 C682 2.329 . S
C886 C422 2.315 . S
C891 C602 2.581 . S
C896 C462 2.558 . S
C901 C2 1.485 . S
C906 C175 1.487 . S
C911 C203 1.875 . S
C916 C62 1.882 . S
C921 C123 1.693 . S
C926 C82 1.568 . S
C931 C163 1.908 . S
C936 C102 1.946 . S
C941 C215 1.711 . S
C946 C22 1.747 . S
C951 C135 1.567 . S
C956 C42 1.618 . S
C961 C403 1.963 . S
C966 C262 1.952 . S
C971 C443 2.023 . S
C976 C302 2.020 . S
C981 C363 2.043 . S
C986 C342 1.948 . S
C991 C415 1.553 . S
C996 C322 1.553 . S
C1001 C455 1.482 . S
C1006 C242 1.601 . S
C1011 C375 1.500 . S
C1016 C282 1.513 . S
C1021 C655 1.612 . S
C1026 C482 1.561 . S
C1031 C683 1.939 . S
C1036 C542 1.901 . S
C1041 C562 1.709 . S
C1046 C603 1.739 . S
C1051 C582 2.048 . S
C1056 C643 2.055 . S
C1061 C502 1.838 . S
C1066 C695 1.713 . S
C1071 C615 1.599 . S
C1076 C522 1.599 . S
C1081 C26 1.308 . S
C1086 C9 1.308 . S
C1091 C49 1.437 . S
C1096 C66 1.437 . S
C1101 C106 1.369 . S
C1106 C89 1.369 . S
C1111 C129 1.394 . S
C1116 C146 1.394 . S
C1121 C169 1.322 . S
C1126 C186 1.322 . S
C1131 C226 1.513 . S
C1136 C209 1.513 . S
C1141 C266 1.617 . S
C1146 C249 1.617 . S
C1151 C289 1.294 . S
C1156 C306 1.294 . S
C1161 C346 1.662 . S
C1166 C329 1.662 . S
C1171 C369 1.259 . S
C1176 C386 1.259 . S
C1181 C409 1.589 . S
C1186 C426 1.589 . S
C1191 C449 1.334 . S
C1196 C466 1.334 . S
C1201 C489 1.276 . S
C1206 C506 1.276 . S
C1211 C529 1.416 . S
C1216 C546 1.416 . S
C1221 C586 1.354 . S
C1226 C569 1.354 . S
C1231 C626 1.434 . S
C1236 C609 1.434 . S
C1241 C649 1.295 . S
C1246 C666 1.295 . S
C1251 C689 1.431 . S
C1256 C706 1.431 . S
