# Generated by pormake.
# Topology acs-a, (4)-cn, num edge types: 1
# Building blocks:
#     Node 0, Type 0, BuildingBlock: UXUYUI_clean_sbu_0, # of connection points: 4
#     Node 1, Type 0, BuildingBlock: UXUYUI_clean_sbu_0, # of connection points: 4
#     Node 2, Type 0, BuildingBlock: UXUYUI_clean_sbu_0, # of connection points: 4
#     Node 3, Type 0, BuildingBlock: UXUYUI_clean_sbu_0, # of connection points: 4
#     Node 4, Type 0, BuildingBlock: UXUYUI_clean_sbu_0, # of connection points: 4
#     Node 5, Type 0, BuildingBlock: UXUYUI_clean_sbu_0, # of connection points: 4
#     Node 6, Type 0, BuildingBlock: UXUYUI_clean_sbu_0, # of connection points: 4
#     Node 7, Type 0, BuildingBlock: UXUYUI_clean_sbu_0, # of connection points: 4
#     Node 8, Type 0, BuildingBlock: UXUYUI_clean_sbu_0, # of connection points: 4
#     Node 9, Type 0, BuildingBlock: UXUYUI_clean_sbu_0, # of connection points: 4
#     Node 10, Type 0, BuildingBlock: UXUYUI_clean_sbu_0, # of connection points: 4
#     Node 11, Type 0, BuildingBlock: UXUYUI_clean_sbu_0, # of connection points: 4
#     Edge 12, Type (0, 0), BuildingBlock: XUDNAN_clean_linker_2, # of connection points: 2
#     Edge 13, Type (0, 0), BuildingBlock: XUDNAN_clean_linker_2, # of connection points: 2
#     Edge 14, Type (0, 0), BuildingBlock: XUDNAN_clean_linker_2, # of connection points: 2
#     Edge 15, Type (0, 0), BuildingBlock: XUDNAN_clean_linker_2, # of connection points: 2
#     Edge 16, Type (0, 0), BuildingBlock: XUDNAN_clean_linker_2, # of connection points: 2
#     Edge 17, Type (0, 0), BuildingBlock: XUDNAN_clean_linker_2, # of connection points: 2
#     Edge 18, Type (0, 0), BuildingBlock: XUDNAN_clean_linker_2, # of connection points: 2
#     Edge 19, Type (0, 0), BuildingBlock: XUDNAN_clean_linker_2, # of connection points: 2
#     Edge 20, Type (0, 0), BuildingBlock: XUDNAN_clean_linker_2, # of connection points: 2
#     Edge 21, Type (0, 0), BuildingBlock: XUDNAN_clean_linker_2, # of connection points: 2
#     Edge 22, Type (0, 0), BuildingBlock: XUDNAN_clean_linker_2, # of connection points: 2
#     Edge 23, Type (0, 0), BuildingBlock: XUDNAN_clean_linker_2, # of connection points: 2
#     Edge 24, Type (0, 0), BuildingBlock: XUDNAN_clean_linker_2, # of connection points: 2
#     Edge 25, Type (0, 0), BuildingBlock: XUDNAN_clean_linker_2, # of connection points: 2
#     Edge 26, Type (0, 0), BuildingBlock: XUDNAN_clean_linker_2, # of connection points: 2
#     Edge 27, Type (0, 0), BuildingBlock: XUDNAN_clean_linker_2, # of connection points: 2
#     Edge 28, Type (0, 0), BuildingBlock: XUDNAN_clean_linker_2, # of connection points: 2
#     Edge 29, Type (0, 0), BuildingBlock: XUDNAN_clean_linker_2, # of connection points: 2
#     Edge 30, Type (0, 0), BuildingBlock: XUDNAN_clean_linker_2, # of connection points: 2
#     Edge 31, Type (0, 0), BuildingBlock: XUDNAN_clean_linker_2, # of connection points: 2
#     Edge 32, Type (0, 0), BuildingBlock: XUDNAN_clean_linker_2, # of connection points: 2
#     Edge 33, Type (0, 0), BuildingBlock: XUDNAN_clean_linker_2, # of connection points: 2
#     Edge 34, Type (0, 0), BuildingBlock: XUDNAN_clean_linker_2, # of connection points: 2
#     Edge 35, Type (0, 0), BuildingBlock: XUDNAN_clean_linker_2, # of connection points: 2
# Relax obj value: 0.500
# Max RMSD: 0.243
# Mean RMSD: 0.227
data_MOF--net-acs-a--node1-UXUYUI_clean_sbu_0--edge1-XUDNAN_clean_linker_2
_symmetry_space_group_name_H-M    P1
_symmetry_Int_Tables_number       1
_symmetry_cell_setting            triclinic
loop_
_symmetry_equiv_pos_as_xyz
'x, y, z'
_cell_length_a     56.613132
_cell_length_b     69.534981
_cell_length_c     68.260316
_cell_angle_alpha  89.954675
_cell_angle_beta   90.022385
_cell_angle_gamma 111.14499
loop_
_atom_site_label
_atom_site_type_symbol
_atom_site_fract_x
_atom_site_fract_y
_atom_site_fract_z
_atom_type_partial_charge
Li0 Li 0.58428 0.13528 0.07861 0.0
Li1 Li 0.62691 0.13392 0.07981 0.0
Li2 Li 0.58979 0.10252 0.0804 0.0
Li3 Li 0.60127 0.12564 0.10867 0.0
C4 C 0.59464 0.12958 0.04189 0.0
N5 N 0.58131 0.14367 0.0073 0.0
C6 C 0.61214 0.14633 0.03209 0.0
C7 C 0.57041 0.11992 0.03406 0.0
C8 C 0.60503 0.15323 0.01462 0.0
C9 C 0.56402 0.12731 0.01658 0.0
C10 C 0.61648 0.1666 0.10883 0.0
C11 C 0.63733 0.18415 0.13807 0.0
N12 N 0.62072 0.19419 0.13898 0.0
C13 C 0.59966 0.17715 0.11005 0.0
C14 C 0.63554 0.17019 0.12292 0.0
C15 C 0.60212 0.19103 0.1254 0.0
C16 C 0.53868 0.14227 0.07486 0.0
N17 N 0.56326 0.14921 0.06896 0.0
C18 C 0.55794 0.17746 0.05204 0.0
C19 C 0.57308 0.16642 0.05772 0.0
C20 C 0.53265 0.17091 0.05836 0.0
C21 C 0.52295 0.15292 0.06968 0.0
H22 H 0.53148 0.12887 0.08417 0.0
H23 H 0.59289 0.17197 0.05376 0.0
C24 C 0.66786 0.13866 0.05362 0.0
N25 N 0.6605 0.14588 0.07016 0.0
C26 C 0.69273 0.14773 0.0468 0.0
C27 C 0.70189 0.17095 0.0745 0.0
C28 C 0.67688 0.16173 0.08054 0.0
C29 C 0.71005 0.16402 0.05741 0.0
H30 H 0.65435 0.12597 0.04569 0.0
H31 H 0.67051 0.16725 0.0935 0.0
C32 C 0.54638 0.09571 0.1003 0.0
N33 N 0.50411 0.0609 0.10726 0.0
C34 C 0.5425 0.08641 0.11877 0.0
C35 C 0.52866 0.08741 0.08541 0.0
C36 C 0.52102 0.0688 0.122 0.0
C37 C 0.50745 0.06976 0.0892 0.0
C38 C 0.64251 0.10658 0.09515 0.0
C39 C 0.64492 0.09291 0.08098 0.0
C40 C 0.66352 0.11803 0.10639 0.0
C41 C 0.66843 0.091 0.07822 0.0
C42 C 0.6867 0.1157 0.10316 0.0
N43 N 0.68866 0.10235 0.08925 0.0
C44 C 0.57579 0.07183 0.05221 0.0
C45 C 0.56515 0.05906 0.0845 0.0
C46 C 0.56266 0.05243 0.04444 0.0
N47 N 0.57594 0.07491 0.07184 0.0
C48 C 0.55134 0.0394 0.07733 0.0
C49 C 0.54929 0.03611 0.05699 0.0
H50 H 0.58527 0.08458 0.04254 0.0
H51 H 0.56624 0.06188 0.10009 0.0
C52 C 0.58558 0.13641 0.1446 0.0
N53 N 0.60064 0.12722 0.13633 0.0
C54 C 0.58668 0.1401 0.16471 0.0
C55 C 0.61721 0.12327 0.1676 0.0
C56 C 0.61587 0.12024 0.14736 0.0
C57 C 0.60292 0.13373 0.17636 0.0
H58 H 0.57335 0.14148 0.13545 0.0
H59 H 0.62735 0.11273 0.14039 0.0
O60 O 0.60115 0.12269 0.0591 0.0
O61 O 0.61422 0.1528 0.09398 0.0
O62 O 0.56737 0.11291 0.09683 0.0
O63 O 0.61986 0.10915 0.09763 0.0
H64 H 0.6309 0.15411 0.03801 0.0
H65 H 0.55664 0.10695 0.04147 0.0
H66 H 0.61834 0.16624 0.00692 0.0
H67 H 0.5453 0.12005 0.0104 0.0
H68 H 0.6518 0.18687 0.14918 0.0
H69 H 0.58476 0.1746 0.09936 0.0
H70 H 0.64838 0.16185 0.12253 0.0
H71 H 0.58918 0.19924 0.12654 0.0
H72 H 0.56626 0.19153 0.04365 0.0
H73 H 0.50358 0.14746 0.07491 0.0
H74 H 0.69839 0.14213 0.03347 0.0
H75 H 0.71458 0.18379 0.08284 0.0
H76 H 0.55601 0.09262 0.13046 0.0
H77 H 0.53138 0.09441 0.07103 0.0
H78 H 0.51782 0.06139 0.1362 0.0
H79 H 0.49369 0.06308 0.07778 0.0
H80 H 0.6289 0.08404 0.07207 0.0
H81 H 0.66205 0.12889 0.11723 0.0
H82 H 0.67061 0.08055 0.06725 0.0
H83 H 0.70318 0.12459 0.11163 0.0
H84 H 0.56239 0.05041 0.0287 0.0
H85 H 0.54144 0.02725 0.08755 0.0
H86 H 0.57517 0.148 0.17106 0.0
H87 H 0.62991 0.11814 0.17621 0.0
Li88 Li 0.51484 0.64549 0.58312 0.0
Li89 Li 0.51185 0.62488 0.61242 0.0
Li90 Li 0.5013 0.60932 0.57997 0.0
Li91 Li 0.47272 0.62323 0.59481 0.0
C92 C 0.55826 0.64138 0.58496 0.0
N93 N 0.60535 0.6698 0.57546 0.0
C94 C 0.57573 0.65071 0.59972 0.0
C95 C 0.56478 0.64636 0.56536 0.0
C96 C 0.59944 0.66507 0.59462 0.0
C97 C 0.58866 0.66082 0.56086 0.0
C98 C 0.48979 0.66248 0.61302 0.0
C99 C 0.47955 0.68381 0.63694 0.0
N100 N 0.47366 0.69449 0.62222 0.0
C101 C 0.48345 0.6736 0.59816 0.0
C102 C 0.48775 0.6676 0.63259 0.0
C103 C 0.47544 0.68977 0.60309 0.0
C104 C 0.52419 0.67807 0.55598 0.0
N105 N 0.5317 0.67253 0.57331 0.0
C106 C 0.55113 0.70772 0.58287 0.0
C107 C 0.54591 0.68683 0.5863 0.0
C108 C 0.54131 0.71379 0.56605 0.0
C109 C 0.52895 0.6988 0.55197 0.0
H110 H 0.51214 0.66638 0.54628 0.0
H111 H 0.55099 0.68191 0.6002 0.0
C112 C 0.52736 0.60617 0.64415 0.0
N113 N 0.52653 0.62421 0.63715 0.0
C114 C 0.53654 0.60528 0.66298 0.0
C115 C 0.54455 0.64169 0.66667 0.0
C116 C 0.53527 0.64187 0.64778 0.0
C117 C 0.54494 0.62315 0.67463 0.0
H118 H 0.52038 0.5924 0.63525 0.0
H119 H 0.53459 0.65602 0.64168 0.0
C120 C 0.47642 0.61724 0.55103 0.0
N121 N 0.45772 0.59473 0.51743 0.0
C122 C 0.45296 0.60102 0.55133 0.0
C123 C 0.49037 0.62199 0.53364 0.0
C124 C 0.44384 0.58983 0.53419 0.0
C125 C 0.48057 0.61044 0.5168 0.0
C126 C 0.46818 0.59215 0.62176 0.0
C127 C 0.45622 0.57088 0.62438 0.0
C128 C 0.46688 0.60554 0.63668 0.0
C129 C 0.44302 0.56338 0.64173 0.0
C130 C 0.45356 0.59744 0.65384 0.0
N131 N 0.44198 0.5767 0.65599 0.0
C132 C 0.51594 0.58907 0.5481 0.0
C133 C 0.48186 0.56862 0.56801 0.0
C134 C 0.51196 0.5726 0.53518 0.0
N135 N 0.5006 0.58686 0.56391 0.0
C136 C 0.47751 0.55171 0.55577 0.0
C137 C 0.49224 0.55366 0.5388 0.0
H138 H 0.5305 0.60384 0.54503 0.0
H139 H 0.4697 0.56742 0.58047 0.0
C140 C 0.43305 0.63344 0.58116 0.0
N141 N 0.43806 0.62142 0.59507 0.0
C142 C 0.40831 0.63215 0.5776 0.0
C143 C 0.39395 0.60629 0.60295 0.0
C144 C 0.41909 0.60804 0.60601 0.0
C145 C 0.38831 0.61817 0.58831 0.0
H146 H 0.4482 0.64347 0.5722 0.0
H147 H 0.4231 0.59811 0.61657 0.0
O148 O 0.53485 0.62747 0.58967 0.0
O149 O 0.49847 0.64697 0.60855 0.0
O150 O 0.48597 0.628 0.56781 0.0
O151 O 0.48175 0.59964 0.605 0.0
H152 H 0.57103 0.64696 0.61495 0.0
H153 H 0.55138 0.63943 0.55377 0.0
H154 H 0.61312 0.67247 0.6059 0.0
H155 H 0.5939 0.66495 0.54577 0.0
H156 H 0.47793 0.68793 0.65202 0.0
H157 H 0.48476 0.66987 0.58296 0.0
H158 H 0.4925 0.65918 0.64434 0.0
H159 H 0.47067 0.69857 0.5917 0.0
H160 H 0.56087 0.71883 0.59402 0.0
H161 H 0.5207 0.70275 0.53897 0.0
H162 H 0.53678 0.59072 0.66843 0.0
H163 H 0.55048 0.65577 0.67518 0.0
H164 H 0.44211 0.59684 0.56473 0.0
H165 H 0.50879 0.63418 0.5332 0.0
H166 H 0.4258 0.57717 0.53425 0.0
H167 H 0.49123 0.61388 0.50327 0.0
H168 H 0.4572 0.56019 0.61319 0.0
H169 H 0.47598 0.62199 0.63512 0.0
H170 H 0.43368 0.54695 0.6439 0.0
H171 H 0.45244 0.60765 0.66545 0.0
H172 H 0.52363 0.57495 0.52219 0.0
H173 H 0.46251 0.53735 0.5595 0.0
H174 H 0.40485 0.64175 0.56629 0.0
H175 H 0.37902 0.59513 0.61137 0.0
Li176 Li 0.86483 0.37517 0.09726 0.0
Li177 Li 0.9019 0.37236 0.11363 0.0
Li178 Li 0.9043 0.38469 0.07987 0.0
Li179 Li 0.88196 0.34859 0.08795 0.0
C180 C 0.91186 0.41765 0.1022 0.0
N181 N 0.94343 0.45828 0.09755 0.0
C182 C 0.93386 0.42573 0.11347 0.0
C183 C 0.90583 0.43026 0.08865 0.0
C184 C 0.94958 0.44632 0.1109 0.0
C185 C 0.92208 0.45075 0.08648 0.0
C186 C 0.86213 0.34574 0.13193 0.0
C187 C 0.86888 0.32687 0.1597 0.0
N188 N 0.85492 0.33488 0.17102 0.0
C189 C 0.84776 0.35371 0.14381 0.0
C190 C 0.87266 0.33211 0.13988 0.0
C191 C 0.84434 0.34804 0.16355 0.0
C192 C 0.81202 0.36504 0.10079 0.0
N193 N 0.83473 0.38091 0.10083 0.0
C194 C 0.8144 0.40531 0.10531 0.0
C195 C 0.83633 0.40074 0.1032 0.0
C196 C 0.79062 0.38928 0.10504 0.0
C197 C 0.78959 0.3689 0.1028 0.0
H198 H 0.81137 0.34939 0.09913 0.0
H199 H 0.85462 0.41303 0.10339 0.0
C200 C 0.93596 0.36687 0.14187 0.0
N201 N 0.91787 0.37504 0.13845 0.0
C202 C 0.94442 0.36594 0.16095 0.0
C203 C 0.91618 0.38259 0.17239 0.0
C204 C 0.90857 0.38346 0.1531 0.0
C205 C 0.93394 0.37331 0.17663 0.0
H206 H 0.94317 0.36043 0.1299 0.0
H207 H 0.8942 0.38987 0.14988 0.0
C208 C 0.84879 0.36462 0.06154 0.0
N209 N 0.80302 0.36097 0.04464 0.0
C210 C 0.82989 0.34519 0.05921 0.0
C211 C 0.84449 0.38219 0.05517 0.0
C212 C 0.80687 0.34367 0.05064 0.0
C213 C 0.8212 0.38002 0.04671 0.0
C214 C 0.92938 0.35208 0.08327 0.0
C215 C 0.94028 0.35594 0.06462 0.0
C216 C 0.92879 0.33453 0.09358 0.0
C217 C 0.95022 0.34204 0.05651 0.0
C218 C 0.93888 0.32099 0.08494 0.0
N219 N 0.9493 0.32499 0.06674 0.0
C220 C 0.94776 0.41622 0.06394 0.0
C221 C 0.91341 0.40092 0.04218 0.0
C222 C 0.96102 0.43006 0.04942 0.0
N223 N 0.92412 0.40245 0.06021 0.0
C224 C 0.92611 0.4142 0.02719 0.0
C225 C 0.95002 0.42921 0.03085 0.0
H226 H 0.95608 0.41672 0.07827 0.0
H227 H 0.89485 0.38953 0.03948 0.0
C228 C 0.85774 0.30572 0.08981 0.0
N229 N 0.87262 0.32131 0.07832 0.0
C230 C 0.84795 0.28568 0.08258 0.0
C231 C 0.86959 0.29794 0.05194 0.0
C232 C 0.87878 0.31785 0.05974 0.0
C233 C 0.85353 0.28156 0.06329 0.0
H234 H 0.85256 0.309 0.1043 0.0
H235 H 0.89019 0.33066 0.05078 0.0
O236 O 0.89632 0.3975 0.10444 0.0
O237 O 0.86616 0.35146 0.11267 0.0
O238 O 0.87126 0.3665 0.0703 0.0
O239 O 0.9193 0.36539 0.09137 0.0
H240 H 0.93883 0.41619 0.124 0.0
H241 H 0.88902 0.4242 0.07967 0.0
H242 H 0.96671 0.45277 0.11947 0.0
H243 H 0.91777 0.46063 0.07593 0.0
H244 H 0.87712 0.3165 0.1661 0.0
H245 H 0.83958 0.36436 0.13793 0.0
H246 H 0.88396 0.3259 0.13092 0.0
H247 H 0.83339 0.35418 0.17294 0.0
H248 H 0.81605 0.42124 0.10684 0.0
H249 H 0.77169 0.35605 0.10283 0.0
H250 H 0.95854 0.35906 0.16342 0.0
H251 H 0.9072 0.38821 0.1839 0.0
H252 H 0.83281 0.33143 0.06414 0.0
H253 H 0.85888 0.39735 0.05697 0.0
H254 H 0.79202 0.32874 0.04882 0.0
H255 H 0.81754 0.3935 0.04184 0.0
H256 H 0.94091 0.36945 0.05644 0.0
H257 H 0.92029 0.33126 0.10798 0.0
H258 H 0.95862 0.34478 0.04206 0.0
H259 H 0.93838 0.30726 0.09269 0.0
H260 H 0.9796 0.44131 0.05266 0.0
H261 H 0.91701 0.41313 0.01306 0.0
H262 H 0.83504 0.27378 0.09172 0.0
H263 H 0.87443 0.29552 0.03704 0.0
Li264 Li 0.4156 0.89123 0.58179 0.0
Li265 Li 0.40833 0.88155 0.61564 0.0
Li266 Li 0.41904 0.85914 0.59238 0.0
Li267 Li 0.37766 0.86384 0.59208 0.0
C268 C 0.45952 0.88787 0.61231 0.0
N269 N 0.49872 0.88818 0.63658 0.0
C270 C 0.45593 0.87198 0.62587 0.0
C271 C 0.48304 0.9039 0.6111 0.0
C272 C 0.47598 0.87242 0.63801 0.0
C273 C 0.50263 0.90378 0.62349 0.0
C274 C 0.38644 0.909 0.6096 0.0
C275 C 0.36837 0.92095 0.63689 0.0
N276 N 0.38311 0.94072 0.63247 0.0
C277 C 0.40137 0.92945 0.60531 0.0
C278 C 0.36973 0.90471 0.62548 0.0
C279 C 0.39941 0.94527 0.61704 0.0
C280 C 0.41529 0.92087 0.55339 0.0
N281 N 0.42951 0.91147 0.56254 0.0
C282 C 0.46351 0.92616 0.5401 0.0
C283 C 0.45323 0.91396 0.55639 0.0
C284 C 0.44917 0.93585 0.53009 0.0
C285 C 0.42485 0.93328 0.53703 0.0
H286 H 0.39624 0.91818 0.55843 0.0
H287 H 0.46373 0.90578 0.5637 0.0
C288 C 0.40682 0.87637 0.65642 0.0
N289 N 0.41408 0.89094 0.64212 0.0
C290 C 0.40925 0.88212 0.67608 0.0
C291 C 0.42745 0.91782 0.66605 0.0
C292 C 0.42512 0.91132 0.64654 0.0
C293 C 0.4192 0.9031 0.68105 0.0
H294 H 0.39898 0.86023 0.65258 0.0
H295 H 0.43174 0.92255 0.63493 0.0
C296 C 0.39786 0.86725 0.55062 0.0
N297 N 0.3952 0.87716 0.51168 0.0
C298 C 0.37776 0.87269 0.54396 0.0
C299 C 0.4165 0.86671 0.53744 0.0
C300 C 0.37676 0.87765 0.52422 0.0
C301 C 0.41486 0.87183 0.51783 0.0
C302 C 0.37028 0.83568 0.61806 0.0
C303 C 0.36413 0.81614 0.6097 0.0
C304 C 0.35314 0.83951 0.63081 0.0
C305 C 0.34098 0.80071 0.6143 0.0
C306 C 0.33016 0.82369 0.635 0.0
N307 N 0.32461 0.80478 0.62674 0.0
C308 C 0.434 0.82402 0.59625 0.0
C309 C 0.4587 0.851 0.57535 0.0
C310 C 0.44931 0.81266 0.59206 0.0
N311 N 0.43869 0.84263 0.58761 0.0
C312 C 0.47462 0.8403 0.57088 0.0
C313 C 0.46991 0.82075 0.57912 0.0
H314 H 0.41849 0.81802 0.60646 0.0
H315 H 0.46237 0.86613 0.56916 0.0
C316 C 0.32617 0.85955 0.59341 0.0
N317 N 0.34257 0.85084 0.5867 0.0
C318 C 0.30016 0.84959 0.59077 0.0
C319 C 0.30853 0.82229 0.57364 0.0
C320 C 0.33438 0.83287 0.5765 0.0
C321 C 0.291 0.83049 0.58111 0.0
H322 H 0.33325 0.87409 0.60106 0.0
H323 H 0.34794 0.82646 0.57111 0.0
O324 O 0.44021 0.8879 0.60026 0.0
O325 O 0.38802 0.89331 0.59823 0.0
O326 O 0.3996 0.86296 0.57002 0.0
O327 O 0.39257 0.85118 0.61335 0.0
H328 H 0.43789 0.85943 0.62706 0.0
H329 H 0.4861 0.91632 0.60068 0.0
H330 H 0.47346 0.86023 0.64857 0.0
H331 H 0.52094 0.9161 0.62271 0.0
H332 H 0.35566 0.91782 0.64931 0.0
H333 H 0.41455 0.9331 0.5932 0.0
H334 H 0.35818 0.88899 0.62915 0.0
H335 H 0.41092 0.96115 0.61393 0.0
H336 H 0.48216 0.92748 0.53506 0.0
H337 H 0.4133 0.94066 0.52985 0.0
H338 H 0.40272 0.87032 0.68726 0.0
H339 H 0.43559 0.93413 0.66939 0.0
H340 H 0.36332 0.87344 0.55398 0.0
H341 H 0.43219 0.86256 0.54233 0.0
H342 H 0.36141 0.88203 0.51889 0.0
H343 H 0.42925 0.87161 0.5075 0.0
H344 H 0.37674 0.81302 0.59936 0.0
H345 H 0.35737 0.8546 0.6372 0.0
H346 H 0.33592 0.78556 0.60783 0.0
H347 H 0.31669 0.82648 0.64475 0.0
H348 H 0.44481 0.79761 0.59869 0.0
H349 H 0.49058 0.84737 0.56122 0.0
H350 H 0.28737 0.85664 0.59646 0.0
H351 H 0.30236 0.80749 0.56633 0.0
Li352 Li 0.49259 0.37581 0.11641 0.0
Li353 Li 0.49308 0.3516 0.09214 0.0
Li354 Li 0.53208 0.37929 0.09798 0.0
Li355 Li 0.49589 0.38429 0.08095 0.0
C356 C 0.52641 0.36052 0.13381 0.0
N357 N 0.55387 0.36672 0.16828 0.0
C358 C 0.52839 0.34374 0.14406 0.0
C359 C 0.53842 0.38047 0.14116 0.0
C360 C 0.54234 0.34719 0.16144 0.0
C361 C 0.55221 0.38327 0.15858 0.0
C362 C 0.44484 0.34868 0.09482 0.0
C363 C 0.40535 0.33003 0.07863 0.0
N364 N 0.39927 0.31589 0.09337 0.0
C365 C 0.43814 0.33409 0.10988 0.0
C366 C 0.42831 0.34676 0.07911 0.0
C367 C 0.41504 0.31756 0.10884 0.0
C368 C 0.47299 0.39601 0.14516 0.0
N369 N 0.47919 0.37927 0.14121 0.0
C370 C 0.46997 0.36731 0.17412 0.0
C371 C 0.47682 0.36463 0.15503 0.0
C372 C 0.46448 0.3849 0.17903 0.0
C373 C 0.4654 0.39909 0.16404 0.0
H374 H 0.47419 0.40707 0.13374 0.0
H375 H 0.48095 0.35107 0.1514 0.0
C376 C 0.49499 0.31264 0.09462 0.0
N377 N 0.48144 0.32284 0.08583 0.0
C378 C 0.49155 0.29254 0.0892 0.0
C379 C 0.45997 0.2935 0.06577 0.0
C380 C 0.46371 0.31356 0.07194 0.0
C381 C 0.47431 0.28292 0.07428 0.0
H382 H 0.5095 0.32051 0.10511 0.0
H383 H 0.45354 0.32207 0.06479 0.0
C384 C 0.52565 0.4203 0.0955 0.0
N385 N 0.54069 0.45882 0.07821 0.0
C386 C 0.54195 0.42488 0.07935 0.0
C387 C 0.51705 0.43535 0.10286 0.0
C388 C 0.54933 0.44443 0.07082 0.0
C389 C 0.52488 0.45473 0.09392 0.0
C390 C 0.51449 0.35511 0.05747 0.0
C391 C 0.53126 0.34455 0.05597 0.0
C392 C 0.49469 0.35107 0.04397 0.0
C393 C 0.5278 0.32997 0.04111 0.0
C394 C 0.49196 0.33647 0.02925 0.0
N395 N 0.50839 0.32627 0.02817 0.0
C396 C 0.57573 0.37018 0.09989 0.0
C397 C 0.5842 0.406 0.10286 0.0
C398 C 0.60139 0.37341 0.10176 0.0
N399 N 0.5677 0.38638 0.10017 0.0
C400 C 0.61012 0.40997 0.10475 0.0
C401 C 0.61902 0.39353 0.1041 0.0
H402 H 0.56205 0.35467 0.09854 0.0
H403 H 0.57731 0.41857 0.10375 0.0
C404 C 0.47254 0.41095 0.06546 0.0
N405 N 0.48819 0.40052 0.06145 0.0
C406 C 0.469 0.42446 0.05159 0.0
C407 C 0.49713 0.41567 0.02967 0.0
C408 C 0.50053 0.40273 0.04405 0.0
C409 C 0.48137 0.42683 0.03344 0.0
H410 H 0.4634 0.40917 0.07962 0.0
H411 H 0.51361 0.39489 0.04153 0.0
O412 O 0.51282 0.35724 0.11668 0.0
O413 O 0.46734 0.36494 0.09553 0.0
O414 O 0.51735 0.40091 0.10346 0.0
O415 O 0.51727 0.36918 0.07215 0.0
H416 H 0.51914 0.32817 0.13874 0.0
H417 H 0.53719 0.39371 0.13361 0.0
H418 H 0.54398 0.33434 0.16951 0.0
H419 H 0.56158 0.39862 0.1644 0.0
H420 H 0.39239 0.32827 0.06653 0.0
H421 H 0.45078 0.33539 0.12211 0.0
H422 H 0.43325 0.35801 0.06738 0.0
H423 H 0.40966 0.30606 0.12032 0.0
H424 H 0.46997 0.35597 0.18498 0.0
H425 H 0.46066 0.41258 0.16685 0.0
H426 H 0.50339 0.28505 0.0958 0.0
H427 H 0.44665 0.28659 0.0541 0.0
H428 H 0.54846 0.41331 0.07325 0.0
H429 H 0.50439 0.43212 0.11527 0.0
H430 H 0.56178 0.44811 0.05823 0.0
H431 H 0.51831 0.4665 0.09944 0.0
H432 H 0.54672 0.34749 0.06619 0.0
H433 H 0.4812 0.35876 0.0451 0.0
H434 H 0.54054 0.3216 0.03988 0.0
H435 H 0.47662 0.33309 0.01881 0.0
H436 H 0.60728 0.36022 0.10173 0.0
H437 H 0.62304 0.42572 0.10657 0.0
H438 H 0.45682 0.43297 0.05497 0.0
H439 H 0.50738 0.41748 0.01597 0.0
Li440 Li 0.0998 0.62004 0.61232 0.0
Li441 Li 0.13289 0.6171 0.58922 0.0
Li442 Li 0.11276 0.64179 0.58363 0.0
Li443 Li 0.08909 0.60628 0.57854 0.0
C444 C 0.14763 0.6602 0.61022 0.0
N445 N 0.17456 0.70161 0.61656 0.0
C446 C 0.17266 0.66913 0.60374 0.0
C447 C 0.1364 0.67229 0.62013 0.0
C448 C 0.18593 0.6901 0.60705 0.0
C449 C 0.1503 0.69321 0.62314 0.0
C450 C 0.10687 0.57909 0.61027 0.0
C451 C 0.10623 0.54423 0.61169 0.0
N452 N 0.11532 0.54761 0.63032 0.0
C453 C 0.11609 0.58218 0.62946 0.0
C454 C 0.10176 0.55992 0.60133 0.0
C455 C 0.12028 0.56609 0.63934 0.0
C456 C 0.06622 0.61154 0.6454 0.0
N457 N 0.09057 0.61998 0.63901 0.0
C458 C 0.10477 0.63349 0.67077 0.0
C459 C 0.10977 0.63042 0.65133 0.0
C460 C 0.07983 0.62546 0.67768 0.0
C461 C 0.06039 0.61395 0.66497 0.0
H462 H 0.05132 0.6034 0.63521 0.0
H463 H 0.12898 0.63673 0.64594 0.0
C464 C 0.1804 0.62542 0.57289 0.0
N465 N 0.16461 0.61334 0.58668 0.0
C466 C 0.20425 0.6244 0.56978 0.0
C467 C 0.19548 0.5987 0.59533 0.0
C468 C 0.17169 0.60014 0.59787 0.0
C469 C 0.21207 0.61092 0.58111 0.0
H470 H 0.17455 0.63608 0.56443 0.0
H471 H 0.1591 0.59081 0.60886 0.0
C472 C 0.059 0.62994 0.58228 0.0
N473 N 0.02087 0.6362 0.561 0.0
C474 C 0.06338 0.6371 0.56299 0.0
C475 C 0.03526 0.626 0.59076 0.0
C476 C 0.04386 0.64015 0.55246 0.0
C477 C 0.01622 0.62926 0.57976 0.0
C478 C 0.12516 0.61318 0.54905 0.0
C479 C 0.13157 0.6224 0.53065 0.0
C480 C 0.12411 0.59298 0.55189 0.0
C481 C 0.13679 0.61121 0.51534 0.0
C482 C 0.12945 0.5823 0.53622 0.0
N483 N 0.13562 0.59156 0.51842 0.0
C484 C 0.14216 0.67754 0.56471 0.0
C485 C 0.10736 0.68098 0.58168 0.0
C486 C 0.15297 0.69879 0.56212 0.0
N487 N 0.12039 0.66926 0.57507 0.0
C488 C 0.11731 0.70234 0.57916 0.0
C489 C 0.14105 0.71161 0.57009 0.0
H490 H 0.15221 0.66778 0.55991 0.0
H491 H 0.09022 0.67395 0.59011 0.0
C492 C 0.05092 0.56783 0.56886 0.0
N493 N 0.06475 0.58707 0.5623 0.0
C494 C 0.03525 0.55313 0.55596 0.0
C495 C 0.0478 0.57861 0.5301 0.0
C496 C 0.06319 0.59272 0.54343 0.0
C497 C 0.03385 0.55842 0.53622 0.0
H498 H 0.05256 0.56378 0.58396 0.0
H499 H 0.07459 0.60803 0.53851 0.0
O500 O 0.13405 0.63982 0.60658 0.0
O501 O 0.10219 0.5945 0.60044 0.0
O502 O 0.07774 0.62671 0.59289 0.0
O503 O 0.11981 0.62396 0.56409 0.0
H504 H 0.18167 0.66001 0.59609 0.0
H505 H 0.11696 0.66567 0.62508 0.0
H506 H 0.20525 0.69725 0.60198 0.0
H507 H 0.14175 0.70279 0.63058 0.0
H508 H 0.10242 0.52934 0.60493 0.0
H509 H 0.12041 0.59692 0.63655 0.0
H510 H 0.09438 0.55713 0.58656 0.0
H511 H 0.12756 0.56833 0.65415 0.0
H512 H 0.12022 0.64222 0.68031 0.0
H513 H 0.04094 0.60755 0.66996 0.0
H514 H 0.21663 0.63437 0.5589 0.0
H515 H 0.20076 0.58803 0.6043 0.0
H516 H 0.08162 0.64019 0.55616 0.0
H517 H 0.03159 0.62046 0.60569 0.0
H518 H 0.04697 0.64564 0.53751 0.0
H519 H 0.99774 0.62626 0.58614 0.0
H520 H 0.13244 0.63803 0.52823 0.0
H521 H 0.11926 0.58566 0.56602 0.0
H522 H 0.14175 0.61815 0.50101 0.0
H523 H 0.12868 0.56665 0.53822 0.0
H524 H 0.17148 0.70509 0.55536 0.0
H525 H 0.10728 0.71156 0.58529 0.0
H526 H 0.02461 0.53776 0.56129 0.0
H527 H 0.04765 0.58326 0.51497 0.0
Li528 Li 0.86762 0.36914 0.40005 0.0
Li529 Li 0.90872 0.38187 0.41394 0.0
Li530 Li 0.9032 0.36495 0.38267 0.0
Li531 Li 0.88582 0.34508 0.41455 0.0
C532 C 0.89494 0.40927 0.38894 0.0
N533 N 0.88924 0.44709 0.38925 0.0
C534 C 0.88672 0.41619 0.40589 0.0
C535 C 0.90022 0.42155 0.37211 0.0
C536 C 0.88398 0.43536 0.40578 0.0
C537 C 0.89722 0.44063 0.37257 0.0
C538 C 0.87426 0.36963 0.44695 0.0
C539 C 0.88157 0.3629 0.48067 0.0
N540 N 0.8691 0.37534 0.48657 0.0
C541 C 0.86122 0.38212 0.45337 0.0
C542 C 0.88426 0.35974 0.46072 0.0
C543 C 0.85895 0.38491 0.47345 0.0
C544 C 0.81747 0.36462 0.40958 0.0
N545 N 0.83624 0.37285 0.39625 0.0
C546 C 0.80924 0.3846 0.3766 0.0
C547 C 0.83261 0.38272 0.37999 0.0
C548 C 0.78931 0.37604 0.38998 0.0
C549 C 0.79373 0.36604 0.40672 0.0
H550 H 0.82081 0.35657 0.42223 0.0
H551 H 0.84774 0.38883 0.36946 0.0
C552 C 0.94493 0.42213 0.41726 0.0
N553 N 0.93225 0.40493 0.42787 0.0
C554 C 0.95835 0.44064 0.42668 0.0
C555 C 0.94808 0.42287 0.45772 0.0
C556 C 0.93477 0.40474 0.44767 0.0
C557 C 0.95916 0.4413 0.44722 0.0
H558 H 0.94379 0.42172 0.40146 0.0
H559 H 0.92592 0.39075 0.45579 0.0
C560 C 0.84643 0.33571 0.37939 0.0
N561 N 0.79916 0.32152 0.36208 0.0
C562 C 0.82567 0.32203 0.38946 0.0
C563 C 0.84323 0.34209 0.36048 0.0
C564 C 0.8019 0.31505 0.38046 0.0
C565 C 0.81915 0.33476 0.35199 0.0
C566 C 0.94513 0.36776 0.41415 0.0
C567 C 0.96485 0.38246 0.40396 0.0
C568 C 0.94938 0.36178 0.43297 0.0
C569 C 0.98853 0.39117 0.41292 0.0
C570 C 0.97333 0.37084 0.44141 0.0
N571 N 0.99224 0.38524 0.4313 0.0
C572 C 0.93261 0.38115 0.34924 0.0
C573 C 0.90826 0.34538 0.34784 0.0
C574 C 0.94069 0.38089 0.32995 0.0
N575 N 0.91647 0.36361 0.35761 0.0
C576 C 0.91576 0.34441 0.32851 0.0
C577 C 0.93191 0.3624 0.3192 0.0
H578 H 0.93872 0.39543 0.35742 0.0
H579 H 0.89522 0.33173 0.35488 0.0
C580 C 0.85655 0.31418 0.43957 0.0
N581 N 0.8767 0.31927 0.42725 0.0
C582 C 0.84703 0.29468 0.44802 0.0
C583 C 0.87879 0.2857 0.43058 0.0
C584 C 0.88815 0.30567 0.42279 0.0
C585 C 0.85786 0.28006 0.44325 0.0
H586 H 0.84725 0.32504 0.44227 0.0
H587 H 0.90385 0.31007 0.41261 0.0
O588 O 0.89779 0.39054 0.38867 0.0
O589 O 0.87606 0.36627 0.42732 0.0
O590 O 0.86964 0.3433 0.38822 0.0
O591 O 0.92167 0.35948 0.40585 0.0
H592 H 0.88276 0.40695 0.41903 0.0
H593 H 0.90655 0.41638 0.35884 0.0
H594 H 0.87773 0.44093 0.41884 0.0
H595 H 0.90124 0.45031 0.35965 0.0
H596 H 0.88942 0.3555 0.49146 0.0
H597 H 0.85273 0.38946 0.44299 0.0
H598 H 0.89438 0.35 0.45607 0.0
H599 H 0.84899 0.3946 0.47861 0.0
H600 H 0.80682 0.39264 0.3636 0.0
H601 H 0.77883 0.3589 0.41726 0.0
H602 H 0.96733 0.45441 0.41802 0.0
H603 H 0.94851 0.42263 0.47358 0.0
H604 H 0.82783 0.31705 0.40415 0.0
H605 H 0.85909 0.35285 0.35258 0.0
H606 H 0.78562 0.30455 0.38812 0.0
H607 H 0.81634 0.33968 0.33742 0.0
H608 H 0.9618 0.38727 0.38939 0.0
H609 H 0.93429 0.35034 0.44099 0.0
H610 H 0.00394 0.40269 0.40527 0.0
H611 H 0.97688 0.36645 0.45601 0.0
H612 H 0.95336 0.39506 0.32344 0.0
H613 H 0.90817 0.3299 0.32073 0.0
H614 H 0.83038 0.29067 0.45726 0.0
H615 H 0.88728 0.27464 0.42634 0.0
Li616 Li 0.39488 0.87641 0.88672 0.0
Li617 Li 0.40069 0.88261 0.92237 0.0
Li618 Li 0.39906 0.8511 0.9089 0.0
Li619 Li 0.36093 0.85834 0.91063 0.0
C620 C 0.44505 0.8737 0.89801 0.0
N621 N 0.48558 0.8623 0.88833 0.0
C622 C 0.46554 0.87786 0.91084 0.0
C623 C 0.44531 0.8639 0.88018 0.0
C624 C 0.4858 0.87191 0.90571 0.0
C625 C 0.46595 0.85825 0.87555 0.0
C626 C 0.38278 0.90922 0.90115 0.0
C627 C 0.3723 0.93971 0.89739 0.0
N628 N 0.39704 0.95093 0.8936 0.0
C629 C 0.40813 0.92108 0.89724 0.0
C630 C 0.36472 0.9186 0.90124 0.0
C631 C 0.41494 0.94213 0.89344 0.0
C632 C 0.37991 0.88642 0.85036 0.0
N633 N 0.40063 0.88816 0.86131 0.0
C634 C 0.42819 0.90478 0.83496 0.0
C635 C 0.42449 0.89757 0.85423 0.0
C636 C 0.40712 0.90277 0.8232 0.0
C637 C 0.38274 0.89383 0.83116 0.0
H638 H 0.36119 0.87897 0.85649 0.0
H639 H 0.44064 0.89922 0.86341 0.0
C640 C 0.43271 0.89535 0.95355 0.0
N641 N 0.41588 0.90087 0.94295 0.0
C642 C 0.4449 0.90704 0.9696 0.0
C643 C 0.4211 0.92931 0.9642 0.0
C644 C 0.40955 0.91726 0.94808 0.0
C645 C 0.43927 0.92437 0.97507 0.0
H646 H 0.43648 0.8817 0.94956 0.0
H647 H 0.3953 0.92082 0.9399 0.0
C648 C 0.37019 0.82876 0.87899 0.0
N649 N 0.36403 0.79176 0.86088 0.0
C650 C 0.35814 0.81016 0.88885 0.0
C651 C 0.37887 0.82856 0.85985 0.0
C652 C 0.35529 0.79161 0.87946 0.0
C653 C 0.37563 0.80968 0.85096 0.0
C654 C 0.36987 0.85631 0.94975 0.0
C655 C 0.3692 0.84301 0.96528 0.0
C656 C 0.3584 0.87095 0.95187 0.0
C657 C 0.35711 0.84461 0.98271 0.0
C658 C 0.34651 0.87206 0.96953 0.0
N659 N 0.34612 0.85899 0.98446 0.0
C660 C 0.42171 0.83094 0.93264 0.0
C661 C 0.41935 0.81886 0.89999 0.0
C662 C 0.43481 0.81837 0.93847 0.0
N663 N 0.41417 0.83094 0.91373 0.0
C664 C 0.43248 0.80603 0.90518 0.0
C665 C 0.44043 0.80572 0.92466 0.0
H666 H 0.41807 0.84115 0.94316 0.0
H667 H 0.41395 0.81952 0.88492 0.0
C668 C 0.31038 0.8577 0.90984 0.0
N669 N 0.32564 0.84731 0.91513 0.0
C670 C 0.28444 0.84941 0.91392 0.0
C671 C 0.29067 0.82 0.92876 0.0
C672 C 0.31638 0.82888 0.9245 0.0
C673 C 0.27426 0.83028 0.92351 0.0
H674 H 0.31838 0.87242 0.90249 0.0
H675 H 0.32904 0.8211 0.9287 0.0
O676 O 0.42472 0.87898 0.90292 0.0
O677 O 0.37551 0.88854 0.90489 0.0
O678 O 0.37302 0.84708 0.88783 0.0
O679 O 0.38164 0.85479 0.9326 0.0
H680 H 0.46591 0.88565 0.92458 0.0
H681 H 0.42953 0.86037 0.87015 0.0
H682 H 0.50173 0.87496 0.91555 0.0
H683 H 0.46627 0.85052 0.86187 0.0
H684 H 0.35851 0.94716 0.89742 0.0
H685 H 0.42246 0.91422 0.89717 0.0
H686 H 0.34504 0.90968 0.9043 0.0
H687 H 0.43448 0.95148 0.8904 0.0
H688 H 0.44725 0.91173 0.82926 0.0
H689 H 0.36609 0.89194 0.82241 0.0
H690 H 0.45889 0.90271 0.9774 0.0
H691 H 0.41574 0.94225 0.96817 0.0
H692 H 0.35136 0.81007 0.90366 0.0
H693 H 0.38802 0.84283 0.85196 0.0
H694 H 0.34616 0.7771 0.88696 0.0
H695 H 0.38233 0.80928 0.83619 0.0
H696 H 0.37788 0.83153 0.96387 0.0
H697 H 0.35859 0.88134 0.94005 0.0
H698 H 0.35645 0.83442 0.99484 0.0
H699 H 0.33758 0.88332 0.97136 0.0
H700 H 0.44096 0.81888 0.95355 0.0
H701 H 0.43631 0.79643 0.89407 0.0
H702 H 0.27253 0.85789 0.90967 0.0
H703 H 0.28369 0.805 0.93573 0.0
Li704 Li 0.50251 0.38732 0.416 0.0
Li705 Li 0.49107 0.35201 0.41259 0.0
Li706 Li 0.53382 0.37486 0.40235 0.0
Li707 Li 0.49308 0.37239 0.38332 0.0
C708 C 0.5243 0.37692 0.44744 0.0
N709 N 0.53442 0.39106 0.48547 0.0
C710 C 0.50452 0.37332 0.46086 0.0
C711 C 0.54926 0.38749 0.45342 0.0
C712 C 0.51002 0.38067 0.48 0.0
C713 C 0.55397 0.39456 0.4727 0.0
C714 C 0.44579 0.35492 0.40821 0.0
C715 C 0.40666 0.33099 0.39513 0.0
N716 N 0.39684 0.32755 0.41355 0.0
C717 C 0.43525 0.35131 0.42697 0.0
C718 C 0.43136 0.34482 0.39211 0.0
C719 C 0.4105 0.33735 0.42938 0.0
C720 C 0.47593 0.4117 0.4291 0.0
N721 N 0.49835 0.40894 0.43119 0.0
C722 C 0.51277 0.43675 0.45403 0.0
C723 C 0.51689 0.4214 0.44299 0.0
C724 C 0.48963 0.43986 0.45241 0.0
C725 C 0.47123 0.42723 0.43944 0.0
H726 H 0.46173 0.40194 0.41921 0.0
H727 H 0.53494 0.41951 0.44388 0.0
C728 C 0.487 0.32139 0.44008 0.0
N729 N 0.47517 0.32523 0.42404 0.0
C730 C 0.48119 0.30131 0.44678 0.0
C731 C 0.44999 0.28941 0.42105 0.0
C732 C 0.45626 0.30983 0.41494 0.0
C733 C 0.46327 0.28492 0.43671 0.0
H734 H 0.50239 0.33368 0.4468 0.0
H735 H 0.44748 0.31309 0.40196 0.0
C736 C 0.53228 0.41778 0.39451 0.0
N737 N 0.55004 0.45972 0.4015 0.0
C738 C 0.51809 0.42956 0.38862 0.0
C739 C 0.55558 0.42732 0.40384 0.0
C740 C 0.52737 0.45074 0.39233 0.0
C741 C 0.56422 0.44855 0.40725 0.0
C742 C 0.50486 0.33102 0.38495 0.0
C743 C 0.5194 0.32201 0.39546 0.0
C744 C 0.48568 0.31885 0.3725 0.0
C745 C 0.51433 0.30089 0.39347 0.0
C746 C 0.48129 0.29781 0.37085 0.0
N747 N 0.49556 0.28934 0.3813 0.0
C748 C 0.57905 0.36837 0.41163 0.0
C749 C 0.58079 0.3885 0.38323 0.0
C750 C 0.60381 0.36932 0.40844 0.0
N751 N 0.5681 0.37778 0.39901 0.0
C752 C 0.60558 0.38985 0.37947 0.0
C753 C 0.61731 0.37998 0.39204 0.0
H754 H 0.56835 0.35977 0.42395 0.0
H755 H 0.57149 0.39575 0.37343 0.0
C756 C 0.46701 0.38709 0.35551 0.0
N757 N 0.48092 0.37491 0.35806 0.0
C758 C 0.45976 0.3907 0.33671 0.0
C759 C 0.48043 0.36846 0.32372 0.0
C760 C 0.48764 0.36558 0.34271 0.0
C761 C 0.46665 0.38141 0.32055 0.0
H762 H 0.46201 0.39433 0.36806 0.0
H763 H 0.49915 0.35633 0.34516 0.0
O764 O 0.51932 0.36973 0.42867 0.0
O765 O 0.46994 0.36859 0.40556 0.0
O766 O 0.52323 0.39695 0.3915 0.0
O767 O 0.50909 0.35155 0.38711 0.0
H768 H 0.48515 0.36498 0.4565 0.0
H769 H 0.56479 0.39044 0.44321 0.0
H770 H 0.49488 0.37809 0.49051 0.0
H771 H 0.57318 0.40289 0.4775 0.0
H772 H 0.39531 0.32296 0.38284 0.0
H773 H 0.44606 0.35924 0.43953 0.0
H774 H 0.43921 0.34744 0.37749 0.0
H775 H 0.40214 0.33433 0.44384 0.0
H776 H 0.52753 0.44583 0.4639 0.0
H777 H 0.45341 0.42933 0.43714 0.0
H778 H 0.49228 0.29856 0.45865 0.0
H779 H 0.4361 0.27717 0.41285 0.0
H780 H 0.49997 0.42239 0.38147 0.0
H781 H 0.56668 0.41838 0.40865 0.0
H782 H 0.51651 0.46004 0.38798 0.0
H783 H 0.58214 0.45613 0.41456 0.0
H784 H 0.53413 0.33116 0.40529 0.0
H785 H 0.474 0.32549 0.36447 0.0
H786 H 0.52524 0.29367 0.40167 0.0
H787 H 0.46641 0.28818 0.36137 0.0
H788 H 0.61199 0.36126 0.41835 0.0
H789 H 0.61539 0.39844 0.36681 0.0
H790 H 0.44914 0.40077 0.33478 0.0
H791 H 0.48644 0.36132 0.31156 0.0
Li792 Li 0.08797 0.60819 0.91658 0.0
Li793 Li 0.13221 0.62056 0.90614 0.0
Li794 Li 0.11116 0.64452 0.91528 0.0
Li795 Li 0.10037 0.62467 0.88495 0.0
C796 C 0.12693 0.63385 0.94898 0.0
N797 N 0.14506 0.65559 0.98305 0.0
C798 C 0.15269 0.64028 0.95357 0.0
C799 C 0.11035 0.6383 0.9618 0.0
C800 C 0.16149 0.65129 0.97085 0.0
C801 C 0.1199 0.64936 0.97893 0.0
C802 C 0.11237 0.58345 0.89116 0.0
C803 C 0.14088 0.57023 0.87447 0.0
N804 N 0.13341 0.55352 0.88651 0.0
C805 C 0.10494 0.56611 0.90335 0.0
C806 C 0.13043 0.5855 0.87655 0.0
C807 C 0.11579 0.55116 0.90076 0.0
C808 C 0.04435 0.57243 0.91951 0.0
N809 N 0.06351 0.58618 0.92988 0.0
C810 C 0.05259 0.56477 0.95827 0.0
C811 C 0.06766 0.58289 0.94897 0.0
C812 C 0.03309 0.54991 0.94778 0.0
C813 C 0.02864 0.55419 0.92828 0.0
H814 H 0.04205 0.57515 0.90416 0.0
H815 H 0.0835 0.59381 0.95668 0.0
C816 C 0.18384 0.62775 0.89805 0.0
N817 N 0.16303 0.61569 0.90806 0.0
C818 C 0.20655 0.62424 0.8996 0.0
C819 C 0.18594 0.59605 0.9218 0.0
C820 C 0.16373 0.60023 0.91995 0.0
C821 C 0.2078 0.60816 0.91157 0.0
H822 H 0.18288 0.64022 0.88902 0.0
H823 H 0.14696 0.59111 0.92798 0.0
C824 C 0.05206 0.62266 0.90802 0.0
N825 N 0.00071 0.60691 0.9157 0.0
C826 C 0.03502 0.61198 0.89346 0.0
C827 C 0.04301 0.62551 0.92641 0.0
C828 C 0.00912 0.6041 0.89765 0.0
C829 C 0.01697 0.61737 0.93003 0.0
C830 C 0.13939 0.65733 0.87593 0.0
C831 C 0.13385 0.67531 0.87451 0.0
C832 C 0.14991 0.65083 0.85989 0.0
C833 C 0.13881 0.68644 0.85697 0.0
C834 C 0.15452 0.66235 0.84259 0.0
N835 N 0.14891 0.67977 0.84151 0.0
C836 C 0.14218 0.68146 0.93094 0.0
C837 C 0.10014 0.68017 0.92613 0.0
C838 C 0.15011 0.70216 0.93605 0.0
N839 N 0.11767 0.67098 0.92601 0.0
C840 C 0.1074 0.70112 0.93079 0.0
C841 C 0.1328 0.71239 0.93554 0.0
H842 H 0.15589 0.674 0.92983 0.0
H843 H 0.0809 0.67155 0.9216 0.0
C844 C 0.09392 0.61264 0.84508 0.0
N845 N 0.09031 0.62564 0.8586 0.0
C846 C 0.08841 0.61444 0.8254 0.0
C847 C 0.07457 0.64241 0.83408 0.0
C848 C 0.08047 0.64012 0.85358 0.0
C849 C 0.07889 0.62967 0.81963 0.0
H850 H 0.10161 0.60119 0.84951 0.0
H851 H 0.07769 0.65016 0.86472 0.0
O852 O 0.11798 0.62323 0.93203 0.0
O853 O 0.10226 0.59844 0.89365 0.0
O854 O 0.07748 0.63032 0.90427 0.0
O855 O 0.13402 0.6459 0.89278 0.0
H856 H 0.1658 0.63699 0.94381 0.0
H857 H 0.09036 0.63335 0.95851 0.0
H858 H 0.1814 0.65647 0.97453 0.0
H859 H 0.10731 0.65301 0.98894 0.0
H860 H 0.15503 0.57172 0.86334 0.0
H861 H 0.09112 0.56427 0.9148 0.0
H862 H 0.13672 0.59894 0.86718 0.0
H863 H 0.11028 0.53771 0.91013 0.0
H864 H 0.05707 0.562 0.97318 0.0
H865 H 0.01368 0.54329 0.9197 0.0
H866 H 0.22303 0.63426 0.89177 0.0
H867 H 0.18589 0.58337 0.93103 0.0
H868 H 0.04173 0.60961 0.87916 0.0
H869 H 0.05595 0.63387 0.93777 0.0
H870 H 0.99571 0.59569 0.88657 0.0
H871 H 0.0097 0.61937 0.94422 0.0
H872 H 0.12556 0.68052 0.88671 0.0
H873 H 0.1541 0.63685 0.86067 0.0
H874 H 0.1345 0.70033 0.85563 0.0
H875 H 0.16246 0.65741 0.83001 0.0
H876 H 0.17002 0.71041 0.93901 0.0
H877 H 0.09364 0.7086 0.92996 0.0
H878 H 0.0924 0.60447 0.81478 0.0
H879 H 0.06694 0.65415 0.83035 0.0
Li880 Li 0.58654 0.14389 0.41567 0.0
Li881 Li 0.62633 0.13955 0.42043 0.0
Li882 Li 0.60443 0.13256 0.38741 0.0
Li883 Li 0.5886 0.11001 0.41674 0.0
C884 C 0.62387 0.17962 0.40304 0.0
N885 N 0.63315 0.2214 0.40522 0.0
C886 C 0.62547 0.18917 0.42124 0.0
C887 C 0.62684 0.19131 0.38592 0.0
C888 C 0.6302 0.2103 0.42206 0.0
C889 C 0.63157 0.21242 0.38734 0.0
C890 C 0.60691 0.13528 0.45618 0.0
C891 C 0.6316 0.12922 0.48268 0.0
N892 N 0.62873 0.14505 0.49284 0.0
C893 C 0.60409 0.15141 0.46695 0.0
C894 C 0.62066 0.12401 0.46416 0.0
C895 C 0.6153 0.15614 0.48543 0.0
C896 C 0.54941 0.15202 0.43795 0.0
N897 N 0.56485 0.15856 0.42215 0.0
C898 C 0.54675 0.18387 0.4148 0.0
C899 C 0.56349 0.17391 0.41041 0.0
C900 C 0.53066 0.17761 0.43115 0.0
C901 C 0.53208 0.16134 0.44274 0.0
H902 H 0.55026 0.13927 0.44665 0.0
H903 H 0.57511 0.17826 0.39744 0.0
C904 C 0.67655 0.14175 0.42478 0.0
N905 N 0.65949 0.14975 0.43164 0.0
C906 C 0.70158 0.14939 0.43138 0.0
C907 C 0.69085 0.17292 0.45247 0.0
C908 C 0.66615 0.165 0.4453 0.0
C909 C 0.70902 0.16533 0.44526 0.0
H910 H 0.67089 0.12977 0.41378 0.0
H911 H 0.6525 0.17132 0.45046 0.0
C912 C 0.54651 0.1212 0.39515 0.0
N913 N 0.49958 0.12453 0.39134 0.0
C914 C 0.52691 0.11056 0.40797 0.0
C915 C 0.54223 0.13339 0.38029 0.0
C916 C 0.50331 0.11247 0.40582 0.0
C917 C 0.51837 0.13491 0.37863 0.0
C918 C 0.62138 0.09662 0.39995 0.0
C919 C 0.61374 0.08616 0.38223 0.0
C920 C 0.62878 0.08693 0.41547 0.0
C921 C 0.61333 0.06603 0.38042 0.0
C922 C 0.62806 0.06678 0.41309 0.0
N923 N 0.6204 0.05682 0.39576 0.0
C924 C 0.6293 0.14867 0.35226 0.0
C925 C 0.58946 0.12161 0.34852 0.0
C926 C 0.63154 0.15149 0.33201 0.0
N927 N 0.60828 0.1342 0.36002 0.0
C928 C 0.59109 0.12368 0.32818 0.0
C929 C 0.61215 0.13902 0.31977 0.0
H930 H 0.64402 0.15832 0.36184 0.0
H931 H 0.57297 0.11025 0.35519 0.0
C932 C 0.56805 0.07947 0.4445 0.0
N933 N 0.57068 0.08265 0.42489 0.0
C934 C 0.5541 0.06007 0.45186 0.0
C935 C 0.54534 0.0474 0.41864 0.0
C936 C 0.55956 0.0672 0.41189 0.0
C937 C 0.54254 0.0437 0.4389 0.0
H938 H 0.57625 0.09213 0.45449 0.0
H939 H 0.56146 0.07033 0.39634 0.0
O940 O 0.61895 0.15888 0.40193 0.0
O941 O 0.59602 0.13037 0.43805 0.0
O942 O 0.56992 0.12002 0.39739 0.0
O943 O 0.62148 0.11619 0.40212 0.0
H944 H 0.62247 0.18027 0.43457 0.0
H945 H 0.62529 0.18416 0.37168 0.0
H946 H 0.63135 0.21785 0.43607 0.0
H947 H 0.6339 0.22165 0.37421 0.0
H948 H 0.64241 0.1207 0.48896 0.0
H949 H 0.59355 0.16034 0.46108 0.0
H950 H 0.62303 0.11147 0.45607 0.0
H951 H 0.61336 0.16865 0.49387 0.0
H952 H 0.54667 0.19647 0.40552 0.0
H953 H 0.51973 0.15567 0.45523 0.0
H954 H 0.71509 0.14321 0.42541 0.0
H955 H 0.69593 0.18551 0.46287 0.0
H956 H 0.53 0.10112 0.41959 0.0
H957 H 0.5573 0.14183 0.37034 0.0
H958 H 0.488 0.10445 0.41571 0.0
H959 H 0.51482 0.14441 0.3673 0.0
H960 H 0.608 0.09344 0.37007 0.0
H961 H 0.6349 0.09487 0.42923 0.0
H962 H 0.60733 0.0577 0.36682 0.0
H963 H 0.63358 0.05905 0.42502 0.0
H964 H 0.64816 0.16335 0.32599 0.0
H965 H 0.5757 0.11388 0.31918 0.0
H966 H 0.55176 0.05809 0.46757 0.0
H967 H 0.53659 0.03519 0.40819 0.0
Li968 Li 0.50011 0.63544 0.90219 0.0
Li969 Li 0.49387 0.59927 0.91189 0.0
Li970 Li 0.49929 0.61165 0.87709 0.0
Li971 Li 0.46123 0.6075 0.89439 0.0
C972 C 0.54483 0.63452 0.90785 0.0
N973 N 0.58583 0.66363 0.926 0.0
C974 C 0.55091 0.63156 0.92719 0.0
C975 C 0.55965 0.65224 0.89771 0.0
C976 C 0.57172 0.64647 0.93611 0.0
C977 C 0.58028 0.66679 0.90715 0.0
C978 C 0.45623 0.61996 0.93064 0.0
C979 C 0.42023 0.60812 0.95239 0.0
N980 N 0.41566 0.62571 0.94886 0.0
C981 C 0.45111 0.6379 0.9272 0.0
C982 C 0.44062 0.60492 0.94332 0.0
C983 C 0.43055 0.64054 0.93657 0.0
C984 C 0.50904 0.6772 0.89789 0.0
N985 N 0.51215 0.66336 0.91069 0.0
C986 C 0.52043 0.68784 0.93677 0.0
C987 C 0.51844 0.66842 0.92973 0.0
C988 C 0.51547 0.70193 0.92412 0.0
C989 C 0.51069 0.69661 0.90427 0.0
H990 H 0.5031 0.67263 0.88308 0.0
H991 H 0.52015 0.65692 0.93973 0.0
C992 C 0.51002 0.56748 0.92136 0.0
N993 N 0.49965 0.58047 0.92936 0.0
C994 C 0.50959 0.55003 0.93162 0.0
C995 C 0.4894 0.56048 0.95869 0.0
C996 C 0.49037 0.57783 0.94792 0.0
C997 C 0.49818 0.54589 0.9502 0.0
H998 H 0.51716 0.57001 0.90651 0.0
H999 H 0.48254 0.58859 0.95395 0.0
C1000 C 0.48244 0.6362 0.85825 0.0
N1001 N 0.48687 0.6461 0.81883 0.0
C1002 C 0.46172 0.62776 0.84571 0.0
C1003 C 0.5054 0.64973 0.85069 0.0
C1004 C 0.46434 0.63297 0.82585 0.0
C1005 C 0.50727 0.6545 0.83074 0.0
C1006 C 0.45374 0.56869 0.88444 0.0
C1007 C 0.43842 0.56832 0.86827 0.0
C1008 C 0.44724 0.55159 0.89691 0.0
C1009 C 0.41679 0.55089 0.86489 0.0
C1010 C 0.42548 0.53444 0.893 0.0
N1011 N 0.41083 0.53445 0.87721 0.0
C1012 C 0.53954 0.61666 0.85053 0.0
C1013 C 0.49851 0.59988 0.83738 0.0
C1014 C 0.55044 0.61715 0.8321 0.0
N1015 N 0.51396 0.6086 0.85269 0.0
C1016 C 0.50851 0.60035 0.81867 0.0
C1017 C 0.53481 0.60945 0.81571 0.0
H1018 H 0.55143 0.62329 0.86301 0.0
H1019 H 0.47829 0.59354 0.83945 0.0
C1020 C 0.41663 0.61544 0.88713 0.0
N1021 N 0.42534 0.60101 0.89434 0.0
C1022 C 0.3914 0.61335 0.88984 0.0
C1023 C 0.38444 0.58151 0.90728 0.0
C1024 C 0.40978 0.58418 0.90416 0.0
C1025 C 0.3751 0.59641 0.90038 0.0
H1026 H 0.42962 0.62919 0.88024 0.0
H1027 H 0.41733 0.57342 0.91059 0.0
O1028 O 0.52428 0.62028 0.899 0.0
O1029 O 0.47586 0.61684 0.92114 0.0
O1030 O 0.48039 0.63106 0.87773 0.0
O1031 O 0.47503 0.58561 0.88802 0.0
H1032 H 0.53958 0.61798 0.93527 0.0
H1033 H 0.55513 0.65481 0.88277 0.0
H1034 H 0.5766 0.64442 0.95109 0.0
H1035 H 0.59184 0.68062 0.89952 0.0
H1036 H 0.4079 0.59654 0.96211 0.0
H1037 H 0.46249 0.64949 0.91709 0.0
H1038 H 0.44378 0.59068 0.94577 0.0
H1039 H 0.42633 0.6543 0.93395 0.0
H1040 H 0.52434 0.6913 0.95216 0.0
H1041 H 0.50604 0.70658 0.89399 0.0
H1042 H 0.51711 0.53944 0.92472 0.0
H1043 H 0.48047 0.55791 0.97297 0.0
H1044 H 0.4439 0.61706 0.85115 0.0
H1045 H 0.52176 0.65619 0.86007 0.0
H1046 H 0.44849 0.62647 0.81599 0.0
H1047 H 0.52498 0.6648 0.82469 0.0
H1048 H 0.44282 0.58152 0.8587 0.0
H1049 H 0.45872 0.55157 0.90955 0.0
H1050 H 0.40468 0.55049 0.85251 0.0
H1051 H 0.42021 0.52113 0.90255 0.0
H1052 H 0.57083 0.62392 0.83066 0.0
H1053 H 0.49553 0.59454 0.80657 0.0
H1054 H 0.38509 0.62543 0.88467 0.0
H1055 H 0.3725 0.56826 0.91552 0.0
H1056 H 0.60413 0.1103 0.29068 0.0
H1057 H 0.62251 0.17566 0.30081 0.0
H1058 H 0.62247 0.18152 0.26507 0.0
H1059 H 0.64309 0.11616 0.2472 0.0
H1060 H 0.62089 0.09384 0.23525 0.0
H1061 H 0.6227 0.09491 0.2616 0.0
H1062 H 0.57467 0.08835 0.26343 0.0
H1063 H 0.57273 0.08733 0.2371 0.0
H1064 H 0.56228 0.1052 0.25038 0.0
H1065 H 0.61809 0.1799 0.2285 0.0
H1066 H 0.61284 0.17131 0.1932 0.0
H1067 H 0.59903 0.10725 0.20687 0.0
C1068 C 0.60819 0.12583 0.28532 0.0
C1069 C 0.61331 0.14255 0.29839 0.0
C1070 C 0.61876 0.1627 0.29094 0.0
C1071 C 0.61866 0.16615 0.27072 0.0
C1072 C 0.61334 0.1493 0.25821 0.0
C1073 C 0.60849 0.12957 0.26518 0.0
C1074 C 0.60356 0.11418 0.2486 0.0
C1075 C 0.62377 0.10419 0.24814 0.0
C1076 C 0.57672 0.0978 0.24996 0.0
C1077 C 0.6061 0.1283 0.23122 0.0
C1078 C 0.61158 0.14847 0.23709 0.0
C1079 C 0.61399 0.1642 0.2237 0.0
C1080 C 0.61085 0.15918 0.20375 0.0
C1081 C 0.60562 0.13867 0.19745 0.0
C1082 C 0.60328 0.12308 0.21136 0.0
H1083 H 0.52249 0.59267 0.70137 0.0
H1084 H 0.58351 0.65194 0.69501 0.0
H1085 H 0.59159 0.65257 0.73058 0.0
H1086 H 0.49781 0.60318 0.74347 0.0
H1087 H 0.48995 0.57811 0.75457 0.0
H1088 H 0.49161 0.58062 0.72836 0.0
H1089 H 0.52455 0.56268 0.72713 0.0
H1090 H 0.52282 0.55992 0.75342 0.0
H1091 H 0.55297 0.57266 0.74168 0.0
H1092 H 0.58832 0.64939 0.76703 0.0
H1093 H 0.57474 0.64232 0.80134 0.0
H1094 H 0.51815 0.5837 0.7839 0.0
C1095 C 0.53819 0.60542 0.7073 0.0
C1096 C 0.55237 0.62225 0.69538 0.0
C1097 C 0.57222 0.63897 0.70387 0.0
C1098 C 0.57711 0.63938 0.72404 0.0
C1099 C 0.56226 0.62281 0.73545 0.0
C1100 C 0.54343 0.606 0.72734 0.0
C1101 C 0.52866 0.59107 0.74298 0.0
C1102 C 0.50035 0.58809 0.7423 0.0
C1103 C 0.53249 0.57035 0.74119 0.0
C1104 C 0.54131 0.60259 0.7612 0.0
C1105 C 0.56085 0.62073 0.75656 0.0
C1106 C 0.57355 0.63495 0.77089 0.0
C1107 C 0.56575 0.63071 0.79042 0.0
C1108 C 0.54542 0.61235 0.7955 0.0
C1109 C 0.53366 0.59791 0.78063 0.0
H1110 H 0.93765 0.39872 0.20839 0.0
H1111 H 0.94267 0.33994 0.19204 0.0
H1112 H 0.94804 0.33275 0.22673 0.0
H1113 H 0.98099 0.40994 0.25078 0.0
H1114 H 0.96149 0.42036 0.26487 0.0
H1115 H 0.96224 0.42248 0.23854 0.0
H1116 H 0.9134 0.40452 0.23737 0.0
H1117 H 0.91249 0.40236 0.26363 0.0
H1118 H 0.89877 0.37962 0.24876 0.0
H1119 H 0.94831 0.33019 0.26339 0.0
H1120 H 0.94264 0.33228 0.29909 0.0
H1121 H 0.93445 0.39154 0.29138 0.0
C1122 C 0.94014 0.38441 0.21201 0.0
C1123 C 0.93994 0.37001 0.19733 0.0
C1124 C 0.94338 0.35151 0.20285 0.0
C1125 C 0.9463 0.3472 0.22258 0.0
C1126 C 0.94572 0.3615 0.23667 0.0
C1127 C 0.94275 0.37974 0.23163 0.0
C1128 C 0.94033 0.39161 0.24962 0.0
C1129 C 0.96259 0.41232 0.25103 0.0
C1130 C 0.91473 0.39469 0.24985 0.0
C1131 C 0.94172 0.37692 0.26556 0.0
C1132 C 0.94521 0.35979 0.25782 0.0
C1133 C 0.94579 0.34362 0.26964 0.0
C1134 C 0.94236 0.34488 0.28988 0.0
C1135 C 0.93814 0.36208 0.29808 0.0
C1136 C 0.9382 0.37839 0.28569 0.0
H1137 H 0.4313 0.88878 0.79549 0.0
H1138 H 0.38922 0.92923 0.80401 0.0
H1139 H 0.39216 0.93701 0.76843 0.0
H1140 H 0.47287 0.91764 0.75532 0.0
H1141 H 0.47087 0.89437 0.74264 0.0
H1142 H 0.46857 0.89442 0.76898 0.0
H1143 H 0.42553 0.86392 0.76729 0.0
H1144 H 0.42767 0.8638 0.74101 0.0
H1145 H 0.40033 0.86637 0.75255 0.0
H1146 H 0.39742 0.93849 0.73172 0.0
H1147 H 0.40125 0.93131 0.69658 0.0
H1148 H 0.43792 0.88843 0.71219 0.0
C1149 C 0.4233 0.89968 0.78987 0.0
C1150 C 0.41042 0.90873 0.80235 0.0
C1151 C 0.39936 0.92235 0.79456 0.0
C1152 C 0.40105 0.9269 0.77445 0.0
C1153 C 0.41366 0.91751 0.76243 0.0
C1154 C 0.42444 0.90407 0.76985 0.0
C1155 C 0.43454 0.89432 0.75366 0.0
C1156 C 0.46343 0.90057 0.75525 0.0
C1157 C 0.42121 0.87071 0.75363 0.0
C1158 C 0.42728 0.90402 0.73593 0.0
C1159 C 0.41574 0.91768 0.74128 0.0
C1160 C 0.40664 0.92797 0.72737 0.0
C1161 C 0.40897 0.92388 0.70748 0.0
C1162 C 0.41991 0.90937 0.70179 0.0
C1163 C 0.4295 0.89961 0.71621 0.0
H1164 H 0.44566 0.3542 0.29092 0.0
H1165 H 0.47636 0.41944 0.30456 0.0
H1166 H 0.47323 0.4277 0.26964 0.0
H1167 H 0.47814 0.3564 0.24849 0.0
H1168 H 0.45301 0.33726 0.23524 0.0
H1169 H 0.45364 0.33645 0.26154 0.0
H1170 H 0.40842 0.33759 0.26301 0.0
H1171 H 0.40754 0.33825 0.23662 0.0
H1172 H 0.40184 0.35806 0.2507 0.0
H1173 H 0.47428 0.42866 0.23297 0.0
H1174 H 0.4771 0.42241 0.19778 0.0
H1175 H 0.44165 0.35645 0.20797 0.0
C1176 C 0.45108 0.3702 0.28657 0.0
C1177 C 0.46115 0.3862 0.30034 0.0
C1178 C 0.46827 0.40698 0.29422 0.0
C1179 C 0.4666 0.4118 0.27443 0.0
C1180 C 0.45725 0.39565 0.26109 0.0
C1181 C 0.44914 0.37525 0.26696 0.0
C1182 C 0.44165 0.3608 0.24959 0.0
C1183 C 0.45757 0.34693 0.24867 0.0
C1184 C 0.41317 0.34792 0.25001 0.0
C1185 C 0.44813 0.37626 0.23298 0.0
C1186 C 0.45688 0.39627 0.23989 0.0
C1187 C 0.46672 0.41308 0.22734 0.0
C1188 C 0.46809 0.40934 0.20726 0.0
C1189 C 0.45954 0.3889 0.19983 0.0
C1190 C 0.44865 0.37228 0.21297 0.0
H1191 H 0.06012 0.59774 0.70721 0.0
H1192 H 0.08936 0.66305 0.69385 0.0
H1193 H 0.08689 0.6711 0.72888 0.0
H1194 H 0.01783 0.59997 0.7491 0.0
H1195 H 0.02547 0.58081 0.76279 0.0
H1196 H 0.0251 0.58007 0.73638 0.0
H1197 H 0.07116 0.58073 0.73642 0.0
H1198 H 0.07177 0.58167 0.76274 0.0
H1199 H 0.0955 0.60135 0.74886 0.0
H1200 H 0.08695 0.67224 0.76517 0.0
H1201 H 0.08967 0.66651 0.80056 0.0
H1202 H 0.06016 0.60032 0.79087 0.0
C1203 C 0.0651 0.61366 0.71168 0.0
C1204 C 0.07456 0.62982 0.698 0.0
C1205 C 0.08183 0.65053 0.70425 0.0
C1206 C 0.08042 0.65522 0.72405 0.0
C1207 C 0.07172 0.63899 0.73735 0.0
C1208 C 0.06404 0.61861 0.73147 0.0
C1209 C 0.05815 0.60422 0.74896 0.0
C1210 C 0.02996 0.59045 0.74933 0.0
C1211 C 0.07517 0.59124 0.74925 0.0
C1212 C 0.06464 0.61973 0.76554 0.0
C1213 C 0.07202 0.63967 0.75851 0.0
C1214 C 0.08066 0.65669 0.77091 0.0
C1215 C 0.08204 0.65326 0.79103 0.0
C1216 C 0.07493 0.63296 0.79857 0.0
C1217 C 0.06574 0.61603 0.78559 0.0
H1218 H 0.51892 0.03093 0.02491 0.0
H1219 H 0.54035 0.99664 0.07037 0.0
H1220 H 0.51145 0.964 0.05592 0.0
H1221 H 0.45345 -0.0024 0.02014 0.0
H1222 H 0.4534 0.00057 0.99391 0.0
H1223 H 0.47404 0.02112 0.00886 0.0
H1224 H 0.51287 0.02092 0.98881 0.0
H1225 H 0.49235 0.00052 0.97371 0.0
H1226 H 0.51864 0.99718 0.98624 0.0
H1227 H 0.48136 0.93514 0.03543 0.0
H1228 H 0.45448 0.9125 0.00994 0.0
H1229 H 0.45591 0.96644 0.97711 0.0
C1230 C 0.51777 0.01659 0.03182 0.0
C1231 C 0.53203 0.01634 0.04872 0.0
C1232 C 0.52944 -0.00278 0.05751 0.0
C1233 C 0.51311 0.97862 0.04939 0.0
C1234 C 0.49958 0.9795 0.03256 0.0
C1235 C 0.50187 -0.00197 0.02386 0.0
C1236 C 0.48649 0.99492 0.00527 0.0
C1237 C 0.46561 0.00409 0.00717 0.0
C1238 C 0.50361 0.00391 0.98746 0.0
C1239 C 0.47545 0.97168 0.00462 0.0
C1240 C 0.4829 0.96303 0.0206 0.0
C1241 C 0.47544 0.94176 0.02286 0.0
C1242 C 0.46032 0.92904 0.00823 0.0
C1243 C 0.45314 0.93768 0.99145 0.0
C1244 C 0.46062 0.95929 0.98987 0.0
H1245 H 0.52588 0.54223 0.51676 0.0
H1246 H 0.44557 0.52539 0.529 0.0
H1247 H 0.43618 0.495 0.50775 0.0
H1248 H 0.51718 0.52708 0.46493 0.0
H1249 H 0.54327 0.51803 0.46507 0.0
H1250 H 0.54368 0.53872 0.48111 0.0
H1251 H 0.55006 0.51802 0.51094 0.0
H1252 H 0.54944 0.49721 0.49504 0.0
H1253 H 0.52768 0.49235 0.51533 0.0
H1254 H 0.43577 0.465 0.48749 0.0
H1255 H 0.44399 0.43876 0.46744 0.0
H1256 H 0.52388 0.47735 0.46501 0.0
C1257 C 0.50626 0.53241 0.51474 0.0
C1258 C 0.48655 0.53611 0.5249 0.0
C1259 C 0.46115 0.52263 0.52191 0.0
C1260 C 0.45555 0.5054 0.50969 0.0
C1261 C 0.47546 0.50205 0.50022 0.0
C1262 C 0.50025 0.51533 0.50232 0.0
C1263 C 0.5181 0.50816 0.49044 0.0
C1264 C 0.53133 0.52394 0.47443 0.0
C1265 C 0.53745 0.50367 0.50374 0.0
C1266 C 0.49948 0.48854 0.4817 0.0
C1267 C 0.47502 0.48528 0.48759 0.0
C1268 C 0.45478 0.46758 0.4824 0.0
C1269 C 0.45967 0.45281 0.47083 0.0
C1270 C 0.48459 0.45592 0.46431 0.0
C1271 C 0.50463 0.47422 0.46978 0.0
H1272 H 0.0168 0.54146 0.98587 0.0
H1273 H 0.01797 0.51207 0.92992 0.0
H1274 H 0.99668 0.47801 0.94505 0.0
H1275 H 0.03144 0.50453 0.01494 0.0
H1276 H 0.0113 0.50555 0.03505 0.0
H1277 H 0.02524 0.52779 0.01961 0.0
H1278 H 0.98072 0.52864 0.01217 0.0
H1279 H 0.96665 0.5065 0.02772 0.0
H1280 H 0.95641 0.50589 0.00264 0.0
H1281 H 0.97603 0.44711 0.96634 0.0
H1282 H 0.95696 0.42151 0.99245 0.0
H1283 H 0.97121 0.47102 0.03467 0.0
C1284 C 0.01262 0.52789 0.97678 0.0
C1285 C 0.01891 0.52951 0.95666 0.0
C1286 C 0.01286 0.51131 0.94526 0.0
C1287 C 0.00098 0.49186 0.95376 0.0
C1288 C 0.99541 0.49084 0.97367 0.0
C1289 C 0.00099 0.50835 0.98504 0.0
C1290 C 0.99351 0.503 0.00619 0.0
C1291 C 0.01676 0.51067 0.01974 0.0
C1292 C 0.97311 0.51151 0.01255 0.0
C1293 C 0.98293 0.47973 0.00495 0.0
C1294 C 0.9841 0.47302 0.98605 0.0
C1295 C 0.97504 0.45216 0.9812 0.0
C1296 C 0.96425 0.43777 0.99608 0.0
C1297 C 0.96282 0.44436 0.01551 0.0
C1298 C 0.97247 0.46559 0.01998 0.0
H1299 H 0.55296 0.0239 0.47032 0.0
H1300 H 0.4959 0.01804 0.42595 0.0
H1301 H 0.46674 0.98709 0.44283 0.0
H1302 H 0.53657 0.96811 0.48053 0.0
H1303 H 0.54238 0.97278 0.50638 0.0
H1304 H 0.56004 0.99197 0.48884 0.0
H1305 H 0.54572 0.01905 0.50626 0.0
H1306 H 0.52783 -4e-05 0.52368 0.0
H1307 H 0.51238 0.01387 0.50947 0.0
H1308 H 0.44204 0.95977 0.46705 0.0
H1309 H 0.42451 0.93753 0.4958 0.0
H1310 H 0.49746 0.96307 0.52479 0.0
C1311 C 0.5345 0.01587 0.46393 0.0
C1312 C 0.52666 0.02333 0.44685 0.0
C1313 C 0.50241 0.01239 0.43888 0.0
C1314 C 0.48569 0.99488 0.44842 0.0
C1315 C 0.49367 0.9885 0.46576 0.0
C1316 C 0.51763 -0.00142 0.47331 0.0
C1317 C 0.5209 0.99001 0.49305 0.0
C1318 C 0.54117 0.98012 0.49213 0.0
C1319 C 0.52705 0.00671 0.50905 0.0
C1320 C 0.49478 0.97394 0.49575 0.0
C1321 C 0.47939 0.97308 0.4798 0.0
C1322 C 0.45401 0.96014 0.47952 0.0
C1323 C 0.44416 0.94775 0.49598 0.0
C1324 C 0.45965 0.94856 0.51251 0.0
C1325 C 0.48528 0.96178 0.51224 0.0
H1326 H 0.5022 0.53785 0.98941 0.0
H1327 H 0.48273 0.50809 0.93265 0.0
H1328 H 0.47407 0.47428 0.94817 0.0
H1329 H 0.53314 0.50541 0.00838 0.0
H1330 H 0.52124 0.50484 0.03295 0.0
H1331 H 0.52545 0.52679 0.01745 0.0
H1332 H 0.4784 0.52227 0.02267 0.0
H1333 H 0.47401 0.50021 0.0381 0.0
H1334 H 0.45393 0.49786 0.01705 0.0
H1335 H 0.4691 0.44396 0.96929 0.0
H1336 H 0.46873 0.41885 0.99507 0.0
H1337 H 0.48963 0.46774 0.03837 0.0
C1338 C 0.49593 0.52421 0.98028 0.0
C1339 C 0.49343 0.52567 0.95978 0.0
C1340 C 0.48536 0.50744 0.94832 0.0
C1341 C 0.48011 0.48812 0.95701 0.0
C1342 C 0.48279 0.48723 0.97721 0.0
C1343 C 0.49049 0.50473 0.98873 0.0
C1344 C 0.4924 0.49944 0.01007 0.0
C1345 C 0.51968 0.50973 0.01765 0.0
C1346 C 0.47356 0.50529 0.02272 0.0
C1347 C 0.48489 0.47626 0.00864 0.0
C1348 C 0.47935 0.46955 0.98955 0.0
C1349 C 0.47314 0.44895 0.98434 0.0
C1350 C 0.47301 0.43484 -0.00098 0.0
C1351 C 0.4789 0.44142 0.01862 0.0
C1352 C 0.48454 0.46232 0.02353 0.0
H1353 H 0.9892 0.45053 0.48014 0.0
H1354 H 0.95182 0.47694 0.43817 0.0
H1355 H 0.9661 0.50952 0.45679 0.0
H1356 H 0.97396 0.47341 0.52282 0.0
H1357 H 0.00392 0.47801 0.53475 0.0
H1358 H 0.99151 0.45687 0.51784 0.0
H1359 H 0.03275 0.47089 0.49732 0.0
H1360 H 0.0454 0.49193 0.5143 0.0
H1361 H 0.04361 0.49712 0.48858 0.0
H1362 H 0.98296 0.53866 0.48046 0.0
H1363 H 0.00405 0.56351 0.50653 0.0
H1364 H 0.03083 0.51829 0.53292 0.0
C1365 C 0.98409 0.4632 0.47486 0.0
C1366 C 0.96952 0.46126 0.45766 0.0
C1367 C 0.96334 0.47821 0.45113 0.0
C1368 C 0.97115 0.49671 0.46169 0.0
C1369 C 0.98516 0.498 0.47872 0.0
C1370 C 0.9918 0.4818 0.48518 0.0
C1371 C 0.00711 0.48728 0.50391 0.0
C1372 C 0.99329 0.47305 0.52083 0.0
C1373 C 0.0338 0.48678 0.50083 0.0
C1374 C 0.00793 0.50906 0.50699 0.0
C1375 C 0.99506 0.5149 0.49233 0.0
C1376 C 0.99323 0.53433 0.49197 0.0
C1377 C 0.00531 0.54833 0.5068 0.0
C1378 C 0.01913 0.54285 0.52172 0.0
C1379 C 0.02013 0.52284 0.52188 0.0
H1380 H 0.50588 0.18292 0.08556 0.0
H1381 H 0.52657 0.18941 0.02414 0.0
H1382 H 0.5056 0.21488 0.02017 0.0
H1383 H 0.44418 0.19179 0.08089 0.0
H1384 H 0.45005 0.20625 0.10343 0.0
H1385 H 0.46165 0.18545 0.10035 0.0
H1386 H 0.50715 0.21038 0.10845 0.0
H1387 H 0.49575 0.23115 0.11153 0.0
H1388 H 0.52087 0.23371 0.09434 0.0
H1389 H 0.48812 0.24307 0.02414 0.0
H1390 H 0.47889 0.27317 0.03613 0.0
H1391 H 0.47035 0.24847 0.09508 0.0
C1392 C 0.5051 0.18909 0.0711 0.0
C1393 C 0.51743 0.18401 0.05507 0.0
C1394 C 0.51703 0.19305 0.03655 0.0
C1395 C 0.505 0.20737 0.03416 0.0
C1396 C 0.49349 0.21243 0.05042 0.0
C1397 C 0.49345 0.20351 0.06855 0.0
C1398 C 0.48317 0.21361 0.08432 0.0
C1399 C 0.45828 0.19836 0.09274 0.0
C1400 C 0.50292 0.22276 0.1006 0.0
C1401 C 0.47859 0.23029 0.07245 0.0
C1402 C 0.48395 0.22903 0.05283 0.0
C1403 C 0.48333 0.24394 0.03937 0.0
C1404 C 0.47795 0.26093 0.04628 0.0
C1405 C 0.47371 0.26294 0.06647 0.0
C1406 C 0.47322 0.24709 0.07953 0.0
H1407 H 0.34911 0.61441 0.61369 0.0
H1408 H 0.36753 0.61565 0.55186 0.0
H1409 H 0.32393 0.6124 0.54338 0.0
H1410 H 0.28433 0.57706 0.6096 0.0
H1411 H 0.27212 0.58973 0.62787 0.0
H1412 H 0.30453 0.59123 0.62917 0.0
H1413 H 0.31981 0.63113 0.62946 0.0
H1414 H 0.28749 0.62976 0.62816 0.0
H1415 H 0.31008 0.64425 0.61005 0.0
H1416 H 0.27914 0.61049 0.54149 0.0
H1417 H 0.23575 0.61007 0.54638 0.0
H1418 H 0.24615 0.60993 0.60938 0.0
C1419 C 0.34385 0.61371 0.59838 0.0
C1420 C 0.36175 0.6154 0.58344 0.0
C1421 C 0.35423 0.6147 0.56356 0.0
C1422 C 0.32947 0.6127 0.55858 0.0
C1423 C 0.31238 0.61132 0.57365 0.0
C1424 C 0.31916 0.61174 0.59314 0.0
C1425 C 0.29732 0.61069 0.60645 0.0
C1426 C 0.28909 0.591 0.61901 0.0
C1427 C 0.30409 0.63012 0.61928 0.0
C1428 C 0.27734 0.60988 0.59137 0.0
C1429 C 0.2864 0.61016 0.57255 0.0
C1430 C 0.27176 0.61017 0.55615 0.0
C1431 C 0.24722 0.61006 0.55908 0.0
C1432 C 0.23759 0.60996 0.57824 0.0
C1433 C 0.25285 0.60969 0.59456 0.0
H1434 H 0.84126 0.24399 0.08127 0.0
H1435 H 0.83425 0.27241 0.02609 0.0
H1436 H 0.8034 0.2394 0.01473 0.0
H1437 H 0.82404 0.18815 0.06219 0.0
H1438 H 0.80611 0.17837 0.08418 0.0
H1439 H 0.83427 0.2013 0.08516 0.0
H1440 H 0.80838 0.22123 0.10107 0.0
H1441 H 0.78035 0.19856 0.10008 0.0
H1442 H 0.7806 0.22204 0.08869 0.0
H1443 H 0.7657 0.20747 0.01282 0.0
H1444 H 0.72443 0.18082 0.02124 0.0
H1445 H 0.7536 0.17331 0.07819 0.0
C1446 C 0.83387 0.24307 0.06653 0.0
C1447 C 0.84021 0.26083 0.05463 0.0
C1448 C 0.83015 0.259 0.03542 0.0
C1449 C 0.8125 0.24023 0.02881 0.0
C1450 C 0.80521 0.22337 0.04151 0.0
C1451 C 0.81584 0.22458 0.05995 0.0
C1452 C 0.80134 0.20597 0.07229 0.0
C1453 C 0.8174 0.19265 0.07617 0.0
C1454 C 0.79212 0.21235 0.09164 0.0
C1455 C 0.77957 0.19511 0.05863 0.0
C1456 C 0.78269 0.20485 0.04061 0.0
C1457 C 0.7634 0.19931 0.02662 0.0
C1458 C 0.74002 0.18415 0.03148 0.0
C1459 C 0.73608 0.17507 0.05031 0.0
C1460 C 0.75643 0.17991 0.06362 0.0
H1461 H 0.48531 0.79583 0.60327 0.0
H1462 H 0.49076 0.81806 0.54335 0.0
H1463 H 0.51573 0.79671 0.53455 0.0
H1464 H 0.54776 0.79069 0.60587 0.0
H1465 H 0.53567 0.76721 0.61994 0.0
H1466 H 0.52138 0.78645 0.62224 0.0
H1467 H 0.47745 0.75918 0.61331 0.0
H1468 H 0.49167 0.73996 0.61137 0.0
H1469 H 0.47412 0.74455 0.59101 0.0
H1470 H 0.5359 0.77001 0.53137 0.0
H1471 H 0.54796 0.73925 0.53397 0.0
H1472 H 0.52798 0.73403 0.59561 0.0
C1473 C 0.49186 0.79635 0.58831 0.0
C1474 C 0.48614 0.80876 0.57405 0.0
C1475 C 0.49528 0.80902 0.55467 0.0
C1476 C 0.50945 0.7969 0.5495 0.0
C1477 C 0.51443 0.78464 0.56387 0.0
C1478 C 0.50587 0.78428 0.58288 0.0
C1479 C 0.51174 0.76844 0.59515 0.0
C1480 C 0.53024 0.77883 0.61178 0.0
C1481 C 0.48729 0.75207 0.60316 0.0
C1482 C 0.5242 0.75948 0.57991 0.0
C1483 C 0.52596 0.76922 0.56202 0.0
C1484 C 0.535 0.76248 0.54538 0.0
C1485 C 0.54175 0.745 0.54697 0.0
C1486 C 0.53929 0.73444 0.56504 0.0
C1487 C 0.53095 0.74216 0.58175 0.0
H1488 H 0.64665 0.37475 0.08395 0.0
H1489 H 0.65329 0.42035 0.1291 0.0
H1490 H 0.69843 0.42527 0.13338 0.0
H1491 H 0.6851 0.35106 0.10739 0.0
H1492 H 0.69918 0.34652 0.08502 0.0
H1493 H 0.66787 0.34758 0.08464 0.0
H1494 H 0.68214 0.37634 0.05828 0.0
H1495 H 0.71349 0.37533 0.05853 0.0
H1496 H 0.7092 0.39941 0.06295 0.0
H1497 H 0.74236 0.42399 0.13377 0.0
H1498 H 0.78179 0.41679 0.13007 0.0
H1499 H 0.74607 0.37186 0.08482 0.0
C1500 C 0.65755 0.38576 0.09477 0.0
C1501 C 0.64641 0.39718 0.10618 0.0
C1502 C 0.66148 0.41163 0.11999 0.0
C1503 C 0.6871 0.41445 0.12261 0.0
C1504 C 0.69736 0.40275 0.11127 0.0
C1505 C 0.68308 0.38874 0.09758 0.0
C1506 C 0.69842 0.3777 0.0876 0.0
C1507 C 0.68696 0.35433 0.0914 0.0
C1508 C 0.70096 0.38249 0.06553 0.0
C1509 C 0.7235 0.38747 0.09802 0.0
C1510 C 0.72257 0.40196 0.11153 0.0
C1511 C 0.74337 0.41278 0.12313 0.0
C1512 C 0.7657 0.40865 0.12086 0.0
C1513 C 0.76703 0.39378 0.10715 0.0
C1514 C 0.74559 0.38315 0.09557 0.0
H1515 H 0.17409 0.73707 0.54335 0.0
H1516 H 0.14155 0.7369 0.60097 0.0
H1517 H 0.17204 0.77181 0.60685 0.0
H1518 H 0.23394 0.75551 0.55854 0.0
H1519 H 0.24771 0.7713 0.53753 0.0
H1520 H 0.21886 0.74943 0.5349 0.0
H1521 H 0.19633 0.77277 0.52055 0.0
H1522 H 0.22532 0.79481 0.52289 0.0
H1523 H 0.19661 0.79514 0.53403 0.0
H1524 H 0.2112 0.80236 0.60991 0.0
H1525 H 0.25554 0.82622 0.60966 0.0
H1526 H 0.26433 0.8067 0.5506 0.0
C1527 C 0.17285 0.74463 0.55696 0.0
C1528 C 0.15521 0.73419 0.57159 0.0
C1529 C 0.15433 0.74464 0.58925 0.0
C1530 C 0.17174 0.76453 0.59281 0.0
C1531 C 0.18988 0.77385 0.57856 0.0
C1532 C 0.19039 0.76434 0.56087 0.0
C1533 C 0.21418 0.77602 0.54941 0.0
C1534 C 0.22957 0.76224 0.54485 0.0
C1535 C 0.20772 0.78524 0.5306 0.0
C1536 C 0.22772 0.79273 0.56401 0.0
C1537 C 0.21307 0.79156 0.58048 0.0
C1538 C 0.22257 0.80387 0.59686 0.0
C1539 C 0.24783 0.81743 0.59656 0.0
C1540 C 0.26341 0.81845 0.58005 0.0
C1541 C 0.25289 0.80631 0.56341 0.0
H1542 H 0.75634 0.38234 0.41668 0.0
H1543 H 0.76455 0.37173 0.35478 0.0
H1544 H 0.72228 0.37303 0.34846 0.0
H1545 H 0.69082 0.35041 0.41995 0.0
H1546 H 0.68311 0.367 0.43704 0.0
H1547 H 0.71459 0.3663 0.43659 0.0
H1548 H 0.73325 0.40586 0.43127 0.0
H1549 H 0.70181 0.40669 0.43169 0.0
H1550 H 0.72224 0.41701 0.411 0.0
H1551 H 0.67871 0.37447 0.34893 0.0
H1552 H 0.63645 0.37536 0.35627 0.0
H1553 H 0.65628 0.38454 0.41791 0.0
C1554 C 0.74925 0.3802 0.40179 0.0
C1555 C 0.76392 0.37707 0.38621 0.0
C1556 C 0.75395 0.37455 0.36692 0.0
C1557 C 0.72987 0.37514 0.36319 0.0
C1558 C 0.71594 0.3782 0.37889 0.0
C1559 C 0.72522 0.38066 0.39781 0.0
C1560 C 0.70612 0.38322 0.41213 0.0
C1561 C 0.69819 0.36569 0.42732 0.0
C1562 C 0.71648 0.40446 0.4221 0.0
C1563 C 0.68458 0.38164 0.3983 0.0
C1564 C 0.69069 0.37887 0.37919 0.0
C1565 C 0.67375 0.37676 0.36383 0.0
C1566 C 0.64985 0.37742 0.36813 0.0
C1567 C 0.64306 0.38011 0.38765 0.0
C1568 C 0.6608 0.38231 0.40287 0.0
H1569 H 0.25086 0.80757 0.95541 0.0
H1570 H 0.23527 0.82946 0.89916 0.0
H1571 H 0.19054 0.80678 0.90197 0.0
H1572 H 0.22147 0.75862 0.94609 0.0
H1573 H 0.20894 0.75033 0.97021 0.0
H1574 H 0.23659 0.77309 0.96746 0.0
H1575 H 0.21441 0.79428 0.98621 0.0
H1576 H 0.18648 0.77139 0.98897 0.0
H1577 H 0.18414 0.79417 0.97788 0.0
H1578 H 0.15179 0.77603 0.90614 0.0
H1579 H 0.12454 0.73953 0.91011 0.0
H1580 H 0.16485 0.73613 0.96311 0.0
C1581 C 0.23784 0.80806 0.94397 0.0
C1582 C 0.24661 0.82026 0.92707 0.0
C1583 C 0.229 0.82051 0.91242 0.0
C1584 C 0.20346 0.80765 0.91392 0.0
C1585 C 0.19575 0.79477 0.93022 0.0
C1586 C 0.21245 0.79505 0.94512 0.0
C1587 C 0.20113 0.77711 0.95903 0.0
C1588 C 0.21802 0.76403 0.96076 0.0
C1589 C 0.19625 0.7847 0.97922 0.0
C1590 C 0.17648 0.76559 0.94861 0.0
C1591 C 0.17317 0.77647 0.9325 0.0
C1592 C 0.15372 0.76765 0.91903 0.0
C1593 C 0.13822 0.74689 0.92143 0.0
C1594 C 0.1426 0.73515 0.93699 0.0
C1595 C 0.16097 0.74496 0.95129 0.0
H1596 H 0.50465 0.19375 0.406 0.0
H1597 H 0.51748 0.1866 0.46786 0.0
H1598 H 0.4923 0.20787 0.47612 0.0
H1599 H 0.51626 0.24532 0.4086 0.0
H1600 H 0.49328 0.24555 0.39041 0.0
H1601 H 0.50693 0.22594 0.38967 0.0
H1602 H 0.46181 0.19784 0.39067 0.0
H1603 H 0.44814 0.21757 0.3917 0.0
H1604 H 0.44058 0.19788 0.41033 0.0
H1605 H 0.47252 0.23456 0.47763 0.0
H1606 H 0.46232 0.26581 0.47209 0.0
H1607 H 0.46418 0.25682 0.40935 0.0
C1608 C 0.50189 0.19636 0.42132 0.0
C1609 C 0.51305 0.18838 0.43625 0.0
C1610 C 0.50876 0.19214 0.45611 0.0
C1611 C 0.49446 0.20424 0.46097 0.0
C1612 C 0.48446 0.21244 0.44584 0.0
C1613 C 0.48799 0.20863 0.4264 0.0
C1614 C 0.47856 0.22156 0.41287 0.0
C1615 C 0.50004 0.23541 0.39963 0.0
C1616 C 0.45592 0.20789 0.40068 0.0
C1617 C 0.47043 0.23405 0.42775 0.0
C1618 C 0.47332 0.22818 0.44669 0.0
C1619 C 0.46966 0.23901 0.46288 0.0
C1620 C 0.46394 0.25676 0.4596 0.0
C1621 C 0.46224 0.26361 0.4403 0.0
C1622 C 0.46455 0.25161 0.42426 0.0
H1623 H 0.24311 0.61073 0.883 0.0
H1624 H 0.22714 0.59693 0.94474 0.0
H1625 H 0.26706 0.59056 0.9481 0.0
H1626 H 0.27281 0.57365 0.87358 0.0
H1627 H 0.29637 0.59054 0.85738 0.0
H1628 H 0.26584 0.59293 0.85954 0.0
H1629 H 0.28753 0.63151 0.86872 0.0
H1630 H 0.31812 0.62925 0.86653 0.0
H1631 H 0.3094 0.63859 0.88899 0.0
H1632 H 0.30928 0.58669 0.94501 0.0
H1633 H 0.35152 0.58675 0.93591 0.0
H1634 H 0.34042 0.60394 0.87643 0.0
C1635 C 0.248 0.60647 0.89727 0.0
C1636 C 0.23182 0.60421 0.91357 0.0
C1637 C 0.23891 0.59838 0.93192 0.0
C1638 C 0.26164 0.59483 0.93402 0.0
C1639 C 0.27713 0.59725 0.91765 0.0
C1640 C 0.27067 0.60301 0.89965 0.0
C1641 C 0.29106 0.60523 0.88454 0.0
C1642 C 0.28091 0.58966 0.86777 0.0
C1643 C 0.30218 0.62746 0.87674 0.0
C1644 C 0.3101 0.59999 0.89691 0.0
C1645 C 0.30161 0.59528 0.91593 0.0
C1646 C 0.31607 0.59022 0.93013 0.0
C1647 C 0.33994 0.59016 0.92479 0.0
C1648 C 0.34915 0.5952 0.90544 0.0
C1649 C 0.3339 0.60007 0.89135 0.0
H1650 H 0.74922 0.17828 0.42048 0.0
H1651 H 0.72909 0.17713 0.48178 0.0
H1652 H 0.77219 0.20137 0.4893 0.0
H1653 H 0.82051 0.18805 0.42837 0.0
H1654 H 0.8284 0.20486 0.40733 0.0
H1655 H 0.79924 0.18278 0.40773 0.0
H1656 H 0.7741 0.20664 0.40065 0.0
H1657 H 0.80295 0.22864 0.40032 0.0
H1658 H 0.77781 0.22807 0.41678 0.0
H1659 H 0.8118 0.23164 0.4888 0.0
H1660 H 0.8442 0.26535 0.48025 0.0
H1661 H 0.83975 0.24692 0.41942 0.0
C1662 C 0.75436 0.18228 0.43562 0.0
C1663 C 0.736 0.17574 0.45058 0.0
C1664 C 0.74298 0.18196 0.47013 0.0
C1665 C 0.76748 0.19558 0.47454 0.0
C1666 C 0.78483 0.20268 0.45926 0.0
C1667 C 0.77868 0.196 0.44018 0.0
C1668 C 0.7989 0.20855 0.42596 0.0
C1669 C 0.81258 0.19526 0.41682 0.0
C1670 C 0.78776 0.21857 0.41003 0.0
C1671 C 0.81624 0.22446 0.43976 0.0
C1672 C 0.80826 0.2204 0.459 0.0
C1673 C 0.8188 0.23461 0.47394 0.0
C1674 C 0.83714 0.25372 0.46897 0.0
C1675 C 0.84468 0.25843 0.44926 0.0
C1676 C 0.83493 0.24329 0.43468 0.0
H1677 H 0.52638 0.73961 0.90619 0.0
H1678 H 0.49278 0.70547 0.95874 0.0
H1679 H 0.47568 0.73219 0.96733 0.0
H1680 H 0.53713 0.79334 0.9255 0.0
H1681 H 0.52798 0.80088 0.90228 0.0
H1682 H 0.54365 0.78245 0.90311 0.0
H1683 H 0.50662 0.75663 0.88343 0.0
H1684 H 0.4906 0.7747 0.88285 0.0
H1685 H 0.47478 0.74924 0.89277 0.0
H1686 H 0.45485 0.75814 0.9668 0.0
H1687 H 0.43346 0.78214 0.9578 0.0
H1688 H 0.47853 0.79855 0.90474 0.0
C1689 C 0.51607 0.73804 0.91982 0.0
C1690 C 0.51105 0.72039 0.93178 0.0
C1691 C 0.49745 0.71899 0.94949 0.0
C1692 C 0.48745 0.73407 0.95446 0.0
C1693 C 0.49129 0.75052 0.94163 0.0
C1694 C 0.50558 0.75275 0.92478 0.0
C1695 C 0.50386 0.77006 0.91206 0.0
C1696 C 0.52969 0.78774 0.91066 0.0
C1697 C 0.49333 0.76217 0.89158 0.0
C1698 C 0.48525 0.77641 0.92383 0.0
C1699 C 0.4787 0.7653 0.94107 0.0
C1700 C 0.4603 0.7673 0.95359 0.0
C1701 C 0.44823 0.78095 0.94835 0.0
C1702 C 0.45439 0.79225 0.9306 0.0
C1703 C 0.47339 0.79009 0.91837 0.0
loop_
_geom_bond_atom_site_label_1
_geom_bond_atom_site_label_2
_geom_bond_distance
_geom_bond_site_symmetry_2
_ccdc_geom_bond_type
Li0 N17 1.990 . S
Li0 O60 1.956 . S
Li0 O61 1.970 . S
Li0 O62 1.961 . S
Li1 N25 1.990 . S
Li1 O60 1.970 . S
Li1 O61 1.956 . S
Li1 O63 1.961 . S
Li2 N47 1.990 . S
Li2 O60 1.961 . S
Li2 O62 1.956 . S
Li2 O63 1.970 . S
Li3 N53 1.990 . S
Li3 O61 1.961 . S
Li3 O62 1.970 . S
Li3 O63 1.956 . S
C4 C6 1.348 . S
C4 C7 1.356 . S
C4 O60 1.325 . S
N5 C8 1.314 . S
N5 C9 1.279 . S
C6 C4 1.348 . S
C6 C8 1.353 . S
C6 H64 0.929 . S
C7 C4 1.356 . S
C7 C9 1.358 . S
C7 H65 0.930 . S
C8 N5 1.314 . S
C8 C6 1.353 . S
C8 H66 0.930 . S
C9 N5 1.279 . S
C9 C7 1.358 . S
C9 H67 0.930 . S
C10 C13 1.348 . S
C10 C14 1.356 . S
C10 O61 1.325 . S
C11 N12 1.279 . S
C11 C14 1.358 . S
C11 H68 0.930 . S
N12 C11 1.279 . S
N12 C15 1.314 . S
C13 C10 1.348 . S
C13 C15 1.353 . S
C13 H69 0.929 . S
C14 C10 1.356 . S
C14 C11 1.358 . S
C14 H70 0.930 . S
C15 N12 1.314 . S
C15 C13 1.353 . S
C15 H71 0.930 . S
C16 N17 1.314 . S
C16 C21 1.353 . S
C16 H22 0.930 . S
N17 Li0 1.990 . S
N17 C16 1.314 . S
N17 C19 1.279 . S
C18 C19 1.358 . S
C18 C20 1.356 . S
C18 H72 0.930 . S
C19 N17 1.279 . S
C19 C18 1.358 . S
C19 H23 0.930 . S
C20 C18 1.356 . S
C20 C21 1.348 . S
C21 C16 1.353 . S
C21 C20 1.348 . S
C21 H73 0.929 . S
H22 C16 0.930 . S
H23 C19 0.930 . S
C24 N25 1.314 . S
C24 C26 1.353 . S
C24 H30 0.930 . S
N25 Li1 1.990 . S
N25 C24 1.314 . S
N25 C28 1.279 . S
C26 C24 1.353 . S
C26 C29 1.348 . S
C26 H74 0.929 . S
C27 C28 1.358 . S
C27 C29 1.356 . S
C27 H75 0.930 . S
C28 N25 1.279 . S
C28 C27 1.358 . S
C28 H31 0.930 . S
C29 C26 1.348 . S
C29 C27 1.356 . S
H30 C24 0.930 . S
H31 C28 0.930 . S
C32 C34 1.348 . S
C32 C35 1.356 . S
C32 O62 1.325 . S
N33 C36 1.314 . S
N33 C37 1.279 . S
C34 C32 1.348 . S
C34 C36 1.353 . S
C34 H76 0.929 . S
C35 C32 1.356 . S
C35 C37 1.358 . S
C35 H77 0.930 . S
C36 N33 1.314 . S
C36 C34 1.353 . S
C36 H78 0.930 . S
C37 N33 1.279 . S
C37 C35 1.358 . S
C37 H79 0.930 . S
C38 C39 1.348 . S
C38 C40 1.356 . S
C38 O63 1.325 . S
C39 C38 1.348 . S
C39 C41 1.353 . S
C39 H80 0.929 . S
C40 C38 1.356 . S
C40 C42 1.358 . S
C40 H81 0.930 . S
C41 C39 1.353 . S
C41 N43 1.314 . S
C41 H82 0.930 . S
C42 C40 1.358 . S
C42 N43 1.279 . S
C42 H83 0.930 . S
N43 C41 1.314 . S
N43 C42 1.279 . S
C44 C46 1.353 . S
C44 N47 1.314 . S
C44 H50 0.930 . S
C45 N47 1.279 . S
C45 C48 1.358 . S
C45 H51 0.930 . S
C46 C44 1.353 . S
C46 C49 1.348 . S
C46 H84 0.929 . S
N47 Li2 1.990 . S
N47 C44 1.314 . S
N47 C45 1.279 . S
C48 C45 1.358 . S
C48 C49 1.356 . S
C48 H85 0.930 . S
C49 C46 1.348 . S
C49 C48 1.356 . S
H50 C44 0.930 . S
H51 C45 0.930 . S
C52 N53 1.314 . S
C52 C54 1.353 . S
C52 H58 0.930 . S
N53 Li3 1.990 . S
N53 C52 1.314 . S
N53 C56 1.279 . S
C54 C52 1.353 . S
C54 C57 1.348 . S
C54 H86 0.929 . S
C55 C56 1.358 . S
C55 C57 1.356 . S
C55 H87 0.930 . S
C56 N53 1.279 . S
C56 C55 1.358 . S
C56 H59 0.930 . S
C57 C54 1.348 . S
C57 C55 1.356 . S
H58 C52 0.930 . S
H59 C56 0.930 . S
O60 Li0 1.956 . S
O60 Li1 1.970 . S
O60 Li2 1.961 . S
O60 C4 1.325 . S
O61 Li0 1.970 . S
O61 Li1 1.956 . S
O61 Li3 1.961 . S
O61 C10 1.325 . S
O62 Li0 1.961 . S
O62 Li2 1.956 . S
O62 Li3 1.970 . S
O62 C32 1.325 . S
O63 Li1 1.961 . S
O63 Li2 1.970 . S
O63 Li3 1.956 . S
O63 C38 1.325 . S
H64 C6 0.929 . S
H65 C7 0.930 . S
H66 C8 0.930 . S
H67 C9 0.930 . S
H68 C11 0.930 . S
H69 C13 0.929 . S
H70 C14 0.930 . S
H71 C15 0.930 . S
H72 C18 0.930 . S
H73 C21 0.929 . S
H74 C26 0.929 . S
H75 C27 0.930 . S
H76 C34 0.929 . S
H77 C35 0.930 . S
H78 C36 0.930 . S
H79 C37 0.930 . S
H80 C39 0.929 . S
H81 C40 0.930 . S
H82 C41 0.930 . S
H83 C42 0.930 . S
H84 C46 0.929 . S
H85 C48 0.930 . S
H86 C54 0.929 . S
H87 C55 0.930 . S
Li88 N105 1.990 . S
Li88 O148 1.956 . S
Li88 O149 1.970 . S
Li88 O150 1.961 . S
Li89 N113 1.990 . S
Li89 O148 1.970 . S
Li89 O149 1.956 . S
Li89 O151 1.961 . S
Li90 N135 1.990 . S
Li90 O148 1.961 . S
Li90 O150 1.956 . S
Li90 O151 1.970 . S
Li91 N141 1.990 . S
Li91 O149 1.961 . S
Li91 O150 1.970 . S
Li91 O151 1.956 . S
C92 C94 1.348 . S
C92 C95 1.356 . S
C92 O148 1.325 . S
N93 C96 1.314 . S
N93 C97 1.279 . S
C94 C92 1.348 . S
C94 C96 1.353 . S
C94 H152 0.929 . S
C95 C92 1.356 . S
C95 C97 1.358 . S
C95 H153 0.930 . S
C96 N93 1.314 . S
C96 C94 1.353 . S
C96 H154 0.930 . S
C97 N93 1.279 . S
C97 C95 1.358 . S
C97 H155 0.930 . S
C98 C101 1.348 . S
C98 C102 1.356 . S
C98 O149 1.325 . S
C99 N100 1.279 . S
C99 C102 1.358 . S
C99 H156 0.930 . S
N100 C99 1.279 . S
N100 C103 1.314 . S
C101 C98 1.348 . S
C101 C103 1.353 . S
C101 H157 0.929 . S
C102 C98 1.356 . S
C102 C99 1.358 . S
C102 H158 0.930 . S
C103 N100 1.314 . S
C103 C101 1.353 . S
C103 H159 0.930 . S
C104 N105 1.314 . S
C104 C109 1.353 . S
C104 H110 0.930 . S
N105 Li88 1.990 . S
N105 C104 1.314 . S
N105 C107 1.279 . S
C106 C107 1.358 . S
C106 C108 1.356 . S
C106 H160 0.930 . S
C107 N105 1.279 . S
C107 C106 1.358 . S
C107 H111 0.930 . S
C108 C106 1.356 . S
C108 C109 1.348 . S
C109 C104 1.353 . S
C109 C108 1.348 . S
C109 H161 0.929 . S
H110 C104 0.930 . S
H111 C107 0.930 . S
C112 N113 1.314 . S
C112 C114 1.353 . S
C112 H118 0.930 . S
N113 Li89 1.990 . S
N113 C112 1.314 . S
N113 C116 1.279 . S
C114 C112 1.353 . S
C114 C117 1.348 . S
C114 H162 0.929 . S
C115 C116 1.358 . S
C115 C117 1.356 . S
C115 H163 0.930 . S
C116 N113 1.279 . S
C116 C115 1.358 . S
C116 H119 0.930 . S
C117 C114 1.348 . S
C117 C115 1.356 . S
H118 C112 0.930 . S
H119 C116 0.930 . S
C120 C122 1.348 . S
C120 C123 1.356 . S
C120 O150 1.325 . S
N121 C124 1.314 . S
N121 C125 1.279 . S
C122 C120 1.348 . S
C122 C124 1.353 . S
C122 H164 0.929 . S
C123 C120 1.356 . S
C123 C125 1.358 . S
C123 H165 0.930 . S
C124 N121 1.314 . S
C124 C122 1.353 . S
C124 H166 0.930 . S
C125 N121 1.279 . S
C125 C123 1.358 . S
C125 H167 0.930 . S
C126 C127 1.348 . S
C126 C128 1.356 . S
C126 O151 1.325 . S
C127 C126 1.348 . S
C127 C129 1.353 . S
C127 H168 0.929 . S
C128 C126 1.356 . S
C128 C130 1.358 . S
C128 H169 0.930 . S
C129 C127 1.353 . S
C129 N131 1.314 . S
C129 H170 0.930 . S
C130 C128 1.358 . S
C130 N131 1.279 . S
C130 H171 0.930 . S
N131 C129 1.314 . S
N131 C130 1.279 . S
C132 C134 1.353 . S
C132 N135 1.314 . S
C132 H138 0.930 . S
C133 N135 1.279 . S
C133 C136 1.358 . S
C133 H139 0.930 . S
C134 C132 1.353 . S
C134 C137 1.348 . S
C134 H172 0.929 . S
N135 Li90 1.990 . S
N135 C132 1.314 . S
N135 C133 1.279 . S
C136 C133 1.358 . S
C136 C137 1.356 . S
C136 H173 0.930 . S
C137 C134 1.348 . S
C137 C136 1.356 . S
H138 C132 0.930 . S
H139 C133 0.930 . S
C140 N141 1.314 . S
C140 C142 1.353 . S
C140 H146 0.930 . S
N141 Li91 1.990 . S
N141 C140 1.314 . S
N141 C144 1.279 . S
C142 C140 1.353 . S
C142 C145 1.348 . S
C142 H174 0.929 . S
C143 C144 1.358 . S
C143 C145 1.356 . S
C143 H175 0.930 . S
C144 N141 1.279 . S
C144 C143 1.358 . S
C144 H147 0.930 . S
C145 C142 1.348 . S
C145 C143 1.356 . S
H146 C140 0.930 . S
H147 C144 0.930 . S
O148 Li88 1.956 . S
O148 Li89 1.970 . S
O148 Li90 1.961 . S
O148 C92 1.325 . S
O149 Li88 1.970 . S
O149 Li89 1.956 . S
O149 Li91 1.961 . S
O149 C98 1.325 . S
O150 Li88 1.961 . S
O150 Li90 1.956 . S
O150 Li91 1.970 . S
O150 C120 1.325 . S
O151 Li89 1.961 . S
O151 Li90 1.970 . S
O151 Li91 1.956 . S
O151 C126 1.325 . S
H152 C94 0.929 . S
H153 C95 0.930 . S
H154 C96 0.930 . S
H155 C97 0.930 . S
H156 C99 0.930 . S
H157 C101 0.929 . S
H158 C102 0.930 . S
H159 C103 0.930 . S
H160 C106 0.930 . S
H161 C109 0.929 . S
H162 C114 0.929 . S
H163 C115 0.930 . S
H164 C122 0.929 . S
H165 C123 0.930 . S
H166 C124 0.930 . S
H167 C125 0.930 . S
H168 C127 0.929 . S
H169 C128 0.930 . S
H170 C129 0.930 . S
H171 C130 0.930 . S
H172 C134 0.929 . S
H173 C136 0.930 . S
H174 C142 0.929 . S
H175 C143 0.930 . S
Li176 N193 1.990 . S
Li176 O236 1.956 . S
Li176 O237 1.970 . S
Li176 O238 1.961 . S
Li177 N201 1.990 . S
Li177 O236 1.970 . S
Li177 O237 1.956 . S
Li177 O239 1.961 . S
Li178 N223 1.990 . S
Li178 O236 1.961 . S
Li178 O238 1.956 . S
Li178 O239 1.970 . S
Li179 N229 1.990 . S
Li179 O237 1.961 . S
Li179 O238 1.970 . S
Li179 O239 1.956 . S
C180 C182 1.348 . S
C180 C183 1.356 . S
C180 O236 1.325 . S
N181 C184 1.314 . S
N181 C185 1.279 . S
C182 C180 1.348 . S
C182 C184 1.353 . S
C182 H240 0.929 . S
C183 C180 1.356 . S
C183 C185 1.358 . S
C183 H241 0.930 . S
C184 N181 1.314 . S
C184 C182 1.353 . S
C184 H242 0.930 . S
C185 N181 1.279 . S
C185 C183 1.358 . S
C185 H243 0.930 . S
C186 C189 1.348 . S
C186 C190 1.356 . S
C186 O237 1.325 . S
C187 N188 1.279 . S
C187 C190 1.358 . S
C187 H244 0.930 . S
N188 C187 1.279 . S
N188 C191 1.314 . S
C189 C186 1.348 . S
C189 C191 1.353 . S
C189 H245 0.929 . S
C190 C186 1.356 . S
C190 C187 1.358 . S
C190 H246 0.930 . S
C191 N188 1.314 . S
C191 C189 1.353 . S
C191 H247 0.930 . S
C192 N193 1.314 . S
C192 C197 1.353 . S
C192 H198 0.930 . S
N193 Li176 1.990 . S
N193 C192 1.314 . S
N193 C195 1.279 . S
C194 C195 1.358 . S
C194 C196 1.356 . S
C194 H248 0.930 . S
C195 N193 1.279 . S
C195 C194 1.358 . S
C195 H199 0.930 . S
C196 C194 1.356 . S
C196 C197 1.348 . S
C197 C192 1.353 . S
C197 C196 1.348 . S
C197 H249 0.929 . S
H198 C192 0.930 . S
H199 C195 0.930 . S
C200 N201 1.314 . S
C200 C202 1.353 . S
C200 H206 0.930 . S
N201 Li177 1.990 . S
N201 C200 1.314 . S
N201 C204 1.279 . S
C202 C200 1.353 . S
C202 C205 1.348 . S
C202 H250 0.929 . S
C203 C204 1.358 . S
C203 C205 1.356 . S
C203 H251 0.930 . S
C204 N201 1.279 . S
C204 C203 1.358 . S
C204 H207 0.930 . S
C205 C202 1.348 . S
C205 C203 1.356 . S
H206 C200 0.930 . S
H207 C204 0.930 . S
C208 C210 1.348 . S
C208 C211 1.356 . S
C208 O238 1.325 . S
N209 C212 1.314 . S
N209 C213 1.279 . S
C210 C208 1.348 . S
C210 C212 1.353 . S
C210 H252 0.929 . S
C211 C208 1.356 . S
C211 C213 1.358 . S
C211 H253 0.930 . S
C212 N209 1.314 . S
C212 C210 1.353 . S
C212 H254 0.930 . S
C213 N209 1.279 . S
C213 C211 1.358 . S
C213 H255 0.930 . S
C214 C215 1.348 . S
C214 C216 1.356 . S
C214 O239 1.325 . S
C215 C214 1.348 . S
C215 C217 1.353 . S
C215 H256 0.929 . S
C216 C214 1.356 . S
C216 C218 1.358 . S
C216 H257 0.930 . S
C217 C215 1.353 . S
C217 N219 1.314 . S
C217 H258 0.930 . S
C218 C216 1.358 . S
C218 N219 1.279 . S
C218 H259 0.930 . S
N219 C217 1.314 . S
N219 C218 1.279 . S
C220 C222 1.353 . S
C220 N223 1.314 . S
C220 H226 0.930 . S
C221 N223 1.279 . S
C221 C224 1.358 . S
C221 H227 0.930 . S
C222 C220 1.353 . S
C222 C225 1.348 . S
C222 H260 0.929 . S
N223 Li178 1.990 . S
N223 C220 1.314 . S
N223 C221 1.279 . S
C224 C221 1.358 . S
C224 C225 1.356 . S
C224 H261 0.930 . S
C225 C222 1.348 . S
C225 C224 1.356 . S
H226 C220 0.930 . S
H227 C221 0.930 . S
C228 N229 1.314 . S
C228 C230 1.353 . S
C228 H234 0.930 . S
N229 Li179 1.990 . S
N229 C228 1.314 . S
N229 C232 1.279 . S
C230 C228 1.353 . S
C230 C233 1.348 . S
C230 H262 0.929 . S
C231 C232 1.358 . S
C231 C233 1.356 . S
C231 H263 0.930 . S
C232 N229 1.279 . S
C232 C231 1.358 . S
C232 H235 0.930 . S
C233 C230 1.348 . S
C233 C231 1.356 . S
H234 C228 0.930 . S
H235 C232 0.930 . S
O236 Li176 1.956 . S
O236 Li177 1.970 . S
O236 Li178 1.961 . S
O236 C180 1.325 . S
O237 Li176 1.970 . S
O237 Li177 1.956 . S
O237 Li179 1.961 . S
O237 C186 1.325 . S
O238 Li176 1.961 . S
O238 Li178 1.956 . S
O238 Li179 1.970 . S
O238 C208 1.325 . S
O239 Li177 1.961 . S
O239 Li178 1.970 . S
O239 Li179 1.956 . S
O239 C214 1.325 . S
H240 C182 0.929 . S
H241 C183 0.930 . S
H242 C184 0.930 . S
H243 C185 0.930 . S
H244 C187 0.930 . S
H245 C189 0.929 . S
H246 C190 0.930 . S
H247 C191 0.930 . S
H248 C194 0.930 . S
H249 C197 0.929 . S
H250 C202 0.929 . S
H251 C203 0.930 . S
H252 C210 0.929 . S
H253 C211 0.930 . S
H254 C212 0.930 . S
H255 C213 0.930 . S
H256 C215 0.929 . S
H257 C216 0.930 . S
H258 C217 0.930 . S
H259 C218 0.930 . S
H260 C222 0.929 . S
H261 C224 0.930 . S
H262 C230 0.929 . S
H263 C231 0.930 . S
Li264 N281 1.990 . S
Li264 O324 1.956 . S
Li264 O325 1.970 . S
Li264 O326 1.961 . S
Li265 N289 1.990 . S
Li265 O324 1.970 . S
Li265 O325 1.956 . S
Li265 O327 1.961 . S
Li266 N311 1.990 . S
Li266 O324 1.961 . S
Li266 O326 1.956 . S
Li266 O327 1.970 . S
Li267 N317 1.990 . S
Li267 O325 1.961 . S
Li267 O326 1.970 . S
Li267 O327 1.956 . S
C268 C270 1.348 . S
C268 C271 1.356 . S
C268 O324 1.325 . S
N269 C272 1.314 . S
N269 C273 1.279 . S
C270 C268 1.348 . S
C270 C272 1.353 . S
C270 H328 0.929 . S
C271 C268 1.356 . S
C271 C273 1.358 . S
C271 H329 0.930 . S
C272 N269 1.314 . S
C272 C270 1.353 . S
C272 H330 0.930 . S
C273 N269 1.279 . S
C273 C271 1.358 . S
C273 H331 0.930 . S
C274 C277 1.348 . S
C274 C278 1.356 . S
C274 O325 1.325 . S
C275 N276 1.279 . S
C275 C278 1.358 . S
C275 H332 0.930 . S
N276 C275 1.279 . S
N276 C279 1.314 . S
C277 C274 1.348 . S
C277 C279 1.353 . S
C277 H333 0.929 . S
C278 C274 1.356 . S
C278 C275 1.358 . S
C278 H334 0.930 . S
C279 N276 1.314 . S
C279 C277 1.353 . S
C279 H335 0.930 . S
C280 N281 1.314 . S
C280 C285 1.353 . S
C280 H286 0.930 . S
N281 Li264 1.990 . S
N281 C280 1.314 . S
N281 C283 1.279 . S
C282 C283 1.358 . S
C282 C284 1.356 . S
C282 H336 0.930 . S
C283 N281 1.279 . S
C283 C282 1.358 . S
C283 H287 0.930 . S
C284 C282 1.356 . S
C284 C285 1.348 . S
C285 C280 1.353 . S
C285 C284 1.348 . S
C285 H337 0.929 . S
H286 C280 0.930 . S
H287 C283 0.930 . S
C288 N289 1.314 . S
C288 C290 1.353 . S
C288 H294 0.930 . S
N289 Li265 1.990 . S
N289 C288 1.314 . S
N289 C292 1.279 . S
C290 C288 1.353 . S
C290 C293 1.348 . S
C290 H338 0.929 . S
C291 C292 1.358 . S
C291 C293 1.356 . S
C291 H339 0.930 . S
C292 N289 1.279 . S
C292 C291 1.358 . S
C292 H295 0.930 . S
C293 C290 1.348 . S
C293 C291 1.356 . S
H294 C288 0.930 . S
H295 C292 0.930 . S
C296 C298 1.348 . S
C296 C299 1.356 . S
C296 O326 1.325 . S
N297 C300 1.314 . S
N297 C301 1.279 . S
C298 C296 1.348 . S
C298 C300 1.353 . S
C298 H340 0.929 . S
C299 C296 1.356 . S
C299 C301 1.358 . S
C299 H341 0.930 . S
C300 N297 1.314 . S
C300 C298 1.353 . S
C300 H342 0.930 . S
C301 N297 1.279 . S
C301 C299 1.358 . S
C301 H343 0.930 . S
C302 C303 1.348 . S
C302 C304 1.356 . S
C302 O327 1.325 . S
C303 C302 1.348 . S
C303 C305 1.353 . S
C303 H344 0.929 . S
C304 C302 1.356 . S
C304 C306 1.358 . S
C304 H345 0.930 . S
C305 C303 1.353 . S
C305 N307 1.314 . S
C305 H346 0.930 . S
C306 C304 1.358 . S
C306 N307 1.279 . S
C306 H347 0.930 . S
N307 C305 1.314 . S
N307 C306 1.279 . S
C308 C310 1.353 . S
C308 N311 1.314 . S
C308 H314 0.930 . S
C309 N311 1.279 . S
C309 C312 1.358 . S
C309 H315 0.930 . S
C310 C308 1.353 . S
C310 C313 1.348 . S
C310 H348 0.929 . S
N311 Li266 1.990 . S
N311 C308 1.314 . S
N311 C309 1.279 . S
C312 C309 1.358 . S
C312 C313 1.356 . S
C312 H349 0.930 . S
C313 C310 1.348 . S
C313 C312 1.356 . S
H314 C308 0.930 . S
H315 C309 0.930 . S
C316 N317 1.314 . S
C316 C318 1.353 . S
C316 H322 0.930 . S
N317 Li267 1.990 . S
N317 C316 1.314 . S
N317 C320 1.279 . S
C318 C316 1.353 . S
C318 C321 1.348 . S
C318 H350 0.929 . S
C319 C320 1.358 . S
C319 C321 1.356 . S
C319 H351 0.930 . S
C320 N317 1.279 . S
C320 C319 1.358 . S
C320 H323 0.930 . S
C321 C318 1.348 . S
C321 C319 1.356 . S
H322 C316 0.930 . S
H323 C320 0.930 . S
O324 Li264 1.956 . S
O324 Li265 1.970 . S
O324 Li266 1.961 . S
O324 C268 1.325 . S
O325 Li264 1.970 . S
O325 Li265 1.956 . S
O325 Li267 1.961 . S
O325 C274 1.325 . S
O326 Li264 1.961 . S
O326 Li266 1.956 . S
O326 Li267 1.970 . S
O326 C296 1.325 . S
O327 Li265 1.961 . S
O327 Li266 1.970 . S
O327 Li267 1.956 . S
O327 C302 1.325 . S
H328 C270 0.929 . S
H329 C271 0.930 . S
H330 C272 0.930 . S
H331 C273 0.930 . S
H332 C275 0.930 . S
H333 C277 0.929 . S
H334 C278 0.930 . S
H335 C279 0.930 . S
H336 C282 0.930 . S
H337 C285 0.929 . S
H338 C290 0.929 . S
H339 C291 0.930 . S
H340 C298 0.929 . S
H341 C299 0.930 . S
H342 C300 0.930 . S
H343 C301 0.930 . S
H344 C303 0.929 . S
H345 C304 0.930 . S
H346 C305 0.930 . S
H347 C306 0.930 . S
H348 C310 0.929 . S
H349 C312 0.930 . S
H350 C318 0.929 . S
H351 C319 0.930 . S
Li352 N369 1.990 . S
Li352 O412 1.956 . S
Li352 O413 1.970 . S
Li352 O414 1.961 . S
Li353 N377 1.990 . S
Li353 O412 1.970 . S
Li353 O413 1.956 . S
Li353 O415 1.961 . S
Li354 N399 1.990 . S
Li354 O412 1.961 . S
Li354 O414 1.956 . S
Li354 O415 1.970 . S
Li355 N405 1.990 . S
Li355 O413 1.961 . S
Li355 O414 1.970 . S
Li355 O415 1.956 . S
C356 C358 1.348 . S
C356 C359 1.356 . S
C356 O412 1.325 . S
N357 C360 1.314 . S
N357 C361 1.279 . S
C358 C356 1.348 . S
C358 C360 1.353 . S
C358 H416 0.929 . S
C359 C356 1.356 . S
C359 C361 1.358 . S
C359 H417 0.930 . S
C360 N357 1.314 . S
C360 C358 1.353 . S
C360 H418 0.930 . S
C361 N357 1.279 . S
C361 C359 1.358 . S
C361 H419 0.930 . S
C362 C365 1.348 . S
C362 C366 1.356 . S
C362 O413 1.325 . S
C363 N364 1.279 . S
C363 C366 1.358 . S
C363 H420 0.930 . S
N364 C363 1.279 . S
N364 C367 1.314 . S
C365 C362 1.348 . S
C365 C367 1.353 . S
C365 H421 0.929 . S
C366 C362 1.356 . S
C366 C363 1.358 . S
C366 H422 0.930 . S
C367 N364 1.314 . S
C367 C365 1.353 . S
C367 H423 0.930 . S
C368 N369 1.314 . S
C368 C373 1.353 . S
C368 H374 0.930 . S
N369 Li352 1.990 . S
N369 C368 1.314 . S
N369 C371 1.279 . S
C370 C371 1.358 . S
C370 C372 1.356 . S
C370 H424 0.930 . S
C371 N369 1.279 . S
C371 C370 1.358 . S
C371 H375 0.930 . S
C372 C370 1.356 . S
C372 C373 1.348 . S
C373 C368 1.353 . S
C373 C372 1.348 . S
C373 H425 0.929 . S
H374 C368 0.930 . S
H375 C371 0.930 . S
C376 N377 1.314 . S
C376 C378 1.353 . S
C376 H382 0.930 . S
N377 Li353 1.990 . S
N377 C376 1.314 . S
N377 C380 1.279 . S
C378 C376 1.353 . S
C378 C381 1.348 . S
C378 H426 0.929 . S
C379 C380 1.358 . S
C379 C381 1.356 . S
C379 H427 0.930 . S
C380 N377 1.279 . S
C380 C379 1.358 . S
C380 H383 0.930 . S
C381 C378 1.348 . S
C381 C379 1.356 . S
H382 C376 0.930 . S
H383 C380 0.930 . S
C384 C386 1.348 . S
C384 C387 1.356 . S
C384 O414 1.325 . S
N385 C388 1.314 . S
N385 C389 1.279 . S
C386 C384 1.348 . S
C386 C388 1.353 . S
C386 H428 0.929 . S
C387 C384 1.356 . S
C387 C389 1.358 . S
C387 H429 0.930 . S
C388 N385 1.314 . S
C388 C386 1.353 . S
C388 H430 0.930 . S
C389 N385 1.279 . S
C389 C387 1.358 . S
C389 H431 0.930 . S
C390 C391 1.348 . S
C390 C392 1.356 . S
C390 O415 1.325 . S
C391 C390 1.348 . S
C391 C393 1.353 . S
C391 H432 0.929 . S
C392 C390 1.356 . S
C392 C394 1.358 . S
C392 H433 0.930 . S
C393 C391 1.353 . S
C393 N395 1.314 . S
C393 H434 0.930 . S
C394 C392 1.358 . S
C394 N395 1.279 . S
C394 H435 0.930 . S
N395 C393 1.314 . S
N395 C394 1.279 . S
C396 C398 1.353 . S
C396 N399 1.314 . S
C396 H402 0.930 . S
C397 N399 1.279 . S
C397 C400 1.358 . S
C397 H403 0.930 . S
C398 C396 1.353 . S
C398 C401 1.348 . S
C398 H436 0.929 . S
N399 Li354 1.990 . S
N399 C396 1.314 . S
N399 C397 1.279 . S
C400 C397 1.358 . S
C400 C401 1.356 . S
C400 H437 0.930 . S
C401 C398 1.348 . S
C401 C400 1.356 . S
H402 C396 0.930 . S
H403 C397 0.930 . S
C404 N405 1.314 . S
C404 C406 1.353 . S
C404 H410 0.930 . S
N405 Li355 1.990 . S
N405 C404 1.314 . S
N405 C408 1.279 . S
C406 C404 1.353 . S
C406 C409 1.348 . S
C406 H438 0.929 . S
C407 C408 1.358 . S
C407 C409 1.356 . S
C407 H439 0.930 . S
C408 N405 1.279 . S
C408 C407 1.358 . S
C408 H411 0.930 . S
C409 C406 1.348 . S
C409 C407 1.356 . S
H410 C404 0.930 . S
H411 C408 0.930 . S
O412 Li352 1.956 . S
O412 Li353 1.970 . S
O412 Li354 1.961 . S
O412 C356 1.325 . S
O413 Li352 1.970 . S
O413 Li353 1.956 . S
O413 Li355 1.961 . S
O413 C362 1.325 . S
O414 Li352 1.961 . S
O414 Li354 1.956 . S
O414 Li355 1.970 . S
O414 C384 1.325 . S
O415 Li353 1.961 . S
O415 Li354 1.970 . S
O415 Li355 1.956 . S
O415 C390 1.325 . S
H416 C358 0.929 . S
H417 C359 0.930 . S
H418 C360 0.930 . S
H419 C361 0.930 . S
H420 C363 0.930 . S
H421 C365 0.929 . S
H422 C366 0.930 . S
H423 C367 0.930 . S
H424 C370 0.930 . S
H425 C373 0.929 . S
H426 C378 0.929 . S
H427 C379 0.930 . S
H428 C386 0.929 . S
H429 C387 0.930 . S
H430 C388 0.930 . S
H431 C389 0.930 . S
H432 C391 0.929 . S
H433 C392 0.930 . S
H434 C393 0.930 . S
H435 C394 0.930 . S
H436 C398 0.929 . S
H437 C400 0.930 . S
H438 C406 0.929 . S
H439 C407 0.930 . S
Li440 N457 1.990 . S
Li440 O500 1.956 . S
Li440 O501 1.970 . S
Li440 O502 1.961 . S
Li441 N465 1.990 . S
Li441 O500 1.970 . S
Li441 O501 1.956 . S
Li441 O503 1.961 . S
Li442 N487 1.990 . S
Li442 O500 1.961 . S
Li442 O502 1.956 . S
Li442 O503 1.970 . S
Li443 N493 1.990 . S
Li443 O501 1.961 . S
Li443 O502 1.970 . S
Li443 O503 1.956 . S
C444 C446 1.348 . S
C444 C447 1.356 . S
C444 O500 1.325 . S
N445 C448 1.314 . S
N445 C449 1.279 . S
C446 C444 1.348 . S
C446 C448 1.353 . S
C446 H504 0.929 . S
C447 C444 1.356 . S
C447 C449 1.358 . S
C447 H505 0.930 . S
C448 N445 1.314 . S
C448 C446 1.353 . S
C448 H506 0.930 . S
C449 N445 1.279 . S
C449 C447 1.358 . S
C449 H507 0.930 . S
C450 C453 1.348 . S
C450 C454 1.356 . S
C450 O501 1.325 . S
C451 N452 1.279 . S
C451 C454 1.358 . S
C451 H508 0.930 . S
N452 C451 1.279 . S
N452 C455 1.314 . S
C453 C450 1.348 . S
C453 C455 1.353 . S
C453 H509 0.929 . S
C454 C450 1.356 . S
C454 C451 1.358 . S
C454 H510 0.930 . S
C455 N452 1.314 . S
C455 C453 1.353 . S
C455 H511 0.930 . S
C456 N457 1.314 . S
C456 C461 1.353 . S
C456 H462 0.930 . S
N457 Li440 1.990 . S
N457 C456 1.314 . S
N457 C459 1.279 . S
C458 C459 1.358 . S
C458 C460 1.356 . S
C458 H512 0.930 . S
C459 N457 1.279 . S
C459 C458 1.358 . S
C459 H463 0.930 . S
C460 C458 1.356 . S
C460 C461 1.348 . S
C461 C456 1.353 . S
C461 C460 1.348 . S
C461 H513 0.929 . S
H462 C456 0.930 . S
H463 C459 0.930 . S
C464 N465 1.314 . S
C464 C466 1.353 . S
C464 H470 0.930 . S
N465 Li441 1.990 . S
N465 C464 1.314 . S
N465 C468 1.279 . S
C466 C464 1.353 . S
C466 C469 1.348 . S
C466 H514 0.929 . S
C467 C468 1.358 . S
C467 C469 1.356 . S
C467 H515 0.930 . S
C468 N465 1.279 . S
C468 C467 1.358 . S
C468 H471 0.930 . S
C469 C466 1.348 . S
C469 C467 1.356 . S
H470 C464 0.930 . S
H471 C468 0.930 . S
C472 C474 1.348 . S
C472 C475 1.356 . S
C472 O502 1.325 . S
N473 C476 1.314 . S
N473 C477 1.279 . S
C474 C472 1.348 . S
C474 C476 1.353 . S
C474 H516 0.929 . S
C475 C472 1.356 . S
C475 C477 1.358 . S
C475 H517 0.930 . S
C476 N473 1.314 . S
C476 C474 1.353 . S
C476 H518 0.930 . S
C477 N473 1.279 . S
C477 C475 1.358 . S
C477 H519 0.930 . S
C478 C479 1.348 . S
C478 C480 1.356 . S
C478 O503 1.325 . S
C479 C478 1.348 . S
C479 C481 1.353 . S
C479 H520 0.929 . S
C480 C478 1.356 . S
C480 C482 1.358 . S
C480 H521 0.930 . S
C481 C479 1.353 . S
C481 N483 1.314 . S
C481 H522 0.930 . S
C482 C480 1.358 . S
C482 N483 1.279 . S
C482 H523 0.930 . S
N483 C481 1.314 . S
N483 C482 1.279 . S
C484 C486 1.353 . S
C484 N487 1.314 . S
C484 H490 0.930 . S
C485 N487 1.279 . S
C485 C488 1.358 . S
C485 H491 0.930 . S
C486 C484 1.353 . S
C486 C489 1.348 . S
C486 H524 0.929 . S
N487 Li442 1.990 . S
N487 C484 1.314 . S
N487 C485 1.279 . S
C488 C485 1.358 . S
C488 C489 1.356 . S
C488 H525 0.930 . S
C489 C486 1.348 . S
C489 C488 1.356 . S
H490 C484 0.930 . S
H491 C485 0.930 . S
C492 N493 1.314 . S
C492 C494 1.353 . S
C492 H498 0.930 . S
N493 Li443 1.990 . S
N493 C492 1.314 . S
N493 C496 1.279 . S
C494 C492 1.353 . S
C494 C497 1.348 . S
C494 H526 0.929 . S
C495 C496 1.358 . S
C495 C497 1.356 . S
C495 H527 0.930 . S
C496 N493 1.279 . S
C496 C495 1.358 . S
C496 H499 0.930 . S
C497 C494 1.348 . S
C497 C495 1.356 . S
H498 C492 0.930 . S
H499 C496 0.930 . S
O500 Li440 1.956 . S
O500 Li441 1.970 . S
O500 Li442 1.961 . S
O500 C444 1.325 . S
O501 Li440 1.970 . S
O501 Li441 1.956 . S
O501 Li443 1.961 . S
O501 C450 1.325 . S
O502 Li440 1.961 . S
O502 Li442 1.956 . S
O502 Li443 1.970 . S
O502 C472 1.325 . S
O503 Li441 1.961 . S
O503 Li442 1.970 . S
O503 Li443 1.956 . S
O503 C478 1.325 . S
H504 C446 0.929 . S
H505 C447 0.930 . S
H506 C448 0.930 . S
H507 C449 0.930 . S
H508 C451 0.930 . S
H509 C453 0.929 . S
H510 C454 0.930 . S
H511 C455 0.930 . S
H512 C458 0.930 . S
H513 C461 0.929 . S
H514 C466 0.929 . S
H515 C467 0.930 . S
H516 C474 0.929 . S
H517 C475 0.930 . S
H518 C476 0.930 . S
H519 C477 0.930 . S
H520 C479 0.929 . S
H521 C480 0.930 . S
H522 C481 0.930 . S
H523 C482 0.930 . S
H524 C486 0.929 . S
H525 C488 0.930 . S
H526 C494 0.929 . S
H527 C495 0.930 . S
Li528 N545 1.990 . S
Li528 O588 1.956 . S
Li528 O589 1.970 . S
Li528 O590 1.961 . S
Li529 N553 1.990 . S
Li529 O588 1.970 . S
Li529 O589 1.956 . S
Li529 O591 1.961 . S
Li530 N575 1.990 . S
Li530 O588 1.961 . S
Li530 O590 1.956 . S
Li530 O591 1.970 . S
Li531 N581 1.990 . S
Li531 O589 1.961 . S
Li531 O590 1.970 . S
Li531 O591 1.956 . S
C532 C534 1.348 . S
C532 C535 1.356 . S
C532 O588 1.325 . S
N533 C536 1.314 . S
N533 C537 1.279 . S
C534 C532 1.348 . S
C534 C536 1.353 . S
C534 H592 0.929 . S
C535 C532 1.356 . S
C535 C537 1.358 . S
C535 H593 0.930 . S
C536 N533 1.314 . S
C536 C534 1.353 . S
C536 H594 0.930 . S
C537 N533 1.279 . S
C537 C535 1.358 . S
C537 H595 0.930 . S
C538 C541 1.348 . S
C538 C542 1.356 . S
C538 O589 1.325 . S
C539 N540 1.279 . S
C539 C542 1.358 . S
C539 H596 0.930 . S
N540 C539 1.279 . S
N540 C543 1.314 . S
C541 C538 1.348 . S
C541 C543 1.353 . S
C541 H597 0.929 . S
C542 C538 1.356 . S
C542 C539 1.358 . S
C542 H598 0.930 . S
C543 N540 1.314 . S
C543 C541 1.353 . S
C543 H599 0.930 . S
C544 N545 1.314 . S
C544 C549 1.353 . S
C544 H550 0.930 . S
N545 Li528 1.990 . S
N545 C544 1.314 . S
N545 C547 1.279 . S
C546 C547 1.358 . S
C546 C548 1.356 . S
C546 H600 0.930 . S
C547 N545 1.279 . S
C547 C546 1.358 . S
C547 H551 0.930 . S
C548 C546 1.356 . S
C548 C549 1.348 . S
C549 C544 1.353 . S
C549 C548 1.348 . S
C549 H601 0.929 . S
H550 C544 0.930 . S
H551 C547 0.930 . S
C552 N553 1.314 . S
C552 C554 1.353 . S
C552 H558 0.930 . S
N553 Li529 1.990 . S
N553 C552 1.314 . S
N553 C556 1.279 . S
C554 C552 1.353 . S
C554 C557 1.348 . S
C554 H602 0.929 . S
C555 C556 1.358 . S
C555 C557 1.356 . S
C555 H603 0.930 . S
C556 N553 1.279 . S
C556 C555 1.358 . S
C556 H559 0.930 . S
C557 C554 1.348 . S
C557 C555 1.356 . S
H558 C552 0.930 . S
H559 C556 0.930 . S
C560 C562 1.348 . S
C560 C563 1.356 . S
C560 O590 1.325 . S
N561 C564 1.314 . S
N561 C565 1.279 . S
C562 C560 1.348 . S
C562 C564 1.353 . S
C562 H604 0.929 . S
C563 C560 1.356 . S
C563 C565 1.358 . S
C563 H605 0.930 . S
C564 N561 1.314 . S
C564 C562 1.353 . S
C564 H606 0.930 . S
C565 N561 1.279 . S
C565 C563 1.358 . S
C565 H607 0.930 . S
C566 C567 1.348 . S
C566 C568 1.356 . S
C566 O591 1.325 . S
C567 C566 1.348 . S
C567 C569 1.353 . S
C567 H608 0.929 . S
C568 C566 1.356 . S
C568 C570 1.358 . S
C568 H609 0.930 . S
C569 C567 1.353 . S
C569 N571 1.314 . S
C569 H610 0.930 . S
C570 C568 1.358 . S
C570 N571 1.279 . S
C570 H611 0.930 . S
N571 C569 1.314 . S
N571 C570 1.279 . S
C572 C574 1.353 . S
C572 N575 1.314 . S
C572 H578 0.930 . S
C573 N575 1.279 . S
C573 C576 1.358 . S
C573 H579 0.930 . S
C574 C572 1.353 . S
C574 C577 1.348 . S
C574 H612 0.929 . S
N575 Li530 1.990 . S
N575 C572 1.314 . S
N575 C573 1.279 . S
C576 C573 1.358 . S
C576 C577 1.356 . S
C576 H613 0.930 . S
C577 C574 1.348 . S
C577 C576 1.356 . S
H578 C572 0.930 . S
H579 C573 0.930 . S
C580 N581 1.314 . S
C580 C582 1.353 . S
C580 H586 0.930 . S
N581 Li531 1.990 . S
N581 C580 1.314 . S
N581 C584 1.279 . S
C582 C580 1.353 . S
C582 C585 1.348 . S
C582 H614 0.929 . S
C583 C584 1.358 . S
C583 C585 1.356 . S
C583 H615 0.930 . S
C584 N581 1.279 . S
C584 C583 1.358 . S
C584 H587 0.930 . S
C585 C582 1.348 . S
C585 C583 1.356 . S
H586 C580 0.930 . S
H587 C584 0.930 . S
O588 Li528 1.956 . S
O588 Li529 1.970 . S
O588 Li530 1.961 . S
O588 C532 1.325 . S
O589 Li528 1.970 . S
O589 Li529 1.956 . S
O589 Li531 1.961 . S
O589 C538 1.325 . S
O590 Li528 1.961 . S
O590 Li530 1.956 . S
O590 Li531 1.970 . S
O590 C560 1.325 . S
O591 Li529 1.961 . S
O591 Li530 1.970 . S
O591 Li531 1.956 . S
O591 C566 1.325 . S
H592 C534 0.929 . S
H593 C535 0.930 . S
H594 C536 0.930 . S
H595 C537 0.930 . S
H596 C539 0.930 . S
H597 C541 0.929 . S
H598 C542 0.930 . S
H599 C543 0.930 . S
H600 C546 0.930 . S
H601 C549 0.929 . S
H602 C554 0.929 . S
H603 C555 0.930 . S
H604 C562 0.929 . S
H605 C563 0.930 . S
H606 C564 0.930 . S
H607 C565 0.930 . S
H608 C567 0.929 . S
H609 C568 0.930 . S
H610 C569 0.930 . S
H611 C570 0.930 . S
H612 C574 0.929 . S
H613 C576 0.930 . S
H614 C582 0.929 . S
H615 C583 0.930 . S
Li616 N633 1.990 . S
Li616 O676 1.956 . S
Li616 O677 1.970 . S
Li616 O678 1.961 . S
Li617 N641 1.990 . S
Li617 O676 1.970 . S
Li617 O677 1.956 . S
Li617 O679 1.961 . S
Li618 N663 1.990 . S
Li618 O676 1.961 . S
Li618 O678 1.956 . S
Li618 O679 1.970 . S
Li619 N669 1.990 . S
Li619 O677 1.961 . S
Li619 O678 1.970 . S
Li619 O679 1.956 . S
C620 C622 1.348 . S
C620 C623 1.356 . S
C620 O676 1.325 . S
N621 C624 1.314 . S
N621 C625 1.279 . S
C622 C620 1.348 . S
C622 C624 1.353 . S
C622 H680 0.929 . S
C623 C620 1.356 . S
C623 C625 1.358 . S
C623 H681 0.930 . S
C624 N621 1.314 . S
C624 C622 1.353 . S
C624 H682 0.930 . S
C625 N621 1.279 . S
C625 C623 1.358 . S
C625 H683 0.930 . S
C626 C629 1.348 . S
C626 C630 1.356 . S
C626 O677 1.325 . S
C627 N628 1.279 . S
C627 C630 1.358 . S
C627 H684 0.930 . S
N628 C627 1.279 . S
N628 C631 1.314 . S
C629 C626 1.348 . S
C629 C631 1.353 . S
C629 H685 0.929 . S
C630 C626 1.356 . S
C630 C627 1.358 . S
C630 H686 0.930 . S
C631 N628 1.314 . S
C631 C629 1.353 . S
C631 H687 0.930 . S
C632 N633 1.314 . S
C632 C637 1.353 . S
C632 H638 0.930 . S
N633 Li616 1.990 . S
N633 C632 1.314 . S
N633 C635 1.279 . S
C634 C635 1.358 . S
C634 C636 1.356 . S
C634 H688 0.930 . S
C635 N633 1.279 . S
C635 C634 1.358 . S
C635 H639 0.930 . S
C636 C634 1.356 . S
C636 C637 1.348 . S
C637 C632 1.353 . S
C637 C636 1.348 . S
C637 H689 0.929 . S
H638 C632 0.930 . S
H639 C635 0.930 . S
C640 N641 1.314 . S
C640 C642 1.353 . S
C640 H646 0.930 . S
N641 Li617 1.990 . S
N641 C640 1.314 . S
N641 C644 1.279 . S
C642 C640 1.353 . S
C642 C645 1.348 . S
C642 H690 0.929 . S
C643 C644 1.358 . S
C643 C645 1.356 . S
C643 H691 0.930 . S
C644 N641 1.279 . S
C644 C643 1.358 . S
C644 H647 0.930 . S
C645 C642 1.348 . S
C645 C643 1.356 . S
H646 C640 0.930 . S
H647 C644 0.930 . S
C648 C650 1.348 . S
C648 C651 1.356 . S
C648 O678 1.325 . S
N649 C652 1.314 . S
N649 C653 1.279 . S
C650 C648 1.348 . S
C650 C652 1.353 . S
C650 H692 0.929 . S
C651 C648 1.356 . S
C651 C653 1.358 . S
C651 H693 0.930 . S
C652 N649 1.314 . S
C652 C650 1.353 . S
C652 H694 0.930 . S
C653 N649 1.279 . S
C653 C651 1.358 . S
C653 H695 0.930 . S
C654 C655 1.348 . S
C654 C656 1.356 . S
C654 O679 1.325 . S
C655 C654 1.348 . S
C655 C657 1.353 . S
C655 H696 0.929 . S
C656 C654 1.356 . S
C656 C658 1.358 . S
C656 H697 0.930 . S
C657 C655 1.353 . S
C657 N659 1.314 . S
C657 H698 0.930 . S
C658 C656 1.358 . S
C658 N659 1.279 . S
C658 H699 0.960 . S
N659 C657 1.314 . S
N659 C658 1.279 . S
C660 C662 1.353 . S
C660 N663 1.314 . S
C660 H666 0.930 . S
C661 N663 1.279 . S
C661 C664 1.358 . S
C661 H667 0.930 . S
C662 C660 1.353 . S
C662 C665 1.348 . S
C662 H700 0.929 . S
N663 Li618 1.990 . S
N663 C660 1.314 . S
N663 C661 1.279 . S
C664 C661 1.358 . S
C664 C665 1.356 . S
C664 H701 0.930 . S
C665 C662 1.348 . S
C665 C664 1.356 . S
H666 C660 0.930 . S
H667 C661 0.930 . S
C668 N669 1.314 . S
C668 C670 1.353 . S
C668 H674 0.930 . S
N669 Li619 1.990 . S
N669 C668 1.314 . S
N669 C672 1.279 . S
C670 C668 1.353 . S
C670 C673 1.348 . S
C670 H702 0.929 . S
C671 C672 1.358 . S
C671 C673 1.356 . S
C671 H703 0.930 . S
C672 N669 1.279 . S
C672 C671 1.358 . S
C672 H675 0.930 . S
C673 C670 1.348 . S
C673 C671 1.356 . S
H674 C668 0.930 . S
H675 C672 0.930 . S
O676 Li616 1.956 . S
O676 Li617 1.970 . S
O676 Li618 1.961 . S
O676 C620 1.325 . S
O677 Li616 1.970 . S
O677 Li617 1.956 . S
O677 Li619 1.961 . S
O677 C626 1.325 . S
O678 Li616 1.961 . S
O678 Li618 1.956 . S
O678 Li619 1.970 . S
O678 C648 1.325 . S
O679 Li617 1.961 . S
O679 Li618 1.970 . S
O679 Li619 1.956 . S
O679 C654 1.325 . S
H680 C622 0.929 . S
H681 C623 0.930 . S
H682 C624 0.930 . S
H683 C625 0.930 . S
H684 C627 0.930 . S
H685 C629 0.929 . S
H686 C630 0.930 . S
H687 C631 0.930 . S
H688 C634 0.930 . S
H689 C637 0.929 . S
H690 C642 0.929 . S
H691 C643 0.930 . S
H692 C650 0.929 . S
H693 C651 0.930 . S
H694 C652 0.930 . S
H695 C653 0.930 . S
H696 C655 0.929 . S
H697 C656 0.930 . S
H698 C657 0.930 . S
H699 C658 0.960 . S
H700 C662 0.929 . S
H701 C664 0.930 . S
H702 C670 0.929 . S
H703 C671 0.930 . S
Li704 N721 1.990 . S
Li704 O764 1.956 . S
Li704 O765 1.970 . S
Li704 O766 1.961 . S
Li705 N729 1.990 . S
Li705 O764 1.970 . S
Li705 O765 1.956 . S
Li705 O767 1.961 . S
Li706 N751 1.990 . S
Li706 O764 1.961 . S
Li706 O766 1.956 . S
Li706 O767 1.970 . S
Li707 N757 1.990 . S
Li707 O765 1.961 . S
Li707 O766 1.970 . S
Li707 O767 1.956 . S
C708 C710 1.348 . S
C708 C711 1.356 . S
C708 O764 1.325 . S
N709 C712 1.314 . S
N709 C713 1.279 . S
C710 C708 1.348 . S
C710 C712 1.353 . S
C710 H768 0.929 . S
C711 C708 1.356 . S
C711 C713 1.358 . S
C711 H769 0.930 . S
C712 N709 1.314 . S
C712 C710 1.353 . S
C712 H770 0.930 . S
C713 N709 1.279 . S
C713 C711 1.358 . S
C713 H771 0.930 . S
C714 C717 1.348 . S
C714 C718 1.356 . S
C714 O765 1.325 . S
C715 N716 1.279 . S
C715 C718 1.358 . S
C715 H772 0.930 . S
N716 C715 1.279 . S
N716 C719 1.314 . S
C717 C714 1.348 . S
C717 C719 1.353 . S
C717 H773 0.929 . S
C718 C714 1.356 . S
C718 C715 1.358 . S
C718 H774 0.930 . S
C719 N716 1.314 . S
C719 C717 1.353 . S
C719 H775 0.930 . S
C720 N721 1.314 . S
C720 C725 1.353 . S
C720 H726 0.930 . S
N721 Li704 1.990 . S
N721 C720 1.314 . S
N721 C723 1.279 . S
C722 C723 1.358 . S
C722 C724 1.356 . S
C722 H776 0.930 . S
C723 N721 1.279 . S
C723 C722 1.358 . S
C723 H727 0.930 . S
C724 C722 1.356 . S
C724 C725 1.348 . S
C725 C720 1.353 . S
C725 C724 1.348 . S
C725 H777 0.929 . S
H726 C720 0.930 . S
H727 C723 0.930 . S
C728 N729 1.314 . S
C728 C730 1.353 . S
C728 H734 0.930 . S
N729 Li705 1.990 . S
N729 C728 1.314 . S
N729 C732 1.279 . S
C730 C728 1.353 . S
C730 C733 1.348 . S
C730 H778 0.929 . S
C731 C732 1.358 . S
C731 C733 1.356 . S
C731 H779 0.930 . S
C732 N729 1.279 . S
C732 C731 1.358 . S
C732 H735 0.930 . S
C733 C730 1.348 . S
C733 C731 1.356 . S
H734 C728 0.930 . S
H735 C732 0.930 . S
C736 C738 1.348 . S
C736 C739 1.356 . S
C736 O766 1.325 . S
N737 C740 1.314 . S
N737 C741 1.279 . S
C738 C736 1.348 . S
C738 C740 1.353 . S
C738 H780 0.929 . S
C739 C736 1.356 . S
C739 C741 1.358 . S
C739 H781 0.930 . S
C740 N737 1.314 . S
C740 C738 1.353 . S
C740 H782 0.930 . S
C741 N737 1.279 . S
C741 C739 1.358 . S
C741 H783 0.930 . S
C742 C743 1.348 . S
C742 C744 1.356 . S
C742 O767 1.325 . S
C743 C742 1.348 . S
C743 C745 1.353 . S
C743 H784 0.929 . S
C744 C742 1.356 . S
C744 C746 1.358 . S
C744 H785 0.930 . S
C745 C743 1.353 . S
C745 N747 1.314 . S
C745 H786 0.930 . S
C746 C744 1.358 . S
C746 N747 1.279 . S
C746 H787 0.930 . S
N747 C745 1.314 . S
N747 C746 1.279 . S
C748 C750 1.353 . S
C748 N751 1.314 . S
C748 H754 0.930 . S
C749 N751 1.279 . S
C749 C752 1.358 . S
C749 H755 0.930 . S
C750 C748 1.353 . S
C750 C753 1.348 . S
C750 H788 0.929 . S
N751 Li706 1.990 . S
N751 C748 1.314 . S
N751 C749 1.279 . S
C752 C749 1.358 . S
C752 C753 1.356 . S
C752 H789 0.930 . S
C753 C750 1.348 . S
C753 C752 1.356 . S
H754 C748 0.930 . S
H755 C749 0.930 . S
C756 N757 1.314 . S
C756 C758 1.353 . S
C756 H762 0.930 . S
N757 Li707 1.990 . S
N757 C756 1.314 . S
N757 C760 1.279 . S
C758 C756 1.353 . S
C758 C761 1.348 . S
C758 H790 0.929 . S
C759 C760 1.358 . S
C759 C761 1.356 . S
C759 H791 0.930 . S
C760 N757 1.279 . S
C760 C759 1.358 . S
C760 H763 0.930 . S
C761 C758 1.348 . S
C761 C759 1.356 . S
H762 C756 0.930 . S
H763 C760 0.930 . S
O764 Li704 1.956 . S
O764 Li705 1.970 . S
O764 Li706 1.961 . S
O764 C708 1.325 . S
O765 Li704 1.970 . S
O765 Li705 1.956 . S
O765 Li707 1.961 . S
O765 C714 1.325 . S
O766 Li704 1.961 . S
O766 Li706 1.956 . S
O766 Li707 1.970 . S
O766 C736 1.325 . S
O767 Li705 1.961 . S
O767 Li706 1.970 . S
O767 Li707 1.956 . S
O767 C742 1.325 . S
H768 C710 0.929 . S
H769 C711 0.930 . S
H770 C712 0.930 . S
H771 C713 0.930 . S
H772 C715 0.930 . S
H773 C717 0.929 . S
H774 C718 0.930 . S
H775 C719 0.930 . S
H776 C722 0.930 . S
H777 C725 0.929 . S
H778 C730 0.929 . S
H779 C731 0.930 . S
H780 C738 0.929 . S
H781 C739 0.930 . S
H782 C740 0.930 . S
H783 C741 0.930 . S
H784 C743 0.929 . S
H785 C744 0.930 . S
H786 C745 0.930 . S
H787 C746 0.930 . S
H788 C750 0.929 . S
H789 C752 0.930 . S
H790 C758 0.929 . S
H791 C759 0.930 . S
Li792 N809 1.990 . S
Li792 O852 1.956 . S
Li792 O853 1.970 . S
Li792 O854 1.961 . S
Li793 N817 1.990 . S
Li793 O852 1.970 . S
Li793 O853 1.956 . S
Li793 O855 1.961 . S
Li794 N839 1.990 . S
Li794 O852 1.961 . S
Li794 O854 1.956 . S
Li794 O855 1.970 . S
Li795 N845 1.990 . S
Li795 O853 1.961 . S
Li795 O854 1.970 . S
Li795 O855 1.956 . S
C796 C798 1.348 . S
C796 C799 1.356 . S
C796 O852 1.325 . S
N797 C800 1.314 . S
N797 C801 1.279 . S
C798 C796 1.348 . S
C798 C800 1.353 . S
C798 H856 0.929 . S
C799 C796 1.356 . S
C799 C801 1.358 . S
C799 H857 0.930 . S
C800 N797 1.314 . S
C800 C798 1.353 . S
C800 H858 0.930 . S
C801 N797 1.279 . S
C801 C799 1.358 . S
C801 H859 0.930 . S
C802 C805 1.348 . S
C802 C806 1.356 . S
C802 O853 1.325 . S
C803 N804 1.279 . S
C803 C806 1.358 . S
C803 H860 0.930 . S
N804 C803 1.279 . S
N804 C807 1.314 . S
C805 C802 1.348 . S
C805 C807 1.353 . S
C805 H861 0.929 . S
C806 C802 1.356 . S
C806 C803 1.358 . S
C806 H862 0.930 . S
C807 N804 1.314 . S
C807 C805 1.353 . S
C807 H863 0.930 . S
C808 N809 1.314 . S
C808 C813 1.353 . S
C808 H814 0.930 . S
N809 Li792 1.990 . S
N809 C808 1.314 . S
N809 C811 1.279 . S
C810 C811 1.358 . S
C810 C812 1.356 . S
C810 H864 0.930 . S
C811 N809 1.279 . S
C811 C810 1.358 . S
C811 H815 0.930 . S
C812 C810 1.356 . S
C812 C813 1.348 . S
C813 C808 1.353 . S
C813 C812 1.348 . S
C813 H865 0.929 . S
H814 C808 0.930 . S
H815 C811 0.930 . S
C816 N817 1.314 . S
C816 C818 1.353 . S
C816 H822 0.930 . S
N817 Li793 1.990 . S
N817 C816 1.314 . S
N817 C820 1.279 . S
C818 C816 1.353 . S
C818 C821 1.348 . S
C818 H866 0.929 . S
C819 C820 1.358 . S
C819 C821 1.356 . S
C819 H867 0.930 . S
C820 N817 1.279 . S
C820 C819 1.358 . S
C820 H823 0.930 . S
C821 C818 1.348 . S
C821 C819 1.356 . S
H822 C816 0.930 . S
H823 C820 0.930 . S
C824 C826 1.348 . S
C824 C827 1.356 . S
C824 O854 1.325 . S
N825 C828 1.314 . S
N825 C829 1.279 . S
C826 C824 1.348 . S
C826 C828 1.353 . S
C826 H868 0.929 . S
C827 C824 1.356 . S
C827 C829 1.358 . S
C827 H869 0.930 . S
C828 N825 1.314 . S
C828 C826 1.353 . S
C828 H870 0.930 . S
C829 N825 1.279 . S
C829 C827 1.358 . S
C829 H871 0.930 . S
C830 C831 1.348 . S
C830 C832 1.356 . S
C830 O855 1.325 . S
C831 C830 1.348 . S
C831 C833 1.353 . S
C831 H872 0.929 . S
C832 C830 1.356 . S
C832 C834 1.358 . S
C832 H873 0.930 . S
C833 C831 1.353 . S
C833 N835 1.314 . S
C833 H874 0.930 . S
C834 C832 1.358 . S
C834 N835 1.279 . S
C834 H875 0.930 . S
N835 C833 1.314 . S
N835 C834 1.279 . S
C836 C838 1.353 . S
C836 N839 1.314 . S
C836 H842 0.930 . S
C837 N839 1.279 . S
C837 C840 1.358 . S
C837 H843 0.930 . S
C838 C836 1.353 . S
C838 C841 1.348 . S
C838 H876 0.929 . S
N839 Li794 1.990 . S
N839 C836 1.314 . S
N839 C837 1.279 . S
C840 C837 1.358 . S
C840 C841 1.356 . S
C840 H877 0.930 . S
C841 C838 1.348 . S
C841 C840 1.356 . S
H842 C836 0.930 . S
H843 C837 0.930 . S
C844 N845 1.314 . S
C844 C846 1.353 . S
C844 H850 0.930 . S
N845 Li795 1.990 . S
N845 C844 1.314 . S
N845 C848 1.279 . S
C846 C844 1.353 . S
C846 C849 1.348 . S
C846 H878 0.929 . S
C847 C848 1.358 . S
C847 C849 1.356 . S
C847 H879 0.930 . S
C848 N845 1.279 . S
C848 C847 1.358 . S
C848 H851 0.930 . S
C849 C846 1.348 . S
C849 C847 1.356 . S
H850 C844 0.930 . S
H851 C848 0.930 . S
O852 Li792 1.956 . S
O852 Li793 1.970 . S
O852 Li794 1.961 . S
O852 C796 1.325 . S
O853 Li792 1.970 . S
O853 Li793 1.956 . S
O853 Li795 1.961 . S
O853 C802 1.325 . S
O854 Li792 1.961 . S
O854 Li794 1.956 . S
O854 Li795 1.970 . S
O854 C824 1.325 . S
O855 Li793 1.961 . S
O855 Li794 1.970 . S
O855 Li795 1.956 . S
O855 C830 1.325 . S
H856 C798 0.929 . S
H857 C799 0.930 . S
H858 C800 0.930 . S
H859 C801 0.930 . S
H860 C803 0.930 . S
H861 C805 0.929 . S
H862 C806 0.930 . S
H863 C807 0.930 . S
H864 C810 0.930 . S
H865 C813 0.929 . S
H866 C818 0.929 . S
H867 C819 0.930 . S
H868 C826 0.929 . S
H869 C827 0.930 . S
H870 C828 0.930 . S
H871 C829 0.930 . S
H872 C831 0.929 . S
H873 C832 0.930 . S
H874 C833 0.930 . S
H875 C834 0.930 . S
H876 C838 0.929 . S
H877 C840 0.930 . S
H878 C846 0.929 . S
H879 C847 0.930 . S
Li880 N897 1.990 . S
Li880 O940 1.956 . S
Li880 O941 1.970 . S
Li880 O942 1.961 . S
Li881 N905 1.990 . S
Li881 O940 1.970 . S
Li881 O941 1.956 . S
Li881 O943 1.961 . S
Li882 N927 1.990 . S
Li882 O940 1.961 . S
Li882 O942 1.956 . S
Li882 O943 1.970 . S
Li883 N933 1.990 . S
Li883 O941 1.961 . S
Li883 O942 1.970 . S
Li883 O943 1.956 . S
C884 C886 1.348 . S
C884 C887 1.356 . S
C884 O940 1.325 . S
N885 C888 1.314 . S
N885 C889 1.279 . S
C886 C884 1.348 . S
C886 C888 1.353 . S
C886 H944 0.929 . S
C887 C884 1.356 . S
C887 C889 1.358 . S
C887 H945 0.930 . S
C888 N885 1.314 . S
C888 C886 1.353 . S
C888 H946 0.930 . S
C889 N885 1.279 . S
C889 C887 1.358 . S
C889 H947 0.930 . S
C890 C893 1.348 . S
C890 C894 1.356 . S
C890 O941 1.325 . S
C891 N892 1.279 . S
C891 C894 1.358 . S
C891 H948 0.930 . S
N892 C891 1.279 . S
N892 C895 1.314 . S
C893 C890 1.348 . S
C893 C895 1.353 . S
C893 H949 0.929 . S
C894 C890 1.356 . S
C894 C891 1.358 . S
C894 H950 0.930 . S
C895 N892 1.314 . S
C895 C893 1.353 . S
C895 H951 0.930 . S
C896 N897 1.314 . S
C896 C901 1.353 . S
C896 H902 0.930 . S
N897 Li880 1.990 . S
N897 C896 1.314 . S
N897 C899 1.279 . S
C898 C899 1.358 . S
C898 C900 1.356 . S
C898 H952 0.930 . S
C899 N897 1.279 . S
C899 C898 1.358 . S
C899 H903 0.930 . S
C900 C898 1.356 . S
C900 C901 1.348 . S
C901 C896 1.353 . S
C901 C900 1.348 . S
C901 H953 0.929 . S
H902 C896 0.930 . S
H903 C899 0.930 . S
C904 N905 1.314 . S
C904 C906 1.353 . S
C904 H910 0.930 . S
N905 Li881 1.990 . S
N905 C904 1.314 . S
N905 C908 1.279 . S
C906 C904 1.353 . S
C906 C909 1.348 . S
C906 H954 0.929 . S
C907 C908 1.358 . S
C907 C909 1.356 . S
C907 H955 0.930 . S
C908 N905 1.279 . S
C908 C907 1.358 . S
C908 H911 0.930 . S
C909 C906 1.348 . S
C909 C907 1.356 . S
H910 C904 0.930 . S
H911 C908 0.930 . S
C912 C914 1.348 . S
C912 C915 1.356 . S
C912 O942 1.325 . S
N913 C916 1.314 . S
N913 C917 1.279 . S
C914 C912 1.348 . S
C914 C916 1.353 . S
C914 H956 0.929 . S
C915 C912 1.356 . S
C915 C917 1.358 . S
C915 H957 0.930 . S
C916 N913 1.314 . S
C916 C914 1.353 . S
C916 H958 0.930 . S
C917 N913 1.279 . S
C917 C915 1.358 . S
C917 H959 0.930 . S
C918 C919 1.348 . S
C918 C920 1.356 . S
C918 O943 1.325 . S
C919 C918 1.348 . S
C919 C921 1.353 . S
C919 H960 0.929 . S
C920 C918 1.356 . S
C920 C922 1.358 . S
C920 H961 0.930 . S
C921 C919 1.353 . S
C921 N923 1.314 . S
C921 H962 0.930 . S
C922 C920 1.358 . S
C922 N923 1.279 . S
C922 H963 0.930 . S
N923 C921 1.314 . S
N923 C922 1.279 . S
C924 C926 1.353 . S
C924 N927 1.314 . S
C924 H930 0.930 . S
C925 N927 1.279 . S
C925 C928 1.358 . S
C925 H931 0.930 . S
C926 C924 1.353 . S
C926 C929 1.348 . S
C926 H964 0.929 . S
N927 Li882 1.990 . S
N927 C924 1.314 . S
N927 C925 1.279 . S
C928 C925 1.358 . S
C928 C929 1.356 . S
C928 H965 0.930 . S
C929 C926 1.348 . S
C929 C928 1.356 . S
H930 C924 0.930 . S
H931 C925 0.930 . S
C932 N933 1.314 . S
C932 C934 1.353 . S
C932 H938 0.930 . S
N933 Li883 1.990 . S
N933 C932 1.314 . S
N933 C936 1.279 . S
C934 C932 1.353 . S
C934 C937 1.348 . S
C934 H966 0.929 . S
C935 C936 1.358 . S
C935 C937 1.356 . S
C935 H967 0.930 . S
C936 N933 1.279 . S
C936 C935 1.358 . S
C936 H939 0.930 . S
C937 C934 1.348 . S
C937 C935 1.356 . S
H938 C932 0.930 . S
H939 C936 0.930 . S
O940 Li880 1.956 . S
O940 Li881 1.970 . S
O940 Li882 1.961 . S
O940 C884 1.325 . S
O941 Li880 1.970 . S
O941 Li881 1.956 . S
O941 Li883 1.961 . S
O941 C890 1.325 . S
O942 Li880 1.961 . S
O942 Li882 1.956 . S
O942 Li883 1.970 . S
O942 C912 1.325 . S
O943 Li881 1.961 . S
O943 Li882 1.970 . S
O943 Li883 1.956 . S
O943 C918 1.325 . S
H944 C886 0.929 . S
H945 C887 0.930 . S
H946 C888 0.930 . S
H947 C889 0.930 . S
H948 C891 0.930 . S
H949 C893 0.929 . S
H950 C894 0.930 . S
H951 C895 0.930 . S
H952 C898 0.930 . S
H953 C901 0.929 . S
H954 C906 0.929 . S
H955 C907 0.930 . S
H956 C914 0.929 . S
H957 C915 0.930 . S
H958 C916 0.930 . S
H959 C917 0.930 . S
H960 C919 0.929 . S
H961 C920 0.930 . S
H962 C921 0.930 . S
H963 C922 0.930 . S
H964 C926 0.929 . S
H965 C928 0.930 . S
H966 C934 0.929 . S
H967 C935 0.930 . S
Li968 N985 1.990 . S
Li968 O1028 1.956 . S
Li968 O1029 1.970 . S
Li968 O1030 1.961 . S
Li969 N993 1.990 . S
Li969 O1028 1.970 . S
Li969 O1029 1.956 . S
Li969 O1031 1.961 . S
Li970 N1015 1.990 . S
Li970 O1028 1.961 . S
Li970 O1030 1.956 . S
Li970 O1031 1.970 . S
Li971 N1021 1.990 . S
Li971 O1029 1.961 . S
Li971 O1030 1.970 . S
Li971 O1031 1.956 . S
C972 C974 1.348 . S
C972 C975 1.356 . S
C972 O1028 1.325 . S
N973 C976 1.314 . S
N973 C977 1.279 . S
C974 C972 1.348 . S
C974 C976 1.353 . S
C974 H1032 0.929 . S
C975 C972 1.356 . S
C975 C977 1.358 . S
C975 H1033 0.930 . S
C976 N973 1.314 . S
C976 C974 1.353 . S
C976 H1034 0.930 . S
C977 N973 1.279 . S
C977 C975 1.358 . S
C977 H1035 0.930 . S
C978 C981 1.348 . S
C978 C982 1.356 . S
C978 O1029 1.325 . S
C979 N980 1.279 . S
C979 C982 1.358 . S
C979 H1036 0.930 . S
N980 C979 1.279 . S
N980 C983 1.314 . S
C981 C978 1.348 . S
C981 C983 1.353 . S
C981 H1037 0.929 . S
C982 C978 1.356 . S
C982 C979 1.358 . S
C982 H1038 0.930 . S
C983 N980 1.314 . S
C983 C981 1.353 . S
C983 H1039 0.930 . S
C984 N985 1.314 . S
C984 C989 1.353 . S
C984 H990 0.930 . S
N985 Li968 1.990 . S
N985 C984 1.314 . S
N985 C987 1.279 . S
C986 C987 1.358 . S
C986 C988 1.356 . S
C986 H1040 0.930 . S
C987 N985 1.279 . S
C987 C986 1.358 . S
C987 H991 0.930 . S
C988 C986 1.356 . S
C988 C989 1.348 . S
C989 C984 1.353 . S
C989 C988 1.348 . S
C989 H1041 0.929 . S
H990 C984 0.930 . S
H991 C987 0.930 . S
C992 N993 1.314 . S
C992 C994 1.353 . S
C992 H998 0.930 . S
N993 Li969 1.990 . S
N993 C992 1.314 . S
N993 C996 1.279 . S
C994 C992 1.353 . S
C994 C997 1.348 . S
C994 H1042 0.929 . S
C995 C996 1.358 . S
C995 C997 1.356 . S
C995 H1043 0.930 . S
C996 N993 1.279 . S
C996 C995 1.358 . S
C996 H999 0.930 . S
C997 C994 1.348 . S
C997 C995 1.356 . S
H998 C992 0.930 . S
H999 C996 0.930 . S
C1000 C1002 1.348 . S
C1000 C1003 1.356 . S
C1000 O1030 1.325 . S
N1001 C1004 1.314 . S
N1001 C1005 1.279 . S
C1002 C1000 1.348 . S
C1002 C1004 1.353 . S
C1002 H1044 0.929 . S
C1003 C1000 1.356 . S
C1003 C1005 1.358 . S
C1003 H1045 0.930 . S
C1004 N1001 1.314 . S
C1004 C1002 1.353 . S
C1004 H1046 0.930 . S
C1005 N1001 1.279 . S
C1005 C1003 1.358 . S
C1005 H1047 0.930 . S
C1006 C1007 1.348 . S
C1006 C1008 1.356 . S
C1006 O1031 1.325 . S
C1007 C1006 1.348 . S
C1007 C1009 1.353 . S
C1007 H1048 0.929 . S
C1008 C1006 1.356 . S
C1008 C1010 1.358 . S
C1008 H1049 0.930 . S
C1009 C1007 1.353 . S
C1009 N1011 1.314 . S
C1009 H1050 0.930 . S
C1010 C1008 1.358 . S
C1010 N1011 1.279 . S
C1010 H1051 0.930 . S
N1011 C1009 1.314 . S
N1011 C1010 1.279 . S
C1012 C1014 1.353 . S
C1012 N1015 1.314 . S
C1012 H1018 0.930 . S
C1013 N1015 1.279 . S
C1013 C1016 1.358 . S
C1013 H1019 0.930 . S
C1014 C1012 1.353 . S
C1014 C1017 1.348 . S
C1014 H1052 0.929 . S
N1015 Li970 1.990 . S
N1015 C1012 1.314 . S
N1015 C1013 1.279 . S
C1016 C1013 1.358 . S
C1016 C1017 1.356 . S
C1016 H1053 0.930 . S
C1017 C1014 1.348 . S
C1017 C1016 1.356 . S
H1018 C1012 0.930 . S
H1019 C1013 0.930 . S
C1020 N1021 1.314 . S
C1020 C1022 1.353 . S
C1020 H1026 0.930 . S
N1021 Li971 1.990 . S
N1021 C1020 1.314 . S
N1021 C1024 1.279 . S
C1022 C1020 1.353 . S
C1022 C1025 1.348 . S
C1022 H1054 0.929 . S
C1023 C1024 1.358 . S
C1023 C1025 1.356 . S
C1023 H1055 0.930 . S
C1024 N1021 1.279 . S
C1024 C1023 1.358 . S
C1024 H1027 0.930 . S
C1025 C1022 1.348 . S
C1025 C1023 1.356 . S
H1026 C1020 0.930 . S
H1027 C1024 0.930 . S
O1028 Li968 1.956 . S
O1028 Li969 1.970 . S
O1028 Li970 1.961 . S
O1028 C972 1.325 . S
O1029 Li968 1.970 . S
O1029 Li969 1.956 . S
O1029 Li971 1.961 . S
O1029 C978 1.325 . S
O1030 Li968 1.961 . S
O1030 Li970 1.956 . S
O1030 Li971 1.970 . S
O1030 C1000 1.325 . S
O1031 Li969 1.961 . S
O1031 Li970 1.970 . S
O1031 Li971 1.956 . S
O1031 C1006 1.325 . S
H1032 C974 0.929 . S
H1033 C975 0.930 . S
H1034 C976 0.930 . S
H1035 C977 0.930 . S
H1036 C979 0.930 . S
H1037 C981 0.929 . S
H1038 C982 0.930 . S
H1039 C983 0.930 . S
H1040 C986 0.930 . S
H1041 C989 0.929 . S
H1042 C994 0.929 . S
H1043 C995 0.930 . S
H1044 C1002 0.929 . S
H1045 C1003 0.930 . S
H1046 C1004 0.930 . S
H1047 C1005 0.930 . S
H1048 C1007 0.929 . S
H1049 C1008 0.930 . S
H1050 C1009 0.930 . S
H1051 C1010 0.930 . S
H1052 C1014 0.929 . S
H1053 C1016 0.930 . S
H1054 C1022 0.929 . S
H1055 C1023 0.930 . S
H1056 C1068 0.930 . S
H1057 C1070 0.930 . S
H1058 C1071 0.930 . S
H1059 C1075 0.959 . S
H1060 C1075 0.959 . S
H1061 C1075 0.961 . S
H1062 C1076 0.960 . S
H1063 C1076 0.961 . S
H1064 C1076 0.959 . S
H1065 C1079 0.929 . S
H1066 C1080 0.931 . S
H1067 C1082 0.930 . S
C1068 H1056 0.930 . S
C1068 C1069 1.399 . S
C1068 C1073 1.399 . S
C1069 C1068 1.399 . S
C1069 C1070 1.376 . S
C1070 H1057 0.930 . S
C1070 C1069 1.376 . S
C1070 C1071 1.388 . S
C1071 H1058 0.930 . S
C1071 C1070 1.388 . S
C1071 C1072 1.390 . S
C1072 C1071 1.390 . S
C1072 C1073 1.394 . S
C1072 C1078 1.465 . S
C1073 C1068 1.399 . S
C1073 C1072 1.394 . S
C1073 C1074 1.516 . S
C1074 C1073 1.516 . S
C1074 C1075 1.502 . S
C1074 C1076 1.561 . S
C1074 C1077 1.526 . S
C1075 H1059 0.959 . S
C1075 H1060 0.959 . S
C1075 H1061 0.961 . S
C1075 C1074 1.502 . S
C1076 H1062 0.960 . S
C1076 H1063 0.961 . S
C1076 H1064 0.959 . S
C1076 C1074 1.561 . S
C1077 C1074 1.526 . S
C1077 C1078 1.396 . S
C1077 C1082 1.390 . S
C1078 C1072 1.465 . S
C1078 C1077 1.396 . S
C1078 C1079 1.399 . S
C1079 H1065 0.929 . S
C1079 C1078 1.399 . S
C1079 C1080 1.385 . S
C1080 H1066 0.931 . S
C1080 C1079 1.385 . S
C1080 C1081 1.389 . S
C1081 C1080 1.389 . S
C1081 C1082 1.387 . S
C1082 H1067 0.930 . S
C1082 C1077 1.390 . S
C1082 C1081 1.387 . S
H1083 C1095 0.930 . S
H1084 C1097 0.930 . S
H1085 C1098 0.930 . S
H1086 C1102 0.959 . S
H1087 C1102 0.959 . S
H1088 C1102 0.961 . S
H1089 C1103 0.960 . S
H1090 C1103 0.961 . S
H1091 C1103 0.959 . S
H1092 C1106 0.929 . S
H1093 C1107 0.931 . S
H1094 C1109 0.930 . S
C1095 H1083 0.930 . S
C1095 C1096 1.399 . S
C1095 C1100 1.399 . S
C1096 C1095 1.399 . S
C1096 C1097 1.376 . S
C1097 H1084 0.930 . S
C1097 C1096 1.376 . S
C1097 C1098 1.388 . S
C1098 H1085 0.930 . S
C1098 C1097 1.388 . S
C1098 C1099 1.390 . S
C1099 C1098 1.390 . S
C1099 C1100 1.394 . S
C1099 C1105 1.465 . S
C1100 C1095 1.399 . S
C1100 C1099 1.394 . S
C1100 C1101 1.516 . S
C1101 C1100 1.516 . S
C1101 C1102 1.502 . S
C1101 C1103 1.561 . S
C1101 C1104 1.526 . S
C1102 H1086 0.959 . S
C1102 H1087 0.959 . S
C1102 H1088 0.961 . S
C1102 C1101 1.502 . S
C1103 H1089 0.960 . S
C1103 H1090 0.961 . S
C1103 H1091 0.959 . S
C1103 C1101 1.561 . S
C1104 C1101 1.526 . S
C1104 C1105 1.396 . S
C1104 C1109 1.390 . S
C1105 C1099 1.465 . S
C1105 C1104 1.396 . S
C1105 C1106 1.399 . S
C1106 H1092 0.929 . S
C1106 C1105 1.399 . S
C1106 C1107 1.385 . S
C1107 H1093 0.931 . S
C1107 C1106 1.385 . S
C1107 C1108 1.389 . S
C1108 C1107 1.389 . S
C1108 C1109 1.387 . S
C1109 H1094 0.930 . S
C1109 C1104 1.390 . S
C1109 C1108 1.387 . S
H1110 C1122 0.930 . S
H1111 C1124 0.930 . S
H1112 C1125 0.930 . S
H1113 C1129 0.959 . S
H1114 C1129 0.959 . S
H1115 C1129 0.961 . S
H1116 C1130 0.960 . S
H1117 C1130 0.961 . S
H1118 C1130 0.959 . S
H1119 C1133 0.929 . S
H1120 C1134 0.931 . S
H1121 C1136 0.930 . S
C1122 H1110 0.930 . S
C1122 C1123 1.399 . S
C1122 C1127 1.399 . S
C1123 C1122 1.399 . S
C1123 C1124 1.376 . S
C1124 H1111 0.930 . S
C1124 C1123 1.376 . S
C1124 C1125 1.388 . S
C1125 H1112 0.930 . S
C1125 C1124 1.388 . S
C1125 C1126 1.390 . S
C1126 C1125 1.390 . S
C1126 C1127 1.394 . S
C1126 C1132 1.465 . S
C1127 C1122 1.399 . S
C1127 C1126 1.394 . S
C1127 C1128 1.516 . S
C1128 C1127 1.516 . S
C1128 C1129 1.502 . S
C1128 C1130 1.561 . S
C1128 C1131 1.526 . S
C1129 H1113 0.959 . S
C1129 H1114 0.959 . S
C1129 H1115 0.961 . S
C1129 C1128 1.502 . S
C1130 H1116 0.960 . S
C1130 H1117 0.961 . S
C1130 H1118 0.959 . S
C1130 C1128 1.561 . S
C1131 C1128 1.526 . S
C1131 C1132 1.396 . S
C1131 C1136 1.390 . S
C1132 C1126 1.465 . S
C1132 C1131 1.396 . S
C1132 C1133 1.399 . S
C1133 H1119 0.929 . S
C1133 C1132 1.399 . S
C1133 C1134 1.385 . S
C1134 H1120 0.931 . S
C1134 C1133 1.385 . S
C1134 C1135 1.389 . S
C1135 C1134 1.389 . S
C1135 C1136 1.387 . S
C1136 H1121 0.930 . S
C1136 C1131 1.390 . S
C1136 C1135 1.387 . S
H1137 C1149 0.930 . S
H1138 C1151 0.930 . S
H1139 C1152 0.930 . S
H1140 C1156 0.959 . S
H1141 C1156 0.959 . S
H1142 C1156 0.961 . S
H1143 C1157 0.960 . S
H1144 C1157 0.961 . S
H1145 C1157 0.959 . S
H1146 C1160 0.929 . S
H1147 C1161 0.931 . S
H1148 C1163 0.930 . S
C1149 H1137 0.930 . S
C1149 C1150 1.399 . S
C1149 C1154 1.399 . S
C1150 C1149 1.399 . S
C1150 C1151 1.376 . S
C1151 H1138 0.930 . S
C1151 C1150 1.376 . S
C1151 C1152 1.388 . S
C1152 H1139 0.930 . S
C1152 C1151 1.388 . S
C1152 C1153 1.390 . S
C1153 C1152 1.390 . S
C1153 C1154 1.394 . S
C1153 C1159 1.465 . S
C1154 C1149 1.399 . S
C1154 C1153 1.394 . S
C1154 C1155 1.516 . S
C1155 C1154 1.516 . S
C1155 C1156 1.502 . S
C1155 C1157 1.561 . S
C1155 C1158 1.526 . S
C1156 H1140 0.959 . S
C1156 H1141 0.959 . S
C1156 H1142 0.961 . S
C1156 C1155 1.502 . S
C1157 H1143 0.960 . S
C1157 H1144 0.961 . S
C1157 H1145 0.959 . S
C1157 C1155 1.561 . S
C1158 C1155 1.526 . S
C1158 C1159 1.396 . S
C1158 C1163 1.390 . S
C1159 C1153 1.465 . S
C1159 C1158 1.396 . S
C1159 C1160 1.399 . S
C1160 H1146 0.929 . S
C1160 C1159 1.399 . S
C1160 C1161 1.385 . S
C1161 H1147 0.931 . S
C1161 C1160 1.385 . S
C1161 C1162 1.389 . S
C1162 C1161 1.389 . S
C1162 C1163 1.387 . S
C1163 H1148 0.930 . S
C1163 C1158 1.390 . S
C1163 C1162 1.387 . S
H1164 C1176 0.930 . S
H1165 C1178 0.930 . S
H1166 C1179 0.930 . S
H1167 C1183 0.959 . S
H1168 C1183 0.959 . S
H1169 C1183 0.961 . S
H1170 C1184 0.960 . S
H1171 C1184 0.961 . S
H1172 C1184 0.959 . S
H1173 C1187 0.929 . S
H1174 C1188 0.931 . S
H1175 C1190 0.930 . S
C1176 H1164 0.930 . S
C1176 C1177 1.399 . S
C1176 C1181 1.399 . S
C1177 C1176 1.399 . S
C1177 C1178 1.376 . S
C1178 H1165 0.930 . S
C1178 C1177 1.376 . S
C1178 C1179 1.388 . S
C1179 H1166 0.930 . S
C1179 C1178 1.388 . S
C1179 C1180 1.390 . S
C1180 C1179 1.390 . S
C1180 C1181 1.394 . S
C1180 C1186 1.465 . S
C1181 C1176 1.399 . S
C1181 C1180 1.394 . S
C1181 C1182 1.516 . S
C1182 C1181 1.516 . S
C1182 C1183 1.502 . S
C1182 C1184 1.561 . S
C1182 C1185 1.526 . S
C1183 H1167 0.959 . S
C1183 H1168 0.959 . S
C1183 H1169 0.961 . S
C1183 C1182 1.502 . S
C1184 H1170 0.960 . S
C1184 H1171 0.961 . S
C1184 H1172 0.959 . S
C1184 C1182 1.561 . S
C1185 C1182 1.526 . S
C1185 C1186 1.396 . S
C1185 C1190 1.390 . S
C1186 C1180 1.465 . S
C1186 C1185 1.396 . S
C1186 C1187 1.399 . S
C1187 H1173 0.929 . S
C1187 C1186 1.399 . S
C1187 C1188 1.385 . S
C1188 H1174 0.931 . S
C1188 C1187 1.385 . S
C1188 C1189 1.389 . S
C1189 C1188 1.389 . S
C1189 C1190 1.387 . S
C1190 H1175 0.930 . S
C1190 C1185 1.390 . S
C1190 C1189 1.387 . S
H1191 C1203 0.930 . S
H1192 C1205 0.930 . S
H1193 C1206 0.930 . S
H1194 C1210 0.959 . S
H1195 C1210 0.959 . S
H1196 C1210 0.961 . S
H1197 C1211 0.960 . S
H1198 C1211 0.961 . S
H1199 C1211 0.959 . S
H1200 C1214 0.929 . S
H1201 C1215 0.931 . S
H1202 C1217 0.930 . S
C1203 H1191 0.930 . S
C1203 C1204 1.399 . S
C1203 C1208 1.399 . S
C1204 C1203 1.399 . S
C1204 C1205 1.376 . S
C1205 H1192 0.930 . S
C1205 C1204 1.376 . S
C1205 C1206 1.388 . S
C1206 H1193 0.930 . S
C1206 C1205 1.388 . S
C1206 C1207 1.390 . S
C1207 C1206 1.390 . S
C1207 C1208 1.394 . S
C1207 C1213 1.465 . S
C1208 C1203 1.399 . S
C1208 C1207 1.394 . S
C1208 C1209 1.516 . S
C1209 C1208 1.516 . S
C1209 C1210 1.502 . S
C1209 C1211 1.561 . S
C1209 C1212 1.526 . S
C1210 H1194 0.959 . S
C1210 H1195 0.959 . S
C1210 H1196 0.961 . S
C1210 C1209 1.502 . S
C1211 H1197 0.960 . S
C1211 H1198 0.961 . S
C1211 H1199 0.959 . S
C1211 C1209 1.561 . S
C1212 C1209 1.526 . S
C1212 C1213 1.396 . S
C1212 C1217 1.390 . S
C1213 C1207 1.465 . S
C1213 C1212 1.396 . S
C1213 C1214 1.399 . S
C1214 H1200 0.929 . S
C1214 C1213 1.399 . S
C1214 C1215 1.385 . S
C1215 H1201 0.931 . S
C1215 C1214 1.385 . S
C1215 C1216 1.389 . S
C1216 C1215 1.389 . S
C1216 C1217 1.387 . S
C1217 H1202 0.930 . S
C1217 C1212 1.390 . S
C1217 C1216 1.387 . S
H1218 C1230 0.930 . S
H1219 C1232 0.930 . S
H1220 C1233 0.930 1_565 S
H1221 C1237 0.959 . S
H1222 C1237 0.959 . S
H1223 C1237 0.961 . S
H1224 C1238 0.960 . S
H1225 C1238 0.961 . S
H1226 C1238 0.959 . S
H1227 C1241 0.929 . S
H1228 C1242 0.931 . S
H1229 C1244 0.930 . S
C1230 H1218 0.930 . S
C1230 C1231 1.399 . S
C1230 C1235 1.399 . S
C1231 C1230 1.399 . S
C1231 C1232 1.376 . S
C1232 H1219 0.930 . S
C1232 C1231 1.376 . S
C1232 C1233 1.388 . S
C1233 H1220 0.930 1_545 S
C1233 C1232 1.388 . S
C1233 C1234 1.390 . S
C1234 C1233 1.390 . S
C1234 C1235 1.394 . S
C1234 C1240 1.447 1_544 S
C1235 C1230 1.399 . S
C1235 C1234 1.394 . S
C1235 C1236 1.516 1_554 S
C1236 C1235 1.516 1_556 S
C1236 C1237 1.502 . S
C1236 C1238 1.561 . S
C1236 C1239 1.526 1_545 S
C1237 H1221 0.959 . S
C1237 H1222 0.959 . S
C1237 H1223 0.961 . S
C1237 C1236 1.502 . S
C1238 H1224 0.960 . S
C1238 H1225 0.961 . S
C1238 H1226 0.959 . S
C1238 C1236 1.561 . S
C1239 C1236 1.526 1_565 S
C1239 C1240 1.423 . S
C1239 C1244 1.390 . S
C1240 C1234 1.447 1_566 S
C1240 C1239 1.423 . S
C1240 C1241 1.395 1_556 S
C1241 H1227 0.929 . S
C1241 C1240 1.395 1_554 S
C1241 C1242 1.385 1_554 S
C1242 H1228 0.931 . S
C1242 C1241 1.385 1_556 S
C1242 C1243 1.389 . S
C1243 C1242 1.389 . S
C1243 C1244 1.387 . S
C1244 H1229 0.930 . S
C1244 C1239 1.390 . S
C1244 C1243 1.387 . S
H1245 C1257 0.930 . S
H1246 C1259 0.930 . S
H1247 C1260 0.930 . S
H1248 C1264 0.959 . S
H1249 C1264 0.959 . S
H1250 C1264 0.961 . S
H1251 C1265 0.960 . S
H1252 C1265 0.961 . S
H1253 C1265 0.959 . S
H1254 C1268 0.929 . S
H1255 C1269 0.931 . S
H1256 C1271 0.930 . S
C1257 H1245 0.930 . S
C1257 C1258 1.399 . S
C1257 C1262 1.399 . S
C1258 C1257 1.399 . S
C1258 C1259 1.376 . S
C1259 H1246 0.930 . S
C1259 C1258 1.376 . S
C1259 C1260 1.388 . S
C1260 H1247 0.930 . S
C1260 C1259 1.388 . S
C1260 C1261 1.390 . S
C1261 C1260 1.390 . S
C1261 C1262 1.394 . S
C1261 C1267 1.465 . S
C1262 C1257 1.399 . S
C1262 C1261 1.394 . S
C1262 C1263 1.516 . S
C1263 C1262 1.516 . S
C1263 C1264 1.502 . S
C1263 C1265 1.561 . S
C1263 C1266 1.526 . S
C1264 H1248 0.959 . S
C1264 H1249 0.959 . S
C1264 H1250 0.961 . S
C1264 C1263 1.502 . S
C1265 H1251 0.960 . S
C1265 H1252 0.961 . S
C1265 H1253 0.959 . S
C1265 C1263 1.561 . S
C1266 C1263 1.526 . S
C1266 C1267 1.396 . S
C1266 C1271 1.390 . S
C1267 C1261 1.465 . S
C1267 C1266 1.396 . S
C1267 C1268 1.399 . S
C1268 H1254 0.929 . S
C1268 C1267 1.399 . S
C1268 C1269 1.385 . S
C1269 H1255 0.931 . S
C1269 C1268 1.385 . S
C1269 C1270 1.389 . S
C1270 C1269 1.389 . S
C1270 C1271 1.387 . S
C1271 H1256 0.930 . S
C1271 C1266 1.390 . S
C1271 C1270 1.387 . S
H1272 C1284 0.930 1_554 S
H1273 C1286 0.930 . S
H1274 C1287 0.930 . S
H1275 C1291 0.959 . S
H1276 C1291 0.959 . S
H1277 C1291 0.961 . S
H1278 C1292 0.960 . S
H1279 C1292 0.961 . S
H1280 C1292 0.959 . S
H1281 C1295 0.929 . S
H1282 C1296 0.931 . S
H1283 C1298 0.930 . S
C1284 H1272 0.930 1_556 S
C1284 C1285 1.399 . S
C1284 C1289 1.403 . S
C1285 C1284 1.399 . S
C1285 C1286 1.376 . S
C1286 H1273 0.930 . S
C1286 C1285 1.376 . S
C1286 C1287 1.388 1_455 S
C1287 H1274 0.930 . S
C1287 C1286 1.388 1_655 S
C1287 C1288 1.390 . S
C1288 C1287 1.390 . S
C1288 C1289 1.407 1_655 S
C1288 C1294 1.465 . S
C1289 C1284 1.403 . S
C1289 C1288 1.407 1_455 S
C1289 C1290 1.500 1_556 S
C1290 C1289 1.500 1_554 S
C1290 C1291 1.502 . S
C1290 C1292 1.561 1_455 S
C1290 C1293 1.526 1_455 S
C1291 H1275 0.959 . S
C1291 H1276 0.959 . S
C1291 H1277 0.961 . S
C1291 C1290 1.502 . S
C1292 H1278 0.960 . S
C1292 H1279 0.961 . S
C1292 H1280 0.959 . S
C1292 C1290 1.561 1_655 S
C1293 C1290 1.526 1_655 S
C1293 C1294 1.396 1_554 S
C1293 C1298 1.390 . S
C1294 C1288 1.465 . S
C1294 C1293 1.396 1_556 S
C1294 C1295 1.399 . S
C1295 H1281 0.929 . S
C1295 C1294 1.399 . S
C1295 C1296 1.385 . S
C1296 H1282 0.931 . S
C1296 C1295 1.385 . S
C1296 C1297 1.389 1_556 S
C1297 C1296 1.389 1_554 S
C1297 C1298 1.387 . S
C1298 H1283 0.930 . S
C1298 C1293 1.390 . S
C1298 C1297 1.387 . S
H1299 C1311 0.930 . S
H1300 C1313 0.930 . S
H1301 C1314 0.930 1_565 S
H1302 C1318 0.959 . S
H1303 C1318 0.959 . S
H1304 C1318 0.961 . S
H1305 C1319 0.960 . S
H1306 C1319 0.961 . S
H1307 C1319 0.959 . S
H1308 C1322 0.929 . S
H1309 C1323 0.931 . S
H1310 C1325 0.930 . S
C1311 H1299 0.930 . S
C1311 C1312 1.399 . S
C1311 C1316 1.399 . S
C1312 C1311 1.399 . S
C1312 C1313 1.376 . S
C1313 H1300 0.930 . S
C1313 C1312 1.376 . S
C1313 C1314 1.388 . S
C1314 H1301 0.930 1_545 S
C1314 C1313 1.388 . S
C1314 C1315 1.390 . S
C1315 C1314 1.390 . S
C1315 C1316 1.394 . S
C1315 C1321 1.465 1_545 S
C1316 C1311 1.399 . S
C1316 C1315 1.394 . S
C1316 C1317 1.516 . S
C1317 C1316 1.516 . S
C1317 C1318 1.502 . S
C1317 C1319 1.561 . S
C1317 C1320 1.526 1_545 S
C1318 H1302 0.959 . S
C1318 H1303 0.959 . S
C1318 H1304 0.961 . S
C1318 C1317 1.502 . S
C1319 H1305 0.960 . S
C1319 H1306 0.961 . S
C1319 H1307 0.959 . S
C1319 C1317 1.561 . S
C1320 C1317 1.526 1_565 S
C1320 C1321 1.396 . S
C1320 C1325 1.390 . S
C1321 C1315 1.465 1_565 S
C1321 C1320 1.396 . S
C1321 C1322 1.399 . S
C1322 H1308 0.929 . S
C1322 C1321 1.399 . S
C1322 C1323 1.385 . S
C1323 H1309 0.931 . S
C1323 C1322 1.385 . S
C1323 C1324 1.389 . S
C1324 C1323 1.389 . S
C1324 C1325 1.387 . S
C1325 H1310 0.930 . S
C1325 C1320 1.390 . S
C1325 C1324 1.387 . S
H1326 C1338 0.893 1_554 S
H1327 C1340 0.930 . S
H1328 C1341 0.930 . S
H1329 C1345 0.959 . S
H1330 C1345 0.959 . S
H1331 C1345 0.961 . S
H1332 C1346 0.960 . S
H1333 C1346 0.961 . S
H1334 C1346 0.959 . S
H1335 C1349 0.929 . S
H1336 C1350 0.914 1_556 S
H1337 C1352 0.930 . S
C1338 H1326 0.893 1_556 S
C1338 C1339 1.448 . S
C1338 C1343 1.389 1_556 S
C1339 C1338 1.448 . S
C1339 C1340 1.376 . S
C1340 H1327 0.930 . S
C1340 C1339 1.376 . S
C1340 C1341 1.388 . S
C1341 H1328 0.930 . S
C1341 C1340 1.388 . S
C1341 C1342 1.390 . S
C1342 C1341 1.390 . S
C1342 C1343 1.394 1_556 S
C1342 C1348 1.465 . S
C1343 C1338 1.389 1_554 S
C1343 C1342 1.394 1_554 S
C1343 C1344 1.516 . S
C1344 C1343 1.516 . S
C1344 C1345 1.502 . S
C1344 C1346 1.561 . S
C1344 C1347 1.526 . S
C1345 H1329 0.959 . S
C1345 H1330 0.959 . S
C1345 H1331 0.961 . S
C1345 C1344 1.502 . S
C1346 H1332 0.960 . S
C1346 H1333 0.961 . S
C1346 H1334 0.959 . S
C1346 C1344 1.561 . S
C1347 C1344 1.526 . S
C1347 C1348 1.396 1_554 S
C1347 C1352 1.390 . S
C1348 C1342 1.465 . S
C1348 C1347 1.396 1_556 S
C1348 C1349 1.399 . S
C1349 H1335 0.929 . S
C1349 C1348 1.399 . S
C1349 C1350 1.360 1_556 S
C1350 H1336 0.914 1_554 S
C1350 C1349 1.360 1_554 S
C1350 C1351 1.432 . S
C1351 C1350 1.432 . S
C1351 C1352 1.387 . S
C1352 H1337 0.930 . S
C1352 C1347 1.390 . S
C1352 C1351 1.387 . S
H1353 C1365 0.930 . S
H1354 C1367 0.930 . S
H1355 C1368 0.930 . S
H1356 C1372 0.959 . S
H1357 C1372 0.959 1_455 S
H1358 C1372 0.961 . S
H1359 C1373 0.960 . S
H1360 C1373 0.961 . S
H1361 C1373 0.959 . S
H1362 C1376 0.929 . S
H1363 C1377 0.931 . S
H1364 C1379 0.930 . S
C1365 H1353 0.930 . S
C1365 C1366 1.399 . S
C1365 C1370 1.399 . S
C1366 C1365 1.399 . S
C1366 C1367 1.376 . S
C1367 H1354 0.930 . S
C1367 C1366 1.376 . S
C1367 C1368 1.388 . S
C1368 H1355 0.930 . S
C1368 C1367 1.388 . S
C1368 C1369 1.390 . S
C1369 C1368 1.390 . S
C1369 C1370 1.392 . S
C1369 C1375 1.465 1_655 S
C1370 C1365 1.399 . S
C1370 C1369 1.392 . S
C1370 C1371 1.517 1_655 S
C1371 C1370 1.517 1_455 S
C1371 C1372 1.502 1_455 S
C1371 C1373 1.561 . S
C1371 C1374 1.526 . S
C1372 H1356 0.959 . S
C1372 H1357 0.959 1_655 S
C1372 H1358 0.961 . S
C1372 C1371 1.502 1_655 S
C1373 H1359 0.960 . S
C1373 H1360 0.961 . S
C1373 H1361 0.959 . S
C1373 C1371 1.561 . S
C1374 C1371 1.526 . S
C1374 C1375 1.396 . S
C1374 C1379 1.390 . S
C1375 C1369 1.465 1_455 S
C1375 C1374 1.396 . S
C1375 C1376 1.399 . S
C1376 H1362 0.929 . S
C1376 C1375 1.399 . S
C1376 C1377 1.385 . S
C1377 H1363 0.931 . S
C1377 C1376 1.385 . S
C1377 C1378 1.389 . S
C1378 C1377 1.389 . S
C1378 C1379 1.387 . S
C1379 H1364 0.930 . S
C1379 C1374 1.390 . S
C1379 C1378 1.387 . S
H1380 C1392 0.930 . S
H1381 C1394 0.930 . S
H1382 C1395 0.930 . S
H1383 C1399 0.959 . S
H1384 C1399 0.959 . S
H1385 C1399 0.961 . S
H1386 C1400 0.960 . S
H1387 C1400 0.961 . S
H1388 C1400 0.959 . S
H1389 C1403 0.929 . S
H1390 C1404 0.931 . S
H1391 C1406 0.930 . S
C1392 H1380 0.930 . S
C1392 C1393 1.399 . S
C1392 C1397 1.399 . S
C1393 C1392 1.399 . S
C1393 C1394 1.376 . S
C1394 H1381 0.930 . S
C1394 C1393 1.376 . S
C1394 C1395 1.388 . S
C1395 H1382 0.930 . S
C1395 C1394 1.388 . S
C1395 C1396 1.390 . S
C1396 C1395 1.390 . S
C1396 C1397 1.394 . S
C1396 C1402 1.465 . S
C1397 C1392 1.399 . S
C1397 C1396 1.394 . S
C1397 C1398 1.516 . S
C1398 C1397 1.516 . S
C1398 C1399 1.502 . S
C1398 C1400 1.561 . S
C1398 C1401 1.526 . S
C1399 H1383 0.959 . S
C1399 H1384 0.959 . S
C1399 H1385 0.961 . S
C1399 C1398 1.502 . S
C1400 H1386 0.960 . S
C1400 H1387 0.961 . S
C1400 H1388 0.959 . S
C1400 C1398 1.561 . S
C1401 C1398 1.526 . S
C1401 C1402 1.396 . S
C1401 C1406 1.390 . S
C1402 C1396 1.465 . S
C1402 C1401 1.396 . S
C1402 C1403 1.399 . S
C1403 H1389 0.929 . S
C1403 C1402 1.399 . S
C1403 C1404 1.385 . S
C1404 H1390 0.931 . S
C1404 C1403 1.385 . S
C1404 C1405 1.389 . S
C1405 C1404 1.389 . S
C1405 C1406 1.387 . S
C1406 H1391 0.930 . S
C1406 C1401 1.390 . S
C1406 C1405 1.387 . S
H1407 C1419 0.930 . S
H1408 C1421 0.930 . S
H1409 C1422 0.930 . S
H1410 C1426 0.959 . S
H1411 C1426 0.959 . S
H1412 C1426 0.961 . S
H1413 C1427 0.960 . S
H1414 C1427 0.961 . S
H1415 C1427 0.959 . S
H1416 C1430 0.929 . S
H1417 C1431 0.931 . S
H1418 C1433 0.930 . S
C1419 H1407 0.930 . S
C1419 C1420 1.399 . S
C1419 C1424 1.399 . S
C1420 C1419 1.399 . S
C1420 C1421 1.376 . S
C1421 H1408 0.930 . S
C1421 C1420 1.376 . S
C1421 C1422 1.388 . S
C1422 H1409 0.930 . S
C1422 C1421 1.388 . S
C1422 C1423 1.390 . S
C1423 C1422 1.390 . S
C1423 C1424 1.394 . S
C1423 C1429 1.465 . S
C1424 C1419 1.399 . S
C1424 C1423 1.394 . S
C1424 C1425 1.516 . S
C1425 C1424 1.516 . S
C1425 C1426 1.502 . S
C1425 C1427 1.561 . S
C1425 C1428 1.526 . S
C1426 H1410 0.959 . S
C1426 H1411 0.959 . S
C1426 H1412 0.961 . S
C1426 C1425 1.502 . S
C1427 H1413 0.960 . S
C1427 H1414 0.961 . S
C1427 H1415 0.959 . S
C1427 C1425 1.561 . S
C1428 C1425 1.526 . S
C1428 C1429 1.396 . S
C1428 C1433 1.390 . S
C1429 C1423 1.465 . S
C1429 C1428 1.396 . S
C1429 C1430 1.399 . S
C1430 H1416 0.929 . S
C1430 C1429 1.399 . S
C1430 C1431 1.385 . S
C1431 H1417 0.931 . S
C1431 C1430 1.385 . S
C1431 C1432 1.389 . S
C1432 C1431 1.389 . S
C1432 C1433 1.387 . S
C1433 H1418 0.930 . S
C1433 C1428 1.390 . S
C1433 C1432 1.387 . S
H1434 C1446 0.930 . S
H1435 C1448 0.930 . S
H1436 C1449 0.930 . S
H1437 C1453 0.959 . S
H1438 C1453 0.959 . S
H1439 C1453 0.961 . S
H1440 C1454 0.960 . S
H1441 C1454 0.961 . S
H1442 C1454 0.959 . S
H1443 C1457 0.929 . S
H1444 C1458 0.931 . S
H1445 C1460 0.930 . S
C1446 H1434 0.930 . S
C1446 C1447 1.399 . S
C1446 C1451 1.399 . S
C1447 C1446 1.399 . S
C1447 C1448 1.376 . S
C1448 H1435 0.930 . S
C1448 C1447 1.376 . S
C1448 C1449 1.388 . S
C1449 H1436 0.930 . S
C1449 C1448 1.388 . S
C1449 C1450 1.390 . S
C1450 C1449 1.390 . S
C1450 C1451 1.394 . S
C1450 C1456 1.465 . S
C1451 C1446 1.399 . S
C1451 C1450 1.394 . S
C1451 C1452 1.516 . S
C1452 C1451 1.516 . S
C1452 C1453 1.502 . S
C1452 C1454 1.561 . S
C1452 C1455 1.526 . S
C1453 H1437 0.959 . S
C1453 H1438 0.959 . S
C1453 H1439 0.961 . S
C1453 C1452 1.502 . S
C1454 H1440 0.960 . S
C1454 H1441 0.961 . S
C1454 H1442 0.959 . S
C1454 C1452 1.561 . S
C1455 C1452 1.526 . S
C1455 C1456 1.396 . S
C1455 C1460 1.390 . S
C1456 C1450 1.465 . S
C1456 C1455 1.396 . S
C1456 C1457 1.399 . S
C1457 H1443 0.929 . S
C1457 C1456 1.399 . S
C1457 C1458 1.385 . S
C1458 H1444 0.931 . S
C1458 C1457 1.385 . S
C1458 C1459 1.389 . S
C1459 C1458 1.389 . S
C1459 C1460 1.387 . S
C1460 H1445 0.930 . S
C1460 C1455 1.390 . S
C1460 C1459 1.387 . S
H1461 C1473 0.930 . S
H1462 C1475 0.930 . S
H1463 C1476 0.930 . S
H1464 C1480 0.959 . S
H1465 C1480 0.959 . S
H1466 C1480 0.961 . S
H1467 C1481 0.960 . S
H1468 C1481 0.961 . S
H1469 C1481 0.959 . S
H1470 C1484 0.929 . S
H1471 C1485 0.931 . S
H1472 C1487 0.930 . S
C1473 H1461 0.930 . S
C1473 C1474 1.399 . S
C1473 C1478 1.399 . S
C1474 C1473 1.399 . S
C1474 C1475 1.376 . S
C1475 H1462 0.930 . S
C1475 C1474 1.376 . S
C1475 C1476 1.388 . S
C1476 H1463 0.930 . S
C1476 C1475 1.388 . S
C1476 C1477 1.390 . S
C1477 C1476 1.390 . S
C1477 C1478 1.394 . S
C1477 C1483 1.465 . S
C1478 C1473 1.399 . S
C1478 C1477 1.394 . S
C1478 C1479 1.516 . S
C1479 C1478 1.516 . S
C1479 C1480 1.502 . S
C1479 C1481 1.561 . S
C1479 C1482 1.526 . S
C1480 H1464 0.959 . S
C1480 H1465 0.959 . S
C1480 H1466 0.961 . S
C1480 C1479 1.502 . S
C1481 H1467 0.960 . S
C1481 H1468 0.961 . S
C1481 H1469 0.959 . S
C1481 C1479 1.561 . S
C1482 C1479 1.526 . S
C1482 C1483 1.396 . S
C1482 C1487 1.390 . S
C1483 C1477 1.465 . S
C1483 C1482 1.396 . S
C1483 C1484 1.399 . S
C1484 H1470 0.929 . S
C1484 C1483 1.399 . S
C1484 C1485 1.385 . S
C1485 H1471 0.931 . S
C1485 C1484 1.385 . S
C1485 C1486 1.389 . S
C1486 C1485 1.389 . S
C1486 C1487 1.387 . S
C1487 H1472 0.930 . S
C1487 C1482 1.390 . S
C1487 C1486 1.387 . S
H1488 C1500 0.930 . S
H1489 C1502 0.930 . S
H1490 C1503 0.930 . S
H1491 C1507 0.959 . S
H1492 C1507 0.959 . S
H1493 C1507 0.961 . S
H1494 C1508 0.960 . S
H1495 C1508 0.961 . S
H1496 C1508 0.959 . S
H1497 C1511 0.929 . S
H1498 C1512 0.931 . S
H1499 C1514 0.930 . S
C1500 H1488 0.930 . S
C1500 C1501 1.399 . S
C1500 C1505 1.399 . S
C1501 C1500 1.399 . S
C1501 C1502 1.376 . S
C1502 H1489 0.930 . S
C1502 C1501 1.376 . S
C1502 C1503 1.388 . S
C1503 H1490 0.930 . S
C1503 C1502 1.388 . S
C1503 C1504 1.390 . S
C1504 C1503 1.390 . S
C1504 C1505 1.394 . S
C1504 C1510 1.465 . S
C1505 C1500 1.399 . S
C1505 C1504 1.394 . S
C1505 C1506 1.516 . S
C1506 C1505 1.516 . S
C1506 C1507 1.502 . S
C1506 C1508 1.561 . S
C1506 C1509 1.526 . S
C1507 H1491 0.959 . S
C1507 H1492 0.959 . S
C1507 H1493 0.961 . S
C1507 C1506 1.502 . S
C1508 H1494 0.960 . S
C1508 H1495 0.961 . S
C1508 H1496 0.959 . S
C1508 C1506 1.561 . S
C1509 C1506 1.526 . S
C1509 C1510 1.396 . S
C1509 C1514 1.390 . S
C1510 C1504 1.465 . S
C1510 C1509 1.396 . S
C1510 C1511 1.399 . S
C1511 H1497 0.929 . S
C1511 C1510 1.399 . S
C1511 C1512 1.385 . S
C1512 H1498 0.931 . S
C1512 C1511 1.385 . S
C1512 C1513 1.389 . S
C1513 C1512 1.389 . S
C1513 C1514 1.387 . S
C1514 H1499 0.930 . S
C1514 C1509 1.390 . S
C1514 C1513 1.387 . S
H1515 C1527 0.930 . S
H1516 C1529 0.930 . S
H1517 C1530 0.930 . S
H1518 C1534 0.959 . S
H1519 C1534 0.959 . S
H1520 C1534 0.961 . S
H1521 C1535 0.960 . S
H1522 C1535 0.961 . S
H1523 C1535 0.959 . S
H1524 C1538 0.929 . S
H1525 C1539 0.931 . S
H1526 C1541 0.930 . S
C1527 H1515 0.930 . S
C1527 C1528 1.399 . S
C1527 C1532 1.399 . S
C1528 C1527 1.399 . S
C1528 C1529 1.376 . S
C1529 H1516 0.930 . S
C1529 C1528 1.376 . S
C1529 C1530 1.388 . S
C1530 H1517 0.930 . S
C1530 C1529 1.388 . S
C1530 C1531 1.390 . S
C1531 C1530 1.390 . S
C1531 C1532 1.394 . S
C1531 C1537 1.465 . S
C1532 C1527 1.399 . S
C1532 C1531 1.394 . S
C1532 C1533 1.516 . S
C1533 C1532 1.516 . S
C1533 C1534 1.502 . S
C1533 C1535 1.561 . S
C1533 C1536 1.526 . S
C1534 H1518 0.959 . S
C1534 H1519 0.959 . S
C1534 H1520 0.961 . S
C1534 C1533 1.502 . S
C1535 H1521 0.960 . S
C1535 H1522 0.961 . S
C1535 H1523 0.959 . S
C1535 C1533 1.561 . S
C1536 C1533 1.526 . S
C1536 C1537 1.396 . S
C1536 C1541 1.390 . S
C1537 C1531 1.465 . S
C1537 C1536 1.396 . S
C1537 C1538 1.399 . S
C1538 H1524 0.929 . S
C1538 C1537 1.399 . S
C1538 C1539 1.385 . S
C1539 H1525 0.931 . S
C1539 C1538 1.385 . S
C1539 C1540 1.389 . S
C1540 C1539 1.389 . S
C1540 C1541 1.387 . S
C1541 H1526 0.930 . S
C1541 C1536 1.390 . S
C1541 C1540 1.387 . S
H1542 C1554 0.930 . S
H1543 C1556 0.930 . S
H1544 C1557 0.930 . S
H1545 C1561 0.959 . S
H1546 C1561 0.959 . S
H1547 C1561 0.961 . S
H1548 C1562 0.960 . S
H1549 C1562 0.961 . S
H1550 C1562 0.959 . S
H1551 C1565 0.929 . S
H1552 C1566 0.931 . S
H1553 C1568 0.930 . S
C1554 H1542 0.930 . S
C1554 C1555 1.399 . S
C1554 C1559 1.399 . S
C1555 C1554 1.399 . S
C1555 C1556 1.376 . S
C1556 H1543 0.930 . S
C1556 C1555 1.376 . S
C1556 C1557 1.388 . S
C1557 H1544 0.930 . S
C1557 C1556 1.388 . S
C1557 C1558 1.390 . S
C1558 C1557 1.390 . S
C1558 C1559 1.394 . S
C1558 C1564 1.465 . S
C1559 C1554 1.399 . S
C1559 C1558 1.394 . S
C1559 C1560 1.516 . S
C1560 C1559 1.516 . S
C1560 C1561 1.502 . S
C1560 C1562 1.561 . S
C1560 C1563 1.526 . S
C1561 H1545 0.959 . S
C1561 H1546 0.959 . S
C1561 H1547 0.961 . S
C1561 C1560 1.502 . S
C1562 H1548 0.960 . S
C1562 H1549 0.961 . S
C1562 H1550 0.959 . S
C1562 C1560 1.561 . S
C1563 C1560 1.526 . S
C1563 C1564 1.396 . S
C1563 C1568 1.390 . S
C1564 C1558 1.465 . S
C1564 C1563 1.396 . S
C1564 C1565 1.399 . S
C1565 H1551 0.929 . S
C1565 C1564 1.399 . S
C1565 C1566 1.385 . S
C1566 H1552 0.931 . S
C1566 C1565 1.385 . S
C1566 C1567 1.389 . S
C1567 C1566 1.389 . S
C1567 C1568 1.387 . S
C1568 H1553 0.930 . S
C1568 C1563 1.390 . S
C1568 C1567 1.387 . S
H1569 C1581 0.930 . S
H1570 C1583 0.930 . S
H1571 C1584 0.930 . S
H1572 C1588 0.959 . S
H1573 C1588 0.959 . S
H1574 C1588 0.961 . S
H1575 C1589 0.960 . S
H1576 C1589 0.961 . S
H1577 C1589 0.959 . S
H1578 C1592 0.929 . S
H1579 C1593 0.931 . S
H1580 C1595 0.930 . S
C1581 H1569 0.930 . S
C1581 C1582 1.399 . S
C1581 C1586 1.399 . S
C1582 C1581 1.399 . S
C1582 C1583 1.376 . S
C1583 H1570 0.930 . S
C1583 C1582 1.376 . S
C1583 C1584 1.388 . S
C1584 H1571 0.930 . S
C1584 C1583 1.388 . S
C1584 C1585 1.390 . S
C1585 C1584 1.390 . S
C1585 C1586 1.394 . S
C1585 C1591 1.465 . S
C1586 C1581 1.399 . S
C1586 C1585 1.394 . S
C1586 C1587 1.516 . S
C1587 C1586 1.516 . S
C1587 C1588 1.502 . S
C1587 C1589 1.561 . S
C1587 C1590 1.526 . S
C1588 H1572 0.959 . S
C1588 H1573 0.959 . S
C1588 H1574 0.961 . S
C1588 C1587 1.502 . S
C1589 H1575 0.960 . S
C1589 H1576 0.961 . S
C1589 H1577 0.959 . S
C1589 C1587 1.561 . S
C1590 C1587 1.526 . S
C1590 C1591 1.396 . S
C1590 C1595 1.390 . S
C1591 C1585 1.465 . S
C1591 C1590 1.396 . S
C1591 C1592 1.399 . S
C1592 H1578 0.929 . S
C1592 C1591 1.399 . S
C1592 C1593 1.385 . S
C1593 H1579 0.931 . S
C1593 C1592 1.385 . S
C1593 C1594 1.389 . S
C1594 C1593 1.389 . S
C1594 C1595 1.387 . S
C1595 H1580 0.930 . S
C1595 C1590 1.390 . S
C1595 C1594 1.387 . S
H1596 C1608 0.930 . S
H1597 C1610 0.930 . S
H1598 C1611 0.930 . S
H1599 C1615 0.959 . S
H1600 C1615 0.959 . S
H1601 C1615 0.961 . S
H1602 C1616 0.960 . S
H1603 C1616 0.961 . S
H1604 C1616 0.959 . S
H1605 C1619 0.929 . S
H1606 C1620 0.931 . S
H1607 C1622 0.930 . S
C1608 H1596 0.930 . S
C1608 C1609 1.399 . S
C1608 C1613 1.399 . S
C1609 C1608 1.399 . S
C1609 C1610 1.376 . S
C1610 H1597 0.930 . S
C1610 C1609 1.376 . S
C1610 C1611 1.388 . S
C1611 H1598 0.930 . S
C1611 C1610 1.388 . S
C1611 C1612 1.390 . S
C1612 C1611 1.390 . S
C1612 C1613 1.394 . S
C1612 C1618 1.465 . S
C1613 C1608 1.399 . S
C1613 C1612 1.394 . S
C1613 C1614 1.516 . S
C1614 C1613 1.516 . S
C1614 C1615 1.502 . S
C1614 C1616 1.561 . S
C1614 C1617 1.526 . S
C1615 H1599 0.959 . S
C1615 H1600 0.959 . S
C1615 H1601 0.961 . S
C1615 C1614 1.502 . S
C1616 H1602 0.960 . S
C1616 H1603 0.961 . S
C1616 H1604 0.959 . S
C1616 C1614 1.561 . S
C1617 C1614 1.526 . S
C1617 C1618 1.396 . S
C1617 C1622 1.390 . S
C1618 C1612 1.465 . S
C1618 C1617 1.396 . S
C1618 C1619 1.399 . S
C1619 H1605 0.929 . S
C1619 C1618 1.399 . S
C1619 C1620 1.385 . S
C1620 H1606 0.931 . S
C1620 C1619 1.385 . S
C1620 C1621 1.389 . S
C1621 C1620 1.389 . S
C1621 C1622 1.387 . S
C1622 H1607 0.930 . S
C1622 C1617 1.390 . S
C1622 C1621 1.387 . S
H1623 C1635 0.930 . S
H1624 C1637 0.930 . S
H1625 C1638 0.930 . S
H1626 C1642 0.959 . S
H1627 C1642 0.959 . S
H1628 C1642 0.961 . S
H1629 C1643 0.960 . S
H1630 C1643 0.961 . S
H1631 C1643 0.959 . S
H1632 C1646 0.929 . S
H1633 C1647 0.931 . S
H1634 C1649 0.930 . S
C1635 H1623 0.930 . S
C1635 C1636 1.399 . S
C1635 C1640 1.399 . S
C1636 C1635 1.399 . S
C1636 C1637 1.376 . S
C1637 H1624 0.930 . S
C1637 C1636 1.376 . S
C1637 C1638 1.388 . S
C1638 H1625 0.930 . S
C1638 C1637 1.388 . S
C1638 C1639 1.390 . S
C1639 C1638 1.390 . S
C1639 C1640 1.394 . S
C1639 C1645 1.465 . S
C1640 C1635 1.399 . S
C1640 C1639 1.394 . S
C1640 C1641 1.516 . S
C1641 C1640 1.516 . S
C1641 C1642 1.502 . S
C1641 C1643 1.561 . S
C1641 C1644 1.526 . S
C1642 H1626 0.959 . S
C1642 H1627 0.959 . S
C1642 H1628 0.961 . S
C1642 C1641 1.502 . S
C1643 H1629 0.960 . S
C1643 H1630 0.961 . S
C1643 H1631 0.959 . S
C1643 C1641 1.561 . S
C1644 C1641 1.526 . S
C1644 C1645 1.396 . S
C1644 C1649 1.390 . S
C1645 C1639 1.465 . S
C1645 C1644 1.396 . S
C1645 C1646 1.399 . S
C1646 H1632 0.929 . S
C1646 C1645 1.399 . S
C1646 C1647 1.385 . S
C1647 H1633 0.931 . S
C1647 C1646 1.385 . S
C1647 C1648 1.389 . S
C1648 C1647 1.389 . S
C1648 C1649 1.387 . S
C1649 H1634 0.930 . S
C1649 C1644 1.390 . S
C1649 C1648 1.387 . S
H1650 C1662 0.930 . S
H1651 C1664 0.930 . S
H1652 C1665 0.930 . S
H1653 C1669 0.959 . S
H1654 C1669 0.959 . S
H1655 C1669 0.961 . S
H1656 C1670 0.960 . S
H1657 C1670 0.961 . S
H1658 C1670 0.959 . S
H1659 C1673 0.929 . S
H1660 C1674 0.931 . S
H1661 C1676 0.930 . S
C1662 H1650 0.930 . S
C1662 C1663 1.399 . S
C1662 C1667 1.399 . S
C1663 C1662 1.399 . S
C1663 C1664 1.376 . S
C1664 H1651 0.930 . S
C1664 C1663 1.376 . S
C1664 C1665 1.388 . S
C1665 H1652 0.930 . S
C1665 C1664 1.388 . S
C1665 C1666 1.390 . S
C1666 C1665 1.390 . S
C1666 C1667 1.394 . S
C1666 C1672 1.465 . S
C1667 C1662 1.399 . S
C1667 C1666 1.394 . S
C1667 C1668 1.516 . S
C1668 C1667 1.516 . S
C1668 C1669 1.502 . S
C1668 C1670 1.561 . S
C1668 C1671 1.526 . S
C1669 H1653 0.959 . S
C1669 H1654 0.959 . S
C1669 H1655 0.961 . S
C1669 C1668 1.502 . S
C1670 H1656 0.960 . S
C1670 H1657 0.961 . S
C1670 H1658 0.959 . S
C1670 C1668 1.561 . S
C1671 C1668 1.526 . S
C1671 C1672 1.396 . S
C1671 C1676 1.390 . S
C1672 C1666 1.465 . S
C1672 C1671 1.396 . S
C1672 C1673 1.399 . S
C1673 H1659 0.929 . S
C1673 C1672 1.399 . S
C1673 C1674 1.385 . S
C1674 H1660 0.931 . S
C1674 C1673 1.385 . S
C1674 C1675 1.389 . S
C1675 C1674 1.389 . S
C1675 C1676 1.387 . S
C1676 H1661 0.930 . S
C1676 C1671 1.390 . S
C1676 C1675 1.387 . S
H1677 C1689 0.930 . S
H1678 C1691 0.930 . S
H1679 C1692 0.930 . S
H1680 C1696 0.959 . S
H1681 C1696 0.959 . S
H1682 C1696 0.961 . S
H1683 C1697 0.960 . S
H1684 C1697 0.961 . S
H1685 C1697 0.959 . S
H1686 C1700 0.929 . S
H1687 C1701 0.931 . S
H1688 C1703 0.930 . S
C1689 H1677 0.930 . S
C1689 C1690 1.399 . S
C1689 C1694 1.399 . S
C1690 C1689 1.399 . S
C1690 C1691 1.376 . S
C1691 H1678 0.930 . S
C1691 C1690 1.376 . S
C1691 C1692 1.388 . S
C1692 H1679 0.930 . S
C1692 C1691 1.388 . S
C1692 C1693 1.390 . S
C1693 C1692 1.390 . S
C1693 C1694 1.394 . S
C1693 C1699 1.465 . S
C1694 C1689 1.399 . S
C1694 C1693 1.394 . S
C1694 C1695 1.516 . S
C1695 C1694 1.516 . S
C1695 C1696 1.502 . S
C1695 C1697 1.561 . S
C1695 C1698 1.526 . S
C1696 H1680 0.959 . S
C1696 H1681 0.959 . S
C1696 H1682 0.961 . S
C1696 C1695 1.502 . S
C1697 H1683 0.960 . S
C1697 H1684 0.961 . S
C1697 H1685 0.959 . S
C1697 C1695 1.561 . S
C1698 C1695 1.526 . S
C1698 C1699 1.396 . S
C1698 C1703 1.390 . S
C1699 C1693 1.465 . S
C1699 C1698 1.396 . S
C1699 C1700 1.399 . S
C1700 H1686 0.929 . S
C1700 C1699 1.399 . S
C1700 C1701 1.385 . S
C1701 H1687 0.931 . S
C1701 C1700 1.385 . S
C1701 C1702 1.389 . S
C1702 C1701 1.389 . S
C1702 C1703 1.387 . S
C1703 H1688 0.930 . S
C1703 C1698 1.390 . S
C1703 C1702 1.387 . S
C1069 C929 1.578 . S
C1081 C57 1.580 . S
C1096 C117 1.516 . S
C1108 C1017 1.507 . S
C1123 C205 1.533 . S
C1135 C577 1.534 . S
C1150 C636 1.606 . S
C1162 C293 1.608 . S
C1177 C761 1.530 . S
C1189 C372 1.523 . S
C1204 C460 1.532 . S
C1216 C849 1.531 . S
C1231 C49 0.630 . S
C1243 C645 0.530 . S
C1258 C137 1.277 . S
C1270 C724 1.305 . S
C1285 C812 1.257 . S
C1297 C225 1.242 . S
C1312 C937 0.537 . S
C1324 C284 0.582 . S
C1339 C997 1.242 . S
C1351 C409 1.340 . S
C1366 C557 1.225 . S
C1378 C497 1.271 . S
C1393 C20 1.068 . S
C1405 C381 0.986 . S
C1420 C145 0.774 . S
C1432 C469 0.791 . S
C1447 C233 0.889 . S
C1459 C29 0.953 . S
C1474 C313 1.065 . S
C1486 C108 0.964 . S
C1501 C401 0.838 . S
C1513 C196 0.823 . S
C1528 C489 0.939 . S
C1540 C321 0.942 . S
C1555 C548 0.817 . S
C1567 C753 0.814 . S
C1582 C673 0.958 . S
C1594 C841 0.899 . S
C1609 C900 1.077 . S
C1621 C733 1.041 . S
C1636 C821 0.836 . S
C1648 C1025 0.835 . S
C1663 C909 0.947 . S
C1675 C585 0.920 . S
C1690 C988 0.953 . S
C1702 C665 1.064 . S
