# Generated by pormake.
# Topology zfa, (5)-cn, num edge types: 1
# Building blocks:
#     Node 0, Type 0, BuildingBlock: BEQFEK_clean_sbu_0, # of connection points: 5
#     Node 1, Type 0, BuildingBlock: BEQFEK_clean_sbu_0, # of connection points: 5
#     Node 2, Type 0, BuildingBlock: BEQFEK_clean_sbu_0, # of connection points: 5
#     Node 3, Type 0, BuildingBlock: BEQFEK_clean_sbu_0, # of connection points: 5
#     Node 4, Type 0, BuildingBlock: BEQFEK_clean_sbu_0, # of connection points: 5
#     Node 5, Type 0, BuildingBlock: BEQFEK_clean_sbu_0, # of connection points: 5
#     Node 6, Type 0, BuildingBlock: BEQFEK_clean_sbu_0, # of connection points: 5
#     Node 7, Type 0, BuildingBlock: BEQFEK_clean_sbu_0, # of connection points: 5
#     Edge 8, Type (0, 0), BuildingBlock: UVAHIK_clean_linker_0, # of connection points: 2
#     Edge 9, Type (0, 0), BuildingBlock: UVAHIK_clean_linker_0, # of connection points: 2
#     Edge 10, Type (0, 0), BuildingBlock: UVAHIK_clean_linker_0, # of connection points: 2
#     Edge 11, Type (0, 0), BuildingBlock: UVAHIK_clean_linker_0, # of connection points: 2
#     Edge 12, Type (0, 0), BuildingBlock: UVAHIK_clean_linker_0, # of connection points: 2
#     Edge 13, Type (0, 0), BuildingBlock: UVAHIK_clean_linker_0, # of connection points: 2
#     Edge 14, Type (0, 0), BuildingBlock: UVAHIK_clean_linker_0, # of connection points: 2
#     Edge 15, Type (0, 0), BuildingBlock: UVAHIK_clean_linker_0, # of connection points: 2
#     Edge 16, Type (0, 0), BuildingBlock: UVAHIK_clean_linker_0, # of connection points: 2
#     Edge 17, Type (0, 0), BuildingBlock: UVAHIK_clean_linker_0, # of connection points: 2
#     Edge 18, Type (0, 0), BuildingBlock: UVAHIK_clean_linker_0, # of connection points: 2
#     Edge 19, Type (0, 0), BuildingBlock: UVAHIK_clean_linker_0, # of connection points: 2
#     Edge 20, Type (0, 0), BuildingBlock: UVAHIK_clean_linker_0, # of connection points: 2
#     Edge 21, Type (0, 0), BuildingBlock: UVAHIK_clean_linker_0, # of connection points: 2
#     Edge 22, Type (0, 0), BuildingBlock: UVAHIK_clean_linker_0, # of connection points: 2
#     Edge 23, Type (0, 0), BuildingBlock: UVAHIK_clean_linker_0, # of connection points: 2
#     Edge 24, Type (0, 0), BuildingBlock: UVAHIK_clean_linker_0, # of connection points: 2
#     Edge 25, Type (0, 0), BuildingBlock: UVAHIK_clean_linker_0, # of connection points: 2
#     Edge 26, Type (0, 0), BuildingBlock: UVAHIK_clean_linker_0, # of connection points: 2
#     Edge 27, Type (0, 0), BuildingBlock: UVAHIK_clean_linker_0, # of connection points: 2
# Relax obj value: 0.311
# Max RMSD: 0.173
# Mean RMSD: 0.173
data_MOF--net-zfa--node1-BEQFEK_clean_sbu_0--edge1-UVAHIK_clean_linker_0
_symmetry_space_group_name_H-M    P1
_symmetry_Int_Tables_number       1
_symmetry_cell_setting            triclinic
loop_
_symmetry_equiv_pos_as_xyz
'x, y, z'
_cell_length_a     39.653188
_cell_length_b     39.665775
_cell_length_c     49.70484
_cell_angle_alpha  90.106417
_cell_angle_beta   90.01786
_cell_angle_gamma 89.973482
loop_
_atom_site_label
_atom_site_type_symbol
_atom_site_fract_x
_atom_site_fract_y
_atom_site_fract_z
_atom_type_partial_charge
Co0 Co 0.16104 0.21217 0.31828 0.0
Co1 Co 0.16254 0.28957 0.33137 0.0
C2 C 0.17185 0.24009 0.37493 0.0
O3 O 0.17023 0.21633 0.35772 0.0
O4 O 0.16831 0.2707 0.36786 0.0
C5 C 0.13068 0.15092 0.33059 0.0
O6 O 0.12392 0.16889 0.35213 0.0
C7 C 0.14325 0.35502 0.35389 0.0
C8 C 0.15177 0.38897 0.31943 0.0
C9 C 0.13829 0.38785 0.34513 0.0
N10 N 0.15789 0.33736 0.33396 0.0
N11 N 0.16376 0.35802 0.31368 0.0
C12 C 0.1344 0.34044 0.38075 0.0
H13 H 0.15777 0.33089 0.39031 0.0
H14 H 0.11714 0.31868 0.37819 0.0
H15 H 0.12295 0.35944 0.39436 0.0
C16 C 0.0934 0.23104 0.29676 0.0
N17 N 0.12338 0.23922 0.30792 0.0
N18 N 0.12305 0.27133 0.31454 0.0
C19 C 0.09243 0.28435 0.30842 0.0
C20 C 0.0725 0.2592 0.29695 0.0
C21 C 0.08512 0.19708 0.28539 0.0
H22 H 0.10789 0.18558 0.27626 0.0
H23 H 0.07593 0.18051 0.30177 0.0
H24 H 0.06508 0.19896 0.26987 0.0
O25 O 0.2032 0.22536 0.29911 0.0
O26 O 0.20462 0.27962 0.31039 0.0
H27 H 0.09607 0.33792 0.30457 0.0
H28 H 0.05411 0.32337 0.31258 0.0
C29 C 0.08133 0.31913 0.31612 0.0
H30 H 0.08615 0.32309 0.33778 0.0
H31 H 0.1741 0.35051 0.29532 0.0
O32 O 0.14844 0.16406 0.31203 0.0
C33 C 0.21791 0.254 0.29893 0.0
Co34 Co 0.31891 0.65929 0.81686 0.0
Co35 Co 0.24178 0.66178 0.83055 0.0
C36 C 0.29411 0.66697 0.8737 0.0
O37 O 0.31783 0.66567 0.85649 0.0
O38 O 0.26332 0.66487 0.86661 0.0
C39 C 0.39032 0.65022 0.82285 0.0
O40 O 0.38577 0.66669 0.84551 0.0
C41 C 0.17958 0.63577 0.85344 0.0
C42 C 0.14037 0.6593 0.82811 0.0
C43 C 0.14511 0.63616 0.84863 0.0
N44 N 0.1945 0.65708 0.83617 0.0
N45 N 0.1709 0.67158 0.82141 0.0
C46 C 0.19839 0.61637 0.87448 0.0
H47 H 0.20786 0.63439 0.88979 0.0
H48 H 0.22072 0.60389 0.86542 0.0
H49 H 0.18225 0.59764 0.88481 0.0
C50 C 0.29911 0.59164 0.79653 0.0
N51 N 0.29112 0.62221 0.80671 0.0
N52 N 0.25849 0.62343 0.81136 0.0
C53 C 0.24462 0.59383 0.80356 0.0
C54 C 0.26989 0.57257 0.79426 0.0
C55 C 0.33449 0.57981 0.79188 0.0
H56 H 0.34598 0.59502 0.77558 0.0
H57 H 0.34952 0.58373 0.81045 0.0
H58 H 0.33558 0.55277 0.7863 0.0
O59 O 0.30471 0.70248 0.79965 0.0
O60 O 0.25047 0.70477 0.81083 0.0
H61 H 0.19264 0.60851 0.80002 0.0
H62 H 0.20146 0.56583 0.78951 0.0
C63 C 0.2078 0.58573 0.80441 0.0
H64 H 0.20126 0.57613 0.82464 0.0
H65 H 0.17576 0.68876 0.80601 0.0
O66 O 0.36576 0.64724 0.80659 0.0
C67 C 0.27639 0.71781 0.79974 0.0
Co68 Co 0.87314 0.81879 0.31756 0.0
Co69 Co 0.86954 0.74122 0.32906 0.0
C70 C 0.86469 0.7921 0.37365 0.0
O71 O 0.86742 0.81656 0.35726 0.0
O72 O 0.86544 0.76169 0.36542 0.0
C73 C 0.88606 0.88946 0.32527 0.0
O74 O 0.87214 0.88435 0.34887 0.0
C75 C 0.89407 0.67855 0.35188 0.0
C76 C 0.8717 0.6399 0.32529 0.0
C77 C 0.89374 0.64419 0.34668 0.0
N78 N 0.87378 0.69387 0.33405 0.0
N79 N 0.85994 0.67061 0.31851 0.0
C80 C 0.91251 0.69689 0.37378 0.0
H81 H 0.92564 0.71921 0.36539 0.0
H82 H 0.93057 0.68045 0.38459 0.0
H83 H 0.89382 0.70636 0.38857 0.0
C84 C 0.94073 0.79891 0.29722 0.0
N85 N 0.90994 0.79089 0.30686 0.0
N86 N 0.90836 0.7581 0.31056 0.0
C87 C 0.93787 0.74417 0.30247 0.0
C88 C 0.95952 0.76964 0.29416 0.0
C89 C 0.95234 0.83413 0.29178 0.0
H90 H 0.9348 0.84622 0.27734 0.0
H91 H 0.9519 0.84886 0.31077 0.0
H92 H 0.97815 0.83468 0.28319 0.0
O93 O 0.82937 0.80554 0.30012 0.0
O94 O 0.82712 0.75069 0.30908 0.0
H95 H 0.92392 0.69203 0.29927 0.0
H96 H 0.96711 0.70068 0.2904 0.0
C97 C 0.94631 0.70748 0.30427 0.0
H98 H 0.95466 0.70162 0.32499 0.0
H99 H 0.84358 0.67583 0.3026 0.0
O100 O 0.88589 0.86577 0.30802 0.0
C101 C 0.81405 0.77722 0.29902 0.0
Co102 Co 0.71094 0.37115 0.8191 0.0
Co103 Co 0.78885 0.36862 0.83002 0.0
C104 C 0.74082 0.35994 0.87479 0.0
O105 O 0.71638 0.36155 0.85826 0.0
O106 O 0.77116 0.36348 0.86702 0.0
C107 C 0.65197 0.40409 0.83285 0.0
O108 O 0.67195 0.41135 0.85313 0.0
C109 C 0.85517 0.38671 0.85152 0.0
C110 C 0.88796 0.37913 0.81615 0.0
C111 C 0.88774 0.39181 0.84215 0.0
N112 N 0.83678 0.37279 0.83167 0.0
N113 N 0.85677 0.36747 0.81082 0.0
C114 C 0.84149 0.39497 0.87885 0.0
H115 H 0.82047 0.41328 0.87708 0.0
H116 H 0.86125 0.40507 0.89244 0.0
H117 H 0.83113 0.37167 0.88796 0.0
C118 C 0.72997 0.43845 0.79696 0.0
N119 N 0.73818 0.40838 0.80791 0.0
N120 N 0.7705 0.40836 0.81381 0.0
C121 C 0.7836 0.43889 0.8076 0.0
C122 C 0.7583 0.45911 0.7967 0.0
C123 C 0.69587 0.44701 0.78601 0.0
H124 H 0.68361 0.42417 0.77764 0.0
H125 H 0.67995 0.45733 0.80241 0.0
H126 H 0.69781 0.46635 0.76998 0.0
O127 O 0.72261 0.32866 0.79999 0.0
O128 O 0.77758 0.32652 0.80901 0.0
H129 H 0.83703 0.43541 0.80245 0.0
H130 H 0.82273 0.47702 0.81192 0.0
C131 C 0.81864 0.44966 0.81482 0.0
H132 H 0.82334 0.44398 0.83624 0.0
H133 H 0.84862 0.35777 0.7924 0.0
O134 O 0.66289 0.38471 0.81436 0.0
C135 C 0.75103 0.31359 0.79867 0.0
Co136 Co 0.66019 0.32251 0.20945 0.0
Co137 Co 0.66241 0.24439 0.1991 0.0
C138 C 0.66904 0.2939 0.15393 0.0
O139 O 0.66714 0.31867 0.17014 0.0
O140 O 0.66689 0.2636 0.16218 0.0
C141 C 0.64778 0.39287 0.19978 0.0
O142 O 0.65976 0.386 0.17576 0.0
C143 C 0.63845 0.18057 0.17721 0.0
C144 C 0.65473 0.14397 0.20799 0.0
C145 C 0.63571 0.14699 0.1847 0.0
N146 N 0.65724 0.19676 0.19564 0.0
N147 N 0.66761 0.1746 0.21365 0.0
C148 C 0.62412 0.19726 0.15273 0.0
H149 H 0.6452 0.2074 0.14056 0.0
H150 H 0.60805 0.2189 0.15875 0.0
H151 H 0.60967 0.1795 0.13993 0.0
C152 C 0.592 0.30451 0.22963 0.0
N153 N 0.62271 0.29564 0.22027 0.0
N154 N 0.62361 0.26276 0.21681 0.0
C155 C 0.59362 0.24966 0.22457 0.0
C156 C 0.57247 0.27574 0.23265 0.0
C157 C 0.58122 0.34008 0.23491 0.0
H158 H 0.59933 0.35212 0.24895 0.0
H159 H 0.58152 0.35441 0.21576 0.0
H160 H 0.5556 0.34131 0.24383 0.0
O161 O 0.70335 0.30913 0.22718 0.0
O162 O 0.70496 0.25388 0.21946 0.0
H163 H 0.60502 0.19729 0.22985 0.0
H164 H 0.56097 0.20736 0.23367 0.0
C165 C 0.58421 0.21325 0.22224 0.0
H166 H 0.57956 0.20708 0.20084 0.0
H167 H 0.68194 0.18073 0.23058 0.0
O168 O 0.64849 0.37018 0.2178 0.0
C169 C 0.71824 0.28067 0.229 0.0
Co170 Co 0.21279 0.15835 0.7095 0.0
Co171 Co 0.29053 0.16204 0.69885 0.0
C172 C 0.24006 0.16612 0.65372 0.0
O173 O 0.21539 0.16321 0.66991 0.0
O174 O 0.27037 0.16593 0.66223 0.0
C175 C 0.14191 0.1469 0.70195 0.0
O176 O 0.14703 0.16136 0.67856 0.0
C177 C 0.35329 0.13692 0.67647 0.0
C178 C 0.39185 0.15953 0.703 0.0
C179 C 0.38763 0.13718 0.68179 0.0
N180 N 0.33793 0.15755 0.69407 0.0
N181 N 0.36114 0.17152 0.70957 0.0
C182 C 0.33502 0.11821 0.65468 0.0
H183 H 0.32592 0.13668 0.63961 0.0
H184 H 0.31246 0.10549 0.66308 0.0
H185 H 0.3514 0.09978 0.64419 0.0
C186 C 0.23226 0.09112 0.73038 0.0
N187 N 0.2405 0.1218 0.72073 0.0
N188 N 0.27336 0.12333 0.71732 0.0
C189 C 0.2871 0.09385 0.72563 0.0
C190 C 0.26143 0.07231 0.73376 0.0
C191 C 0.19689 0.07964 0.73549 0.0
H192 H 0.18464 0.09722 0.74984 0.0
H193 H 0.18245 0.08013 0.71637 0.0
H194 H 0.1961 0.05384 0.74405 0.0
O195 O 0.22579 0.20231 0.72632 0.0
O196 O 0.28106 0.20452 0.71897 0.0
H197 H 0.33925 0.10774 0.72906 0.0
H198 H 0.33037 0.06476 0.73832 0.0
C199 C 0.3238 0.08531 0.72418 0.0
H200 H 0.3299 0.07655 0.70359 0.0
H201 H 0.35587 0.18813 0.72532 0.0
O202 O 0.16578 0.14611 0.71899 0.0
C203 C 0.25403 0.21759 0.72823 0.0
Co204 Co 0.37265 0.71096 0.20859 0.0
Co205 Co 0.3698 0.78858 0.19685 0.0
C206 C 0.36431 0.73842 0.15241 0.0
O207 O 0.36546 0.71425 0.16917 0.0
O208 O 0.36682 0.76896 0.16007 0.0
C209 C 0.38839 0.64139 0.19857 0.0
O210 O 0.37703 0.64815 0.17436 0.0
C211 C 0.39315 0.85268 0.17545 0.0
C212 C 0.3716 0.88952 0.20403 0.0
C213 C 0.39286 0.88669 0.18201 0.0
N214 N 0.37364 0.83617 0.19313 0.0
N215 N 0.36026 0.85837 0.20986 0.0
C216 C 0.41067 0.83586 0.15233 0.0
H217 H 0.42459 0.81332 0.15947 0.0
H218 H 0.42786 0.85317 0.14152 0.0
H219 H 0.39131 0.82693 0.13789 0.0
C220 C 0.44045 0.7304 0.22899 0.0
N221 N 0.40974 0.7386 0.21923 0.0
N222 N 0.40841 0.77139 0.21542 0.0
C223 C 0.43802 0.78513 0.22346 0.0
C224 C 0.45944 0.75954 0.23196 0.0
C225 C 0.45183 0.69513 0.23458 0.0
H226 H 0.43367 0.68284 0.2484 0.0
H227 H 0.45233 0.68061 0.21549 0.0
H228 H 0.47726 0.69455 0.24389 0.0
O229 O 0.32951 0.72394 0.22673 0.0
O230 O 0.327 0.77839 0.21639 0.0
H231 H 0.42491 0.83739 0.22724 0.0
H232 H 0.46853 0.82829 0.23435 0.0
C233 C 0.44679 0.82171 0.22134 0.0
H234 H 0.4538 0.82753 0.2003 0.0
H235 H 0.34458 0.85209 0.22595 0.0
O236 O 0.38559 0.66357 0.21694 0.0
C237 C 0.31406 0.7522 0.22712 0.0
Co238 Co 0.82023 0.8711 0.70878 0.0
Co239 Co 0.74237 0.86805 0.69774 0.0
C240 C 0.79095 0.86001 0.6529 0.0
O241 O 0.81528 0.86273 0.66945 0.0
O242 O 0.76051 0.86204 0.66083 0.0
C243 C 0.88111 0.90187 0.69589 0.0
O244 O 0.86279 0.90879 0.67459 0.0
C245 C 0.67664 0.88699 0.67575 0.0
C246 C 0.64298 0.87846 0.71043 0.0
C247 C 0.64387 0.89194 0.68472 0.0
N248 N 0.6945 0.8724 0.69556 0.0
N249 N 0.674 0.8665 0.71597 0.0
C250 C 0.69103 0.89597 0.64883 0.0
H251 H 0.71268 0.91338 0.65134 0.0
H252 H 0.67187 0.90729 0.63534 0.0
H253 H 0.7007 0.8727 0.63915 0.0
C254 C 0.80106 0.93836 0.73086 0.0
N255 N 0.79291 0.90819 0.72 0.0
N256 N 0.76058 0.90802 0.71411 0.0
C257 C 0.74736 0.93852 0.72042 0.0
C258 C 0.77263 0.95891 0.73122 0.0
C259 C 0.83531 0.94718 0.74138 0.0
H260 H 0.84741 0.92466 0.75037 0.0
H261 H 0.8512 0.95638 0.72458 0.0
H262 H 0.83371 0.96735 0.75684 0.0
O263 O 0.80819 0.82827 0.72729 0.0
O264 O 0.75307 0.82625 0.71895 0.0
H265 H 0.69395 0.93392 0.72519 0.0
H266 H 0.70757 0.9762 0.71728 0.0
C267 C 0.71219 0.9491 0.71345 0.0
H268 H 0.70777 0.94448 0.69182 0.0
H269 H 0.68168 0.85621 0.73428 0.0
O270 O 0.86831 0.88396 0.71448 0.0
C271 C 0.77977 0.81329 0.72897 0.0
C272 C 0.90579 0.58573 0.36255 0.0
C273 C 0.91735 0.61825 0.35651 0.0
C274 C 0.92872 0.56006 0.36869 0.0
C275 C 0.98222 0.50698 0.35926 0.0
H276 H 0.06826 0.52358 0.39403 0.0
C277 C 0.12247 0.4478 0.35388 0.0
C278 C 0.11491 0.41337 0.35612 0.0
C279 C 0.09816 0.4721 0.36024 0.0
C280 C 0.04431 0.51861 0.38432 0.0
H281 H 0.96182 0.6493 0.35138 0.0
H282 H 1.0017 0.60479 0.3618 0.0
H283 H 0.02484 0.56733 0.39447 0.0
H284 H 0.07586 0.37732 0.3664 0.0
H285 H 0.03382 0.41961 0.378 0.0
H286 H 1.00184 0.45855 0.34871 0.0
C287 C 0.97502 0.59917 0.36288 0.0
C288 C 0.01946 0.54363 0.38451 0.0
C289 C 0.95212 0.62478 0.35694 0.0
C290 C 0.08288 0.40365 0.36537 0.0
C291 C 0.05858 0.42787 0.37161 0.0
C292 C 1.00692 0.48192 0.35926 0.0
C293 C 0.96367 0.56633 0.36842 0.0
C294 C 0.98839 0.53839 0.37145 0.0
C295 C 0.0657 0.46232 0.36853 0.0
C296 C 0.03846 0.48771 0.37131 0.0
H297 H 0.87908 0.58006 0.36205 0.0
H298 H 0.91908 0.53514 0.37312 0.0
H299 H 0.9589 0.5022 0.34858 0.0
H300 H 0.1468 0.45587 0.34637 0.0
H301 H 0.10422 0.49847 0.35733 0.0
C302 C 0.94806 0.40708 0.84996 0.0
C303 C 0.91373 0.41471 0.8531 0.0
C304 C 0.97268 0.43098 0.85653 0.0
C305 C 0.98308 0.52217 0.85825 0.0
H306 H 0.06893 0.50225 0.89199 0.0
C307 C 0.08682 0.62307 0.86444 0.0
C308 C 0.11938 0.61196 0.85791 0.0
C309 C 0.06124 0.59977 0.86986 0.0
C310 C 0.04512 0.50819 0.88243 0.0
H311 H 0.87818 0.4535 0.86514 0.0
H312 H 0.92101 0.49482 0.87705 0.0
H313 H 0.02509 0.459 0.89043 0.0
H314 H 0.1506 0.56789 0.85122 0.0
H315 H 0.10627 0.52738 0.86034 0.0
H316 H 1.0033 0.57066 0.84908 0.0
C317 C 0.92897 0.4703 0.86981 0.0
C318 C 0.02004 0.48344 0.8816 0.0
C319 C 0.90444 0.4464 0.86338 0.0
C320 C 0.12606 0.57722 0.85716 0.0
C321 C 0.10053 0.55395 0.86236 0.0
C322 C 1.00819 0.54679 0.85887 0.0
C323 C 0.96331 0.46312 0.86591 0.0
C324 C 0.98894 0.49004 0.86916 0.0
C325 C 0.06764 0.56488 0.86834 0.0
C326 C 0.03974 0.53996 0.87056 0.0
H327 H 0.95579 0.38302 0.84166 0.0
H328 H 0.99893 0.42489 0.85297 0.0
H329 H 0.95955 0.52786 0.84815 0.0
H330 H 0.08102 0.64976 0.86486 0.0
H331 H 0.0363 0.6091 0.87469 0.0
C332 C 0.45067 0.90709 0.17084 0.0
C333 C 0.41591 0.91341 0.17272 0.0
C334 C 0.47318 0.93331 0.1657 0.0
C335 C 0.51597 0.9914 0.1458 0.0
H336 H 0.5 0.07222 0.18786 0.0
C337 C 0.57778 0.13098 0.16961 0.0
C338 C 0.61125 0.12159 0.17509 0.0
C339 C 0.55345 0.10659 0.164 0.0
C340 C 0.5046 0.05011 0.17559 0.0
H341 H 0.37729 0.95185 0.17056 0.0
H342 H 0.41661 0.99786 0.16102 0.0
H343 H 0.45773 0.02799 0.1871 0.0
H344 H 0.6455 0.07942 0.17914 0.0
H345 H 0.60278 0.03649 0.16954 0.0
H346 H 0.56354 1.0133 0.13513 0.0
C347 C 0.42651 0.97262 0.16363 0.0
C348 C 0.48028 0.02472 0.1751 0.0
C349 C 0.40398 0.94634 0.16891 0.0
C350 C 0.61999 0.08731 0.17454 0.0
C351 C 0.59558 0.06282 0.16892 0.0
C352 C 0.54041 0.0168 0.14638 0.0
C353 C 0.46146 0.96651 0.16252 0.0
C354 C 0.48585 0.99484 0.16052 0.0
C355 C 0.56189 0.0722 0.16413 0.0
C356 C 0.53514 0.04624 0.16157 0.0
H357 H 0.46071 0.88219 0.17474 0.0
H358 H 0.49993 0.92778 0.16561 0.0
H359 H 0.52084 0.96887 0.13408 0.0
H360 H 0.5699 0.15705 0.17087 0.0
H361 H 0.52775 0.11463 0.16028 0.0
C362 C 0.58384 0.90779 0.6763 0.0
C363 C 0.61827 0.91533 0.67392 0.0
C364 C 0.55951 0.93206 0.66995 0.0
C365 C 0.54967 0.02333 0.67048 0.0
H366 H 0.46432 1.00513 0.63531 0.0
C367 C 0.44615 0.12468 0.66616 0.0
C368 C 0.41355 0.11333 0.67223 0.0
C369 C 0.47179 0.10158 0.66027 0.0
C370 C 0.488 1.01058 0.64526 0.0
H371 H 0.65429 0.95433 0.66344 0.0
H372 H 0.61197 0.99627 0.65187 0.0
H373 H 0.508 0.96163 0.63612 0.0
H374 H 0.38233 0.06906 0.6777 0.0
H375 H 0.42676 0.02888 0.66772 0.0
H376 H 0.52946 0.07153 0.68076 0.0
C377 C 0.60372 0.97156 0.65836 0.0
C378 C 0.51298 0.98569 0.64567 0.0
C379 C 0.62796 0.94731 0.66459 0.0
C380 C 0.40691 0.07859 0.6721 0.0
C381 C 0.43248 0.05552 0.66641 0.0
C382 C 0.52467 0.04807 0.67026 0.0
C383 C 0.56927 0.96446 0.66154 0.0
C384 C 0.54387 0.99165 0.65864 0.0
C385 C 0.46539 0.06667 0.66084 0.0
C386 C 0.49328 0.04182 0.65808 0.0
H387 H 0.57579 0.8835 0.68387 0.0
H388 H 0.53314 0.92601 0.67294 0.0
H389 H 0.57304 0.02851 0.681 0.0
H390 H 0.45191 0.15138 0.66643 0.0
H391 H 0.49677 0.11106 0.65581 0.0
C392 C 0.51261 0.29027 0.22163 0.0
C393 C 0.53579 0.27387 0.23846 0.0
C394 C 0.47791 0.28801 0.22657 0.0
C395 C 0.414 0.23713 0.26376 0.0
H396 H 0.35687 0.31462 0.2504 0.0
C397 C 0.26879 0.2293 0.27557 0.0
C398 C 0.25257 0.25707 0.28758 0.0
C399 C 0.30265 0.23139 0.26757 0.0
C400 C 0.37241 0.29276 0.25444 0.0
H401 H 0.54119 0.24275 0.27385 0.0
H402 H 0.48063 0.23921 0.28296 0.0
H403 H 0.41714 0.31846 0.24192 0.0
H404 H 0.25938 0.30917 0.29988 0.0
H405 H 0.31813 0.31259 0.28644 0.0
H406 H 0.36945 0.21185 0.27726 0.0
C407 C 0.48901 0.25324 0.26554 0.0
C408 C 0.40706 0.29482 0.24923 0.0
C409 C 0.52372 0.25539 0.26047 0.0
C410 C 0.27086 0.28725 0.29061 0.0
C411 C 0.30469 0.28928 0.28276 0.0
C412 C 0.37936 0.23512 0.26911 0.0
C413 C 0.46554 0.26944 0.2486 0.0
C414 C 0.42843 0.26708 0.2539 0.0
C415 C 0.32127 0.26125 0.27145 0.0
C416 C 0.35804 0.26295 0.26465 0.0
H417 H 0.52134 0.30448 0.2044 0.0
H418 H 0.46077 0.30041 0.21281 0.0
H419 H 0.42943 0.21505 0.26727 0.0
H420 H 0.25555 0.20567 0.27281 0.0
H421 H 0.31428 0.20945 0.25848 0.0
C422 C 0.24803 1.01252 0.72203 0.0
C423 C 0.26382 0.03566 0.7393 0.0
C424 C 0.24984 0.97788 0.72708 0.0
C425 C 0.29813 0.91352 0.76571 0.0
H426 H 0.21957 0.85816 0.75146 0.0
C427 C 0.30238 0.7683 0.77705 0.0
C428 C 0.27418 0.75273 0.78888 0.0
C429 C 0.30116 0.80223 0.76927 0.0
C430 C 0.2417 0.87322 0.75574 0.0
H431 H 0.29366 0.04105 0.77544 0.0
H432 H 0.29656 0.98048 0.78468 0.0
H433 H 0.21735 0.91841 0.74259 0.0
H434 H 0.22226 0.76073 0.80116 0.0
H435 H 0.22032 0.81969 0.78802 0.0
H436 H 0.32208 0.86849 0.77975 0.0
C437 C 0.28327 0.98891 0.76689 0.0
C438 C 0.24058 0.90782 0.75031 0.0
C439 C 0.28154 0.0236 0.76172 0.0
C440 C 0.24446 0.77174 0.79203 0.0
C441 C 0.24329 0.80566 0.78436 0.0
C442 C 0.29922 0.87892 0.77123 0.0
C443 C 0.26737 0.96553 0.74966 0.0
C444 C 0.26875 0.92852 0.75527 0.0
C445 C 0.27175 0.82154 0.77318 0.0
C446 C 0.27098 0.85826 0.76641 0.0
H447 H 0.23441 0.02128 0.70448 0.0
H448 H 0.23777 0.96077 0.71309 0.0
H449 H 0.32048 0.92848 0.76949 0.0
H450 H 0.32567 0.75448 0.77421 0.0
H451 H 0.32339 0.81335 0.76028 0.0
C452 C 0.51937 0.74618 0.22055 0.0
C453 C 0.49608 0.76197 0.23768 0.0
C454 C 0.55403 0.74855 0.22555 0.0
C455 C 0.61785 0.79805 0.26433 0.0
H456 H 0.67461 0.72078 0.24906 0.0
C457 C 0.76322 0.80399 0.27708 0.0
C458 C 0.77913 0.77541 0.28801 0.0
C459 C 0.7293 0.80274 0.26908 0.0
C460 C 0.65918 0.74257 0.25366 0.0
H461 H 0.49042 0.79227 0.27357 0.0
H462 H 0.55096 0.79591 0.28286 0.0
H463 H 0.61445 0.71762 0.24023 0.0
H464 H 0.77164 0.72286 0.29859 0.0
H465 H 0.71284 0.72089 0.28523 0.0
H466 H 0.66245 0.82248 0.27881 0.0
C467 C 0.54269 0.7823 0.26515 0.0
C468 C 0.62458 0.74092 0.24822 0.0
C469 C 0.50799 0.7801 0.25999 0.0
C470 C 0.76043 0.74538 0.29013 0.0
C471 C 0.72656 0.74419 0.28231 0.0
C472 C 0.65246 0.79962 0.26994 0.0
C473 C 0.56626 0.76656 0.24799 0.0
C474 C 0.60333 0.76858 0.25354 0.0
C475 C 0.71034 0.77292 0.27191 0.0
C476 C 0.67364 0.77184 0.26482 0.0
H477 H 0.51072 0.73227 0.20309 0.0
H478 H 0.57123 0.73658 0.21158 0.0
H479 H 0.60252 0.82007 0.26836 0.0
H480 H 0.77679 0.82754 0.27508 0.0
H481 H 0.71794 0.82524 0.26074 0.0
C482 C 0.78358 0.26433 0.77983 0.0
C483 C 0.75262 0.27871 0.78762 0.0
C484 C 0.78549 0.2303 0.77221 0.0
C485 C 0.74623 0.14923 0.78509 0.0
H486 H 0.78766 0.11906 0.7187 0.0
C487 C 0.74445 1.00818 0.75419 0.0
C488 C 0.77087 0.99544 0.73833 0.0
C489 C 0.7421 0.04277 0.75976 0.0
C490 C 0.77657 0.12679 0.73762 0.0
H491 H 0.69933 0.26848 0.79318 0.0
H492 H 0.70294 0.20899 0.78054 0.0
H493 H 0.78433 0.17919 0.72863 0.0
H494 H 0.81602 1.00907 0.71643 0.0
H495 H 0.81342 0.06869 0.72757 0.0
H496 H 0.73967 0.09725 0.7949 0.0
C497 C 0.72561 0.22421 0.78008 0.0
C498 C 0.77445 0.16141 0.74315 0.0
C499 C 0.72354 0.25837 0.78711 0.0
C500 C 0.79544 0.01798 0.72886 0.0
C501 C 0.79354 0.05245 0.73489 0.0
C502 C 0.74898 0.11461 0.77987 0.0
C503 C 0.75664 0.20972 0.77281 0.0
C504 C 0.75907 0.17299 0.76686 0.0
C505 C 0.7666 0.06557 0.75018 0.0
C506 C 0.76404 0.10272 0.75596 0.0
H507 H 0.80646 0.27923 0.78004 0.0
H508 H 0.80976 0.21977 0.76676 0.0
H509 H 0.73462 0.15745 0.80371 0.0
H510 H 0.72539 0.99138 0.76214 0.0
H511 H 0.72065 0.05154 0.77127 0.0
C512 C 0.02337 0.28768 0.27423 0.0
C513 C 0.03608 0.26085 0.28959 0.0
C514 C 0.98883 0.29 0.26852 0.0
C515 C 0.90488 0.25496 0.28987 0.0
H516 H 0.87455 0.29768 0.22408 0.0
C517 C 0.76747 0.24833 0.24794 0.0
C518 C 0.75318 0.27919 0.23987 0.0
C519 C 0.80148 0.24646 0.25554 0.0
C520 C 0.88267 0.28587 0.24262 0.0
H521 H 0.02254 0.21494 0.31045 0.0
H522 H 0.96295 0.21761 0.29911 0.0
H523 H 0.93473 0.29258 0.233 0.0
H524 H 0.76351 0.33235 0.23382 0.0
H525 H 0.82298 0.32882 0.2465 0.0
H526 H 0.85244 0.24712 0.29871 0.0
C527 C 0.97919 0.23776 0.29227 0.0
C528 C 0.91726 0.28308 0.24788 0.0
C529 C 1.01362 0.23584 0.29841 0.0
C530 C 0.77358 0.30822 0.24008 0.0
C531 C 0.80772 0.30619 0.24714 0.0
C532 C 0.87029 0.25717 0.2843 0.0
C533 C 0.96609 0.2651 0.2775 0.0
C534 C 0.92901 0.26772 0.27167 0.0
C535 C 0.82212 0.27525 0.25469 0.0
C536 C 0.85882 0.27282 0.2607 0.0
H537 H 0.04014 0.30709 0.26681 0.0
H538 H 0.98002 0.31174 0.25743 0.0
H539 H 0.91255 0.24362 0.30868 0.0
H540 H 0.7525 0.22549 0.24798 0.0
H541 H 0.81194 0.22226 0.2612 0.0
C542 C 0.27911 0.52329 0.76337 0.0
C543 C 0.26702 0.53614 0.78784 0.0
C544 C 0.27712 0.48871 0.75777 0.0
C545 C 0.23481 0.40928 0.7803 0.0
H546 H 0.30653 0.36723 0.7393 0.0
C547 C 0.22537 0.27165 0.74159 0.0
C548 C 0.25509 0.25253 0.73914 0.0
C549 C 0.22671 0.30575 0.74887 0.0
C550 C 0.28645 0.37834 0.75111 0.0
H551 H 0.24358 0.5232 0.82572 0.0
H552 H 0.24081 0.46286 0.81644 0.0
H553 H 0.30933 0.42708 0.74929 0.0
H554 H 0.30946 0.25404 0.74368 0.0
H555 H 0.31172 0.31298 0.75735 0.0
H556 H 0.2126 0.36026 0.78302 0.0
C557 C 0.25108 0.47931 0.80114 0.0
C558 C 0.28777 0.41299 0.75646 0.0
C559 C 0.25276 0.5139 0.80657 0.0
C560 C 0.28607 0.26805 0.74517 0.0
C561 C 0.28738 0.30203 0.75277 0.0
C562 C 0.23367 0.37455 0.7752 0.0
C563 C 0.26329 0.46613 0.77667 0.0
C564 C 0.2619 0.42905 0.77103 0.0
C565 C 0.25778 0.32161 0.75422 0.0
C566 C 0.25941 0.35855 0.76042 0.0
H567 H 0.28999 0.54005 0.74854 0.0
H568 H 0.28621 0.47978 0.7385 0.0
H569 H 0.21414 0.42063 0.7913 0.0
H570 H 0.20108 0.26064 0.73689 0.0
H571 H 0.20337 0.31991 0.74938 0.0
C572 C 1.00811 0.74898 0.26621 0.0
C573 C 0.99617 0.76701 0.28856 0.0
C574 C 0.04281 0.74685 0.26104 0.0
C575 C 0.12446 0.78866 0.2777 0.0
H576 H 0.16281 0.70699 0.24763 0.0
C577 C 0.26031 0.78414 0.23557 0.0
C578 C 0.27915 0.75424 0.23813 0.0
C579 C 0.22644 0.78539 0.24341 0.0
C580 C 0.15268 0.72989 0.25634 0.0
H581 H 1.01079 0.7966 0.32323 0.0
H582 H 0.0713 0.79249 0.31467 0.0
H583 H 0.10287 0.70918 0.25809 0.0
H584 H 0.27708 0.70242 0.25189 0.0
H585 H 0.21825 0.70482 0.26619 0.0
H586 H 0.17436 0.80909 0.27661 0.0
C587 C 0.0541 0.7805 0.3007 0.0
C588 C 0.11808 0.73132 0.26197 0.0
C589 C 0.01945 0.78274 0.30573 0.0
C590 C 0.2634 0.72587 0.24953 0.0
C591 C 0.2295 0.72717 0.25751 0.0
C592 C 0.15906 0.78717 0.2722 0.0
C593 C 0.06635 0.76263 0.27821 0.0
C594 C 0.1034 0.7608 0.2726 0.0
C595 C 0.21038 0.75683 0.25422 0.0
C596 C 0.17368 0.75785 0.26125 0.0
H597 H 0.99056 0.73688 0.25256 0.0
H598 H 0.05112 0.73333 0.2433 0.0
H599 H 0.11417 0.81196 0.28557 0.0
H600 H 0.27142 0.8065 0.22677 0.0
H601 H 0.21259 0.80856 0.24017 0.0
C602 C 0.80737 0.75815 0.74054 0.0
C603 C 0.77828 0.77849 0.74007 0.0
C604 C 0.80535 0.72405 0.74763 0.0
C605 C 0.75625 0.66145 0.78454 0.0
H606 H 0.79183 0.59702 0.73313 0.0
C607 C 0.73515 0.51811 0.79857 0.0
C608 C 0.76001 0.49557 0.78948 0.0
C609 C 0.73707 0.55254 0.79252 0.0
C610 C 0.78229 0.61447 0.74806 0.0
H611 H 0.72447 0.77909 0.74783 0.0
H612 H 0.72125 0.71973 0.76116 0.0
H613 H 0.7969 0.65718 0.72432 0.0
H614 H 0.80604 0.49146 0.76635 0.0
H615 H 0.81075 0.55157 0.75717 0.0
H616 H 0.74272 0.61921 0.80887 0.0
C617 C 0.7455 0.73021 0.75564 0.0
C618 C 0.78506 0.64906 0.74285 0.0
C619 C 0.74736 0.76418 0.74799 0.0
C620 C 0.78673 0.50826 0.77399 0.0
C621 C 0.78908 0.54281 0.76838 0.0
C622 C 0.75408 0.62686 0.79006 0.0
C623 C 0.77435 0.70962 0.75499 0.0
C624 C 0.77194 0.67292 0.76096 0.0
C625 C 0.7643 0.56561 0.77759 0.0
C626 C 0.7669 0.60272 0.77183 0.0
H627 H 0.83155 0.76822 0.73439 0.0
H628 H 0.82804 0.70883 0.74714 0.0
H629 H 0.74614 0.6793 0.79896 0.0
H630 H 0.71435 0.50926 0.81076 0.0
H631 H 0.717 0.5688 0.79955 0.0
C632 C 0.18367 0.19821 0.41155 0.0
C633 C 0.17835 0.23181 0.40358 0.0
C634 C 0.19035 0.19037 0.43844 0.0
C635 C 0.18055 0.22311 0.50744 0.0
H636 H 0.25048 0.15824 0.52474 0.0
C637 C 0.19985 0.17293 0.61513 0.0
C638 C 0.23322 0.17111 0.62464 0.0
C639 C 0.19322 0.17933 0.58801 0.0
C640 C 0.23099 0.17652 0.52023 0.0
H641 H 0.1758 0.28348 0.41784 0.0
H642 H 0.18744 0.26979 0.46469 0.0
H643 H 0.23893 0.17203 0.47775 0.0
H644 H 0.28581 0.17407 0.61279 0.0
H645 H 0.27417 0.1852 0.56543 0.0
H646 H 0.17288 0.22794 0.54989 0.0
C647 C 0.1862 0.24948 0.45013 0.0
C648 C 0.22415 0.18417 0.49332 0.0
C649 C 0.17966 0.25735 0.42321 0.0
C650 C 0.25981 0.17521 0.6062 0.0
C651 C 0.25315 0.18147 0.57902 0.0
C652 C 0.18727 0.21533 0.53432 0.0
C653 C 0.19172 0.21592 0.45803 0.0
C654 C 0.19889 0.2076 0.48662 0.0
C655 C 0.21977 0.18395 0.56968 0.0
C656 C 0.21258 0.19197 0.54104 0.0
H657 H 0.18277 0.17785 0.39701 0.0
H658 H 0.19407 0.16423 0.44394 0.0
H659 H 0.16074 0.24104 0.50295 0.0
H660 H 0.17871 0.16978 0.62867 0.0
H661 H 0.16723 0.18059 0.58138 0.0
C662 C 0.37021 0.75257 0.10344 0.0
C663 C 0.35866 0.73069 0.12365 0.0
C664 C 0.36442 0.7451 0.07629 0.0
C665 C 0.30568 0.70573 0.0315 0.0
H666 H 0.37967 0.69165 0.98179 0.0
C667 C 0.28092 0.66117 0.92277 0.0
C668 C 0.30253 0.67251 0.90235 0.0
C669 C 0.28855 0.6673 0.94981 0.0
C670 C 0.35861 0.6961 0.99517 0.0
H671 H 0.33175 0.68408 0.13133 0.0
H672 H 0.32065 0.67178 0.0839 0.0
H673 H 0.39149 0.70585 0.02863 0.0
H674 H 0.3489 0.69945 0.89415 0.0
H675 H 0.36139 0.71173 0.94102 0.0
H676 H 0.2726 0.69763 0.99825 0.0
C677 C 0.33461 0.69433 0.08914 0.0
C678 C 0.3655 0.70401 0.02205 0.0
C679 C 0.34109 0.70134 0.1162 0.0
C680 C 0.33193 0.69009 0.90949 0.0
C681 C 0.33918 0.69694 0.93648 0.0
C682 C 0.29872 0.6986 1.00452 0.0
C683 C 0.34628 0.71611 0.06899 0.0
C684 C 0.33909 0.70865 0.04043 0.0
C685 C 0.31759 0.68567 0.95709 0.0
C686 C 0.32508 0.69344 0.98593 0.0
H687 H 0.38398 0.77525 0.10859 0.0
H688 H 0.37358 0.76225 0.061 0.0
H689 H 0.28492 0.70947 0.04536 0.0
H690 H 0.25827 0.64721 0.91787 0.0
H691 H 0.27167 0.6574 0.96496 0.0
C692 C 0.77248 0.84819 0.60538 0.0
C693 C 0.79851 0.85402 0.62404 0.0
C694 C 0.7799 0.84191 0.57831 0.0
C695 C 0.84693 0.85244 0.5272 0.0
H696 H 0.79789 0.78254 0.48913 0.0
C697 C 0.85844 0.83253 0.41228 0.0
C698 C 0.85921 0.79917 0.40266 0.0
C699 C 0.85172 0.83929 0.43937 0.0
C700 C 0.812 0.80196 0.49953 0.0
H701 H 0.85283 0.85795 0.62869 0.0
H702 H 0.86565 0.84676 0.58167 0.0
H703 H 0.78467 0.79425 0.53614 0.0
H704 H 0.85398 0.74669 0.41427 0.0
H705 H 0.84267 0.7585 0.46153 0.0
H706 H 0.87466 0.85976 0.49074 0.0
C707 C 0.83948 0.84741 0.58788 0.0
C708 C 0.80413 0.80897 0.52638 0.0
C709 C 0.83209 0.85362 0.61492 0.0
C710 C 0.85357 0.7727 0.42092 0.0
C711 C 0.84681 0.77947 0.448 0.0
C712 C 0.85475 0.84548 0.50033 0.0
C713 C 0.8135 0.84138 0.56925 0.0
C714 C 0.82153 0.83426 0.54056 0.0
C715 C 0.84556 0.81286 0.45752 0.0
C716 C 0.83742 0.82013 0.48617 0.0
H717 H 0.74636 0.84825 0.61166 0.0
H718 H 0.75926 0.83775 0.56442 0.0
H719 H 0.8606 0.87231 0.53745 0.0
H720 H 0.86262 0.85356 0.39885 0.0
H721 H 0.85061 0.86531 0.44596 0.0
C722 C 0.69356 0.32946 0.1175 0.0
C723 C 0.67536 0.30069 0.12514 0.0
C724 C 0.70063 0.33569 0.09043 0.0
C725 C 0.7013 0.29379 0.02288 0.0
H726 H 0.70946 0.38605 0.99796 0.0
C727 C 0.70453 0.3352 0.9108 0.0
C728 C 0.73361 0.35326 0.90346 0.0
C729 C 0.69772 0.3284 0.93783 0.0
C730 C 0.70737 0.3602 1.00475 0.0
H731 H 0.64939 0.25636 0.11042 0.0
H732 H 0.66009 0.26794 0.06307 0.0
H733 H 0.69522 0.37517 0.04485 0.0
H734 H 0.77799 0.37889 0.91866 0.0
H735 H 0.76531 0.36795 0.96616 0.0
H736 H 0.71195 0.27922 0.98215 0.0
C737 C 0.67022 0.28513 0.07795 0.0
C738 C 0.69945 0.35384 0.03167 0.0
C739 C 0.66384 0.27851 0.10512 0.0
C740 C 0.75553 0.36475 0.92373 0.0
C741 C 0.74824 0.35864 0.95083 0.0
C742 C 0.70845 0.30023 0.99583 0.0
C743 C 0.68896 0.31371 0.07019 0.0
C744 C 0.69654 0.32051 0.04123 0.0
C745 C 0.7194 0.34023 0.95804 0.0
C746 C 0.71177 0.33346 0.98662 0.0
H747 H 0.7031 0.34684 0.13253 0.0
H748 H 0.71579 0.35751 0.08554 0.0
H749 H 0.70003 0.26781 0.0294 0.0
H750 H 0.68726 0.32592 0.89561 0.0
H751 H 0.67527 0.31427 0.94299 0.0
C752 C 0.91783 0.93884 0.34338 0.0
C753 C 0.90862 0.91875 0.32126 0.0
C754 C 0.94385 0.96231 0.34112 0.0
C755 C 0.99387 1.01359 0.29536 0.0
H756 H 0.0618 1.00617 0.35123 0.0
C757 C 0.10799 0.10467 0.30101 0.0
C758 C 0.11322 0.11837 0.32678 0.0
C759 C 0.08672 0.07677 0.29756 0.0
C760 C 0.04303 1.00868 0.33552 0.0
H761 H 0.91784 0.90936 0.27886 0.0
H762 H 0.96308 0.95107 0.27487 0.0
H763 H 1.01473 0.96675 0.35035 0.0
H764 H 0.10188 0.11256 0.3692 0.0
H765 H 0.06504 0.06446 0.36326 0.0
H766 H 0.02147 0.05646 0.28117 0.0
C767 C 0.95035 0.94815 0.294 0.0
C768 C 1.01609 0.98612 0.33505 0.0
C769 C 0.92448 0.92432 0.29633 0.0
C770 C 0.0983 0.10265 0.34907 0.0
C771 C 0.0773 0.07485 0.34566 0.0
C772 C 0.02075 0.03649 0.29598 0.0
C773 C 0.96096 0.96653 0.31663 0.0
C774 C 0.99083 0.98886 0.31538 0.0
C775 C 0.07063 0.06197 0.31985 0.0
C776 C 0.04516 0.03479 0.31651 0.0
H777 H 0.90613 0.93533 0.36287 0.0
H778 H 0.95119 0.97664 0.35876 0.0
H779 H 0.97473 0.01613 0.27994 0.0
H780 H 0.11907 0.11637 0.28344 0.0
H781 H 0.08233 0.06721 0.27744 0.0
C782 C 0.42491 0.60951 0.79572 0.0
C783 C 0.4204 0.62855 0.81938 0.0
C784 C 0.44949 0.58422 0.79452 0.0
C785 C 0.49206 0.52581 0.83946 0.0
H786 H 0.55595 0.51124 0.78156 0.0
C787 C 0.60759 0.44137 0.85193 0.0
C788 C 0.62001 0.42291 0.82993 0.0
C789 C 0.58046 0.4633 0.84882 0.0
C790 C 0.5378 0.51456 0.79762 0.0
H791 H 0.43979 0.63754 0.8596 0.0
H792 H 0.48251 0.59351 0.85744 0.0
H793 H 0.51591 0.55814 0.77889 0.0
H794 H 0.61281 0.4119 0.78758 0.0
H795 H 0.56471 0.45013 0.78218 0.0
H796 H 0.51349 0.48242 0.85823 0.0
C797 C 0.46672 0.59785 0.83999 0.0
C798 C 0.51508 0.54153 0.79615 0.0
C799 C 0.44242 0.62327 0.84112 0.0
C800 C 0.60369 0.42571 0.80493 0.0
C801 C 0.57641 0.44785 0.80178 0.0
C802 C 0.51443 0.49876 0.84081 0.0
C803 C 0.46978 0.57742 0.81701 0.0
C804 C 0.49258 0.54785 0.81739 0.0
C805 C 0.56489 0.46733 0.82363 0.0
C806 C 0.53816 0.49327 0.82025 0.0
H807 H 0.40851 0.61312 0.77854 0.0
H808 H 0.45143 0.56889 0.77653 0.0
H809 H 0.47438 0.52963 0.8558 0.0
H810 H 0.61958 0.43977 0.87147 0.0
H811 H 0.57264 0.47819 0.86601 0.0
C812 C 0.42404 0.59497 0.18011 0.0
C813 C 0.41131 0.61237 0.20258 0.0
C814 C 0.45043 0.57201 0.183 0.0
C815 C 0.49478 0.51572 0.22768 0.0
H816 H 0.57275 0.53628 0.18352 0.0
C817 C 0.61307 0.43084 0.22928 0.0
C818 C 0.62728 0.42362 0.204 0.0
C819 C 0.58931 0.4567 0.23211 0.0
C820 C 0.55114 0.52991 0.19581 0.0
H821 H 0.41472 0.61753 0.24597 0.0
H822 H 0.46045 0.57638 0.25102 0.0
H823 H 0.52365 0.57318 0.18232 0.0
H824 H 0.62884 0.43898 0.16215 0.0
H825 H 0.58714 0.48317 0.16685 0.0
H826 H 0.52138 0.47154 0.24022 0.0
C827 C 0.45018 0.58112 0.23119 0.0
C828 C 0.5231 0.55116 0.19517 0.0
C829 C 0.42404 0.60458 0.22826 0.0
C830 C 0.61851 0.44389 0.18195 0.0
C831 C 0.59459 0.46946 0.1847 0.0
C832 C 0.52266 0.49406 0.22799 0.0
C833 C 0.46425 0.56551 0.20845 0.0
C834 C 0.49452 0.54396 0.21076 0.0
C835 C 0.5791 0.47575 0.20968 0.0
C836 C 0.55099 0.50058 0.21169 0.0
H837 H 0.41485 0.60029 0.16004 0.0
H838 H 0.46064 0.5599 0.16522 0.0
H839 H 0.47295 0.50971 0.23985 0.0
H840 H 0.61947 0.41582 0.24673 0.0
H841 H 0.57846 0.46127 0.25177 0.0
C842 C 0.10678 0.1085 0.73058 0.0
C843 C 0.11235 0.12469 0.7058 0.0
C844 C 0.08287 0.08271 0.73269 0.0
C845 C 0.04492 0.0177 0.69098 0.0
H846 H 0.97529 1.0108 0.74543 0.0
C847 C 0.92888 0.93478 0.6772 0.0
C848 C 0.91363 0.91941 0.69949 0.0
C849 C 0.9566 0.9559 0.68053 0.0
C850 C 0.99507 1.01196 0.73044 0.0
H851 H 0.09563 0.12798 0.6643 0.0
H852 H 0.05411 0.08304 0.66804 0.0
H853 H 1.0152 0.05786 0.74684 0.0
H854 H 0.91638 0.91282 0.74273 0.0
H855 H 0.96539 0.94977 0.7486 0.0
H856 H 0.0251 0.97208 0.67446 0.0
C857 C 0.06853 0.09005 0.6857 0.0
C858 C 0.01772 0.03901 0.73118 0.0
C859 C 0.09211 0.116 0.68366 0.0
C860 C 0.92772 0.92427 0.72516 0.0
C861 C 0.95553 0.94566 0.72854 0.0
C862 C 0.02261 0.99057 0.6904 0.0
C863 C 0.06439 0.07253 0.71 0.0
C864 C 0.04219 0.04259 0.71097 0.0
C865 C 0.96983 0.96223 0.70628 0.0
C866 C 0.99678 0.9879 0.70963 0.0
H867 H 0.12185 0.11478 0.74806 0.0
H868 H 0.08001 0.06965 0.75168 0.0
H869 H 0.06412 0.01947 0.67554 0.0
H870 H 0.91866 0.93147 0.65715 0.0
H871 H 0.96662 0.96854 0.66297 0.0
loop_
_geom_bond_atom_site_label_1
_geom_bond_atom_site_label_2
_geom_bond_distance
_geom_bond_site_symmetry_2
_ccdc_geom_bond_type
Co0 O3 1.970 . S
Co0 N17 1.989 . S
Co0 O25 1.967 . S
Co0 O32 1.920 . S
Co1 O4 1.966 . S
Co1 N10 2.022 . S
Co1 N18 1.993 . S
Co1 O26 1.941 . S
C2 O3 1.258 . S
C2 O4 1.263 . S
O3 Co0 1.970 . S
O3 C2 1.258 . S
O4 Co1 1.966 . S
O4 C2 1.263 . S
C5 O6 1.235 . S
C5 O32 1.289 . S
O6 C5 1.235 . S
C7 C9 1.400 . S
C7 N10 1.351 . S
C7 C12 1.501 . S
C8 C9 1.387 . S
C8 N11 1.341 . S
C9 C7 1.400 . S
C9 C8 1.387 . S
N10 Co1 2.022 . S
N10 C7 1.351 . S
N10 N11 1.365 . S
N11 C8 1.341 . S
N11 N10 1.365 . S
N11 H31 0.862 . S
C12 C7 1.501 . S
C12 H13 0.961 . S
C12 H14 0.961 . S
C12 H15 0.960 . S
H13 C12 0.961 . S
H14 C12 0.961 . S
H15 C12 0.960 . S
C16 N17 1.342 1_655 S
C16 C20 1.401 . S
C16 C21 1.499 . S
N17 Co0 1.989 . S
N17 C16 1.342 1_455 S
N17 N18 1.388 . S
N18 Co1 1.993 . S
N18 N17 1.388 . S
N18 C19 1.346 1_455 S
C19 N18 1.346 1_655 S
C19 C20 1.396 . S
C19 C29 1.510 . S
C20 C16 1.401 . S
C20 C19 1.396 . S
C21 C16 1.499 . S
C21 H22 0.959 1_655 S
C21 H23 0.960 . S
C21 H24 0.961 . S
H22 C21 0.959 1_455 S
H23 C21 0.960 . S
H24 C21 0.961 . S
O25 Co0 1.967 . S
O25 C33 1.258 . S
O26 Co1 1.941 . S
O26 C33 1.266 . S
H27 C29 0.959 . S
H28 C29 0.961 . S
C29 C19 1.510 . S
C29 H27 0.959 . S
C29 H28 0.961 . S
C29 H30 0.960 1_655 S
H30 C29 0.960 1_455 S
H31 N11 0.862 . S
O32 Co0 1.920 . S
O32 C5 1.289 . S
C33 O25 1.258 . S
C33 O26 1.266 . S
Co34 O37 1.970 . S
Co34 N51 1.989 . S
Co34 O59 1.967 . S
Co34 O66 1.920 . S
Co35 O38 1.966 . S
Co35 N44 2.022 . S
Co35 N52 1.993 . S
Co35 O60 1.941 . S
C36 O37 1.258 . S
C36 O38 1.263 . S
O37 Co34 1.970 . S
O37 C36 1.258 . S
O38 Co35 1.966 . S
O38 C36 1.263 . S
C39 O40 1.235 . S
C39 O66 1.289 . S
O40 C39 1.235 . S
C41 C43 1.400 . S
C41 N44 1.351 . S
C41 C46 1.501 . S
C42 C43 1.387 . S
C42 N45 1.341 . S
C43 C41 1.400 . S
C43 C42 1.387 . S
N44 Co35 2.022 . S
N44 C41 1.351 . S
N44 N45 1.365 . S
N45 C42 1.341 . S
N45 N44 1.365 . S
N45 H65 0.862 . S
C46 C41 1.501 . S
C46 H47 0.961 . S
C46 H48 0.961 . S
C46 H49 0.960 . S
H47 C46 0.961 . S
H48 C46 0.961 . S
H49 C46 0.960 . S
C50 N51 1.342 . S
C50 C54 1.401 . S
C50 C55 1.499 . S
N51 Co34 1.989 . S
N51 C50 1.342 . S
N51 N52 1.388 . S
N52 Co35 1.993 . S
N52 N51 1.388 . S
N52 C53 1.346 . S
C53 N52 1.346 . S
C53 C54 1.396 . S
C53 C63 1.510 . S
C54 C50 1.401 . S
C54 C53 1.396 . S
C55 C50 1.499 . S
C55 H56 0.959 . S
C55 H57 0.960 . S
C55 H58 0.961 . S
H56 C55 0.959 . S
H57 C55 0.960 . S
H58 C55 0.961 . S
O59 Co34 1.967 . S
O59 C67 1.258 . S
O60 Co35 1.941 . S
O60 C67 1.266 . S
H61 C63 0.959 . S
H62 C63 0.961 . S
C63 C53 1.510 . S
C63 H61 0.959 . S
C63 H62 0.961 . S
C63 H64 0.960 . S
H64 C63 0.960 . S
H65 N45 0.862 . S
O66 Co34 1.920 . S
O66 C39 1.289 . S
C67 O59 1.258 . S
C67 O60 1.266 . S
Co68 O71 1.970 . S
Co68 N85 1.989 . S
Co68 O93 1.967 . S
Co68 O100 1.920 . S
Co69 O72 1.966 . S
Co69 N78 2.022 . S
Co69 N86 1.993 . S
Co69 O94 1.941 . S
C70 O71 1.258 . S
C70 O72 1.263 . S
O71 Co68 1.970 . S
O71 C70 1.258 . S
O72 Co69 1.966 . S
O72 C70 1.263 . S
C73 O74 1.235 . S
C73 O100 1.289 . S
O74 C73 1.235 . S
C75 C77 1.400 . S
C75 N78 1.351 . S
C75 C80 1.501 . S
C76 C77 1.387 . S
C76 N79 1.341 . S
C77 C75 1.400 . S
C77 C76 1.387 . S
N78 Co69 2.022 . S
N78 C75 1.351 . S
N78 N79 1.365 . S
N79 C76 1.341 . S
N79 N78 1.365 . S
N79 H99 0.862 . S
C80 C75 1.501 . S
C80 H81 0.961 . S
C80 H82 0.961 . S
C80 H83 0.960 . S
H81 C80 0.961 . S
H82 C80 0.961 . S
H83 C80 0.960 . S
C84 N85 1.342 1_455 S
C84 C88 1.401 . S
C84 C89 1.499 . S
N85 Co68 1.989 . S
N85 C84 1.342 1_655 S
N85 N86 1.388 . S
N86 Co69 1.993 . S
N86 N85 1.388 . S
N86 C87 1.346 1_655 S
C87 N86 1.346 1_455 S
C87 C88 1.396 . S
C87 C97 1.510 . S
C88 C84 1.401 . S
C88 C87 1.396 . S
C89 C84 1.499 . S
C89 H90 0.959 1_455 S
C89 H91 0.960 . S
C89 H92 0.961 . S
H90 C89 0.959 1_655 S
H91 C89 0.960 . S
H92 C89 0.961 . S
O93 Co68 1.967 . S
O93 C101 1.258 . S
O94 Co69 1.941 . S
O94 C101 1.266 . S
H95 C97 0.959 . S
H96 C97 0.961 . S
C97 C87 1.510 . S
C97 H95 0.959 . S
C97 H96 0.961 . S
C97 H98 0.960 1_455 S
H98 C97 0.960 1_655 S
H99 N79 0.862 . S
O100 Co68 1.920 . S
O100 C73 1.289 . S
C101 O93 1.258 . S
C101 O94 1.266 . S
Co102 O105 1.970 . S
Co102 N119 1.989 . S
Co102 O127 1.967 . S
Co102 O134 1.920 . S
Co103 O106 1.966 . S
Co103 N112 2.022 . S
Co103 N120 1.993 . S
Co103 O128 1.941 . S
C104 O105 1.258 . S
C104 O106 1.263 . S
O105 Co102 1.970 . S
O105 C104 1.258 . S
O106 Co103 1.966 . S
O106 C104 1.263 . S
C107 O108 1.235 . S
C107 O134 1.289 . S
O108 C107 1.235 . S
C109 C111 1.400 . S
C109 N112 1.351 . S
C109 C114 1.501 . S
C110 C111 1.387 . S
C110 N113 1.341 . S
C111 C109 1.400 . S
C111 C110 1.387 . S
N112 Co103 2.022 . S
N112 C109 1.351 . S
N112 N113 1.365 . S
N113 C110 1.341 . S
N113 N112 1.365 . S
N113 H133 0.862 . S
C114 C109 1.501 . S
C114 H115 0.961 . S
C114 H116 0.961 . S
C114 H117 0.960 . S
H115 C114 0.961 . S
H116 C114 0.961 . S
H117 C114 0.960 . S
C118 N119 1.342 . S
C118 C122 1.401 . S
C118 C123 1.499 . S
N119 Co102 1.989 . S
N119 C118 1.342 . S
N119 N120 1.388 . S
N120 Co103 1.993 . S
N120 N119 1.388 . S
N120 C121 1.346 . S
C121 N120 1.346 . S
C121 C122 1.396 . S
C121 C131 1.510 . S
C122 C118 1.401 . S
C122 C121 1.396 . S
C123 C118 1.499 . S
C123 H124 0.959 . S
C123 H125 0.960 . S
C123 H126 0.961 . S
H124 C123 0.959 . S
H125 C123 0.960 . S
H126 C123 0.961 . S
O127 Co102 1.967 . S
O127 C135 1.258 . S
O128 Co103 1.941 . S
O128 C135 1.266 . S
H129 C131 0.959 . S
H130 C131 0.961 . S
C131 C121 1.510 . S
C131 H129 0.959 . S
C131 H130 0.961 . S
C131 H132 0.960 . S
H132 C131 0.960 . S
H133 N113 0.862 . S
O134 Co102 1.920 . S
O134 C107 1.289 . S
C135 O127 1.258 . S
C135 O128 1.266 . S
Co136 O139 1.970 . S
Co136 N153 1.989 . S
Co136 O161 1.967 . S
Co136 O168 1.920 . S
Co137 O140 1.966 . S
Co137 N146 2.022 . S
Co137 N154 1.993 . S
Co137 O162 1.941 . S
C138 O139 1.258 . S
C138 O140 1.263 . S
O139 Co136 1.970 . S
O139 C138 1.258 . S
O140 Co137 1.966 . S
O140 C138 1.263 . S
C141 O142 1.235 . S
C141 O168 1.289 . S
O142 C141 1.235 . S
C143 C145 1.400 . S
C143 N146 1.351 . S
C143 C148 1.501 . S
C144 C145 1.387 . S
C144 N147 1.341 . S
C145 C143 1.400 . S
C145 C144 1.387 . S
N146 Co137 2.022 . S
N146 C143 1.351 . S
N146 N147 1.365 . S
N147 C144 1.341 . S
N147 N146 1.365 . S
N147 H167 0.862 . S
C148 C143 1.501 . S
C148 H149 0.961 . S
C148 H150 0.961 . S
C148 H151 0.960 . S
H149 C148 0.961 . S
H150 C148 0.961 . S
H151 C148 0.960 . S
C152 N153 1.342 . S
C152 C156 1.401 . S
C152 C157 1.499 . S
N153 Co136 1.989 . S
N153 C152 1.342 . S
N153 N154 1.388 . S
N154 Co137 1.993 . S
N154 N153 1.388 . S
N154 C155 1.346 . S
C155 N154 1.346 . S
C155 C156 1.396 . S
C155 C165 1.510 . S
C156 C152 1.401 . S
C156 C155 1.396 . S
C157 C152 1.499 . S
C157 H158 0.959 . S
C157 H159 0.960 . S
C157 H160 0.961 . S
H158 C157 0.959 . S
H159 C157 0.960 . S
H160 C157 0.961 . S
O161 Co136 1.967 . S
O161 C169 1.258 . S
O162 Co137 1.941 . S
O162 C169 1.266 . S
H163 C165 0.959 . S
H164 C165 0.961 . S
C165 C155 1.510 . S
C165 H163 0.959 . S
C165 H164 0.961 . S
C165 H166 0.960 . S
H166 C165 0.960 . S
H167 N147 0.862 . S
O168 Co136 1.920 . S
O168 C141 1.289 . S
C169 O161 1.258 . S
C169 O162 1.266 . S
Co170 O173 1.970 . S
Co170 N187 1.989 . S
Co170 O195 1.967 . S
Co170 O202 1.920 . S
Co171 O174 1.966 . S
Co171 N180 2.022 . S
Co171 N188 1.993 . S
Co171 O196 1.941 . S
C172 O173 1.258 . S
C172 O174 1.263 . S
O173 Co170 1.970 . S
O173 C172 1.258 . S
O174 Co171 1.966 . S
O174 C172 1.263 . S
C175 O176 1.235 . S
C175 O202 1.289 . S
O176 C175 1.235 . S
C177 C179 1.400 . S
C177 N180 1.351 . S
C177 C182 1.501 . S
C178 C179 1.387 . S
C178 N181 1.341 . S
C179 C177 1.400 . S
C179 C178 1.387 . S
N180 Co171 2.022 . S
N180 C177 1.351 . S
N180 N181 1.365 . S
N181 C178 1.341 . S
N181 N180 1.365 . S
N181 H201 0.862 . S
C182 C177 1.501 . S
C182 H183 0.961 . S
C182 H184 0.961 . S
C182 H185 0.960 . S
H183 C182 0.961 . S
H184 C182 0.961 . S
H185 C182 0.960 . S
C186 N187 1.342 1_565 S
C186 C190 1.401 . S
C186 C191 1.499 . S
N187 Co170 1.989 . S
N187 C186 1.342 1_545 S
N187 N188 1.388 . S
N188 Co171 1.993 . S
N188 N187 1.388 . S
N188 C189 1.346 1_545 S
C189 N188 1.346 1_565 S
C189 C190 1.396 . S
C189 C199 1.510 . S
C190 C186 1.401 . S
C190 C189 1.396 . S
C191 C186 1.499 . S
C191 H192 0.959 1_565 S
C191 H193 0.960 . S
C191 H194 0.961 . S
H192 C191 0.959 1_545 S
H193 C191 0.960 . S
H194 C191 0.961 . S
O195 Co170 1.967 . S
O195 C203 1.258 . S
O196 Co171 1.941 . S
O196 C203 1.266 . S
H197 C199 0.959 . S
H198 C199 0.961 . S
C199 C189 1.510 . S
C199 H197 0.959 . S
C199 H198 0.961 . S
C199 H200 0.960 1_565 S
H200 C199 0.960 1_545 S
H201 N181 0.862 . S
O202 Co170 1.920 . S
O202 C175 1.289 . S
C203 O195 1.258 . S
C203 O196 1.266 . S
Co204 O207 1.970 . S
Co204 N221 1.989 . S
Co204 O229 1.967 . S
Co204 O236 1.920 . S
Co205 O208 1.966 . S
Co205 N214 2.022 . S
Co205 N222 1.993 . S
Co205 O230 1.941 . S
C206 O207 1.258 . S
C206 O208 1.263 . S
O207 Co204 1.970 . S
O207 C206 1.258 . S
O208 Co205 1.966 . S
O208 C206 1.263 . S
C209 O210 1.235 . S
C209 O236 1.289 . S
O210 C209 1.235 . S
C211 C213 1.400 . S
C211 N214 1.351 . S
C211 C216 1.501 . S
C212 C213 1.387 . S
C212 N215 1.341 . S
C213 C211 1.400 . S
C213 C212 1.387 . S
N214 Co205 2.022 . S
N214 C211 1.351 . S
N214 N215 1.365 . S
N215 C212 1.341 . S
N215 N214 1.365 . S
N215 H235 0.862 . S
C216 C211 1.501 . S
C216 H217 0.961 . S
C216 H218 0.961 . S
C216 H219 0.960 . S
H217 C216 0.961 . S
H218 C216 0.961 . S
H219 C216 0.960 . S
C220 N221 1.342 . S
C220 C224 1.401 . S
C220 C225 1.499 . S
N221 Co204 1.989 . S
N221 C220 1.342 . S
N221 N222 1.388 . S
N222 Co205 1.993 . S
N222 N221 1.388 . S
N222 C223 1.346 . S
C223 N222 1.346 . S
C223 C224 1.396 . S
C223 C233 1.510 . S
C224 C220 1.401 . S
C224 C223 1.396 . S
C225 C220 1.499 . S
C225 H226 0.959 . S
C225 H227 0.960 . S
C225 H228 0.961 . S
H226 C225 0.959 . S
H227 C225 0.960 . S
H228 C225 0.961 . S
O229 Co204 1.967 . S
O229 C237 1.258 . S
O230 Co205 1.941 . S
O230 C237 1.266 . S
H231 C233 0.959 . S
H232 C233 0.961 . S
C233 C223 1.510 . S
C233 H231 0.959 . S
C233 H232 0.961 . S
C233 H234 0.960 . S
H234 C233 0.960 . S
H235 N215 0.862 . S
O236 Co204 1.920 . S
O236 C209 1.289 . S
C237 O229 1.258 . S
C237 O230 1.266 . S
Co238 O241 1.970 . S
Co238 N255 1.989 . S
Co238 O263 1.967 . S
Co238 O270 1.920 . S
Co239 O242 1.966 . S
Co239 N248 2.022 . S
Co239 N256 1.993 . S
Co239 O264 1.941 . S
C240 O241 1.258 . S
C240 O242 1.263 . S
O241 Co238 1.970 . S
O241 C240 1.258 . S
O242 Co239 1.966 . S
O242 C240 1.263 . S
C243 O244 1.235 . S
C243 O270 1.289 . S
O244 C243 1.235 . S
C245 C247 1.400 . S
C245 N248 1.351 . S
C245 C250 1.501 . S
C246 C247 1.387 . S
C246 N249 1.341 . S
C247 C245 1.400 . S
C247 C246 1.387 . S
N248 Co239 2.022 . S
N248 C245 1.351 . S
N248 N249 1.365 . S
N249 C246 1.341 . S
N249 N248 1.365 . S
N249 H269 0.862 . S
C250 C245 1.501 . S
C250 H251 0.961 . S
C250 H252 0.961 . S
C250 H253 0.960 . S
H251 C250 0.961 . S
H252 C250 0.961 . S
H253 C250 0.960 . S
C254 N255 1.342 1_545 S
C254 C258 1.401 . S
C254 C259 1.499 . S
N255 Co238 1.989 . S
N255 C254 1.342 1_565 S
N255 N256 1.388 . S
N256 Co239 1.993 . S
N256 N255 1.388 . S
N256 C257 1.346 1_565 S
C257 N256 1.346 1_545 S
C257 C258 1.396 . S
C257 C267 1.510 . S
C258 C254 1.401 . S
C258 C257 1.396 . S
C259 C254 1.499 . S
C259 H260 0.959 1_545 S
C259 H261 0.960 . S
C259 H262 0.961 . S
H260 C259 0.959 1_565 S
H261 C259 0.960 . S
H262 C259 0.961 . S
O263 Co238 1.967 . S
O263 C271 1.258 . S
O264 Co239 1.941 . S
O264 C271 1.266 . S
H265 C267 0.959 . S
H266 C267 0.961 . S
C267 C257 1.510 . S
C267 H265 0.959 . S
C267 H266 0.961 . S
C267 H268 0.960 1_545 S
H268 C267 0.960 1_565 S
H269 N249 0.862 . S
O270 Co238 1.920 . S
O270 C243 1.289 . S
C271 O263 1.258 . S
C271 O264 1.266 . S
C272 C273 1.349 . S
C272 C274 1.327 . S
C272 H297 0.950 . S
C273 C272 1.349 . S
C273 C289 1.349 . S
C274 C272 1.327 . S
C274 C293 1.429 . S
C274 H298 0.950 . S
C275 C292 1.574 . S
C275 C294 1.368 1_455 S
C275 H299 0.949 . S
H276 C280 0.949 . S
C277 C278 1.349 . S
C277 C279 1.327 . S
C277 H300 0.950 . S
C278 C277 1.349 . S
C278 C290 1.349 . S
C279 C277 1.327 . S
C279 C295 1.429 . S
C279 H301 0.950 . S
C280 H276 0.949 . S
C280 C288 1.574 . S
C280 C296 1.368 1_655 S
H281 C289 0.950 . S
H282 C287 0.950 1_455 S
H283 C288 0.949 . S
H284 C290 0.950 . S
H285 C291 0.950 1_655 S
H286 C292 0.949 . S
C287 H282 0.950 1_655 S
C287 C289 1.327 . S
C287 C293 1.429 . S
C288 C280 1.574 . S
C288 H283 0.949 . S
C288 C294 1.368 . S
C289 C273 1.349 . S
C289 H281 0.950 . S
C289 C287 1.327 . S
C290 C278 1.349 . S
C290 H284 0.950 . S
C290 C291 1.327 . S
C291 H285 0.950 1_455 S
C291 C290 1.327 . S
C291 C295 1.429 . S
C292 C275 1.574 . S
C292 H286 0.949 . S
C292 C296 1.368 . S
C293 C274 1.429 . S
C293 C287 1.429 . S
C293 C294 1.523 . S
C294 C275 1.368 1_655 S
C294 C288 1.368 . S
C294 C293 1.523 . S
C295 C279 1.429 . S
C295 C291 1.429 . S
C295 C296 1.523 . S
C296 C280 1.368 1_455 S
C296 C292 1.368 . S
C296 C295 1.523 . S
H297 C272 0.950 . S
H298 C274 0.950 . S
H299 C275 0.949 . S
H300 C277 0.950 . S
H301 C279 0.950 . S
C302 C303 1.349 . S
C302 C304 1.327 . S
C302 H327 0.950 . S
C303 C302 1.349 . S
C303 C319 1.349 . S
C304 C302 1.327 . S
C304 C323 1.429 . S
C304 H328 0.950 . S
C305 C322 1.574 1_655 S
C305 C324 1.368 . S
C305 H329 0.949 . S
H306 C310 0.949 . S
C307 C308 1.349 . S
C307 C309 1.327 . S
C307 H330 0.950 . S
C308 C307 1.349 . S
C308 C320 1.349 . S
C309 C307 1.327 . S
C309 C325 1.429 . S
C309 H331 0.950 . S
C310 H306 0.949 . S
C310 C318 1.574 1_455 S
C310 C326 1.368 . S
H311 C319 0.950 . S
H312 C317 0.950 . S
H313 C318 0.949 . S
H314 C320 0.950 . S
H315 C321 0.950 . S
H316 C322 0.949 . S
C317 H312 0.950 . S
C317 C319 1.327 . S
C317 C323 1.429 . S
C318 C310 1.574 1_655 S
C318 H313 0.949 . S
C318 C324 1.368 . S
C319 C303 1.349 . S
C319 H311 0.950 . S
C319 C317 1.327 . S
C320 C308 1.349 . S
C320 H314 0.950 . S
C320 C321 1.327 . S
C321 H315 0.950 . S
C321 C320 1.327 . S
C321 C325 1.429 . S
C322 C305 1.574 1_455 S
C322 H316 0.949 . S
C322 C326 1.368 . S
C323 C304 1.429 . S
C323 C317 1.429 . S
C323 C324 1.523 . S
C324 C305 1.368 . S
C324 C318 1.368 . S
C324 C323 1.523 . S
C325 C309 1.429 . S
C325 C321 1.429 . S
C325 C326 1.523 . S
C326 C310 1.368 . S
C326 C322 1.368 . S
C326 C325 1.523 . S
H327 C302 0.950 . S
H328 C304 0.950 . S
H329 C305 0.949 . S
H330 C307 0.950 . S
H331 C309 0.950 . S
C332 C333 1.349 . S
C332 C334 1.327 . S
C332 H357 0.950 . S
C333 C332 1.349 . S
C333 C349 1.349 . S
C334 C332 1.327 . S
C334 C353 1.429 . S
C334 H358 0.950 . S
C335 C352 1.574 1_565 S
C335 C354 1.368 . S
C335 H359 0.949 . S
H336 C340 0.949 . S
C337 C338 1.349 . S
C337 C339 1.327 . S
C337 H360 0.950 . S
C338 C337 1.349 . S
C338 C350 1.349 . S
C339 C337 1.327 . S
C339 C355 1.429 . S
C339 H361 0.950 . S
C340 H336 0.949 . S
C340 C348 1.574 1_545 S
C340 C356 1.368 . S
H341 C349 0.950 . S
H342 C347 0.950 . S
H343 C348 0.949 . S
H344 C350 0.950 . S
H345 C351 0.950 . S
H346 C352 0.949 . S
C347 H342 0.950 . S
C347 C349 1.327 . S
C347 C353 1.429 . S
C348 C340 1.574 1_565 S
C348 H343 0.949 . S
C348 C354 1.368 . S
C349 C333 1.349 . S
C349 H341 0.950 . S
C349 C347 1.327 . S
C350 C338 1.349 . S
C350 H344 0.950 . S
C350 C351 1.327 . S
C351 H345 0.950 . S
C351 C350 1.327 . S
C351 C355 1.429 . S
C352 C335 1.574 1_545 S
C352 H346 0.949 . S
C352 C356 1.368 . S
C353 C334 1.429 . S
C353 C347 1.429 . S
C353 C354 1.523 . S
C354 C335 1.368 . S
C354 C348 1.368 . S
C354 C353 1.523 . S
C355 C339 1.429 . S
C355 C351 1.429 . S
C355 C356 1.523 . S
C356 C340 1.368 . S
C356 C352 1.368 . S
C356 C355 1.523 . S
H357 C332 0.950 . S
H358 C334 0.950 . S
H359 C335 0.949 . S
H360 C337 0.950 . S
H361 C339 0.950 . S
C362 C363 1.349 . S
C362 C364 1.327 . S
C362 H387 0.950 . S
C363 C362 1.349 . S
C363 C379 1.349 . S
C364 C362 1.327 . S
C364 C383 1.429 . S
C364 H388 0.950 . S
C365 C382 1.574 . S
C365 C384 1.368 1_545 S
C365 H389 0.949 . S
H366 C370 0.949 . S
C367 C368 1.349 . S
C367 C369 1.327 . S
C367 H390 0.950 . S
C368 C367 1.349 . S
C368 C380 1.349 . S
C369 C367 1.327 . S
C369 C385 1.429 . S
C369 H391 0.950 . S
C370 H366 0.949 . S
C370 C378 1.574 . S
C370 C386 1.368 1_565 S
H371 C379 0.950 . S
H372 C377 0.950 1_545 S
H373 C378 0.949 . S
H374 C380 0.950 . S
H375 C381 0.950 1_565 S
H376 C382 0.949 . S
C377 H372 0.950 1_565 S
C377 C379 1.327 . S
C377 C383 1.429 . S
C378 C370 1.574 . S
C378 H373 0.949 . S
C378 C384 1.368 . S
C379 C363 1.349 . S
C379 H371 0.950 . S
C379 C377 1.327 . S
C380 C368 1.349 . S
C380 H374 0.950 . S
C380 C381 1.327 . S
C381 H375 0.950 1_545 S
C381 C380 1.327 . S
C381 C385 1.429 . S
C382 C365 1.574 . S
C382 H376 0.949 . S
C382 C386 1.368 . S
C383 C364 1.429 . S
C383 C377 1.429 . S
C383 C384 1.523 . S
C384 C365 1.368 1_565 S
C384 C378 1.368 . S
C384 C383 1.523 . S
C385 C369 1.429 . S
C385 C381 1.429 . S
C385 C386 1.523 . S
C386 C370 1.368 1_545 S
C386 C382 1.368 . S
C386 C385 1.523 . S
H387 C362 0.950 . S
H388 C364 0.950 . S
H389 C365 0.949 . S
H390 C367 0.950 . S
H391 C369 0.950 . S
C392 C393 1.349 . S
C392 C394 1.327 . S
C392 H417 0.950 . S
C393 C392 1.349 . S
C393 C409 1.349 . S
C394 C392 1.327 . S
C394 C413 1.429 . S
C394 H418 0.950 . S
C395 C412 1.574 . S
C395 C414 1.368 . S
C395 H419 0.949 . S
H396 C400 0.949 . S
C397 C398 1.349 . S
C397 C399 1.327 . S
C397 H420 0.950 . S
C398 C397 1.349 . S
C398 C410 1.349 . S
C399 C397 1.327 . S
C399 C415 1.429 . S
C399 H421 0.950 . S
C400 H396 0.949 . S
C400 C408 1.574 . S
C400 C416 1.368 . S
H401 C409 0.950 . S
H402 C407 0.950 . S
H403 C408 0.949 . S
H404 C410 0.950 . S
H405 C411 0.950 . S
H406 C412 0.949 . S
C407 H402 0.950 . S
C407 C409 1.327 . S
C407 C413 1.429 . S
C408 C400 1.574 . S
C408 H403 0.949 . S
C408 C414 1.368 . S
C409 C393 1.349 . S
C409 H401 0.950 . S
C409 C407 1.327 . S
C410 C398 1.349 . S
C410 H404 0.950 . S
C410 C411 1.327 . S
C411 H405 0.950 . S
C411 C410 1.327 . S
C411 C415 1.429 . S
C412 C395 1.574 . S
C412 H406 0.949 . S
C412 C416 1.368 . S
C413 C394 1.429 . S
C413 C407 1.429 . S
C413 C414 1.523 . S
C414 C395 1.368 . S
C414 C408 1.368 . S
C414 C413 1.523 . S
C415 C399 1.429 . S
C415 C411 1.429 . S
C415 C416 1.523 . S
C416 C400 1.368 . S
C416 C412 1.368 . S
C416 C415 1.523 . S
H417 C392 0.950 . S
H418 C394 0.950 . S
H419 C395 0.949 . S
H420 C397 0.950 . S
H421 C399 0.950 . S
C422 C423 1.349 . S
C422 C424 1.327 . S
C422 H447 0.950 . S
C423 C422 1.349 . S
C423 C439 1.349 . S
C424 C422 1.327 . S
C424 C443 1.429 . S
C424 H448 0.950 . S
C425 C442 1.574 . S
C425 C444 1.368 . S
C425 H449 0.949 . S
H426 C430 0.949 . S
C427 C428 1.349 . S
C427 C429 1.327 . S
C427 H450 0.950 . S
C428 C427 1.349 . S
C428 C440 1.349 . S
C429 C427 1.327 . S
C429 C445 1.429 . S
C429 H451 0.950 . S
C430 H426 0.949 . S
C430 C438 1.574 . S
C430 C446 1.368 . S
H431 C439 0.950 . S
H432 C437 0.950 . S
H433 C438 0.949 . S
H434 C440 0.950 . S
H435 C441 0.950 . S
H436 C442 0.949 . S
C437 H432 0.950 . S
C437 C439 1.327 . S
C437 C443 1.429 . S
C438 C430 1.574 . S
C438 H433 0.949 . S
C438 C444 1.368 . S
C439 C423 1.349 . S
C439 H431 0.950 . S
C439 C437 1.327 . S
C440 C428 1.349 . S
C440 H434 0.950 . S
C440 C441 1.327 . S
C441 H435 0.950 . S
C441 C440 1.327 . S
C441 C445 1.429 . S
C442 C425 1.574 . S
C442 H436 0.949 . S
C442 C446 1.368 . S
C443 C424 1.429 . S
C443 C437 1.429 . S
C443 C444 1.523 . S
C444 C425 1.368 . S
C444 C438 1.368 . S
C444 C443 1.523 . S
C445 C429 1.429 . S
C445 C441 1.429 . S
C445 C446 1.523 . S
C446 C430 1.368 . S
C446 C442 1.368 . S
C446 C445 1.523 . S
H447 C422 0.950 . S
H448 C424 0.950 . S
H449 C425 0.949 . S
H450 C427 0.950 . S
H451 C429 0.950 . S
C452 C453 1.349 . S
C452 C454 1.327 . S
C452 H477 0.950 . S
C453 C452 1.349 . S
C453 C469 1.349 . S
C454 C452 1.327 . S
C454 C473 1.429 . S
C454 H478 0.950 . S
C455 C472 1.574 . S
C455 C474 1.368 . S
C455 H479 0.949 . S
H456 C460 0.949 . S
C457 C458 1.349 . S
C457 C459 1.327 . S
C457 H480 0.950 . S
C458 C457 1.349 . S
C458 C470 1.349 . S
C459 C457 1.327 . S
C459 C475 1.429 . S
C459 H481 0.950 . S
C460 H456 0.949 . S
C460 C468 1.574 . S
C460 C476 1.368 . S
H461 C469 0.950 . S
H462 C467 0.950 . S
H463 C468 0.949 . S
H464 C470 0.950 . S
H465 C471 0.950 . S
H466 C472 0.949 . S
C467 H462 0.950 . S
C467 C469 1.327 . S
C467 C473 1.429 . S
C468 C460 1.574 . S
C468 H463 0.949 . S
C468 C474 1.368 . S
C469 C453 1.349 . S
C469 H461 0.950 . S
C469 C467 1.327 . S
C470 C458 1.349 . S
C470 H464 0.950 . S
C470 C471 1.327 . S
C471 H465 0.950 . S
C471 C470 1.327 . S
C471 C475 1.429 . S
C472 C455 1.574 . S
C472 H466 0.949 . S
C472 C476 1.368 . S
C473 C454 1.429 . S
C473 C467 1.429 . S
C473 C474 1.523 . S
C474 C455 1.368 . S
C474 C468 1.368 . S
C474 C473 1.523 . S
C475 C459 1.429 . S
C475 C471 1.429 . S
C475 C476 1.523 . S
C476 C460 1.368 . S
C476 C472 1.368 . S
C476 C475 1.523 . S
H477 C452 0.950 . S
H478 C454 0.950 . S
H479 C455 0.949 . S
H480 C457 0.950 . S
H481 C459 0.950 . S
C482 C483 1.349 . S
C482 C484 1.327 . S
C482 H507 0.950 . S
C483 C482 1.349 . S
C483 C499 1.349 . S
C484 C482 1.327 . S
C484 C503 1.429 . S
C484 H508 0.950 . S
C485 C502 1.574 . S
C485 C504 1.368 . S
C485 H509 0.949 . S
H486 C490 0.949 . S
C487 C488 1.349 . S
C487 C489 1.327 . S
C487 H510 0.950 . S
C488 C487 1.349 . S
C488 C500 1.349 . S
C489 C487 1.327 . S
C489 C505 1.429 . S
C489 H511 0.950 . S
C490 H486 0.949 . S
C490 C498 1.574 . S
C490 C506 1.368 . S
H491 C499 0.950 . S
H492 C497 0.950 . S
H493 C498 0.949 . S
H494 C500 0.950 . S
H495 C501 0.950 . S
H496 C502 0.949 . S
C497 H492 0.950 . S
C497 C499 1.327 . S
C497 C503 1.429 . S
C498 C490 1.574 . S
C498 H493 0.949 . S
C498 C504 1.368 . S
C499 C483 1.349 . S
C499 H491 0.950 . S
C499 C497 1.327 . S
C500 C488 1.349 . S
C500 H494 0.950 . S
C500 C501 1.327 . S
C501 H495 0.950 . S
C501 C500 1.327 . S
C501 C505 1.429 . S
C502 C485 1.574 . S
C502 H496 0.949 . S
C502 C506 1.368 . S
C503 C484 1.429 . S
C503 C497 1.429 . S
C503 C504 1.523 . S
C504 C485 1.368 . S
C504 C498 1.368 . S
C504 C503 1.523 . S
C505 C489 1.429 . S
C505 C501 1.429 . S
C505 C506 1.523 . S
C506 C490 1.368 . S
C506 C502 1.368 . S
C506 C505 1.523 . S
H507 C482 0.950 . S
H508 C484 0.950 . S
H509 C485 0.949 . S
H510 C487 0.950 . S
H511 C489 0.950 . S
C512 C513 1.349 . S
C512 C514 1.327 . S
C512 H537 0.950 . S
C513 C512 1.349 . S
C513 C529 1.349 . S
C514 C512 1.327 . S
C514 C533 1.429 . S
C514 H538 0.950 . S
C515 C532 1.574 . S
C515 C534 1.368 . S
C515 H539 0.949 . S
H516 C520 0.949 . S
C517 C518 1.349 . S
C517 C519 1.327 . S
C517 H540 0.950 . S
C518 C517 1.349 . S
C518 C530 1.349 . S
C519 C517 1.327 . S
C519 C535 1.429 . S
C519 H541 0.950 . S
C520 H516 0.949 . S
C520 C528 1.574 . S
C520 C536 1.368 . S
H521 C529 0.950 . S
H522 C527 0.950 . S
H523 C528 0.949 . S
H524 C530 0.950 . S
H525 C531 0.950 . S
H526 C532 0.949 . S
C527 H522 0.950 . S
C527 C529 1.327 . S
C527 C533 1.429 . S
C528 C520 1.574 . S
C528 H523 0.949 . S
C528 C534 1.368 . S
C529 C513 1.349 . S
C529 H521 0.950 . S
C529 C527 1.327 . S
C530 C518 1.349 . S
C530 H524 0.950 . S
C530 C531 1.327 . S
C531 H525 0.950 . S
C531 C530 1.327 . S
C531 C535 1.429 . S
C532 C515 1.574 . S
C532 H526 0.949 . S
C532 C536 1.368 . S
C533 C514 1.429 . S
C533 C527 1.429 . S
C533 C534 1.523 . S
C534 C515 1.368 . S
C534 C528 1.368 . S
C534 C533 1.523 . S
C535 C519 1.429 . S
C535 C531 1.429 . S
C535 C536 1.523 . S
C536 C520 1.368 . S
C536 C532 1.368 . S
C536 C535 1.523 . S
H537 C512 0.950 . S
H538 C514 0.950 . S
H539 C515 0.949 . S
H540 C517 0.950 . S
H541 C519 0.950 . S
C542 C543 1.349 . S
C542 C544 1.327 . S
C542 H567 0.950 . S
C543 C542 1.349 . S
C543 C559 1.349 . S
C544 C542 1.327 . S
C544 C563 1.429 . S
C544 H568 0.950 . S
C545 C562 1.574 . S
C545 C564 1.368 . S
C545 H569 0.949 . S
H546 C550 0.949 . S
C547 C548 1.349 . S
C547 C549 1.327 . S
C547 H570 0.950 . S
C548 C547 1.349 . S
C548 C560 1.349 . S
C549 C547 1.327 . S
C549 C565 1.429 . S
C549 H571 0.950 . S
C550 H546 0.949 . S
C550 C558 1.574 . S
C550 C566 1.368 . S
H551 C559 0.950 . S
H552 C557 0.950 . S
H553 C558 0.949 . S
H554 C560 0.950 . S
H555 C561 0.950 . S
H556 C562 0.949 . S
C557 H552 0.950 . S
C557 C559 1.327 . S
C557 C563 1.429 . S
C558 C550 1.574 . S
C558 H553 0.949 . S
C558 C564 1.368 . S
C559 C543 1.349 . S
C559 H551 0.950 . S
C559 C557 1.327 . S
C560 C548 1.349 . S
C560 H554 0.950 . S
C560 C561 1.327 . S
C561 H555 0.950 . S
C561 C560 1.327 . S
C561 C565 1.429 . S
C562 C545 1.574 . S
C562 H556 0.949 . S
C562 C566 1.368 . S
C563 C544 1.429 . S
C563 C557 1.429 . S
C563 C564 1.523 . S
C564 C545 1.368 . S
C564 C558 1.368 . S
C564 C563 1.523 . S
C565 C549 1.429 . S
C565 C561 1.429 . S
C565 C566 1.523 . S
C566 C550 1.368 . S
C566 C562 1.368 . S
C566 C565 1.523 . S
H567 C542 0.950 . S
H568 C544 0.950 . S
H569 C545 0.949 . S
H570 C547 0.950 . S
H571 C549 0.950 . S
C572 C573 1.349 . S
C572 C574 1.327 . S
C572 H597 0.950 . S
C573 C572 1.349 . S
C573 C589 1.349 . S
C574 C572 1.327 . S
C574 C593 1.429 . S
C574 H598 0.950 . S
C575 C592 1.574 . S
C575 C594 1.368 . S
C575 H599 0.949 . S
H576 C580 0.949 . S
C577 C578 1.349 . S
C577 C579 1.327 . S
C577 H600 0.950 . S
C578 C577 1.349 . S
C578 C590 1.349 . S
C579 C577 1.327 . S
C579 C595 1.429 . S
C579 H601 0.950 . S
C580 H576 0.949 . S
C580 C588 1.574 . S
C580 C596 1.368 . S
H581 C589 0.950 . S
H582 C587 0.950 . S
H583 C588 0.949 . S
H584 C590 0.950 . S
H585 C591 0.950 . S
H586 C592 0.949 . S
C587 H582 0.950 . S
C587 C589 1.327 . S
C587 C593 1.429 . S
C588 C580 1.574 . S
C588 H583 0.949 . S
C588 C594 1.368 . S
C589 C573 1.349 . S
C589 H581 0.950 . S
C589 C587 1.327 . S
C590 C578 1.349 . S
C590 H584 0.950 . S
C590 C591 1.327 . S
C591 H585 0.950 . S
C591 C590 1.327 . S
C591 C595 1.429 . S
C592 C575 1.574 . S
C592 H586 0.949 . S
C592 C596 1.368 . S
C593 C574 1.429 . S
C593 C587 1.429 . S
C593 C594 1.523 . S
C594 C575 1.368 . S
C594 C588 1.368 . S
C594 C593 1.523 . S
C595 C579 1.429 . S
C595 C591 1.429 . S
C595 C596 1.523 . S
C596 C580 1.368 . S
C596 C592 1.368 . S
C596 C595 1.523 . S
H597 C572 0.950 . S
H598 C574 0.950 . S
H599 C575 0.949 . S
H600 C577 0.950 . S
H601 C579 0.950 . S
C602 C603 1.349 . S
C602 C604 1.327 . S
C602 H627 0.950 . S
C603 C602 1.349 . S
C603 C619 1.349 . S
C604 C602 1.327 . S
C604 C623 1.429 . S
C604 H628 0.950 . S
C605 C622 1.574 . S
C605 C624 1.368 . S
C605 H629 0.949 . S
H606 C610 0.949 . S
C607 C608 1.349 . S
C607 C609 1.327 . S
C607 H630 0.950 . S
C608 C607 1.349 . S
C608 C620 1.349 . S
C609 C607 1.327 . S
C609 C625 1.429 . S
C609 H631 0.950 . S
C610 H606 0.949 . S
C610 C618 1.574 . S
C610 C626 1.368 . S
H611 C619 0.950 . S
H612 C617 0.950 . S
H613 C618 0.949 . S
H614 C620 0.950 . S
H615 C621 0.950 . S
H616 C622 0.949 . S
C617 H612 0.950 . S
C617 C619 1.327 . S
C617 C623 1.429 . S
C618 C610 1.574 . S
C618 H613 0.949 . S
C618 C624 1.368 . S
C619 C603 1.349 . S
C619 H611 0.950 . S
C619 C617 1.327 . S
C620 C608 1.349 . S
C620 H614 0.950 . S
C620 C621 1.327 . S
C621 H615 0.950 . S
C621 C620 1.327 . S
C621 C625 1.429 . S
C622 C605 1.574 . S
C622 H616 0.949 . S
C622 C626 1.368 . S
C623 C604 1.429 . S
C623 C617 1.429 . S
C623 C624 1.523 . S
C624 C605 1.368 . S
C624 C618 1.368 . S
C624 C623 1.523 . S
C625 C609 1.429 . S
C625 C621 1.429 . S
C625 C626 1.523 . S
C626 C610 1.368 . S
C626 C622 1.368 . S
C626 C625 1.523 . S
H627 C602 0.950 . S
H628 C604 0.950 . S
H629 C605 0.949 . S
H630 C607 0.950 . S
H631 C609 0.950 . S
C632 C633 1.349 . S
C632 C634 1.327 . S
C632 H657 0.950 . S
C633 C632 1.349 . S
C633 C649 1.349 . S
C634 C632 1.327 . S
C634 C653 1.429 . S
C634 H658 0.950 . S
C635 C652 1.574 . S
C635 C654 1.368 . S
C635 H659 0.949 . S
H636 C640 0.949 . S
C637 C638 1.349 . S
C637 C639 1.327 . S
C637 H660 0.950 . S
C638 C637 1.349 . S
C638 C650 1.349 . S
C639 C637 1.327 . S
C639 C655 1.429 . S
C639 H661 0.950 . S
C640 H636 0.949 . S
C640 C648 1.574 . S
C640 C656 1.368 . S
H641 C649 0.950 . S
H642 C647 0.950 . S
H643 C648 0.949 . S
H644 C650 0.950 . S
H645 C651 0.950 . S
H646 C652 0.949 . S
C647 H642 0.950 . S
C647 C649 1.327 . S
C647 C653 1.429 . S
C648 C640 1.574 . S
C648 H643 0.949 . S
C648 C654 1.368 . S
C649 C633 1.349 . S
C649 H641 0.950 . S
C649 C647 1.327 . S
C650 C638 1.349 . S
C650 H644 0.950 . S
C650 C651 1.327 . S
C651 H645 0.950 . S
C651 C650 1.327 . S
C651 C655 1.429 . S
C652 C635 1.574 . S
C652 H646 0.949 . S
C652 C656 1.368 . S
C653 C634 1.429 . S
C653 C647 1.429 . S
C653 C654 1.523 . S
C654 C635 1.368 . S
C654 C648 1.368 . S
C654 C653 1.523 . S
C655 C639 1.429 . S
C655 C651 1.429 . S
C655 C656 1.523 . S
C656 C640 1.368 . S
C656 C652 1.368 . S
C656 C655 1.523 . S
H657 C632 0.950 . S
H658 C634 0.950 . S
H659 C635 0.949 . S
H660 C637 0.950 . S
H661 C639 0.950 . S
C662 C663 1.349 . S
C662 C664 1.327 . S
C662 H687 0.950 . S
C663 C662 1.349 . S
C663 C679 1.349 . S
C664 C662 1.327 . S
C664 C683 1.429 . S
C664 H688 0.950 . S
C665 C682 1.574 . S
C665 C684 1.368 . S
C665 H689 0.949 . S
H666 C670 0.949 . S
C667 C668 1.349 . S
C667 C669 1.327 . S
C667 H690 0.950 . S
C668 C667 1.349 . S
C668 C680 1.349 . S
C669 C667 1.327 . S
C669 C685 1.429 . S
C669 H691 0.950 . S
C670 H666 0.949 . S
C670 C678 1.574 . S
C670 C686 1.368 . S
H671 C679 0.950 . S
H672 C677 0.950 . S
H673 C678 0.949 . S
H674 C680 0.950 . S
H675 C681 0.950 . S
H676 C682 0.949 . S
C677 H672 0.950 . S
C677 C679 1.327 . S
C677 C683 1.429 . S
C678 C670 1.574 . S
C678 H673 0.949 . S
C678 C684 1.368 1_556 S
C679 C663 1.349 . S
C679 H671 0.950 . S
C679 C677 1.327 . S
C680 C668 1.349 . S
C680 H674 0.950 . S
C680 C681 1.327 . S
C681 H675 0.950 . S
C681 C680 1.327 . S
C681 C685 1.429 . S
C682 C665 1.574 . S
C682 H676 0.949 . S
C682 C686 1.368 1_554 S
C683 C664 1.429 . S
C683 C677 1.429 . S
C683 C684 1.523 . S
C684 C665 1.368 . S
C684 C678 1.368 1_554 S
C684 C683 1.523 . S
C685 C669 1.429 . S
C685 C681 1.429 . S
C685 C686 1.523 . S
C686 C670 1.368 . S
C686 C682 1.368 1_556 S
C686 C685 1.523 . S
H687 C662 0.950 . S
H688 C664 0.950 . S
H689 C665 0.949 . S
H690 C667 0.950 . S
H691 C669 0.950 . S
C692 C693 1.349 . S
C692 C694 1.327 . S
C692 H717 0.950 . S
C693 C692 1.349 . S
C693 C709 1.349 . S
C694 C692 1.327 . S
C694 C713 1.429 . S
C694 H718 0.950 . S
C695 C712 1.574 . S
C695 C714 1.368 . S
C695 H719 0.949 . S
H696 C700 0.949 . S
C697 C698 1.349 . S
C697 C699 1.327 . S
C697 H720 0.950 . S
C698 C697 1.349 . S
C698 C710 1.349 . S
C699 C697 1.327 . S
C699 C715 1.429 . S
C699 H721 0.950 . S
C700 H696 0.949 . S
C700 C708 1.574 . S
C700 C716 1.368 . S
H701 C709 0.950 . S
H702 C707 0.950 . S
H703 C708 0.949 . S
H704 C710 0.950 . S
H705 C711 0.950 . S
H706 C712 0.949 . S
C707 H702 0.950 . S
C707 C709 1.327 . S
C707 C713 1.429 . S
C708 C700 1.574 . S
C708 H703 0.949 . S
C708 C714 1.368 . S
C709 C693 1.349 . S
C709 H701 0.950 . S
C709 C707 1.327 . S
C710 C698 1.349 . S
C710 H704 0.950 . S
C710 C711 1.327 . S
C711 H705 0.950 . S
C711 C710 1.327 . S
C711 C715 1.429 . S
C712 C695 1.574 . S
C712 H706 0.949 . S
C712 C716 1.368 . S
C713 C694 1.429 . S
C713 C707 1.429 . S
C713 C714 1.523 . S
C714 C695 1.368 . S
C714 C708 1.368 . S
C714 C713 1.523 . S
C715 C699 1.429 . S
C715 C711 1.429 . S
C715 C716 1.523 . S
C716 C700 1.368 . S
C716 C712 1.368 . S
C716 C715 1.523 . S
H717 C692 0.950 . S
H718 C694 0.950 . S
H719 C695 0.949 . S
H720 C697 0.950 . S
H721 C699 0.950 . S
C722 C723 1.349 . S
C722 C724 1.327 . S
C722 H747 0.950 . S
C723 C722 1.349 . S
C723 C739 1.349 . S
C724 C722 1.327 . S
C724 C743 1.429 . S
C724 H748 0.950 . S
C725 C742 1.574 . S
C725 C744 1.368 1_556 S
C725 H749 0.949 . S
H726 C730 0.949 . S
C727 C728 1.349 . S
C727 C729 1.327 . S
C727 H750 0.950 . S
C728 C727 1.349 . S
C728 C740 1.349 . S
C729 C727 1.327 . S
C729 C745 1.429 . S
C729 H751 0.950 . S
C730 H726 0.949 . S
C730 C738 1.574 . S
C730 C746 1.368 1_554 S
H731 C739 0.950 . S
H732 C737 0.950 . S
H733 C738 0.949 . S
H734 C740 0.950 . S
H735 C741 0.950 . S
H736 C742 0.949 . S
C737 H732 0.950 . S
C737 C739 1.327 . S
C737 C743 1.429 . S
C738 C730 1.574 . S
C738 H733 0.949 . S
C738 C744 1.368 . S
C739 C723 1.349 . S
C739 H731 0.950 . S
C739 C737 1.327 . S
C740 C728 1.349 . S
C740 H734 0.950 . S
C740 C741 1.327 . S
C741 H735 0.950 . S
C741 C740 1.327 . S
C741 C745 1.429 . S
C742 C725 1.574 . S
C742 H736 0.949 . S
C742 C746 1.368 . S
C743 C724 1.429 . S
C743 C737 1.429 . S
C743 C744 1.523 . S
C744 C725 1.368 1_554 S
C744 C738 1.368 . S
C744 C743 1.523 . S
C745 C729 1.429 . S
C745 C741 1.429 . S
C745 C746 1.523 . S
C746 C730 1.368 1_556 S
C746 C742 1.368 . S
C746 C745 1.523 . S
H747 C722 0.950 . S
H748 C724 0.950 . S
H749 C725 0.949 . S
H750 C727 0.950 . S
H751 C729 0.950 . S
C752 C753 1.349 . S
C752 C754 1.327 . S
C752 H777 0.950 . S
C753 C752 1.349 . S
C753 C769 1.349 . S
C754 C752 1.327 . S
C754 C773 1.429 . S
C754 H778 0.950 1_655 S
C755 C772 1.574 1_565 S
C755 C774 1.368 . S
C755 H779 0.949 . S
H756 C760 0.949 . S
C757 C758 1.349 . S
C757 C759 1.327 . S
C757 H780 0.950 . S
C758 C757 1.349 . S
C758 C770 1.349 . S
C759 C757 1.327 . S
C759 C775 1.429 . S
C759 H781 0.950 1_455 S
C760 H756 0.949 . S
C760 C768 1.574 1_545 S
C760 C776 1.368 . S
H761 C769 0.950 . S
H762 C767 0.950 . S
H763 C768 0.949 . S
H764 C770 0.950 . S
H765 C771 0.950 . S
H766 C772 0.949 . S
C767 H762 0.950 . S
C767 C769 1.327 . S
C767 C773 1.429 . S
C768 C760 1.574 1_565 S
C768 H763 0.949 . S
C768 C774 1.368 1_455 S
C769 C753 1.349 . S
C769 H761 0.950 . S
C769 C767 1.327 . S
C770 C758 1.349 . S
C770 H764 0.950 . S
C770 C771 1.327 . S
C771 H765 0.950 . S
C771 C770 1.327 . S
C771 C775 1.429 . S
C772 C755 1.574 1_545 S
C772 H766 0.949 . S
C772 C776 1.368 1_655 S
C773 C754 1.429 . S
C773 C767 1.429 . S
C773 C774 1.523 . S
C774 C755 1.368 . S
C774 C768 1.368 1_655 S
C774 C773 1.523 . S
C775 C759 1.429 . S
C775 C771 1.429 . S
C775 C776 1.523 . S
C776 C760 1.368 . S
C776 C772 1.368 1_455 S
C776 C775 1.523 . S
H777 C752 0.950 . S
H778 C754 0.950 1_455 S
H779 C755 0.949 . S
H780 C757 0.950 . S
H781 C759 0.950 1_655 S
C782 C783 1.349 . S
C782 C784 1.327 . S
C782 H807 0.950 . S
C783 C782 1.349 . S
C783 C799 1.349 . S
C784 C782 1.327 . S
C784 C803 1.429 . S
C784 H808 0.950 . S
C785 C802 1.574 . S
C785 C804 1.368 . S
C785 H809 0.949 . S
H786 C790 0.949 . S
C787 C788 1.349 . S
C787 C789 1.327 . S
C787 H810 0.950 . S
C788 C787 1.349 . S
C788 C800 1.349 . S
C789 C787 1.327 . S
C789 C805 1.429 . S
C789 H811 0.950 . S
C790 H786 0.949 . S
C790 C798 1.574 . S
C790 C806 1.368 . S
H791 C799 0.950 . S
H792 C797 0.950 . S
H793 C798 0.949 . S
H794 C800 0.950 . S
H795 C801 0.950 . S
H796 C802 0.949 . S
C797 H792 0.950 . S
C797 C799 1.327 . S
C797 C803 1.429 . S
C798 C790 1.574 . S
C798 H793 0.949 . S
C798 C804 1.368 . S
C799 C783 1.349 . S
C799 H791 0.950 . S
C799 C797 1.327 . S
C800 C788 1.349 . S
C800 H794 0.950 . S
C800 C801 1.327 . S
C801 H795 0.950 . S
C801 C800 1.327 . S
C801 C805 1.429 . S
C802 C785 1.574 . S
C802 H796 0.949 . S
C802 C806 1.368 . S
C803 C784 1.429 . S
C803 C797 1.429 . S
C803 C804 1.523 . S
C804 C785 1.368 . S
C804 C798 1.368 . S
C804 C803 1.523 . S
C805 C789 1.429 . S
C805 C801 1.429 . S
C805 C806 1.523 . S
C806 C790 1.368 . S
C806 C802 1.368 . S
C806 C805 1.523 . S
H807 C782 0.950 . S
H808 C784 0.950 . S
H809 C785 0.949 . S
H810 C787 0.950 . S
H811 C789 0.950 . S
C812 C813 1.349 . S
C812 C814 1.327 . S
C812 H837 0.950 . S
C813 C812 1.349 . S
C813 C829 1.349 . S
C814 C812 1.327 . S
C814 C833 1.429 . S
C814 H838 0.950 . S
C815 C832 1.574 . S
C815 C834 1.368 . S
C815 H839 0.949 . S
H816 C820 0.949 . S
C817 C818 1.349 . S
C817 C819 1.327 . S
C817 H840 0.950 . S
C818 C817 1.349 . S
C818 C830 1.349 . S
C819 C817 1.327 . S
C819 C835 1.429 . S
C819 H841 0.950 . S
C820 H816 0.949 . S
C820 C828 1.574 . S
C820 C836 1.368 . S
H821 C829 0.950 . S
H822 C827 0.950 . S
H823 C828 0.949 . S
H824 C830 0.950 . S
H825 C831 0.950 . S
H826 C832 0.949 . S
C827 H822 0.950 . S
C827 C829 1.327 . S
C827 C833 1.429 . S
C828 C820 1.574 . S
C828 H823 0.949 . S
C828 C834 1.368 . S
C829 C813 1.349 . S
C829 H821 0.950 . S
C829 C827 1.327 . S
C830 C818 1.349 . S
C830 H824 0.950 . S
C830 C831 1.327 . S
C831 H825 0.950 . S
C831 C830 1.327 . S
C831 C835 1.429 . S
C832 C815 1.574 . S
C832 H826 0.949 . S
C832 C836 1.368 . S
C833 C814 1.429 . S
C833 C827 1.429 . S
C833 C834 1.523 . S
C834 C815 1.368 . S
C834 C828 1.368 . S
C834 C833 1.523 . S
C835 C819 1.429 . S
C835 C831 1.429 . S
C835 C836 1.523 . S
C836 C820 1.368 . S
C836 C832 1.368 . S
C836 C835 1.523 . S
H837 C812 0.950 . S
H838 C814 0.950 . S
H839 C815 0.949 . S
H840 C817 0.950 . S
H841 C819 0.950 . S
C842 C843 1.349 . S
C842 C844 1.327 . S
C842 H867 0.950 . S
C843 C842 1.349 . S
C843 C859 1.349 . S
C844 C842 1.327 . S
C844 C863 1.429 . S
C844 H868 0.950 . S
C845 C862 1.574 1_455 S
C845 C864 1.368 1_565 S
C845 H869 0.949 . S
H846 C850 0.949 . S
C847 C848 1.349 . S
C847 C849 1.327 . S
C847 H870 0.950 . S
C848 C847 1.349 . S
C848 C860 1.349 . S
C849 C847 1.327 . S
C849 C865 1.429 . S
C849 H871 0.950 . S
C850 H846 0.949 . S
C850 C858 1.574 1_655 S
C850 C866 1.368 1_545 S
H851 C859 0.950 . S
H852 C857 0.950 1_565 S
H853 C858 0.949 . S
H854 C860 0.950 . S
H855 C861 0.950 1_545 S
H856 C862 0.949 . S
C857 H852 0.950 1_545 S
C857 C859 1.327 . S
C857 C863 1.429 . S
C858 C850 1.574 1_455 S
C858 H853 0.949 . S
C858 C864 1.368 . S
C859 C843 1.349 . S
C859 H851 0.950 . S
C859 C857 1.327 . S
C860 C848 1.349 . S
C860 H854 0.950 . S
C860 C861 1.327 . S
C861 H855 0.950 1_565 S
C861 C860 1.327 . S
C861 C865 1.429 . S
C862 C845 1.574 1_655 S
C862 H856 0.949 . S
C862 C866 1.368 . S
C863 C844 1.429 . S
C863 C857 1.429 . S
C863 C864 1.523 . S
C864 C845 1.368 1_545 S
C864 C858 1.368 . S
C864 C863 1.523 . S
C865 C849 1.429 . S
C865 C861 1.429 . S
C865 C866 1.523 . S
C866 C850 1.368 1_565 S
C866 C862 1.368 . S
C866 C865 1.523 . S
H867 C842 0.950 . S
H868 C844 0.950 . S
H869 C845 0.949 . S
H870 C847 0.950 . S
H871 C849 0.950 . S
C273 C77 0.502 . S
C278 C9 0.502 . S
C303 C111 0.502 . S
C308 C43 0.502 . S
C333 C213 0.502 . S
C338 C145 0.502 . S
C363 C247 0.502 . S
C368 C179 0.502 . S
C393 C156 2.466 . S
C398 C33 2.464 . S
C423 C190 2.466 . S
C428 C67 2.464 . S
C453 C224 2.466 . S
C458 C101 2.464 . S
C483 C135 2.464 . S
C488 C258 2.466 . S
C513 C20 2.466 . S
C518 C169 2.464 . S
C543 C54 2.466 . S
C548 C203 2.464 . S
C573 C88 2.466 . S
C578 C237 2.464 . S
C603 C271 2.464 . S
C608 C122 2.466 . S
C633 C2 1.739 . S
C638 C172 1.739 . S
C663 C206 1.739 . S
C668 C36 1.739 . S
C693 C240 1.739 . S
C698 C70 1.739 . S
C723 C138 1.739 . S
C728 C104 1.739 . S
C753 C73 0.333 . S
C758 C5 0.333 . S
C783 C39 0.333 . S
C788 C107 0.333 . S
C813 C209 0.333 . S
C818 C141 0.333 . S
C843 C175 0.333 . S
C848 C243 0.333 . S
