# Generated by pormake.
# Topology smc, (6)-cn, num edge types: 1
# Building blocks:
#     Node 0, Type 0, BuildingBlock: OJICUG_clean_sbu_0, # of connection points: 6
#     Node 1, Type 0, BuildingBlock: OJICUG_clean_sbu_0, # of connection points: 6
#     Node 2, Type 0, BuildingBlock: OJICUG_clean_sbu_0, # of connection points: 6
#     Node 3, Type 0, BuildingBlock: OJICUG_clean_sbu_0, # of connection points: 6
#     Node 4, Type 0, BuildingBlock: OJICUG_clean_sbu_0, # of connection points: 6
#     Node 5, Type 0, BuildingBlock: OJICUG_clean_sbu_0, # of connection points: 6
#     Node 6, Type 0, BuildingBlock: OJICUG_clean_sbu_0, # of connection points: 6
#     Node 7, Type 0, BuildingBlock: OJICUG_clean_sbu_0, # of connection points: 6
#     Node 8, Type 0, BuildingBlock: OJICUG_clean_sbu_0, # of connection points: 6
#     Edge 9, Type (0, 0), BuildingBlock: UVAHIK_clean_linker_0, # of connection points: 2
#     Edge 10, Type (0, 0), BuildingBlock: UVAHIK_clean_linker_0, # of connection points: 2
#     Edge 11, Type (0, 0), BuildingBlock: UVAHIK_clean_linker_0, # of connection points: 2
#     Edge 12, Type (0, 0), BuildingBlock: UVAHIK_clean_linker_0, # of connection points: 2
#     Edge 13, Type (0, 0), BuildingBlock: UVAHIK_clean_linker_0, # of connection points: 2
#     Edge 14, Type (0, 0), BuildingBlock: UVAHIK_clean_linker_0, # of connection points: 2
#     Edge 15, Type (0, 0), BuildingBlock: UVAHIK_clean_linker_0, # of connection points: 2
#     Edge 16, Type (0, 0), BuildingBlock: UVAHIK_clean_linker_0, # of connection points: 2
#     Edge 17, Type (0, 0), BuildingBlock: UVAHIK_clean_linker_0, # of connection points: 2
#     Edge 18, Type (0, 0), BuildingBlock: UVAHIK_clean_linker_0, # of connection points: 2
#     Edge 19, Type (0, 0), BuildingBlock: UVAHIK_clean_linker_0, # of connection points: 2
#     Edge 20, Type (0, 0), BuildingBlock: UVAHIK_clean_linker_0, # of connection points: 2
#     Edge 21, Type (0, 0), BuildingBlock: UVAHIK_clean_linker_0, # of connection points: 2
#     Edge 22, Type (0, 0), BuildingBlock: UVAHIK_clean_linker_0, # of connection points: 2
#     Edge 23, Type (0, 0), BuildingBlock: UVAHIK_clean_linker_0, # of connection points: 2
#     Edge 24, Type (0, 0), BuildingBlock: UVAHIK_clean_linker_0, # of connection points: 2
#     Edge 25, Type (0, 0), BuildingBlock: UVAHIK_clean_linker_0, # of connection points: 2
#     Edge 26, Type (0, 0), BuildingBlock: UVAHIK_clean_linker_0, # of connection points: 2
#     Edge 27, Type (0, 0), BuildingBlock: UVAHIK_clean_linker_0, # of connection points: 2
#     Edge 28, Type (0, 0), BuildingBlock: UVAHIK_clean_linker_0, # of connection points: 2
#     Edge 29, Type (0, 0), BuildingBlock: UVAHIK_clean_linker_0, # of connection points: 2
#     Edge 30, Type (0, 0), BuildingBlock: UVAHIK_clean_linker_0, # of connection points: 2
#     Edge 31, Type (0, 0), BuildingBlock: UVAHIK_clean_linker_0, # of connection points: 2
#     Edge 32, Type (0, 0), BuildingBlock: UVAHIK_clean_linker_0, # of connection points: 2
#     Edge 33, Type (0, 0), BuildingBlock: UVAHIK_clean_linker_0, # of connection points: 2
#     Edge 34, Type (0, 0), BuildingBlock: UVAHIK_clean_linker_0, # of connection points: 2
#     Edge 35, Type (0, 0), BuildingBlock: UVAHIK_clean_linker_0, # of connection points: 2
# Relax obj value: 0.196
# Max RMSD: 0.270
# Mean RMSD: 0.270
data_MOF--net-smc--node1-OJICUG_clean_sbu_0--edge1-UVAHIK_clean_linker_0
_symmetry_space_group_name_H-M    P1
_symmetry_Int_Tables_number       1
_symmetry_cell_setting            triclinic
loop_
_symmetry_equiv_pos_as_xyz
'x, y, z'
_cell_length_a     39.308278
_cell_length_b     39.30197
_cell_length_c     57.873495
_cell_angle_alpha  89.877312
_cell_angle_beta   90.227211
_cell_angle_gamma 120.20385
loop_
_atom_site_label
_atom_site_type_symbol
_atom_site_fract_x
_atom_site_fract_y
_atom_site_fract_z
_atom_type_partial_charge
Sc0 Sc 0.03529 0.47153 0.97914 0.0
Sc1 Sc 0.00293 0.37659 0.00148 0.0
Sc2 Sc 0.96878 0.436 0.02589 0.0
O3 O 0.00232 0.42808 0.00215 0.0
C4 C 0.0465 0.5206 0.02513 0.0
C5 C 0.09345 0.4405 -0.00544 0.0
C6 C 0.00178 0.39079 0.05577 0.0
C7 C 0.0051 0.39525 0.94762 0.0
C8 C 0.95571 0.47454 0.98068 0.0
C9 C 0.91212 0.34692 0.00918 0.0
O10 O 0.05584 0.51605 0.00494 0.0
O11 O 0.06576 0.40642 -0.0 0.0
O12 O 0.9871 0.41296 0.05381 0.0
O13 O 0.01896 0.4319 0.95046 0.0
O14 O 0.94676 0.4596 0.00071 0.0
O15 O 0.94014 0.34185 0.00286 0.0
O16 O 0.98664 0.48085 0.96998 0.0
O17 O -0.00243 0.37155 0.96436 0.0
O18 O 0.91771 0.37897 0.01811 0.0
O19 O 0.08734 0.46727 0.98662 0.0
O20 O 0.01606 0.49453 0.03566 0.0
O21 O 0.00877 0.37538 0.03849 0.0
Sc22 Sc 0.53393 0.57135 0.98032 0.0
Sc23 Sc 0.62997 0.63065 0.00228 0.0
Sc24 Sc 0.56713 0.5371 0.02667 0.0
O25 O 0.57701 0.57964 0.00307 0.0
C26 C 0.48473 0.53459 0.02634 0.0
C27 C 0.5694 0.66138 -0.00425 0.0
C28 C 0.61551 0.61483 0.05658 0.0
C29 C 0.60991 0.61501 0.94849 0.0
C30 C 0.52622 0.48649 0.98155 0.0
C31 C 0.65546 0.5663 0.00992 0.0
O32 O 0.48998 0.54931 0.0063 0.0
O33 O 0.60294 0.66629 0.00113 0.0
O34 O 0.59174 0.57816 0.05457 0.0
O35 O 0.57318 0.59324 0.95161 0.0
O36 O 0.54167 0.49173 0.00142 0.0
O37 O 0.66223 0.60004 0.00345 0.0
O38 O 0.52113 0.51217 0.97108 0.0
O39 O 0.63429 0.63054 0.96506 0.0
O40 O 0.62292 0.54077 0.01891 0.0
O41 O 0.5416 0.62898 0.9878 0.0
O42 O 0.5095 0.52777 0.0365 0.0
O43 O 0.63189 0.63727 0.03935 0.0
Sc44 Sc 0.43636 0.97234 0.98161 0.0
Sc45 Sc 0.37645 0.00517 0.00688 0.0
Sc46 Sc 0.4727 0.03935 0.02805 0.0
O47 O 0.42853 0.00563 0.0055 0.0
C48 C 0.47809 0.96095 0.02575 0.0
C49 C 0.34806 0.91454 -0.001 0.0
C50 C 0.39764 0.00642 0.06041 0.0
C51 C 0.38833 0.00308 0.95247 0.0
C52 C 0.51969 0.05183 0.98122 0.0
C53 C 0.43913 0.09606 0.01398 0.0
O54 O 0.46126 0.95094 0.00623 0.0
O55 O 0.34236 0.94207 0.0056 0.0
O56 O 0.43425 0.02079 0.05721 0.0
O57 O 0.41156 0.98964 0.95432 0.0
O58 O 0.51547 0.06161 0.00137 0.0
O59 O 0.40524 0.06821 0.00826 0.0
O60 O 0.49425 0.02011 0.97136 0.0
O61 O 0.3731 0.0101 0.96984 0.0
O62 O 0.46609 0.0902 0.02181 0.0
O63 O 0.38013 0.92088 0.98979 0.0
O64 O 0.48518 0.99239 0.03618 0.0
O65 O 0.37344 -0.00027 0.04401 0.0
Sc66 Sc 0.68676 0.87717 0.30148 0.0
Sc67 Sc 0.6576 0.78913 0.32993 0.0
Sc68 Sc 0.64558 0.86264 0.35514 0.0
O69 O 0.66316 0.84217 0.32892 0.0
C70 C 0.72368 0.93484 0.34206 0.0
C71 C 0.74525 0.84722 0.31149 0.0
C72 C 0.6744 0.81128 0.3824 0.0
C73 C 0.64579 0.79351 0.27701 0.0
C74 C 0.61481 0.88461 0.31171 0.0
C75 C 0.5752 0.7766 0.34854 0.0
O76 O 0.708 0.92967 0.32222 0.0
O77 O 0.7168 0.8131 0.31687 0.0
O78 O 0.65808 0.8321 0.3817 0.0
O79 O 0.66901 0.83043 0.27692 0.0
O80 O 0.63035 0.89595 0.3316 0.0
O81 O 0.59836 0.76394 0.3431 0.0
O82 O 0.63061 0.87365 0.29653 0.0
O83 O 0.63327 0.77396 0.29559 0.0
O84 O 0.58639 0.81296 0.35162 0.0
O85 O 0.74112 0.87699 0.30748 0.0
O86 O 0.70582 0.9106 0.35834 0.0
O87 O 0.68126 0.79749 0.36434 0.0
Sc88 Sc 0.13582 0.8257 0.30246 0.0
Sc89 Sc 0.22101 0.88343 0.33418 0.0
Sc90 Sc 0.14744 0.7942 0.35559 0.0
O91 O 0.16852 0.83514 0.33079 0.0
C92 C 0.07469 0.79958 0.34299 0.0
C93 C 0.16568 0.91418 0.31336 0.0
C94 C 0.19471 0.87206 0.3855 0.0
C95 C 0.22216 0.8689 0.2812 0.0
C96 C 0.12415 0.74386 0.31107 0.0
C97 C 0.23406 0.81301 0.3508 0.0
O98 O 0.08149 0.7955 0.32197 0.0
O99 O 0.19886 0.91965 0.32045 0.0
O100 O 0.17698 0.83487 0.38346 0.0
O101 O 0.18519 0.85439 0.27955 0.0
O102 O 0.11385 0.74727 0.33128 0.0
O103 O 0.24578 0.84953 0.34807 0.0
O104 O 0.1374 0.77225 0.29683 0.0
O105 O 0.23999 0.87704 0.3005 0.0
O106 O 0.19777 0.78616 0.35127 0.0
O107 O 0.13662 0.88046 0.30808 0.0
O108 O 0.09864 0.80429 0.35922 0.0
O109 O 0.20757 0.89492 0.36818 0.0
Sc110 Sc 0.18752 0.32077 0.3065 0.0
Sc111 Sc 0.11381 0.33176 0.33204 0.0
Sc112 Sc 0.20167 0.35968 0.36082 0.0
O113 O 0.16686 0.33722 0.33312 0.0
C114 C 0.21254 0.29041 0.34906 0.0
C115 C 0.10188 0.24995 0.31263 0.0
C116 C 0.11757 0.3163 0.38476 0.0
C117 C 0.13576 0.34976 0.27981 0.0
C118 C 0.25893 0.39923 0.32013 0.0
C119 C 0.17129 0.41835 0.3521 0.0
O120 O 0.22229 0.30607 0.32916 0.0
O121 O 0.08902 0.27301 0.31798 0.0
O122 O 0.15458 0.33914 0.38536 0.0
O123 O 0.15611 0.33295 0.28032 0.0
O124 O 0.25423 0.38345 0.33992 0.0
O125 O 0.13732 0.39041 0.34598 0.0
O126 O 0.23472 0.3813 0.30378 0.0
O127 O 0.12252 0.35687 0.29801 0.0
O128 O 0.20063 0.41369 0.35633 0.0
O129 O 0.13832 0.26127 0.30984 0.0
O130 O 0.20002 0.3043 0.36451 0.0
O131 O 0.09829 0.30599 0.36595 0.0
Sc132 Sc 0.34828 0.12747 0.63621 0.0
Sc133 Sc 0.31251 0.03696 0.66521 0.0
Sc134 Sc 0.28162 0.10339 0.68222 0.0
O135 O 0.31423 0.08932 0.66127 0.0
C136 C 0.36191 0.18473 0.67876 0.0
C137 C 0.40381 0.09674 0.65684 0.0
C138 C 0.30898 0.05956 0.71762 0.0
C139 C 0.315 0.04544 0.61033 0.0
C140 C 0.27232 0.13607 0.6336 0.0
C141 C 0.22226 0.01314 0.66946 0.0
O142 O 0.37003 0.17652 0.65911 0.0
O143 O 0.37557 0.06421 0.6641 0.0
O144 O 0.29501 0.08163 0.71283 0.0
O145 O 0.33053 0.08258 0.61059 0.0
O146 O 0.26361 0.12657 0.65455 0.0
O147 O 0.24939 0.00497 0.66648 0.0
O148 O 0.30135 0.13666 0.62358 0.0
O149 O 0.30676 0.02491 0.62863 0.0
O150 O 0.22906 0.04733 0.67515 0.0
O151 O 0.39853 0.12233 0.64644 0.0
O152 O 0.33137 0.16128 0.69026 0.0
O153 O 0.3176 0.04215 0.70224 0.0
Sc154 Sc 0.85275 0.22308 0.6331 0.0
Sc155 Sc 0.94576 0.27714 0.65963 0.0
Sc156 Sc 0.87765 0.18196 0.67984 0.0
O157 O 0.89199 0.22742 0.65758 0.0
C158 C 0.79805 0.18413 0.67732 0.0
C159 C 0.88864 0.31157 0.65132 0.0
C160 C 0.92663 0.2559 0.71293 0.0
C161 C 0.93294 0.2667 0.60501 0.0
C162 C 0.84008 0.13665 0.63265 0.0
C163 C 0.96624 0.20873 0.66562 0.0
O164 O 0.80546 0.19923 0.65727 0.0
O165 O 0.92098 0.31482 0.65798 0.0
O166 O 0.90282 0.21962 0.7093 0.0
O167 O 0.89572 0.24659 0.60619 0.0
O168 O 0.85108 0.13863 0.65344 0.0
O169 O 0.97544 0.2441 0.66147 0.0
O170 O 0.84014 0.16503 0.62202 0.0
O171 O 0.95485 0.27978 0.62279 0.0
O172 O 0.93204 0.18254 0.67229 0.0
O173 O 0.86127 0.28043 0.64193 0.0
O174 O 0.82131 0.1765 0.6886 0.0
O175 O 0.94375 0.28045 0.6967 0.0
Sc176 Sc 0.75865 0.6306 0.6293 0.0
Sc177 Sc 0.70495 0.66736 0.65807 0.0
Sc178 Sc 0.80186 0.69658 0.6758 0.0
O179 O 0.75512 0.66477 0.65443 0.0
C180 C 0.80056 0.61524 0.67225 0.0
C181 C 0.67134 0.57604 0.64893 0.0
C182 C 0.73018 0.66977 0.71067 0.0
C183 C 0.71222 0.66618 0.60315 0.0
C184 C 0.84466 0.70551 0.62771 0.0
C185 C 0.77263 0.75713 0.66348 0.0
O186 O 0.78414 0.60738 0.65253 0.0
O187 O 0.66789 0.60455 0.65636 0.0
O188 O 0.76622 0.68318 0.70606 0.0
O189 O 0.73316 0.65001 0.60345 0.0
O190 O 0.84349 0.7144 0.64856 0.0
O191 O 0.73714 0.73032 0.66006 0.0
O192 O 0.81603 0.67672 0.61741 0.0
O193 O 0.69976 0.67412 0.62143 0.0
O194 O 0.79975 0.74987 0.66907 0.0
O195 O 0.70212 0.58084 0.63874 0.0
O196 O 0.80879 0.64621 0.68363 0.0
O197 O 0.70424 0.66162 0.69515 0.0
C198 C 0.41864 0.48492 0.04107 0.0
C199 C 0.44702 0.52442 0.03712 0.0
C200 C 0.37878 0.47377 0.04267 0.0
C201 C 0.30896 0.51244 0.04443 0.0
H202 H 0.24864 0.42692 0.00161 0.0
C203 C 0.16565 0.48852 0.00078 0.0
C204 C 0.13424 0.44949 -0.00055 0.0
C205 C 0.20307 0.49648 0.00793 0.0
C206 C 0.26482 0.45054 0.01384 0.0
H207 H 0.45705 0.58363 0.03386 0.0
H208 H 0.38811 0.56455 0.03692 0.0
H209 H 0.31389 0.44127 0.01351 0.0
H210 H 0.11798 0.38825 0.00401 0.0
H211 H 0.18277 0.40217 0.01635 0.0
H212 H 0.26005 0.5223 0.04415 0.0
C213 C 0.39601 0.54198 0.0389 0.0
C214 C 0.3022 0.4586 0.02083 0.0
C215 C 0.43561 0.55301 0.03719 0.0
C216 C 0.14141 0.4187 0.00481 0.0
C217 C 0.17868 0.42663 0.01184 0.0
C218 C 0.27153 0.50441 0.03738 0.0
C219 C 0.36692 0.50202 0.04037 0.0
C220 C 0.32501 0.49001 0.03595 0.0
C221 C 0.20987 0.46559 0.01373 0.0
C222 C 0.24925 0.47368 0.02176 0.0
H223 H 0.42675 0.46235 0.04072 0.0
H224 H 0.35709 0.44279 0.0442 0.0
H225 H 0.3256 0.53665 0.05623 0.0
H226 H 0.16112 0.51294 -0.00308 0.0
H227 H 0.22667 0.52683 0.00891 0.0
C228 C 0.46163 0.89359 0.03623 0.0
C229 C 0.48972 0.93389 0.03577 0.0
C230 C 0.47329 0.86556 0.03801 0.0
C231 C 0.55695 0.85557 0.02046 0.0
H232 H 0.49335 0.75027 0.04531 0.0
C233 C 0.59374 0.73188 0.00605 0.0
C234 C 0.56208 0.69421 0.00066 0.0
C235 C 0.58707 0.76209 0.01287 0.0
C236 C 0.51126 0.7795 0.03815 0.0
H237 H 0.55174 0.97684 0.03845 0.0
H238 H 0.57247 0.92764 0.042 0.0
H239 H 0.47956 0.80198 0.05651 0.0
H240 H 0.49848 0.65911 -0.00205 0.0
H241 H 0.48686 0.71211 0.00969 0.0
H242 H 0.58821 0.83292 0.00182 0.0
C243 C 0.54135 0.91771 0.04077 0.0
C244 C 0.50351 0.80919 0.04465 0.0
C245 C 0.52955 0.9459 0.03912 0.0
C246 C 0.52355 0.68777 0.00183 0.0
C247 C 0.51687 0.71801 0.00883 0.0
C248 C 0.56482 0.82594 0.01406 0.0
C249 C 0.51342 0.87721 0.03917 0.0
C250 C 0.5257 0.84741 0.03549 0.0
C251 C 0.54856 0.7554 0.01462 0.0
C252 C 0.54155 0.78737 0.02246 0.0
H253 H 0.43075 0.8837 0.03338 0.0
H254 H 0.45093 0.83479 0.03651 0.0
H255 H 0.57419 0.88441 0.0127 0.0
H256 H 0.62383 0.73796 0.00536 0.0
H257 H 0.6121 0.79046 0.01733 0.0
C258 C 0.32548 0.84294 0.0048 0.0
C259 C 0.31672 0.87344 0.00369 0.0
C260 C 0.29655 0.80485 0.01115 0.0
C261 C 0.19799 0.74906 0.03935 0.0
H262 H 0.19616 0.66003 0.00949 0.0
C263 C 0.06489 0.58876 0.03619 0.0
C264 C 0.07374 0.55836 0.0361 0.0
C265 C 0.09526 0.62811 0.03767 0.0
C266 C 0.19662 0.68455 0.0183 0.0
H267 H 0.27036 0.88755 0.0079 0.0
H268 H 0.21967 0.821 0.01808 0.0
H269 H 0.24718 0.7263 -0.0005 0.0
H270 H 0.12026 0.54445 0.03924 0.0
H271 H 0.1731 0.61284 0.04249 0.0
H272 H 0.14614 0.70671 0.05744 0.0
C273 C 0.24915 0.82662 0.01475 0.0
C274 C 0.22596 0.72267 0.01256 0.0
C275 C 0.27817 0.86478 0.00866 0.0
C276 C 0.11276 0.56748 0.03966 0.0
C277 C 0.14299 0.60661 0.04117 0.0
C278 C 0.16828 0.71079 0.04492 0.0
C279 C 0.25799 0.79618 0.01629 0.0
C280 C 0.22705 0.75551 0.02293 0.0
C281 C 0.13479 0.63737 0.0389 0.0
C282 C 0.16733 0.67813 0.03444 0.0
H283 H 0.355 0.8487 0.00141 0.0
H284 H 0.30471 0.7824 0.01248 0.0
H285 H 0.19821 0.77357 0.048 0.0
H286 H 0.03509 0.58238 0.03287 0.0
H287 H 0.08807 0.6512 0.0358 0.0
C288 C 0.48727 0.16751 0.00657 0.0
C289 C 0.44819 0.13695 0.00947 0.0
C290 C 0.49545 0.20509 -0.0002 0.0
C291 C 0.44823 0.25775 0.97304 0.0
H292 H 0.5401 0.34988 -0.00233 0.0
C293 C 0.47523 0.41755 0.97285 0.0
C294 C 0.51439 0.4482 0.97099 0.0
C295 C 0.46631 0.37825 0.97218 0.0
C296 C 0.51466 0.32445 0.9903 0.0
H297 H 0.38714 0.12233 0.00825 0.0
H298 H 0.40142 0.18804 -0.00263 0.0
H299 H 0.52648 0.2848 0.00921 0.0
H300 H 0.57446 0.46237 0.96526 0.0
H301 H 0.55889 0.39398 0.9634 0.0
H302 H 0.43584 0.29801 0.95484 0.0
C303 C 0.42578 0.1828 -0.00043 0.0
C304 C 0.50682 0.28702 -0.00306 0.0
C305 C 0.41758 0.14515 0.00607 0.0
C306 C 0.54393 0.43914 0.96629 0.0
C307 C 0.53509 0.40003 0.96561 0.0
C308 C 0.4559 0.29534 0.96657 0.0
C309 C 0.46479 0.21318 -0.00398 0.0
C310 C 0.47343 0.2531 0.98849 0.0
C311 C 0.49656 0.36926 0.96984 0.0
C312 C 0.48922 0.32909 0.97515 0.0
H313 H 0.51152 0.16208 0.00873 0.0
H314 H 0.52584 0.22749 -0.00304 0.0
H315 H 0.4226 0.23236 0.96583 0.0
H316 H 0.45218 0.42393 0.97711 0.0
H317 H 0.43636 0.35518 0.97557 0.0
C318 C 0.5843 0.06727 0.96464 0.0
C319 C 0.55703 0.07914 0.96988 0.0
C320 C 0.62423 0.09552 0.96213 0.0
C321 C 0.69574 0.20414 0.96014 0.0
H322 H 0.75756 0.17705 0.00048 0.0
C323 C 0.83974 0.32185 0.00382 0.0
C324 C 0.87145 0.31483 0.00412 0.0
C325 C 0.80234 0.29243 -0.00344 0.0
C326 C 0.74093 0.18499 0.98891 0.0
H327 H 0.54883 0.12918 0.97445 0.0
H328 H 0.61785 0.17823 0.96985 0.0
H329 H 0.69143 0.12658 0.98935 0.0
H330 H 0.88833 0.27091 -0.00244 0.0
H331 H 0.82337 0.2199 0.98509 0.0
H332 H 0.74501 0.26299 0.96045 0.0
C333 C 0.60905 0.14754 0.96756 0.0
C334 C 0.70306 0.15594 0.98236 0.0
C335 C 0.56941 0.11943 0.97019 0.0
C336 C 0.86463 0.27742 -0.00242 0.0
C337 C 0.82732 0.24805 0.99046 0.0
C338 C 0.73362 0.23325 0.96678 0.0
C339 C 0.63725 0.13591 0.96477 0.0
C340 C 0.67967 0.16528 0.96826 0.0
C341 C 0.79584 0.25532 0.98961 0.0
C342 C 0.75636 0.22413 0.98158 0.0
H343 H 0.57542 0.03633 0.96464 0.0
H344 H 0.64519 0.08565 0.9596 0.0
H345 H 0.6787 0.21225 0.94906 0.0
H346 H 0.84399 0.35038 0.00859 0.0
H347 H 0.7785 0.29873 -0.00359 0.0
C348 C 0.93615 0.52352 0.9698 0.0
C349 C 0.92762 0.48432 0.97021 0.0
C350 C 0.90549 0.53194 0.96871 0.0
C351 C 0.80426 0.48581 0.98904 0.0
H352 H 0.80271 0.57389 0.95997 0.0
C353 C 0.6766 0.51634 0.00382 0.0
C354 C 0.68618 0.55587 0.00527 0.0
C355 C 0.70501 0.50678 -0.00278 0.0
C356 C 0.80291 0.54939 0.96843 0.0
H357 H 0.88131 0.42338 0.96798 0.0
H358 H 0.82798 0.43795 0.96531 0.0
H359 H 0.85432 0.5592 0.94992 0.0
H360 H 0.7335 0.61637 0.00157 0.0
H361 H 0.78314 0.59979 0.9909 0.0
H362 H 0.75398 0.47665 0.00818 0.0
C363 C 0.85803 0.46222 0.96618 0.0
C364 C 0.83237 0.54088 0.96253 0.0
C365 C 0.88855 0.45388 0.96735 0.0
C366 C 0.72502 0.58559 0.00051 0.0
C367 C 0.75346 0.57606 -0.00586 0.0
C368 C 0.77509 0.49447 -0.00492 0.0
C369 C 0.86599 0.50118 0.96814 0.0
C370 C 0.83341 0.50905 0.97284 0.0
C371 C 0.74377 0.53654 0.99213 0.0
C372 C 0.77412 0.52653 0.98499 0.0
H373 H 0.96601 0.54737 0.97257 0.0
H374 H 0.91255 0.56225 0.97033 0.0
H375 H 0.80472 0.46159 -0.00228 0.0
H376 H 0.64684 0.49272 0.00708 0.0
H377 H 0.69629 0.476 -0.00439 0.0
C378 C 0.78912 0.82047 0.30391 0.0
C379 C 0.78473 0.85172 0.31186 0.0
C380 C 0.82269 0.81873 0.3094 0.0
C381 C 0.9239 0.8723 0.33219 0.0
H382 H 0.89714 0.76714 0.35168 0.0
C383 C 0.04126 0.83245 0.36109 0.0
C384 C 0.03905 0.80161 0.34771 0.0
C385 C 0.01006 0.84007 0.36094 0.0
C386 C 0.90504 0.79669 0.34641 0.0
H387 H 0.81297 0.90715 0.33035 0.0
H388 H 0.87221 0.90403 0.3402 0.0
H389 H 0.84502 0.78049 0.34102 0.0
H390 H 0.00228 0.75338 0.32477 0.0
H391 H 0.94739 0.76564 0.32515 0.0
H392 H 0.98421 0.88807 0.33727 0.0
C393 C 0.84962 0.88098 0.32962 0.0
C394 C 0.87528 0.80431 0.34013 0.0
C395 C 0.81591 0.88291 0.32388 0.0
C396 C 0.00443 0.77706 0.33539 0.0
C397 C 0.97309 0.78413 0.33561 0.0
C398 C 0.95383 0.86465 0.33859 0.0
C399 C 0.85243 0.84792 0.32327 0.0
C400 C 0.8844 0.84181 0.33221 0.0
C401 C 0.97603 0.81638 0.34781 0.0
C402 C 0.94464 0.82644 0.34509 0.0
H403 H 0.76557 0.79624 0.29445 0.0
H404 H 0.82459 0.79354 0.30361 0.0
H405 H 0.93176 0.9015 0.32625 0.0
H406 H 0.06802 0.8522 0.37038 0.0
H407 H 0.01295 0.86504 0.37051 0.0
C408 C 0.23605 0.24415 0.34005 0.0
C409 C 0.21014 0.25214 0.35228 0.0
C410 C 0.22763 0.20552 0.33718 0.0
C411 C 0.16451 0.10209 0.35528 0.0
H412 H 0.18201 0.08264 0.29191 0.0
C413 C 0.12774 0.9479 0.32227 0.0
C414 C 0.16108 0.94901 0.31274 0.0
C415 C 0.12746 0.98297 0.326 0.0
C416 C 0.17678 0.0876 0.30962 0.0
H417 H 0.15667 0.22657 0.37257 0.0
H418 H 0.14162 0.15858 0.36735 0.0
H419 H 0.19656 0.14822 0.30325 0.0
H420 H 0.21904 0.98666 0.29837 0.0
H421 H 0.21815 0.0475 0.30419 0.0
H422 H 0.14518 0.04121 0.36155 0.0
C423 C 0.16862 0.18224 0.36016 0.0
C424 C 0.18545 0.12519 0.3162 0.0
C425 C 0.17736 0.22114 0.36328 0.0
C426 C 0.19297 0.98515 0.30567 0.0
C427 C 0.1924 0.0199 0.30897 0.0
C428 C 0.15566 0.06427 0.34863 0.0
C429 C 0.19279 0.17404 0.34617 0.0
C430 C 0.18055 0.13316 0.33924 0.0
C431 C 0.16017 0.01931 0.31975 0.0
C432 C 0.16274 0.05703 0.32588 0.0
H433 H 0.26164 0.26762 0.33153 0.0
H434 H 0.24747 0.20017 0.32693 0.0
H435 H 0.16029 0.10735 0.37312 0.0
H436 H 0.10302 0.92032 0.32811 0.0
H437 H 0.10223 0.98184 0.33427 0.0
C438 C 0.07412 0.18075 0.32615 0.0
C439 C 0.07226 0.20795 0.31119 0.0
C440 C 0.0408 0.14354 0.32951 0.0
C441 C 0.94132 0.0745 0.30631 0.0
H442 H 0.90779 0.05733 0.37037 0.0
C443 C 0.78002 -0.00174 0.32892 0.0
C444 C 0.7651 0.96655 0.34447 0.0
C445 C 0.82041 0.02323 0.32661 0.0
C446 C 0.91703 0.06128 0.35248 0.0
H447 H 0.03579 0.21727 0.2869 0.0
H448 H 0.97829 0.15225 0.29205 0.0
H449 H 0.97593 0.10642 0.36079 0.0
H450 H 0.78075 0.93763 0.37092 0.0
H451 H 0.85212 0.98226 0.3671 0.0
H452 H 0.88212 0.03097 0.29787 0.0
C453 C 0.00506 0.15929 0.3013 0.0
C454 C 0.95602 0.08918 0.34698 0.0
C455 C 0.03793 0.19652 0.29832 0.0
C456 C 0.79144 0.96211 0.35897 0.0
C457 C 0.8322 0.98735 0.35665 0.0
C458 C 0.90253 0.04682 0.31179 0.0
C459 C 0.0056 0.13296 0.31758 0.0
C460 C 0.96803 0.09717 0.32376 0.0
C461 C 0.84694 0.01714 0.33978 0.0
C462 C 0.88959 0.04116 0.33482 0.0
H463 H 0.1002 0.18931 0.33652 0.0
H464 H 0.04201 0.12375 0.34211 0.0
H465 H 0.94992 0.07963 0.28831 0.0
H466 H 0.76046 0.00263 0.31765 0.0
H467 H 0.83098 0.04664 0.31391 0.0
C468 C 0.16189 0.71285 0.29687 0.0
C469 C 0.12723 0.70877 0.30645 0.0
C470 C 0.1713 0.68319 0.30006 0.0
C471 C 0.1531 0.60978 0.34406 0.0
H472 H 0.19657 0.56589 0.30135 0.0
C473 C 0.14515 0.46312 0.35875 0.0
C474 C 0.1767 0.45816 0.35224 0.0
C475 C 0.14641 0.49861 0.35463 0.0
C476 C 0.18525 0.57859 0.31356 0.0
H477 H 0.07317 0.66924 0.3243 0.0
H478 H 0.08881 0.61703 0.32911 0.0
H479 H 0.1814 0.61605 0.28785 0.0
H480 H 0.23506 0.48667 0.33724 0.0
H481 H 0.23711 0.54923 0.3297 0.0
H482 H 0.15599 0.57198 0.36962 0.0
C483 C 0.10934 0.64346 0.31987 0.0
C484 C 0.17633 0.60699 0.30579 0.0
C485 C 0.10015 0.67307 0.31688 0.0
C486 C 0.21053 0.49002 0.3426 0.0
C487 C 0.21153 0.52554 0.33809 0.0
C488 C 0.16202 0.58162 0.35179 0.0
C489 C 0.14597 0.64921 0.31271 0.0
C490 C 0.15893 0.6218 0.32083 0.0
C491 C 0.17906 0.52976 0.34364 0.0
C492 C 0.17703 0.56484 0.33647 0.0
H493 H 0.18344 0.74036 0.289 0.0
H494 H 0.19965 0.68823 0.29429 0.0
H495 H 0.14086 0.62165 0.35622 0.0
H496 H 0.11873 0.43892 0.36615 0.0
H497 H 0.12079 0.50085 0.35889 0.0
C498 C 0.32233 0.45586 0.33319 0.0
C499 C 0.29036 0.44074 0.31777 0.0
C500 C 0.34715 0.49628 0.3355 0.0
C501 C 0.38422 0.59266 0.30962 0.0
H502 H 0.40496 0.62588 0.37376 0.0
C503 C 0.50551 0.74944 0.33587 0.0
C504 C 0.53324 0.74688 0.35002 0.0
C505 C 0.46798 0.71643 0.33273 0.0
C506 C 0.39908 0.6172 0.35577 0.0
H507 H 0.26075 0.45607 0.29159 0.0
H508 H 0.30508 0.52751 0.29542 0.0
H509 H 0.35565 0.55812 0.3644 0.0
H510 H 0.54326 0.70951 0.37318 0.0
H511 H 0.4777 0.65256 0.36846 0.0
H512 H 0.42929 0.65144 0.30112 0.0
C513 C 0.31052 0.50772 0.30576 0.0
C514 C 0.37107 0.57843 0.35041 0.0
C515 C 0.28544 0.46692 0.30343 0.0
C516 C 0.52214 0.71215 0.36235 0.0
C517 C 0.48461 0.67963 0.35963 0.0
C518 C 0.41242 0.63164 0.31501 0.0
C519 C 0.34062 0.52265 0.32248 0.0
C520 C 0.36466 0.56534 0.32738 0.0
C521 C 0.45764 0.68091 0.34415 0.0
C522 C 0.42127 0.64371 0.3382 0.0
H523 H 0.32706 0.43642 0.34434 0.0
H524 H 0.37084 0.507 0.34806 0.0
H525 H 0.37967 0.5833 0.29173 0.0
H526 H 0.51376 0.77588 0.32599 0.0
H527 H 0.44768 0.71815 0.32073 0.0
C528 C 0.26553 0.77728 0.33398 0.0
C529 C 0.26522 0.80274 0.35088 0.0
C530 C 0.30105 0.77922 0.32802 0.0
C531 C 0.40115 0.85687 0.32343 0.0
H532 H 0.43464 0.77989 0.31754 0.0
C533 C 0.56268 0.90019 0.32151 0.0
C534 C 0.57499 0.87867 0.30812 0.0
C535 C 0.52302 0.88901 0.32258 0.0
C536 C 0.42536 0.80153 0.31862 0.0
H537 H 0.30007 0.8466 0.3766 0.0
H538 H 0.36157 0.84938 0.36661 0.0
H539 H 0.3671 0.75872 0.32998 0.0
H540 H 0.55566 0.82954 0.28449 0.0
H541 H 0.48584 0.81 0.28629 0.0
H542 H 0.45887 0.89976 0.31236 0.0
C543 C 0.33484 0.82852 0.35767 0.0
C544 C 0.38689 0.78942 0.32588 0.0
C545 C 0.29965 0.82669 0.36352 0.0
C546 C 0.54705 0.84701 0.29472 0.0
C547 C 0.50707 0.83549 0.29599 0.0
C548 C 0.43919 0.86885 0.31604 0.0
C549 C 0.33629 0.8066 0.33898 0.0
C550 C 0.37503 0.81732 0.32906 0.0
C551 C 0.4946 0.85586 0.3104 0.0
C552 C 0.4522 0.84161 0.31425 0.0
H553 H 0.2394 0.75897 0.32381 0.0
H554 H 0.30152 0.76198 0.31357 0.0
H555 H 0.39232 0.87879 0.32523 0.0
H556 H 0.58352 0.92458 0.3321 0.0
H557 H 0.51442 0.90513 0.33403 0.0
C558 C 0.75186 0.20666 0.68758 0.0
C559 C 0.76036 0.17602 0.68722 0.0
C560 C 0.71313 0.19842 0.6895 0.0
C561 C 0.60964 0.12217 0.70029 0.0
H562 H 0.58947 0.17547 0.65017 0.0
C563 C 0.45209 0.07591 0.6688 0.0
C564 C 0.44459 0.10577 0.66166 0.0
C565 C 0.49037 0.08463 0.67414 0.0
C566 C 0.5945 0.16079 0.66451 0.0
H567 H 0.73585 0.11309 0.69017 0.0
H568 H 0.66748 0.09839 0.69351 0.0
H569 H 0.65631 0.19077 0.6581 0.0
H570 H 0.47149 0.16841 0.65501 0.0
H571 H 0.53798 0.18372 0.66471 0.0
H572 H 0.54755 0.09213 0.70665 0.0
C573 C 0.69088 0.12883 0.69258 0.0
C574 C 0.63293 0.16957 0.66906 0.0
C575 C 0.72992 0.13717 0.69081 0.0
C576 C 0.47626 0.14459 0.66011 0.0
C577 C 0.51445 0.15335 0.66565 0.0
C578 C 0.57103 0.11357 0.69585 0.0
C579 C 0.68204 0.1593 0.69075 0.0
C580 C 0.641 0.15045 0.68699 0.0
C581 C 0.52206 0.12347 0.67266 0.0
C582 C 0.56301 0.13277 0.67785 0.0
H583 H 0.77496 0.23683 0.6847 0.0
H584 H 0.70729 0.22255 0.68852 0.0
H585 H 0.61502 0.107 0.71421 0.0
H586 H 0.42839 0.04566 0.67016 0.0
H587 H 0.49515 0.06077 0.6791 0.0
C588 C 0.91303 0.38094 0.66429 0.0
C589 C 0.88194 0.34478 0.65622 0.0
C590 C 0.90637 0.41135 0.67067 0.0
C591 C 0.82755 0.43004 0.68909 0.0
H592 H 0.89843 0.53669 0.66829 0.0
C593 C 0.78205 0.54599 0.67897 0.0
C594 C 0.80992 0.58608 0.68163 0.0
C595 C 0.79269 0.51747 0.68221 0.0
C596 C 0.87885 0.50729 0.67475 0.0
H597 H 0.81945 0.31254 0.64833 0.0
H598 H 0.80796 0.36584 0.65925 0.0
H599 H 0.91339 0.48492 0.65975 0.0
H600 H 0.87005 0.62791 0.69118 0.0
H601 H 0.88902 0.57766 0.69694 0.0
H602 H 0.79249 0.45219 0.70359 0.0
C603 C 0.83743 0.3704 0.66088 0.0
C604 C 0.88731 0.47755 0.66972 0.0
C605 C 0.84411 0.34001 0.65437 0.0
C606 C 0.84802 0.5971 0.68923 0.0
C607 C 0.85889 0.56841 0.69226 0.0
C608 C 0.81917 0.45978 0.69419 0.0
C609 C 0.86843 0.40628 0.66927 0.0
C610 C 0.86122 0.43842 0.67632 0.0
C611 C 0.83162 0.5284 0.68797 0.0
C612 C 0.84417 0.49855 0.68653 0.0
H613 H 0.94257 0.3857 0.66598 0.0
H614 H 0.93081 0.43855 0.67717 0.0
H615 H 0.80735 0.40032 0.69487 0.0
H616 H 0.75246 0.53684 0.67306 0.0
H617 H 0.771 0.48709 0.67853 0.0
C618 C 0.64561 0.50368 0.65358 0.0
C619 C 0.63886 0.53555 0.65367 0.0
C620 C 0.61571 0.46601 0.65983 0.0
C621 C 0.51885 0.41325 0.68993 0.0
H622 H 0.5106 0.32317 0.65758 0.0
C623 C 0.38263 0.25405 0.6889 0.0
C624 C 0.39095 0.2233 0.68811 0.0
C625 C 0.41351 0.29326 0.6896 0.0
C626 C 0.51284 0.34799 0.66703 0.0
H627 H 0.59509 0.55262 0.6599 0.0
H628 H 0.54261 0.48677 0.66993 0.0
H629 H 0.56254 0.38887 0.64732 0.0
H630 H 0.43708 0.20858 0.68932 0.0
H631 H 0.49078 0.27669 0.69115 0.0
H632 H 0.46786 0.37177 0.70904 0.0
C633 C 0.5713 0.49099 0.66572 0.0
C634 C 0.5427 0.38574 0.66116 0.0
C635 C 0.60133 0.52873 0.65974 0.0
C636 C 0.43006 0.23194 0.69015 0.0
C637 C 0.46075 0.27087 0.69092 0.0
C638 C 0.48858 0.37533 0.69565 0.0
C639 C 0.57815 0.45916 0.66603 0.0
C640 C 0.54623 0.41893 0.67253 0.0
C641 C 0.45289 0.30193 0.68939 0.0
C642 C 0.48544 0.34232 0.68431 0.0
H643 H 0.67433 0.508 0.64932 0.0
H644 H 0.62235 0.44241 0.66021 0.0
H645 H 0.52095 0.43806 0.6993 0.0
H646 H 0.35267 0.24797 0.68686 0.0
H647 H 0.40664 0.31666 0.68835 0.0
C648 C 0.82079 0.82663 0.6516 0.0
C649 C 0.78267 0.79812 0.65854 0.0
C650 C 0.82839 0.8635 0.64366 0.0
C651 C 0.77636 0.91336 0.62022 0.0
H652 H 0.8717 0.00905 0.63759 0.0
C653 C 0.79244 0.0668 0.62474 0.0
C654 C 0.82955 0.09983 0.62073 0.0
C655 C 0.78681 0.02892 0.62231 0.0
C656 C 0.84528 0.98256 0.63213 0.0
H657 H 0.72316 0.78664 0.6637 0.0
H658 H 0.73663 0.85099 0.65067 0.0
H659 H 0.8629 0.94562 0.6493 0.0
H660 H 0.88917 0.11978 0.60969 0.0
H661 H 0.87929 0.05356 0.60502 0.0
H662 H 0.75809 0.95061 0.60391 0.0
C663 C 0.76041 0.84461 0.65055 0.0
C664 C 0.84019 0.94615 0.63892 0.0
C665 C 0.75279 0.80782 0.65829 0.0
C666 C 0.86002 0.0946 0.61232 0.0
C667 C 0.85452 0.05676 0.61002 0.0
C668 C 0.78135 0.94979 0.61355 0.0
C669 C 0.79805 0.87263 0.64265 0.0
C670 C 0.80526 0.91114 0.63353 0.0
C671 C 0.81846 0.02364 0.61617 0.0
C672 C 0.81552 0.98483 0.61984 0.0
H673 H 0.84434 0.81989 0.65134 0.0
H674 H 0.8577 0.88435 0.63764 0.0
H675 H 0.74949 0.8869 0.61526 0.0
H676 H 0.76891 0.07028 0.63187 0.0
H677 H 0.75877 0.00405 0.62736 0.0
C678 C 0.91375 0.72665 0.61899 0.0
C679 C 0.88132 0.73183 0.6156 0.0
C680 C 0.95201 0.75888 0.61767 0.0
C681 C -0.00122 0.86263 0.63202 0.0
H682 H 0.09506 0.8639 0.61614 0.0
C683 C 0.15331 0.99218 0.6567 0.0
C684 C 0.18158 0.98221 0.6635 0.0
C685 C 0.11695 0.96347 0.64769 0.0
C686 C 0.06841 0.86388 0.62085 0.0
H687 H 0.86293 0.77351 0.60637 0.0
H688 H 0.92975 0.82972 0.60342 0.0
H689 H 0.03198 0.81035 0.60227 0.0
H690 H 0.19305 0.93393 0.66719 0.0
H691 H 0.12946 0.88389 0.65228 0.0
H692 H 0.03479 0.91512 0.65138 0.0
C693 C 0.92582 0.80097 0.60726 0.0
C694 C 0.03233 0.83334 0.61274 0.0
C695 C 0.88761 0.76871 0.60852 0.0
C696 C 0.17206 0.94268 0.66198 0.0
C697 C 0.13572 0.91402 0.65315 0.0
C698 C 0.03479 0.89302 0.64023 0.0
C699 C 0.95827 0.79681 0.61319 0.0
C700 C -0.00296 0.832 0.61857 0.0
C701 C 0.10801 0.92414 0.64543 0.0
C702 C 0.07 0.8936 0.63516 0.0
H703 H 0.90949 0.69868 0.62509 0.0
H704 H 0.97631 0.75467 0.62245 0.0
H705 H 0.97209 0.86212 0.63724 0.0
H706 H 0.15989 0.02244 0.65736 0.0
H707 H 0.0964 0.97237 0.64182 0.0
C708 C 0.24983 0.18218 0.62258 0.0
C709 C 0.24519 0.14452 0.62086 0.0
C710 C 0.2173 0.1873 0.61998 0.0
C711 C 0.11338 0.13025 0.63379 0.0
H712 H 0.11202 0.22334 0.61305 0.0
C713 C 0.98507 0.15851 0.65465 0.0
C714 C -0.00388 0.19754 0.66025 0.0
C715 C 0.01302 0.14947 0.64631 0.0
C716 C 0.11203 0.19723 0.61906 0.0
H717 H 0.20418 0.08322 0.6135 0.0
H718 H 0.14741 0.09217 0.60838 0.0
H719 H 0.16562 0.21292 0.60118 0.0
H720 H 0.04549 0.25728 0.66254 0.0
H721 H 0.09407 0.2414 0.64873 0.0
H722 H 0.06082 0.11533 0.65247 0.0
C723 C 0.17597 0.11774 0.61182 0.0
C724 C 0.14261 0.19119 0.61212 0.0
C725 C 0.20852 0.1127 0.61435 0.0
C726 C 0.03589 0.22695 0.65821 0.0
C727 C 0.06372 0.21792 0.65002 0.0
C728 C 0.08291 0.13638 0.64081 0.0
C729 C 0.17961 0.15467 0.61592 0.0
C730 C 0.1441 0.15807 0.61983 0.0
C731 C 0.05256 0.17927 0.6435 0.0
C732 C 0.08243 0.17047 0.63403 0.0
H733 H 0.27764 0.20687 0.62823 0.0
H734 H 0.22109 0.21609 0.62341 0.0
H735 H 0.11397 0.10473 0.64037 0.0
H736 H 0.95459 0.13525 0.65579 0.0
H737 H 0.00342 0.11939 0.6414 0.0
C738 C 0.13748 0.34906 0.23662 0.0
C739 C 0.12521 0.35907 0.25701 0.0
C740 C 0.12502 0.35466 0.21509 0.0
C741 C 0.04543 0.36381 0.18777 0.0
H742 H 0.11471 0.39729 0.13465 0.0
C743 C 0.00253 0.3981 0.09878 0.0
C744 C 0.01312 0.38454 0.07913 0.0
C745 C 0.01563 0.39496 0.12069 0.0
C746 C 0.09494 0.38752 0.14929 0.0
H747 H 0.09129 0.3842 0.27065 0.0
H748 H 0.07 0.3945 0.23293 0.0
H749 H 0.14045 0.39486 0.17263 0.0
H750 H 0.04513 0.35622 0.06724 0.0
H751 H 0.06783 0.35062 0.10558 0.0
H752 H -5e-05 0.3566 0.16437 0.0
C753 C 0.08872 0.38163 0.23371 0.0
C754 C 0.10967 0.38619 0.17105 0.0
C755 C 0.10114 0.37597 0.25531 0.0
C756 C 0.0364 0.36696 0.08198 0.0
C757 C 0.04968 0.36403 0.10391 0.0
C758 C 0.03074 0.36529 0.16602 0.0
C759 C 0.10011 0.37054 0.21339 0.0
C760 C 0.08502 0.37405 0.19051 0.0
C761 C 0.03977 0.37838 0.12344 0.0
C762 C 0.05528 0.3769 0.14655 0.0
H763 H 0.15599 0.33595 0.23723 0.0
H764 H 0.13396 0.34535 0.1998 0.0
H765 H 0.02552 0.35371 0.20235 0.0
H766 H 0.98459 0.41176 0.09724 0.0
H767 H 0.00775 0.40652 0.13541 0.0
C768 C 0.61873 0.7315 0.25352 0.0
C769 C 0.63619 0.77269 0.25459 0.0
C770 C 0.61489 0.71283 0.23232 0.0
C771 C 0.66163 0.7339 0.17544 0.0
H772 H 0.5686 0.63747 0.15617 0.0
C773 C 0.64087 0.67334 0.08279 0.0
C774 C 0.62212 0.63231 0.07992 0.0
C775 C 0.64345 0.68951 0.10463 0.0
C776 C 0.595 0.66411 0.16147 0.0
H777 H 0.66083 0.82622 0.23406 0.0
H778 H 0.65383 0.79362 0.19731 0.0
H779 H 0.56898 0.66696 0.19335 0.0
H780 H 0.59287 0.5762 0.09795 0.0
H781 H 0.59807 0.60454 0.13602 0.0
H782 H 0.68779 0.73114 0.14372 0.0
C783 C 0.64396 0.77589 0.21286 0.0
C784 C 0.59513 0.68099 0.1827 0.0
C785 C 0.64774 0.7945 0.23394 0.0
C786 C 0.60725 0.60793 0.09949 0.0
C787 C 0.60996 0.62412 0.12131 0.0
C788 C 0.66157 0.71698 0.15429 0.0
C789 C 0.62848 0.73505 0.21191 0.0
C790 C 0.62831 0.71627 0.18976 0.0
C791 C 0.62751 0.66503 0.12406 0.0
C792 C 0.62816 0.68208 0.14698 0.0
H793 H 0.6095 0.71385 0.2691 0.0
H794 H 0.60283 0.68125 0.23205 0.0
H795 H 0.68792 0.76071 0.18068 0.0
H796 H 0.65246 0.69296 0.06809 0.0
H797 H 0.65682 0.72115 0.10615 0.0
C798 C 0.40855 0.00608 0.10302 0.0
C799 C 0.38243 0.99447 0.08412 0.0
C800 C 0.39468 0.99184 0.12515 0.0
C801 C 0.31313 0.90833 0.15447 0.0
H802 H 0.34438 0.97725 0.20784 0.0
C803 C 0.22529 0.86531 0.23833 0.0
C804 C 0.24505 0.87828 0.25959 0.0
C805 C 0.24601 0.877 0.21765 0.0
C806 C 0.33602 0.95749 0.19319 0.0
H807 H 0.32111 0.95958 0.07379 0.0
H808 H 0.29698 0.93485 0.11249 0.0
H809 H 0.3725 0.00435 0.17006 0.0
H810 H 0.30242 0.91227 0.27584 0.0
H811 H 0.33881 0.93262 0.23948 0.0
H812 H 0.27636 0.86155 0.17744 0.0
C813 C 0.32823 0.95468 0.11005 0.0
C814 C 0.35195 0.97305 0.17157 0.0
C815 C 0.34202 0.96915 0.08795 0.0
C816 C 0.28631 0.90192 0.25974 0.0
C817 C 0.30712 0.91375 0.23895 0.0
C818 C 0.29739 0.89275 0.17607 0.0
C819 C 0.3545 0.96548 0.12878 0.0
C820 C 0.33993 0.94874 0.15195 0.0
C821 C 0.28704 0.90189 0.2177 0.0
C822 C 0.30795 0.91733 0.19555 0.0
H823 H 0.43986 0.02566 0.10069 0.0
H824 H 0.41554 0.00055 0.1393 0.0
H825 H 0.30407 0.88881 0.13968 0.0
H826 H 0.19355 0.84687 0.23755 0.0
H827 H 0.2296 0.86774 0.20159 0.0
C828 C 0.39306 -6e-05 0.90964 0.0
C829 C 0.37904 0.01081 0.92893 0.0
C830 C 0.38517 0.00744 0.88735 0.0
C831 C 0.31777 0.0267 0.85334 0.0
H832 H 0.40078 0.06212 0.80765 0.0
C833 C 0.30226 0.06932 0.75974 0.0
C834 C 0.31594 0.05451 0.74218 0.0
C835 C 0.30954 0.06543 0.78292 0.0
C836 C 0.37726 0.05196 0.8202 0.0
H837 H 0.34546 0.03801 0.93985 0.0
H838 H 0.33191 0.05146 0.90063 0.0
H839 H 0.41464 0.05409 0.84771 0.0
H840 H 0.34776 0.02374 0.7353 0.0
H841 H 0.36041 0.01697 0.77582 0.0
H842 H 0.28041 0.02457 0.82566 0.0
C843 C 0.34877 0.03678 0.90293 0.0
C844 C 0.38517 0.04738 0.84311 0.0
C845 C 0.35663 0.02919 0.92536 0.0
C846 C 0.33682 0.03549 0.74836 0.0
C847 C 0.3443 0.03183 0.77155 0.0
C848 C 0.3099 0.03145 0.83038 0.0
C849 C 0.3632 0.02616 0.88373 0.0
C850 C 0.35536 0.03407 0.85986 0.0
C851 C 0.33087 0.04691 0.78903 0.0
C852 C 0.33944 0.04356 0.81355 0.0
H853 H 0.41014 0.98544 0.91166 0.0
H854 H 0.39599 -0.00186 0.87291 0.0
H855 H 0.29414 0.01606 0.86583 0.0
H856 H 0.286 0.08407 0.75561 0.0
H857 H 0.29911 0.07755 0.79605 0.0
C858 C 0.01011 0.40594 0.90484 0.0
C859 C -0.0025 0.37981 0.9237 0.0
C860 C 0.00291 0.39173 0.88225 0.0
C861 C 0.9375 0.30525 0.84755 0.0
H862 H 0.01999 0.35427 0.80162 0.0
C863 C 0.92007 0.24281 0.75551 0.0
C864 C 0.93486 0.26989 0.73714 0.0
C865 C 0.92797 0.25578 0.77836 0.0
C866 C -0.00349 0.34058 0.81418 0.0
H867 H 0.96732 0.31811 0.93351 0.0
H868 H 0.95474 0.29332 0.8939 0.0
H869 H 0.03349 0.37732 0.8415 0.0
H870 H 0.96929 0.33196 0.72846 0.0
H871 H 0.98253 0.35459 0.76839 0.0
H872 H 0.90035 0.26882 0.82021 0.0
C873 C 0.97007 0.32484 0.89674 0.0
C874 C 0.00428 0.35371 0.83701 0.0
C875 C 0.97748 0.33906 0.9194 0.0
C876 C 0.95762 0.31028 0.74218 0.0
C877 C 0.96539 0.32325 0.76507 0.0
C878 C 0.92967 0.29221 0.82468 0.0
C879 C 0.98278 0.35107 0.87796 0.0
C880 C 0.97482 0.33627 0.8539 0.0
C881 C 0.9507 0.29612 0.78341 0.0
C882 C 0.95906 0.30982 0.80773 0.0
H883 H 0.02561 0.43751 0.90747 0.0
H884 H 0.01261 0.41262 0.86811 0.0
H885 H 0.91409 0.29163 0.86015 0.0
H886 H 0.9026 0.21146 0.75229 0.0
H887 H 0.91669 0.23409 0.79208 0.0
C888 C 0.67867 0.64755 0.74157 0.0
C889 C 0.71839 0.66418 0.73526 0.0
C890 C 0.668 0.64313 0.76485 0.0
C891 C 0.70374 0.6388 0.8233 0.0
H892 H 0.62381 0.66265 0.84292 0.0
C893 C 0.66481 0.64218 0.91944 0.0
C894 C 0.62432 0.62257 0.9244 0.0
C895 C 0.67778 0.64879 0.89652 0.0
C896 C 0.64603 0.65568 0.83765 0.0
H897 H 0.77803 0.68911 0.74857 0.0
H898 H 0.75938 0.68186 0.78899 0.0
H899 H 0.643 0.67033 0.8024 0.0
H900 H 0.56579 0.5947 0.90911 0.0
H901 H 0.58846 0.60615 0.86943 0.0
H902 H 0.70669 0.62417 0.85864 0.0
C903 C 0.73645 0.67171 0.77598 0.0
C904 C 0.6569 0.65993 0.81446 0.0
C905 C 0.74711 0.67604 0.75275 0.0
C906 C 0.59721 0.60991 0.90599 0.0
C907 C 0.61015 0.6167 0.8832 0.0
C908 C 0.69294 0.63467 0.84654 0.0
C909 C 0.69681 0.65531 0.78229 0.0
C910 C 0.68565 0.65125 0.807 0.0
C911 C 0.65051 0.63619 0.87821 0.0
C912 C 0.66373 0.64274 0.85389 0.0
H913 H 0.65578 0.63792 0.72856 0.0
H914 H 0.63712 0.62986 0.76919 0.0
H915 H 0.72568 0.63145 0.81804 0.0
H916 H 0.68645 0.65227 0.93321 0.0
H917 H 0.70911 0.6641 0.89312 0.0
C918 C 0.6735 0.8132 0.42562 0.0
C919 C 0.68303 0.80037 0.40527 0.0
C920 C 0.67773 0.79973 0.44716 0.0
C921 C 0.68023 0.71613 0.47363 0.0
H922 H 0.71791 0.7835 0.52768 0.0
C923 C 0.71472 0.66691 0.55998 0.0
C924 C 0.70425 0.67838 0.58052 0.0
C925 C 0.71067 0.68112 0.53868 0.0
C926 C 0.70684 0.76424 0.51279 0.0
H927 H 0.70627 0.76468 0.39173 0.0
H928 H 0.71408 0.74157 0.42939 0.0
H929 H 0.71681 0.81158 0.49023 0.0
H930 H 0.68023 0.71298 0.59466 0.0
H931 H 0.67285 0.73756 0.5573 0.0
H932 H 0.67034 0.66882 0.49616 0.0
C933 C 0.70261 0.76149 0.42859 0.0
C934 C 0.70633 0.78034 0.49135 0.0
C935 C 0.69838 0.77496 0.40702 0.0
C936 C 0.68856 0.70354 0.57918 0.0
C937 C 0.68464 0.71789 0.55782 0.0
C938 C 0.68076 0.70006 0.49505 0.0
C939 C 0.69164 0.77317 0.44884 0.0
C940 C 0.6931 0.75645 0.47154 0.0
C941 C 0.69611 0.70717 0.5374 0.0
C942 C 0.69414 0.72396 0.51484 0.0
H943 H 0.66165 0.83282 0.42495 0.0
H944 H 0.66876 0.80904 0.46243 0.0
H945 H 0.66913 0.69682 0.45877 0.0
H946 H 0.72686 0.64754 0.56034 0.0
H947 H 0.7201 0.67262 0.52327 0.0
C948 C 0.22543 0.92997 0.41231 0.0
C949 C 0.20259 0.88906 0.409 0.0
C950 C 0.23527 0.94561 0.43457 0.0
C951 C 0.2473 0.9188 0.49358 0.0
H952 H 0.24849 0.01497 0.51001 0.0
C953 C 0.27991 0.98433 0.5861 0.0
C954 C 0.30405 0.02545 0.58765 0.0
C955 C 0.2667 0.96621 0.56458 0.0
C956 C 0.24862 0.98827 0.50559 0.0
H957 H 0.17098 0.83263 0.42656 0.0
H958 H 0.18788 0.86008 0.46532 0.0
H959 H 0.2252 0.98622 0.47187 0.0
H960 H 0.33466 0.07954 0.56772 0.0
H961 H 0.31202 0.04789 0.53039 0.0
H962 H 0.27097 0.92105 0.5273 0.0
C963 C 0.19871 0.87993 0.45068 0.0
C964 C 0.23527 0.97182 0.48378 0.0
C965 C 0.18886 0.86427 0.42845 0.0
C966 C 0.31577 0.04785 0.56722 0.0
C967 C 0.30262 0.02977 0.5458 0.0
C968 C 0.26064 0.93525 0.51542 0.0
C969 C 0.22243 0.9207 0.45396 0.0
C970 C 0.23482 0.93713 0.47748 0.0
C971 C 0.27741 0.9889 0.54428 0.0
C972 C 0.26183 0.97038 0.52153 0.0
H973 H 0.23651 0.9499 0.39772 0.0
H974 H 0.25391 0.97716 0.43656 0.0
H975 H 0.24774 0.89228 0.48909 0.0
H976 H 0.27026 0.96623 0.6015 0.0
H977 H 0.24716 0.93462 0.5639 0.0
C978 C -0.00776 0.28922 0.57977 0.0
C979 C 0.95133 0.27284 0.58197 0.0
C980 C 0.00898 0.29176 0.55813 0.0
C981 C 0.9905 0.29126 0.49565 0.0
H982 H 0.07049 0.26151 0.49061 0.0
C983 C 0.05492 0.28467 0.40766 0.0
C984 C 0.09623 0.30363 0.40696 0.0
C985 C 0.03537 0.27675 0.42883 0.0
C986 C 0.04832 0.27008 0.49177 0.0
H987 H 0.89609 0.24727 0.56297 0.0
H988 H 0.92535 0.25167 0.52537 0.0
H989 H 0.04089 0.25845 0.52809 0.0
H990 H 0.14921 0.32734 0.42801 0.0
H991 H 0.11519 0.31383 0.46471 0.0
H992 H -0.00175 0.30334 0.4594 0.0
C993 C 0.94447 0.2627 0.54035 0.0
C994 C 0.03149 0.26847 0.51323 0.0
C995 C 0.92772 0.26006 0.56196 0.0
C996 C 0.11738 0.31288 0.42787 0.0
C997 C 0.09786 0.30489 0.44897 0.0
C998 C 0.00736 0.2929 0.47419 0.0
C999 C 0.98519 0.27812 0.53825 0.0
C1000 C 0.00266 0.27937 0.51542 0.0
C1001 C 0.05673 0.28745 0.44967 0.0
C1002 C 0.03669 0.28267 0.47207 0.0
H1003 H 0.01131 0.29934 0.59481 0.0
H1004 H 0.04057 0.30433 0.55697 0.0
H1005 H 0.96861 0.30019 0.49685 0.0
H1006 H 0.03773 0.277 0.39188 0.0
H1007 H 0.00357 0.26277 0.42888 0.0
loop_
_geom_bond_atom_site_label_1
_geom_bond_atom_site_label_2
_geom_bond_distance
_geom_bond_site_symmetry_2
_ccdc_geom_bond_type
Sc0 O3 2.025 1_556 S
Sc0 O10 2.096 1_556 S
Sc0 O13 2.105 . S
Sc0 O16 2.105 1_455 S
Sc0 O19 2.105 . S
Sc1 O3 2.025 . S
Sc1 O11 2.105 1_554 S
Sc1 O15 2.105 1_455 S
Sc1 O17 2.105 1_454 S
Sc1 O21 2.105 . S
Sc2 O3 2.025 1_655 S
Sc2 O12 2.105 1_655 S
Sc2 O14 2.105 . S
Sc2 O18 2.105 . S
Sc2 O20 2.105 1_655 S
O3 Sc0 2.025 1_554 S
O3 Sc1 2.025 . S
O3 Sc2 2.025 1_455 S
C4 O10 1.282 . S
C4 O20 1.268 . S
C5 O11 1.268 . S
C5 O19 1.268 . S
C6 O12 1.268 . S
C6 O21 1.268 . S
C7 O13 1.268 1_655 S
C7 O17 1.268 . S
C8 O14 1.268 1_556 S
C8 O16 1.268 . S
C9 O15 1.268 . S
C9 O18 1.268 . S
O10 Sc0 2.096 1_554 S
O10 C4 1.282 . S
O11 Sc1 2.105 1_556 S
O11 C5 1.268 . S
O12 Sc2 2.105 1_455 S
O12 C6 1.268 . S
O13 Sc0 2.105 . S
O13 C7 1.268 1_455 S
O14 Sc2 2.105 . S
O14 C8 1.268 1_554 S
O15 Sc1 2.105 1_655 S
O15 C9 1.268 . S
O16 Sc0 2.105 1_655 S
O16 C8 1.268 . S
O17 Sc1 2.105 1_656 S
O17 C7 1.268 . S
O18 Sc2 2.105 . S
O18 C9 1.268 . S
O19 Sc0 2.105 . S
O19 C5 1.268 . S
O20 Sc2 2.105 1_455 S
O20 C4 1.268 . S
O21 Sc1 2.105 . S
O21 C6 1.268 . S
Sc22 O25 2.025 1_556 S
Sc22 O32 2.096 1_556 S
Sc22 O35 2.105 . S
Sc22 O38 2.105 . S
Sc22 O41 2.105 . S
Sc23 O25 2.025 . S
Sc23 O33 2.105 1_554 S
Sc23 O37 2.105 . S
Sc23 O39 2.105 1_554 S
Sc23 O43 2.105 . S
Sc24 O25 2.025 . S
Sc24 O34 2.105 . S
Sc24 O36 2.105 . S
Sc24 O40 2.105 . S
Sc24 O42 2.105 . S
O25 Sc22 2.025 1_554 S
O25 Sc23 2.025 . S
O25 Sc24 2.025 . S
C26 O32 1.282 . S
C26 O42 1.268 . S
C27 O33 1.268 . S
C27 O41 1.268 . S
C28 O34 1.268 . S
C28 O43 1.268 . S
C29 O35 1.268 . S
C29 O39 1.268 . S
C30 O36 1.268 1_556 S
C30 O38 1.268 . S
C31 O37 1.268 . S
C31 O40 1.268 . S
O32 Sc22 2.096 1_554 S
O32 C26 1.282 . S
O33 Sc23 2.105 1_556 S
O33 C27 1.268 . S
O34 Sc24 2.105 . S
O34 C28 1.268 . S
O35 Sc22 2.105 . S
O35 C29 1.268 . S
O36 Sc24 2.105 . S
O36 C30 1.268 1_554 S
O37 Sc23 2.105 . S
O37 C31 1.268 . S
O38 Sc22 2.105 . S
O38 C30 1.268 . S
O39 Sc23 2.105 1_556 S
O39 C29 1.268 . S
O40 Sc24 2.105 . S
O40 C31 1.268 . S
O41 Sc22 2.105 . S
O41 C27 1.268 . S
O42 Sc24 2.105 . S
O42 C26 1.268 . S
O43 Sc23 2.105 . S
O43 C28 1.268 . S
Sc44 O47 2.025 1_566 S
Sc44 O54 2.096 1_556 S
Sc44 O57 2.105 1_565 S
Sc44 O60 2.105 1_565 S
Sc44 O63 2.105 . S
Sc45 O47 2.025 . S
Sc45 O55 2.105 1_544 S
Sc45 O59 2.105 . S
Sc45 O61 2.105 1_554 S
Sc45 O65 2.105 1_545 S
Sc46 O47 2.025 . S
Sc46 O56 2.105 . S
Sc46 O58 2.105 . S
Sc46 O62 2.105 . S
Sc46 O64 2.105 1_545 S
O47 Sc44 2.025 1_544 S
O47 Sc45 2.025 . S
O47 Sc46 2.025 . S
C48 O54 1.282 . S
C48 O64 1.268 . S
C49 O55 1.268 . S
C49 O63 1.268 . S
C50 O56 1.268 1_565 S
C50 O65 1.268 . S
C51 O57 1.268 . S
C51 O61 1.268 . S
C52 O58 1.268 1_556 S
C52 O60 1.268 . S
C53 O59 1.268 . S
C53 O62 1.268 . S
O54 Sc44 2.096 1_554 S
O54 C48 1.282 . S
O55 Sc45 2.105 1_566 S
O55 C49 1.268 . S
O56 Sc46 2.105 . S
O56 C50 1.268 1_545 S
O57 Sc44 2.105 1_545 S
O57 C51 1.268 . S
O58 Sc46 2.105 . S
O58 C52 1.268 1_554 S
O59 Sc45 2.105 . S
O59 C53 1.268 . S
O60 Sc44 2.105 1_545 S
O60 C52 1.268 . S
O61 Sc45 2.105 1_556 S
O61 C51 1.268 . S
O62 Sc46 2.105 . S
O62 C53 1.268 . S
O63 Sc44 2.105 . S
O63 C49 1.268 . S
O64 Sc46 2.105 1_565 S
O64 C48 1.268 . S
O65 Sc45 2.105 1_565 S
O65 C50 1.268 . S
Sc66 O69 2.025 . S
Sc66 O76 2.105 . S
Sc66 O79 2.105 . S
Sc66 O82 2.105 . S
Sc66 O85 2.105 . S
Sc67 O69 2.025 . S
Sc67 O77 2.105 . S
Sc67 O81 2.105 . S
Sc67 O83 2.105 . S
Sc67 O87 2.105 . S
Sc68 O69 2.025 . S
Sc68 O78 2.105 . S
Sc68 O80 2.105 . S
Sc68 O84 2.105 . S
Sc68 O86 2.105 . S
O69 Sc66 2.025 . S
O69 Sc67 2.025 . S
O69 Sc68 2.025 . S
C70 O76 1.268 . S
C70 O86 1.268 . S
C71 O77 1.268 . S
C71 O85 1.268 . S
C72 O78 1.268 . S
C72 O87 1.268 . S
C73 O79 1.268 . S
C73 O83 1.268 . S
C74 O80 1.268 . S
C74 O82 1.268 . S
C75 O81 1.268 . S
C75 O84 1.268 . S
O76 Sc66 2.105 . S
O76 C70 1.268 . S
O77 Sc67 2.105 . S
O77 C71 1.268 . S
O78 Sc68 2.105 . S
O78 C72 1.268 . S
O79 Sc66 2.105 . S
O79 C73 1.268 . S
O80 Sc68 2.105 . S
O80 C74 1.268 . S
O81 Sc67 2.105 . S
O81 C75 1.268 . S
O82 Sc66 2.105 . S
O82 C74 1.268 . S
O83 Sc67 2.105 . S
O83 C73 1.268 . S
O84 Sc68 2.105 . S
O84 C75 1.268 . S
O85 Sc66 2.105 . S
O85 C71 1.268 . S
O86 Sc68 2.105 . S
O86 C70 1.268 . S
O87 Sc67 2.105 . S
O87 C72 1.268 . S
Sc88 O91 2.025 . S
Sc88 O98 2.105 . S
Sc88 O101 2.105 . S
Sc88 O104 2.105 . S
Sc88 O107 2.105 . S
Sc89 O91 2.025 . S
Sc89 O99 2.105 . S
Sc89 O103 2.105 . S
Sc89 O105 2.105 . S
Sc89 O109 2.105 . S
Sc90 O91 2.025 . S
Sc90 O100 2.105 . S
Sc90 O102 2.105 . S
Sc90 O106 2.105 . S
Sc90 O108 2.105 . S
O91 Sc88 2.025 . S
O91 Sc89 2.025 . S
O91 Sc90 2.025 . S
C92 O98 1.268 . S
C92 O108 1.268 . S
C93 O99 1.268 . S
C93 O107 1.268 . S
C94 O100 1.268 . S
C94 O109 1.268 . S
C95 O101 1.268 . S
C95 O105 1.268 . S
C96 O102 1.268 . S
C96 O104 1.268 . S
C97 O103 1.268 . S
C97 O106 1.268 . S
O98 Sc88 2.105 . S
O98 C92 1.268 . S
O99 Sc89 2.105 . S
O99 C93 1.268 . S
O100 Sc90 2.105 . S
O100 C94 1.268 . S
O101 Sc88 2.105 . S
O101 C95 1.268 . S
O102 Sc90 2.105 . S
O102 C96 1.268 . S
O103 Sc89 2.105 . S
O103 C97 1.268 . S
O104 Sc88 2.105 . S
O104 C96 1.268 . S
O105 Sc89 2.105 . S
O105 C95 1.268 . S
O106 Sc90 2.105 . S
O106 C97 1.268 . S
O107 Sc88 2.105 . S
O107 C93 1.268 . S
O108 Sc90 2.105 . S
O108 C92 1.268 . S
O109 Sc89 2.105 . S
O109 C94 1.268 . S
Sc110 O113 2.025 . S
Sc110 O120 2.105 . S
Sc110 O123 2.105 . S
Sc110 O126 2.105 . S
Sc110 O129 2.105 . S
Sc111 O113 2.025 . S
Sc111 O121 2.105 . S
Sc111 O125 2.105 . S
Sc111 O127 2.105 . S
Sc111 O131 2.105 . S
Sc112 O113 2.025 . S
Sc112 O122 2.105 . S
Sc112 O124 2.105 . S
Sc112 O128 2.105 . S
Sc112 O130 2.105 . S
O113 Sc110 2.025 . S
O113 Sc111 2.025 . S
O113 Sc112 2.025 . S
C114 O120 1.268 . S
C114 O130 1.268 . S
C115 O121 1.268 . S
C115 O129 1.268 . S
C116 O122 1.268 . S
C116 O131 1.268 . S
C117 O123 1.268 . S
C117 O127 1.268 . S
C118 O124 1.268 . S
C118 O126 1.268 . S
C119 O125 1.268 . S
C119 O128 1.268 . S
O120 Sc110 2.105 . S
O120 C114 1.268 . S
O121 Sc111 2.105 . S
O121 C115 1.268 . S
O122 Sc112 2.105 . S
O122 C116 1.268 . S
O123 Sc110 2.105 . S
O123 C117 1.268 . S
O124 Sc112 2.105 . S
O124 C118 1.268 . S
O125 Sc111 2.105 . S
O125 C119 1.268 . S
O126 Sc110 2.105 . S
O126 C118 1.268 . S
O127 Sc111 2.105 . S
O127 C117 1.268 . S
O128 Sc112 2.105 . S
O128 C119 1.268 . S
O129 Sc110 2.105 . S
O129 C115 1.268 . S
O130 Sc112 2.105 . S
O130 C114 1.268 . S
O131 Sc111 2.105 . S
O131 C116 1.268 . S
Sc132 O135 2.025 . S
Sc132 O142 2.105 . S
Sc132 O145 2.105 . S
Sc132 O148 2.105 . S
Sc132 O151 2.105 . S
Sc133 O135 2.025 . S
Sc133 O143 2.105 . S
Sc133 O147 2.105 . S
Sc133 O149 2.105 . S
Sc133 O153 2.105 . S
Sc134 O135 2.025 . S
Sc134 O144 2.105 . S
Sc134 O146 2.105 . S
Sc134 O150 2.105 . S
Sc134 O152 2.105 . S
O135 Sc132 2.025 . S
O135 Sc133 2.025 . S
O135 Sc134 2.025 . S
C136 O142 1.268 . S
C136 O152 1.268 . S
C137 O143 1.268 . S
C137 O151 1.268 . S
C138 O144 1.268 . S
C138 O153 1.268 . S
C139 O145 1.268 . S
C139 O149 1.268 . S
C140 O146 1.268 . S
C140 O148 1.268 . S
C141 O147 1.268 . S
C141 O150 1.268 . S
O142 Sc132 2.105 . S
O142 C136 1.268 . S
O143 Sc133 2.105 . S
O143 C137 1.268 . S
O144 Sc134 2.105 . S
O144 C138 1.268 . S
O145 Sc132 2.105 . S
O145 C139 1.268 . S
O146 Sc134 2.105 . S
O146 C140 1.268 . S
O147 Sc133 2.105 . S
O147 C141 1.268 . S
O148 Sc132 2.105 . S
O148 C140 1.268 . S
O149 Sc133 2.105 . S
O149 C139 1.268 . S
O150 Sc134 2.105 . S
O150 C141 1.268 . S
O151 Sc132 2.105 . S
O151 C137 1.268 . S
O152 Sc134 2.105 . S
O152 C136 1.268 . S
O153 Sc133 2.105 . S
O153 C138 1.268 . S
Sc154 O157 2.025 . S
Sc154 O164 2.105 . S
Sc154 O167 2.105 . S
Sc154 O170 2.105 . S
Sc154 O173 2.105 . S
Sc155 O157 2.025 . S
Sc155 O165 2.105 . S
Sc155 O169 2.105 . S
Sc155 O171 2.105 . S
Sc155 O175 2.105 . S
Sc156 O157 2.025 . S
Sc156 O166 2.105 . S
Sc156 O168 2.105 . S
Sc156 O172 2.105 . S
Sc156 O174 2.105 . S
O157 Sc154 2.025 . S
O157 Sc155 2.025 . S
O157 Sc156 2.025 . S
C158 O164 1.268 . S
C158 O174 1.268 . S
C159 O165 1.268 . S
C159 O173 1.268 . S
C160 O166 1.268 . S
C160 O175 1.268 . S
C161 O167 1.268 . S
C161 O171 1.268 . S
C162 O168 1.268 . S
C162 O170 1.268 . S
C163 O169 1.268 . S
C163 O172 1.268 . S
O164 Sc154 2.105 . S
O164 C158 1.268 . S
O165 Sc155 2.105 . S
O165 C159 1.268 . S
O166 Sc156 2.105 . S
O166 C160 1.268 . S
O167 Sc154 2.105 . S
O167 C161 1.268 . S
O168 Sc156 2.105 . S
O168 C162 1.268 . S
O169 Sc155 2.105 . S
O169 C163 1.268 . S
O170 Sc154 2.105 . S
O170 C162 1.268 . S
O171 Sc155 2.105 . S
O171 C161 1.268 . S
O172 Sc156 2.105 . S
O172 C163 1.268 . S
O173 Sc154 2.105 . S
O173 C159 1.268 . S
O174 Sc156 2.105 . S
O174 C158 1.268 . S
O175 Sc155 2.105 . S
O175 C160 1.268 . S
Sc176 O179 2.025 . S
Sc176 O186 2.105 . S
Sc176 O189 2.105 . S
Sc176 O192 2.105 . S
Sc176 O195 2.105 . S
Sc177 O179 2.025 . S
Sc177 O187 2.105 . S
Sc177 O191 2.105 . S
Sc177 O193 2.105 . S
Sc177 O197 2.105 . S
Sc178 O179 2.025 . S
Sc178 O188 2.105 . S
Sc178 O190 2.105 . S
Sc178 O194 2.105 . S
Sc178 O196 2.105 . S
O179 Sc176 2.025 . S
O179 Sc177 2.025 . S
O179 Sc178 2.025 . S
C180 O186 1.268 . S
C180 O196 1.268 . S
C181 O187 1.268 . S
C181 O195 1.268 . S
C182 O188 1.268 . S
C182 O197 1.268 . S
C183 O189 1.268 . S
C183 O193 1.268 . S
C184 O190 1.268 . S
C184 O192 1.268 . S
C185 O191 1.268 . S
C185 O194 1.268 . S
O186 Sc176 2.105 . S
O186 C180 1.268 . S
O187 Sc177 2.105 . S
O187 C181 1.268 . S
O188 Sc178 2.105 . S
O188 C182 1.268 . S
O189 Sc176 2.105 . S
O189 C183 1.268 . S
O190 Sc178 2.105 . S
O190 C184 1.268 . S
O191 Sc177 2.105 . S
O191 C185 1.268 . S
O192 Sc176 2.105 . S
O192 C184 1.268 . S
O193 Sc177 2.105 . S
O193 C183 1.268 . S
O194 Sc178 2.105 . S
O194 C185 1.268 . S
O195 Sc176 2.105 . S
O195 C181 1.268 . S
O196 Sc178 2.105 . S
O196 C180 1.268 . S
O197 Sc177 2.105 . S
O197 C182 1.268 . S
C198 C199 1.349 . S
C198 C200 1.327 . S
C198 H223 0.950 . S
C199 C198 1.349 . S
C199 C215 1.349 . S
C200 C198 1.327 . S
C200 C219 1.429 . S
C200 H224 0.950 . S
C201 C218 1.574 . S
C201 C220 1.368 . S
C201 H225 0.949 . S
H202 C206 0.949 . S
C203 C204 1.349 . S
C203 C205 1.327 1_556 S
C203 H226 0.950 1_556 S
C204 C203 1.349 . S
C204 C216 1.349 . S
C205 C203 1.327 1_554 S
C205 C221 1.421 1_554 S
C205 H227 0.950 . S
C206 H202 0.949 . S
C206 C214 1.574 1_556 S
C206 C222 1.368 1_556 S
H207 C215 0.950 . S
H208 C213 0.950 . S
H209 C214 0.949 . S
H210 C216 0.950 . S
H211 C217 0.950 . S
H212 C218 0.949 . S
C213 H208 0.950 . S
C213 C215 1.327 . S
C213 C219 1.429 . S
C214 C206 1.574 1_554 S
C214 H209 0.949 . S
C214 C220 1.368 . S
C215 C199 1.349 . S
C215 H207 0.950 . S
C215 C213 1.327 . S
C216 C204 1.349 . S
C216 H210 0.950 . S
C216 C217 1.327 . S
C217 H211 0.950 . S
C217 C216 1.327 . S
C217 C221 1.447 . S
C218 C201 1.574 . S
C218 H212 0.949 . S
C218 C222 1.368 . S
C219 C200 1.429 . S
C219 C213 1.429 . S
C219 C220 1.523 . S
C220 C201 1.368 . S
C220 C214 1.368 . S
C220 C219 1.523 . S
C221 C205 1.421 1_556 S
C221 C217 1.447 . S
C221 C222 1.515 1_556 S
C222 C206 1.368 1_554 S
C222 C218 1.368 . S
C222 C221 1.515 1_554 S
H223 C198 0.950 . S
H224 C200 0.950 . S
H225 C201 0.949 . S
H226 C203 0.950 1_554 S
H227 C205 0.950 . S
C228 C229 1.349 . S
C228 C230 1.327 . S
C228 H253 0.950 . S
C229 C228 1.349 . S
C229 C245 1.349 . S
C230 C228 1.327 . S
C230 C249 1.429 . S
C230 H254 0.950 . S
C231 C248 1.574 . S
C231 C250 1.368 1_556 S
C231 H255 0.949 . S
H232 C236 0.949 . S
C233 C234 1.349 . S
C233 C235 1.327 . S
C233 H256 0.950 . S
C234 C233 1.349 . S
C234 C246 1.349 1_556 S
C235 C233 1.327 . S
C235 C251 1.460 . S
C235 H257 0.950 . S
C236 H232 0.949 . S
C236 C244 1.574 . S
C236 C252 1.368 . S
H237 C245 0.950 . S
H238 C243 0.950 1_556 S
H239 C244 0.949 . S
H240 C246 0.950 . S
H241 C247 0.950 . S
H242 C248 0.949 . S
C243 H238 0.950 1_554 S
C243 C245 1.327 . S
C243 C249 1.429 . S
C244 C236 1.574 . S
C244 H239 0.949 . S
C244 C250 1.368 . S
C245 C229 1.349 . S
C245 H237 0.950 . S
C245 C243 1.327 . S
C246 C234 1.349 1_554 S
C246 H240 0.950 . S
C246 C247 1.327 . S
C247 H241 0.950 . S
C247 C246 1.327 . S
C247 C251 1.408 1_554 S
C248 C231 1.574 . S
C248 H242 0.949 . S
C248 C252 1.368 1_556 S
C249 C230 1.429 . S
C249 C243 1.429 . S
C249 C250 1.523 . S
C250 C231 1.368 1_554 S
C250 C244 1.368 . S
C250 C249 1.523 . S
C251 C235 1.460 . S
C251 C247 1.408 1_556 S
C251 C252 1.515 1_556 S
C252 C236 1.368 . S
C252 C248 1.368 1_554 S
C252 C251 1.515 1_554 S
H253 C228 0.950 . S
H254 C230 0.950 . S
H255 C231 0.949 . S
H256 C233 0.950 . S
H257 C235 0.950 . S
C258 C259 1.349 . S
C258 C260 1.327 . S
C258 H283 0.950 . S
C259 C258 1.349 . S
C259 C275 1.349 1_556 S
C260 C258 1.327 . S
C260 C279 1.469 . S
C260 H284 0.950 . S
C261 C278 1.574 . S
C261 C280 1.368 . S
C261 H285 0.949 . S
H262 C266 0.949 . S
C263 C264 1.349 . S
C263 C265 1.327 . S
C263 H286 0.950 . S
C264 C263 1.349 . S
C264 C276 1.349 . S
C265 C263 1.327 . S
C265 C281 1.429 . S
C265 H287 0.950 . S
C266 H262 0.949 . S
C266 C274 1.574 . S
C266 C282 1.368 1_556 S
H267 C275 0.950 . S
H268 C273 0.950 . S
H269 C274 0.949 . S
H270 C276 0.950 1_556 S
H271 C277 0.950 1_556 S
H272 C278 0.949 . S
C273 H268 0.950 . S
C273 C275 1.327 . S
C273 C279 1.399 1_554 S
C274 C266 1.574 . S
C274 H269 0.949 . S
C274 C280 1.368 1_556 S
C275 C259 1.349 1_554 S
C275 H267 0.950 . S
C275 C273 1.327 . S
C276 C264 1.349 . S
C276 H270 0.950 1_554 S
C276 C277 1.327 . S
C277 H271 0.950 1_554 S
C277 C276 1.327 . S
C277 C281 1.429 . S
C278 C261 1.574 . S
C278 H272 0.949 . S
C278 C282 1.368 . S
C279 C260 1.469 . S
C279 C273 1.399 1_556 S
C279 C280 1.515 1_556 S
C280 C261 1.368 . S
C280 C274 1.368 1_554 S
C280 C279 1.515 1_554 S
C281 C265 1.429 . S
C281 C277 1.429 . S
C281 C282 1.523 . S
C282 C266 1.368 1_554 S
C282 C278 1.368 . S
C282 C281 1.523 . S
H283 C258 0.950 . S
H284 C260 0.950 . S
H285 C261 0.949 . S
H286 C263 0.950 . S
H287 C265 0.950 . S
C288 C289 1.349 . S
C288 C290 1.327 . S
C288 H313 0.950 . S
C289 C288 1.349 . S
C289 C305 1.349 . S
C290 C288 1.327 . S
C290 C309 1.429 . S
C290 H314 0.950 . S
C291 C308 1.574 . S
C291 C310 1.368 1_556 S
C291 H315 0.949 . S
H292 C296 0.949 . S
C293 C294 1.349 . S
C293 C295 1.327 . S
C293 H316 0.950 . S
C294 C293 1.349 . S
C294 C306 1.349 . S
C295 C293 1.327 . S
C295 C311 1.429 . S
C295 H317 0.950 . S
C296 H292 0.949 . S
C296 C304 1.574 . S
C296 C312 1.368 1_554 S
H297 C305 0.950 1_556 S
H298 C303 0.950 . S
H299 C304 0.949 . S
H300 C306 0.950 1_554 S
H301 C307 0.950 . S
H302 C308 0.949 . S
C303 H298 0.950 . S
C303 C305 1.327 1_556 S
C303 C309 1.429 1_556 S
C304 C296 1.574 . S
C304 H299 0.949 . S
C304 C310 1.368 . S
C305 C289 1.349 . S
C305 H297 0.950 1_554 S
C305 C303 1.327 1_554 S
C306 C294 1.349 . S
C306 H300 0.950 1_556 S
C306 C307 1.327 1_556 S
C307 H301 0.950 . S
C307 C306 1.327 1_554 S
C307 C311 1.429 1_554 S
C308 C291 1.574 . S
C308 H302 0.949 . S
C308 C312 1.368 . S
C309 C290 1.429 . S
C309 C303 1.429 1_554 S
C309 C310 1.523 . S
C310 C291 1.368 1_554 S
C310 C304 1.368 . S
C310 C309 1.523 . S
C311 C295 1.429 . S
C311 C307 1.429 1_556 S
C311 C312 1.523 . S
C312 C296 1.368 1_556 S
C312 C308 1.368 . S
C312 C311 1.523 . S
H313 C288 0.950 . S
H314 C290 0.950 . S
H315 C291 0.949 . S
H316 C293 0.950 . S
H317 C295 0.950 . S
C318 C319 1.349 . S
C318 C320 1.325 1_556 S
C318 H343 0.950 1_556 S
C319 C318 1.349 . S
C319 C335 1.349 . S
C320 C318 1.325 1_554 S
C320 C339 1.424 1_554 S
C320 H344 0.957 . S
C321 C338 1.574 . S
C321 C340 1.368 . S
C321 H345 0.949 . S
H322 C326 0.949 . S
C323 C324 1.349 . S
C323 C325 1.327 1_554 S
C323 H346 0.950 1_554 S
C324 C323 1.349 . S
C324 C336 1.349 . S
C325 C323 1.327 1_556 S
C325 C341 1.429 1_556 S
C325 H347 0.950 . S
C326 H322 0.949 . S
C326 C334 1.574 . S
C326 C342 1.368 . S
H327 C335 0.950 . S
H328 C333 0.950 . S
H329 C334 0.949 . S
H330 C336 0.950 . S
H331 C337 0.950 . S
H332 C338 0.949 . S
C333 H328 0.950 . S
C333 C335 1.327 . S
C333 C339 1.429 . S
C334 C326 1.574 . S
C334 H329 0.949 . S
C334 C340 1.368 1_554 S
C335 C319 1.349 . S
C335 H327 0.950 . S
C335 C333 1.327 . S
C336 C324 1.349 . S
C336 H330 0.950 . S
C336 C337 1.327 . S
C337 H331 0.950 . S
C337 C336 1.327 . S
C337 C341 1.429 . S
C338 C321 1.574 . S
C338 H332 0.949 . S
C338 C342 1.368 1_556 S
C339 C320 1.424 1_556 S
C339 C333 1.429 . S
C339 C340 1.523 . S
C340 C321 1.368 . S
C340 C334 1.368 1_556 S
C340 C339 1.523 . S
C341 C325 1.429 1_554 S
C341 C337 1.429 . S
C341 C342 1.523 . S
C342 C326 1.368 . S
C342 C338 1.368 1_554 S
C342 C341 1.523 . S
H343 C318 0.950 1_554 S
H344 C320 0.957 . S
H345 C321 0.949 . S
H346 C323 0.950 1_556 S
H347 C325 0.950 . S
C348 C349 1.349 . S
C348 C350 1.327 . S
C348 H373 0.950 . S
C349 C348 1.349 . S
C349 C365 1.349 1_556 S
C350 C348 1.327 . S
C350 C369 1.429 . S
C350 H374 0.950 . S
C351 C368 1.574 . S
C351 C370 1.368 1_554 S
C351 H375 0.949 . S
H352 C356 0.949 . S
C353 C354 1.349 . S
C353 C355 1.327 . S
C353 H376 0.950 . S
C354 C353 1.349 . S
C354 C366 1.349 1_554 S
C355 C353 1.327 . S
C355 C371 1.429 . S
C355 H377 0.950 . S
C356 H352 0.949 . S
C356 C364 1.574 . S
C356 C372 1.368 1_556 S
H357 C365 0.950 . S
H358 C363 0.950 . S
H359 C364 0.949 . S
H360 C366 0.950 . S
H361 C367 0.950 . S
H362 C368 0.949 . S
C363 H358 0.950 . S
C363 C365 1.327 . S
C363 C369 1.429 1_554 S
C364 C356 1.574 . S
C364 H359 0.949 . S
C364 C370 1.368 . S
C365 C349 1.349 1_554 S
C365 H357 0.950 . S
C365 C363 1.327 . S
C366 C354 1.349 1_556 S
C366 H360 0.950 . S
C366 C367 1.327 . S
C367 H361 0.950 . S
C367 C366 1.327 . S
C367 C371 1.429 1_556 S
C368 C351 1.574 . S
C368 H362 0.949 . S
C368 C372 1.368 . S
C369 C350 1.429 . S
C369 C363 1.429 1_556 S
C369 C370 1.523 . S
C370 C351 1.368 1_556 S
C370 C364 1.368 . S
C370 C369 1.523 . S
C371 C355 1.429 . S
C371 C367 1.429 1_554 S
C371 C372 1.523 . S
C372 C356 1.368 1_554 S
C372 C368 1.368 . S
C372 C371 1.523 . S
H373 C348 0.950 . S
H374 C350 0.950 . S
H375 C351 0.949 . S
H376 C353 0.950 . S
H377 C355 0.950 . S
C378 C379 1.349 . S
C378 C380 1.327 . S
C378 H403 0.950 . S
C379 C378 1.349 . S
C379 C395 1.349 . S
C380 C378 1.327 . S
C380 C399 1.429 . S
C380 H404 0.950 . S
C381 C398 1.574 . S
C381 C400 1.368 . S
C381 H405 0.949 . S
H382 C386 0.949 . S
C383 C384 1.349 . S
C383 C385 1.327 . S
C383 H406 0.950 . S
C384 C383 1.349 . S
C384 C396 1.349 . S
C385 C383 1.327 . S
C385 C401 1.429 . S
C385 H407 0.950 . S
C386 H382 0.949 . S
C386 C394 1.574 . S
C386 C402 1.368 . S
H387 C395 0.950 . S
H388 C393 0.950 . S
H389 C394 0.949 . S
H390 C396 0.950 . S
H391 C397 0.950 . S
H392 C398 0.949 1_455 S
C393 H388 0.950 . S
C393 C395 1.327 . S
C393 C399 1.429 . S
C394 C386 1.574 . S
C394 H389 0.949 . S
C394 C400 1.368 . S
C395 C379 1.349 . S
C395 H387 0.950 . S
C395 C393 1.327 . S
C396 C384 1.349 . S
C396 H390 0.950 . S
C396 C397 1.327 . S
C397 H391 0.950 . S
C397 C396 1.327 . S
C397 C401 1.429 . S
C398 C381 1.574 . S
C398 H392 0.949 1_655 S
C398 C402 1.368 . S
C399 C380 1.429 . S
C399 C393 1.429 . S
C399 C400 1.523 . S
C400 C381 1.368 . S
C400 C394 1.368 . S
C400 C399 1.523 . S
C401 C385 1.429 . S
C401 C397 1.429 . S
C401 C402 1.523 1_455 S
C402 C386 1.368 . S
C402 C398 1.368 . S
C402 C401 1.523 1_655 S
H403 C378 0.950 . S
H404 C380 0.950 . S
H405 C381 0.949 . S
H406 C383 0.950 . S
H407 C385 0.950 . S
C408 C409 1.349 . S
C408 C410 1.327 . S
C408 H433 0.950 . S
C409 C408 1.349 . S
C409 C425 1.349 . S
C410 C408 1.327 . S
C410 C429 1.429 . S
C410 H434 0.950 . S
C411 C428 1.574 . S
C411 C430 1.368 . S
C411 H435 0.949 . S
H412 C416 0.949 . S
C413 C414 1.345 1_545 S
C413 C415 1.327 . S
C413 H436 0.950 1_545 S
C414 C413 1.345 1_565 S
C414 C426 1.339 1_565 S
C415 C413 1.327 . S
C415 C431 1.429 . S
C415 H437 0.950 . S
C416 H412 0.949 . S
C416 C424 1.574 . S
C416 C432 1.368 . S
H417 C425 0.950 . S
H418 C423 0.950 . S
H419 C424 0.949 . S
H420 C426 0.950 . S
H421 C427 0.950 . S
H422 C428 0.949 . S
C423 H418 0.950 . S
C423 C425 1.327 . S
C423 C429 1.429 . S
C424 C416 1.574 . S
C424 H419 0.949 . S
C424 C430 1.368 . S
C425 C409 1.349 . S
C425 H417 0.950 . S
C425 C423 1.327 . S
C426 C414 1.339 1_545 S
C426 H420 0.950 . S
C426 C427 1.327 . S
C427 H421 0.950 . S
C427 C426 1.327 . S
C427 C431 1.429 . S
C428 C411 1.574 . S
C428 H422 0.949 . S
C428 C432 1.368 . S
C429 C410 1.429 . S
C429 C423 1.429 . S
C429 C430 1.523 . S
C430 C411 1.368 . S
C430 C424 1.368 . S
C430 C429 1.523 . S
C431 C415 1.429 . S
C431 C427 1.429 . S
C431 C432 1.523 . S
C432 C416 1.368 . S
C432 C428 1.368 . S
C432 C431 1.523 . S
H433 C408 0.950 . S
H434 C410 0.950 . S
H435 C411 0.949 . S
H436 C413 0.950 1_565 S
H437 C415 0.950 . S
C438 C439 1.349 . S
C438 C440 1.327 1_455 S
C438 H463 0.950 . S
C439 C438 1.349 . S
C439 C455 1.349 1_455 S
C440 C438 1.327 1_655 S
C440 C459 1.429 . S
C440 H464 0.950 . S
C441 C458 1.574 . S
C441 C460 1.368 . S
C441 H465 0.949 . S
H442 C446 0.949 . S
C443 C444 1.349 . S
C443 C445 1.327 . S
C443 H466 0.950 . S
C444 C443 1.349 . S
C444 C456 1.349 . S
C445 C443 1.327 . S
C445 C461 1.429 . S
C445 H467 0.950 . S
C446 H442 0.949 . S
C446 C454 1.574 . S
C446 C462 1.368 . S
H447 C455 0.950 . S
H448 C453 0.950 . S
H449 C454 0.949 . S
H450 C456 0.950 . S
H451 C457 0.950 . S
H452 C458 0.949 . S
C453 H448 0.950 . S
C453 C455 1.327 . S
C453 C459 1.429 . S
C454 C446 1.574 . S
C454 H449 0.949 . S
C454 C460 1.368 . S
C455 C439 1.349 1_655 S
C455 H447 0.950 . S
C455 C453 1.327 . S
C456 C444 1.349 . S
C456 H450 0.950 . S
C456 C457 1.327 . S
C457 H451 0.950 . S
C457 C456 1.327 . S
C457 C461 1.429 . S
C458 C441 1.574 . S
C458 H452 0.949 . S
C458 C462 1.368 . S
C459 C440 1.429 . S
C459 C453 1.429 . S
C459 C460 1.523 . S
C460 C441 1.368 . S
C460 C454 1.368 . S
C460 C459 1.523 . S
C461 C445 1.429 . S
C461 C457 1.429 . S
C461 C462 1.523 1_565 S
C462 C446 1.368 . S
C462 C458 1.368 . S
C462 C461 1.523 1_545 S
H463 C438 0.950 . S
H464 C440 0.950 . S
H465 C441 0.949 . S
H466 C443 0.950 . S
H467 C445 0.950 . S
C468 C469 1.349 . S
C468 C470 1.327 . S
C468 H493 0.950 . S
C469 C468 1.349 . S
C469 C485 1.349 . S
C470 C468 1.327 . S
C470 C489 1.429 . S
C470 H494 0.950 . S
C471 C488 1.574 . S
C471 C490 1.368 . S
C471 H495 0.949 . S
H472 C476 0.949 . S
C473 C474 1.349 . S
C473 C475 1.327 . S
C473 H496 0.950 . S
C474 C473 1.349 . S
C474 C486 1.349 . S
C475 C473 1.327 . S
C475 C491 1.429 . S
C475 H497 0.950 . S
C476 H472 0.949 . S
C476 C484 1.574 . S
C476 C492 1.368 . S
H477 C485 0.950 . S
H478 C483 0.950 . S
H479 C484 0.949 . S
H480 C486 0.950 . S
H481 C487 0.950 . S
H482 C488 0.949 . S
C483 H478 0.950 . S
C483 C485 1.327 . S
C483 C489 1.429 . S
C484 C476 1.574 . S
C484 H479 0.949 . S
C484 C490 1.368 . S
C485 C469 1.349 . S
C485 H477 0.950 . S
C485 C483 1.327 . S
C486 C474 1.349 . S
C486 H480 0.950 . S
C486 C487 1.327 . S
C487 H481 0.950 . S
C487 C486 1.327 . S
C487 C491 1.429 . S
C488 C471 1.574 . S
C488 H482 0.949 . S
C488 C492 1.368 . S
C489 C470 1.429 . S
C489 C483 1.429 . S
C489 C490 1.523 . S
C490 C471 1.368 . S
C490 C484 1.368 . S
C490 C489 1.523 . S
C491 C475 1.429 . S
C491 C487 1.429 . S
C491 C492 1.523 . S
C492 C476 1.368 . S
C492 C488 1.368 . S
C492 C491 1.523 . S
H493 C468 0.950 . S
H494 C470 0.950 . S
H495 C471 0.949 . S
H496 C473 0.950 . S
H497 C475 0.950 . S
C498 C499 1.349 . S
C498 C500 1.327 . S
C498 H523 0.950 . S
C499 C498 1.349 . S
C499 C515 1.349 . S
C500 C498 1.327 . S
C500 C519 1.429 . S
C500 H524 0.950 . S
C501 C518 1.574 . S
C501 C520 1.368 . S
C501 H525 0.949 . S
H502 C506 0.949 . S
C503 C504 1.349 . S
C503 C505 1.327 . S
C503 H526 0.950 . S
C504 C503 1.349 . S
C504 C516 1.349 . S
C505 C503 1.327 . S
C505 C521 1.429 . S
C505 H527 0.950 . S
C506 H502 0.949 . S
C506 C514 1.574 . S
C506 C522 1.368 . S
H507 C515 0.950 . S
H508 C513 0.950 . S
H509 C514 0.949 . S
H510 C516 0.950 . S
H511 C517 0.950 . S
H512 C518 0.949 . S
C513 H508 0.950 . S
C513 C515 1.327 . S
C513 C519 1.429 . S
C514 C506 1.574 . S
C514 H509 0.949 . S
C514 C520 1.368 . S
C515 C499 1.349 . S
C515 H507 0.950 . S
C515 C513 1.327 . S
C516 C504 1.349 . S
C516 H510 0.950 . S
C516 C517 1.327 . S
C517 H511 0.950 . S
C517 C516 1.327 . S
C517 C521 1.429 . S
C518 C501 1.574 . S
C518 H512 0.949 . S
C518 C522 1.368 . S
C519 C500 1.429 . S
C519 C513 1.429 . S
C519 C520 1.523 . S
C520 C501 1.368 . S
C520 C514 1.368 . S
C520 C519 1.523 . S
C521 C505 1.429 . S
C521 C517 1.429 . S
C521 C522 1.523 . S
C522 C506 1.368 . S
C522 C518 1.368 . S
C522 C521 1.523 . S
H523 C498 0.950 . S
H524 C500 0.950 . S
H525 C501 0.949 . S
H526 C503 0.950 . S
H527 C505 0.950 . S
C528 C529 1.349 . S
C528 C530 1.327 . S
C528 H553 0.950 . S
C529 C528 1.349 . S
C529 C545 1.349 . S
C530 C528 1.327 . S
C530 C549 1.429 . S
C530 H554 0.950 . S
C531 C548 1.574 . S
C531 C550 1.368 . S
C531 H555 0.949 . S
H532 C536 0.949 . S
C533 C534 1.349 . S
C533 C535 1.327 . S
C533 H556 0.950 . S
C534 C533 1.349 . S
C534 C546 1.349 . S
C535 C533 1.327 . S
C535 C551 1.429 . S
C535 H557 0.950 . S
C536 H532 0.949 . S
C536 C544 1.574 . S
C536 C552 1.368 . S
H537 C545 0.950 . S
H538 C543 0.950 . S
H539 C544 0.949 . S
H540 C546 0.950 . S
H541 C547 0.950 . S
H542 C548 0.949 . S
C543 H538 0.950 . S
C543 C545 1.327 . S
C543 C549 1.429 . S
C544 C536 1.574 . S
C544 H539 0.949 . S
C544 C550 1.368 . S
C545 C529 1.349 . S
C545 H537 0.950 . S
C545 C543 1.327 . S
C546 C534 1.349 . S
C546 H540 0.950 . S
C546 C547 1.327 . S
C547 H541 0.950 . S
C547 C546 1.327 . S
C547 C551 1.429 . S
C548 C531 1.574 . S
C548 H542 0.949 . S
C548 C552 1.368 . S
C549 C530 1.429 . S
C549 C543 1.429 . S
C549 C550 1.523 . S
C550 C531 1.368 . S
C550 C544 1.368 . S
C550 C549 1.523 . S
C551 C535 1.429 . S
C551 C547 1.429 . S
C551 C552 1.523 . S
C552 C536 1.368 . S
C552 C548 1.368 . S
C552 C551 1.523 . S
H553 C528 0.950 . S
H554 C530 0.950 . S
H555 C531 0.949 . S
H556 C533 0.950 . S
H557 C535 0.950 . S
C558 C559 1.349 . S
C558 C560 1.327 . S
C558 H583 0.950 . S
C559 C558 1.349 . S
C559 C575 1.349 . S
C560 C558 1.327 . S
C560 C579 1.429 . S
C560 H584 0.950 . S
C561 C578 1.574 . S
C561 C580 1.368 . S
C561 H585 0.949 . S
H562 C566 0.949 . S
C563 C564 1.349 . S
C563 C565 1.327 . S
C563 H586 0.950 . S
C564 C563 1.349 . S
C564 C576 1.349 . S
C565 C563 1.327 . S
C565 C581 1.429 . S
C565 H587 0.950 . S
C566 H562 0.949 . S
C566 C574 1.574 . S
C566 C582 1.368 . S
H567 C575 0.950 . S
H568 C573 0.950 . S
H569 C574 0.949 . S
H570 C576 0.950 . S
H571 C577 0.950 . S
H572 C578 0.949 . S
C573 H568 0.950 . S
C573 C575 1.327 . S
C573 C579 1.429 . S
C574 C566 1.574 . S
C574 H569 0.949 . S
C574 C580 1.368 . S
C575 C559 1.349 . S
C575 H567 0.950 . S
C575 C573 1.327 . S
C576 C564 1.349 . S
C576 H570 0.950 . S
C576 C577 1.327 . S
C577 H571 0.950 . S
C577 C576 1.327 . S
C577 C581 1.429 . S
C578 C561 1.574 . S
C578 H572 0.949 . S
C578 C582 1.368 . S
C579 C560 1.429 . S
C579 C573 1.429 . S
C579 C580 1.523 . S
C580 C561 1.368 . S
C580 C574 1.368 . S
C580 C579 1.523 . S
C581 C565 1.429 . S
C581 C577 1.429 . S
C581 C582 1.523 . S
C582 C566 1.368 . S
C582 C578 1.368 . S
C582 C581 1.523 . S
H583 C558 0.950 . S
H584 C560 0.950 . S
H585 C561 0.949 . S
H586 C563 0.950 . S
H587 C565 0.950 . S
C588 C589 1.349 . S
C588 C590 1.327 . S
C588 H613 0.950 . S
C589 C588 1.349 . S
C589 C605 1.349 . S
C590 C588 1.327 . S
C590 C609 1.429 . S
C590 H614 0.950 . S
C591 C608 1.574 . S
C591 C610 1.368 . S
C591 H615 0.949 . S
H592 C596 0.949 . S
C593 C594 1.349 . S
C593 C595 1.327 . S
C593 H616 0.950 . S
C594 C593 1.349 . S
C594 C606 1.349 . S
C595 C593 1.327 . S
C595 C611 1.429 . S
C595 H617 0.950 . S
C596 H592 0.949 . S
C596 C604 1.574 . S
C596 C612 1.368 . S
H597 C605 0.950 . S
H598 C603 0.950 . S
H599 C604 0.949 . S
H600 C606 0.950 . S
H601 C607 0.950 . S
H602 C608 0.949 . S
C603 H598 0.950 . S
C603 C605 1.327 . S
C603 C609 1.429 . S
C604 C596 1.574 . S
C604 H599 0.949 . S
C604 C610 1.368 . S
C605 C589 1.349 . S
C605 H597 0.950 . S
C605 C603 1.327 . S
C606 C594 1.349 . S
C606 H600 0.950 . S
C606 C607 1.327 . S
C607 H601 0.950 . S
C607 C606 1.327 . S
C607 C611 1.429 . S
C608 C591 1.574 . S
C608 H602 0.949 . S
C608 C612 1.368 . S
C609 C590 1.429 . S
C609 C603 1.429 . S
C609 C610 1.523 . S
C610 C591 1.368 . S
C610 C604 1.368 . S
C610 C609 1.523 . S
C611 C595 1.429 . S
C611 C607 1.429 . S
C611 C612 1.523 . S
C612 C596 1.368 . S
C612 C608 1.368 . S
C612 C611 1.523 . S
H613 C588 0.950 . S
H614 C590 0.950 . S
H615 C591 0.949 . S
H616 C593 0.950 . S
H617 C595 0.950 . S
C618 C619 1.349 . S
C618 C620 1.327 . S
C618 H643 0.950 . S
C619 C618 1.349 . S
C619 C635 1.349 . S
C620 C618 1.327 . S
C620 C639 1.429 . S
C620 H644 0.950 . S
C621 C638 1.574 . S
C621 C640 1.368 . S
C621 H645 0.949 . S
H622 C626 0.949 . S
C623 C624 1.349 . S
C623 C625 1.327 . S
C623 H646 0.950 . S
C624 C623 1.349 . S
C624 C636 1.349 . S
C625 C623 1.327 . S
C625 C641 1.429 . S
C625 H647 0.950 . S
C626 H622 0.949 . S
C626 C634 1.574 . S
C626 C642 1.368 . S
H627 C635 0.950 . S
H628 C633 0.950 . S
H629 C634 0.949 . S
H630 C636 0.950 . S
H631 C637 0.950 . S
H632 C638 0.949 . S
C633 H628 0.950 . S
C633 C635 1.327 . S
C633 C639 1.429 . S
C634 C626 1.574 . S
C634 H629 0.949 . S
C634 C640 1.368 . S
C635 C619 1.349 . S
C635 H627 0.950 . S
C635 C633 1.327 . S
C636 C624 1.349 . S
C636 H630 0.950 . S
C636 C637 1.327 . S
C637 H631 0.950 . S
C637 C636 1.327 . S
C637 C641 1.429 . S
C638 C621 1.574 . S
C638 H632 0.949 . S
C638 C642 1.368 . S
C639 C620 1.429 . S
C639 C633 1.429 . S
C639 C640 1.523 . S
C640 C621 1.368 . S
C640 C634 1.368 . S
C640 C639 1.523 . S
C641 C625 1.429 . S
C641 C637 1.429 . S
C641 C642 1.523 . S
C642 C626 1.368 . S
C642 C638 1.368 . S
C642 C641 1.523 . S
H643 C618 0.950 . S
H644 C620 0.950 . S
H645 C621 0.949 . S
H646 C623 0.950 . S
H647 C625 0.950 . S
C648 C649 1.349 . S
C648 C650 1.327 . S
C648 H673 0.950 . S
C649 C648 1.349 . S
C649 C665 1.349 . S
C650 C648 1.327 . S
C650 C669 1.429 . S
C650 H674 0.950 . S
C651 C668 1.574 . S
C651 C670 1.368 . S
C651 H675 0.949 . S
H652 C656 0.934 1_545 S
C653 C654 1.349 . S
C653 C655 1.327 . S
C653 H676 0.950 . S
C654 C653 1.349 . S
C654 C666 1.349 . S
C655 C653 1.327 . S
C655 C671 1.429 . S
C655 H677 0.950 . S
C656 H652 0.934 1_565 S
C656 C664 1.574 . S
C656 C672 1.368 . S
H657 C665 0.950 . S
H658 C663 0.950 . S
H659 C664 0.949 . S
H660 C666 0.950 . S
H661 C667 0.950 . S
H662 C668 0.949 . S
C663 H658 0.950 . S
C663 C665 1.327 . S
C663 C669 1.429 . S
C664 C656 1.574 . S
C664 H659 0.949 . S
C664 C670 1.368 . S
C665 C649 1.349 . S
C665 H657 0.950 . S
C665 C663 1.327 . S
C666 C654 1.349 . S
C666 H660 0.950 . S
C666 C667 1.327 . S
C667 H661 0.950 . S
C667 C666 1.327 . S
C667 C671 1.429 . S
C668 C651 1.574 . S
C668 H662 0.949 . S
C668 C672 1.368 . S
C669 C650 1.429 . S
C669 C663 1.429 . S
C669 C670 1.523 . S
C670 C651 1.368 . S
C670 C664 1.368 . S
C670 C669 1.523 . S
C671 C655 1.429 . S
C671 C667 1.429 . S
C671 C672 1.523 1_545 S
C672 C656 1.368 . S
C672 C668 1.368 . S
C672 C671 1.523 1_565 S
H673 C648 0.950 . S
H674 C650 0.950 . S
H675 C651 0.949 . S
H676 C653 0.950 . S
H677 C655 0.950 . S
C678 C679 1.349 . S
C678 C680 1.327 . S
C678 H703 0.950 . S
C679 C678 1.349 . S
C679 C695 1.349 . S
C680 C678 1.327 . S
C680 C699 1.429 . S
C680 H704 0.951 1_655 S
C681 C698 1.574 . S
C681 C700 1.368 . S
C681 H705 0.949 . S
H682 C686 0.949 . S
C683 C684 1.349 . S
C683 C685 1.327 1_545 S
C683 H706 0.950 . S
C684 C683 1.349 . S
C684 C696 1.349 1_545 S
C685 C683 1.327 1_565 S
C685 C701 1.429 . S
C685 H707 0.950 . S
C686 H682 0.949 . S
C686 C694 1.574 . S
C686 C702 1.368 . S
H687 C695 0.950 . S
H688 C693 0.950 . S
H689 C694 0.949 . S
H690 C696 0.950 . S
H691 C697 0.950 . S
H692 C698 0.949 . S
C693 H688 0.950 . S
C693 C695 1.327 . S
C693 C699 1.429 . S
C694 C686 1.574 . S
C694 H689 0.949 . S
C694 C700 1.368 . S
C695 C679 1.349 . S
C695 H687 0.950 . S
C695 C693 1.327 . S
C696 C684 1.349 1_565 S
C696 H690 0.950 . S
C696 C697 1.327 . S
C697 H691 0.950 . S
C697 C696 1.327 . S
C697 C701 1.429 . S
C698 C681 1.574 . S
C698 H692 0.949 . S
C698 C702 1.368 . S
C699 C680 1.429 . S
C699 C693 1.429 . S
C699 C700 1.523 1_655 S
C700 C681 1.368 . S
C700 C694 1.368 . S
C700 C699 1.523 1_455 S
C701 C685 1.429 . S
C701 C697 1.429 . S
C701 C702 1.523 . S
C702 C686 1.368 . S
C702 C698 1.368 . S
C702 C701 1.523 . S
H703 C678 0.950 . S
H704 C680 0.951 1_455 S
H705 C681 0.949 . S
H706 C683 0.950 . S
H707 C685 0.950 . S
C708 C709 1.349 . S
C708 C710 1.327 . S
C708 H733 0.950 . S
C709 C708 1.349 . S
C709 C725 1.349 . S
C710 C708 1.327 . S
C710 C729 1.429 . S
C710 H734 0.950 . S
C711 C728 1.574 . S
C711 C730 1.368 . S
C711 H735 0.949 . S
H712 C716 0.949 . S
C713 C714 1.336 1_455 S
C713 C715 1.327 . S
C713 H736 0.950 1_455 S
C714 C713 1.336 1_655 S
C714 C726 1.337 1_655 S
C715 C713 1.327 . S
C715 C731 1.429 . S
C715 H737 0.950 . S
C716 H712 0.949 . S
C716 C724 1.574 . S
C716 C732 1.368 . S
H717 C725 0.950 . S
H718 C723 0.950 . S
H719 C724 0.949 . S
H720 C726 0.950 . S
H721 C727 0.950 . S
H722 C728 0.949 . S
C723 H718 0.950 . S
C723 C725 1.327 . S
C723 C729 1.429 . S
C724 C716 1.574 . S
C724 H719 0.949 . S
C724 C730 1.368 . S
C725 C709 1.349 . S
C725 H717 0.950 . S
C725 C723 1.327 . S
C726 C714 1.337 1_455 S
C726 H720 0.950 . S
C726 C727 1.327 . S
C727 H721 0.950 . S
C727 C726 1.327 . S
C727 C731 1.429 . S
C728 C711 1.574 . S
C728 H722 0.949 . S
C728 C732 1.368 . S
C729 C710 1.429 . S
C729 C723 1.429 . S
C729 C730 1.523 . S
C730 C711 1.368 . S
C730 C724 1.368 . S
C730 C729 1.523 . S
C731 C715 1.429 . S
C731 C727 1.429 . S
C731 C732 1.523 . S
C732 C716 1.368 . S
C732 C728 1.368 . S
C732 C731 1.523 . S
H733 C708 0.950 . S
H734 C710 0.950 . S
H735 C711 0.949 . S
H736 C713 0.950 1_655 S
H737 C715 0.950 . S
C738 C739 1.349 . S
C738 C740 1.327 . S
C738 H763 0.950 . S
C739 C738 1.349 . S
C739 C755 1.349 . S
C740 C738 1.327 . S
C740 C759 1.429 . S
C740 H764 0.950 . S
C741 C758 1.574 . S
C741 C760 1.368 . S
C741 H765 0.949 . S
H742 C746 0.949 . S
C743 C744 1.349 . S
C743 C745 1.327 . S
C743 H766 0.950 1_455 S
C744 C743 1.349 . S
C744 C756 1.349 . S
C745 C743 1.327 . S
C745 C761 1.429 . S
C745 H767 0.950 1_455 S
C746 H742 0.949 . S
C746 C754 1.574 . S
C746 C762 1.368 . S
H747 C755 0.950 . S
H748 C753 0.950 . S
H749 C754 0.949 . S
H750 C756 0.950 . S
H751 C757 0.950 . S
H752 C758 0.949 1_655 S
C753 H748 0.950 . S
C753 C755 1.327 . S
C753 C759 1.429 . S
C754 C746 1.574 . S
C754 H749 0.949 . S
C754 C760 1.368 . S
C755 C739 1.349 . S
C755 H747 0.950 . S
C755 C753 1.327 . S
C756 C744 1.349 . S
C756 H750 0.950 . S
C756 C757 1.327 . S
C757 H751 0.950 . S
C757 C756 1.327 . S
C757 C761 1.429 . S
C758 C741 1.574 . S
C758 H752 0.949 1_455 S
C758 C762 1.368 . S
C759 C740 1.429 . S
C759 C753 1.429 . S
C759 C760 1.523 . S
C760 C741 1.368 . S
C760 C754 1.368 . S
C760 C759 1.523 . S
C761 C745 1.429 . S
C761 C757 1.429 . S
C761 C762 1.523 . S
C762 C746 1.368 . S
C762 C758 1.368 . S
C762 C761 1.523 . S
H763 C738 0.950 . S
H764 C740 0.950 . S
H765 C741 0.949 . S
H766 C743 0.950 1_655 S
H767 C745 0.950 1_655 S
C768 C769 1.349 . S
C768 C770 1.327 . S
C768 H793 0.950 . S
C769 C768 1.349 . S
C769 C785 1.349 . S
C770 C768 1.327 . S
C770 C789 1.429 . S
C770 H794 0.950 . S
C771 C788 1.574 . S
C771 C790 1.368 . S
C771 H795 0.949 . S
H772 C776 0.949 . S
C773 C774 1.349 . S
C773 C775 1.327 . S
C773 H796 0.950 . S
C774 C773 1.349 . S
C774 C786 1.349 . S
C775 C773 1.327 . S
C775 C791 1.429 . S
C775 H797 0.950 . S
C776 H772 0.949 . S
C776 C784 1.574 . S
C776 C792 1.368 . S
H777 C785 0.950 . S
H778 C783 0.950 . S
H779 C784 0.949 . S
H780 C786 0.950 . S
H781 C787 0.950 . S
H782 C788 0.949 . S
C783 H778 0.950 . S
C783 C785 1.327 . S
C783 C789 1.429 . S
C784 C776 1.574 . S
C784 H779 0.949 . S
C784 C790 1.368 . S
C785 C769 1.349 . S
C785 H777 0.950 . S
C785 C783 1.327 . S
C786 C774 1.349 . S
C786 H780 0.950 . S
C786 C787 1.327 . S
C787 H781 0.950 . S
C787 C786 1.327 . S
C787 C791 1.429 . S
C788 C771 1.574 . S
C788 H782 0.949 . S
C788 C792 1.368 . S
C789 C770 1.429 . S
C789 C783 1.429 . S
C789 C790 1.523 . S
C790 C771 1.368 . S
C790 C784 1.368 . S
C790 C789 1.523 . S
C791 C775 1.429 . S
C791 C787 1.429 . S
C791 C792 1.523 . S
C792 C776 1.368 . S
C792 C788 1.368 . S
C792 C791 1.523 . S
H793 C768 0.950 . S
H794 C770 0.950 . S
H795 C771 0.949 . S
H796 C773 0.950 . S
H797 C775 0.950 . S
C798 C799 1.349 1_545 S
C798 C800 1.327 . S
C798 H823 0.950 . S
C799 C798 1.349 1_565 S
C799 C815 1.349 . S
C800 C798 1.327 . S
C800 C819 1.425 1_545 S
C800 H824 0.953 . S
C801 C818 1.574 . S
C801 C820 1.368 . S
C801 H825 0.949 . S
H802 C806 0.949 1_545 S
C803 C804 1.349 . S
C803 C805 1.327 . S
C803 H826 0.950 . S
C804 C803 1.349 . S
C804 C816 1.349 . S
C805 C803 1.327 . S
C805 C821 1.429 . S
C805 H827 0.950 . S
C806 H802 0.949 1_565 S
C806 C814 1.574 . S
C806 C822 1.368 . S
H807 C815 0.950 . S
H808 C813 0.950 . S
H809 C814 0.949 1_545 S
H810 C816 0.950 . S
H811 C817 0.950 . S
H812 C818 0.949 . S
C813 H808 0.950 . S
C813 C815 1.327 . S
C813 C819 1.429 . S
C814 C806 1.574 . S
C814 H809 0.949 1_565 S
C814 C820 1.368 . S
C815 C799 1.349 . S
C815 H807 0.950 . S
C815 C813 1.327 . S
C816 C804 1.349 . S
C816 H810 0.950 . S
C816 C817 1.327 . S
C817 H811 0.950 . S
C817 C816 1.327 . S
C817 C821 1.429 . S
C818 C801 1.574 . S
C818 H812 0.949 . S
C818 C822 1.368 . S
C819 C800 1.425 1_565 S
C819 C813 1.429 . S
C819 C820 1.523 . S
C820 C801 1.368 . S
C820 C814 1.368 . S
C820 C819 1.523 . S
C821 C805 1.429 . S
C821 C817 1.429 . S
C821 C822 1.523 . S
C822 C806 1.368 . S
C822 C818 1.368 . S
C822 C821 1.523 . S
H823 C798 0.950 . S
H824 C800 0.953 . S
H825 C801 0.949 . S
H826 C803 0.950 . S
H827 C805 0.950 . S
C828 C829 1.349 . S
C828 C830 1.327 . S
C828 H853 0.950 . S
C829 C828 1.349 . S
C829 C845 1.349 . S
C830 C828 1.327 . S
C830 C849 1.429 . S
C830 H854 0.950 . S
C831 C848 1.574 . S
C831 C850 1.368 . S
C831 H855 0.949 . S
H832 C836 0.949 . S
C833 C834 1.349 . S
C833 C835 1.327 . S
C833 H856 0.950 . S
C834 C833 1.349 . S
C834 C846 1.349 . S
C835 C833 1.327 . S
C835 C851 1.429 . S
C835 H857 0.950 . S
C836 H832 0.949 . S
C836 C844 1.574 . S
C836 C852 1.368 . S
H837 C845 0.950 1_565 S
H838 C843 0.950 1_565 S
H839 C844 0.949 . S
H840 C846 0.950 . S
H841 C847 0.950 . S
H842 C848 0.949 . S
C843 H838 0.950 1_545 S
C843 C845 1.327 . S
C843 C849 1.429 . S
C844 C836 1.574 . S
C844 H839 0.949 . S
C844 C850 1.368 . S
C845 C829 1.349 . S
C845 H837 0.950 1_545 S
C845 C843 1.327 . S
C846 C834 1.349 . S
C846 H840 0.950 . S
C846 C847 1.327 . S
C847 H841 0.950 . S
C847 C846 1.327 . S
C847 C851 1.429 . S
C848 C831 1.574 . S
C848 H842 0.949 . S
C848 C852 1.368 . S
C849 C830 1.429 . S
C849 C843 1.429 . S
C849 C850 1.523 . S
C850 C831 1.368 . S
C850 C844 1.368 . S
C850 C849 1.523 . S
C851 C835 1.429 . S
C851 C847 1.429 . S
C851 C852 1.523 . S
C852 C836 1.368 . S
C852 C848 1.368 . S
C852 C851 1.523 . S
H853 C828 0.950 . S
H854 C830 0.950 . S
H855 C831 0.949 . S
H856 C833 0.950 . S
H857 C835 0.950 . S
C858 C859 1.349 1_455 S
C858 C860 1.327 1_455 S
C858 H883 0.950 . S
C859 C858 1.349 1_655 S
C859 C875 1.349 . S
C860 C858 1.327 1_655 S
C860 C879 1.429 . S
C860 H884 0.950 1_655 S
C861 C878 1.574 . S
C861 C880 1.368 . S
C861 H885 0.949 . S
H862 C866 0.949 . S
C863 C864 1.349 . S
C863 C865 1.327 . S
C863 H886 0.950 . S
C864 C863 1.349 . S
C864 C876 1.349 . S
C865 C863 1.327 . S
C865 C881 1.429 . S
C865 H887 0.950 . S
C866 H862 0.949 . S
C866 C874 1.574 . S
C866 C882 1.368 . S
H867 C875 0.950 . S
H868 C873 0.950 . S
H869 C874 0.949 1_455 S
H870 C876 0.950 . S
H871 C877 0.950 . S
H872 C878 0.949 . S
C873 H868 0.950 . S
C873 C875 1.327 . S
C873 C879 1.429 . S
C874 C866 1.574 . S
C874 H869 0.949 1_655 S
C874 C880 1.368 . S
C875 C859 1.349 . S
C875 H867 0.950 . S
C875 C873 1.327 . S
C876 C864 1.349 . S
C876 H870 0.950 . S
C876 C877 1.327 . S
C877 H871 0.950 . S
C877 C876 1.327 . S
C877 C881 1.429 . S
C878 C861 1.574 . S
C878 H872 0.949 . S
C878 C882 1.368 . S
C879 C860 1.429 . S
C879 C873 1.429 . S
C879 C880 1.523 . S
C880 C861 1.368 . S
C880 C874 1.368 . S
C880 C879 1.523 . S
C881 C865 1.429 . S
C881 C877 1.429 . S
C881 C882 1.523 . S
C882 C866 1.368 . S
C882 C878 1.368 . S
C882 C881 1.523 . S
H883 C858 0.950 . S
H884 C860 0.950 1_455 S
H885 C861 0.949 . S
H886 C863 0.950 . S
H887 C865 0.950 . S
C888 C889 1.349 . S
C888 C890 1.327 . S
C888 H913 0.950 . S
C889 C888 1.349 . S
C889 C905 1.349 . S
C890 C888 1.327 . S
C890 C909 1.429 . S
C890 H914 0.950 . S
C891 C908 1.574 . S
C891 C910 1.368 . S
C891 H915 0.949 . S
H892 C896 0.949 . S
C893 C894 1.349 . S
C893 C895 1.327 . S
C893 H916 0.950 . S
C894 C893 1.349 . S
C894 C906 1.349 . S
C895 C893 1.327 . S
C895 C911 1.429 . S
C895 H917 0.950 . S
C896 H892 0.949 . S
C896 C904 1.574 . S
C896 C912 1.368 . S
H897 C905 0.950 . S
H898 C903 0.950 . S
H899 C904 0.949 . S
H900 C906 0.950 . S
H901 C907 0.950 . S
H902 C908 0.949 . S
C903 H898 0.950 . S
C903 C905 1.327 . S
C903 C909 1.429 . S
C904 C896 1.574 . S
C904 H899 0.949 . S
C904 C910 1.368 . S
C905 C889 1.349 . S
C905 H897 0.950 . S
C905 C903 1.327 . S
C906 C894 1.349 . S
C906 H900 0.950 . S
C906 C907 1.327 . S
C907 H901 0.950 . S
C907 C906 1.327 . S
C907 C911 1.429 . S
C908 C891 1.574 . S
C908 H902 0.949 . S
C908 C912 1.368 . S
C909 C890 1.429 . S
C909 C903 1.429 . S
C909 C910 1.523 . S
C910 C891 1.368 . S
C910 C904 1.368 . S
C910 C909 1.523 . S
C911 C895 1.429 . S
C911 C907 1.429 . S
C911 C912 1.523 . S
C912 C896 1.368 . S
C912 C908 1.368 . S
C912 C911 1.523 . S
H913 C888 0.950 . S
H914 C890 0.950 . S
H915 C891 0.949 . S
H916 C893 0.950 . S
H917 C895 0.950 . S
C918 C919 1.349 . S
C918 C920 1.327 . S
C918 H943 0.950 . S
C919 C918 1.349 . S
C919 C935 1.349 . S
C920 C918 1.327 . S
C920 C939 1.429 . S
C920 H944 0.950 . S
C921 C938 1.574 . S
C921 C940 1.368 . S
C921 H945 0.949 . S
H922 C926 0.949 . S
C923 C924 1.349 . S
C923 C925 1.327 . S
C923 H946 0.950 . S
C924 C923 1.349 . S
C924 C936 1.349 . S
C925 C923 1.327 . S
C925 C941 1.429 . S
C925 H947 0.950 . S
C926 H922 0.949 . S
C926 C934 1.574 . S
C926 C942 1.368 . S
H927 C935 0.950 . S
H928 C933 0.950 . S
H929 C934 0.949 . S
H930 C936 0.950 . S
H931 C937 0.950 . S
H932 C938 0.949 . S
C933 H928 0.950 . S
C933 C935 1.327 . S
C933 C939 1.429 . S
C934 C926 1.574 . S
C934 H929 0.949 . S
C934 C940 1.368 . S
C935 C919 1.349 . S
C935 H927 0.950 . S
C935 C933 1.327 . S
C936 C924 1.349 . S
C936 H930 0.950 . S
C936 C937 1.327 . S
C937 H931 0.950 . S
C937 C936 1.327 . S
C937 C941 1.429 . S
C938 C921 1.574 . S
C938 H932 0.949 . S
C938 C942 1.368 . S
C939 C920 1.429 . S
C939 C933 1.429 . S
C939 C940 1.523 . S
C940 C921 1.368 . S
C940 C934 1.368 . S
C940 C939 1.523 . S
C941 C925 1.429 . S
C941 C937 1.429 . S
C941 C942 1.523 . S
C942 C926 1.368 . S
C942 C938 1.368 . S
C942 C941 1.523 . S
H943 C918 0.950 . S
H944 C920 0.950 . S
H945 C921 0.949 . S
H946 C923 0.950 . S
H947 C925 0.950 . S
C948 C949 1.349 . S
C948 C950 1.327 . S
C948 H973 0.950 . S
C949 C948 1.349 . S
C949 C965 1.349 . S
C950 C948 1.327 . S
C950 C969 1.429 . S
C950 H974 0.950 1_565 S
C951 C968 1.574 . S
C951 C970 1.368 . S
C951 H975 0.949 . S
H952 C956 0.949 . S
C953 C954 1.349 . S
C953 C955 1.327 . S
C953 H976 0.950 . S
C954 C953 1.349 . S
C954 C966 1.349 . S
C955 C953 1.327 . S
C955 C971 1.429 . S
C955 H977 0.950 1_545 S
C956 H952 0.949 . S
C956 C964 1.574 . S
C956 C972 1.368 . S
H957 C965 0.950 . S
H958 C963 0.950 . S
H959 C964 0.949 . S
H960 C966 0.950 . S
H961 C967 0.950 . S
H962 C968 0.949 . S
C963 H958 0.950 . S
C963 C965 1.327 . S
C963 C969 1.429 . S
C964 C956 1.574 . S
C964 H959 0.949 . S
C964 C970 1.368 1_545 S
C965 C949 1.349 . S
C965 H957 0.950 . S
C965 C963 1.327 . S
C966 C954 1.349 . S
C966 H960 0.950 . S
C966 C967 1.327 . S
C967 H961 0.950 . S
C967 C966 1.327 . S
C967 C971 1.429 . S
C968 C951 1.574 . S
C968 H962 0.949 . S
C968 C972 1.368 1_565 S
C969 C950 1.429 . S
C969 C963 1.429 . S
C969 C970 1.523 . S
C970 C951 1.368 . S
C970 C964 1.368 1_565 S
C970 C969 1.523 . S
C971 C955 1.429 . S
C971 C967 1.429 . S
C971 C972 1.523 . S
C972 C956 1.368 . S
C972 C968 1.368 1_545 S
C972 C971 1.523 . S
H973 C948 0.950 . S
H974 C950 0.950 1_545 S
H975 C951 0.949 . S
H976 C953 0.950 . S
H977 C955 0.950 1_565 S
C978 C979 1.349 . S
C978 C980 1.327 . S
C978 H1003 0.950 . S
C979 C978 1.349 . S
C979 C995 1.349 . S
C980 C978 1.327 . S
C980 C999 1.429 . S
C980 H1004 0.950 . S
C981 C998 1.574 1_655 S
C981 C1000 1.368 . S
C981 H1005 0.949 . S
H982 C986 0.949 . S
C983 C984 1.349 . S
C983 C985 1.327 . S
C983 H1006 0.950 . S
C984 C983 1.349 . S
C984 C996 1.349 . S
C985 C983 1.327 . S
C985 C1001 1.429 . S
C985 H1007 0.950 . S
C986 H982 0.949 . S
C986 C994 1.574 . S
C986 C1002 1.368 . S
H987 C995 0.950 . S
H988 C993 0.950 . S
H989 C994 0.949 . S
H990 C996 0.950 . S
H991 C997 0.950 . S
H992 C998 0.949 . S
C993 H988 0.950 . S
C993 C995 1.327 . S
C993 C999 1.429 . S
C994 C986 1.574 . S
C994 H989 0.949 . S
C994 C1000 1.368 1_455 S
C995 C979 1.349 . S
C995 H987 0.950 . S
C995 C993 1.327 . S
C996 C984 1.349 . S
C996 H990 0.950 . S
C996 C997 1.327 . S
C997 H991 0.950 . S
C997 C996 1.327 . S
C997 C1001 1.429 . S
C998 C981 1.574 1_455 S
C998 H992 0.949 . S
C998 C1002 1.368 . S
C999 C980 1.429 . S
C999 C993 1.429 . S
C999 C1000 1.523 . S
C1000 C981 1.368 . S
C1000 C994 1.368 1_655 S
C1000 C999 1.523 . S
C1001 C985 1.429 . S
C1001 C997 1.429 . S
C1001 C1002 1.523 . S
C1002 C986 1.368 . S
C1002 C998 1.368 . S
C1002 C1001 1.523 . S
H1003 C978 0.950 . S
H1004 C980 0.950 . S
H1005 C981 0.949 . S
H1006 C983 0.950 . S
H1007 C985 0.950 . S
C199 C26 1.253 . S
C204 C5 1.316 . S
C229 C48 1.253 . S
C234 C27 1.316 . S
C259 C49 1.316 . S
C264 C4 1.253 . S
C289 C53 1.316 . S
C294 C30 1.253 . S
C319 C52 1.253 . S
C324 C9 1.316 . S
C349 C8 1.253 . S
C354 C31 1.316 . S
C379 C71 1.316 . S
C384 C92 1.253 . S
C409 C114 1.253 . S
C414 C93 1.330 . S
C439 C115 1.316 . S
C444 C70 1.253 . S
C469 C96 1.253 . S
C474 C119 1.316 . S
C499 C118 1.253 . S
C504 C75 1.316 . S
C529 C97 1.316 . S
C534 C74 1.253 . S
C559 C158 1.253 . S
C564 C137 1.316 . S
C589 C159 1.316 . S
C594 C180 1.253 . S
C619 C181 1.316 . S
C624 C136 1.253 . S
C649 C185 1.316 . S
C654 C162 1.253 . S
C679 C184 1.253 . S
C684 C141 1.316 . S
C709 C140 1.253 . S
C714 C163 1.341 . S
C739 C117 1.350 . S
C744 C6 1.350 . S
C769 C73 1.350 . S
C774 C28 1.350 . S
C799 C50 1.350 . S
C804 C95 1.350 . S
C829 C51 1.350 . S
C834 C138 1.350 . S
C859 C7 1.350 . S
C864 C160 1.350 . S
C889 C182 1.350 . S
C894 C29 1.350 . S
C919 C72 1.350 . S
C924 C183 1.350 . S
C949 C94 1.350 . S
C954 C139 1.350 . S
C979 C161 1.350 . S
C984 C116 1.350 . S
