# Generated by pormake.
# Topology uol, (4)-cn, num edge types: 1
# Building blocks:
#     Node 0, Type 0, BuildingBlock: QUQFOY_clean_sbu_3, # of connection points: 4
#     Node 1, Type 0, BuildingBlock: QUQFOY_clean_sbu_3, # of connection points: 4
#     Node 2, Type 0, BuildingBlock: QUQFOY_clean_sbu_3, # of connection points: 4
#     Node 3, Type 0, BuildingBlock: QUQFOY_clean_sbu_3, # of connection points: 4
#     Node 4, Type 0, BuildingBlock: QUQFOY_clean_sbu_3, # of connection points: 4
#     Node 5, Type 0, BuildingBlock: QUQFOY_clean_sbu_3, # of connection points: 4
#     Node 6, Type 0, BuildingBlock: QUQFOY_clean_sbu_3, # of connection points: 4
#     Node 7, Type 0, BuildingBlock: QUQFOY_clean_sbu_3, # of connection points: 4
#     Node 8, Type 0, BuildingBlock: QUQFOY_clean_sbu_3, # of connection points: 4
#     Node 9, Type 0, BuildingBlock: QUQFOY_clean_sbu_3, # of connection points: 4
#     Node 10, Type 0, BuildingBlock: QUQFOY_clean_sbu_3, # of connection points: 4
#     Node 11, Type 0, BuildingBlock: QUQFOY_clean_sbu_3, # of connection points: 4
#     Edge 12, Type (0, 0), BuildingBlock: MIFKUJ_clean_linker_0, # of connection points: 2
#     Edge 13, Type (0, 0), BuildingBlock: MIFKUJ_clean_linker_0, # of connection points: 2
#     Edge 14, Type (0, 0), BuildingBlock: MIFKUJ_clean_linker_0, # of connection points: 2
#     Edge 15, Type (0, 0), BuildingBlock: MIFKUJ_clean_linker_0, # of connection points: 2
#     Edge 16, Type (0, 0), BuildingBlock: MIFKUJ_clean_linker_0, # of connection points: 2
#     Edge 17, Type (0, 0), BuildingBlock: MIFKUJ_clean_linker_0, # of connection points: 2
#     Edge 18, Type (0, 0), BuildingBlock: MIFKUJ_clean_linker_0, # of connection points: 2
#     Edge 19, Type (0, 0), BuildingBlock: MIFKUJ_clean_linker_0, # of connection points: 2
#     Edge 20, Type (0, 0), BuildingBlock: MIFKUJ_clean_linker_0, # of connection points: 2
#     Edge 21, Type (0, 0), BuildingBlock: MIFKUJ_clean_linker_0, # of connection points: 2
#     Edge 22, Type (0, 0), BuildingBlock: MIFKUJ_clean_linker_0, # of connection points: 2
#     Edge 23, Type (0, 0), BuildingBlock: MIFKUJ_clean_linker_0, # of connection points: 2
#     Edge 24, Type (0, 0), BuildingBlock: MIFKUJ_clean_linker_0, # of connection points: 2
#     Edge 25, Type (0, 0), BuildingBlock: MIFKUJ_clean_linker_0, # of connection points: 2
#     Edge 26, Type (0, 0), BuildingBlock: MIFKUJ_clean_linker_0, # of connection points: 2
#     Edge 27, Type (0, 0), BuildingBlock: MIFKUJ_clean_linker_0, # of connection points: 2
#     Edge 28, Type (0, 0), BuildingBlock: MIFKUJ_clean_linker_0, # of connection points: 2
#     Edge 29, Type (0, 0), BuildingBlock: MIFKUJ_clean_linker_0, # of connection points: 2
#     Edge 30, Type (0, 0), BuildingBlock: MIFKUJ_clean_linker_0, # of connection points: 2
#     Edge 31, Type (0, 0), BuildingBlock: MIFKUJ_clean_linker_0, # of connection points: 2
#     Edge 32, Type (0, 0), BuildingBlock: MIFKUJ_clean_linker_0, # of connection points: 2
#     Edge 33, Type (0, 0), BuildingBlock: MIFKUJ_clean_linker_0, # of connection points: 2
#     Edge 34, Type (0, 0), BuildingBlock: MIFKUJ_clean_linker_0, # of connection points: 2
#     Edge 35, Type (0, 0), BuildingBlock: MIFKUJ_clean_linker_0, # of connection points: 2
# Relax obj value: 0.117
# Max RMSD: 0.170
# Mean RMSD: 0.170
data_MOF--net-uol--node1-QUQFOY_clean_sbu_3--edge1-MIFKUJ_clean_linker_0
_symmetry_space_group_name_H-M    P1
_symmetry_Int_Tables_number       1
_symmetry_cell_setting            triclinic
loop_
_symmetry_equiv_pos_as_xyz
'x, y, z'
_cell_length_a     43.553951
_cell_length_b     43.727829
_cell_length_c     87.684937
_cell_angle_alpha  89.967593
_cell_angle_beta   90.05252
_cell_angle_gamma 119.94075
loop_
_atom_site_label
_atom_site_type_symbol
_atom_site_fract_x
_atom_site_fract_y
_atom_site_fract_z
_atom_type_partial_charge
C0 C 0.10777 0.28962 0.05221 0.0
O1 O 0.08314 0.26084 0.05765 0.0
Cd2 Cd 0.06133 0.25499 0.08333 0.0
O3 O 0.12182 0.31767 0.06021 0.0
Cd4 Cd 0.11786 0.34 0.08557 0.0
C5 C 0.14064 0.28448 0.10265 0.0
O6 O 0.05353 0.30434 0.08818 0.0
O7 O 0.08199 0.33597 0.10759 0.0
O8 O 0.12922 0.39146 0.07074 0.0
C9 C 0.05259 0.31369 0.10178 0.0
O10 O 0.1098 0.25988 0.09894 0.0
C11 C 0.15095 0.41396 0.08012 0.0
O12 O 0.15157 0.31634 0.09865 0.0
O13 O 0.15784 0.40213 0.0921 0.0
C14 C 0.81143 0.11296 0.2195 0.0
O15 O 0.81421 0.08747 0.22489 0.0
Cd16 Cd 0.79316 0.06164 0.24966 0.0
O17 O 0.79585 0.12612 0.22706 0.0
Cd18 Cd 0.76491 0.11745 0.25162 0.0
C19 C 0.83934 0.13715 0.27126 0.0
O20 O 0.73508 0.05285 0.25312 0.0
O21 O 0.73429 0.08043 0.27334 0.0
O22 O 0.72248 0.12848 0.23819 0.0
C23 C 0.72512 0.05125 0.26684 0.0
O24 O 0.83298 0.10623 0.26776 0.0
C25 C 0.72338 0.15064 0.2478 0.0
O26 O 0.82049 0.14948 0.26592 0.0
O27 O 0.74439 0.15811 0.25902 0.0
C28 C 0.69224 0.82177 0.38472 0.0
O29 O 0.72204 0.82966 0.39054 0.0
Cd30 Cd 0.73064 0.81008 0.41514 0.0
O31 O 0.66356 0.80244 0.39194 0.0
Cd32 Cd 0.64271 0.77092 0.41642 0.0
C33 C 0.69103 0.84402 0.43849 0.0
O34 O 0.6851 0.75039 0.41779 0.0
O35 O 0.64954 0.73687 0.43689 0.0
O36 O 0.59356 0.72235 0.40344 0.0
C37 C 0.67556 0.73615 0.43082 0.0
O38 O 0.7184 0.84306 0.43407 0.0
C39 C 0.56941 0.72402 0.41085 0.0
O40 O 0.6604 0.82251 0.43315 0.0
O41 O 0.57932 0.74826 0.42081 0.0
C42 C 0.86583 0.69944 0.55396 0.0
O43 O 0.89227 0.72688 0.55939 0.0
Cd44 Cd 0.91575 0.72955 0.58452 0.0
O45 O 0.85163 0.67054 0.56138 0.0
Cd46 Cd 0.8599 0.64551 0.58531 0.0
C47 C 0.83902 0.69737 0.60616 0.0
O48 O 0.92443 0.68045 0.58788 0.0
O49 O 0.89514 0.65133 0.60771 0.0
O50 O 0.85719 0.59606 0.57169 0.0
C51 C 0.92494 0.67157 0.60162 0.0
O52 O 0.86963 0.72233 0.60239 0.0
C53 C 0.83091 0.57216 0.57892 0.0
O54 O 0.82692 0.66637 0.60075 0.0
O55 O 0.81712 0.58232 0.58906 0.0
C56 C 0.15766 0.86543 0.71911 0.0
O57 O 0.15274 0.88989 0.72412 0.0
Cd58 Cd 0.1672 0.91172 0.74979 0.0
O59 O 0.17198 0.85226 0.72752 0.0
Cd60 Cd 0.19824 0.85883 0.75315 0.0
C61 C 0.11852 0.83262 0.76919 0.0
O62 O 0.22558 0.92312 0.75568 0.0
O63 O 0.22329 0.89404 0.77593 0.0
O64 O 0.24221 0.85169 0.73913 0.0
C65 C 0.23293 0.92363 0.76973 0.0
O66 O 0.12402 0.86312 0.76544 0.0
C67 C 0.24421 0.83073 0.74855 0.0
O68 O 0.14032 0.8225 0.76538 0.0
O69 O 0.2244 0.82226 0.76025 0.0
C70 C 0.27849 0.16702 0.88409 0.0
O71 O 0.24957 0.16377 0.889 0.0
Cd72 Cd 0.24209 0.18014 0.91437 0.0
O73 O 0.30603 0.18059 0.89248 0.0
Cd74 Cd 0.32564 0.2069 0.91804 0.0
C75 C 0.26832 0.12962 0.93503 0.0
O76 O 0.29086 0.23662 0.92066 0.0
O77 O 0.31641 0.23208 0.94097 0.0
O78 O 0.37766 0.25506 0.90652 0.0
C79 C 0.29756 0.24324 0.93477 0.0
O80 O 0.24453 0.13686 0.93102 0.0
C81 C 0.40024 0.25131 0.91422 0.0
O82 O 0.30052 0.14921 0.93096 0.0
O83 O 0.38818 0.22601 0.92376 0.0
C84 C 0.68753 0.86372 0.76297 0.0
O85 O 0.7159 0.89083 0.75868 0.0
Cd86 Cd 0.72368 0.9136 0.73317 0.0
O87 O 0.66053 0.84949 0.75425 0.0
Cd88 Cd 0.64028 0.85935 0.72929 0.0
C89 C 0.69508 0.83632 0.71237 0.0
O90 O 0.67607 0.92395 0.72763 0.0
O91 O 0.65031 0.89603 0.70701 0.0
O92 O 0.58798 0.85107 0.74276 0.0
C93 C 0.66949 0.92531 0.71362 0.0
O94 O 0.71975 0.86653 0.7167 0.0
C95 C 0.56577 0.82958 0.73321 0.0
O96 O 0.66294 0.82546 0.71602 0.0
O97 O 0.57817 0.8212 0.72186 0.0
C98 C 0.81487 0.69255 0.92723 0.0
O99 O 0.81741 0.7209 0.92208 0.0
Cd100 Cd 0.79556 0.72641 0.89757 0.0
O101 O 0.79825 0.66373 0.91981 0.0
Cd102 Cd 0.76282 0.63943 0.8963 0.0
C103 C 0.8346 0.69111 0.87426 0.0
O104 O 0.73738 0.67761 0.89575 0.0
O105 O 0.72629 0.64421 0.87612 0.0
O106 O 0.71876 0.58942 0.91073 0.0
C107 C 0.72305 0.66822 0.88273 0.0
O108 O 0.83119 0.71705 0.87866 0.0
C109 C 0.71996 0.56596 0.90264 0.0
O110 O 0.8147 0.66011 0.87952 0.0
O111 O 0.74187 0.5767 0.89163 0.0
C112 C 0.11028 0.81559 0.0927 0.0
O113 O 0.08279 0.81622 0.08829 0.0
Cd114 Cd 0.05463 0.79603 0.06382 0.0
O115 O 0.12424 0.80176 0.08446 0.0
Cd116 Cd 0.11451 0.76922 0.0602 0.0
C117 C 0.12764 0.84141 0.04002 0.0
O118 O 0.05055 0.74043 0.06065 0.0
O119 O 0.07273 0.73008 0.04079 0.0
O120 O 0.13012 0.73122 0.07438 0.0
C121 C 0.0454 0.72608 0.04765 0.0
O122 O 0.09787 0.83574 0.04518 0.0
C123 C 0.15151 0.73155 0.06445 0.0
O124 O 0.14079 0.82235 0.04416 0.0
O125 O 0.1565 0.75033 0.05264 0.0
C126 C 0.27144 0.10739 0.25815 0.0
O127 O 0.24339 0.08276 0.25213 0.0
Cd128 Cd 0.24011 0.05671 0.22757 0.0
O129 O 0.30119 0.11993 0.25135 0.0
Cd130 Cd 0.32734 0.1117 0.22774 0.0
C131 C 0.27633 0.13252 0.20548 0.0
O132 O 0.28968 0.04809 0.22711 0.0
O133 O 0.32532 0.07044 0.20818 0.0
O134 O 0.37834 0.12527 0.24375 0.0
C135 C 0.30059 0.04319 0.21447 0.0
O136 O 0.25018 0.10249 0.20903 0.0
C137 C 0.40125 0.14529 0.23405 0.0
O138 O 0.30684 0.14352 0.21138 0.0
O139 O 0.38972 0.15032 0.22154 0.0
C140 C 0.15244 0.27769 0.42563 0.0
O141 O 0.15013 0.24979 0.42006 0.0
Cd142 Cd 0.17221 0.24604 0.39536 0.0
O143 O 0.16867 0.30685 0.41844 0.0
Cd144 Cd 0.2026 0.33196 0.3947 0.0
C145 C 0.12945 0.27982 0.37357 0.0
O146 O 0.22998 0.29544 0.3926 0.0
O147 O 0.23569 0.32804 0.3732 0.0
O148 O 0.24751 0.38153 0.40893 0.0
C149 C 0.24159 0.30505 0.37916 0.0
O150 O 0.13398 0.25431 0.37758 0.0
C151 C 0.24592 0.40516 0.40112 0.0
O152 O 0.1494 0.31093 0.37871 0.0
O153 O 0.22317 0.39469 0.39042 0.0
C154 C 0.85768 0.16035 0.59671 0.0
O155 O 0.88199 0.15596 0.59101 0.0
Cd156 Cd 0.90016 0.16819 0.56477 0.0
O157 O 0.84243 0.17321 0.58872 0.0
Cd158 Cd 0.84465 0.19672 0.56283 0.0
C159 C 0.81825 0.11657 0.54755 0.0
O160 O 0.90814 0.22408 0.55724 0.0
O161 O 0.87316 0.21605 0.5383 0.0
O162 O 0.8462 0.24739 0.57454 0.0
C163 C 0.90453 0.22767 0.54308 0.0
O164 O 0.84972 0.1235 0.55056 0.0
C165 C 0.81944 0.24496 0.56766 0.0
O166 O 0.80737 0.13757 0.55164 0.0
O167 O 0.80333 0.21917 0.5585 0.0
H168 H 0.18236 0.71228 0.04221 0.0
H169 H 0.19772 0.6656 0.04375 0.0
H170 H 0.17082 0.65172 0.09153 0.0
H171 H 0.15498 0.69802 0.09007 0.0
H172 H 0.23232 0.64405 0.0828 0.0
H173 H 0.10863 0.60337 0.06948 0.0
H174 H 0.06239 0.60456 0.05365 0.0
H175 H 0.10416 0.58111 0.01381 0.0
H176 H 0.15101 0.58033 0.0294 0.0
H177 H 0.17193 0.46562 0.10158 0.0
H178 H 0.18658 0.52666 0.0975 0.0
H179 H 0.1785 0.50948 0.0488 0.0
H180 H 0.16167 0.4478 0.05296 0.0
H181 H 0.1425 0.53733 0.05542 0.0
H182 H 0.26003 0.5675 0.06865 0.0
H183 H 0.30791 0.56742 0.08363 0.0
H184 H 0.28229 0.61167 0.12193 0.0
H185 H 0.23391 0.61158 0.10726 0.0
C186 C 0.18056 0.69991 0.05313 0.0
C187 C 0.16704 0.70843 0.06598 0.0
C188 C 0.18938 0.67331 0.05399 0.0
C189 C 0.18516 0.65518 0.06773 0.0
C190 C 0.17435 0.66555 0.08085 0.0
C191 C 0.16509 0.69181 0.07996 0.0
C192 C 0.1869 0.6223 0.06798 0.0
C193 C 0.21278 0.62058 0.07686 0.0
C194 C 0.16192 0.59215 0.05988 0.0
C195 C 0.13353 0.59222 0.05056 0.0
C196 C 0.10812 0.59876 0.05733 0.0
C197 C 0.08178 0.59932 0.04841 0.0
C198 C 0.08041 0.59303 0.03273 0.0
C199 C 0.1053 0.58606 0.02595 0.0
C200 C 0.13174 0.58555 0.03482 0.0
C201 C 0.17396 0.47513 0.09001 0.0
C202 C 0.16545 0.45204 0.07759 0.0
C203 C 0.18261 0.51015 0.08766 0.0
C204 C 0.184 0.52298 0.07281 0.0
C205 C 0.17746 0.50028 0.06037 0.0
C206 C 0.16791 0.46506 0.06274 0.0
C207 C 0.18801 0.55846 0.07035 0.0
C208 C 0.16283 0.56073 0.06113 0.0
C209 C 0.21403 0.58913 0.07798 0.0
C210 C 0.24315 0.5893 0.08687 0.0
C211 C 0.26442 0.57699 0.0803 0.0
C212 C 0.29169 0.57701 0.08874 0.0
C213 C 0.29809 0.58947 0.10373 0.0
C214 C 0.27729 0.60202 0.11031 0.0
C215 C 0.24997 0.60203 0.10193 0.0
H216 H 0.31921 0.58947 0.11024 0.0
H217 H 0.06 0.59347 0.02584 0.0
H218 H 0.7045 0.18119 0.27026 0.0
H219 H 0.65643 0.19488 0.2694 0.0
H220 H 0.63864 0.16513 0.22196 0.0
H221 H 0.68621 0.15076 0.22278 0.0
H222 H 0.6321 0.22775 0.23104 0.0
H223 H 0.59208 0.10449 0.24424 0.0
H224 H 0.59423 0.05875 0.25992 0.0
H225 H 0.57273 0.10089 0.30013 0.0
H226 H 0.57099 0.14725 0.28469 0.0
H227 H 0.45332 0.16626 0.21277 0.0
H228 H 0.51459 0.18126 0.21693 0.0
H229 H 0.49711 0.17293 0.26561 0.0
H230 H 0.43505 0.15582 0.26138 0.0
H231 H 0.52624 0.13801 0.259 0.0
H232 H 0.55493 0.25447 0.24603 0.0
H233 H 0.55404 0.30212 0.23135 0.0
H234 H 0.5983 0.27783 0.19262 0.0
H235 H 0.599 0.2297 0.20699 0.0
C236 C 0.69089 0.17832 0.25956 0.0
C237 C 0.6988 0.16455 0.24662 0.0
C238 C 0.66351 0.18619 0.25909 0.0
C239 C 0.64404 0.18086 0.24563 0.0
C240 C 0.65354 0.16953 0.23242 0.0
C241 C 0.68053 0.16113 0.23294 0.0
C242 C 0.61098 0.18247 0.24579 0.0
C243 C 0.60881 0.20823 0.2371 0.0
C244 C 0.58116 0.15761 0.25412 0.0
C245 C 0.58185 0.12955 0.26336 0.0
C246 C 0.58813 0.10418 0.25645 0.0
C247 C 0.58921 0.07812 0.26528 0.0
C248 C 0.58374 0.07698 0.28102 0.0
C249 C 0.57705 0.10185 0.28795 0.0
C250 C 0.576 0.12801 0.27916 0.0
C251 C 0.46275 0.16827 0.22437 0.0
C252 C 0.43945 0.15968 0.23675 0.0
C253 C 0.49794 0.17715 0.22676 0.0
C254 C 0.5108 0.17867 0.24161 0.0
C255 C 0.48788 0.17186 0.25404 0.0
C256 C 0.45245 0.16215 0.25162 0.0
C257 C 0.54666 0.18322 0.24403 0.0
C258 C 0.54946 0.15832 0.25317 0.0
C259 C 0.57712 0.20931 0.23629 0.0
C260 C 0.57681 0.23829 0.22758 0.0
C261 C 0.56425 0.25911 0.23435 0.0
C262 C 0.56381 0.28624 0.22609 0.0
C263 C 0.57605 0.29296 0.21106 0.0
C264 C 0.58882 0.2726 0.20427 0.0
C265 C 0.5893 0.24542 0.21248 0.0
H266 H 0.57569 0.31398 0.20468 0.0
H267 H 0.58458 0.05678 0.28785 0.0
H268 H 0.51093 0.72551 0.42145 0.0
H269 H 0.44881 0.67893 0.41903 0.0
H270 H 0.48131 0.61574 0.39331 0.0
H271 H 0.5428 0.66252 0.39511 0.0
H272 H 0.42375 0.60719 0.38172 0.0
H273 H 0.46417 0.60625 0.43328 0.0
H274 H 0.48813 0.63193 0.45855 0.0
H275 H 0.40081 0.64977 0.46581 0.0
H276 H 0.37656 0.62452 0.44049 0.0
H277 H 0.30083 0.43345 0.4212 0.0
H278 H 0.34823 0.49456 0.42282 0.0
H279 H 0.29629 0.52399 0.38867 0.0
H280 H 0.24905 0.46227 0.38662 0.0
H281 H 0.35701 0.55622 0.42963 0.0
H282 H 0.35986 0.58693 0.36575 0.0
H283 H 0.34111 0.55585 0.34105 0.0
H284 H 0.35014 0.46961 0.3594 0.0
H285 H 0.36934 0.50037 0.38413 0.0
C286 C 0.50467 0.70182 0.41513 0.0
C287 C 0.53171 0.69753 0.40855 0.0
C288 C 0.46921 0.67519 0.4138 0.0
C289 C 0.46038 0.64357 0.40618 0.0
C290 C 0.48735 0.6399 0.3992 0.0
C291 C 0.52259 0.66664 0.40029 0.0
C292 C 0.42359 0.61322 0.40611 0.0
C293 C 0.40897 0.59633 0.39219 0.0
C294 C 0.40429 0.59881 0.41975 0.0
C295 C 0.41882 0.61395 0.43494 0.0
C296 C 0.45023 0.61589 0.44023 0.0
C297 C 0.46384 0.63032 0.45456 0.0
C298 C 0.44607 0.64259 0.46376 0.0
C299 C 0.41459 0.64034 0.45866 0.0
C300 C 0.4009 0.62597 0.44433 0.0
C301 C 0.29917 0.45294 0.41417 0.0
C302 C 0.27146 0.44296 0.40362 0.0
C303 C 0.32625 0.48797 0.41516 0.0
C304 C 0.32612 0.51381 0.40571 0.0
C305 C 0.29724 0.50437 0.39589 0.0
C306 C 0.27023 0.46914 0.39476 0.0
C307 C 0.35785 0.5496 0.40532 0.0
C308 C 0.37137 0.56762 0.41912 0.0
C309 C 0.37684 0.56435 0.39165 0.0
C310 C 0.36551 0.54572 0.37682 0.0
C311 C 0.35786 0.56135 0.36449 0.0
C312 C 0.34717 0.5438 0.35049 0.0
C313 C 0.34428 0.51071 0.34868 0.0
C314 C 0.35224 0.49516 0.36084 0.0
C315 C 0.36299 0.51262 0.37485 0.0
H316 H 0.33598 0.49716 0.33784 0.0
H317 H 0.45663 0.65374 0.47485 0.0
H318 H 0.77136 0.51428 0.59011 0.0
H319 H 0.75486 0.45214 0.58724 0.0
H320 H 0.84762 0.48323 0.55946 0.0
H321 H 0.86328 0.54476 0.56175 0.0
H322 H 0.79691 0.42573 0.54853 0.0
H323 H 0.84438 0.46664 0.59937 0.0
H324 H 0.84562 0.49103 0.62488 0.0
H325 H 0.74101 0.40496 0.63395 0.0
H326 H 0.73905 0.38028 0.60842 0.0
H327 H 0.8508 0.30241 0.58614 0.0
H328 H 0.8388 0.35097 0.58772 0.0
H329 H 0.7526 0.29815 0.55574 0.0
H330 H 0.76516 0.24946 0.55379 0.0
H331 H 0.78652 0.36003 0.59618 0.0
H332 H 0.75072 0.36185 0.53329 0.0
H333 H 0.75939 0.34204 0.50811 0.0
H334 H 0.85655 0.34987 0.52371 0.0
H335 H 0.84864 0.3701 0.5489 0.0
C336 C 0.7879 0.50773 0.58323 0.0
C337 C 0.81876 0.53442 0.57626 0.0
C338 C 0.77853 0.47224 0.58164 0.0
C339 C 0.80028 0.46297 0.57333 0.0
C340 C 0.83031 0.48959 0.5659 0.0
C341 C 0.83936 0.52486 0.56728 0.0
C342 C 0.79362 0.42615 0.57305 0.0
C343 C 0.79416 0.41118 0.55895 0.0
C344 C 0.79022 0.4071 0.58662 0.0
C345 C 0.79139 0.42189 0.60194 0.0
C346 C 0.82157 0.45307 0.60678 0.0
C347 C 0.82241 0.46692 0.62124 0.0
C348 C 0.79336 0.44962 0.63101 0.0
C349 C 0.76345 0.41838 0.62636 0.0
C350 C 0.76246 0.40445 0.6119 0.0
C351 C 0.82905 0.30086 0.57953 0.0
C352 C 0.80916 0.27224 0.56971 0.0
C353 C 0.82208 0.32862 0.58052 0.0
C354 C 0.79503 0.32843 0.57175 0.0
C355 C 0.77393 0.29908 0.56246 0.0
C356 C 0.78106 0.27125 0.56139 0.0
C357 C 0.79106 0.36026 0.57171 0.0
C358 C 0.78829 0.37415 0.58573 0.0
C359 C 0.79367 0.37891 0.55812 0.0
C360 C 0.7988 0.36697 0.54301 0.0
C361 C 0.77393 0.35935 0.53132 0.0
C362 C 0.77872 0.34807 0.51705 0.0
C363 C 0.80842 0.34455 0.51433 0.0
C364 C 0.83348 0.35245 0.52585 0.0
C365 C 0.82884 0.36379 0.54013 0.0
H366 H 0.81207 0.33579 0.50329 0.0
H367 H 0.79407 0.46038 0.6422 0.0
H368 H 0.51506 0.80211 0.71101 0.0
H369 H 0.45389 0.7902 0.71281 0.0
H370 H 0.46916 0.8171 0.76058 0.0
H371 H 0.53049 0.82972 0.75883 0.0
H372 H 0.39897 0.75567 0.75171 0.0
H373 H 0.48233 0.8791 0.73948 0.0
H374 H 0.52983 0.92584 0.72398 0.0
H375 H 0.46425 0.88716 0.68406 0.0
H376 H 0.41655 0.83983 0.6993 0.0
H377 H 0.27594 0.81126 0.77031 0.0
H378 H 0.32474 0.79952 0.76667 0.0
H379 H 0.31835 0.80987 0.71794 0.0
H380 H 0.27102 0.82367 0.72168 0.0
H381 H 0.38186 0.84653 0.72537 0.0
H382 H 0.29515 0.72813 0.73711 0.0
H383 H 0.24698 0.67929 0.75147 0.0
H384 H 0.31538 0.70363 0.79033 0.0
H385 H 0.36385 0.75294 0.77627 0.0
C386 C 0.50516 0.80479 0.72196 0.0
C387 C 0.52758 0.81716 0.73475 0.0
C388 C 0.47026 0.79796 0.72297 0.0
C389 C 0.4572 0.8029 0.73682 0.0
C390 C 0.4788 0.81301 0.74982 0.0
C391 C 0.51384 0.82041 0.74877 0.0
C392 C 0.42272 0.80171 0.73737 0.0
C393 C 0.39503 0.77549 0.74602 0.0
C394 C 0.41755 0.82707 0.72959 0.0
C395 C 0.44608 0.8557 0.72048 0.0
C396 C 0.47818 0.88038 0.72737 0.0
C397 C 0.50511 0.90701 0.71864 0.0
C398 C 0.50011 0.9094 0.70303 0.0
C399 C 0.46812 0.88523 0.69614 0.0
C400 C 0.44113 0.85851 0.70481 0.0
C401 C 0.28462 0.81043 0.75882 0.0
C402 C 0.26993 0.81856 0.74628 0.0
C403 C 0.31238 0.80348 0.75672 0.0
C404 C 0.32518 0.80346 0.74199 0.0
C405 C 0.30917 0.80988 0.72942 0.0
C406 C 0.28207 0.81769 0.73155 0.0
C407 C 0.35737 0.80032 0.73979 0.0
C408 C 0.38504 0.82606 0.73088 0.0
C409 C 0.36214 0.77409 0.74715 0.0
C410 C 0.33307 0.74443 0.75566 0.0
C411 C 0.29986 0.72325 0.74876 0.0
C412 C 0.27251 0.69544 0.75684 0.0
C413 C 0.2781 0.68841 0.77181 0.0
C414 C 0.31108 0.70912 0.77873 0.0
C415 C 0.33852 0.73698 0.7707 0.0
H416 H 0.25689 0.66687 0.77805 0.0
H417 H 0.52098 0.93004 0.69629 0.0
H418 H 0.43107 0.31106 0.89714 0.0
H419 H 0.4935 0.355 0.89546 0.0
H420 H 0.51927 0.29274 0.92546 0.0
H421 H 0.45604 0.2488 0.92762 0.0
H422 H 0.55438 0.35774 0.93397 0.0
H423 H 0.54215 0.30211 0.88686 0.0
H424 H 0.51527 0.27441 0.86225 0.0
H425 H 0.52815 0.37277 0.84599 0.0
H426 H 0.55462 0.40097 0.87057 0.0
H427 H 0.71956 0.50929 0.88905 0.0
H428 H 0.67519 0.4468 0.89216 0.0
H429 H 0.61951 0.47503 0.92487 0.0
H430 H 0.66421 0.53691 0.92227 0.0
H431 H 0.61037 0.41494 0.88493 0.0
H432 H 0.57182 0.41281 0.9493 0.0
H433 H 0.6023 0.43702 0.97375 0.0
H434 H 0.69826 0.44698 0.95543 0.0
H435 H 0.66826 0.42231 0.93093 0.0
C436 C 0.44995 0.30641 0.90328 0.0
C437 C 0.43859 0.2764 0.9125 0.0
C438 C 0.48579 0.33151 0.9022 0.0
C439 C 0.51128 0.32693 0.91009 0.0
C440 C 0.50012 0.29674 0.9192 0.0
C441 C 0.46403 0.27165 0.9204 0.0
C442 C 0.54909 0.35516 0.9095 0.0
C443 C 0.56685 0.37002 0.92325 0.0
C444 C 0.56608 0.37035 0.89551 0.0
C445 C 0.55033 0.35364 0.88061 0.0
C446 C 0.53908 0.31781 0.87807 0.0
C447 C 0.52393 0.30201 0.86412 0.0
C448 C 0.51999 0.32182 0.85257 0.0
C449 C 0.53125 0.35747 0.85494 0.0
C450 C 0.54641 0.3734 0.86888 0.0
C451 C 0.69818 0.50202 0.89711 0.0
C452 C 0.69535 0.52801 0.9054 0.0
C453 C 0.67283 0.46631 0.89887 0.0
C454 C 0.64414 0.45602 0.90889 0.0
C455 C 0.64181 0.48201 0.91738 0.0
C456 C 0.6673 0.51754 0.91578 0.0
C457 C 0.61463 0.41884 0.90943 0.0
C458 C 0.59842 0.40224 0.89566 0.0
C459 C 0.5997 0.40146 0.92339 0.0
C460 C 0.61776 0.4158 0.93822 0.0
C461 C 0.59934 0.41988 0.9505 0.0
C462 C 0.61657 0.43377 0.96437 0.0
C463 C 0.65221 0.44358 0.96613 0.0
C464 C 0.67068 0.43945 0.95404 0.0
C465 C 0.65358 0.42555 0.94015 0.0
H466 H 0.66551 0.45437 0.97687 0.0
H467 H 0.50823 0.30953 0.84177 0.0
H468 H 0.22126 0.1112 0.18567 0.0
H469 H 0.21151 0.14668 0.16696 0.0
H470 H 0.30864 0.23892 0.18076 0.0
H471 H 0.31895 0.20331 0.19958 0.0
H472 H 0.24743 0.24831 0.17834 0.0
H473 H 0.31148 0.20818 0.14838 0.0
H474 H 0.32675 0.16478 0.13838 0.0
H475 H 0.22332 0.10551 0.11834 0.0
H476 H 0.20721 0.14827 0.12841 0.0
H477 H 0.20441 0.32937 0.11647 0.0
H478 H 0.23998 0.31298 0.13266 0.0
H479 H 0.16371 0.20285 0.12586 0.0
H480 H 0.12848 0.21876 0.10972 0.0
H481 H 0.23042 0.2147 0.12364 0.0
H482 H 0.16271 0.2461 0.15786 0.0
H483 H 0.14416 0.28635 0.16874 0.0
H484 H 0.25183 0.35948 0.18122 0.0
H485 H 0.27107 0.31979 0.17023 0.0
C486 C 0.24064 0.13902 0.18477 0.0
C487 C 0.2709 0.15444 0.19413 0.0
C488 C 0.23509 0.15921 0.17401 0.0
C489 C 0.25952 0.1953 0.17241 0.0
C490 C 0.2896 0.21103 0.18181 0.0
C491 C 0.29546 0.19066 0.1925 0.0
C492 C 0.25257 0.21616 0.16107 0.0
C493 C 0.24464 0.24174 0.16629 0.0
C494 C 0.24848 0.20711 0.14543 0.0
C495 C 0.25809 0.1814 0.13922 0.0
C496 C 0.2919 0.18577 0.14193 0.0
C497 C 0.30072 0.1613 0.13623 0.0
C498 C 0.27601 0.13239 0.12774 0.0
C499 C 0.24244 0.12793 0.12491 0.0
C500 C 0.23347 0.15232 0.13059 0.0
C501 C 0.19541 0.30168 0.11835 0.0
C502 C 0.16349 0.27539 0.11186 0.0
C503 C 0.2157 0.29238 0.12762 0.0
C504 C 0.20437 0.2567 0.13051 0.0
C505 C 0.17303 0.23054 0.12374 0.0
C506 C 0.15279 0.23974 0.11457 0.0
C507 C 0.22399 0.24591 0.14099 0.0
C508 C 0.23426 0.22214 0.13559 0.0
C509 C 0.22992 0.2564 0.15648 0.0
C510 C 0.21839 0.28026 0.16304 0.0
C511 C 0.18246 0.27092 0.1628 0.0
C512 C 0.17182 0.29359 0.16901 0.0
C513 C 0.19682 0.32552 0.17561 0.0
C514 C 0.23251 0.33479 0.17606 0.0
C515 C 0.2433 0.31222 0.16985 0.0
H516 H 0.18852 0.34303 0.18042 0.0
H517 H 0.28289 0.11346 0.12334 0.0
H518 H 0.87391 0.20888 0.27578 0.0
H519 H 0.9231 0.24334 0.29348 0.0
H520 H 0.9193 0.14768 0.30864 0.0
H521 H 0.87086 0.11331 0.29098 0.0
H522 H 0.92248 0.19343 0.3326 0.0
H523 H 0.97933 0.19553 0.28447 0.0
H524 H -0.00924 0.2088 0.25704 0.0
H525 H 0.02855 0.31846 0.26596 0.0
H526 H 0.01679 0.3057 0.29345 0.0
H527 H 0.07838 0.21569 0.36324 0.0
H528 H 0.02925 0.20267 0.34623 0.0
H529 H 0.06453 0.31367 0.34237 0.0
H530 H 0.11422 0.32723 0.35966 0.0
H531 H 0.0443 0.27364 0.31365 0.0
H532 H -0.00244 0.27231 0.36272 0.0
H533 H -0.0135 0.25812 0.39008 0.0
H534 H 0.92936 0.14747 0.37958 0.0
H535 H 0.94061 0.16095 0.35215 0.0
C536 C 0.88357 0.19526 0.28292 0.0
C537 C 0.86863 0.15841 0.28195 0.0
C538 C 0.91162 0.21495 0.29298 0.0
C539 C 0.92469 0.19796 0.30234 0.0
C540 C 0.90945 0.1612 0.30154 0.0
C541 C 0.88191 0.14165 0.29137 0.0
C542 C 0.95477 0.21804 0.31283 0.0
C543 C 0.9491 0.21109 0.3285 0.0
C544 C -0.01077 0.24187 0.30745 0.0
C545 C -0.00327 0.2496 0.29097 0.0
C546 C -0.01022 0.22242 0.28057 0.0
C547 C -0.00363 0.22985 0.26501 0.0
C548 C 0.01025 0.26443 0.25975 0.0
C549 C 0.01771 0.29167 0.27005 0.0
C550 C 0.0111 0.28436 0.28561 0.0
C551 C 0.07589 0.23749 0.35882 0.0
C552 C 0.10014 0.27253 0.36293 0.0
C553 C 0.04772 0.22994 0.34909 0.0
C554 C 0.04314 0.25719 0.34319 0.0
C555 C 0.06765 0.29232 0.34689 0.0
C556 C 0.09587 0.29996 0.3568 0.0
C557 C 0.01212 0.24806 0.33337 0.0
C558 C 0.01755 0.25691 0.31784 0.0
C559 C 0.97734 0.22601 0.33887 0.0
C560 C 0.9701 0.21767 0.35536 0.0
C561 C 0.98285 0.24493 0.36624 0.0
C562 C 0.97652 0.23702 0.38177 0.0
C563 C 0.95727 0.20192 0.38656 0.0
C564 C 0.94426 0.17465 0.37584 0.0
C565 C 0.95057 0.18242 0.3603 0.0
H566 H 0.95241 0.19584 0.39859 0.0
H567 H 0.0153 0.27012 0.2477 0.0
H568 H 0.83519 0.06867 0.53666 0.0
H569 H 0.8002 0.01824 0.52041 0.0
H570 H 0.71355 0.03947 0.52192 0.0
H571 H 0.7492 0.09128 0.53807 0.0
H572 H 0.74113 0.95904 0.52352 0.0
H573 H 0.66906 0.01237 0.4872 0.0
H574 H 0.67447 0.06912 0.47939 0.0
H575 H 0.78765 0.1199 0.48369 0.0
H576 H 0.78289 0.06339 0.49136 0.0
H577 H 0.64157 0.86055 0.44919 0.0
H578 H 0.6494 0.90177 0.4699 0.0
H579 H 0.75755 0.92587 0.47563 0.0
H580 H 0.75023 0.88536 0.45516 0.0
H581 H 0.70118 0.97617 0.47284 0.0
H582 H 0.77454 0.92831 0.51267 0.0
H583 H 0.77408 0.87301 0.51875 0.0
H584 H 0.66473 0.81294 0.50555 0.0
H585 H 0.66437 0.86788 0.49955 0.0
C586 C 0.80863 0.06272 0.53367 0.0
C587 C 0.79514 0.08429 0.53862 0.0
C588 C 0.78853 0.03361 0.52439 0.0
C589 C 0.7543 0.02509 0.51983 0.0
C590 C 0.74009 0.04579 0.52514 0.0
C591 C 0.76044 0.0753 0.53441 0.0
C592 C 0.73484 -0.00465 0.50902 0.0
C593 C 0.73224 0.96277 0.51248 0.0
C594 C 0.72228 -0.00023 0.49474 0.0
C595 C 0.72554 0.03382 0.49006 0.0
C596 C 0.69507 0.03567 0.48647 0.0
C597 C 0.69803 0.06777 0.48206 0.0
C598 C 0.73137 0.09813 0.48111 0.0
C599 C 0.76184 0.09641 0.4845 0.0
C600 C 0.75902 0.06437 0.48889 0.0
C601 C 0.66702 0.87474 0.45485 0.0
C602 C 0.69524 0.8696 0.45052 0.0
C603 C 0.67142 0.89826 0.46664 0.0
C604 C 0.70389 0.91646 0.47438 0.0
C605 C 0.73213 0.91172 0.46992 0.0
C606 C 0.72789 0.88861 0.45814 0.0
C607 C 0.70912 0.9407 0.48716 0.0
C608 C 0.70898 0.9721 0.48408 0.0
C609 C 0.71977 0.93547 0.50171 0.0
C610 C 0.71946 0.90227 0.50566 0.0
C611 C 0.75029 0.90333 0.5112 0.0
C612 C 0.7502 0.87204 0.5146 0.0
C613 C 0.71937 0.83951 0.51259 0.0
C614 C 0.68858 0.83818 0.50713 0.0
C615 C 0.68853 0.86938 0.5037 0.0
H616 H 0.71937 0.81531 0.51521 0.0
H617 H 0.73361 0.12296 0.47771 0.0
H618 H 0.76879 0.65573 0.61404 0.0
H619 H 0.73582 0.66864 0.63329 0.0
H620 H 0.82966 0.76798 0.64313 0.0
H621 H 0.8625 0.75565 0.62403 0.0
H622 H 0.79519 0.72841 0.66927 0.0
H623 H 0.76784 0.76736 0.62156 0.0
H624 H 0.74371 0.75799 0.59545 0.0
H625 H 0.64162 0.67926 0.61195 0.0
H626 H 0.66533 0.68787 0.63815 0.0
H627 H 0.76083 0.8514 0.703 0.0
H628 H 0.77637 0.81662 0.68647 0.0
H629 H 0.66627 0.73619 0.68324 0.0
H630 H 0.65021 0.77134 0.69973 0.0
H631 H 0.69787 0.75124 0.65558 0.0
H632 H 0.72225 0.72019 0.70396 0.0
H633 H 0.7458 0.72949 0.73016 0.0
H634 H 0.85186 0.79076 0.71301 0.0
H635 H 0.82895 0.78231 0.68671 0.0
C636 C 0.78232 0.68033 0.6203 0.0
C637 C 0.81825 0.70469 0.61747 0.0
C638 C 0.76346 0.68764 0.63127 0.0
C639 C 0.78039 0.71922 0.63963 0.0
C640 C 0.81619 0.74339 0.63685 0.0
C641 C 0.83485 0.73634 0.62584 0.0
C642 C 0.7613 0.72785 0.65127 0.0
C643 C 0.77389 0.73339 0.66632 0.0
C644 C 0.73265 0.73301 0.64749 0.0
C645 C 0.71846 0.7279 0.63176 0.0
C646 C 0.74034 0.74781 0.61959 0.0
C647 C 0.72672 0.74269 0.60478 0.0
C648 C 0.69119 0.71795 0.60203 0.0
C649 C 0.66916 0.69835 0.61409 0.0
C650 C 0.68267 0.70334 0.62892 0.0
C651 C 0.7398 0.82624 0.69888 0.0
C652 C 0.70424 0.81416 0.70274 0.0
C653 C 0.7488 0.80625 0.68948 0.0
C654 C 0.72255 0.77353 0.68381 0.0
C655 C 0.68696 0.76128 0.68757 0.0
C656 C 0.67786 0.78137 0.69702 0.0
C657 C 0.73275 0.75322 0.67349 0.0
C658 C 0.71851 0.7454 0.6587 0.0
C659 C 0.75978 0.7457 0.67753 0.0
C660 C 0.77382 0.75072 0.69334 0.0
C661 C 0.75058 0.73584 0.70577 0.0
C662 C 0.76383 0.74094 0.72065 0.0
C663 C 0.8003 0.76073 0.72325 0.0
C664 C 0.82362 0.77542 0.71097 0.0
C665 C 0.81051 0.77043 0.69607 0.0
H666 H 0.8105 0.76466 0.73477 0.0
H667 H 0.68069 0.71403 0.59056 0.0
H668 H 0.86991 0.74901 0.85619 0.0
H669 H 0.91405 0.76001 0.83672 0.0
H670 H 0.9053 0.65917 0.84616 0.0
H671 H 0.86045 0.64761 0.86577 0.0
H672 H 0.97697 0.7182 0.84425 0.0
H673 H 0.87083 0.66371 0.81481 0.0
H674 H 0.81252 0.65321 0.80608 0.0
H675 H 0.8603 0.75975 0.78963 0.0
H676 H 0.91884 0.77108 0.79846 0.0
H677 H 0.09847 0.76699 0.78117 0.0
H678 H 0.04671 0.73062 0.79726 0.0
H679 H 0.01542 0.80976 0.79411 0.0
H680 H 0.06622 0.84568 0.77798 0.0
H681 H 0.95935 0.74573 0.79116 0.0
H682 H 0.0608 0.80375 0.82518 0.0
H683 H 0.11951 0.81775 0.83497 0.0
H684 H 0.08095 0.70776 0.84347 0.0
H685 H 0.02209 0.6931 0.83355 0.0
C686 C 0.87727 0.72907 0.85418 0.0
C687 C 0.86162 0.6974 0.86255 0.0
C688 C 0.90241 0.73536 0.84299 0.0
C689 C 0.91263 0.71025 0.83992 0.0
C690 C 0.89755 0.67876 0.84834 0.0
C691 C 0.87194 0.67221 0.85949 0.0
C692 C 0.93965 0.71787 0.82804 0.0
C693 C 0.97293 0.72332 0.83252 0.0
C694 C 0.93438 0.72502 0.81283 0.0
C695 C 0.89924 0.71827 0.80737 0.0
C696 C 0.86889 0.68498 0.80942 0.0
C697 C 0.83579 0.67887 0.80444 0.0
C698 C 0.83271 0.70581 0.79732 0.0
C699 C 0.86274 0.7389 0.79514 0.0
C700 C 0.8959 0.74516 0.80011 0.0
C701 C 0.08038 0.77647 0.78382 0.0
C702 C 0.08663 0.80936 0.77834 0.0
C703 C 0.0509 0.75571 0.79305 0.0
C704 C 0.02733 0.76759 0.79697 0.0
C705 C 0.03314 0.79997 0.7912 0.0
C706 C 0.0624 0.8206 0.78202 0.0
C707 C -0.00287 0.74743 0.80749 0.0
C708 C 0.96319 0.73963 0.80275 0.0
C709 C 0.00192 0.7385 0.82249 0.0
C710 C 0.03724 0.7473 0.82844 0.0
C711 C 0.06495 0.78254 0.82902 0.0
C712 C 0.09822 0.7906 0.83461 0.0
C713 C 0.104 0.76365 0.83979 0.0
C714 C 0.07647 0.7286 0.83942 0.0
C715 C 0.04315 0.7204 0.83382 0.0
H716 H 0.12977 0.76994 0.84412 0.0
H717 H 0.80706 0.70103 0.79348 0.0
H718 H 0.10725 0.88694 0.02909 0.0
H719 H 0.13631 0.93241 0.00975 0.0
H720 H 0.21973 0.90694 0.00592 0.0
H721 H 0.19067 0.86096 0.0254 0.0
H722 H 0.24469 0.97963 0.0069 0.0
H723 H 0.15965 0.87945 0.97854 0.0
H724 H 0.10077 0.82848 0.97291 0.0
H725 H 0.05713 0.89717 0.96939 0.0
H726 H 0.11567 0.94855 0.97515 0.0
H727 H 0.30699 0.09741 0.94237 0.0
H728 H 0.28826 0.04527 0.95858 0.0
H729 H 0.18785 0.03997 0.96628 0.0
H730 H 0.20577 0.09088 0.9499 0.0
H731 H 0.17699 0.97699 0.96091 0.0
H732 H 0.25792 0.0749 -0.00706 0.0
H733 H 0.31545 0.12669 -0.00038 0.0
H734 H 0.36532 0.06335 -0.00276 0.0
H735 H 0.30812 0.01126 -0.00964 0.0
C736 C 0.13177 0.89086 0.02418 0.0
C737 C 0.14646 0.87005 0.02873 0.0
C738 C 0.1483 0.91686 0.01308 0.0
C739 C 0.17987 0.92266 0.00625 0.0
C740 C 0.19525 0.90269 0.01101 0.0
C741 C 0.17859 0.87644 0.02213 0.0
C742 C 0.19642 0.9497 -0.00586 0.0
C743 C 0.23027 0.97879 -0.00333 0.0
C744 C 0.17732 0.9487 0.98092 0.0
C745 C 0.14208 0.91786 0.97732 0.0
C746 C 0.13748 0.88369 0.97663 0.0
C747 C 0.10418 0.85473 0.97338 0.0
C748 C 0.07527 0.8596 0.97074 0.0
C749 C 0.07958 0.89345 0.97137 0.0
C750 C 0.11284 0.92252 0.9746 0.0
C751 C 0.28092 0.08504 0.94751 0.0
C752 C 0.25788 0.09829 0.94481 0.0
C753 C 0.27029 0.05533 0.95681 0.0
C754 C 0.23669 0.03879 0.96373 0.0
C755 C 0.21379 0.05207 0.961 0.0
C756 C 0.22417 0.08134 0.95164 0.0
C757 C 0.22481 0.00771 0.97391 0.0
C758 C 0.19179 0.97768 0.97099 0.0
C759 C 0.24454 0.00805 0.98683 0.0
C760 C 0.27887 0.03933 -0.00905 0.0
C761 C 0.28122 0.0721 -0.00628 0.0
C762 C 0.31375 0.10149 -0.00243 0.0
C763 C 0.34405 0.09835 -0.0012 0.0
C764 C 0.34185 0.06577 -0.00376 0.0
C765 C 0.30939 0.03631 -0.00762 0.0
H766 H 0.3692 0.12113 0.00178 0.0
H767 H 0.04948 0.83713 0.96828 0.0
H768 H 0.14852 0.34729 0.03446 0.0
H769 H 0.17692 0.34888 0.01022 0.0
H770 H 0.12922 0.23546 0.01145 0.0
H771 H 0.09968 0.23363 0.03531 0.0
H772 H 0.2249 0.33403 0.00523 0.0
H773 H 0.12107 0.19977 0.97748 0.0
H774 H 0.05625 0.16427 0.97437 0.0
H775 H 0.04743 0.25699 0.98053 0.0
H776 H 0.11224 0.29316 0.98345 0.0
H777 H 0.30303 0.25397 0.96542 0.0
H778 H 0.26952 0.27224 0.98142 0.0
H779 H 0.21825 0.28425 0.94157 0.0
H780 H 0.25125 0.26485 0.92539 0.0
H781 H 0.17094 0.24961 0.96239 0.0
H782 H 0.2787 0.35729 0.96217 0.0
H783 H 0.3432 0.39771 0.96371 0.0
H784 H 0.34314 0.36765 0.01033 0.0
H785 H 0.27872 0.32666 0.00903 0.0
C786 C 0.14359 0.32264 0.02941 0.0
C787 C 0.12195 0.29032 0.03682 0.0
C788 C 0.15987 0.3236 0.01556 0.0
C789 C 0.15508 0.29231 0.0089 0.0
C790 C 0.13271 0.25994 0.01611 0.0
C791 C 0.11599 0.25891 0.02984 0.0
C792 C 0.17608 0.29358 -0.00468 0.0
C793 C 0.213 0.31584 -0.00422 0.0
C794 C 0.16059 0.27074 0.98269 0.0
C795 C 0.12156 0.24916 0.98077 0.0
C796 C 0.10535 0.21264 0.97808 0.0
C797 C 0.06858 0.19238 0.97637 0.0
C798 C 0.04773 0.20835 0.97728 0.0
C799 C 0.0636 0.24463 0.97987 0.0
C800 C 0.10035 0.26502 0.98157 0.0
C801 C 0.28496 0.26088 0.96 0.0
C802 C 0.27974 0.25789 0.94413 0.0
C803 C 0.26595 0.27159 0.96917 0.0
C804 C 0.24168 0.28011 0.9627 0.0
C805 C 0.23693 0.27792 0.9468 0.0
C806 C 0.25587 0.26695 0.93758 0.0
C807 C 0.21972 0.28875 0.97278 0.0
C808 C 0.18268 0.26835 0.97167 0.0
C809 C 0.235 0.31408 0.98457 0.0
C810 C 0.27382 0.33876 0.98547 0.0
C811 C 0.29245 0.35912 0.97273 0.0
C812 C 0.32901 0.38216 0.97356 0.0
C813 C 0.34726 0.38522 0.9871 0.0
C814 C 0.32897 0.36527 -0.00015 0.0
C815 C 0.29241 0.34217 -0.00092 0.0
H816 H 0.37556 0.40307 0.98773 0.0
H817 H 0.01927 0.19261 0.97597 0.0
H818 H 0.85634 0.09971 0.20264 0.0
H819 H 0.89101 0.13244 0.18042 0.0
H820 H 0.84108 0.1963 0.1811 0.0
H821 H 0.80622 0.16375 0.20334 0.0
H822 H 0.85173 0.17904 0.15138 0.0
H823 H 0.91668 0.2283 0.19775 0.0
H824 H 0.94243 0.22691 0.22263 0.0
H825 H 0.00568 0.18927 0.201 0.0
H826 H 0.97992 0.18997 0.17601 0.0
H827 H 0.04031 0.33559 0.12887 0.0
H828 H -0.00756 0.30142 0.14683 0.0
H829 H 0.94625 0.21461 0.11498 0.0
H830 H -0.0063 0.24923 0.09675 0.0
H831 H 0.98155 0.24437 0.16035 0.0
H832 H 0.85752 0.16217 0.12269 0.0
H833 H 0.83137 0.16817 0.09869 0.0
H834 H 0.88609 0.28076 0.10415 0.0
H835 H 0.91219 0.27541 0.12828 0.0
C836 C 0.85225 0.12031 0.19793 0.0
C837 C 0.82883 0.12941 0.20488 0.0
C838 C 0.87211 0.13898 0.18524 0.0
C839 C 0.86882 0.16698 0.17926 0.0
C840 C 0.84396 0.17477 0.18558 0.0
C841 C 0.82423 0.15625 0.19833 0.0
C842 C 0.89358 0.19014 0.16736 0.0
C843 C 0.88014 0.19329 0.15326 0.0
C844 C 0.93052 0.20928 0.17002 0.0
C845 C 0.94609 0.20883 0.18503 0.0
C846 C 0.93584 0.21943 0.19832 0.0
C847 C 0.95048 0.21882 0.21244 0.0
C848 C 0.9756 0.20792 0.2134 0.0
C849 C -0.01382 0.19766 0.20024 0.0
C850 C 0.97159 0.19817 0.18609 0.0
C851 C 0.01956 0.30948 0.12557 0.0
C852 C 0.0208 0.29498 0.11146 0.0
C853 C -0.00772 0.28993 0.13586 0.0
C854 C 0.9658 0.25539 0.1323 0.0
C855 C 0.96612 0.24136 0.11792 0.0
C856 C -0.00673 0.26113 0.10751 0.0
C857 C 0.93992 0.23327 0.14417 0.0
C858 C 0.95318 0.23016 0.15834 0.0
C859 C 0.90285 0.21486 0.14164 0.0
C860 C 0.88709 0.21838 0.12721 0.0
C861 C 0.86388 0.1882 0.11879 0.0
C862 C 0.84908 0.19148 0.10517 0.0
C863 C 0.85716 0.22483 0.09988 0.0
C864 C 0.87997 0.25496 0.10823 0.0
C865 C 0.89482 0.25181 0.12187 0.0
H866 H 0.84569 0.22732 0.08932 0.0
H867 H -0.01307 0.20751 0.22434 0.0
H868 H 0.71146 0.98574 0.25745 0.0
H869 H 0.69416 0.9337 0.27352 0.0
H870 H 0.69045 -0.00853 0.31271 0.0
H871 H 0.70652 0.04272 0.29677 0.0
H872 H 0.72934 0.92648 0.29561 0.0
H873 H 0.6354 0.9412 0.33914 0.0
H874 H 0.58772 0.95602 0.33863 0.0
H875 H 0.56723 0.92538 0.29156 0.0
H876 H 0.61442 0.90986 0.29183 0.0
H877 H 0.74613 0.87671 0.36938 0.0
H878 H 0.74238 0.90326 0.34551 0.0
H879 H 0.63143 0.82525 0.34178 0.0
H880 H 0.63472 0.7994 0.36602 0.0
H881 H 0.63803 0.8849 0.33621 0.0
H882 H 0.69573 0.82637 0.31698 0.0
H883 H 0.73924 0.80604 0.31568 0.0
H884 H 0.82364 0.91308 0.31078 0.0
H885 H 0.78072 0.93415 0.31226 0.0
C886 C 0.70618 0.987 0.26944 0.0
C887 C 0.71045 0.01835 0.27586 0.0
C888 C 0.69643 0.95732 0.27861 0.0
C889 C 0.69068 0.95851 0.29431 0.0
C890 C 0.69393 -0.01048 0.30059 0.0
C891 C 0.70341 0.01898 0.29145 0.0
C892 C 0.68454 0.92892 0.30454 0.0
C893 C 0.7091 0.91702 0.30438 0.0
C894 C 0.6574 0.91562 0.31567 0.0
C895 C 0.62862 0.9245 0.3155 0.0
C896 C 0.62058 0.93737 0.3287 0.0
C897 C 0.59367 0.94597 0.32845 0.0
C898 C 0.57451 0.9417 0.31506 0.0
C899 C 0.58216 0.92876 0.30191 0.0
C900 C 0.60903 0.92011 0.3021 0.0
C901 C 0.72102 0.86495 0.3634 0.0
C902 C 0.6907 0.83605 0.36962 0.0
C903 C 0.71895 0.88 0.34967 0.0
C904 C 0.68671 0.86599 0.34169 0.0
C905 C 0.6566 0.83655 0.3477 0.0
C906 C 0.65853 0.8218 0.36156 0.0
C907 C 0.68401 0.88394 0.32777 0.0
C908 C 0.65777 0.89365 0.32725 0.0
C909 C 0.70892 0.8943 0.31574 0.0
C910 C 0.73496 0.88184 0.31481 0.0
C911 C 0.72359 0.84561 0.31572 0.0
C912 C 0.74815 0.83395 0.31494 0.0
C913 C 0.78418 0.85826 0.31316 0.0
C914 C 0.79572 0.89428 0.31214 0.0
C915 C 0.77127 0.90609 0.31293 0.0
H916 H 0.80316 0.84917 0.31256 0.0
H917 H 0.55371 0.9484 0.31489 0.0
H918 H 0.8014 0.65174 0.5422 0.0
H919 H 0.77431 0.65642 0.51866 0.0
H920 H 0.86834 0.75549 0.50847 0.0
H921 H 0.89519 0.7516 0.53238 0.0
H922 H 0.81324 0.76174 0.50364 0.0
H923 H 0.84568 0.67713 0.48847 0.0
H924 H 0.85023 0.62328 0.49038 0.0
H925 H 0.73683 0.55936 0.48912 0.0
H926 H 0.73156 0.61285 0.48742 0.0
H927 H 0.74715 0.76391 0.42916 0.0
H928 H 0.78464 0.75535 0.44759 0.0
H929 H 0.69145 0.6781 0.47148 0.0
H930 H 0.6539 0.68743 0.45344 0.0
H931 H 0.75199 0.66287 0.46696 0.0
H932 H 0.72148 0.74966 0.48491 0.0
H933 H 0.71809 0.804 0.4822 0.0
H934 H 0.8312 0.86493 0.47761 0.0
H935 H 0.83515 0.81069 0.47978 0.0
C936 C 0.8165 0.67439 0.53489 0.0
C937 C 0.85048 0.70129 0.53916 0.0
C938 C 0.80103 0.67693 0.52136 0.0
C939 C 0.81948 0.70604 0.51163 0.0
C940 C 0.85361 0.73275 0.51577 0.0
C941 C 0.86894 0.73046 0.52943 0.0
C942 C 0.80226 0.70939 0.49759 0.0
C943 C 0.80054 0.74036 0.49547 0.0
C944 C 0.7852 0.68136 0.48699 0.0
C945 C 0.78824 0.64906 0.48792 0.0
C946 C 0.8217 0.65161 0.4887 0.0
C947 C 0.82441 0.62114 0.48973 0.0
C948 C 0.79384 0.58792 0.4899 0.0
C949 C 0.76049 0.5851 0.489 0.0
C950 C 0.75763 0.6155 0.48798 0.0
C951 C 0.73468 0.74455 0.43815 0.0
C952 C 0.6977 0.72641 0.43997 0.0
C953 C 0.75609 0.73976 0.44865 0.0
C954 C 0.74068 0.71622 0.46086 0.0
C955 C 0.7037 0.6963 0.46207 0.0
C956 C 0.68235 0.70171 0.45182 0.0
C957 C 0.7629 0.71487 0.47325 0.0
C958 C 0.76535 0.68433 0.47505 0.0
C959 C 0.78091 0.74338 0.48348 0.0
C960 C 0.77856 0.77602 0.48226 0.0
C961 C 0.74559 0.77456 0.48309 0.0
C962 C 0.74357 0.80535 0.48168 0.0
C963 C 0.7744 0.8379 0.47971 0.0
C964 C 0.80732 0.83969 0.47911 0.0
C965 C 0.80946 0.80891 0.48038 0.0
H966 H 0.77279 0.86174 0.47872 0.0
H967 H 0.79599 0.56436 0.49071 0.0
H968 H 0.1759 0.8244 0.70223 0.0
H969 H 0.1501 0.79496 0.67803 0.0
H970 H 0.08296 0.84153 0.67767 0.0
H971 H 0.10966 0.87208 0.70145 0.0
H972 H 0.08788 0.7466 0.6727 0.0
H973 H 0.05626 0.84831 0.64335 0.0
H974 H 0.08508 0.91272 0.63974 0.0
H975 H 0.18707 0.92241 0.647 0.0
H976 H 0.15896 0.85802 0.65044 0.0
H977 H 0.93039 0.66552 0.63224 0.0
H978 H 0.98193 0.69944 0.64832 0.0
H979 H 0.04495 0.75148 0.60857 0.0
H980 H -0.00732 0.71824 0.59234 0.0
H981 H 0.05709 0.79824 0.62898 0.0
H982 H 0.05893 0.69167 0.62987 0.0
H983 H 0.03587 0.62761 0.63182 0.0
H984 H 0.00484 0.62862 0.67819 0.0
H985 H 0.02723 0.6926 0.67647 0.0
C986 C 0.15608 0.82884 0.69683 0.0
C987 C 0.14474 0.85049 0.70377 0.0
C988 C 0.14133 0.81197 0.68301 0.0
C989 C 0.11475 0.81617 0.67591 0.0
C990 C 0.10404 0.83848 0.68267 0.0
C991 C 0.11916 0.85579 0.69635 0.0
C992 C 0.09565 0.79468 0.66234 0.0
C993 C 0.08152 0.75798 0.66306 0.0
C994 C 0.0883 0.8095 0.64945 0.0
C995 C 0.10543 0.84828 0.64724 0.0
C996 C 0.08485 0.86413 0.64408 0.0
C997 C 0.10107 0.90066 0.64209 0.0
C998 C 0.13787 0.92165 0.64317 0.0
C999 C 0.15855 0.90614 0.64621 0.0
C1000 C 0.14248 0.86963 0.64821 0.0
C1001 C 0.95528 0.6838 0.62686 0.0
C1002 C 0.95743 0.68925 0.61101 0.0
C1003 C -0.0151 0.70306 0.63608 0.0
C1004 C 0.01755 0.72771 0.62967 0.0
C1005 C 0.02007 0.73254 0.61378 0.0
C1006 C -0.00976 0.71347 0.60452 0.0
C1007 C 0.04794 0.75014 0.6398 0.0
C1008 C 0.06416 0.78698 0.63845 0.0
C1009 C 0.05817 0.73554 0.65185 0.0
C1010 C 0.04468 0.69699 0.65301 0.0
C1011 C 0.047 0.67822 0.64046 0.0
C1012 C 0.03406 0.6419 0.64152 0.0
C1013 C 0.01887 0.62405 0.65511 0.0
C1014 C 0.01664 0.64249 0.66767 0.0
C1015 C 0.02952 0.6788 0.66666 0.0
H1016 H 0.00886 0.59594 0.65592 0.0
H1017 H 0.15037 0.94993 0.64163 0.0
H1018 H 0.33711 0.17971 0.86774 0.0
H1019 H 0.33901 0.15082 0.8442 0.0
H1020 H 0.22469 0.09151 0.84326 0.0
H1021 H 0.22263 0.12121 0.86642 0.0
H1022 H 0.32 0.08653 0.84033 0.0
H1023 H 0.19199 0.06441 0.80867 0.0
H1024 H 0.16074 0.09738 0.80367 0.0
H1025 H 0.25735 0.19531 0.81069 0.0
H1026 H 0.28932 0.163 0.81552 0.0
H1027 H 0.23871 0.9286 0.8006 0.0
H1028 H 0.25625 0.98045 0.81634 0.0
H1029 H 0.27622 0.04414 0.77596 0.0
H1030 H 0.25723 -0.0084 0.76001 0.0
H1031 H 0.24168 0.05997 0.79529 0.0
H1032 H 0.34559 0.05209 0.799 0.0
H1033 H 0.38211 0.02403 0.80253 0.0
H1034 H 0.34416 -0.00382 0.84846 0.0
H1035 H 0.30701 0.02362 0.84515 0.0
C1036 C 0.31237 0.16099 0.86235 0.0
C1037 C 0.27971 0.15264 0.86898 0.0
C1038 C 0.31351 0.14446 0.8489 0.0
C1039 C 0.28203 0.11911 0.84186 0.0
C1040 C 0.24938 0.11154 0.84823 0.0
C1041 C 0.24822 0.1284 0.86156 0.0
C1042 C 0.2831 0.09794 0.82882 0.0
C1043 C 0.30317 0.08107 0.8304 0.0
C1044 C 0.26204 0.09157 0.8156 0.0
C1045 C 0.24301 0.11122 0.81255 0.0
C1046 C 0.20663 0.09298 0.80906 0.0
C1047 C 0.18877 0.11156 0.80628 0.0
C1048 C 0.20703 0.14841 0.8069 0.0
C1049 C 0.24321 0.16676 0.81026 0.0
C1050 C 0.2612 0.14832 0.81304 0.0
C1051 C 0.24718 0.95367 0.79502 0.0
C1052 C 0.24663 0.95601 0.77905 0.0
C1053 C 0.25745 0.98342 0.80405 0.0
C1054 C 0.26819 0.01641 0.79736 0.0
C1055 C 0.26819 0.019 0.78138 0.0
C1056 C 0.25746 -0.01098 0.77229 0.0
C1057 C 0.27727 0.04741 0.80722 0.0
C1058 C 0.2591 0.06607 0.80506 0.0
C1059 C 0.30093 0.05626 0.81967 0.0
C1060 C 0.32339 0.03983 0.82179 0.0
C1061 C 0.34487 0.03981 0.80982 0.0
C1062 C 0.36571 0.02403 0.81179 0.0
C1063 C 0.36543 0.00831 0.82571 0.0
C1064 C 0.34436 0.00839 0.83769 0.0
C1065 C 0.32346 0.02412 0.83578 0.0
H1066 H 0.38157 -0.00391 0.8272 0.0
H1067 H 0.19314 0.16274 0.80475 0.0
H1068 H 0.72957 0.89454 0.7879 0.0
H1069 H 0.73028 0.86587 0.81176 0.0
H1070 H 0.6449 0.76683 0.79509 0.0
H1071 H 0.6429 0.79574 0.77162 0.0
H1072 H 0.63547 0.77022 0.82368 0.0
H1073 H 0.73564 0.79052 0.79315 0.0
H1074 H 0.79059 0.82558 0.77844 0.0
H1075 H 0.84185 0.88763 0.81818 0.0
H1076 H 0.78703 0.85315 0.83309 0.0
H1077 H 0.67983 0.64802 0.85789 0.0
H1078 H 0.66757 0.68576 0.84131 0.0
H1079 H 0.72855 0.77429 0.87108 0.0
H1080 H 0.74018 0.73649 0.88795 0.0
H1081 H 0.75046 0.78159 0.83889 0.0
H1082 H 0.6484 0.75041 0.8699 0.0
H1083 H 0.59305 0.70953 0.88325 0.0
H1084 H 0.5448 0.66091 0.84063 0.0
H1085 H 0.60005 0.70115 0.82704 0.0
C1086 C 0.71073 0.86674 0.78942 0.0
C1087 C 0.6864 0.8473 0.77785 0.0
C1088 C 0.71123 0.85033 0.80302 0.0
C1089 C 0.68817 0.81397 0.80511 0.0
C1090 C 0.66299 0.79488 0.79378 0.0
C1091 C 0.66195 0.81142 0.78033 0.0
C1092 C 0.69133 0.7953 0.81867 0.0
C1093 C 0.66061 0.77262 0.82695 0.0
C1094 C 0.7242 0.79873 0.82313 0.0
C1095 C 0.75713 0.81957 0.81418 0.0
C1096 C 0.75856 0.81182 0.79872 0.0
C1097 C 0.78968 0.83155 0.79035 0.0
C1098 C 0.81966 0.8589 0.79736 0.0
C1099 C 0.81859 0.8665 0.81276 0.0
C1100 C 0.78751 0.84687 0.82118 0.0
C1101 C 0.68992 0.67533 0.86108 0.0
C1102 C 0.71107 0.68939 0.87415 0.0
C1103 C 0.68282 0.69679 0.85164 0.0
C1104 C 0.69717 0.73271 0.85502 0.0
C1105 C 0.71715 0.74655 0.86836 0.0
C1106 C 0.72368 0.72492 0.87798 0.0
C1107 C 0.69464 0.75635 0.84368 0.0
C1108 C 0.72549 0.77979 0.83577 0.0
C1109 C 0.66181 0.75286 0.83933 0.0
C1110 C 0.6285 0.72864 0.84747 0.0
C1111 C 0.6261 0.73079 0.86339 0.0
C1112 C 0.59471 0.70778 0.87099 0.0
C1113 C 0.56545 0.68259 0.8628 0.0
C1114 C 0.56749 0.68042 0.84697 0.0
C1115 C 0.59883 0.70336 0.83931 0.0
H1116 H 0.54116 0.6648 0.86871 0.0
H1117 H 0.84374 0.87413 0.79086 0.0
H1118 H 0.83436 0.64554 0.93702 0.0
H1119 H 0.86587 0.64797 0.96037 0.0
H1120 H 0.86502 0.74238 0.97405 0.0
H1121 H 0.83496 0.741 0.95026 0.0
H1122 H 0.92636 0.75172 0.9791 0.0
H1123 H 0.81134 0.65841 -0.0084 0.0
H1124 H 0.75503 0.60274 0.98804 0.0
H1125 H 0.81122 0.54538 0.98617 0.0
H1126 H 0.86795 0.60078 0.98951 0.0
H1127 H -0.00442 0.74574 0.052 0.0
H1128 H 0.94768 0.73571 0.0344 0.0
H1129 H 0.97222 0.66944 0.0066 0.0
H1130 H 0.02093 0.68031 0.02384 0.0
H1131 H 0.89415 0.64689 0.01152 0.0
H1132 H 0.00985 0.74487 -0.00371 0.0
H1133 H 0.06443 0.80147 0.00113 0.0
H1134 H 0.0026 0.85132 0.00967 0.0
H1135 H 0.94755 0.79472 0.00532 0.0
C1136 C 0.84062 0.66667 0.94506 0.0
C1137 C 0.83217 0.69307 0.94182 0.0
C1138 C 0.85843 0.66789 0.95848 0.0
C1139 C 0.86728 0.69499 0.96917 0.0
C1140 C 0.85844 0.72117 0.96602 0.0
C1141 C 0.84123 0.72034 0.95243 0.0
C1142 C 0.88761 0.69705 0.98314 0.0
C1143 C 0.91876 0.72892 0.98634 0.0
C1144 C 0.87805 0.66731 -0.0074 0.0
C1145 C 0.84395 0.63383 -0.0093 0.0
C1146 C 0.81173 0.63396 -0.00967 0.0
C1147 C 0.77972 0.60244 0.98837 0.0
C1148 C 0.77955 0.57055 0.98685 0.0
C1149 C 0.81139 0.57011 0.98734 0.0
C1150 C 0.84348 0.60156 0.98929 0.0
C1151 C -0.00979 0.72836 0.04234 0.0
C1152 C 0.01211 0.71405 0.03916 0.0
C1153 C 0.9629 0.7227 0.03232 0.0
C1154 C 0.95671 0.70204 0.01922 0.0
C1155 C 0.97666 0.6854 0.0167 0.0
C1156 C 0.00447 0.69171 0.02651 0.0
C1157 C 0.93262 0.7012 0.00718 0.0
C1158 C 0.90105 0.66966 0.00436 0.0
C1159 C 0.9414 0.73136 -0.00178 0.0
C1160 C 0.97455 0.76542 0.00072 0.0
C1161 C 0.00785 0.76777 -0.00058 0.0
C1162 C 0.03887 0.79985 0.00206 0.0
C1163 C 0.03696 0.82991 0.00578 0.0
C1164 C 0.00402 0.82796 0.00685 0.0
C1165 C 0.9729 0.79588 0.00433 0.0
H1166 H 0.061 0.85479 0.00768 0.0
H1167 H 0.75474 0.54618 0.98532 0.0
H1168 H 0.07899 0.8266 0.11745 0.0
H1169 H 0.10731 0.85592 0.14136 0.0
H1170 H 0.20767 0.87223 0.1247 0.0
H1171 H 0.17907 0.84128 0.10116 0.0
H1172 H 0.20391 0.85801 0.15314 0.0
H1173 H 0.18232 0.93804 0.12358 0.0
H1174 H 0.14666 0.9577 0.10913 0.0
H1175 H 0.08316 0.9434 0.14882 0.0
H1176 H 0.11821 0.92324 0.16346 0.0
H1177 H 0.3231 0.02119 0.1901 0.0
H1178 H 0.28665 0.97213 0.17292 0.0
H1179 H 0.19536 0.943 0.20133 0.0
H1180 H 0.23183 -0.00841 0.21877 0.0
H1181 H 0.18952 0.9586 0.16969 0.0
H1182 H 0.22128 0.88715 0.19982 0.0
H1183 H 0.26235 0.87267 0.21307 0.0
H1184 H 0.31345 0.87722 0.1706 0.0
H1185 H 0.27302 0.89225 0.15711 0.0
C1186 C 0.10705 0.83626 0.11896 0.0
C1187 C 0.1269 0.83195 0.1074 0.0
C1188 C 0.12325 0.85312 0.13259 0.0
C1189 C 0.15982 0.86699 0.13473 0.0
C1190 C 0.17944 0.8618 0.12335 0.0
C1191 C 0.16309 0.84423 0.10987 0.0
C1192 C 0.17804 0.88814 0.1485 0.0
C1193 C 0.2009 0.88013 0.15669 0.0
C1194 C 0.17374 0.9167 0.15334 0.0
C1195 C 0.15259 0.92873 0.14455 0.0
C1196 C 0.16057 0.93883 0.12919 0.0
C1197 C 0.14051 0.95011 0.12097 0.0
C1198 C 0.11259 0.95169 0.12804 0.0
C1199 C 0.10474 0.94209 0.14335 0.0
C1200 C 0.1247 0.93075 0.15161 0.0
C1201 C 0.29545 0.0038 0.19288 0.0
C1202 C 0.28022 0.01028 0.2057 0.0
C1203 C 0.27472 0.97576 0.1831 0.0
C1204 C 0.23839 0.95405 0.1859 0.0
C1205 C 0.22342 0.95946 0.19905 0.0
C1206 C 0.24429 0.98714 0.209 0.0
C1207 C 0.21556 0.92867 0.17413 0.0
C1208 C 0.19199 0.93606 0.16627 0.0
C1209 C 0.21993 0.90021 0.16939 0.0
C1210 C 0.24426 0.8911 0.17747 0.0
C1211 C 0.24147 0.88537 0.19332 0.0
C1212 C 0.2646 0.87699 0.20087 0.0
C1213 C 0.29054 0.87409 0.19269 0.0
C1214 C 0.29336 0.87949 0.17693 0.0
C1215 C 0.2703 0.88789 0.16932 0.0
H1216 H 0.30842 0.8676 0.19856 0.0
H1217 H 0.0971 0.96044 0.12166 0.0
H1218 H 0.32439 0.16448 0.27291 0.0
H1219 H 0.32007 0.19163 0.29648 0.0
H1220 H 0.21006 0.11148 0.30075 0.0
H1221 H 0.21392 0.08455 0.27695 0.0
H1222 H 0.21679 0.17337 0.30483 0.0
H1223 H 0.27383 0.11393 0.32507 0.0
H1224 H 0.31823 0.09477 0.32666 0.0
H1225 H 0.40084 0.20228 0.33263 0.0
H1226 H 0.357 0.22217 0.33086 0.0
H1227 H 0.24131 0.24386 0.38635 0.0
H1228 H 0.24874 0.20475 0.36854 0.0
H1229 H 0.27326 0.28049 0.33245 0.0
H1230 H 0.26602 0.31959 0.35004 0.0
H1231 H 0.30303 0.2112 0.34755 0.0
H1232 H 0.21828 0.23453 0.30303 0.0
H1233 H 0.17164 0.2509 0.30279 0.0
H1234 H 0.13853 0.20717 0.34761 0.0
H1235 H 0.18445 0.18988 0.348 0.0
C1236 C 0.29933 0.15238 0.27892 0.0
C1237 C 0.26945 0.12241 0.27299 0.0
C1238 C 0.29697 0.16783 0.29247 0.0
C1239 C 0.26483 0.15339 0.30048 0.0
C1240 C 0.23514 0.12305 0.29476 0.0
C1241 C 0.23741 0.10769 0.28116 0.0
C1242 C 0.26165 0.17151 0.31417 0.0
C1243 C 0.23549 0.18131 0.31421 0.0
C1244 C 0.28562 0.18138 0.32659 0.0
C1245 C 0.31212 0.16956 0.32773 0.0
C1246 C 0.30149 0.13353 0.32661 0.0
C1247 C 0.32656 0.12253 0.32757 0.0
C1248 C 0.36234 0.1473 0.32972 0.0
C1249 C 0.37311 0.18312 0.33096 0.0
C1250 C 0.34815 0.19427 0.33 0.0
C1251 C 0.24912 0.25251 0.37471 0.0
C1252 C 0.25257 0.28453 0.36952 0.0
C1253 C 0.25339 0.23019 0.36458 0.0
C1254 C 0.26096 0.2396 0.34918 0.0
C1255 C 0.26699 0.27266 0.34427 0.0
C1256 C 0.26283 0.29494 0.35435 0.0
C1257 C 0.25907 0.21383 0.33779 0.0
C1258 C 0.28417 0.20272 0.33822 0.0
C1259 C 0.23362 0.20201 0.32595 0.0
C1260 C 0.20506 0.2112 0.32558 0.0
C1261 C 0.20088 0.22817 0.31279 0.0
C1262 C 0.17458 0.23763 0.31263 0.0
C1263 C 0.15221 0.23017 0.32519 0.0
C1264 C 0.15594 0.21302 0.33791 0.0
C1265 C 0.18211 0.2034 0.3381 0.0
H1266 H 0.13195 0.23762 0.32507 0.0
H1267 H 0.3817 0.13872 0.33046 0.0
H1268 H 0.10844 0.21893 0.44231 0.0
H1269 H 0.07223 0.21544 0.46421 0.0
H1270 H 0.11844 0.32863 0.46365 0.0
H1271 H 0.15428 0.33237 0.44157 0.0
H1272 H 0.08246 0.24039 0.49265 0.0
H1273 H 0.05365 0.3483 0.4705 0.0
H1274 H 0.05102 0.37493 0.44605 0.0
H1275 H 0.02743 0.27958 0.42247 0.0
H1276 H 0.02951 0.25229 0.44679 0.0
H1277 H 0.97565 0.25899 0.5493 0.0
H1278 H 0.02367 0.27355 0.53105 0.0
H1279 H 0.94756 0.23391 0.49428 0.0
H1280 H 0.90009 0.2209 0.51224 0.0
H1281 H 0.00215 0.28895 0.48484 0.0
H1282 H 0.98265 0.18465 0.51173 0.0
H1283 H 0.97839 0.14927 0.53439 0.0
H1284 H 0.08692 0.22248 0.54554 0.0
H1285 H 0.09168 0.25855 0.52304 0.0
C1286 C 0.11126 0.24315 0.44695 0.0
C1287 C 0.13392 0.27589 0.44005 0.0
C1288 C 0.09063 0.24111 0.45951 0.0
C1289 C 0.09227 0.27171 0.46541 0.0
C1290 C 0.11635 0.30462 0.45911 0.0
C1291 C 0.13686 0.30669 0.4465 0.0
C1292 C 0.06695 0.26886 0.47738 0.0
C1293 C 0.06506 0.25122 0.49102 0.0
C1294 C 0.04374 0.28235 0.4751 0.0
C1295 C 0.0422 0.29847 0.46043 0.0
C1296 C 0.04785 0.33303 0.46009 0.0
C1297 C 0.04645 0.34823 0.44626 0.0
C1298 C 0.03921 0.32901 0.43271 0.0
C1299 C 0.03321 0.2945 0.43296 0.0
C1300 C 0.03454 0.27918 0.44677 0.0
C1301 C 0.96932 0.25376 0.5373 0.0
C1302 C 0.93411 0.2387 0.53221 0.0
C1303 C -0.00328 0.26189 0.52689 0.0
C1304 C -0.01079 0.25434 0.5113 0.0
C1305 C 0.95413 0.24009 0.50622 0.0
C1306 C 0.92694 0.23255 0.51654 0.0
C1307 C 0.01736 0.26023 0.50017 0.0
C1308 C 0.01988 0.27856 0.48664 0.0
C1309 C 0.04017 0.24618 0.50233 0.0
C1310 C 0.03739 0.22449 0.51582 0.0
C1311 C 0.00553 0.19332 0.51908 0.0
C1312 C 0.00303 0.17313 0.53188 0.0
C1313 C 0.03233 0.18368 0.54142 0.0
C1314 C 0.06423 0.21439 0.53816 0.0
C1315 C 0.06684 0.2347 0.52538 0.0
H1316 H 0.03036 0.16801 0.55133 0.0
H1317 H 0.03816 0.34083 0.42201 0.0
H1318 H 0.71841 -0.00848 0.72368 0.0
H1319 H 0.75237 0.04468 0.7081 0.0
H1320 H 0.69699 0.98613 0.66791 0.0
H1321 H 0.66261 0.93365 0.68332 0.0
H1322 H 0.79793 0.05671 0.68645 0.0
H1323 H 0.68844 0.03494 0.64186 0.0
H1324 H 0.62457 0.01501 0.64175 0.0
H1325 H 0.62976 0.04267 0.68903 0.0
H1326 H 0.69376 0.06328 0.68939 0.0
H1327 H 0.86531 0.1117 0.61321 0.0
H1328 H 0.83715 0.08497 0.63737 0.0
H1329 H 0.79366 0.15453 0.64002 0.0
H1330 H 0.82043 0.18016 0.61538 0.0
H1331 H 0.74455 0.09375 0.6456 0.0
H1332 H 0.85947 0.1592 0.66593 0.0
H1333 H 0.92413 0.18433 0.66788 0.0
H1334 H 0.90993 0.0803 0.67253 0.0
H1335 H 0.84521 0.05446 0.67039 0.0
C1336 C 0.7131 -0.00976 0.71156 0.0
C1337 C 0.68784 0.9584 0.70472 0.0
C1338 C 0.73259 0.02057 0.70267 0.0
C1339 C 0.72698 0.01955 0.68686 0.0
C1340 C 0.70129 -0.01211 0.68012 0.0
C1341 C 0.68178 0.95776 0.68896 0.0
C1342 C 0.74942 0.05044 0.67703 0.0
C1343 C 0.78636 0.06518 0.67762 0.0
C1344 C 0.73443 0.06247 0.66587 0.0
C1345 C 0.69595 0.05053 0.66566 0.0
C1346 C 0.67604 0.03702 0.65221 0.0
C1347 C 0.63977 0.02554 0.65211 0.0
C1348 C 0.62311 0.02751 0.66538 0.0
C1349 C 0.64268 0.04106 0.67877 0.0
C1350 C 0.67895 0.05261 0.67893 0.0
C1351 C 0.85029 0.12176 0.61907 0.0
C1352 C 0.84493 0.1479 0.61236 0.0
C1353 C 0.83436 0.10661 0.63298 0.0
C1354 C 0.81353 0.11795 0.64069 0.0
C1355 C 0.80951 0.14524 0.63431 0.0
C1356 C 0.82487 0.15991 0.62024 0.0
C1357 C 0.79303 0.09868 0.65446 0.0
C1358 C 0.75638 0.08607 0.65462 0.0
C1359 C 0.80845 0.08953 0.66658 0.0
C1360 C 0.84742 0.10488 0.66794 0.0
C1361 C 0.87013 0.14165 0.66728 0.0
C1362 C 0.90681 0.15603 0.66843 0.0
C1363 C 0.92113 0.13393 0.67031 0.0
C1364 C 0.89879 0.09739 0.67108 0.0
C1365 C 0.86209 0.08286 0.66993 0.0
H1366 H 0.94953 0.14511 0.6712 0.0
H1367 H 0.59502 0.01858 0.66528 0.0
loop_
_geom_bond_atom_site_label_1
_geom_bond_atom_site_label_2
_geom_bond_distance
_geom_bond_site_symmetry_2
_ccdc_geom_bond_type
C0 O1 1.306 . S
C0 O3 1.160 . S
O1 C0 1.306 . S
O1 Cd2 2.228 . S
Cd2 O1 2.228 . S
Cd2 O6 2.273 . S
Cd2 O10 2.277 . S
O3 C0 1.160 . S
O3 Cd4 2.203 . S
Cd4 O3 2.203 . S
Cd4 O6 2.411 . S
Cd4 O7 2.333 . S
Cd4 O8 2.352 . S
Cd4 O12 2.277 . S
Cd4 O13 2.356 . S
C5 O10 1.209 . S
C5 O12 1.226 . S
O6 Cd2 2.273 . S
O6 Cd4 2.411 . S
O6 C9 1.320 . S
O7 Cd4 2.333 . S
O7 C9 1.214 . S
O8 Cd4 2.352 . S
O8 C11 1.258 . S
C9 O6 1.320 . S
C9 O7 1.214 . S
O10 Cd2 2.277 . S
O10 C5 1.209 . S
C11 O8 1.258 . S
C11 O13 1.282 . S
O12 Cd4 2.277 . S
O12 C5 1.226 . S
O13 Cd4 2.356 . S
O13 C11 1.282 . S
C14 O15 1.306 . S
C14 O17 1.160 . S
O15 C14 1.306 . S
O15 Cd16 2.228 . S
Cd16 O15 2.228 . S
Cd16 O20 2.273 . S
Cd16 O24 2.277 . S
O17 C14 1.160 . S
O17 Cd18 2.203 . S
Cd18 O17 2.203 . S
Cd18 O20 2.411 . S
Cd18 O21 2.333 . S
Cd18 O22 2.352 . S
Cd18 O26 2.277 . S
Cd18 O27 2.356 . S
C19 O24 1.209 . S
C19 O26 1.226 . S
O20 Cd16 2.273 . S
O20 Cd18 2.411 . S
O20 C23 1.320 . S
O21 Cd18 2.333 . S
O21 C23 1.214 . S
O22 Cd18 2.352 . S
O22 C25 1.258 . S
C23 O20 1.320 . S
C23 O21 1.214 . S
O24 Cd16 2.277 . S
O24 C19 1.209 . S
C25 O22 1.258 . S
C25 O27 1.282 . S
O26 Cd18 2.277 . S
O26 C19 1.226 . S
O27 Cd18 2.356 . S
O27 C25 1.282 . S
C28 O29 1.306 . S
C28 O31 1.160 . S
O29 C28 1.306 . S
O29 Cd30 2.228 . S
Cd30 O29 2.228 . S
Cd30 O34 2.273 . S
Cd30 O38 2.277 . S
O31 C28 1.160 . S
O31 Cd32 2.203 . S
Cd32 O31 2.203 . S
Cd32 O34 2.411 . S
Cd32 O35 2.333 . S
Cd32 O36 2.352 . S
Cd32 O40 2.277 . S
Cd32 O41 2.356 . S
C33 O38 1.209 . S
C33 O40 1.226 . S
O34 Cd30 2.273 . S
O34 Cd32 2.411 . S
O34 C37 1.320 . S
O35 Cd32 2.333 . S
O35 C37 1.214 . S
O36 Cd32 2.352 . S
O36 C39 1.258 . S
C37 O34 1.320 . S
C37 O35 1.214 . S
O38 Cd30 2.277 . S
O38 C33 1.209 . S
C39 O36 1.258 . S
C39 O41 1.282 . S
O40 Cd32 2.277 . S
O40 C33 1.226 . S
O41 Cd32 2.356 . S
O41 C39 1.282 . S
C42 O43 1.306 . S
C42 O45 1.160 . S
O43 C42 1.306 . S
O43 Cd44 2.228 . S
Cd44 O43 2.228 . S
Cd44 O48 2.273 . S
Cd44 O52 2.277 . S
O45 C42 1.160 . S
O45 Cd46 2.203 . S
Cd46 O45 2.203 . S
Cd46 O48 2.411 . S
Cd46 O49 2.333 . S
Cd46 O50 2.352 . S
Cd46 O54 2.277 . S
Cd46 O55 2.356 . S
C47 O52 1.209 . S
C47 O54 1.226 . S
O48 Cd44 2.273 . S
O48 Cd46 2.411 . S
O48 C51 1.320 . S
O49 Cd46 2.333 . S
O49 C51 1.214 . S
O50 Cd46 2.352 . S
O50 C53 1.258 . S
C51 O48 1.320 . S
C51 O49 1.214 . S
O52 Cd44 2.277 . S
O52 C47 1.209 . S
C53 O50 1.258 . S
C53 O55 1.282 . S
O54 Cd46 2.277 . S
O54 C47 1.226 . S
O55 Cd46 2.356 . S
O55 C53 1.282 . S
C56 O57 1.306 . S
C56 O59 1.160 . S
O57 C56 1.306 . S
O57 Cd58 2.228 . S
Cd58 O57 2.228 . S
Cd58 O62 2.273 . S
Cd58 O66 2.277 . S
O59 C56 1.160 . S
O59 Cd60 2.203 . S
Cd60 O59 2.203 . S
Cd60 O62 2.411 . S
Cd60 O63 2.333 . S
Cd60 O64 2.352 . S
Cd60 O68 2.277 . S
Cd60 O69 2.356 . S
C61 O66 1.209 . S
C61 O68 1.226 . S
O62 Cd58 2.273 . S
O62 Cd60 2.411 . S
O62 C65 1.320 . S
O63 Cd60 2.333 . S
O63 C65 1.214 . S
O64 Cd60 2.352 . S
O64 C67 1.258 . S
C65 O62 1.320 . S
C65 O63 1.214 . S
O66 Cd58 2.277 . S
O66 C61 1.209 . S
C67 O64 1.258 . S
C67 O69 1.282 . S
O68 Cd60 2.277 . S
O68 C61 1.226 . S
O69 Cd60 2.356 . S
O69 C67 1.282 . S
C70 O71 1.306 . S
C70 O73 1.160 . S
O71 C70 1.306 . S
O71 Cd72 2.228 . S
Cd72 O71 2.228 . S
Cd72 O76 2.273 . S
Cd72 O80 2.277 . S
O73 C70 1.160 . S
O73 Cd74 2.203 . S
Cd74 O73 2.203 . S
Cd74 O76 2.411 . S
Cd74 O77 2.333 . S
Cd74 O78 2.352 . S
Cd74 O82 2.277 . S
Cd74 O83 2.356 . S
C75 O80 1.209 . S
C75 O82 1.226 . S
O76 Cd72 2.273 . S
O76 Cd74 2.411 . S
O76 C79 1.320 . S
O77 Cd74 2.333 . S
O77 C79 1.214 . S
O78 Cd74 2.352 . S
O78 C81 1.258 . S
C79 O76 1.320 . S
C79 O77 1.214 . S
O80 Cd72 2.277 . S
O80 C75 1.209 . S
C81 O78 1.258 . S
C81 O83 1.282 . S
O82 Cd74 2.277 . S
O82 C75 1.226 . S
O83 Cd74 2.356 . S
O83 C81 1.282 . S
C84 O85 1.306 . S
C84 O87 1.160 . S
O85 C84 1.306 . S
O85 Cd86 2.228 . S
Cd86 O85 2.228 . S
Cd86 O90 2.273 . S
Cd86 O94 2.277 . S
O87 C84 1.160 . S
O87 Cd88 2.203 . S
Cd88 O87 2.203 . S
Cd88 O90 2.411 . S
Cd88 O91 2.333 . S
Cd88 O92 2.352 . S
Cd88 O96 2.277 . S
Cd88 O97 2.356 . S
C89 O94 1.209 . S
C89 O96 1.226 . S
O90 Cd86 2.273 . S
O90 Cd88 2.411 . S
O90 C93 1.320 . S
O91 Cd88 2.333 . S
O91 C93 1.214 . S
O92 Cd88 2.352 . S
O92 C95 1.258 . S
C93 O90 1.320 . S
C93 O91 1.214 . S
O94 Cd86 2.277 . S
O94 C89 1.209 . S
C95 O92 1.258 . S
C95 O97 1.282 . S
O96 Cd88 2.277 . S
O96 C89 1.226 . S
O97 Cd88 2.356 . S
O97 C95 1.282 . S
C98 O99 1.306 . S
C98 O101 1.160 . S
O99 C98 1.306 . S
O99 Cd100 2.228 . S
Cd100 O99 2.228 . S
Cd100 O104 2.273 . S
Cd100 O108 2.277 . S
O101 C98 1.160 . S
O101 Cd102 2.203 . S
Cd102 O101 2.203 . S
Cd102 O104 2.411 . S
Cd102 O105 2.333 . S
Cd102 O106 2.352 . S
Cd102 O110 2.277 . S
Cd102 O111 2.356 . S
C103 O108 1.209 . S
C103 O110 1.226 . S
O104 Cd100 2.273 . S
O104 Cd102 2.411 . S
O104 C107 1.320 . S
O105 Cd102 2.333 . S
O105 C107 1.214 . S
O106 Cd102 2.352 . S
O106 C109 1.258 . S
C107 O104 1.320 . S
C107 O105 1.214 . S
O108 Cd100 2.277 . S
O108 C103 1.209 . S
C109 O106 1.258 . S
C109 O111 1.282 . S
O110 Cd102 2.277 . S
O110 C103 1.226 . S
O111 Cd102 2.356 . S
O111 C109 1.282 . S
C112 O113 1.306 . S
C112 O115 1.160 . S
O113 C112 1.306 . S
O113 Cd114 2.228 . S
Cd114 O113 2.228 . S
Cd114 O118 2.273 . S
Cd114 O122 2.277 . S
O115 C112 1.160 . S
O115 Cd116 2.203 . S
Cd116 O115 2.203 . S
Cd116 O118 2.411 . S
Cd116 O119 2.333 . S
Cd116 O120 2.352 . S
Cd116 O124 2.277 . S
Cd116 O125 2.356 . S
C117 O122 1.209 . S
C117 O124 1.226 . S
O118 Cd114 2.273 . S
O118 Cd116 2.411 . S
O118 C121 1.320 . S
O119 Cd116 2.333 . S
O119 C121 1.214 . S
O120 Cd116 2.352 . S
O120 C123 1.258 . S
C121 O118 1.320 . S
C121 O119 1.214 . S
O122 Cd114 2.277 . S
O122 C117 1.209 . S
C123 O120 1.258 . S
C123 O125 1.282 . S
O124 Cd116 2.277 . S
O124 C117 1.226 . S
O125 Cd116 2.356 . S
O125 C123 1.282 . S
C126 O127 1.306 . S
C126 O129 1.160 . S
O127 C126 1.306 . S
O127 Cd128 2.228 . S
Cd128 O127 2.228 . S
Cd128 O132 2.273 . S
Cd128 O136 2.277 . S
O129 C126 1.160 . S
O129 Cd130 2.203 . S
Cd130 O129 2.203 . S
Cd130 O132 2.411 . S
Cd130 O133 2.333 . S
Cd130 O134 2.352 . S
Cd130 O138 2.277 . S
Cd130 O139 2.356 . S
C131 O136 1.209 . S
C131 O138 1.226 . S
O132 Cd128 2.273 . S
O132 Cd130 2.411 . S
O132 C135 1.320 . S
O133 Cd130 2.333 . S
O133 C135 1.214 . S
O134 Cd130 2.352 . S
O134 C137 1.258 . S
C135 O132 1.320 . S
C135 O133 1.214 . S
O136 Cd128 2.277 . S
O136 C131 1.209 . S
C137 O134 1.258 . S
C137 O139 1.282 . S
O138 Cd130 2.277 . S
O138 C131 1.226 . S
O139 Cd130 2.356 . S
O139 C137 1.282 . S
C140 O141 1.306 . S
C140 O143 1.160 . S
O141 C140 1.306 . S
O141 Cd142 2.228 . S
Cd142 O141 2.228 . S
Cd142 O146 2.273 . S
Cd142 O150 2.277 . S
O143 C140 1.160 . S
O143 Cd144 2.203 . S
Cd144 O143 2.203 . S
Cd144 O146 2.411 . S
Cd144 O147 2.333 . S
Cd144 O148 2.352 . S
Cd144 O152 2.277 . S
Cd144 O153 2.356 . S
C145 O150 1.209 . S
C145 O152 1.226 . S
O146 Cd142 2.273 . S
O146 Cd144 2.411 . S
O146 C149 1.320 . S
O147 Cd144 2.333 . S
O147 C149 1.214 . S
O148 Cd144 2.352 . S
O148 C151 1.258 . S
C149 O146 1.320 . S
C149 O147 1.214 . S
O150 Cd142 2.277 . S
O150 C145 1.209 . S
C151 O148 1.258 . S
C151 O153 1.282 . S
O152 Cd144 2.277 . S
O152 C145 1.226 . S
O153 Cd144 2.356 . S
O153 C151 1.282 . S
C154 O155 1.306 . S
C154 O157 1.160 . S
O155 C154 1.306 . S
O155 Cd156 2.228 . S
Cd156 O155 2.228 . S
Cd156 O160 2.273 . S
Cd156 O164 2.277 . S
O157 C154 1.160 . S
O157 Cd158 2.203 . S
Cd158 O157 2.203 . S
Cd158 O160 2.411 . S
Cd158 O161 2.333 . S
Cd158 O162 2.352 . S
Cd158 O166 2.277 . S
Cd158 O167 2.356 . S
C159 O164 1.209 . S
C159 O166 1.226 . S
O160 Cd156 2.273 . S
O160 Cd158 2.411 . S
O160 C163 1.320 . S
O161 Cd158 2.333 . S
O161 C163 1.214 . S
O162 Cd158 2.352 . S
O162 C165 1.258 . S
C163 O160 1.320 . S
C163 O161 1.214 . S
O164 Cd156 2.277 . S
O164 C159 1.209 . S
C165 O162 1.258 . S
C165 O167 1.282 . S
O166 Cd158 2.277 . S
O166 C159 1.226 . S
O167 Cd158 2.356 . S
O167 C165 1.282 . S
H168 C186 0.951 . S
H169 C188 0.951 . S
H170 C190 0.950 . S
H171 C191 0.950 . S
H172 C193 0.950 . S
H173 C196 0.950 . S
H174 C197 0.950 . S
H175 C199 0.950 . S
H176 C200 0.950 . S
H177 C201 0.951 . S
H178 C203 0.951 . S
H179 C205 0.950 . S
H180 C206 0.950 . S
H181 C208 0.950 . S
H182 C211 0.950 . S
H183 C212 0.950 . S
H184 C214 0.950 . S
H185 C215 0.950 . S
C186 H168 0.951 . S
C186 C187 1.366 . S
C186 C188 1.388 . S
C187 C186 1.366 . S
C187 C191 1.385 . S
C188 H169 0.951 . S
C188 C186 1.388 . S
C188 C189 1.366 . S
C189 C188 1.366 . S
C189 C190 1.414 . S
C189 C192 1.499 . S
C190 H170 0.950 . S
C190 C189 1.414 . S
C190 C191 1.374 . S
C191 H171 0.950 . S
C191 C187 1.385 . S
C191 C190 1.374 . S
C192 C189 1.499 . S
C192 C193 1.373 . S
C192 C194 1.389 . S
C193 H172 0.950 . S
C193 C192 1.373 . S
C193 C209 1.377 . S
C194 C192 1.389 . S
C194 C195 1.524 . S
C194 C208 1.377 . S
C195 C194 1.524 . S
C195 C196 1.397 . S
C195 C200 1.363 . S
C196 H173 0.950 . S
C196 C195 1.397 . S
C196 C197 1.334 . S
C197 H174 0.950 . S
C197 C196 1.334 . S
C197 C198 1.287 . S
C198 C197 1.287 . S
C198 C199 1.524 . S
C198 H217 0.913 . S
C199 H175 0.950 . S
C199 C198 1.524 . S
C199 C200 1.415 . S
C200 H176 0.950 . S
C200 C195 1.363 . S
C200 C199 1.415 . S
C201 H177 0.951 . S
C201 C202 1.366 . S
C201 C203 1.388 . S
C202 C201 1.366 . S
C202 C206 1.385 . S
C203 H178 0.951 . S
C203 C201 1.388 . S
C203 C204 1.366 . S
C204 C203 1.366 . S
C204 C205 1.414 . S
C204 C207 1.499 . S
C205 H179 0.950 . S
C205 C204 1.414 . S
C205 C206 1.374 . S
C206 H180 0.950 . S
C206 C202 1.385 . S
C206 C205 1.374 . S
C207 C204 1.499 . S
C207 C208 1.373 . S
C207 C209 1.389 . S
C208 H181 0.950 . S
C208 C194 1.377 . S
C208 C207 1.373 . S
C209 C193 1.377 . S
C209 C207 1.389 . S
C209 C210 1.524 . S
C210 C209 1.524 . S
C210 C211 1.397 . S
C210 C215 1.363 . S
C211 H182 0.950 . S
C211 C210 1.397 . S
C211 C212 1.334 . S
C212 H183 0.950 . S
C212 C211 1.334 . S
C212 C213 1.287 . S
C213 C212 1.287 . S
C213 C214 1.524 . S
C213 H216 0.999 . S
C214 H184 0.950 . S
C214 C213 1.524 . S
C214 C215 1.415 . S
C215 H185 0.950 . S
C215 C210 1.363 . S
C215 C214 1.415 . S
H216 C213 0.999 . S
H217 C198 0.913 . S
H218 C236 0.951 . S
H219 C238 0.951 . S
H220 C240 0.950 . S
H221 C241 0.950 . S
H222 C243 0.950 . S
H223 C246 0.950 . S
H224 C247 0.950 . S
H225 C249 0.950 . S
H226 C250 0.950 . S
H227 C251 0.951 . S
H228 C253 0.951 . S
H229 C255 0.950 . S
H230 C256 0.950 . S
H231 C258 0.950 . S
H232 C261 0.950 . S
H233 C262 0.950 . S
H234 C264 0.950 . S
H235 C265 0.950 . S
C236 H218 0.951 . S
C236 C237 1.366 . S
C236 C238 1.388 . S
C237 C236 1.366 . S
C237 C241 1.385 . S
C238 H219 0.951 . S
C238 C236 1.388 . S
C238 C239 1.366 . S
C239 C238 1.366 . S
C239 C240 1.414 . S
C239 C242 1.499 . S
C240 H220 0.950 . S
C240 C239 1.414 . S
C240 C241 1.374 . S
C241 H221 0.950 . S
C241 C237 1.385 . S
C241 C240 1.374 . S
C242 C239 1.499 . S
C242 C243 1.373 . S
C242 C244 1.389 . S
C243 H222 0.950 . S
C243 C242 1.373 . S
C243 C259 1.377 . S
C244 C242 1.389 . S
C244 C245 1.524 . S
C244 C258 1.377 . S
C245 C244 1.524 . S
C245 C246 1.397 . S
C245 C250 1.363 . S
C246 H223 0.950 . S
C246 C245 1.397 . S
C246 C247 1.334 . S
C247 H224 0.950 . S
C247 C246 1.334 . S
C247 C248 1.287 . S
C248 C247 1.287 . S
C248 C249 1.524 . S
C248 H267 0.913 . S
C249 H225 0.950 . S
C249 C248 1.524 . S
C249 C250 1.415 . S
C250 H226 0.950 . S
C250 C245 1.363 . S
C250 C249 1.415 . S
C251 H227 0.951 . S
C251 C252 1.366 . S
C251 C253 1.388 . S
C252 C251 1.366 . S
C252 C256 1.385 . S
C253 H228 0.951 . S
C253 C251 1.388 . S
C253 C254 1.366 . S
C254 C253 1.366 . S
C254 C255 1.414 . S
C254 C257 1.499 . S
C255 H229 0.950 . S
C255 C254 1.414 . S
C255 C256 1.374 . S
C256 H230 0.950 . S
C256 C252 1.385 . S
C256 C255 1.374 . S
C257 C254 1.499 . S
C257 C258 1.373 . S
C257 C259 1.389 . S
C258 H231 0.950 . S
C258 C244 1.377 . S
C258 C257 1.373 . S
C259 C243 1.377 . S
C259 C257 1.389 . S
C259 C260 1.524 . S
C260 C259 1.524 . S
C260 C261 1.397 . S
C260 C265 1.363 . S
C261 H232 0.950 . S
C261 C260 1.397 . S
C261 C262 1.334 . S
C262 H233 0.950 . S
C262 C261 1.334 . S
C262 C263 1.287 . S
C263 C262 1.287 . S
C263 C264 1.524 . S
C263 H266 0.999 . S
C264 H234 0.950 . S
C264 C263 1.524 . S
C264 C265 1.415 . S
C265 H235 0.950 . S
C265 C260 1.363 . S
C265 C264 1.415 . S
H266 C263 0.999 . S
H267 C248 0.913 . S
H268 C286 0.951 . S
H269 C288 0.951 . S
H270 C290 0.950 . S
H271 C291 0.950 . S
H272 C293 0.950 . S
H273 C296 0.950 . S
H274 C297 0.950 . S
H275 C299 0.950 . S
H276 C300 0.950 . S
H277 C301 0.951 . S
H278 C303 0.951 . S
H279 C305 0.950 . S
H280 C306 0.950 . S
H281 C308 0.950 . S
H282 C311 0.950 . S
H283 C312 0.950 . S
H284 C314 0.950 . S
H285 C315 0.950 . S
C286 H268 0.951 . S
C286 C287 1.366 . S
C286 C288 1.388 . S
C287 C286 1.366 . S
C287 C291 1.385 . S
C288 H269 0.951 . S
C288 C286 1.388 . S
C288 C289 1.366 . S
C289 C288 1.366 . S
C289 C290 1.414 . S
C289 C292 1.499 . S
C290 H270 0.950 . S
C290 C289 1.414 . S
C290 C291 1.374 . S
C291 H271 0.950 . S
C291 C287 1.385 . S
C291 C290 1.374 . S
C292 C289 1.499 . S
C292 C293 1.373 . S
C292 C294 1.389 . S
C293 H272 0.950 . S
C293 C292 1.373 . S
C293 C309 1.377 . S
C294 C292 1.389 . S
C294 C295 1.524 . S
C294 C308 1.377 . S
C295 C294 1.524 . S
C295 C296 1.397 . S
C295 C300 1.363 . S
C296 H273 0.950 . S
C296 C295 1.397 . S
C296 C297 1.334 . S
C297 H274 0.950 . S
C297 C296 1.334 . S
C297 C298 1.287 . S
C298 C297 1.287 . S
C298 C299 1.524 . S
C298 H317 0.913 . S
C299 H275 0.950 . S
C299 C298 1.524 . S
C299 C300 1.415 . S
C300 H276 0.950 . S
C300 C295 1.363 . S
C300 C299 1.415 . S
C301 H277 0.951 . S
C301 C302 1.366 . S
C301 C303 1.388 . S
C302 C301 1.366 . S
C302 C306 1.385 . S
C303 H278 0.951 . S
C303 C301 1.388 . S
C303 C304 1.366 . S
C304 C303 1.366 . S
C304 C305 1.414 . S
C304 C307 1.499 . S
C305 H279 0.950 . S
C305 C304 1.414 . S
C305 C306 1.374 . S
C306 H280 0.950 . S
C306 C302 1.385 . S
C306 C305 1.374 . S
C307 C304 1.499 . S
C307 C308 1.373 . S
C307 C309 1.389 . S
C308 H281 0.950 . S
C308 C294 1.377 . S
C308 C307 1.373 . S
C309 C293 1.377 . S
C309 C307 1.389 . S
C309 C310 1.524 . S
C310 C309 1.524 . S
C310 C311 1.397 . S
C310 C315 1.363 . S
C311 H282 0.950 . S
C311 C310 1.397 . S
C311 C312 1.334 . S
C312 H283 0.950 . S
C312 C311 1.334 . S
C312 C313 1.287 . S
C313 C312 1.287 . S
C313 C314 1.524 . S
C313 H316 0.999 . S
C314 H284 0.950 . S
C314 C313 1.524 . S
C314 C315 1.415 . S
C315 H285 0.950 . S
C315 C310 1.363 . S
C315 C314 1.415 . S
H316 C313 0.999 . S
H317 C298 0.913 . S
H318 C336 0.951 . S
H319 C338 0.951 . S
H320 C340 0.950 . S
H321 C341 0.950 . S
H322 C343 0.950 . S
H323 C346 0.950 . S
H324 C347 0.950 . S
H325 C349 0.950 . S
H326 C350 0.950 . S
H327 C351 0.951 . S
H328 C353 0.951 . S
H329 C355 0.950 . S
H330 C356 0.950 . S
H331 C358 0.950 . S
H332 C361 0.950 . S
H333 C362 0.950 . S
H334 C364 0.950 1_455 S
H335 C365 0.950 . S
C336 H318 0.951 . S
C336 C337 1.366 . S
C336 C338 1.388 . S
C337 C336 1.366 . S
C337 C341 1.385 . S
C338 H319 0.951 . S
C338 C336 1.388 . S
C338 C339 1.366 . S
C339 C338 1.366 . S
C339 C340 1.414 . S
C339 C342 1.499 . S
C340 H320 0.950 . S
C340 C339 1.414 . S
C340 C341 1.374 . S
C341 H321 0.950 . S
C341 C337 1.385 . S
C341 C340 1.374 . S
C342 C339 1.499 . S
C342 C343 1.373 . S
C342 C344 1.389 . S
C343 H322 0.950 . S
C343 C342 1.373 . S
C343 C359 1.377 . S
C344 C342 1.389 . S
C344 C345 1.524 . S
C344 C358 1.377 . S
C345 C344 1.524 . S
C345 C346 1.397 . S
C345 C350 1.363 . S
C346 H323 0.950 . S
C346 C345 1.397 . S
C346 C347 1.334 . S
C347 H324 0.950 . S
C347 C346 1.334 . S
C347 C348 1.287 . S
C348 C347 1.287 . S
C348 C349 1.524 . S
C348 H367 0.913 . S
C349 H325 0.950 . S
C349 C348 1.524 . S
C349 C350 1.415 . S
C350 H326 0.950 . S
C350 C345 1.363 . S
C350 C349 1.415 . S
C351 H327 0.951 . S
C351 C352 1.366 . S
C351 C353 1.388 . S
C352 C351 1.366 . S
C352 C356 1.385 . S
C353 H328 0.951 . S
C353 C351 1.388 . S
C353 C354 1.366 . S
C354 C353 1.366 . S
C354 C355 1.414 . S
C354 C357 1.499 . S
C355 H329 0.950 . S
C355 C354 1.414 . S
C355 C356 1.374 . S
C356 H330 0.950 . S
C356 C352 1.385 . S
C356 C355 1.374 . S
C357 C354 1.499 . S
C357 C358 1.373 . S
C357 C359 1.389 . S
C358 H331 0.950 . S
C358 C344 1.377 . S
C358 C357 1.373 . S
C359 C343 1.377 . S
C359 C357 1.389 . S
C359 C360 1.524 . S
C360 C359 1.524 . S
C360 C361 1.397 . S
C360 C365 1.363 . S
C361 H332 0.950 . S
C361 C360 1.397 . S
C361 C362 1.334 . S
C362 H333 0.950 . S
C362 C361 1.334 . S
C362 C363 1.287 . S
C363 C362 1.287 . S
C363 C364 1.524 . S
C363 H366 0.999 . S
C364 H334 0.950 1_655 S
C364 C363 1.524 . S
C364 C365 1.415 . S
C365 H335 0.950 . S
C365 C360 1.363 . S
C365 C364 1.415 . S
H366 C363 0.999 . S
H367 C348 0.913 . S
H368 C386 0.951 . S
H369 C388 0.951 . S
H370 C390 0.950 . S
H371 C391 0.950 . S
H372 C393 0.950 . S
H373 C396 0.950 . S
H374 C397 0.950 . S
H375 C399 0.950 . S
H376 C400 0.950 . S
H377 C401 0.951 . S
H378 C403 0.951 . S
H379 C405 0.950 . S
H380 C406 0.950 . S
H381 C408 0.950 . S
H382 C411 0.950 . S
H383 C412 0.950 . S
H384 C414 0.950 . S
H385 C415 0.950 . S
C386 H368 0.951 . S
C386 C387 1.366 . S
C386 C388 1.388 . S
C387 C386 1.366 . S
C387 C391 1.385 . S
C388 H369 0.951 . S
C388 C386 1.388 . S
C388 C389 1.366 . S
C389 C388 1.366 . S
C389 C390 1.414 . S
C389 C392 1.499 . S
C390 H370 0.950 . S
C390 C389 1.414 . S
C390 C391 1.374 . S
C391 H371 0.950 . S
C391 C387 1.385 . S
C391 C390 1.374 . S
C392 C389 1.499 . S
C392 C393 1.373 . S
C392 C394 1.389 . S
C393 H372 0.950 . S
C393 C392 1.373 . S
C393 C409 1.377 . S
C394 C392 1.389 . S
C394 C395 1.524 . S
C394 C408 1.377 . S
C395 C394 1.524 . S
C395 C396 1.397 . S
C395 C400 1.363 . S
C396 H373 0.950 . S
C396 C395 1.397 . S
C396 C397 1.334 . S
C397 H374 0.950 . S
C397 C396 1.334 . S
C397 C398 1.287 . S
C398 C397 1.287 . S
C398 C399 1.524 . S
C398 H417 0.913 . S
C399 H375 0.950 . S
C399 C398 1.524 . S
C399 C400 1.415 . S
C400 H376 0.950 . S
C400 C395 1.363 . S
C400 C399 1.415 . S
C401 H377 0.951 . S
C401 C402 1.366 . S
C401 C403 1.388 . S
C402 C401 1.366 . S
C402 C406 1.385 . S
C403 H378 0.951 . S
C403 C401 1.388 . S
C403 C404 1.366 . S
C404 C403 1.366 . S
C404 C405 1.414 . S
C404 C407 1.499 . S
C405 H379 0.950 . S
C405 C404 1.414 . S
C405 C406 1.374 . S
C406 H380 0.950 . S
C406 C402 1.385 . S
C406 C405 1.374 . S
C407 C404 1.499 . S
C407 C408 1.373 . S
C407 C409 1.389 . S
C408 H381 0.950 . S
C408 C394 1.377 . S
C408 C407 1.373 . S
C409 C393 1.377 . S
C409 C407 1.389 . S
C409 C410 1.524 . S
C410 C409 1.524 . S
C410 C411 1.397 . S
C410 C415 1.363 . S
C411 H382 0.950 . S
C411 C410 1.397 . S
C411 C412 1.334 . S
C412 H383 0.950 . S
C412 C411 1.334 . S
C412 C413 1.287 . S
C413 C412 1.287 . S
C413 C414 1.524 . S
C413 H416 0.999 . S
C414 H384 0.950 . S
C414 C413 1.524 . S
C414 C415 1.415 . S
C415 H385 0.950 . S
C415 C410 1.363 . S
C415 C414 1.415 . S
H416 C413 0.999 . S
H417 C398 0.913 . S
H418 C436 0.951 . S
H419 C438 0.951 . S
H420 C440 0.950 . S
H421 C441 0.950 . S
H422 C443 0.950 . S
H423 C446 0.950 . S
H424 C447 0.950 . S
H425 C449 0.950 . S
H426 C450 0.950 . S
H427 C451 0.951 . S
H428 C453 0.951 . S
H429 C455 0.950 . S
H430 C456 0.950 . S
H431 C458 0.950 . S
H432 C461 0.950 . S
H433 C462 0.950 . S
H434 C464 0.950 . S
H435 C465 0.950 . S
C436 H418 0.951 . S
C436 C437 1.366 . S
C436 C438 1.388 . S
C437 C436 1.366 . S
C437 C441 1.385 . S
C438 H419 0.951 . S
C438 C436 1.388 . S
C438 C439 1.366 . S
C439 C438 1.366 . S
C439 C440 1.414 . S
C439 C442 1.499 . S
C440 H420 0.950 . S
C440 C439 1.414 . S
C440 C441 1.374 . S
C441 H421 0.950 . S
C441 C437 1.385 . S
C441 C440 1.374 . S
C442 C439 1.499 . S
C442 C443 1.373 . S
C442 C444 1.389 . S
C443 H422 0.950 . S
C443 C442 1.373 . S
C443 C459 1.377 . S
C444 C442 1.389 . S
C444 C445 1.524 . S
C444 C458 1.377 . S
C445 C444 1.524 . S
C445 C446 1.397 . S
C445 C450 1.363 . S
C446 H423 0.950 . S
C446 C445 1.397 . S
C446 C447 1.334 . S
C447 H424 0.950 . S
C447 C446 1.334 . S
C447 C448 1.287 . S
C448 C447 1.287 . S
C448 C449 1.524 . S
C448 H467 0.913 . S
C449 H425 0.950 . S
C449 C448 1.524 . S
C449 C450 1.415 . S
C450 H426 0.950 . S
C450 C445 1.363 . S
C450 C449 1.415 . S
C451 H427 0.951 . S
C451 C452 1.366 . S
C451 C453 1.388 . S
C452 C451 1.366 . S
C452 C456 1.385 . S
C453 H428 0.951 . S
C453 C451 1.388 . S
C453 C454 1.366 . S
C454 C453 1.366 . S
C454 C455 1.414 . S
C454 C457 1.499 . S
C455 H429 0.950 . S
C455 C454 1.414 . S
C455 C456 1.374 . S
C456 H430 0.950 . S
C456 C452 1.385 . S
C456 C455 1.374 . S
C457 C454 1.499 . S
C457 C458 1.373 . S
C457 C459 1.389 . S
C458 H431 0.950 . S
C458 C444 1.377 . S
C458 C457 1.373 . S
C459 C443 1.377 . S
C459 C457 1.389 . S
C459 C460 1.524 . S
C460 C459 1.524 . S
C460 C461 1.397 . S
C460 C465 1.363 . S
C461 H432 0.950 . S
C461 C460 1.397 . S
C461 C462 1.334 . S
C462 H433 0.950 . S
C462 C461 1.334 . S
C462 C463 1.287 . S
C463 C462 1.287 . S
C463 C464 1.524 . S
C463 H466 0.999 . S
C464 H434 0.950 . S
C464 C463 1.524 . S
C464 C465 1.415 . S
C465 H435 0.950 . S
C465 C460 1.363 . S
C465 C464 1.415 . S
H466 C463 0.999 . S
H467 C448 0.913 . S
H468 C486 0.951 . S
H469 C488 0.951 . S
H470 C490 0.950 . S
H471 C491 0.950 . S
H472 C493 0.950 . S
H473 C496 0.950 . S
H474 C497 0.950 . S
H475 C499 0.950 . S
H476 C500 0.950 . S
H477 C501 0.951 . S
H478 C503 0.951 . S
H479 C505 0.950 . S
H480 C506 0.950 . S
H481 C508 0.950 . S
H482 C511 0.950 . S
H483 C512 0.950 . S
H484 C514 0.950 . S
H485 C515 0.950 . S
C486 H468 0.951 . S
C486 C487 1.366 . S
C486 C488 1.388 . S
C487 C486 1.366 . S
C487 C491 1.385 . S
C488 H469 0.951 . S
C488 C486 1.388 . S
C488 C489 1.366 . S
C489 C488 1.366 . S
C489 C490 1.414 . S
C489 C492 1.499 . S
C490 H470 0.950 . S
C490 C489 1.414 . S
C490 C491 1.374 . S
C491 H471 0.950 . S
C491 C487 1.385 . S
C491 C490 1.374 . S
C492 C489 1.499 . S
C492 C493 1.373 . S
C492 C494 1.389 . S
C493 H472 0.950 . S
C493 C492 1.373 . S
C493 C509 1.377 . S
C494 C492 1.389 . S
C494 C495 1.524 . S
C494 C508 1.377 . S
C495 C494 1.524 . S
C495 C496 1.397 . S
C495 C500 1.363 . S
C496 H473 0.950 . S
C496 C495 1.397 . S
C496 C497 1.334 . S
C497 H474 0.950 . S
C497 C496 1.334 . S
C497 C498 1.287 . S
C498 C497 1.287 . S
C498 C499 1.524 . S
C498 H517 0.913 . S
C499 H475 0.950 . S
C499 C498 1.524 . S
C499 C500 1.415 . S
C500 H476 0.950 . S
C500 C495 1.363 . S
C500 C499 1.415 . S
C501 H477 0.951 . S
C501 C502 1.366 . S
C501 C503 1.388 . S
C502 C501 1.366 . S
C502 C506 1.385 . S
C503 H478 0.951 . S
C503 C501 1.388 . S
C503 C504 1.366 . S
C504 C503 1.366 . S
C504 C505 1.414 . S
C504 C507 1.499 . S
C505 H479 0.950 . S
C505 C504 1.414 . S
C505 C506 1.374 . S
C506 H480 0.950 . S
C506 C502 1.385 . S
C506 C505 1.374 . S
C507 C504 1.499 . S
C507 C508 1.373 . S
C507 C509 1.389 . S
C508 H481 0.950 . S
C508 C494 1.377 . S
C508 C507 1.373 . S
C509 C493 1.377 . S
C509 C507 1.389 . S
C509 C510 1.524 . S
C510 C509 1.524 . S
C510 C511 1.397 . S
C510 C515 1.363 . S
C511 H482 0.950 . S
C511 C510 1.397 . S
C511 C512 1.334 . S
C512 H483 0.950 . S
C512 C511 1.334 . S
C512 C513 1.287 . S
C513 C512 1.287 . S
C513 C514 1.524 . S
C513 H516 0.999 . S
C514 H484 0.950 . S
C514 C513 1.524 . S
C514 C515 1.415 . S
C515 H485 0.950 . S
C515 C510 1.363 . S
C515 C514 1.415 . S
H516 C513 0.999 . S
H517 C498 0.913 . S
H518 C536 0.951 . S
H519 C538 0.951 . S
H520 C540 0.950 . S
H521 C541 0.950 . S
H522 C543 0.950 . S
H523 C546 0.950 . S
H524 C547 0.950 . S
H525 C549 0.950 . S
H526 C550 0.950 . S
H527 C551 0.951 . S
H528 C553 0.951 . S
H529 C555 0.950 . S
H530 C556 0.950 . S
H531 C558 0.950 . S
H532 C561 0.950 . S
H533 C562 0.950 . S
H534 C564 0.950 . S
H535 C565 0.950 . S
C536 H518 0.951 . S
C536 C537 1.366 . S
C536 C538 1.388 . S
C537 C536 1.366 . S
C537 C541 1.385 . S
C538 H519 0.951 . S
C538 C536 1.388 . S
C538 C539 1.366 . S
C539 C538 1.366 . S
C539 C540 1.414 . S
C539 C542 1.499 . S
C540 H520 0.950 . S
C540 C539 1.414 . S
C540 C541 1.374 . S
C541 H521 0.950 . S
C541 C537 1.385 . S
C541 C540 1.374 . S
C542 C539 1.499 . S
C542 C543 1.373 . S
C542 C544 1.386 . S
C543 H522 0.950 . S
C543 C542 1.373 . S
C543 C559 1.374 . S
C544 C542 1.386 . S
C544 C545 1.526 1_655 S
C544 C558 1.379 1_655 S
C545 C544 1.526 1_455 S
C545 C546 1.397 1_455 S
C545 C550 1.363 . S
C546 H523 0.950 . S
C546 C545 1.397 1_655 S
C546 C547 1.334 . S
C547 H524 0.950 . S
C547 C546 1.334 . S
C547 C548 1.287 1_655 S
C548 C547 1.287 1_455 S
C548 C549 1.524 . S
C548 H567 0.913 . S
C549 H525 0.950 . S
C549 C548 1.524 . S
C549 C550 1.415 . S
C550 H526 0.950 . S
C550 C545 1.363 . S
C550 C549 1.415 . S
C551 H527 0.951 . S
C551 C552 1.366 . S
C551 C553 1.388 . S
C552 C551 1.366 . S
C552 C556 1.385 . S
C553 H528 0.951 . S
C553 C551 1.388 . S
C553 C554 1.366 . S
C554 C553 1.366 . S
C554 C555 1.414 . S
C554 C557 1.499 . S
C555 H529 0.950 . S
C555 C554 1.414 . S
C555 C556 1.374 . S
C556 H530 0.950 . S
C556 C552 1.385 . S
C556 C555 1.374 . S
C557 C554 1.499 . S
C557 C558 1.373 . S
C557 C559 1.393 1_455 S
C558 H531 0.950 . S
C558 C544 1.379 1_455 S
C558 C557 1.373 . S
C559 C543 1.374 . S
C559 C557 1.393 1_655 S
C559 C560 1.523 . S
C560 C559 1.523 . S
C560 C561 1.397 1_655 S
C560 C565 1.363 . S
C561 H532 0.950 . S
C561 C560 1.397 1_455 S
C561 C562 1.334 . S
C562 H533 0.950 . S
C562 C561 1.334 . S
C562 C563 1.287 1_455 S
C563 C562 1.287 1_655 S
C563 C564 1.524 . S
C563 H566 0.999 . S
C564 H534 0.950 . S
C564 C563 1.524 . S
C564 C565 1.415 . S
C565 H535 0.950 . S
C565 C560 1.363 . S
C565 C564 1.415 . S
H566 C563 0.999 . S
H567 C548 0.913 . S
H568 C586 0.951 . S
H569 C588 0.951 . S
H570 C590 0.950 . S
H571 C591 0.950 . S
H572 C593 0.950 . S
H573 C596 0.950 . S
H574 C597 0.950 . S
H575 C599 0.950 . S
H576 C600 0.950 . S
H577 C601 0.951 . S
H578 C603 0.951 . S
H579 C605 0.950 . S
H580 C606 0.950 . S
H581 C608 0.950 . S
H582 C611 0.950 . S
H583 C612 0.950 . S
H584 C614 0.950 . S
H585 C615 0.950 . S
C586 H568 0.951 . S
C586 C587 1.366 . S
C586 C588 1.388 . S
C587 C586 1.366 . S
C587 C591 1.385 . S
C588 H569 0.951 . S
C588 C586 1.388 . S
C588 C589 1.366 . S
C589 C588 1.366 . S
C589 C590 1.414 . S
C589 C592 1.499 . S
C590 H570 0.950 . S
C590 C589 1.414 . S
C590 C591 1.374 . S
C591 H571 0.950 . S
C591 C587 1.385 . S
C591 C590 1.374 . S
C592 C589 1.499 . S
C592 C593 1.373 . S
C592 C594 1.389 . S
C593 H572 0.950 . S
C593 C592 1.373 . S
C593 C609 1.377 1_545 S
C594 C592 1.389 . S
C594 C595 1.524 . S
C594 C608 1.377 1_545 S
C595 C594 1.524 . S
C595 C596 1.397 . S
C595 C600 1.363 . S
C596 H573 0.950 . S
C596 C595 1.397 . S
C596 C597 1.334 . S
C597 H574 0.950 . S
C597 C596 1.334 . S
C597 C598 1.287 . S
C598 C597 1.287 . S
C598 C599 1.524 . S
C598 H617 0.913 . S
C599 H575 0.950 . S
C599 C598 1.524 . S
C599 C600 1.415 . S
C600 H576 0.950 . S
C600 C595 1.363 . S
C600 C599 1.415 . S
C601 H577 0.951 . S
C601 C602 1.366 . S
C601 C603 1.388 . S
C602 C601 1.366 . S
C602 C606 1.385 . S
C603 H578 0.951 . S
C603 C601 1.388 . S
C603 C604 1.366 . S
C604 C603 1.366 . S
C604 C605 1.414 . S
C604 C607 1.499 . S
C605 H579 0.950 . S
C605 C604 1.414 . S
C605 C606 1.374 . S
C606 H580 0.950 . S
C606 C602 1.385 . S
C606 C605 1.374 . S
C607 C604 1.499 . S
C607 C608 1.373 . S
C607 C609 1.389 . S
C608 H581 0.950 . S
C608 C594 1.377 1_565 S
C608 C607 1.373 . S
C609 C593 1.377 1_565 S
C609 C607 1.389 . S
C609 C610 1.524 . S
C610 C609 1.524 . S
C610 C611 1.397 . S
C610 C615 1.363 . S
C611 H582 0.950 . S
C611 C610 1.397 . S
C611 C612 1.334 . S
C612 H583 0.950 . S
C612 C611 1.334 . S
C612 C613 1.287 . S
C613 C612 1.287 . S
C613 C614 1.524 . S
C613 H616 0.999 . S
C614 H584 0.950 . S
C614 C613 1.524 . S
C614 C615 1.415 . S
C615 H585 0.950 . S
C615 C610 1.363 . S
C615 C614 1.415 . S
H616 C613 0.999 . S
H617 C598 0.913 . S
H618 C636 0.951 . S
H619 C638 0.951 . S
H620 C640 0.950 . S
H621 C641 0.950 . S
H622 C643 0.950 . S
H623 C646 0.950 . S
H624 C647 0.950 . S
H625 C649 0.950 . S
H626 C650 0.950 . S
H627 C651 0.951 . S
H628 C653 0.951 . S
H629 C655 0.950 . S
H630 C656 0.950 . S
H631 C658 0.950 . S
H632 C661 0.950 . S
H633 C662 0.950 . S
H634 C664 0.950 . S
H635 C665 0.950 . S
C636 H618 0.951 . S
C636 C637 1.366 . S
C636 C638 1.388 . S
C637 C636 1.366 . S
C637 C641 1.385 . S
C638 H619 0.951 . S
C638 C636 1.388 . S
C638 C639 1.366 . S
C639 C638 1.366 . S
C639 C640 1.414 . S
C639 C642 1.499 . S
C640 H620 0.950 . S
C640 C639 1.414 . S
C640 C641 1.374 . S
C641 H621 0.950 . S
C641 C637 1.385 . S
C641 C640 1.374 . S
C642 C639 1.499 . S
C642 C643 1.373 . S
C642 C644 1.389 . S
C643 H622 0.950 . S
C643 C642 1.373 . S
C643 C659 1.377 . S
C644 C642 1.389 . S
C644 C645 1.524 . S
C644 C658 1.377 . S
C645 C644 1.524 . S
C645 C646 1.397 . S
C645 C650 1.363 . S
C646 H623 0.950 . S
C646 C645 1.397 . S
C646 C647 1.334 . S
C647 H624 0.950 . S
C647 C646 1.334 . S
C647 C648 1.287 . S
C648 C647 1.287 . S
C648 C649 1.524 . S
C648 H667 0.913 . S
C649 H625 0.950 . S
C649 C648 1.524 . S
C649 C650 1.415 . S
C650 H626 0.950 . S
C650 C645 1.363 . S
C650 C649 1.415 . S
C651 H627 0.951 . S
C651 C652 1.366 . S
C651 C653 1.388 . S
C652 C651 1.366 . S
C652 C656 1.385 . S
C653 H628 0.951 . S
C653 C651 1.388 . S
C653 C654 1.366 . S
C654 C653 1.366 . S
C654 C655 1.414 . S
C654 C657 1.499 . S
C655 H629 0.950 . S
C655 C654 1.414 . S
C655 C656 1.374 . S
C656 H630 0.950 . S
C656 C652 1.385 . S
C656 C655 1.374 . S
C657 C654 1.499 . S
C657 C658 1.373 . S
C657 C659 1.389 . S
C658 H631 0.950 . S
C658 C644 1.377 . S
C658 C657 1.373 . S
C659 C643 1.377 . S
C659 C657 1.389 . S
C659 C660 1.524 . S
C660 C659 1.524 . S
C660 C661 1.397 . S
C660 C665 1.363 . S
C661 H632 0.950 . S
C661 C660 1.397 . S
C661 C662 1.334 . S
C662 H633 0.950 . S
C662 C661 1.334 . S
C662 C663 1.287 . S
C663 C662 1.287 . S
C663 C664 1.524 . S
C663 H666 0.999 . S
C664 H634 0.950 . S
C664 C663 1.524 . S
C664 C665 1.415 . S
C665 H635 0.950 . S
C665 C660 1.363 . S
C665 C664 1.415 . S
H666 C663 0.999 . S
H667 C648 0.913 . S
H668 C686 0.951 . S
H669 C688 0.951 . S
H670 C690 0.950 . S
H671 C691 0.950 . S
H672 C693 0.950 . S
H673 C696 0.950 . S
H674 C697 0.950 . S
H675 C699 0.950 . S
H676 C700 0.950 . S
H677 C701 0.951 . S
H678 C703 0.951 . S
H679 C705 0.950 . S
H680 C706 0.950 . S
H681 C708 0.950 . S
H682 C711 0.950 . S
H683 C712 0.950 . S
H684 C714 0.950 . S
H685 C715 0.950 . S
C686 H668 0.951 . S
C686 C687 1.366 . S
C686 C688 1.388 . S
C687 C686 1.366 . S
C687 C691 1.385 . S
C688 H669 0.951 . S
C688 C686 1.388 . S
C688 C689 1.366 . S
C689 C688 1.366 . S
C689 C690 1.414 . S
C689 C692 1.499 . S
C690 H670 0.950 . S
C690 C689 1.414 . S
C690 C691 1.374 . S
C691 H671 0.950 . S
C691 C687 1.385 . S
C691 C690 1.374 . S
C692 C689 1.499 . S
C692 C693 1.373 1_655 S
C692 C694 1.389 . S
C693 H672 0.950 . S
C693 C692 1.373 1_455 S
C693 C709 1.377 . S
C694 C692 1.389 . S
C694 C695 1.524 . S
C694 C708 1.377 . S
C695 C694 1.524 . S
C695 C696 1.397 . S
C695 C700 1.363 . S
C696 H673 0.950 . S
C696 C695 1.397 . S
C696 C697 1.334 . S
C697 H674 0.950 . S
C697 C696 1.334 . S
C697 C698 1.287 . S
C698 C697 1.287 . S
C698 C699 1.524 . S
C698 H717 0.913 . S
C699 H675 0.950 . S
C699 C698 1.524 . S
C699 C700 1.415 . S
C700 H676 0.950 . S
C700 C695 1.363 . S
C700 C699 1.415 . S
C701 H677 0.951 . S
C701 C702 1.366 . S
C701 C703 1.388 . S
C702 C701 1.366 . S
C702 C706 1.385 . S
C703 H678 0.951 . S
C703 C701 1.388 . S
C703 C704 1.366 . S
C704 C703 1.366 . S
C704 C705 1.414 . S
C704 C707 1.499 . S
C705 H679 0.950 . S
C705 C704 1.414 . S
C705 C706 1.374 . S
C706 H680 0.950 . S
C706 C702 1.385 . S
C706 C705 1.374 . S
C707 C704 1.499 . S
C707 C708 1.373 1_455 S
C707 C709 1.389 . S
C708 H681 0.950 . S
C708 C694 1.377 . S
C708 C707 1.373 1_655 S
C709 C693 1.377 . S
C709 C707 1.389 . S
C709 C710 1.524 . S
C710 C709 1.524 . S
C710 C711 1.397 . S
C710 C715 1.363 . S
C711 H682 0.950 . S
C711 C710 1.397 . S
C711 C712 1.334 . S
C712 H683 0.950 . S
C712 C711 1.334 . S
C712 C713 1.287 . S
C713 C712 1.287 . S
C713 C714 1.524 . S
C713 H716 0.999 . S
C714 H684 0.950 . S
C714 C713 1.524 . S
C714 C715 1.415 . S
C715 H685 0.950 . S
C715 C710 1.363 . S
C715 C714 1.415 . S
H716 C713 0.999 . S
H717 C698 0.913 . S
H718 C736 0.951 . S
H719 C738 0.951 . S
H720 C740 0.950 . S
H721 C741 0.950 . S
H722 C743 0.950 . S
H723 C746 0.950 . S
H724 C747 0.950 . S
H725 C749 0.950 . S
H726 C750 0.950 . S
H727 C751 0.951 . S
H728 C753 0.951 . S
H729 C755 0.950 . S
H730 C756 0.950 . S
H731 C758 0.950 . S
H732 C761 0.950 . S
H733 C762 0.950 . S
H734 C764 0.950 . S
H735 C765 0.950 . S
C736 H718 0.951 . S
C736 C737 1.366 . S
C736 C738 1.388 . S
C737 C736 1.366 . S
C737 C741 1.385 . S
C738 H719 0.951 . S
C738 C736 1.388 . S
C738 C739 1.366 . S
C739 C738 1.366 . S
C739 C740 1.414 . S
C739 C742 1.499 . S
C740 H720 0.950 . S
C740 C739 1.414 . S
C740 C741 1.374 . S
C741 H721 0.950 . S
C741 C737 1.385 . S
C741 C740 1.374 . S
C742 C739 1.499 . S
C742 C743 1.373 1_554 S
C742 C744 1.389 . S
C743 H722 0.950 . S
C743 C742 1.373 1_556 S
C743 C759 1.377 1_565 S
C744 C742 1.389 . S
C744 C745 1.524 . S
C744 C758 1.377 1_565 S
C745 C744 1.524 . S
C745 C746 1.397 . S
C745 C750 1.363 1_565 S
C746 H723 0.950 . S
C746 C745 1.397 . S
C746 C747 1.334 . S
C747 H724 0.950 . S
C747 C746 1.334 . S
C747 C748 1.287 . S
C748 C747 1.287 . S
C748 C749 1.524 1_565 S
C748 H767 0.913 . S
C749 H725 0.950 . S
C749 C748 1.524 1_545 S
C749 C750 1.415 . S
C750 H726 0.950 . S
C750 C745 1.363 1_545 S
C750 C749 1.415 . S
C751 H727 0.951 . S
C751 C752 1.366 . S
C751 C753 1.388 . S
C752 C751 1.366 . S
C752 C756 1.385 . S
C753 H728 0.951 . S
C753 C751 1.388 . S
C753 C754 1.366 . S
C754 C753 1.366 . S
C754 C755 1.414 . S
C754 C757 1.499 . S
C755 H729 0.950 . S
C755 C754 1.414 . S
C755 C756 1.374 . S
C756 H730 0.950 . S
C756 C752 1.385 . S
C756 C755 1.374 . S
C757 C754 1.499 . S
C757 C758 1.373 1_556 S
C757 C759 1.389 . S
C758 H731 0.950 . S
C758 C744 1.377 1_545 S
C758 C757 1.373 1_554 S
C759 C743 1.377 1_545 S
C759 C757 1.389 . S
C759 C760 1.524 . S
C760 C759 1.524 . S
C760 C761 1.397 . S
C760 C765 1.363 1_545 S
C761 H732 0.950 . S
C761 C760 1.397 . S
C761 C762 1.334 . S
C762 H733 0.950 . S
C762 C761 1.334 . S
C762 C763 1.287 . S
C763 C762 1.287 . S
C763 C764 1.524 1_545 S
C763 H766 0.999 . S
C764 H734 0.950 . S
C764 C763 1.524 1_565 S
C764 C765 1.415 . S
C765 H735 0.950 . S
C765 C760 1.363 1_565 S
C765 C764 1.415 . S
H766 C763 0.999 . S
H767 C748 0.913 . S
H768 C786 0.951 . S
H769 C788 0.951 . S
H770 C790 0.950 . S
H771 C791 0.950 . S
H772 C793 0.950 . S
H773 C796 0.950 . S
H774 C797 0.950 . S
H775 C799 0.950 . S
H776 C800 0.950 . S
H777 C801 0.951 . S
H778 C803 0.951 1_554 S
H779 C805 0.950 . S
H780 C806 0.950 . S
H781 C808 0.950 1_556 S
H782 C811 0.950 1_556 S
H783 C812 0.949 . S
H784 C814 0.950 . S
H785 C815 0.950 . S
C786 H768 0.951 . S
C786 C787 1.366 . S
C786 C788 1.388 . S
C787 C786 1.366 . S
C787 C791 1.385 . S
C788 H769 0.951 . S
C788 C786 1.388 . S
C788 C789 1.366 . S
C789 C788 1.366 . S
C789 C790 1.414 . S
C789 C792 1.499 . S
C790 H770 0.950 . S
C790 C789 1.414 . S
C790 C791 1.374 . S
C791 H771 0.950 . S
C791 C787 1.385 . S
C791 C790 1.374 . S
C792 C789 1.499 . S
C792 C793 1.373 . S
C792 C794 1.389 . S
C793 H772 0.950 . S
C793 C792 1.373 . S
C793 C809 1.377 . S
C794 C792 1.389 . S
C794 C795 1.524 . S
C794 C808 1.377 . S
C795 C794 1.524 . S
C795 C796 1.397 . S
C795 C800 1.363 1_554 S
C796 H773 0.950 . S
C796 C795 1.397 . S
C796 C797 1.334 . S
C797 H774 0.950 . S
C797 C796 1.334 . S
C797 C798 1.287 . S
C798 C797 1.287 . S
C798 C799 1.524 1_554 S
C798 H817 0.913 . S
C799 H775 0.950 . S
C799 C798 1.524 1_556 S
C799 C800 1.415 . S
C800 H776 0.950 . S
C800 C795 1.363 1_556 S
C800 C799 1.415 . S
C801 H777 0.951 . S
C801 C802 1.366 . S
C801 C803 1.388 . S
C802 C801 1.366 . S
C802 C806 1.385 . S
C803 H778 0.951 1_556 S
C803 C801 1.388 . S
C803 C804 1.366 . S
C804 C803 1.366 . S
C804 C805 1.414 . S
C804 C807 1.499 1_556 S
C805 H779 0.950 . S
C805 C804 1.414 . S
C805 C806 1.374 . S
C806 H780 0.950 . S
C806 C802 1.385 . S
C806 C805 1.374 . S
C807 C804 1.499 1_554 S
C807 C808 1.373 . S
C807 C809 1.389 . S
C808 H781 0.950 1_554 S
C808 C794 1.377 . S
C808 C807 1.373 . S
C809 C793 1.377 . S
C809 C807 1.389 . S
C809 C810 1.524 . S
C810 C809 1.524 . S
C810 C811 1.397 . S
C810 C815 1.363 . S
C811 H782 0.950 1_554 S
C811 C810 1.397 . S
C811 C812 1.334 . S
C812 H783 0.949 . S
C812 C811 1.334 . S
C812 C813 1.287 . S
C813 C812 1.287 . S
C813 C814 1.524 . S
C813 H816 0.999 . S
C814 H784 0.950 . S
C814 C813 1.524 . S
C814 C815 1.415 . S
C815 H785 0.950 . S
C815 C810 1.363 . S
C815 C814 1.415 . S
H816 C813 0.999 . S
H817 C798 0.913 . S
H818 C836 0.951 . S
H819 C838 0.951 . S
H820 C840 0.950 . S
H821 C841 0.950 . S
H822 C843 0.950 . S
H823 C846 0.950 . S
H824 C847 0.950 . S
H825 C849 0.950 . S
H826 C850 0.950 . S
H827 C851 0.951 . S
H828 C853 0.951 1_655 S
H829 C855 0.950 . S
H830 C856 0.950 . S
H831 C858 0.950 1_455 S
H832 C861 0.950 . S
H833 C862 0.950 . S
H834 C864 0.950 . S
H835 C865 0.950 . S
C836 H818 0.951 . S
C836 C837 1.366 . S
C836 C838 1.388 . S
C837 C836 1.366 . S
C837 C841 1.385 . S
C838 H819 0.951 . S
C838 C836 1.388 . S
C838 C839 1.366 . S
C839 C838 1.366 . S
C839 C840 1.414 . S
C839 C842 1.499 . S
C840 H820 0.950 . S
C840 C839 1.414 . S
C840 C841 1.374 . S
C841 H821 0.950 . S
C841 C837 1.385 . S
C841 C840 1.374 . S
C842 C839 1.499 . S
C842 C843 1.373 . S
C842 C844 1.389 . S
C843 H822 0.950 . S
C843 C842 1.373 . S
C843 C859 1.377 . S
C844 C842 1.389 . S
C844 C845 1.524 . S
C844 C858 1.377 . S
C845 C844 1.524 . S
C845 C846 1.397 . S
C845 C850 1.363 1_655 S
C846 H823 0.950 . S
C846 C845 1.397 . S
C846 C847 1.334 . S
C847 H824 0.950 . S
C847 C846 1.334 . S
C847 C848 1.287 1_655 S
C848 C847 1.287 1_455 S
C848 C849 1.524 . S
C848 H867 0.913 . S
C849 H825 0.950 . S
C849 C848 1.524 . S
C849 C850 1.415 . S
C850 H826 0.950 . S
C850 C845 1.363 1_455 S
C850 C849 1.415 . S
C851 H827 0.951 . S
C851 C852 1.366 . S
C851 C853 1.388 . S
C852 C851 1.366 . S
C852 C856 1.385 . S
C853 H828 0.951 1_455 S
C853 C851 1.388 . S
C853 C854 1.375 1_455 S
C854 C853 1.375 1_655 S
C854 C855 1.391 1_655 S
C854 C857 1.510 . S
C855 H829 0.950 . S
C855 C854 1.391 1_455 S
C855 C856 1.374 . S
C856 H830 0.950 . S
C856 C852 1.385 . S
C856 C855 1.374 . S
C857 C854 1.510 . S
C857 C858 1.373 . S
C857 C859 1.389 . S
C858 H831 0.950 1_655 S
C858 C844 1.377 . S
C858 C857 1.373 . S
C859 C843 1.377 . S
C859 C857 1.389 . S
C859 C860 1.524 . S
C860 C859 1.524 . S
C860 C861 1.397 . S
C860 C865 1.363 . S
C861 H832 0.950 . S
C861 C860 1.397 . S
C861 C862 1.334 . S
C862 H833 0.950 . S
C862 C861 1.334 . S
C862 C863 1.287 . S
C863 C862 1.287 . S
C863 C864 1.524 . S
C863 H866 0.999 . S
C864 H834 0.950 . S
C864 C863 1.524 . S
C864 C865 1.415 . S
C865 H835 0.950 . S
C865 C860 1.363 . S
C865 C864 1.415 . S
H866 C863 0.999 . S
H867 C848 0.913 . S
H868 C886 0.951 . S
H869 C888 0.951 . S
H870 C890 0.950 . S
H871 C891 0.950 . S
H872 C893 0.950 . S
H873 C896 0.950 . S
H874 C897 0.950 . S
H875 C899 0.950 . S
H876 C900 0.950 . S
H877 C901 0.951 . S
H878 C903 0.951 . S
H879 C905 0.950 . S
H880 C906 0.950 . S
H881 C908 0.950 . S
H882 C911 0.950 . S
H883 C912 0.950 . S
H884 C914 0.950 . S
H885 C915 0.950 . S
C886 H868 0.951 . S
C886 C887 1.366 . S
C886 C888 1.388 1_545 S
C887 C886 1.366 . S
C887 C891 1.385 . S
C888 H869 0.951 . S
C888 C886 1.388 1_565 S
C888 C889 1.366 1_565 S
C889 C888 1.366 1_545 S
C889 C890 1.414 . S
C889 C892 1.499 1_545 S
C890 H870 0.950 . S
C890 C889 1.414 . S
C890 C891 1.374 . S
C891 H871 0.950 . S
C891 C887 1.385 . S
C891 C890 1.374 . S
C892 C889 1.499 1_565 S
C892 C893 1.373 . S
C892 C894 1.389 . S
C893 H872 0.950 . S
C893 C892 1.373 . S
C893 C909 1.377 . S
C894 C892 1.389 . S
C894 C895 1.524 . S
C894 C908 1.377 . S
C895 C894 1.524 . S
C895 C896 1.397 1_565 S
C895 C900 1.363 . S
C896 H873 0.950 . S
C896 C895 1.397 1_545 S
C896 C897 1.334 . S
C897 H874 0.950 . S
C897 C896 1.334 . S
C897 C898 1.287 1_545 S
C898 C897 1.287 1_565 S
C898 C899 1.524 . S
C898 H917 0.913 . S
C899 H875 0.950 . S
C899 C898 1.524 . S
C899 C900 1.415 . S
C900 H876 0.950 . S
C900 C895 1.363 . S
C900 C899 1.415 . S
C901 H877 0.951 . S
C901 C902 1.366 . S
C901 C903 1.388 . S
C902 C901 1.366 . S
C902 C906 1.385 . S
C903 H878 0.951 . S
C903 C901 1.388 . S
C903 C904 1.366 . S
C904 C903 1.366 . S
C904 C905 1.414 . S
C904 C907 1.499 . S
C905 H879 0.950 . S
C905 C904 1.414 . S
C905 C906 1.374 . S
C906 H880 0.950 . S
C906 C902 1.385 . S
C906 C905 1.374 . S
C907 C904 1.499 . S
C907 C908 1.373 . S
C907 C909 1.389 . S
C908 H881 0.950 . S
C908 C894 1.377 . S
C908 C907 1.373 . S
C909 C893 1.377 . S
C909 C907 1.389 . S
C909 C910 1.524 . S
C910 C909 1.524 . S
C910 C911 1.397 . S
C910 C915 1.363 . S
C911 H882 0.950 . S
C911 C910 1.397 . S
C911 C912 1.334 . S
C912 H883 0.950 . S
C912 C911 1.334 . S
C912 C913 1.287 . S
C913 C912 1.287 . S
C913 C914 1.524 . S
C913 H916 0.999 . S
C914 H884 0.950 . S
C914 C913 1.524 . S
C914 C915 1.415 . S
C915 H885 0.950 . S
C915 C910 1.363 . S
C915 C914 1.415 . S
H916 C913 0.999 . S
H917 C898 0.913 . S
H918 C936 0.951 . S
H919 C938 0.951 . S
H920 C940 0.950 . S
H921 C941 0.950 . S
H922 C943 0.950 . S
H923 C946 0.950 . S
H924 C947 0.950 . S
H925 C949 0.950 . S
H926 C950 0.950 . S
H927 C951 0.951 . S
H928 C953 0.951 . S
H929 C955 0.950 . S
H930 C956 0.950 . S
H931 C958 0.950 . S
H932 C961 0.950 . S
H933 C962 0.950 . S
H934 C964 0.950 . S
H935 C965 0.950 . S
C936 H918 0.951 . S
C936 C937 1.366 . S
C936 C938 1.388 . S
C937 C936 1.366 . S
C937 C941 1.385 . S
C938 H919 0.951 . S
C938 C936 1.388 . S
C938 C939 1.366 . S
C939 C938 1.366 . S
C939 C940 1.414 . S
C939 C942 1.499 . S
C940 H920 0.950 . S
C940 C939 1.414 . S
C940 C941 1.374 . S
C941 H921 0.950 . S
C941 C937 1.385 . S
C941 C940 1.374 . S
C942 C939 1.499 . S
C942 C943 1.373 . S
C942 C944 1.389 . S
C943 H922 0.950 . S
C943 C942 1.373 . S
C943 C959 1.377 . S
C944 C942 1.389 . S
C944 C945 1.524 . S
C944 C958 1.377 . S
C945 C944 1.524 . S
C945 C946 1.397 . S
C945 C950 1.363 . S
C946 H923 0.950 . S
C946 C945 1.397 . S
C946 C947 1.334 . S
C947 H924 0.950 . S
C947 C946 1.334 . S
C947 C948 1.287 . S
C948 C947 1.287 . S
C948 C949 1.524 . S
C948 H967 0.913 . S
C949 H925 0.950 . S
C949 C948 1.524 . S
C949 C950 1.415 . S
C950 H926 0.950 . S
C950 C945 1.363 . S
C950 C949 1.415 . S
C951 H927 0.951 . S
C951 C952 1.366 . S
C951 C953 1.388 . S
C952 C951 1.366 . S
C952 C956 1.385 . S
C953 H928 0.951 . S
C953 C951 1.388 . S
C953 C954 1.366 . S
C954 C953 1.366 . S
C954 C955 1.414 . S
C954 C957 1.499 . S
C955 H929 0.950 . S
C955 C954 1.414 . S
C955 C956 1.374 . S
C956 H930 0.950 . S
C956 C952 1.385 . S
C956 C955 1.374 . S
C957 C954 1.499 . S
C957 C958 1.373 . S
C957 C959 1.389 . S
C958 H931 0.950 . S
C958 C944 1.377 . S
C958 C957 1.373 . S
C959 C943 1.377 . S
C959 C957 1.389 . S
C959 C960 1.524 . S
C960 C959 1.524 . S
C960 C961 1.397 . S
C960 C965 1.363 . S
C961 H932 0.950 . S
C961 C960 1.397 . S
C961 C962 1.334 . S
C962 H933 0.950 . S
C962 C961 1.334 . S
C962 C963 1.287 . S
C963 C962 1.287 . S
C963 C964 1.524 . S
C963 H966 0.999 . S
C964 H934 0.950 . S
C964 C963 1.524 . S
C964 C965 1.415 . S
C965 H935 0.950 . S
C965 C960 1.363 . S
C965 C964 1.415 . S
H966 C963 0.999 . S
H967 C948 0.913 . S
H968 C986 0.951 . S
H969 C988 0.951 . S
H970 C990 0.950 . S
H971 C991 0.950 . S
H972 C993 0.950 . S
H973 C996 0.950 . S
H974 C997 0.950 . S
H975 C999 0.950 . S
H976 C1000 0.950 . S
H977 C1001 0.951 . S
H978 C1003 0.951 . S
H979 C1005 0.950 . S
H980 C1006 0.950 . S
H981 C1008 0.950 . S
H982 C1011 0.950 1_455 S
H983 C1012 0.950 . S
H984 C1014 0.950 . S
H985 C1015 0.950 . S
C986 H968 0.951 . S
C986 C987 1.366 . S
C986 C988 1.388 . S
C987 C986 1.366 . S
C987 C991 1.385 . S
C988 H969 0.951 . S
C988 C986 1.388 . S
C988 C989 1.366 . S
C989 C988 1.366 . S
C989 C990 1.414 . S
C989 C992 1.499 . S
C990 H970 0.950 . S
C990 C989 1.414 . S
C990 C991 1.374 . S
C991 H971 0.950 . S
C991 C987 1.385 . S
C991 C990 1.374 . S
C992 C989 1.499 . S
C992 C993 1.373 . S
C992 C994 1.389 . S
C993 H972 0.950 . S
C993 C992 1.373 . S
C993 C1009 1.377 . S
C994 C992 1.389 . S
C994 C995 1.524 . S
C994 C1008 1.377 . S
C995 C994 1.524 . S
C995 C996 1.397 . S
C995 C1000 1.363 . S
C996 H973 0.950 . S
C996 C995 1.397 . S
C996 C997 1.334 . S
C997 H974 0.950 . S
C997 C996 1.334 . S
C997 C998 1.287 . S
C998 C997 1.287 . S
C998 C999 1.524 . S
C998 H1017 0.913 . S
C999 H975 0.950 . S
C999 C998 1.524 . S
C999 C1000 1.415 . S
C1000 H976 0.950 . S
C1000 C995 1.363 . S
C1000 C999 1.415 . S
C1001 H977 0.951 . S
C1001 C1002 1.366 . S
C1001 C1003 1.388 . S
C1002 C1001 1.366 . S
C1002 C1006 1.385 . S
C1003 H978 0.951 . S
C1003 C1001 1.388 . S
C1003 C1004 1.391 . S
C1004 C1003 1.391 . S
C1004 C1005 1.403 1_655 S
C1004 C1007 1.485 1_655 S
C1005 H979 0.950 . S
C1005 C1004 1.403 1_455 S
C1005 C1006 1.374 1_455 S
C1006 H980 0.950 . S
C1006 C1002 1.385 . S
C1006 C1005 1.374 1_655 S
C1007 C1004 1.485 1_455 S
C1007 C1008 1.373 . S
C1007 C1009 1.389 . S
C1008 H981 0.950 . S
C1008 C994 1.377 . S
C1008 C1007 1.373 . S
C1009 C993 1.377 . S
C1009 C1007 1.389 . S
C1009 C1010 1.524 1_455 S
C1010 C1009 1.524 1_655 S
C1010 C1011 1.397 . S
C1010 C1015 1.363 . S
C1011 H982 0.950 1_655 S
C1011 C1010 1.397 . S
C1011 C1012 1.334 . S
C1012 H983 0.950 . S
C1012 C1011 1.334 . S
C1012 C1013 1.287 . S
C1013 C1012 1.287 . S
C1013 C1014 1.524 . S
C1013 H1016 0.999 . S
C1014 H984 0.950 . S
C1014 C1013 1.524 . S
C1014 C1015 1.415 . S
C1015 H985 0.950 . S
C1015 C1010 1.363 . S
C1015 C1014 1.415 . S
H1016 C1013 0.999 . S
H1017 C998 0.913 . S
H1018 C1036 0.951 . S
H1019 C1038 0.951 . S
H1020 C1040 0.950 . S
H1021 C1041 0.950 . S
H1022 C1043 0.950 . S
H1023 C1046 0.950 . S
H1024 C1047 0.950 . S
H1025 C1049 0.950 . S
H1026 C1050 0.950 . S
H1027 C1051 0.951 . S
H1028 C1053 0.951 . S
H1029 C1055 0.950 . S
H1030 C1056 0.950 . S
H1031 C1058 0.950 . S
H1032 C1061 0.950 . S
H1033 C1062 0.950 . S
H1034 C1064 0.950 . S
H1035 C1065 0.950 . S
C1036 H1018 0.951 . S
C1036 C1037 1.366 . S
C1036 C1038 1.388 . S
C1037 C1036 1.366 . S
C1037 C1041 1.385 . S
C1038 H1019 0.951 . S
C1038 C1036 1.388 . S
C1038 C1039 1.366 . S
C1039 C1038 1.366 . S
C1039 C1040 1.414 . S
C1039 C1042 1.499 . S
C1040 H1020 0.950 . S
C1040 C1039 1.414 . S
C1040 C1041 1.374 . S
C1041 H1021 0.950 . S
C1041 C1037 1.385 . S
C1041 C1040 1.374 . S
C1042 C1039 1.499 . S
C1042 C1043 1.373 . S
C1042 C1044 1.389 . S
C1043 H1022 0.950 . S
C1043 C1042 1.373 . S
C1043 C1059 1.377 . S
C1044 C1042 1.389 . S
C1044 C1045 1.524 . S
C1044 C1058 1.377 . S
C1045 C1044 1.524 . S
C1045 C1046 1.397 . S
C1045 C1050 1.363 . S
C1046 H1023 0.950 . S
C1046 C1045 1.397 . S
C1046 C1047 1.334 . S
C1047 H1024 0.950 . S
C1047 C1046 1.334 . S
C1047 C1048 1.287 . S
C1048 C1047 1.287 . S
C1048 C1049 1.524 . S
C1048 H1067 0.913 . S
C1049 H1025 0.950 . S
C1049 C1048 1.524 . S
C1049 C1050 1.415 . S
C1050 H1026 0.950 . S
C1050 C1045 1.363 . S
C1050 C1049 1.415 . S
C1051 H1027 0.951 . S
C1051 C1052 1.366 . S
C1051 C1053 1.388 . S
C1052 C1051 1.366 . S
C1052 C1056 1.385 . S
C1053 H1028 0.951 . S
C1053 C1051 1.388 . S
C1053 C1054 1.366 . S
C1054 C1053 1.366 . S
C1054 C1055 1.414 1_565 S
C1054 C1057 1.499 1_565 S
C1055 H1029 0.950 . S
C1055 C1054 1.414 1_545 S
C1055 C1056 1.374 1_545 S
C1056 H1030 0.950 . S
C1056 C1052 1.385 . S
C1056 C1055 1.374 1_565 S
C1057 C1054 1.499 1_545 S
C1057 C1058 1.373 . S
C1057 C1059 1.389 . S
C1058 H1031 0.950 . S
C1058 C1044 1.377 . S
C1058 C1057 1.373 . S
C1059 C1043 1.377 . S
C1059 C1057 1.389 . S
C1059 C1060 1.524 1_545 S
C1060 C1059 1.524 1_565 S
C1060 C1061 1.397 . S
C1060 C1065 1.363 . S
C1061 H1032 0.950 . S
C1061 C1060 1.397 . S
C1061 C1062 1.334 . S
C1062 H1033 0.950 . S
C1062 C1061 1.334 . S
C1062 C1063 1.287 . S
C1063 C1062 1.287 . S
C1063 C1064 1.524 . S
C1063 H1066 0.999 . S
C1064 H1034 0.950 . S
C1064 C1063 1.524 . S
C1064 C1065 1.415 . S
C1065 H1035 0.950 . S
C1065 C1060 1.363 . S
C1065 C1064 1.415 . S
H1066 C1063 0.999 . S
H1067 C1048 0.913 . S
H1068 C1086 0.951 . S
H1069 C1088 0.951 . S
H1070 C1090 0.950 . S
H1071 C1091 0.950 . S
H1072 C1093 0.950 . S
H1073 C1096 0.950 . S
H1074 C1097 0.950 . S
H1075 C1099 0.950 . S
H1076 C1100 0.950 . S
H1077 C1101 0.951 . S
H1078 C1103 0.951 . S
H1079 C1105 0.950 . S
H1080 C1106 0.950 . S
H1081 C1108 0.950 . S
H1082 C1111 0.950 . S
H1083 C1112 0.950 . S
H1084 C1114 0.950 . S
H1085 C1115 0.950 . S
C1086 H1068 0.951 . S
C1086 C1087 1.366 . S
C1086 C1088 1.388 . S
C1087 C1086 1.366 . S
C1087 C1091 1.385 . S
C1088 H1069 0.951 . S
C1088 C1086 1.388 . S
C1088 C1089 1.366 . S
C1089 C1088 1.366 . S
C1089 C1090 1.414 . S
C1089 C1092 1.499 . S
C1090 H1070 0.950 . S
C1090 C1089 1.414 . S
C1090 C1091 1.374 . S
C1091 H1071 0.950 . S
C1091 C1087 1.385 . S
C1091 C1090 1.374 . S
C1092 C1089 1.499 . S
C1092 C1093 1.373 . S
C1092 C1094 1.389 . S
C1093 H1072 0.950 . S
C1093 C1092 1.373 . S
C1093 C1109 1.377 . S
C1094 C1092 1.389 . S
C1094 C1095 1.524 . S
C1094 C1108 1.377 . S
C1095 C1094 1.524 . S
C1095 C1096 1.397 . S
C1095 C1100 1.363 . S
C1096 H1073 0.950 . S
C1096 C1095 1.397 . S
C1096 C1097 1.334 . S
C1097 H1074 0.950 . S
C1097 C1096 1.334 . S
C1097 C1098 1.287 . S
C1098 C1097 1.287 . S
C1098 C1099 1.524 . S
C1098 H1117 0.913 . S
C1099 H1075 0.950 . S
C1099 C1098 1.524 . S
C1099 C1100 1.415 . S
C1100 H1076 0.950 . S
C1100 C1095 1.363 . S
C1100 C1099 1.415 . S
C1101 H1077 0.951 . S
C1101 C1102 1.366 . S
C1101 C1103 1.388 . S
C1102 C1101 1.366 . S
C1102 C1106 1.385 . S
C1103 H1078 0.951 . S
C1103 C1101 1.388 . S
C1103 C1104 1.366 . S
C1104 C1103 1.366 . S
C1104 C1105 1.414 . S
C1104 C1107 1.499 . S
C1105 H1079 0.950 . S
C1105 C1104 1.414 . S
C1105 C1106 1.374 . S
C1106 H1080 0.950 . S
C1106 C1102 1.385 . S
C1106 C1105 1.374 . S
C1107 C1104 1.499 . S
C1107 C1108 1.373 . S
C1107 C1109 1.389 . S
C1108 H1081 0.950 . S
C1108 C1094 1.377 . S
C1108 C1107 1.373 . S
C1109 C1093 1.377 . S
C1109 C1107 1.389 . S
C1109 C1110 1.524 . S
C1110 C1109 1.524 . S
C1110 C1111 1.397 . S
C1110 C1115 1.363 . S
C1111 H1082 0.950 . S
C1111 C1110 1.397 . S
C1111 C1112 1.334 . S
C1112 H1083 0.950 . S
C1112 C1111 1.334 . S
C1112 C1113 1.287 . S
C1113 C1112 1.287 . S
C1113 C1114 1.524 . S
C1113 H1116 0.999 . S
C1114 H1084 0.950 . S
C1114 C1113 1.524 . S
C1114 C1115 1.415 . S
C1115 H1085 0.950 . S
C1115 C1110 1.363 . S
C1115 C1114 1.415 . S
H1116 C1113 0.999 . S
H1117 C1098 0.913 . S
H1118 C1136 0.951 . S
H1119 C1138 0.951 . S
H1120 C1140 0.950 . S
H1121 C1141 0.950 . S
H1122 C1143 0.950 . S
H1123 C1146 0.950 . S
H1124 C1147 0.950 . S
H1125 C1149 0.950 . S
H1126 C1150 0.950 . S
H1127 C1151 0.951 . S
H1128 C1153 0.951 . S
H1129 C1155 0.915 1_556 S
H1130 C1156 0.950 . S
H1131 C1158 0.950 . S
H1132 C1161 0.950 . S
H1133 C1162 0.950 . S
H1134 C1164 0.950 . S
H1135 C1165 0.950 . S
C1136 H1118 0.951 . S
C1136 C1137 1.366 . S
C1136 C1138 1.388 . S
C1137 C1136 1.366 . S
C1137 C1141 1.385 . S
C1138 H1119 0.951 . S
C1138 C1136 1.388 . S
C1138 C1139 1.366 . S
C1139 C1138 1.366 . S
C1139 C1140 1.414 . S
C1139 C1142 1.499 . S
C1140 H1120 0.950 . S
C1140 C1139 1.414 . S
C1140 C1141 1.374 . S
C1141 H1121 0.950 . S
C1141 C1137 1.385 . S
C1141 C1140 1.374 . S
C1142 C1139 1.499 . S
C1142 C1143 1.373 . S
C1142 C1144 1.389 . S
C1143 H1122 0.950 . S
C1143 C1142 1.373 . S
C1143 C1159 1.377 . S
C1144 C1142 1.389 . S
C1144 C1145 1.524 . S
C1144 C1158 1.377 . S
C1145 C1144 1.524 . S
C1145 C1146 1.397 . S
C1145 C1150 1.363 . S
C1146 H1123 0.950 . S
C1146 C1145 1.397 . S
C1146 C1147 1.334 . S
C1147 H1124 0.950 . S
C1147 C1146 1.334 . S
C1147 C1148 1.287 . S
C1148 C1147 1.287 . S
C1148 C1149 1.524 . S
C1148 H1167 0.913 . S
C1149 H1125 0.950 . S
C1149 C1148 1.524 . S
C1149 C1150 1.415 . S
C1150 H1126 0.950 . S
C1150 C1145 1.363 . S
C1150 C1149 1.415 . S
C1151 H1127 0.951 . S
C1151 C1152 1.366 . S
C1151 C1153 1.388 1_455 S
C1152 C1151 1.366 . S
C1152 C1156 1.385 . S
C1153 H1128 0.951 . S
C1153 C1151 1.388 1_655 S
C1153 C1154 1.366 1_655 S
C1154 C1153 1.366 1_455 S
C1154 C1155 1.414 . S
C1154 C1157 1.499 1_454 S
C1155 H1129 0.915 1_554 S
C1155 C1154 1.414 . S
C1155 C1156 1.374 . S
C1156 H1130 0.950 . S
C1156 C1152 1.385 . S
C1156 C1155 1.374 . S
C1157 C1154 1.499 1_656 S
C1157 C1158 1.373 . S
C1157 C1159 1.389 . S
C1158 H1131 0.950 . S
C1158 C1144 1.377 . S
C1158 C1157 1.373 . S
C1159 C1143 1.377 . S
C1159 C1157 1.389 . S
C1159 C1160 1.524 . S
C1160 C1159 1.524 . S
C1160 C1161 1.397 1_655 S
C1160 C1165 1.363 1_556 S
C1161 H1132 0.950 . S
C1161 C1160 1.397 1_455 S
C1161 C1162 1.332 . S
C1162 H1133 0.950 . S
C1162 C1161 1.332 . S
C1162 C1163 1.289 1_556 S
C1163 C1162 1.289 1_554 S
C1163 C1164 1.524 1_455 S
C1163 H1166 0.999 . S
C1164 H1134 0.950 . S
C1164 C1163 1.524 1_655 S
C1164 C1165 1.415 . S
C1165 H1135 0.950 . S
C1165 C1160 1.363 1_554 S
C1165 C1164 1.415 . S
H1166 C1163 0.999 . S
H1167 C1148 0.913 . S
H1168 C1186 0.951 . S
H1169 C1188 0.951 . S
H1170 C1190 0.950 . S
H1171 C1191 0.950 . S
H1172 C1193 0.950 . S
H1173 C1196 0.950 . S
H1174 C1197 0.950 . S
H1175 C1199 0.950 . S
H1176 C1200 0.950 . S
H1177 C1201 0.951 . S
H1178 C1203 0.951 . S
H1179 C1205 0.950 . S
H1180 C1206 0.950 . S
H1181 C1208 0.950 . S
H1182 C1211 0.950 . S
H1183 C1212 0.950 . S
H1184 C1214 0.950 . S
H1185 C1215 0.950 . S
C1186 H1168 0.951 . S
C1186 C1187 1.366 . S
C1186 C1188 1.388 . S
C1187 C1186 1.366 . S
C1187 C1191 1.385 . S
C1188 H1169 0.951 . S
C1188 C1186 1.388 . S
C1188 C1189 1.366 . S
C1189 C1188 1.366 . S
C1189 C1190 1.414 . S
C1189 C1192 1.499 . S
C1190 H1170 0.950 . S
C1190 C1189 1.414 . S
C1190 C1191 1.374 . S
C1191 H1171 0.950 . S
C1191 C1187 1.385 . S
C1191 C1190 1.374 . S
C1192 C1189 1.499 . S
C1192 C1193 1.373 . S
C1192 C1194 1.389 . S
C1193 H1172 0.950 . S
C1193 C1192 1.373 . S
C1193 C1209 1.377 . S
C1194 C1192 1.389 . S
C1194 C1195 1.524 . S
C1194 C1208 1.377 . S
C1195 C1194 1.524 . S
C1195 C1196 1.397 . S
C1195 C1200 1.363 . S
C1196 H1173 0.950 . S
C1196 C1195 1.397 . S
C1196 C1197 1.334 . S
C1197 H1174 0.950 . S
C1197 C1196 1.334 . S
C1197 C1198 1.287 . S
C1198 C1197 1.287 . S
C1198 C1199 1.524 . S
C1198 H1217 0.913 . S
C1199 H1175 0.950 . S
C1199 C1198 1.524 . S
C1199 C1200 1.415 . S
C1200 H1176 0.950 . S
C1200 C1195 1.363 . S
C1200 C1199 1.415 . S
C1201 H1177 0.951 . S
C1201 C1202 1.366 . S
C1201 C1203 1.388 . S
C1202 C1201 1.366 . S
C1202 C1206 1.385 . S
C1203 H1178 0.951 . S
C1203 C1201 1.388 . S
C1203 C1204 1.359 1_545 S
C1204 C1203 1.359 1_565 S
C1204 C1205 1.409 . S
C1204 C1207 1.510 . S
C1205 H1179 0.950 . S
C1205 C1204 1.409 . S
C1205 C1206 1.374 1_565 S
C1206 H1180 0.950 . S
C1206 C1202 1.385 . S
C1206 C1205 1.374 1_545 S
C1207 C1204 1.510 . S
C1207 C1208 1.373 . S
C1207 C1209 1.389 . S
C1208 H1181 0.950 . S
C1208 C1194 1.377 . S
C1208 C1207 1.373 . S
C1209 C1193 1.377 . S
C1209 C1207 1.389 . S
C1209 C1210 1.524 . S
C1210 C1209 1.524 . S
C1210 C1211 1.397 . S
C1210 C1215 1.363 . S
C1211 H1182 0.950 . S
C1211 C1210 1.397 . S
C1211 C1212 1.334 . S
C1212 H1183 0.950 . S
C1212 C1211 1.334 . S
C1212 C1213 1.287 . S
C1213 C1212 1.287 . S
C1213 C1214 1.524 . S
C1213 H1216 0.999 . S
C1214 H1184 0.950 . S
C1214 C1213 1.524 . S
C1214 C1215 1.415 . S
C1215 H1185 0.950 . S
C1215 C1210 1.363 . S
C1215 C1214 1.415 . S
H1216 C1213 0.999 . S
H1217 C1198 0.913 . S
H1218 C1236 0.951 . S
H1219 C1238 0.951 . S
H1220 C1240 0.950 . S
H1221 C1241 0.950 . S
H1222 C1243 0.950 . S
H1223 C1246 0.950 . S
H1224 C1247 0.950 . S
H1225 C1249 0.950 . S
H1226 C1250 0.950 . S
H1227 C1251 0.951 . S
H1228 C1253 0.951 . S
H1229 C1255 0.950 . S
H1230 C1256 0.950 . S
H1231 C1258 0.950 . S
H1232 C1261 0.950 . S
H1233 C1262 0.950 . S
H1234 C1264 0.950 . S
H1235 C1265 0.950 . S
C1236 H1218 0.951 . S
C1236 C1237 1.366 . S
C1236 C1238 1.388 . S
C1237 C1236 1.366 . S
C1237 C1241 1.385 . S
C1238 H1219 0.951 . S
C1238 C1236 1.388 . S
C1238 C1239 1.366 . S
C1239 C1238 1.366 . S
C1239 C1240 1.414 . S
C1239 C1242 1.499 . S
C1240 H1220 0.950 . S
C1240 C1239 1.414 . S
C1240 C1241 1.374 . S
C1241 H1221 0.950 . S
C1241 C1237 1.385 . S
C1241 C1240 1.374 . S
C1242 C1239 1.499 . S
C1242 C1243 1.373 . S
C1242 C1244 1.389 . S
C1243 H1222 0.950 . S
C1243 C1242 1.373 . S
C1243 C1259 1.377 . S
C1244 C1242 1.389 . S
C1244 C1245 1.524 . S
C1244 C1258 1.377 . S
C1245 C1244 1.524 . S
C1245 C1246 1.397 . S
C1245 C1250 1.363 . S
C1246 H1223 0.950 . S
C1246 C1245 1.397 . S
C1246 C1247 1.334 . S
C1247 H1224 0.950 . S
C1247 C1246 1.334 . S
C1247 C1248 1.287 . S
C1248 C1247 1.287 . S
C1248 C1249 1.524 . S
C1248 H1267 0.913 . S
C1249 H1225 0.950 . S
C1249 C1248 1.524 . S
C1249 C1250 1.415 . S
C1250 H1226 0.950 . S
C1250 C1245 1.363 . S
C1250 C1249 1.415 . S
C1251 H1227 0.951 . S
C1251 C1252 1.366 . S
C1251 C1253 1.388 . S
C1252 C1251 1.366 . S
C1252 C1256 1.385 . S
C1253 H1228 0.951 . S
C1253 C1251 1.388 . S
C1253 C1254 1.366 . S
C1254 C1253 1.366 . S
C1254 C1255 1.414 . S
C1254 C1257 1.499 . S
C1255 H1229 0.950 . S
C1255 C1254 1.414 . S
C1255 C1256 1.374 . S
C1256 H1230 0.950 . S
C1256 C1252 1.385 . S
C1256 C1255 1.374 . S
C1257 C1254 1.499 . S
C1257 C1258 1.373 . S
C1257 C1259 1.389 . S
C1258 H1231 0.950 . S
C1258 C1244 1.377 . S
C1258 C1257 1.373 . S
C1259 C1243 1.377 . S
C1259 C1257 1.389 . S
C1259 C1260 1.524 . S
C1260 C1259 1.524 . S
C1260 C1261 1.397 . S
C1260 C1265 1.363 . S
C1261 H1232 0.950 . S
C1261 C1260 1.397 . S
C1261 C1262 1.334 . S
C1262 H1233 0.950 . S
C1262 C1261 1.334 . S
C1262 C1263 1.287 . S
C1263 C1262 1.287 . S
C1263 C1264 1.524 . S
C1263 H1266 0.999 . S
C1264 H1234 0.950 . S
C1264 C1263 1.524 . S
C1264 C1265 1.415 . S
C1265 H1235 0.950 . S
C1265 C1260 1.363 . S
C1265 C1264 1.415 . S
H1266 C1263 0.999 . S
H1267 C1248 0.913 . S
H1268 C1286 0.951 . S
H1269 C1288 0.951 . S
H1270 C1290 0.950 . S
H1271 C1291 0.950 . S
H1272 C1293 0.950 . S
H1273 C1296 0.950 . S
H1274 C1297 0.950 . S
H1275 C1299 0.950 . S
H1276 C1300 0.950 . S
H1277 C1301 0.951 . S
H1278 C1303 0.951 . S
H1279 C1305 0.950 . S
H1280 C1306 0.950 . S
H1281 C1308 0.950 1_655 S
H1282 C1311 0.950 . S
H1283 C1312 0.950 . S
H1284 C1314 0.950 . S
H1285 C1315 0.950 . S
C1286 H1268 0.951 . S
C1286 C1287 1.366 . S
C1286 C1288 1.388 . S
C1287 C1286 1.366 . S
C1287 C1291 1.385 . S
C1288 H1269 0.951 . S
C1288 C1286 1.388 . S
C1288 C1289 1.366 . S
C1289 C1288 1.366 . S
C1289 C1290 1.414 . S
C1289 C1292 1.499 . S
C1290 H1270 0.950 . S
C1290 C1289 1.414 . S
C1290 C1291 1.374 . S
C1291 H1271 0.950 . S
C1291 C1287 1.385 . S
C1291 C1290 1.374 . S
C1292 C1289 1.499 . S
C1292 C1293 1.373 . S
C1292 C1294 1.389 . S
C1293 H1272 0.950 . S
C1293 C1292 1.373 . S
C1293 C1309 1.377 . S
C1294 C1292 1.389 . S
C1294 C1295 1.524 . S
C1294 C1308 1.377 . S
C1295 C1294 1.524 . S
C1295 C1296 1.397 . S
C1295 C1300 1.363 1_455 S
C1296 H1273 0.950 . S
C1296 C1295 1.397 . S
C1296 C1297 1.334 . S
C1297 H1274 0.950 . S
C1297 C1296 1.334 . S
C1297 C1298 1.287 1_455 S
C1298 C1297 1.287 1_655 S
C1298 C1299 1.524 . S
C1298 H1317 0.913 . S
C1299 H1275 0.950 . S
C1299 C1298 1.524 . S
C1299 C1300 1.415 . S
C1300 H1276 0.950 . S
C1300 C1295 1.363 1_655 S
C1300 C1299 1.415 . S
C1301 H1277 0.951 . S
C1301 C1302 1.366 . S
C1301 C1303 1.388 1_655 S
C1302 C1301 1.366 . S
C1302 C1306 1.385 . S
C1303 H1278 0.951 . S
C1303 C1301 1.388 1_455 S
C1303 C1304 1.363 . S
C1304 C1303 1.363 . S
C1304 C1305 1.410 1_455 S
C1304 C1307 1.504 . S
C1305 H1279 0.950 . S
C1305 C1304 1.410 1_655 S
C1305 C1306 1.374 . S
C1306 H1280 0.950 . S
C1306 C1302 1.385 . S
C1306 C1305 1.374 . S
C1307 C1304 1.504 . S
C1307 C1308 1.373 . S
C1307 C1309 1.389 . S
C1308 H1281 0.950 1_455 S
C1308 C1294 1.377 . S
C1308 C1307 1.373 . S
C1309 C1293 1.377 . S
C1309 C1307 1.389 . S
C1309 C1310 1.524 . S
C1310 C1309 1.524 . S
C1310 C1311 1.397 . S
C1310 C1315 1.363 . S
C1311 H1282 0.950 . S
C1311 C1310 1.397 . S
C1311 C1312 1.334 . S
C1312 H1283 0.950 . S
C1312 C1311 1.334 . S
C1312 C1313 1.287 . S
C1313 C1312 1.287 . S
C1313 C1314 1.524 . S
C1313 H1316 0.999 . S
C1314 H1284 0.950 . S
C1314 C1313 1.524 . S
C1314 C1315 1.415 . S
C1315 H1285 0.950 . S
C1315 C1310 1.363 . S
C1315 C1314 1.415 . S
H1316 C1313 0.999 . S
H1317 C1298 0.913 . S
H1318 C1336 0.951 . S
H1319 C1338 0.951 . S
H1320 C1340 0.950 . S
H1321 C1341 0.950 . S
H1322 C1343 0.950 . S
H1323 C1346 0.950 1_565 S
H1324 C1347 0.950 1_565 S
H1325 C1349 0.950 . S
H1326 C1350 0.950 . S
H1327 C1351 0.951 . S
H1328 C1353 0.951 . S
H1329 C1355 0.950 . S
H1330 C1356 0.950 . S
H1331 C1358 0.950 . S
H1332 C1361 0.950 . S
H1333 C1362 0.950 . S
H1334 C1364 0.950 . S
H1335 C1365 0.948 1_565 S
C1336 H1318 0.951 . S
C1336 C1337 1.366 . S
C1336 C1338 1.388 1_565 S
C1337 C1336 1.366 . S
C1337 C1341 1.385 . S
C1338 H1319 0.951 . S
C1338 C1336 1.388 1_545 S
C1338 C1339 1.366 1_545 S
C1339 C1338 1.366 1_565 S
C1339 C1340 1.414 . S
C1339 C1342 1.499 1_565 S
C1340 H1320 0.950 . S
C1340 C1339 1.414 . S
C1340 C1341 1.374 . S
C1341 H1321 0.950 . S
C1341 C1337 1.385 . S
C1341 C1340 1.374 . S
C1342 C1339 1.499 1_545 S
C1342 C1343 1.373 . S
C1342 C1344 1.389 . S
C1343 H1322 0.950 . S
C1343 C1342 1.373 . S
C1343 C1359 1.377 . S
C1344 C1342 1.389 . S
C1344 C1345 1.524 . S
C1344 C1358 1.377 . S
C1345 C1344 1.524 . S
C1345 C1346 1.397 . S
C1345 C1350 1.363 . S
C1346 H1323 0.950 1_545 S
C1346 C1345 1.397 . S
C1346 C1347 1.334 . S
C1347 H1324 0.950 1_545 S
C1347 C1346 1.334 . S
C1347 C1348 1.287 . S
C1348 C1347 1.287 . S
C1348 C1349 1.524 . S
C1348 H1367 0.913 . S
C1349 H1325 0.950 . S
C1349 C1348 1.524 . S
C1349 C1350 1.415 . S
C1350 H1326 0.950 . S
C1350 C1345 1.363 . S
C1350 C1349 1.415 . S
C1351 H1327 0.951 . S
C1351 C1352 1.366 . S
C1351 C1353 1.388 . S
C1352 C1351 1.366 . S
C1352 C1356 1.385 . S
C1353 H1328 0.951 . S
C1353 C1351 1.388 . S
C1353 C1354 1.366 . S
C1354 C1353 1.366 . S
C1354 C1355 1.414 . S
C1354 C1357 1.499 . S
C1355 H1329 0.950 . S
C1355 C1354 1.414 . S
C1355 C1356 1.374 . S
C1356 H1330 0.950 . S
C1356 C1352 1.385 . S
C1356 C1355 1.374 . S
C1357 C1354 1.499 . S
C1357 C1358 1.373 . S
C1357 C1359 1.389 . S
C1358 H1331 0.950 . S
C1358 C1344 1.377 . S
C1358 C1357 1.373 . S
C1359 C1343 1.377 . S
C1359 C1357 1.389 . S
C1359 C1360 1.524 . S
C1360 C1359 1.524 . S
C1360 C1361 1.397 . S
C1360 C1365 1.363 . S
C1361 H1332 0.950 . S
C1361 C1360 1.397 . S
C1361 C1362 1.334 . S
C1362 H1333 0.950 . S
C1362 C1361 1.334 . S
C1362 C1363 1.287 . S
C1363 C1362 1.287 . S
C1363 C1364 1.524 . S
C1363 H1366 0.999 . S
C1364 H1334 0.950 . S
C1364 C1363 1.524 . S
C1364 C1365 1.415 . S
C1365 H1335 0.948 1_545 S
C1365 C1360 1.363 . S
C1365 C1364 1.415 . S
H1366 C1363 0.999 . S
H1367 C1348 0.913 . S
C187 C123 1.240 . S
C202 C11 1.240 . S
C237 C25 1.240 . S
C252 C137 1.240 . S
C287 C39 1.240 . S
C302 C151 1.240 . S
C337 C53 1.240 . S
C352 C165 1.240 . S
C387 C95 1.240 . S
C402 C67 1.240 . S
C437 C81 1.239 . S
C452 C109 1.239 . S
C487 C131 0.824 . S
C502 C5 0.824 . S
C537 C19 0.824 . S
C552 C145 0.824 . S
C587 C159 0.824 . S
C602 C33 0.825 . S
C637 C47 0.824 . S
C652 C89 0.824 . S
C687 C103 0.824 . S
C702 C61 0.824 . S
C737 C117 0.825 . S
C752 C75 0.824 . S
C787 C0 1.361 . S
C802 C79 1.360 . S
C837 C14 1.361 . S
C852 C9 1.360 . S
C887 C23 1.360 . S
C902 C28 1.361 . S
C937 C42 1.361 . S
C952 C37 1.360 . S
C987 C56 1.361 . S
C1002 C51 1.360 . S
C1037 C70 1.361 . S
C1052 C65 1.361 . S
C1087 C84 1.361 . S
C1102 C107 1.360 . S
C1137 C98 1.361 . S
C1152 C121 1.360 . S
C1187 C112 1.361 . S
C1202 C135 1.360 . S
C1237 C126 1.360 . S
C1252 C149 1.361 . S
C1287 C140 1.361 . S
C1302 C163 1.360 . S
C1337 C93 1.360 . S
C1352 C154 1.361 . S
