# Generated by pormake.
# Topology wge, (5)-cn, num edge types: 1
# Building blocks:
#     Node 0, Type 0, BuildingBlock: XOMCOT_clean_sbu_0, # of connection points: 5
#     Node 1, Type 0, BuildingBlock: XOMCOT_clean_sbu_0, # of connection points: 5
#     Node 2, Type 0, BuildingBlock: XOMCOT_clean_sbu_0, # of connection points: 5
#     Node 3, Type 0, BuildingBlock: XOMCOT_clean_sbu_0, # of connection points: 5
#     Node 4, Type 0, BuildingBlock: XOMCOT_clean_sbu_0, # of connection points: 5
#     Node 5, Type 0, BuildingBlock: XOMCOT_clean_sbu_0, # of connection points: 5
#     Node 6, Type 0, BuildingBlock: XOMCOT_clean_sbu_0, # of connection points: 5
#     Node 7, Type 0, BuildingBlock: XOMCOT_clean_sbu_0, # of connection points: 5
#     Node 8, Type 0, BuildingBlock: XOMCOT_clean_sbu_0, # of connection points: 5
#     Node 9, Type 0, BuildingBlock: XOMCOT_clean_sbu_0, # of connection points: 5
#     Node 10, Type 0, BuildingBlock: XOMCOT_clean_sbu_0, # of connection points: 5
#     Node 11, Type 0, BuildingBlock: XOMCOT_clean_sbu_0, # of connection points: 5
#     Node 12, Type 0, BuildingBlock: XOMCOT_clean_sbu_0, # of connection points: 5
#     Node 13, Type 0, BuildingBlock: XOMCOT_clean_sbu_0, # of connection points: 5
#     Node 14, Type 0, BuildingBlock: XOMCOT_clean_sbu_0, # of connection points: 5
#     Node 15, Type 0, BuildingBlock: XOMCOT_clean_sbu_0, # of connection points: 5
#     Node 16, Type 0, BuildingBlock: XOMCOT_clean_sbu_0, # of connection points: 5
#     Node 17, Type 0, BuildingBlock: XOMCOT_clean_sbu_0, # of connection points: 5
#     Node 18, Type 0, BuildingBlock: XOMCOT_clean_sbu_0, # of connection points: 5
#     Node 19, Type 0, BuildingBlock: XOMCOT_clean_sbu_0, # of connection points: 5
#     Node 20, Type 0, BuildingBlock: XOMCOT_clean_sbu_0, # of connection points: 5
#     Node 21, Type 0, BuildingBlock: XOMCOT_clean_sbu_0, # of connection points: 5
#     Node 22, Type 0, BuildingBlock: XOMCOT_clean_sbu_0, # of connection points: 5
#     Node 23, Type 0, BuildingBlock: XOMCOT_clean_sbu_0, # of connection points: 5
#     Node 24, Type 0, BuildingBlock: XOMCOT_clean_sbu_0, # of connection points: 5
#     Node 25, Type 0, BuildingBlock: XOMCOT_clean_sbu_0, # of connection points: 5
#     Node 26, Type 0, BuildingBlock: XOMCOT_clean_sbu_0, # of connection points: 5
#     Node 27, Type 0, BuildingBlock: XOMCOT_clean_sbu_0, # of connection points: 5
#     Node 28, Type 0, BuildingBlock: XOMCOT_clean_sbu_0, # of connection points: 5
#     Node 29, Type 0, BuildingBlock: XOMCOT_clean_sbu_0, # of connection points: 5
#     Node 30, Type 0, BuildingBlock: XOMCOT_clean_sbu_0, # of connection points: 5
#     Node 31, Type 0, BuildingBlock: XOMCOT_clean_sbu_0, # of connection points: 5
#     Edge 32, Type (0, 0), BuildingBlock: KIFKEQ_clean_linker_1, # of connection points: 2
#     Edge 33, Type (0, 0), BuildingBlock: KIFKEQ_clean_linker_1, # of connection points: 2
#     Edge 34, Type (0, 0), BuildingBlock: KIFKEQ_clean_linker_1, # of connection points: 2
#     Edge 35, Type (0, 0), BuildingBlock: KIFKEQ_clean_linker_1, # of connection points: 2
#     Edge 36, Type (0, 0), BuildingBlock: KIFKEQ_clean_linker_1, # of connection points: 2
#     Edge 37, Type (0, 0), BuildingBlock: KIFKEQ_clean_linker_1, # of connection points: 2
#     Edge 38, Type (0, 0), BuildingBlock: KIFKEQ_clean_linker_1, # of connection points: 2
#     Edge 39, Type (0, 0), BuildingBlock: KIFKEQ_clean_linker_1, # of connection points: 2
#     Edge 40, Type (0, 0), BuildingBlock: KIFKEQ_clean_linker_1, # of connection points: 2
#     Edge 41, Type (0, 0), BuildingBlock: KIFKEQ_clean_linker_1, # of connection points: 2
#     Edge 42, Type (0, 0), BuildingBlock: KIFKEQ_clean_linker_1, # of connection points: 2
#     Edge 43, Type (0, 0), BuildingBlock: KIFKEQ_clean_linker_1, # of connection points: 2
#     Edge 44, Type (0, 0), BuildingBlock: KIFKEQ_clean_linker_1, # of connection points: 2
#     Edge 45, Type (0, 0), BuildingBlock: KIFKEQ_clean_linker_1, # of connection points: 2
#     Edge 46, Type (0, 0), BuildingBlock: KIFKEQ_clean_linker_1, # of connection points: 2
#     Edge 47, Type (0, 0), BuildingBlock: KIFKEQ_clean_linker_1, # of connection points: 2
#     Edge 48, Type (0, 0), BuildingBlock: KIFKEQ_clean_linker_1, # of connection points: 2
#     Edge 49, Type (0, 0), BuildingBlock: KIFKEQ_clean_linker_1, # of connection points: 2
#     Edge 50, Type (0, 0), BuildingBlock: KIFKEQ_clean_linker_1, # of connection points: 2
#     Edge 51, Type (0, 0), BuildingBlock: KIFKEQ_clean_linker_1, # of connection points: 2
#     Edge 52, Type (0, 0), BuildingBlock: KIFKEQ_clean_linker_1, # of connection points: 2
#     Edge 53, Type (0, 0), BuildingBlock: KIFKEQ_clean_linker_1, # of connection points: 2
#     Edge 54, Type (0, 0), BuildingBlock: KIFKEQ_clean_linker_1, # of connection points: 2
#     Edge 55, Type (0, 0), BuildingBlock: KIFKEQ_clean_linker_1, # of connection points: 2
#     Edge 56, Type (0, 0), BuildingBlock: KIFKEQ_clean_linker_1, # of connection points: 2
#     Edge 57, Type (0, 0), BuildingBlock: KIFKEQ_clean_linker_1, # of connection points: 2
#     Edge 58, Type (0, 0), BuildingBlock: KIFKEQ_clean_linker_1, # of connection points: 2
#     Edge 59, Type (0, 0), BuildingBlock: KIFKEQ_clean_linker_1, # of connection points: 2
#     Edge 60, Type (0, 0), BuildingBlock: KIFKEQ_clean_linker_1, # of connection points: 2
#     Edge 61, Type (0, 0), BuildingBlock: KIFKEQ_clean_linker_1, # of connection points: 2
#     Edge 62, Type (0, 0), BuildingBlock: KIFKEQ_clean_linker_1, # of connection points: 2
#     Edge 63, Type (0, 0), BuildingBlock: KIFKEQ_clean_linker_1, # of connection points: 2
#     Edge 64, Type (0, 0), BuildingBlock: KIFKEQ_clean_linker_1, # of connection points: 2
#     Edge 65, Type (0, 0), BuildingBlock: KIFKEQ_clean_linker_1, # of connection points: 2
#     Edge 66, Type (0, 0), BuildingBlock: KIFKEQ_clean_linker_1, # of connection points: 2
#     Edge 67, Type (0, 0), BuildingBlock: KIFKEQ_clean_linker_1, # of connection points: 2
#     Edge 68, Type (0, 0), BuildingBlock: KIFKEQ_clean_linker_1, # of connection points: 2
#     Edge 69, Type (0, 0), BuildingBlock: KIFKEQ_clean_linker_1, # of connection points: 2
#     Edge 70, Type (0, 0), BuildingBlock: KIFKEQ_clean_linker_1, # of connection points: 2
#     Edge 71, Type (0, 0), BuildingBlock: KIFKEQ_clean_linker_1, # of connection points: 2
#     Edge 72, Type (0, 0), BuildingBlock: KIFKEQ_clean_linker_1, # of connection points: 2
#     Edge 73, Type (0, 0), BuildingBlock: KIFKEQ_clean_linker_1, # of connection points: 2
#     Edge 74, Type (0, 0), BuildingBlock: KIFKEQ_clean_linker_1, # of connection points: 2
#     Edge 75, Type (0, 0), BuildingBlock: KIFKEQ_clean_linker_1, # of connection points: 2
#     Edge 76, Type (0, 0), BuildingBlock: KIFKEQ_clean_linker_1, # of connection points: 2
#     Edge 77, Type (0, 0), BuildingBlock: KIFKEQ_clean_linker_1, # of connection points: 2
#     Edge 78, Type (0, 0), BuildingBlock: KIFKEQ_clean_linker_1, # of connection points: 2
#     Edge 79, Type (0, 0), BuildingBlock: KIFKEQ_clean_linker_1, # of connection points: 2
#     Edge 80, Type (0, 0), BuildingBlock: KIFKEQ_clean_linker_1, # of connection points: 2
#     Edge 81, Type (0, 0), BuildingBlock: KIFKEQ_clean_linker_1, # of connection points: 2
#     Edge 82, Type (0, 0), BuildingBlock: KIFKEQ_clean_linker_1, # of connection points: 2
#     Edge 83, Type (0, 0), BuildingBlock: KIFKEQ_clean_linker_1, # of connection points: 2
#     Edge 84, Type (0, 0), BuildingBlock: KIFKEQ_clean_linker_1, # of connection points: 2
#     Edge 85, Type (0, 0), BuildingBlock: KIFKEQ_clean_linker_1, # of connection points: 2
#     Edge 86, Type (0, 0), BuildingBlock: KIFKEQ_clean_linker_1, # of connection points: 2
#     Edge 87, Type (0, 0), BuildingBlock: KIFKEQ_clean_linker_1, # of connection points: 2
#     Edge 88, Type (0, 0), BuildingBlock: KIFKEQ_clean_linker_1, # of connection points: 2
#     Edge 89, Type (0, 0), BuildingBlock: KIFKEQ_clean_linker_1, # of connection points: 2
#     Edge 90, Type (0, 0), BuildingBlock: KIFKEQ_clean_linker_1, # of connection points: 2
#     Edge 91, Type (0, 0), BuildingBlock: KIFKEQ_clean_linker_1, # of connection points: 2
#     Edge 92, Type (0, 0), BuildingBlock: KIFKEQ_clean_linker_1, # of connection points: 2
#     Edge 93, Type (0, 0), BuildingBlock: KIFKEQ_clean_linker_1, # of connection points: 2
#     Edge 94, Type (0, 0), BuildingBlock: KIFKEQ_clean_linker_1, # of connection points: 2
#     Edge 95, Type (0, 0), BuildingBlock: KIFKEQ_clean_linker_1, # of connection points: 2
#     Edge 96, Type (0, 0), BuildingBlock: KIFKEQ_clean_linker_1, # of connection points: 2
#     Edge 97, Type (0, 0), BuildingBlock: KIFKEQ_clean_linker_1, # of connection points: 2
#     Edge 98, Type (0, 0), BuildingBlock: KIFKEQ_clean_linker_1, # of connection points: 2
#     Edge 99, Type (0, 0), BuildingBlock: KIFKEQ_clean_linker_1, # of connection points: 2
#     Edge 100, Type (0, 0), BuildingBlock: KIFKEQ_clean_linker_1, # of connection points: 2
#     Edge 101, Type (0, 0), BuildingBlock: KIFKEQ_clean_linker_1, # of connection points: 2
#     Edge 102, Type (0, 0), BuildingBlock: KIFKEQ_clean_linker_1, # of connection points: 2
#     Edge 103, Type (0, 0), BuildingBlock: KIFKEQ_clean_linker_1, # of connection points: 2
#     Edge 104, Type (0, 0), BuildingBlock: KIFKEQ_clean_linker_1, # of connection points: 2
#     Edge 105, Type (0, 0), BuildingBlock: KIFKEQ_clean_linker_1, # of connection points: 2
#     Edge 106, Type (0, 0), BuildingBlock: KIFKEQ_clean_linker_1, # of connection points: 2
#     Edge 107, Type (0, 0), BuildingBlock: KIFKEQ_clean_linker_1, # of connection points: 2
#     Edge 108, Type (0, 0), BuildingBlock: KIFKEQ_clean_linker_1, # of connection points: 2
#     Edge 109, Type (0, 0), BuildingBlock: KIFKEQ_clean_linker_1, # of connection points: 2
#     Edge 110, Type (0, 0), BuildingBlock: KIFKEQ_clean_linker_1, # of connection points: 2
#     Edge 111, Type (0, 0), BuildingBlock: KIFKEQ_clean_linker_1, # of connection points: 2
# Relax obj value: 0.101
# Max RMSD: 0.135
# Mean RMSD: 0.135
data_MOF--net-wge--node1-XOMCOT_clean_sbu_0--edge1-KIFKEQ_clean_linker_1
_symmetry_space_group_name_H-M    P1
_symmetry_Int_Tables_number       1
_symmetry_cell_setting            triclinic
loop_
_symmetry_equiv_pos_as_xyz
'x, y, z'
_cell_length_a     70.016338
_cell_length_b     69.970267
_cell_length_c     41.735608
_cell_angle_alpha  90.027476
_cell_angle_beta   89.983528
_cell_angle_gamma 89.930923
loop_
_atom_site_label
_atom_site_type_symbol
_atom_site_fract_x
_atom_site_fract_y
_atom_site_fract_z
_atom_type_partial_charge
Co0 Co 0.24502 0.12275 0.05747 0.0
C1 C 0.26502 0.1249 0.11938 0.0
C2 C 0.279 0.1056 0.08736 0.0
C3 C 0.28649 0.10306 0.11762 0.0
N4 N 0.26559 0.11951 0.08831 0.0
N5 N 0.2776 0.11525 0.13764 0.0
H6 H 0.25381 0.13349 0.12969 0.0
H7 H 0.28168 0.09639 0.06706 0.0
C8 C 0.27981 0.12021 0.01438 0.0
O9 O 0.2883 0.13305 0.0324 0.0
N10 N 0.22438 0.12535 0.0274 0.0
C11 C 0.20923 0.13712 0.02991 0.0
C12 C 0.19766 0.13442 0.0036 0.0
C13 C 0.22194 0.11567 0.99983 0.0
N14 N 0.20574 0.12099 0.98474 0.0
C15 C 0.24844 0.16202 0.07808 0.0
C16 C 0.25564 0.1779 0.01874 0.0
C17 C 0.25464 0.19005 0.04549 0.0
C18 C 0.25097 0.18179 0.07541 0.0
C19 C 0.25347 0.15803 0.02262 0.0
N20 N 0.25043 0.15018 0.05226 0.0
H21 H 0.24399 0.1565 0.10084 0.0
H22 H 0.2537 0.14904 1.00158 0.0
H23 H 0.20683 0.14701 0.04943 0.0
H24 H 0.23165 0.10477 0.99121 0.0
O25 O 0.22662 0.12396 0.09251 0.0
O26 O 0.23612 0.09732 0.06894 0.0
O27 O 0.2627 0.11507 0.02085 0.0
C28 C 0.22578 0.10539 0.09109 0.0
H29 H 0.29646 0.09203 0.12481 0.0
H30 H 0.18451 0.14197 0.99848 0.0
H31 H 0.25805 0.1837 0.99503 0.0
H32 H 0.24928 0.19065 0.09652 0.0
Co33 Co 0.15317 0.9944 0.30636 0.0
C34 C 0.15136 0.01436 0.36822 0.0
C35 C 0.17401 0.0248 0.33863 0.0
C36 C 0.17707 0.03101 0.36949 0.0
N37 N 0.15786 0.01427 0.33775 0.0
N38 N 0.16279 0.0244 0.38793 0.0
H39 H 0.14045 1.00488 0.37707 0.0
H40 H 0.18422 0.02574 0.31925 0.0
C41 C 0.15803 0.03042 0.26703 0.0
O42 O 0.14797 0.03971 0.28858 0.0
N43 N 0.14912 0.97443 0.27557 0.0
C44 C 0.13544 0.96095 0.27589 0.0
C45 C 0.13772 0.94954 0.24925 0.0
C46 C 0.1596 0.97107 0.24914 0.0
N47 N 0.15292 0.95595 0.23244 0.0
C48 C 0.11419 0.99555 0.32819 0.0
C49 C 0.09781 1.01029 0.27335 0.0
C50 C 0.08572 1.00536 0.29901 0.0
C51 C 0.09436 0.99779 0.32659 0.0
C52 C 0.1177 1.00765 0.27586 0.0
N53 N 0.12582 1.00088 0.30347 0.0
H54 H 0.11999 0.98852 0.34894 0.0
H55 H 0.12634 1.0104 0.25498 0.0
H56 H 0.12454 0.95957 0.29411 0.0
H57 H 0.17201 0.9794 0.24263 0.0
O58 O 0.15222 0.9757 0.34092 0.0
O59 O 0.17854 0.98424 0.31574 0.0
O60 O 0.16061 1.01237 0.26994 0.0
C61 C 0.17067 0.97419 0.33842 0.0
H62 H 0.18987 0.03788 0.37836 0.0
H63 H 0.1287 0.93764 0.2426 0.0
H64 H 0.09201 0.01595 0.25127 0.0
H65 H 0.08585 0.99282 0.34657 0.0
Co66 Co 0.28244 0.90473 0.55557 0.0
C67 C 0.26353 0.905 0.61831 0.0
C68 C 0.24759 0.92133 0.58439 0.0
C69 C 0.24055 0.92513 0.61463 0.0
N70 N 0.26196 0.90845 0.58657 0.0
N71 N 0.25075 0.91486 0.63575 0.0
H72 H 0.27538 0.89755 0.62924 0.0
H73 H 0.24401 0.92937 0.56313 0.0
C74 C 0.24803 0.90646 0.51159 0.0
O75 O 0.23986 0.89319 0.52913 0.0
N76 N 0.30302 0.90172 0.5255 0.0
C77 C 0.31797 0.88974 0.528 0.0
C78 C 0.32966 0.89242 0.50188 0.0
C79 C 0.30575 0.91155 0.4982 0.0
N80 N 0.32196 0.90614 0.48304 0.0
C81 C 0.27704 0.86591 0.57726 0.0
C82 C 0.27368 0.84919 0.51756 0.0
C83 C 0.27411 0.8372 0.54463 0.0
C84 C 0.27544 0.84603 0.57479 0.0
C85 C 0.27505 0.86914 0.52115 0.0
N86 N 0.27663 0.87737 0.55082 0.0
H87 H 0.27949 0.87187 0.60058 0.0
H88 H 0.27563 0.87793 0.49988 0.0
H89 H 0.32023 0.87983 0.54752 0.0
H90 H 0.29595 0.92236 0.48976 0.0
O91 O 0.30087 0.90338 0.59046 0.0
O92 O 0.29188 0.93008 0.56663 0.0
O93 O 0.2648 0.91232 0.51883 0.0
C94 C 0.30208 0.92193 0.58887 0.0
H95 H 0.2304 0.9362 0.6209 0.0
H96 H 0.34293 0.88493 0.49755 0.0
H97 H 0.27308 0.84323 0.49365 0.0
H98 H 0.27565 0.83767 0.5966 0.0
Co99 Co 0.37318 0.03199 0.80689 0.0
C100 C 0.37349 1.0118 0.8686 0.0
C101 C 0.35517 0.99794 0.83496 0.0
C102 C 0.35152 0.9906 0.86502 0.0
N103 N 0.36915 1.0112 0.83708 0.0
N104 N 0.3632 0.99934 0.88592 0.0
H105 H 0.38163 0.02304 0.8798 0.0
H106 H 0.34642 0.99552 0.81404 0.0
C107 C 0.37093 0.99769 0.76276 0.0
O108 O 0.38371 0.98908 0.78076 0.0
N109 N 0.37646 0.05283 0.77742 0.0
C110 C 0.38857 0.06763 0.78021 0.0
C111 C 0.38604 0.0795 0.75426 0.0
C112 C 0.3667 0.05583 0.75013 0.0
N113 N 0.37227 0.07207 0.73523 0.0
C114 C 0.41193 0.02721 0.82894 0.0
C115 C 0.42888 0.02215 0.76981 0.0
C116 C 0.44074 0.02306 0.79703 0.0
C117 C 0.43176 0.02528 0.82689 0.0
C118 C 0.4089 0.02379 0.77302 0.0
N119 N 0.40055 0.02606 0.80246 0.0
H120 H 0.40596 0.03058 0.8519 0.0
H121 H 0.40023 0.02403 0.75161 0.0
H122 H 0.39848 0.06965 0.7998 0.0
H123 H 0.35582 0.0462 0.74149 0.0
O124 O 0.37442 0.04998 0.84247 0.0
O125 O 0.34783 0.04151 0.81787 0.0
O126 O 0.36566 0.01475 0.76961 0.0
C127 C 0.35591 0.05133 0.84065 0.0
H128 H 0.3398 0.98131 0.87151 0.0
H129 H 0.39368 0.0927 0.75016 0.0
H130 H 0.43493 0.02092 0.74604 0.0
H131 H 0.43996 0.02593 0.84884 0.0
Co132 Co 0.24377 0.90421 0.95269 0.0
C133 C 0.2617 0.90486 0.88913 0.0
C134 C 0.27615 0.92358 0.92143 0.0
C135 C 0.28237 0.92743 0.89074 0.0
N136 N 0.26331 0.90916 0.92058 0.0
N137 N 0.27307 0.9157 0.87061 0.0
H138 H 0.25056 0.89604 0.87918 0.0
H139 H 0.27903 0.9324 0.94212 0.0
C140 C 0.27954 0.90807 0.99299 0.0
O141 O 0.2885 0.89691 0.97258 0.0
N142 N 0.22411 0.89992 0.98396 0.0
C143 C 0.21087 0.88601 0.98386 0.0
C144 C 0.19956 0.88813 0.01063 0.0
C145 C 0.2207 0.91039 0.01039 0.0
N146 N 0.20578 0.90348 0.0273 0.0
C147 C 0.24815 0.86554 0.9297 0.0
C148 C 0.25824 0.84904 0.98736 0.0
C149 C 0.25591 0.83708 0.96054 0.0
C150 C 0.25084 0.84574 0.93144 0.0
C151 C 0.25548 0.86889 0.98455 0.0
N152 N 0.25083 0.87705 0.95577 0.0
H153 H 0.24289 0.87138 0.90761 0.0
H154 H 0.25634 0.87754 0.00592 0.0
H155 H 0.20962 0.87504 0.9657 0.0
H156 H 0.22883 0.92297 0.01674 0.0
O157 O 0.22468 0.90269 0.91885 0.0
O158 O 0.23313 0.92934 0.94333 0.0
O159 O 0.26183 0.91194 0.98875 0.0
C160 C 0.2229 0.92116 0.92118 0.0
H161 H 0.29112 0.93942 0.88347 0.0
H162 H 0.18786 0.87891 0.01746 0.0
H163 H 0.26195 0.84313 0.01051 0.0
H164 H 0.2481 0.8372 0.91029 0.0
Co165 Co 0.37309 0.99497 0.20103 0.0
C166 C 0.3751 0.01448 0.13897 0.0
C167 C 0.35492 0.0279 0.17017 0.0
C168 C 0.35204 0.03468 0.13957 0.0
N169 N 0.36949 0.01523 0.16989 0.0
N170 N 0.36465 0.02602 0.11995 0.0
H171 H 0.38453 1.00367 0.12954 0.0
H172 H 0.34549 0.03034 0.19028 0.0
C173 C 0.37011 0.0305 0.24269 0.0
O174 O 0.38194 0.03935 0.22328 0.0
N175 N 0.37619 0.97463 0.23143 0.0
C176 C 0.38809 0.95957 0.22892 0.0
C177 C 0.38559 0.94805 0.25533 0.0
C178 C 0.36665 0.97219 0.2591 0.0
N179 N 0.37216 0.95607 0.27423 0.0
C180 C 0.41215 0.99565 0.17953 0.0
C181 C 0.42873 1.00831 0.23563 0.0
C182 C 0.44075 1.00424 0.20942 0.0
C183 C 0.432 0.99758 0.18126 0.0
C184 C 0.40883 1.00589 0.233 0.0
N185 N 0.40061 1.00033 0.20474 0.0
H186 H 0.40623 0.98947 0.15815 0.0
H187 H 0.40019 1.00801 0.25412 0.0
H188 H 0.39785 0.95714 0.20923 0.0
H189 H 0.35564 0.98179 0.26768 0.0
O190 O 0.3737 0.97626 0.16639 0.0
O191 O 0.34746 0.98598 0.19075 0.0
O192 O 0.36584 1.01297 0.23754 0.0
C193 C 0.35519 0.97549 0.16847 0.0
H194 H 0.34044 0.04384 0.13194 0.0
H195 H 0.39321 0.93493 0.26042 0.0
H196 H 0.43456 1.01323 0.25818 0.0
H197 H 0.44042 0.9932 0.16078 0.0
Co198 Co 0.28382 0.12316 0.45321 0.0
C199 C 0.26359 0.12535 0.39176 0.0
C200 C 0.25174 0.10394 0.42237 0.0
C201 C 0.24513 0.10093 0.3917 0.0
N202 N 0.26339 0.11931 0.42249 0.0
N203 N 0.2526 0.11448 0.37265 0.0
H204 H 0.27382 0.13537 0.38228 0.0
H205 H 0.25025 0.09401 0.44205 0.0
C206 C 0.2486 0.11927 0.49498 0.0
O207 O 0.23962 0.13107 0.47567 0.0
N208 N 0.30432 0.12644 0.48326 0.0
C209 C 0.31924 0.13847 0.48066 0.0
C210 C 0.33078 0.13616 0.50713 0.0
C211 C 0.30687 0.11701 0.51102 0.0
N212 N 0.3229 0.12272 0.52615 0.0
C213 C 0.28219 0.1624 0.4327 0.0
C214 C 0.26998 0.17834 0.48965 0.0
C215 C 0.2737 0.19066 0.4637 0.0
C216 C 0.28009 0.18224 0.43508 0.0
C217 C 0.27252 0.15846 0.48633 0.0
N218 N 0.27788 0.15056 0.45768 0.0
H219 H 0.28825 0.15676 0.41099 0.0
H220 H 0.27071 0.14959 0.50724 0.0
H221 H 0.32152 0.14824 0.46095 0.0
H222 H 0.29739 0.10597 0.51971 0.0
O223 O 0.30203 0.12444 0.41795 0.0
O224 O 0.29346 0.0978 0.44218 0.0
O225 O 0.26621 0.1153 0.4899 0.0
C226 C 0.30332 0.10592 0.41952 0.0
H227 H 0.2374 0.08849 0.38337 0.0
H228 H 0.34378 0.14394 0.51221 0.0
H229 H 0.26529 0.18392 0.51252 0.0
H230 H 0.28418 0.1909 0.41474 0.0
Co231 Co 0.15416 0.03215 0.70248 0.0
C232 C 0.15103 1.01114 0.64165 0.0
C233 C 0.17186 0.9987 0.67281 0.0
C234 C 0.17423 0.99108 0.64265 0.0
N235 N 0.15723 1.01129 0.67228 0.0
N236 N 0.16116 0.99904 0.62313 0.0
H237 H 0.1414 0.02162 0.63176 0.0
H238 H 0.18164 0.99687 0.69261 0.0
C239 C 0.15655 0.99718 0.74517 0.0
O240 O 0.14436 0.98852 0.72614 0.0
N241 N 0.15168 0.05303 0.7321 0.0
C242 C 0.14014 0.06831 0.72933 0.0
C243 C 0.14297 0.07998 0.75546 0.0
C244 C 0.16138 0.05553 0.7596 0.0
N245 N 0.15633 0.07192 0.7746 0.0
C246 C 0.11491 0.03206 0.68199 0.0
C247 C 0.09854 0.02111 0.73934 0.0
C248 C 0.08651 0.02566 0.71355 0.0
C249 C 0.09501 0.03121 0.68465 0.0
C250 C 0.11849 0.02254 0.73585 0.0
N251 N 0.12657 0.02737 0.70705 0.0
H252 H 0.12079 0.03753 0.66004 0.0
H253 H 0.12728 0.02051 0.7568 0.0
H254 H 0.13042 0.07082 0.70962 0.0
H255 H 0.1718 0.04542 0.7684 0.0
O256 O 0.15355 0.05014 0.66686 0.0
O257 O 0.17985 0.04075 0.69127 0.0
O258 O 0.1613 0.01454 0.73954 0.0
C259 C 0.17207 0.05087 0.66856 0.0
H260 H 0.18583 0.9819 0.635 0.0
H261 H 0.13584 0.09347 0.75964 0.0
H262 H 0.09256 0.01735 0.76243 0.0
H263 H 0.0863 0.03521 0.66427 0.0
Co264 Co 0.78421 0.9038 0.95166 0.0
C265 C 0.76522 0.90055 0.88973 0.0
C266 C 0.75398 0.92377 0.91715 0.0
C267 C 0.74874 0.92625 0.8856 0.0
N268 N 0.76451 0.90769 0.91972 0.0
N269 N 0.75625 0.91182 0.86822 0.0
H270 H 0.77409 0.88866 0.88308 0.0
H271 H 0.75242 0.93432 0.93591 0.0
C272 C 0.74792 0.90876 0.99056 0.0
O273 O 0.73894 0.89789 0.96979 0.0
N274 N 0.80408 0.90035 0.98279 0.0
C275 C 0.81835 0.88747 0.98167 0.0
C276 C 0.82956 0.88978 0.00847 0.0
C277 C 0.80677 0.91039 0.0099 0.0
N278 N 0.82225 0.90419 0.02619 0.0
C279 C 0.78456 0.8644 0.93184 0.0
C280 C 0.76792 0.84864 0.9856 0.0
C281 C 0.77369 0.83624 0.96081 0.0
C282 C 0.78235 0.84458 0.93388 0.0
C283 C 0.77068 0.86851 0.98276 0.0
N284 N 0.77821 0.87635 0.95548 0.0
H285 H 0.7923 0.86994 0.9116 0.0
H286 H 0.76728 0.87735 1.00312 0.0
H287 H 0.8205 0.87721 0.96263 0.0
H288 H 0.79746 0.92186 0.01763 0.0
O289 O 0.80316 0.90268 0.91741 0.0
O290 O 0.79405 0.9292 0.94144 0.0
O291 O 0.76589 0.9117 0.98737 0.0
C292 C 0.80437 0.92118 0.91923 0.0
H293 H 0.742 0.9389 0.87584 0.0
H294 H 0.84229 0.88166 0.01414 0.0
H295 H 0.76146 0.84313 0.00725 0.0
H296 H 0.78809 0.83586 0.91473 0.0
Co297 Co 0.87287 0.03239 0.70066 0.0
C298 C 0.87402 1.01316 0.63815 0.0
C299 C 0.85626 0.99797 0.67097 0.0
C300 C 0.85312 0.99088 0.64056 0.0
N301 N 0.86959 1.0119 0.66958 0.0
N302 N 0.86431 1.00058 0.62001 0.0
H303 H 0.88184 0.02489 0.62777 0.0
H304 H 0.84773 0.99464 0.6918 0.0
C305 C 0.8713 0.99761 0.74403 0.0
O306 O 0.88433 0.98935 0.72605 0.0
N307 N 0.8755 0.05297 0.73086 0.0
C308 C 0.88721 0.06811 0.72831 0.0
C309 C 0.8845 0.07967 0.7546 0.0
C310 C 0.86582 0.05544 0.75839 0.0
N311 N 0.87105 0.07168 0.77362 0.0
C312 C 0.91186 0.0289 0.67899 0.0
C313 C 0.92862 0.02358 0.73818 0.0
C314 C 0.9406 0.02513 0.71117 0.0
C315 C 0.93172 0.02745 0.68126 0.0
C316 C 0.90863 0.02473 0.73473 0.0
N317 N 0.90038 0.02715 0.70525 0.0
H318 H 0.90594 0.03239 0.65607 0.0
H319 H 0.89985 0.02449 0.75602 0.0
H320 H 0.89696 0.07058 0.70865 0.0
H321 H 0.85527 0.04543 0.767 0.0
O322 O 0.87375 0.05099 0.66592 0.0
O323 O 0.84731 0.04121 0.68964 0.0
O324 O 0.86564 0.01455 0.73728 0.0
C325 C 0.8552 0.05171 0.66754 0.0
H326 H 0.8423 0.9806 0.63383 0.0
H327 H 0.89178 0.09304 0.75893 0.0
H328 H 0.93459 0.02225 0.76199 0.0
H329 H 0.94001 0.02858 0.65946 0.0
Co330 Co 0.74418 0.12227 0.45076 0.0
C331 C 0.76305 0.12202 0.38782 0.0
C332 C 0.77647 0.10263 0.42029 0.0
C333 C 0.78291 0.0987 0.38977 0.0
N334 N 0.76409 0.11748 0.41924 0.0
N335 N 0.77446 0.11102 0.36959 0.0
H336 H 0.75212 0.13095 0.37748 0.0
H337 H 0.77877 0.09362 0.44096 0.0
C338 C 0.77979 0.11908 0.49154 0.0
O339 O 0.78872 0.13011 0.47094 0.0
N340 N 0.72417 0.12629 0.48153 0.0
C341 C 0.71059 0.13991 0.48095 0.0
C342 C 0.69917 0.13772 0.50757 0.0
C343 C 0.72083 0.11592 0.50807 0.0
N344 N 0.70565 0.12263 0.52462 0.0
C345 C 0.7478 0.16086 0.42737 0.0
C346 C 0.75646 0.17813 0.48504 0.0
C347 C 0.75382 0.18986 0.45797 0.0
C348 C 0.74982 0.18072 0.42877 0.0
C349 C 0.75468 0.15813 0.48243 0.0
N350 N 0.75056 0.14962 0.45369 0.0
H351 H 0.74297 0.15477 0.40524 0.0
H352 H 0.75564 0.14963 0.50396 0.0
H353 H 0.7092 0.15074 0.46261 0.0
H354 H 0.72924 0.10358 0.51479 0.0
O355 O 0.7253 0.12324 0.41652 0.0
O356 O 0.73432 0.09687 0.44138 0.0
O357 O 0.76212 0.11511 0.48728 0.0
C358 C 0.72402 0.10474 0.419 0.0
H359 H 0.79134 0.08645 0.38255 0.0
H360 H 0.68722 0.14675 0.51405 0.0
H361 H 0.75908 0.18432 0.50839 0.0
H362 H 0.74777 0.18881 0.40696 0.0
Co363 Co 0.6538 0.99535 0.19912 0.0
C364 C 0.65288 0.01676 0.13834 0.0
C365 C 0.67383 0.0278 0.17063 0.0
C366 C 0.67722 0.03531 0.14069 0.0
N367 N 0.65844 0.01618 0.16932 0.0
N368 N 0.66399 0.0283 0.12052 0.0
H369 H 0.64309 1.00677 0.12762 0.0
H370 H 0.6834 0.02889 0.19087 0.0
C371 C 0.65737 0.03 0.24171 0.0
O372 O 0.64622 0.0392 0.22161 0.0
N373 N 0.64999 0.97448 0.22831 0.0
C374 C 0.63683 0.96053 0.22636 0.0
C375 C 0.63897 0.94865 0.25246 0.0
C376 C 0.66003 0.97093 0.25512 0.0
N377 N 0.65358 0.95523 0.27049 0.0
C378 C 0.61479 0.99968 0.17748 0.0
C379 C 0.59871 1.00743 0.23652 0.0
C380 C 0.58665 1.00613 0.20974 0.0
C381 C 0.59502 1.00229 0.17994 0.0
C382 C 0.61857 1.0052 0.23286 0.0
N383 N 0.62653 1.00178 0.20341 0.0
H384 H 0.62039 0.99492 0.15491 0.0
H385 H 0.62741 1.00544 0.25405 0.0
H386 H 0.62639 0.95916 0.2074 0.0
H387 H 0.67161 0.97987 0.26342 0.0
O388 O 0.65251 0.97765 0.16313 0.0
O389 O 0.67905 0.98543 0.18847 0.0
O390 O 0.6613 1.01236 0.23678 0.0
C391 C 0.67098 0.97596 0.16528 0.0
H392 H 0.68953 0.04366 0.13362 0.0
H393 H 0.63054 0.93606 0.25755 0.0
H394 H 0.59284 1.00998 0.26015 0.0
H395 H 0.58622 1.00039 0.15883 0.0
Co396 Co 0.78171 0.12231 0.0554 0.0
C397 C 0.76175 0.12334 0.11737 0.0
C398 C 0.74754 0.10484 0.08443 0.0
C399 C 0.7401 0.10178 0.11462 0.0
N400 N 0.76106 0.11859 0.08602 0.0
N401 N 0.74916 0.11347 0.13524 0.0
H402 H 0.77308 0.13159 0.12804 0.0
H403 H 0.74473 0.09605 0.06367 0.0
C404 C 0.74728 0.12005 0.0116 0.0
O405 O 0.73878 0.13292 0.0296 0.0
N406 N 0.80242 0.12534 0.02562 0.0
C407 C 0.81744 0.13723 0.02838 0.0
C408 C 0.82912 0.1347 1.00214 0.0
C409 C 0.80506 0.11576 0.99802 0.0
N410 N 0.82124 0.12126 0.98312 0.0
C411 C 0.77728 0.16133 0.0767 0.0
C412 C 0.77212 0.17778 0.01722 0.0
C413 C 0.7732 0.18989 0.04413 0.0
C414 C 0.77546 0.18116 0.07419 0.0
C415 C 0.77361 0.15781 0.02091 0.0
N416 N 0.77592 0.14971 0.05053 0.0
H417 H 0.78075 0.15556 0.09974 0.0
H418 H 0.77372 0.14896 0.9997 0.0
H419 H 0.81967 0.14706 0.04803 0.0
H420 H 0.79552 0.10478 0.98926 0.0
O421 O 0.79986 0.12367 0.09069 0.0
O422 O 0.79115 0.09697 0.0666 0.0
O423 O 0.76428 0.11466 0.01843 0.0
C424 C 0.80116 0.10514 0.08905 0.0
H425 H 0.73004 0.09074 0.12125 0.0
H426 H 0.84223 0.14235 0.9972 0.0
H427 H 0.77087 0.18362 0.99331 0.0
H428 H 0.77625 0.18955 0.09594 0.0
Co429 Co 0.65391 0.03234 0.80431 0.0
C430 C 0.65281 1.01242 0.86626 0.0
C431 C 0.67499 1.00181 0.8358 0.0
C432 C 0.67848 0.99562 0.86653 0.0
N433 N 0.65887 1.01244 0.83553 0.0
N434 N 0.66452 1.00239 0.88555 0.0
H435 H 0.64203 0.02194 0.87552 0.0
H436 H 0.68493 1.00078 0.81603 0.0
C437 C 0.65856 0.99644 0.76462 0.0
O438 O 0.64847 0.98721 0.78616 0.0
N439 N 0.64968 0.05233 0.77362 0.0
C440 C 0.63588 0.06572 0.77393 0.0
C441 C 0.63802 0.07708 0.7472 0.0
C442 C 0.66008 0.05569 0.74714 0.0
N443 N 0.65325 0.07071 0.73036 0.0
C444 C 0.61503 0.03065 0.8265 0.0
C445 C 0.59858 0.01676 0.77109 0.0
C446 C 0.58651 0.02133 0.79699 0.0
C447 C 0.59519 0.02846 0.82488 0.0
C448 C 0.61846 0.01936 0.77362 0.0
N449 N 0.62662 0.02573 0.80147 0.0
H450 H 0.62084 0.03737 0.84751 0.0
H451 H 0.62708 0.01694 0.75259 0.0
H452 H 0.62497 0.06705 0.79215 0.0
H453 H 0.67255 0.0474 0.74061 0.0
O454 O 0.65281 0.05098 0.83895 0.0
O455 O 0.67921 0.04267 0.81372 0.0
O456 O 0.66136 0.01444 0.76774 0.0
C457 C 0.67125 0.05261 0.83648 0.0
H458 H 0.69133 0.98857 0.87484 0.0
H459 H 0.62887 0.08888 0.7405 0.0
H460 H 0.59276 1.01144 0.74879 0.0
H461 H 0.58672 0.03315 0.8451 0.0
Co462 Co 0.74223 0.90356 0.55184 0.0
C463 C 0.76296 0.90167 0.61315 0.0
C464 C 0.7756 0.92178 0.58102 0.0
C465 C 0.78316 0.92467 0.61111 0.0
N466 N 0.76296 0.9072 0.58215 0.0
N467 N 0.77514 0.91195 0.63113 0.0
H468 H 0.75232 0.89252 0.62371 0.0
H469 H 0.77755 0.93119 0.56075 0.0
C470 C 0.77698 0.90595 0.50909 0.0
O471 O 0.7854 0.89337 0.52773 0.0
N472 N 0.72146 0.90067 0.52215 0.0
C473 C 0.70702 0.88805 0.52397 0.0
C474 C 0.69538 0.89054 0.4977 0.0
C475 C 0.71844 0.91076 0.49518 0.0
N476 N 0.7026 0.90483 0.47963 0.0
C477 C 0.74566 0.86437 0.5729 0.0
C478 C 0.75306 0.84827 0.51375 0.0
C479 C 0.7519 0.83621 0.54056 0.0
C480 C 0.74816 0.84458 0.57039 0.0
C481 C 0.75094 0.86816 0.51747 0.0
N482 N 0.7478 0.87612 0.54702 0.0
H483 H 0.74105 0.86998 0.59553 0.0
H484 H 0.75121 0.87707 0.49635 0.0
H485 H 0.70516 0.87771 0.54298 0.0
H486 H 0.72785 0.92197 0.4869 0.0
O487 O 0.72409 0.90251 0.58724 0.0
O488 O 0.73324 0.92903 0.56303 0.0
O489 O 0.75974 0.91101 0.51492 0.0
C490 C 0.72318 0.92107 0.5856 0.0
H491 H 0.79246 0.93626 0.61828 0.0
H492 H 0.68251 0.88257 0.49253 0.0
H493 H 0.7555 0.84239 0.49009 0.0
H494 H 0.74634 0.83578 0.59152 0.0
Co495 Co 0.87241 0.99482 0.30622 0.0
C496 C 0.87139 0.01387 0.36884 0.0
C497 C 0.85407 0.02872 0.33489 0.0
C498 C 0.84987 0.03558 0.36511 0.0
N499 N 0.8678 0.01517 0.33711 0.0
N500 N 0.86087 0.02614 0.38621 0.0
H501 H 0.87932 1.0024 0.37988 0.0
H502 H 0.84584 0.03174 0.31359 0.0
C503 C 0.87021 0.02943 0.26275 0.0
O504 O 0.88282 0.03803 0.28106 0.0
N505 N 0.87627 0.97439 0.27615 0.0
C506 C 0.88929 0.96027 0.27787 0.0
C507 C 0.88699 0.94852 0.25167 0.0
C508 C 0.86613 0.97106 0.24938 0.0
N509 N 0.8724 0.95534 0.23383 0.0
C510 C 0.91085 1.00027 0.32951 0.0
C511 C 0.92828 1.00526 0.27076 0.0
C512 C 0.93992 1.00446 0.29826 0.0
C513 C 0.9307 1.0023 0.32793 0.0
C514 C 0.90831 1.00351 0.27349 0.0
N515 N 0.89972 1.00117 0.30271 0.0
H516 H 0.90468 0.99705 0.35238 0.0
H517 H 0.89983 1.00319 0.25186 0.0
H518 H 0.89969 0.95865 0.29685 0.0
H519 H 0.85453 0.9801 0.24137 0.0
O520 O 0.87355 0.97637 0.34109 0.0
O521 O 0.84711 0.98494 0.31603 0.0
O522 O 0.865 1.01235 0.26931 0.0
C523 C 0.85507 0.97489 0.33865 0.0
H524 H 0.83823 0.04506 0.37139 0.0
H525 H 0.89524 0.9358 0.24648 0.0
H526 H 0.93453 1.00646 0.24713 0.0
H527 H 0.93872 1.00177 0.35007 0.0
Co528 Co 0.74173 0.62264 0.55289 0.0
C529 C 0.76242 0.62527 0.61391 0.0
C530 C 0.77415 0.60374 0.58325 0.0
C531 C 0.78132 0.60109 0.61362 0.0
N532 N 0.76226 0.61896 0.58336 0.0
N533 N 0.7738 0.61461 0.6328 0.0
H534 H 0.75236 0.63547 0.62343 0.0
H535 H 0.77568 0.59382 0.56355 0.0
C536 C 0.77707 0.61945 0.5113 0.0
O537 O 0.78588 0.63122 0.53088 0.0
N538 N 0.72113 0.62576 0.52299 0.0
C539 C 0.7059 0.63739 0.52609 0.0
C540 C 0.6944 0.63516 0.49956 0.0
C541 C 0.71882 0.61666 0.49487 0.0
N542 N 0.70264 0.62219 0.48001 0.0
C543 C 0.74232 0.66184 0.57389 0.0
C544 C 0.75493 0.67815 0.51753 0.0
C545 C 0.75078 0.69031 0.54352 0.0
C546 C 0.74417 0.68171 0.57183 0.0
C547 C 0.7526 0.65825 0.5205 0.0
N548 N 0.74708 0.65016 0.54889 0.0
H549 H 0.73612 0.65602 0.59535 0.0
H550 H 0.75472 0.64951 0.4995 0.0
H551 H 0.70337 0.64683 0.54618 0.0
H552 H 0.7286 0.60599 0.48571 0.0
O553 O 0.72343 0.62333 0.58813 0.0
O554 O 0.73276 0.59703 0.56347 0.0
O555 O 0.75947 0.61533 0.51611 0.0
C556 C 0.72258 0.6048 0.58611 0.0
H557 H 0.78988 0.58911 0.62161 0.0
H558 H 0.68119 0.64268 0.4948 0.0
H559 H 0.75981 0.68386 0.49489 0.0
H560 H 0.73974 0.69025 0.59215 0.0
Co561 Co 0.65175 0.49237 0.80143 0.0
C562 C 0.64897 0.51078 0.86393 0.0
C563 C 0.67234 0.52176 0.83673 0.0
C564 C 0.67512 0.52642 0.86844 0.0
N565 N 0.65597 0.51174 0.83387 0.0
N566 N 0.6606 0.51905 0.88566 0.0
H567 H 0.63693 0.50209 0.8704 0.0
H568 H 0.68289 0.52323 0.81795 0.0
C569 C 0.65739 0.52904 0.76385 0.0
O570 O 0.64783 0.53832 0.78606 0.0
N571 N 0.64808 0.4728 0.76981 0.0
C572 C 0.63498 0.45875 0.77019 0.0
C573 C 0.6376 0.44753 0.74344 0.0
C574 C 0.65856 0.46996 0.74322 0.0
N575 N 0.65245 0.45459 0.72652 0.0
C576 C 0.61246 0.49208 0.8218 0.0
C577 C 0.59658 0.50965 0.76896 0.0
C578 C 0.58429 0.50358 0.79363 0.0
C579 C 0.59266 0.49452 0.82013 0.0
C580 C 0.61644 0.50678 0.77149 0.0
N581 N 0.62434 0.49865 0.79825 0.0
H582 H 0.61805 0.48403 0.84167 0.0
H583 H 0.62522 0.51055 0.75126 0.0
H584 H 0.62442 0.45669 0.78878 0.0
H585 H 0.67036 0.47902 0.73627 0.0
O586 O 0.65073 0.47317 0.83523 0.0
O587 O 0.67716 0.48225 0.81099 0.0
O588 O 0.65937 0.51087 0.76587 0.0
C589 C 0.6692 0.47189 0.83318 0.0
H590 H 0.68801 0.53256 0.87836 0.0
H591 H 0.62944 0.43491 0.73734 0.0
H592 H 0.59097 0.51645 0.74766 0.0
H593 H 0.58396 0.48867 0.83918 0.0
Co594 Co 0.78048 0.40333 0.05243 0.0
C595 C 0.75973 0.40063 0.11354 0.0
C596 C 0.7474 0.42156 0.08246 0.0
C597 C 0.74002 0.42412 0.11276 0.0
N598 N 0.75978 0.40674 0.08285 0.0
N599 N 0.74793 0.41099 0.13224 0.0
H600 H 0.77013 0.39088 0.12333 0.0
H601 H 0.74559 0.43133 0.06263 0.0
C602 C 0.74548 0.40625 0.00994 0.0
O603 O 0.73672 0.39421 0.02911 0.0
N604 N 0.80121 0.40052 0.02263 0.0
C605 C 0.81623 0.38862 0.02514 0.0
C606 C 0.82794 0.39141 0.99905 0.0
C607 C 0.80391 0.41038 0.99535 0.0
N608 N 0.82017 0.40509 0.98021 0.0
C609 C 0.77949 0.36416 0.07312 0.0
C610 C 0.76801 0.3478 0.01611 0.0
C611 C 0.77164 0.33567 0.04234 0.0
C612 C 0.7777 0.3443 0.07097 0.0
C613 C 0.77023 0.36772 0.01921 0.0
N614 N 0.77518 0.37582 0.0479 0.0
H615 H 0.7853 0.36996 0.09487 0.0
H616 H 0.76846 0.37649 0.99815 0.0
H617 H 0.81854 0.37872 0.04465 0.0
H618 H 0.79405 0.42113 0.98686 0.0
O619 O 0.79852 0.40233 0.08788 0.0
O620 O 0.78955 0.42888 0.06374 0.0
O621 O 0.7629 0.41079 0.01546 0.0
C622 C 0.79953 0.42085 0.08639 0.0
H623 H 0.73106 0.43587 0.12049 0.0
H624 H 0.84126 0.38401 0.99474 0.0
H625 H 0.76363 0.34202 0.99321 0.0
H626 H 0.78177 0.33579 0.09152 0.0
Co627 Co 0.87084 0.52996 0.30643 0.0
C628 C 0.87182 0.50942 0.36784 0.0
C629 C 0.85055 0.49814 0.33639 0.0
C630 C 0.84714 0.49131 0.36683 0.0
N631 N 0.86609 0.50956 0.33694 0.0
N632 N 0.86056 0.49851 0.38648 0.0
H633 H 0.88197 0.51934 0.37779 0.0
H634 H 0.84091 0.49678 0.31628 0.0
C635 C 0.86678 0.49508 0.26397 0.0
O636 O 0.87827 0.48581 0.28342 0.0
N637 N 0.87493 0.55041 0.27657 0.0
C638 C 0.88879 0.5637 0.27736 0.0
C639 C 0.88669 0.57543 0.2511 0.0
C640 C 0.86451 0.55422 0.25028 0.0
N641 N 0.87142 0.56943 0.23407 0.0
C642 C 0.9098 0.5266 0.32822 0.0
C643 C 0.92596 0.51606 0.27052 0.0
C644 C 0.93808 0.51881 0.297 0.0
C645 C 0.9296 0.52416 0.3261 0.0
C646 C 0.90611 0.51857 0.27374 0.0
N647 N 0.89809 0.52327 0.30263 0.0
H648 H 0.90414 0.53233 0.35015 0.0
H649 H 0.89735 0.51749 0.25255 0.0
H650 H 0.89976 0.56465 0.29554 0.0
H651 H 0.85203 0.54609 0.24345 0.0
O652 O 0.87224 0.54813 0.34174 0.0
O653 O 0.84568 0.54022 0.31659 0.0
O654 O 0.86294 0.5127 0.26934 0.0
C655 C 0.85379 0.54995 0.33941 0.0
H656 H 0.83473 0.48329 0.37448 0.0
H657 H 0.89595 0.58721 0.24479 0.0
H658 H 0.93175 0.51225 0.24732 0.0
H659 H 0.93827 0.52736 0.3469 0.0
Co660 Co 0.74582 0.4034 0.44858 0.0
C661 C 0.76573 0.4013 0.38684 0.0
C662 C 0.77607 0.42421 0.41599 0.0
C663 C 0.78206 0.42721 0.38499 0.0
N664 N 0.76571 0.40795 0.41722 0.0
N665 N 0.77549 0.41277 0.3668 0.0
H666 H 0.75632 0.39024 0.37829 0.0
H667 H 0.77695 0.43455 0.43519 0.0
C668 C 0.78178 0.40873 0.48803 0.0
O669 O 0.79122 0.39875 0.46656 0.0
N670 N 0.72575 0.39941 0.4792 0.0
C671 C 0.71178 0.38626 0.47778 0.0
C672 C 0.70015 0.38852 0.50412 0.0
C673 C 0.72247 0.40957 0.50602 0.0
N674 N 0.7069 0.40319 0.52184 0.0
C675 C 0.74634 0.36427 0.42751 0.0
C676 C 0.76103 0.34805 0.48258 0.0
C677 C 0.75494 0.33593 0.4578 0.0
C678 C 0.74765 0.34437 0.42996 0.0
C679 C 0.75914 0.368 0.4794 0.0
N680 N 0.75221 0.37602 0.45178 0.0
H681 H 0.7395 0.37004 0.40657 0.0
H682 H 0.76237 0.37677 0.49993 0.0
H683 H 0.71006 0.37588 0.45879 0.0
H684 H 0.73139 0.4213 0.51378 0.0
O685 O 0.72719 0.40234 0.41392 0.0
O686 O 0.73563 0.42876 0.43891 0.0
O687 O 0.7637 0.41103 0.48507 0.0
C688 C 0.72562 0.42079 0.41629 0.0
H689 H 0.78867 0.44008 0.37586 0.0
H690 H 0.6875 0.38023 0.50941 0.0
H691 H 0.76627 0.34212 0.50489 0.0
H692 H 0.74252 0.33561 0.41037 0.0
Co693 Co 0.87266 0.49562 0.7 0.0
C694 C 0.87424 0.51582 0.63828 0.0
C695 C 0.85482 0.52918 0.67084 0.0
C696 C 0.85124 0.53603 0.64047 0.0
N697 N 0.86934 0.51644 0.66961 0.0
N698 N 0.86358 0.52763 0.62021 0.0
H699 H 0.88295 0.50477 0.62771 0.0
H700 H 0.84564 0.53137 0.69133 0.0
C701 C 0.87021 0.53008 0.74366 0.0
O702 O 0.88311 0.53847 0.72563 0.0
N703 N 0.87518 0.47473 0.72963 0.0
C704 C 0.88696 0.45959 0.72694 0.0
C705 C 0.88416 0.44782 0.75298 0.0
C706 C 0.86539 0.47208 0.75702 0.0
N707 N 0.87065 0.45577 0.77184 0.0
C708 C 0.91207 0.50028 0.68022 0.0
C709 C 0.92738 0.50478 0.74074 0.0
C710 C 0.93982 0.50454 0.71434 0.0
C711 C 0.93184 0.50239 0.68379 0.0
C712 C 0.90756 0.50311 0.73602 0.0
N713 N 0.9 0.50118 0.70592 0.0
H714 H 0.90672 0.49696 0.65681 0.0
H715 H 0.89835 0.5027 0.75679 0.0
H716 H 0.89693 0.45733 0.70749 0.0
H717 H 0.85446 0.48172 0.76569 0.0
O718 O 0.87419 0.4775 0.66456 0.0
O719 O 0.84736 0.48663 0.68787 0.0
O720 O 0.86482 0.51306 0.73695 0.0
C721 C 0.85563 0.47655 0.66559 0.0
H722 H 0.83921 0.54478 0.63333 0.0
H723 H 0.89168 0.43463 0.75792 0.0
H724 H 0.93294 0.50608 0.76485 0.0
H725 H 0.94092 0.50144 0.66282 0.0
Co726 Co 0.78376 0.6233 0.95307 0.0
C727 C 0.76429 0.62624 0.89127 0.0
C728 C 0.75364 0.60292 0.91893 0.0
C729 C 0.74807 0.6004 0.88755 0.0
N730 N 0.76397 0.61913 0.92129 0.0
N731 N 0.75519 0.61492 0.87003 0.0
H732 H 0.77294 0.63815 0.88424 0.0
H733 H 0.75238 0.59235 0.93771 0.0
C734 C 0.74766 0.61797 0.99186 0.0
O735 O 0.7385 0.62834 0.97057 0.0
N736 N 0.80366 0.62684 0.9841 0.0
C737 C 0.81738 0.64029 0.98397 0.0
C738 C 0.82851 0.63792 0.01088 0.0
C739 C 0.8066 0.61641 0.0107 0.0
N740 N 0.82167 0.62291 0.02769 0.0
C741 C 0.78229 0.66272 0.933 0.0
C742 C 0.76839 0.67809 0.9893 0.0
C743 C 0.77231 0.69044 0.96364 0.0
C744 C 0.77936 0.68245 0.93527 0.0
C745 C 0.77105 0.65825 0.9857 0.0
N746 N 0.77736 0.65062 0.95735 0.0
H747 H 0.78951 0.65744 0.91205 0.0
H748 H 0.76876 0.64922 0.00629 0.0
H749 H 0.81905 0.65115 0.96574 0.0
H750 H 0.79798 0.60419 0.01721 0.0
O751 O 0.80254 0.62473 0.91862 0.0
O752 O 0.79387 0.59805 0.94262 0.0
O753 O 0.76569 0.61534 0.98901 0.0
C754 C 0.80397 0.60622 0.92031 0.0
H755 H 0.74135 0.58771 0.87792 0.0
H756 H 0.84047 0.64679 0.01777 0.0
H757 H 0.76344 0.68372 0.01201 0.0
H758 H 0.7834 0.69152 0.91535 0.0
Co759 Co 0.65355 0.53106 0.19966 0.0
C760 C 0.65175 0.50937 0.13928 0.0
C761 C 0.67224 0.49756 0.17167 0.0
C762 C 0.67515 0.4896 0.14186 0.0
N763 N 0.65744 0.50995 0.17017 0.0
N764 N 0.66219 0.49709 0.12167 0.0
H765 H 0.64233 0.51967 0.12843 0.0
H766 H 0.68174 0.49607 0.19194 0.0
C767 C 0.65593 0.49669 0.24355 0.0
O768 O 0.64372 0.48783 0.22483 0.0
N769 N 0.65036 0.55218 0.22857 0.0
C770 C 0.63848 0.56715 0.22512 0.0
C771 C 0.64097 0.57923 0.25082 0.0
C772 C 0.65992 0.55526 0.25601 0.0
N773 N 0.65446 0.57173 0.27032 0.0
C774 C 0.61465 0.52871 0.17759 0.0
C775 C 0.59761 0.52089 0.23574 0.0
C776 C 0.58577 0.52342 0.20878 0.0
C777 C 0.59479 0.5271 0.17937 0.0
C778 C 0.61762 0.52229 0.23274 0.0
N779 N 0.62603 0.52575 0.20368 0.0
H780 H 0.62066 0.53341 0.1553 0.0
H781 H 0.62623 0.52143 0.25415 0.0
H782 H 0.62879 0.56918 0.20522 0.0
H783 H 0.67055 0.54551 0.26525 0.0
O784 O 0.65291 0.54881 0.16368 0.0
O785 O 0.67915 0.53992 0.18893 0.0
O786 O 0.66066 0.51397 0.23736 0.0
C787 C 0.67141 0.54983 0.16594 0.0
H788 H 0.68691 0.48042 0.13492 0.0
H789 H 0.63356 0.59263 0.25445 0.0
H790 H 0.59151 0.51862 0.25926 0.0
H791 H 0.58661 0.52917 0.15766 0.0
Co792 Co 0.28149 0.40377 0.45315 0.0
C793 C 0.26105 0.40147 0.39167 0.0
C794 C 0.24747 0.42101 0.42377 0.0
C795 C 0.23997 0.42369 0.39356 0.0
N796 N 0.26068 0.40692 0.42273 0.0
N797 N 0.24859 0.41133 0.37351 0.0
H798 H 0.27213 0.39277 0.38123 0.0
H799 H 0.24506 0.43033 0.44404 0.0
C800 C 0.24704 0.40651 0.49699 0.0
O801 O 0.23852 0.39351 0.47936 0.0
N802 N 0.30236 0.40128 0.4828 0.0
C803 C 0.31741 0.38943 0.48017 0.0
C804 C 0.32912 0.39218 0.50625 0.0
C805 C 0.30504 0.41107 0.51018 0.0
N806 N 0.32132 0.40578 0.52524 0.0
C807 C 0.27764 0.3644 0.43326 0.0
C808 C 0.27134 0.34883 0.49311 0.0
C809 C 0.272 0.33653 0.46652 0.0
C810 C 0.2752 0.34464 0.43634 0.0
C811 C 0.27339 0.36869 0.48883 0.0
N812 N 0.27602 0.37638 0.45897 0.0
H813 H 0.28176 0.3698 0.41024 0.0
H814 H 0.27343 0.37781 0.50973 0.0
H815 H 0.3197 0.37952 0.46065 0.0
H816 H 0.29512 0.42172 0.51886 0.0
O817 O 0.2996 0.40223 0.41771 0.0
O818 O 0.29044 0.42909 0.44092 0.0
O819 O 0.26407 0.41173 0.49005 0.0
C820 C 0.30055 0.4208 0.41869 0.0
H821 H 0.23028 0.43496 0.38636 0.0
H822 H 0.34245 0.38478 0.5105 0.0
H823 H 0.2693 0.34315 0.51701 0.0
H824 H 0.2766 0.33567 0.4153 0.0
Co825 Co 0.37224 0.53024 0.20014 0.0
C826 C 0.374 0.5108 0.13798 0.0
C827 C 0.35179 0.49969 0.1678 0.0
C828 C 0.34844 0.49392 0.1368 0.0
N829 N 0.36783 0.5104 0.16863 0.0
N830 N 0.36241 0.50101 0.11817 0.0
H831 H 0.38475 0.52051 0.12925 0.0
H832 H 0.34176 0.49842 0.18738 0.0
C833 C 0.36757 0.49408 0.23965 0.0
O834 O 0.37748 0.48464 0.21808 0.0
N835 N 0.37604 0.55022 0.23096 0.0
C836 C 0.38915 0.56425 0.22986 0.0
C837 C 0.38695 0.57558 0.25659 0.0
C838 C 0.36595 0.55318 0.25793 0.0
N839 N 0.37235 0.56858 0.27417 0.0
C840 C 0.41126 0.5302 0.17858 0.0
C841 C 0.42783 0.51573 0.23352 0.0
C842 C 0.43979 0.52191 0.20861 0.0
C843 C 0.43117 0.52911 0.18084 0.0
C844 C 0.40787 0.5174 0.23054 0.0
N845 N 0.39968 0.52424 0.203 0.0
H846 H 0.40531 0.53694 0.15768 0.0
H847 H 0.39922 0.5141 0.25116 0.0
H848 H 0.39951 0.56615 0.2109 0.0
H849 H 0.35431 0.54412 0.26559 0.0
O850 O 0.37282 0.54924 0.16588 0.0
O851 O 0.34669 0.5399 0.19087 0.0
O852 O 0.36504 0.51213 0.23655 0.0
C853 C 0.35435 0.55035 0.16853 0.0
H854 H 0.33562 0.48702 0.12807 0.0
H855 H 0.39526 0.58816 0.26232 0.0
H856 H 0.43388 0.51055 0.25578 0.0
H857 H 0.4398 0.53429 0.16113 0.0
Co858 Co 0.24778 0.6236 0.94901 0.0
C859 C 0.26327 0.63366 0.88721 0.0
C860 C 0.2813 0.61321 0.91063 0.0
C861 C 0.28639 0.61416 0.87871 0.0
N862 N 0.2666 0.62529 0.91563 0.0
N863 N 0.27478 0.62682 0.86409 0.0
H864 H 0.2509 0.64253 0.88248 0.0
H865 H 0.28626 0.60272 0.92774 0.0
C866 C 0.27229 0.62314 0.0091 0.0
O867 O 0.26245 0.63768 0.02028 0.0
N868 N 0.22839 0.6214 0.98201 0.0
C869 C 0.20994 0.62704 0.98004 0.0
C870 C 0.20008 0.62009 0.00594 0.0
C871 C 0.22918 0.61041 0.00855 0.0
N872 N 0.21225 0.60974 0.02379 0.0
C873 C 0.23532 0.66295 0.95126 0.0
C874 C 0.27033 0.67915 0.96488 0.0
C875 C 0.25445 0.69131 0.9614 0.0
C876 C 0.23682 0.68282 0.95421 0.0
C877 C 0.26817 0.65924 0.9618 0.0
N878 N 0.25064 0.65123 0.95634 0.0
H879 H 0.22192 0.65716 0.94347 0.0
H880 H 0.28072 0.65028 0.96338 0.0
H881 H 0.20352 0.63453 0.96021 0.0
H882 H 0.24144 0.60205 0.01569 0.0
O883 O 0.22768 0.62401 0.91661 0.0
O884 O 0.24156 0.59782 0.93469 0.0
O885 O 0.26863 0.61648 0.98112 0.0
C886 C 0.22916 0.60549 0.91532 0.0
H887 H 0.29603 0.6045 0.86646 0.0
H888 H 0.18504 0.62215 0.01094 0.0
H889 H 0.28436 0.68491 0.9699 0.0
H890 H 0.22429 0.6915 0.94969 0.0
Co891 Co 0.15245 0.49377 0.70501 0.0
C892 C 0.14593 0.51486 0.64569 0.0
C893 C 0.1692 0.52683 0.67207 0.0
C894 C 0.16891 0.53496 0.64203 0.0
N895 N 0.15459 0.51437 0.67444 0.0
N896 N 0.15438 0.52717 0.6253 0.0
H897 H 0.13537 0.50458 0.63834 0.0
H898 H 0.18031 0.52862 0.68981 0.0
C899 C 0.15682 0.52957 0.74558 0.0
O900 O 0.14558 0.53875 0.72561 0.0
N901 N 0.15053 0.47298 0.73477 0.0
C902 C 0.13945 0.45736 0.73176 0.0
C903 C 0.14256 0.44568 0.75776 0.0
C904 C 0.1602 0.47071 0.76234 0.0
N905 N 0.15554 0.45416 0.77692 0.0
C906 C 0.11282 0.49108 0.68717 0.0
C907 C 0.09704 0.50781 0.74095 0.0
C908 C 0.08475 0.50095 0.71702 0.0
C909 C 0.09294 0.49236 0.69003 0.0
C910 C 0.11695 0.50582 0.7375 0.0
N911 N 0.12477 0.4982 0.71022 0.0
H912 H 0.11847 0.4837 0.66661 0.0
H913 H 0.12584 0.50986 0.75742 0.0
H914 H 0.12984 0.45465 0.712 0.0
H915 H 0.17068 0.48074 0.77125 0.0
O916 O 0.15194 0.47562 0.66948 0.0
O917 O 0.17821 0.48553 0.69318 0.0
O918 O 0.15988 0.51164 0.74171 0.0
C919 C 0.17047 0.47518 0.67075 0.0
H920 H 0.17954 0.54463 0.63257 0.0
H921 H 0.13565 0.43213 0.76243 0.0
H922 H 0.09129 0.51399 0.76271 0.0
H923 H 0.08402 0.48655 0.6712 0.0
Co924 Co 0.28136 0.62354 0.55214 0.0
C925 C 0.26003 0.62948 0.61157 0.0
C926 C 0.24721 0.60755 0.58318 0.0
C927 C 0.23889 0.60738 0.61313 0.0
N928 N 0.26039 0.62158 0.58216 0.0
N929 N 0.24716 0.62113 0.63102 0.0
H930 H 0.27074 0.63925 0.62014 0.0
H931 H 0.24508 0.59697 0.56464 0.0
C932 C 0.24639 0.62035 0.50939 0.0
O933 O 0.23758 0.63294 0.52753 0.0
N934 N 0.30242 0.62525 0.52287 0.0
C935 C 0.31738 0.63724 0.52506 0.0
C936 C 0.3292 0.63415 0.49923 0.0
C937 C 0.3053 0.61494 0.49609 0.0
N938 N 0.32156 0.62014 0.48105 0.0
C939 C 0.28304 0.66308 0.57069 0.0
C940 C 0.27001 0.67912 0.51436 0.0
C941 C 0.27562 0.69132 0.53938 0.0
C942 C 0.28223 0.68295 0.56773 0.0
C943 C 0.27135 0.65914 0.51815 0.0
N944 N 0.27715 0.65123 0.54657 0.0
H945 H 0.28936 0.65736 0.59212 0.0
H946 H 0.26841 0.65022 0.49767 0.0
H947 H 0.31952 0.64752 0.54408 0.0
H948 H 0.29553 0.6041 0.48758 0.0
O949 O 0.29923 0.62419 0.58797 0.0
O950 O 0.28937 0.59779 0.56445 0.0
O951 O 0.26383 0.616 0.51518 0.0
C952 C 0.29961 0.60563 0.58693 0.0
H953 H 0.22873 0.59694 0.62175 0.0
H954 H 0.34248 0.64152 0.49444 0.0
H955 H 0.2654 0.68496 0.49161 0.0
H956 H 0.28705 0.69173 0.58753 0.0
Co957 Co 0.15126 0.52908 0.30752 0.0
C958 C 0.14052 0.51312 0.36863 0.0
C959 C 0.16163 0.4955 0.34591 0.0
C960 C 0.16002 0.49006 0.37759 0.0
N961 N 0.14954 0.51015 0.34067 0.0
N962 N 0.14697 0.50144 0.39181 0.0
H963 H 0.13139 0.52534 0.37311 0.0
H964 H 0.17245 0.49074 0.32921 0.0
C965 C 0.15208 0.50447 0.24747 0.0
O966 O 0.13751 0.51415 0.23603 0.0
N967 N 0.15348 0.54852 0.27465 0.0
C968 C 0.14784 0.56698 0.27656 0.0
C969 C 0.15492 0.57683 0.2507 0.0
C970 C 0.16459 0.54772 0.24826 0.0
N971 N 0.16534 0.56463 0.23299 0.0
C972 C 0.11186 0.5413 0.30474 0.0
C973 C 0.09598 0.50609 0.29137 0.0
C974 C 0.08369 0.52189 0.29471 0.0
C975 C 0.09202 0.53964 0.30174 0.0
C976 C 0.11585 0.50842 0.29449 0.0
N977 N 0.1237 0.52604 0.29992 0.0
H978 H 0.11754 0.5548 0.3124 0.0
H979 H 0.1249 0.49593 0.29304 0.0
H980 H 0.14026 0.57341 0.29631 0.0
H981 H 0.173 0.53545 0.24128 0.0
O982 O 0.15063 0.54905 0.34024 0.0
O983 O 0.17694 0.53552 0.32193 0.0
O984 O 0.15861 0.50831 0.27544 0.0
C985 C 0.16917 0.54778 0.34146 0.0
H986 H 0.16948 0.48035 0.39011 0.0
H987 H 0.15289 0.59188 0.24566 0.0
H988 H 0.09034 0.49199 0.28645 0.0
H989 H 0.08323 0.55212 0.30609 0.0
Co990 Co 0.2455 0.40366 0.05823 0.0
C991 C 0.26538 0.40129 0.1199 0.0
C992 C 0.27733 0.42282 0.08962 0.0
C993 C 0.28367 0.42585 0.12043 0.0
N994 N 0.26575 0.4074 0.08922 0.0
N995 N 0.27614 0.41224 0.13929 0.0
H996 H 0.25515 0.39117 0.12908 0.0
H997 H 0.2789 0.43278 0.06999 0.0
C998 C 0.28105 0.40746 0.01682 0.0
O999 O 0.29023 0.39599 0.03643 0.0
N1000 N 0.22514 0.40044 0.02796 0.0
C1001 C 0.21023 0.38845 0.03048 0.0
C1002 C 0.19863 0.39098 0.00422 0.0
C1003 C 0.2225 0.41011 1.0005 0.0
N1004 N 0.20637 0.40461 0.9853 0.0
C1005 C 0.24601 0.36447 0.07915 0.0
C1006 C 0.2592 0.34817 0.02311 0.0
C1007 C 0.25466 0.33598 0.04885 0.0
C1008 C 0.2478 0.34459 0.07702 0.0
C1009 C 0.25696 0.36809 0.02614 0.0
N1010 N 0.25106 0.37616 0.05435 0.0
H1011 H 0.23961 0.3703 0.10045 0.0
H1012 H 0.25939 0.37685 0.00528 0.0
H1013 H 0.20788 0.37869 0.05019 0.0
H1014 H 0.23229 0.42089 0.99193 0.0
O1015 O 0.22683 0.403 0.09301 0.0
O1016 O 0.23635 0.42924 0.06845 0.0
O1017 O 0.26335 0.41111 0.02167 0.0
C1018 C 0.22592 0.42152 0.09075 0.0
H1019 H 0.29128 0.43832 0.12895 0.0
H1020 H 0.18536 0.38352 0.99987 0.0
H1021 H 0.26432 0.34245 1.00059 0.0
H1022 H 0.24311 0.33605 0.09714 0.0
Co1023 Co 0.37147 0.49599 0.80598 0.0
C1024 C 0.37307 0.51747 0.86663 0.0
C1025 C 0.35273 0.52946 0.83417 0.0
C1026 C 0.34967 0.53722 0.86408 0.0
N1027 N 0.36753 0.51706 0.83563 0.0
N1028 N 0.36255 0.52964 0.88432 0.0
H1029 H 0.38235 0.50702 0.87748 0.0
H1030 H 0.34325 0.53099 0.8139 0.0
C1031 C 0.36816 0.53007 0.7617 0.0
O1032 O 0.38073 0.53896 0.7797 0.0
N1033 N 0.37466 0.47492 0.7769 0.0
C1034 C 0.38668 0.46 0.77994 0.0
C1035 C 0.38434 0.44815 0.75382 0.0
C1036 C 0.3652 0.47206 0.74927 0.0
N1037 N 0.3709 0.45586 0.73459 0.0
C1038 C 0.41063 0.5005 0.82628 0.0
C1039 C 0.42633 0.50705 0.7666 0.0
C1040 C 0.43857 0.50636 0.79325 0.0
C1041 C 0.43037 0.50304 0.82335 0.0
C1042 C 0.4065 0.50481 0.77071 0.0
N1043 N 0.39873 0.50207 0.80049 0.0
H1044 H 0.4052 0.49626 0.84922 0.0
H1045 H 0.39749 0.50464 0.74971 0.0
H1046 H 0.39652 0.45796 0.79963 0.0
H1047 H 0.35419 0.4815 0.74027 0.0
O1048 O 0.37325 0.47843 0.84209 0.0
O1049 O 0.34634 0.48634 0.81797 0.0
O1050 O 0.36335 0.51289 0.76852 0.0
C1051 C 0.35475 0.47682 0.84077 0.0
H1052 H 0.33778 0.54621 0.87107 0.0
H1053 H 0.39215 0.43509 0.74906 0.0
H1054 H 0.43204 0.50919 0.74275 0.0
H1055 H 0.43926 0.50156 0.84445 0.0
H1056 H 0.17176 0.01633 0.20988 0.0
H1057 H 0.16494 0.06877 0.26308 0.0
H1058 H 0.18675 0.034 0.16622 0.0
H1059 H 0.18084 0.08631 0.22062 0.0
H1060 H 0.19677 0.11752 0.13013 0.0
H1061 H 0.17947 0.09931 0.17047 0.0
H1062 H 0.21361 0.0495 0.148 0.0
H1063 H 0.23 0.06757 0.1064 0.0
C1064 C 0.17357 0.03164 0.21234 0.0
C1065 C 0.16702 0.04111 0.23999 0.0
C1066 C 0.18235 0.04183 0.18733 0.0
C1067 C 0.18518 0.06178 0.18944 0.0
C1068 C 0.17864 0.07113 0.21733 0.0
C1069 C 0.16957 0.061 0.242 0.0
C1070 C 0.20044 0.10262 0.13365 0.0
C1071 C 0.21473 0.09401 0.11491 0.0
C1072 C 0.19063 0.09214 0.15713 0.0
C1073 C 0.19507 0.07277 0.16311 0.0
C1074 C 0.20937 0.06419 0.14405 0.0
C1075 C 0.21892 0.07461 0.12017 0.0
H1076 H 0.20932 0.96717 0.33818 0.0
H1077 H 0.15818 0.95651 0.39297 0.0
H1078 H 0.22821 0.95026 0.37848 0.0
H1079 H 0.17699 0.94017 0.43368 0.0
H1080 H 0.21264 0.89688 0.48836 0.0
H1081 H 0.19451 0.9122 0.44571 0.0
H1082 H 0.24044 0.9525 0.4315 0.0
H1083 H 0.25881 0.93676 0.47361 0.0
C1084 C 0.20209 0.96117 0.35878 0.0
C1085 C 0.18218 0.96308 0.3621 0.0
C1086 C 0.21295 0.95159 0.38213 0.0
C1087 C 0.20424 0.94372 0.40959 0.0
C1088 C 0.18428 0.94564 0.41273 0.0
C1089 C 0.17344 0.95512 0.38934 0.0
C1090 C 0.21895 0.90895 0.47608 0.0
C1091 C 0.23724 0.91554 0.48464 0.0
C1092 C 0.20845 0.91788 0.45165 0.0
C1093 C 0.21584 0.93377 0.43501 0.0
C1094 C 0.23426 0.9402 0.44333 0.0
C1095 C 0.24481 0.93121 0.46771 0.0
H1096 H 0.30903 0.96057 0.58969 0.0
H1097 H 0.32002 0.90885 0.64285 0.0
H1098 H 0.32623 0.97903 0.63011 0.0
H1099 H 0.33659 0.92726 0.68382 0.0
H1100 H 0.38007 0.96224 0.73906 0.0
H1101 H 0.36444 0.94447 0.69632 0.0
H1102 H 0.32464 0.99102 0.68298 0.0
H1103 H 0.34074 1.00905 0.72506 0.0
C1104 C 0.31514 0.95312 0.61 0.0
C1105 C 0.31324 0.93318 0.6128 0.0
C1106 C 0.32489 0.96375 0.63343 0.0
C1107 C 0.33293 0.95477 0.66052 0.0
C1108 C 0.33101 0.93477 0.66317 0.0
C1109 C 0.32139 0.92415 0.63963 0.0
C1110 C 0.36804 0.96876 0.72693 0.0
C1111 C 0.36171 0.98713 0.73569 0.0
C1112 C 0.35893 0.95846 0.70245 0.0
C1113 C 0.34308 0.96612 0.68602 0.0
C1114 C 0.3369 0.98463 0.69459 0.0
C1115 C 0.34611 0.99499 0.71897 0.0
H1116 H 0.36869 0.06793 0.89599 0.0
H1117 H 0.31744 0.05918 0.84059 0.0
H1118 H 0.35022 0.08446 0.93699 0.0
H1119 H 0.29892 0.07631 0.88111 0.0
H1120 H 0.26823 0.09057 0.97565 0.0
H1121 H 0.28632 0.07436 0.93371 0.0
H1122 H 0.33361 0.11284 0.94952 0.0
H1123 H 0.31573 0.1286 0.99208 0.0
C1124 C 0.35349 0.06977 0.89232 0.0
C1125 C 0.34461 0.0623 0.86481 0.0
C1126 C 0.34284 0.07937 0.91586 0.0
C1127 C 0.32296 0.08192 0.91258 0.0
C1128 C 0.31411 0.07449 0.88489 0.0
C1129 C 0.32477 0.06477 0.86142 0.0
C1130 C 0.28247 0.09562 0.97015 0.0
C1131 C 0.29048 0.1109 0.98749 0.0
C1132 C 0.29286 0.08636 0.94585 0.0
C1133 C 0.31158 0.09213 0.93801 0.0
C1134 C 0.31943 0.10764 0.95508 0.0
C1135 C 0.30908 0.11684 0.97945 0.0
H1136 H 0.20427 0.90803 0.86793 0.0
H1137 H 0.21602 0.95982 0.92041 0.0
H1138 H 0.18817 0.9265 0.82658 0.0
H1139 H 0.19917 0.97837 0.87971 0.0
H1140 H 0.18623 1.00824 0.78415 0.0
H1141 H 0.20137 0.99013 0.82712 0.0
H1142 H 0.16114 0.94417 0.81235 0.0
H1143 H 0.14656 0.96198 0.76864 0.0
C1144 C 0.20309 0.92336 0.87098 0.0
C1145 C 0.21143 0.93239 0.89763 0.0
C1146 C 0.19375 0.93402 0.84721 0.0
C1147 C 0.19223 0.95408 0.84948 0.0
C1148 C 0.20025 0.96304 0.8766 0.0
C1149 C 0.20978 0.95237 0.90024 0.0
C1150 C 0.18057 0.99429 0.79013 0.0
C1151 C 0.16518 0.98659 0.7727 0.0
C1152 C 0.18921 0.98388 0.81502 0.0
C1153 C 0.18263 0.96551 0.82348 0.0
C1154 C 0.16697 0.95803 0.80635 0.0
C1155 C 0.15846 0.96836 0.7813 0.0
H1156 H 0.26539 0.92325 0.04896 0.0
H1157 H 0.31807 0.91356 0.99787 0.0
H1158 H 0.2831 0.93817 0.09261 0.0
H1159 H 0.33573 0.92945 0.04024 0.0
H1160 H 0.36658 0.94558 0.13084 0.0
H1161 H 0.34816 0.92842 0.09063 0.0
H1162 H 0.29937 0.96447 0.11082 0.0
H1163 H 0.31761 0.98069 0.15243 0.0
C1164 C 0.28077 0.92443 0.04695 0.0
C1165 C 0.29029 0.91709 0.01992 0.0
C1166 C 0.291 0.93317 0.07196 0.0
C1167 C 0.31106 0.93519 0.07044 0.0
C1168 C 0.32046 0.92789 0.04311 0.0
C1169 C 0.31027 0.91883 0.01848 0.0
C1170 C 0.35184 0.94968 0.12688 0.0
C1171 C 0.34356 0.96444 0.145 0.0
C1172 C 0.34124 0.93996 0.10344 0.0
C1173 C 0.32211 0.94499 0.0968 0.0
C1174 C 0.31385 0.95976 0.11527 0.0
C1175 C 0.32437 0.96921 0.13918 0.0
H1176 H 0.3188 0.11881 0.36343 0.0
H1177 H 0.31181 0.06754 0.41955 0.0
H1178 H 0.3348 0.10049 0.32172 0.0
H1179 H 0.32852 0.04918 0.37832 0.0
H1180 H 0.34175 0.01834 0.28352 0.0
H1181 H 0.32608 0.03625 0.32626 0.0
H1182 H 0.36293 0.08443 0.30733 0.0
H1183 H 0.37807 0.06675 0.26394 0.0
C1184 C 0.32096 0.10364 0.36713 0.0
C1185 C 0.31412 0.09471 0.39504 0.0
C1186 C 0.33025 0.09308 0.34315 0.0
C1187 C 0.33317 0.07323 0.34641 0.0
C1188 C 0.32639 0.06433 0.37453 0.0
C1189 C 0.31693 0.07491 0.39841 0.0
C1190 C 0.34655 0.03275 0.28851 0.0
C1191 C 0.36117 0.04107 0.27004 0.0
C1192 C 0.33761 0.04304 0.31327 0.0
C1193 C 0.34308 0.06195 0.32049 0.0
C1194 C 0.35796 0.0701 0.30229 0.0
C1195 C 0.3668 0.05986 0.27743 0.0
H1196 H 0.15964 0.06772 0.61331 0.0
H1197 H 0.2107 0.05817 0.66889 0.0
H1198 H 0.17831 0.08412 0.5726 0.0
H1199 H 0.22944 0.07529 0.62868 0.0
H1200 H 0.26054 0.09013 0.5346 0.0
H1201 H 0.24248 0.07402 0.57667 0.0
H1202 H 0.19482 0.11199 0.55969 0.0
H1203 H 0.21261 0.12751 0.51695 0.0
C1204 C 0.17486 0.06935 0.61708 0.0
C1205 C 0.18361 0.06167 0.64454 0.0
C1206 C 0.18563 0.0789 0.5937 0.0
C1207 C 0.20553 0.08127 0.5971 0.0
C1208 C 0.21426 0.07363 0.62477 0.0
C1209 C 0.20346 0.06391 0.64806 0.0
C1210 C 0.24622 0.09508 0.5399 0.0
C1211 C 0.23805 0.1101 0.52211 0.0
C1212 C 0.23583 0.08587 0.56427 0.0
C1213 C 0.217 0.0915 0.57178 0.0
C1214 C 0.20906 0.10684 0.55437 0.0
C1215 C 0.21937 0.11591 0.52988 0.0
H1216 H 0.88083 0.96209 0.76704 0.0
H1217 H 0.84147 1.00868 0.78282 0.0
H1218 H 0.86581 0.94415 0.81023 0.0
H1219 H 0.82602 0.99052 0.8254 0.0
H1220 H 0.81157 0.9598 0.91893 0.0
H1221 H 0.8284 0.97841 0.87822 0.0
H1222 H 0.83808 0.92684 0.82353 0.0
H1223 H 0.82184 0.90831 0.86468 0.0
C1224 C 0.86893 0.96853 0.77965 0.0
C1225 C 0.8624 0.98688 0.77123 0.0
C1226 C 0.86017 0.95814 0.80441 0.0
C1227 C 0.84452 0.96571 0.82151 0.0
C1228 C 0.83815 0.9842 0.81328 0.0
C1229 C 0.84697 0.99463 0.7886 0.0
C1230 C 0.81746 0.95243 0.89835 0.0
C1231 C 0.81546 0.93251 0.89531 0.0
C1232 C 0.827 0.96314 0.87476 0.0
C1233 C 0.83472 0.95426 0.84728 0.0
C1234 C 0.83274 0.93428 0.84445 0.0
C1235 C 0.82331 0.92359 0.86811 0.0
H1236 H 0.81836 0.11368 0.49658 0.0
H1237 H 0.76566 0.10408 0.54759 0.0
H1238 H 0.83601 0.0978 0.53901 0.0
H1239 H 0.78336 0.08918 0.59127 0.0
H1240 H 0.81768 0.0466 0.65112 0.0
H1241 H 0.79956 0.06285 0.60941 0.0
H1242 H 0.84846 0.09865 0.58941 0.0
H1243 H 0.86677 0.08146 0.62976 0.0
C1244 C 0.81055 0.10845 0.51719 0.0
C1245 C 0.79056 0.11019 0.51858 0.0
C1246 C 0.82073 0.09939 0.54185 0.0
C1247 C 0.81133 0.0921 0.56915 0.0
C1248 C 0.79127 0.09416 0.57064 0.0
C1249 C 0.78104 0.10289 0.54561 0.0
C1250 C 0.8245 0.05802 0.63788 0.0
C1251 C 0.84369 0.06272 0.64383 0.0
C1252 C 0.81404 0.06749 0.61392 0.0
C1253 C 0.82236 0.08223 0.5955 0.0
C1254 C 0.8415 0.08717 0.6022 0.0
C1255 C 0.85204 0.07742 0.62571 0.0
H1256 H 0.72883 0.06706 0.40329 0.0
H1257 H 0.69455 0.11646 0.38076 0.0
H1258 H 0.71288 0.04899 0.3612 0.0
H1259 H 0.6776 0.09821 0.34009 0.0
H1260 H 0.66328 0.06842 0.24702 0.0
H1261 H 0.67899 0.08582 0.28982 0.0
H1262 H 0.68675 0.03296 0.34198 0.0
H1263 H 0.67205 0.01548 0.29781 0.0
C1264 C 0.71755 0.07394 0.38977 0.0
C1265 C 0.71295 0.0932 0.39546 0.0
C1266 C 0.70827 0.06353 0.36556 0.0
C1267 C 0.69381 0.07196 0.34668 0.0
C1268 C 0.68891 0.09116 0.35322 0.0
C1269 C 0.69849 0.10166 0.37693 0.0
C1270 C 0.6683 0.06051 0.26767 0.0
C1271 C 0.66634 0.04053 0.26892 0.0
C1272 C 0.67725 0.07055 0.29256 0.0
C1273 C 0.6842 0.06102 0.31998 0.0
C1274 C 0.68201 0.04096 0.32128 0.0
C1275 C 0.6734 0.03086 0.29598 0.0
H1276 H 0.76013 0.93621 0.03317 0.0
H1277 H 0.71104 0.90177 0.00933 0.0
H1278 H 0.74182 0.95195 0.07538 0.0
H1279 H 0.69296 0.91689 0.05221 0.0
H1280 H 0.65868 0.96112 0.10825 0.0
H1281 H 0.67734 0.94499 0.06708 0.0
H1282 H 0.72774 0.94965 0.12632 0.0
H1283 H 0.70908 0.9665 0.16695 0.0
C1284 C 0.74548 0.93183 0.03713 0.0
C1285 C 0.7371 0.91773 0.01761 0.0
C1286 C 0.73495 0.94081 0.06158 0.0
C1287 C 0.71572 0.93587 0.06747 0.0
C1288 C 0.70752 0.92149 0.04823 0.0
C1289 C 0.71799 0.91265 0.02364 0.0
C1290 C 0.67372 0.95859 0.1126 0.0
C1291 C 0.68232 0.96505 0.14106 0.0
C1292 C 0.68449 0.94922 0.08895 0.0
C1293 C 0.7042 0.94581 0.09308 0.0
C1294 C 0.71273 0.95217 0.1218 0.0
C1295 C 0.70197 0.96172 0.14534 0.0
H1296 H 0.81872 0.11819 0.14338 0.0
H1297 H 0.80868 0.06659 0.08936 0.0
H1298 H 0.83551 0.09981 0.18415 0.0
H1299 H 0.82607 0.04817 0.12962 0.0
H1300 H 0.84038 0.01796 0.22446 0.0
H1301 H 0.82434 0.03597 0.18232 0.0
H1302 H 0.86354 0.08283 0.19677 0.0
H1303 H 0.87913 0.06505 0.23959 0.0
C1304 C 0.82032 0.10292 0.13996 0.0
C1305 C 0.81237 0.09391 0.11296 0.0
C1306 C 0.83008 0.09233 0.16337 0.0
C1307 C 0.83231 0.07237 0.16044 0.0
C1308 C 0.82448 0.06341 0.13316 0.0
C1309 C 0.81461 0.07402 0.10983 0.0
C1310 C 0.84563 0.03209 0.2186 0.0
C1311 C 0.86105 0.04003 0.23567 0.0
C1312 C 0.83647 0.04244 0.19418 0.0
C1313 C 0.84249 0.06102 0.18591 0.0
C1314 C 0.85816 0.06877 0.20267 0.0
C1315 C 0.86725 0.05847 0.22719 0.0
H1316 H 0.70986 0.05998 0.83656 0.0
H1317 H 0.65848 0.06994 0.89118 0.0
H1318 H 0.72846 0.07686 0.87724 0.0
H1319 H 0.677 0.08622 0.93226 0.0
H1320 H 0.7118 0.1293 0.98838 0.0
H1321 H 0.69405 0.11413 0.94517 0.0
H1322 H 0.74071 0.07468 0.93014 0.0
H1323 H 0.75871 0.09031 0.97279 0.0
C1324 C 0.70251 0.06582 0.8572 0.0
C1325 C 0.68261 0.06373 0.86035 0.0
C1326 C 0.71322 0.07538 0.88078 0.0
C1327 C 0.70436 0.08305 0.90831 0.0
C1328 C 0.68441 0.08093 0.91128 0.0
C1329 C 0.67373 0.07149 0.88766 0.0
C1330 C 0.71835 0.11745 0.9758 0.0
C1331 C 0.73673 0.11106 0.9843 0.0
C1332 C 0.70807 0.1086 0.95104 0.0
C1333 C 0.71576 0.09298 0.934 0.0
C1334 C 0.73429 0.08677 0.94225 0.0
C1335 C 0.74463 0.09569 0.96696 0.0
H1336 H 0.67174 1.01053 0.70716 0.0
H1337 H 0.66527 0.95806 0.76025 0.0
H1338 H 0.68597 0.9928 0.66279 0.0
H1339 H 0.68044 0.94044 0.71706 0.0
H1340 H 0.69461 0.90922 0.62571 0.0
H1341 H 0.67812 0.92757 0.66691 0.0
H1342 H 0.71236 0.97701 0.64322 0.0
H1343 H 0.72791 0.95883 0.60079 0.0
C1344 C 0.67348 0.99521 0.70945 0.0
C1345 C 0.66723 0.98574 0.73727 0.0
C1346 C 0.68182 0.98497 0.68402 0.0
C1347 C 0.6845 0.96498 0.68587 0.0
C1348 C 0.67832 0.95565 0.71397 0.0
C1349 C 0.66968 0.96582 0.73906 0.0
C1350 C 0.69845 0.92408 0.62914 0.0
C1351 C 0.71251 0.93256 0.60981 0.0
C1352 C 0.68912 0.93464 0.65311 0.0
C1353 C 0.69385 0.95394 0.65902 0.0
C1354 C 0.70791 0.96239 0.63937 0.0
C1355 C 0.71697 0.9519 0.61499 0.0
H1356 H 0.81301 0.89722 0.48776 0.0
H1357 H 0.7659 0.93565 0.47009 0.0
H1358 H 0.83144 0.91288 0.44585 0.0
H1359 H 0.78454 0.95176 0.4288 0.0
H1360 H 0.8167 0.96693 0.33698 0.0
H1361 H 0.79772 0.94969 0.37662 0.0
H1362 H 0.84832 0.94121 0.43416 0.0
H1363 H 0.86729 0.95785 0.394 0.0
C1364 C 0.80656 0.90904 0.47498 0.0
C1365 C 0.78792 0.91512 0.48247 0.0
C1366 C 0.81723 0.91817 0.451 0.0
C1367 C 0.80965 0.93377 0.4338 0.0
C1368 C 0.79088 0.93969 0.44106 0.0
C1369 C 0.78016 0.93048 0.46497 0.0
C1370 C 0.82379 0.96123 0.35797 0.0
C1371 C 0.84358 0.96365 0.3621 0.0
C1372 C 0.81286 0.95145 0.38093 0.0
C1373 C 0.82136 0.94393 0.40884 0.0
C1374 C 0.84121 0.94639 0.41283 0.0
C1375 C 0.85214 0.95603 0.38977 0.0
H1376 H 0.66487 0.56732 0.76043 0.0
H1377 H 0.67005 0.51521 0.70583 0.0
H1378 H 0.6802 0.58499 0.71749 0.0
H1379 H 0.68448 0.53302 0.6618 0.0
H1380 H 0.72691 0.56679 0.6003 0.0
H1381 H 0.71121 0.5485 0.64245 0.0
H1382 H 0.67764 0.59824 0.66751 0.0
H1383 H 0.6942 0.61664 0.62657 0.0
C1384 C 0.66903 0.55965 0.73898 0.0
C1385 C 0.66616 0.53981 0.73669 0.0
C1386 C 0.67776 0.56986 0.71404 0.0
C1387 C 0.68363 0.56064 0.68562 0.0
C1388 C 0.68056 0.54074 0.68328 0.0
C1389 C 0.6721 0.53047 0.70853 0.0
C1390 C 0.71608 0.57376 0.61473 0.0
C1391 C 0.71182 0.5932 0.61001 0.0
C1392 C 0.70694 0.56322 0.63894 0.0
C1393 C 0.69305 0.57172 0.65891 0.0
C1394 C 0.68851 0.59112 0.65345 0.0
C1395 C 0.69789 0.60171 0.62963 0.0
H1396 H 0.70776 0.4642 0.83302 0.0
H1397 H 0.65654 0.45524 0.88843 0.0
H1398 H 0.72644 0.44768 0.87406 0.0
H1399 H 0.67513 0.43942 0.92991 0.0
H1400 H 0.70977 0.39716 0.98775 0.0
H1401 H 0.69199 0.41178 0.94408 0.0
H1402 H 0.73904 0.45027 0.92643 0.0
H1403 H 0.7571 0.4351 0.96952 0.0
C1404 C 0.70047 0.45865 0.85392 0.0
C1405 C 0.68059 0.4609 0.85718 0.0
C1406 C 0.71122 0.4493 0.8777 0.0
C1407 C 0.70243 0.44207 0.9056 0.0
C1408 C 0.68249 0.44434 0.90866 0.0
C1409 C 0.67176 0.45353 0.88481 0.0
C1410 C 0.7164 0.40868 0.9745 0.0
C1411 C 0.73492 0.41492 0.98237 0.0
C1412 C 0.7061 0.41722 0.94946 0.0
C1413 C 0.71388 0.43242 0.93155 0.0
C1414 C 0.73254 0.43849 0.93921 0.0
C1415 C 0.74291 0.42984 0.96416 0.0
H1416 H 0.87501 0.45927 0.24113 0.0
H1417 H 0.83817 0.50767 0.22388 0.0
H1418 H 0.85988 0.44208 0.19731 0.0
H1419 H 0.82243 0.4902 0.18072 0.0
H1420 H 0.80721 0.45946 0.08716 0.0
H1421 H 0.82412 0.4777 0.12832 0.0
H1422 H 0.83207 0.42591 0.18315 0.0
H1423 H 0.81591 0.40777 0.14155 0.0
C1424 C 0.8636 0.46625 0.22807 0.0
C1425 C 0.85782 0.48489 0.23627 0.0
C1426 C 0.85476 0.45629 0.20294 0.0
C1427 C 0.83967 0.46454 0.18531 0.0
C1428 C 0.83409 0.48333 0.19327 0.0
C1429 C 0.84307 0.49337 0.21827 0.0
C1430 C 0.81273 0.45198 0.10791 0.0
C1431 C 0.81032 0.4321 0.11082 0.0
C1432 C 0.82232 0.46247 0.13175 0.0
C1433 C 0.82964 0.45341 0.15936 0.0
C1434 C 0.82711 0.43349 0.16212 0.0
C1435 C 0.8177 0.42302 0.13822 0.0
H1436 H 0.76515 0.59088 0.47068 0.0
H1437 H 0.81348 0.6272 0.49084 0.0
H1438 H 0.78345 0.57473 0.42895 0.0
H1439 H 0.83156 0.61156 0.44843 0.0
H1440 H 0.86626 0.56618 0.39526 0.0
H1441 H 0.84761 0.58309 0.4356 0.0
H1442 H 0.79702 0.57664 0.37731 0.0
H1443 H 0.81567 0.5591 0.33752 0.0
C1444 C 0.77962 0.59559 0.46599 0.0
C1445 C 0.78781 0.61034 0.48435 0.0
C1446 C 0.79014 0.58636 0.44183 0.0
C1447 C 0.80915 0.59167 0.43512 0.0
C1448 C 0.81716 0.60671 0.45313 0.0
C1449 C 0.80669 0.61584 0.47741 0.0
C1450 C 0.85118 0.56849 0.39093 0.0
C1451 C 0.84251 0.56133 0.36301 0.0
C1452 C 0.84043 0.5783 0.41409 0.0
C1453 C 0.82068 0.5814 0.40996 0.0
C1454 C 0.81208 0.57437 0.38177 0.0
C1455 C 0.82282 0.56441 0.35872 0.0
H1456 H 0.64766 0.4608 0.26602 0.0
H1457 H 0.68517 0.50868 0.28276 0.0
H1458 H 0.66344 0.44306 0.30866 0.0
H1459 H 0.70142 0.49071 0.32479 0.0
H1460 H 0.71735 0.45924 0.41724 0.0
H1461 H 0.69985 0.47782 0.37724 0.0
H1462 H 0.69189 0.42669 0.32074 0.0
H1463 H 0.70875 0.40816 0.36117 0.0
C1464 C 0.6593 0.46757 0.27876 0.0
C1465 C 0.6651 0.48622 0.27075 0.0
C1466 C 0.66851 0.4573 0.30317 0.0
C1467 C 0.68392 0.46527 0.3203 0.0
C1468 C 0.68952 0.48407 0.31259 0.0
C1469 C 0.68022 0.4944 0.28826 0.0
C1470 C 0.7117 0.45196 0.3964 0.0
C1471 C 0.71432 0.43215 0.39266 0.0
C1472 C 0.70177 0.46266 0.37323 0.0
C1473 C 0.69429 0.45387 0.34551 0.0
C1474 C 0.69699 0.43402 0.34191 0.0
C1475 C 0.70678 0.42334 0.36514 0.0
H1476 H 0.86807 0.44784 0.62614 0.0
H1477 H 0.81801 0.48102 0.64922 0.0
H1478 H 0.85018 0.43076 0.58512 0.0
H1479 H 0.80026 0.46483 0.60699 0.0
H1480 H 0.76746 0.42262 0.54494 0.0
H1481 H 0.78489 0.43786 0.58863 0.0
H1482 H 0.83737 0.43212 0.53476 0.0
H1483 H 0.82005 0.41599 0.49224 0.0
C1484 C 0.85322 0.45154 0.62233 0.0
C1485 C 0.84447 0.46571 0.64117 0.0
C1486 C 0.84291 0.44185 0.59847 0.0
C1487 C 0.82359 0.44631 0.59217 0.0
C1488 C 0.81491 0.46056 0.6112 0.0
C1489 C 0.82514 0.46999 0.63546 0.0
C1490 C 0.78275 0.42452 0.54258 0.0
C1491 C 0.79232 0.41793 0.51507 0.0
C1492 C 0.79281 0.43345 0.56762 0.0
C1493 C 0.81274 0.43639 0.56569 0.0
C1494 C 0.8222 0.42985 0.53791 0.0
C1495 C 0.8122 0.42064 0.51321 0.0
H1496 H 0.87948 0.56569 0.7664 0.0
H1497 H 0.84073 0.51879 0.78304 0.0
H1498 H 0.8646 0.58356 0.80983 0.0
H1499 H 0.82539 0.5369 0.82591 0.0
H1500 H 0.81153 0.56767 0.91982 0.0
H1501 H 0.8281 0.54913 0.87868 0.0
H1502 H 0.83683 0.6007 0.8237 0.0
H1503 H 0.82084 0.61918 0.86529 0.0
C1504 C 0.86773 0.55917 0.77925 0.0
C1505 C 0.86134 0.54074 0.771 0.0
C1506 C 0.85905 0.56952 0.80414 0.0
C1507 C 0.8436 0.56186 0.82157 0.0
C1508 C 0.83736 0.5433 0.81351 0.0
C1509 C 0.84611 0.5329 0.78867 0.0
C1510 C 0.81716 0.57506 0.89909 0.0
C1511 C 0.81497 0.59497 0.8961 0.0
C1512 C 0.82655 0.56438 0.87524 0.0
C1513 C 0.83392 0.57328 0.84756 0.0
C1514 C 0.83175 0.59326 0.84477 0.0
C1515 C 0.82248 0.60392 0.86868 0.0
H1516 H 0.70939 0.54556 0.1516 0.0
H1517 H 0.65967 0.57869 0.12644 0.0
H1518 H 0.72781 0.56191 0.11033 0.0
H1519 H 0.67819 0.59595 0.08652 0.0
H1520 H 0.70936 0.61079 0.9949 0.0
H1521 H 0.69158 0.59464 0.03678 0.0
H1522 H 0.74346 0.5887 0.09216 0.0
H1523 H 0.76139 0.60394 0.04903 0.0
C1524 C 0.70248 0.5566 0.13759 0.0
C1525 C 0.68303 0.56079 0.14233 0.0
C1526 C 0.71309 0.56613 0.11389 0.0
C1527 C 0.70467 0.58038 0.09454 0.0
C1528 C 0.68526 0.58481 0.10005 0.0
C1529 C 0.67459 0.57502 0.12329 0.0
C1530 C 0.71698 0.60609 0.01606 0.0
C1531 C 0.73683 0.60873 0.01851 0.0
C1532 C 0.70671 0.59688 0.04041 0.0
C1533 C 0.71586 0.59029 0.06844 0.0
C1534 C 0.73577 0.59316 0.07095 0.0
C1535 C 0.74612 0.60208 0.04624 0.0
H1536 H 0.35423 0.50858 0.29675 0.0
H1537 H 0.36049 0.45575 0.2445 0.0
H1538 H 0.33937 0.49133 0.34096 0.0
H1539 H 0.34471 0.43859 0.28757 0.0
H1540 H 0.32909 0.40816 0.37912 0.0
H1541 H 0.34616 0.42591 0.33793 0.0
H1542 H 0.31261 0.47615 0.36014 0.0
H1543 H 0.29646 0.45854 0.40256 0.0
C1544 C 0.35232 0.49327 0.29461 0.0
C1545 C 0.35868 0.48359 0.26704 0.0
C1546 C 0.34361 0.48331 0.31996 0.0
C1547 C 0.34066 0.46336 0.31832 0.0
C1548 C 0.347 0.45378 0.29051 0.0
C1549 C 0.356 0.46369 0.26548 0.0
C1550 C 0.32551 0.42306 0.37536 0.0
C1551 C 0.31146 0.43192 0.3943 0.0
C1552 C 0.33518 0.43328 0.35139 0.0
C1553 C 0.33085 0.45263 0.34507 0.0
C1554 C 0.31678 0.46146 0.3643 0.0
C1555 C 0.30736 0.45131 0.38868 0.0
H1556 H 0.31754 0.54372 0.14986 0.0
H1557 H 0.36478 0.58216 0.13452 0.0
H1558 H 0.29871 0.56121 0.10988 0.0
H1559 H 0.34568 0.60005 0.09529 0.0
H1560 H 0.29211 0.63758 0.06023 0.0
H1561 H 0.3125 0.62027 0.09819 0.0
H1562 H 0.30265 0.56794 0.04618 0.0
H1563 H 0.28271 0.58533 0.00761 0.0
C1564 C 0.32382 0.55605 0.13825 0.0
C1565 C 0.34261 0.56165 0.14556 0.0
C1566 C 0.31309 0.56597 0.11518 0.0
C1567 C 0.32071 0.58201 0.09942 0.0
C1568 C 0.3394 0.58779 0.1071 0.0
C1569 C 0.35032 0.57755 0.12954 0.0
C1570 C 0.29447 0.62243 0.05666 0.0
C1571 C 0.28583 0.61289 0.03075 0.0
C1572 C 0.30617 0.61253 0.07839 0.0
C1573 C 0.30912 0.59273 0.07527 0.0
C1574 C 0.30057 0.58318 0.0493 0.0
C1575 C 0.28926 0.59317 0.02709 0.0
H1576 H 0.23536 0.56847 0.89626 0.0
H1577 H 0.19758 0.61635 0.88131 0.0
H1578 H 0.21796 0.55015 0.85605 0.0
H1579 H 0.17948 0.59785 0.8424 0.0
H1580 H 0.16191 0.56816 0.7505 0.0
H1581 H 0.17918 0.58591 0.79119 0.0
H1582 H 0.19082 0.53324 0.84173 0.0
H1583 H 0.17431 0.51541 0.79978 0.0
C1584 C 0.22313 0.575 0.8847 0.0
C1585 C 0.21789 0.5939 0.89205 0.0
C1586 C 0.21301 0.56442 0.86165 0.0
C1587 C 0.19715 0.57235 0.84553 0.0
C1588 C 0.19178 0.59122 0.85348 0.0
C1589 C 0.20208 0.60186 0.87614 0.0
C1590 C 0.16807 0.56034 0.77036 0.0
C1591 C 0.16663 0.54031 0.77178 0.0
C1592 C 0.17795 0.57059 0.79401 0.0
C1593 C 0.18649 0.56121 0.82026 0.0
C1594 C 0.18482 0.54111 0.82181 0.0
C1595 C 0.17518 0.53082 0.79781 0.0
H1596 H 0.20938 0.46945 0.66937 0.0
H1597 H 0.1578 0.45665 0.61712 0.0
H1598 H 0.22813 0.45234 0.62908 0.0
H1599 H 0.17645 0.44017 0.57636 0.0
H1600 H 0.21191 0.39707 0.52144 0.0
H1601 H 0.19413 0.4127 0.56417 0.0
H1602 H 0.24001 0.45333 0.57611 0.0
H1603 H 0.25808 0.43719 0.53401 0.0
C1604 C 0.20203 0.46299 0.64927 0.0
C1605 C 0.18203 0.46435 0.6467 0.0
C1606 C 0.21282 0.45327 0.62592 0.0
C1607 C 0.20395 0.44471 0.59916 0.0
C1608 C 0.1839 0.44615 0.59674 0.0
C1609 C 0.17314 0.45574 0.62015 0.0
C1610 C 0.21828 0.40928 0.53324 0.0
C1611 C 0.23648 0.41583 0.52404 0.0
C1612 C 0.20797 0.41841 0.55773 0.0
C1613 C 0.21542 0.4345 0.57376 0.0
C1614 C 0.23377 0.44089 0.56481 0.0
C1615 C 0.24415 0.43166 0.54041 0.0
H1616 H 0.37722 0.56528 0.73727 0.0
H1617 H 0.33798 0.51841 0.72412 0.0
H1618 H 0.36158 0.58278 0.69429 0.0
H1619 H 0.3218 0.53621 0.68175 0.0
H1620 H 0.30573 0.56676 0.58832 0.0
H1621 H 0.32282 0.54818 0.62883 0.0
H1622 H 0.33392 0.60001 0.68196 0.0
H1623 H 0.31749 0.61848 0.64099 0.0
C1624 C 0.36519 0.55869 0.72529 0.0
C1625 C 0.35889 0.5404 0.7344 0.0
C1626 C 0.35606 0.56884 0.70066 0.0
C1627 C 0.34018 0.56113 0.68441 0.0
C1628 C 0.33406 0.54266 0.69324 0.0
C1629 C 0.34331 0.53243 0.71778 0.0
C1630 C 0.31194 0.57418 0.60857 0.0
C1631 C 0.31032 0.59416 0.61119 0.0
C1632 C 0.32165 0.56349 0.63204 0.0
C1633 C 0.32993 0.57246 0.65895 0.0
C1634 C 0.32819 0.59249 0.66145 0.0
C1635 C 0.31862 0.60315 0.63792 0.0
H1636 H 0.21181 0.63022 0.48325 0.0
H1637 H 0.2567 0.58815 0.47577 0.0
H1638 H 0.1938 0.61369 0.44181 0.0
H1639 H 0.23834 0.57101 0.43538 0.0
H1640 H 0.20816 0.55132 0.34465 0.0
H1641 H 0.22702 0.56948 0.38318 0.0
H1642 H 0.17509 0.58729 0.43074 0.0
H1643 H 0.15637 0.56995 0.39115 0.0
C1644 C 0.21784 0.61737 0.47284 0.0
C1645 C 0.23576 0.61058 0.48297 0.0
C1646 C 0.20738 0.60772 0.44914 0.0
C1647 C 0.21437 0.59077 0.43504 0.0
C1648 C 0.23245 0.58411 0.44504 0.0
C1649 C 0.24301 0.59392 0.46847 0.0
C1650 C 0.20079 0.55923 0.36323 0.0
C1651 C 0.18072 0.55917 0.36468 0.0
C1652 C 0.21164 0.56957 0.38563 0.0
C1653 C 0.20276 0.58 0.41049 0.0
C1654 C 0.18262 0.57987 0.4118 0.0
C1655 C 0.17179 0.56976 0.38912 0.0
H1656 H 0.18984 0.49416 0.24985 0.0
H1657 H 0.13802 0.48431 0.19636 0.0
H1658 H 0.2075 0.4739 0.2121 0.0
H1659 H 0.15564 0.46358 0.15922 0.0
H1660 H 0.19424 0.41099 0.12505 0.0
H1661 H 0.17605 0.43031 0.16365 0.0
H1662 H 0.21451 0.47751 0.14825 0.0
H1663 H 0.2323 0.45847 0.10891 0.0
C1664 C 0.18215 0.48745 0.23035 0.0
C1665 C 0.16248 0.49084 0.22619 0.0
C1666 C 0.19231 0.47595 0.20862 0.0
C1667 C 0.18297 0.46717 0.18267 0.0
C1668 C 0.16321 0.47009 0.17905 0.0
C1669 C 0.15314 0.48198 0.20029 0.0
C1670 C 0.19873 0.42553 0.12976 0.0
C1671 C 0.21461 0.43325 0.1137 0.0
C1672 C 0.18831 0.43658 0.15182 0.0
C1673 C 0.19388 0.45541 0.15902 0.0
C1674 C 0.20992 0.46303 0.14328 0.0
C1675 C 0.22001 0.45217 0.1206 0.0
H1676 H 0.31747 0.40033 0.99543 0.0
H1677 H 0.26826 0.43573 0.97632 0.0
H1678 H 0.33478 0.41603 0.95224 0.0
H1679 H 0.28577 0.45199 0.93386 0.0
H1680 H 0.31656 0.46776 0.84106 0.0
H1681 H 0.29868 0.45035 0.88194 0.0
H1682 H 0.35028 0.44436 0.93789 0.0
H1683 H 0.36813 0.46109 0.89645 0.0
C1684 C 0.31032 0.41152 0.98209 0.0
C1685 C 0.29141 0.41671 0.98955 0.0
C1686 C 0.32035 0.42069 0.95734 0.0
C1687 C 0.31186 0.4355 0.93934 0.0
C1688 C 0.29283 0.44053 0.94665 0.0
C1689 C 0.28276 0.43124 0.97126 0.0
C1690 C 0.32409 0.46259 0.862 0.0
C1691 C 0.34384 0.46573 0.86527 0.0
C1692 C 0.31379 0.4527 0.88569 0.0
C1693 C 0.3229 0.4458 0.91356 0.0
C1694 C 0.34269 0.44902 0.91668 0.0
C1695 C 0.35299 0.45875 0.89288 0.0
H1696 H 0.27735 0.09127 0.34309 0.0
H1697 H 0.2351 0.13491 0.32699 0.0
H1698 H 0.28546 0.09127 0.28597 0.0
H1699 H 0.24246 0.13464 0.26956 0.0
H1700 H 0.27339 0.14533 0.17697 0.0
H1701 H 0.26763 0.14449 0.2346 0.0
H1702 H 0.27387 0.08301 0.2335 0.0
H1703 H 0.28007 0.08407 0.17593 0.0
C1704 C 0.26952 0.1005 0.32691 0.0
C1705 C 0.25545 0.11289 0.33884 0.0
C1706 C 0.27413 0.10056 0.29434 0.0
C1707 C 0.26468 0.11302 0.27314 0.0
C1708 C 0.25027 0.12511 0.28526 0.0
C1709 C 0.24582 0.12514 0.31791 0.0
C1710 C 0.2738 0.13171 0.18926 0.0
C1711 C 0.27718 0.1148 0.17208 0.0
C1712 C 0.2703 0.13117 0.22216 0.0
C1713 C 0.26994 0.11364 0.23862 0.0
C1714 C 0.27415 0.09677 0.22164 0.0
C1715 C 0.27779 0.09735 0.18868 0.0
H1716 H 0.18942 1.00471 0.42004 0.0
H1717 H 0.13724 0.03656 0.43126 0.0
H1718 H 0.18896 0.9964 0.47687 0.0
H1719 H 0.13706 0.02936 0.48866 0.0
H1720 H 0.13109 0.99918 0.58316 0.0
H1721 H 0.1317 1.00472 0.52537 0.0
H1722 H 0.19337 1.00821 0.52864 0.0
H1723 H 0.19256 1.00173 0.58592 0.0
C1724 C 0.17815 1.01034 0.43514 0.0
C1725 C 0.16356 0.02154 0.42184 0.0
C1726 C 0.17782 1.0056 0.46762 0.0
C1727 C 0.16297 1.01219 0.48755 0.0
C1728 C 0.14853 0.0237 0.47405 0.0
C1729 C 0.14871 0.02811 0.44139 0.0
C1730 C 0.14472 1.00077 0.57118 0.0
C1731 C 0.16175 0.99983 0.58876 0.0
C1732 C 0.14512 1.0042 0.53821 0.0
C1733 C 0.16258 1.00716 0.52223 0.0
C1734 C 0.17966 1.00572 0.53988 0.0
C1735 C 0.17924 1.00197 0.57274 0.0
H1736 H 0.28085 0.93101 0.6644 0.0
H1737 H 0.22538 0.9068 0.68212 0.0
H1738 H 0.28635 0.93412 0.72197 0.0
H1739 H 0.23087 0.90911 0.73999 0.0
H1740 H 0.24052 0.92652 0.84238 0.0
H1741 H 0.23441 0.9294 0.78499 0.0
H1742 H 0.29319 0.91388 0.76594 0.0
H1743 H 0.29915 0.9118 0.82372 0.0
C1744 C 0.26982 0.92648 0.68091 0.0
C1745 C 0.25275 0.91864 0.66928 0.0
C1746 C 0.27298 0.92809 0.71379 0.0
C1747 C 0.25916 0.92166 0.73573 0.0
C1748 C 0.24175 0.91442 0.72385 0.0
C1749 C 0.23855 0.91302 0.69085 0.0
C1750 C 0.25205 0.92388 0.8257 0.0
C1751 C 0.27021 0.91877 0.83703 0.0
C1752 C 0.2486 0.92542 0.79291 0.0
C1753 C 0.26324 0.92166 0.77071 0.0
C1754 C 0.28162 0.9171 0.78229 0.0
C1755 C 0.28509 0.91579 0.81524 0.0
H1756 H 0.38025 0.97892 0.93204 0.0
H1757 H 0.34078 0.02497 0.91494 0.0
H1758 H 0.37977 0.98602 0.98964 0.0
H1759 H 0.34041 0.03256 0.97228 0.0
H1760 H 0.33302 0.02823 0.08247 0.0
H1761 H 0.33104 0.02077 0.02545 0.0
H1762 H 0.39213 1.01212 0.02273 0.0
H1763 H 0.39404 0.01955 0.07975 0.0
C1764 C 0.37117 0.99027 0.94095 0.0
C1765 C 0.36031 1.00122 0.91966 0.0
C1766 C 0.37106 0.99455 0.97366 0.0
C1767 C 0.36019 1.00998 0.98545 0.0
C1768 C 0.34877 0.02048 0.96404 0.0
C1769 C 0.3489 0.01615 0.93138 0.0
C1770 C 0.34607 0.02517 0.06955 0.0
C1771 C 0.36371 0.02446 0.08558 0.0
C1772 C 0.34492 0.02076 0.03692 0.0
C1773 C 0.36138 0.01555 0.01971 0.0
C1774 C 0.37911 0.0156 0.0355 0.0
C1775 C 0.38025 0.02001 0.06804 0.0
H1776 H 0.77204 0.94317 0.66889 0.0
H1777 H 0.77656 0.88173 0.67042 0.0
H1778 H 0.7672 0.94339 0.72716 0.0
H1779 H 0.77195 0.88186 0.72861 0.0
H1780 H 0.78506 0.8945 0.83494 0.0
H1781 H 0.79028 0.89496 0.77774 0.0
H1782 H 0.74014 0.93003 0.76516 0.0
H1783 H 0.73424 0.92907 0.82299 0.0
C1784 C 0.77243 0.92979 0.68188 0.0
C1785 C 0.7749 0.91243 0.66548 0.0
C1786 C 0.7694 0.92988 0.71501 0.0
C1787 C 0.76912 0.91263 0.73221 0.0
C1788 C 0.77218 0.89535 0.71587 0.0
C1789 C 0.77486 0.89525 0.68276 0.0
C1790 C 0.77474 0.90195 0.8203 0.0
C1791 C 0.75895 0.9115 0.83389 0.0
C1792 C 0.77794 0.90235 0.78737 0.0
C1793 C 0.76564 0.91252 0.76714 0.0
C1794 C 0.74994 0.92222 0.78041 0.0
C1795 C 0.74655 0.92162 0.81346 0.0
H1796 H 0.84177 0.99767 0.41448 0.0
H1797 H 0.87344 0.04919 0.43293 0.0
H1798 H 0.84134 0.99036 0.47195 0.0
H1799 H 0.87301 0.04218 0.4906 0.0
H1800 H 0.89257 1.00934 0.57898 0.0
H1801 H 0.88945 0.01655 0.52211 0.0
H1802 H 0.82963 1.00178 0.52602 0.0
H1803 H 0.83274 0.99477 0.58327 0.0
C1804 C 0.84817 1.00764 0.43118 0.0
C1805 C 0.85751 0.02403 0.4198 0.0
C1806 C 0.84797 1.00349 0.4639 0.0
C1807 C 0.85732 0.01559 0.48567 0.0
C1808 C 0.86591 0.03247 0.47426 0.0
C1809 C 0.866 0.03664 0.44152 0.0
C1810 C 0.87879 1.00752 0.56764 0.0
C1811 C 0.8629 1.00162 0.58563 0.0
C1812 C 0.87696 1.01178 0.53518 0.0
C1813 C 0.8592 1.01012 0.51983 0.0
C1814 C 0.84348 1.00325 0.53732 0.0
C1815 C 0.84529 0.99908 0.56999 0.0
H1816 H 0.79504 0.12736 0.32305 0.0
H1817 H 0.74747 0.09001 0.34102 0.0
H1818 H 0.78769 0.12707 0.26558 0.0
H1819 H 0.73966 0.0898 0.28369 0.0
H1820 H 0.74474 0.08194 0.17253 0.0
H1821 H 0.75124 0.07975 0.23004 0.0
H1822 H 0.76182 0.14053 0.23301 0.0
H1823 H 0.75537 0.14264 0.17574 0.0
C1824 C 0.78323 0.11883 0.31437 0.0
C1825 C 0.77194 0.10852 0.33587 0.0
C1826 C 0.77884 0.11881 0.28172 0.0
C1827 C 0.76295 0.10857 0.27016 0.0
C1828 C 0.75205 0.0977 0.29178 0.0
C1829 C 0.75649 0.09775 0.32443 0.0
C1830 C 0.74801 0.09487 0.18567 0.0
C1831 C 0.74966 0.11247 0.16967 0.0
C1832 C 0.75186 0.0936 0.21853 0.0
C1833 C 0.75743 0.10991 0.23589 0.0
C1834 C 0.75808 0.12763 0.22014 0.0
C1835 C 0.75423 0.12888 0.18744 0.0
H1836 H 0.63701 0.99455 0.92824 0.0
H1837 H 0.6939 0.01712 0.91871 0.0
H1838 H 0.63742 1.00174 0.98557 0.0
H1839 H 0.69418 0.02549 0.97548 0.0
H1840 H 0.69519 0.02076 0.08492 0.0
H1841 H 0.69588 0.01383 0.02768 0.0
H1842 H 0.63558 0.02704 0.02164 0.0
H1843 H 0.63497 0.03285 0.07935 0.0
C1844 C 0.64963 1.00096 0.93871 0.0
C1845 C 0.66554 1.00494 0.91956 0.0
C1846 C 0.64983 1.00537 0.97135 0.0
C1847 C 0.6658 0.01437 0.9853 0.0
C1848 C 0.68178 0.01826 0.96588 0.0
C1849 C 0.68168 0.01346 0.93339 0.0
C1850 C 0.68224 0.02254 0.07107 0.0
C1851 C 0.66505 0.0275 0.08623 0.0
C1852 C 0.68257 0.01854 0.03827 0.0
C1853 C 0.66574 0.01969 0.01988 0.0
C1854 C 0.64872 0.02551 0.03505 0.0
C1855 C 0.64836 0.02913 0.06794 0.0
H1856 H 0.77494 0.64508 0.67178 0.0
H1857 H 0.76956 0.58369 0.67088 0.0
H1858 H 0.76986 0.64527 0.72989 0.0
H1859 H 0.76435 0.58381 0.72896 0.0
H1860 H 0.73257 0.59805 0.82533 0.0
H1861 H 0.73775 0.59739 0.76726 0.0
H1862 H 0.78821 0.63203 0.77877 0.0
H1863 H 0.78369 0.63217 0.8361 0.0
C1864 C 0.7729 0.63165 0.6842 0.0
C1865 C 0.77291 0.61439 0.66714 0.0
C1866 C 0.76996 0.63173 0.71727 0.0
C1867 C 0.76662 0.61455 0.73373 0.0
C1868 C 0.76674 0.59724 0.7167 0.0
C1869 C 0.77 0.59715 0.68368 0.0
C1870 C 0.74477 0.60548 0.81548 0.0
C1871 C 0.75747 0.61538 0.83563 0.0
C1872 C 0.74774 0.60508 0.78231 0.0
C1873 C 0.76333 0.61476 0.76869 0.0
C1874 C 0.77592 0.62472 0.78867 0.0
C1875 C 0.77314 0.62492 0.82169 0.0
H1876 H 0.69328 0.50068 0.08383 0.0
H1877 H 0.63202 0.49464 0.08249 0.0
H1878 H 0.69326 0.50583 0.02566 0.0
H1879 H 0.63191 0.4996 0.02441 0.0
H1880 H 0.64387 0.48935 0.91729 0.0
H1881 H 0.64489 0.48278 0.97415 0.0
H1882 H 0.67945 0.53299 0.9892 0.0
H1883 H 0.67798 0.54015 0.93181 0.0
C1884 C 0.6799 0.49997 0.07088 0.0
C1885 C 0.66265 0.49705 0.08732 0.0
C1886 C 0.67985 0.50318 0.03781 0.0
C1887 C 0.66257 0.50321 0.0207 0.0
C1888 C 0.64542 0.49956 0.03704 0.0
C1889 C 0.64546 0.49668 0.0701 0.0
C1890 C 0.65133 0.49937 0.93249 0.0
C1891 C 0.66057 0.51557 0.91977 0.0
C1892 C 0.65206 0.49541 0.96517 0.0
C1893 C 0.66224 0.50735 0.98597 0.0
C1894 C 0.67165 0.52345 0.97351 0.0
C1895 C 0.67075 0.52757 0.94073 0.0
H1896 H 0.75498 0.43909 0.33538 0.0
H1897 H 0.78758 0.38744 0.32299 0.0
H1898 H 0.7461 0.43858 0.27878 0.0
H1899 H 0.77976 0.38722 0.2658 0.0
H1900 H 0.74862 0.38089 0.17222 0.0
H1901 H 0.75471 0.38153 0.22984 0.0
H1902 H 0.75748 0.44327 0.22664 0.0
H1903 H 0.75055 0.44243 0.16951 0.0
C1904 C 0.76064 0.42793 0.32007 0.0
C1905 C 0.77222 0.4135 0.33298 0.0
C1906 C 0.75558 0.42757 0.28772 0.0
C1907 C 0.76221 0.41286 0.26753 0.0
C1908 C 0.77408 0.39857 0.28063 0.0
C1909 C 0.77883 0.39878 0.31316 0.0
C1910 C 0.75018 0.39455 0.18417 0.0
C1911 C 0.74893 0.41158 0.16661 0.0
C1912 C 0.75391 0.39496 0.21704 0.0
C1913 C 0.75684 0.41245 0.23298 0.0
C1914 C 0.75505 0.42953 0.21541 0.0
C1915 C 0.75103 0.4291 0.18264 0.0
H1916 H 0.83364 0.51217 0.5896 0.0
H1917 H 0.8892 0.53693 0.57533 0.0
H1918 H 0.8322 0.50331 0.53294 0.0
H1919 H 0.88764 0.52919 0.51825 0.0
H1920 H 0.89007 0.49557 0.42709 0.0
H1921 H 0.88994 0.50272 0.48433 0.0
H1922 H 0.82921 0.5139 0.47967 0.0
H1923 H 0.82945 0.5058 0.42277 0.0
C1924 C 0.84524 0.51626 0.57387 0.0
C1925 C 0.86139 0.5255 0.5863 0.0
C1926 C 0.84451 0.51116 0.54149 0.0
C1927 C 0.85988 0.51538 0.52089 0.0
C1928 C 0.87573 0.52527 0.53342 0.0
C1929 C 0.87656 0.53003 0.56589 0.0
C1930 C 0.87669 0.49917 0.43866 0.0
C1931 C 0.85978 0.49995 0.42078 0.0
C1932 C 0.8766 0.50356 0.47129 0.0
C1933 C 0.85961 0.50924 0.48667 0.0
C1934 C 0.84253 0.50941 0.46884 0.0
C1935 C 0.84261 0.5047 0.43626 0.0
H1936 H 0.25415 0.43795 0.16927 0.0
H1937 H 0.29035 0.38907 0.18447 0.0
H1938 H 0.24529 0.43799 0.226 0.0
H1939 H 0.28244 0.38939 0.24164 0.0
H1940 H 0.2505 0.38134 0.33361 0.0
H1941 H 0.25679 0.38216 0.27612 0.0
H1942 H 0.25615 0.44396 0.27885 0.0
H1943 H 0.24913 0.4429 0.33613 0.0
C1944 C 0.26057 0.42755 0.18521 0.0
C1945 C 0.27311 0.41369 0.17309 0.0
C1946 C 0.25552 0.42751 0.2176 0.0
C1947 C 0.26306 0.41363 0.23849 0.0
C1948 C 0.27603 0.40005 0.2262 0.0
C1949 C 0.28082 0.39996 0.1937 0.0
C1950 C 0.25135 0.39504 0.32162 0.0
C1951 C 0.24923 0.41202 0.33912 0.0
C1952 C 0.2552 0.39557 0.28883 0.0
C1953 C 0.25733 0.41314 0.27285 0.0
C1954 C 0.25445 0.43016 0.29023 0.0
C1955 C 0.25036 0.42959 0.32303 0.0
H1956 H 0.33121 0.52323 0.92017 0.0
H1957 H 0.39178 0.53337 0.92524 0.0
H1958 H 0.33057 0.51592 0.9773 0.0
H1959 H 0.39126 0.52718 0.98281 0.0
H1960 H 0.38945 0.49315 0.07465 0.0
H1961 H 0.38892 0.50138 0.01772 0.0
H1962 H 0.33295 0.52672 0.03004 0.0
H1963 H 0.33333 0.51733 0.08637 0.0
C1964 C 0.34426 0.52454 0.93391 0.0
C1965 C 0.36153 0.529 0.91862 0.0
C1966 C 0.34397 0.52031 0.96664 0.0
C1967 C 0.36092 0.52072 0.9848 0.0
C1968 C 0.37801 0.52619 0.96956 0.0
C1969 C 0.37833 0.53004 0.93675 0.0
C1970 C 0.37698 0.50014 0.06474 0.0
C1971 C 0.3613 0.50427 0.08435 0.0
C1972 C 0.37671 0.50515 0.03235 0.0
C1973 C 0.36093 0.51489 0.01914 0.0
C1974 C 0.34519 0.51894 0.03905 0.0
C1975 C 0.34535 0.51356 0.07127 0.0
H1976 H 0.256 0.65278 0.66501 0.0
H1977 H 0.23831 0.59393 0.67522 0.0
H1978 H 0.26232 0.6544 0.72242 0.0
H1979 H 0.24397 0.59589 0.73281 0.0
H1980 H 0.24125 0.61571 0.8395 0.0
H1981 H 0.23219 0.61498 0.78289 0.0
H1982 H 0.28803 0.63625 0.75725 0.0
H1983 H 0.29711 0.63669 0.81426 0.0
C1984 C 0.25323 0.64027 0.67953 0.0
C1985 C 0.24697 0.62313 0.66538 0.0
C1986 C 0.25689 0.64122 0.71231 0.0
C1987 C 0.25394 0.62517 0.73175 0.0
C1988 C 0.24639 0.60844 0.71818 0.0
C1989 C 0.24301 0.60739 0.68523 0.0
C1990 C 0.2515 0.6203 0.82165 0.0
C1991 C 0.26978 0.62646 0.83086 0.0
C1992 C 0.24637 0.61978 0.78942 0.0
C1993 C 0.25937 0.62569 0.7659 0.0
C1994 C 0.2777 0.63184 0.7751 0.0
C1995 C 0.28294 0.63203 0.80744 0.0
H1996 H 0.13879 0.47784 0.441 0.0
H1997 H 0.15501 0.53554 0.41746 0.0
H1998 H 0.13908 0.48624 0.49838 0.0
H1999 H 0.15561 0.54392 0.47428 0.0
H2000 H 0.18033 0.53685 0.57941 0.0
H2001 H 0.17724 0.53157 0.52202 0.0
H2002 H 0.11967 0.51126 0.53558 0.0
H2003 H 0.12226 0.51737 0.59294 0.0
C2004 C 0.14229 0.49228 0.44824 0.0
C2005 C 0.14663 0.50614 0.42519 0.0
C2006 C 0.14239 0.49712 0.48077 0.0
C2007 C 0.14728 0.51574 0.49046 0.0
C2008 C 0.15177 0.5295 0.46732 0.0
C2009 C 0.15132 0.52476 0.43496 0.0
C2010 C 0.16681 0.53177 0.57028 0.0
C2011 C 0.15165 0.52723 0.59105 0.0
C2012 C 0.16513 0.52861 0.53739 0.0
C2013 C 0.14836 0.52067 0.52472 0.0
C2014 C 0.13287 0.51703 0.54503 0.0
C2015 C 0.13441 0.52052 0.57782 0.0
H2016 H 0.2267 0.10936 0.93399 0.0
H2017 H 0.16883 0.11678 0.96731 0.0
H2018 H 0.21483 0.09784 0.88263 0.0
H2019 H 0.15681 0.10472 0.91636 0.0
H2020 H 0.14125 0.10042 0.8114 0.0
H2021 H 0.15357 0.11269 0.86154 0.0
H2022 H 0.19956 0.07151 0.85814 0.0
H2023 H 0.18806 0.06005 0.80702 0.0
C2024 C 0.21143 0.1083 0.93041 0.0
C2025 C 0.19868 0.11396 0.9546 0.0
C2026 C 0.20459 0.10165 0.90101 0.0
C2027 C 0.18483 0.10031 0.89527 0.0
C2028 C 0.17211 0.10589 0.91965 0.0
C2029 C 0.17896 0.11275 0.9489 0.0
C2030 C 0.15413 0.09408 0.82094 0.0
C2031 C 0.16357 0.07916 0.80472 0.0
C2032 C 0.16107 0.10099 0.85009 0.0
C2033 C 0.17754 0.09308 0.86405 0.0
C2034 C 0.18698 0.07816 0.84795 0.0
C2035 C 0.18016 0.07137 0.81864 0.0
H2036 H 0.17418 0.9747 0.18805 0.0
H2037 H 0.14871 0.91991 0.20935 0.0
H2038 H 0.1871 0.96178 0.13842 0.0
H2039 H 0.16144 0.90711 0.15942 0.0
H2040 H 0.16992 0.89867 0.05072 0.0
H2041 H 0.15707 0.91126 0.10071 0.0
H2042 H 0.21131 0.93793 0.12113 0.0
H2043 H 0.22429 0.92515 0.07143 0.0
C2044 C 0.17145 0.95987 0.18236 0.0
C2045 C 0.16042 0.94835 0.20287 0.0
C2046 C 0.17883 0.95248 0.15385 0.0
C2047 C 0.17529 0.93343 0.14506 0.0
C2048 C 0.1642 0.92192 0.16538 0.0
C2049 C 0.15688 0.92928 0.19399 0.0
C2050 C 0.17919 0.90704 0.06597 0.0
C2051 C 0.19815 0.9109 0.05691 0.0
C2052 C 0.1718 0.91427 0.09461 0.0
C2053 C 0.18317 0.92561 0.11478 0.0
C2054 C 0.20211 0.92947 0.10582 0.0
C2055 C 0.20954 0.92216 0.07726 0.0
H2056 H 0.36049 0.97693 0.32504 0.0
H2057 H 0.36798 0.9191 0.29134 0.0
H2058 H 0.34874 0.96491 0.37617 0.0
H2059 H 0.35569 0.90695 0.34203 0.0
H2060 H 0.35073 0.89113 0.44672 0.0
H2061 H 0.36336 0.90358 0.39699 0.0
H2062 H 0.32216 0.94958 0.39979 0.0
H2063 H 0.3103 0.93795 0.4505 0.0
C2064 C 0.35941 0.96163 0.32851 0.0
C2065 C 0.36514 0.94893 0.30429 0.0
C2066 C 0.35264 0.95472 0.35775 0.0
C2067 C 0.35122 0.93494 0.36327 0.0
C2068 C 0.35691 0.92226 0.33888 0.0
C2069 C 0.3639 0.92919 0.30979 0.0
C2070 C 0.34444 0.90403 0.43716 0.0
C2071 C 0.3294 0.91344 0.45312 0.0
C2072 C 0.35158 0.91105 0.40823 0.0
C2073 C 0.34377 0.92757 0.39425 0.0
C2074 C 0.32873 0.93697 0.41005 0.0
C2075 C 0.32172 0.93007 0.43913 0.0
H2076 H 0.34073 0.06053 0.70188 0.0
H2077 H 0.38724 0.10124 0.69976 0.0
H2078 H 0.32932 0.0727 0.65129 0.0
H2079 H 0.37499 0.11415 0.65004 0.0
H2080 H 0.35984 0.1191 0.5439 0.0
H2081 H 0.3719 0.1069 0.59476 0.0
H2082 H 0.3139 0.09934 0.62804 0.0
H2083 H 0.302 0.111 0.57681 0.0
C2084 C 0.34859 0.07208 0.69093 0.0
C2085 C 0.36508 0.07974 0.70535 0.0
C2086 C 0.34181 0.07927 0.66188 0.0
C2087 C 0.35117 0.09447 0.64653 0.0
C2088 C 0.36754 0.10226 0.66094 0.0
C2089 C 0.37446 0.09494 0.68985 0.0
C2090 C 0.34973 0.11491 0.56221 0.0
C2091 C 0.33001 0.11591 0.5564 0.0
C2092 C 0.35661 0.10797 0.5914 0.0
C2093 C 0.34389 0.10209 0.61557 0.0
C2094 C 0.32413 0.10336 0.60979 0.0
C2095 C 0.31728 0.11009 0.58047 0.0
H2096 H 0.81723 0.93975 0.05076 0.0
H2097 H 0.84369 0.8851 0.06983 0.0
H2098 H 0.82933 0.95191 0.10149 0.0
H2099 H 0.8559 0.89734 0.12047 0.0
H2100 H 0.8915 0.9335 0.19067 0.0
H2101 H 0.87926 0.92087 0.14029 0.0
H2102 H 0.82451 0.94705 0.15933 0.0
H2103 H 0.83667 0.95956 0.20976 0.0
C2104 C 0.82547 0.93027 0.06584 0.0
C2105 C 0.82946 0.91143 0.05617 0.0
C2106 C 0.83243 0.93725 0.09492 0.0
C2107 C 0.84356 0.92557 0.11496 0.0
C2108 C 0.84759 0.90676 0.10531 0.0
C2109 C 0.8406 0.89976 0.07626 0.0
C2110 C 0.8768 0.9364 0.18431 0.0
C2111 C 0.8651 0.9476 0.20427 0.0
C2112 C 0.86979 0.92917 0.15542 0.0
C2113 C 0.85094 0.93302 0.14582 0.0
C2114 C 0.8392 0.94411 0.16583 0.0
C2115 C 0.84619 0.95129 0.19474 0.0
H2116 H 0.80048 0.10977 0.93216 0.0
H2117 H 0.85822 0.11709 0.96604 0.0
H2118 H 0.81254 0.09807 0.88103 0.0
H2119 H 0.87043 0.10483 0.9153 0.0
H2120 H 0.88619 0.10014 0.81037 0.0
H2121 H 0.87384 0.11257 0.86036 0.0
H2122 H 0.82786 0.07149 0.85723 0.0
H2123 H 0.83939 0.05985 0.80623 0.0
C2124 C 0.81577 0.10866 0.92874 0.0
C2125 C 0.82843 0.11431 0.95303 0.0
C2126 C 0.82271 0.1019 0.89948 0.0
C2127 C 0.84248 0.10044 0.894 0.0
C2128 C 0.85513 0.10608 0.91843 0.0
C2129 C 0.84817 0.11305 0.94755 0.0
C2130 C 0.87332 0.09384 0.81992 0.0
C2131 C 0.86386 0.07892 0.80378 0.0
C2132 C 0.86636 0.10086 0.849 0.0
C2133 C 0.84986 0.09303 0.86296 0.0
C2134 C 0.84045 0.07807 0.847 0.0
C2135 C 0.84728 0.07118 0.81776 0.0
H2136 H 0.66963 0.12708 0.5477 0.0
H2137 H 0.72436 0.10146 0.56926 0.0
H2138 H 0.65686 0.11465 0.59781 0.0
H2139 H 0.71144 0.08882 0.61904 0.0
H2140 H 0.67469 0.05194 0.68614 0.0
H2141 H 0.68746 0.06473 0.63637 0.0
H2142 H 0.6611 0.11923 0.65662 0.0
H2143 H 0.64853 0.10658 0.70674 0.0
C2144 C 0.679 0.11894 0.56314 0.0
C2145 C 0.69805 0.11527 0.55429 0.0
C2146 C 0.67165 0.11179 0.59186 0.0
C2147 C 0.68314 0.10073 0.6123 0.0
C2148 C 0.70216 0.09706 0.60353 0.0
C2149 C 0.70955 0.10429 0.57491 0.0
C2150 C 0.67177 0.06671 0.68028 0.0
C2151 C 0.66062 0.07823 0.70065 0.0
C2152 C 0.67907 0.07402 0.65167 0.0
C2153 C 0.67531 0.09299 0.64264 0.0
C2154 C 0.66405 0.10449 0.66279 0.0
C2155 C 0.65683 0.09721 0.69151 0.0
H2156 H 0.68919 0.95906 0.29519 0.0
H2157 H 0.634 0.93375 0.31349 0.0
H2158 H 0.70085 0.94675 0.34607 0.0
H2159 H 0.64573 0.92134 0.36439 0.0
H2160 H 0.68053 0.88583 0.43672 0.0
H2161 H 0.66849 0.89782 0.38578 0.0
H2162 H 0.69588 0.95209 0.40347 0.0
H2163 H 0.70784 0.94016 0.45444 0.0
C2164 C 0.67948 0.951 0.31013 0.0
C2165 C 0.66061 0.94747 0.30024 0.0
C2166 C 0.68618 0.94393 0.33932 0.0
C2167 C 0.67419 0.93313 0.35932 0.0
C2168 C 0.65539 0.92942 0.34933 0.0
C2169 C 0.64867 0.93652 0.32013 0.0
C2170 C 0.68382 0.90038 0.42994 0.0
C2171 C 0.6952 0.912 0.44971 0.0
C2172 C 0.67693 0.90725 0.40071 0.0
C2173 C 0.68128 0.92588 0.39055 0.0
C2174 C 0.69255 0.93755 0.41038 0.0
C2175 C 0.69942 0.9307 0.43961 0.0
H2176 H 0.68672 0.56138 0.3026 0.0
H2177 H 0.63843 0.59999 0.30645 0.0
H2178 H 0.69789 0.57363 0.35336 0.0
H2179 H 0.65042 0.61312 0.35628 0.0
H2180 H 0.66582 0.61751 0.46246 0.0
H2181 H 0.65406 0.60548 0.41128 0.0
H2182 H 0.71221 0.60065 0.37714 0.0
H2183 H 0.72381 0.61208 0.42871 0.0
C2184 C 0.67843 0.57249 0.31404 0.0
C2185 C 0.66152 0.57953 0.30013 0.0
C2186 C 0.68505 0.57975 0.34312 0.0
C2187 C 0.67511 0.59442 0.35896 0.0
C2188 C 0.65832 0.60163 0.34499 0.0
C2189 C 0.65157 0.59423 0.31605 0.0
C2190 C 0.67602 0.61395 0.44389 0.0
C2191 C 0.6957 0.61561 0.44954 0.0
C2192 C 0.66932 0.60713 0.41452 0.0
C2193 C 0.68218 0.60204 0.39003 0.0
C2194 C 0.70189 0.60403 0.39564 0.0
C2195 C 0.70857 0.61063 0.42513 0.0
H2196 H 0.68476 0.38428 0.56473 0.0
H2197 H 0.71112 0.43898 0.54601 0.0
H2198 H 0.67144 0.39681 0.61439 0.0
H2199 H 0.69794 0.4514 0.59581 0.0
H2200 H 0.68851 0.4593 0.70393 0.0
H2201 H 0.70165 0.44688 0.65411 0.0
H2202 H 0.64748 0.42044 0.63233 0.0
H2203 H 0.63423 0.433 0.68203 0.0
C2204 C 0.68761 0.39901 0.57101 0.0
C2205 C 0.69904 0.4106 0.55129 0.0
C2206 C 0.67998 0.40618 0.59951 0.0
C2207 C 0.68365 0.42508 0.609 0.0
C2208 C 0.69509 0.43668 0.58936 0.0
C2209 C 0.70267 0.42953 0.56081 0.0
C2210 C 0.67931 0.45102 0.68842 0.0
C2211 C 0.66027 0.44718 0.69706 0.0
C2212 C 0.68687 0.44388 0.65986 0.0
C2213 C 0.6756 0.43268 0.63931 0.0
C2214 C 0.6566 0.4288 0.64791 0.0
C2215 C 0.64901 0.43599 0.67643 0.0
H2216 H 0.80849 0.43697 0.94786 0.0
H2217 H 0.84893 0.39019 0.94372 0.0
H2218 H 0.82035 0.44875 0.89722 0.0
H2219 H 0.86155 0.40277 0.89404 0.0
H2220 H 0.86643 0.41871 0.78856 0.0
H2221 H 0.85404 0.40635 0.83906 0.0
H2222 H 0.84687 0.46419 0.87369 0.0
H2223 H 0.85873 0.4764 0.82279 0.0
C2224 C 0.81991 0.42913 0.93642 0.0
C2225 C 0.8276 0.41247 0.9503 0.0
C2226 C 0.82692 0.43611 0.90737 0.0
C2227 C 0.84196 0.42677 0.89147 0.0
C2228 C 0.84977 0.41021 0.90535 0.0
C2229 C 0.84263 0.40311 0.93425 0.0
C2230 C 0.86227 0.42873 0.80707 0.0
C2231 C 0.86349 0.4485 0.80175 0.0
C2232 C 0.85522 0.42168 0.83606 0.0
C2233 C 0.84944 0.43426 0.86055 0.0
C2234 C 0.85083 0.45406 0.8552 0.0
C2235 C 0.85767 0.46109 0.82607 0.0
H2236 H 0.87698 0.60531 0.21099 0.0
H2237 H 0.84946 0.5515 0.18959 0.0
H2238 H 0.86497 0.61847 0.16086 0.0
H2239 H 0.83723 0.56483 0.13988 0.0
H2240 H 0.80194 0.60261 0.07211 0.0
H2241 H 0.81407 0.58973 0.12231 0.0
H2242 H 0.86957 0.6137 0.10206 0.0
H2243 H 0.85757 0.62638 0.05154 0.0
C2244 C 0.86849 0.59622 0.19562 0.0
C2245 C 0.8642 0.57732 0.20451 0.0
C2246 C 0.86159 0.6038 0.16689 0.0
C2247 C 0.85014 0.59268 0.14651 0.0
C2248 C 0.8458 0.57382 0.15535 0.0
C2249 C 0.85279 0.56621 0.18395 0.0
C2250 C 0.81678 0.60498 0.07809 0.0
C2251 C 0.82879 0.61549 0.05762 0.0
C2252 C 0.82371 0.59762 0.10693 0.0
C2253 C 0.84276 0.60069 0.11606 0.0
C2254 C 0.85475 0.61132 0.09581 0.0
C2255 C 0.84785 0.6186 0.06687 0.0
H2256 H 0.34998 0.39066 0.56164 0.0
H2257 H 0.30958 0.43749 0.55801 0.0
H2258 H 0.36255 0.40301 0.61153 0.0
H2259 H 0.32137 0.44902 0.60886 0.0
H2260 H 0.35947 0.47651 0.68346 0.0
H2261 H 0.34791 0.46437 0.63235 0.0
H2262 H 0.35509 0.40648 0.66663 0.0
H2263 H 0.36721 0.41879 0.71741 0.0
C2264 C 0.34369 0.40354 0.57127 0.0
C2265 C 0.32869 0.413 0.55529 0.0
C2266 C 0.35079 0.41051 0.60029 0.0
C2267 C 0.34298 0.42702 0.61435 0.0
C2268 C 0.32795 0.43643 0.59855 0.0
C2269 C 0.32098 0.42959 0.56938 0.0
C2270 C 0.35848 0.4612 0.68005 0.0
C2271 C 0.36418 0.44858 0.7044 0.0
C2272 C 0.35181 0.45422 0.6508 0.0
C2273 C 0.35046 0.43442 0.64533 0.0
C2274 C 0.35622 0.4218 0.66976 0.0
C2275 C 0.36311 0.42882 0.6989 0.0
H2276 H 0.31564 0.5848 0.45634 0.0
H2277 H 0.34444 0.63834 0.43855 0.0
H2278 H 0.32808 0.57216 0.40609 0.0
H2279 H 0.35691 0.62568 0.38838 0.0
H2280 H 0.39178 0.58914 0.31847 0.0
H2281 H 0.37954 0.60155 0.36902 0.0
H2282 H 0.32427 0.57713 0.34826 0.0
H2283 H 0.33647 0.56478 0.2977 0.0
C2284 C 0.32449 0.59393 0.44163 0.0
C2285 C 0.32904 0.61259 0.45149 0.0
C2286 C 0.33163 0.58668 0.41284 0.0
C2287 C 0.34347 0.59793 0.3933 0.0
C2288 C 0.34806 0.61656 0.40317 0.0
C2289 C 0.34092 0.62381 0.43194 0.0
C2290 C 0.37698 0.58657 0.32453 0.0
C2291 C 0.36511 0.57596 0.30402 0.0
C2292 C 0.36997 0.59366 0.35352 0.0
C2293 C 0.35095 0.59031 0.36262 0.0
C2294 C 0.33908 0.5797 0.34214 0.0
C2295 C 0.34608 0.57261 0.31316 0.0
H2296 H 0.17995 0.59068 0.03786 0.0
H2297 H 0.23492 0.60698 0.07566 0.0
H2298 H 0.17133 0.57687 0.08971 0.0
H2299 H 0.22622 0.59335 0.12782 0.0
H2300 H 0.1841 0.59711 0.2185 0.0
H2301 H 0.19848 0.6053 0.16686 0.0
H2302 H 0.18309 0.54977 0.1299 0.0
H2303 H 0.16886 0.54151 0.18176 0.0
C2304 C 0.19021 0.59112 0.05725 0.0
C2305 C 0.20799 0.59997 0.05307 0.0
C2306 C 0.18538 0.5831 0.08671 0.0
C2307 C 0.19815 0.58412 0.11254 0.0
C2308 C 0.21618 0.59245 0.10813 0.0
C2309 C 0.22116 0.60014 0.07843 0.0
C2310 C 0.18399 0.58663 0.1994 0.0
C2311 C 0.17529 0.56878 0.20382 0.0
C2312 C 0.19235 0.59121 0.17008 0.0
C2313 C 0.19183 0.57812 0.14463 0.0
C2314 C 0.18362 0.56005 0.1493 0.0
C2315 C 0.17558 0.55534 0.17883 0.0
H2316 H 0.16181 0.4173 0.79274 0.0
H2317 H 0.16581 0.47502 0.82849 0.0
H2318 H 0.17442 0.40521 0.84326 0.0
H2319 H 0.17785 0.46304 0.87945 0.0
H2320 H 0.21685 0.4372 0.95412 0.0
H2321 H 0.20502 0.44877 0.90326 0.0
H2322 H 0.16624 0.40088 0.89786 0.0
H2323 H 0.17894 0.38853 0.94768 0.0
C2324 C 0.16521 0.42736 0.8116 0.0
C2325 C 0.16287 0.44707 0.80677 0.0
C2326 C 0.17237 0.42046 0.84058 0.0
C2327 C 0.17713 0.43314 0.8655 0.0
C2328 C 0.17467 0.45288 0.86061 0.0
C2329 C 0.16773 0.45977 0.83148 0.0
C2330 C 0.206 0.42891 0.94207 0.0
C2331 C 0.19898 0.4118 0.95532 0.0
C2332 C 0.199 0.43575 0.91295 0.0
C2333 C 0.18463 0.4258 0.89643 0.0
C2334 C 0.1775 0.40879 0.90969 0.0
C2335 C 0.18464 0.40183 0.93864 0.0
H2336 H 0.27742 0.21372 0.08069 0.0
H2337 H 0.23607 0.21441 0.00426 0.0
H2338 H 0.27915 0.24844 0.07927 0.0
H2339 H 0.23684 0.24932 0.00379 0.0
H2340 H 0.24989 0.31269 0.99555 0.0
H2341 H 0.25182 0.27803 0.99243 0.0
H2342 H 0.26341 0.2756 0.09406 0.0
H2343 H 0.26317 0.31008 0.09655 0.0
C2344 C 0.26863 0.22137 0.0636 0.0
C2345 C 0.25659 0.21128 0.04264 0.0
C2346 C 0.26945 0.24139 0.06294 0.0
C2347 C 0.25792 0.25207 0.04175 0.0
C2348 C 0.24616 0.24185 0.02024 0.0
C2349 C 0.24564 0.22175 0.02052 0.0
C2350 C 0.25327 0.30484 0.01715 0.0
C2351 C 0.25629 0.31453 0.04636 0.0
C2352 C 0.25406 0.28477 0.01546 0.0
C2353 C 0.25772 0.27364 0.04298 0.0
C2354 C 0.26087 0.28338 0.07207 0.0
C2355 C 0.26036 0.30339 0.07366 0.0
H2356 H 0.96311 0.02369 0.25492 0.0
H2357 H 0.96604 0.98599 0.33683 0.0
H2358 H 0.99807 0.0247 0.25321 0.0
H2359 H 1.00063 0.98783 0.33582 0.0
H2360 H 0.06026 0.01373 0.34741 0.0
H2361 H 0.02555 0.01368 0.34561 0.0
H2362 H 0.0272 1.00197 0.24423 0.0
H2363 H 0.06212 1.00117 0.24602 0.0
C2364 C 0.97106 0.01557 0.27251 0.0
C2365 C 0.96142 1.00499 0.29633 0.0
C2366 C 0.99115 0.01623 0.27155 0.0
C2367 C 1.00217 1.00655 0.29464 0.0
C2368 C 0.99261 0.99579 0.31807 0.0
C2369 C 0.97263 0.99487 0.31873 0.0
C2370 C 0.05338 1.01091 0.32467 0.0
C2371 C 0.0643 1.00715 0.29697 0.0
C2372 C 0.03337 1.01099 0.32367 0.0
C2373 C 0.02354 1.00765 0.29484 0.0
C2374 C 0.03432 1.00469 0.26681 0.0
C2375 C 0.05441 1.00432 0.26788 0.0
H2376 H 0.24681 0.71492 0.51778 0.0
H2377 H 0.30462 0.71595 0.55325 0.0
H2378 H 0.24623 0.74994 0.51749 0.0
H2379 H 0.30447 0.75066 0.55179 0.0
H2380 H 0.29293 0.81108 0.58252 0.0
H2381 H 0.29259 0.77662 0.57955 0.0
H2382 H 0.25663 0.77938 0.49559 0.0
H2383 H 0.25582 0.81419 0.49999 0.0
C2384 C 0.2595 0.72264 0.52502 0.0
C2385 C 0.27567 0.71262 0.53594 0.0
C2386 C 0.25922 0.74277 0.52479 0.0
C2387 C 0.2752 0.7534 0.53513 0.0
C2388 C 0.29163 0.74321 0.54464 0.0
C2389 C 0.29179 0.7232 0.54527 0.0
C2390 C 0.2846 0.80449 0.56368 0.0
C2391 C 0.27421 0.81573 0.54174 0.0
C2392 C 0.28472 0.78452 0.56158 0.0
C2393 C 0.27473 0.77491 0.53712 0.0
C2394 C 0.26439 0.78609 0.51498 0.0
C2395 C 0.26412 0.80618 0.51727 0.0
H2396 H 0.46707 0.04165 0.83498 0.0
H2397 H 0.46371 1.00373 0.75333 0.0
H2398 H 0.50164 0.03957 0.83368 0.0
H2399 H 0.49868 1.00254 0.75128 0.0
H2400 H 0.56291 0.02618 0.74412 0.0
H2401 H 0.52799 0.02558 0.7423 0.0
H2402 H 0.52628 1.01295 0.84333 0.0
H2403 H 0.561 1.01261 0.84513 0.0
C2404 C 0.47356 0.03268 0.81687 0.0
C2405 C 0.46224 0.02254 0.79468 0.0
C2406 C 0.49353 0.03164 0.81603 0.0
C2407 C 0.50297 0.02074 0.7926 0.0
C2408 C 0.49185 1.01109 0.76964 0.0
C2409 C 0.47175 1.01186 0.77078 0.0
C2410 C 0.5552 0.02285 0.76588 0.0
C2411 C 0.56508 0.01968 0.79489 0.0
C2412 C 0.5351 0.02261 0.7648 0.0
C2413 C 0.52432 0.01945 0.79274 0.0
C2414 C 0.53413 0.01577 0.82147 0.0
C2415 C 0.55414 0.0157 0.82248 0.0
H2416 H 0.27105 0.81199 0.91647 0.0
H2417 H 0.24456 0.81346 0.00988 0.0
H2418 H 0.27152 0.7772 0.91826 0.0
H2419 H 0.24574 0.77865 0.01224 0.0
H2420 H 0.22898 0.71668 0.98802 0.0
H2421 H 0.23046 0.75142 0.98895 0.0
H2422 H 0.28554 0.74944 0.94249 0.0
H2423 H 0.2837 0.71462 0.94042 0.0
C2424 C 0.26541 0.80494 0.93752 0.0
C2425 C 0.25765 0.81571 0.96293 0.0
C2426 C 0.26589 0.78489 0.93871 0.0
C2427 C 0.25861 0.77492 0.96535 0.0
C2428 C 0.25125 0.78571 0.9911 0.0
C2429 C 0.2508 0.80577 0.98993 0.0
C2430 C 0.2414 0.7236 0.97784 0.0
C2431 C 0.25615 0.71267 0.96394 0.0
C2432 C 0.24236 0.74362 0.97873 0.0
C2433 C 0.25811 0.75343 0.96576 0.0
C2434 C 0.27305 0.7425 0.95239 0.0
C2435 C 0.27211 0.72244 0.95155 0.0
H2436 H 0.56281 0.98731 0.2513 0.0
H2437 H 0.56244 0.02834 0.17436 0.0
H2438 H 0.52795 0.98761 0.25237 0.0
H2439 H 0.52773 0.02967 0.17643 0.0
H2440 H 0.46608 0.01335 0.16113 0.0
H2441 H 0.50053 0.01398 0.16267 0.0
H2442 H 0.49921 1.00203 0.26425 0.0
H2443 H 0.46461 0.9996 0.26203 0.0
C2444 C 0.55524 0.99671 0.23504 0.0
C2445 C 0.56541 1.00773 0.21264 0.0
C2446 C 0.53516 0.99698 0.23568 0.0
C2447 C 0.52464 1.00854 0.21428 0.0
C2448 C 0.53501 0.02011 0.19272 0.0
C2449 C 0.55503 0.01952 0.19168 0.0
C2450 C 0.47302 1.01051 0.18381 0.0
C2451 C 0.4622 1.00616 0.21135 0.0
C2452 C 0.49301 1.01127 0.18485 0.0
C2453 C 0.50307 1.00812 0.21363 0.0
C2454 C 0.49225 1.00424 0.24141 0.0
C2455 C 0.47219 1.00317 0.24025 0.0
H2456 H 0.27923 0.21402 0.51672 0.0
H2457 H 0.26359 0.21641 0.41667 0.0
H2458 H 0.27686 0.24866 0.51997 0.0
H2459 H 0.26289 0.25087 0.41916 0.0
H2460 H 0.24863 0.31259 0.43302 0.0
H2461 H 0.24723 0.27786 0.43482 0.0
H2462 H 0.29116 0.27756 0.50766 0.0
H2463 H 0.29159 0.31248 0.5069 0.0
C2464 C 0.27524 0.22181 0.49536 0.0
C2465 C 0.27171 0.21208 0.46636 0.0
C2466 C 0.27418 0.24188 0.4971 0.0
C2467 C 0.26974 0.25295 0.46983 0.0
C2468 C 0.26605 0.24314 0.44098 0.0
C2469 C 0.26682 0.22315 0.43937 0.0
C2470 C 0.25783 0.30506 0.44964 0.0
C2471 C 0.27023 0.31532 0.46976 0.0
C2472 C 0.25721 0.28504 0.4505 0.0
C2473 C 0.26931 0.27452 0.47102 0.0
C2474 C 0.28141 0.28491 0.49175 0.0
C2475 C 0.28175 0.30501 0.49129 0.0
H2476 H 0.06209 0.05474 0.6992 0.0
H2477 H 0.06286 0.99709 0.73544 0.0
H2478 H 0.02742 0.05509 0.70175 0.0
H2479 H 0.02789 0.99684 0.73639 0.0
H2480 H 0.96398 1.00606 0.75447 0.0
H2481 H 0.99876 1.00676 0.75814 0.0
H2482 H 1.00082 0.04435 0.67608 0.0
H2483 H 0.96645 0.045 0.67425 0.0
C2484 C 0.05476 0.04204 0.7075 0.0
C2485 C 0.06524 0.02584 0.71686 0.0
C2486 C 0.03477 0.04213 0.70873 0.0
C2487 C 0.02449 0.02585 0.7187 0.0
C2488 C 0.03508 1.00975 0.72882 0.0
C2489 C 0.05519 1.00982 0.72815 0.0
C2490 C 0.97183 0.01474 0.73752 0.0
C2491 C 0.96208 0.02534 0.71388 0.0
C2492 C 0.99192 0.01492 0.73934 0.0
C2493 C 1.00295 0.02563 0.71745 0.0
C2494 C 0.99312 0.03618 0.69389 0.0
C2495 C 0.97315 0.03622 0.69238 0.0
H2496 H 0.77455 0.81297 0.01474 0.0
H2497 H 0.76774 0.81041 0.91193 0.0
H2498 H 0.77191 0.77836 0.01749 0.0
H2499 H 0.76694 0.77598 0.91433 0.0
H2500 H 0.75228 0.71421 0.92427 0.0
H2501 H 0.75045 0.74893 0.92567 0.0
H2502 H 0.78697 0.74944 0.00928 0.0
H2503 H 0.78761 0.71453 0.00874 0.0
C2504 C 0.77246 0.80515 0.99265 0.0
C2505 C 0.77149 0.81483 0.96306 0.0
C2506 C 0.77126 0.78509 0.99418 0.0
C2507 C 0.76928 0.77397 0.96615 0.0
C2508 C 0.76813 0.78373 0.93667 0.0
C2509 C 0.76899 0.80371 0.9352 0.0
C2510 C 0.75971 0.72179 0.94316 0.0
C2511 C 0.77008 0.71162 0.96638 0.0
C2512 C 0.75887 0.74181 0.94383 0.0
C2513 C 0.76882 0.7524 0.96729 0.0
C2514 C 0.77887 0.74207 0.991 0.0
C2515 C 0.77934 0.72197 0.99069 0.0
H2516 H 0.73264 0.2158 0.42322 0.0
H2517 H 0.77538 0.21327 0.49778 0.0
H2518 H 0.73382 0.2502 0.42424 0.0
H2519 H 0.77534 0.24811 0.50076 0.0
H2520 H 0.78441 0.31205 0.47561 0.0
H2521 H 0.78444 0.27704 0.47701 0.0
H2522 H 0.72463 0.27704 0.45117 0.0
H2523 H 0.72509 0.31171 0.44816 0.0
C2524 C 0.74239 0.22249 0.43991 0.0
C2525 C 0.75413 0.21139 0.46008 0.0
C2526 C 0.74276 0.24248 0.44099 0.0
C2527 C 0.75456 0.25231 0.4628 0.0
C2528 C 0.76618 0.24127 0.48332 0.0
C2529 C 0.76601 0.22114 0.48192 0.0
C2530 C 0.7713 0.30447 0.47033 0.0
C2531 C 0.75483 0.31465 0.46134 0.0
C2532 C 0.77125 0.28435 0.47127 0.0
C2533 C 0.7546 0.27388 0.46373 0.0
C2534 C 0.73795 0.28429 0.45609 0.0
C2535 C 0.73813 0.30429 0.45459 0.0
H2536 H 0.75418 0.21259 0.99967 0.0
H2537 H 0.7918 0.21652 0.08158 0.0
H2538 H 0.75317 0.24757 0.99677 0.0
H2539 H 0.78978 0.2511 0.07952 0.0
H2540 H 0.76131 0.31019 0.08959 0.0
H2541 H 0.76177 0.27547 0.08796 0.0
H2542 H 0.77754 0.277 0.98818 0.0
H2543 H 0.77813 0.31198 0.98993 0.0
C2544 C 0.76228 0.22074 0.017 0.0
C2545 C 0.7728 0.21139 0.04124 0.0
C2546 C 0.76161 0.24084 0.01535 0.0
C2547 C 0.77118 0.25211 0.03818 0.0
C2548 C 0.78194 0.24284 0.06194 0.0
C2549 C 0.78292 0.22288 0.06324 0.0
C2550 C 0.76515 0.30331 0.06727 0.0
C2551 C 0.77003 0.31422 0.04006 0.0
C2552 C 0.76526 0.2833 0.06635 0.0
C2553 C 0.76984 0.27345 0.03803 0.0
C2554 C 0.77387 0.28418 0.01035 0.0
C2555 C 0.77411 0.30429 0.01139 0.0
H2556 H 0.77456 0.81235 0.57571 0.0
H2557 H 0.73302 0.81205 0.49956 0.0
H2558 H 0.77604 0.77761 0.57422 0.0
H2559 H 0.7335 0.77715 0.49908 0.0
H2560 H 0.74585 0.71375 0.49046 0.0
H2561 H 0.74811 0.74837 0.4875 0.0
H2562 H 0.76034 0.75052 0.58894 0.0
H2563 H 0.75984 0.71605 0.59123 0.0
C2564 C 0.76567 0.80478 0.55867 0.0
C2565 C 0.75367 0.81498 0.53779 0.0
C2566 C 0.76634 0.78476 0.55797 0.0
C2567 C 0.75468 0.77419 0.53684 0.0
C2568 C 0.74293 0.78452 0.51546 0.0
C2569 C 0.74257 0.80462 0.51575 0.0
C2570 C 0.74945 0.72152 0.51205 0.0
C2571 C 0.75257 0.71176 0.54115 0.0
C2572 C 0.75042 0.74158 0.51046 0.0
C2573 C 0.75434 0.75263 0.53797 0.0
C2574 C 0.7576 0.74281 0.56695 0.0
C2575 C 0.75693 0.72281 0.56843 0.0
H2576 H 0.5608 0.50216 0.74017 0.0
H2577 H 0.55888 0.51029 0.84272 0.0
H2578 H 0.52611 0.50479 0.7379 0.0
H2579 H 0.52437 0.5115 0.84079 0.0
H2580 H 0.46288 0.52787 0.82967 0.0
H2581 H 0.4976 0.52903 0.82772 0.0
H2582 H 0.49731 0.48905 0.7487 0.0
H2583 H 0.46242 0.48865 0.74999 0.0
C2584 C 0.55308 0.50458 0.76227 0.0
C2585 C 0.56291 0.50591 0.79166 0.0
C2586 C 0.53303 0.5058 0.76103 0.0
C2587 C 0.52212 0.50831 0.78916 0.0
C2588 C 0.53202 0.50986 0.81843 0.0
C2589 C 0.552 0.50883 0.81962 0.0
C2590 C 0.47024 0.51943 0.81173 0.0
C2591 C 0.45982 0.50812 0.79008 0.0
C2592 C 0.49025 0.51996 0.81072 0.0
C2593 C 0.50059 0.50891 0.78835 0.0
C2594 C 0.49006 0.49796 0.7661 0.0
C2595 C 0.46998 0.49766 0.76684 0.0
H2596 H 0.06075 0.49248 0.31611 0.0
H2597 H 0.05802 0.54701 0.26796 0.0
H2598 H 0.02599 0.49023 0.31426 0.0
H2599 H 0.0233 0.54512 0.26721 0.0
H2600 H 0.96133 0.53008 0.24707 0.0
H2601 H 0.99614 0.52933 0.24432 0.0
H2602 H 0.99824 0.50415 0.33869 0.0
H2603 H 0.96349 0.50423 0.34091 0.0
C2604 C 0.0528 0.50394 0.30489 0.0
C2605 C 0.06236 0.51996 0.29229 0.0
C2606 C 0.03277 0.50276 0.30418 0.0
C2607 C 0.02165 0.51753 0.29072 0.0
C2608 C 0.03125 0.53335 0.27751 0.0
C2609 C 0.05125 0.53455 0.2783 0.0
C2610 C 0.96917 0.52406 0.26703 0.0
C2611 C 0.95943 0.51727 0.29427 0.0
C2612 C 0.98922 0.52386 0.26562 0.0
C2613 C 1.00019 0.51679 0.29136 0.0
C2614 C 0.99042 0.50956 0.31824 0.0
C2615 C 0.97039 0.50981 0.31967 0.0
H2616 H 0.05907 0.47172 0.71248 0.0
H2617 H 0.06244 0.53251 0.72855 0.0
H2618 H 0.02414 0.47341 0.71488 0.0
H2619 H 0.02736 0.53429 0.73014 0.0
H2620 H 0.96523 0.52788 0.68344 0.0
H2621 H 1.0002 0.52774 0.68712 0.0
H2622 H 0.99742 0.48237 0.75689 0.0
H2623 H 0.96241 0.48283 0.75377 0.0
C2624 C 0.05232 0.48544 0.71663 0.0
C2625 C 0.06352 0.50198 0.72033 0.0
C2626 C 0.03232 0.48639 0.71814 0.0
C2627 C 0.02296 0.50398 0.72267 0.0
C2628 C 0.03415 0.52054 0.72652 0.0
C2629 C 0.05421 0.51951 0.72578 0.0
C2630 C 0.97209 0.51803 0.69983 0.0
C2631 C 0.96103 0.5054 0.71837 0.0
C2632 C 0.99211 0.518 0.70203 0.0
C2633 C 1.00161 0.50502 0.72226 0.0
C2634 C 0.99054 0.4925 0.74102 0.0
C2635 C 0.9705 0.49284 0.73937 0.0
H2636 H 0.46384 0.49268 0.22686 0.0
H2637 H 0.46385 0.55184 0.19822 0.0
H2638 H 0.4988 0.49287 0.2284 0.0
H2639 H 0.49848 0.55254 0.20137 0.0
H2640 H 0.55985 0.54461 0.17401 0.0
H2641 H 0.52548 0.5434 0.175 0.0
H2642 H 0.52759 0.50224 0.25209 0.0
H2643 H 0.5624 0.50222 0.24913 0.0
C2644 C 0.47133 0.5058 0.22133 0.0
C2645 C 0.46106 0.52216 0.21198 0.0
C2646 C 0.49144 0.50599 0.22236 0.0
C2647 C 0.50182 0.52266 0.21457 0.0
C2648 C 0.49131 0.53919 0.20651 0.0
C2649 C 0.47133 0.53888 0.20491 0.0
C2650 C 0.55316 0.53494 0.19083 0.0
C2651 C 0.56426 0.52328 0.21113 0.0
C2652 C 0.53318 0.53456 0.19189 0.0
C2653 C 0.52337 0.52282 0.2138 0.0
C2654 C 0.53442 0.51133 0.23453 0.0
C2655 C 0.55453 0.51152 0.23316 0.0
loop_
_geom_bond_atom_site_label_1
_geom_bond_atom_site_label_2
_geom_bond_distance
_geom_bond_site_symmetry_2
_ccdc_geom_bond_type
Co0 N4 2.148 . S
Co0 N10 2.128 . S
Co0 N20 2.194 . S
Co0 O25 2.351 . S
Co0 O26 2.155 . S
Co0 O27 2.096 . S
C1 N4 1.301 . S
C1 N5 1.328 . S
C1 H6 0.930 . S
C2 C3 1.333 . S
C2 N4 1.317 . S
C2 H7 0.930 . S
C3 C2 1.333 . S
C3 N5 1.350 . S
C3 H29 0.931 . S
N4 Co0 2.148 . S
N4 C1 1.301 . S
N4 C2 1.317 . S
N5 C1 1.328 . S
N5 C3 1.350 . S
H6 C1 0.930 . S
H7 C2 0.930 . S
C8 O9 1.224 . S
C8 O27 1.247 . S
O9 C8 1.224 . S
N10 Co0 2.128 . S
N10 C11 1.355 . S
N10 C13 1.311 1_554 S
C11 N10 1.355 . S
C11 C12 1.363 1_554 S
C11 H23 0.929 . S
C12 C11 1.363 1_556 S
C12 N14 1.375 . S
C12 H30 0.931 . S
C13 N10 1.311 1_556 S
C13 N14 1.347 . S
C13 H24 0.929 . S
N14 C12 1.375 . S
N14 C13 1.347 . S
C15 C18 1.365 . S
C15 N20 1.328 . S
C15 H21 0.929 . S
C16 C17 1.362 . S
C16 C19 1.378 . S
C16 H31 0.929 . S
C17 C16 1.362 . S
C17 C18 1.366 . S
C18 C15 1.365 . S
C18 C17 1.366 . S
C18 H32 0.930 . S
C19 C16 1.378 . S
C19 N20 1.315 . S
C19 H22 0.930 . S
N20 Co0 2.194 . S
N20 C15 1.328 . S
N20 C19 1.315 . S
H21 C15 0.929 . S
H22 C19 0.930 . S
H23 C11 0.929 . S
H24 C13 0.929 . S
O25 Co0 2.351 . S
O25 C28 1.244 . S
O26 Co0 2.155 . S
O26 C28 1.240 . S
O27 Co0 2.096 . S
O27 C8 1.247 . S
C28 O25 1.244 . S
C28 O26 1.240 . S
H29 C3 0.931 . S
H30 C12 0.931 . S
H31 C16 0.929 . S
H32 C18 0.930 . S
Co33 N37 2.148 . S
Co33 N43 2.128 . S
Co33 N53 2.194 . S
Co33 O58 2.351 . S
Co33 O59 2.155 . S
Co33 O60 2.096 . S
C34 N37 1.301 . S
C34 N38 1.328 . S
C34 H39 0.930 . S
C35 C36 1.328 1_565 S
C35 N37 1.317 . S
C35 H40 0.943 . S
C36 C35 1.328 1_545 S
C36 N38 1.340 1_545 S
C36 H62 0.945 . S
N37 Co33 2.148 . S
N37 C34 1.301 . S
N37 C35 1.317 . S
N38 C34 1.328 . S
N38 C36 1.340 1_565 S
H39 C34 0.930 . S
H40 C35 0.943 . S
C41 O42 1.224 . S
C41 O60 1.247 . S
O42 C41 1.224 . S
N43 Co33 2.128 . S
N43 C44 1.355 . S
N43 C46 1.311 . S
C44 N43 1.355 . S
C44 C45 1.363 . S
C44 H56 0.929 . S
C45 C44 1.363 . S
C45 N47 1.375 . S
C45 H63 0.931 . S
C46 N43 1.311 . S
C46 N47 1.347 . S
C46 H57 0.929 . S
N47 C45 1.375 . S
N47 C46 1.347 . S
C48 C51 1.365 . S
C48 N53 1.328 . S
C48 H54 0.929 . S
C49 C50 1.362 . S
C49 C52 1.378 . S
C49 H64 0.929 . S
C50 C49 1.362 . S
C50 C51 1.366 . S
C51 C48 1.365 . S
C51 C50 1.366 . S
C51 H65 0.930 . S
C52 C49 1.378 . S
C52 N53 1.315 . S
C52 H55 0.930 . S
N53 Co33 2.194 . S
N53 C48 1.328 . S
N53 C52 1.315 . S
H54 C48 0.929 . S
H55 C52 0.930 . S
H56 C44 0.929 . S
H57 C46 0.929 . S
O58 Co33 2.351 . S
O58 C61 1.244 . S
O59 Co33 2.155 . S
O59 C61 1.240 . S
O60 Co33 2.096 . S
O60 C41 1.247 . S
C61 O58 1.244 . S
C61 O59 1.240 . S
H62 C36 0.945 . S
H63 C45 0.931 . S
H64 C49 0.929 . S
H65 C51 0.930 . S
Co66 N70 2.148 . S
Co66 N76 2.128 . S
Co66 N86 2.194 . S
Co66 O91 2.351 . S
Co66 O92 2.155 . S
Co66 O93 2.096 . S
C67 N70 1.301 . S
C67 N71 1.328 . S
C67 H72 0.930 . S
C68 C69 1.333 . S
C68 N70 1.317 . S
C68 H73 0.930 . S
C69 C68 1.333 . S
C69 N71 1.350 . S
C69 H95 0.931 . S
N70 Co66 2.148 . S
N70 C67 1.301 . S
N70 C68 1.317 . S
N71 C67 1.328 . S
N71 C69 1.350 . S
H72 C67 0.930 . S
H73 C68 0.930 . S
C74 O75 1.224 . S
C74 O93 1.247 . S
O75 C74 1.224 . S
N76 Co66 2.128 . S
N76 C77 1.355 . S
N76 C79 1.311 . S
C77 N76 1.355 . S
C77 C78 1.363 . S
C77 H89 0.929 . S
C78 C77 1.363 . S
C78 N80 1.375 . S
C78 H96 0.931 . S
C79 N76 1.311 . S
C79 N80 1.347 . S
C79 H90 0.929 . S
N80 C78 1.375 . S
N80 C79 1.347 . S
C81 C84 1.365 . S
C81 N86 1.328 . S
C81 H87 0.929 . S
C82 C83 1.362 . S
C82 C85 1.378 . S
C82 H97 0.929 . S
C83 C82 1.362 . S
C83 C84 1.366 . S
C84 C81 1.365 . S
C84 C83 1.366 . S
C84 H98 0.930 . S
C85 C82 1.378 . S
C85 N86 1.315 . S
C85 H88 0.930 . S
N86 Co66 2.194 . S
N86 C81 1.328 . S
N86 C85 1.315 . S
H87 C81 0.929 . S
H88 C85 0.930 . S
H89 C77 0.929 . S
H90 C79 0.929 . S
O91 Co66 2.351 . S
O91 C94 1.244 . S
O92 Co66 2.155 . S
O92 C94 1.240 . S
O93 Co66 2.096 . S
O93 C74 1.247 . S
C94 O91 1.244 . S
C94 O92 1.240 . S
H95 C69 0.931 . S
H96 C78 0.931 . S
H97 C82 0.929 . S
H98 C84 0.930 . S
Co99 N103 2.148 . S
Co99 N109 2.128 . S
Co99 N119 2.194 . S
Co99 O124 2.351 . S
Co99 O125 2.155 . S
Co99 O126 2.096 . S
C100 N103 1.301 . S
C100 N104 1.328 . S
C100 H105 0.930 . S
C101 C102 1.328 1_545 S
C101 N103 1.317 . S
C101 H106 0.943 . S
C102 C101 1.328 1_565 S
C102 N104 1.340 1_565 S
C102 H128 0.945 . S
N103 Co99 2.148 . S
N103 C100 1.301 . S
N103 C101 1.317 . S
N104 C100 1.328 . S
N104 C102 1.340 1_545 S
H105 C100 0.930 . S
H106 C101 0.943 . S
C107 O108 1.224 . S
C107 O126 1.247 . S
O108 C107 1.224 . S
N109 Co99 2.128 . S
N109 C110 1.355 . S
N109 C112 1.311 . S
C110 N109 1.355 . S
C110 C111 1.363 . S
C110 H122 0.929 . S
C111 C110 1.363 . S
C111 N113 1.375 . S
C111 H129 0.931 . S
C112 N109 1.311 . S
C112 N113 1.347 . S
C112 H123 0.929 . S
N113 C111 1.375 . S
N113 C112 1.347 . S
C114 C117 1.365 . S
C114 N119 1.328 . S
C114 H120 0.929 . S
C115 C116 1.362 . S
C115 C118 1.378 . S
C115 H130 0.929 . S
C116 C115 1.362 . S
C116 C117 1.366 . S
C117 C114 1.365 . S
C117 C116 1.366 . S
C117 H131 0.930 . S
C118 C115 1.378 . S
C118 N119 1.315 . S
C118 H121 0.930 . S
N119 Co99 2.194 . S
N119 C114 1.328 . S
N119 C118 1.315 . S
H120 C114 0.929 . S
H121 C118 0.930 . S
H122 C110 0.929 . S
H123 C112 0.929 . S
O124 Co99 2.351 . S
O124 C127 1.244 . S
O125 Co99 2.155 . S
O125 C127 1.240 . S
O126 Co99 2.096 . S
O126 C107 1.247 . S
C127 O124 1.244 . S
C127 O125 1.240 . S
H128 C102 0.945 . S
H129 C111 0.931 . S
H130 C115 0.929 . S
H131 C117 0.930 . S
Co132 N136 2.148 . S
Co132 N142 2.128 . S
Co132 N152 2.194 . S
Co132 O157 2.351 . S
Co132 O158 2.155 . S
Co132 O159 2.096 . S
C133 N136 1.301 . S
C133 N137 1.328 . S
C133 H138 0.930 . S
C134 C135 1.333 . S
C134 N136 1.317 . S
C134 H139 0.930 . S
C135 C134 1.333 . S
C135 N137 1.350 . S
C135 H161 0.931 . S
N136 Co132 2.148 . S
N136 C133 1.301 . S
N136 C134 1.317 . S
N137 C133 1.328 . S
N137 C135 1.350 . S
H138 C133 0.930 . S
H139 C134 0.930 . S
C140 O141 1.224 . S
C140 O159 1.247 . S
O141 C140 1.224 . S
N142 Co132 2.128 . S
N142 C143 1.355 . S
N142 C145 1.311 1_556 S
C143 N142 1.355 . S
C143 C144 1.363 1_556 S
C143 H155 0.929 . S
C144 C143 1.363 1_554 S
C144 N146 1.375 . S
C144 H162 0.931 . S
C145 N142 1.311 1_554 S
C145 N146 1.347 . S
C145 H156 0.929 . S
N146 C144 1.375 . S
N146 C145 1.347 . S
C147 C150 1.365 . S
C147 N152 1.328 . S
C147 H153 0.929 . S
C148 C149 1.362 . S
C148 C151 1.378 . S
C148 H163 0.929 . S
C149 C148 1.362 . S
C149 C150 1.366 . S
C150 C147 1.365 . S
C150 C149 1.366 . S
C150 H164 0.930 . S
C151 C148 1.378 . S
C151 N152 1.315 . S
C151 H154 0.930 . S
N152 Co132 2.194 . S
N152 C147 1.328 . S
N152 C151 1.315 . S
H153 C147 0.929 . S
H154 C151 0.930 . S
H155 C143 0.929 . S
H156 C145 0.929 . S
O157 Co132 2.351 . S
O157 C160 1.244 . S
O158 Co132 2.155 . S
O158 C160 1.240 . S
O159 Co132 2.096 . S
O159 C140 1.247 . S
C160 O157 1.244 . S
C160 O158 1.240 . S
H161 C135 0.931 . S
H162 C144 0.931 . S
H163 C148 0.929 . S
H164 C150 0.930 . S
Co165 N169 2.148 . S
Co165 N175 2.128 . S
Co165 N185 2.194 . S
Co165 O190 2.351 . S
Co165 O191 2.155 . S
Co165 O192 2.096 . S
C166 N169 1.301 . S
C166 N170 1.328 . S
C166 H171 0.930 . S
C167 C168 1.328 1_565 S
C167 N169 1.317 . S
C167 H172 0.943 . S
C168 C167 1.328 1_545 S
C168 N170 1.340 1_545 S
C168 H194 0.945 . S
N169 Co165 2.148 . S
N169 C166 1.301 . S
N169 C167 1.317 . S
N170 C166 1.328 . S
N170 C168 1.340 1_565 S
H171 C166 0.930 . S
H172 C167 0.943 . S
C173 O174 1.224 . S
C173 O192 1.247 . S
O174 C173 1.224 . S
N175 Co165 2.128 . S
N175 C176 1.355 . S
N175 C178 1.311 . S
C176 N175 1.355 . S
C176 C177 1.363 . S
C176 H188 0.929 . S
C177 C176 1.363 . S
C177 N179 1.375 . S
C177 H195 0.931 . S
C178 N175 1.311 . S
C178 N179 1.347 . S
C178 H189 0.929 . S
N179 C177 1.375 . S
N179 C178 1.347 . S
C180 C183 1.365 . S
C180 N185 1.328 . S
C180 H186 0.929 . S
C181 C182 1.362 . S
C181 C184 1.378 . S
C181 H196 0.929 . S
C182 C181 1.362 . S
C182 C183 1.366 . S
C183 C180 1.365 . S
C183 C182 1.366 . S
C183 H197 0.930 . S
C184 C181 1.378 . S
C184 N185 1.315 . S
C184 H187 0.930 . S
N185 Co165 2.194 . S
N185 C180 1.328 . S
N185 C184 1.315 . S
H186 C180 0.929 . S
H187 C184 0.930 . S
H188 C176 0.929 . S
H189 C178 0.929 . S
O190 Co165 2.351 . S
O190 C193 1.244 . S
O191 Co165 2.155 . S
O191 C193 1.240 . S
O192 Co165 2.096 . S
O192 C173 1.247 . S
C193 O190 1.244 . S
C193 O191 1.240 . S
H194 C168 0.945 . S
H195 C177 0.931 . S
H196 C181 0.929 . S
H197 C183 0.930 . S
Co198 N202 2.148 . S
Co198 N208 2.128 . S
Co198 N218 2.194 . S
Co198 O223 2.351 . S
Co198 O224 2.155 . S
Co198 O225 2.096 . S
C199 N202 1.301 . S
C199 N203 1.328 . S
C199 H204 0.930 . S
C200 C201 1.333 . S
C200 N202 1.317 . S
C200 H205 0.930 . S
C201 C200 1.333 . S
C201 N203 1.350 . S
C201 H227 0.931 . S
N202 Co198 2.148 . S
N202 C199 1.301 . S
N202 C200 1.317 . S
N203 C199 1.328 . S
N203 C201 1.350 . S
H204 C199 0.930 . S
H205 C200 0.930 . S
C206 O207 1.224 . S
C206 O225 1.247 . S
O207 C206 1.224 . S
N208 Co198 2.128 . S
N208 C209 1.355 . S
N208 C211 1.311 . S
C209 N208 1.355 . S
C209 C210 1.363 . S
C209 H221 0.929 . S
C210 C209 1.363 . S
C210 N212 1.375 . S
C210 H228 0.931 . S
C211 N208 1.311 . S
C211 N212 1.347 . S
C211 H222 0.929 . S
N212 C210 1.375 . S
N212 C211 1.347 . S
C213 C216 1.365 . S
C213 N218 1.328 . S
C213 H219 0.929 . S
C214 C215 1.362 . S
C214 C217 1.378 . S
C214 H229 0.929 . S
C215 C214 1.362 . S
C215 C216 1.366 . S
C216 C213 1.365 . S
C216 C215 1.366 . S
C216 H230 0.930 . S
C217 C214 1.378 . S
C217 N218 1.315 . S
C217 H220 0.930 . S
N218 Co198 2.194 . S
N218 C213 1.328 . S
N218 C217 1.315 . S
H219 C213 0.929 . S
H220 C217 0.930 . S
H221 C209 0.929 . S
H222 C211 0.929 . S
O223 Co198 2.351 . S
O223 C226 1.244 . S
O224 Co198 2.155 . S
O224 C226 1.240 . S
O225 Co198 2.096 . S
O225 C206 1.247 . S
C226 O223 1.244 . S
C226 O224 1.240 . S
H227 C201 0.931 . S
H228 C210 0.931 . S
H229 C214 0.929 . S
H230 C216 0.930 . S
Co231 N235 2.148 . S
Co231 N241 2.128 . S
Co231 N251 2.194 . S
Co231 O256 2.351 . S
Co231 O257 2.155 . S
Co231 O258 2.096 . S
C232 N235 1.301 . S
C232 N236 1.328 . S
C232 H237 0.930 . S
C233 C234 1.328 1_545 S
C233 N235 1.317 . S
C233 H238 0.943 . S
C234 C233 1.328 1_565 S
C234 N236 1.340 1_565 S
C234 H260 0.945 . S
N235 Co231 2.148 . S
N235 C232 1.301 . S
N235 C233 1.317 . S
N236 C232 1.328 . S
N236 C234 1.340 1_545 S
H237 C232 0.930 . S
H238 C233 0.943 . S
C239 O240 1.224 . S
C239 O258 1.247 . S
O240 C239 1.224 . S
N241 Co231 2.128 . S
N241 C242 1.355 . S
N241 C244 1.311 . S
C242 N241 1.355 . S
C242 C243 1.363 . S
C242 H254 0.929 . S
C243 C242 1.363 . S
C243 N245 1.375 . S
C243 H261 0.931 . S
C244 N241 1.311 . S
C244 N245 1.347 . S
C244 H255 0.929 . S
N245 C243 1.375 . S
N245 C244 1.347 . S
C246 C249 1.365 . S
C246 N251 1.328 . S
C246 H252 0.929 . S
C247 C248 1.362 . S
C247 C250 1.378 . S
C247 H262 0.929 . S
C248 C247 1.362 . S
C248 C249 1.366 . S
C249 C246 1.365 . S
C249 C248 1.366 . S
C249 H263 0.930 . S
C250 C247 1.378 . S
C250 N251 1.315 . S
C250 H253 0.930 . S
N251 Co231 2.194 . S
N251 C246 1.328 . S
N251 C250 1.315 . S
H252 C246 0.929 . S
H253 C250 0.930 . S
H254 C242 0.929 . S
H255 C244 0.929 . S
O256 Co231 2.351 . S
O256 C259 1.244 . S
O257 Co231 2.155 . S
O257 C259 1.240 . S
O258 Co231 2.096 . S
O258 C239 1.247 . S
C259 O256 1.244 . S
C259 O257 1.240 . S
H260 C234 0.945 . S
H261 C243 0.931 . S
H262 C247 0.929 . S
H263 C249 0.930 . S
Co264 N268 2.148 . S
Co264 N274 2.128 . S
Co264 N284 2.194 . S
Co264 O289 2.351 . S
Co264 O290 2.155 . S
Co264 O291 2.096 . S
C265 N268 1.301 . S
C265 N269 1.328 . S
C265 H270 0.930 . S
C266 C267 1.333 . S
C266 N268 1.317 . S
C266 H271 0.930 . S
C267 C266 1.333 . S
C267 N269 1.350 . S
C267 H293 0.931 . S
N268 Co264 2.148 . S
N268 C265 1.301 . S
N268 C266 1.317 . S
N269 C265 1.328 . S
N269 C267 1.350 . S
H270 C265 0.930 . S
H271 C266 0.930 . S
C272 O273 1.224 . S
C272 O291 1.247 . S
O273 C272 1.224 . S
N274 Co264 2.128 . S
N274 C275 1.355 . S
N274 C277 1.311 1_556 S
C275 N274 1.355 . S
C275 C276 1.363 1_556 S
C275 H287 0.929 . S
C276 C275 1.363 1_554 S
C276 N278 1.375 . S
C276 H294 0.931 . S
C277 N274 1.311 1_554 S
C277 N278 1.347 . S
C277 H288 0.929 . S
N278 C276 1.375 . S
N278 C277 1.347 . S
C279 C282 1.365 . S
C279 N284 1.328 . S
C279 H285 0.929 . S
C280 C281 1.362 . S
C280 C283 1.378 . S
C280 H295 0.929 . S
C281 C280 1.362 . S
C281 C282 1.366 . S
C282 C279 1.365 . S
C282 C281 1.366 . S
C282 H296 0.930 . S
C283 C280 1.378 . S
C283 N284 1.315 . S
C283 H286 0.930 . S
N284 Co264 2.194 . S
N284 C279 1.328 . S
N284 C283 1.315 . S
H285 C279 0.929 . S
H286 C283 0.930 . S
H287 C275 0.929 . S
H288 C277 0.929 . S
O289 Co264 2.351 . S
O289 C292 1.244 . S
O290 Co264 2.155 . S
O290 C292 1.240 . S
O291 Co264 2.096 . S
O291 C272 1.247 . S
C292 O289 1.244 . S
C292 O290 1.240 . S
H293 C267 0.931 . S
H294 C276 0.931 . S
H295 C280 0.929 . S
H296 C282 0.930 . S
Co297 N301 2.148 . S
Co297 N307 2.128 . S
Co297 N317 2.194 . S
Co297 O322 2.351 . S
Co297 O323 2.155 . S
Co297 O324 2.096 . S
C298 N301 1.301 . S
C298 N302 1.328 . S
C298 H303 0.930 . S
C299 C300 1.328 1_545 S
C299 N301 1.317 . S
C299 H304 0.943 . S
C300 C299 1.328 1_565 S
C300 N302 1.340 1_565 S
C300 H326 0.945 . S
N301 Co297 2.148 . S
N301 C298 1.301 . S
N301 C299 1.317 . S
N302 C298 1.328 . S
N302 C300 1.340 1_545 S
H303 C298 0.930 . S
H304 C299 0.943 . S
C305 O306 1.224 . S
C305 O324 1.247 . S
O306 C305 1.224 . S
N307 Co297 2.128 . S
N307 C308 1.355 . S
N307 C310 1.311 . S
C308 N307 1.355 . S
C308 C309 1.363 . S
C308 H320 0.929 . S
C309 C308 1.363 . S
C309 N311 1.375 . S
C309 H327 0.931 . S
C310 N307 1.311 . S
C310 N311 1.347 . S
C310 H321 0.929 . S
N311 C309 1.375 . S
N311 C310 1.347 . S
C312 C315 1.365 . S
C312 N317 1.328 . S
C312 H318 0.929 . S
C313 C314 1.362 . S
C313 C316 1.378 . S
C313 H328 0.929 . S
C314 C313 1.362 . S
C314 C315 1.366 . S
C315 C312 1.365 . S
C315 C314 1.366 . S
C315 H329 0.930 . S
C316 C313 1.378 . S
C316 N317 1.315 . S
C316 H319 0.930 . S
N317 Co297 2.194 . S
N317 C312 1.328 . S
N317 C316 1.315 . S
H318 C312 0.929 . S
H319 C316 0.930 . S
H320 C308 0.929 . S
H321 C310 0.929 . S
O322 Co297 2.351 . S
O322 C325 1.244 . S
O323 Co297 2.155 . S
O323 C325 1.240 . S
O324 Co297 2.096 . S
O324 C305 1.247 . S
C325 O322 1.244 . S
C325 O323 1.240 . S
H326 C300 0.945 . S
H327 C309 0.931 . S
H328 C313 0.929 . S
H329 C315 0.930 . S
Co330 N334 2.148 . S
Co330 N340 2.128 . S
Co330 N350 2.194 . S
Co330 O355 2.351 . S
Co330 O356 2.155 . S
Co330 O357 2.096 . S
C331 N334 1.301 . S
C331 N335 1.328 . S
C331 H336 0.930 . S
C332 C333 1.333 . S
C332 N334 1.317 . S
C332 H337 0.930 . S
C333 C332 1.333 . S
C333 N335 1.350 . S
C333 H359 0.931 . S
N334 Co330 2.148 . S
N334 C331 1.301 . S
N334 C332 1.317 . S
N335 C331 1.328 . S
N335 C333 1.350 . S
H336 C331 0.930 . S
H337 C332 0.930 . S
C338 O339 1.224 . S
C338 O357 1.247 . S
O339 C338 1.224 . S
N340 Co330 2.128 . S
N340 C341 1.355 . S
N340 C343 1.311 . S
C341 N340 1.355 . S
C341 C342 1.363 . S
C341 H353 0.929 . S
C342 C341 1.363 . S
C342 N344 1.375 . S
C342 H360 0.931 . S
C343 N340 1.311 . S
C343 N344 1.347 . S
C343 H354 0.929 . S
N344 C342 1.375 . S
N344 C343 1.347 . S
C345 C348 1.365 . S
C345 N350 1.328 . S
C345 H351 0.929 . S
C346 C347 1.362 . S
C346 C349 1.378 . S
C346 H361 0.929 . S
C347 C346 1.362 . S
C347 C348 1.366 . S
C348 C345 1.365 . S
C348 C347 1.366 . S
C348 H362 0.930 . S
C349 C346 1.378 . S
C349 N350 1.315 . S
C349 H352 0.930 . S
N350 Co330 2.194 . S
N350 C345 1.328 . S
N350 C349 1.315 . S
H351 C345 0.929 . S
H352 C349 0.930 . S
H353 C341 0.929 . S
H354 C343 0.929 . S
O355 Co330 2.351 . S
O355 C358 1.244 . S
O356 Co330 2.155 . S
O356 C358 1.240 . S
O357 Co330 2.096 . S
O357 C338 1.247 . S
C358 O355 1.244 . S
C358 O356 1.240 . S
H359 C333 0.931 . S
H360 C342 0.931 . S
H361 C346 0.929 . S
H362 C348 0.930 . S
Co363 N367 2.148 . S
Co363 N373 2.128 . S
Co363 N383 2.194 . S
Co363 O388 2.351 . S
Co363 O389 2.155 . S
Co363 O390 2.096 . S
C364 N367 1.301 . S
C364 N368 1.328 . S
C364 H369 0.930 . S
C365 C366 1.328 1_565 S
C365 N367 1.317 . S
C365 H370 0.943 . S
C366 C365 1.328 1_545 S
C366 N368 1.340 1_545 S
C366 H392 0.945 . S
N367 Co363 2.148 . S
N367 C364 1.301 . S
N367 C365 1.317 . S
N368 C364 1.328 . S
N368 C366 1.340 1_565 S
H369 C364 0.930 . S
H370 C365 0.943 . S
C371 O372 1.224 . S
C371 O390 1.247 . S
O372 C371 1.224 . S
N373 Co363 2.128 . S
N373 C374 1.355 . S
N373 C376 1.311 . S
C374 N373 1.355 . S
C374 C375 1.363 . S
C374 H386 0.929 . S
C375 C374 1.363 . S
C375 N377 1.375 . S
C375 H393 0.931 . S
C376 N373 1.311 . S
C376 N377 1.347 . S
C376 H387 0.929 . S
N377 C375 1.375 . S
N377 C376 1.347 . S
C378 C381 1.365 . S
C378 N383 1.328 . S
C378 H384 0.929 . S
C379 C380 1.362 . S
C379 C382 1.378 . S
C379 H394 0.929 . S
C380 C379 1.362 . S
C380 C381 1.366 . S
C381 C378 1.365 . S
C381 C380 1.366 . S
C381 H395 0.930 . S
C382 C379 1.378 . S
C382 N383 1.315 . S
C382 H385 0.930 . S
N383 Co363 2.194 . S
N383 C378 1.328 . S
N383 C382 1.315 . S
H384 C378 0.929 . S
H385 C382 0.930 . S
H386 C374 0.929 . S
H387 C376 0.929 . S
O388 Co363 2.351 . S
O388 C391 1.244 . S
O389 Co363 2.155 . S
O389 C391 1.240 . S
O390 Co363 2.096 . S
O390 C371 1.247 . S
C391 O388 1.244 . S
C391 O389 1.240 . S
H392 C366 0.945 . S
H393 C375 0.931 . S
H394 C379 0.929 . S
H395 C381 0.930 . S
Co396 N400 2.148 . S
Co396 N406 2.128 . S
Co396 N416 2.194 . S
Co396 O421 2.351 . S
Co396 O422 2.155 . S
Co396 O423 2.096 . S
C397 N400 1.301 . S
C397 N401 1.328 . S
C397 H402 0.930 . S
C398 C399 1.333 . S
C398 N400 1.317 . S
C398 H403 0.930 . S
C399 C398 1.333 . S
C399 N401 1.350 . S
C399 H425 0.931 . S
N400 Co396 2.148 . S
N400 C397 1.301 . S
N400 C398 1.317 . S
N401 C397 1.328 . S
N401 C399 1.350 . S
H402 C397 0.930 . S
H403 C398 0.930 . S
C404 O405 1.224 . S
C404 O423 1.247 . S
O405 C404 1.224 . S
N406 Co396 2.128 . S
N406 C407 1.355 . S
N406 C409 1.311 1_554 S
C407 N406 1.355 . S
C407 C408 1.363 1_554 S
C407 H419 0.929 . S
C408 C407 1.363 1_556 S
C408 N410 1.375 . S
C408 H426 0.931 . S
C409 N406 1.311 1_556 S
C409 N410 1.347 . S
C409 H420 0.929 . S
N410 C408 1.375 . S
N410 C409 1.347 . S
C411 C414 1.365 . S
C411 N416 1.328 . S
C411 H417 0.929 . S
C412 C413 1.362 . S
C412 C415 1.378 . S
C412 H427 0.929 . S
C413 C412 1.362 . S
C413 C414 1.366 . S
C414 C411 1.365 . S
C414 C413 1.366 . S
C414 H428 0.930 . S
C415 C412 1.378 . S
C415 N416 1.315 . S
C415 H418 0.930 . S
N416 Co396 2.194 . S
N416 C411 1.328 . S
N416 C415 1.315 . S
H417 C411 0.929 . S
H418 C415 0.930 . S
H419 C407 0.929 . S
H420 C409 0.929 . S
O421 Co396 2.351 . S
O421 C424 1.244 . S
O422 Co396 2.155 . S
O422 C424 1.240 . S
O423 Co396 2.096 . S
O423 C404 1.247 . S
C424 O421 1.244 . S
C424 O422 1.240 . S
H425 C399 0.931 . S
H426 C408 0.931 . S
H427 C412 0.929 . S
H428 C414 0.930 . S
Co429 N433 2.148 . S
Co429 N439 2.128 . S
Co429 N449 2.194 . S
Co429 O454 2.351 . S
Co429 O455 2.155 . S
Co429 O456 2.096 . S
C430 N433 1.301 . S
C430 N434 1.328 . S
C430 H435 0.930 . S
C431 C432 1.328 1_545 S
C431 N433 1.317 . S
C431 H436 0.943 . S
C432 C431 1.328 1_565 S
C432 N434 1.340 1_565 S
C432 H458 0.945 . S
N433 Co429 2.148 . S
N433 C430 1.301 . S
N433 C431 1.317 . S
N434 C430 1.328 . S
N434 C432 1.340 1_545 S
H435 C430 0.930 . S
H436 C431 0.943 . S
C437 O438 1.224 . S
C437 O456 1.247 . S
O438 C437 1.224 . S
N439 Co429 2.128 . S
N439 C440 1.355 . S
N439 C442 1.311 . S
C440 N439 1.355 . S
C440 C441 1.363 . S
C440 H452 0.929 . S
C441 C440 1.363 . S
C441 N443 1.375 . S
C441 H459 0.931 . S
C442 N439 1.311 . S
C442 N443 1.347 . S
C442 H453 0.929 . S
N443 C441 1.375 . S
N443 C442 1.347 . S
C444 C447 1.365 . S
C444 N449 1.328 . S
C444 H450 0.929 . S
C445 C446 1.362 . S
C445 C448 1.378 . S
C445 H460 0.929 . S
C446 C445 1.362 . S
C446 C447 1.366 . S
C447 C444 1.365 . S
C447 C446 1.366 . S
C447 H461 0.930 . S
C448 C445 1.378 . S
C448 N449 1.315 . S
C448 H451 0.930 . S
N449 Co429 2.194 . S
N449 C444 1.328 . S
N449 C448 1.315 . S
H450 C444 0.929 . S
H451 C448 0.930 . S
H452 C440 0.929 . S
H453 C442 0.929 . S
O454 Co429 2.351 . S
O454 C457 1.244 . S
O455 Co429 2.155 . S
O455 C457 1.240 . S
O456 Co429 2.096 . S
O456 C437 1.247 . S
C457 O454 1.244 . S
C457 O455 1.240 . S
H458 C432 0.945 . S
H459 C441 0.931 . S
H460 C445 0.929 . S
H461 C447 0.930 . S
Co462 N466 2.148 . S
Co462 N472 2.128 . S
Co462 N482 2.194 . S
Co462 O487 2.351 . S
Co462 O488 2.155 . S
Co462 O489 2.096 . S
C463 N466 1.301 . S
C463 N467 1.328 . S
C463 H468 0.930 . S
C464 C465 1.333 . S
C464 N466 1.317 . S
C464 H469 0.930 . S
C465 C464 1.333 . S
C465 N467 1.350 . S
C465 H491 0.931 . S
N466 Co462 2.148 . S
N466 C463 1.301 . S
N466 C464 1.317 . S
N467 C463 1.328 . S
N467 C465 1.350 . S
H468 C463 0.930 . S
H469 C464 0.930 . S
C470 O471 1.224 . S
C470 O489 1.247 . S
O471 C470 1.224 . S
N472 Co462 2.128 . S
N472 C473 1.355 . S
N472 C475 1.311 . S
C473 N472 1.355 . S
C473 C474 1.363 . S
C473 H485 0.929 . S
C474 C473 1.363 . S
C474 N476 1.375 . S
C474 H492 0.931 . S
C475 N472 1.311 . S
C475 N476 1.347 . S
C475 H486 0.929 . S
N476 C474 1.375 . S
N476 C475 1.347 . S
C477 C480 1.365 . S
C477 N482 1.328 . S
C477 H483 0.929 . S
C478 C479 1.362 . S
C478 C481 1.378 . S
C478 H493 0.929 . S
C479 C478 1.362 . S
C479 C480 1.366 . S
C480 C477 1.365 . S
C480 C479 1.366 . S
C480 H494 0.930 . S
C481 C478 1.378 . S
C481 N482 1.315 . S
C481 H484 0.930 . S
N482 Co462 2.194 . S
N482 C477 1.328 . S
N482 C481 1.315 . S
H483 C477 0.929 . S
H484 C481 0.930 . S
H485 C473 0.929 . S
H486 C475 0.929 . S
O487 Co462 2.351 . S
O487 C490 1.244 . S
O488 Co462 2.155 . S
O488 C490 1.240 . S
O489 Co462 2.096 . S
O489 C470 1.247 . S
C490 O487 1.244 . S
C490 O488 1.240 . S
H491 C465 0.931 . S
H492 C474 0.931 . S
H493 C478 0.929 . S
H494 C480 0.930 . S
Co495 N499 2.148 . S
Co495 N505 2.128 . S
Co495 N515 2.194 . S
Co495 O520 2.351 . S
Co495 O521 2.155 . S
Co495 O522 2.096 . S
C496 N499 1.301 . S
C496 N500 1.328 . S
C496 H501 0.930 . S
C497 C498 1.328 1_565 S
C497 N499 1.317 . S
C497 H502 0.943 . S
C498 C497 1.328 1_545 S
C498 N500 1.340 1_545 S
C498 H524 0.945 . S
N499 Co495 2.148 . S
N499 C496 1.301 . S
N499 C497 1.317 . S
N500 C496 1.328 . S
N500 C498 1.340 1_565 S
H501 C496 0.930 . S
H502 C497 0.943 . S
C503 O504 1.224 . S
C503 O522 1.247 . S
O504 C503 1.224 . S
N505 Co495 2.128 . S
N505 C506 1.355 . S
N505 C508 1.311 . S
C506 N505 1.355 . S
C506 C507 1.363 . S
C506 H518 0.929 . S
C507 C506 1.363 . S
C507 N509 1.375 . S
C507 H525 0.931 . S
C508 N505 1.311 . S
C508 N509 1.347 . S
C508 H519 0.929 . S
N509 C507 1.375 . S
N509 C508 1.347 . S
C510 C513 1.365 . S
C510 N515 1.328 . S
C510 H516 0.929 . S
C511 C512 1.362 . S
C511 C514 1.378 . S
C511 H526 0.929 . S
C512 C511 1.362 . S
C512 C513 1.366 . S
C513 C510 1.365 . S
C513 C512 1.366 . S
C513 H527 0.930 . S
C514 C511 1.378 . S
C514 N515 1.315 . S
C514 H517 0.930 . S
N515 Co495 2.194 . S
N515 C510 1.328 . S
N515 C514 1.315 . S
H516 C510 0.929 . S
H517 C514 0.930 . S
H518 C506 0.929 . S
H519 C508 0.929 . S
O520 Co495 2.351 . S
O520 C523 1.244 . S
O521 Co495 2.155 . S
O521 C523 1.240 . S
O522 Co495 2.096 . S
O522 C503 1.247 . S
C523 O520 1.244 . S
C523 O521 1.240 . S
H524 C498 0.945 . S
H525 C507 0.931 . S
H526 C511 0.929 . S
H527 C513 0.930 . S
Co528 N532 2.148 . S
Co528 N538 2.128 . S
Co528 N548 2.194 . S
Co528 O553 2.351 . S
Co528 O554 2.155 . S
Co528 O555 2.096 . S
C529 N532 1.301 . S
C529 N533 1.328 . S
C529 H534 0.930 . S
C530 C531 1.333 . S
C530 N532 1.317 . S
C530 H535 0.930 . S
C531 C530 1.333 . S
C531 N533 1.350 . S
C531 H557 0.931 . S
N532 Co528 2.148 . S
N532 C529 1.301 . S
N532 C530 1.317 . S
N533 C529 1.328 . S
N533 C531 1.350 . S
H534 C529 0.930 . S
H535 C530 0.930 . S
C536 O537 1.224 . S
C536 O555 1.247 . S
O537 C536 1.224 . S
N538 Co528 2.128 . S
N538 C539 1.355 . S
N538 C541 1.311 . S
C539 N538 1.355 . S
C539 C540 1.363 . S
C539 H551 0.929 . S
C540 C539 1.363 . S
C540 N542 1.375 . S
C540 H558 0.931 . S
C541 N538 1.311 . S
C541 N542 1.347 . S
C541 H552 0.929 . S
N542 C540 1.375 . S
N542 C541 1.347 . S
C543 C546 1.365 . S
C543 N548 1.328 . S
C543 H549 0.929 . S
C544 C545 1.362 . S
C544 C547 1.378 . S
C544 H559 0.929 . S
C545 C544 1.362 . S
C545 C546 1.366 . S
C546 C543 1.365 . S
C546 C545 1.366 . S
C546 H560 0.930 . S
C547 C544 1.378 . S
C547 N548 1.315 . S
C547 H550 0.930 . S
N548 Co528 2.194 . S
N548 C543 1.328 . S
N548 C547 1.315 . S
H549 C543 0.929 . S
H550 C547 0.930 . S
H551 C539 0.929 . S
H552 C541 0.929 . S
O553 Co528 2.351 . S
O553 C556 1.244 . S
O554 Co528 2.155 . S
O554 C556 1.240 . S
O555 Co528 2.096 . S
O555 C536 1.247 . S
C556 O553 1.244 . S
C556 O554 1.240 . S
H557 C531 0.931 . S
H558 C540 0.931 . S
H559 C544 0.929 . S
H560 C546 0.930 . S
Co561 N565 2.148 . S
Co561 N571 2.128 . S
Co561 N581 2.194 . S
Co561 O586 2.351 . S
Co561 O587 2.155 . S
Co561 O588 2.096 . S
C562 N565 1.301 . S
C562 N566 1.328 . S
C562 H567 0.930 . S
C563 C564 1.333 . S
C563 N565 1.317 . S
C563 H568 0.930 . S
C564 C563 1.333 . S
C564 N566 1.350 . S
C564 H590 0.931 . S
N565 Co561 2.148 . S
N565 C562 1.301 . S
N565 C563 1.317 . S
N566 C562 1.328 . S
N566 C564 1.350 . S
H567 C562 0.930 . S
H568 C563 0.930 . S
C569 O570 1.224 . S
C569 O588 1.247 . S
O570 C569 1.224 . S
N571 Co561 2.128 . S
N571 C572 1.355 . S
N571 C574 1.311 . S
C572 N571 1.355 . S
C572 C573 1.363 . S
C572 H584 0.929 . S
C573 C572 1.363 . S
C573 N575 1.375 . S
C573 H591 0.931 . S
C574 N571 1.311 . S
C574 N575 1.347 . S
C574 H585 0.929 . S
N575 C573 1.375 . S
N575 C574 1.347 . S
C576 C579 1.365 . S
C576 N581 1.328 . S
C576 H582 0.929 . S
C577 C578 1.362 . S
C577 C580 1.378 . S
C577 H592 0.929 . S
C578 C577 1.362 . S
C578 C579 1.366 . S
C579 C576 1.365 . S
C579 C578 1.366 . S
C579 H593 0.930 . S
C580 C577 1.378 . S
C580 N581 1.315 . S
C580 H583 0.930 . S
N581 Co561 2.194 . S
N581 C576 1.328 . S
N581 C580 1.315 . S
H582 C576 0.929 . S
H583 C580 0.930 . S
H584 C572 0.929 . S
H585 C574 0.929 . S
O586 Co561 2.351 . S
O586 C589 1.244 . S
O587 Co561 2.155 . S
O587 C589 1.240 . S
O588 Co561 2.096 . S
O588 C569 1.247 . S
C589 O586 1.244 . S
C589 O587 1.240 . S
H590 C564 0.931 . S
H591 C573 0.931 . S
H592 C577 0.929 . S
H593 C579 0.930 . S
Co594 N598 2.148 . S
Co594 N604 2.128 . S
Co594 N614 2.194 . S
Co594 O619 2.351 . S
Co594 O620 2.155 . S
Co594 O621 2.096 . S
C595 N598 1.301 . S
C595 N599 1.328 . S
C595 H600 0.930 . S
C596 C597 1.333 . S
C596 N598 1.317 . S
C596 H601 0.930 . S
C597 C596 1.333 . S
C597 N599 1.350 . S
C597 H623 0.931 . S
N598 Co594 2.148 . S
N598 C595 1.301 . S
N598 C596 1.317 . S
N599 C595 1.328 . S
N599 C597 1.350 . S
H600 C595 0.930 . S
H601 C596 0.930 . S
C602 O603 1.224 . S
C602 O621 1.247 . S
O603 C602 1.224 . S
N604 Co594 2.128 . S
N604 C605 1.355 . S
N604 C607 1.311 1_554 S
C605 N604 1.355 . S
C605 C606 1.363 1_554 S
C605 H617 0.929 . S
C606 C605 1.363 1_556 S
C606 N608 1.375 . S
C606 H624 0.931 . S
C607 N604 1.311 1_556 S
C607 N608 1.347 . S
C607 H618 0.929 . S
N608 C606 1.375 . S
N608 C607 1.347 . S
C609 C612 1.365 . S
C609 N614 1.328 . S
C609 H615 0.929 . S
C610 C611 1.362 . S
C610 C613 1.378 . S
C610 H625 0.929 . S
C611 C610 1.362 . S
C611 C612 1.366 . S
C612 C609 1.365 . S
C612 C611 1.366 . S
C612 H626 0.930 . S
C613 C610 1.378 . S
C613 N614 1.315 . S
C613 H616 0.930 . S
N614 Co594 2.194 . S
N614 C609 1.328 . S
N614 C613 1.315 . S
H615 C609 0.929 . S
H616 C613 0.930 . S
H617 C605 0.929 . S
H618 C607 0.929 . S
O619 Co594 2.351 . S
O619 C622 1.244 . S
O620 Co594 2.155 . S
O620 C622 1.240 . S
O621 Co594 2.096 . S
O621 C602 1.247 . S
C622 O619 1.244 . S
C622 O620 1.240 . S
H623 C597 0.931 . S
H624 C606 0.931 . S
H625 C610 0.929 . S
H626 C612 0.930 . S
Co627 N631 2.148 . S
Co627 N637 2.128 . S
Co627 N647 2.194 . S
Co627 O652 2.351 . S
Co627 O653 2.155 . S
Co627 O654 2.096 . S
C628 N631 1.301 . S
C628 N632 1.328 . S
C628 H633 0.930 . S
C629 C630 1.333 . S
C629 N631 1.317 . S
C629 H634 0.930 . S
C630 C629 1.333 . S
C630 N632 1.350 . S
C630 H656 0.931 . S
N631 Co627 2.148 . S
N631 C628 1.301 . S
N631 C629 1.317 . S
N632 C628 1.328 . S
N632 C630 1.350 . S
H633 C628 0.930 . S
H634 C629 0.930 . S
C635 O636 1.224 . S
C635 O654 1.247 . S
O636 C635 1.224 . S
N637 Co627 2.128 . S
N637 C638 1.355 . S
N637 C640 1.311 . S
C638 N637 1.355 . S
C638 C639 1.363 . S
C638 H650 0.929 . S
C639 C638 1.363 . S
C639 N641 1.375 . S
C639 H657 0.931 . S
C640 N637 1.311 . S
C640 N641 1.347 . S
C640 H651 0.929 . S
N641 C639 1.375 . S
N641 C640 1.347 . S
C642 C645 1.365 . S
C642 N647 1.328 . S
C642 H648 0.929 . S
C643 C644 1.362 . S
C643 C646 1.378 . S
C643 H658 0.929 . S
C644 C643 1.362 . S
C644 C645 1.366 . S
C645 C642 1.365 . S
C645 C644 1.366 . S
C645 H659 0.930 . S
C646 C643 1.378 . S
C646 N647 1.315 . S
C646 H649 0.930 . S
N647 Co627 2.194 . S
N647 C642 1.328 . S
N647 C646 1.315 . S
H648 C642 0.929 . S
H649 C646 0.930 . S
H650 C638 0.929 . S
H651 C640 0.929 . S
O652 Co627 2.351 . S
O652 C655 1.244 . S
O653 Co627 2.155 . S
O653 C655 1.240 . S
O654 Co627 2.096 . S
O654 C635 1.247 . S
C655 O652 1.244 . S
C655 O653 1.240 . S
H656 C630 0.931 . S
H657 C639 0.931 . S
H658 C643 0.929 . S
H659 C645 0.930 . S
Co660 N664 2.148 . S
Co660 N670 2.128 . S
Co660 N680 2.194 . S
Co660 O685 2.351 . S
Co660 O686 2.155 . S
Co660 O687 2.096 . S
C661 N664 1.301 . S
C661 N665 1.328 . S
C661 H666 0.930 . S
C662 C663 1.333 . S
C662 N664 1.317 . S
C662 H667 0.930 . S
C663 C662 1.333 . S
C663 N665 1.350 . S
C663 H689 0.931 . S
N664 Co660 2.148 . S
N664 C661 1.301 . S
N664 C662 1.317 . S
N665 C661 1.328 . S
N665 C663 1.350 . S
H666 C661 0.930 . S
H667 C662 0.930 . S
C668 O669 1.224 . S
C668 O687 1.247 . S
O669 C668 1.224 . S
N670 Co660 2.128 . S
N670 C671 1.355 . S
N670 C673 1.311 . S
C671 N670 1.355 . S
C671 C672 1.363 . S
C671 H683 0.929 . S
C672 C671 1.363 . S
C672 N674 1.375 . S
C672 H690 0.931 . S
C673 N670 1.311 . S
C673 N674 1.347 . S
C673 H684 0.929 . S
N674 C672 1.375 . S
N674 C673 1.347 . S
C675 C678 1.365 . S
C675 N680 1.328 . S
C675 H681 0.929 . S
C676 C677 1.362 . S
C676 C679 1.378 . S
C676 H691 0.929 . S
C677 C676 1.362 . S
C677 C678 1.366 . S
C678 C675 1.365 . S
C678 C677 1.366 . S
C678 H692 0.930 . S
C679 C676 1.378 . S
C679 N680 1.315 . S
C679 H682 0.930 . S
N680 Co660 2.194 . S
N680 C675 1.328 . S
N680 C679 1.315 . S
H681 C675 0.929 . S
H682 C679 0.930 . S
H683 C671 0.929 . S
H684 C673 0.929 . S
O685 Co660 2.351 . S
O685 C688 1.244 . S
O686 Co660 2.155 . S
O686 C688 1.240 . S
O687 Co660 2.096 . S
O687 C668 1.247 . S
C688 O685 1.244 . S
C688 O686 1.240 . S
H689 C663 0.931 . S
H690 C672 0.931 . S
H691 C676 0.929 . S
H692 C678 0.930 . S
Co693 N697 2.148 . S
Co693 N703 2.128 . S
Co693 N713 2.194 . S
Co693 O718 2.351 . S
Co693 O719 2.155 . S
Co693 O720 2.096 . S
C694 N697 1.301 . S
C694 N698 1.328 . S
C694 H699 0.930 . S
C695 C696 1.333 . S
C695 N697 1.317 . S
C695 H700 0.930 . S
C696 C695 1.333 . S
C696 N698 1.350 . S
C696 H722 0.931 . S
N697 Co693 2.148 . S
N697 C694 1.301 . S
N697 C695 1.317 . S
N698 C694 1.328 . S
N698 C696 1.350 . S
H699 C694 0.930 . S
H700 C695 0.930 . S
C701 O702 1.224 . S
C701 O720 1.247 . S
O702 C701 1.224 . S
N703 Co693 2.128 . S
N703 C704 1.355 . S
N703 C706 1.311 . S
C704 N703 1.355 . S
C704 C705 1.363 . S
C704 H716 0.929 . S
C705 C704 1.363 . S
C705 N707 1.375 . S
C705 H723 0.931 . S
C706 N703 1.311 . S
C706 N707 1.347 . S
C706 H717 0.929 . S
N707 C705 1.375 . S
N707 C706 1.347 . S
C708 C711 1.365 . S
C708 N713 1.328 . S
C708 H714 0.929 . S
C709 C710 1.362 . S
C709 C712 1.378 . S
C709 H724 0.929 . S
C710 C709 1.362 . S
C710 C711 1.366 . S
C711 C708 1.365 . S
C711 C710 1.366 . S
C711 H725 0.930 . S
C712 C709 1.378 . S
C712 N713 1.315 . S
C712 H715 0.930 . S
N713 Co693 2.194 . S
N713 C708 1.328 . S
N713 C712 1.315 . S
H714 C708 0.929 . S
H715 C712 0.930 . S
H716 C704 0.929 . S
H717 C706 0.929 . S
O718 Co693 2.351 . S
O718 C721 1.244 . S
O719 Co693 2.155 . S
O719 C721 1.240 . S
O720 Co693 2.096 . S
O720 C701 1.247 . S
C721 O718 1.244 . S
C721 O719 1.240 . S
H722 C696 0.931 . S
H723 C705 0.931 . S
H724 C709 0.929 . S
H725 C711 0.930 . S
Co726 N730 2.148 . S
Co726 N736 2.128 . S
Co726 N746 2.194 . S
Co726 O751 2.351 . S
Co726 O752 2.155 . S
Co726 O753 2.096 . S
C727 N730 1.301 . S
C727 N731 1.328 . S
C727 H732 0.930 . S
C728 C729 1.333 . S
C728 N730 1.317 . S
C728 H733 0.930 . S
C729 C728 1.333 . S
C729 N731 1.350 . S
C729 H755 0.931 . S
N730 Co726 2.148 . S
N730 C727 1.301 . S
N730 C728 1.317 . S
N731 C727 1.328 . S
N731 C729 1.350 . S
H732 C727 0.930 . S
H733 C728 0.930 . S
C734 O735 1.224 . S
C734 O753 1.247 . S
O735 C734 1.224 . S
N736 Co726 2.128 . S
N736 C737 1.355 . S
N736 C739 1.311 1_556 S
C737 N736 1.355 . S
C737 C738 1.363 1_556 S
C737 H749 0.929 . S
C738 C737 1.363 1_554 S
C738 N740 1.375 . S
C738 H756 0.931 . S
C739 N736 1.311 1_554 S
C739 N740 1.347 . S
C739 H750 0.929 . S
N740 C738 1.375 . S
N740 C739 1.347 . S
C741 C744 1.365 . S
C741 N746 1.328 . S
C741 H747 0.929 . S
C742 C743 1.362 . S
C742 C745 1.378 . S
C742 H757 0.929 . S
C743 C742 1.362 . S
C743 C744 1.366 . S
C744 C741 1.365 . S
C744 C743 1.366 . S
C744 H758 0.930 . S
C745 C742 1.378 . S
C745 N746 1.315 . S
C745 H748 0.930 . S
N746 Co726 2.194 . S
N746 C741 1.328 . S
N746 C745 1.315 . S
H747 C741 0.929 . S
H748 C745 0.930 . S
H749 C737 0.929 . S
H750 C739 0.929 . S
O751 Co726 2.351 . S
O751 C754 1.244 . S
O752 Co726 2.155 . S
O752 C754 1.240 . S
O753 Co726 2.096 . S
O753 C734 1.247 . S
C754 O751 1.244 . S
C754 O752 1.240 . S
H755 C729 0.931 . S
H756 C738 0.931 . S
H757 C742 0.929 . S
H758 C744 0.930 . S
Co759 N763 2.148 . S
Co759 N769 2.128 . S
Co759 N779 2.194 . S
Co759 O784 2.351 . S
Co759 O785 2.155 . S
Co759 O786 2.096 . S
C760 N763 1.301 . S
C760 N764 1.328 . S
C760 H765 0.930 . S
C761 C762 1.333 . S
C761 N763 1.317 . S
C761 H766 0.930 . S
C762 C761 1.333 . S
C762 N764 1.350 . S
C762 H788 0.931 . S
N763 Co759 2.148 . S
N763 C760 1.301 . S
N763 C761 1.317 . S
N764 C760 1.328 . S
N764 C762 1.350 . S
H765 C760 0.930 . S
H766 C761 0.930 . S
C767 O768 1.224 . S
C767 O786 1.247 . S
O768 C767 1.224 . S
N769 Co759 2.128 . S
N769 C770 1.355 . S
N769 C772 1.311 . S
C770 N769 1.355 . S
C770 C771 1.363 . S
C770 H782 0.929 . S
C771 C770 1.363 . S
C771 N773 1.375 . S
C771 H789 0.931 . S
C772 N769 1.311 . S
C772 N773 1.347 . S
C772 H783 0.929 . S
N773 C771 1.375 . S
N773 C772 1.347 . S
C774 C777 1.365 . S
C774 N779 1.328 . S
C774 H780 0.929 . S
C775 C776 1.362 . S
C775 C778 1.378 . S
C775 H790 0.929 . S
C776 C775 1.362 . S
C776 C777 1.366 . S
C777 C774 1.365 . S
C777 C776 1.366 . S
C777 H791 0.930 . S
C778 C775 1.378 . S
C778 N779 1.315 . S
C778 H781 0.930 . S
N779 Co759 2.194 . S
N779 C774 1.328 . S
N779 C778 1.315 . S
H780 C774 0.929 . S
H781 C778 0.930 . S
H782 C770 0.929 . S
H783 C772 0.929 . S
O784 Co759 2.351 . S
O784 C787 1.244 . S
O785 Co759 2.155 . S
O785 C787 1.240 . S
O786 Co759 2.096 . S
O786 C767 1.247 . S
C787 O784 1.244 . S
C787 O785 1.240 . S
H788 C762 0.931 . S
H789 C771 0.931 . S
H790 C775 0.929 . S
H791 C777 0.930 . S
Co792 N796 2.148 . S
Co792 N802 2.128 . S
Co792 N812 2.194 . S
Co792 O817 2.351 . S
Co792 O818 2.155 . S
Co792 O819 2.096 . S
C793 N796 1.301 . S
C793 N797 1.328 . S
C793 H798 0.930 . S
C794 C795 1.333 . S
C794 N796 1.317 . S
C794 H799 0.930 . S
C795 C794 1.333 . S
C795 N797 1.350 . S
C795 H821 0.931 . S
N796 Co792 2.148 . S
N796 C793 1.301 . S
N796 C794 1.317 . S
N797 C793 1.328 . S
N797 C795 1.350 . S
H798 C793 0.930 . S
H799 C794 0.930 . S
C800 O801 1.224 . S
C800 O819 1.247 . S
O801 C800 1.224 . S
N802 Co792 2.128 . S
N802 C803 1.355 . S
N802 C805 1.311 . S
C803 N802 1.355 . S
C803 C804 1.363 . S
C803 H815 0.929 . S
C804 C803 1.363 . S
C804 N806 1.375 . S
C804 H822 0.931 . S
C805 N802 1.311 . S
C805 N806 1.347 . S
C805 H816 0.929 . S
N806 C804 1.375 . S
N806 C805 1.347 . S
C807 C810 1.365 . S
C807 N812 1.328 . S
C807 H813 0.929 . S
C808 C809 1.362 . S
C808 C811 1.378 . S
C808 H823 0.929 . S
C809 C808 1.362 . S
C809 C810 1.366 . S
C810 C807 1.365 . S
C810 C809 1.366 . S
C810 H824 0.930 . S
C811 C808 1.378 . S
C811 N812 1.315 . S
C811 H814 0.930 . S
N812 Co792 2.194 . S
N812 C807 1.328 . S
N812 C811 1.315 . S
H813 C807 0.929 . S
H814 C811 0.930 . S
H815 C803 0.929 . S
H816 C805 0.929 . S
O817 Co792 2.351 . S
O817 C820 1.244 . S
O818 Co792 2.155 . S
O818 C820 1.240 . S
O819 Co792 2.096 . S
O819 C800 1.247 . S
C820 O817 1.244 . S
C820 O818 1.240 . S
H821 C795 0.931 . S
H822 C804 0.931 . S
H823 C808 0.929 . S
H824 C810 0.930 . S
Co825 N829 2.148 . S
Co825 N835 2.128 . S
Co825 N845 2.194 . S
Co825 O850 2.351 . S
Co825 O851 2.155 . S
Co825 O852 2.096 . S
C826 N829 1.301 . S
C826 N830 1.328 . S
C826 H831 0.930 . S
C827 C828 1.333 . S
C827 N829 1.317 . S
C827 H832 0.930 . S
C828 C827 1.333 . S
C828 N830 1.350 . S
C828 H854 0.931 . S
N829 Co825 2.148 . S
N829 C826 1.301 . S
N829 C827 1.317 . S
N830 C826 1.328 . S
N830 C828 1.350 . S
H831 C826 0.930 . S
H832 C827 0.930 . S
C833 O834 1.224 . S
C833 O852 1.247 . S
O834 C833 1.224 . S
N835 Co825 2.128 . S
N835 C836 1.355 . S
N835 C838 1.311 . S
C836 N835 1.355 . S
C836 C837 1.363 . S
C836 H848 0.929 . S
C837 C836 1.363 . S
C837 N839 1.375 . S
C837 H855 0.931 . S
C838 N835 1.311 . S
C838 N839 1.347 . S
C838 H849 0.929 . S
N839 C837 1.375 . S
N839 C838 1.347 . S
C840 C843 1.365 . S
C840 N845 1.328 . S
C840 H846 0.929 . S
C841 C842 1.362 . S
C841 C844 1.378 . S
C841 H856 0.929 . S
C842 C841 1.362 . S
C842 C843 1.366 . S
C843 C840 1.365 . S
C843 C842 1.366 . S
C843 H857 0.930 . S
C844 C841 1.378 . S
C844 N845 1.315 . S
C844 H847 0.930 . S
N845 Co825 2.194 . S
N845 C840 1.328 . S
N845 C844 1.315 . S
H846 C840 0.929 . S
H847 C844 0.930 . S
H848 C836 0.929 . S
H849 C838 0.929 . S
O850 Co825 2.351 . S
O850 C853 1.244 . S
O851 Co825 2.155 . S
O851 C853 1.240 . S
O852 Co825 2.096 . S
O852 C833 1.247 . S
C853 O850 1.244 . S
C853 O851 1.240 . S
H854 C828 0.931 . S
H855 C837 0.931 . S
H856 C841 0.929 . S
H857 C843 0.930 . S
Co858 N862 2.148 . S
Co858 N868 2.128 . S
Co858 N878 2.194 . S
Co858 O883 2.351 . S
Co858 O884 2.155 . S
Co858 O885 2.096 . S
C859 N862 1.301 . S
C859 N863 1.328 . S
C859 H864 0.930 . S
C860 C861 1.333 . S
C860 N862 1.317 . S
C860 H865 0.930 . S
C861 C860 1.333 . S
C861 N863 1.350 . S
C861 H887 0.931 . S
N862 Co858 2.148 . S
N862 C859 1.301 . S
N862 C860 1.317 . S
N863 C859 1.328 . S
N863 C861 1.350 . S
H864 C859 0.930 . S
H865 C860 0.930 . S
C866 O867 1.224 . S
C866 O885 1.247 . S
O867 C866 1.224 . S
N868 Co858 2.128 . S
N868 C869 1.355 . S
N868 C871 1.311 1_556 S
C869 N868 1.355 . S
C869 C870 1.363 1_556 S
C869 H881 0.929 . S
C870 C869 1.363 1_554 S
C870 N872 1.375 . S
C870 H888 0.931 . S
C871 N868 1.311 1_554 S
C871 N872 1.347 . S
C871 H882 0.929 . S
N872 C870 1.375 . S
N872 C871 1.347 . S
C873 C876 1.365 . S
C873 N878 1.328 . S
C873 H879 0.929 . S
C874 C875 1.362 . S
C874 C877 1.378 . S
C874 H889 0.929 . S
C875 C874 1.362 . S
C875 C876 1.366 . S
C876 C873 1.365 . S
C876 C875 1.366 . S
C876 H890 0.930 . S
C877 C874 1.378 . S
C877 N878 1.315 . S
C877 H880 0.930 . S
N878 Co858 2.194 . S
N878 C873 1.328 . S
N878 C877 1.315 . S
H879 C873 0.929 . S
H880 C877 0.930 . S
H881 C869 0.929 . S
H882 C871 0.929 . S
O883 Co858 2.351 . S
O883 C886 1.244 . S
O884 Co858 2.155 . S
O884 C886 1.240 . S
O885 Co858 2.096 . S
O885 C866 1.247 . S
C886 O883 1.244 . S
C886 O884 1.240 . S
H887 C861 0.931 . S
H888 C870 0.931 . S
H889 C874 0.929 . S
H890 C876 0.930 . S
Co891 N895 2.148 . S
Co891 N901 2.128 . S
Co891 N911 2.194 . S
Co891 O916 2.351 . S
Co891 O917 2.155 . S
Co891 O918 2.096 . S
C892 N895 1.301 . S
C892 N896 1.328 . S
C892 H897 0.930 . S
C893 C894 1.333 . S
C893 N895 1.317 . S
C893 H898 0.930 . S
C894 C893 1.333 . S
C894 N896 1.350 . S
C894 H920 0.931 . S
N895 Co891 2.148 . S
N895 C892 1.301 . S
N895 C893 1.317 . S
N896 C892 1.328 . S
N896 C894 1.350 . S
H897 C892 0.930 . S
H898 C893 0.930 . S
C899 O900 1.224 . S
C899 O918 1.247 . S
O900 C899 1.224 . S
N901 Co891 2.128 . S
N901 C902 1.355 . S
N901 C904 1.311 . S
C902 N901 1.355 . S
C902 C903 1.363 . S
C902 H914 0.929 . S
C903 C902 1.363 . S
C903 N905 1.375 . S
C903 H921 0.931 . S
C904 N901 1.311 . S
C904 N905 1.347 . S
C904 H915 0.929 . S
N905 C903 1.375 . S
N905 C904 1.347 . S
C906 C909 1.365 . S
C906 N911 1.328 . S
C906 H912 0.929 . S
C907 C908 1.362 . S
C907 C910 1.378 . S
C907 H922 0.929 . S
C908 C907 1.362 . S
C908 C909 1.366 . S
C909 C906 1.365 . S
C909 C908 1.366 . S
C909 H923 0.930 . S
C910 C907 1.378 . S
C910 N911 1.315 . S
C910 H913 0.930 . S
N911 Co891 2.194 . S
N911 C906 1.328 . S
N911 C910 1.315 . S
H912 C906 0.929 . S
H913 C910 0.930 . S
H914 C902 0.929 . S
H915 C904 0.929 . S
O916 Co891 2.351 . S
O916 C919 1.244 . S
O917 Co891 2.155 . S
O917 C919 1.240 . S
O918 Co891 2.096 . S
O918 C899 1.247 . S
C919 O916 1.244 . S
C919 O917 1.240 . S
H920 C894 0.931 . S
H921 C903 0.931 . S
H922 C907 0.929 . S
H923 C909 0.930 . S
Co924 N928 2.148 . S
Co924 N934 2.128 . S
Co924 N944 2.194 . S
Co924 O949 2.351 . S
Co924 O950 2.155 . S
Co924 O951 2.096 . S
C925 N928 1.301 . S
C925 N929 1.328 . S
C925 H930 0.930 . S
C926 C927 1.333 . S
C926 N928 1.317 . S
C926 H931 0.930 . S
C927 C926 1.333 . S
C927 N929 1.350 . S
C927 H953 0.931 . S
N928 Co924 2.148 . S
N928 C925 1.301 . S
N928 C926 1.317 . S
N929 C925 1.328 . S
N929 C927 1.350 . S
H930 C925 0.930 . S
H931 C926 0.930 . S
C932 O933 1.224 . S
C932 O951 1.247 . S
O933 C932 1.224 . S
N934 Co924 2.128 . S
N934 C935 1.355 . S
N934 C937 1.311 . S
C935 N934 1.355 . S
C935 C936 1.363 . S
C935 H947 0.929 . S
C936 C935 1.363 . S
C936 N938 1.375 . S
C936 H954 0.931 . S
C937 N934 1.311 . S
C937 N938 1.347 . S
C937 H948 0.929 . S
N938 C936 1.375 . S
N938 C937 1.347 . S
C939 C942 1.365 . S
C939 N944 1.328 . S
C939 H945 0.929 . S
C940 C941 1.362 . S
C940 C943 1.378 . S
C940 H955 0.929 . S
C941 C940 1.362 . S
C941 C942 1.366 . S
C942 C939 1.365 . S
C942 C941 1.366 . S
C942 H956 0.930 . S
C943 C940 1.378 . S
C943 N944 1.315 . S
C943 H946 0.930 . S
N944 Co924 2.194 . S
N944 C939 1.328 . S
N944 C943 1.315 . S
H945 C939 0.929 . S
H946 C943 0.930 . S
H947 C935 0.929 . S
H948 C937 0.929 . S
O949 Co924 2.351 . S
O949 C952 1.244 . S
O950 Co924 2.155 . S
O950 C952 1.240 . S
O951 Co924 2.096 . S
O951 C932 1.247 . S
C952 O949 1.244 . S
C952 O950 1.240 . S
H953 C927 0.931 . S
H954 C936 0.931 . S
H955 C940 0.929 . S
H956 C942 0.930 . S
Co957 N961 2.148 . S
Co957 N967 2.128 . S
Co957 N977 2.194 . S
Co957 O982 2.351 . S
Co957 O983 2.155 . S
Co957 O984 2.096 . S
C958 N961 1.301 . S
C958 N962 1.328 . S
C958 H963 0.930 . S
C959 C960 1.333 . S
C959 N961 1.317 . S
C959 H964 0.930 . S
C960 C959 1.333 . S
C960 N962 1.350 . S
C960 H986 0.931 . S
N961 Co957 2.148 . S
N961 C958 1.301 . S
N961 C959 1.317 . S
N962 C958 1.328 . S
N962 C960 1.350 . S
H963 C958 0.930 . S
H964 C959 0.930 . S
C965 O966 1.224 . S
C965 O984 1.247 . S
O966 C965 1.224 . S
N967 Co957 2.128 . S
N967 C968 1.355 . S
N967 C970 1.311 . S
C968 N967 1.355 . S
C968 C969 1.363 . S
C968 H980 0.929 . S
C969 C968 1.363 . S
C969 N971 1.375 . S
C969 H987 0.931 . S
C970 N967 1.311 . S
C970 N971 1.347 . S
C970 H981 0.929 . S
N971 C969 1.375 . S
N971 C970 1.347 . S
C972 C975 1.365 . S
C972 N977 1.328 . S
C972 H978 0.929 . S
C973 C974 1.362 . S
C973 C976 1.378 . S
C973 H988 0.929 . S
C974 C973 1.362 . S
C974 C975 1.366 . S
C975 C972 1.365 . S
C975 C974 1.366 . S
C975 H989 0.930 . S
C976 C973 1.378 . S
C976 N977 1.315 . S
C976 H979 0.930 . S
N977 Co957 2.194 . S
N977 C972 1.328 . S
N977 C976 1.315 . S
H978 C972 0.929 . S
H979 C976 0.930 . S
H980 C968 0.929 . S
H981 C970 0.929 . S
O982 Co957 2.351 . S
O982 C985 1.244 . S
O983 Co957 2.155 . S
O983 C985 1.240 . S
O984 Co957 2.096 . S
O984 C965 1.247 . S
C985 O982 1.244 . S
C985 O983 1.240 . S
H986 C960 0.931 . S
H987 C969 0.931 . S
H988 C973 0.929 . S
H989 C975 0.930 . S
Co990 N994 2.148 . S
Co990 N1000 2.128 . S
Co990 N1010 2.194 . S
Co990 O1015 2.351 . S
Co990 O1016 2.155 . S
Co990 O1017 2.096 . S
C991 N994 1.301 . S
C991 N995 1.328 . S
C991 H996 0.930 . S
C992 C993 1.333 . S
C992 N994 1.317 . S
C992 H997 0.930 . S
C993 C992 1.333 . S
C993 N995 1.350 . S
C993 H1019 0.931 . S
N994 Co990 2.148 . S
N994 C991 1.301 . S
N994 C992 1.317 . S
N995 C991 1.328 . S
N995 C993 1.350 . S
H996 C991 0.930 . S
H997 C992 0.930 . S
C998 O999 1.224 . S
C998 O1017 1.247 . S
O999 C998 1.224 . S
N1000 Co990 2.128 . S
N1000 C1001 1.355 . S
N1000 C1003 1.311 1_554 S
C1001 N1000 1.355 . S
C1001 C1002 1.363 1_554 S
C1001 H1013 0.929 . S
C1002 C1001 1.363 1_556 S
C1002 N1004 1.375 . S
C1002 H1020 0.931 . S
C1003 N1000 1.311 1_556 S
C1003 N1004 1.347 . S
C1003 H1014 0.929 . S
N1004 C1002 1.375 . S
N1004 C1003 1.347 . S
C1005 C1008 1.365 . S
C1005 N1010 1.328 . S
C1005 H1011 0.929 . S
C1006 C1007 1.362 . S
C1006 C1009 1.378 . S
C1006 H1021 0.929 . S
C1007 C1006 1.362 . S
C1007 C1008 1.366 . S
C1008 C1005 1.365 . S
C1008 C1007 1.366 . S
C1008 H1022 0.930 . S
C1009 C1006 1.378 . S
C1009 N1010 1.315 . S
C1009 H1012 0.930 . S
N1010 Co990 2.194 . S
N1010 C1005 1.328 . S
N1010 C1009 1.315 . S
H1011 C1005 0.929 . S
H1012 C1009 0.930 . S
H1013 C1001 0.929 . S
H1014 C1003 0.929 . S
O1015 Co990 2.351 . S
O1015 C1018 1.244 . S
O1016 Co990 2.155 . S
O1016 C1018 1.240 . S
O1017 Co990 2.096 . S
O1017 C998 1.247 . S
C1018 O1015 1.244 . S
C1018 O1016 1.240 . S
H1019 C993 0.931 . S
H1020 C1002 0.931 . S
H1021 C1006 0.929 . S
H1022 C1008 0.930 . S
Co1023 N1027 2.148 . S
Co1023 N1033 2.128 . S
Co1023 N1043 2.194 . S
Co1023 O1048 2.351 . S
Co1023 O1049 2.155 . S
Co1023 O1050 2.096 . S
C1024 N1027 1.301 . S
C1024 N1028 1.328 . S
C1024 H1029 0.930 . S
C1025 C1026 1.333 . S
C1025 N1027 1.317 . S
C1025 H1030 0.930 . S
C1026 C1025 1.333 . S
C1026 N1028 1.350 . S
C1026 H1052 0.931 . S
N1027 Co1023 2.148 . S
N1027 C1024 1.301 . S
N1027 C1025 1.317 . S
N1028 C1024 1.328 . S
N1028 C1026 1.350 . S
H1029 C1024 0.930 . S
H1030 C1025 0.930 . S
C1031 O1032 1.224 . S
C1031 O1050 1.247 . S
O1032 C1031 1.224 . S
N1033 Co1023 2.128 . S
N1033 C1034 1.355 . S
N1033 C1036 1.311 . S
C1034 N1033 1.355 . S
C1034 C1035 1.363 . S
C1034 H1046 0.929 . S
C1035 C1034 1.363 . S
C1035 N1037 1.375 . S
C1035 H1053 0.931 . S
C1036 N1033 1.311 . S
C1036 N1037 1.347 . S
C1036 H1047 0.929 . S
N1037 C1035 1.375 . S
N1037 C1036 1.347 . S
C1038 C1041 1.365 . S
C1038 N1043 1.328 . S
C1038 H1044 0.929 . S
C1039 C1040 1.362 . S
C1039 C1042 1.378 . S
C1039 H1054 0.929 . S
C1040 C1039 1.362 . S
C1040 C1041 1.366 . S
C1041 C1038 1.365 . S
C1041 C1040 1.366 . S
C1041 H1055 0.930 . S
C1042 C1039 1.378 . S
C1042 N1043 1.315 . S
C1042 H1045 0.930 . S
N1043 Co1023 2.194 . S
N1043 C1038 1.328 . S
N1043 C1042 1.315 . S
H1044 C1038 0.929 . S
H1045 C1042 0.930 . S
H1046 C1034 0.929 . S
H1047 C1036 0.929 . S
O1048 Co1023 2.351 . S
O1048 C1051 1.244 . S
O1049 Co1023 2.155 . S
O1049 C1051 1.240 . S
O1050 Co1023 2.096 . S
O1050 C1031 1.247 . S
C1051 O1048 1.244 . S
C1051 O1049 1.240 . S
H1052 C1026 0.931 . S
H1053 C1035 0.931 . S
H1054 C1039 0.929 . S
H1055 C1041 0.930 . S
H1056 C1064 0.950 1_565 S
H1057 C1069 0.950 . S
H1058 C1066 0.950 . S
H1059 C1068 0.950 . S
H1060 C1070 0.950 . S
H1061 C1072 0.950 . S
H1062 C1074 0.950 . S
H1063 C1075 0.950 . S
C1064 H1056 0.950 1_545 S
C1064 C1065 1.386 . S
C1064 C1066 1.391 . S
C1065 C1064 1.386 . S
C1065 C1069 1.393 . S
C1066 H1058 0.950 . S
C1066 C1064 1.391 . S
C1066 C1067 1.400 . S
C1067 C1066 1.400 . S
C1067 C1068 1.398 . S
C1067 C1073 1.491 . S
C1068 H1059 0.950 . S
C1068 C1067 1.398 . S
C1068 C1069 1.391 . S
C1069 H1057 0.950 . S
C1069 C1065 1.393 . S
C1069 C1068 1.391 . S
C1070 H1060 0.950 . S
C1070 C1071 1.386 . S
C1070 C1072 1.391 . S
C1071 C1070 1.386 . S
C1071 C1075 1.393 . S
C1072 H1061 0.950 . S
C1072 C1070 1.391 . S
C1072 C1073 1.400 . S
C1073 C1067 1.491 . S
C1073 C1072 1.400 . S
C1073 C1074 1.398 . S
C1074 H1062 0.950 . S
C1074 C1073 1.398 . S
C1074 C1075 1.391 . S
C1075 H1063 0.950 . S
C1075 C1071 1.393 . S
C1075 C1074 1.391 . S
H1076 C1084 0.950 . S
H1077 C1089 0.950 . S
H1078 C1086 0.950 . S
H1079 C1088 0.950 . S
H1080 C1090 0.950 . S
H1081 C1092 0.950 . S
H1082 C1094 0.950 . S
H1083 C1095 0.950 . S
C1084 H1076 0.950 . S
C1084 C1085 1.386 . S
C1084 C1086 1.391 . S
C1085 C1084 1.386 . S
C1085 C1089 1.393 . S
C1086 H1078 0.950 . S
C1086 C1084 1.391 . S
C1086 C1087 1.400 . S
C1087 C1086 1.400 . S
C1087 C1088 1.398 . S
C1087 C1093 1.491 . S
C1088 H1079 0.950 . S
C1088 C1087 1.398 . S
C1088 C1089 1.391 . S
C1089 H1077 0.950 . S
C1089 C1085 1.393 . S
C1089 C1088 1.391 . S
C1090 H1080 0.950 . S
C1090 C1091 1.386 . S
C1090 C1092 1.391 . S
C1091 C1090 1.386 . S
C1091 C1095 1.393 . S
C1092 H1081 0.950 . S
C1092 C1090 1.391 . S
C1092 C1093 1.400 . S
C1093 C1087 1.491 . S
C1093 C1092 1.400 . S
C1093 C1094 1.398 . S
C1094 H1082 0.950 . S
C1094 C1093 1.398 . S
C1094 C1095 1.391 . S
C1095 H1083 0.950 . S
C1095 C1091 1.393 . S
C1095 C1094 1.391 . S
H1096 C1104 0.950 . S
H1097 C1109 0.950 . S
H1098 C1106 0.950 . S
H1099 C1108 0.950 . S
H1100 C1110 0.950 . S
H1101 C1112 0.950 . S
H1102 C1114 0.950 . S
H1103 C1115 0.922 1_545 S
C1104 H1096 0.950 . S
C1104 C1105 1.386 . S
C1104 C1106 1.391 . S
C1105 C1104 1.386 . S
C1105 C1109 1.393 . S
C1106 H1098 0.950 . S
C1106 C1104 1.391 . S
C1106 C1107 1.400 . S
C1107 C1106 1.400 . S
C1107 C1108 1.398 . S
C1107 C1113 1.491 . S
C1108 H1099 0.950 . S
C1108 C1107 1.398 . S
C1108 C1109 1.391 . S
C1109 H1097 0.950 . S
C1109 C1105 1.393 . S
C1109 C1108 1.391 . S
C1110 H1100 0.950 . S
C1110 C1111 1.386 . S
C1110 C1112 1.391 . S
C1111 C1110 1.386 . S
C1111 C1115 1.400 . S
C1112 H1101 0.950 . S
C1112 C1110 1.391 . S
C1112 C1113 1.400 . S
C1113 C1107 1.491 . S
C1113 C1112 1.400 . S
C1113 C1114 1.398 . S
C1114 H1102 0.950 . S
C1114 C1113 1.398 . S
C1114 C1115 1.412 . S
C1115 H1103 0.922 1_565 S
C1115 C1111 1.400 . S
C1115 C1114 1.412 . S
H1116 C1124 0.950 . S
H1117 C1129 0.950 . S
H1118 C1126 0.950 . S
H1119 C1128 0.950 . S
H1120 C1130 0.950 . S
H1121 C1132 0.950 . S
H1122 C1134 0.950 . S
H1123 C1135 0.950 1_554 S
C1124 H1116 0.950 . S
C1124 C1125 1.386 . S
C1124 C1126 1.391 . S
C1125 C1124 1.386 . S
C1125 C1129 1.393 . S
C1126 H1118 0.950 . S
C1126 C1124 1.391 . S
C1126 C1127 1.400 . S
C1127 C1126 1.400 . S
C1127 C1128 1.398 . S
C1127 C1133 1.491 . S
C1128 H1119 0.950 . S
C1128 C1127 1.398 . S
C1128 C1129 1.391 . S
C1129 H1117 0.950 . S
C1129 C1125 1.393 . S
C1129 C1128 1.391 . S
C1130 H1120 0.950 . S
C1130 C1131 1.386 . S
C1130 C1132 1.391 . S
C1131 C1130 1.386 . S
C1131 C1135 1.393 . S
C1132 H1121 0.950 . S
C1132 C1130 1.391 . S
C1132 C1133 1.400 . S
C1133 C1127 1.491 . S
C1133 C1132 1.400 . S
C1133 C1134 1.398 . S
C1134 H1122 0.950 . S
C1134 C1133 1.398 . S
C1134 C1135 1.391 . S
C1135 H1123 0.950 1_556 S
C1135 C1131 1.393 . S
C1135 C1134 1.391 . S
H1136 C1144 0.950 . S
H1137 C1149 0.950 . S
H1138 C1146 0.950 . S
H1139 C1148 0.950 . S
H1140 C1150 0.950 . S
H1141 C1152 0.950 . S
H1142 C1154 0.950 . S
H1143 C1155 0.950 . S
C1144 H1136 0.950 . S
C1144 C1145 1.386 . S
C1144 C1146 1.391 . S
C1145 C1144 1.386 . S
C1145 C1149 1.393 . S
C1146 H1138 0.950 . S
C1146 C1144 1.391 . S
C1146 C1147 1.400 . S
C1147 C1146 1.400 . S
C1147 C1148 1.398 . S
C1147 C1153 1.491 . S
C1148 H1139 0.950 . S
C1148 C1147 1.398 . S
C1148 C1149 1.391 . S
C1149 H1137 0.950 . S
C1149 C1145 1.393 . S
C1149 C1148 1.391 . S
C1150 H1140 0.950 . S
C1150 C1151 1.386 . S
C1150 C1152 1.391 . S
C1151 C1150 1.386 . S
C1151 C1155 1.393 . S
C1152 H1141 0.950 . S
C1152 C1150 1.391 . S
C1152 C1153 1.400 . S
C1153 C1147 1.491 . S
C1153 C1152 1.400 . S
C1153 C1154 1.398 . S
C1154 H1142 0.950 . S
C1154 C1153 1.398 . S
C1154 C1155 1.391 . S
C1155 H1143 0.950 . S
C1155 C1151 1.393 . S
C1155 C1154 1.391 . S
H1156 C1164 0.950 . S
H1157 C1169 0.929 1_556 S
H1158 C1166 0.950 . S
H1159 C1168 0.950 . S
H1160 C1170 0.950 . S
H1161 C1172 0.950 . S
H1162 C1174 0.950 . S
H1163 C1175 0.950 . S
C1164 H1156 0.950 . S
C1164 C1165 1.386 . S
C1164 C1166 1.391 . S
C1165 C1164 1.386 . S
C1165 C1169 1.399 . S
C1166 H1158 0.950 . S
C1166 C1164 1.391 . S
C1166 C1167 1.400 . S
C1167 C1166 1.400 . S
C1167 C1168 1.398 . S
C1167 C1173 1.491 . S
C1168 H1159 0.950 . S
C1168 C1167 1.398 . S
C1168 C1169 1.405 . S
C1169 H1157 0.929 1_554 S
C1169 C1165 1.399 . S
C1169 C1168 1.405 . S
C1170 H1160 0.950 . S
C1170 C1171 1.386 . S
C1170 C1172 1.391 . S
C1171 C1170 1.386 . S
C1171 C1175 1.393 . S
C1172 H1161 0.950 . S
C1172 C1170 1.391 . S
C1172 C1173 1.400 . S
C1173 C1167 1.491 . S
C1173 C1172 1.400 . S
C1173 C1174 1.398 . S
C1174 H1162 0.950 . S
C1174 C1173 1.398 . S
C1174 C1175 1.391 . S
C1175 H1163 0.950 . S
C1175 C1171 1.393 . S
C1175 C1174 1.391 . S
H1176 C1184 0.950 . S
H1177 C1189 0.950 . S
H1178 C1186 0.950 . S
H1179 C1188 0.950 . S
H1180 C1190 0.950 1_565 S
H1181 C1192 0.950 . S
H1182 C1194 0.950 . S
H1183 C1195 0.950 . S
C1184 H1176 0.950 . S
C1184 C1185 1.386 . S
C1184 C1186 1.391 . S
C1185 C1184 1.386 . S
C1185 C1189 1.393 . S
C1186 H1178 0.950 . S
C1186 C1184 1.391 . S
C1186 C1187 1.400 . S
C1187 C1186 1.400 . S
C1187 C1188 1.398 . S
C1187 C1193 1.491 . S
C1188 H1179 0.950 . S
C1188 C1187 1.398 . S
C1188 C1189 1.391 . S
C1189 H1177 0.950 . S
C1189 C1185 1.393 . S
C1189 C1188 1.391 . S
C1190 H1180 0.950 1_545 S
C1190 C1191 1.386 . S
C1190 C1192 1.391 . S
C1191 C1190 1.386 . S
C1191 C1195 1.393 . S
C1192 H1181 0.950 . S
C1192 C1190 1.391 . S
C1192 C1193 1.400 . S
C1193 C1187 1.491 . S
C1193 C1192 1.400 . S
C1193 C1194 1.398 . S
C1194 H1182 0.950 . S
C1194 C1193 1.398 . S
C1194 C1195 1.391 . S
C1195 H1183 0.950 . S
C1195 C1191 1.393 . S
C1195 C1194 1.391 . S
H1196 C1204 0.950 . S
H1197 C1209 0.950 . S
H1198 C1206 0.950 . S
H1199 C1208 0.950 . S
H1200 C1210 0.950 . S
H1201 C1212 0.950 . S
H1202 C1214 0.950 . S
H1203 C1215 0.950 . S
C1204 H1196 0.950 . S
C1204 C1205 1.386 . S
C1204 C1206 1.391 . S
C1205 C1204 1.386 . S
C1205 C1209 1.393 . S
C1206 H1198 0.950 . S
C1206 C1204 1.391 . S
C1206 C1207 1.400 . S
C1207 C1206 1.400 . S
C1207 C1208 1.398 . S
C1207 C1213 1.491 . S
C1208 H1199 0.950 . S
C1208 C1207 1.398 . S
C1208 C1209 1.391 . S
C1209 H1197 0.950 . S
C1209 C1205 1.393 . S
C1209 C1208 1.391 . S
C1210 H1200 0.950 . S
C1210 C1211 1.386 . S
C1210 C1212 1.391 . S
C1211 C1210 1.386 . S
C1211 C1215 1.393 . S
C1212 H1201 0.950 . S
C1212 C1210 1.391 . S
C1212 C1213 1.400 . S
C1213 C1207 1.491 . S
C1213 C1212 1.400 . S
C1213 C1214 1.398 . S
C1214 H1202 0.950 . S
C1214 C1213 1.398 . S
C1214 C1215 1.391 . S
C1215 H1203 0.950 . S
C1215 C1211 1.393 . S
C1215 C1214 1.391 . S
H1216 C1224 0.950 . S
H1217 C1229 0.930 1_545 S
H1218 C1226 0.950 . S
H1219 C1228 0.950 . S
H1220 C1230 0.950 . S
H1221 C1232 0.950 . S
H1222 C1234 0.950 . S
H1223 C1235 0.950 . S
C1224 H1216 0.950 . S
C1224 C1225 1.386 . S
C1224 C1226 1.391 . S
C1225 C1224 1.386 . S
C1225 C1229 1.398 . S
C1226 H1218 0.950 . S
C1226 C1224 1.391 . S
C1226 C1227 1.400 . S
C1227 C1226 1.400 . S
C1227 C1228 1.398 . S
C1227 C1233 1.491 . S
C1228 H1219 0.950 . S
C1228 C1227 1.398 . S
C1228 C1229 1.406 . S
C1229 H1217 0.930 1_565 S
C1229 C1225 1.398 . S
C1229 C1228 1.406 . S
C1230 H1220 0.950 . S
C1230 C1231 1.386 . S
C1230 C1232 1.391 . S
C1231 C1230 1.386 . S
C1231 C1235 1.393 . S
C1232 H1221 0.950 . S
C1232 C1230 1.391 . S
C1232 C1233 1.400 . S
C1233 C1227 1.491 . S
C1233 C1232 1.400 . S
C1233 C1234 1.398 . S
C1234 H1222 0.950 . S
C1234 C1233 1.398 . S
C1234 C1235 1.391 . S
C1235 H1223 0.950 . S
C1235 C1231 1.393 . S
C1235 C1234 1.391 . S
H1236 C1244 0.950 . S
H1237 C1249 0.950 . S
H1238 C1246 0.950 . S
H1239 C1248 0.950 . S
H1240 C1250 0.950 . S
H1241 C1252 0.950 . S
H1242 C1254 0.950 . S
H1243 C1255 0.950 . S
C1244 H1236 0.950 . S
C1244 C1245 1.386 . S
C1244 C1246 1.391 . S
C1245 C1244 1.386 . S
C1245 C1249 1.393 . S
C1246 H1238 0.950 . S
C1246 C1244 1.391 . S
C1246 C1247 1.400 . S
C1247 C1246 1.400 . S
C1247 C1248 1.398 . S
C1247 C1253 1.491 . S
C1248 H1239 0.950 . S
C1248 C1247 1.398 . S
C1248 C1249 1.391 . S
C1249 H1237 0.950 . S
C1249 C1245 1.393 . S
C1249 C1248 1.391 . S
C1250 H1240 0.950 . S
C1250 C1251 1.386 . S
C1250 C1252 1.391 . S
C1251 C1250 1.386 . S
C1251 C1255 1.393 . S
C1252 H1241 0.950 . S
C1252 C1250 1.391 . S
C1252 C1253 1.400 . S
C1253 C1247 1.491 . S
C1253 C1252 1.400 . S
C1253 C1254 1.398 . S
C1254 H1242 0.950 . S
C1254 C1253 1.398 . S
C1254 C1255 1.391 . S
C1255 H1243 0.950 . S
C1255 C1251 1.393 . S
C1255 C1254 1.391 . S
H1256 C1264 0.950 . S
H1257 C1269 0.950 . S
H1258 C1266 0.950 . S
H1259 C1268 0.950 . S
H1260 C1270 0.950 . S
H1261 C1272 0.950 . S
H1262 C1274 0.950 . S
H1263 C1275 0.950 . S
C1264 H1256 0.950 . S
C1264 C1265 1.386 . S
C1264 C1266 1.391 . S
C1265 C1264 1.386 . S
C1265 C1269 1.393 . S
C1266 H1258 0.950 . S
C1266 C1264 1.391 . S
C1266 C1267 1.400 . S
C1267 C1266 1.400 . S
C1267 C1268 1.398 . S
C1267 C1273 1.491 . S
C1268 H1259 0.950 . S
C1268 C1267 1.398 . S
C1268 C1269 1.391 . S
C1269 H1257 0.950 . S
C1269 C1265 1.393 . S
C1269 C1268 1.391 . S
C1270 H1260 0.950 . S
C1270 C1271 1.386 . S
C1270 C1272 1.391 . S
C1271 C1270 1.386 . S
C1271 C1275 1.393 . S
C1272 H1261 0.950 . S
C1272 C1270 1.391 . S
C1272 C1273 1.400 . S
C1273 C1267 1.491 . S
C1273 C1272 1.400 . S
C1273 C1274 1.398 . S
C1274 H1262 0.950 . S
C1274 C1273 1.398 . S
C1274 C1275 1.391 . S
C1275 H1263 0.950 . S
C1275 C1271 1.393 . S
C1275 C1274 1.391 . S
H1276 C1284 0.950 . S
H1277 C1289 0.950 1_556 S
H1278 C1286 0.950 . S
H1279 C1288 0.950 . S
H1280 C1290 0.950 . S
H1281 C1292 0.950 . S
H1282 C1294 0.950 . S
H1283 C1295 0.950 . S
C1284 H1276 0.950 . S
C1284 C1285 1.386 . S
C1284 C1286 1.391 . S
C1285 C1284 1.386 . S
C1285 C1289 1.393 . S
C1286 H1278 0.950 . S
C1286 C1284 1.391 . S
C1286 C1287 1.400 . S
C1287 C1286 1.400 . S
C1287 C1288 1.398 . S
C1287 C1293 1.491 . S
C1288 H1279 0.950 . S
C1288 C1287 1.398 . S
C1288 C1289 1.391 . S
C1289 H1277 0.950 1_554 S
C1289 C1285 1.393 . S
C1289 C1288 1.391 . S
C1290 H1280 0.950 . S
C1290 C1291 1.386 . S
C1290 C1292 1.391 . S
C1291 C1290 1.386 . S
C1291 C1295 1.393 . S
C1292 H1281 0.950 . S
C1292 C1290 1.391 . S
C1292 C1293 1.400 . S
C1293 C1287 1.491 . S
C1293 C1292 1.400 . S
C1293 C1294 1.398 . S
C1294 H1282 0.950 . S
C1294 C1293 1.398 . S
C1294 C1295 1.391 . S
C1295 H1283 0.950 . S
C1295 C1291 1.393 . S
C1295 C1294 1.391 . S
H1296 C1304 0.950 . S
H1297 C1309 0.950 . S
H1298 C1306 0.950 . S
H1299 C1308 0.950 . S
H1300 C1310 0.950 1_565 S
H1301 C1312 0.950 . S
H1302 C1314 0.950 . S
H1303 C1315 0.950 . S
C1304 H1296 0.950 . S
C1304 C1305 1.386 . S
C1304 C1306 1.391 . S
C1305 C1304 1.386 . S
C1305 C1309 1.393 . S
C1306 H1298 0.950 . S
C1306 C1304 1.391 . S
C1306 C1307 1.400 . S
C1307 C1306 1.400 . S
C1307 C1308 1.398 . S
C1307 C1313 1.491 . S
C1308 H1299 0.950 . S
C1308 C1307 1.398 . S
C1308 C1309 1.391 . S
C1309 H1297 0.950 . S
C1309 C1305 1.393 . S
C1309 C1308 1.391 . S
C1310 H1300 0.950 1_545 S
C1310 C1311 1.386 . S
C1310 C1312 1.391 . S
C1311 C1310 1.386 . S
C1311 C1315 1.393 . S
C1312 H1301 0.950 . S
C1312 C1310 1.391 . S
C1312 C1313 1.400 . S
C1313 C1307 1.491 . S
C1313 C1312 1.400 . S
C1313 C1314 1.398 . S
C1314 H1302 0.950 . S
C1314 C1313 1.398 . S
C1314 C1315 1.391 . S
C1315 H1303 0.950 . S
C1315 C1311 1.393 . S
C1315 C1314 1.391 . S
H1316 C1324 0.950 . S
H1317 C1329 0.950 . S
H1318 C1326 0.950 . S
H1319 C1328 0.950 . S
H1320 C1330 0.950 1_554 S
H1321 C1332 0.950 . S
H1322 C1334 0.950 . S
H1323 C1335 0.950 . S
C1324 H1316 0.950 . S
C1324 C1325 1.386 . S
C1324 C1326 1.391 . S
C1325 C1324 1.386 . S
C1325 C1329 1.393 . S
C1326 H1318 0.950 . S
C1326 C1324 1.391 . S
C1326 C1327 1.400 . S
C1327 C1326 1.400 . S
C1327 C1328 1.398 . S
C1327 C1333 1.491 . S
C1328 H1319 0.950 . S
C1328 C1327 1.398 . S
C1328 C1329 1.391 . S
C1329 H1317 0.950 . S
C1329 C1325 1.393 . S
C1329 C1328 1.391 . S
C1330 H1320 0.950 1_556 S
C1330 C1331 1.386 . S
C1330 C1332 1.391 . S
C1331 C1330 1.386 . S
C1331 C1335 1.393 . S
C1332 H1321 0.950 . S
C1332 C1330 1.391 . S
C1332 C1333 1.400 . S
C1333 C1327 1.491 . S
C1333 C1332 1.400 . S
C1333 C1334 1.398 . S
C1334 H1322 0.950 . S
C1334 C1333 1.398 . S
C1334 C1335 1.391 . S
C1335 H1323 0.950 . S
C1335 C1331 1.393 . S
C1335 C1334 1.391 . S
H1336 C1344 0.950 1_545 S
H1337 C1349 0.950 . S
H1338 C1346 0.950 . S
H1339 C1348 0.950 . S
H1340 C1350 0.950 . S
H1341 C1352 0.950 . S
H1342 C1354 0.950 . S
H1343 C1355 0.950 . S
C1344 H1336 0.950 1_565 S
C1344 C1345 1.386 . S
C1344 C1346 1.391 . S
C1345 C1344 1.386 . S
C1345 C1349 1.393 . S
C1346 H1338 0.950 . S
C1346 C1344 1.391 . S
C1346 C1347 1.400 . S
C1347 C1346 1.400 . S
C1347 C1348 1.398 . S
C1347 C1353 1.491 . S
C1348 H1339 0.950 . S
C1348 C1347 1.398 . S
C1348 C1349 1.391 . S
C1349 H1337 0.950 . S
C1349 C1345 1.393 . S
C1349 C1348 1.391 . S
C1350 H1340 0.950 . S
C1350 C1351 1.386 . S
C1350 C1352 1.391 . S
C1351 C1350 1.386 . S
C1351 C1355 1.393 . S
C1352 H1341 0.950 . S
C1352 C1350 1.391 . S
C1352 C1353 1.400 . S
C1353 C1347 1.491 . S
C1353 C1352 1.400 . S
C1353 C1354 1.398 . S
C1354 H1342 0.950 . S
C1354 C1353 1.398 . S
C1354 C1355 1.391 . S
C1355 H1343 0.950 . S
C1355 C1351 1.393 . S
C1355 C1354 1.391 . S
H1356 C1364 0.950 . S
H1357 C1369 0.950 . S
H1358 C1366 0.950 . S
H1359 C1368 0.950 . S
H1360 C1370 0.950 . S
H1361 C1372 0.950 . S
H1362 C1374 0.950 . S
H1363 C1375 0.950 . S
C1364 H1356 0.950 . S
C1364 C1365 1.386 . S
C1364 C1366 1.391 . S
C1365 C1364 1.386 . S
C1365 C1369 1.393 . S
C1366 H1358 0.950 . S
C1366 C1364 1.391 . S
C1366 C1367 1.400 . S
C1367 C1366 1.400 . S
C1367 C1368 1.398 . S
C1367 C1373 1.491 . S
C1368 H1359 0.950 . S
C1368 C1367 1.398 . S
C1368 C1369 1.391 . S
C1369 H1357 0.950 . S
C1369 C1365 1.393 . S
C1369 C1368 1.391 . S
C1370 H1360 0.950 . S
C1370 C1371 1.386 . S
C1370 C1372 1.391 . S
C1371 C1370 1.386 . S
C1371 C1375 1.393 . S
C1372 H1361 0.950 . S
C1372 C1370 1.391 . S
C1372 C1373 1.400 . S
C1373 C1367 1.491 . S
C1373 C1372 1.400 . S
C1373 C1374 1.398 . S
C1374 H1362 0.950 . S
C1374 C1373 1.398 . S
C1374 C1375 1.391 . S
C1375 H1363 0.950 . S
C1375 C1371 1.393 . S
C1375 C1374 1.391 . S
H1376 C1384 0.950 . S
H1377 C1389 0.950 . S
H1378 C1386 0.950 . S
H1379 C1388 0.950 . S
H1380 C1390 0.950 . S
H1381 C1392 0.950 . S
H1382 C1394 0.950 . S
H1383 C1395 0.950 . S
C1384 H1376 0.950 . S
C1384 C1385 1.386 . S
C1384 C1386 1.391 . S
C1385 C1384 1.386 . S
C1385 C1389 1.393 . S
C1386 H1378 0.950 . S
C1386 C1384 1.391 . S
C1386 C1387 1.400 . S
C1387 C1386 1.400 . S
C1387 C1388 1.398 . S
C1387 C1393 1.491 . S
C1388 H1379 0.950 . S
C1388 C1387 1.398 . S
C1388 C1389 1.391 . S
C1389 H1377 0.950 . S
C1389 C1385 1.393 . S
C1389 C1388 1.391 . S
C1390 H1380 0.950 . S
C1390 C1391 1.386 . S
C1390 C1392 1.391 . S
C1391 C1390 1.386 . S
C1391 C1395 1.393 . S
C1392 H1381 0.950 . S
C1392 C1390 1.391 . S
C1392 C1393 1.400 . S
C1393 C1387 1.491 . S
C1393 C1392 1.400 . S
C1393 C1394 1.398 . S
C1394 H1382 0.950 . S
C1394 C1393 1.398 . S
C1394 C1395 1.391 . S
C1395 H1383 0.950 . S
C1395 C1391 1.393 . S
C1395 C1394 1.391 . S
H1396 C1404 0.950 . S
H1397 C1409 0.950 . S
H1398 C1406 0.950 . S
H1399 C1408 0.950 . S
H1400 C1410 0.950 1_554 S
H1401 C1412 0.950 . S
H1402 C1414 0.950 . S
H1403 C1415 0.950 . S
C1404 H1396 0.950 . S
C1404 C1405 1.386 . S
C1404 C1406 1.391 . S
C1405 C1404 1.386 . S
C1405 C1409 1.393 . S
C1406 H1398 0.950 . S
C1406 C1404 1.391 . S
C1406 C1407 1.400 . S
C1407 C1406 1.400 . S
C1407 C1408 1.398 . S
C1407 C1413 1.491 . S
C1408 H1399 0.950 . S
C1408 C1407 1.398 . S
C1408 C1409 1.391 . S
C1409 H1397 0.950 . S
C1409 C1405 1.393 . S
C1409 C1408 1.391 . S
C1410 H1400 0.950 1_556 S
C1410 C1411 1.386 . S
C1410 C1412 1.391 . S
C1411 C1410 1.386 . S
C1411 C1415 1.393 . S
C1412 H1401 0.950 . S
C1412 C1410 1.391 . S
C1412 C1413 1.400 . S
C1413 C1407 1.491 . S
C1413 C1412 1.400 . S
C1413 C1414 1.398 . S
C1414 H1402 0.950 . S
C1414 C1413 1.398 . S
C1414 C1415 1.391 . S
C1415 H1403 0.950 . S
C1415 C1411 1.393 . S
C1415 C1414 1.391 . S
H1416 C1424 0.950 . S
H1417 C1429 0.950 . S
H1418 C1426 0.950 . S
H1419 C1428 0.950 . S
H1420 C1430 0.950 . S
H1421 C1432 0.950 . S
H1422 C1434 0.950 . S
H1423 C1435 0.950 . S
C1424 H1416 0.950 . S
C1424 C1425 1.386 . S
C1424 C1426 1.391 . S
C1425 C1424 1.386 . S
C1425 C1429 1.393 . S
C1426 H1418 0.950 . S
C1426 C1424 1.391 . S
C1426 C1427 1.400 . S
C1427 C1426 1.400 . S
C1427 C1428 1.398 . S
C1427 C1433 1.491 . S
C1428 H1419 0.950 . S
C1428 C1427 1.398 . S
C1428 C1429 1.391 . S
C1429 H1417 0.950 . S
C1429 C1425 1.393 . S
C1429 C1428 1.391 . S
C1430 H1420 0.950 . S
C1430 C1431 1.386 . S
C1430 C1432 1.391 . S
C1431 C1430 1.386 . S
C1431 C1435 1.393 . S
C1432 H1421 0.950 . S
C1432 C1430 1.391 . S
C1432 C1433 1.400 . S
C1433 C1427 1.491 . S
C1433 C1432 1.400 . S
C1433 C1434 1.398 . S
C1434 H1422 0.950 . S
C1434 C1433 1.398 . S
C1434 C1435 1.391 . S
C1435 H1423 0.950 . S
C1435 C1431 1.393 . S
C1435 C1434 1.391 . S
H1436 C1444 0.950 . S
H1437 C1449 0.950 . S
H1438 C1446 0.950 . S
H1439 C1448 0.950 . S
H1440 C1450 0.950 . S
H1441 C1452 0.950 . S
H1442 C1454 0.950 . S
H1443 C1455 0.950 . S
C1444 H1436 0.950 . S
C1444 C1445 1.386 . S
C1444 C1446 1.391 . S
C1445 C1444 1.386 . S
C1445 C1449 1.393 . S
C1446 H1438 0.950 . S
C1446 C1444 1.391 . S
C1446 C1447 1.400 . S
C1447 C1446 1.400 . S
C1447 C1448 1.398 . S
C1447 C1453 1.491 . S
C1448 H1439 0.950 . S
C1448 C1447 1.398 . S
C1448 C1449 1.391 . S
C1449 H1437 0.950 . S
C1449 C1445 1.393 . S
C1449 C1448 1.391 . S
C1450 H1440 0.950 . S
C1450 C1451 1.386 . S
C1450 C1452 1.391 . S
C1451 C1450 1.386 . S
C1451 C1455 1.393 . S
C1452 H1441 0.950 . S
C1452 C1450 1.391 . S
C1452 C1453 1.400 . S
C1453 C1447 1.491 . S
C1453 C1452 1.400 . S
C1453 C1454 1.398 . S
C1454 H1442 0.950 . S
C1454 C1453 1.398 . S
C1454 C1455 1.391 . S
C1455 H1443 0.950 . S
C1455 C1451 1.393 . S
C1455 C1454 1.391 . S
H1456 C1464 0.950 . S
H1457 C1469 0.950 . S
H1458 C1466 0.950 . S
H1459 C1468 0.950 . S
H1460 C1470 0.950 . S
H1461 C1472 0.950 . S
H1462 C1474 0.950 . S
H1463 C1475 0.950 . S
C1464 H1456 0.950 . S
C1464 C1465 1.386 . S
C1464 C1466 1.391 . S
C1465 C1464 1.386 . S
C1465 C1469 1.393 . S
C1466 H1458 0.950 . S
C1466 C1464 1.391 . S
C1466 C1467 1.400 . S
C1467 C1466 1.400 . S
C1467 C1468 1.398 . S
C1467 C1473 1.491 . S
C1468 H1459 0.950 . S
C1468 C1467 1.398 . S
C1468 C1469 1.391 . S
C1469 H1457 0.950 . S
C1469 C1465 1.393 . S
C1469 C1468 1.391 . S
C1470 H1460 0.950 . S
C1470 C1471 1.386 . S
C1470 C1472 1.391 . S
C1471 C1470 1.386 . S
C1471 C1475 1.393 . S
C1472 H1461 0.950 . S
C1472 C1470 1.391 . S
C1472 C1473 1.400 . S
C1473 C1467 1.491 . S
C1473 C1472 1.400 . S
C1473 C1474 1.398 . S
C1474 H1462 0.950 . S
C1474 C1473 1.398 . S
C1474 C1475 1.391 . S
C1475 H1463 0.950 . S
C1475 C1471 1.393 . S
C1475 C1474 1.391 . S
H1476 C1484 0.950 . S
H1477 C1489 0.950 . S
H1478 C1486 0.950 . S
H1479 C1488 0.950 . S
H1480 C1490 0.950 . S
H1481 C1492 0.950 . S
H1482 C1494 0.950 . S
H1483 C1495 0.950 . S
C1484 H1476 0.950 . S
C1484 C1485 1.386 . S
C1484 C1486 1.391 . S
C1485 C1484 1.386 . S
C1485 C1489 1.393 . S
C1486 H1478 0.950 . S
C1486 C1484 1.391 . S
C1486 C1487 1.400 . S
C1487 C1486 1.400 . S
C1487 C1488 1.398 . S
C1487 C1493 1.491 . S
C1488 H1479 0.950 . S
C1488 C1487 1.398 . S
C1488 C1489 1.391 . S
C1489 H1477 0.950 . S
C1489 C1485 1.393 . S
C1489 C1488 1.391 . S
C1490 H1480 0.950 . S
C1490 C1491 1.386 . S
C1490 C1492 1.391 . S
C1491 C1490 1.386 . S
C1491 C1495 1.393 . S
C1492 H1481 0.950 . S
C1492 C1490 1.391 . S
C1492 C1493 1.400 . S
C1493 C1487 1.491 . S
C1493 C1492 1.400 . S
C1493 C1494 1.398 . S
C1494 H1482 0.950 . S
C1494 C1493 1.398 . S
C1494 C1495 1.391 . S
C1495 H1483 0.950 . S
C1495 C1491 1.393 . S
C1495 C1494 1.391 . S
H1496 C1504 0.950 . S
H1497 C1509 0.950 . S
H1498 C1506 0.950 . S
H1499 C1508 0.950 . S
H1500 C1510 0.950 . S
H1501 C1512 0.950 . S
H1502 C1514 0.950 . S
H1503 C1515 0.950 . S
C1504 H1496 0.950 . S
C1504 C1505 1.386 . S
C1504 C1506 1.391 . S
C1505 C1504 1.386 . S
C1505 C1509 1.393 . S
C1506 H1498 0.950 . S
C1506 C1504 1.391 . S
C1506 C1507 1.400 . S
C1507 C1506 1.400 . S
C1507 C1508 1.398 . S
C1507 C1513 1.491 . S
C1508 H1499 0.950 . S
C1508 C1507 1.398 . S
C1508 C1509 1.391 . S
C1509 H1497 0.950 . S
C1509 C1505 1.393 . S
C1509 C1508 1.391 . S
C1510 H1500 0.950 . S
C1510 C1511 1.386 . S
C1510 C1512 1.391 . S
C1511 C1510 1.386 . S
C1511 C1515 1.393 . S
C1512 H1501 0.950 . S
C1512 C1510 1.391 . S
C1512 C1513 1.400 . S
C1513 C1507 1.491 . S
C1513 C1512 1.400 . S
C1513 C1514 1.398 . S
C1514 H1502 0.950 . S
C1514 C1513 1.398 . S
C1514 C1515 1.391 . S
C1515 H1503 0.950 . S
C1515 C1511 1.393 . S
C1515 C1514 1.391 . S
H1516 C1524 0.950 . S
H1517 C1529 0.950 . S
H1518 C1526 0.950 . S
H1519 C1528 0.950 . S
H1520 C1530 0.950 . S
H1521 C1532 0.950 . S
H1522 C1534 0.950 . S
H1523 C1535 0.950 1_556 S
C1524 H1516 0.950 . S
C1524 C1525 1.386 . S
C1524 C1526 1.391 . S
C1525 C1524 1.386 . S
C1525 C1529 1.393 . S
C1526 H1518 0.950 . S
C1526 C1524 1.391 . S
C1526 C1527 1.400 . S
C1527 C1526 1.400 . S
C1527 C1528 1.398 . S
C1527 C1533 1.491 . S
C1528 H1519 0.950 . S
C1528 C1527 1.398 . S
C1528 C1529 1.391 . S
C1529 H1517 0.950 . S
C1529 C1525 1.393 . S
C1529 C1528 1.391 . S
C1530 H1520 0.950 . S
C1530 C1531 1.386 . S
C1530 C1532 1.391 . S
C1531 C1530 1.386 . S
C1531 C1535 1.393 . S
C1532 H1521 0.950 . S
C1532 C1530 1.391 . S
C1532 C1533 1.400 . S
C1533 C1527 1.491 . S
C1533 C1532 1.400 . S
C1533 C1534 1.398 . S
C1534 H1522 0.950 . S
C1534 C1533 1.398 . S
C1534 C1535 1.391 . S
C1535 H1523 0.950 1_554 S
C1535 C1531 1.393 . S
C1535 C1534 1.391 . S
H1536 C1544 0.950 . S
H1537 C1549 0.950 . S
H1538 C1546 0.950 . S
H1539 C1548 0.950 . S
H1540 C1550 0.950 . S
H1541 C1552 0.950 . S
H1542 C1554 0.950 . S
H1543 C1555 0.950 . S
C1544 H1536 0.950 . S
C1544 C1545 1.386 . S
C1544 C1546 1.391 . S
C1545 C1544 1.386 . S
C1545 C1549 1.393 . S
C1546 H1538 0.950 . S
C1546 C1544 1.391 . S
C1546 C1547 1.400 . S
C1547 C1546 1.400 . S
C1547 C1548 1.398 . S
C1547 C1553 1.491 . S
C1548 H1539 0.950 . S
C1548 C1547 1.398 . S
C1548 C1549 1.391 . S
C1549 H1537 0.950 . S
C1549 C1545 1.393 . S
C1549 C1548 1.391 . S
C1550 H1540 0.950 . S
C1550 C1551 1.386 . S
C1550 C1552 1.391 . S
C1551 C1550 1.386 . S
C1551 C1555 1.393 . S
C1552 H1541 0.950 . S
C1552 C1550 1.391 . S
C1552 C1553 1.400 . S
C1553 C1547 1.491 . S
C1553 C1552 1.400 . S
C1553 C1554 1.398 . S
C1554 H1542 0.950 . S
C1554 C1553 1.398 . S
C1554 C1555 1.391 . S
C1555 H1543 0.950 . S
C1555 C1551 1.393 . S
C1555 C1554 1.391 . S
H1556 C1564 0.950 . S
H1557 C1569 0.950 . S
H1558 C1566 0.950 . S
H1559 C1568 0.950 . S
H1560 C1570 0.950 . S
H1561 C1572 0.950 . S
H1562 C1574 0.950 . S
H1563 C1575 0.950 . S
C1564 H1556 0.950 . S
C1564 C1565 1.386 . S
C1564 C1566 1.391 . S
C1565 C1564 1.386 . S
C1565 C1569 1.393 . S
C1566 H1558 0.950 . S
C1566 C1564 1.391 . S
C1566 C1567 1.400 . S
C1567 C1566 1.400 . S
C1567 C1568 1.398 . S
C1567 C1573 1.491 . S
C1568 H1559 0.950 . S
C1568 C1567 1.398 . S
C1568 C1569 1.391 . S
C1569 H1557 0.950 . S
C1569 C1565 1.393 . S
C1569 C1568 1.391 . S
C1570 H1560 0.950 . S
C1570 C1571 1.386 . S
C1570 C1572 1.391 . S
C1571 C1570 1.386 . S
C1571 C1575 1.393 . S
C1572 H1561 0.950 . S
C1572 C1570 1.391 . S
C1572 C1573 1.400 . S
C1573 C1567 1.491 . S
C1573 C1572 1.400 . S
C1573 C1574 1.398 . S
C1574 H1562 0.950 . S
C1574 C1573 1.398 . S
C1574 C1575 1.391 . S
C1575 H1563 0.950 . S
C1575 C1571 1.393 . S
C1575 C1574 1.391 . S
H1576 C1584 0.950 . S
H1577 C1589 0.950 . S
H1578 C1586 0.950 . S
H1579 C1588 0.950 . S
H1580 C1590 0.950 . S
H1581 C1592 0.950 . S
H1582 C1594 0.950 . S
H1583 C1595 0.950 . S
C1584 H1576 0.950 . S
C1584 C1585 1.386 . S
C1584 C1586 1.391 . S
C1585 C1584 1.386 . S
C1585 C1589 1.393 . S
C1586 H1578 0.950 . S
C1586 C1584 1.391 . S
C1586 C1587 1.400 . S
C1587 C1586 1.400 . S
C1587 C1588 1.398 . S
C1587 C1593 1.491 . S
C1588 H1579 0.950 . S
C1588 C1587 1.398 . S
C1588 C1589 1.391 . S
C1589 H1577 0.950 . S
C1589 C1585 1.393 . S
C1589 C1588 1.391 . S
C1590 H1580 0.950 . S
C1590 C1591 1.386 . S
C1590 C1592 1.391 . S
C1591 C1590 1.386 . S
C1591 C1595 1.393 . S
C1592 H1581 0.950 . S
C1592 C1590 1.391 . S
C1592 C1593 1.400 . S
C1593 C1587 1.491 . S
C1593 C1592 1.400 . S
C1593 C1594 1.398 . S
C1594 H1582 0.950 . S
C1594 C1593 1.398 . S
C1594 C1595 1.391 . S
C1595 H1583 0.950 . S
C1595 C1591 1.393 . S
C1595 C1594 1.391 . S
H1596 C1604 0.950 . S
H1597 C1609 0.950 . S
H1598 C1606 0.950 . S
H1599 C1608 0.950 . S
H1600 C1610 0.950 . S
H1601 C1612 0.950 . S
H1602 C1614 0.950 . S
H1603 C1615 0.950 . S
C1604 H1596 0.950 . S
C1604 C1605 1.386 . S
C1604 C1606 1.391 . S
C1605 C1604 1.386 . S
C1605 C1609 1.393 . S
C1606 H1598 0.950 . S
C1606 C1604 1.391 . S
C1606 C1607 1.400 . S
C1607 C1606 1.400 . S
C1607 C1608 1.398 . S
C1607 C1613 1.491 . S
C1608 H1599 0.950 . S
C1608 C1607 1.398 . S
C1608 C1609 1.391 . S
C1609 H1597 0.950 . S
C1609 C1605 1.393 . S
C1609 C1608 1.391 . S
C1610 H1600 0.950 . S
C1610 C1611 1.386 . S
C1610 C1612 1.391 . S
C1611 C1610 1.386 . S
C1611 C1615 1.393 . S
C1612 H1601 0.950 . S
C1612 C1610 1.391 . S
C1612 C1613 1.400 . S
C1613 C1607 1.491 . S
C1613 C1612 1.400 . S
C1613 C1614 1.398 . S
C1614 H1602 0.950 . S
C1614 C1613 1.398 . S
C1614 C1615 1.391 . S
C1615 H1603 0.950 . S
C1615 C1611 1.393 . S
C1615 C1614 1.391 . S
H1616 C1624 0.950 . S
H1617 C1629 0.950 . S
H1618 C1626 0.950 . S
H1619 C1628 0.950 . S
H1620 C1630 0.950 . S
H1621 C1632 0.950 . S
H1622 C1634 0.950 . S
H1623 C1635 0.950 . S
C1624 H1616 0.950 . S
C1624 C1625 1.386 . S
C1624 C1626 1.391 . S
C1625 C1624 1.386 . S
C1625 C1629 1.393 . S
C1626 H1618 0.950 . S
C1626 C1624 1.391 . S
C1626 C1627 1.400 . S
C1627 C1626 1.400 . S
C1627 C1628 1.398 . S
C1627 C1633 1.491 . S
C1628 H1619 0.950 . S
C1628 C1627 1.398 . S
C1628 C1629 1.391 . S
C1629 H1617 0.950 . S
C1629 C1625 1.393 . S
C1629 C1628 1.391 . S
C1630 H1620 0.950 . S
C1630 C1631 1.386 . S
C1630 C1632 1.391 . S
C1631 C1630 1.386 . S
C1631 C1635 1.393 . S
C1632 H1621 0.950 . S
C1632 C1630 1.391 . S
C1632 C1633 1.400 . S
C1633 C1627 1.491 . S
C1633 C1632 1.400 . S
C1633 C1634 1.398 . S
C1634 H1622 0.950 . S
C1634 C1633 1.398 . S
C1634 C1635 1.391 . S
C1635 H1623 0.950 . S
C1635 C1631 1.393 . S
C1635 C1634 1.391 . S
H1636 C1644 0.950 . S
H1637 C1649 0.950 . S
H1638 C1646 0.950 . S
H1639 C1648 0.950 . S
H1640 C1650 0.950 . S
H1641 C1652 0.950 . S
H1642 C1654 0.950 . S
H1643 C1655 0.950 . S
C1644 H1636 0.950 . S
C1644 C1645 1.386 . S
C1644 C1646 1.391 . S
C1645 C1644 1.386 . S
C1645 C1649 1.393 . S
C1646 H1638 0.950 . S
C1646 C1644 1.391 . S
C1646 C1647 1.400 . S
C1647 C1646 1.400 . S
C1647 C1648 1.398 . S
C1647 C1653 1.491 . S
C1648 H1639 0.950 . S
C1648 C1647 1.398 . S
C1648 C1649 1.391 . S
C1649 H1637 0.950 . S
C1649 C1645 1.393 . S
C1649 C1648 1.391 . S
C1650 H1640 0.950 . S
C1650 C1651 1.386 . S
C1650 C1652 1.391 . S
C1651 C1650 1.386 . S
C1651 C1655 1.393 . S
C1652 H1641 0.950 . S
C1652 C1650 1.391 . S
C1652 C1653 1.400 . S
C1653 C1647 1.491 . S
C1653 C1652 1.400 . S
C1653 C1654 1.398 . S
C1654 H1642 0.950 . S
C1654 C1653 1.398 . S
C1654 C1655 1.391 . S
C1655 H1643 0.950 . S
C1655 C1651 1.393 . S
C1655 C1654 1.391 . S
H1656 C1664 0.950 . S
H1657 C1669 0.950 . S
H1658 C1666 0.950 . S
H1659 C1668 0.950 . S
H1660 C1670 0.950 . S
H1661 C1672 0.950 . S
H1662 C1674 0.950 . S
H1663 C1675 0.950 . S
C1664 H1656 0.950 . S
C1664 C1665 1.386 . S
C1664 C1666 1.391 . S
C1665 C1664 1.386 . S
C1665 C1669 1.393 . S
C1666 H1658 0.950 . S
C1666 C1664 1.391 . S
C1666 C1667 1.400 . S
C1667 C1666 1.400 . S
C1667 C1668 1.398 . S
C1667 C1673 1.491 . S
C1668 H1659 0.950 . S
C1668 C1667 1.398 . S
C1668 C1669 1.391 . S
C1669 H1657 0.950 . S
C1669 C1665 1.393 . S
C1669 C1668 1.391 . S
C1670 H1660 0.950 . S
C1670 C1671 1.386 . S
C1670 C1672 1.391 . S
C1671 C1670 1.386 . S
C1671 C1675 1.393 . S
C1672 H1661 0.950 . S
C1672 C1670 1.391 . S
C1672 C1673 1.400 . S
C1673 C1667 1.491 . S
C1673 C1672 1.400 . S
C1673 C1674 1.398 . S
C1674 H1662 0.950 . S
C1674 C1673 1.398 . S
C1674 C1675 1.391 . S
C1675 H1663 0.950 . S
C1675 C1671 1.393 . S
C1675 C1674 1.391 . S
H1676 C1684 0.950 . S
H1677 C1689 0.950 . S
H1678 C1686 0.950 . S
H1679 C1688 0.950 . S
H1680 C1690 0.950 . S
H1681 C1692 0.950 . S
H1682 C1694 0.950 . S
H1683 C1695 0.950 . S
C1684 H1676 0.950 . S
C1684 C1685 1.386 . S
C1684 C1686 1.391 . S
C1685 C1684 1.386 . S
C1685 C1689 1.393 . S
C1686 H1678 0.950 . S
C1686 C1684 1.391 . S
C1686 C1687 1.400 . S
C1687 C1686 1.400 . S
C1687 C1688 1.398 . S
C1687 C1693 1.491 . S
C1688 H1679 0.950 . S
C1688 C1687 1.398 . S
C1688 C1689 1.391 . S
C1689 H1677 0.950 . S
C1689 C1685 1.393 . S
C1689 C1688 1.391 . S
C1690 H1680 0.950 . S
C1690 C1691 1.386 . S
C1690 C1692 1.391 . S
C1691 C1690 1.386 . S
C1691 C1695 1.393 . S
C1692 H1681 0.950 . S
C1692 C1690 1.391 . S
C1692 C1693 1.400 . S
C1693 C1687 1.491 . S
C1693 C1692 1.400 . S
C1693 C1694 1.398 . S
C1694 H1682 0.950 . S
C1694 C1693 1.398 . S
C1694 C1695 1.391 . S
C1695 H1683 0.950 . S
C1695 C1691 1.393 . S
C1695 C1694 1.391 . S
H1696 C1704 0.950 . S
H1697 C1709 0.950 . S
H1698 C1706 0.950 . S
H1699 C1708 0.950 . S
H1700 C1710 0.950 . S
H1701 C1712 0.950 . S
H1702 C1714 0.950 . S
H1703 C1715 0.950 . S
C1704 H1696 0.950 . S
C1704 C1705 1.386 . S
C1704 C1706 1.391 . S
C1705 C1704 1.386 . S
C1705 C1709 1.393 . S
C1706 H1698 0.950 . S
C1706 C1704 1.391 . S
C1706 C1707 1.400 . S
C1707 C1706 1.400 . S
C1707 C1708 1.398 . S
C1707 C1713 1.491 . S
C1708 H1699 0.950 . S
C1708 C1707 1.398 . S
C1708 C1709 1.391 . S
C1709 H1697 0.950 . S
C1709 C1705 1.393 . S
C1709 C1708 1.391 . S
C1710 H1700 0.950 . S
C1710 C1711 1.386 . S
C1710 C1712 1.391 . S
C1711 C1710 1.386 . S
C1711 C1715 1.393 . S
C1712 H1701 0.950 . S
C1712 C1710 1.391 . S
C1712 C1713 1.400 . S
C1713 C1707 1.491 . S
C1713 C1712 1.400 . S
C1713 C1714 1.398 . S
C1714 H1702 0.950 . S
C1714 C1713 1.398 . S
C1714 C1715 1.391 . S
C1715 H1703 0.950 . S
C1715 C1711 1.393 . S
C1715 C1714 1.391 . S
H1716 C1724 0.950 . S
H1717 C1729 0.950 . S
H1718 C1726 0.950 . S
H1719 C1728 0.949 . S
H1720 C1730 0.950 . S
H1721 C1732 0.950 . S
H1722 C1734 0.949 . S
H1723 C1735 0.950 . S
C1724 H1716 0.950 . S
C1724 C1725 1.386 . S
C1724 C1726 1.391 . S
C1725 C1724 1.386 . S
C1725 C1729 1.393 . S
C1726 H1718 0.950 . S
C1726 C1724 1.391 . S
C1726 C1727 1.400 . S
C1727 C1726 1.400 . S
C1727 C1728 1.398 . S
C1727 C1733 1.491 1_565 S
C1728 H1719 0.949 . S
C1728 C1727 1.398 . S
C1728 C1729 1.391 . S
C1729 H1717 0.950 . S
C1729 C1725 1.393 . S
C1729 C1728 1.391 . S
C1730 H1720 0.950 . S
C1730 C1731 1.386 . S
C1730 C1732 1.391 . S
C1731 C1730 1.386 . S
C1731 C1735 1.393 . S
C1732 H1721 0.950 . S
C1732 C1730 1.391 . S
C1732 C1733 1.400 . S
C1733 C1727 1.491 1_545 S
C1733 C1732 1.400 . S
C1733 C1734 1.398 . S
C1734 H1722 0.949 . S
C1734 C1733 1.398 . S
C1734 C1735 1.391 . S
C1735 H1723 0.950 . S
C1735 C1731 1.393 . S
C1735 C1734 1.391 . S
H1736 C1744 0.950 . S
H1737 C1749 0.950 . S
H1738 C1746 0.950 . S
H1739 C1748 0.950 . S
H1740 C1750 0.950 . S
H1741 C1752 0.950 . S
H1742 C1754 0.950 . S
H1743 C1755 0.950 . S
C1744 H1736 0.950 . S
C1744 C1745 1.386 . S
C1744 C1746 1.391 . S
C1745 C1744 1.386 . S
C1745 C1749 1.393 . S
C1746 H1738 0.950 . S
C1746 C1744 1.391 . S
C1746 C1747 1.400 . S
C1747 C1746 1.400 . S
C1747 C1748 1.398 . S
C1747 C1753 1.491 . S
C1748 H1739 0.950 . S
C1748 C1747 1.398 . S
C1748 C1749 1.391 . S
C1749 H1737 0.950 . S
C1749 C1745 1.393 . S
C1749 C1748 1.391 . S
C1750 H1740 0.950 . S
C1750 C1751 1.386 . S
C1750 C1752 1.391 . S
C1751 C1750 1.386 . S
C1751 C1755 1.393 . S
C1752 H1741 0.950 . S
C1752 C1750 1.391 . S
C1752 C1753 1.400 . S
C1753 C1747 1.491 . S
C1753 C1752 1.400 . S
C1753 C1754 1.398 . S
C1754 H1742 0.950 . S
C1754 C1753 1.398 . S
C1754 C1755 1.391 . S
C1755 H1743 0.950 . S
C1755 C1751 1.393 . S
C1755 C1754 1.391 . S
H1756 C1764 0.950 . S
H1757 C1769 0.950 . S
H1758 C1766 0.950 . S
H1759 C1768 0.950 . S
H1760 C1770 0.950 . S
H1761 C1772 0.950 . S
H1762 C1774 0.950 . S
H1763 C1775 0.950 . S
C1764 H1756 0.950 . S
C1764 C1765 1.386 1_565 S
C1764 C1766 1.391 . S
C1765 C1764 1.386 1_545 S
C1765 C1769 1.393 . S
C1766 H1758 0.950 . S
C1766 C1764 1.391 . S
C1766 C1767 1.400 1_565 S
C1767 C1766 1.400 1_545 S
C1767 C1768 1.398 . S
C1767 C1773 1.491 1_546 S
C1768 H1759 0.950 . S
C1768 C1767 1.398 . S
C1768 C1769 1.391 . S
C1769 H1757 0.950 . S
C1769 C1765 1.393 . S
C1769 C1768 1.391 . S
C1770 H1760 0.950 . S
C1770 C1771 1.386 1_545 S
C1770 C1772 1.391 . S
C1771 C1770 1.386 1_565 S
C1771 C1775 1.393 . S
C1772 H1761 0.950 . S
C1772 C1770 1.391 . S
C1772 C1773 1.400 1_545 S
C1773 C1767 1.491 1_564 S
C1773 C1772 1.400 1_565 S
C1773 C1774 1.398 . S
C1774 H1762 0.950 . S
C1774 C1773 1.398 . S
C1774 C1775 1.391 . S
C1775 H1763 0.950 . S
C1775 C1771 1.393 . S
C1775 C1774 1.391 . S
H1776 C1784 0.950 . S
H1777 C1789 0.950 . S
H1778 C1786 0.950 . S
H1779 C1788 0.950 . S
H1780 C1790 0.950 . S
H1781 C1792 0.950 . S
H1782 C1794 0.950 . S
H1783 C1795 0.950 . S
C1784 H1776 0.950 . S
C1784 C1785 1.386 . S
C1784 C1786 1.391 . S
C1785 C1784 1.386 . S
C1785 C1789 1.393 . S
C1786 H1778 0.950 . S
C1786 C1784 1.391 . S
C1786 C1787 1.400 . S
C1787 C1786 1.400 . S
C1787 C1788 1.398 . S
C1787 C1793 1.491 . S
C1788 H1779 0.950 . S
C1788 C1787 1.398 . S
C1788 C1789 1.391 . S
C1789 H1777 0.950 . S
C1789 C1785 1.393 . S
C1789 C1788 1.391 . S
C1790 H1780 0.950 . S
C1790 C1791 1.386 . S
C1790 C1792 1.391 . S
C1791 C1790 1.386 . S
C1791 C1795 1.393 . S
C1792 H1781 0.950 . S
C1792 C1790 1.391 . S
C1792 C1793 1.400 . S
C1793 C1787 1.491 . S
C1793 C1792 1.400 . S
C1793 C1794 1.398 . S
C1794 H1782 0.950 . S
C1794 C1793 1.398 . S
C1794 C1795 1.391 . S
C1795 H1783 0.950 . S
C1795 C1791 1.393 . S
C1795 C1794 1.391 . S
H1796 C1804 0.950 . S
H1797 C1809 0.950 1_545 S
H1798 C1806 0.950 . S
H1799 C1808 0.950 . S
H1800 C1810 0.950 . S
H1801 C1812 0.950 . S
H1802 C1814 0.950 . S
H1803 C1815 0.950 1_565 S
C1804 H1796 0.950 . S
C1804 C1805 1.386 . S
C1804 C1806 1.391 . S
C1805 C1804 1.386 . S
C1805 C1809 1.393 . S
C1806 H1798 0.950 . S
C1806 C1804 1.391 . S
C1806 C1807 1.400 . S
C1807 C1806 1.400 . S
C1807 C1808 1.398 1_565 S
C1807 C1813 1.491 1_565 S
C1808 H1799 0.950 . S
C1808 C1807 1.398 1_545 S
C1808 C1809 1.391 1_545 S
C1809 H1797 0.950 1_565 S
C1809 C1805 1.393 . S
C1809 C1808 1.391 1_565 S
C1810 H1800 0.950 . S
C1810 C1811 1.386 . S
C1810 C1812 1.391 . S
C1811 C1810 1.386 . S
C1811 C1815 1.393 . S
C1812 H1801 0.950 . S
C1812 C1810 1.391 . S
C1812 C1813 1.400 . S
C1813 C1807 1.491 1_545 S
C1813 C1812 1.400 . S
C1813 C1814 1.398 1_545 S
C1814 H1802 0.950 . S
C1814 C1813 1.398 1_565 S
C1814 C1815 1.391 1_565 S
C1815 H1803 0.950 1_545 S
C1815 C1811 1.393 . S
C1815 C1814 1.391 1_545 S
H1816 C1824 0.950 . S
H1817 C1829 0.950 . S
H1818 C1826 0.950 . S
H1819 C1828 0.950 . S
H1820 C1830 0.950 . S
H1821 C1832 0.950 . S
H1822 C1834 0.950 . S
H1823 C1835 0.950 . S
C1824 H1816 0.950 . S
C1824 C1825 1.386 . S
C1824 C1826 1.391 . S
C1825 C1824 1.386 . S
C1825 C1829 1.393 . S
C1826 H1818 0.950 . S
C1826 C1824 1.391 . S
C1826 C1827 1.400 . S
C1827 C1826 1.400 . S
C1827 C1828 1.398 . S
C1827 C1833 1.491 . S
C1828 H1819 0.950 . S
C1828 C1827 1.398 . S
C1828 C1829 1.391 . S
C1829 H1817 0.950 . S
C1829 C1825 1.393 . S
C1829 C1828 1.391 . S
C1830 H1820 0.950 . S
C1830 C1831 1.386 . S
C1830 C1832 1.391 . S
C1831 C1830 1.386 . S
C1831 C1835 1.393 . S
C1832 H1821 0.950 . S
C1832 C1830 1.391 . S
C1832 C1833 1.400 . S
C1833 C1827 1.491 . S
C1833 C1832 1.400 . S
C1833 C1834 1.398 . S
C1834 H1822 0.950 . S
C1834 C1833 1.398 . S
C1834 C1835 1.391 . S
C1835 H1823 0.950 . S
C1835 C1831 1.393 . S
C1835 C1834 1.391 . S
H1836 C1844 0.950 . S
H1837 C1849 0.950 . S
H1838 C1846 0.950 . S
H1839 C1848 0.950 . S
H1840 C1850 0.950 . S
H1841 C1852 0.950 . S
H1842 C1854 0.950 . S
H1843 C1855 0.950 . S
C1844 H1836 0.950 . S
C1844 C1845 1.386 1_565 S
C1844 C1846 1.391 . S
C1845 C1844 1.386 1_545 S
C1845 C1849 1.393 . S
C1846 H1838 0.950 . S
C1846 C1844 1.391 . S
C1846 C1847 1.400 1_565 S
C1847 C1846 1.400 1_545 S
C1847 C1848 1.398 . S
C1847 C1853 1.491 1_546 S
C1848 H1839 0.950 . S
C1848 C1847 1.398 . S
C1848 C1849 1.391 . S
C1849 H1837 0.950 . S
C1849 C1845 1.393 . S
C1849 C1848 1.391 . S
C1850 H1840 0.950 . S
C1850 C1851 1.386 1_545 S
C1850 C1852 1.391 . S
C1851 C1850 1.386 1_565 S
C1851 C1855 1.393 . S
C1852 H1841 0.950 . S
C1852 C1850 1.391 . S
C1852 C1853 1.400 1_545 S
C1853 C1847 1.491 1_564 S
C1853 C1852 1.400 1_565 S
C1853 C1854 1.398 . S
C1854 H1842 0.950 . S
C1854 C1853 1.398 . S
C1854 C1855 1.391 . S
C1855 H1843 0.950 . S
C1855 C1851 1.393 . S
C1855 C1854 1.391 . S
H1856 C1864 0.950 . S
H1857 C1869 0.950 . S
H1858 C1866 0.950 . S
H1859 C1868 0.950 . S
H1860 C1870 0.950 . S
H1861 C1872 0.950 . S
H1862 C1874 0.950 . S
H1863 C1875 0.950 . S
C1864 H1856 0.950 . S
C1864 C1865 1.386 . S
C1864 C1866 1.391 . S
C1865 C1864 1.386 . S
C1865 C1869 1.393 . S
C1866 H1858 0.950 . S
C1866 C1864 1.391 . S
C1866 C1867 1.400 . S
C1867 C1866 1.400 . S
C1867 C1868 1.398 . S
C1867 C1873 1.491 . S
C1868 H1859 0.950 . S
C1868 C1867 1.398 . S
C1868 C1869 1.391 . S
C1869 H1857 0.950 . S
C1869 C1865 1.393 . S
C1869 C1868 1.391 . S
C1870 H1860 0.950 . S
C1870 C1871 1.386 . S
C1870 C1872 1.391 . S
C1871 C1870 1.386 . S
C1871 C1875 1.393 . S
C1872 H1861 0.950 . S
C1872 C1870 1.391 . S
C1872 C1873 1.400 . S
C1873 C1867 1.491 . S
C1873 C1872 1.400 . S
C1873 C1874 1.398 . S
C1874 H1862 0.950 . S
C1874 C1873 1.398 . S
C1874 C1875 1.391 . S
C1875 H1863 0.950 . S
C1875 C1871 1.393 . S
C1875 C1874 1.391 . S
H1876 C1884 0.950 . S
H1877 C1889 0.950 . S
H1878 C1886 0.950 . S
H1879 C1888 0.950 . S
H1880 C1890 0.950 . S
H1881 C1892 0.950 . S
H1882 C1894 0.950 . S
H1883 C1895 0.950 . S
C1884 H1876 0.950 . S
C1884 C1885 1.386 . S
C1884 C1886 1.391 . S
C1885 C1884 1.386 . S
C1885 C1889 1.393 . S
C1886 H1878 0.950 . S
C1886 C1884 1.391 . S
C1886 C1887 1.400 . S
C1887 C1886 1.400 . S
C1887 C1888 1.398 . S
C1887 C1893 1.491 1_554 S
C1888 H1879 0.950 . S
C1888 C1887 1.398 . S
C1888 C1889 1.391 . S
C1889 H1877 0.950 . S
C1889 C1885 1.393 . S
C1889 C1888 1.391 . S
C1890 H1880 0.950 . S
C1890 C1891 1.386 . S
C1890 C1892 1.391 . S
C1891 C1890 1.386 . S
C1891 C1895 1.393 . S
C1892 H1881 0.950 . S
C1892 C1890 1.391 . S
C1892 C1893 1.400 . S
C1893 C1887 1.491 1_556 S
C1893 C1892 1.400 . S
C1893 C1894 1.398 . S
C1894 H1882 0.950 . S
C1894 C1893 1.398 . S
C1894 C1895 1.391 . S
C1895 H1883 0.950 . S
C1895 C1891 1.393 . S
C1895 C1894 1.391 . S
H1896 C1904 0.950 . S
H1897 C1909 0.950 . S
H1898 C1906 0.950 . S
H1899 C1908 0.950 . S
H1900 C1910 0.950 . S
H1901 C1912 0.950 . S
H1902 C1914 0.950 . S
H1903 C1915 0.950 . S
C1904 H1896 0.950 . S
C1904 C1905 1.386 . S
C1904 C1906 1.391 . S
C1905 C1904 1.386 . S
C1905 C1909 1.393 . S
C1906 H1898 0.950 . S
C1906 C1904 1.391 . S
C1906 C1907 1.400 . S
C1907 C1906 1.400 . S
C1907 C1908 1.398 . S
C1907 C1913 1.491 . S
C1908 H1899 0.950 . S
C1908 C1907 1.398 . S
C1908 C1909 1.391 . S
C1909 H1897 0.950 . S
C1909 C1905 1.393 . S
C1909 C1908 1.391 . S
C1910 H1900 0.950 . S
C1910 C1911 1.386 . S
C1910 C1912 1.391 . S
C1911 C1910 1.386 . S
C1911 C1915 1.393 . S
C1912 H1901 0.950 . S
C1912 C1910 1.391 . S
C1912 C1913 1.400 . S
C1913 C1907 1.491 . S
C1913 C1912 1.400 . S
C1913 C1914 1.398 . S
C1914 H1902 0.950 . S
C1914 C1913 1.398 . S
C1914 C1915 1.391 . S
C1915 H1903 0.950 . S
C1915 C1911 1.393 . S
C1915 C1914 1.391 . S
H1916 C1924 0.950 . S
H1917 C1929 0.950 . S
H1918 C1926 0.950 . S
H1919 C1928 0.950 . S
H1920 C1930 0.950 . S
H1921 C1932 0.950 . S
H1922 C1934 0.950 . S
H1923 C1935 0.950 . S
C1924 H1916 0.950 . S
C1924 C1925 1.386 . S
C1924 C1926 1.391 . S
C1925 C1924 1.386 . S
C1925 C1929 1.393 . S
C1926 H1918 0.950 . S
C1926 C1924 1.391 . S
C1926 C1927 1.400 . S
C1927 C1926 1.400 . S
C1927 C1928 1.398 . S
C1927 C1933 1.491 . S
C1928 H1919 0.950 . S
C1928 C1927 1.398 . S
C1928 C1929 1.391 . S
C1929 H1917 0.950 . S
C1929 C1925 1.393 . S
C1929 C1928 1.391 . S
C1930 H1920 0.950 . S
C1930 C1931 1.386 . S
C1930 C1932 1.391 . S
C1931 C1930 1.386 . S
C1931 C1935 1.393 . S
C1932 H1921 0.950 . S
C1932 C1930 1.391 . S
C1932 C1933 1.400 . S
C1933 C1927 1.491 . S
C1933 C1932 1.400 . S
C1933 C1934 1.398 . S
C1934 H1922 0.950 . S
C1934 C1933 1.398 . S
C1934 C1935 1.391 . S
C1935 H1923 0.950 . S
C1935 C1931 1.393 . S
C1935 C1934 1.391 . S
H1936 C1944 0.950 . S
H1937 C1949 0.950 . S
H1938 C1946 0.950 . S
H1939 C1948 0.950 . S
H1940 C1950 0.950 . S
H1941 C1952 0.950 . S
H1942 C1954 0.950 . S
H1943 C1955 0.950 . S
C1944 H1936 0.950 . S
C1944 C1945 1.386 . S
C1944 C1946 1.391 . S
C1945 C1944 1.386 . S
C1945 C1949 1.393 . S
C1946 H1938 0.950 . S
C1946 C1944 1.391 . S
C1946 C1947 1.400 . S
C1947 C1946 1.400 . S
C1947 C1948 1.398 . S
C1947 C1953 1.491 . S
C1948 H1939 0.950 . S
C1948 C1947 1.398 . S
C1948 C1949 1.391 . S
C1949 H1937 0.950 . S
C1949 C1945 1.393 . S
C1949 C1948 1.391 . S
C1950 H1940 0.950 . S
C1950 C1951 1.386 . S
C1950 C1952 1.391 . S
C1951 C1950 1.386 . S
C1951 C1955 1.393 . S
C1952 H1941 0.950 . S
C1952 C1950 1.391 . S
C1952 C1953 1.400 . S
C1953 C1947 1.491 . S
C1953 C1952 1.400 . S
C1953 C1954 1.398 . S
C1954 H1942 0.950 . S
C1954 C1953 1.398 . S
C1954 C1955 1.391 . S
C1955 H1943 0.950 . S
C1955 C1951 1.393 . S
C1955 C1954 1.391 . S
H1956 C1964 0.950 . S
H1957 C1969 0.950 . S
H1958 C1966 0.950 . S
H1959 C1968 0.950 . S
H1960 C1970 0.950 . S
H1961 C1972 0.950 . S
H1962 C1974 0.950 . S
H1963 C1975 0.950 . S
C1964 H1956 0.950 . S
C1964 C1965 1.386 . S
C1964 C1966 1.391 . S
C1965 C1964 1.386 . S
C1965 C1969 1.393 . S
C1966 H1958 0.950 . S
C1966 C1964 1.391 . S
C1966 C1967 1.400 . S
C1967 C1966 1.400 . S
C1967 C1968 1.398 . S
C1967 C1973 1.491 1_556 S
C1968 H1959 0.950 . S
C1968 C1967 1.398 . S
C1968 C1969 1.391 . S
C1969 H1957 0.950 . S
C1969 C1965 1.393 . S
C1969 C1968 1.391 . S
C1970 H1960 0.950 . S
C1970 C1971 1.386 . S
C1970 C1972 1.391 . S
C1971 C1970 1.386 . S
C1971 C1975 1.393 . S
C1972 H1961 0.950 . S
C1972 C1970 1.391 . S
C1972 C1973 1.400 . S
C1973 C1967 1.491 1_554 S
C1973 C1972 1.400 . S
C1973 C1974 1.398 . S
C1974 H1962 0.950 . S
C1974 C1973 1.398 . S
C1974 C1975 1.391 . S
C1975 H1963 0.950 . S
C1975 C1971 1.393 . S
C1975 C1974 1.391 . S
H1976 C1984 0.950 . S
H1977 C1989 0.950 . S
H1978 C1986 0.950 . S
H1979 C1988 0.950 . S
H1980 C1990 0.950 . S
H1981 C1992 0.950 . S
H1982 C1994 0.950 . S
H1983 C1995 0.950 . S
C1984 H1976 0.950 . S
C1984 C1985 1.386 . S
C1984 C1986 1.391 . S
C1985 C1984 1.386 . S
C1985 C1989 1.393 . S
C1986 H1978 0.950 . S
C1986 C1984 1.391 . S
C1986 C1987 1.400 . S
C1987 C1986 1.400 . S
C1987 C1988 1.398 . S
C1987 C1993 1.491 . S
C1988 H1979 0.950 . S
C1988 C1987 1.398 . S
C1988 C1989 1.391 . S
C1989 H1977 0.950 . S
C1989 C1985 1.393 . S
C1989 C1988 1.391 . S
C1990 H1980 0.950 . S
C1990 C1991 1.386 . S
C1990 C1992 1.391 . S
C1991 C1990 1.386 . S
C1991 C1995 1.393 . S
C1992 H1981 0.950 . S
C1992 C1990 1.391 . S
C1992 C1993 1.400 . S
C1993 C1987 1.491 . S
C1993 C1992 1.400 . S
C1993 C1994 1.398 . S
C1994 H1982 0.950 . S
C1994 C1993 1.398 . S
C1994 C1995 1.391 . S
C1995 H1983 0.950 . S
C1995 C1991 1.393 . S
C1995 C1994 1.391 . S
H1996 C2004 0.950 . S
H1997 C2009 0.950 . S
H1998 C2006 0.950 . S
H1999 C2008 0.950 . S
H2000 C2010 0.950 . S
H2001 C2012 0.950 . S
H2002 C2014 0.950 . S
H2003 C2015 0.950 . S
C2004 H1996 0.950 . S
C2004 C2005 1.386 . S
C2004 C2006 1.391 . S
C2005 C2004 1.386 . S
C2005 C2009 1.393 . S
C2006 H1998 0.950 . S
C2006 C2004 1.391 . S
C2006 C2007 1.400 . S
C2007 C2006 1.400 . S
C2007 C2008 1.398 . S
C2007 C2013 1.491 . S
C2008 H1999 0.950 . S
C2008 C2007 1.398 . S
C2008 C2009 1.391 . S
C2009 H1997 0.950 . S
C2009 C2005 1.393 . S
C2009 C2008 1.391 . S
C2010 H2000 0.950 . S
C2010 C2011 1.386 . S
C2010 C2012 1.391 . S
C2011 C2010 1.386 . S
C2011 C2015 1.393 . S
C2012 H2001 0.950 . S
C2012 C2010 1.391 . S
C2012 C2013 1.400 . S
C2013 C2007 1.491 . S
C2013 C2012 1.400 . S
C2013 C2014 1.398 . S
C2014 H2002 0.950 . S
C2014 C2013 1.398 . S
C2014 C2015 1.391 . S
C2015 H2003 0.950 . S
C2015 C2011 1.393 . S
C2015 C2014 1.391 . S
H2016 C2024 0.950 . S
H2017 C2029 0.950 . S
H2018 C2026 0.950 . S
H2019 C2028 0.950 . S
H2020 C2030 0.950 . S
H2021 C2032 0.950 . S
H2022 C2034 0.950 . S
H2023 C2035 0.950 . S
C2024 H2016 0.950 . S
C2024 C2025 1.386 . S
C2024 C2026 1.391 . S
C2025 C2024 1.386 . S
C2025 C2029 1.393 . S
C2026 H2018 0.950 . S
C2026 C2024 1.391 . S
C2026 C2027 1.400 . S
C2027 C2026 1.400 . S
C2027 C2028 1.398 . S
C2027 C2033 1.491 . S
C2028 H2019 0.950 . S
C2028 C2027 1.398 . S
C2028 C2029 1.391 . S
C2029 H2017 0.950 . S
C2029 C2025 1.393 . S
C2029 C2028 1.391 . S
C2030 H2020 0.950 . S
C2030 C2031 1.386 . S
C2030 C2032 1.391 . S
C2031 C2030 1.386 . S
C2031 C2035 1.393 . S
C2032 H2021 0.950 . S
C2032 C2030 1.391 . S
C2032 C2033 1.400 . S
C2033 C2027 1.491 . S
C2033 C2032 1.400 . S
C2033 C2034 1.398 . S
C2034 H2022 0.950 . S
C2034 C2033 1.398 . S
C2034 C2035 1.391 . S
C2035 H2023 0.950 . S
C2035 C2031 1.393 . S
C2035 C2034 1.391 . S
H2036 C2044 0.950 . S
H2037 C2049 0.950 . S
H2038 C2046 0.950 . S
H2039 C2048 0.950 . S
H2040 C2050 0.950 . S
H2041 C2052 0.950 . S
H2042 C2054 0.950 . S
H2043 C2055 0.950 . S
C2044 H2036 0.950 . S
C2044 C2045 1.386 . S
C2044 C2046 1.391 . S
C2045 C2044 1.386 . S
C2045 C2049 1.393 . S
C2046 H2038 0.950 . S
C2046 C2044 1.391 . S
C2046 C2047 1.400 . S
C2047 C2046 1.400 . S
C2047 C2048 1.398 . S
C2047 C2053 1.491 . S
C2048 H2039 0.950 . S
C2048 C2047 1.398 . S
C2048 C2049 1.391 . S
C2049 H2037 0.950 . S
C2049 C2045 1.393 . S
C2049 C2048 1.391 . S
C2050 H2040 0.950 . S
C2050 C2051 1.386 . S
C2050 C2052 1.391 . S
C2051 C2050 1.386 . S
C2051 C2055 1.393 . S
C2052 H2041 0.950 . S
C2052 C2050 1.391 . S
C2052 C2053 1.400 . S
C2053 C2047 1.491 . S
C2053 C2052 1.400 . S
C2053 C2054 1.398 . S
C2054 H2042 0.950 . S
C2054 C2053 1.398 . S
C2054 C2055 1.391 . S
C2055 H2043 0.950 . S
C2055 C2051 1.393 . S
C2055 C2054 1.391 . S
H2056 C2064 0.950 . S
H2057 C2069 0.950 . S
H2058 C2066 0.950 . S
H2059 C2068 0.950 . S
H2060 C2070 0.950 . S
H2061 C2072 0.950 . S
H2062 C2074 0.950 . S
H2063 C2075 0.950 . S
C2064 H2056 0.950 . S
C2064 C2065 1.386 . S
C2064 C2066 1.391 . S
C2065 C2064 1.386 . S
C2065 C2069 1.393 . S
C2066 H2058 0.950 . S
C2066 C2064 1.391 . S
C2066 C2067 1.400 . S
C2067 C2066 1.400 . S
C2067 C2068 1.398 . S
C2067 C2073 1.491 . S
C2068 H2059 0.950 . S
C2068 C2067 1.398 . S
C2068 C2069 1.391 . S
C2069 H2057 0.950 . S
C2069 C2065 1.393 . S
C2069 C2068 1.391 . S
C2070 H2060 0.950 . S
C2070 C2071 1.386 . S
C2070 C2072 1.391 . S
C2071 C2070 1.386 . S
C2071 C2075 1.393 . S
C2072 H2061 0.950 . S
C2072 C2070 1.391 . S
C2072 C2073 1.400 . S
C2073 C2067 1.491 . S
C2073 C2072 1.400 . S
C2073 C2074 1.398 . S
C2074 H2062 0.950 . S
C2074 C2073 1.398 . S
C2074 C2075 1.391 . S
C2075 H2063 0.950 . S
C2075 C2071 1.393 . S
C2075 C2074 1.391 . S
H2076 C2084 0.950 . S
H2077 C2089 0.950 . S
H2078 C2086 0.950 . S
H2079 C2088 0.950 . S
H2080 C2090 0.950 . S
H2081 C2092 0.950 . S
H2082 C2094 0.950 . S
H2083 C2095 0.950 . S
C2084 H2076 0.950 . S
C2084 C2085 1.386 . S
C2084 C2086 1.391 . S
C2085 C2084 1.386 . S
C2085 C2089 1.393 . S
C2086 H2078 0.950 . S
C2086 C2084 1.391 . S
C2086 C2087 1.400 . S
C2087 C2086 1.400 . S
C2087 C2088 1.398 . S
C2087 C2093 1.491 . S
C2088 H2079 0.950 . S
C2088 C2087 1.398 . S
C2088 C2089 1.391 . S
C2089 H2077 0.950 . S
C2089 C2085 1.393 . S
C2089 C2088 1.391 . S
C2090 H2080 0.950 . S
C2090 C2091 1.386 . S
C2090 C2092 1.391 . S
C2091 C2090 1.386 . S
C2091 C2095 1.393 . S
C2092 H2081 0.950 . S
C2092 C2090 1.391 . S
C2092 C2093 1.400 . S
C2093 C2087 1.491 . S
C2093 C2092 1.400 . S
C2093 C2094 1.398 . S
C2094 H2082 0.950 . S
C2094 C2093 1.398 . S
C2094 C2095 1.391 . S
C2095 H2083 0.950 . S
C2095 C2091 1.393 . S
C2095 C2094 1.391 . S
H2096 C2104 0.950 . S
H2097 C2109 0.950 . S
H2098 C2106 0.950 . S
H2099 C2108 0.950 . S
H2100 C2110 0.950 . S
H2101 C2112 0.950 . S
H2102 C2114 0.950 . S
H2103 C2115 0.950 . S
C2104 H2096 0.950 . S
C2104 C2105 1.386 . S
C2104 C2106 1.391 . S
C2105 C2104 1.386 . S
C2105 C2109 1.393 . S
C2106 H2098 0.950 . S
C2106 C2104 1.391 . S
C2106 C2107 1.400 . S
C2107 C2106 1.400 . S
C2107 C2108 1.398 . S
C2107 C2113 1.491 . S
C2108 H2099 0.950 . S
C2108 C2107 1.398 . S
C2108 C2109 1.391 . S
C2109 H2097 0.950 . S
C2109 C2105 1.393 . S
C2109 C2108 1.391 . S
C2110 H2100 0.950 . S
C2110 C2111 1.386 . S
C2110 C2112 1.391 . S
C2111 C2110 1.386 . S
C2111 C2115 1.393 . S
C2112 H2101 0.950 . S
C2112 C2110 1.391 . S
C2112 C2113 1.400 . S
C2113 C2107 1.491 . S
C2113 C2112 1.400 . S
C2113 C2114 1.398 . S
C2114 H2102 0.950 . S
C2114 C2113 1.398 . S
C2114 C2115 1.391 . S
C2115 H2103 0.950 . S
C2115 C2111 1.393 . S
C2115 C2114 1.391 . S
H2116 C2124 0.950 . S
H2117 C2129 0.950 . S
H2118 C2126 0.950 . S
H2119 C2128 0.950 . S
H2120 C2130 0.950 . S
H2121 C2132 0.950 . S
H2122 C2134 0.950 . S
H2123 C2135 0.950 . S
C2124 H2116 0.950 . S
C2124 C2125 1.386 . S
C2124 C2126 1.391 . S
C2125 C2124 1.386 . S
C2125 C2129 1.393 . S
C2126 H2118 0.950 . S
C2126 C2124 1.391 . S
C2126 C2127 1.400 . S
C2127 C2126 1.400 . S
C2127 C2128 1.398 . S
C2127 C2133 1.491 . S
C2128 H2119 0.950 . S
C2128 C2127 1.398 . S
C2128 C2129 1.391 . S
C2129 H2117 0.950 . S
C2129 C2125 1.393 . S
C2129 C2128 1.391 . S
C2130 H2120 0.950 . S
C2130 C2131 1.386 . S
C2130 C2132 1.391 . S
C2131 C2130 1.386 . S
C2131 C2135 1.393 . S
C2132 H2121 0.950 . S
C2132 C2130 1.391 . S
C2132 C2133 1.400 . S
C2133 C2127 1.491 . S
C2133 C2132 1.400 . S
C2133 C2134 1.398 . S
C2134 H2122 0.950 . S
C2134 C2133 1.398 . S
C2134 C2135 1.391 . S
C2135 H2123 0.950 . S
C2135 C2131 1.393 . S
C2135 C2134 1.391 . S
H2136 C2144 0.950 . S
H2137 C2149 0.950 . S
H2138 C2146 0.950 . S
H2139 C2148 0.950 . S
H2140 C2150 0.950 . S
H2141 C2152 0.950 . S
H2142 C2154 0.950 . S
H2143 C2155 0.950 . S
C2144 H2136 0.950 . S
C2144 C2145 1.386 . S
C2144 C2146 1.391 . S
C2145 C2144 1.386 . S
C2145 C2149 1.393 . S
C2146 H2138 0.950 . S
C2146 C2144 1.391 . S
C2146 C2147 1.400 . S
C2147 C2146 1.400 . S
C2147 C2148 1.398 . S
C2147 C2153 1.491 . S
C2148 H2139 0.950 . S
C2148 C2147 1.398 . S
C2148 C2149 1.391 . S
C2149 H2137 0.950 . S
C2149 C2145 1.393 . S
C2149 C2148 1.391 . S
C2150 H2140 0.950 . S
C2150 C2151 1.386 . S
C2150 C2152 1.391 . S
C2151 C2150 1.386 . S
C2151 C2155 1.393 . S
C2152 H2141 0.950 . S
C2152 C2150 1.391 . S
C2152 C2153 1.400 . S
C2153 C2147 1.491 . S
C2153 C2152 1.400 . S
C2153 C2154 1.398 . S
C2154 H2142 0.950 . S
C2154 C2153 1.398 . S
C2154 C2155 1.391 . S
C2155 H2143 0.950 . S
C2155 C2151 1.393 . S
C2155 C2154 1.391 . S
H2156 C2164 0.950 . S
H2157 C2169 0.950 . S
H2158 C2166 0.950 . S
H2159 C2168 0.950 . S
H2160 C2170 0.950 . S
H2161 C2172 0.950 . S
H2162 C2174 0.950 . S
H2163 C2175 0.950 . S
C2164 H2156 0.950 . S
C2164 C2165 1.386 . S
C2164 C2166 1.391 . S
C2165 C2164 1.386 . S
C2165 C2169 1.393 . S
C2166 H2158 0.950 . S
C2166 C2164 1.391 . S
C2166 C2167 1.400 . S
C2167 C2166 1.400 . S
C2167 C2168 1.398 . S
C2167 C2173 1.491 . S
C2168 H2159 0.950 . S
C2168 C2167 1.398 . S
C2168 C2169 1.391 . S
C2169 H2157 0.950 . S
C2169 C2165 1.393 . S
C2169 C2168 1.391 . S
C2170 H2160 0.950 . S
C2170 C2171 1.386 . S
C2170 C2172 1.391 . S
C2171 C2170 1.386 . S
C2171 C2175 1.393 . S
C2172 H2161 0.950 . S
C2172 C2170 1.391 . S
C2172 C2173 1.400 . S
C2173 C2167 1.491 . S
C2173 C2172 1.400 . S
C2173 C2174 1.398 . S
C2174 H2162 0.950 . S
C2174 C2173 1.398 . S
C2174 C2175 1.391 . S
C2175 H2163 0.950 . S
C2175 C2171 1.393 . S
C2175 C2174 1.391 . S
H2176 C2184 0.950 . S
H2177 C2189 0.950 . S
H2178 C2186 0.950 . S
H2179 C2188 0.950 . S
H2180 C2190 0.950 . S
H2181 C2192 0.950 . S
H2182 C2194 0.950 . S
H2183 C2195 0.950 . S
C2184 H2176 0.950 . S
C2184 C2185 1.386 . S
C2184 C2186 1.391 . S
C2185 C2184 1.386 . S
C2185 C2189 1.393 . S
C2186 H2178 0.950 . S
C2186 C2184 1.391 . S
C2186 C2187 1.400 . S
C2187 C2186 1.400 . S
C2187 C2188 1.398 . S
C2187 C2193 1.491 . S
C2188 H2179 0.950 . S
C2188 C2187 1.398 . S
C2188 C2189 1.391 . S
C2189 H2177 0.950 . S
C2189 C2185 1.393 . S
C2189 C2188 1.391 . S
C2190 H2180 0.950 . S
C2190 C2191 1.386 . S
C2190 C2192 1.391 . S
C2191 C2190 1.386 . S
C2191 C2195 1.393 . S
C2192 H2181 0.950 . S
C2192 C2190 1.391 . S
C2192 C2193 1.400 . S
C2193 C2187 1.491 . S
C2193 C2192 1.400 . S
C2193 C2194 1.398 . S
C2194 H2182 0.950 . S
C2194 C2193 1.398 . S
C2194 C2195 1.391 . S
C2195 H2183 0.950 . S
C2195 C2191 1.393 . S
C2195 C2194 1.391 . S
H2196 C2204 0.950 . S
H2197 C2209 0.950 . S
H2198 C2206 0.950 . S
H2199 C2208 0.950 . S
H2200 C2210 0.950 . S
H2201 C2212 0.950 . S
H2202 C2214 0.950 . S
H2203 C2215 0.950 . S
C2204 H2196 0.950 . S
C2204 C2205 1.386 . S
C2204 C2206 1.391 . S
C2205 C2204 1.386 . S
C2205 C2209 1.393 . S
C2206 H2198 0.950 . S
C2206 C2204 1.391 . S
C2206 C2207 1.400 . S
C2207 C2206 1.400 . S
C2207 C2208 1.398 . S
C2207 C2213 1.491 . S
C2208 H2199 0.950 . S
C2208 C2207 1.398 . S
C2208 C2209 1.391 . S
C2209 H2197 0.950 . S
C2209 C2205 1.393 . S
C2209 C2208 1.391 . S
C2210 H2200 0.950 . S
C2210 C2211 1.386 . S
C2210 C2212 1.391 . S
C2211 C2210 1.386 . S
C2211 C2215 1.393 . S
C2212 H2201 0.950 . S
C2212 C2210 1.391 . S
C2212 C2213 1.400 . S
C2213 C2207 1.491 . S
C2213 C2212 1.400 . S
C2213 C2214 1.398 . S
C2214 H2202 0.950 . S
C2214 C2213 1.398 . S
C2214 C2215 1.391 . S
C2215 H2203 0.950 . S
C2215 C2211 1.393 . S
C2215 C2214 1.391 . S
H2216 C2224 0.950 . S
H2217 C2229 0.950 . S
H2218 C2226 0.950 . S
H2219 C2228 0.950 . S
H2220 C2230 0.950 . S
H2221 C2232 0.950 . S
H2222 C2234 0.950 . S
H2223 C2235 0.950 . S
C2224 H2216 0.950 . S
C2224 C2225 1.386 . S
C2224 C2226 1.391 . S
C2225 C2224 1.386 . S
C2225 C2229 1.393 . S
C2226 H2218 0.950 . S
C2226 C2224 1.391 . S
C2226 C2227 1.400 . S
C2227 C2226 1.400 . S
C2227 C2228 1.398 . S
C2227 C2233 1.491 . S
C2228 H2219 0.950 . S
C2228 C2227 1.398 . S
C2228 C2229 1.391 . S
C2229 H2217 0.950 . S
C2229 C2225 1.393 . S
C2229 C2228 1.391 . S
C2230 H2220 0.950 . S
C2230 C2231 1.386 . S
C2230 C2232 1.391 . S
C2231 C2230 1.386 . S
C2231 C2235 1.393 . S
C2232 H2221 0.950 . S
C2232 C2230 1.391 . S
C2232 C2233 1.400 . S
C2233 C2227 1.491 . S
C2233 C2232 1.400 . S
C2233 C2234 1.398 . S
C2234 H2222 0.950 . S
C2234 C2233 1.398 . S
C2234 C2235 1.391 . S
C2235 H2223 0.950 . S
C2235 C2231 1.393 . S
C2235 C2234 1.391 . S
H2236 C2244 0.950 . S
H2237 C2249 0.950 . S
H2238 C2246 0.950 . S
H2239 C2248 0.950 . S
H2240 C2250 0.950 . S
H2241 C2252 0.950 . S
H2242 C2254 0.950 . S
H2243 C2255 0.950 . S
C2244 H2236 0.950 . S
C2244 C2245 1.386 . S
C2244 C2246 1.391 . S
C2245 C2244 1.386 . S
C2245 C2249 1.393 . S
C2246 H2238 0.950 . S
C2246 C2244 1.391 . S
C2246 C2247 1.400 . S
C2247 C2246 1.400 . S
C2247 C2248 1.398 . S
C2247 C2253 1.491 . S
C2248 H2239 0.950 . S
C2248 C2247 1.398 . S
C2248 C2249 1.391 . S
C2249 H2237 0.950 . S
C2249 C2245 1.393 . S
C2249 C2248 1.391 . S
C2250 H2240 0.950 . S
C2250 C2251 1.386 . S
C2250 C2252 1.391 . S
C2251 C2250 1.386 . S
C2251 C2255 1.393 . S
C2252 H2241 0.950 . S
C2252 C2250 1.391 . S
C2252 C2253 1.400 . S
C2253 C2247 1.491 . S
C2253 C2252 1.400 . S
C2253 C2254 1.398 . S
C2254 H2242 0.950 . S
C2254 C2253 1.398 . S
C2254 C2255 1.391 . S
C2255 H2243 0.950 . S
C2255 C2251 1.393 . S
C2255 C2254 1.391 . S
H2256 C2264 0.950 . S
H2257 C2269 0.950 . S
H2258 C2266 0.950 . S
H2259 C2268 0.950 . S
H2260 C2270 0.950 . S
H2261 C2272 0.950 . S
H2262 C2274 0.950 . S
H2263 C2275 0.950 . S
C2264 H2256 0.950 . S
C2264 C2265 1.386 . S
C2264 C2266 1.391 . S
C2265 C2264 1.386 . S
C2265 C2269 1.393 . S
C2266 H2258 0.950 . S
C2266 C2264 1.391 . S
C2266 C2267 1.400 . S
C2267 C2266 1.400 . S
C2267 C2268 1.398 . S
C2267 C2273 1.491 . S
C2268 H2259 0.950 . S
C2268 C2267 1.398 . S
C2268 C2269 1.391 . S
C2269 H2257 0.950 . S
C2269 C2265 1.393 . S
C2269 C2268 1.391 . S
C2270 H2260 0.950 . S
C2270 C2271 1.386 . S
C2270 C2272 1.391 . S
C2271 C2270 1.386 . S
C2271 C2275 1.393 . S
C2272 H2261 0.950 . S
C2272 C2270 1.391 . S
C2272 C2273 1.400 . S
C2273 C2267 1.491 . S
C2273 C2272 1.400 . S
C2273 C2274 1.398 . S
C2274 H2262 0.950 . S
C2274 C2273 1.398 . S
C2274 C2275 1.391 . S
C2275 H2263 0.950 . S
C2275 C2271 1.393 . S
C2275 C2274 1.391 . S
H2276 C2284 0.950 . S
H2277 C2289 0.950 . S
H2278 C2286 0.950 . S
H2279 C2288 0.950 . S
H2280 C2290 0.950 . S
H2281 C2292 0.950 . S
H2282 C2294 0.950 . S
H2283 C2295 0.950 . S
C2284 H2276 0.950 . S
C2284 C2285 1.386 . S
C2284 C2286 1.391 . S
C2285 C2284 1.386 . S
C2285 C2289 1.393 . S
C2286 H2278 0.950 . S
C2286 C2284 1.391 . S
C2286 C2287 1.400 . S
C2287 C2286 1.400 . S
C2287 C2288 1.398 . S
C2287 C2293 1.491 . S
C2288 H2279 0.950 . S
C2288 C2287 1.398 . S
C2288 C2289 1.391 . S
C2289 H2277 0.950 . S
C2289 C2285 1.393 . S
C2289 C2288 1.391 . S
C2290 H2280 0.950 . S
C2290 C2291 1.386 . S
C2290 C2292 1.391 . S
C2291 C2290 1.386 . S
C2291 C2295 1.393 . S
C2292 H2281 0.950 . S
C2292 C2290 1.391 . S
C2292 C2293 1.400 . S
C2293 C2287 1.491 . S
C2293 C2292 1.400 . S
C2293 C2294 1.398 . S
C2294 H2282 0.950 . S
C2294 C2293 1.398 . S
C2294 C2295 1.391 . S
C2295 H2283 0.950 . S
C2295 C2291 1.393 . S
C2295 C2294 1.391 . S
H2296 C2304 0.950 . S
H2297 C2309 0.950 . S
H2298 C2306 0.950 . S
H2299 C2308 0.950 . S
H2300 C2310 0.950 . S
H2301 C2312 0.950 . S
H2302 C2314 0.950 . S
H2303 C2315 0.950 . S
C2304 H2296 0.950 . S
C2304 C2305 1.386 . S
C2304 C2306 1.391 . S
C2305 C2304 1.386 . S
C2305 C2309 1.393 . S
C2306 H2298 0.950 . S
C2306 C2304 1.391 . S
C2306 C2307 1.400 . S
C2307 C2306 1.400 . S
C2307 C2308 1.398 . S
C2307 C2313 1.491 . S
C2308 H2299 0.950 . S
C2308 C2307 1.398 . S
C2308 C2309 1.391 . S
C2309 H2297 0.950 . S
C2309 C2305 1.393 . S
C2309 C2308 1.391 . S
C2310 H2300 0.950 . S
C2310 C2311 1.386 . S
C2310 C2312 1.391 . S
C2311 C2310 1.386 . S
C2311 C2315 1.393 . S
C2312 H2301 0.950 . S
C2312 C2310 1.391 . S
C2312 C2313 1.400 . S
C2313 C2307 1.491 . S
C2313 C2312 1.400 . S
C2313 C2314 1.398 . S
C2314 H2302 0.950 . S
C2314 C2313 1.398 . S
C2314 C2315 1.391 . S
C2315 H2303 0.950 . S
C2315 C2311 1.393 . S
C2315 C2314 1.391 . S
H2316 C2324 0.950 . S
H2317 C2329 0.950 . S
H2318 C2326 0.950 . S
H2319 C2328 0.950 . S
H2320 C2330 0.950 . S
H2321 C2332 0.950 . S
H2322 C2334 0.950 . S
H2323 C2335 0.950 . S
C2324 H2316 0.950 . S
C2324 C2325 1.386 . S
C2324 C2326 1.391 . S
C2325 C2324 1.386 . S
C2325 C2329 1.393 . S
C2326 H2318 0.950 . S
C2326 C2324 1.391 . S
C2326 C2327 1.400 . S
C2327 C2326 1.400 . S
C2327 C2328 1.398 . S
C2327 C2333 1.491 . S
C2328 H2319 0.950 . S
C2328 C2327 1.398 . S
C2328 C2329 1.391 . S
C2329 H2317 0.950 . S
C2329 C2325 1.393 . S
C2329 C2328 1.391 . S
C2330 H2320 0.950 . S
C2330 C2331 1.386 . S
C2330 C2332 1.391 . S
C2331 C2330 1.386 . S
C2331 C2335 1.393 . S
C2332 H2321 0.950 . S
C2332 C2330 1.391 . S
C2332 C2333 1.400 . S
C2333 C2327 1.491 . S
C2333 C2332 1.400 . S
C2333 C2334 1.398 . S
C2334 H2322 0.950 . S
C2334 C2333 1.398 . S
C2334 C2335 1.391 . S
C2335 H2323 0.950 . S
C2335 C2331 1.393 . S
C2335 C2334 1.391 . S
H2336 C2344 0.950 . S
H2337 C2349 0.950 . S
H2338 C2346 0.950 . S
H2339 C2348 0.950 . S
H2340 C2350 0.950 . S
H2341 C2352 0.950 . S
H2342 C2354 0.950 . S
H2343 C2355 0.950 . S
C2344 H2336 0.950 . S
C2344 C2345 1.386 . S
C2344 C2346 1.391 . S
C2345 C2344 1.386 . S
C2345 C2349 1.393 . S
C2346 H2338 0.950 . S
C2346 C2344 1.391 . S
C2346 C2347 1.400 . S
C2347 C2346 1.400 . S
C2347 C2348 1.398 . S
C2347 C2353 1.491 . S
C2348 H2339 0.950 . S
C2348 C2347 1.398 . S
C2348 C2349 1.391 . S
C2349 H2337 0.950 . S
C2349 C2345 1.393 . S
C2349 C2348 1.391 . S
C2350 H2340 0.950 . S
C2350 C2351 1.386 . S
C2350 C2352 1.391 . S
C2351 C2350 1.386 . S
C2351 C2355 1.393 . S
C2352 H2341 0.950 . S
C2352 C2350 1.391 . S
C2352 C2353 1.400 . S
C2353 C2347 1.491 . S
C2353 C2352 1.400 . S
C2353 C2354 1.398 . S
C2354 H2342 0.950 . S
C2354 C2353 1.398 . S
C2354 C2355 1.391 . S
C2355 H2343 0.950 . S
C2355 C2351 1.393 . S
C2355 C2354 1.391 . S
H2356 C2364 0.950 . S
H2357 C2369 0.950 . S
H2358 C2366 0.950 . S
H2359 C2368 0.950 . S
H2360 C2370 0.950 . S
H2361 C2372 0.950 . S
H2362 C2374 0.950 . S
H2363 C2375 0.950 . S
C2364 H2356 0.950 . S
C2364 C2365 1.386 . S
C2364 C2366 1.391 . S
C2365 C2364 1.386 . S
C2365 C2369 1.393 . S
C2366 H2358 0.950 . S
C2366 C2364 1.391 . S
C2366 C2367 1.400 . S
C2367 C2366 1.400 . S
C2367 C2368 1.398 . S
C2367 C2373 1.491 1_655 S
C2368 H2359 0.950 . S
C2368 C2367 1.398 . S
C2368 C2369 1.391 . S
C2369 H2357 0.950 . S
C2369 C2365 1.393 . S
C2369 C2368 1.391 . S
C2370 H2360 0.950 . S
C2370 C2371 1.386 . S
C2370 C2372 1.391 . S
C2371 C2370 1.386 . S
C2371 C2375 1.393 . S
C2372 H2361 0.950 . S
C2372 C2370 1.391 . S
C2372 C2373 1.400 . S
C2373 C2367 1.491 1_455 S
C2373 C2372 1.400 . S
C2373 C2374 1.398 . S
C2374 H2362 0.950 . S
C2374 C2373 1.398 . S
C2374 C2375 1.391 . S
C2375 H2363 0.950 . S
C2375 C2371 1.393 . S
C2375 C2374 1.391 . S
H2376 C2384 0.950 . S
H2377 C2389 0.950 . S
H2378 C2386 0.950 . S
H2379 C2388 0.950 . S
H2380 C2390 0.950 . S
H2381 C2392 0.950 . S
H2382 C2394 0.950 . S
H2383 C2395 0.950 . S
C2384 H2376 0.950 . S
C2384 C2385 1.386 . S
C2384 C2386 1.391 . S
C2385 C2384 1.386 . S
C2385 C2389 1.393 . S
C2386 H2378 0.950 . S
C2386 C2384 1.391 . S
C2386 C2387 1.400 . S
C2387 C2386 1.400 . S
C2387 C2388 1.398 . S
C2387 C2393 1.491 . S
C2388 H2379 0.950 . S
C2388 C2387 1.398 . S
C2388 C2389 1.391 . S
C2389 H2377 0.950 . S
C2389 C2385 1.393 . S
C2389 C2388 1.391 . S
C2390 H2380 0.950 . S
C2390 C2391 1.386 . S
C2390 C2392 1.391 . S
C2391 C2390 1.386 . S
C2391 C2395 1.393 . S
C2392 H2381 0.950 . S
C2392 C2390 1.391 . S
C2392 C2393 1.400 . S
C2393 C2387 1.491 . S
C2393 C2392 1.400 . S
C2393 C2394 1.398 . S
C2394 H2382 0.950 . S
C2394 C2393 1.398 . S
C2394 C2395 1.391 . S
C2395 H2383 0.950 . S
C2395 C2391 1.393 . S
C2395 C2394 1.391 . S
H2396 C2404 0.950 . S
H2397 C2409 0.950 . S
H2398 C2406 0.950 . S
H2399 C2408 0.950 . S
H2400 C2410 0.950 . S
H2401 C2412 0.950 . S
H2402 C2414 0.950 . S
H2403 C2415 0.950 . S
C2404 H2396 0.950 . S
C2404 C2405 1.386 . S
C2404 C2406 1.391 . S
C2405 C2404 1.386 . S
C2405 C2409 1.393 . S
C2406 H2398 0.950 . S
C2406 C2404 1.391 . S
C2406 C2407 1.400 . S
C2407 C2406 1.400 . S
C2407 C2408 1.398 . S
C2407 C2413 1.491 . S
C2408 H2399 0.950 . S
C2408 C2407 1.398 . S
C2408 C2409 1.391 . S
C2409 H2397 0.950 . S
C2409 C2405 1.393 . S
C2409 C2408 1.391 . S
C2410 H2400 0.950 . S
C2410 C2411 1.386 . S
C2410 C2412 1.391 . S
C2411 C2410 1.386 . S
C2411 C2415 1.393 . S
C2412 H2401 0.950 . S
C2412 C2410 1.391 . S
C2412 C2413 1.400 . S
C2413 C2407 1.491 . S
C2413 C2412 1.400 . S
C2413 C2414 1.398 . S
C2414 H2402 0.950 . S
C2414 C2413 1.398 . S
C2414 C2415 1.391 . S
C2415 H2403 0.950 . S
C2415 C2411 1.393 . S
C2415 C2414 1.391 . S
H2416 C2424 0.950 . S
H2417 C2429 0.950 . S
H2418 C2426 0.950 . S
H2419 C2428 0.950 . S
H2420 C2430 0.950 . S
H2421 C2432 0.950 . S
H2422 C2434 0.950 . S
H2423 C2435 0.950 . S
C2424 H2416 0.950 . S
C2424 C2425 1.386 . S
C2424 C2426 1.391 . S
C2425 C2424 1.386 . S
C2425 C2429 1.393 . S
C2426 H2418 0.950 . S
C2426 C2424 1.391 . S
C2426 C2427 1.400 . S
C2427 C2426 1.400 . S
C2427 C2428 1.398 . S
C2427 C2433 1.491 . S
C2428 H2419 0.950 . S
C2428 C2427 1.398 . S
C2428 C2429 1.391 . S
C2429 H2417 0.950 . S
C2429 C2425 1.393 . S
C2429 C2428 1.391 . S
C2430 H2420 0.950 . S
C2430 C2431 1.386 . S
C2430 C2432 1.391 . S
C2431 C2430 1.386 . S
C2431 C2435 1.393 . S
C2432 H2421 0.950 . S
C2432 C2430 1.391 . S
C2432 C2433 1.400 . S
C2433 C2427 1.491 . S
C2433 C2432 1.400 . S
C2433 C2434 1.398 . S
C2434 H2422 0.950 . S
C2434 C2433 1.398 . S
C2434 C2435 1.391 . S
C2435 H2423 0.950 . S
C2435 C2431 1.393 . S
C2435 C2434 1.391 . S
H2436 C2444 0.950 . S
H2437 C2449 0.950 . S
H2438 C2446 0.950 . S
H2439 C2448 0.950 . S
H2440 C2450 0.950 . S
H2441 C2452 0.950 . S
H2442 C2454 0.950 . S
H2443 C2455 0.950 . S
C2444 H2436 0.950 . S
C2444 C2445 1.386 . S
C2444 C2446 1.391 . S
C2445 C2444 1.386 . S
C2445 C2449 1.393 . S
C2446 H2438 0.950 . S
C2446 C2444 1.391 . S
C2446 C2447 1.400 . S
C2447 C2446 1.400 . S
C2447 C2448 1.398 . S
C2447 C2453 1.491 . S
C2448 H2439 0.950 . S
C2448 C2447 1.398 . S
C2448 C2449 1.391 . S
C2449 H2437 0.950 . S
C2449 C2445 1.393 . S
C2449 C2448 1.391 . S
C2450 H2440 0.950 . S
C2450 C2451 1.386 . S
C2450 C2452 1.391 . S
C2451 C2450 1.386 . S
C2451 C2455 1.393 . S
C2452 H2441 0.950 . S
C2452 C2450 1.391 . S
C2452 C2453 1.400 . S
C2453 C2447 1.491 . S
C2453 C2452 1.400 . S
C2453 C2454 1.398 . S
C2454 H2442 0.950 . S
C2454 C2453 1.398 . S
C2454 C2455 1.391 . S
C2455 H2443 0.950 . S
C2455 C2451 1.393 . S
C2455 C2454 1.391 . S
H2456 C2464 0.950 . S
H2457 C2469 0.950 . S
H2458 C2466 0.950 . S
H2459 C2468 0.950 . S
H2460 C2470 0.950 . S
H2461 C2472 0.950 . S
H2462 C2474 0.950 . S
H2463 C2475 0.950 . S
C2464 H2456 0.950 . S
C2464 C2465 1.386 . S
C2464 C2466 1.391 . S
C2465 C2464 1.386 . S
C2465 C2469 1.393 . S
C2466 H2458 0.950 . S
C2466 C2464 1.391 . S
C2466 C2467 1.400 . S
C2467 C2466 1.400 . S
C2467 C2468 1.398 . S
C2467 C2473 1.491 . S
C2468 H2459 0.950 . S
C2468 C2467 1.398 . S
C2468 C2469 1.391 . S
C2469 H2457 0.950 . S
C2469 C2465 1.393 . S
C2469 C2468 1.391 . S
C2470 H2460 0.950 . S
C2470 C2471 1.386 . S
C2470 C2472 1.391 . S
C2471 C2470 1.386 . S
C2471 C2475 1.393 . S
C2472 H2461 0.950 . S
C2472 C2470 1.391 . S
C2472 C2473 1.400 . S
C2473 C2467 1.491 . S
C2473 C2472 1.400 . S
C2473 C2474 1.398 . S
C2474 H2462 0.950 . S
C2474 C2473 1.398 . S
C2474 C2475 1.391 . S
C2475 H2463 0.950 . S
C2475 C2471 1.393 . S
C2475 C2474 1.391 . S
H2476 C2484 0.950 . S
H2477 C2489 0.950 . S
H2478 C2486 0.950 . S
H2479 C2488 0.950 . S
H2480 C2490 0.950 . S
H2481 C2492 0.950 . S
H2482 C2494 0.950 . S
H2483 C2495 0.950 . S
C2484 H2476 0.950 . S
C2484 C2485 1.386 . S
C2484 C2486 1.391 . S
C2485 C2484 1.386 . S
C2485 C2489 1.393 . S
C2486 H2478 0.950 . S
C2486 C2484 1.391 . S
C2486 C2487 1.400 . S
C2487 C2486 1.400 . S
C2487 C2488 1.398 . S
C2487 C2493 1.491 1_455 S
C2488 H2479 0.950 . S
C2488 C2487 1.398 . S
C2488 C2489 1.391 . S
C2489 H2477 0.950 . S
C2489 C2485 1.393 . S
C2489 C2488 1.391 . S
C2490 H2480 0.950 . S
C2490 C2491 1.386 . S
C2490 C2492 1.391 . S
C2491 C2490 1.386 . S
C2491 C2495 1.393 . S
C2492 H2481 0.950 . S
C2492 C2490 1.391 . S
C2492 C2493 1.400 . S
C2493 C2487 1.491 1_655 S
C2493 C2492 1.400 . S
C2493 C2494 1.398 . S
C2494 H2482 0.950 . S
C2494 C2493 1.398 . S
C2494 C2495 1.391 . S
C2495 H2483 0.950 . S
C2495 C2491 1.393 . S
C2495 C2494 1.391 . S
H2496 C2504 0.950 . S
H2497 C2509 0.950 . S
H2498 C2506 0.950 . S
H2499 C2508 0.950 . S
H2500 C2510 0.950 . S
H2501 C2512 0.950 . S
H2502 C2514 0.950 . S
H2503 C2515 0.950 . S
C2504 H2496 0.950 . S
C2504 C2505 1.386 . S
C2504 C2506 1.391 . S
C2505 C2504 1.386 . S
C2505 C2509 1.393 . S
C2506 H2498 0.950 . S
C2506 C2504 1.391 . S
C2506 C2507 1.400 . S
C2507 C2506 1.400 . S
C2507 C2508 1.398 . S
C2507 C2513 1.491 . S
C2508 H2499 0.950 . S
C2508 C2507 1.398 . S
C2508 C2509 1.391 . S
C2509 H2497 0.950 . S
C2509 C2505 1.393 . S
C2509 C2508 1.391 . S
C2510 H2500 0.950 . S
C2510 C2511 1.386 . S
C2510 C2512 1.391 . S
C2511 C2510 1.386 . S
C2511 C2515 1.393 . S
C2512 H2501 0.950 . S
C2512 C2510 1.391 . S
C2512 C2513 1.400 . S
C2513 C2507 1.491 . S
C2513 C2512 1.400 . S
C2513 C2514 1.398 . S
C2514 H2502 0.950 . S
C2514 C2513 1.398 . S
C2514 C2515 1.391 . S
C2515 H2503 0.950 . S
C2515 C2511 1.393 . S
C2515 C2514 1.391 . S
H2516 C2524 0.950 . S
H2517 C2529 0.950 . S
H2518 C2526 0.950 . S
H2519 C2528 0.950 . S
H2520 C2530 0.950 . S
H2521 C2532 0.950 . S
H2522 C2534 0.950 . S
H2523 C2535 0.950 . S
C2524 H2516 0.950 . S
C2524 C2525 1.386 . S
C2524 C2526 1.391 . S
C2525 C2524 1.386 . S
C2525 C2529 1.393 . S
C2526 H2518 0.950 . S
C2526 C2524 1.391 . S
C2526 C2527 1.400 . S
C2527 C2526 1.400 . S
C2527 C2528 1.398 . S
C2527 C2533 1.491 . S
C2528 H2519 0.950 . S
C2528 C2527 1.398 . S
C2528 C2529 1.391 . S
C2529 H2517 0.950 . S
C2529 C2525 1.393 . S
C2529 C2528 1.391 . S
C2530 H2520 0.950 . S
C2530 C2531 1.386 . S
C2530 C2532 1.391 . S
C2531 C2530 1.386 . S
C2531 C2535 1.393 . S
C2532 H2521 0.950 . S
C2532 C2530 1.391 . S
C2532 C2533 1.400 . S
C2533 C2527 1.491 . S
C2533 C2532 1.400 . S
C2533 C2534 1.398 . S
C2534 H2522 0.950 . S
C2534 C2533 1.398 . S
C2534 C2535 1.391 . S
C2535 H2523 0.950 . S
C2535 C2531 1.393 . S
C2535 C2534 1.391 . S
H2536 C2544 0.950 . S
H2537 C2549 0.950 . S
H2538 C2546 0.950 . S
H2539 C2548 0.950 . S
H2540 C2550 0.950 . S
H2541 C2552 0.950 . S
H2542 C2554 0.950 . S
H2543 C2555 0.950 . S
C2544 H2536 0.950 . S
C2544 C2545 1.386 . S
C2544 C2546 1.391 . S
C2545 C2544 1.386 . S
C2545 C2549 1.393 . S
C2546 H2538 0.950 . S
C2546 C2544 1.391 . S
C2546 C2547 1.400 . S
C2547 C2546 1.400 . S
C2547 C2548 1.398 . S
C2547 C2553 1.491 . S
C2548 H2539 0.950 . S
C2548 C2547 1.398 . S
C2548 C2549 1.391 . S
C2549 H2537 0.950 . S
C2549 C2545 1.393 . S
C2549 C2548 1.391 . S
C2550 H2540 0.950 . S
C2550 C2551 1.386 . S
C2550 C2552 1.391 . S
C2551 C2550 1.386 . S
C2551 C2555 1.393 . S
C2552 H2541 0.950 . S
C2552 C2550 1.391 . S
C2552 C2553 1.400 . S
C2553 C2547 1.491 . S
C2553 C2552 1.400 . S
C2553 C2554 1.398 . S
C2554 H2542 0.950 . S
C2554 C2553 1.398 . S
C2554 C2555 1.391 . S
C2555 H2543 0.950 . S
C2555 C2551 1.393 . S
C2555 C2554 1.391 . S
H2556 C2564 0.950 . S
H2557 C2569 0.950 . S
H2558 C2566 0.950 . S
H2559 C2568 0.950 . S
H2560 C2570 0.950 . S
H2561 C2572 0.950 . S
H2562 C2574 0.950 . S
H2563 C2575 0.950 . S
C2564 H2556 0.950 . S
C2564 C2565 1.386 . S
C2564 C2566 1.391 . S
C2565 C2564 1.386 . S
C2565 C2569 1.393 . S
C2566 H2558 0.950 . S
C2566 C2564 1.391 . S
C2566 C2567 1.400 . S
C2567 C2566 1.400 . S
C2567 C2568 1.398 . S
C2567 C2573 1.491 . S
C2568 H2559 0.950 . S
C2568 C2567 1.398 . S
C2568 C2569 1.391 . S
C2569 H2557 0.950 . S
C2569 C2565 1.393 . S
C2569 C2568 1.391 . S
C2570 H2560 0.950 . S
C2570 C2571 1.386 . S
C2570 C2572 1.391 . S
C2571 C2570 1.386 . S
C2571 C2575 1.393 . S
C2572 H2561 0.950 . S
C2572 C2570 1.391 . S
C2572 C2573 1.400 . S
C2573 C2567 1.491 . S
C2573 C2572 1.400 . S
C2573 C2574 1.398 . S
C2574 H2562 0.950 . S
C2574 C2573 1.398 . S
C2574 C2575 1.391 . S
C2575 H2563 0.950 . S
C2575 C2571 1.393 . S
C2575 C2574 1.391 . S
H2576 C2584 0.950 . S
H2577 C2589 0.950 . S
H2578 C2586 0.950 . S
H2579 C2588 0.950 . S
H2580 C2590 0.950 . S
H2581 C2592 0.950 . S
H2582 C2594 0.950 . S
H2583 C2595 0.950 . S
C2584 H2576 0.950 . S
C2584 C2585 1.386 . S
C2584 C2586 1.391 . S
C2585 C2584 1.386 . S
C2585 C2589 1.393 . S
C2586 H2578 0.950 . S
C2586 C2584 1.391 . S
C2586 C2587 1.400 . S
C2587 C2586 1.400 . S
C2587 C2588 1.398 . S
C2587 C2593 1.491 . S
C2588 H2579 0.950 . S
C2588 C2587 1.398 . S
C2588 C2589 1.391 . S
C2589 H2577 0.950 . S
C2589 C2585 1.393 . S
C2589 C2588 1.391 . S
C2590 H2580 0.950 . S
C2590 C2591 1.386 . S
C2590 C2592 1.391 . S
C2591 C2590 1.386 . S
C2591 C2595 1.393 . S
C2592 H2581 0.950 . S
C2592 C2590 1.391 . S
C2592 C2593 1.400 . S
C2593 C2587 1.491 . S
C2593 C2592 1.400 . S
C2593 C2594 1.398 . S
C2594 H2582 0.950 . S
C2594 C2593 1.398 . S
C2594 C2595 1.391 . S
C2595 H2583 0.950 . S
C2595 C2591 1.393 . S
C2595 C2594 1.391 . S
H2596 C2604 0.950 . S
H2597 C2609 0.950 . S
H2598 C2606 0.950 . S
H2599 C2608 0.950 . S
H2600 C2610 0.950 . S
H2601 C2612 0.950 . S
H2602 C2614 0.950 . S
H2603 C2615 0.950 . S
C2604 H2596 0.950 . S
C2604 C2605 1.386 . S
C2604 C2606 1.391 . S
C2605 C2604 1.386 . S
C2605 C2609 1.393 . S
C2606 H2598 0.950 . S
C2606 C2604 1.391 . S
C2606 C2607 1.400 . S
C2607 C2606 1.400 . S
C2607 C2608 1.398 . S
C2607 C2613 1.491 1_455 S
C2608 H2599 0.950 . S
C2608 C2607 1.398 . S
C2608 C2609 1.391 . S
C2609 H2597 0.950 . S
C2609 C2605 1.393 . S
C2609 C2608 1.391 . S
C2610 H2600 0.950 . S
C2610 C2611 1.386 . S
C2610 C2612 1.391 . S
C2611 C2610 1.386 . S
C2611 C2615 1.393 . S
C2612 H2601 0.950 . S
C2612 C2610 1.391 . S
C2612 C2613 1.400 . S
C2613 C2607 1.491 1_655 S
C2613 C2612 1.400 . S
C2613 C2614 1.398 . S
C2614 H2602 0.950 . S
C2614 C2613 1.398 . S
C2614 C2615 1.391 . S
C2615 H2603 0.950 . S
C2615 C2611 1.393 . S
C2615 C2614 1.391 . S
H2616 C2624 0.950 . S
H2617 C2629 0.950 . S
H2618 C2626 0.950 . S
H2619 C2628 0.950 . S
H2620 C2630 0.950 . S
H2621 C2632 0.950 . S
H2622 C2634 0.950 . S
H2623 C2635 0.950 . S
C2624 H2616 0.950 . S
C2624 C2625 1.386 . S
C2624 C2626 1.391 . S
C2625 C2624 1.386 . S
C2625 C2629 1.393 . S
C2626 H2618 0.950 . S
C2626 C2624 1.391 . S
C2626 C2627 1.400 . S
C2627 C2626 1.400 . S
C2627 C2628 1.398 . S
C2627 C2633 1.491 1_455 S
C2628 H2619 0.950 . S
C2628 C2627 1.398 . S
C2628 C2629 1.391 . S
C2629 H2617 0.950 . S
C2629 C2625 1.393 . S
C2629 C2628 1.391 . S
C2630 H2620 0.950 . S
C2630 C2631 1.386 . S
C2630 C2632 1.391 . S
C2631 C2630 1.386 . S
C2631 C2635 1.393 . S
C2632 H2621 0.950 . S
C2632 C2630 1.391 . S
C2632 C2633 1.400 . S
C2633 C2627 1.491 1_655 S
C2633 C2632 1.400 . S
C2633 C2634 1.398 . S
C2634 H2622 0.950 . S
C2634 C2633 1.398 . S
C2634 C2635 1.391 . S
C2635 H2623 0.950 . S
C2635 C2631 1.393 . S
C2635 C2634 1.391 . S
H2636 C2644 0.950 . S
H2637 C2649 0.950 . S
H2638 C2646 0.950 . S
H2639 C2648 0.950 . S
H2640 C2650 0.950 . S
H2641 C2652 0.950 . S
H2642 C2654 0.950 . S
H2643 C2655 0.950 . S
C2644 H2636 0.950 . S
C2644 C2645 1.386 . S
C2644 C2646 1.391 . S
C2645 C2644 1.386 . S
C2645 C2649 1.393 . S
C2646 H2638 0.950 . S
C2646 C2644 1.391 . S
C2646 C2647 1.400 . S
C2647 C2646 1.400 . S
C2647 C2648 1.398 . S
C2647 C2653 1.491 . S
C2648 H2639 0.950 . S
C2648 C2647 1.398 . S
C2648 C2649 1.391 . S
C2649 H2637 0.950 . S
C2649 C2645 1.393 . S
C2649 C2648 1.391 . S
C2650 H2640 0.950 . S
C2650 C2651 1.386 . S
C2650 C2652 1.391 . S
C2651 C2650 1.386 . S
C2651 C2655 1.393 . S
C2652 H2641 0.950 . S
C2652 C2650 1.391 . S
C2652 C2653 1.400 . S
C2653 C2647 1.491 . S
C2653 C2652 1.400 . S
C2653 C2654 1.398 . S
C2654 H2642 0.950 . S
C2654 C2653 1.398 . S
C2654 C2655 1.391 . S
C2655 H2643 0.950 . S
C2655 C2651 1.393 . S
C2655 C2654 1.391 . S
C1065 C41 2.008 1_545 S
C1071 C28 1.985 . S
C1085 C61 1.993 . S
C1091 C74 2.007 . S
C1105 C94 1.986 . S
C1111 C107 2.005 1_565 S
C1125 C127 1.993 . S
C1131 C8 2.012 1_556 S
C1145 C160 1.988 . S
C1151 C239 2.010 1_565 S
C1165 C140 2.008 1_554 S
C1171 C193 1.985 . S
C1185 C226 1.993 . S
C1191 C173 2.012 1_545 S
C1205 C259 1.993 . S
C1211 C206 2.012 . S
C1225 C305 2.005 1_565 S
C1231 C292 1.985 . S
C1245 C338 2.008 . S
C1251 C325 1.985 . S
C1265 C358 1.987 . S
C1271 C371 2.010 1_545 S
C1285 C272 2.012 1_554 S
C1291 C391 1.995 . S
C1305 C424 1.987 . S
C1311 C503 2.005 1_545 S
C1325 C457 1.995 . S
C1331 C404 2.012 1_556 S
C1345 C437 2.010 1_565 S
C1351 C490 1.996 . S
C1365 C470 2.005 . S
C1371 C523 1.989 . S
C1385 C569 2.010 . S
C1391 C556 1.988 . S
C1405 C589 1.985 . S
C1411 C602 2.005 1_556 S
C1425 C635 2.011 . S
C1431 C622 1.996 . S
C1445 C536 2.005 . S
C1451 C655 1.985 . S
C1465 C767 2.012 . S
C1471 C688 1.991 . S
C1485 C721 1.995 . S
C1491 C668 2.009 . S
C1505 C701 2.011 . S
C1511 C754 1.989 . S
C1525 C787 1.994 . S
C1531 C734 2.008 1_554 S
C1545 C833 2.011 . S
C1551 C820 1.996 . S
C1565 C853 1.992 . S
C1571 C866 2.012 1_554 S
C1585 C886 1.987 . S
C1591 C899 2.010 . S
C1605 C919 1.989 . S
C1611 C800 2.011 . S
C1625 C1031 2.005 . S
C1631 C952 1.986 . S
C1645 C932 2.005 . S
C1651 C985 1.987 . S
C1665 C965 2.011 . S
C1671 C1018 1.990 . S
C1685 C998 2.007 1_556 S
C1691 C1051 1.992 . S
C1705 N203 0.852 . S
C1711 N5 0.861 . S
C1725 N38 0.856 . S
C1731 N236 0.855 . S
C1745 N71 0.853 . S
C1751 N137 0.872 . S
C1765 N104 0.874 . S
C1771 N170 0.859 . S
C1785 N467 0.870 . S
C1791 N269 0.852 . S
C1805 N500 0.873 . S
C1811 N302 0.861 . S
C1825 N335 0.851 . S
C1831 N401 0.866 . S
C1845 N434 0.851 . S
C1851 N368 0.869 . S
C1865 N533 0.873 . S
C1871 N731 0.856 . S
C1885 N764 0.852 . S
C1891 N566 0.870 . S
C1905 N665 0.851 . S
C1911 N599 0.864 . S
C1925 N698 0.856 . S
C1931 N632 0.855 . S
C1945 N995 0.872 . S
C1951 N797 0.865 . S
C1965 N1028 0.862 . S
C1971 N830 0.873 . S
C1985 N929 0.854 . S
C1991 N863 0.858 . S
C2005 N962 0.853 . S
C2011 N896 0.859 . S
C2025 N14 0.960 . S
C2031 N245 0.953 . S
C2045 N47 0.953 . S
C2051 N146 0.963 . S
C2065 N179 0.964 . S
C2071 N80 0.954 . S
C2085 N113 0.956 . S
C2091 N212 0.966 . S
C2105 N278 0.968 . S
C2111 N509 0.972 . S
C2125 N410 0.958 . S
C2131 N311 0.969 . S
C2145 N344 0.954 . S
C2151 N443 0.964 . S
C2165 N377 0.969 . S
C2171 N476 0.971 . S
C2185 N773 0.953 . S
C2191 N542 0.959 . S
C2205 N674 0.972 . S
C2211 N575 0.968 . S
C2225 N608 0.956 . S
C2231 N707 0.967 . S
C2245 N641 0.968 . S
C2251 N740 0.957 . S
C2265 N806 0.954 . S
C2271 N1037 0.964 . S
C2285 N938 0.972 . S
C2291 N839 0.969 . S
C2305 N872 0.972 . S
C2311 N971 0.967 . S
C2325 N905 0.967 . S
C2331 N1004 0.956 . S
C2345 C17 1.329 . S
C2351 C1007 1.343 . S
C2365 C512 1.329 . S
C2371 C50 1.343 . S
C2385 C941 1.333 . S
C2391 C83 1.340 . S
C2405 C116 1.329 . S
C2411 C446 1.343 . S
C2425 C149 1.334 . S
C2431 C875 1.338 . S
C2445 C380 1.333 . S
C2451 C182 1.340 . S
C2465 C215 1.342 . S
C2471 C809 1.331 . S
C2485 C248 1.334 . S
C2491 C314 1.338 . S
C2505 C281 1.328 . S
C2511 C743 1.344 . S
C2525 C347 1.337 . S
C2531 C677 1.335 . S
C2545 C413 1.329 . S
C2551 C611 1.343 . S
C2565 C479 1.344 . S
C2571 C545 1.329 . S
C2585 C578 1.338 . S
C2591 C1040 1.335 . S
C2605 C974 1.339 . S
C2611 C644 1.333 . S
C2625 C908 1.335 . S
C2631 C710 1.337 . S
C2645 C842 1.332 . S
C2651 C776 1.340 . S
