# Generated by pormake.
# Topology dia, (4)-cn, num edge types: 1
# Building blocks:
#     Node 0, Type 0, BuildingBlock: ICAMEG_clean_sbu_1, # of connection points: 4
#     Node 1, Type 0, BuildingBlock: ICAMEG_clean_sbu_1, # of connection points: 4
#     Node 2, Type 0, BuildingBlock: ICAMEG_clean_sbu_1, # of connection points: 4
#     Node 3, Type 0, BuildingBlock: ICAMEG_clean_sbu_1, # of connection points: 4
#     Node 4, Type 0, BuildingBlock: ICAMEG_clean_sbu_1, # of connection points: 4
#     Node 5, Type 0, BuildingBlock: ICAMEG_clean_sbu_1, # of connection points: 4
#     Node 6, Type 0, BuildingBlock: ICAMEG_clean_sbu_1, # of connection points: 4
#     Node 7, Type 0, BuildingBlock: ICAMEG_clean_sbu_1, # of connection points: 4
#     Edge 8, Type (0, 0), BuildingBlock: TEMPAE_clean_linker_10, # of connection points: 2
#     Edge 9, Type (0, 0), BuildingBlock: TEMPAE_clean_linker_10, # of connection points: 2
#     Edge 10, Type (0, 0), BuildingBlock: TEMPAE_clean_linker_10, # of connection points: 2
#     Edge 11, Type (0, 0), BuildingBlock: TEMPAE_clean_linker_10, # of connection points: 2
#     Edge 12, Type (0, 0), BuildingBlock: TEMPAE_clean_linker_10, # of connection points: 2
#     Edge 13, Type (0, 0), BuildingBlock: TEMPAE_clean_linker_10, # of connection points: 2
#     Edge 14, Type (0, 0), BuildingBlock: TEMPAE_clean_linker_10, # of connection points: 2
#     Edge 15, Type (0, 0), BuildingBlock: TEMPAE_clean_linker_10, # of connection points: 2
#     Edge 16, Type (0, 0), BuildingBlock: TEMPAE_clean_linker_10, # of connection points: 2
#     Edge 17, Type (0, 0), BuildingBlock: TEMPAE_clean_linker_10, # of connection points: 2
#     Edge 18, Type (0, 0), BuildingBlock: TEMPAE_clean_linker_10, # of connection points: 2
#     Edge 19, Type (0, 0), BuildingBlock: TEMPAE_clean_linker_10, # of connection points: 2
#     Edge 20, Type (0, 0), BuildingBlock: TEMPAE_clean_linker_10, # of connection points: 2
#     Edge 21, Type (0, 0), BuildingBlock: TEMPAE_clean_linker_10, # of connection points: 2
#     Edge 22, Type (0, 0), BuildingBlock: TEMPAE_clean_linker_10, # of connection points: 2
#     Edge 23, Type (0, 0), BuildingBlock: TEMPAE_clean_linker_10, # of connection points: 2
# Relax obj value: 0.180
# Max RMSD: 0.229
# Mean RMSD: 0.229
data_MOF--net-dia--node1-ICAMEG_clean_sbu_1--edge1-TEMPAE_clean_linker_10
_symmetry_space_group_name_H-M    P1
_symmetry_Int_Tables_number       1
_symmetry_cell_setting            triclinic
loop_
_symmetry_equiv_pos_as_xyz
'x, y, z'
_cell_length_a     33.412298
_cell_length_b     33.431377
_cell_length_c     42.79586
_cell_angle_alpha  89.93089
_cell_angle_beta   90.082989
_cell_angle_gamma 102.30513
loop_
_atom_site_label
_atom_site_type_symbol
_atom_site_fract_x
_atom_site_fract_y
_atom_site_fract_z
_atom_type_partial_charge
Co0 Co 0.16803 0.10901 0.63393 0.0
Co1 Co 0.08133 0.14718 0.63027 0.0
O2 O 0.12347 0.12838 0.655 0.0
C3 C 0.14987 0.05712 0.69274 0.0
O4 O 0.11967 0.07454 0.70052 0.0
C5 C 0.10086 0.21199 0.67968 0.0
O6 O 0.14017 0.2139 0.67561 0.0
O7 O 0.12453 0.18943 0.61018 0.0
O8 O 0.16843 0.14934 0.59891 0.0
H9 H 0.02178 0.19285 0.53191 0.0
H10 H 0.17817 0.13877 0.69993 0.0
O11 O 0.17032 0.06744 0.6678 0.0
H12 H 0.29331 0.22293 0.64199 0.0
H13 H 0.30015 0.0596 0.62773 0.0
H14 H 0.18373 0.08975 0.56801 0.0
H15 H 0.24308 0.16949 0.615 0.0
H16 H 0.24534 0.08532 0.65445 0.0
O17 O 0.07452 0.18684 0.66392 0.0
H18 H 0.07335 0.16808 0.56346 0.0
H19 H 1.00095 0.16827 0.64495 0.0
H20 H 0.2381 0.06453 0.54034 0.0
H21 H 0.22798 0.19135 0.72788 0.0
H22 H 0.29685 0.04924 0.57024 0.0
H23 H 0.2861 0.23403 0.6989 0.0
O24 O 0.12697 0.06725 0.61124 0.0
H25 H 0.00953 0.06836 0.72148 0.0
H26 H 0.01091 0.08343 0.60683 0.0
H27 H 0.95863 0.02959 0.63156 0.0
H28 H 0.95763 0.02184 0.68931 0.0
H29 H 0.06163 0.12153 0.69573 0.0
H30 H 0.9488 0.19347 0.61433 0.0
H31 H 0.95896 0.20575 0.55735 0.0
O32 O 0.08562 0.10792 0.59555 0.0
C33 C 0.15481 0.18191 0.59494 0.0
C34 C 0.01697 0.18755 0.55671 0.0
C35 C 0.97603 0.18794 0.60297 0.0
N36 N 0.04013 0.16655 0.606 0.0
C37 C 0.04603 0.17343 0.5747 0.0
C38 C 1.00574 0.17379 0.62021 0.0
C39 C 0.98174 0.19481 0.571 0.0
C40 C 0.20367 0.15647 0.68719 0.0
N41 N 0.20801 0.15023 0.65595 0.0
C42 C 0.23168 0.18655 0.70313 0.0
C43 C 0.26422 0.21056 0.68685 0.0
C44 C 0.26828 0.20435 0.65494 0.0
C45 C 0.23968 0.17399 0.63978 0.0
C46 C 0.27474 0.0662 0.61444 0.0
C47 C 0.20929 0.08341 0.58118 0.0
C48 C 0.24353 0.08066 0.62945 0.0
N49 N 0.21145 0.08928 0.61278 0.0
C50 C 0.23995 0.06902 0.56538 0.0
C51 C 0.27288 0.06041 0.58218 0.0
C52 C 0.09914 0.07511 0.59335 0.0
C53 C 0.00965 0.07142 0.6963 0.0
C54 C 0.01096 0.08005 0.63195 0.0
C55 C 0.98113 0.04961 0.64583 0.0
C56 C 0.98056 0.0453 0.67823 0.0
N57 N 0.03949 0.10548 0.64983 0.0
C58 C 0.03904 0.10151 0.6816 0.0
Co59 Co 0.89999 0.33363 0.89371 0.0
Co60 Co 0.86784 0.42356 0.89236 0.0
O61 O 0.88405 0.3782 0.87003 0.0
C62 C 0.9657 0.3517 0.84485 0.0
O63 O 0.96952 0.39113 0.8496 0.0
C64 C 0.80312 0.40398 0.84263 0.0
O65 O 0.80029 0.36464 0.8472 0.0
O66 O 0.82362 0.38394 0.91403 0.0
O67 O 0.86094 0.33871 0.92836 0.0
H68 H 0.82681 0.49382 0.98713 0.0
H69 H 0.87367 0.31936 0.82784 0.0
O70 O 0.93923 0.32592 0.86 0.0
H71 H 0.77723 0.21634 0.88879 0.0
H72 H 0.93815 0.19661 0.90632 0.0
H73 H 0.91887 0.32132 0.96036 0.0
H74 H 0.83316 0.26467 0.91503 0.0
H75 H 0.91661 0.25199 0.87701 0.0
O76 O 0.82881 0.43018 0.85808 0.0
H77 H 0.84821 0.43802 0.95842 0.0
H78 H 0.85132 0.50459 0.87352 0.0
H79 H 0.93999 0.2665 0.99062 0.0
H80 H 0.81846 0.27121 0.80057 0.0
H81 H 0.94982 0.20359 0.96358 0.0
H82 H 0.76968 0.21932 0.83113 0.0
O83 O 0.944 0.37392 0.91507 0.0
H84 H 0.95048 0.48246 0.79883 0.0
H85 H 0.93435 0.49338 0.91282 0.0
H86 H 0.99057 0.54074 0.88612 0.0
H87 H 0.99885 0.53554 0.82868 0.0
H88 H 0.89492 0.43536 0.82656 0.0
H89 H 0.82948 0.56089 0.90127 0.0
H90 H 0.81725 0.5558 0.95852 0.0
O91 O 0.9066 0.41971 0.9276 0.0
C92 C 0.82947 0.35436 0.93098 0.0
C93 C 0.83212 0.49644 0.96219 0.0
C94 C 0.83357 0.53406 0.914 0.0
N95 N 0.8512 0.46808 0.91435 0.0
C96 C 0.84433 0.46497 0.94582 0.0
C97 C 0.84581 0.502 0.8984 0.0
C98 C 0.82673 0.53119 0.94612 0.0
C99 C 0.8528 0.2966 0.84124 0.0
N100 N 0.85673 0.29476 0.87295 0.0
C101 C 0.8215 0.26952 0.8257 0.0
C102 C 0.7941 0.24046 0.84286 0.0
C103 C 0.79831 0.23878 0.87521 0.0
C104 C 0.82997 0.26634 0.88995 0.0
C105 C 0.93396 0.22387 0.91837 0.0
C106 C 0.9229 0.29399 0.94842 0.0
C107 C 0.9219 0.2554 0.90188 0.0
N108 N 0.91638 0.28985 0.91695 0.0
C109 C 0.93494 0.26307 0.96568 0.0
C110 C 0.94048 0.2278 0.9505 0.0
C111 C 0.93794 0.40406 0.93123 0.0
C112 C 0.94712 0.48511 0.82384 0.0
C113 C 0.93783 0.49078 0.88785 0.0
C114 C 0.96967 0.51777 0.87284 0.0
C115 C 0.97428 0.51485 0.84062 0.0
N116 N 0.91129 0.46171 0.87122 0.0
C117 C 0.91563 0.45864 0.83964 0.0
Co118 Co 0.6691 0.11267 0.13406 0.0
Co119 Co 0.58259 0.15052 0.12773 0.0
O120 O 0.62345 0.1316 0.15355 0.0
C121 C 0.66532 0.03465 0.1688 0.0
O122 O 0.65591 0.01497 0.14237 0.0
C123 C 0.60139 0.21491 0.17725 0.0
O124 O 0.64065 0.21594 0.17392 0.0
O125 O 0.62674 0.19228 0.10817 0.0
O126 O 0.67116 0.15221 0.09826 0.0
H127 H 0.52683 0.19598 0.02774 0.0
H128 H 0.6764 0.13929 0.20024 0.0
O129 O 0.66902 0.07345 0.16992 0.0
H130 H 0.79149 0.22934 0.14597 0.0
H131 H 0.80323 0.06651 0.13344 0.0
H132 H 0.68784 0.09071 0.06944 0.0
H133 H 0.74369 0.17568 0.11708 0.0
H134 H 0.74673 0.0923 0.15758 0.0
O135 O 0.57511 0.19046 0.16094 0.0
H136 H 0.57692 0.17076 0.06056 0.0
H137 H 0.50233 0.17292 0.14058 0.0
H138 H 0.74389 0.06525 0.04428 0.0
H139 H 0.72386 0.19222 0.23012 0.0
H140 H 0.8021 0.0529 0.07635 0.0
H141 H 0.78183 0.23778 0.20294 0.0
O142 O 0.62918 0.07087 0.11031 0.0
H143 H 0.50897 0.07109 0.21796 0.0
H144 H 0.51177 0.08804 0.10345 0.0
H145 H 0.4584 0.0346 0.12753 0.0
H146 H 0.45667 0.02595 0.18521 0.0
H147 H 0.56214 0.12389 0.19286 0.0
H148 H 0.45164 0.19859 0.10867 0.0
H149 H 0.46366 0.21011 0.05178 0.0
O150 O 0.5877 0.11087 0.09354 0.0
C151 C 0.65755 0.18468 0.09362 0.0
C152 C 0.52121 0.191 0.05248 0.0
C153 C 0.47903 0.19251 0.09791 0.0
N154 N 0.54249 0.17015 0.10243 0.0
C155 C 0.54942 0.17662 0.07118 0.0
C156 C 0.50792 0.17809 0.11588 0.0
C157 C 0.48578 0.19895 0.06599 0.0
C158 C 0.70181 0.15872 0.18831 0.0
N159 N 0.70735 0.15423 0.15699 0.0
C160 C 0.72847 0.18875 0.20533 0.0
C161 C 0.76095 0.21435 0.19005 0.0
C162 C 0.76637 0.20965 0.15809 0.0
C163 C 0.7391 0.17929 0.14183 0.0
C164 C 0.77804 0.07176 0.11921 0.0
C165 C 0.71311 0.08554 0.08355 0.0
C166 C 0.7459 0.08627 0.13276 0.0
N167 N 0.71398 0.09301 0.11495 0.0
C168 C 0.74474 0.07107 0.06917 0.0
C169 C 0.77739 0.06414 0.08718 0.0
C170 C 0.6017 0.07831 0.09188 0.0
C171 C 0.50935 0.07463 0.19282 0.0
C172 C 0.51136 0.08437 0.12855 0.0
C173 C 0.48099 0.05411 0.14206 0.0
C174 C 0.48003 0.04929 0.17442 0.0
N175 N 0.53994 0.1092 0.14677 0.0
C176 C 0.5393 0.10454 0.17849 0.0
Co177 Co 0.8986 0.82942 0.39341 0.0
Co178 Co 0.86002 0.91581 0.38901 0.0
O179 O 0.8798 0.87122 0.36837 0.0
C180 C 0.96362 0.84911 0.34417 0.0
O181 O 0.96545 0.88836 0.34839 0.0
C182 C 0.80863 0.89655 0.33008 0.0
O183 O 0.82607 0.86615 0.32294 0.0
O184 O 0.81821 0.87485 0.41171 0.0
O185 O 0.85886 0.83369 0.42782 0.0
H186 H 0.81425 0.98644 0.48179 0.0
H187 H 0.87368 0.80906 0.32785 0.0
O188 O 0.93862 0.82268 0.35997 0.0
H189 H 0.78156 0.70623 0.39199 0.0
H190 H 0.9456 0.69751 0.41027 0.0
H191 H 0.91894 0.82197 0.46038 0.0
H192 H 0.83491 0.75896 0.41678 0.0
H193 H 0.92039 0.74926 0.37923 0.0
O194 O 0.81871 0.91755 0.35481 0.0
H195 H 0.84003 0.932 0.45467 0.0
H196 H 0.83616 0.99269 0.36779 0.0
H197 H 0.94371 0.77081 0.49234 0.0
H198 H 0.82103 0.75649 0.30204 0.0
H199 H 0.95725 0.70803 0.46728 0.0
H200 H 0.77441 0.70467 0.33419 0.0
O201 O 0.94049 0.8729 0.41359 0.0
H202 H 0.94285 0.97512 0.29514 0.0
H203 H 0.92017 0.99117 0.4078 0.0
H204 H 0.97366 0.04129 0.38077 0.0
H205 H 0.98517 0.0336 0.32397 0.0
H206 H 0.89021 0.92543 0.32312 0.0
H207 H 0.80989 0.04755 0.39395 0.0
H208 H 0.79897 0.04474 0.45138 0.0
O209 O 0.90012 0.91672 0.4243 0.0
C210 C 0.82593 0.84711 0.42975 0.0
C211 C 0.819 0.98807 0.45676 0.0
C212 C 0.8165 0.02233 0.40746 0.0
N213 N 0.83989 0.95927 0.40971 0.0
C214 C 0.8337 0.95738 0.44128 0.0
C215 C 0.83126 0.9911 0.39277 0.0
C216 C 0.81039 0.02075 0.43968 0.0
C217 C 0.85362 0.78651 0.34198 0.0
N218 N 0.85725 0.78728 0.37378 0.0
C219 C 0.82382 0.75686 0.32725 0.0
C220 C 0.79765 0.72782 0.3453 0.0
C221 C 0.80161 0.7287 0.37772 0.0
C222 C 0.83178 0.75879 0.39164 0.0
C223 C 0.93979 0.72472 0.42146 0.0
C224 C 0.92457 0.79467 0.44931 0.0
C225 C 0.92563 0.7542 0.40399 0.0
N226 N 0.91803 0.78856 0.41799 0.0
C227 C 0.93868 0.76583 0.46753 0.0
C228 C 0.9463 0.73064 0.45345 0.0
C229 C 0.93271 0.90323 0.42862 0.0
C230 C 0.93787 0.97902 0.31983 0.0
C231 C 0.92486 0.98756 0.38307 0.0
C232 C 0.95524 0.01609 0.36789 0.0
C233 C 0.96168 0.01177 0.33603 0.0
N234 N 0.9013 0.95568 0.36698 0.0
C235 C 0.90776 0.95109 0.3358 0.0
Co236 Co 0.17148 0.61381 0.13524 0.0
Co237 Co 0.08512 0.65163 0.12772 0.0
O238 O 0.12575 0.63325 0.15415 0.0
C239 C 0.16749 0.53665 0.17113 0.0
O240 O 0.15804 0.51639 0.14495 0.0
C241 C 0.10295 0.71688 0.17687 0.0
O242 O 0.14233 0.71823 0.17393 0.0
O243 O 0.12952 0.69302 0.10792 0.0
O244 O 0.17364 0.65237 0.09883 0.0
H245 H 0.03036 0.69494 0.0266 0.0
H246 H 0.1785 0.64215 0.201 0.0
O247 O 0.17129 0.57548 0.17171 0.0
H248 H 0.29376 0.73084 0.14594 0.0
H249 H 0.30568 0.56776 0.13609 0.0
H250 H 0.19046 0.59019 0.07108 0.0
H251 H 0.24612 0.67639 0.11767 0.0
H252 H 0.24906 0.59412 0.15949 0.0
O253 O 0.07713 0.69216 0.16038 0.0
H254 H 0.08017 0.67054 0.06024 0.0
H255 H 1.00462 0.67409 0.1395 0.0
H256 H 0.24662 0.56413 0.04665 0.0
H257 H 0.22579 0.69589 0.23028 0.0
H258 H 0.30475 0.55268 0.07923 0.0
H259 H 0.28384 0.74077 0.20269 0.0
O260 O 0.13165 0.57145 0.1119 0.0
H261 H 0.01066 0.57384 0.21833 0.0
H262 H 0.01453 0.58868 0.10365 0.0
H263 H 0.96096 0.53567 0.12795 0.0
H264 H 0.95868 0.52809 0.18572 0.0
H265 H 0.06405 0.62619 0.19301 0.0
H266 H 0.9542 0.69897 0.10676 0.0
H267 H 0.96684 0.70937 0.04985 0.0
O268 O 0.09056 0.61124 0.09414 0.0
C269 C 0.16021 0.68479 0.09356 0.0
C270 C 0.02446 0.69046 0.05136 0.0
C271 C 0.98175 0.69277 0.09635 0.0
N272 N 0.04526 0.67071 0.10179 0.0
C273 C 0.05253 0.67656 0.07052 0.0
C274 C 0.01049 0.6788 0.11479 0.0
C275 C 0.98885 0.69858 0.06442 0.0
C276 C 0.20395 0.66127 0.18891 0.0
N277 N 0.20963 0.65596 0.15771 0.0
C278 C 0.23051 0.69177 0.20558 0.0
C279 C 0.26304 0.71699 0.19008 0.0
C280 C 0.26861 0.71145 0.15823 0.0
C281 C 0.24143 0.68064 0.14232 0.0
C282 C 0.28052 0.57261 0.12164 0.0
C283 C 0.21568 0.5854 0.08542 0.0
C284 C 0.24831 0.58744 0.13478 0.0
N285 N 0.21643 0.59368 0.11669 0.0
C286 C 0.24739 0.57059 0.07145 0.0
C287 C 0.27998 0.56416 0.08974 0.0
C288 C 0.10439 0.57852 0.09309 0.0
C289 C 0.01127 0.57692 0.19315 0.0
C290 C 0.01389 0.58548 0.1288 0.0
C291 C 0.9834 0.55546 0.14243 0.0
C292 C 0.98213 0.55123 0.17483 0.0
N293 N 0.04229 0.61065 0.14693 0.0
C294 C 0.04135 0.60658 0.1787 0.0
Co295 Co 0.39944 0.32869 0.39449 0.0
Co296 Co 0.36365 0.41681 0.39091 0.0
O297 O 0.38163 0.37146 0.36991 0.0
C298 C 0.46438 0.34747 0.34536 0.0
O299 O 0.46768 0.38677 0.35045 0.0
C300 C 0.31093 0.39882 0.33257 0.0
O301 O 0.32725 0.36771 0.32528 0.0
O302 O 0.32137 0.37675 0.41399 0.0
O303 O 0.36068 0.33388 0.42933 0.0
H304 H 0.32202 0.489 0.48445 0.0
H305 H 0.37334 0.3093 0.32902 0.0
O306 O 0.43853 0.32122 0.36063 0.0
H307 H 0.27945 0.20833 0.3934 0.0
H308 H 0.44264 0.19457 0.40986 0.0
H309 H 0.42039 0.31998 0.4612 0.0
H310 H 0.33433 0.25961 0.41802 0.0
H311 H 0.41861 0.24763 0.37948 0.0
O312 O 0.32197 0.41975 0.35719 0.0
H313 H 0.34554 0.43356 0.45684 0.0
H314 H 0.34169 0.49481 0.37022 0.0
H315 H 0.44403 0.26752 0.49251 0.0
H316 H 0.31915 0.25816 0.30338 0.0
H317 H 0.45534 0.20426 0.46683 0.0
H318 H 0.27163 0.20729 0.33566 0.0
O319 O 0.44256 0.37097 0.41455 0.0
H320 H 0.44586 0.47407 0.29623 0.0
H321 H 0.42586 0.49093 0.40916 0.0
H322 H 0.4799 0.53982 0.38162 0.0
H323 H 0.49008 0.53172 0.32469 0.0
H324 H 0.39267 0.42561 0.32471 0.0
H325 H 0.31767 0.55069 0.39686 0.0
H326 H 0.30788 0.5481 0.45441 0.0
O327 O 0.40429 0.41657 0.4257 0.0
C328 C 0.32852 0.34847 0.43174 0.0
C329 C 0.32628 0.49054 0.45938 0.0
C330 C 0.32378 0.52513 0.41021 0.0
N331 N 0.34528 0.46105 0.41199 0.0
C332 C 0.33971 0.45928 0.44362 0.0
C333 C 0.33727 0.49332 0.39525 0.0
C334 C 0.31831 0.52367 0.4425 0.0
C335 C 0.35289 0.28716 0.34321 0.0
N336 N 0.35687 0.28767 0.37498 0.0
C337 C 0.32222 0.25831 0.32857 0.0
C338 C 0.29555 0.2298 0.34669 0.0
C339 C 0.29989 0.2304 0.37908 0.0
C340 C 0.33092 0.25968 0.39291 0.0
C341 C 0.43779 0.22198 0.42132 0.0
C342 C 0.42505 0.29247 0.44987 0.0
C343 C 0.4243 0.2522 0.40422 0.0
N344 N 0.41792 0.28682 0.41857 0.0
C345 C 0.43853 0.2629 0.46771 0.0
C346 C 0.4449 0.22743 0.45329 0.0
C347 C 0.43623 0.40184 0.42967 0.0
C348 C 0.44148 0.47816 0.32098 0.0
C349 C 0.42995 0.48715 0.38437 0.0
C350 C 0.46066 0.51499 0.36891 0.0
C351 C 0.46635 0.51043 0.33697 0.0
N352 N 0.40535 0.45575 0.36849 0.0
C353 C 0.41107 0.45092 0.33723 0.0
Co354 Co 0.40722 0.82893 0.89203 0.0
Co355 Co 0.36739 0.91423 0.88545 0.0
O356 O 0.38764 0.86927 0.86598 0.0
C357 C 0.47083 0.84766 0.84151 0.0
O358 O 0.46958 0.8866 0.84267 0.0
C359 C 0.28949 0.90982 0.85046 0.0
O360 O 0.26981 0.90007 0.87684 0.0
O361 O 0.3259 0.87352 0.90879 0.0
O362 O 0.36691 0.8333 0.92593 0.0
H363 H 0.31708 0.98687 0.9752 0.0
H364 H 0.38153 0.80802 0.82679 0.0
O365 O 0.44796 0.8219 0.85922 0.0
H366 H 0.29321 0.70306 0.8917 0.0
H367 H 0.45769 0.69951 0.9119 0.0
H368 H 0.42695 0.82389 0.95936 0.0
H369 H 0.34558 0.75725 0.91604 0.0
H370 H 0.43132 0.74937 0.87963 0.0
O371 O 0.32835 0.91373 0.84937 0.0
H372 H 0.34402 0.93181 0.94998 0.0
H373 H 0.34596 0.99148 0.86216 0.0
H374 H 0.45284 0.77461 0.99254 0.0
H375 H 0.32981 0.75405 0.80142 0.0
H376 H 0.46844 0.7119 0.96882 0.0
H377 H 0.28517 0.70113 0.83396 0.0
O378 O 0.44815 0.87376 0.91176 0.0
H379 H 0.44681 0.9716 0.79 0.0
H380 H 0.4292 0.9894 0.90315 0.0
H381 H 0.4823 0.03844 0.87475 0.0
H382 H 0.49126 0.02982 0.81772 0.0
H383 H 0.39449 0.92286 0.81941 0.0
H384 H 0.3187 0.047 0.88637 0.0
H385 H 0.30416 0.04497 0.94332 0.0
O386 O 0.40657 0.91677 0.92152 0.0
C387 C 0.33382 0.84643 0.92737 0.0
C388 C 0.32329 0.9881 0.95036 0.0
C389 C 0.32418 0.02184 0.90051 0.0
N390 N 0.34655 0.95837 0.90461 0.0
C391 C 0.33859 0.95702 0.93595 0.0
C392 C 0.33953 0.99025 0.88691 0.0
C393 C 0.31604 0.02069 0.93247 0.0
C394 C 0.3624 0.78491 0.84106 0.0
N395 N 0.36673 0.78566 0.87281 0.0
C396 C 0.33309 0.75451 0.82659 0.0
C397 C 0.30803 0.72484 0.84487 0.0
C398 C 0.31251 0.72591 0.87726 0.0
C399 C 0.34217 0.75675 0.89091 0.0
C400 C 0.45096 0.7267 0.92252 0.0
C401 C 0.43345 0.79658 0.94887 0.0
C402 C 0.43614 0.75512 0.90434 0.0
N403 N 0.4274 0.78945 0.91761 0.0
C404 C 0.4482 0.76883 0.96778 0.0
C405 C 0.45697 0.73366 0.95445 0.0
C406 C 0.43949 0.90401 0.92639 0.0
C407 C 0.44312 0.97576 0.81482 0.0
C408 C 0.43309 0.98522 0.87839 0.0
C409 C 0.46311 0.0132 0.8624 0.0
C410 C 0.46809 0.00838 0.8304 0.0
N411 N 0.40865 0.95333 0.86293 0.0
C412 C 0.41342 0.94836 0.83157 0.0
Co413 Co 0.67971 0.60833 0.62996 0.0
Co414 Co 0.58786 0.63673 0.63069 0.0
O415 O 0.63411 0.62252 0.65323 0.0
C416 C 0.66343 0.54192 0.67832 0.0
O417 O 0.62401 0.53607 0.67252 0.0
C418 C 0.60532 0.70373 0.67842 0.0
O419 O 0.64436 0.71066 0.67113 0.0
O420 O 0.62605 0.68193 0.60876 0.0
O421 O 0.67338 0.64678 0.59512 0.0
H422 H 0.51513 0.67415 0.53567 0.0
H423 H 0.6922 0.63539 0.69574 0.0
O424 O 0.68863 0.56978 0.66393 0.0
H425 H 0.79314 0.73447 0.6351 0.0
H426 H 0.81936 0.57575 0.61844 0.0
H427 H 0.69331 0.58994 0.56348 0.0
H428 H 0.74704 0.67691 0.60883 0.0
H429 H 0.76247 0.59496 0.64729 0.0
O430 O 0.57991 0.67507 0.665 0.0
H431 H 0.57233 0.65531 0.5645 0.0
H432 H 0.50557 0.64989 0.64935 0.0
H433 H 0.74964 0.57115 0.53367 0.0
H434 H 0.73806 0.69231 0.72303 0.0
H435 H 0.81323 0.56388 0.56117 0.0
H436 H 0.7889 0.7424 0.69263 0.0
O437 O 0.64087 0.5632 0.60849 0.0
H438 H 0.53192 0.55254 0.72433 0.0
H439 H 0.52013 0.56806 0.61029 0.0
H440 H 0.47479 0.51039 0.63702 0.0
H441 H 0.48044 0.5024 0.69448 0.0
H442 H 0.57703 0.60955 0.69657 0.0
H443 H 0.44782 0.66914 0.62148 0.0
H444 H 0.45231 0.68123 0.56419 0.0
O445 O 0.59327 0.59848 0.59559 0.0
C446 C 0.65621 0.67719 0.59202 0.0
C447 C 0.51278 0.66892 0.56062 0.0
C448 C 0.47503 0.66616 0.60879 0.0
N449 N 0.54229 0.65142 0.60858 0.0
C450 C 0.54506 0.65818 0.57708 0.0
C451 C 0.5079 0.65542 0.62447 0.0
C452 C 0.47756 0.67291 0.57664 0.0
C453 C 0.71452 0.65687 0.68242 0.0
N454 N 0.71706 0.65272 0.65078 0.0
C455 C 0.74029 0.68911 0.69797 0.0
C456 C 0.76877 0.71724 0.68089 0.0
C457 C 0.77115 0.71282 0.64861 0.0
C458 C 0.74489 0.68021 0.63386 0.0
C459 C 0.79182 0.57882 0.60619 0.0
C460 C 0.72093 0.58702 0.57561 0.0
C461 C 0.75943 0.58955 0.62242 0.0
N462 N 0.72461 0.59368 0.60709 0.0
C463 C 0.75271 0.57629 0.55861 0.0
C464 C 0.78836 0.57219 0.57406 0.0
C465 C 0.61029 0.56805 0.59221 0.0
C466 C 0.52908 0.55577 0.69931 0.0
C467 C 0.52291 0.56473 0.63528 0.0
C468 C 0.49706 0.53206 0.6503 0.0
C469 C 0.50024 0.52761 0.68253 0.0
N470 N 0.55112 0.59224 0.6519 0.0
C471 C 0.55442 0.58806 0.68349 0.0
C472 C 0.25713 0.3271 0.45281 0.0
C473 C 0.29951 0.33206 0.45698 0.0
C474 C 0.22959 0.30641 0.47531 0.0
C475 C 0.24499 0.29124 0.50277 0.0
C476 C 0.28781 0.29857 0.50784 0.0
C477 C 0.31449 0.31846 0.48476 0.0
C478 C 0.1842 0.29863 0.46882 0.0
C479 C 0.30559 0.28364 0.53701 0.0
C480 C 0.17831 0.2528 0.5733 0.0
C481 C 0.17389 0.21037 0.5701 0.0
C482 C 0.20022 0.2798 0.55096 0.0
C483 C 0.21712 0.26378 0.5246 0.0
C484 C 0.21066 0.22086 0.52054 0.0
C485 C 0.18957 0.19475 0.54349 0.0
C486 C 0.20707 0.32534 0.55638 0.0
C487 C 0.22742 0.20241 0.49251 0.0
H488 H 0.24552 0.33748 0.43128 0.0
H489 H 0.34729 0.32275 0.48823 0.0
H490 H 0.1726 0.26559 0.46396 0.0
H491 H 0.16745 0.30642 0.48953 0.0
H492 H 0.17698 0.31648 0.44844 0.0
H493 H 0.33912 0.29588 0.53901 0.0
H494 H 0.29043 0.29266 0.55813 0.0
H495 H 0.29997 0.24971 0.53673 0.0
H496 H 0.16626 0.26489 0.59392 0.0
H497 H 0.18564 0.1619 0.54072 0.0
H498 H 0.19949 0.34109 0.53505 0.0
H499 H 0.23992 0.33768 0.56163 0.0
H500 H 0.1885 0.33294 0.57615 0.0
H501 H 0.21879 0.2163 0.47062 0.0
H502 H 0.21613 0.1687 0.49123 0.0
H503 H 0.26136 0.209 0.49368 0.0
C504 C 0.65418 0.49293 0.7239 0.0
C505 C 0.67967 0.51625 0.70151 0.0
C506 C 0.6704 0.47063 0.74691 0.0
C507 C 0.71299 0.4713 0.74728 0.0
C508 C 0.73849 0.49356 0.72399 0.0
C509 C 0.72162 0.51585 0.7016 0.0
C510 C 0.64225 0.44757 0.77148 0.0
C511 C 0.78396 0.4949 0.72323 0.0
C512 C 0.77007 0.459 0.82221 0.0
C513 C 0.77672 0.41909 0.81943 0.0
C514 C 0.74767 0.47549 0.79967 0.0
C515 C 0.73185 0.45178 0.77329 0.0
C516 C 0.73734 0.41098 0.77076 0.0
C517 C 0.75945 0.39497 0.79402 0.0
C518 C 0.74218 0.5189 0.80361 0.0
C519 C 0.72137 0.38487 0.74284 0.0
H520 H 0.62176 0.49303 0.724 0.0
H521 H 0.74155 0.53329 0.68418 0.0
H522 H 0.64611 0.41549 0.77306 0.0
H523 H 0.65036 0.46191 0.79465 0.0
H524 H 0.60955 0.44738 0.7666 0.0
H525 H 0.79896 0.51095 0.70221 0.0
H526 H 0.79874 0.51093 0.7443 0.0
H527 H 0.78964 0.46339 0.72364 0.0
H528 H 0.78278 0.47769 0.842 0.0
H529 H 0.76449 0.36413 0.79172 0.0
H530 H 0.70941 0.52011 0.80106 0.0
H531 H 0.75935 0.5386 0.78507 0.0
H532 H 0.75325 0.53196 0.82669 0.0
H533 H 0.68852 0.38475 0.73893 0.0
H534 H 0.72495 0.35277 0.74562 0.0
H535 H 0.73821 0.39798 0.72159 0.0
C536 C 0.57852 0.00684 0.07152 0.0
C537 C 0.58575 0.04921 0.06661 0.0
C538 C 0.55816 0.97946 0.04879 0.0
C539 C 0.54572 0.99498 0.02035 0.0
C540 C 0.55537 0.03767 0.01465 0.0
C541 C 0.57479 0.06424 0.03798 0.0
C542 C 0.54779 0.93424 0.05598 0.0
C543 C 0.54344 0.05552 0.98446 0.0
C544 C 0.50942 0.92687 0.9501 0.0
C545 C 0.46699 0.92404 0.95154 0.0
C546 C 0.53562 0.94886 0.97289 0.0
C547 C 0.51877 0.96754 0.99794 0.0
C548 C 0.47577 0.96296 1.00021 0.0
C549 C 0.45051 0.9417 0.97683 0.0
C550 C 0.58132 0.95369 0.96938 0.0
C551 C 0.45641 0.98168 0.02682 0.0
H552 H 0.58682 0.99523 0.09373 0.0
H553 H 0.58082 0.09703 0.03401 0.0
H554 H 0.51423 0.92425 0.05949 0.0
H555 H 0.55616 0.91641 0.0361 0.0
H556 H 0.56358 0.92668 0.07736 0.0
H557 H 0.55734 0.08868 0.98223 0.0
H558 H 0.55301 0.03922 0.96414 0.0
H559 H 0.50964 0.0515 0.98333 0.0
H560 H 0.52223 0.91329 0.93054 0.0
H561 H 0.41765 0.93905 0.97831 0.0
H562 H 0.59505 0.94559 0.99149 0.0
H563 H 0.59539 0.98618 0.96423 0.0
H564 H 0.58938 0.93438 0.95026 0.0
H565 H 0.46813 0.97299 0.04956 0.0
H566 H 0.42247 0.972 0.02677 0.0
H567 H 0.46474 0.01555 0.0251 0.0
C568 C 0.01041 0.86064 0.29733 0.0
C569 C 0.98975 0.83448 0.32053 0.0
C570 C 0.03278 0.84571 0.27375 0.0
C571 C 0.03476 0.80376 0.27354 0.0
C572 C 0.0152 0.77766 0.29758 0.0
C573 C 0.99292 0.79326 0.32062 0.0
C574 C 0.05304 0.87447 0.24846 0.0
C575 C 0.01665 0.73281 0.29844 0.0
C576 C 0.04665 0.74733 0.19835 0.0
C577 C 0.0874 0.74277 0.20018 0.0
C578 C 0.02986 0.76879 0.2213 0.0
C579 C 0.05422 0.78598 0.24701 0.0
C580 C 0.09584 0.7828 0.24848 0.0
C581 C 0.11202 0.76137 0.22496 0.0
C582 C 0.98546 0.77163 0.21859 0.0
C583 C 0.12277 0.80053 0.27557 0.0
H584 H 0.00818 0.89251 0.29707 0.0
H585 H 0.97751 0.77281 0.3386 0.0
H586 H 0.08559 0.87248 0.24586 0.0
H587 H 0.03768 0.86539 0.22577 0.0
H588 H 0.05164 0.90678 0.25333 0.0
H589 H 1.00236 0.71733 0.31991 0.0
H590 H 1.00029 0.71704 0.27784 0.0
H591 H 0.04882 0.72911 0.2972 0.0
H592 H 0.02746 0.73354 0.17912 0.0
H593 H 0.14351 0.75802 0.22657 0.0
H594 H 0.98246 0.80388 0.22108 0.0
H595 H 0.96754 0.75384 0.23772 0.0
H596 H 0.97169 0.75963 0.19592 0.0
H597 H 0.12107 0.83294 0.27942 0.0
H598 H 0.15529 0.79894 0.27185 0.0
H599 H 0.11172 0.78345 0.29723 0.0
C600 C 0.2257 0.91039 0.81967 0.0
C601 C 0.26794 0.9247 0.82398 0.0
C602 C 0.20416 0.92782 0.79692 0.0
C603 C 0.22506 0.96145 0.77894 0.0
C604 C 0.26787 0.97551 0.78286 0.0
C605 C 0.28888 0.95645 0.80487 0.0
C606 C 0.15888 0.91085 0.79261 0.0
C607 C 0.29123 0.01198 0.76488 0.0
C608 C 0.18202 0.99766 0.7041 0.0
C609 C 0.16483 0.02976 0.71506 0.0
C610 C 0.19986 0.97378 0.72481 0.0
C611 C 0.20208 0.98333 0.75709 0.0
C612 C 0.1843 0.01548 0.76828 0.0
C613 C 0.16525 0.03782 0.74718 0.0
C614 C 0.2171 0.93891 0.71203 0.0
C615 C 0.18709 0.02757 0.80233 0.0
H616 H 0.20941 0.88576 0.83431 0.0
H617 H 0.32148 0.9679 0.80823 0.0
H618 H 0.14135 0.93359 0.80063 0.0
H619 H 0.15171 0.90493 0.76749 0.0
H620 H 0.14815 0.88198 0.80588 0.0
H621 H 0.32447 0.01893 0.77051 0.0
H622 H 0.28752 0.00648 0.7394 0.0
H623 H 0.27868 0.03935 0.77035 0.0
H624 H 0.18166 0.99135 0.67924 0.0
H625 H 0.1525 0.06301 0.75565 0.0
H626 H 0.20569 0.91065 0.72582 0.0
H627 H 0.25097 0.94632 0.71406 0.0
H628 H 0.20887 0.93257 0.68709 0.0
H629 H 0.17339 1.00097 0.81716 0.0
H630 H 0.17133 0.05294 0.80734 0.0
H631 H 0.21975 0.03737 0.80924 0.0
C632 C 0.00912 0.42544 0.95296 0.0
C633 C 0.96672 0.42104 0.95649 0.0
C634 C 0.03641 0.44702 0.9753 0.0
C635 C 0.0207 0.46376 1.00189 0.0
C636 C 0.97782 0.45691 1.00642 0.0
C637 C 0.95143 0.43601 0.98355 0.0
C638 C 0.08189 0.45405 0.96948 0.0
C639 C 0.95966 0.47357 0.03462 0.0
C640 C 0.08422 0.50648 0.07298 0.0
C641 C 0.08832 0.54866 0.06825 0.0
C642 C 0.06398 0.47812 0.05081 0.0
C643 C 0.04824 0.49247 0.02317 0.0
C644 C 0.05474 0.53509 0.01751 0.0
C645 C 0.07432 0.56259 0.04021 0.0
C646 C 0.05727 0.43296 0.05786 0.0
C647 C 0.03908 0.5518 0.98817 0.0
H648 H 0.02095 0.41396 0.93199 0.0
H649 H 0.9186 0.43212 0.98654 0.0
H650 H 0.09376 0.48663 0.9632 0.0
H651 H 0.09821 0.44777 0.99092 0.0
H652 H 0.08929 0.43461 0.95021 0.0
H653 H 0.92605 0.46171 0.03638 0.0
H654 H 0.97429 0.46556 0.05637 0.0
H655 H 0.96558 0.50747 0.0332 0.0
H656 H 0.09495 0.49562 0.09466 0.0
H657 H 0.07798 0.59521 0.03624 0.0
H658 H 0.06479 0.41595 0.03721 0.0
H659 H 0.02447 0.4209 0.06337 0.0
H660 H 0.07596 0.42663 0.07804 0.0
H661 H 0.04826 0.53644 0.96721 0.0
H662 H 0.05064 0.58536 0.98571 0.0
H663 H 1.0051 0.5455 0.98862 0.0
C664 C 0.4914 0.29096 0.32061 0.0
C665 C 0.4901 0.33265 0.32154 0.0
C666 C 0.5135 0.27536 0.29748 0.0
C667 C 0.53478 0.30196 0.27439 0.0
C668 C 0.53463 0.34431 0.27562 0.0
C669 C 0.51239 0.35921 0.29928 0.0
C670 C 0.51296 0.23005 0.29722 0.0
C671 C 0.55676 0.37359 0.25133 0.0
C672 C 0.61096 0.25786 0.22607 0.0
C673 C 0.58652 0.24104 0.20068 0.0
C674 C 0.59516 0.27933 0.24975 0.0
C675 C 0.55417 0.28444 0.24774 0.0
C676 C 0.53014 0.2692 0.22136 0.0
C677 C 0.5465 0.24757 0.19831 0.0
C678 C 0.62167 0.29488 0.27759 0.0
C679 C 0.48646 0.27423 0.21805 0.0
H680 H 0.4747 0.27019 0.33787 0.0
H681 H 0.5116 0.39145 0.29982 0.0
H682 H 0.49681 0.21585 0.276 0.0
H683 H 0.54469 0.22497 0.29633 0.0
H684 H 0.49741 0.21405 0.31807 0.0
H685 H 0.55654 0.40597 0.25696 0.0
H686 H 0.589 0.37034 0.24916 0.0
H687 H 0.54199 0.36612 0.22822 0.0
H688 H 0.6419 0.25294 0.22806 0.0
H689 H 0.52754 0.23518 0.17856 0.0
H690 H 0.60935 0.27711 0.29867 0.0
H691 H 0.62114 0.32741 0.28222 0.0
H692 H 0.65394 0.29214 0.27424 0.0
H693 H 0.46722 0.25618 0.23643 0.0
H694 H 0.47316 0.26387 0.19488 0.0
H695 H 0.48484 0.30676 0.22133 0.0
C696 C 0.81116 0.81416 0.48184 0.0
C697 C 0.79666 0.83002 0.45474 0.0
C698 C 0.78413 0.79403 0.50462 0.0
C699 C 0.74137 0.78892 0.50002 0.0
C700 C 0.72651 0.80639 0.47336 0.0
C701 C 0.75443 0.82711 0.4511 0.0
C702 C 0.8014 0.77647 0.5329 0.0
C703 C 0.68117 0.8012 0.46746 0.0
C704 C 0.68452 0.69171 0.53873 0.0
C705 C 0.67156 0.70647 0.56675 0.0
C706 C 0.70467 0.71852 0.51583 0.0
C707 C 0.71288 0.76124 0.52134 0.0
C708 C 0.69798 0.77645 0.54894 0.0
C709 C 0.67707 0.74877 0.57129 0.0
C710 C 0.71933 0.7009 0.48655 0.0
C711 C 0.70651 0.82172 0.55582 0.0
H712 H 0.84383 0.81687 0.48502 0.0
H713 H 0.74311 0.8393 0.43017 0.0
H714 H 0.78736 0.78532 0.5546 0.0
H715 H 0.79395 0.74254 0.53161 0.0
H716 H 0.8352 0.78687 0.53466 0.0
H717 H 0.67463 0.82089 0.448 0.0
H718 H 0.66798 0.76878 0.46144 0.0
H719 H 0.66534 0.8085 0.4888 0.0
H720 H 0.67979 0.65893 0.53505 0.0
H721 H 0.66719 0.76014 0.59305 0.0
H722 H 0.75321 0.70559 0.48709 0.0
H723 H 0.71101 0.71684 0.46554 0.0
H724 H 0.70625 0.66759 0.48414 0.0
H725 H 0.73944 0.83247 0.56158 0.0
H726 H 0.68808 0.82895 0.5758 0.0
H727 H 0.70001 0.83915 0.53503 0.0
C728 C 0.21354 0.5369 0.21719 0.0
C729 C 0.18184 0.51569 0.19814 0.0
C730 C 0.23202 0.51633 0.23986 0.0
C731 C 0.2174 0.47374 0.24451 0.0
C732 C 0.18378 0.45265 0.22658 0.0
C733 C 0.16695 0.47371 0.20316 0.0
C734 C 0.26854 0.53984 0.25773 0.0
C735 C 0.1662 0.40765 0.23163 0.0
C736 C 0.29245 0.41355 0.27784 0.0
C737 C 0.28421 0.41407 0.3099 0.0
C738 C 0.27065 0.4325 0.25628 0.0
C739 C 0.2388 0.45111 0.26693 0.0
C740 C 0.22909 0.44992 0.29919 0.0
C741 C 0.25249 0.43218 0.32036 0.0
C742 C 0.28296 0.43421 0.22228 0.0
C743 C 0.19448 0.46804 0.31141 0.0
H744 H 0.22541 0.5693 0.21328 0.0
H745 H 0.14233 0.45724 0.18858 0.0
H746 H 0.26283 0.53689 0.28322 0.0
H747 H 0.29576 0.52682 0.25272 0.0
H748 H 0.27588 0.57289 0.25157 0.0
H749 H 0.1373 0.39689 0.21838 0.0
H750 H 0.18866 0.38952 0.2241 0.0
H751 H 0.16009 0.40131 0.25684 0.0
H752 H 0.31735 0.40008 0.26975 0.0
H753 H 0.24606 0.43254 0.34518 0.0
H754 H 0.29303 0.46661 0.21483 0.0
H755 H 0.25638 0.42025 0.2075 0.0
H756 H 0.30822 0.41811 0.21775 0.0
H757 H 0.2023 0.5018 0.30876 0.0
H758 H 0.18798 0.46066 0.33645 0.0
H759 H 0.16619 0.45652 0.29765 0.0
C760 C 0.75802 0.32888 0.95055 0.0
C761 C 0.80029 0.33815 0.95605 0.0
C762 C 0.73091 0.30727 0.97294 0.0
C763 C 0.74661 0.29566 1.00158 0.0
C764 C 0.78908 0.30753 1.0079 0.0
C765 C 0.81543 0.32813 0.9849 0.0
C766 C 0.68595 0.29456 0.9651 0.0
C767 C 0.80708 0.29655 0.03833 0.0
C768 C 0.67795 0.25521 0.07064 0.0
C769 C 0.6774 0.21321 0.06901 0.0
C770 C 0.69938 0.28255 0.04833 0.0
C771 C 0.71988 0.26728 0.02353 0.0
C772 C 0.71776 0.22464 0.02108 0.0
C773 C 0.69697 0.19825 0.044 0.0
C774 C 0.7016 0.32784 0.05205 0.0
C775 C 0.73853 0.20694 0.99472 0.0
H776 H 0.74643 0.3364 0.9281 0.0
H777 H 0.84818 0.33567 0.98921 0.0
H778 H 0.67787 0.26098 0.96126 0.0
H779 H 0.66696 0.30148 0.98478 0.0
H780 H 0.67792 0.31002 0.94372 0.0
H781 H 0.83971 0.3123 0.04109 0.0
H782 H 0.78944 0.30467 0.05842 0.0
H783 H 0.80515 0.26303 0.03927 0.0
H784 H 0.6629 0.26688 0.08998 0.0
H785 H 0.69613 0.16572 0.04237 0.0
H786 H 0.69306 0.34113 0.02989 0.0
H787 H 0.73356 0.34351 0.05758 0.0
H788 H 0.68126 0.3345 0.07097 0.0
H789 H 0.72964 0.21819 0.97188 0.0
H790 H 0.73075 0.17293 0.99457 0.0
H791 H 0.77225 0.21712 0.99696 0.0
C792 C 0.79056 0.91107 0.2752 0.0
C793 C 0.78174 0.91114 0.30718 0.0
C794 C 0.76873 0.92981 0.25352 0.0
C795 C 0.73632 0.94775 0.26397 0.0
C796 C 0.72598 0.94598 0.29611 0.0
C797 C 0.74937 0.92846 0.31741 0.0
C798 C 0.78168 0.93214 0.21966 0.0
C799 C 0.69079 0.9634 0.3081 0.0
C800 C 0.71105 0.03416 0.21494 0.0
C801 C 0.67971 0.01315 0.1955 0.0
C802 C 0.72945 0.01329 0.23746 0.0
C803 C 0.71512 0.97057 0.24153 0.0
C804 C 0.68192 0.9496 0.22314 0.0
C805 C 0.66515 0.971 0.19991 0.0
C806 C 0.76552 0.03671 0.25587 0.0
C807 C 0.66467 0.90442 0.22756 0.0
H808 H 0.81596 0.89821 0.2673 0.0
H809 H 0.74249 0.92847 0.34217 0.0
H810 H 0.75541 0.91839 0.20451 0.0
H811 H 0.79181 0.96469 0.21259 0.0
H812 H 0.80709 0.9162 0.21524 0.0
H813 H 0.68374 0.95537 0.33298 0.0
H814 H 0.69836 0.99723 0.30593 0.0
H815 H 0.6629 0.95196 0.29388 0.0
H816 H 0.72269 0.0667 0.21151 0.0
H817 H 0.64081 0.95468 0.18501 0.0
H818 H 0.79295 0.02393 0.25107 0.0
H819 H 0.75927 0.03334 0.28127 0.0
H820 H 0.7728 0.06985 0.25001 0.0
H821 H 0.68756 0.88672 0.22017 0.0
H822 H 0.63616 0.89364 0.21385 0.0
H823 H 0.658 0.89754 0.25263 0.0
C824 C 1.00332 0.92611 0.45109 0.0
C825 C 0.96088 0.9225 0.45362 0.0
C826 C 0.03009 0.94781 0.47367 0.0
C827 C 0.01384 0.96534 0.49961 0.0
C828 C 0.97086 0.95984 0.50297 0.0
C829 C 0.945 0.93894 0.47978 0.0
C830 C 0.07572 0.95367 0.46898 0.0
C831 C 0.95214 0.9773 0.53054 0.0
C832 C 0.07609 0.00394 0.57227 0.0
C833 C 0.08232 0.04638 0.56804 0.0
C834 C 0.05523 0.97681 0.54956 0.0
C835 C 0.04124 0.99267 0.52183 0.0
C836 C 0.04981 0.0355 0.51675 0.0
C837 C 0.0698 0.06179 0.54004 0.0
C838 C 0.04609 0.93141 0.55608 0.0
C839 C 0.03619 0.05374 0.4873 0.0
H840 H 0.01564 0.91349 0.43083 0.0
H841 H 0.91214 0.93566 0.48206 0.0
H842 H 0.08893 0.9864 0.46399 0.0
H843 H 0.09061 0.94552 0.49055 0.0
H844 H 0.08341 0.93498 0.44932 0.0
H845 H 0.91828 0.96688 0.53124 0.0
H846 H 0.96506 0.96834 0.55273 0.0
H847 H 0.95966 0.01123 0.52931 0.0
H848 H 0.08563 0.992 0.59396 0.0
H849 H 0.07509 0.09463 0.53653 0.0
H850 H 0.05413 0.91438 0.53562 0.0
H851 H 0.01276 0.92061 0.56026 0.0
H852 H 0.06293 0.9237 0.57687 0.0
H853 H 0.04533 0.03829 0.46638 0.0
H854 H 0.04928 0.08712 0.4854 0.0
H855 H 1.00229 0.04897 0.48703 0.0
C856 C 0.99479 0.29486 0.82287 0.0
C857 C 0.99165 0.33605 0.82165 0.0
C858 C 0.01676 0.27816 0.80024 0.0
C859 C 0.03591 0.30306 0.77542 0.0
C860 C 0.03404 0.34504 0.77454 0.0
C861 C 0.0121 0.36113 0.79779 0.0
C862 C 0.0182 0.23337 0.80234 0.0
C863 C 0.05381 0.37253 0.74836 0.0
C864 C 0.11145 0.25809 0.72691 0.0
C865 C 0.08602 0.23848 0.70291 0.0
C866 C 0.09609 0.2806 0.75016 0.0
C867 C 0.05447 0.28389 0.74916 0.0
C868 C 0.02925 0.26556 0.72422 0.0
C869 C 0.04523 0.24303 0.70158 0.0
C870 C 0.1239 0.29947 0.77645 0.0
C871 C 0.98482 0.26847 0.72202 0.0
H872 H 0.97962 0.27532 0.84144 0.0
H873 H 0.00986 0.39298 0.79669 0.0
H874 H 1.00113 0.21655 0.78242 0.0
H875 H 0.0503 0.22953 0.80077 0.0
H876 H 1.0046 0.21906 0.82441 0.0
H877 H 0.05284 0.40511 0.7525 0.0
H878 H 0.08619 0.3701 0.74542 0.0
H879 H 0.03773 0.36258 0.72609 0.0
H880 H 0.14299 0.25478 0.72811 0.0
H881 H 0.02542 0.2285 0.68292 0.0
H882 H 0.1134 0.28352 0.79866 0.0
H883 H 0.12253 0.33211 0.77947 0.0
H884 H 0.15625 0.29746 0.77239 0.0
H885 H 0.96746 0.25175 0.74185 0.0
H886 H 0.97028 0.25538 0.69988 0.0
H887 H 0.98205 0.30088 0.72368 0.0
C888 C 0.61639 0.75666 0.72135 0.0
C889 C 0.58971 0.72938 0.70193 0.0
C890 C 0.60114 0.77985 0.7442 0.0
C891 C 0.55824 0.77593 0.74748 0.0
C892 C 0.53132 0.74922 0.72739 0.0
C893 C 0.54731 0.72625 0.70506 0.0
C894 C 0.63082 0.80774 0.76533 0.0
C895 C 0.4854 0.74419 0.72987 0.0
C896 C 0.50829 0.79451 0.82415 0.0
C897 C 0.49747 0.83226 0.81876 0.0
C898 C 0.53009 0.77703 0.80184 0.0
C899 C 0.54093 0.79742 0.77309 0.0
C900 C 0.53149 0.83632 0.76794 0.0
C901 C 0.51011 0.85345 0.79097 0.0
C902 C 0.53992 0.73581 0.80856 0.0
C903 C 0.54212 0.85886 0.7375 0.0
H904 H 0.64917 0.75934 0.71911 0.0
H905 H 0.52634 0.70563 0.69004 0.0
H906 H 0.62489 0.83914 0.76473 0.0
H907 H 0.62633 0.79672 0.78981 0.0
H908 H 0.66322 0.80919 0.75868 0.0
H909 H 0.46879 0.7241 0.71127 0.0
H910 H 0.4748 0.73076 0.7529 0.0
H911 H 0.47693 0.77447 0.72836 0.0
H912 H 0.49911 0.77816 0.84575 0.0
H913 H 0.50179 0.88258 0.78663 0.0
H914 H 0.57275 0.73668 0.8039 0.0
H915 H 0.52172 0.71242 0.79284 0.0
H916 H 0.53303 0.72592 0.83312 0.0
H917 H 0.57476 0.86062 0.73157 0.0
H918 H 0.5364 0.89038 0.73827 0.0
H919 H 0.52342 0.84183 0.71839 0.0
C920 C 0.19703 0.69542 0.04278 0.0
C921 C 0.17991 0.71212 0.06824 0.0
C922 C 0.21815 0.72049 0.01925 0.0
C923 C 0.22318 0.76352 0.02155 0.0
C924 C 0.20501 0.78057 0.04678 0.0
C925 C 0.18311 0.75456 0.0697 0.0
C926 C 0.23628 0.70091 0.99246 0.0
C927 C 0.21035 0.8263 0.05035 0.0
C928 C 0.31992 0.81884 0.98112 0.0
C929 C 0.30478 0.83014 0.95262 0.0
C930 C 0.29341 0.79946 1.00451 0.0
C931 C 0.25064 0.79023 0.99902 0.0
C932 C 0.23502 0.80295 0.97072 0.0
C933 C 0.26235 0.82324 0.94792 0.0
C934 C 0.31139 0.78721 0.03455 0.0
C935 C 0.1897 0.79305 0.96377 0.0
H936 H 0.19408 0.66254 0.04131 0.0
H937 H 0.16995 0.76752 0.08941 0.0
H938 H 0.22752 0.7128 0.96981 0.0
H939 H 0.2702 0.70881 0.99399 0.0
H940 H 0.22619 0.66702 0.9925 0.0
H941 H 0.19132 0.83456 0.06957 0.0
H942 H 0.24298 0.84003 0.05536 0.0
H943 H 0.20225 0.84017 0.0283 0.0
H944 H 0.35274 0.82465 0.98498 0.0
H945 H 0.25062 0.83182 0.92584 0.0
H946 H 0.30694 0.75339 0.03561 0.0
H947 H 0.29549 0.79698 0.05499 0.0
H948 H 0.34469 0.80068 0.03659 0.0
H949 H 0.1793 0.75955 0.96033 0.0
H950 H 0.18212 0.8089 0.94243 0.0
H951 H 0.17221 0.80171 0.98374 0.0
C952 C 0.45201 0.44072 0.47937 0.0
C953 C 0.46567 0.42046 0.45416 0.0
C954 C 0.47933 0.46047 0.50216 0.0
C955 C 0.52161 0.46076 0.49941 0.0
C956 C 0.53554 0.43949 0.47444 0.0
C957 C 0.50727 0.41917 0.45223 0.0
C958 C 0.463 0.48216 0.52868 0.0
C959 C 0.58044 0.4397 0.47043 0.0
C960 C 0.58551 0.55469 0.53795 0.0
C961 C 0.59455 0.53916 0.56691 0.0
C962 C 0.56444 0.52885 0.51485 0.0
C963 C 0.55111 0.48653 0.52119 0.0
C964 C 0.56197 0.47036 0.54988 0.0
C965 C 0.58404 0.49695 0.57239 0.0
C966 C 0.55426 0.54733 0.4844 0.0
C967 C 0.5478 0.42557 0.55772 0.0
H968 H 0.41979 0.4413 0.48127 0.0
H969 H 0.51795 0.40358 0.43275 0.0
H970 H 0.47398 0.47266 0.55143 0.0
H971 H 0.47457 0.5157 0.52644 0.0
H972 H 0.42898 0.47585 0.52903 0.0
H973 H 0.58589 0.41872 0.45155 0.0
H974 H 0.59728 0.47116 0.46466 0.0
H975 H 0.59352 0.43072 0.49254 0.0
H976 H 0.59394 0.58742 0.53373 0.0
H977 H 0.59077 0.48512 0.59496 0.0
H978 H 0.52099 0.54695 0.48356 0.0
H979 H 0.56135 0.52907 0.46432 0.0
H980 H 0.57135 0.57948 0.48153 0.0
H981 H 0.51428 0.41876 0.56203 0.0
H982 H 0.56331 0.41687 0.57886 0.0
H983 H 0.55345 0.40619 0.53788 0.0
loop_
_geom_bond_atom_site_label_1
_geom_bond_atom_site_label_2
_geom_bond_distance
_geom_bond_site_symmetry_2
_ccdc_geom_bond_type
Co0 O2 2.143 . S
Co0 O8 2.074 . S
Co0 O11 2.093 . S
Co0 O24 2.097 . S
Co0 N41 2.151 . S
Co0 N49 2.214 . S
Co1 O2 2.160 . S
Co1 O7 2.058 . S
Co1 O17 2.057 . S
Co1 O32 2.037 . S
Co1 N36 2.145 . S
Co1 N57 2.257 . S
O2 Co0 2.143 . S
O2 Co1 2.160 . S
C3 O4 1.278 . S
C3 O11 1.224 . S
O4 C3 1.278 . S
C5 O6 1.245 . S
C5 O17 1.232 . S
O6 C5 1.245 . S
O7 Co1 2.058 . S
O7 C33 1.269 . S
O8 Co0 2.074 . S
O8 C33 1.257 . S
H9 C34 0.930 . S
H10 C40 0.930 . S
O11 Co0 2.093 . S
O11 C3 1.224 . S
H12 C44 0.929 . S
H13 C46 0.930 . S
H14 C47 0.930 . S
H15 C45 0.929 . S
H16 C48 0.928 . S
O17 Co1 2.057 . S
O17 C5 1.232 . S
H18 C37 0.929 . S
H19 C38 0.929 . S
H20 C50 0.931 . S
H21 C42 0.929 . S
H22 C51 0.930 . S
H23 C43 0.931 . S
O24 Co0 2.097 . S
O24 C52 1.214 . S
H25 C53 0.929 . S
H26 C54 0.929 . S
H27 C55 0.930 . S
H28 C56 0.929 . S
H29 C58 0.930 . S
H30 C35 0.930 . S
H31 C39 0.930 . S
O32 Co1 2.037 . S
O32 C52 1.234 . S
C33 O7 1.269 . S
C33 O8 1.257 . S
C34 H9 0.930 . S
C34 C37 1.388 1_655 S
C34 C39 1.418 . S
C35 H30 0.930 . S
C35 C38 1.404 1_655 S
C35 C39 1.353 . S
N36 Co1 2.145 . S
N36 C37 1.397 . S
N36 C38 1.334 . S
C37 H18 0.929 . S
C37 C34 1.388 1_455 S
C37 N36 1.397 . S
C38 H19 0.929 . S
C38 C35 1.404 1_455 S
C38 N36 1.334 . S
C39 H31 0.930 . S
C39 C34 1.418 . S
C39 C35 1.353 . S
C40 H10 0.930 . S
C40 N41 1.330 . S
C40 C42 1.446 . S
N41 Co0 2.151 . S
N41 C40 1.330 . S
N41 C45 1.418 . S
C42 H21 0.929 . S
C42 C40 1.446 . S
C42 C43 1.332 . S
C43 H23 0.931 . S
C43 C42 1.332 . S
C43 C44 1.267 . S
C44 H12 0.929 . S
C44 C43 1.267 . S
C44 C45 1.251 . S
C45 H15 0.929 . S
C45 N41 1.418 . S
C45 C44 1.251 . S
C46 H13 0.930 . S
C46 C48 1.406 . S
C46 C51 1.261 . S
C47 H14 0.930 . S
C47 N49 1.325 . S
C47 C50 1.357 . S
C48 H16 0.928 . S
C48 C46 1.406 . S
C48 N49 1.261 . S
N49 Co0 2.214 . S
N49 C47 1.325 . S
N49 C48 1.261 . S
C50 H20 0.931 . S
C50 C47 1.357 . S
C50 C51 1.312 . S
C51 H22 0.930 . S
C51 C46 1.261 . S
C51 C50 1.312 . S
C52 O24 1.214 . S
C52 O32 1.234 . S
C53 H25 0.929 . S
C53 C56 1.391 1_455 S
C53 C58 1.391 . S
C54 H26 0.929 . S
C54 C55 1.390 1_455 S
C54 N57 1.391 . S
C55 H27 0.930 . S
C55 C54 1.390 1_655 S
C55 C56 1.392 . S
C56 H28 0.929 . S
C56 C53 1.391 1_655 S
C56 C55 1.392 . S
N57 Co1 2.257 . S
N57 C54 1.391 . S
N57 C58 1.388 . S
C58 H29 0.930 . S
C58 C53 1.391 . S
C58 N57 1.388 . S
Co59 O61 2.143 . S
Co59 O67 2.074 . S
Co59 O70 2.093 . S
Co59 O83 2.097 . S
Co59 N100 2.151 . S
Co59 N108 2.214 . S
Co60 O61 2.160 . S
Co60 O66 2.058 . S
Co60 O76 2.057 . S
Co60 O91 2.037 . S
Co60 N95 2.145 . S
Co60 N116 2.257 . S
O61 Co59 2.143 . S
O61 Co60 2.160 . S
C62 O63 1.278 . S
C62 O70 1.224 . S
O63 C62 1.278 . S
C64 O65 1.245 . S
C64 O76 1.232 . S
O65 C64 1.245 . S
O66 Co60 2.058 . S
O66 C92 1.269 . S
O67 Co59 2.074 . S
O67 C92 1.257 . S
H68 C93 0.930 . S
H69 C99 0.930 . S
O70 Co59 2.093 . S
O70 C62 1.224 . S
H71 C103 0.929 . S
H72 C105 0.930 . S
H73 C106 0.930 . S
H74 C104 0.929 . S
H75 C107 0.928 . S
O76 Co60 2.057 . S
O76 C64 1.232 . S
H77 C96 0.929 . S
H78 C97 0.929 . S
H79 C109 0.931 . S
H80 C101 0.929 . S
H81 C110 0.930 . S
H82 C102 0.931 . S
O83 Co59 2.097 . S
O83 C111 1.214 . S
H84 C112 0.929 . S
H85 C113 0.929 . S
H86 C114 0.930 . S
H87 C115 0.929 . S
H88 C117 0.930 . S
H89 C94 0.930 . S
H90 C98 0.930 . S
O91 Co60 2.037 . S
O91 C111 1.234 . S
C92 O66 1.269 . S
C92 O67 1.257 . S
C93 H68 0.930 . S
C93 C96 1.388 . S
C93 C98 1.418 . S
C94 H89 0.930 . S
C94 C97 1.404 . S
C94 C98 1.353 . S
N95 Co60 2.145 . S
N95 C96 1.397 . S
N95 C97 1.334 . S
C96 H77 0.929 . S
C96 C93 1.388 . S
C96 N95 1.397 . S
C97 H78 0.929 . S
C97 C94 1.404 . S
C97 N95 1.334 . S
C98 H90 0.930 . S
C98 C93 1.418 . S
C98 C94 1.353 . S
C99 H69 0.930 . S
C99 N100 1.330 . S
C99 C101 1.446 . S
N100 Co59 2.151 . S
N100 C99 1.330 . S
N100 C104 1.418 . S
C101 H80 0.929 . S
C101 C99 1.446 . S
C101 C102 1.332 . S
C102 H82 0.931 . S
C102 C101 1.332 . S
C102 C103 1.267 . S
C103 H71 0.929 . S
C103 C102 1.267 . S
C103 C104 1.251 . S
C104 H74 0.929 . S
C104 N100 1.418 . S
C104 C103 1.251 . S
C105 H72 0.930 . S
C105 C107 1.406 . S
C105 C110 1.261 . S
C106 H73 0.930 . S
C106 N108 1.325 . S
C106 C109 1.357 . S
C107 H75 0.928 . S
C107 C105 1.406 . S
C107 N108 1.261 . S
N108 Co59 2.214 . S
N108 C106 1.325 . S
N108 C107 1.261 . S
C109 H79 0.931 . S
C109 C106 1.357 . S
C109 C110 1.312 . S
C110 H81 0.930 . S
C110 C105 1.261 . S
C110 C109 1.312 . S
C111 O83 1.214 . S
C111 O91 1.234 . S
C112 H84 0.929 . S
C112 C115 1.391 . S
C112 C117 1.391 . S
C113 H85 0.929 . S
C113 C114 1.390 . S
C113 N116 1.391 . S
C114 H86 0.930 . S
C114 C113 1.390 . S
C114 C115 1.392 . S
C115 H87 0.929 . S
C115 C112 1.391 . S
C115 C114 1.392 . S
N116 Co60 2.257 . S
N116 C113 1.391 . S
N116 C117 1.388 . S
C117 H88 0.930 . S
C117 C112 1.391 . S
C117 N116 1.388 . S
Co118 O120 2.143 . S
Co118 O126 2.074 . S
Co118 O129 2.093 . S
Co118 O142 2.097 . S
Co118 N159 2.151 . S
Co118 N167 2.214 . S
Co119 O120 2.160 . S
Co119 O125 2.058 . S
Co119 O135 2.057 . S
Co119 O150 2.037 . S
Co119 N154 2.145 . S
Co119 N175 2.257 . S
O120 Co118 2.143 . S
O120 Co119 2.160 . S
C121 O122 1.278 . S
C121 O129 1.224 . S
O122 C121 1.278 . S
C123 O124 1.245 . S
C123 O135 1.232 . S
O124 C123 1.245 . S
O125 Co119 2.058 . S
O125 C151 1.269 . S
O126 Co118 2.074 . S
O126 C151 1.257 . S
H127 C152 0.930 . S
H128 C158 0.930 . S
O129 Co118 2.093 . S
O129 C121 1.224 . S
H130 C162 0.929 . S
H131 C164 0.930 . S
H132 C165 0.930 . S
H133 C163 0.929 . S
H134 C166 0.928 . S
O135 Co119 2.057 . S
O135 C123 1.232 . S
H136 C155 0.929 . S
H137 C156 0.929 . S
H138 C168 0.931 . S
H139 C160 0.929 . S
H140 C169 0.930 . S
H141 C161 0.931 . S
O142 Co118 2.097 . S
O142 C170 1.214 . S
H143 C171 0.929 . S
H144 C172 0.929 . S
H145 C173 0.930 . S
H146 C174 0.929 . S
H147 C176 0.930 . S
H148 C153 0.930 . S
H149 C157 0.930 . S
O150 Co119 2.037 . S
O150 C170 1.234 . S
C151 O125 1.269 . S
C151 O126 1.257 . S
C152 H127 0.930 . S
C152 C155 1.388 . S
C152 C157 1.418 . S
C153 H148 0.930 . S
C153 C156 1.404 . S
C153 C157 1.353 . S
N154 Co119 2.145 . S
N154 C155 1.397 . S
N154 C156 1.334 . S
C155 H136 0.929 . S
C155 C152 1.388 . S
C155 N154 1.397 . S
C156 H137 0.929 . S
C156 C153 1.404 . S
C156 N154 1.334 . S
C157 H149 0.930 . S
C157 C152 1.418 . S
C157 C153 1.353 . S
C158 H128 0.930 . S
C158 N159 1.330 . S
C158 C160 1.446 . S
N159 Co118 2.151 . S
N159 C158 1.330 . S
N159 C163 1.418 . S
C160 H139 0.929 . S
C160 C158 1.446 . S
C160 C161 1.332 . S
C161 H141 0.931 . S
C161 C160 1.332 . S
C161 C162 1.267 . S
C162 H130 0.929 . S
C162 C161 1.267 . S
C162 C163 1.251 . S
C163 H133 0.929 . S
C163 N159 1.418 . S
C163 C162 1.251 . S
C164 H131 0.930 . S
C164 C166 1.406 . S
C164 C169 1.261 . S
C165 H132 0.930 . S
C165 N167 1.325 . S
C165 C168 1.357 . S
C166 H134 0.928 . S
C166 C164 1.406 . S
C166 N167 1.261 . S
N167 Co118 2.214 . S
N167 C165 1.325 . S
N167 C166 1.261 . S
C168 H138 0.931 . S
C168 C165 1.357 . S
C168 C169 1.312 . S
C169 H140 0.930 . S
C169 C164 1.261 . S
C169 C168 1.312 . S
C170 O142 1.214 . S
C170 O150 1.234 . S
C171 H143 0.929 . S
C171 C174 1.391 . S
C171 C176 1.391 . S
C172 H144 0.929 . S
C172 C173 1.390 . S
C172 N175 1.391 . S
C173 H145 0.930 . S
C173 C172 1.390 . S
C173 C174 1.392 . S
C174 H146 0.929 . S
C174 C171 1.391 . S
C174 C173 1.392 . S
N175 Co119 2.257 . S
N175 C172 1.391 . S
N175 C176 1.388 . S
C176 H147 0.930 . S
C176 C171 1.391 . S
C176 N175 1.388 . S
Co177 O179 2.143 . S
Co177 O185 2.074 . S
Co177 O188 2.093 . S
Co177 O201 2.097 . S
Co177 N218 2.151 . S
Co177 N226 2.214 . S
Co178 O179 2.160 . S
Co178 O184 2.058 . S
Co178 O194 2.057 . S
Co178 O209 2.037 . S
Co178 N213 2.145 . S
Co178 N234 2.257 . S
O179 Co177 2.143 . S
O179 Co178 2.160 . S
C180 O181 1.278 . S
C180 O188 1.224 . S
O181 C180 1.278 . S
C182 O183 1.245 . S
C182 O194 1.232 . S
O183 C182 1.245 . S
O184 Co178 2.058 . S
O184 C210 1.269 . S
O185 Co177 2.074 . S
O185 C210 1.257 . S
H186 C211 0.930 . S
H187 C217 0.930 . S
O188 Co177 2.093 . S
O188 C180 1.224 . S
H189 C221 0.929 . S
H190 C223 0.930 . S
H191 C224 0.930 . S
H192 C222 0.929 . S
H193 C225 0.928 . S
O194 Co178 2.057 . S
O194 C182 1.232 . S
H195 C214 0.929 . S
H196 C215 0.929 . S
H197 C227 0.931 . S
H198 C219 0.929 . S
H199 C228 0.930 . S
H200 C220 0.931 . S
O201 Co177 2.097 . S
O201 C229 1.214 . S
H202 C230 0.929 . S
H203 C231 0.929 . S
H204 C232 0.930 . S
H205 C233 0.929 . S
H206 C235 0.930 . S
H207 C212 0.930 . S
H208 C216 0.930 . S
O209 Co178 2.037 . S
O209 C229 1.234 . S
C210 O184 1.269 . S
C210 O185 1.257 . S
C211 H186 0.930 . S
C211 C214 1.388 1_545 S
C211 C216 1.418 . S
C212 H207 0.930 . S
C212 C215 1.404 1_545 S
C212 C216 1.353 . S
N213 Co178 2.145 . S
N213 C214 1.397 . S
N213 C215 1.334 . S
C214 H195 0.929 . S
C214 C211 1.388 1_565 S
C214 N213 1.397 . S
C215 H196 0.929 . S
C215 C212 1.404 1_565 S
C215 N213 1.334 . S
C216 H208 0.930 . S
C216 C211 1.418 . S
C216 C212 1.353 . S
C217 H187 0.930 . S
C217 N218 1.330 . S
C217 C219 1.446 . S
N218 Co177 2.151 . S
N218 C217 1.330 . S
N218 C222 1.418 . S
C219 H198 0.929 . S
C219 C217 1.446 . S
C219 C220 1.332 . S
C220 H200 0.931 . S
C220 C219 1.332 . S
C220 C221 1.267 . S
C221 H189 0.929 . S
C221 C220 1.267 . S
C221 C222 1.251 . S
C222 H192 0.929 . S
C222 N218 1.418 . S
C222 C221 1.251 . S
C223 H190 0.930 . S
C223 C225 1.406 . S
C223 C228 1.261 . S
C224 H191 0.930 . S
C224 N226 1.325 . S
C224 C227 1.357 . S
C225 H193 0.928 . S
C225 C223 1.406 . S
C225 N226 1.261 . S
N226 Co177 2.214 . S
N226 C224 1.325 . S
N226 C225 1.261 . S
C227 H197 0.931 . S
C227 C224 1.357 . S
C227 C228 1.312 . S
C228 H199 0.930 . S
C228 C223 1.261 . S
C228 C227 1.312 . S
C229 O201 1.214 . S
C229 O209 1.234 . S
C230 H202 0.929 . S
C230 C233 1.391 1_565 S
C230 C235 1.391 . S
C231 H203 0.929 . S
C231 C232 1.390 1_565 S
C231 N234 1.391 . S
C232 H204 0.930 . S
C232 C231 1.390 1_545 S
C232 C233 1.392 . S
C233 H205 0.929 . S
C233 C230 1.391 1_545 S
C233 C232 1.392 . S
N234 Co178 2.257 . S
N234 C231 1.391 . S
N234 C235 1.388 . S
C235 H206 0.930 . S
C235 C230 1.391 . S
C235 N234 1.388 . S
Co236 O238 2.143 . S
Co236 O244 2.074 . S
Co236 O247 2.093 . S
Co236 O260 2.097 . S
Co236 N277 2.151 . S
Co236 N285 2.214 . S
Co237 O238 2.160 . S
Co237 O243 2.058 . S
Co237 O253 2.057 . S
Co237 O268 2.037 . S
Co237 N272 2.145 . S
Co237 N293 2.257 . S
O238 Co236 2.143 . S
O238 Co237 2.160 . S
C239 O240 1.278 . S
C239 O247 1.224 . S
O240 C239 1.278 . S
C241 O242 1.245 . S
C241 O253 1.232 . S
O242 C241 1.245 . S
O243 Co237 2.058 . S
O243 C269 1.269 . S
O244 Co236 2.074 . S
O244 C269 1.257 . S
H245 C270 0.930 . S
H246 C276 0.930 . S
O247 Co236 2.093 . S
O247 C239 1.224 . S
H248 C280 0.929 . S
H249 C282 0.930 . S
H250 C283 0.930 . S
H251 C281 0.929 . S
H252 C284 0.928 . S
O253 Co237 2.057 . S
O253 C241 1.232 . S
H254 C273 0.929 . S
H255 C274 0.929 . S
H256 C286 0.931 . S
H257 C278 0.929 . S
H258 C287 0.930 . S
H259 C279 0.931 . S
O260 Co236 2.097 . S
O260 C288 1.214 . S
H261 C289 0.929 . S
H262 C290 0.929 . S
H263 C291 0.930 . S
H264 C292 0.929 . S
H265 C294 0.930 . S
H266 C271 0.930 . S
H267 C275 0.930 . S
O268 Co237 2.037 . S
O268 C288 1.234 . S
C269 O243 1.269 . S
C269 O244 1.257 . S
C270 H245 0.930 . S
C270 C273 1.388 1_655 S
C270 C275 1.418 . S
C271 H266 0.930 . S
C271 C274 1.404 1_655 S
C271 C275 1.353 . S
N272 Co237 2.145 . S
N272 C273 1.397 . S
N272 C274 1.334 . S
C273 H254 0.929 . S
C273 C270 1.388 1_455 S
C273 N272 1.397 . S
C274 H255 0.929 . S
C274 C271 1.404 1_455 S
C274 N272 1.334 . S
C275 H267 0.930 . S
C275 C270 1.418 . S
C275 C271 1.353 . S
C276 H246 0.930 . S
C276 N277 1.330 . S
C276 C278 1.446 . S
N277 Co236 2.151 . S
N277 C276 1.330 . S
N277 C281 1.418 . S
C278 H257 0.929 . S
C278 C276 1.446 . S
C278 C279 1.332 . S
C279 H259 0.931 . S
C279 C278 1.332 . S
C279 C280 1.267 . S
C280 H248 0.929 . S
C280 C279 1.267 . S
C280 C281 1.251 . S
C281 H251 0.929 . S
C281 N277 1.418 . S
C281 C280 1.251 . S
C282 H249 0.930 . S
C282 C284 1.406 . S
C282 C287 1.261 . S
C283 H250 0.930 . S
C283 N285 1.325 . S
C283 C286 1.357 . S
C284 H252 0.928 . S
C284 C282 1.406 . S
C284 N285 1.261 . S
N285 Co236 2.214 . S
N285 C283 1.325 . S
N285 C284 1.261 . S
C286 H256 0.931 . S
C286 C283 1.357 . S
C286 C287 1.312 . S
C287 H258 0.930 . S
C287 C282 1.261 . S
C287 C286 1.312 . S
C288 O260 1.214 . S
C288 O268 1.234 . S
C289 H261 0.929 . S
C289 C292 1.391 1_455 S
C289 C294 1.391 . S
C290 H262 0.929 . S
C290 C291 1.390 1_455 S
C290 N293 1.391 . S
C291 H263 0.930 . S
C291 C290 1.390 1_655 S
C291 C292 1.392 . S
C292 H264 0.929 . S
C292 C289 1.391 1_655 S
C292 C291 1.392 . S
N293 Co237 2.257 . S
N293 C290 1.391 . S
N293 C294 1.388 . S
C294 H265 0.930 . S
C294 C289 1.391 . S
C294 N293 1.388 . S
Co295 O297 2.143 . S
Co295 O303 2.074 . S
Co295 O306 2.093 . S
Co295 O319 2.097 . S
Co295 N336 2.151 . S
Co295 N344 2.214 . S
Co296 O297 2.160 . S
Co296 O302 2.058 . S
Co296 O312 2.057 . S
Co296 O327 2.037 . S
Co296 N331 2.145 . S
Co296 N352 2.257 . S
O297 Co295 2.143 . S
O297 Co296 2.160 . S
C298 O299 1.278 . S
C298 O306 1.224 . S
O299 C298 1.278 . S
C300 O301 1.245 . S
C300 O312 1.232 . S
O301 C300 1.245 . S
O302 Co296 2.058 . S
O302 C328 1.269 . S
O303 Co295 2.074 . S
O303 C328 1.257 . S
H304 C329 0.930 . S
H305 C335 0.930 . S
O306 Co295 2.093 . S
O306 C298 1.224 . S
H307 C339 0.929 . S
H308 C341 0.930 . S
H309 C342 0.930 . S
H310 C340 0.929 . S
H311 C343 0.928 . S
O312 Co296 2.057 . S
O312 C300 1.232 . S
H313 C332 0.929 . S
H314 C333 0.929 . S
H315 C345 0.931 . S
H316 C337 0.929 . S
H317 C346 0.930 . S
H318 C338 0.931 . S
O319 Co295 2.097 . S
O319 C347 1.214 . S
H320 C348 0.929 . S
H321 C349 0.929 . S
H322 C350 0.930 . S
H323 C351 0.929 . S
H324 C353 0.930 . S
H325 C330 0.930 . S
H326 C334 0.930 . S
O327 Co296 2.037 . S
O327 C347 1.234 . S
C328 O302 1.269 . S
C328 O303 1.257 . S
C329 H304 0.930 . S
C329 C332 1.388 . S
C329 C334 1.418 . S
C330 H325 0.930 . S
C330 C333 1.404 . S
C330 C334 1.353 . S
N331 Co296 2.145 . S
N331 C332 1.397 . S
N331 C333 1.334 . S
C332 H313 0.929 . S
C332 C329 1.388 . S
C332 N331 1.397 . S
C333 H314 0.929 . S
C333 C330 1.404 . S
C333 N331 1.334 . S
C334 H326 0.930 . S
C334 C329 1.418 . S
C334 C330 1.353 . S
C335 H305 0.930 . S
C335 N336 1.330 . S
C335 C337 1.446 . S
N336 Co295 2.151 . S
N336 C335 1.330 . S
N336 C340 1.418 . S
C337 H316 0.929 . S
C337 C335 1.446 . S
C337 C338 1.332 . S
C338 H318 0.931 . S
C338 C337 1.332 . S
C338 C339 1.267 . S
C339 H307 0.929 . S
C339 C338 1.267 . S
C339 C340 1.251 . S
C340 H310 0.929 . S
C340 N336 1.418 . S
C340 C339 1.251 . S
C341 H308 0.930 . S
C341 C343 1.406 . S
C341 C346 1.261 . S
C342 H309 0.930 . S
C342 N344 1.325 . S
C342 C345 1.357 . S
C343 H311 0.928 . S
C343 C341 1.406 . S
C343 N344 1.261 . S
N344 Co295 2.214 . S
N344 C342 1.325 . S
N344 C343 1.261 . S
C345 H315 0.931 . S
C345 C342 1.357 . S
C345 C346 1.312 . S
C346 H317 0.930 . S
C346 C341 1.261 . S
C346 C345 1.312 . S
C347 O319 1.214 . S
C347 O327 1.234 . S
C348 H320 0.929 . S
C348 C351 1.391 . S
C348 C353 1.391 . S
C349 H321 0.929 . S
C349 C350 1.390 . S
C349 N352 1.391 . S
C350 H322 0.930 . S
C350 C349 1.390 . S
C350 C351 1.392 . S
C351 H323 0.929 . S
C351 C348 1.391 . S
C351 C350 1.392 . S
N352 Co296 2.257 . S
N352 C349 1.391 . S
N352 C353 1.388 . S
C353 H324 0.930 . S
C353 C348 1.391 . S
C353 N352 1.388 . S
Co354 O356 2.143 . S
Co354 O362 2.074 . S
Co354 O365 2.093 . S
Co354 O378 2.097 . S
Co354 N395 2.151 . S
Co354 N403 2.214 . S
Co355 O356 2.160 . S
Co355 O361 2.058 . S
Co355 O371 2.057 . S
Co355 O386 2.037 . S
Co355 N390 2.145 . S
Co355 N411 2.257 . S
O356 Co354 2.143 . S
O356 Co355 2.160 . S
C357 O358 1.278 . S
C357 O365 1.224 . S
O358 C357 1.278 . S
C359 O360 1.245 . S
C359 O371 1.232 . S
O360 C359 1.245 . S
O361 Co355 2.058 . S
O361 C387 1.269 . S
O362 Co354 2.074 . S
O362 C387 1.257 . S
H363 C388 0.930 . S
H364 C394 0.930 . S
O365 Co354 2.093 . S
O365 C357 1.224 . S
H366 C398 0.929 . S
H367 C400 0.930 . S
H368 C401 0.930 . S
H369 C399 0.929 . S
H370 C402 0.928 . S
O371 Co355 2.057 . S
O371 C359 1.232 . S
H372 C391 0.929 . S
H373 C392 0.929 . S
H374 C404 0.931 . S
H375 C396 0.929 . S
H376 C405 0.930 . S
H377 C397 0.931 . S
O378 Co354 2.097 . S
O378 C406 1.214 . S
H379 C407 0.929 . S
H380 C408 0.929 . S
H381 C409 0.930 . S
H382 C410 0.929 . S
H383 C412 0.930 . S
H384 C389 0.930 . S
H385 C393 0.930 . S
O386 Co355 2.037 . S
O386 C406 1.234 . S
C387 O361 1.269 . S
C387 O362 1.257 . S
C388 H363 0.930 . S
C388 C391 1.388 1_545 S
C388 C393 1.418 . S
C389 H384 0.930 . S
C389 C392 1.404 1_545 S
C389 C393 1.353 . S
N390 Co355 2.145 . S
N390 C391 1.397 . S
N390 C392 1.334 . S
C391 H372 0.929 . S
C391 C388 1.388 1_565 S
C391 N390 1.397 . S
C392 H373 0.929 . S
C392 C389 1.404 1_565 S
C392 N390 1.334 . S
C393 H385 0.930 . S
C393 C388 1.418 . S
C393 C389 1.353 . S
C394 H364 0.930 . S
C394 N395 1.330 . S
C394 C396 1.446 . S
N395 Co354 2.151 . S
N395 C394 1.330 . S
N395 C399 1.418 . S
C396 H375 0.929 . S
C396 C394 1.446 . S
C396 C397 1.332 . S
C397 H377 0.931 . S
C397 C396 1.332 . S
C397 C398 1.267 . S
C398 H366 0.929 . S
C398 C397 1.267 . S
C398 C399 1.251 . S
C399 H369 0.929 . S
C399 N395 1.418 . S
C399 C398 1.251 . S
C400 H367 0.930 . S
C400 C402 1.406 . S
C400 C405 1.261 . S
C401 H368 0.930 . S
C401 N403 1.325 . S
C401 C404 1.357 . S
C402 H370 0.928 . S
C402 C400 1.406 . S
C402 N403 1.261 . S
N403 Co354 2.214 . S
N403 C401 1.325 . S
N403 C402 1.261 . S
C404 H374 0.931 . S
C404 C401 1.357 . S
C404 C405 1.312 . S
C405 H376 0.930 . S
C405 C400 1.261 . S
C405 C404 1.312 . S
C406 O378 1.214 . S
C406 O386 1.234 . S
C407 H379 0.929 . S
C407 C410 1.391 1_565 S
C407 C412 1.391 . S
C408 H380 0.929 . S
C408 C409 1.390 1_565 S
C408 N411 1.391 . S
C409 H381 0.930 . S
C409 C408 1.390 1_545 S
C409 C410 1.392 . S
C410 H382 0.929 . S
C410 C407 1.391 1_545 S
C410 C409 1.392 . S
N411 Co355 2.257 . S
N411 C408 1.391 . S
N411 C412 1.388 . S
C412 H383 0.930 . S
C412 C407 1.391 . S
C412 N411 1.388 . S
Co413 O415 2.143 . S
Co413 O421 2.074 . S
Co413 O424 2.093 . S
Co413 O437 2.097 . S
Co413 N454 2.151 . S
Co413 N462 2.214 . S
Co414 O415 2.160 . S
Co414 O420 2.058 . S
Co414 O430 2.057 . S
Co414 O445 2.037 . S
Co414 N449 2.145 . S
Co414 N470 2.257 . S
O415 Co413 2.143 . S
O415 Co414 2.160 . S
C416 O417 1.278 . S
C416 O424 1.224 . S
O417 C416 1.278 . S
C418 O419 1.245 . S
C418 O430 1.232 . S
O419 C418 1.245 . S
O420 Co414 2.058 . S
O420 C446 1.269 . S
O421 Co413 2.074 . S
O421 C446 1.257 . S
H422 C447 0.930 . S
H423 C453 0.930 . S
O424 Co413 2.093 . S
O424 C416 1.224 . S
H425 C457 0.929 . S
H426 C459 0.930 . S
H427 C460 0.930 . S
H428 C458 0.929 . S
H429 C461 0.928 . S
O430 Co414 2.057 . S
O430 C418 1.232 . S
H431 C450 0.929 . S
H432 C451 0.929 . S
H433 C463 0.931 . S
H434 C455 0.929 . S
H435 C464 0.930 . S
H436 C456 0.931 . S
O437 Co413 2.097 . S
O437 C465 1.214 . S
H438 C466 0.929 . S
H439 C467 0.929 . S
H440 C468 0.930 . S
H441 C469 0.929 . S
H442 C471 0.930 . S
H443 C448 0.930 . S
H444 C452 0.930 . S
O445 Co414 2.037 . S
O445 C465 1.234 . S
C446 O420 1.269 . S
C446 O421 1.257 . S
C447 H422 0.930 . S
C447 C450 1.388 . S
C447 C452 1.418 . S
C448 H443 0.930 . S
C448 C451 1.404 . S
C448 C452 1.353 . S
N449 Co414 2.145 . S
N449 C450 1.397 . S
N449 C451 1.334 . S
C450 H431 0.929 . S
C450 C447 1.388 . S
C450 N449 1.397 . S
C451 H432 0.929 . S
C451 C448 1.404 . S
C451 N449 1.334 . S
C452 H444 0.930 . S
C452 C447 1.418 . S
C452 C448 1.353 . S
C453 H423 0.930 . S
C453 N454 1.330 . S
C453 C455 1.446 . S
N454 Co413 2.151 . S
N454 C453 1.330 . S
N454 C458 1.418 . S
C455 H434 0.929 . S
C455 C453 1.446 . S
C455 C456 1.332 . S
C456 H436 0.931 . S
C456 C455 1.332 . S
C456 C457 1.267 . S
C457 H425 0.929 . S
C457 C456 1.267 . S
C457 C458 1.251 . S
C458 H428 0.929 . S
C458 N454 1.418 . S
C458 C457 1.251 . S
C459 H426 0.930 . S
C459 C461 1.406 . S
C459 C464 1.261 . S
C460 H427 0.930 . S
C460 N462 1.325 . S
C460 C463 1.357 . S
C461 H429 0.928 . S
C461 C459 1.406 . S
C461 N462 1.261 . S
N462 Co413 2.214 . S
N462 C460 1.325 . S
N462 C461 1.261 . S
C463 H433 0.931 . S
C463 C460 1.357 . S
C463 C464 1.312 . S
C464 H435 0.930 . S
C464 C459 1.261 . S
C464 C463 1.312 . S
C465 O437 1.214 . S
C465 O445 1.234 . S
C466 H438 0.929 . S
C466 C469 1.391 . S
C466 C471 1.391 . S
C467 H439 0.929 . S
C467 C468 1.390 . S
C467 N470 1.391 . S
C468 H440 0.930 . S
C468 C467 1.390 . S
C468 C469 1.392 . S
C469 H441 0.929 . S
C469 C466 1.391 . S
C469 C468 1.392 . S
N470 Co414 2.257 . S
N470 C467 1.391 . S
N470 C471 1.388 . S
C471 H442 0.930 . S
C471 C466 1.391 . S
C471 N470 1.388 . S
C472 C473 1.391 . S
C472 C474 1.394 . S
C472 H488 0.931 . S
C473 C472 1.391 . S
C473 C477 1.376 . S
C474 C472 1.394 . S
C474 C475 1.369 . S
C474 C478 1.531 . S
C475 C474 1.369 . S
C475 C476 1.410 . S
C475 C483 1.503 . S
C476 C475 1.410 . S
C476 C477 1.392 . S
C476 C479 1.511 . S
C477 C473 1.376 . S
C477 C476 1.392 . S
C477 H489 0.929 . S
C478 C474 1.531 . S
C478 H490 0.960 . S
C478 H491 0.962 . S
C478 H492 0.960 . S
C479 C476 1.511 . S
C479 H493 0.961 . S
C479 H494 0.961 . S
C479 H495 0.961 . S
C480 C481 1.370 . S
C480 C482 1.363 . S
C480 H496 0.931 . S
C481 C480 1.370 . S
C481 C485 1.408 . S
C482 C480 1.363 . S
C482 C483 1.370 . S
C482 C486 1.524 . S
C483 C475 1.503 . S
C483 C482 1.370 . S
C483 C484 1.403 . S
C484 C483 1.403 . S
C484 C485 1.404 . S
C484 C487 1.539 . S
C485 C481 1.408 . S
C485 C484 1.404 . S
C485 H497 0.930 . S
C486 C482 1.524 . S
C486 H498 0.956 . S
C486 H499 0.961 . S
C486 H500 0.961 . S
C487 C484 1.539 . S
C487 H501 0.958 . S
C487 H502 0.961 . S
C487 H503 0.960 . S
H488 C472 0.931 . S
H489 C477 0.929 . S
H490 C478 0.960 . S
H491 C478 0.962 . S
H492 C478 0.960 . S
H493 C479 0.961 . S
H494 C479 0.961 . S
H495 C479 0.961 . S
H496 C480 0.931 . S
H497 C485 0.930 . S
H498 C486 0.956 . S
H499 C486 0.961 . S
H500 C486 0.961 . S
H501 C487 0.958 . S
H502 C487 0.961 . S
H503 C487 0.960 . S
C504 C505 1.391 . S
C504 C506 1.394 . S
C504 H520 0.931 . S
C505 C504 1.391 . S
C505 C509 1.376 . S
C506 C504 1.394 . S
C506 C507 1.369 . S
C506 C510 1.531 . S
C507 C506 1.369 . S
C507 C508 1.410 . S
C507 C515 1.503 . S
C508 C507 1.410 . S
C508 C509 1.392 . S
C508 C511 1.511 . S
C509 C505 1.376 . S
C509 C508 1.392 . S
C509 H521 0.929 . S
C510 C506 1.531 . S
C510 H522 0.960 . S
C510 H523 0.962 . S
C510 H524 0.960 . S
C511 C508 1.511 . S
C511 H525 0.961 . S
C511 H526 0.961 . S
C511 H527 0.961 . S
C512 C513 1.370 . S
C512 C514 1.363 . S
C512 H528 0.931 . S
C513 C512 1.370 . S
C513 C517 1.408 . S
C514 C512 1.363 . S
C514 C515 1.370 . S
C514 C518 1.524 . S
C515 C507 1.503 . S
C515 C514 1.370 . S
C515 C516 1.403 . S
C516 C515 1.403 . S
C516 C517 1.404 . S
C516 C519 1.539 . S
C517 C513 1.408 . S
C517 C516 1.404 . S
C517 H529 0.930 . S
C518 C514 1.524 . S
C518 H530 0.956 . S
C518 H531 0.961 . S
C518 H532 0.961 . S
C519 C516 1.539 . S
C519 H533 0.958 . S
C519 H534 0.961 . S
C519 H535 0.960 . S
H520 C504 0.931 . S
H521 C509 0.929 . S
H522 C510 0.960 . S
H523 C510 0.962 . S
H524 C510 0.960 . S
H525 C511 0.961 . S
H526 C511 0.961 . S
H527 C511 0.961 . S
H528 C512 0.931 . S
H529 C517 0.930 . S
H530 C518 0.956 . S
H531 C518 0.961 . S
H532 C518 0.961 . S
H533 C519 0.958 . S
H534 C519 0.961 . S
H535 C519 0.960 . S
C536 C537 1.391 . S
C536 C538 1.394 1_545 S
C536 H552 0.931 . S
C537 C536 1.391 . S
C537 C541 1.376 . S
C538 C536 1.394 1_565 S
C538 C539 1.369 1_565 S
C538 C542 1.531 . S
C539 C538 1.369 1_545 S
C539 C540 1.410 . S
C539 C547 1.503 1_544 S
C540 C539 1.410 . S
C540 C541 1.392 . S
C540 C543 1.511 1_554 S
C541 C537 1.376 . S
C541 C540 1.392 . S
C541 H553 0.929 . S
C542 C538 1.531 . S
C542 H554 0.960 . S
C542 H555 0.962 . S
C542 H556 0.960 . S
C543 C540 1.511 1_556 S
C543 H557 0.961 . S
C543 H558 0.961 . S
C543 H559 0.961 . S
C544 C545 1.370 . S
C544 C546 1.363 . S
C544 H560 0.931 . S
C545 C544 1.370 . S
C545 C549 1.408 . S
C546 C544 1.363 . S
C546 C547 1.370 . S
C546 C550 1.524 . S
C547 C539 1.503 1_566 S
C547 C546 1.370 . S
C547 C548 1.403 . S
C548 C547 1.403 . S
C548 C549 1.404 . S
C548 C551 1.539 1_565 S
C549 C545 1.408 . S
C549 C548 1.404 . S
C549 H561 0.930 . S
C550 C546 1.524 . S
C550 H562 0.956 1_556 S
C550 H563 0.961 . S
C550 H564 0.961 . S
C551 C548 1.539 1_545 S
C551 H565 0.958 1_556 S
C551 H566 0.961 . S
C551 H567 0.960 . S
H552 C536 0.931 . S
H553 C541 0.929 . S
H554 C542 0.960 . S
H555 C542 0.962 . S
H556 C542 0.960 . S
H557 C543 0.961 . S
H558 C543 0.961 . S
H559 C543 0.961 . S
H560 C544 0.931 . S
H561 C549 0.930 . S
H562 C550 0.956 1_554 S
H563 C550 0.961 . S
H564 C550 0.961 . S
H565 C551 0.958 1_554 S
H566 C551 0.961 . S
H567 C551 0.960 . S
C568 C569 1.391 . S
C568 C570 1.394 1_655 S
C568 H584 0.931 . S
C569 C568 1.391 . S
C569 C573 1.376 . S
C570 C568 1.394 1_455 S
C570 C571 1.369 . S
C570 C574 1.531 . S
C571 C570 1.369 . S
C571 C572 1.410 . S
C571 C579 1.503 . S
C572 C571 1.410 . S
C572 C573 1.392 1_455 S
C572 C575 1.511 . S
C573 C569 1.376 . S
C573 C572 1.392 1_655 S
C573 H585 0.929 . S
C574 C570 1.531 . S
C574 H586 0.960 . S
C574 H587 0.962 1_455 S
C574 H588 0.960 . S
C575 C572 1.511 . S
C575 H589 0.961 . S
C575 H590 0.961 . S
C575 H591 0.961 . S
C576 C577 1.370 . S
C576 C578 1.363 . S
C576 H592 0.931 . S
C577 C576 1.370 . S
C577 C581 1.408 . S
C578 C576 1.363 . S
C578 C579 1.370 . S
C578 C582 1.524 1_455 S
C579 C571 1.503 . S
C579 C578 1.370 . S
C579 C580 1.403 . S
C580 C579 1.403 . S
C580 C581 1.404 . S
C580 C583 1.539 . S
C581 C577 1.408 . S
C581 C580 1.404 . S
C581 H593 0.930 . S
C582 C578 1.524 1_655 S
C582 H594 0.956 . S
C582 H595 0.961 . S
C582 H596 0.961 . S
C583 C580 1.539 . S
C583 H597 0.958 . S
C583 H598 0.961 . S
C583 H599 0.960 . S
H584 C568 0.931 . S
H585 C573 0.929 . S
H586 C574 0.960 . S
H587 C574 0.962 1_655 S
H588 C574 0.960 . S
H589 C575 0.961 . S
H590 C575 0.961 . S
H591 C575 0.961 . S
H592 C576 0.931 . S
H593 C581 0.930 . S
H594 C582 0.956 . S
H595 C582 0.961 . S
H596 C582 0.961 . S
H597 C583 0.958 . S
H598 C583 0.961 . S
H599 C583 0.960 . S
C600 C601 1.391 . S
C600 C602 1.394 . S
C600 H616 0.931 . S
C601 C600 1.391 . S
C601 C605 1.376 . S
C602 C600 1.394 . S
C602 C603 1.369 . S
C602 C606 1.531 . S
C603 C602 1.369 . S
C603 C604 1.410 . S
C603 C611 1.503 . S
C604 C603 1.410 . S
C604 C605 1.392 . S
C604 C607 1.511 1_565 S
C605 C601 1.376 . S
C605 C604 1.392 . S
C605 H617 0.929 . S
C606 C602 1.531 . S
C606 H618 0.960 . S
C606 H619 0.962 . S
C606 H620 0.960 . S
C607 C604 1.511 1_545 S
C607 H621 0.961 . S
C607 H622 0.961 . S
C607 H623 0.961 . S
C608 C609 1.370 . S
C608 C610 1.363 1_545 S
C608 H624 0.937 . S
C609 C608 1.370 . S
C609 C613 1.408 . S
C610 C608 1.363 1_565 S
C610 C611 1.370 . S
C610 C614 1.524 . S
C611 C603 1.503 . S
C611 C610 1.370 . S
C611 C612 1.403 1_565 S
C612 C611 1.403 1_545 S
C612 C613 1.404 . S
C612 C615 1.539 . S
C613 C609 1.408 . S
C613 C612 1.404 . S
C613 H625 0.930 . S
C614 C610 1.524 . S
C614 H626 0.956 . S
C614 H627 0.961 . S
C614 H628 0.961 . S
C615 C612 1.539 . S
C615 H629 0.958 . S
C615 H630 0.961 . S
C615 H631 0.960 . S
H616 C600 0.931 . S
H617 C605 0.929 . S
H618 C606 0.960 . S
H619 C606 0.962 . S
H620 C606 0.960 . S
H621 C607 0.961 . S
H622 C607 0.961 . S
H623 C607 0.961 . S
H624 C608 0.937 . S
H625 C613 0.930 . S
H626 C614 0.956 . S
H627 C614 0.961 . S
H628 C614 0.961 . S
H629 C615 0.958 . S
H630 C615 0.961 . S
H631 C615 0.960 . S
C632 C633 1.391 . S
C632 C634 1.394 1_655 S
C632 H648 0.931 . S
C633 C632 1.391 . S
C633 C637 1.376 . S
C634 C632 1.394 1_455 S
C634 C635 1.369 1_455 S
C634 C638 1.531 . S
C635 C634 1.369 1_655 S
C635 C636 1.410 . S
C635 C643 1.503 1_656 S
C636 C635 1.410 . S
C636 C637 1.392 . S
C636 C639 1.511 1_556 S
C637 C633 1.376 . S
C637 C636 1.392 . S
C637 H649 0.929 . S
C638 C634 1.531 . S
C638 H650 0.960 . S
C638 H651 0.962 . S
C638 H652 0.960 . S
C639 C636 1.511 1_554 S
C639 H653 0.961 . S
C639 H654 0.961 . S
C639 H655 0.961 . S
C640 C641 1.370 . S
C640 C642 1.363 . S
C640 H656 0.931 . S
C641 C640 1.370 . S
C641 C645 1.408 . S
C642 C640 1.363 . S
C642 C643 1.370 . S
C642 C646 1.524 . S
C643 C635 1.503 1_454 S
C643 C642 1.370 . S
C643 C644 1.403 . S
C644 C643 1.403 . S
C644 C645 1.404 . S
C644 C647 1.539 1_455 S
C645 C641 1.408 . S
C645 C644 1.404 . S
C645 H657 0.930 . S
C646 C642 1.524 . S
C646 H658 0.956 1_554 S
C646 H659 0.961 . S
C646 H660 0.961 . S
C647 C644 1.539 1_655 S
C647 H661 0.958 1_554 S
C647 H662 0.961 . S
C647 H663 0.960 . S
H648 C632 0.931 . S
H649 C637 0.929 . S
H650 C638 0.960 . S
H651 C638 0.962 . S
H652 C638 0.960 . S
H653 C639 0.961 . S
H654 C639 0.961 . S
H655 C639 0.961 . S
H656 C640 0.931 . S
H657 C645 0.930 . S
H658 C646 0.956 1_556 S
H659 C646 0.961 . S
H660 C646 0.961 . S
H661 C647 0.958 1_556 S
H662 C647 0.961 . S
H663 C647 0.960 . S
C664 C665 1.391 . S
C664 C666 1.394 . S
C664 H680 0.931 . S
C665 C664 1.391 . S
C665 C669 1.376 . S
C666 C664 1.394 . S
C666 C667 1.369 . S
C666 C670 1.531 . S
C667 C666 1.369 . S
C667 C668 1.410 . S
C667 C675 1.503 . S
C668 C667 1.410 . S
C668 C669 1.392 . S
C668 C671 1.511 . S
C669 C665 1.376 . S
C669 C668 1.392 . S
C669 H681 0.929 . S
C670 C666 1.531 . S
C670 H682 0.960 . S
C670 H683 0.962 . S
C670 H684 0.960 . S
C671 C668 1.511 . S
C671 H685 0.961 . S
C671 H686 0.961 . S
C671 H687 0.961 . S
C672 C673 1.370 . S
C672 C674 1.363 . S
C672 H688 0.931 . S
C673 C672 1.370 . S
C673 C677 1.408 . S
C674 C672 1.363 . S
C674 C675 1.370 . S
C674 C678 1.524 . S
C675 C667 1.503 . S
C675 C674 1.370 . S
C675 C676 1.403 . S
C676 C675 1.403 . S
C676 C677 1.404 . S
C676 C679 1.539 . S
C677 C673 1.408 . S
C677 C676 1.404 . S
C677 H689 0.930 . S
C678 C674 1.524 . S
C678 H690 0.956 . S
C678 H691 0.961 . S
C678 H692 0.961 . S
C679 C676 1.539 . S
C679 H693 0.958 . S
C679 H694 0.961 . S
C679 H695 0.960 . S
H680 C664 0.931 . S
H681 C669 0.929 . S
H682 C670 0.960 . S
H683 C670 0.962 . S
H684 C670 0.960 . S
H685 C671 0.961 . S
H686 C671 0.961 . S
H687 C671 0.961 . S
H688 C672 0.931 . S
H689 C677 0.930 . S
H690 C678 0.956 . S
H691 C678 0.961 . S
H692 C678 0.961 . S
H693 C679 0.958 . S
H694 C679 0.961 . S
H695 C679 0.960 . S
C696 C697 1.391 . S
C696 C698 1.394 . S
C696 H712 0.931 . S
C697 C696 1.391 . S
C697 C701 1.376 . S
C698 C696 1.394 . S
C698 C699 1.369 . S
C698 C702 1.531 . S
C699 C698 1.369 . S
C699 C700 1.410 . S
C699 C707 1.503 . S
C700 C699 1.410 . S
C700 C701 1.392 . S
C700 C703 1.511 . S
C701 C697 1.376 . S
C701 C700 1.392 . S
C701 H713 0.929 . S
C702 C698 1.531 . S
C702 H714 0.960 . S
C702 H715 0.962 . S
C702 H716 0.960 . S
C703 C700 1.511 . S
C703 H717 0.961 . S
C703 H718 0.961 . S
C703 H719 0.961 . S
C704 C705 1.370 . S
C704 C706 1.363 . S
C704 H720 0.931 . S
C705 C704 1.370 . S
C705 C709 1.408 . S
C706 C704 1.363 . S
C706 C707 1.370 . S
C706 C710 1.524 . S
C707 C699 1.503 . S
C707 C706 1.370 . S
C707 C708 1.403 . S
C708 C707 1.403 . S
C708 C709 1.404 . S
C708 C711 1.539 . S
C709 C705 1.408 . S
C709 C708 1.404 . S
C709 H721 0.930 . S
C710 C706 1.524 . S
C710 H722 0.956 . S
C710 H723 0.961 . S
C710 H724 0.961 . S
C711 C708 1.539 . S
C711 H725 0.958 . S
C711 H726 0.961 . S
C711 H727 0.960 . S
H712 C696 0.931 . S
H713 C701 0.929 . S
H714 C702 0.960 . S
H715 C702 0.962 . S
H716 C702 0.960 . S
H717 C703 0.961 . S
H718 C703 0.961 . S
H719 C703 0.961 . S
H720 C704 0.931 . S
H721 C709 0.930 . S
H722 C710 0.956 . S
H723 C710 0.961 . S
H724 C710 0.961 . S
H725 C711 0.958 . S
H726 C711 0.961 . S
H727 C711 0.960 . S
C728 C729 1.391 . S
C728 C730 1.394 . S
C728 H744 0.931 . S
C729 C728 1.391 . S
C729 C733 1.376 . S
C730 C728 1.394 . S
C730 C731 1.369 . S
C730 C734 1.531 . S
C731 C730 1.369 . S
C731 C732 1.410 . S
C731 C739 1.503 . S
C732 C731 1.410 . S
C732 C733 1.392 . S
C732 C735 1.511 . S
C733 C729 1.376 . S
C733 C732 1.392 . S
C733 H745 0.929 . S
C734 C730 1.531 . S
C734 H746 0.960 . S
C734 H747 0.962 . S
C734 H748 0.960 . S
C735 C732 1.511 . S
C735 H749 0.961 . S
C735 H750 0.961 . S
C735 H751 0.961 . S
C736 C737 1.370 . S
C736 C738 1.363 . S
C736 H752 0.931 . S
C737 C736 1.370 . S
C737 C741 1.408 . S
C738 C736 1.363 . S
C738 C739 1.370 . S
C738 C742 1.524 . S
C739 C731 1.503 . S
C739 C738 1.370 . S
C739 C740 1.403 . S
C740 C739 1.403 . S
C740 C741 1.404 . S
C740 C743 1.539 . S
C741 C737 1.408 . S
C741 C740 1.404 . S
C741 H753 0.930 . S
C742 C738 1.524 . S
C742 H754 0.956 . S
C742 H755 0.961 . S
C742 H756 0.961 . S
C743 C740 1.539 . S
C743 H757 0.958 . S
C743 H758 0.961 . S
C743 H759 0.960 . S
H744 C728 0.931 . S
H745 C733 0.929 . S
H746 C734 0.960 . S
H747 C734 0.962 . S
H748 C734 0.960 . S
H749 C735 0.961 . S
H750 C735 0.961 . S
H751 C735 0.961 . S
H752 C736 0.931 . S
H753 C741 0.930 . S
H754 C742 0.956 . S
H755 C742 0.961 . S
H756 C742 0.961 . S
H757 C743 0.958 . S
H758 C743 0.961 . S
H759 C743 0.960 . S
C760 C761 1.391 . S
C760 C762 1.394 . S
C760 H776 0.931 . S
C761 C760 1.391 . S
C761 C765 1.376 . S
C762 C760 1.394 . S
C762 C763 1.369 . S
C762 C766 1.531 . S
C763 C762 1.369 . S
C763 C764 1.410 . S
C763 C771 1.503 1_556 S
C764 C763 1.410 . S
C764 C765 1.392 . S
C764 C767 1.511 1_556 S
C765 C761 1.376 . S
C765 C764 1.392 . S
C765 H777 0.929 . S
C766 C762 1.531 . S
C766 H778 0.960 . S
C766 H779 0.962 . S
C766 H780 0.960 . S
C767 C764 1.511 1_554 S
C767 H781 0.961 . S
C767 H782 0.961 . S
C767 H783 0.961 . S
C768 C769 1.370 . S
C768 C770 1.363 . S
C768 H784 0.931 . S
C769 C768 1.370 . S
C769 C773 1.408 . S
C770 C768 1.363 . S
C770 C771 1.370 . S
C770 C774 1.524 . S
C771 C763 1.503 1_554 S
C771 C770 1.370 . S
C771 C772 1.403 . S
C772 C771 1.403 . S
C772 C773 1.404 . S
C772 C775 1.539 1_554 S
C773 C769 1.408 . S
C773 C772 1.404 . S
C773 H785 0.930 . S
C774 C770 1.524 . S
C774 H786 0.956 . S
C774 H787 0.961 . S
C774 H788 0.961 . S
C775 C772 1.539 1_556 S
C775 H789 0.958 . S
C775 H790 0.961 1_556 S
C775 H791 0.960 . S
H776 C760 0.931 . S
H777 C765 0.929 . S
H778 C766 0.960 . S
H779 C766 0.962 . S
H780 C766 0.960 . S
H781 C767 0.961 . S
H782 C767 0.961 . S
H783 C767 0.961 . S
H784 C768 0.931 . S
H785 C773 0.930 . S
H786 C774 0.956 . S
H787 C774 0.961 . S
H788 C774 0.961 . S
H789 C775 0.958 . S
H790 C775 0.961 1_554 S
H791 C775 0.960 . S
C792 C793 1.391 . S
C792 C794 1.394 . S
C792 H808 0.931 . S
C793 C792 1.391 . S
C793 C797 1.376 . S
C794 C792 1.394 . S
C794 C795 1.369 . S
C794 C798 1.531 . S
C795 C794 1.369 . S
C795 C796 1.410 . S
C795 C803 1.503 . S
C796 C795 1.410 . S
C796 C797 1.392 . S
C796 C799 1.511 . S
C797 C793 1.376 . S
C797 C796 1.392 . S
C797 H809 0.929 . S
C798 C794 1.531 . S
C798 H810 0.960 . S
C798 H811 0.962 1_565 S
C798 H812 0.960 . S
C799 C796 1.511 . S
C799 H813 0.961 . S
C799 H814 0.961 . S
C799 H815 0.961 . S
C800 C801 1.370 . S
C800 C802 1.363 . S
C800 H816 0.931 . S
C801 C800 1.370 . S
C801 C805 1.408 1_545 S
C802 C800 1.363 . S
C802 C803 1.370 1_545 S
C802 C806 1.524 . S
C803 C795 1.503 . S
C803 C802 1.370 1_565 S
C803 C804 1.403 . S
C804 C803 1.403 . S
C804 C805 1.404 . S
C804 C807 1.539 . S
C805 C801 1.408 1_565 S
C805 C804 1.404 . S
C805 H817 0.930 . S
C806 C802 1.524 . S
C806 H818 0.956 . S
C806 H819 0.961 . S
C806 H820 0.961 . S
C807 C804 1.539 . S
C807 H821 0.958 . S
C807 H822 0.961 . S
C807 H823 0.960 . S
H808 C792 0.931 . S
H809 C797 0.929 . S
H810 C798 0.960 . S
H811 C798 0.962 1_545 S
H812 C798 0.960 . S
H813 C799 0.961 . S
H814 C799 0.961 . S
H815 C799 0.961 . S
H816 C800 0.931 . S
H817 C805 0.930 . S
H818 C806 0.956 . S
H819 C806 0.961 . S
H820 C806 0.961 . S
H821 C807 0.958 . S
H822 C807 0.961 . S
H823 C807 0.960 . S
C824 C825 1.391 . S
C824 C826 1.394 1_655 S
C824 H840 0.931 . S
C825 C824 1.391 . S
C825 C829 1.376 . S
C826 C824 1.394 1_455 S
C826 C827 1.369 1_455 S
C826 C830 1.531 1_565 S
C827 C826 1.369 1_655 S
C827 C828 1.410 . S
C827 C835 1.503 1_665 S
C828 C827 1.410 . S
C828 C829 1.392 . S
C828 C831 1.511 . S
C829 C825 1.376 . S
C829 C828 1.392 . S
C829 H841 0.929 . S
C830 C826 1.531 1_545 S
C830 H842 0.960 . S
C830 H843 0.962 . S
C830 H844 0.960 . S
C831 C828 1.511 . S
C831 H845 0.961 . S
C831 H846 0.961 . S
C831 H847 0.961 . S
C832 C833 1.370 . S
C832 C834 1.363 1_545 S
C832 H848 0.931 . S
C833 C832 1.370 . S
C833 C837 1.408 . S
C834 C832 1.363 1_565 S
C834 C835 1.370 1_565 S
C834 C838 1.524 . S
C835 C827 1.503 1_445 S
C835 C834 1.370 1_545 S
C835 C836 1.403 . S
C836 C835 1.403 . S
C836 C837 1.404 . S
C836 C839 1.539 1_455 S
C837 C833 1.408 . S
C837 C836 1.404 . S
C837 H849 0.930 . S
C838 C834 1.524 . S
C838 H850 0.956 . S
C838 H851 0.961 . S
C838 H852 0.961 . S
C839 C836 1.539 1_655 S
C839 H853 0.958 . S
C839 H854 0.961 . S
C839 H855 0.960 . S
H840 C824 0.931 . S
H841 C829 0.929 . S
H842 C830 0.960 . S
H843 C830 0.962 . S
H844 C830 0.960 . S
H845 C831 0.961 . S
H846 C831 0.961 . S
H847 C831 0.961 . S
H848 C832 0.931 . S
H849 C837 0.930 . S
H850 C838 0.956 . S
H851 C838 0.961 . S
H852 C838 0.961 . S
H853 C839 0.958 . S
H854 C839 0.961 . S
H855 C839 0.960 . S
C856 C857 1.391 . S
C856 C858 1.394 . S
C856 H872 0.931 . S
C857 C856 1.391 . S
C857 C861 1.376 . S
C858 C856 1.394 . S
C858 C859 1.369 1_655 S
C858 C862 1.531 . S
C859 C858 1.369 1_455 S
C859 C860 1.410 . S
C859 C867 1.503 . S
C860 C859 1.410 . S
C860 C861 1.392 1_455 S
C860 C863 1.512 . S
C861 C857 1.376 . S
C861 C860 1.392 1_655 S
C861 H873 0.929 . S
C862 C858 1.531 . S
C862 H874 0.960 . S
C862 H875 0.962 1_655 S
C862 H876 0.960 . S
C863 C860 1.512 . S
C863 H877 0.961 . S
C863 H878 0.961 . S
C863 H879 0.961 1_455 S
C864 C865 1.370 . S
C864 C866 1.363 . S
C864 H880 0.931 . S
C865 C864 1.370 . S
C865 C869 1.408 . S
C866 C864 1.363 . S
C866 C867 1.370 . S
C866 C870 1.524 . S
C867 C859 1.503 . S
C867 C866 1.370 . S
C867 C868 1.403 . S
C868 C867 1.403 . S
C868 C869 1.404 . S
C868 C871 1.539 1_455 S
C869 C865 1.408 . S
C869 C868 1.404 . S
C869 H881 0.930 . S
C870 C866 1.524 . S
C870 H882 0.956 . S
C870 H883 0.961 . S
C870 H884 0.961 . S
C871 C868 1.539 1_655 S
C871 H885 0.958 . S
C871 H886 0.961 . S
C871 H887 0.960 . S
H872 C856 0.931 . S
H873 C861 0.929 . S
H874 C862 0.960 . S
H875 C862 0.962 1_455 S
H876 C862 0.960 . S
H877 C863 0.961 . S
H878 C863 0.961 . S
H879 C863 0.961 1_655 S
H880 C864 0.931 . S
H881 C869 0.930 . S
H882 C870 0.956 . S
H883 C870 0.961 . S
H884 C870 0.961 . S
H885 C871 0.958 . S
H886 C871 0.961 . S
H887 C871 0.960 . S
C888 C889 1.391 . S
C888 C890 1.394 . S
C888 H904 0.931 . S
C889 C888 1.391 . S
C889 C893 1.376 . S
C890 C888 1.394 . S
C890 C891 1.369 . S
C890 C894 1.531 . S
C891 C890 1.369 . S
C891 C892 1.410 . S
C891 C899 1.503 . S
C892 C891 1.410 . S
C892 C893 1.392 . S
C892 C895 1.511 . S
C893 C889 1.376 . S
C893 C892 1.392 . S
C893 H905 0.929 . S
C894 C890 1.531 . S
C894 H906 0.960 . S
C894 H907 0.962 . S
C894 H908 0.960 . S
C895 C892 1.511 . S
C895 H909 0.961 . S
C895 H910 0.961 . S
C895 H911 0.961 . S
C896 C897 1.370 . S
C896 C898 1.363 . S
C896 H912 0.931 . S
C897 C896 1.370 . S
C897 C901 1.408 . S
C898 C896 1.363 . S
C898 C899 1.370 . S
C898 C902 1.524 . S
C899 C891 1.503 . S
C899 C898 1.370 . S
C899 C900 1.403 . S
C900 C899 1.403 . S
C900 C901 1.404 . S
C900 C903 1.539 . S
C901 C897 1.408 . S
C901 C900 1.404 . S
C901 H913 0.930 . S
C902 C898 1.524 . S
C902 H914 0.956 . S
C902 H915 0.961 . S
C902 H916 0.961 . S
C903 C900 1.539 . S
C903 H917 0.958 . S
C903 H918 0.961 . S
C903 H919 0.960 . S
H904 C888 0.931 . S
H905 C893 0.929 . S
H906 C894 0.960 . S
H907 C894 0.962 . S
H908 C894 0.960 . S
H909 C895 0.961 . S
H910 C895 0.961 . S
H911 C895 0.961 . S
H912 C896 0.931 . S
H913 C901 0.930 . S
H914 C902 0.956 . S
H915 C902 0.961 . S
H916 C902 0.961 . S
H917 C903 0.958 . S
H918 C903 0.961 . S
H919 C903 0.960 . S
C920 C921 1.391 . S
C920 C922 1.394 . S
C920 H936 0.931 . S
C921 C920 1.391 . S
C921 C925 1.376 . S
C922 C920 1.394 . S
C922 C923 1.369 . S
C922 C926 1.531 1_554 S
C923 C922 1.369 . S
C923 C924 1.410 . S
C923 C931 1.503 1_554 S
C924 C923 1.410 . S
C924 C925 1.392 . S
C924 C927 1.511 . S
C925 C921 1.376 . S
C925 C924 1.392 . S
C925 H937 0.929 . S
C926 C922 1.531 1_556 S
C926 H938 0.960 . S
C926 H939 0.962 . S
C926 H940 0.960 . S
C927 C924 1.511 . S
C927 H941 0.961 . S
C927 H942 0.961 . S
C927 H943 0.961 . S
C928 C929 1.370 . S
C928 C930 1.363 . S
C928 H944 0.931 . S
C929 C928 1.370 . S
C929 C933 1.408 . S
C930 C928 1.363 . S
C930 C931 1.370 . S
C930 C934 1.524 . S
C931 C923 1.503 1_556 S
C931 C930 1.370 . S
C931 C932 1.403 . S
C932 C931 1.403 . S
C932 C933 1.404 . S
C932 C935 1.539 . S
C933 C929 1.408 . S
C933 C932 1.404 . S
C933 H945 0.930 . S
C934 C930 1.524 . S
C934 H946 0.956 . S
C934 H947 0.961 1_556 S
C934 H948 0.961 . S
C935 C932 1.539 . S
C935 H949 0.958 . S
C935 H950 0.961 . S
C935 H951 0.988 . S
H936 C920 0.931 . S
H937 C925 0.929 . S
H938 C926 0.960 . S
H939 C926 0.962 . S
H940 C926 0.960 . S
H941 C927 0.961 . S
H942 C927 0.961 . S
H943 C927 0.961 . S
H944 C928 0.931 . S
H945 C933 0.930 . S
H946 C934 0.956 . S
H947 C934 0.961 1_554 S
H948 C934 0.961 . S
H949 C935 0.958 . S
H950 C935 0.961 . S
H951 C935 0.988 . S
C952 C953 1.391 . S
C952 C954 1.394 . S
C952 H968 0.931 . S
C953 C952 1.391 . S
C953 C957 1.376 . S
C954 C952 1.394 . S
C954 C955 1.369 . S
C954 C958 1.531 . S
C955 C954 1.369 . S
C955 C956 1.410 . S
C955 C963 1.503 . S
C956 C955 1.410 . S
C956 C957 1.392 . S
C956 C959 1.511 . S
C957 C953 1.376 . S
C957 C956 1.392 . S
C957 H969 0.929 . S
C958 C954 1.531 . S
C958 H970 0.960 . S
C958 H971 0.962 . S
C958 H972 0.960 . S
C959 C956 1.511 . S
C959 H973 0.961 . S
C959 H974 0.961 . S
C959 H975 0.961 . S
C960 C961 1.370 . S
C960 C962 1.363 . S
C960 H976 0.931 . S
C961 C960 1.370 . S
C961 C965 1.408 . S
C962 C960 1.363 . S
C962 C963 1.370 . S
C962 C966 1.524 . S
C963 C955 1.503 . S
C963 C962 1.370 . S
C963 C964 1.403 . S
C964 C963 1.403 . S
C964 C965 1.404 . S
C964 C967 1.539 . S
C965 C961 1.408 . S
C965 C964 1.404 . S
C965 H977 0.930 . S
C966 C962 1.524 . S
C966 H978 0.956 . S
C966 H979 0.961 . S
C966 H980 0.961 . S
C967 C964 1.539 . S
C967 H981 0.958 . S
C967 H982 0.961 . S
C967 H983 0.960 . S
H968 C952 0.931 . S
H969 C957 0.929 . S
H970 C958 0.960 . S
H971 C958 0.962 . S
H972 C958 0.960 . S
H973 C959 0.961 . S
H974 C959 0.961 . S
H975 C959 0.961 . S
H976 C960 0.931 . S
H977 C965 0.930 . S
H978 C966 0.956 . S
H979 C966 0.961 . S
H980 C966 0.961 . S
H981 C967 0.958 . S
H982 C967 0.961 . S
H983 C967 0.960 . S
C473 C328 1.592 . S
C481 C33 1.592 . S
C505 C416 1.567 . S
C513 C64 1.592 . S
C537 C170 1.576 . S
C545 C406 1.588 . S
C569 C180 1.578 . S
C577 C241 1.594 . S
C601 C359 1.580 . S
C609 C3 1.588 . S
C633 C111 1.577 . S
C641 C288 1.587 . S
C665 C298 1.591 . S
C673 C123 1.588 . S
C697 C210 1.599 . S
C705 C446 1.596 . S
C729 C239 1.593 . S
C737 C300 1.589 . S
C761 C92 1.577 . S
C769 C151 1.587 . S
C793 C182 1.595 . S
C801 C121 1.582 . S
C825 C229 1.577 . S
C833 C52 1.587 . S
C857 C62 1.585 . S
C865 C5 1.586 . S
C889 C418 1.581 . S
C897 C357 1.589 . S
C921 C269 1.599 . S
C929 C387 1.596 . S
C953 C347 1.600 . S
C961 C465 1.595 . S
