# Generated by pormake.
# Topology sml, (6)-cn, num edge types: 1
# Building blocks:
#     Node 0, Type 0, BuildingBlock: CUWYAW_clean_sbu_0, # of connection points: 6
#     Node 1, Type 0, BuildingBlock: CUWYAW_clean_sbu_0, # of connection points: 6
#     Node 2, Type 0, BuildingBlock: CUWYAW_clean_sbu_0, # of connection points: 6
#     Node 3, Type 0, BuildingBlock: CUWYAW_clean_sbu_0, # of connection points: 6
#     Node 4, Type 0, BuildingBlock: CUWYAW_clean_sbu_0, # of connection points: 6
#     Node 5, Type 0, BuildingBlock: CUWYAW_clean_sbu_0, # of connection points: 6
#     Edge 6, Type (0, 0), BuildingBlock: EYOCIG_clean_linker_4, # of connection points: 2
#     Edge 7, Type (0, 0), BuildingBlock: EYOCIG_clean_linker_4, # of connection points: 2
#     Edge 8, Type (0, 0), BuildingBlock: EYOCIG_clean_linker_4, # of connection points: 2
#     Edge 9, Type (0, 0), BuildingBlock: EYOCIG_clean_linker_4, # of connection points: 2
#     Edge 10, Type (0, 0), BuildingBlock: EYOCIG_clean_linker_4, # of connection points: 2
#     Edge 11, Type (0, 0), BuildingBlock: EYOCIG_clean_linker_4, # of connection points: 2
#     Edge 12, Type (0, 0), BuildingBlock: EYOCIG_clean_linker_4, # of connection points: 2
#     Edge 13, Type (0, 0), BuildingBlock: EYOCIG_clean_linker_4, # of connection points: 2
#     Edge 14, Type (0, 0), BuildingBlock: EYOCIG_clean_linker_4, # of connection points: 2
#     Edge 15, Type (0, 0), BuildingBlock: EYOCIG_clean_linker_4, # of connection points: 2
#     Edge 16, Type (0, 0), BuildingBlock: EYOCIG_clean_linker_4, # of connection points: 2
#     Edge 17, Type (0, 0), BuildingBlock: EYOCIG_clean_linker_4, # of connection points: 2
#     Edge 18, Type (0, 0), BuildingBlock: EYOCIG_clean_linker_4, # of connection points: 2
#     Edge 19, Type (0, 0), BuildingBlock: EYOCIG_clean_linker_4, # of connection points: 2
#     Edge 20, Type (0, 0), BuildingBlock: EYOCIG_clean_linker_4, # of connection points: 2
#     Edge 21, Type (0, 0), BuildingBlock: EYOCIG_clean_linker_4, # of connection points: 2
#     Edge 22, Type (0, 0), BuildingBlock: EYOCIG_clean_linker_4, # of connection points: 2
#     Edge 23, Type (0, 0), BuildingBlock: EYOCIG_clean_linker_4, # of connection points: 2
# Relax obj value: 0.285
# Max RMSD: 0.282
# Mean RMSD: 0.282
data_MOF--net-sml--node1-CUWYAW_clean_sbu_0--edge1-EYOCIG_clean_linker_4
_symmetry_space_group_name_H-M    P1
_symmetry_Int_Tables_number       1
_symmetry_cell_setting            triclinic
loop_
_symmetry_equiv_pos_as_xyz
'x, y, z'
_cell_length_a     23.901488
_cell_length_b     23.898193
_cell_length_c     21.679293
_cell_angle_alpha  90.003439
_cell_angle_beta   90.005139
_cell_angle_gamma 119.99002
loop_
_atom_site_label
_atom_site_type_symbol
_atom_site_fract_x
_atom_site_fract_y
_atom_site_fract_z
_atom_type_partial_charge
C0 C 0.29957 0.41539 0.197 0.0
Eu1 Eu 0.25708 0.42073 0.08798 0.0
C2 C 0.28067 0.41798 0.26115 0.0
C3 C 0.32825 0.44533 0.30705 0.0
C4 C 0.31066 0.44369 0.36887 0.0
C5 C 0.2453 0.41458 0.38527 0.0
C6 C 0.19773 0.38934 0.33936 0.0
C7 C 0.2153 0.39123 0.27756 0.0
C8 C 0.3229 0.49253 0.98938 0.0
C9 C 0.1884 0.50963 0.09293 0.0
C10 C 0.12368 0.41696 0.87109 0.0
Eu11 Eu 0.17166 0.41952 0.97938 0.0
C12 C 0.13761 0.40611 0.80746 0.0
C13 C 0.08699 0.37588 0.76472 0.0
C14 C 0.10019 0.36981 0.70297 0.0
C15 C 0.16414 0.39394 0.68357 0.0
C16 C 0.21446 0.42118 0.72671 0.0
C17 C 0.2013 0.42702 0.78844 0.0
C18 C 0.1072 0.34676 0.07732 0.0
C19 C 0.24311 0.333 0.97489 0.0
O20 O 0.25949 0.36421 0.16522 0.0
O21 O 0.32287 0.46893 0.16503 0.0
O22 O 0.34504 0.46472 0.02542 0.0
O23 O 0.27109 0.48681 1.01013 0.0
O24 O 0.20982 0.47632 0.12352 0.0
O25 O 0.17612 0.50246 0.03309 0.0
O26 O 0.16744 0.47024 0.89787 0.0
O27 O 0.1002 0.3668 0.90775 0.0
O28 O 0.08528 0.37631 0.04352 0.0
O29 O 0.15878 0.35318 0.05574 0.0
O30 O 0.22103 0.3657 0.94416 0.0
O31 O 0.25383 0.33902 0.03472 0.0
H32 H 0.37889 0.46672 0.2952 0.0
H33 H 0.34796 0.46386 0.40391 0.0
H34 H 0.14703 0.36706 0.35136 0.0
H35 H 0.17783 0.37062 0.24282 0.0
H36 H 0.03747 0.35847 0.77878 0.0
H37 H 0.06076 0.34815 0.67014 0.0
H38 H 0.26408 0.43961 0.71238 0.0
H39 H 0.24099 0.44936 0.82091 0.0
C40 C 0.8868 0.29856 0.53047 0.0
Eu41 Eu 0.83883 0.25612 0.42149 0.0
C42 C 0.86549 0.27974 0.59466 0.0
C43 C 0.88618 0.32736 0.64056 0.0
C44 C 0.87042 0.30983 0.70242 0.0
C45 C 0.83391 0.24449 0.71884 0.0
C46 C 0.81114 0.1969 0.67293 0.0
C47 C 0.82663 0.21441 0.6111 0.0
C48 C 0.83288 0.32208 0.323 0.0
C49 C 0.68123 0.18738 0.42648 0.0
C50 C 0.70928 0.12301 0.20447 0.0
Eu51 Eu 0.75459 0.17084 0.31282 0.0
C52 C 0.73425 0.13696 0.1409 0.0
C53 C 0.71424 0.0863 0.09826 0.0
C54 C 0.73374 0.09949 0.03657 0.0
C55 C 0.77338 0.16346 1.01713 0.0
C56 C 0.7961 0.21383 0.0602 0.0
C57 C 0.77688 0.20068 0.12187 0.0
C58 C 0.76293 0.10626 0.41065 0.0
C59 C 0.91255 0.24225 0.3083 0.0
O60 O 0.89777 0.25841 0.49866 0.0
O61 O 0.85653 0.32189 0.49858 0.0
O62 O 0.88283 0.34415 0.35903 0.0
O63 O 0.78678 0.27026 0.3437 0.0
O64 O 0.73599 0.20884 0.45705 0.0
O65 O 0.6761 0.17517 0.36663 0.0
O66 O 0.69985 0.16684 0.23123 0.0
O67 O 0.73574 0.09934 0.2412 0.0
O68 O 0.71145 0.08439 0.37688 0.0
O69 O 0.80808 0.15786 0.3891 0.0
O70 O 0.85776 0.22019 0.27759 0.0
O71 O 0.91726 0.25292 0.36814 0.0
H72 H 0.91563 0.37798 0.62869 0.0
H73 H 0.88789 0.34715 0.73745 0.0
H74 H 0.7825 0.14621 0.68496 0.0
H75 H 0.80943 0.17693 0.57635 0.0
H76 H 0.68226 0.03676 0.11233 0.0
H77 H 0.71625 0.06002 1.00379 0.0
H78 H 0.82715 0.26347 0.04584 0.0
H79 H 0.79395 0.24041 0.15427 0.0
C80 C 0.59068 0.88602 0.86382 0.0
Eu81 Eu 0.58512 0.83801 0.75483 0.0
C82 C 0.58839 0.86482 0.92803 0.0
C83 C 0.5622 0.88611 0.9741 0.0
C84 C 0.56423 0.87047 0.03594 0.0
C85 C 0.59259 0.83347 0.0522 0.0
C86 C 0.61671 0.81014 1.00613 0.0
C87 C 0.61441 0.82551 0.94431 0.0
C88 C 0.51331 0.83211 0.65623 0.0
C89 C 0.49621 0.6804 0.75973 0.0
C90 C 0.58899 0.70858 0.53784 0.0
Eu91 Eu 0.58627 0.75379 0.64619 0.0
C92 C 0.60007 0.73359 0.47427 0.0
C93 C 0.63133 0.71409 0.43183 0.0
C94 C 0.63778 0.73364 0.37014 0.0
C95 C 0.613 0.77284 0.3505 0.0
C96 C 0.58471 0.79506 0.39338 0.0
C97 C 0.57849 0.77578 0.45504 0.0
C98 C 0.65904 0.76205 0.74411 0.0
C99 C 0.67279 0.91175 0.64171 0.0
O100 O 0.64178 0.89707 0.83195 0.0
O101 O 0.53705 0.85558 0.83201 0.0
O102 O 0.54112 0.88203 0.69231 0.0
O103 O 0.51903 0.786 0.67696 0.0
O104 O 0.5295 0.73514 0.79034 0.0
O105 O 0.50336 0.6753 0.69989 0.0
O106 O 0.53568 0.69905 0.56454 0.0
O107 O 0.63906 0.73505 0.57464 0.0
O108 O 0.62947 0.71057 0.71031 0.0
O109 O 0.65263 0.80723 0.72254 0.0
O110 O 0.64008 0.85698 0.61099 0.0
O111 O 0.66678 0.91645 0.70155 0.0
H112 H 0.5414 0.91594 0.96235 0.0
H113 H 0.54493 0.88838 0.0711 0.0
H114 H 0.63839 0.78113 1.01803 0.0
H115 H 0.63415 0.80788 0.90943 0.0
H116 H 0.64928 0.68246 0.44605 0.0
H117 H 0.66025 0.71654 0.33752 0.0
H118 H 0.56575 0.82575 0.37887 0.0
H119 H 0.55536 0.79248 0.48728 0.0
C120 C 0.70713 0.58943 0.19724 0.0
Eu121 Eu 0.74964 0.58411 0.08824 0.0
C122 C 0.72603 0.58684 0.2614 0.0
C123 C 0.67845 0.55959 0.3073 0.0
C124 C 0.69605 0.5612 0.36912 0.0
C125 C 0.76141 0.59019 0.38552 0.0
C126 C 0.80896 0.61534 0.3396 0.0
C127 C 0.79139 0.61347 0.2778 0.0
C128 C 0.68389 0.51213 0.98967 0.0
C129 C 0.81865 0.4955 0.09329 0.0
C130 C 0.88313 0.58794 0.87139 0.0
Eu131 Eu 0.83513 0.5854 0.97965 0.0
C132 C 0.86914 0.59867 0.80774 0.0
C133 C 0.91975 0.62901 0.76502 0.0
C134 C 0.9065 0.63501 0.70326 0.0
C135 C 0.84252 0.61071 0.68384 0.0
C136 C 0.79221 0.58335 0.72697 0.0
C137 C 0.80542 0.57758 0.7887 0.0
C138 C 0.89952 0.65836 0.07754 0.0
C139 C 0.7634 0.67167 0.97506 0.0
O140 O 0.74722 0.64062 0.16549 0.0
O141 O 0.68384 0.5359 0.16526 0.0
O142 O 0.66167 0.5399 0.02567 0.0
O143 O 0.73575 0.51799 1.01043 0.0
O144 O 0.7971 0.52873 0.12384 0.0
O145 O 0.83092 0.50264 0.03346 0.0
O146 O 0.83945 0.53466 0.8982 0.0
O147 O 0.90653 0.63814 0.90801 0.0
O148 O 0.92153 0.62886 0.04377 0.0
O149 O 0.84788 0.65178 0.05595 0.0
O150 O 0.78558 0.63903 0.94437 0.0
O151 O 0.75268 0.66567 0.0349 0.0
H152 H 0.62782 0.53828 0.29546 0.0
H153 H 0.65876 0.5411 0.40416 0.0
H154 H 0.85967 0.63753 0.3516 0.0
H155 H 0.82884 0.634 0.24306 0.0
H156 H 0.96929 0.64655 0.77909 0.0
H157 H 0.94592 0.65677 0.67044 0.0
H158 H 0.74257 0.56478 0.71263 0.0
H159 H 0.76574 0.55515 0.82116 0.0
C160 C 0.12023 0.70615 0.53023 0.0
Eu161 Eu 0.16822 0.74883 0.42131 0.0
C162 C 0.14139 0.72494 0.59447 0.0
C163 C 0.12017 0.67735 0.64043 0.0
C164 C 0.13575 0.6949 0.70231 0.0
C165 C 0.17262 0.76023 0.71871 0.0
C166 C 0.19588 0.80777 0.67274 0.0
C167 C 0.18057 0.79023 0.61088 0.0
C168 C 0.1743 0.68307 0.32268 0.0
C169 C 0.32584 0.81786 0.42631 0.0
C170 C 0.29749 0.88218 0.20431 0.0
Eu171 Eu 0.25235 0.83432 0.31268 0.0
C172 C 0.27244 0.86809 0.14075 0.0
C173 C 0.29197 0.91873 0.09815 0.0
C174 C 0.27238 0.90544 0.03648 0.0
C175 C 0.23313 0.84141 1.017 0.0
C176 C 0.21089 0.79104 0.06003 0.0
C177 C 0.2302 0.80428 0.12168 0.0
C178 C 0.24383 0.89871 0.41059 0.0
C179 C 0.09438 0.76275 0.30826 0.0
O180 O 0.10912 0.74623 0.49845 0.0
O181 O 0.15074 0.68307 0.49836 0.0
O182 O 0.12437 0.66087 0.35872 0.0
O183 O 0.22034 0.73491 0.34344 0.0
O184 O 0.27108 0.79629 0.45688 0.0
O185 O 0.33094 0.83015 0.36647 0.0
O186 O 0.30715 0.83851 0.23108 0.0
O187 O 0.27093 0.90573 0.24105 0.0
O188 O 0.29532 0.92075 0.3768 0.0
O189 O 0.19877 0.84706 0.389 0.0
O190 O 0.14914 0.78486 0.27751 0.0
O191 O 0.08973 0.75203 0.36809 0.0
H192 H 0.09045 0.62676 0.62858 0.0
H193 H 0.11789 0.65761 0.73739 0.0
H194 H 0.22479 0.85844 0.68474 0.0
H195 H 0.19815 0.82768 0.57608 0.0
H196 H 0.32364 0.96833 0.11225 0.0
H197 H 0.28949 0.94491 1.00374 0.0
H198 H 0.18016 0.74135 0.04565 0.0
H199 H 0.21349 0.76455 0.15404 0.0
C200 C 0.416 0.11874 0.86385 0.0
Eu201 Eu 0.42156 0.16669 0.75484 0.0
C202 C 0.41835 0.14013 0.928 0.0
C203 C 0.4447 0.11908 0.97414 0.0
C204 C 0.44277 0.13497 0.03593 0.0
C205 C 0.41438 0.17197 0.05206 0.0
C206 C 0.39012 0.19506 1.00591 0.0
C207 C 0.3923 0.17944 0.94414 0.0
C208 C 0.49341 0.17263 0.65628 0.0
C209 C 0.51055 0.32428 0.7599 0.0
C210 C 0.41806 0.29644 0.53792 0.0
Eu211 Eu 0.42056 0.25103 0.64623 0.0
C212 C 0.40699 0.27161 0.47428 0.0
C213 C 0.37595 0.29143 0.43189 0.0
C214 C 0.36956 0.27209 0.37013 0.0
C215 C 0.39417 0.23278 0.35036 0.0
C216 C 0.42224 0.21026 0.39318 0.0
C217 C 0.42841 0.22932 0.45491 0.0
C218 C 0.34772 0.24275 0.7441 0.0
C219 C 0.33385 0.09307 0.6417 0.0
O220 O 0.3649 0.10765 0.83195 0.0
O221 O 0.46962 0.1491 0.83202 0.0
O222 O 0.46554 0.12267 0.6923 0.0
O223 O 0.48772 0.21874 0.67705 0.0
O224 O 0.47717 0.26953 0.79045 0.0
O225 O 0.50346 0.32944 0.70006 0.0
O226 O 0.47129 0.30574 0.56464 0.0
O227 O 0.36796 0.27001 0.57466 0.0
O228 O 0.37736 0.29425 0.71035 0.0
O229 O 0.35412 0.19757 0.72251 0.0
O230 O 0.36662 0.14784 0.61099 0.0
O231 O 0.33984 0.08834 0.70153 0.0
H232 H 0.46553 0.08927 0.96251 0.0
H233 H 0.46219 0.11724 0.07116 0.0
H234 H 0.3684 0.22407 1.01769 0.0
H235 H 0.37246 0.1969 0.90919 0.0
H236 H 0.35815 0.32315 0.44621 0.0
H237 H 0.34726 0.28942 0.33756 0.0
H238 H 0.44106 0.17947 0.37857 0.0
H239 H 0.45137 0.21239 0.4871 0.0
C240 C 0.29693 0.24767 0.84967 0.0
C241 C 0.31886 0.24096 0.80225 0.0
C242 C 0.27632 0.26758 0.9016 0.0
C243 C 0.26268 0.29532 0.93963 0.0
C244 C 0.05157 0.29608 0.18297 0.0
C245 C 0.08018 0.31797 0.13551 0.0
C246 C 0.01111 0.2755 0.23494 0.0
C247 C 0.96977 0.26184 0.273 0.0
C248 C 0.75798 0.05071 0.51635 0.0
C249 C 0.76469 0.07927 0.46886 0.0
C250 C 0.73812 0.0103 0.56835 0.0
C251 C 0.71044 0.96899 0.60644 0.0
C252 C 0.70962 0.75699 0.84978 0.0
C253 C 0.68778 0.76378 0.80232 0.0
C254 C 0.73015 0.73703 0.90174 0.0
C255 C 0.7438 0.70931 0.93977 0.0
C256 C 0.99571 0.72964 0.23507 0.0
C257 C 0.03712 0.74323 0.27304 0.0
C258 C 0.95514 0.70909 0.18316 0.0
C259 C 0.92649 0.68719 0.13573 0.0
C260 C 0.26842 0.99454 0.56833 0.0
C261 C 0.29614 0.03585 0.60641 0.0
C262 C 0.24859 0.95414 0.51631 0.0
C263 C 0.24198 0.92562 0.46881 0.0
C264 C 0.19286 0.39708 0.56533 0.0
C265 C 0.17881 0.39521 0.61899 0.0
C266 C 0.21097 0.40292 0.50266 0.0
C267 C 0.22684 0.40834 0.44923 0.0
C268 C 0.79919 0.19209 0.89891 0.0
C269 C 0.78691 0.17808 0.95256 0.0
C270 C 0.81148 0.21019 0.83625 0.0
C271 C 0.82182 0.22605 0.78281 0.0
C272 C 0.61049 0.79877 0.23225 0.0
C273 C 0.61212 0.78642 0.2859 0.0
C274 C 0.60471 0.81108 0.16958 0.0
C275 C 0.59911 0.82138 0.11614 0.0
C276 C 0.81378 0.60756 0.5656 0.0
C277 C 0.82783 0.60943 0.61926 0.0
C278 C 0.7957 0.60177 0.50293 0.0
C279 C 0.77987 0.59639 0.44948 0.0
C280 C 0.19488 0.79457 0.83613 0.0
C281 C 0.18462 0.7787 0.78268 0.0
C282 C 0.20716 0.81269 0.8988 0.0
C283 C 0.21951 0.82676 0.95244 0.0
C284 C 0.39671 0.20707 0.23205 0.0
C285 C 0.39506 0.21934 0.28573 0.0
C286 C 0.40244 0.19472 0.16938 0.0
C287 C 0.40795 0.18428 0.11596 0.0
C288 C 0.17571 0.58972 0.16692 0.0
C289 C 0.17916 0.55538 0.12806 0.0
C290 C 0.17552 0.6255 0.21886 0.0
C291 C 0.1761 0.65265 0.26605 0.0
C292 C 0.58838 0.17434 0.50056 0.0
C293 C 0.62622 0.17797 0.46168 0.0
C294 C 0.55232 0.17395 0.55251 0.0
C295 C 0.52569 0.17442 0.59969 0.0
C296 C 0.38053 0.55149 0.88564 0.0
C297 C 0.35339 0.52484 0.93279 0.0
C298 C 0.41626 0.58754 0.83372 0.0
C299 C 0.45054 0.62539 0.79488 0.0
C300 C 0.83175 0.3798 0.21926 0.0
C301 C 0.83115 0.35261 0.26641 0.0
C302 C 0.83154 0.41558 0.16734 0.0
C303 C 0.828 0.44986 0.12846 0.0
C304 C 0.41865 0.83078 0.5004 0.0
C305 C 0.38085 0.82724 0.46149 0.0
C306 C 0.45459 0.831 0.55238 0.0
C307 C 0.48113 0.8304 0.59958 0.0
C308 C 0.62628 0.45309 0.88593 0.0
C309 C 0.65343 0.47978 0.93308 0.0
C310 C 0.59053 0.41704 0.834 0.0
C311 C 0.55624 0.37924 0.79512 0.0
loop_
_geom_bond_atom_site_label_1
_geom_bond_atom_site_label_2
_geom_bond_distance
_geom_bond_site_symmetry_2
_ccdc_geom_bond_type
C0 Eu1 2.835 . S
C0 C2 1.500 . S
C0 O20 1.257 . S
C0 O21 1.260 . S
Eu1 C0 2.835 . S
Eu1 O20 2.473 . S
Eu1 O21 2.480 . S
Eu1 O22 2.430 . S
Eu1 O23 2.670 1_554 S
Eu1 O24 2.394 . S
Eu1 O29 2.355 . S
Eu1 O31 2.363 1_554 S
C2 C0 1.500 . S
C2 C3 1.377 . S
C2 C7 1.377 . S
C3 C2 1.377 . S
C3 C4 1.395 . S
C3 H32 0.931 . S
C4 C3 1.395 . S
C4 C5 1.383 . S
C4 H33 0.931 . S
C5 C4 1.383 . S
C5 C6 1.394 . S
C6 C5 1.394 . S
C6 C7 1.378 . S
C6 H34 0.931 . S
C7 C2 1.377 . S
C7 C6 1.378 . S
C7 H35 0.931 . S
C8 O22 1.259 1_556 S
C8 O23 1.270 . S
C9 O24 1.251 . S
C9 O25 1.251 . S
C10 Eu11 2.835 . S
C10 C12 1.500 . S
C10 O26 1.257 . S
C10 O27 1.260 . S
Eu11 C10 2.835 . S
Eu11 O23 2.355 . S
Eu11 O25 2.374 1_556 S
Eu11 O26 2.473 . S
Eu11 O27 2.480 . S
Eu11 O28 2.430 1_556 S
Eu11 O29 2.670 1_556 S
Eu11 O30 2.394 . S
C12 C10 1.500 . S
C12 C13 1.377 . S
C12 C17 1.377 . S
C13 C12 1.377 . S
C13 C14 1.395 . S
C13 H36 0.931 . S
C14 C13 1.395 . S
C14 C15 1.383 . S
C14 H37 0.931 . S
C15 C14 1.383 . S
C15 C16 1.394 . S
C16 C15 1.394 . S
C16 C17 1.378 . S
C16 H38 0.931 . S
C17 C12 1.377 . S
C17 C16 1.378 . S
C17 H39 0.931 . S
C18 O28 1.259 . S
C18 O29 1.270 . S
C19 O30 1.251 . S
C19 O31 1.264 . S
O20 C0 1.257 . S
O20 Eu1 2.473 . S
O21 C0 1.260 . S
O21 Eu1 2.480 . S
O22 Eu1 2.430 . S
O22 C8 1.259 1_554 S
O23 Eu1 2.670 1_556 S
O23 C8 1.270 . S
O23 Eu11 2.355 . S
O24 Eu1 2.394 . S
O24 C9 1.251 . S
O25 C9 1.251 . S
O25 Eu11 2.374 1_554 S
O26 C10 1.257 . S
O26 Eu11 2.473 . S
O27 C10 1.260 . S
O27 Eu11 2.480 . S
O28 Eu11 2.430 1_554 S
O28 C18 1.259 . S
O29 Eu1 2.355 . S
O29 Eu11 2.670 1_554 S
O29 C18 1.270 . S
O30 Eu11 2.394 . S
O30 C19 1.251 . S
O31 Eu1 2.363 1_556 S
O31 C19 1.264 . S
H32 C3 0.931 . S
H33 C4 0.931 . S
H34 C6 0.931 . S
H35 C7 0.931 . S
H36 C13 0.931 . S
H37 C14 0.931 . S
H38 C16 0.931 . S
H39 C17 0.931 . S
C40 Eu41 2.835 . S
C40 C42 1.500 . S
C40 O60 1.257 . S
C40 O61 1.260 . S
Eu41 C40 2.835 . S
Eu41 O60 2.473 . S
Eu41 O61 2.480 . S
Eu41 O62 2.430 . S
Eu41 O63 2.670 . S
Eu41 O64 2.394 . S
Eu41 O69 2.355 . S
Eu41 O71 2.374 . S
C42 C40 1.500 . S
C42 C43 1.377 . S
C42 C47 1.377 . S
C43 C42 1.377 . S
C43 C44 1.395 . S
C43 H72 0.931 . S
C44 C43 1.395 . S
C44 C45 1.383 . S
C44 H73 0.931 . S
C45 C44 1.383 . S
C45 C46 1.394 . S
C46 C45 1.394 . S
C46 C47 1.378 . S
C46 H74 0.931 . S
C47 C42 1.377 . S
C47 C46 1.378 . S
C47 H75 0.931 . S
C48 O62 1.259 . S
C48 O63 1.270 . S
C49 O64 1.251 . S
C49 O65 1.251 . S
C50 Eu51 2.835 . S
C50 C52 1.500 . S
C50 O66 1.257 . S
C50 O67 1.260 . S
Eu51 C50 2.835 . S
Eu51 O63 2.355 . S
Eu51 O65 2.374 . S
Eu51 O66 2.473 . S
Eu51 O67 2.480 . S
Eu51 O68 2.430 . S
Eu51 O69 2.670 . S
Eu51 O70 2.394 . S
C52 C50 1.500 . S
C52 C53 1.377 . S
C52 C57 1.377 . S
C53 C52 1.377 . S
C53 C54 1.395 . S
C53 H76 0.931 . S
C54 C53 1.395 . S
C54 C55 1.383 1_554 S
C54 H77 0.931 . S
C55 C54 1.383 1_556 S
C55 C56 1.394 . S
C56 C55 1.394 . S
C56 C57 1.378 1_556 S
C56 H78 0.931 . S
C57 C52 1.377 . S
C57 C56 1.378 1_554 S
C57 H79 0.931 . S
C58 O68 1.259 . S
C58 O69 1.270 . S
C59 O70 1.251 . S
C59 O71 1.251 . S
O60 C40 1.257 . S
O60 Eu41 2.473 . S
O61 C40 1.260 . S
O61 Eu41 2.480 . S
O62 Eu41 2.430 . S
O62 C48 1.259 . S
O63 Eu41 2.670 . S
O63 C48 1.270 . S
O63 Eu51 2.355 . S
O64 Eu41 2.394 . S
O64 C49 1.251 . S
O65 C49 1.251 . S
O65 Eu51 2.374 . S
O66 C50 1.257 . S
O66 Eu51 2.473 . S
O67 C50 1.260 . S
O67 Eu51 2.480 . S
O68 Eu51 2.430 . S
O68 C58 1.259 . S
O69 Eu41 2.355 . S
O69 Eu51 2.670 . S
O69 C58 1.270 . S
O70 Eu51 2.394 . S
O70 C59 1.251 . S
O71 Eu41 2.374 . S
O71 C59 1.251 . S
H72 C43 0.931 . S
H73 C44 0.931 . S
H74 C46 0.931 . S
H75 C47 0.931 . S
H76 C53 0.931 . S
H77 C54 0.931 . S
H78 C56 0.931 . S
H79 C57 0.931 . S
C80 Eu81 2.835 . S
C80 C82 1.500 . S
C80 O100 1.257 . S
C80 O101 1.260 . S
Eu81 C80 2.835 . S
Eu81 O100 2.473 . S
Eu81 O101 2.480 . S
Eu81 O102 2.430 . S
Eu81 O103 2.670 . S
Eu81 O104 2.394 . S
Eu81 O109 2.355 . S
Eu81 O111 2.374 . S
C82 C80 1.500 . S
C82 C83 1.377 . S
C82 C87 1.377 . S
C83 C82 1.377 . S
C83 C84 1.395 1_556 S
C83 H112 0.931 . S
C84 C83 1.395 1_554 S
C84 C85 1.383 . S
C84 H113 0.931 . S
C85 C84 1.383 . S
C85 C86 1.394 . S
C86 C85 1.394 . S
C86 C87 1.378 1_554 S
C86 H114 0.931 . S
C87 C82 1.377 . S
C87 C86 1.378 1_556 S
C87 H115 0.931 . S
C88 O102 1.259 . S
C88 O103 1.270 . S
C89 O104 1.251 . S
C89 O105 1.251 . S
C90 Eu91 2.835 . S
C90 C92 1.500 . S
C90 O106 1.257 . S
C90 O107 1.260 . S
Eu91 C90 2.835 . S
Eu91 O103 2.355 . S
Eu91 O105 2.374 . S
Eu91 O106 2.473 . S
Eu91 O107 2.480 . S
Eu91 O108 2.430 . S
Eu91 O109 2.670 . S
Eu91 O110 2.394 . S
C92 C90 1.500 . S
C92 C93 1.377 . S
C92 C97 1.377 . S
C93 C92 1.377 . S
C93 C94 1.395 . S
C93 H116 0.931 . S
C94 C93 1.395 . S
C94 C95 1.383 . S
C94 H117 0.931 . S
C95 C94 1.383 . S
C95 C96 1.394 . S
C96 C95 1.394 . S
C96 C97 1.378 . S
C96 H118 0.931 . S
C97 C92 1.377 . S
C97 C96 1.378 . S
C97 H119 0.931 . S
C98 O108 1.259 . S
C98 O109 1.270 . S
C99 O110 1.251 . S
C99 O111 1.251 . S
O100 C80 1.257 . S
O100 Eu81 2.473 . S
O101 C80 1.260 . S
O101 Eu81 2.480 . S
O102 Eu81 2.430 . S
O102 C88 1.259 . S
O103 Eu81 2.670 . S
O103 C88 1.270 . S
O103 Eu91 2.355 . S
O104 Eu81 2.394 . S
O104 C89 1.251 . S
O105 C89 1.251 . S
O105 Eu91 2.374 . S
O106 C90 1.257 . S
O106 Eu91 2.473 . S
O107 C90 1.260 . S
O107 Eu91 2.480 . S
O108 Eu91 2.430 . S
O108 C98 1.259 . S
O109 Eu81 2.355 . S
O109 Eu91 2.670 . S
O109 C98 1.270 . S
O110 Eu91 2.394 . S
O110 C99 1.251 . S
O111 Eu81 2.374 . S
O111 C99 1.251 . S
H112 C83 0.931 . S
H113 C84 0.931 . S
H114 C86 0.931 . S
H115 C87 0.931 . S
H116 C93 0.931 . S
H117 C94 0.931 . S
H118 C96 0.931 . S
H119 C97 0.931 . S
C120 Eu121 2.835 . S
C120 C122 1.500 . S
C120 O140 1.257 . S
C120 O141 1.260 . S
Eu121 C120 2.835 . S
Eu121 O140 2.473 . S
Eu121 O141 2.480 . S
Eu121 O142 2.430 . S
Eu121 O143 2.670 1_554 S
Eu121 O144 2.394 . S
Eu121 O149 2.355 . S
Eu121 O151 2.363 1_554 S
C122 C120 1.500 . S
C122 C123 1.377 . S
C122 C127 1.377 . S
C123 C122 1.377 . S
C123 C124 1.395 . S
C123 H152 0.931 . S
C124 C123 1.395 . S
C124 C125 1.383 . S
C124 H153 0.931 . S
C125 C124 1.383 . S
C125 C126 1.394 . S
C126 C125 1.394 . S
C126 C127 1.378 . S
C126 H154 0.931 . S
C127 C122 1.377 . S
C127 C126 1.378 . S
C127 H155 0.931 . S
C128 O142 1.259 1_556 S
C128 O143 1.270 . S
C129 O144 1.251 . S
C129 O145 1.251 . S
C130 Eu131 2.835 . S
C130 C132 1.500 . S
C130 O146 1.257 . S
C130 O147 1.260 . S
Eu131 C130 2.835 . S
Eu131 O143 2.355 . S
Eu131 O145 2.374 1_556 S
Eu131 O146 2.473 . S
Eu131 O147 2.480 . S
Eu131 O148 2.430 1_556 S
Eu131 O149 2.670 1_556 S
Eu131 O150 2.394 . S
C132 C130 1.500 . S
C132 C133 1.377 . S
C132 C137 1.377 . S
C133 C132 1.377 . S
C133 C134 1.395 . S
C133 H156 0.931 . S
C134 C133 1.395 . S
C134 C135 1.383 . S
C134 H157 0.931 . S
C135 C134 1.383 . S
C135 C136 1.394 . S
C136 C135 1.394 . S
C136 C137 1.378 . S
C136 H158 0.931 . S
C137 C132 1.377 . S
C137 C136 1.378 . S
C137 H159 0.931 . S
C138 O148 1.259 . S
C138 O149 1.270 . S
C139 O150 1.251 . S
C139 O151 1.264 . S
O140 C120 1.257 . S
O140 Eu121 2.473 . S
O141 C120 1.260 . S
O141 Eu121 2.480 . S
O142 Eu121 2.430 . S
O142 C128 1.259 1_554 S
O143 Eu121 2.670 1_556 S
O143 C128 1.270 . S
O143 Eu131 2.355 . S
O144 Eu121 2.394 . S
O144 C129 1.251 . S
O145 C129 1.251 . S
O145 Eu131 2.374 1_554 S
O146 C130 1.257 . S
O146 Eu131 2.473 . S
O147 C130 1.260 . S
O147 Eu131 2.480 . S
O148 Eu131 2.430 1_554 S
O148 C138 1.259 . S
O149 Eu121 2.355 . S
O149 Eu131 2.670 1_554 S
O149 C138 1.270 . S
O150 Eu131 2.394 . S
O150 C139 1.251 . S
O151 Eu121 2.363 1_556 S
O151 C139 1.264 . S
H152 C123 0.931 . S
H153 C124 0.931 . S
H154 C126 0.931 . S
H155 C127 0.931 . S
H156 C133 0.931 . S
H157 C134 0.931 . S
H158 C136 0.931 . S
H159 C137 0.931 . S
C160 Eu161 2.835 . S
C160 C162 1.500 . S
C160 O180 1.257 . S
C160 O181 1.260 . S
Eu161 C160 2.835 . S
Eu161 O180 2.473 . S
Eu161 O181 2.480 . S
Eu161 O182 2.430 . S
Eu161 O183 2.670 . S
Eu161 O184 2.394 . S
Eu161 O189 2.355 . S
Eu161 O191 2.374 . S
C162 C160 1.500 . S
C162 C163 1.377 . S
C162 C167 1.377 . S
C163 C162 1.377 . S
C163 C164 1.395 . S
C163 H192 0.931 . S
C164 C163 1.395 . S
C164 C165 1.383 . S
C164 H193 0.931 . S
C165 C164 1.383 . S
C165 C166 1.394 . S
C166 C165 1.394 . S
C166 C167 1.378 . S
C166 H194 0.931 . S
C167 C162 1.377 . S
C167 C166 1.378 . S
C167 H195 0.931 . S
C168 O182 1.259 . S
C168 O183 1.270 . S
C169 O184 1.251 . S
C169 O185 1.251 . S
C170 Eu171 2.835 . S
C170 C172 1.500 . S
C170 O186 1.257 . S
C170 O187 1.260 . S
Eu171 C170 2.835 . S
Eu171 O183 2.355 . S
Eu171 O185 2.374 . S
Eu171 O186 2.473 . S
Eu171 O187 2.480 . S
Eu171 O188 2.430 . S
Eu171 O189 2.670 . S
Eu171 O190 2.394 . S
C172 C170 1.500 . S
C172 C173 1.377 . S
C172 C177 1.377 . S
C173 C172 1.377 . S
C173 C174 1.395 . S
C173 H196 0.931 . S
C174 C173 1.395 . S
C174 C175 1.383 1_554 S
C174 H197 0.931 . S
C175 C174 1.383 1_556 S
C175 C176 1.394 . S
C176 C175 1.394 . S
C176 C177 1.378 1_556 S
C176 H198 0.931 . S
C177 C172 1.377 . S
C177 C176 1.378 1_554 S
C177 H199 0.931 . S
C178 O188 1.259 . S
C178 O189 1.270 . S
C179 O190 1.251 . S
C179 O191 1.251 . S
O180 C160 1.257 . S
O180 Eu161 2.473 . S
O181 C160 1.260 . S
O181 Eu161 2.480 . S
O182 Eu161 2.430 . S
O182 C168 1.259 . S
O183 Eu161 2.670 . S
O183 C168 1.270 . S
O183 Eu171 2.355 . S
O184 Eu161 2.394 . S
O184 C169 1.251 . S
O185 C169 1.251 . S
O185 Eu171 2.374 . S
O186 C170 1.257 . S
O186 Eu171 2.473 . S
O187 C170 1.260 . S
O187 Eu171 2.480 . S
O188 Eu171 2.430 . S
O188 C178 1.259 . S
O189 Eu161 2.355 . S
O189 Eu171 2.670 . S
O189 C178 1.270 . S
O190 Eu171 2.394 . S
O190 C179 1.251 . S
O191 Eu161 2.374 . S
O191 C179 1.251 . S
H192 C163 0.931 . S
H193 C164 0.931 . S
H194 C166 0.931 . S
H195 C167 0.931 . S
H196 C173 0.931 . S
H197 C174 0.931 . S
H198 C176 0.931 . S
H199 C177 0.931 . S
C200 Eu201 2.835 . S
C200 C202 1.500 . S
C200 O220 1.257 . S
C200 O221 1.260 . S
Eu201 C200 2.835 . S
Eu201 O220 2.473 . S
Eu201 O221 2.480 . S
Eu201 O222 2.430 . S
Eu201 O223 2.670 . S
Eu201 O224 2.394 . S
Eu201 O229 2.355 . S
Eu201 O231 2.374 . S
C202 C200 1.500 . S
C202 C203 1.377 . S
C202 C207 1.377 . S
C203 C202 1.377 . S
C203 C204 1.395 1_556 S
C203 H232 0.931 . S
C204 C203 1.395 1_554 S
C204 C205 1.383 . S
C204 H233 0.931 . S
C205 C204 1.383 . S
C205 C206 1.394 . S
C206 C205 1.394 . S
C206 C207 1.378 1_554 S
C206 H234 0.931 . S
C207 C202 1.377 . S
C207 C206 1.378 1_556 S
C207 H235 0.931 . S
C208 O222 1.259 . S
C208 O223 1.270 . S
C209 O224 1.251 . S
C209 O225 1.251 . S
C210 Eu211 2.835 . S
C210 C212 1.500 . S
C210 O226 1.257 . S
C210 O227 1.260 . S
Eu211 C210 2.835 . S
Eu211 O223 2.355 . S
Eu211 O225 2.374 . S
Eu211 O226 2.473 . S
Eu211 O227 2.480 . S
Eu211 O228 2.430 . S
Eu211 O229 2.670 . S
Eu211 O230 2.394 . S
C212 C210 1.500 . S
C212 C213 1.377 . S
C212 C217 1.377 . S
C213 C212 1.377 . S
C213 C214 1.395 . S
C213 H236 0.931 . S
C214 C213 1.395 . S
C214 C215 1.383 . S
C214 H237 0.931 . S
C215 C214 1.383 . S
C215 C216 1.394 . S
C216 C215 1.394 . S
C216 C217 1.378 . S
C216 H238 0.931 . S
C217 C212 1.377 . S
C217 C216 1.378 . S
C217 H239 0.931 . S
C218 O228 1.259 . S
C218 O229 1.270 . S
C219 O230 1.251 . S
C219 O231 1.251 . S
O220 C200 1.257 . S
O220 Eu201 2.473 . S
O221 C200 1.260 . S
O221 Eu201 2.480 . S
O222 Eu201 2.430 . S
O222 C208 1.259 . S
O223 Eu201 2.670 . S
O223 C208 1.270 . S
O223 Eu211 2.355 . S
O224 Eu201 2.394 . S
O224 C209 1.251 . S
O225 C209 1.251 . S
O225 Eu211 2.374 . S
O226 C210 1.257 . S
O226 Eu211 2.473 . S
O227 C210 1.260 . S
O227 Eu211 2.480 . S
O228 Eu211 2.430 . S
O228 C218 1.259 . S
O229 Eu201 2.355 . S
O229 Eu211 2.670 . S
O229 C218 1.270 . S
O230 Eu211 2.394 . S
O230 C219 1.251 . S
O231 Eu201 2.374 . S
O231 C219 1.251 . S
H232 C203 0.931 . S
H233 C204 0.931 . S
H234 C206 0.931 . S
H235 C207 0.931 . S
H236 C213 0.931 . S
H237 C214 0.931 . S
H238 C216 0.931 . S
H239 C217 0.931 . S
C240 C241 1.170 . S
C240 C242 1.380 . S
C241 C240 1.170 . S
C242 C240 1.380 . S
C242 C243 1.170 . S
C243 C242 1.170 . S
C244 C245 1.170 . S
C244 C246 1.380 1_455 S
C245 C244 1.170 . S
C246 C244 1.380 1_655 S
C246 C247 1.170 . S
C247 C246 1.170 . S
C248 C249 1.170 . S
C248 C250 1.380 1_545 S
C249 C248 1.170 . S
C250 C248 1.380 1_565 S
C250 C251 1.170 . S
C251 C250 1.170 . S
C252 C253 1.170 . S
C252 C254 1.380 . S
C253 C252 1.170 . S
C254 C252 1.380 . S
C254 C255 1.170 . S
C255 C254 1.170 . S
C256 C257 1.170 . S
C256 C258 1.380 1_455 S
C257 C256 1.170 . S
C258 C256 1.380 1_655 S
C258 C259 1.170 . S
C259 C258 1.170 . S
C260 C261 1.170 . S
C260 C262 1.380 1_545 S
C261 C260 1.170 . S
C262 C260 1.380 1_565 S
C262 C263 1.170 . S
C263 C262 1.170 . S
C264 C265 1.170 . S
C264 C266 1.380 . S
C265 C264 1.170 . S
C266 C264 1.380 . S
C266 C267 1.170 . S
C267 C266 1.170 . S
C268 C269 1.170 . S
C268 C270 1.380 . S
C269 C268 1.170 . S
C270 C268 1.380 . S
C270 C271 1.170 . S
C271 C270 1.170 . S
C272 C273 1.170 . S
C272 C274 1.380 . S
C273 C272 1.170 . S
C274 C272 1.380 . S
C274 C275 1.170 . S
C275 C274 1.170 . S
C276 C277 1.170 . S
C276 C278 1.380 . S
C277 C276 1.170 . S
C278 C276 1.380 . S
C278 C279 1.170 . S
C279 C278 1.170 . S
C280 C281 1.170 . S
C280 C282 1.380 . S
C281 C280 1.170 . S
C282 C280 1.380 . S
C282 C283 1.170 . S
C283 C282 1.170 . S
C284 C285 1.170 . S
C284 C286 1.380 . S
C285 C284 1.170 . S
C286 C284 1.380 . S
C286 C287 1.170 . S
C287 C286 1.170 . S
C288 C289 1.170 . S
C288 C290 1.380 . S
C289 C288 1.170 . S
C290 C288 1.380 . S
C290 C291 1.170 . S
C291 C290 1.170 . S
C292 C293 1.170 . S
C292 C294 1.380 . S
C293 C292 1.170 . S
C294 C292 1.380 . S
C294 C295 1.170 . S
C295 C294 1.170 . S
C296 C297 1.170 . S
C296 C298 1.380 . S
C297 C296 1.170 . S
C298 C296 1.380 . S
C298 C299 1.170 . S
C299 C298 1.170 . S
C300 C301 1.170 . S
C300 C302 1.380 . S
C301 C300 1.170 . S
C302 C300 1.380 . S
C302 C303 1.170 . S
C303 C302 1.170 . S
C304 C305 1.170 . S
C304 C306 1.380 . S
C305 C304 1.170 . S
C306 C304 1.380 . S
C306 C307 1.170 . S
C307 C306 1.170 . S
C308 C309 1.170 . S
C308 C310 1.380 . S
C309 C308 1.170 . S
C310 C308 1.380 . S
C310 C311 1.170 . S
C311 C310 1.170 . S
C241 C218 1.475 . S
C243 C19 1.522 . S
C245 C18 1.468 . S
C247 C59 1.514 . S
C249 C58 1.459 . S
C251 C99 1.512 . S
C253 C98 1.474 . S
C255 C139 1.522 . S
C257 C179 1.519 . S
C259 C138 1.475 . S
C261 C219 1.517 . S
C263 C178 1.474 . S
C265 C15 1.802 . S
C267 C5 1.824 . S
C269 C55 1.795 . S
C271 C45 1.845 . S
C273 C95 1.818 . S
C275 C85 1.836 . S
C277 C135 1.795 . S
C279 C125 1.836 . S
C281 C165 1.842 . S
C283 C175 1.810 . S
C285 C215 1.846 . S
C287 C205 1.796 . S
C289 C9 1.801 . S
C291 C168 1.793 . S
C293 C49 1.805 . S
C295 C208 1.787 . S
C297 C8 1.799 . S
C299 C89 1.794 . S
C301 C48 1.790 . S
C303 C129 1.798 . S
C305 C169 1.806 . S
C307 C88 1.785 . S
C309 C128 1.800 . S
C311 C209 1.791 . S
