# Generated by pormake.
# Topology unr, (4)-cn, num edge types: 1
# Building blocks:
#     Node 0, Type 0, BuildingBlock: QUQFOY_clean_sbu_1, # of connection points: 4
#     Node 1, Type 0, BuildingBlock: QUQFOY_clean_sbu_1, # of connection points: 4
#     Node 2, Type 0, BuildingBlock: QUQFOY_clean_sbu_1, # of connection points: 4
#     Node 3, Type 0, BuildingBlock: QUQFOY_clean_sbu_1, # of connection points: 4
#     Node 4, Type 0, BuildingBlock: QUQFOY_clean_sbu_1, # of connection points: 4
#     Node 5, Type 0, BuildingBlock: QUQFOY_clean_sbu_1, # of connection points: 4
#     Node 6, Type 0, BuildingBlock: QUQFOY_clean_sbu_1, # of connection points: 4
#     Node 7, Type 0, BuildingBlock: QUQFOY_clean_sbu_1, # of connection points: 4
#     Node 8, Type 0, BuildingBlock: QUQFOY_clean_sbu_1, # of connection points: 4
#     Node 9, Type 0, BuildingBlock: QUQFOY_clean_sbu_1, # of connection points: 4
#     Node 10, Type 0, BuildingBlock: QUQFOY_clean_sbu_1, # of connection points: 4
#     Node 11, Type 0, BuildingBlock: QUQFOY_clean_sbu_1, # of connection points: 4
#     Node 12, Type 0, BuildingBlock: QUQFOY_clean_sbu_1, # of connection points: 4
#     Node 13, Type 0, BuildingBlock: QUQFOY_clean_sbu_1, # of connection points: 4
#     Node 14, Type 0, BuildingBlock: QUQFOY_clean_sbu_1, # of connection points: 4
#     Node 15, Type 0, BuildingBlock: QUQFOY_clean_sbu_1, # of connection points: 4
#     Node 16, Type 0, BuildingBlock: QUQFOY_clean_sbu_1, # of connection points: 4
#     Node 17, Type 0, BuildingBlock: QUQFOY_clean_sbu_1, # of connection points: 4
#     Node 18, Type 0, BuildingBlock: QUQFOY_clean_sbu_1, # of connection points: 4
#     Node 19, Type 0, BuildingBlock: QUQFOY_clean_sbu_1, # of connection points: 4
#     Node 20, Type 0, BuildingBlock: QUQFOY_clean_sbu_1, # of connection points: 4
#     Node 21, Type 0, BuildingBlock: QUQFOY_clean_sbu_1, # of connection points: 4
#     Node 22, Type 0, BuildingBlock: QUQFOY_clean_sbu_1, # of connection points: 4
#     Node 23, Type 0, BuildingBlock: QUQFOY_clean_sbu_1, # of connection points: 4
#     Node 24, Type 0, BuildingBlock: QUQFOY_clean_sbu_1, # of connection points: 4
#     Node 25, Type 0, BuildingBlock: QUQFOY_clean_sbu_1, # of connection points: 4
#     Node 26, Type 0, BuildingBlock: QUQFOY_clean_sbu_1, # of connection points: 4
#     Node 27, Type 0, BuildingBlock: QUQFOY_clean_sbu_1, # of connection points: 4
#     Node 28, Type 0, BuildingBlock: QUQFOY_clean_sbu_1, # of connection points: 4
#     Node 29, Type 0, BuildingBlock: QUQFOY_clean_sbu_1, # of connection points: 4
#     Node 30, Type 0, BuildingBlock: QUQFOY_clean_sbu_1, # of connection points: 4
#     Node 31, Type 0, BuildingBlock: QUQFOY_clean_sbu_1, # of connection points: 4
#     Node 32, Type 0, BuildingBlock: QUQFOY_clean_sbu_1, # of connection points: 4
#     Node 33, Type 0, BuildingBlock: QUQFOY_clean_sbu_1, # of connection points: 4
#     Node 34, Type 0, BuildingBlock: QUQFOY_clean_sbu_1, # of connection points: 4
#     Node 35, Type 0, BuildingBlock: QUQFOY_clean_sbu_1, # of connection points: 4
#     Edge 36, Type (0, 0), BuildingBlock: KIFKEQ_clean_linker_1, # of connection points: 2
#     Edge 37, Type (0, 0), BuildingBlock: KIFKEQ_clean_linker_1, # of connection points: 2
#     Edge 38, Type (0, 0), BuildingBlock: KIFKEQ_clean_linker_1, # of connection points: 2
#     Edge 39, Type (0, 0), BuildingBlock: KIFKEQ_clean_linker_1, # of connection points: 2
#     Edge 40, Type (0, 0), BuildingBlock: KIFKEQ_clean_linker_1, # of connection points: 2
#     Edge 41, Type (0, 0), BuildingBlock: KIFKEQ_clean_linker_1, # of connection points: 2
#     Edge 42, Type (0, 0), BuildingBlock: KIFKEQ_clean_linker_1, # of connection points: 2
#     Edge 43, Type (0, 0), BuildingBlock: KIFKEQ_clean_linker_1, # of connection points: 2
#     Edge 44, Type (0, 0), BuildingBlock: KIFKEQ_clean_linker_1, # of connection points: 2
#     Edge 45, Type (0, 0), BuildingBlock: KIFKEQ_clean_linker_1, # of connection points: 2
#     Edge 46, Type (0, 0), BuildingBlock: KIFKEQ_clean_linker_1, # of connection points: 2
#     Edge 47, Type (0, 0), BuildingBlock: KIFKEQ_clean_linker_1, # of connection points: 2
#     Edge 48, Type (0, 0), BuildingBlock: KIFKEQ_clean_linker_1, # of connection points: 2
#     Edge 49, Type (0, 0), BuildingBlock: KIFKEQ_clean_linker_1, # of connection points: 2
#     Edge 50, Type (0, 0), BuildingBlock: KIFKEQ_clean_linker_1, # of connection points: 2
#     Edge 51, Type (0, 0), BuildingBlock: KIFKEQ_clean_linker_1, # of connection points: 2
#     Edge 52, Type (0, 0), BuildingBlock: KIFKEQ_clean_linker_1, # of connection points: 2
#     Edge 53, Type (0, 0), BuildingBlock: KIFKEQ_clean_linker_1, # of connection points: 2
#     Edge 54, Type (0, 0), BuildingBlock: KIFKEQ_clean_linker_1, # of connection points: 2
#     Edge 55, Type (0, 0), BuildingBlock: KIFKEQ_clean_linker_1, # of connection points: 2
#     Edge 56, Type (0, 0), BuildingBlock: KIFKEQ_clean_linker_1, # of connection points: 2
#     Edge 57, Type (0, 0), BuildingBlock: KIFKEQ_clean_linker_1, # of connection points: 2
#     Edge 58, Type (0, 0), BuildingBlock: KIFKEQ_clean_linker_1, # of connection points: 2
#     Edge 59, Type (0, 0), BuildingBlock: KIFKEQ_clean_linker_1, # of connection points: 2
#     Edge 60, Type (0, 0), BuildingBlock: KIFKEQ_clean_linker_1, # of connection points: 2
#     Edge 61, Type (0, 0), BuildingBlock: KIFKEQ_clean_linker_1, # of connection points: 2
#     Edge 62, Type (0, 0), BuildingBlock: KIFKEQ_clean_linker_1, # of connection points: 2
#     Edge 63, Type (0, 0), BuildingBlock: KIFKEQ_clean_linker_1, # of connection points: 2
#     Edge 64, Type (0, 0), BuildingBlock: KIFKEQ_clean_linker_1, # of connection points: 2
#     Edge 65, Type (0, 0), BuildingBlock: KIFKEQ_clean_linker_1, # of connection points: 2
#     Edge 66, Type (0, 0), BuildingBlock: KIFKEQ_clean_linker_1, # of connection points: 2
#     Edge 67, Type (0, 0), BuildingBlock: KIFKEQ_clean_linker_1, # of connection points: 2
#     Edge 68, Type (0, 0), BuildingBlock: KIFKEQ_clean_linker_1, # of connection points: 2
#     Edge 69, Type (0, 0), BuildingBlock: KIFKEQ_clean_linker_1, # of connection points: 2
#     Edge 70, Type (0, 0), BuildingBlock: KIFKEQ_clean_linker_1, # of connection points: 2
#     Edge 71, Type (0, 0), BuildingBlock: KIFKEQ_clean_linker_1, # of connection points: 2
#     Edge 72, Type (0, 0), BuildingBlock: KIFKEQ_clean_linker_1, # of connection points: 2
#     Edge 73, Type (0, 0), BuildingBlock: KIFKEQ_clean_linker_1, # of connection points: 2
#     Edge 74, Type (0, 0), BuildingBlock: KIFKEQ_clean_linker_1, # of connection points: 2
#     Edge 75, Type (0, 0), BuildingBlock: KIFKEQ_clean_linker_1, # of connection points: 2
#     Edge 76, Type (0, 0), BuildingBlock: KIFKEQ_clean_linker_1, # of connection points: 2
#     Edge 77, Type (0, 0), BuildingBlock: KIFKEQ_clean_linker_1, # of connection points: 2
#     Edge 78, Type (0, 0), BuildingBlock: KIFKEQ_clean_linker_1, # of connection points: 2
#     Edge 79, Type (0, 0), BuildingBlock: KIFKEQ_clean_linker_1, # of connection points: 2
#     Edge 80, Type (0, 0), BuildingBlock: KIFKEQ_clean_linker_1, # of connection points: 2
#     Edge 81, Type (0, 0), BuildingBlock: KIFKEQ_clean_linker_1, # of connection points: 2
#     Edge 82, Type (0, 0), BuildingBlock: KIFKEQ_clean_linker_1, # of connection points: 2
#     Edge 83, Type (0, 0), BuildingBlock: KIFKEQ_clean_linker_1, # of connection points: 2
#     Edge 84, Type (0, 0), BuildingBlock: KIFKEQ_clean_linker_1, # of connection points: 2
#     Edge 85, Type (0, 0), BuildingBlock: KIFKEQ_clean_linker_1, # of connection points: 2
#     Edge 86, Type (0, 0), BuildingBlock: KIFKEQ_clean_linker_1, # of connection points: 2
#     Edge 87, Type (0, 0), BuildingBlock: KIFKEQ_clean_linker_1, # of connection points: 2
#     Edge 88, Type (0, 0), BuildingBlock: KIFKEQ_clean_linker_1, # of connection points: 2
#     Edge 89, Type (0, 0), BuildingBlock: KIFKEQ_clean_linker_1, # of connection points: 2
#     Edge 90, Type (0, 0), BuildingBlock: KIFKEQ_clean_linker_1, # of connection points: 2
#     Edge 91, Type (0, 0), BuildingBlock: KIFKEQ_clean_linker_1, # of connection points: 2
#     Edge 92, Type (0, 0), BuildingBlock: KIFKEQ_clean_linker_1, # of connection points: 2
#     Edge 93, Type (0, 0), BuildingBlock: KIFKEQ_clean_linker_1, # of connection points: 2
#     Edge 94, Type (0, 0), BuildingBlock: KIFKEQ_clean_linker_1, # of connection points: 2
#     Edge 95, Type (0, 0), BuildingBlock: KIFKEQ_clean_linker_1, # of connection points: 2
#     Edge 96, Type (0, 0), BuildingBlock: KIFKEQ_clean_linker_1, # of connection points: 2
#     Edge 97, Type (0, 0), BuildingBlock: KIFKEQ_clean_linker_1, # of connection points: 2
#     Edge 98, Type (0, 0), BuildingBlock: KIFKEQ_clean_linker_1, # of connection points: 2
#     Edge 99, Type (0, 0), BuildingBlock: KIFKEQ_clean_linker_1, # of connection points: 2
#     Edge 100, Type (0, 0), BuildingBlock: KIFKEQ_clean_linker_1, # of connection points: 2
#     Edge 101, Type (0, 0), BuildingBlock: KIFKEQ_clean_linker_1, # of connection points: 2
#     Edge 102, Type (0, 0), BuildingBlock: KIFKEQ_clean_linker_1, # of connection points: 2
#     Edge 103, Type (0, 0), BuildingBlock: KIFKEQ_clean_linker_1, # of connection points: 2
#     Edge 104, Type (0, 0), BuildingBlock: KIFKEQ_clean_linker_1, # of connection points: 2
#     Edge 105, Type (0, 0), BuildingBlock: KIFKEQ_clean_linker_1, # of connection points: 2
#     Edge 106, Type (0, 0), BuildingBlock: KIFKEQ_clean_linker_1, # of connection points: 2
#     Edge 107, Type (0, 0), BuildingBlock: KIFKEQ_clean_linker_1, # of connection points: 2
# Relax obj value: 0.305
# Max RMSD: 0.106
# Mean RMSD: 0.106
data_MOF--net-unr--node1-QUQFOY_clean_sbu_1--edge1-KIFKEQ_clean_linker_1
_symmetry_space_group_name_H-M    P1
_symmetry_Int_Tables_number       1
_symmetry_cell_setting            triclinic
loop_
_symmetry_equiv_pos_as_xyz
'x, y, z'
_cell_length_a     50.06971
_cell_length_b     50.053011
_cell_length_c     137.22155
_cell_angle_alpha  89.986382
_cell_angle_beta   90.015073
_cell_angle_gamma 119.99096
loop_
_atom_site_label
_atom_site_type_symbol
_atom_site_fract_x
_atom_site_fract_y
_atom_site_fract_z
_atom_type_partial_charge
O0 O 0.15029 0.09665 0.17514 0.0
Cd1 Cd 0.17417 0.14301 0.17276 0.0
Cd2 Cd 0.16538 0.14478 0.19315 0.0
O3 O 0.15585 0.09953 0.19113 0.0
O4 O 0.20093 0.14844 0.16147 0.0
O5 O 0.21854 0.16449 0.17646 0.0
C6 C 0.22373 0.15996 0.16753 0.0
C7 C 0.17479 0.16223 0.20936 0.0
C8 C 0.14816 0.08382 0.18329 0.0
C9 C 0.13452 0.16721 0.17783 0.0
O10 O 0.13855 0.16025 0.18641 0.0
O11 O 0.14846 0.16382 0.17065 0.0
O12 O 0.14787 0.14195 0.20638 0.0
O13 O 0.19731 0.17219 0.20324 0.0
O14 O 0.90094 0.0703 0.18081 0.0
Cd15 Cd 0.85454 0.04309 0.18318 0.0
Cd16 Cd 0.8707 0.04646 0.20175 0.0
O17 O 0.90995 0.08433 0.19622 0.0
O18 O 0.83334 0.05643 0.17393 0.0
O19 O 0.83653 0.0655 0.18989 0.0
C20 C 0.82925 0.07024 0.18126 0.0
C21 C 0.85794 0.04551 0.21822 0.0
C22 C 0.919 0.08777 0.18741 0.0
C23 C 0.846 0.98567 0.19074 0.0
O24 O 0.86164 0.00308 0.19774 0.0
O25 O 0.83687 0.99619 0.18389 0.0
O26 O 0.88313 0.0468 0.21551 0.0
O27 O 0.84048 0.04689 0.21155 0.0
O28 O 0.92965 0.8368 0.18188 0.0
Cd29 Cd 0.9548 0.81489 0.18124 0.0
Cd30 Cd 0.95548 0.82323 0.20136 0.0
O31 O 0.91632 0.82472 0.19724 0.0
O32 O 0.9389 0.78801 0.16965 0.0
O33 O 0.9321 0.77048 0.18487 0.0
C34 C 0.92584 0.76515 0.17567 0.0
C35 C 0.96141 0.81958 0.21826 0.0
C36 C 0.91274 0.83456 0.18907 0.0
C37 C 0.01367 0.86044 0.18835 0.0
O38 O -0.00212 0.85625 0.19603 0.0
O39 O 0.00172 0.84286 0.18105 0.0
O40 O 0.96143 0.84285 0.21434 0.0
O41 O 0.95613 0.7968 0.21264 0.0
O42 O 0.09208 0.15551 0.31558 0.0
Cd43 Cd 0.13922 0.17811 0.31521 0.0
Cd44 Cd 0.12993 0.16222 0.29606 0.0
O45 O 0.08574 0.15265 0.29963 0.0
O46 O 0.15285 0.20951 0.32561 0.0
O47 O 0.15837 0.22066 0.30979 0.0
C48 C 0.16015 0.22963 0.31873 0.0
C49 C 0.14654 0.17468 0.27989 0.0
C50 C 0.07469 0.14921 0.30819 0.0
C51 C 0.15653 0.13287 0.30987 0.0
O52 O 0.14457 0.13375 0.3018 0.0
O53 O 0.15964 0.15144 0.31665 0.0
O54 O 0.12552 0.14745 0.28239 0.0
O55 O 0.15733 0.1959 0.28648 0.0
O56 O 0.82729 0.91731 0.32128 0.0
Cd57 Cd 0.80878 0.94541 0.3221 0.0
Cd58 Cd 0.82003 0.9495 0.30162 0.0
O59 O 0.82465 0.91167 0.30529 0.0
O60 O 0.78274 0.93081 0.3339 0.0
O61 O 0.7641 0.92528 0.31888 0.0
C62 C 0.75931 0.919 0.32808 0.0
C63 C 0.81343 0.95592 0.28496 0.0
C64 C 0.82945 0.90408 0.31369 0.0
C65 C 0.85513 0.00604 0.31533 0.0
O66 O 0.85086 0.99226 0.30722 0.0
O67 O 0.83909 0.99196 0.32274 0.0
O68 O 0.83766 0.95643 0.28827 0.0
O69 O 0.79151 0.94994 0.29105 0.0
O70 O 0.05859 0.90079 0.3252 0.0
Cd71 Cd 0.03538 0.85411 0.32692 0.0
Cd72 Cd 0.03022 0.85592 0.30606 0.0
O73 O 0.06833 0.89856 0.30963 0.0
O74 O 0.05516 0.84567 0.33801 0.0
O75 O 0.05793 0.83291 0.32266 0.0
C76 C 0.06671 0.83524 0.33165 0.0
C77 C 0.0219 0.84681 0.2892 0.0
C78 C 0.07353 0.91378 0.31752 0.0
C79 C 0.97353 0.83151 0.32037 0.0
O80 O 0.98705 0.84029 0.31218 0.0
O81 O 0.98858 0.83297 0.32797 0.0
O82 O 0.01933 0.86806 0.29357 0.0
O83 O 0.0312 0.83133 0.29428 0.0
O84 O 0.83966 0.90275 0.82485 0.0
Cd85 Cd 0.81768 0.85588 0.82333 0.0
Cd86 Cd 0.83208 0.86867 0.80387 0.0
O87 O 0.83707 0.90987 0.8091 0.0
O88 O 0.78276 0.83826 0.83253 0.0
O89 O 0.77764 0.83905 0.81643 0.0
C90 C 0.7654 0.83393 0.82503 0.0
C91 C 0.82825 0.86234 0.78684 0.0
C92 C 0.84232 0.92025 0.81778 0.0
C93 C 0.86204 0.83952 0.81661 0.0
O94 O 0.86054 0.85304 0.80897 0.0
O95 O 0.84424 0.83525 0.82374 0.0
O96 O 0.85266 0.88335 0.79104 0.0
O97 O 0.80474 0.8454 0.79228 0.0
O98 O 0.09601 0.93244 0.82228 0.0
Cd99 Cd 0.14285 0.95696 0.82103 0.0
Cd100 Cd 0.13017 0.9563 0.80148 0.0
O101 O 0.09037 0.91823 0.80687 0.0
O102 O 0.16001 0.94022 0.83063 0.0
O103 O 0.1603 0.93358 0.81459 0.0
C104 C 0.16498 0.92695 0.82332 0.0
C105 C 0.13603 0.95972 0.78445 0.0
C106 C 0.07939 0.91507 0.81543 0.0
C107 C 0.15722 0.0162 0.81391 0.0
O108 O 0.14364 0.00028 0.80642 0.0
O109 O 0.16273 0.00391 0.82114 0.0
O110 O 0.114 0.96101 0.78878 0.0
O111 O 0.15409 0.95427 0.78973 0.0
O112 O 0.06865 0.16312 0.8213 0.0
Cd113 Cd 0.04252 0.1832 0.82378 0.0
Cd114 Cd 0.02443 0.16411 0.80353 0.0
O115 O 0.06055 0.15531 0.80547 0.0
O116 O 0.06327 0.2103 0.83506 0.0
O117 O 0.0619 0.22775 0.82031 0.0
C118 C 0.07235 0.23326 0.82914 0.0
C119 C 0.01089 0.16449 0.78709 0.0
C120 C 0.07435 0.15486 0.8132 0.0
C121 C 0.97727 0.1385 0.8207 0.0
O122 O 0.98488 0.14028 0.81179 0.0
O123 O -0.00298 0.15456 0.82714 0.0
O124 O 0.00644 0.13988 0.79141 0.0
O125 O 0.02421 0.18987 0.79198 0.0
O126 O 0.90042 0.83346 0.67889 0.0
Cd127 Cd 0.85348 0.81178 0.67892 0.0
Cd128 Cd 0.86162 0.83136 0.69862 0.0
O129 O 0.90507 0.83864 0.69487 0.0
O130 O 0.83973 0.77838 0.66922 0.0
O131 O 0.83337 0.77045 0.68521 0.0
C132 C 0.83178 0.75965 0.67653 0.0
C133 C 0.85267 0.83189 0.71544 0.0
C134 C 0.91687 0.84035 0.68651 0.0
C135 C 0.83353 0.85581 0.68317 0.0
O136 O 0.84382 0.85551 0.6916 0.0
O137 O 0.83374 0.83847 0.67647 0.0
O138 O 0.87255 0.85597 0.71082 0.0
O139 O 0.83846 0.80639 0.71063 0.0
O140 O 0.15633 0.05918 0.67673 0.0
Cd141 Cd 0.18009 0.03595 0.677 0.0
Cd142 Cd 0.16697 0.03119 0.6968 0.0
O143 O 0.16323 0.06918 0.69248 0.0
O144 O 0.21426 0.0559 0.66757 0.0
O145 O 0.22051 0.05895 0.68369 0.0
C146 C 0.23205 0.06784 0.67506 0.0
C147 C 0.16754 0.02361 0.7137 0.0
C148 C 0.15572 0.07418 0.68409 0.0
C149 C 0.13715 0.97445 0.6828 0.0
O150 O 0.13891 0.98813 0.69076 0.0
O151 O 0.15447 0.98912 0.67569 0.0
O152 O 0.144 0.0216 0.70929 0.0
O153 O 0.19221 0.03215 0.70864 0.0
O154 O 0.92661 0.08951 0.6784 0.0
Cd155 Cd 0.95322 0.13652 0.67837 0.0
Cd156 Cd 0.95571 0.12706 0.69869 0.0
O157 O 0.91865 0.08523 0.69427 0.0
O158 O 0.93809 0.14948 0.66705 0.0
O159 O 0.93152 0.15884 0.68244 0.0
C160 C 0.92543 0.15908 0.67328 0.0
C161 C 0.95908 0.1355 0.71567 0.0
C162 C 0.91242 0.07343 0.68579 0.0
C163 C 0.01373 0.15185 0.68541 0.0
O164 O -0.00088 0.1406 0.69331 0.0
O165 O 0.00014 0.15506 0.67807 0.0
O166 O 0.96211 0.11391 0.71174 0.0
O167 O 0.95288 0.1522 0.70998 0.0
O168 O 0.82508 0.42859 0.51363 0.0
Cd169 Cd 0.84824 0.47553 0.5128 0.0
Cd170 Cd 0.83729 0.47234 0.53233 0.0
O171 O 0.82933 0.42799 0.52961 0.0
O172 O 0.87964 0.48719 0.50251 0.0
O173 O 0.89052 0.49528 0.51834 0.0
C174 C 0.89959 0.49554 0.50948 0.0
C175 C 0.84941 0.49041 0.54838 0.0
C176 C 0.82262 0.41403 0.52145 0.0
C177 C 0.8051 0.4951 0.51802 0.0
O178 O 0.80784 0.48572 0.52636 0.0
O179 O 0.82175 0.4957 0.51097 0.0
O180 O 0.82237 0.46888 0.54594 0.0
O181 O 0.87065 0.50111 0.5418 0.0
O182 O 0.56822 0.39652 0.51121 0.0
Cd183 Cd 0.52119 0.37067 0.51087 0.0
Cd184 Cd 0.52779 0.36039 0.53061 0.0
O185 O 0.57111 0.3973 0.52727 0.0
O186 O 0.50687 0.39061 0.50147 0.0
O187 O 0.50046 0.39065 0.51752 0.0
C188 C 0.49857 0.40043 0.50895 0.0
C189 C 0.51654 0.34987 0.54728 0.0
C190 C 0.58377 0.40692 0.51898 0.0
C191 C 0.50234 0.30734 0.51529 0.0
O192 O 0.5123 0.31872 0.52367 0.0
O193 O 0.5018 0.32416 0.50847 0.0
O194 O 0.53766 0.34683 0.54302 0.0
O195 O 0.50255 0.36093 0.54224 0.0
O196 O 0.59872 0.16954 0.51104 0.0
Cd197 Cd 0.62288 0.14725 0.51372 0.0
Cd198 Cd 0.61533 0.15795 0.53241 0.0
O199 O 0.57801 0.15786 0.52569 0.0
O200 O 0.6082 0.11209 0.50462 0.0
O201 O 0.59786 0.10735 0.52052 0.0
C202 C 0.59308 0.0949 0.51196 0.0
C203 C 0.61391 0.15122 0.54937 0.0
C204 C 0.57824 0.16702 0.51702 0.0
C205 C 0.67864 0.19349 0.52225 0.0
O206 O 0.65966 0.19131 0.52877 0.0
O207 O 0.66967 0.17439 0.51525 0.0
O208 O 0.61416 0.17462 0.54543 0.0
O209 O 0.61214 0.12993 0.54365 0.0
O210 O 0.76176 0.49463 0.65195 0.0
Cd211 Cd 0.80791 0.51361 0.6544 0.0
Cd212 Cd 0.80667 0.499 0.63435 0.0
O213 O 0.76128 0.48884 0.63599 0.0
O214 O 0.81416 0.53857 0.66624 0.0
O215 O 0.83358 0.55874 0.65178 0.0
C216 C 0.8283 0.5626 0.66075 0.0
C217 C 0.8271 0.51076 0.61853 0.0
C218 C 0.74738 0.48741 0.64391 0.0
C219 C 0.82581 0.46752 0.65013 0.0
O220 O 0.81997 0.47113 0.64138 0.0
O221 O 0.82368 0.48348 0.65695 0.0
O222 O 0.8063 0.48341 0.62099 0.0
O223 O 0.83589 0.53236 0.62495 0.0
O224 O 0.49988 0.25877 0.65579 0.0
Cd225 Cd 0.48129 0.2869 0.65554 0.0
Cd226 Cd 0.49137 0.28672 0.6351 0.0
O227 O 0.49521 0.24943 0.63998 0.0
O228 O 0.45278 0.2734 0.66674 0.0
O229 O 0.43757 0.26647 0.65126 0.0
C230 C 0.43074 0.26101 0.66042 0.0
C231 C 0.48691 0.28939 0.61809 0.0
C232 C 0.50076 0.24357 0.64853 0.0
C233 C 0.52664 0.34615 0.64773 0.0
O234 O 0.5218 0.3307 0.63994 0.0
O235 O 0.51123 0.33353 0.65538 0.0
O236 O 0.511 0.29163 0.62216 0.0
O237 O 0.46395 0.28392 0.62365 0.0
O238 O 0.72351 0.2291 0.65648 0.0
Cd239 Cd 0.69923 0.18212 0.65647 0.0
Cd240 Cd 0.68739 0.18994 0.63677 0.0
O241 O 0.72363 0.23351 0.64046 0.0
O242 O 0.71986 0.16886 0.66596 0.0
O243 O 0.72106 0.16308 0.64992 0.0
C244 C 0.73073 0.16153 0.65854 0.0
C245 C 0.67659 0.18023 0.62004 0.0
C246 C 0.7333 0.24547 0.64884 0.0
C247 C 0.63518 0.16119 0.65236 0.0
O248 O 0.64573 0.17184 0.64396 0.0
O249 O 0.65282 0.1614 0.65903 0.0
O250 O 0.67266 0.20027 0.62467 0.0
O251 O 0.68871 0.16658 0.62474 0.0
O252 O 0.49641 0.23307 0.15168 0.0
Cd253 Cd 0.47479 0.18607 0.15186 0.0
Cd254 Cd 0.49368 0.19315 0.1322 0.0
O255 O 0.50219 0.23717 0.1357 0.0
O256 O 0.44094 0.17213 0.16141 0.0
O257 O 0.43376 0.16545 0.14539 0.0
C258 C 0.4225 0.16378 0.15401 0.0
C259 C 0.49334 0.18311 0.11542 0.0
C260 C 0.50394 0.24933 0.144 0.0
C261 C 0.51913 0.16638 0.1477 0.0
O262 O 0.51832 0.17599 0.13921 0.0
O263 O 0.50191 0.16679 0.1544 0.0
O264 O 0.51768 0.20308 0.1199 0.0
O265 O 0.46803 0.16942 0.12034 0.0
O266 O 0.75401 0.26217 0.15529 0.0
Cd267 Cd 0.8009 0.28834 0.15657 0.0
Cd268 Cd 0.79668 0.29403 0.13641 0.0
O269 O 0.75215 0.2587 0.13925 0.0
O270 O 0.81003 0.27196 0.16843 0.0
O271 O 0.82389 0.26643 0.15352 0.0
C272 C 0.82137 0.25966 0.16271 0.0
C273 C 0.81517 0.29815 0.12046 0.0
C274 C 0.73891 0.25063 0.14751 0.0
C275 C 0.81953 0.35051 0.15013 0.0
O276 O 0.8104 0.33731 0.14192 0.0
O277 O 0.81991 0.33534 0.15749 0.0
O278 O 0.79387 0.30432 0.12259 0.0
O279 O 0.82537 0.28797 0.12732 0.0
O280 O 0.72853 0.49395 0.15722 0.0
Cd281 Cd 0.70368 0.51603 0.15623 0.0
Cd282 Cd 0.70494 0.50628 0.137 0.0
O283 O 0.74336 0.50432 0.1419 0.0
O284 O 0.72031 0.54992 0.16584 0.0
O285 O 0.72668 0.55688 0.14979 0.0
C286 C 0.7334 0.56818 0.15852 0.0
C287 C 0.70167 0.51544 0.12039 0.0
C288 C 0.74615 0.4954 0.15034 0.0
C289 C 0.64509 0.47036 0.14893 0.0
O290 O 0.66139 0.47312 0.1415 0.0
O291 O 0.65676 0.48833 0.15615 0.0
O292 O 0.70247 0.49157 0.12342 0.0
O293 O 0.70503 0.53582 0.12677 0.0
O294 O 0.56966 0.17789 0.00664 0.0
Cd295 Cd 0.5226 0.15583 0.00639 0.0
Cd296 Cd 0.5298 0.16403 0.02694 0.0
O297 O 0.57188 0.16971 0.02234 0.0
O298 O 0.51012 0.1265 0.99543 0.0
O299 O 0.50232 0.1125 0.01103 0.0
C300 C 0.50185 0.10516 0.00196 0.0
C301 C 0.52256 0.15963 0.04395 0.0
C302 C 0.58479 0.1777 0.01403 0.0
C303 C 0.503 0.19677 0.01408 0.0
O304 O 0.51389 0.19241 0.02189 0.0
O305 O 0.50194 0.18232 0.00636 0.0
O306 O 0.54345 0.1843 0.03985 0.0
O307 O 0.50608 0.1362 0.03843 0.0
O308 O 0.83006 0.39817 0.01957 0.0
Cd309 Cd 0.84978 0.37295 0.01525 0.0
Cd310 Cd 0.83141 0.34843 0.03465 0.0
O311 O 0.81752 0.38115 0.03466 0.0
O312 O 0.87322 0.39596 0.00357 0.0
O313 O 0.89538 0.39225 0.01708 0.0
C314 C 0.89801 0.40404 0.00851 0.0
C315 C 0.84206 0.33621 0.05018 0.0
C316 C 0.81869 0.39871 0.02777 0.0
C317 C 0.80493 0.30614 0.01671 0.0
O318 O 0.80752 0.31024 0.02587 0.0
O319 O 0.82033 0.3284 0.0109 0.0
O320 O 0.81445 0.32731 0.04733 0.0
O321 O 0.86433 0.35262 0.04425 0.0
O322 O 0.59543 0.42897 0.01662 0.0
Cd323 Cd 0.62221 0.47499 0.0195 0.0
Cd324 Cd 0.6123 0.45665 0.03765 0.0
O325 O 0.57408 0.41972 0.03115 0.0
O326 O 0.61149 0.49752 0.00989 0.0
O327 O 0.59885 0.49294 0.0256 0.0
C328 C 0.59616 0.50109 0.01686 0.0
C329 C 0.61141 0.47021 0.05391 0.0
C330 C 0.57436 0.41107 0.02245 0.0
C331 C 0.67538 0.4788 0.0285 0.0
O332 O 0.65533 0.46239 0.03484 0.0
O333 O 0.66828 0.49075 0.02153 0.0
O334 O 0.60778 0.44375 0.05151 0.0
O335 O 0.61291 0.48838 0.04699 0.0
O336 O 0.50174 0.75957 0.84875 0.0
Cd337 Cd 0.51927 0.806 0.84749 0.0
Cd338 Cd 0.50952 0.80104 0.86796 0.0
O339 O 0.50566 0.7587 0.86475 0.0
O340 O 0.54509 0.81712 0.83565 0.0
O341 O 0.56389 0.83161 0.85061 0.0
C342 C 0.56861 0.82959 0.84143 0.0
C343 C 0.51683 0.81503 0.88452 0.0
C344 C 0.50046 0.7453 0.85652 0.0
C345 C 0.47217 0.81939 0.85418 0.0
O346 O 0.47724 0.811 0.86238 0.0
O347 O 0.48816 0.82124 0.84677 0.0
O348 O 0.49271 0.79088 0.88139 0.0
O349 O 0.5382 0.83112 0.87829 0.0
O350 O 0.23484 0.7298 0.84869 0.0
Cd351 Cd 0.18816 0.70431 0.84679 0.0
Cd352 Cd 0.19139 0.69174 0.86695 0.0
O353 O 0.23655 0.7265 0.8647 0.0
O354 O 0.18158 0.72318 0.83502 0.0
O355 O 0.16462 0.72588 0.84972 0.0
C356 C 0.169 0.73436 0.84067 0.0
C357 C 0.17393 0.68358 0.88316 0.0
C358 C 0.24993 0.73763 0.8566 0.0
C359 C 0.16873 0.64014 0.85127 0.0
O360 O 0.1766 0.65036 0.85989 0.0
O361 O 0.16973 0.65782 0.84447 0.0
O362 O 0.19398 0.67665 0.88015 0.0
O363 O 0.16418 0.6964 0.87706 0.0
O364 O 0.27301 0.50891 0.84178 0.0
Cd365 Cd 0.2968 0.48586 0.84321 0.0
Cd366 Cd 0.29479 0.49558 0.86277 0.0
O367 O 0.25775 0.49869 0.85707 0.0
O368 O 0.279 0.45019 0.83426 0.0
O369 O 0.27336 0.44648 0.85039 0.0
C370 C 0.26605 0.4335 0.8419 0.0
C371 C 0.29398 0.48824 0.87969 0.0
C372 C 0.25518 0.50742 0.84858 0.0
C373 C 0.35605 0.5282 0.85108 0.0
O374 O 0.33988 0.52552 0.85855 0.0
O375 O 0.34374 0.51186 0.84357 0.0
O376 O 0.29706 0.5131 0.87592 0.0
O377 O 0.28977 0.46629 0.87384 0.0
O378 O 0.42405 0.83292 0.98869 0.0
Cd379 Cd 0.47077 0.85261 0.98724 0.0
Cd380 Cd 0.45929 0.84281 0.96794 0.0
O381 O 0.41811 0.83825 0.97302 0.0
O382 O 0.49086 0.88817 0.99622 0.0
O383 O 0.48904 0.89221 0.9801 0.0
C384 C 0.49544 0.90517 0.98859 0.0
C385 C 0.47206 0.8558 0.95153 0.0
C386 C 0.40722 0.83199 0.98163 0.0
C387 C 0.48383 0.80681 0.97935 0.0
O388 O 0.47115 0.81034 0.97182 0.0
O389 O 0.48863 0.82357 0.98682 0.0
O390 O 0.44788 0.83073 0.95414 0.0
O391 O 0.48856 0.87495 0.95827 0.0
O392 O 0.17114 0.60261 0.98962 0.0
Cd393 Cd 0.14835 0.62685 0.98971 0.0
Cd394 Cd 0.16624 0.63839 0.97044 0.0
O395 O 0.17795 0.60484 0.97369 0.0
O396 O 0.11547 0.60673 0.99954 0.0
O397 O 0.1067 0.60512 0.98361 0.0
C398 C 0.09635 0.59591 0.99233 0.0
C399 C 0.15628 0.64371 0.95405 0.0
C400 C 0.17971 0.59456 0.98202 0.0
C401 C 0.19097 0.69134 0.9855 0.0
O402 O 0.19046 0.68114 0.97699 0.0
O403 O 0.17433 0.67331 0.99223 0.0
O404 O 0.18355 0.6519 0.95712 0.0
O405 O 0.13382 0.63096 0.96019 0.0
O406 O 0.40693 0.57407 0.98465 0.0
Cd407 Cd 0.38046 0.52823 0.98773 0.0
Cd408 Cd 0.36461 0.52861 0.96683 0.0
O409 O 0.40086 0.57337 0.96868 0.0
O410 O 0.39923 0.52471 1.00002 0.0
O411 O 0.40095 0.50292 0.98616 0.0
C412 C 0.40964 0.50988 0.99512 0.0
C413 C 0.35048 0.51367 0.9505 0.0
C414 C 0.41367 0.5878 0.97649 0.0
C415 C 0.31592 0.50908 0.98355 0.0
O416 O 0.32487 0.51462 0.97475 0.0
O417 O 0.33449 0.51206 0.99032 0.0
O418 O 0.34703 0.53474 0.95461 0.0
O419 O 0.36357 0.50155 0.95548 0.0
O420 O 0.16461 0.57417 0.48551 0.0
Cd421 Cd 0.14596 0.52726 0.48498 0.0
Cd422 Cd 0.15275 0.53777 0.46567 0.0
O423 O 0.15467 0.57825 0.47013 0.0
O424 O 0.11929 0.51193 0.49661 0.0
O425 O 0.10159 0.50396 0.48139 0.0
C426 C 0.09626 0.50239 0.49067 0.0
C427 C 0.13782 0.52101 0.44958 0.0
C428 C 0.16286 0.58999 0.47858 0.0
C429 C 0.19372 0.51845 0.47657 0.0
O430 O 0.18918 0.53151 0.46933 0.0
O431 O 0.17596 0.51063 0.48391 0.0
O432 O 0.16185 0.54697 0.45159 0.0
O433 O 0.12065 0.50484 0.45674 0.0
O434 O 0.42723 0.60085 0.48802 0.0
Cd435 Cd 0.47362 0.62505 0.49038 0.0
Cd436 Cd 0.47332 0.63364 0.46977 0.0
O437 O 0.42935 0.59621 0.47209 0.0
O438 O 0.4803 0.60502 0.50179 0.0
O439 O 0.49666 0.60364 0.48683 0.0
C440 C 0.49252 0.59427 0.49579 0.0
C441 C 0.48823 0.64567 0.45339 0.0
C442 C 0.41408 0.58884 0.48001 0.0
C443 C 0.49341 0.6874 0.4849 0.0
O444 O 0.48597 0.67516 0.47652 0.0
O445 O 0.4925 0.67155 0.49224 0.0
O446 O 0.46597 0.64796 0.45711 0.0
O447 O 0.50124 0.6343 0.45876 0.0
O448 O 0.39549 0.82778 0.48773 0.0
Cd449 Cd 0.37017 0.84929 0.48875 0.0
Cd450 Cd 0.35977 0.83263 0.46854 0.0
O451 O 0.39385 0.8217 0.47177 0.0
O452 O 0.38794 0.87572 0.50037 0.0
O453 O 0.39252 0.89408 0.48537 0.0
C454 C 0.40008 0.89893 0.49449 0.0
C455 C 0.3542 0.84172 0.45208 0.0
C456 C 0.40414 0.82001 0.4801 0.0
C457 C 0.30613 0.80609 0.48355 0.0
O458 O 0.31703 0.80797 0.47506 0.0
O459 O 0.32346 0.82179 0.49055 0.0
O460 O 0.34638 0.81468 0.45528 0.0
O461 O 0.36666 0.86446 0.45813 0.0
O462 O 0.23292 0.49192 0.34787 0.0
Cd463 Cd 0.18619 0.47189 0.34679 0.0
Cd464 Cd 0.19204 0.47873 0.36693 0.0
O465 O 0.23309 0.48011 0.36331 0.0
O466 O 0.17625 0.44784 0.33458 0.0
O467 O 0.16232 0.42665 0.34927 0.0
C468 C 0.1646 0.42348 0.33999 0.0
C469 C 0.1776 0.47018 0.38346 0.0
C470 C 0.24702 0.4896 0.35521 0.0
C471 C 0.17439 0.51864 0.35412 0.0
O472 O 0.1847 0.51355 0.36194 0.0
O473 O 0.16946 0.50172 0.34669 0.0
O474 O 0.20276 0.49364 0.38056 0.0
O475 O 0.1608 0.44999 0.37701 0.0
O476 O 0.4887 0.72581 0.34553 0.0
Cd477 Cd 0.50946 0.6999 0.34774 0.0
Cd478 Cd 0.49865 0.70374 0.3667 0.0
O479 O 0.49518 0.74017 0.36093 0.0
O480 O 0.54432 0.71455 0.33854 0.0
O481 O 0.54963 0.72354 0.35451 0.0
C482 C 0.56185 0.72877 0.34591 0.0
C483 C 0.51004 0.70584 0.38336 0.0
C484 C 0.48847 0.74324 0.35221 0.0
C485 C 0.46373 0.64184 0.35599 0.0
O486 O 0.46614 0.65921 0.36308 0.0
O487 O 0.48175 0.6528 0.34873 0.0
O488 O 0.48496 0.70398 0.38024 0.0
O489 O 0.52999 0.7082 0.37696 0.0
O490 O 0.2659 0.75811 0.34719 0.0
Cd491 Cd 0.2905 0.80494 0.3459 0.0
Cd492 Cd 0.30816 0.80338 0.36487 0.0
O493 O 0.27515 0.75717 0.36287 0.0
O494 O 0.26812 0.81615 0.33641 0.0
O495 O 0.27121 0.8269 0.35224 0.0
C496 C 0.25975 0.82643 0.34374 0.0
C497 C 0.3163 0.82136 0.38101 0.0
C498 C 0.26153 0.74325 0.35507 0.0
C499 C 0.35626 0.82776 0.34833 0.0
O500 O 0.34903 0.8211 0.35723 0.0
O501 O 0.33599 0.8239 0.34208 0.0
O502 O 0.32522 0.80286 0.37794 0.0
O503 O 0.30168 0.82931 0.375 0.0
H504 H 0.11684 0.19993 0.18929 0.0
H505 H 0.09238 0.14438 0.16325 0.0
H506 H 0.06478 0.19205 0.19021 0.0
H507 H 0.03992 0.13455 0.16447 0.0
H508 H 0.94359 0.10983 0.16937 0.0
H509 H -0.00206 0.14235 0.16524 0.0
H510 H 0.02141 0.14828 0.19582 0.0
H511 H 0.96738 0.11737 0.1999 0.0
C512 C 0.10052 0.18687 0.18358 0.0
C513 C 0.10838 0.1724 0.17629 0.0
C514 C 0.07055 0.18192 0.18418 0.0
C515 C 0.04766 0.16157 0.17766 0.0
C516 C 0.0567 0.15028 0.16966 0.0
C517 C 0.08693 0.15593 0.16893 0.0
C518 C 0.96043 0.11864 0.1752 0.0
C519 C 0.95127 0.11065 0.18495 0.0
C520 C 0.99161 0.13723 0.17283 0.0
C521 C 0.01434 0.1478 0.18015 0.0
C522 C 0.0048 0.14117 0.18995 0.0
C523 C 0.97367 0.12305 0.19231 0.0
H524 H 0.83067 0.94706 0.17491 0.0
H525 H 0.85197 0.95345 0.20563 0.0
H526 H 0.8351 0.90065 0.17377 0.0
H527 H 0.8574 0.90828 0.20447 0.0
H528 H 0.86845 0.82826 0.20207 0.0
H529 H 0.83933 0.85537 0.20182 0.0
H530 H 0.88008 0.89566 0.17399 0.0
H531 H 0.90797 0.86766 0.17406 0.0
C532 C 0.83556 0.93817 0.18145 0.0
C533 C 0.84164 0.95425 0.19031 0.0
C534 C 0.83832 0.91172 0.18079 0.0
C535 C 0.84714 0.90098 0.18899 0.0
C536 C 0.85037 0.91558 0.19801 0.0
C537 C 0.84759 0.94183 0.19866 0.0
C538 C 0.87061 0.84237 0.19581 0.0
C539 C 0.89106 0.84639 0.1882 0.0
C540 C 0.85397 0.85795 0.19566 0.0
C541 C 0.8578 0.87821 0.18798 0.0
C542 C 0.87631 0.88014 0.18 0.0
C543 C 0.89263 0.86428 0.18009 0.0
H544 H 0.15629 0.05034 0.19756 0.0
H545 H 0.113 0.04147 0.16961 0.0
H546 H 0.13395 0.99449 0.19829 0.0
H547 H 0.08924 0.98589 0.17054 0.0
H548 H 0.04923 0.88657 0.17202 0.0
H549 H 0.09063 0.94003 0.17043 0.0
H550 H 0.08567 0.95305 0.20141 0.0
H551 H 0.04613 0.89976 0.20303 0.0
C552 C 0.14194 0.03641 0.19159 0.0
C553 C 0.13603 0.0502 0.1836 0.0
C554 C 0.12909 0.00439 0.19199 0.0
C555 C 0.10946 0.98542 0.18452 0.0
C556 C 0.10461 -0.00048 0.17636 0.0
C557 C 0.11794 0.0315 0.17588 0.0
C558 C 0.05783 0.90062 0.17852 0.0
C559 C 0.04385 0.88916 0.1876 0.0
C560 C 0.08131 0.93141 0.1776 0.0
C561 C 0.09092 0.95129 0.18573 0.0
C562 C 0.07909 0.93872 0.19495 0.0
C563 C 0.05604 0.908 0.19588 0.0
H564 H 0.15846 0.09414 0.29641 0.0
H565 H 0.16407 0.11091 0.32742 0.0
H566 H 0.14772 0.04221 0.29929 0.0
H567 H 0.15498 0.05893 0.33038 0.0
H568 H 0.07676 0.95639 0.3305 0.0
H569 H 0.10889 0.01194 0.32957 0.0
H570 H 0.15505 0.00235 0.30428 0.0
H571 H 0.12132 0.94655 0.30492 0.0
C572 C 0.15855 0.08707 0.30387 0.0
C573 C 0.16111 0.10631 0.31169 0.0
C574 C 0.15261 0.05715 0.30554 0.0
C575 C 0.1495 0.04584 0.3151 0.0
C576 C 0.15614 0.0665 0.32292 0.0
C577 C 0.16177 0.09648 0.32123 0.0
C578 C 0.09403 0.96612 0.32481 0.0
C579 C 0.09605 0.94718 0.31765 0.0
C580 C 0.11283 -0.00189 0.32433 0.0
C581 C 0.13452 0.01193 0.31677 0.0
C582 C 0.13811 0.99267 0.31006 0.0
C583 C 0.11882 0.96067 0.31042 0.0
H584 H 0.87604 0.0522 0.30204 0.0
H585 H 0.89621 0.02862 0.33027 0.0
H586 H 0.92844 0.09572 0.30098 0.0
H587 H 0.94911 0.07097 0.32905 0.0
H588 H 0.0289 0.12106 0.2947 0.0
H589 H 0.97373 0.09449 0.29749 0.0
H590 H 0.98932 0.12276 0.32771 0.0
H591 H 0.0448 0.14839 0.32496 0.0
C592 C 0.89153 0.05696 0.30815 0.0
C593 C 0.88233 0.037 0.31619 0.0
C594 C 0.92165 0.08161 0.3075 0.0
C595 C 0.94335 0.08628 0.31477 0.0
C596 C 0.93312 0.06819 0.32329 0.0
C597 C 0.90273 0.04386 0.32403 0.0
C598 C 0.02059 0.12198 0.3019 0.0
C599 C 0.04122 0.13643 0.30963 0.0
C600 C 0.98883 0.10697 0.30351 0.0
C601 C 0.97691 0.10637 0.31286 0.0
C602 C -0.00236 0.12231 0.32047 0.0
C603 C 0.02945 0.13705 0.31888 0.0
H604 H 0.85599 0.88594 0.29979 0.0
H605 H 0.8269 0.87124 0.32988 0.0
H606 H 0.88181 0.8564 0.30224 0.0
H607 H 0.85153 0.84031 0.33228 0.0
H608 H 0.94723 0.84558 0.33537 0.0
H609 H 0.90313 0.85314 0.334 0.0
H610 H 0.8833 0.81122 0.30539 0.0
H611 H 0.92862 0.8053 0.30662 0.0
C612 C 0.85434 0.87558 0.30686 0.0
C613 C 0.83998 0.88142 0.31468 0.0
C614 C 0.86896 0.85834 0.30827 0.0
C615 C 0.86913 0.84614 0.31752 0.0
C616 C 0.85252 0.84992 0.32513 0.0
C617 C 0.83831 0.86758 0.32375 0.0
C618 C 0.93276 0.83692 0.32895 0.0
C619 C 0.94161 0.82542 0.32103 0.0
C620 C 0.90735 0.84124 0.32814 0.0
C621 C 0.89008 0.83363 0.31944 0.0
C622 C 0.89669 0.81834 0.31205 0.0
C623 C 0.92243 0.8146 0.31279 0.0
H624 H 0.8946 0.83369 0.80183 0.0
H625 H 0.88869 0.83277 0.83324 0.0
H626 H 0.94608 0.84152 0.80285 0.0
H627 H 0.94032 0.83921 0.83433 0.0
H628 H 0.04359 0.91525 0.83033 0.0
H629 H 0.98804 0.88414 0.83179 0.0
H630 H 0.98544 0.83151 0.80644 0.0
H631 H 0.04112 0.86408 0.80468 0.0
C632 C 0.90395 0.83401 0.80899 0.0
C633 C 0.88799 0.83355 0.81745 0.0
C634 C 0.93356 0.83825 0.80959 0.0
C635 C 0.94788 0.84187 0.81869 0.0
C636 C 0.93034 0.83745 0.82719 0.0
C637 C 0.9006 0.83339 0.82658 0.0
C638 C 0.03121 0.89671 0.82516 0.0
C639 C 0.04656 0.89261 0.81725 0.0
C640 C -0.00074 0.87853 0.82606 0.0
C641 C 0.98198 0.85549 0.81914 0.0
C642 C -0.00216 0.84957 0.81175 0.0
C643 C 0.02976 0.86819 0.81074 0.0
H644 H 0.08264 0.12272 0.79858 0.0
H645 H 0.11555 0.16052 0.82726 0.0
H646 H 0.11352 0.09778 0.79904 0.0
H647 H 0.14751 0.13646 0.8276 0.0
H648 H 0.14936 0.04369 0.8299 0.0
H649 H 0.13758 0.08531 0.8296 0.0
H650 H 0.16191 0.10055 0.79905 0.0
H651 H 0.17213 0.0578 0.79931 0.0
C652 C 0.09703 0.12629 0.80489 0.0
C653 C 0.09625 0.14317 0.81294 0.0
C654 C 0.11505 0.1122 0.80514 0.0
C655 C 0.13302 0.11497 0.81339 0.0
C656 C 0.13359 0.1334 0.8212 0.0
C657 C 0.1153 0.14723 0.821 0.0
C658 C 0.15331 0.05673 0.82323 0.0
C659 C 0.16115 0.04731 0.81459 0.0
C660 C 0.14651 0.08064 0.82303 0.0
C661 C 0.14793 0.09575 0.81421 0.0
C662 C 0.15958 0.08873 0.80588 0.0
C663 C 0.1658 0.0645 0.80605 0.0
H664 H 0.85874 0.96559 0.80423 0.0
H665 H 0.84983 0.94952 0.83531 0.0
H666 H 0.88206 0.02042 0.807 0.0
H667 H 0.87225 0.0048 0.83813 0.0
H668 H 0.92288 0.11666 0.81106 0.0
H669 H 0.87986 0.06395 0.81205 0.0
H670 H 0.92251 0.04771 0.83704 0.0
H671 H 0.96428 0.10084 0.83635 0.0
C672 C 0.86114 0.97373 0.81167 0.0
C673 C 0.85292 0.95322 0.81955 0.0
C674 C 0.87422 0.00531 0.81328 0.0
C675 C 0.87914 0.01725 0.82282 0.0
C676 C 0.86923 0.9965 0.8307 0.0
C677 C 0.85636 0.96481 0.82908 0.0
C678 C 0.92216 0.10217 0.81704 0.0
C679 C 0.94704 0.11254 0.82354 0.0
C680 C 0.89776 0.07184 0.81754 0.0
C681 C 0.89833 0.05115 0.82437 0.0
C682 C 0.92125 0.06282 0.83165 0.0
C683 C 0.94529 0.09341 0.83128 0.0
H684 H 0.88547 0.04261 0.66888 0.0
H685 H 0.88824 0.02927 0.69989 0.0
H686 H 0.85297 0.98705 0.66668 0.0
H687 H 0.85717 0.97406 0.6977 0.0
H688 H 0.85222 0.89274 0.66723 0.0
H689 H 0.86194 0.94536 0.66691 0.0
H690 H 0.81143 0.9291 0.69389 0.0
H691 H 0.80358 0.877 0.69446 0.0
C692 C 0.87894 0.02782 0.67524 0.0
C693 C 0.8898 0.04028 0.68455 0.0
C694 C 0.86035 0.99596 0.67398 0.0
C695 C 0.85253 0.97585 0.68198 0.0
C696 C 0.86211 0.98863 0.69135 0.0
C697 C 0.88031 0.02043 0.69262 0.0
C698 C 0.84207 0.90004 0.67286 0.0
C699 C 0.82763 0.88113 0.68095 0.0
C700 C 0.84768 0.93034 0.67271 0.0
C701 C 0.83841 0.94193 0.68057 0.0
C702 C 0.81994 0.92134 0.68791 0.0
C703 C 0.81501 0.89133 0.68818 0.0
H704 H 0.09987 0.95209 0.66696 0.0
H705 H 0.11341 0.92784 0.69597 0.0
H706 H 0.0463 0.91104 0.66739 0.0
H707 H 0.06024 0.88553 0.69627 0.0
H708 H 0.96106 0.86735 0.70054 0.0
H709 H 0.01634 0.89043 0.69864 0.0
H710 H 0.00367 0.86039 0.6686 0.0
H711 H 0.94811 0.83822 0.67043 0.0
C712 C 0.09181 0.93684 0.67321 0.0
C713 C 0.11049 0.94333 0.68149 0.0
C714 C 0.06098 0.91327 0.6735 0.0
C715 C 0.04862 0.89557 0.68201 0.0
C716 C 0.06871 0.89944 0.68974 0.0
C717 C 0.09928 0.92337 0.68953 0.0
C718 C 0.97 0.86532 0.69356 0.0
C719 C 0.95022 0.85138 0.68561 0.0
C720 C 0.00179 0.87827 0.69248 0.0
C721 C 0.01463 0.87732 0.68344 0.0
C722 C 0.99466 0.86194 0.67562 0.0
C723 C 0.96281 0.84922 0.67668 0.0
H724 H 0.0507 0.15344 0.70013 0.0
H725 H 0.04756 0.15956 0.66879 0.0
H726 H 0.09343 0.14426 0.69881 0.0
H727 H 0.09193 0.15194 0.66743 0.0
H728 H 0.11967 0.07611 0.66958 0.0
H729 H 0.09453 0.10674 0.66904 0.0
H730 H 0.14273 0.15431 0.6953 0.0
H731 H 0.16647 0.12208 0.69611 0.0
C732 C 0.05987 0.15389 0.69294 0.0
C733 C 0.04512 0.15626 0.68455 0.0
C734 C 0.08475 0.14889 0.69218 0.0
C735 C 0.0958 0.14652 0.68299 0.0
C736 C 0.0834 0.15266 0.67462 0.0
C737 C 0.05817 0.15738 0.67539 0.0
C738 C 0.12523 0.09341 0.67516 0.0
C739 C 0.14444 0.09621 0.68301 0.0
C740 C 0.11106 0.11133 0.6748 0.0
C741 C 0.11619 0.13286 0.6822 0.0
C742 C 0.13754 0.13741 0.68961 0.0
C743 C 0.15121 0.119 0.69008 0.0
H744 H 0.62622 0.4253 0.5336 0.0
H745 H 0.61681 0.43969 0.50303 0.0
H746 H 0.68162 0.45767 0.53232 0.0
H747 H 0.67253 0.47336 0.5018 0.0
H748 H 0.7691 0.47891 0.50182 0.0
H749 H 0.71543 0.46591 0.5015 0.0
H750 H 0.72579 0.50608 0.53013 0.0
H751 H 0.77911 0.51742 0.53062 0.0
C752 C 0.63595 0.43594 0.52664 0.0
C753 C 0.61714 0.42951 0.51839 0.0
C754 C 0.66784 0.45489 0.52591 0.0
C755 C 0.68175 0.46824 0.51693 0.0
C756 C 0.66271 0.46312 0.50879 0.0
C757 C 0.63076 0.44384 0.5095 0.0
C758 C 0.76023 0.48606 0.50788 0.0
C759 C 0.77799 0.49862 0.51632 0.0
C760 C 0.72934 0.47856 0.50771 0.0
C761 C 0.71591 0.48402 0.51594 0.0
C762 C 0.73506 0.50052 0.52382 0.0
C763 C 0.76572 0.5074 0.52406 0.0
H764 H 0.48775 0.26219 0.52859 0.0
H765 H 0.50467 0.28159 0.49785 0.0
H766 H 0.49623 0.2191 0.52694 0.0
H767 H 0.51178 0.23698 0.49601 0.0
H768 H 0.58539 0.20803 0.50281 0.0
H769 H 0.55459 0.23247 0.50034 0.0
H770 H 0.48944 0.1721 0.52197 0.0
H771 H 0.52163 0.14905 0.52485 0.0
C772 C 0.49209 0.25643 0.52138 0.0
C773 C 0.49646 0.2758 0.51341 0.0
C774 C 0.49674 0.23138 0.52039 0.0
C775 C 0.50561 0.22489 0.51137 0.0
C776 C 0.50594 0.24188 0.50313 0.0
C777 C 0.50147 0.26724 0.50414 0.0
C778 C 0.56419 0.19961 0.50691 0.0
C779 C 0.55632 0.17725 0.51421 0.0
C780 C 0.54623 0.21342 0.50542 0.0
C781 C 0.51967 0.20475 0.51109 0.0
C782 C 0.51021 0.18007 0.51768 0.0
C783 C 0.52859 0.16678 0.51933 0.0
H784 H 0.71988 0.21887 0.50712 0.0
H785 H 0.70748 0.23065 0.53766 0.0
H786 H 0.76437 0.2711 0.50664 0.0
H787 H 0.7505 0.28267 0.53712 0.0
H788 H 0.82652 0.37724 0.53547 0.0
H789 H 0.80193 0.32113 0.53537 0.0
H790 H 0.76594 0.31907 0.50655 0.0
H791 H 0.79174 0.37492 0.50648 0.0
C792 C 0.72712 0.23228 0.51378 0.0
C793 C 0.70979 0.22098 0.52237 0.0
C794 C 0.75241 0.26232 0.51349 0.0
C795 C 0.76063 0.28147 0.52178 0.0
C796 C 0.74511 0.2688 0.53059 0.0
C797 C 0.7201 0.2389 0.53088 0.0
C798 C 0.81373 0.36474 0.52906 0.0
C799 C 0.81055 0.38042 0.52106 0.0
C800 C 0.79962 0.33258 0.529 0.0
C801 C 0.78152 0.31541 0.52101 0.0
C802 C 0.77996 0.33136 0.51279 0.0
C803 C 0.79448 0.36349 0.51279 0.0
H804 H 0.80471 0.43093 0.66621 0.0
H805 H 0.85056 0.44109 0.63869 0.0
H806 H 0.79001 0.37674 0.66668 0.0
H807 H 0.83705 0.38711 0.63932 0.0
H808 H 0.7633 0.27749 0.66527 0.0
H809 H 0.79728 0.33303 0.66694 0.0
H810 H 0.78714 0.3443 0.63616 0.0
H811 H 0.7541 0.28898 0.63445 0.0
C812 C 0.81303 0.42196 0.66051 0.0
C813 C 0.82821 0.43998 0.65232 0.0
C814 C 0.80453 0.39078 0.66075 0.0
C815 C 0.81148 0.37732 0.65286 0.0
C816 C 0.83043 0.39654 0.64535 0.0
C817 C 0.8385 0.42754 0.64504 0.0
C818 C 0.76864 0.29183 0.65884 0.0
C819 C 0.75568 0.27884 0.64974 0.0
C820 C 0.78813 0.32367 0.65981 0.0
C821 C 0.79499 0.34321 0.65171 0.0
C822 C 0.78292 0.32999 0.64255 0.0
C823 C 0.76361 0.29821 0.64157 0.0
H824 H 0.56498 0.37445 0.6631 0.0
H825 H 0.55056 0.38722 0.63284 0.0
H826 H 0.61792 0.41666 0.66197 0.0
H827 H 0.60314 0.43038 0.63177 0.0
H828 H 0.70546 0.4547 0.62966 0.0
H829 H 0.64962 0.42883 0.63089 0.0
H830 H 0.65746 0.46848 0.65948 0.0
H831 H 0.7134 0.49345 0.65837 0.0
C832 C 0.57272 0.38724 0.65634 0.0
C833 C 0.55393 0.37729 0.64802 0.0
C834 C 0.60315 0.41149 0.65566 0.0
C835 C 0.61508 0.42643 0.64669 0.0
C836 C 0.59498 0.41875 0.6387 0.0
C837 C 0.56477 0.39425 0.63934 0.0
C838 C 0.69527 0.45831 0.63613 0.0
C839 C 0.7138 0.47565 0.64398 0.0
C840 C 0.66318 0.44367 0.63683 0.0
C841 C 0.64893 0.44636 0.64533 0.0
C842 C 0.66762 0.46542 0.65291 0.0
C843 C 0.69969 0.47978 0.65225 0.0
H844 H 0.58391 0.13042 0.64119 0.0
H845 H 0.61707 0.18035 0.6682 0.0
H846 H 0.54 0.13884 0.64152 0.0
H847 H 0.57457 0.19063 0.66828 0.0
H848 H 0.51945 0.2173 0.63472 0.0
H849 H 0.54194 0.18489 0.63731 0.0
H850 H 0.52442 0.1829 0.66826 0.0
H851 H 0.50307 0.21673 0.66565 0.0
C852 C 0.58108 0.1422 0.64739 0.0
C853 C 0.60394 0.15509 0.65461 0.0
C854 C 0.55623 0.14747 0.64751 0.0
C855 C 0.55438 0.16654 0.6547 0.0
C856 C 0.57514 0.17594 0.66259 0.0
C857 C 0.5996 0.16999 0.66258 0.0
C858 C 0.51993 0.20957 0.64206 0.0
C859 C 0.51005 0.22008 0.64999 0.0
C860 C 0.53256 0.19059 0.64356 0.0
C861 C 0.53524 0.18127 0.65303 0.0
C862 C 0.52329 0.19006 0.66089 0.0
C863 C 0.51102 0.20942 0.65939 0.0
H864 H 0.69657 0.23061 0.13279 0.0
H865 H 0.70569 0.22006 0.16365 0.0
H866 H 0.64102 0.19866 0.13415 0.0
H867 H 0.64998 0.18697 0.16498 0.0
H868 H 0.55434 0.18367 0.16407 0.0
H869 H 0.60766 0.19557 0.16473 0.0
H870 H 0.59649 0.15045 0.13693 0.0
H871 H 0.54352 0.14005 0.1361 0.0
C872 C 0.68674 0.22091 0.13983 0.0
C873 C 0.70549 0.22831 0.14813 0.0
C874 C 0.65481 0.20223 0.14061 0.0
C875 C 0.64085 0.19017 0.1497 0.0
C876 C 0.65985 0.19621 0.15791 0.0
C877 C 0.69179 0.21519 0.15714 0.0
C878 C 0.56288 0.1751 0.15832 0.0
C879 C 0.54509 0.16146 0.14996 0.0
C880 C 0.59359 0.18201 0.15866 0.0
C881 C 0.60674 0.17489 0.15071 0.0
C882 C 0.58742 0.15724 0.14301 0.0
C883 C 0.55695 0.15087 0.14259 0.0
H884 H 0.82534 0.38995 0.13561 0.0
H885 H 0.8249 0.38259 0.16699 0.0
H886 H 0.8176 0.43358 0.13694 0.0
H887 H 0.81878 0.42786 0.16838 0.0
H888 H 0.74517 0.45813 0.16494 0.0
H889 H 0.77495 0.43223 0.16602 0.0
H890 H 0.82797 0.48278 0.14079 0.0
H891 H 0.79662 0.50737 0.1394 0.0
C892 C 0.82465 0.39835 0.14283 0.0
C893 C 0.82473 0.38217 0.1512 0.0
C894 C 0.8205 0.42376 0.14361 0.0
C895 C 0.8167 0.43394 0.15278 0.0
C896 C 0.82061 0.42006 0.16119 0.0
C897 C 0.82446 0.39428 0.1604 0.0
C898 C 0.76352 0.46411 0.15971 0.0
C899 C 0.76806 0.4842 0.15194 0.0
C900 C 0.78094 0.44946 0.16039 0.0
C901 C 0.8037 0.45495 0.1534 0.0
C902 C 0.81008 0.47728 0.14614 0.0
C903 C 0.79219 0.49147 0.14535 0.0
H904 H 0.50146 0.28177 0.1597 0.0
H905 H 0.53469 0.29297 0.13008 0.0
H906 H 0.52646 0.33765 0.16145 0.0
H907 H 0.56068 0.34846 0.13193 0.0
H908 H 0.60239 0.44671 0.13456 0.0
H909 H 0.55921 0.39407 0.13368 0.0
H910 H 0.57742 0.37848 0.16335 0.0
H911 H 0.61927 0.43171 0.16433 0.0
C912 C 0.51396 0.29616 0.15354 0.0
C913 C 0.51639 0.28297 0.14478 0.0
C914 C 0.52836 0.32821 0.15456 0.0
C915 C 0.54578 0.34774 0.14687 0.0
C916 C 0.54703 0.33434 0.13797 0.0
C917 C 0.53234 0.30238 0.13692 0.0
C918 C 0.59623 0.43229 0.141 0.0
C919 C 0.61416 0.44301 0.14949 0.0
C920 C 0.57178 0.40203 0.14048 0.0
C921 C 0.56542 0.38163 0.14833 0.0
C922 C 0.58151 0.39342 0.15715 0.0
C923 C 0.60555 0.42399 0.15774 0.0
H924 H 0.52058 0.36932 0.03143 0.0
H925 H 0.57778 0.38085 0.00643 0.0
H926 H 0.48886 0.31455 0.0277 0.0
H927 H 0.54748 0.32627 0.00301 0.0
H928 H 0.49914 0.22838 0.99825 0.0
H929 H 0.50401 0.27942 0.99871 0.0
H930 H 0.49872 0.27447 0.03019 0.0
H931 H 0.49236 0.22349 0.02964 0.0
C932 C 0.52617 0.36022 0.02508 0.0
C933 C 0.55209 0.37924 0.01936 0.0
C934 C 0.50805 0.3288 0.02294 0.0
C935 C 0.5159 0.31566 0.01516 0.0
C936 C 0.54037 0.33534 0.009 0.0
C937 C 0.5581 0.36677 0.01104 0.0
C938 C 0.49778 0.23779 0.00522 0.0
C939 C 0.49628 0.22236 0.01392 0.0
C940 C 0.50091 0.26719 0.0055 0.0
C941 C 0.50281 0.28164 0.0145 0.0
C942 C 0.49744 0.2644 0.0231 0.0
C943 C 0.49408 0.23508 0.0228 0.0
H944 H 0.7708 0.2984 1.00042 0.0
H945 H 0.77846 0.24923 0.02512 0.0
H946 H 0.71732 0.25876 0.99835 0.0
H947 H 0.72521 0.20849 0.02276 0.0
H948 H 0.62631 0.18977 0.0286 0.0
H949 H 0.68155 0.21186 0.02716 0.0
H950 H 0.6738 0.20958 0.99574 0.0
H951 H 0.61826 0.18842 0.99723 0.0
C952 C 0.76152 0.27828 0.0051 0.0
C953 C 0.77851 0.27726 0.01309 0.0
C954 C 0.73069 0.25543 0.00392 0.0
C955 C 0.71656 0.23093 0.01062 0.0
C956 C 0.73505 0.22766 0.0177 0.0
C957 C 0.76568 0.25079 0.01899 0.0
C958 C 0.63627 0.1936 0.02138 0.0
C959 C 0.61794 0.18785 0.01304 0.0
C960 C 0.66805 0.20596 0.02053 0.0
C961 C 0.68232 0.21261 0.01131 0.0
C962 C 0.66369 0.20519 0.00295 0.0
C963 C 0.63185 0.19307 0.00381 0.0
H964 H 0.82833 0.44772 0.01651 0.0
H965 H 0.77818 0.39487 0.04176 0.0
H966 H 0.80143 0.47693 0.01737 0.0
H967 H 0.75037 0.42301 0.04239 0.0
H968 H 0.71012 0.47952 0.01311 0.0
H969 H 0.75127 0.46703 0.01369 0.0
H970 H 0.74969 0.46891 0.04519 0.0
H971 H 0.70741 0.47976 0.04454 0.0
C972 C 0.81168 0.44248 0.02229 0.0
C973 C 0.8051 0.41876 0.02901 0.0
C974 C 0.79617 0.45915 0.02275 0.0
C975 C 0.77349 0.45223 0.02988 0.0
C976 C 0.76801 0.42943 0.03688 0.0
C977 C 0.7838 0.41304 0.03649 0.0
C978 C 0.71924 0.47814 0.02014 0.0
C979 C 0.70539 0.48013 0.02878 0.0
C980 C 0.74289 0.471 0.02049 0.0
C981 C 0.75338 0.46624 0.02951 0.0
C982 C 0.74153 0.47144 0.03813 0.0
C983 C 0.71754 0.47796 0.03777 0.0
H984 H 0.29198 0.75 0.87109 0.0
H985 H 0.2841 0.77317 0.84129 0.0
H986 H 0.34777 0.7797 0.86983 0.0
H987 H 0.34007 0.80388 0.84011 0.0
H988 H 0.44665 0.83872 0.86793 0.0
H989 H 0.39356 0.82805 0.86824 0.0
H990 H 0.38052 0.7922 0.83889 0.0
H991 H 0.434 0.80422 0.83847 0.0
C992 C 0.30216 0.76199 0.86433 0.0
C993 C 0.28363 0.75883 0.85625 0.0
C994 C 0.33423 0.77932 0.86362 0.0
C995 C 0.34852 0.79417 0.85484 0.0
C996 C 0.32987 0.79236 0.84693 0.0
C997 C 0.29778 0.77479 0.84761 0.0
C998 C 0.43268 0.82959 0.86143 0.0
C999 C 0.44421 0.82189 0.85322 0.0
C1000 C 0.40219 0.82317 0.86164 0.0
C1001 C 0.38247 0.8084 0.85371 0.0
C1002 C 0.39499 0.80362 0.84513 0.0
C1003 C 0.42571 0.81052 0.84487 0.0
H1004 H 0.17068 0.61602 0.83346 0.0
H1005 H 0.15811 0.59483 0.8642 0.0
H1006 H 0.18095 0.57375 0.83087 0.0
H1007 H 0.16999 0.55426 0.86179 0.0
H1008 H 0.20049 0.48799 0.85793 0.0
H1009 H 0.16611 0.50908 0.85642 0.0
H1010 H 0.22556 0.57176 0.83411 0.0
H1011 H 0.25843 0.54909 0.83521 0.0
C1012 C 0.1692 0.6018 0.83961 0.0
C1013 C 0.16449 0.60932 0.84908 0.0
C1014 C 0.17552 0.5778 0.83816 0.0
C1015 C 0.17747 0.56117 0.84616 0.0
C1016 C 0.16887 0.56637 0.85541 0.0
C1017 C 0.16223 0.58999 0.85683 0.0
C1018 C 0.20575 0.50588 0.85258 0.0
C1019 C 0.2324 0.51737 0.84682 0.0
C1020 C 0.18612 0.51806 0.85172 0.0
C1021 C 0.19325 0.54269 0.84529 0.0
C1022 C 0.21891 0.55266 0.83908 0.0
C1023 C 0.23808 0.5399 0.83977 0.0
H1024 H 0.38511 0.56683 0.83594 0.0
H1025 H 0.3979 0.54863 0.86579 0.0
H1026 H 0.42927 0.61846 0.83724 0.0
H1027 H 0.44362 0.5996 0.86699 0.0
H1028 H 0.47291 0.70236 0.87081 0.0
H1029 H 0.44686 0.64685 0.86903 0.0
H1030 H 0.47977 0.65744 0.83932 0.0
H1031 H 0.50434 0.71327 0.84101 0.0
C1032 C 0.39839 0.57341 0.84264 0.0
C1033 C 0.38792 0.5541 0.85082 0.0
C1034 C 0.42386 0.60311 0.84341 0.0
C1035 C 0.43966 0.61372 0.85234 0.0
C1036 C 0.43137 0.59271 0.86012 0.0
C1037 C 0.40543 0.56336 0.85941 0.0
C1038 C 0.47508 0.69283 0.86397 0.0
C1039 C 0.49011 0.71208 0.856 0.0
C1040 C 0.46032 0.66084 0.86294 0.0
C1041 C 0.46076 0.64736 0.85396 0.0
C1042 C 0.47818 0.66686 0.84626 0.0
C1043 C 0.4924 0.69888 0.84723 0.0
H1044 H 0.42098 0.62817 0.96197 0.0
H1045 H 0.45405 0.62362 0.99066 0.0
H1046 H 0.44874 0.68404 0.96287 0.0
H1047 H 0.48298 0.67975 0.99143 0.0
H1048 H 0.47646 0.76959 0.9948 0.0
H1049 H 0.46858 0.71759 0.99385 0.0
H1050 H 0.49459 0.73197 0.96342 0.0
H1051 H 0.50084 0.7834 0.96432 0.0
C1052 C 0.4349 0.63914 0.96836 0.0
C1053 C 0.43488 0.62149 0.9763 0.0
C1054 C 0.45109 0.67129 0.96886 0.0
C1055 C 0.46797 0.68654 0.97728 0.0
C1056 C 0.46973 0.66881 0.98493 0.0
C1057 C 0.45323 0.63663 0.98447 0.0
C1058 C 0.48147 0.76195 0.98801 0.0
C1059 C 0.48872 0.78018 0.9796 0.0
C1060 C 0.47699 0.7321 0.98744 0.0
C1061 C 0.48019 0.72023 0.97847 0.0
C1062 C 0.49097 0.73999 0.97036 0.0
C1063 C 0.49485 0.76954 0.97089 0.0
H1064 H 0.22885 0.70925 0.00119 0.0
H1065 H 0.21046 0.74311 0.9746 0.0
H1066 H 0.28101 0.75279 0.00142 0.0
H1067 H 0.26203 0.78818 0.97513 0.0
H1068 H 0.37787 0.82633 0.99902 0.0
H1069 H 0.32251 0.80298 0.00176 0.0
H1070 H 0.30709 0.78934 0.97067 0.0
H1071 H 0.362 0.8139 0.96798 0.0
C1072 C 0.23546 0.72702 0.99569 0.0
C1073 C 0.21597 0.72266 0.98778 0.0
C1074 C 0.26551 0.75212 0.9958 0.0
C1075 C 0.27627 0.77357 0.98808 0.0
C1076 C 0.25499 0.77147 0.98098 0.0
C1077 C 0.22527 0.74593 0.98073 0.0
C1078 C 0.36257 0.81883 0.99278 0.0
C1079 C 0.37426 0.82152 0.98329 0.0
C1080 C 0.33081 0.80537 0.99435 0.0
C1081 C 0.31005 0.79389 0.98647 0.0
C1082 C 0.32209 0.79829 0.97695 0.0
C1083 C 0.35377 0.81212 0.97539 0.0
H1084 H 0.20467 0.57584 0.9677 0.0
H1085 H 0.18323 0.56551 0.99847 0.0
H1086 H 0.22917 0.54476 0.96951 0.0
H1087 H 0.20717 0.53367 1.00023 0.0
H1088 H 0.30007 0.53031 0.99955 0.0
H1089 H 0.25951 0.54361 0.99994 0.0
H1090 H 0.22313 0.49491 0.97281 0.0
H1091 H 0.26443 0.48259 0.97228 0.0
C1092 C 0.20475 0.56653 0.97483 0.0
C1093 C 0.19234 0.57351 0.98295 0.0
C1094 C 0.21852 0.54837 0.97585 0.0
C1095 C 0.22008 0.53659 0.98503 0.0
C1096 C 0.20661 0.5426 0.99309 0.0
C1097 C 0.19289 0.56086 0.99206 0.0
C1098 C 0.28262 0.5213 0.9939 0.0
C1099 C 0.2857 0.50594 0.98579 0.0
C1100 C 0.25937 0.52902 0.99409 0.0
C1101 C 0.23867 0.52115 0.98623 0.0
C1102 C 0.23933 0.50216 0.97881 0.0
C1103 C 0.26275 0.49477 0.97856 0.0
H1104 H 0.21727 0.50029 0.49166 0.0
H1105 H 0.23427 0.53129 0.46173 0.0
H1106 H 0.26881 0.50652 0.49256 0.0
H1107 H 0.28569 0.53886 0.46274 0.0
H1108 H 0.37828 0.55186 0.46507 0.0
H1109 H 0.32209 0.5229 0.46431 0.0
H1110 H 0.31774 0.55109 0.49378 0.0
H1111 H 0.37344 0.57851 0.49468 0.0
C1112 C 0.23175 0.50791 0.48523 0.0
C1113 C 0.22194 0.51596 0.4767 0.0
C1114 C 0.26138 0.5117 0.48576 0.0
C1115 C 0.28174 0.52381 0.47779 0.0
C1116 C 0.27079 0.5293 0.46902 0.0
C1117 C 0.24123 0.52527 0.46847 0.0
C1118 C 0.36524 0.55134 0.47144 0.0
C1119 C 0.3803 0.56795 0.47987 0.0
C1120 C 0.33303 0.53481 0.471 0.0
C1121 C 0.31526 0.53501 0.47893 0.0
C1122 C 0.33046 0.55001 0.48756 0.0
C1123 C 0.36257 0.56611 0.48805 0.0
H1124 H 0.47545 0.70856 0.50043 0.0
H1125 H 0.51599 0.73422 0.47177 0.0
H1126 H 0.46131 0.74845 0.4996 0.0
H1127 H 0.50287 0.77495 0.47104 0.0
H1128 H 0.42046 0.7915 0.46623 0.0
H1129 H 0.45263 0.76823 0.46838 0.0
H1130 H 0.47047 0.80002 0.49823 0.0
H1131 H 0.43752 0.82252 0.49616 0.0
C1132 C 0.48275 0.72377 0.49416 0.0
C1133 C 0.49631 0.718 0.48609 0.0
C1134 C 0.47453 0.74664 0.49366 0.0
C1135 C 0.48012 0.76428 0.48511 0.0
C1136 C 0.49736 0.76109 0.47759 0.0
C1137 C 0.50523 0.73804 0.47806 0.0
C1138 C 0.43152 0.79384 0.47321 0.0
C1139 C 0.42603 0.80843 0.48105 0.0
C1140 C 0.45027 0.78076 0.47443 0.0
C1141 C 0.46417 0.78222 0.4835 0.0
C1142 C 0.45981 0.79811 0.4912 0.0
C1143 C 0.4409 0.811 0.49 0.0
H1144 H 0.28632 0.76672 0.49889 0.0
H1145 H 0.2557 0.78746 0.47204 0.0
H1146 H 0.24225 0.71488 0.49865 0.0
H1147 H 0.21012 0.7362 0.47208 0.0
H1148 H 0.18131 0.6352 0.46489 0.0
H1149 H 0.20689 0.69026 0.46764 0.0
H1150 H 0.19184 0.67454 0.49868 0.0
H1151 H 0.16768 0.61915 0.49588 0.0
C1152 C 0.26918 0.76067 0.49322 0.0
C1153 C 0.27458 0.78078 0.4854 0.0
C1154 C 0.24376 0.73081 0.49305 0.0
C1155 C 0.22298 0.7208 0.48515 0.0
C1156 C 0.22625 0.74262 0.47807 0.0
C1157 C 0.2521 0.77216 0.47811 0.0
C1158 C 0.18295 0.64347 0.47229 0.0
C1159 C 0.17305 0.62291 0.48018 0.0
C1160 C 0.19743 0.67521 0.47389 0.0
C1161 C 0.20187 0.68718 0.48343 0.0
C1162 C 0.18958 0.66633 0.49126 0.0
C1163 C 0.1756 0.63455 0.48966 0.0
H1164 H 0.22202 0.70741 0.34068 0.0
H1165 H 0.25462 0.70249 0.36942 0.0
H1166 H 0.19094 0.65132 0.3402 0.0
H1167 H 0.22455 0.6466 0.36882 0.0
H1168 H 0.18595 0.55528 0.33816 0.0
H1169 H 0.20042 0.60951 0.33839 0.0
H1170 H 0.17529 0.6016 0.36884 0.0
H1171 H 0.1622 0.54773 0.36867 0.0
C1172 C 0.22248 0.69436 0.34692 0.0
C1173 C 0.24103 0.70939 0.35506 0.0
C1174 C 0.2047 0.6622 0.34663 0.0
C1175 C 0.20522 0.64434 0.35445 0.0
C1176 C 0.22304 0.65952 0.36272 0.0
C1177 C 0.24059 0.69165 0.36304 0.0
C1178 C 0.18255 0.5649 0.34481 0.0
C1179 C 0.17345 0.54753 0.35343 0.0
C1180 C 0.19088 0.59605 0.34496 0.0
C1181 C 0.1898 0.61017 0.35371 0.0
C1182 C 0.17735 0.59172 0.36206 0.0
C1183 C 0.16952 0.56078 0.36194 0.0
H1184 H 0.28493 0.48532 0.36881 0.0
H1185 H 0.285 0.52002 0.33996 0.0
H1186 H 0.34116 0.5122 0.36858 0.0
H1187 H 0.34073 0.54792 0.33991 0.0
H1188 H 0.44069 0.60111 0.34063 0.0
H1189 H 0.39046 0.55391 0.34 0.0
H1190 H 0.37668 0.56468 0.37054 0.0
H1191 H 0.42684 0.61045 0.37125 0.0
C1192 C 0.29691 0.49834 0.36237 0.0
C1193 C 0.28052 0.50112 0.3545 0.0
C1194 C 0.32915 0.51384 0.36225 0.0
C1195 C 0.34563 0.53282 0.35431 0.0
C1196 C 0.32904 0.53342 0.34613 0.0
C1197 C 0.2969 0.51762 0.3462 0.0
C1198 C 0.42727 0.59275 0.34726 0.0
C1199 C 0.43737 0.60992 0.35592 0.0
C1200 C 0.39838 0.56583 0.34689 0.0
C1201 C 0.37909 0.55578 0.35516 0.0
C1202 C 0.39072 0.57142 0.36402 0.0
C1203 C 0.41952 0.59805 0.3644 0.0
H1204 H 0.41159 0.86225 0.35732 0.0
H1205 H 0.3682 0.8022 0.33275 0.0
H1206 H 0.45472 0.85276 0.35622 0.0
H1207 H 0.40985 0.79079 0.33203 0.0
H1208 H 0.47979 0.76214 0.33429 0.0
H1209 H 0.45873 0.79589 0.3309 0.0
H1210 H 0.45334 0.80848 0.36189 0.0
H1211 H 0.4755 0.77628 0.36517 0.0
C1212 C 0.4119 0.84791 0.35146 0.0
C1213 C 0.38646 0.83256 0.34522 0.0
C1214 C 0.43634 0.84204 0.35091 0.0
C1215 C 0.43515 0.81986 0.34434 0.0
C1216 C 0.41166 0.80784 0.33724 0.0
C1217 C 0.38765 0.81443 0.33763 0.0
C1218 C 0.47456 0.77262 0.34035 0.0
C1219 C 0.47886 0.76615 0.35001 0.0
C1220 C 0.46245 0.79195 0.33841 0.0
C1221 C 0.45405 0.8049 0.3461 0.0
C1222 C 0.45998 0.79959 0.35573 0.0
C1223 C 0.47239 0.78067 0.35765 0.0
H1224 H 0.1624 0.22494 0.26818 0.0
H1225 H 0.15783 0.13656 0.26908 0.0
H1226 H 0.1767 0.22993 0.25081 0.0
H1227 H 0.17321 0.1421 0.25199 0.0
H1228 H 0.22086 0.17284 0.22225 0.0
H1229 H 0.22136 0.18311 0.23983 0.0
H1230 H 0.13815 0.18789 0.23652 0.0
H1231 H 0.13698 0.17651 0.21916 0.0
C1232 C 0.16519 0.20704 0.26472 0.0
C1233 C 0.15874 0.18024 0.26988 0.0
C1234 C 0.1734 0.2099 0.25484 0.0
C1235 C 0.1763 0.1865 0.25014 0.0
C1236 C 0.17153 0.16061 0.25549 0.0
C1237 C 0.16246 0.15734 0.26522 0.0
C1238 C 0.20316 0.17681 0.22528 0.0
C1239 C 0.17876 0.17368 0.21944 0.0
C1240 C 0.20345 0.18267 0.23528 0.0
C1241 C 0.17989 0.18647 0.23946 0.0
C1242 C 0.15675 0.18545 0.23345 0.0
C1243 C 0.15598 0.17871 0.22355 0.0
H1244 H 0.89489 0.058 0.23395 0.0
H1245 H 0.79911 0.01629 0.22564 0.0
H1246 H 0.87971 0.03566 0.25013 0.0
H1247 H 0.78378 0.99331 0.24195 0.0
H1248 H 0.77792 0.97794 0.27677 0.0
H1249 H 0.78589 0.00276 0.26072 0.0
H1250 H 0.85642 0.97976 0.2543 0.0
H1251 H 0.84878 0.95551 0.27015 0.0
C1252 C 0.87054 0.04456 0.23566 0.0
C1253 C 0.8482 0.03858 0.22851 0.0
C1254 C 0.86183 0.03155 0.2449 0.0
C1255 C 0.83058 0.01202 0.2472 0.0
C1256 C 0.80804 0.00813 0.24035 0.0
C1257 C 0.81681 0.02137 0.23104 0.0
C1258 C 0.79461 0.97765 0.27181 0.0
C1259 C 0.81299 0.96512 0.27475 0.0
C1260 C 0.79925 0.99196 0.26267 0.0
C1261 C 0.82237 0.99393 0.25639 0.0
C1262 C 0.83908 0.97942 0.2591 0.0
C1263 C 0.83451 0.96529 0.26816 0.0
H1264 H 0.98751 0.86492 0.27908 0.0
H1265 H 0.03384 0.81213 0.27607 0.0
H1266 H 0.97133 0.8548 0.26227 0.0
H1267 H 0.0184 0.80283 0.25881 0.0
H1268 H 0.95987 0.77353 0.22983 0.0
H1269 H 0.97416 0.77752 0.24714 0.0
H1270 H -0.00301 0.87297 0.24712 0.0
H1271 H 0.98194 0.86876 0.23025 0.0
C1272 C 0.99457 0.85138 0.27478 0.0
C1273 C 0.01246 0.8398 0.27887 0.0
C1274 C 0.9853 0.8456 0.2651 0.0
C1275 C 0.99407 0.82852 0.25912 0.0
C1276 C 0.01125 0.81606 0.26324 0.0
C1277 C 0.02029 0.82157 0.27307 0.0
C1278 C 0.96771 0.79521 0.23359 0.0
C1279 C 0.96927 0.82065 0.2287 0.0
C1280 C 0.97613 0.79757 0.24347 0.0
C1281 C 0.98632 0.82545 0.24856 0.0
C1282 C 0.98847 0.8509 0.24353 0.0
C1283 C 0.97987 0.84848 0.2338 0.0
H1284 H 0.82015 0.78551 0.72882 0.0
H1285 H 0.8693 0.88457 0.72536 0.0
H1286 H 0.81135 0.79178 0.74608 0.0
H1287 H 0.85969 0.89071 0.74225 0.0
H1288 H 0.87592 0.89422 0.77445 0.0
H1289 H 0.87933 0.88476 0.75737 0.0
H1290 H 0.78525 0.8093 0.7578 0.0
H1291 H 0.78208 0.81831 0.77526 0.0
C1292 C 0.82887 0.80852 0.73172 0.0
C1293 C 0.84592 0.83454 0.72578 0.0
C1294 C 0.82363 0.81212 0.74157 0.0
C1295 C 0.8352 0.84178 0.74558 0.0
C1296 C 0.85115 0.86757 0.73949 0.0
C1297 C 0.85662 0.86401 0.72977 0.0
C1298 C 0.85577 0.8757 0.77095 0.0
C1299 C 0.82862 0.85716 0.77623 0.0
C1300 C 0.85771 0.87034 0.7611 0.0
C1301 C 0.83246 0.84647 0.75617 0.0
C1302 C 0.80516 0.82779 0.76141 0.0
C1303 C 0.80325 0.83311 0.77137 0.0
H1304 H 0.17915 0.95787 0.77232 0.0
H1305 H 0.10553 0.97921 0.77283 0.0
H1306 H 0.18838 0.9728 0.75506 0.0
H1307 H 0.11543 0.99512 0.75601 0.0
H1308 H 0.11477 0.9906 0.72385 0.0
H1309 H 0.10828 0.97294 0.74051 0.0
H1310 H 0.20719 0.01688 0.74386 0.0
H1311 H 0.21369 0.0336 0.72676 0.0
C1312 C 0.16492 0.9656 0.76876 0.0
C1313 C 0.14134 0.96694 0.77392 0.0
C1314 C 0.17039 0.97445 0.75891 0.0
C1315 C 0.15247 0.98491 0.7541 0.0
C1316 C 0.1292 0.98645 0.75936 0.0
C1317 C 0.12357 0.97738 0.76907 0.0
C1318 C 0.13526 0.99671 0.72811 0.0
C1319 C 0.1648 0.01397 0.72402 0.0
C1320 C 0.13152 0.98659 0.73772 0.0
C1321 C 0.15721 0.99391 0.74362 0.0
C1322 C 0.18689 0.01073 0.73951 0.0
C1323 C 0.19065 0.02055 0.72975 0.0
H1324 H 0.96009 0.18234 0.72662 0.0
H1325 H 0.96998 0.10156 0.72872 0.0
H1326 H 0.97065 0.19148 0.74418 0.0
H1327 H 0.98099 0.11094 0.74592 0.0
H1328 H 0.9689 0.11334 0.77759 0.0
H1329 H 0.95353 0.10807 0.76064 0.0
H1330 H 0.01367 0.20594 0.75636 0.0
H1331 H 0.02855 0.21143 0.77364 0.0
C1332 C 0.96434 0.1665 0.73081 0.0
C1333 C 0.96396 0.14109 0.72629 0.0
C1334 C 0.9706 0.17186 0.74083 0.0
C1335 C 0.97637 0.15177 0.74646 0.0
C1336 C 0.97601 0.12652 0.74187 0.0
C1337 C 0.96982 0.12122 0.73196 0.0
C1338 C 0.9788 0.13385 0.77308 0.0
C1339 C 0.00038 0.16273 0.77691 0.0
C1340 C 0.97 0.1308 0.76334 0.0
C1341 C 0.98283 0.15647 0.75709 0.0
C1342 C 0.00336 0.18573 0.761 0.0
C1343 C 0.012 0.18886 0.77086 0.0
H1344 H 0.81243 0.50486 0.55852 0.0
H1345 H 0.89771 0.50347 0.56064 0.0
H1346 H 0.81618 0.51884 0.57571 0.0
H1347 H 0.90087 0.51639 0.5781 0.0
H1348 H 0.84232 0.47397 0.60852 0.0
H1349 H 0.85693 0.47794 0.59138 0.0
H1350 H 0.85465 0.56273 0.58893 0.0
H1351 H 0.84105 0.55933 0.60632 0.0
C1352 C 0.83226 0.50808 0.56266 0.0
C1353 C 0.85471 0.50298 0.55833 0.0
C1354 C 0.83452 0.51632 0.57246 0.0
C1355 C 0.85887 0.51881 0.57818 0.0
C1356 C 0.88203 0.51483 0.57378 0.0
C1357 C 0.88023 0.50744 0.56385 0.0
C1358 C 0.84574 0.49388 0.60438 0.0
C1359 C 0.84041 0.51626 0.60867 0.0
C1360 C 0.85435 0.49627 0.59462 0.0
C1361 C 0.85701 0.52068 0.58889 0.0
C1362 C 0.85296 0.54383 0.59326 0.0
C1363 C 0.84518 0.54189 0.60315 0.0
H1364 H 0.48586 0.36565 0.5608 0.0
H1365 H 0.527 0.30852 0.55656 0.0
H1366 H 0.47502 0.34863 0.57788 0.0
H1367 H 0.51519 0.29074 0.57323 0.0
H1368 H 0.53268 0.30064 0.6054 0.0
H1369 H 0.53661 0.31435 0.5884 0.0
H1370 H 0.44606 0.30501 0.58943 0.0
H1371 H 0.44247 0.29202 0.60684 0.0
C1372 C 0.49228 0.3493 0.56349 0.0
C1373 C 0.50793 0.33899 0.55743 0.0
C1374 C 0.48588 0.33937 0.57322 0.0
C1375 C 0.49474 0.31873 0.57697 0.0
C1376 C 0.50887 0.30733 0.57069 0.0
C1377 C 0.51563 0.31753 0.5611 0.0
C1378 C 0.51338 0.30122 0.60205 0.0
C1379 C 0.48716 0.29504 0.60749 0.0
C1380 C 0.5156 0.30897 0.59224 0.0
C1381 C 0.49152 0.31048 0.58749 0.0
C1382 C 0.46507 0.30417 0.59289 0.0
C1383 C 0.46288 0.29646 0.60282 0.0
H1384 H 0.62001 0.10834 0.56034 0.0
H1385 H 0.6198 0.19436 0.56244 0.0
H1386 H 0.63329 0.11203 0.57769 0.0
H1387 H 0.63409 0.19866 0.5794 0.0
H1388 H 0.63362 0.18949 0.6113 0.0
H1389 H 0.61475 0.17774 0.59474 0.0
H1390 H 0.67559 0.14157 0.58899 0.0
H1391 H 0.69352 0.15212 0.60596 0.0
C1392 C 0.62248 0.12781 0.56451 0.0
C1393 C 0.61863 0.15093 0.56002 0.0
C1394 C 0.63043 0.13012 0.57441 0.0
C1395 C 0.63469 0.15559 0.57998 0.0
C1396 C 0.63038 0.17835 0.57545 0.0
C1397 C 0.62228 0.17595 0.56566 0.0
C1398 C 0.64305 0.17904 0.60653 0.0
C1399 C 0.66548 0.17224 0.60989 0.0
C1400 C 0.63225 0.17233 0.59699 0.0
C1401 C 0.64403 0.15924 0.59043 0.0
C1402 C 0.66589 0.15154 0.59385 0.0
C1403 C 0.67638 0.15781 0.60353 0.0
H1404 H 0.5548 0.20647 0.05657 0.0
H1405 H 0.47784 0.11322 0.05532 0.0
H1406 H 0.54543 0.20912 0.0737 0.0
H1407 H 0.46885 0.11566 0.07284 0.0
H1408 H 0.44646 0.15167 0.10209 0.0
H1409 H 0.45218 0.14265 0.08479 0.0
H1410 H 0.55094 0.18749 0.08861 0.0
H1411 H 0.54539 0.19728 0.10553 0.0
C1412 C 0.53603 0.1863 0.05998 0.0
C1413 C 0.51721 0.15953 0.05457 0.0
C1414 C 0.53073 0.1878 0.06986 0.0
C1415 C 0.5066 0.16249 0.07468 0.0
C1416 C 0.48756 0.13559 0.06931 0.0
C1417 C 0.49287 0.13409 0.05932 0.0
C1418 C 0.46931 0.15951 0.09918 0.0
C1419 C 0.4955 0.17575 0.10511 0.0
C1420 C 0.47257 0.15416 0.08932 0.0
C1421 C 0.50207 0.1648 0.08529 0.0
C1422 C 0.52796 0.17971 0.09139 0.0
C1423 C 0.52475 0.1853 0.10113 0.0
H1424 H 0.88863 0.37225 0.06279 0.0
H1425 H 0.8065 0.2831 0.05997 0.0
H1426 H 0.89024 0.36294 0.08031 0.0
H1427 H 0.8087 0.27345 0.07732 0.0
H1428 H 0.83061 0.2626 0.10917 0.0
H1429 H 0.84532 0.27088 0.09182 0.0
H1430 H 0.84409 0.35646 0.09237 0.0
H1431 H 0.8284 0.34768 0.10944 0.0
C1432 C 0.87163 0.35029 0.06585 0.0
C1433 C 0.84729 0.32848 0.0601 0.0
C1434 C 0.87253 0.34499 0.07584 0.0
C1435 C 0.84963 0.31745 0.08012 0.0
C1436 C 0.8268 0.29469 0.07418 0.0
C1437 C 0.82544 0.30031 0.06428 0.0
C1438 C 0.83407 0.28337 0.10559 0.0
C1439 C 0.82815 0.30438 0.11055 0.0
C1440 C 0.84248 0.28811 0.09571 0.0
C1441 C 0.84605 0.31443 0.09083 0.0
C1442 C 0.84191 0.33624 0.096 0.0
C1443 C 0.83267 0.33107 0.10573 0.0
H1444 H 0.70413 0.48208 0.10525 0.0
H1445 H 0.67887 0.55059 0.11244 0.0
H1446 H 0.67966 0.47458 0.08943 0.0
H1447 H 0.65413 0.54291 0.0964 0.0
H1448 H 0.64149 0.52953 0.06098 0.0
H1449 H 0.66503 0.5456 0.07719 0.0
H1450 H 0.62171 0.45015 0.08598 0.0
H1451 H 0.59848 0.43414 0.06993 0.0
C1452 C 0.69382 0.49598 0.10338 0.0
C1453 C 0.69311 0.51666 0.11015 0.0
C1454 C 0.6796 0.49149 0.09434 0.0
C1455 C 0.6643 0.50757 0.09181 0.0
C1456 C 0.66557 0.53006 0.09822 0.0
C1457 C 0.67985 0.53454 0.10736 0.0
C1458 C 0.63624 0.51209 0.06649 0.0
C1459 C 0.61848 0.48055 0.06415 0.0
C1460 C 0.64983 0.5213 0.07573 0.0
C1461 C 0.64581 0.49905 0.08272 0.0
C1462 C 0.62579 0.46774 0.08064 0.0
C1463 C 0.6123 0.45859 0.07147 0.0
H1464 H 0.4353 0.83173 0.93578 0.0
H1465 H 0.53083 0.88769 0.94413 0.0
H1466 H 0.45094 0.82617 0.91948 0.0
H1467 H 0.54665 0.88169 0.92768 0.0
H1468 H 0.55079 0.87315 0.89247 0.0
H1469 H 0.54296 0.88948 0.90864 0.0
H1470 H 0.47664 0.79483 0.91554 0.0
H1471 H 0.48417 0.77871 0.89959 0.0
C1472 C 0.45968 0.84345 0.93405 0.0
C1473 C 0.48185 0.85981 0.94124 0.0
C1474 C 0.46864 0.84009 0.92474 0.0
C1475 C 0.5 0.85279 0.92242 0.0
C1476 C 0.52232 0.87153 0.92932 0.0
C1477 C 0.51327 0.87506 0.93869 0.0
C1478 C 0.53511 0.85586 0.89756 0.0
C1479 C 0.51777 0.82472 0.89474 0.0
C1480 C 0.53055 0.86522 0.90677 0.0
C1481 C 0.50857 0.8435 0.91321 0.0
C1482 C 0.49308 0.81218 0.91061 0.0
C1483 C 0.49757 0.80293 0.9015 0.0
H1484 H 0.19468 0.6938 0.94347 0.0
H1485 H 0.10814 0.60818 0.94175 0.0
H1486 H 0.19095 0.70327 0.9262 0.0
H1487 H 0.10502 0.6172 0.92424 0.0
H1488 H 0.16148 0.63242 0.89328 0.0
H1489 H 0.14929 0.62233 0.9106 0.0
H1490 H 0.15034 0.70871 0.91333 0.0
H1491 H 0.16144 0.71835 0.89579 0.0
C1492 C 0.17469 0.67716 0.93939 0.0
C1493 C 0.15179 0.65015 0.94388 0.0
C1494 C 0.17244 0.68274 0.92955 0.0
C1495 C 0.14763 0.66105 0.92395 0.0
C1496 C 0.12423 0.63435 0.92847 0.0
C1497 C 0.12603 0.62918 0.93844 0.0
C1498 C 0.15838 0.64891 0.89753 0.0
C1499 C 0.16254 0.67623 0.89326 0.0
C1500 C 0.15118 0.64301 0.9074 0.0
C1501 C 0.14879 0.66469 0.91324 0.0
C1502 C 0.15187 0.69158 0.90892 0.0
C1503 C 0.15821 0.69708 0.89893 0.0
H1504 H 0.29911 0.44405 0.89023 0.0
H1505 H 0.29765 0.52925 0.89322 0.0
H1506 H 0.30986 0.4452 0.90775 0.0
H1507 H 0.30903 0.53082 0.91038 0.0
H1508 H 0.30401 0.51743 0.94196 0.0
H1509 H 0.286 0.50543 0.92528 0.0
H1510 H 0.35205 0.47573 0.91958 0.0
H1511 H 0.36937 0.4867 0.93663 0.0
C1512 C 0.30073 0.46277 0.89463 0.0
C1513 C 0.29741 0.48649 0.89035 0.0
C1514 C 0.30717 0.46359 0.90463 0.0
C1515 C 0.31016 0.48802 0.91049 0.0
C1516 C 0.30629 0.51132 0.90617 0.0
C1517 C 0.29991 0.51051 0.89627 0.0
C1518 C 0.31461 0.50813 0.93718 0.0
C1519 C 0.33853 0.50358 0.94053 0.0
C1520 C 0.3043 0.50129 0.9276 0.0
C1521 C 0.31803 0.49027 0.92102 0.0
C1522 C 0.34095 0.48416 0.92448 0.0
C1523 C 0.35102 0.4906 0.9342 0.0
H1524 H 0.15894 0.55485 0.43311 0.0
H1525 H 0.10731 0.46073 0.4433 0.0
H1526 H 0.16389 0.53672 0.41714 0.0
H1527 H 0.11245 0.44249 0.42714 0.0
H1528 H 0.11893 0.43733 0.39113 0.0
H1529 H 0.10232 0.44561 0.4072 0.0
H1530 H 0.19712 0.50955 0.4146 0.0
H1531 H 0.21363 0.50141 0.39879 0.0
C1532 C 0.14796 0.53021 0.43186 0.0
C1533 C 0.13311 0.50923 0.43949 0.0
C1534 C 0.15091 0.51986 0.42273 0.0
C1535 C 0.13915 0.48828 0.42101 0.0
C1536 C 0.12181 0.46696 0.42832 0.0
C1537 C 0.11879 0.4774 0.43754 0.0
C1538 C 0.1362 0.45248 0.39632 0.0
C1539 C 0.16754 0.46905 0.39366 0.0
C1540 C 0.12668 0.45728 0.40547 0.0
C1541 C 0.14843 0.47875 0.412 0.0
C1542 C 0.17985 0.49338 0.40959 0.0
C1543 C 0.18929 0.48859 0.40055 0.0
H1544 H 0.47564 0.70922 0.39796 0.0
H1545 H 0.55235 0.69453 0.39257 0.0
H1546 H 0.47606 0.69726 0.41498 0.0
H1547 H 0.55336 0.68318 0.40995 0.0
H1548 H 0.50974 0.62335 0.43881 0.0
H1549 H 0.52111 0.64218 0.4219 0.0
H1550 H 0.50505 0.71678 0.42951 0.0
H1551 H 0.49234 0.69718 0.44603 0.0
C1552 C 0.49305 0.70399 0.40046 0.0
C1553 C 0.51396 0.70284 0.39391 0.0
C1554 C 0.49343 0.69729 0.41027 0.0
C1555 C 0.51488 0.68941 0.41388 0.0
C1556 C 0.53644 0.689 0.40739 0.0
C1557 C 0.53607 0.6958 0.39748 0.0
C1558 C 0.50903 0.64392 0.43682 0.0
C1559 C 0.49946 0.65841 0.4436 0.0
C1560 C 0.51569 0.65483 0.42718 0.0
C1561 C 0.51333 0.68062 0.42431 0.0
C1562 C 0.50616 0.69633 0.43138 0.0
C1563 C 0.49894 0.68514 0.44086 0.0
H1564 H 0.30464 0.80227 0.44147 0.0
H1565 H 0.38938 0.88962 0.43965 0.0
H1566 H 0.29545 0.80506 0.42412 0.0
H1567 H 0.38064 0.89181 0.42207 0.0
H1568 H 0.36767 0.83555 0.39132 0.0
H1569 H 0.37704 0.84815 0.40864 0.0
H1570 H 0.28911 0.84398 0.41099 0.0
H1571 H 0.28014 0.83242 0.39347 0.0
C1572 C 0.32113 0.82223 0.43736 0.0
C1573 C 0.34782 0.84564 0.44185 0.0
C1574 C 0.31572 0.82393 0.42747 0.0
C1575 C 0.33726 0.8487 0.42182 0.0
C1576 C 0.36362 0.87261 0.42633 0.0
C1577 C 0.36862 0.87134 0.43634 0.0
C1578 C 0.35065 0.83801 0.39549 0.0
C1579 C 0.32311 0.83285 0.39111 0.0
C1580 C 0.35614 0.84545 0.40537 0.0
C1581 C 0.33384 0.84711 0.4111 0.0
C1582 C 0.3067 0.84301 0.40667 0.0
C1583 C 0.30159 0.83641 0.39669 0.0
H1584 H 0.27747 0.18664 0.17796 0.0
H1585 H 0.23759 0.14056 0.15073 0.0
H1586 H 0.3244 0.18537 0.17423 0.0
H1587 H 0.28382 0.13807 0.14718 0.0
H1588 H 0.38414 0.16528 0.1402 0.0
H1589 H 0.33659 0.16613 0.14301 0.0
H1590 H 0.34115 0.14859 0.17365 0.0
H1591 H 0.3894 0.14905 0.17088 0.0
C1592 C 0.27884 0.1765 0.17114 0.0
C1593 C 0.25383 0.1637 0.16465 0.0
C1594 C 0.30556 0.17536 0.16905 0.0
C1595 C 0.3077 0.16107 0.16049 0.0
C1596 C 0.2831 0.1494 0.15382 0.0
C1597 C 0.25655 0.15085 0.15586 0.0
C1598 C 0.37463 0.16096 0.1475 0.0
C1599 C 0.39056 0.15726 0.15533 0.0
C1600 C 0.34738 0.16154 0.14912 0.0
C1601 C 0.33531 0.15805 0.15859 0.0
C1602 C 0.35028 0.15232 0.16631 0.0
C1603 C 0.3777 0.15213 0.1647 0.0
H1604 H 0.80747 0.0821 0.16456 0.0
H1605 H 0.83592 0.11506 0.19396 0.0
H1606 H 0.80662 0.1291 0.16062 0.0
H1607 H 0.83618 0.16253 0.18993 0.0
H1608 H 0.80836 0.23364 0.18079 0.0
H1609 H 0.80683 0.1863 0.18575 0.0
H1610 H 0.84459 0.18201 0.15785 0.0
H1611 H 0.84501 0.22884 0.15274 0.0
C1612 C 0.81306 0.09918 0.17023 0.0
C1613 C 0.82187 0.09494 0.17955 0.0
C1614 C 0.81304 0.12633 0.16793 0.0
C1615 C 0.8221 0.14994 0.17489 0.0
C1616 C 0.82905 0.14484 0.18439 0.0
C1617 C 0.82879 0.11754 0.18672 0.0
C1618 C 0.81684 0.2229 0.17576 0.0
C1619 C 0.82664 0.2349 0.16634 0.0
C1620 C 0.81591 0.19568 0.17861 0.0
C1621 C 0.82502 0.18 0.17213 0.0
C1622 C 0.83655 0.19302 0.16292 0.0
C1623 C 0.83723 0.22012 0.16003 0.0
H1624 H 0.89558 0.7114 0.18603 0.0
H1625 H 0.8986 0.75098 0.15778 0.0
H1626 H 0.84841 0.66469 0.18135 0.0
H1627 H 0.85085 0.70502 0.15326 0.0
H1628 H 0.77774 0.60555 0.14559 0.0
H1629 H 0.82602 0.65221 0.1493 0.0
H1630 H 0.79563 0.64898 0.179 0.0
H1631 H 0.7479 0.60152 0.17536 0.0
C1632 C 0.88637 0.70998 0.17879 0.0
C1633 C 0.90079 0.7349 0.1723 0.0
C1634 C 0.85907 0.6834 0.17614 0.0
C1635 C 0.8454 0.68131 0.167 0.0
C1636 C 0.86071 0.7057 0.16034 0.0
C1637 C 0.88818 0.7321 0.16294 0.0
C1638 C 0.78111 0.61516 0.15286 0.0
C1639 C 0.75908 0.59981 0.1602 0.0
C1640 C 0.80888 0.64191 0.15501 0.0
C1641 C 0.81504 0.65409 0.16451 0.0
C1642 C 0.79209 0.63973 0.17168 0.0
C1643 C 0.7645 0.61278 0.16957 0.0
H1644 H 0.1795 0.41297 0.32186 0.0
H1645 H 0.13802 0.36721 0.349 0.0
H1646 H 0.18073 0.36752 0.31635 0.0
H1647 H 0.13794 0.32106 0.3433 0.0
H1648 H 0.17574 0.25876 0.33632 0.0
H1649 H 0.17492 0.30531 0.34089 0.0
H1650 H 0.15303 0.31577 0.31114 0.0
H1651 H 0.15522 0.26993 0.30652 0.0
C1652 C 0.16983 0.39287 0.32655 0.0
C1653 C 0.15886 0.39377 0.33591 0.0
C1654 C 0.17056 0.36674 0.32338 0.0
C1655 C 0.16 0.34078 0.32944 0.0
C1656 C 0.14714 0.341 0.33855 0.0
C1657 C 0.14675 0.36728 0.34177 0.0
C1658 C 0.1714 0.27139 0.33072 0.0
C1659 C 0.16557 0.26072 0.32107 0.0
C1660 C 0.17044 0.29782 0.33336 0.0
C1661 C 0.16319 0.31395 0.32644 0.0
C1662 C 0.1588 0.30404 0.31667 0.0
C1663 C 0.16016 0.2778 0.31401 0.0
H1664 H 0.59605 0.74198 0.32929 0.0
H1665 H 0.59872 0.77393 0.35872 0.0
H1666 H 0.64349 0.78961 0.32556 0.0
H1667 H 0.64549 0.82203 0.35489 0.0
H1668 H 0.74501 0.89349 0.34622 0.0
H1669 H 0.69877 0.84635 0.35102 0.0
H1670 H 0.6583 0.84245 0.32285 0.0
H1671 H 0.70518 0.88907 0.31791 0.0
C1672 C 0.60702 0.75899 0.335 0.0
C1673 C 0.59362 0.75423 0.34429 0.0
C1674 C 0.63395 0.78651 0.33282 0.0
C1675 C 0.6479 0.80999 0.33985 0.0
C1676 C 0.63541 0.80446 0.3493 0.0
C1677 C 0.60863 0.77679 0.35151 0.0
C1678 C 0.72603 0.88292 0.34111 0.0
C1679 C 0.72886 0.8949 0.33165 0.0
C1680 C 0.69949 0.85581 0.34386 0.0
C1681 C 0.67505 0.84022 0.33725 0.0
C1682 C 0.67709 0.85337 0.32802 0.0
C1683 C 0.70376 0.88036 0.32523 0.0
H1684 H 0.10063 0.85337 0.34834 0.0
H1685 H 0.09173 0.8072 0.32092 0.0
H1686 H 0.14877 0.85427 0.35153 0.0
H1687 H 0.13921 0.80667 0.32432 0.0
H1688 H 0.24016 0.84031 0.32699 0.0
H1689 H 0.19272 0.84173 0.32458 0.0
H1690 H 0.17307 0.82593 0.35541 0.0
H1691 H 0.22129 0.82606 0.35784 0.0
C1692 C 0.10855 0.84265 0.3431 0.0
C1693 C 0.09246 0.83032 0.33435 0.0
C1694 C 0.13623 0.84319 0.34494 0.0
C1695 C 0.14823 0.831 0.33812 0.0
C1696 C 0.13116 0.81711 0.32961 0.0
C1697 C 0.1037 0.81698 0.32771 0.0
C1698 C 0.22598 0.83781 0.33327 0.0
C1699 C 0.23438 0.83308 0.34259 0.0
C1700 C 0.19855 0.83814 0.33188 0.0
C1701 C 0.17864 0.83323 0.33976 0.0
C1702 C 0.18784 0.82995 0.34917 0.0
C1703 C 0.21556 0.8301 0.35058 0.0
H1704 H 0.72943 0.84194 0.81175 0.0
H1705 H 0.73075 0.81497 0.84158 0.0
H1706 H 0.68297 0.84445 0.81511 0.0
H1707 H 0.68373 0.8164 0.84487 0.0
H1708 H 0.6229 0.85546 0.85154 0.0
H1709 H 0.66983 0.85543 0.84689 0.0
H1710 H 0.62939 0.81615 0.81895 0.0
H1711 H 0.58303 0.81727 0.82345 0.0
C1712 C 0.71929 0.83567 0.81895 0.0
C1713 C 0.73382 0.8284 0.82642 0.0
C1714 C 0.69272 0.83725 0.82089 0.0
C1715 C 0.68001 0.83132 0.83032 0.0
C1716 C 0.69348 0.82209 0.83761 0.0
C1717 C 0.72017 0.82079 0.83569 0.0
C1718 C 0.62433 0.84753 0.84432 0.0
C1719 C 0.59917 0.83617 0.8379 0.0
C1720 C 0.65105 0.84707 0.8417 0.0
C1721 C 0.65306 0.83502 0.83264 0.0
C1722 C 0.62865 0.82557 0.82598 0.0
C1723 C 0.60205 0.82627 0.82857 0.0
H1724 H 0.18479 0.76298 0.823 0.0
H1725 H 0.14347 0.76352 0.85059 0.0
H1726 H 0.18656 0.81071 0.81842 0.0
H1727 H 0.14414 0.81078 0.84585 0.0
H1728 H 0.18252 0.91187 0.84031 0.0
H1729 H 0.18209 0.86406 0.84396 0.0
H1730 H 0.15775 0.83487 0.81405 0.0
H1731 H 0.1593 0.88317 0.81033 0.0
C1732 C 0.17536 0.77288 0.828 0.0
C1733 C 0.16416 0.75956 0.8372 0.0
C1734 C 0.1764 0.80032 0.82537 0.0
C1735 C 0.16601 0.81493 0.83184 0.0
C1736 C 0.15314 0.8006 0.8408 0.0
C1737 C 0.15234 0.77327 0.84348 0.0
C1738 C 0.17772 0.89552 0.83447 0.0
C1739 C 0.1709 0.90126 0.82504 0.0
C1740 C 0.17702 0.8679 0.83659 0.0
C1741 C 0.16918 0.84528 0.82935 0.0
C1742 C 0.16395 0.85177 0.8198 0.0
C1743 C 0.16495 0.87955 0.81765 0.0
H1744 H 0.2479 0.39815 0.82545 0.0
H1745 H 0.22467 0.39772 0.8558 0.0
H1746 H 0.19963 0.35013 0.82294 0.0
H1747 H 0.17595 0.35031 0.85323 0.0
H1748 H 0.10408 0.24944 0.84627 0.0
H1749 H 0.15202 0.29662 0.84973 0.0
H1750 H 0.14579 0.33418 0.82201 0.0
H1751 H 0.09827 0.28638 0.81838 0.0
C1752 C 0.23266 0.38759 0.83162 0.0
C1753 C 0.24006 0.40174 0.84082 0.0
C1754 C 0.20479 0.36031 0.83015 0.0
C1755 C 0.18361 0.34674 0.83783 0.0
C1756 C 0.19174 0.36009 0.84715 0.0
C1757 C 0.21975 0.38725 0.84864 0.0
C1758 C 0.11263 0.26795 0.84097 0.0
C1759 C 0.0975 0.26408 0.83201 0.0
C1760 C 0.14018 0.29504 0.84297 0.0
C1761 C 0.15307 0.31896 0.83607 0.0
C1762 C 0.13691 0.31582 0.82736 0.0
C1763 C 0.10945 0.28861 0.82534 0.0
H1764 H 0.85727 0.61793 0.65119 0.0
H1765 H 0.8101 0.57517 0.67803 0.0
H1766 H 0.85669 0.66479 0.65561 0.0
H1767 H 0.80842 0.62142 0.68226 0.0
H1768 H 0.83427 0.72103 0.69006 0.0
H1769 H 0.83636 0.67423 0.68688 0.0
H1770 H 0.81859 0.68016 0.65635 0.0
H1771 H 0.81767 0.72753 0.65949 0.0
C1772 C 0.84717 0.61868 0.65809 0.0
C1773 C 0.8336 0.59279 0.66422 0.0
C1774 C 0.84642 0.64536 0.66056 0.0
C1775 C 0.83184 0.64661 0.66918 0.0
C1776 C 0.81987 0.62132 0.67558 0.0
C1777 C 0.82087 0.59476 0.67315 0.0
C1778 C 0.83016 0.71196 0.68271 0.0
C1779 C 0.82595 0.72801 0.67502 0.0
C1780 C 0.8315 0.68518 0.68087 0.0
C1781 C 0.82833 0.6738 0.67132 0.0
C1782 C 0.82212 0.68884 0.66374 0.0
C1783 C 0.82112 0.71574 0.66556 0.0
H1784 H 0.41341 0.2338 0.67824 0.0
H1785 H 0.37817 0.23291 0.64943 0.0
H1786 H 0.36641 0.18638 0.6822 0.0
H1787 H 0.33031 0.18612 0.65354 0.0
H1788 H 0.267 0.08478 0.65856 0.0
H1789 H 0.31424 0.13334 0.65558 0.0
H1790 H 0.31335 0.16078 0.68541 0.0
H1791 H 0.26697 0.11157 0.68848 0.0
C1792 C 0.39521 0.22399 0.67284 0.0
C1793 C 0.39961 0.23697 0.66348 0.0
C1794 C 0.36818 0.19669 0.67512 0.0
C1795 C 0.34475 0.18198 0.66812 0.0
C1796 C 0.34828 0.19627 0.659 0.0
C1797 C 0.37552 0.22336 0.65668 0.0
C1798 C 0.2773 0.10096 0.66453 0.0
C1799 C 0.26336 0.09437 0.67375 0.0
C1800 C 0.30411 0.12903 0.66278 0.0
C1801 C 0.3173 0.15136 0.67019 0.0
C1802 C 0.30399 0.14414 0.67954 0.0
C1803 C 0.27743 0.11585 0.68132 0.0
H1804 H 0.77359 0.16867 0.645 0.0
H1805 H 0.74813 0.14456 0.67514 0.0
H1806 H 0.82291 0.1717 0.64806 0.0
H1807 H 0.79678 0.14608 0.67813 0.0
H1808 H 0.89686 0.1836 0.68402 0.0
H1809 H 0.84946 0.1834 0.67985 0.0
H1810 H 0.84909 0.14494 0.6516 0.0
H1811 H 0.89712 0.14661 0.65559 0.0
C1812 C 0.77816 0.16308 0.65221 0.0
C1813 C 0.75707 0.15645 0.65984 0.0
C1814 C 0.80652 0.16493 0.65398 0.0
C1815 C 0.81416 0.15975 0.66339 0.0
C1816 C 0.79214 0.15122 0.67087 0.0
C1817 C 0.76402 0.14984 0.66913 0.0
C1818 C 0.88701 0.17581 0.67684 0.0
C1819 C 0.90066 0.16502 0.67016 0.0
C1820 C 0.85958 0.17523 0.67449 0.0
C1821 C 0.84498 0.16342 0.66547 0.0
C1822 C 0.85964 0.15428 0.6586 0.0
C1823 C 0.88728 0.15527 0.66089 0.0
H1824 H 0.04162 0.47641 0.48073 0.0
H1825 H 0.08225 0.51365 0.5088 0.0
H1826 H 0.99427 0.47491 0.48582 0.0
H1827 H 0.03583 0.51382 0.5137 0.0
H1828 H 0.93801 0.48931 0.52212 0.0
H1829 H 0.98396 0.48674 0.51805 0.0
H1830 H 0.97729 0.51048 0.48818 0.0
H1831 H 0.93038 0.51134 0.49219 0.0
C1832 C 0.04027 0.48388 0.48803 0.0
C1833 C 0.06568 0.49523 0.49434 0.0
C1834 C 0.01333 0.48351 0.4909 0.0
C1835 C 0.01142 0.49498 0.5001 0.0
C1836 C 0.03628 0.50467 0.5066 0.0
C1837 C 0.06299 0.50455 0.50378 0.0
C1838 C 0.94673 0.49454 0.51473 0.0
C1839 C 0.93065 0.50052 0.50746 0.0
C1840 C 0.97305 0.49296 0.51237 0.0
C1841 C 0.98414 0.49786 0.50274 0.0
C1842 C 0.96891 0.50558 0.49561 0.0
C1843 C 0.9423 0.5066 0.49793 0.0
H1844 H 0.50033 0.43996 0.52293 0.0
H1845 H 0.48329 0.41904 0.49225 0.0
H1846 H 0.50106 0.48844 0.52031 0.0
H1847 H 0.48277 0.46689 0.48967 0.0
H1848 H 0.52038 0.56827 0.48545 0.0
H1849 H 0.51992 0.52047 0.48919 0.0
H1850 H 0.47261 0.51313 0.51627 0.0
H1851 H 0.47424 0.56148 0.51272 0.0
C1852 C 0.49581 0.44529 0.51568 0.0
C1853 C 0.49192 0.42581 0.50778 0.0
C1854 C 0.49634 0.47317 0.51416 0.0
C1855 C 0.49264 0.48191 0.50474 0.0
C1856 C 0.48669 0.46135 0.49697 0.0
C1857 C 0.48652 0.4337 0.49846 0.0
C1858 C 0.51045 0.55676 0.49229 0.0
C1859 C 0.49727 0.56861 0.49877 0.0
C1860 C 0.50977 0.52912 0.49438 0.0
C1861 C 0.4956 0.51256 0.50294 0.0
C1862 C 0.48379 0.52526 0.50963 0.0
C1863 C 0.48476 0.55305 0.50759 0.0
H1864 H 0.57962 0.06054 0.49534 0.0
H1865 H 0.54748 0.05849 0.5247 0.0
H1866 H 0.53175 0.01333 0.49159 0.0
H1867 H 0.49921 0.01198 0.52087 0.0
H1868 H 0.42673 0.913 0.51246 0.0
H1869 H 0.47462 0.95866 0.51709 0.0
H1870 H 0.47897 -0.0012 0.48882 0.0
H1871 H 0.43153 0.95246 0.48405 0.0
C1872 C 0.56251 0.04976 0.50104 0.0
C1873 C 0.56731 0.06328 0.51031 0.0
C1874 C 0.53487 0.02296 0.49885 0.0
C1875 C 0.51132 0.00923 0.50586 0.0
C1876 C 0.51684 0.02185 0.5153 0.0
C1877 C 0.54461 0.04851 0.51751 0.0
C1878 C 0.4376 0.93176 0.50728 0.0
C1879 C 0.4254 0.92903 0.49786 0.0
C1880 C 0.46514 0.95798 0.50994 0.0
C1881 C 0.48097 0.98221 0.50327 0.0
C1882 C 0.46782 0.98019 0.49404 0.0
C1883 C 0.44038 0.95383 0.49135 0.0
H1884 H 0.48006 0.0537 0.0134 0.0
H1885 H 0.51383 0.08785 0.98445 0.0
H1886 H 0.48071 0.00643 0.00967 0.0
H1887 H 0.51594 0.04147 0.98088 0.0
H1888 H 0.48859 0.94089 0.975 0.0
H1889 H 0.48787 0.98837 0.97787 0.0
H1890 H 0.51713 0.98984 0.00762 0.0
H1891 H 0.51638 0.9414 0.00484 0.0
C1892 C 0.48729 0.05096 0.00621 0.0
C1893 C 0.49686 0.07448 0.99923 0.0
C1894 C 0.48815 0.02409 0.00411 0.0
C1895 C 0.49899 0.02035 0.99504 0.0
C1896 C 0.50728 0.04339 0.98792 0.0
C1897 C 0.50603 0.07003 0.98997 0.0
C1898 C 0.49552 0.95168 0.9821 0.0
C1899 C 0.50239 0.93733 0.98971 0.0
C1900 C 0.49503 0.97894 0.98376 0.0
C1901 C 0.50186 0.99269 0.99304 0.0
C1902 C 0.5108 0.97938 1.00047 0.0
C1903 C 0.51086 0.95188 0.99884 0.0
H1904 H 0.95441 0.42815 0.01729 0.0
H1905 H 0.90894 0.43752 0.99182 0.0
H1906 H 0.00151 0.47524 0.01279 0.0
H1907 H 0.95562 0.48503 0.9875 0.0
H1908 H 0.05574 0.55628 0.97884 0.0
H1909 H 0.00821 0.50804 0.98209 0.0
H1910 H 0.01808 0.52946 0.01285 0.0
H1911 H 0.06596 0.57713 0.00964 0.0
C1912 C 0.95458 0.44003 0.01067 0.0
C1913 C 0.92791 0.42921 0.00495 0.0
C1914 C 0.98143 0.46723 0.00815 0.0
C1915 C 0.9821 0.48425 0.9999 0.0
C1916 C 0.95592 0.47249 0.9939 0.0
C1917 C 0.92913 0.44522 0.99638 0.0
C1918 C 0.04741 0.55096 0.98627 0.0
C1919 C 0.06466 0.57039 0.99399 0.0
C1920 C 0.02023 0.52325 0.98814 0.0
C1921 C 0.00971 0.51458 0.99776 0.0
C1922 C 0.02604 0.535 0.0054 0.0
C1923 C 0.05327 0.56253 0.00354 0.0
H1924 H 0.43613 0.52721 0.01308 0.0
H1925 H 0.43951 0.48299 0.98643 0.0
H1926 H 0.48282 0.52859 0.01875 0.0
H1927 H 0.48579 0.48354 0.99225 0.0
H1928 H 0.58558 0.52068 0.99948 0.0
H1929 H 0.53935 0.52198 0.99476 0.0
H1930 H 0.50466 0.49802 0.02418 0.0
H1931 H 0.55125 0.49758 0.02896 0.0
C1932 C 0.44645 0.51715 0.00852 0.0
C1933 C 0.4342 0.50514 0.99927 0.0
C1934 C 0.47327 0.51799 0.01178 0.0
C1935 C 0.48837 0.50671 0.00588 0.0
C1936 C 0.47517 0.49319 0.99685 0.0
C1937 C 0.4484 0.49247 0.99358 0.0
C1938 C 0.56841 0.5164 0.00499 0.0
C1939 C 0.57202 0.50888 0.01458 0.0
C1940 C 0.54171 0.5167 0.00226 0.0
C1941 C 0.51797 0.50935 0.00904 0.0
C1942 C 0.52247 0.50377 0.01878 0.0
C1943 C 0.54927 0.50364 0.02153 0.0
loop_
_geom_bond_atom_site_label_1
_geom_bond_atom_site_label_2
_geom_bond_distance
_geom_bond_site_symmetry_2
_ccdc_geom_bond_type
O0 Cd1 2.223 . S
O0 C8 1.315 . S
Cd1 O0 2.223 . S
Cd1 O4 2.297 . S
Cd1 O5 2.439 . S
Cd1 O11 2.240 . S
Cd2 O3 2.240 . S
Cd2 O10 2.223 . S
Cd2 O12 2.297 . S
Cd2 O13 2.439 . S
O3 Cd2 2.240 . S
O3 C8 1.279 . S
O4 Cd1 2.297 . S
O4 C6 1.247 . S
O5 Cd1 2.439 . S
O5 C6 1.208 . S
C6 O4 1.247 . S
C6 O5 1.208 . S
C7 O12 1.247 . S
C7 O13 1.208 . S
C8 O0 1.315 . S
C8 O3 1.279 . S
C9 O10 1.315 . S
C9 O11 1.279 . S
O10 Cd2 2.223 . S
O10 C9 1.315 . S
O11 Cd1 2.240 . S
O11 C9 1.279 . S
O12 Cd2 2.297 . S
O12 C7 1.247 . S
O13 Cd2 2.439 . S
O13 C7 1.208 . S
O14 Cd15 2.223 . S
O14 C22 1.315 . S
Cd15 O14 2.223 . S
Cd15 O18 2.297 . S
Cd15 O19 2.439 . S
Cd15 O25 2.240 1_545 S
Cd16 O17 2.240 . S
Cd16 O24 2.223 1_545 S
Cd16 O26 2.297 1_545 S
Cd16 O27 2.439 . S
O17 Cd16 2.240 . S
O17 C22 1.279 . S
O18 Cd15 2.297 . S
O18 C20 1.247 . S
O19 Cd15 2.439 . S
O19 C20 1.208 . S
C20 O18 1.247 . S
C20 O19 1.208 . S
C21 O26 1.247 . S
C21 O27 1.208 1_565 S
C22 O14 1.315 . S
C22 O17 1.279 . S
C23 O24 1.315 . S
C23 O25 1.279 . S
O24 Cd16 2.223 1_565 S
O24 C23 1.315 . S
O25 Cd15 2.240 1_565 S
O25 C23 1.279 . S
O26 Cd16 2.297 1_565 S
O26 C21 1.247 . S
O27 Cd16 2.439 . S
O27 C21 1.208 1_545 S
O28 Cd29 2.223 . S
O28 C36 1.315 . S
Cd29 O28 2.223 . S
Cd29 O32 2.297 . S
Cd29 O33 2.439 . S
Cd29 O39 2.240 1_655 S
Cd30 O31 2.240 . S
Cd30 O38 2.223 1_655 S
Cd30 O40 2.297 1_655 S
Cd30 O41 2.439 . S
O31 Cd30 2.240 . S
O31 C36 1.279 . S
O32 Cd29 2.297 . S
O32 C34 1.247 . S
O33 Cd29 2.439 . S
O33 C34 1.208 . S
C34 O32 1.247 . S
C34 O33 1.208 . S
C35 O40 1.247 . S
C35 O41 1.208 1_455 S
C36 O28 1.315 . S
C36 O31 1.279 . S
C37 O38 1.315 . S
C37 O39 1.279 . S
O38 Cd30 2.223 1_455 S
O38 C37 1.315 . S
O39 Cd29 2.240 1_455 S
O39 C37 1.279 . S
O40 Cd30 2.297 1_455 S
O40 C35 1.247 . S
O41 Cd30 2.439 . S
O41 C35 1.208 1_655 S
O42 Cd43 2.223 . S
O42 C50 1.315 . S
Cd43 O42 2.223 . S
Cd43 O46 2.297 . S
Cd43 O47 2.439 . S
Cd43 O53 2.240 . S
Cd44 O45 2.240 . S
Cd44 O52 2.223 . S
Cd44 O54 2.297 . S
Cd44 O55 2.439 . S
O45 Cd44 2.240 . S
O45 C50 1.279 . S
O46 Cd43 2.297 . S
O46 C48 1.247 . S
O47 Cd43 2.439 . S
O47 C48 1.208 . S
C48 O46 1.247 . S
C48 O47 1.208 . S
C49 O54 1.247 . S
C49 O55 1.208 . S
C50 O42 1.315 . S
C50 O45 1.279 . S
C51 O52 1.315 . S
C51 O53 1.279 . S
O52 Cd44 2.223 . S
O52 C51 1.315 . S
O53 Cd43 2.240 . S
O53 C51 1.279 . S
O54 Cd44 2.297 . S
O54 C49 1.247 . S
O55 Cd44 2.439 . S
O55 C49 1.208 . S
O56 Cd57 2.223 . S
O56 C64 1.315 . S
Cd57 O56 2.223 . S
Cd57 O60 2.297 . S
Cd57 O61 2.439 . S
Cd57 O67 2.240 1_565 S
Cd58 O59 2.240 . S
Cd58 O66 2.223 1_565 S
Cd58 O68 2.297 1_565 S
Cd58 O69 2.439 . S
O59 Cd58 2.240 . S
O59 C64 1.279 . S
O60 Cd57 2.297 . S
O60 C62 1.247 . S
O61 Cd57 2.439 . S
O61 C62 1.208 . S
C62 O60 1.247 . S
C62 O61 1.208 . S
C63 O68 1.247 . S
C63 O69 1.208 1_545 S
C64 O56 1.315 . S
C64 O59 1.279 . S
C65 O66 1.315 . S
C65 O67 1.279 . S
O66 Cd58 2.223 1_545 S
O66 C65 1.315 . S
O67 Cd57 2.240 1_545 S
O67 C65 1.279 . S
O68 Cd58 2.297 1_545 S
O68 C63 1.247 . S
O69 Cd58 2.439 . S
O69 C63 1.208 1_565 S
O70 Cd71 2.223 . S
O70 C78 1.315 . S
Cd71 O70 2.223 . S
Cd71 O74 2.297 . S
Cd71 O75 2.439 . S
Cd71 O81 2.240 1_455 S
Cd72 O73 2.240 . S
Cd72 O80 2.223 1_455 S
Cd72 O82 2.297 1_455 S
Cd72 O83 2.439 . S
O73 Cd72 2.240 . S
O73 C78 1.279 . S
O74 Cd71 2.297 . S
O74 C76 1.247 . S
O75 Cd71 2.439 . S
O75 C76 1.208 . S
C76 O74 1.247 . S
C76 O75 1.208 . S
C77 O82 1.247 . S
C77 O83 1.208 1_655 S
C78 O70 1.315 . S
C78 O73 1.279 . S
C79 O80 1.315 . S
C79 O81 1.279 . S
O80 Cd72 2.223 1_655 S
O80 C79 1.315 . S
O81 Cd71 2.240 1_655 S
O81 C79 1.279 . S
O82 Cd72 2.297 1_655 S
O82 C77 1.247 . S
O83 Cd72 2.439 . S
O83 C77 1.208 1_455 S
O84 Cd85 2.223 . S
O84 C92 1.315 . S
Cd85 O84 2.223 . S
Cd85 O88 2.297 . S
Cd85 O89 2.439 . S
Cd85 O95 2.240 . S
Cd86 O87 2.240 . S
Cd86 O94 2.223 . S
Cd86 O96 2.297 . S
Cd86 O97 2.439 . S
O87 Cd86 2.240 . S
O87 C92 1.279 . S
O88 Cd85 2.297 . S
O88 C90 1.247 . S
O89 Cd85 2.439 . S
O89 C90 1.208 . S
C90 O88 1.247 . S
C90 O89 1.208 . S
C91 O96 1.247 . S
C91 O97 1.208 . S
C92 O84 1.315 . S
C92 O87 1.279 . S
C93 O94 1.315 . S
C93 O95 1.279 . S
O94 Cd86 2.223 . S
O94 C93 1.315 . S
O95 Cd85 2.240 . S
O95 C93 1.279 . S
O96 Cd86 2.297 . S
O96 C91 1.247 . S
O97 Cd86 2.439 . S
O97 C91 1.208 . S
O98 Cd99 2.223 . S
O98 C106 1.315 . S
Cd99 O98 2.223 . S
Cd99 O102 2.297 . S
Cd99 O103 2.439 . S
Cd99 O109 2.240 1_565 S
Cd100 O101 2.240 . S
Cd100 O108 2.223 1_565 S
Cd100 O110 2.297 1_565 S
Cd100 O111 2.439 . S
O101 Cd100 2.240 . S
O101 C106 1.279 . S
O102 Cd99 2.297 . S
O102 C104 1.247 . S
O103 Cd99 2.439 . S
O103 C104 1.208 . S
C104 O102 1.247 . S
C104 O103 1.208 . S
C105 O110 1.247 . S
C105 O111 1.208 1_545 S
C106 O98 1.315 . S
C106 O101 1.279 . S
C107 O108 1.315 . S
C107 O109 1.279 . S
O108 Cd100 2.223 1_545 S
O108 C107 1.315 . S
O109 Cd99 2.240 1_545 S
O109 C107 1.279 . S
O110 Cd100 2.297 1_545 S
O110 C105 1.247 . S
O111 Cd100 2.439 . S
O111 C105 1.208 1_565 S
O112 Cd113 2.223 . S
O112 C120 1.315 . S
Cd113 O112 2.223 . S
Cd113 O116 2.297 . S
Cd113 O117 2.439 . S
Cd113 O123 2.240 1_455 S
Cd114 O115 2.240 . S
Cd114 O122 2.223 1_455 S
Cd114 O124 2.297 1_455 S
Cd114 O125 2.439 . S
O115 Cd114 2.240 . S
O115 C120 1.279 . S
O116 Cd113 2.297 . S
O116 C118 1.247 . S
O117 Cd113 2.439 . S
O117 C118 1.208 . S
C118 O116 1.247 . S
C118 O117 1.208 . S
C119 O124 1.247 . S
C119 O125 1.208 1_655 S
C120 O112 1.315 . S
C120 O115 1.279 . S
C121 O122 1.315 . S
C121 O123 1.279 . S
O122 Cd114 2.223 1_655 S
O122 C121 1.315 . S
O123 Cd113 2.240 1_655 S
O123 C121 1.279 . S
O124 Cd114 2.297 1_655 S
O124 C119 1.247 . S
O125 Cd114 2.439 . S
O125 C119 1.208 1_455 S
O126 Cd127 2.223 . S
O126 C134 1.315 . S
Cd127 O126 2.223 . S
Cd127 O130 2.297 . S
Cd127 O131 2.439 . S
Cd127 O137 2.240 . S
Cd128 O129 2.240 . S
Cd128 O136 2.223 . S
Cd128 O138 2.297 . S
Cd128 O139 2.439 . S
O129 Cd128 2.240 . S
O129 C134 1.279 . S
O130 Cd127 2.297 . S
O130 C132 1.247 . S
O131 Cd127 2.439 . S
O131 C132 1.208 . S
C132 O130 1.247 . S
C132 O131 1.208 . S
C133 O138 1.247 . S
C133 O139 1.208 . S
C134 O126 1.315 . S
C134 O129 1.279 . S
C135 O136 1.315 . S
C135 O137 1.279 . S
O136 Cd128 2.223 . S
O136 C135 1.315 . S
O137 Cd127 2.240 . S
O137 C135 1.279 . S
O138 Cd128 2.297 . S
O138 C133 1.247 . S
O139 Cd128 2.439 . S
O139 C133 1.208 . S
O140 Cd141 2.223 . S
O140 C148 1.315 . S
Cd141 O140 2.223 . S
Cd141 O144 2.297 . S
Cd141 O145 2.439 . S
Cd141 O151 2.240 1_545 S
Cd142 O143 2.240 . S
Cd142 O150 2.223 1_545 S
Cd142 O152 2.297 1_545 S
Cd142 O153 2.439 . S
O143 Cd142 2.240 . S
O143 C148 1.279 . S
O144 Cd141 2.297 . S
O144 C146 1.247 . S
O145 Cd141 2.439 . S
O145 C146 1.208 . S
C146 O144 1.247 . S
C146 O145 1.208 . S
C147 O152 1.247 . S
C147 O153 1.208 1_565 S
C148 O140 1.315 . S
C148 O143 1.279 . S
C149 O150 1.315 . S
C149 O151 1.279 . S
O150 Cd142 2.223 1_565 S
O150 C149 1.315 . S
O151 Cd141 2.240 1_565 S
O151 C149 1.279 . S
O152 Cd142 2.297 1_565 S
O152 C147 1.247 . S
O153 Cd142 2.439 . S
O153 C147 1.208 1_545 S
O154 Cd155 2.223 . S
O154 C162 1.315 . S
Cd155 O154 2.223 . S
Cd155 O158 2.297 . S
Cd155 O159 2.439 . S
Cd155 O165 2.240 1_655 S
Cd156 O157 2.240 . S
Cd156 O164 2.223 1_655 S
Cd156 O166 2.297 1_655 S
Cd156 O167 2.439 . S
O157 Cd156 2.240 . S
O157 C162 1.279 . S
O158 Cd155 2.297 . S
O158 C160 1.247 . S
O159 Cd155 2.439 . S
O159 C160 1.208 . S
C160 O158 1.247 . S
C160 O159 1.208 . S
C161 O166 1.247 . S
C161 O167 1.208 1_455 S
C162 O154 1.315 . S
C162 O157 1.279 . S
C163 O164 1.315 . S
C163 O165 1.279 . S
O164 Cd156 2.223 1_455 S
O164 C163 1.315 . S
O165 Cd155 2.240 1_455 S
O165 C163 1.279 . S
O166 Cd156 2.297 1_455 S
O166 C161 1.247 . S
O167 Cd156 2.439 . S
O167 C161 1.208 1_655 S
O168 Cd169 2.223 . S
O168 C176 1.315 . S
Cd169 O168 2.223 . S
Cd169 O172 2.297 . S
Cd169 O173 2.439 . S
Cd169 O179 2.240 . S
Cd170 O171 2.240 . S
Cd170 O178 2.223 . S
Cd170 O180 2.297 . S
Cd170 O181 2.439 . S
O171 Cd170 2.240 . S
O171 C176 1.279 . S
O172 Cd169 2.297 . S
O172 C174 1.247 . S
O173 Cd169 2.439 . S
O173 C174 1.208 . S
C174 O172 1.247 . S
C174 O173 1.208 . S
C175 O180 1.247 . S
C175 O181 1.208 . S
C176 O168 1.315 . S
C176 O171 1.279 . S
C177 O178 1.315 . S
C177 O179 1.279 . S
O178 Cd170 2.223 . S
O178 C177 1.315 . S
O179 Cd169 2.240 . S
O179 C177 1.279 . S
O180 Cd170 2.297 . S
O180 C175 1.247 . S
O181 Cd170 2.439 . S
O181 C175 1.208 . S
O182 Cd183 2.223 . S
O182 C190 1.315 . S
Cd183 O182 2.223 . S
Cd183 O186 2.297 . S
Cd183 O187 2.439 . S
Cd183 O193 2.240 . S
Cd184 O185 2.240 . S
Cd184 O192 2.223 . S
Cd184 O194 2.297 . S
Cd184 O195 2.439 . S
O185 Cd184 2.240 . S
O185 C190 1.279 . S
O186 Cd183 2.297 . S
O186 C188 1.247 . S
O187 Cd183 2.439 . S
O187 C188 1.208 . S
C188 O186 1.247 . S
C188 O187 1.208 . S
C189 O194 1.247 . S
C189 O195 1.208 . S
C190 O182 1.315 . S
C190 O185 1.279 . S
C191 O192 1.315 . S
C191 O193 1.279 . S
O192 Cd184 2.223 . S
O192 C191 1.315 . S
O193 Cd183 2.240 . S
O193 C191 1.279 . S
O194 Cd184 2.297 . S
O194 C189 1.247 . S
O195 Cd184 2.439 . S
O195 C189 1.208 . S
O196 Cd197 2.223 . S
O196 C204 1.315 . S
Cd197 O196 2.223 . S
Cd197 O200 2.297 . S
Cd197 O201 2.439 . S
Cd197 O207 2.240 . S
Cd198 O199 2.240 . S
Cd198 O206 2.223 . S
Cd198 O208 2.297 . S
Cd198 O209 2.439 . S
O199 Cd198 2.240 . S
O199 C204 1.279 . S
O200 Cd197 2.297 . S
O200 C202 1.247 . S
O201 Cd197 2.439 . S
O201 C202 1.208 . S
C202 O200 1.247 . S
C202 O201 1.208 . S
C203 O208 1.247 . S
C203 O209 1.208 . S
C204 O196 1.315 . S
C204 O199 1.279 . S
C205 O206 1.315 . S
C205 O207 1.279 . S
O206 Cd198 2.223 . S
O206 C205 1.315 . S
O207 Cd197 2.240 . S
O207 C205 1.279 . S
O208 Cd198 2.297 . S
O208 C203 1.247 . S
O209 Cd198 2.439 . S
O209 C203 1.208 . S
O210 Cd211 2.223 . S
O210 C218 1.315 . S
Cd211 O210 2.223 . S
Cd211 O214 2.297 . S
Cd211 O215 2.439 . S
Cd211 O221 2.240 . S
Cd212 O213 2.240 . S
Cd212 O220 2.223 . S
Cd212 O222 2.297 . S
Cd212 O223 2.439 . S
O213 Cd212 2.240 . S
O213 C218 1.279 . S
O214 Cd211 2.297 . S
O214 C216 1.247 . S
O215 Cd211 2.439 . S
O215 C216 1.208 . S
C216 O214 1.247 . S
C216 O215 1.208 . S
C217 O222 1.247 . S
C217 O223 1.208 . S
C218 O210 1.315 . S
C218 O213 1.279 . S
C219 O220 1.315 . S
C219 O221 1.279 . S
O220 Cd212 2.223 . S
O220 C219 1.315 . S
O221 Cd211 2.240 . S
O221 C219 1.279 . S
O222 Cd212 2.297 . S
O222 C217 1.247 . S
O223 Cd212 2.439 . S
O223 C217 1.208 . S
O224 Cd225 2.223 . S
O224 C232 1.315 . S
Cd225 O224 2.223 . S
Cd225 O228 2.297 . S
Cd225 O229 2.439 . S
Cd225 O235 2.240 . S
Cd226 O227 2.240 . S
Cd226 O234 2.223 . S
Cd226 O236 2.297 . S
Cd226 O237 2.439 . S
O227 Cd226 2.240 . S
O227 C232 1.279 . S
O228 Cd225 2.297 . S
O228 C230 1.247 . S
O229 Cd225 2.439 . S
O229 C230 1.208 . S
C230 O228 1.247 . S
C230 O229 1.208 . S
C231 O236 1.247 . S
C231 O237 1.208 . S
C232 O224 1.315 . S
C232 O227 1.279 . S
C233 O234 1.315 . S
C233 O235 1.279 . S
O234 Cd226 2.223 . S
O234 C233 1.315 . S
O235 Cd225 2.240 . S
O235 C233 1.279 . S
O236 Cd226 2.297 . S
O236 C231 1.247 . S
O237 Cd226 2.439 . S
O237 C231 1.208 . S
O238 Cd239 2.223 . S
O238 C246 1.315 . S
Cd239 O238 2.223 . S
Cd239 O242 2.297 . S
Cd239 O243 2.439 . S
Cd239 O249 2.240 . S
Cd240 O241 2.240 . S
Cd240 O248 2.223 . S
Cd240 O250 2.297 . S
Cd240 O251 2.439 . S
O241 Cd240 2.240 . S
O241 C246 1.279 . S
O242 Cd239 2.297 . S
O242 C244 1.247 . S
O243 Cd239 2.439 . S
O243 C244 1.208 . S
C244 O242 1.247 . S
C244 O243 1.208 . S
C245 O250 1.247 . S
C245 O251 1.208 . S
C246 O238 1.315 . S
C246 O241 1.279 . S
C247 O248 1.315 . S
C247 O249 1.279 . S
O248 Cd240 2.223 . S
O248 C247 1.315 . S
O249 Cd239 2.240 . S
O249 C247 1.279 . S
O250 Cd240 2.297 . S
O250 C245 1.247 . S
O251 Cd240 2.439 . S
O251 C245 1.208 . S
O252 Cd253 2.223 . S
O252 C260 1.315 . S
Cd253 O252 2.223 . S
Cd253 O256 2.297 . S
Cd253 O257 2.439 . S
Cd253 O263 2.240 . S
Cd254 O255 2.240 . S
Cd254 O262 2.223 . S
Cd254 O264 2.297 . S
Cd254 O265 2.439 . S
O255 Cd254 2.240 . S
O255 C260 1.279 . S
O256 Cd253 2.297 . S
O256 C258 1.247 . S
O257 Cd253 2.439 . S
O257 C258 1.208 . S
C258 O256 1.247 . S
C258 O257 1.208 . S
C259 O264 1.247 . S
C259 O265 1.208 . S
C260 O252 1.315 . S
C260 O255 1.279 . S
C261 O262 1.315 . S
C261 O263 1.279 . S
O262 Cd254 2.223 . S
O262 C261 1.315 . S
O263 Cd253 2.240 . S
O263 C261 1.279 . S
O264 Cd254 2.297 . S
O264 C259 1.247 . S
O265 Cd254 2.439 . S
O265 C259 1.208 . S
O266 Cd267 2.223 . S
O266 C274 1.315 . S
Cd267 O266 2.223 . S
Cd267 O270 2.297 . S
Cd267 O271 2.439 . S
Cd267 O277 2.240 . S
Cd268 O269 2.240 . S
Cd268 O276 2.223 . S
Cd268 O278 2.297 . S
Cd268 O279 2.439 . S
O269 Cd268 2.240 . S
O269 C274 1.279 . S
O270 Cd267 2.297 . S
O270 C272 1.247 . S
O271 Cd267 2.439 . S
O271 C272 1.208 . S
C272 O270 1.247 . S
C272 O271 1.208 . S
C273 O278 1.247 . S
C273 O279 1.208 . S
C274 O266 1.315 . S
C274 O269 1.279 . S
C275 O276 1.315 . S
C275 O277 1.279 . S
O276 Cd268 2.223 . S
O276 C275 1.315 . S
O277 Cd267 2.240 . S
O277 C275 1.279 . S
O278 Cd268 2.297 . S
O278 C273 1.247 . S
O279 Cd268 2.439 . S
O279 C273 1.208 . S
O280 Cd281 2.223 . S
O280 C288 1.315 . S
Cd281 O280 2.223 . S
Cd281 O284 2.297 . S
Cd281 O285 2.439 . S
Cd281 O291 2.240 . S
Cd282 O283 2.240 . S
Cd282 O290 2.223 . S
Cd282 O292 2.297 . S
Cd282 O293 2.439 . S
O283 Cd282 2.240 . S
O283 C288 1.279 . S
O284 Cd281 2.297 . S
O284 C286 1.247 . S
O285 Cd281 2.439 . S
O285 C286 1.208 . S
C286 O284 1.247 . S
C286 O285 1.208 . S
C287 O292 1.247 . S
C287 O293 1.208 . S
C288 O280 1.315 . S
C288 O283 1.279 . S
C289 O290 1.315 . S
C289 O291 1.279 . S
O290 Cd282 2.223 . S
O290 C289 1.315 . S
O291 Cd281 2.240 . S
O291 C289 1.279 . S
O292 Cd282 2.297 . S
O292 C287 1.247 . S
O293 Cd282 2.439 . S
O293 C287 1.208 . S
O294 Cd295 2.223 . S
O294 C302 1.315 . S
Cd295 O294 2.223 . S
Cd295 O298 2.314 . S
Cd295 O299 2.439 . S
Cd295 O305 2.240 . S
Cd296 O297 2.240 . S
Cd296 O304 2.223 . S
Cd296 O306 2.297 . S
Cd296 O307 2.439 . S
O297 Cd296 2.240 . S
O297 C302 1.279 . S
O298 Cd295 2.314 . S
O298 C300 1.277 . S
O299 Cd295 2.439 . S
O299 C300 1.208 . S
C300 O298 1.277 . S
C300 O299 1.208 . S
C301 O306 1.247 . S
C301 O307 1.208 . S
C302 O294 1.315 . S
C302 O297 1.279 . S
C303 O304 1.315 . S
C303 O305 1.279 . S
O304 Cd296 2.223 . S
O304 C303 1.315 . S
O305 Cd295 2.240 . S
O305 C303 1.279 . S
O306 Cd296 2.297 . S
O306 C301 1.247 . S
O307 Cd296 2.439 . S
O307 C301 1.208 . S
O308 Cd309 2.223 . S
O308 C316 1.315 . S
Cd309 O308 2.223 . S
Cd309 O312 2.314 . S
Cd309 O313 2.439 . S
Cd309 O319 2.240 . S
Cd310 O311 2.240 . S
Cd310 O318 2.223 . S
Cd310 O320 2.297 . S
Cd310 O321 2.439 . S
O311 Cd310 2.240 . S
O311 C316 1.279 . S
O312 Cd309 2.314 . S
O312 C314 1.277 . S
O313 Cd309 2.439 . S
O313 C314 1.208 . S
C314 O312 1.277 . S
C314 O313 1.208 . S
C315 O320 1.247 . S
C315 O321 1.208 . S
C316 O308 1.315 . S
C316 O311 1.279 . S
C317 O318 1.315 . S
C317 O319 1.279 . S
O318 Cd310 2.223 . S
O318 C317 1.315 . S
O319 Cd309 2.240 . S
O319 C317 1.279 . S
O320 Cd310 2.297 . S
O320 C315 1.247 . S
O321 Cd310 2.439 . S
O321 C315 1.208 . S
O322 Cd323 2.223 . S
O322 C330 1.315 . S
Cd323 O322 2.223 . S
Cd323 O326 2.313 . S
Cd323 O327 2.439 . S
Cd323 O333 2.240 . S
Cd324 O325 2.240 . S
Cd324 O332 2.223 . S
Cd324 O334 2.297 . S
Cd324 O335 2.439 . S
O325 Cd324 2.240 . S
O325 C330 1.279 . S
O326 Cd323 2.313 . S
O326 C328 1.276 . S
O327 Cd323 2.439 . S
O327 C328 1.208 . S
C328 O326 1.276 . S
C328 O327 1.208 . S
C329 O334 1.247 . S
C329 O335 1.208 . S
C330 O322 1.315 . S
C330 O325 1.279 . S
C331 O332 1.315 . S
C331 O333 1.279 . S
O332 Cd324 2.223 . S
O332 C331 1.315 . S
O333 Cd323 2.240 . S
O333 C331 1.279 . S
O334 Cd324 2.297 . S
O334 C329 1.247 . S
O335 Cd324 2.439 . S
O335 C329 1.208 . S
O336 Cd337 2.223 . S
O336 C344 1.315 . S
Cd337 O336 2.223 . S
Cd337 O340 2.297 . S
Cd337 O341 2.439 . S
Cd337 O347 2.240 . S
Cd338 O339 2.240 . S
Cd338 O346 2.223 . S
Cd338 O348 2.297 . S
Cd338 O349 2.439 . S
O339 Cd338 2.240 . S
O339 C344 1.279 . S
O340 Cd337 2.297 . S
O340 C342 1.247 . S
O341 Cd337 2.439 . S
O341 C342 1.208 . S
C342 O340 1.247 . S
C342 O341 1.208 . S
C343 O348 1.247 . S
C343 O349 1.208 . S
C344 O336 1.315 . S
C344 O339 1.279 . S
C345 O346 1.315 . S
C345 O347 1.279 . S
O346 Cd338 2.223 . S
O346 C345 1.315 . S
O347 Cd337 2.240 . S
O347 C345 1.279 . S
O348 Cd338 2.297 . S
O348 C343 1.247 . S
O349 Cd338 2.439 . S
O349 C343 1.208 . S
O350 Cd351 2.223 . S
O350 C358 1.315 . S
Cd351 O350 2.223 . S
Cd351 O354 2.297 . S
Cd351 O355 2.439 . S
Cd351 O361 2.240 . S
Cd352 O353 2.240 . S
Cd352 O360 2.223 . S
Cd352 O362 2.297 . S
Cd352 O363 2.439 . S
O353 Cd352 2.240 . S
O353 C358 1.279 . S
O354 Cd351 2.297 . S
O354 C356 1.247 . S
O355 Cd351 2.439 . S
O355 C356 1.208 . S
C356 O354 1.247 . S
C356 O355 1.208 . S
C357 O362 1.247 . S
C357 O363 1.208 . S
C358 O350 1.315 . S
C358 O353 1.279 . S
C359 O360 1.315 . S
C359 O361 1.279 . S
O360 Cd352 2.223 . S
O360 C359 1.315 . S
O361 Cd351 2.240 . S
O361 C359 1.279 . S
O362 Cd352 2.297 . S
O362 C357 1.247 . S
O363 Cd352 2.439 . S
O363 C357 1.208 . S
O364 Cd365 2.223 . S
O364 C372 1.315 . S
Cd365 O364 2.223 . S
Cd365 O368 2.297 . S
Cd365 O369 2.439 . S
Cd365 O375 2.240 . S
Cd366 O367 2.240 . S
Cd366 O374 2.223 . S
Cd366 O376 2.297 . S
Cd366 O377 2.439 . S
O367 Cd366 2.240 . S
O367 C372 1.279 . S
O368 Cd365 2.297 . S
O368 C370 1.247 . S
O369 Cd365 2.439 . S
O369 C370 1.208 . S
C370 O368 1.247 . S
C370 O369 1.208 . S
C371 O376 1.247 . S
C371 O377 1.208 . S
C372 O364 1.315 . S
C372 O367 1.279 . S
C373 O374 1.315 . S
C373 O375 1.279 . S
O374 Cd366 2.223 . S
O374 C373 1.315 . S
O375 Cd365 2.240 . S
O375 C373 1.279 . S
O376 Cd366 2.297 . S
O376 C371 1.247 . S
O377 Cd366 2.439 . S
O377 C371 1.208 . S
O378 Cd379 2.223 . S
O378 C386 1.315 . S
Cd379 O378 2.223 . S
Cd379 O382 2.314 . S
Cd379 O383 2.439 . S
Cd379 O389 2.240 . S
Cd380 O381 2.240 . S
Cd380 O388 2.223 . S
Cd380 O390 2.297 . S
Cd380 O391 2.439 . S
O381 Cd380 2.240 . S
O381 C386 1.279 . S
O382 Cd379 2.314 . S
O382 C384 1.277 . S
O383 Cd379 2.439 . S
O383 C384 1.208 . S
C384 O382 1.277 . S
C384 O383 1.208 . S
C385 O390 1.247 . S
C385 O391 1.208 . S
C386 O378 1.315 . S
C386 O381 1.279 . S
C387 O388 1.315 . S
C387 O389 1.279 . S
O388 Cd380 2.223 . S
O388 C387 1.315 . S
O389 Cd379 2.240 . S
O389 C387 1.279 . S
O390 Cd380 2.297 . S
O390 C385 1.247 . S
O391 Cd380 2.439 . S
O391 C385 1.208 . S
O392 Cd393 2.223 . S
O392 C400 1.315 . S
Cd393 O392 2.223 . S
Cd393 O396 2.314 . S
Cd393 O397 2.439 . S
Cd393 O403 2.240 . S
Cd394 O395 2.240 . S
Cd394 O402 2.223 . S
Cd394 O404 2.297 . S
Cd394 O405 2.439 . S
O395 Cd394 2.240 . S
O395 C400 1.279 . S
O396 Cd393 2.314 . S
O396 C398 1.277 . S
O397 Cd393 2.439 . S
O397 C398 1.208 . S
C398 O396 1.277 . S
C398 O397 1.208 . S
C399 O404 1.247 . S
C399 O405 1.208 . S
C400 O392 1.315 . S
C400 O395 1.279 . S
C401 O402 1.315 . S
C401 O403 1.279 . S
O402 Cd394 2.223 . S
O402 C401 1.315 . S
O403 Cd393 2.240 . S
O403 C401 1.279 . S
O404 Cd394 2.297 . S
O404 C399 1.247 . S
O405 Cd394 2.439 . S
O405 C399 1.208 . S
O406 Cd407 2.223 . S
O406 C414 1.315 . S
Cd407 O406 2.223 . S
Cd407 O410 2.313 . S
Cd407 O411 2.439 . S
Cd407 O417 2.240 . S
Cd408 O409 2.240 . S
Cd408 O416 2.223 . S
Cd408 O418 2.297 . S
Cd408 O419 2.439 . S
O409 Cd408 2.240 . S
O409 C414 1.279 . S
O410 Cd407 2.313 . S
O410 C412 1.276 . S
O411 Cd407 2.439 . S
O411 C412 1.208 . S
C412 O410 1.276 . S
C412 O411 1.208 . S
C413 O418 1.247 . S
C413 O419 1.208 . S
C414 O406 1.315 . S
C414 O409 1.279 . S
C415 O416 1.315 . S
C415 O417 1.279 . S
O416 Cd408 2.223 . S
O416 C415 1.315 . S
O417 Cd407 2.240 . S
O417 C415 1.279 . S
O418 Cd408 2.297 . S
O418 C413 1.247 . S
O419 Cd408 2.439 . S
O419 C413 1.208 . S
O420 Cd421 2.223 . S
O420 C428 1.315 . S
Cd421 O420 2.223 . S
Cd421 O424 2.297 . S
Cd421 O425 2.439 . S
Cd421 O431 2.240 . S
Cd422 O423 2.240 . S
Cd422 O430 2.223 . S
Cd422 O432 2.297 . S
Cd422 O433 2.439 . S
O423 Cd422 2.240 . S
O423 C428 1.279 . S
O424 Cd421 2.297 . S
O424 C426 1.247 . S
O425 Cd421 2.439 . S
O425 C426 1.208 . S
C426 O424 1.247 . S
C426 O425 1.208 . S
C427 O432 1.247 . S
C427 O433 1.208 . S
C428 O420 1.315 . S
C428 O423 1.279 . S
C429 O430 1.315 . S
C429 O431 1.279 . S
O430 Cd422 2.223 . S
O430 C429 1.315 . S
O431 Cd421 2.240 . S
O431 C429 1.279 . S
O432 Cd422 2.297 . S
O432 C427 1.247 . S
O433 Cd422 2.439 . S
O433 C427 1.208 . S
O434 Cd435 2.223 . S
O434 C442 1.315 . S
Cd435 O434 2.223 . S
Cd435 O438 2.297 . S
Cd435 O439 2.439 . S
Cd435 O445 2.240 . S
Cd436 O437 2.240 . S
Cd436 O444 2.223 . S
Cd436 O446 2.297 . S
Cd436 O447 2.439 . S
O437 Cd436 2.240 . S
O437 C442 1.279 . S
O438 Cd435 2.297 . S
O438 C440 1.247 . S
O439 Cd435 2.439 . S
O439 C440 1.208 . S
C440 O438 1.247 . S
C440 O439 1.208 . S
C441 O446 1.247 . S
C441 O447 1.208 . S
C442 O434 1.315 . S
C442 O437 1.279 . S
C443 O444 1.315 . S
C443 O445 1.279 . S
O444 Cd436 2.223 . S
O444 C443 1.315 . S
O445 Cd435 2.240 . S
O445 C443 1.279 . S
O446 Cd436 2.297 . S
O446 C441 1.247 . S
O447 Cd436 2.439 . S
O447 C441 1.208 . S
O448 Cd449 2.223 . S
O448 C456 1.315 . S
Cd449 O448 2.223 . S
Cd449 O452 2.297 . S
Cd449 O453 2.439 . S
Cd449 O459 2.240 . S
Cd450 O451 2.240 . S
Cd450 O458 2.223 . S
Cd450 O460 2.297 . S
Cd450 O461 2.439 . S
O451 Cd450 2.240 . S
O451 C456 1.279 . S
O452 Cd449 2.297 . S
O452 C454 1.247 . S
O453 Cd449 2.439 . S
O453 C454 1.208 . S
C454 O452 1.247 . S
C454 O453 1.208 . S
C455 O460 1.247 . S
C455 O461 1.208 . S
C456 O448 1.315 . S
C456 O451 1.279 . S
C457 O458 1.315 . S
C457 O459 1.279 . S
O458 Cd450 2.223 . S
O458 C457 1.315 . S
O459 Cd449 2.240 . S
O459 C457 1.279 . S
O460 Cd450 2.297 . S
O460 C455 1.247 . S
O461 Cd450 2.439 . S
O461 C455 1.208 . S
O462 Cd463 2.223 . S
O462 C470 1.315 . S
Cd463 O462 2.223 . S
Cd463 O466 2.297 . S
Cd463 O467 2.439 . S
Cd463 O473 2.240 . S
Cd464 O465 2.240 . S
Cd464 O472 2.223 . S
Cd464 O474 2.297 . S
Cd464 O475 2.439 . S
O465 Cd464 2.240 . S
O465 C470 1.279 . S
O466 Cd463 2.297 . S
O466 C468 1.247 . S
O467 Cd463 2.439 . S
O467 C468 1.208 . S
C468 O466 1.247 . S
C468 O467 1.208 . S
C469 O474 1.247 . S
C469 O475 1.208 . S
C470 O462 1.315 . S
C470 O465 1.279 . S
C471 O472 1.315 . S
C471 O473 1.279 . S
O472 Cd464 2.223 . S
O472 C471 1.315 . S
O473 Cd463 2.240 . S
O473 C471 1.279 . S
O474 Cd464 2.297 . S
O474 C469 1.247 . S
O475 Cd464 2.439 . S
O475 C469 1.208 . S
O476 Cd477 2.223 . S
O476 C484 1.315 . S
Cd477 O476 2.223 . S
Cd477 O480 2.297 . S
Cd477 O481 2.439 . S
Cd477 O487 2.240 . S
Cd478 O479 2.240 . S
Cd478 O486 2.223 . S
Cd478 O488 2.297 . S
Cd478 O489 2.439 . S
O479 Cd478 2.240 . S
O479 C484 1.279 . S
O480 Cd477 2.297 . S
O480 C482 1.247 . S
O481 Cd477 2.439 . S
O481 C482 1.208 . S
C482 O480 1.247 . S
C482 O481 1.208 . S
C483 O488 1.247 . S
C483 O489 1.208 . S
C484 O476 1.315 . S
C484 O479 1.279 . S
C485 O486 1.315 . S
C485 O487 1.279 . S
O486 Cd478 2.223 . S
O486 C485 1.315 . S
O487 Cd477 2.240 . S
O487 C485 1.279 . S
O488 Cd478 2.297 . S
O488 C483 1.247 . S
O489 Cd478 2.439 . S
O489 C483 1.208 . S
O490 Cd491 2.223 . S
O490 C498 1.315 . S
Cd491 O490 2.223 . S
Cd491 O494 2.297 . S
Cd491 O495 2.439 . S
Cd491 O501 2.240 . S
Cd492 O493 2.240 . S
Cd492 O500 2.223 . S
Cd492 O502 2.297 . S
Cd492 O503 2.439 . S
O493 Cd492 2.240 . S
O493 C498 1.279 . S
O494 Cd491 2.297 . S
O494 C496 1.247 . S
O495 Cd491 2.439 . S
O495 C496 1.208 . S
C496 O494 1.247 . S
C496 O495 1.208 . S
C497 O502 1.247 . S
C497 O503 1.208 . S
C498 O490 1.315 . S
C498 O493 1.279 . S
C499 O500 1.315 . S
C499 O501 1.279 . S
O500 Cd492 2.223 . S
O500 C499 1.315 . S
O501 Cd491 2.240 . S
O501 C499 1.279 . S
O502 Cd492 2.297 . S
O502 C497 1.247 . S
O503 Cd492 2.439 . S
O503 C497 1.208 . S
H504 C512 0.950 . S
H505 C517 0.950 . S
H506 C514 0.950 . S
H507 C516 0.950 . S
H508 C518 0.950 . S
H509 C520 0.950 . S
H510 C522 0.950 . S
H511 C523 0.950 . S
C512 H504 0.950 . S
C512 C513 1.386 . S
C512 C514 1.391 . S
C513 C512 1.386 . S
C513 C517 1.393 . S
C514 H506 0.950 . S
C514 C512 1.391 . S
C514 C515 1.400 . S
C515 C514 1.400 . S
C515 C516 1.398 . S
C515 C521 1.491 1_455 S
C516 H507 0.950 . S
C516 C515 1.398 . S
C516 C517 1.391 . S
C517 H505 0.950 . S
C517 C513 1.393 . S
C517 C516 1.391 . S
C518 H508 0.950 . S
C518 C519 1.386 . S
C518 C520 1.391 . S
C519 C518 1.386 . S
C519 C523 1.393 . S
C520 H509 0.950 . S
C520 C518 1.391 . S
C520 C521 1.400 . S
C521 C515 1.491 1_655 S
C521 C520 1.400 . S
C521 C522 1.398 . S
C522 H510 0.950 . S
C522 C521 1.398 . S
C522 C523 1.391 . S
C523 H511 0.950 . S
C523 C519 1.393 . S
C523 C522 1.391 . S
H524 C532 0.950 . S
H525 C537 0.950 . S
H526 C534 0.950 . S
H527 C536 0.950 . S
H528 C538 0.950 . S
H529 C540 0.950 . S
H530 C542 0.950 . S
H531 C543 0.950 . S
C532 H524 0.950 . S
C532 C533 1.386 . S
C532 C534 1.391 . S
C533 C532 1.386 . S
C533 C537 1.393 . S
C534 H526 0.950 . S
C534 C532 1.391 . S
C534 C535 1.400 . S
C535 C534 1.400 . S
C535 C536 1.398 . S
C535 C541 1.491 . S
C536 H527 0.950 . S
C536 C535 1.398 . S
C536 C537 1.391 . S
C537 H525 0.950 . S
C537 C533 1.393 . S
C537 C536 1.391 . S
C538 H528 0.950 . S
C538 C539 1.386 . S
C538 C540 1.391 . S
C539 C538 1.386 . S
C539 C543 1.393 . S
C540 H529 0.950 . S
C540 C538 1.391 . S
C540 C541 1.400 . S
C541 C535 1.491 . S
C541 C540 1.400 . S
C541 C542 1.398 . S
C542 H530 0.950 . S
C542 C541 1.398 . S
C542 C543 1.391 . S
C543 H531 0.950 . S
C543 C539 1.393 . S
C543 C542 1.391 . S
H544 C552 0.950 . S
H545 C557 0.950 . S
H546 C554 0.950 . S
H547 C556 0.950 . S
H548 C558 0.950 . S
H549 C560 0.950 . S
H550 C562 0.950 . S
H551 C563 0.950 . S
C552 H544 0.950 . S
C552 C553 1.386 . S
C552 C554 1.391 . S
C553 C552 1.386 . S
C553 C557 1.393 . S
C554 H546 0.950 . S
C554 C552 1.391 . S
C554 C555 1.400 . S
C555 C554 1.400 . S
C555 C556 1.398 . S
C555 C561 1.491 1_545 S
C556 H547 0.950 . S
C556 C555 1.398 . S
C556 C557 1.391 . S
C557 H545 0.950 . S
C557 C553 1.393 . S
C557 C556 1.391 . S
C558 H548 0.950 . S
C558 C559 1.386 . S
C558 C560 1.391 . S
C559 C558 1.386 . S
C559 C563 1.393 . S
C560 H549 0.950 . S
C560 C558 1.391 . S
C560 C561 1.400 . S
C561 C555 1.491 1_565 S
C561 C560 1.400 . S
C561 C562 1.398 . S
C562 H550 0.950 . S
C562 C561 1.398 . S
C562 C563 1.391 . S
C563 H551 0.950 . S
C563 C559 1.393 . S
C563 C562 1.391 . S
H564 C572 0.950 . S
H565 C577 0.950 . S
H566 C574 0.950 . S
H567 C576 0.950 . S
H568 C578 0.950 . S
H569 C580 0.950 . S
H570 C582 0.950 . S
H571 C583 0.950 . S
C572 H564 0.950 . S
C572 C573 1.386 . S
C572 C574 1.391 . S
C573 C572 1.386 . S
C573 C577 1.393 . S
C574 H566 0.950 . S
C574 C572 1.391 . S
C574 C575 1.400 . S
C575 C574 1.400 . S
C575 C576 1.398 . S
C575 C581 1.491 1_545 S
C576 H567 0.950 . S
C576 C575 1.398 . S
C576 C577 1.391 . S
C577 H565 0.950 . S
C577 C573 1.393 . S
C577 C576 1.391 . S
C578 H568 0.950 . S
C578 C579 1.386 . S
C578 C580 1.391 . S
C579 C578 1.386 . S
C579 C583 1.393 . S
C580 H569 0.950 . S
C580 C578 1.391 . S
C580 C581 1.400 . S
C581 C575 1.491 1_565 S
C581 C580 1.400 . S
C581 C582 1.398 . S
C582 H570 0.950 . S
C582 C581 1.398 . S
C582 C583 1.391 . S
C583 H571 0.950 . S
C583 C579 1.393 . S
C583 C582 1.391 . S
H584 C592 0.950 . S
H585 C597 0.950 . S
H586 C594 0.950 . S
H587 C596 0.950 . S
H588 C598 0.950 . S
H589 C600 0.950 . S
H590 C602 0.950 . S
H591 C603 0.950 . S
C592 H584 0.950 . S
C592 C593 1.386 . S
C592 C594 1.391 . S
C593 C592 1.386 . S
C593 C597 1.393 . S
C594 H586 0.950 . S
C594 C592 1.391 . S
C594 C595 1.400 . S
C595 C594 1.400 . S
C595 C596 1.398 . S
C595 C601 1.491 1_655 S
C596 H587 0.950 . S
C596 C595 1.398 . S
C596 C597 1.391 . S
C597 H585 0.950 . S
C597 C593 1.393 . S
C597 C596 1.391 . S
C598 H588 0.950 . S
C598 C599 1.386 . S
C598 C600 1.391 . S
C599 C598 1.386 . S
C599 C603 1.393 . S
C600 H589 0.950 . S
C600 C598 1.391 . S
C600 C601 1.400 . S
C601 C595 1.491 1_455 S
C601 C600 1.400 . S
C601 C602 1.398 . S
C602 H590 0.950 . S
C602 C601 1.398 . S
C602 C603 1.391 . S
C603 H591 0.950 . S
C603 C599 1.393 . S
C603 C602 1.391 . S
H604 C612 0.950 . S
H605 C617 0.950 . S
H606 C614 0.950 . S
H607 C616 0.950 . S
H608 C618 0.950 . S
H609 C620 0.950 . S
H610 C622 0.950 . S
H611 C623 0.950 . S
C612 H604 0.950 . S
C612 C613 1.386 . S
C612 C614 1.391 . S
C613 C612 1.386 . S
C613 C617 1.393 . S
C614 H606 0.950 . S
C614 C612 1.391 . S
C614 C615 1.400 . S
C615 C614 1.400 . S
C615 C616 1.398 . S
C615 C621 1.491 . S
C616 H607 0.950 . S
C616 C615 1.398 . S
C616 C617 1.391 . S
C617 H605 0.950 . S
C617 C613 1.393 . S
C617 C616 1.391 . S
C618 H608 0.950 . S
C618 C619 1.386 . S
C618 C620 1.391 . S
C619 C618 1.386 . S
C619 C623 1.393 . S
C620 H609 0.950 . S
C620 C618 1.391 . S
C620 C621 1.400 . S
C621 C615 1.491 . S
C621 C620 1.400 . S
C621 C622 1.398 . S
C622 H610 0.950 . S
C622 C621 1.398 . S
C622 C623 1.391 . S
C623 H611 0.950 . S
C623 C619 1.393 . S
C623 C622 1.391 . S
H624 C632 0.950 . S
H625 C637 0.950 . S
H626 C634 0.950 . S
H627 C636 0.950 . S
H628 C638 0.950 . S
H629 C640 0.950 . S
H630 C642 0.950 . S
H631 C643 0.950 . S
C632 H624 0.950 . S
C632 C633 1.386 . S
C632 C634 1.391 . S
C633 C632 1.386 . S
C633 C637 1.393 . S
C634 H626 0.950 . S
C634 C632 1.391 . S
C634 C635 1.400 . S
C635 C634 1.400 . S
C635 C636 1.398 . S
C635 C641 1.491 1_655 S
C636 H627 0.950 . S
C636 C635 1.398 . S
C636 C637 1.391 . S
C637 H625 0.950 . S
C637 C633 1.393 . S
C637 C636 1.391 . S
C638 H628 0.950 . S
C638 C639 1.386 . S
C638 C640 1.391 . S
C639 C638 1.386 . S
C639 C643 1.393 . S
C640 H629 0.950 . S
C640 C638 1.391 . S
C640 C641 1.400 . S
C641 C635 1.491 1_455 S
C641 C640 1.400 . S
C641 C642 1.398 . S
C642 H630 0.950 . S
C642 C641 1.398 . S
C642 C643 1.391 . S
C643 H631 0.950 . S
C643 C639 1.393 . S
C643 C642 1.391 . S
H644 C652 0.950 . S
H645 C657 0.950 . S
H646 C654 0.950 . S
H647 C656 0.950 . S
H648 C658 0.950 . S
H649 C660 0.950 . S
H650 C662 0.950 . S
H651 C663 0.950 . S
C652 H644 0.950 . S
C652 C653 1.386 . S
C652 C654 1.391 . S
C653 C652 1.386 . S
C653 C657 1.393 . S
C654 H646 0.950 . S
C654 C652 1.391 . S
C654 C655 1.400 . S
C655 C654 1.400 . S
C655 C656 1.398 . S
C655 C661 1.491 . S
C656 H647 0.950 . S
C656 C655 1.398 . S
C656 C657 1.391 . S
C657 H645 0.950 . S
C657 C653 1.393 . S
C657 C656 1.391 . S
C658 H648 0.950 . S
C658 C659 1.386 . S
C658 C660 1.391 . S
C659 C658 1.386 . S
C659 C663 1.393 . S
C660 H649 0.950 . S
C660 C658 1.391 . S
C660 C661 1.400 . S
C661 C655 1.491 . S
C661 C660 1.400 . S
C661 C662 1.398 . S
C662 H650 0.950 . S
C662 C661 1.398 . S
C662 C663 1.391 . S
C663 H651 0.950 . S
C663 C659 1.393 . S
C663 C662 1.391 . S
H664 C672 0.950 . S
H665 C677 0.950 . S
H666 C674 0.950 . S
H667 C676 0.950 . S
H668 C678 0.950 . S
H669 C680 0.950 . S
H670 C682 0.950 . S
H671 C683 0.950 . S
C672 H664 0.950 . S
C672 C673 1.386 . S
C672 C674 1.391 . S
C673 C672 1.386 . S
C673 C677 1.393 . S
C674 H666 0.950 . S
C674 C672 1.391 . S
C674 C675 1.400 . S
C675 C674 1.400 . S
C675 C676 1.398 . S
C675 C681 1.491 1_565 S
C676 H667 0.950 . S
C676 C675 1.398 . S
C676 C677 1.391 . S
C677 H665 0.950 . S
C677 C673 1.393 . S
C677 C676 1.391 . S
C678 H668 0.950 . S
C678 C679 1.386 . S
C678 C680 1.391 . S
C679 C678 1.386 . S
C679 C683 1.393 . S
C680 H669 0.950 . S
C680 C678 1.391 . S
C680 C681 1.400 . S
C681 C675 1.491 1_545 S
C681 C680 1.400 . S
C681 C682 1.398 . S
C682 H670 0.950 . S
C682 C681 1.398 . S
C682 C683 1.391 . S
C683 H671 0.950 . S
C683 C679 1.393 . S
C683 C682 1.391 . S
H684 C692 0.950 . S
H685 C697 0.950 . S
H686 C694 0.950 . S
H687 C696 0.950 . S
H688 C698 0.950 . S
H689 C700 0.950 . S
H690 C702 0.950 . S
H691 C703 0.950 . S
C692 H684 0.950 . S
C692 C693 1.386 . S
C692 C694 1.391 . S
C693 C692 1.386 . S
C693 C697 1.393 . S
C694 H686 0.950 . S
C694 C692 1.391 . S
C694 C695 1.400 . S
C695 C694 1.400 . S
C695 C696 1.398 . S
C695 C701 1.491 1_545 S
C696 H687 0.950 . S
C696 C695 1.398 . S
C696 C697 1.391 . S
C697 H685 0.950 . S
C697 C693 1.393 . S
C697 C696 1.391 . S
C698 H688 0.950 . S
C698 C699 1.386 . S
C698 C700 1.391 . S
C699 C698 1.386 . S
C699 C703 1.393 . S
C700 H689 0.950 . S
C700 C698 1.391 . S
C700 C701 1.400 . S
C701 C695 1.491 1_565 S
C701 C700 1.400 . S
C701 C702 1.398 . S
C702 H690 0.950 . S
C702 C701 1.398 . S
C702 C703 1.391 . S
C703 H691 0.950 . S
C703 C699 1.393 . S
C703 C702 1.391 . S
H704 C712 0.950 . S
H705 C717 0.950 . S
H706 C714 0.950 . S
H707 C716 0.950 . S
H708 C718 0.950 . S
H709 C720 0.950 . S
H710 C722 0.950 . S
H711 C723 0.950 . S
C712 H704 0.950 . S
C712 C713 1.386 . S
C712 C714 1.391 . S
C713 C712 1.386 . S
C713 C717 1.393 . S
C714 H706 0.950 . S
C714 C712 1.391 . S
C714 C715 1.400 . S
C715 C714 1.400 . S
C715 C716 1.398 . S
C715 C721 1.491 1_455 S
C716 H707 0.950 . S
C716 C715 1.398 . S
C716 C717 1.391 . S
C717 H705 0.950 . S
C717 C713 1.393 . S
C717 C716 1.391 . S
C718 H708 0.950 . S
C718 C719 1.386 . S
C718 C720 1.391 . S
C719 C718 1.386 . S
C719 C723 1.393 . S
C720 H709 0.950 . S
C720 C718 1.391 . S
C720 C721 1.400 . S
C721 C715 1.491 1_655 S
C721 C720 1.400 . S
C721 C722 1.398 . S
C722 H710 0.950 . S
C722 C721 1.398 . S
C722 C723 1.391 . S
C723 H711 0.950 . S
C723 C719 1.393 . S
C723 C722 1.391 . S
H724 C732 0.950 . S
H725 C737 0.950 . S
H726 C734 0.950 . S
H727 C736 0.950 . S
H728 C738 0.950 . S
H729 C740 0.950 . S
H730 C742 0.950 . S
H731 C743 0.950 . S
C732 H724 0.950 . S
C732 C733 1.386 . S
C732 C734 1.391 . S
C733 C732 1.386 . S
C733 C737 1.393 . S
C734 H726 0.950 . S
C734 C732 1.391 . S
C734 C735 1.400 . S
C735 C734 1.400 . S
C735 C736 1.398 . S
C735 C741 1.491 . S
C736 H727 0.950 . S
C736 C735 1.398 . S
C736 C737 1.391 . S
C737 H725 0.950 . S
C737 C733 1.393 . S
C737 C736 1.391 . S
C738 H728 0.950 . S
C738 C739 1.386 . S
C738 C740 1.391 . S
C739 C738 1.386 . S
C739 C743 1.393 . S
C740 H729 0.950 . S
C740 C738 1.391 . S
C740 C741 1.400 . S
C741 C735 1.491 . S
C741 C740 1.400 . S
C741 C742 1.398 . S
C742 H730 0.950 . S
C742 C741 1.398 . S
C742 C743 1.391 . S
C743 H731 0.950 . S
C743 C739 1.393 . S
C743 C742 1.391 . S
H744 C752 0.950 . S
H745 C757 0.950 . S
H746 C754 0.950 . S
H747 C756 0.950 . S
H748 C758 0.950 . S
H749 C760 0.950 . S
H750 C762 0.950 . S
H751 C763 0.950 . S
C752 H744 0.950 . S
C752 C753 1.386 . S
C752 C754 1.391 . S
C753 C752 1.386 . S
C753 C757 1.393 . S
C754 H746 0.950 . S
C754 C752 1.391 . S
C754 C755 1.400 . S
C755 C754 1.400 . S
C755 C756 1.398 . S
C755 C761 1.491 . S
C756 H747 0.950 . S
C756 C755 1.398 . S
C756 C757 1.391 . S
C757 H745 0.950 . S
C757 C753 1.393 . S
C757 C756 1.391 . S
C758 H748 0.950 . S
C758 C759 1.386 . S
C758 C760 1.391 . S
C759 C758 1.386 . S
C759 C763 1.393 . S
C760 H749 0.950 . S
C760 C758 1.391 . S
C760 C761 1.400 . S
C761 C755 1.491 . S
C761 C760 1.400 . S
C761 C762 1.398 . S
C762 H750 0.950 . S
C762 C761 1.398 . S
C762 C763 1.391 . S
C763 H751 0.950 . S
C763 C759 1.393 . S
C763 C762 1.391 . S
H764 C772 0.950 . S
H765 C777 0.950 . S
H766 C774 0.950 . S
H767 C776 0.950 . S
H768 C778 0.950 . S
H769 C780 0.950 . S
H770 C782 0.950 . S
H771 C783 0.950 . S
C772 H764 0.950 . S
C772 C773 1.386 . S
C772 C774 1.391 . S
C773 C772 1.386 . S
C773 C777 1.393 . S
C774 H766 0.950 . S
C774 C772 1.391 . S
C774 C775 1.400 . S
C775 C774 1.400 . S
C775 C776 1.398 . S
C775 C781 1.491 . S
C776 H767 0.950 . S
C776 C775 1.398 . S
C776 C777 1.391 . S
C777 H765 0.950 . S
C777 C773 1.393 . S
C777 C776 1.391 . S
C778 H768 0.950 . S
C778 C779 1.386 . S
C778 C780 1.391 . S
C779 C778 1.386 . S
C779 C783 1.393 . S
C780 H769 0.950 . S
C780 C778 1.391 . S
C780 C781 1.400 . S
C781 C775 1.491 . S
C781 C780 1.400 . S
C781 C782 1.398 . S
C782 H770 0.950 . S
C782 C781 1.398 . S
C782 C783 1.391 . S
C783 H771 0.950 . S
C783 C779 1.393 . S
C783 C782 1.391 . S
H784 C792 0.950 . S
H785 C797 0.950 . S
H786 C794 0.950 . S
H787 C796 0.950 . S
H788 C798 0.950 . S
H789 C800 0.950 . S
H790 C802 0.950 . S
H791 C803 0.950 . S
C792 H784 0.950 . S
C792 C793 1.386 . S
C792 C794 1.391 . S
C793 C792 1.386 . S
C793 C797 1.393 . S
C794 H786 0.950 . S
C794 C792 1.391 . S
C794 C795 1.400 . S
C795 C794 1.400 . S
C795 C796 1.398 . S
C795 C801 1.491 . S
C796 H787 0.950 . S
C796 C795 1.398 . S
C796 C797 1.391 . S
C797 H785 0.950 . S
C797 C793 1.393 . S
C797 C796 1.391 . S
C798 H788 0.950 . S
C798 C799 1.386 . S
C798 C800 1.391 . S
C799 C798 1.386 . S
C799 C803 1.393 . S
C800 H789 0.950 . S
C800 C798 1.391 . S
C800 C801 1.400 . S
C801 C795 1.491 . S
C801 C800 1.400 . S
C801 C802 1.398 . S
C802 H790 0.950 . S
C802 C801 1.398 . S
C802 C803 1.391 . S
C803 H791 0.950 . S
C803 C799 1.393 . S
C803 C802 1.391 . S
H804 C812 0.950 . S
H805 C817 0.950 . S
H806 C814 0.950 . S
H807 C816 0.950 . S
H808 C818 0.950 . S
H809 C820 0.950 . S
H810 C822 0.950 . S
H811 C823 0.950 . S
C812 H804 0.950 . S
C812 C813 1.386 . S
C812 C814 1.391 . S
C813 C812 1.386 . S
C813 C817 1.393 . S
C814 H806 0.950 . S
C814 C812 1.391 . S
C814 C815 1.400 . S
C815 C814 1.400 . S
C815 C816 1.398 . S
C815 C821 1.491 . S
C816 H807 0.950 . S
C816 C815 1.398 . S
C816 C817 1.391 . S
C817 H805 0.950 . S
C817 C813 1.393 . S
C817 C816 1.391 . S
C818 H808 0.950 . S
C818 C819 1.386 . S
C818 C820 1.391 . S
C819 C818 1.386 . S
C819 C823 1.393 . S
C820 H809 0.950 . S
C820 C818 1.391 . S
C820 C821 1.400 . S
C821 C815 1.491 . S
C821 C820 1.400 . S
C821 C822 1.398 . S
C822 H810 0.950 . S
C822 C821 1.398 . S
C822 C823 1.391 . S
C823 H811 0.950 . S
C823 C819 1.393 . S
C823 C822 1.391 . S
H824 C832 0.950 . S
H825 C837 0.950 . S
H826 C834 0.950 . S
H827 C836 0.950 . S
H828 C838 0.950 . S
H829 C840 0.950 . S
H830 C842 0.950 . S
H831 C843 0.950 . S
C832 H824 0.950 . S
C832 C833 1.386 . S
C832 C834 1.391 . S
C833 C832 1.386 . S
C833 C837 1.393 . S
C834 H826 0.950 . S
C834 C832 1.391 . S
C834 C835 1.400 . S
C835 C834 1.400 . S
C835 C836 1.398 . S
C835 C841 1.491 . S
C836 H827 0.950 . S
C836 C835 1.398 . S
C836 C837 1.391 . S
C837 H825 0.950 . S
C837 C833 1.393 . S
C837 C836 1.391 . S
C838 H828 0.950 . S
C838 C839 1.386 . S
C838 C840 1.391 . S
C839 C838 1.386 . S
C839 C843 1.393 . S
C840 H829 0.950 . S
C840 C838 1.391 . S
C840 C841 1.400 . S
C841 C835 1.491 . S
C841 C840 1.400 . S
C841 C842 1.398 . S
C842 H830 0.950 . S
C842 C841 1.398 . S
C842 C843 1.391 . S
C843 H831 0.950 . S
C843 C839 1.393 . S
C843 C842 1.391 . S
H844 C852 0.950 . S
H845 C857 0.950 . S
H846 C854 0.950 . S
H847 C856 0.950 . S
H848 C858 0.950 . S
H849 C860 0.950 . S
H850 C862 0.950 . S
H851 C863 0.950 . S
C852 H844 0.950 . S
C852 C853 1.386 . S
C852 C854 1.391 . S
C853 C852 1.386 . S
C853 C857 1.393 . S
C854 H846 0.950 . S
C854 C852 1.391 . S
C854 C855 1.400 . S
C855 C854 1.400 . S
C855 C856 1.398 . S
C855 C861 1.491 . S
C856 H847 0.950 . S
C856 C855 1.398 . S
C856 C857 1.391 . S
C857 H845 0.950 . S
C857 C853 1.393 . S
C857 C856 1.391 . S
C858 H848 0.950 . S
C858 C859 1.386 . S
C858 C860 1.391 . S
C859 C858 1.386 . S
C859 C863 1.393 . S
C860 H849 0.950 . S
C860 C858 1.391 . S
C860 C861 1.400 . S
C861 C855 1.491 . S
C861 C860 1.400 . S
C861 C862 1.398 . S
C862 H850 0.950 . S
C862 C861 1.398 . S
C862 C863 1.391 . S
C863 H851 0.950 . S
C863 C859 1.393 . S
C863 C862 1.391 . S
H864 C872 0.950 . S
H865 C877 0.950 . S
H866 C874 0.950 . S
H867 C876 0.950 . S
H868 C878 0.950 . S
H869 C880 0.950 . S
H870 C882 0.950 . S
H871 C883 0.950 . S
C872 H864 0.950 . S
C872 C873 1.386 . S
C872 C874 1.391 . S
C873 C872 1.386 . S
C873 C877 1.393 . S
C874 H866 0.950 . S
C874 C872 1.391 . S
C874 C875 1.400 . S
C875 C874 1.400 . S
C875 C876 1.398 . S
C875 C881 1.491 . S
C876 H867 0.950 . S
C876 C875 1.398 . S
C876 C877 1.391 . S
C877 H865 0.950 . S
C877 C873 1.393 . S
C877 C876 1.391 . S
C878 H868 0.950 . S
C878 C879 1.386 . S
C878 C880 1.391 . S
C879 C878 1.386 . S
C879 C883 1.393 . S
C880 H869 0.950 . S
C880 C878 1.391 . S
C880 C881 1.400 . S
C881 C875 1.491 . S
C881 C880 1.400 . S
C881 C882 1.398 . S
C882 H870 0.950 . S
C882 C881 1.398 . S
C882 C883 1.391 . S
C883 H871 0.950 . S
C883 C879 1.393 . S
C883 C882 1.391 . S
H884 C892 0.950 . S
H885 C897 0.950 . S
H886 C894 0.950 . S
H887 C896 0.950 . S
H888 C898 0.950 . S
H889 C900 0.950 . S
H890 C902 0.950 . S
H891 C903 0.950 . S
C892 H884 0.950 . S
C892 C893 1.386 . S
C892 C894 1.391 . S
C893 C892 1.386 . S
C893 C897 1.393 . S
C894 H886 0.950 . S
C894 C892 1.391 . S
C894 C895 1.400 . S
C895 C894 1.400 . S
C895 C896 1.398 . S
C895 C901 1.491 . S
C896 H887 0.950 . S
C896 C895 1.398 . S
C896 C897 1.391 . S
C897 H885 0.950 . S
C897 C893 1.393 . S
C897 C896 1.391 . S
C898 H888 0.950 . S
C898 C899 1.386 . S
C898 C900 1.391 . S
C899 C898 1.386 . S
C899 C903 1.393 . S
C900 H889 0.950 . S
C900 C898 1.391 . S
C900 C901 1.400 . S
C901 C895 1.491 . S
C901 C900 1.400 . S
C901 C902 1.398 . S
C902 H890 0.950 . S
C902 C901 1.398 . S
C902 C903 1.391 . S
C903 H891 0.950 . S
C903 C899 1.393 . S
C903 C902 1.391 . S
H904 C912 0.950 . S
H905 C917 0.950 . S
H906 C914 0.950 . S
H907 C916 0.950 . S
H908 C918 0.950 . S
H909 C920 0.950 . S
H910 C922 0.950 . S
H911 C923 0.950 . S
C912 H904 0.950 . S
C912 C913 1.386 . S
C912 C914 1.391 . S
C913 C912 1.386 . S
C913 C917 1.393 . S
C914 H906 0.950 . S
C914 C912 1.391 . S
C914 C915 1.400 . S
C915 C914 1.400 . S
C915 C916 1.398 . S
C915 C921 1.491 . S
C916 H907 0.950 . S
C916 C915 1.398 . S
C916 C917 1.391 . S
C917 H905 0.950 . S
C917 C913 1.393 . S
C917 C916 1.391 . S
C918 H908 0.950 . S
C918 C919 1.386 . S
C918 C920 1.391 . S
C919 C918 1.386 . S
C919 C923 1.393 . S
C920 H909 0.950 . S
C920 C918 1.391 . S
C920 C921 1.400 . S
C921 C915 1.491 . S
C921 C920 1.400 . S
C921 C922 1.398 . S
C922 H910 0.950 . S
C922 C921 1.398 . S
C922 C923 1.391 . S
C923 H911 0.950 . S
C923 C919 1.393 . S
C923 C922 1.391 . S
H924 C932 0.950 . S
H925 C937 0.950 . S
H926 C934 0.950 . S
H927 C936 0.950 . S
H928 C938 0.950 . S
H929 C940 0.950 . S
H930 C942 0.950 . S
H931 C943 0.950 . S
C932 H924 0.950 . S
C932 C933 1.386 . S
C932 C934 1.391 . S
C933 C932 1.386 . S
C933 C937 1.393 . S
C934 H926 0.950 . S
C934 C932 1.391 . S
C934 C935 1.400 . S
C935 C934 1.400 . S
C935 C936 1.398 . S
C935 C941 1.491 . S
C936 H927 0.950 . S
C936 C935 1.398 . S
C936 C937 1.391 . S
C937 H925 0.950 . S
C937 C933 1.393 . S
C937 C936 1.391 . S
C938 H928 0.950 . S
C938 C939 1.386 . S
C938 C940 1.391 . S
C939 C938 1.386 . S
C939 C943 1.393 . S
C940 H929 0.950 . S
C940 C938 1.391 . S
C940 C941 1.400 . S
C941 C935 1.491 . S
C941 C940 1.400 . S
C941 C942 1.398 . S
C942 H930 0.950 . S
C942 C941 1.398 . S
C942 C943 1.391 . S
C943 H931 0.950 . S
C943 C939 1.393 . S
C943 C942 1.391 . S
H944 C952 0.950 . S
H945 C957 0.950 . S
H946 C954 0.950 . S
H947 C956 0.950 . S
H948 C958 0.950 . S
H949 C960 0.950 . S
H950 C962 0.950 . S
H951 C963 0.950 . S
C952 H944 0.950 . S
C952 C953 1.386 . S
C952 C954 1.391 . S
C953 C952 1.386 . S
C953 C957 1.393 . S
C954 H946 0.950 . S
C954 C952 1.391 . S
C954 C955 1.400 . S
C955 C954 1.400 . S
C955 C956 1.398 . S
C955 C961 1.491 . S
C956 H947 0.950 . S
C956 C955 1.398 . S
C956 C957 1.391 . S
C957 H945 0.950 . S
C957 C953 1.393 . S
C957 C956 1.391 . S
C958 H948 0.950 . S
C958 C959 1.386 . S
C958 C960 1.391 . S
C959 C958 1.386 . S
C959 C963 1.393 . S
C960 H949 0.950 . S
C960 C958 1.391 . S
C960 C961 1.400 . S
C961 C955 1.491 . S
C961 C960 1.400 . S
C961 C962 1.398 . S
C962 H950 0.950 . S
C962 C961 1.398 . S
C962 C963 1.391 . S
C963 H951 0.950 . S
C963 C959 1.393 . S
C963 C962 1.391 . S
H964 C972 0.950 . S
H965 C977 0.950 . S
H966 C974 0.950 . S
H967 C976 0.950 . S
H968 C978 0.950 . S
H969 C980 0.950 . S
H970 C982 0.950 . S
H971 C983 0.950 . S
C972 H964 0.950 . S
C972 C973 1.386 . S
C972 C974 1.391 . S
C973 C972 1.386 . S
C973 C977 1.393 . S
C974 H966 0.950 . S
C974 C972 1.391 . S
C974 C975 1.400 . S
C975 C974 1.400 . S
C975 C976 1.398 . S
C975 C981 1.491 . S
C976 H967 0.950 . S
C976 C975 1.398 . S
C976 C977 1.391 . S
C977 H965 0.950 . S
C977 C973 1.393 . S
C977 C976 1.391 . S
C978 H968 0.950 . S
C978 C979 1.386 . S
C978 C980 1.391 . S
C979 C978 1.386 . S
C979 C983 1.393 . S
C980 H969 0.950 . S
C980 C978 1.391 . S
C980 C981 1.400 . S
C981 C975 1.491 . S
C981 C980 1.400 . S
C981 C982 1.398 . S
C982 H970 0.950 . S
C982 C981 1.398 . S
C982 C983 1.391 . S
C983 H971 0.950 . S
C983 C979 1.393 . S
C983 C982 1.391 . S
H984 C992 0.950 . S
H985 C997 0.950 . S
H986 C994 0.950 . S
H987 C996 0.950 . S
H988 C998 0.950 . S
H989 C1000 0.950 . S
H990 C1002 0.950 . S
H991 C1003 0.950 . S
C992 H984 0.950 . S
C992 C993 1.386 . S
C992 C994 1.391 . S
C993 C992 1.386 . S
C993 C997 1.393 . S
C994 H986 0.950 . S
C994 C992 1.391 . S
C994 C995 1.400 . S
C995 C994 1.400 . S
C995 C996 1.398 . S
C995 C1001 1.491 . S
C996 H987 0.950 . S
C996 C995 1.398 . S
C996 C997 1.391 . S
C997 H985 0.950 . S
C997 C993 1.393 . S
C997 C996 1.391 . S
C998 H988 0.950 . S
C998 C999 1.386 . S
C998 C1000 1.391 . S
C999 C998 1.386 . S
C999 C1003 1.393 . S
C1000 H989 0.950 . S
C1000 C998 1.391 . S
C1000 C1001 1.400 . S
C1001 C995 1.491 . S
C1001 C1000 1.400 . S
C1001 C1002 1.398 . S
C1002 H990 0.950 . S
C1002 C1001 1.398 . S
C1002 C1003 1.391 . S
C1003 H991 0.950 . S
C1003 C999 1.393 . S
C1003 C1002 1.391 . S
H1004 C1012 0.950 . S
H1005 C1017 0.950 . S
H1006 C1014 0.950 . S
H1007 C1016 0.950 . S
H1008 C1018 0.950 . S
H1009 C1020 0.950 . S
H1010 C1022 0.950 . S
H1011 C1023 0.950 . S
C1012 H1004 0.950 . S
C1012 C1013 1.386 . S
C1012 C1014 1.391 . S
C1013 C1012 1.386 . S
C1013 C1017 1.393 . S
C1014 H1006 0.950 . S
C1014 C1012 1.391 . S
C1014 C1015 1.400 . S
C1015 C1014 1.400 . S
C1015 C1016 1.398 . S
C1015 C1021 1.491 . S
C1016 H1007 0.950 . S
C1016 C1015 1.398 . S
C1016 C1017 1.391 . S
C1017 H1005 0.950 . S
C1017 C1013 1.393 . S
C1017 C1016 1.391 . S
C1018 H1008 0.950 . S
C1018 C1019 1.386 . S
C1018 C1020 1.391 . S
C1019 C1018 1.386 . S
C1019 C1023 1.393 . S
C1020 H1009 0.950 . S
C1020 C1018 1.391 . S
C1020 C1021 1.400 . S
C1021 C1015 1.491 . S
C1021 C1020 1.400 . S
C1021 C1022 1.398 . S
C1022 H1010 0.950 . S
C1022 C1021 1.398 . S
C1022 C1023 1.391 . S
C1023 H1011 0.950 . S
C1023 C1019 1.393 . S
C1023 C1022 1.391 . S
H1024 C1032 0.950 . S
H1025 C1037 0.950 . S
H1026 C1034 0.950 . S
H1027 C1036 0.950 . S
H1028 C1038 0.950 . S
H1029 C1040 0.950 . S
H1030 C1042 0.950 . S
H1031 C1043 0.950 . S
C1032 H1024 0.950 . S
C1032 C1033 1.386 . S
C1032 C1034 1.391 . S
C1033 C1032 1.386 . S
C1033 C1037 1.393 . S
C1034 H1026 0.950 . S
C1034 C1032 1.391 . S
C1034 C1035 1.400 . S
C1035 C1034 1.400 . S
C1035 C1036 1.398 . S
C1035 C1041 1.491 . S
C1036 H1027 0.950 . S
C1036 C1035 1.398 . S
C1036 C1037 1.391 . S
C1037 H1025 0.950 . S
C1037 C1033 1.393 . S
C1037 C1036 1.391 . S
C1038 H1028 0.950 . S
C1038 C1039 1.386 . S
C1038 C1040 1.391 . S
C1039 C1038 1.386 . S
C1039 C1043 1.393 . S
C1040 H1029 0.950 . S
C1040 C1038 1.391 . S
C1040 C1041 1.400 . S
C1041 C1035 1.491 . S
C1041 C1040 1.400 . S
C1041 C1042 1.398 . S
C1042 H1030 0.950 . S
C1042 C1041 1.398 . S
C1042 C1043 1.391 . S
C1043 H1031 0.950 . S
C1043 C1039 1.393 . S
C1043 C1042 1.391 . S
H1044 C1052 0.950 . S
H1045 C1057 0.947 . S
H1046 C1054 0.950 . S
H1047 C1056 0.950 . S
H1048 C1058 0.950 . S
H1049 C1060 0.950 . S
H1050 C1062 0.950 . S
H1051 C1063 0.950 . S
C1052 H1044 0.950 . S
C1052 C1053 1.386 . S
C1052 C1054 1.391 . S
C1053 C1052 1.386 . S
C1053 C1057 1.393 . S
C1054 H1046 0.950 . S
C1054 C1052 1.391 . S
C1054 C1055 1.400 . S
C1055 C1054 1.400 . S
C1055 C1056 1.398 . S
C1055 C1061 1.491 . S
C1056 H1047 0.950 . S
C1056 C1055 1.398 . S
C1056 C1057 1.391 . S
C1057 H1045 0.947 . S
C1057 C1053 1.393 . S
C1057 C1056 1.391 . S
C1058 H1048 0.950 . S
C1058 C1059 1.386 . S
C1058 C1060 1.391 . S
C1059 C1058 1.386 . S
C1059 C1063 1.393 . S
C1060 H1049 0.950 . S
C1060 C1058 1.391 . S
C1060 C1061 1.400 . S
C1061 C1055 1.491 . S
C1061 C1060 1.400 . S
C1061 C1062 1.398 . S
C1062 H1050 0.950 . S
C1062 C1061 1.398 . S
C1062 C1063 1.391 . S
C1063 H1051 0.950 . S
C1063 C1059 1.393 . S
C1063 C1062 1.391 . S
H1064 C1072 0.950 . S
H1065 C1077 0.950 . S
H1066 C1074 0.950 . S
H1067 C1076 0.950 . S
H1068 C1078 0.950 . S
H1069 C1080 0.950 . S
H1070 C1082 0.950 . S
H1071 C1083 0.950 . S
C1072 H1064 0.950 . S
C1072 C1073 1.386 . S
C1072 C1074 1.391 . S
C1073 C1072 1.386 . S
C1073 C1077 1.393 . S
C1074 H1066 0.950 . S
C1074 C1072 1.391 . S
C1074 C1075 1.400 . S
C1075 C1074 1.400 . S
C1075 C1076 1.398 . S
C1075 C1081 1.491 . S
C1076 H1067 0.950 . S
C1076 C1075 1.398 . S
C1076 C1077 1.391 . S
C1077 H1065 0.950 . S
C1077 C1073 1.393 . S
C1077 C1076 1.391 . S
C1078 H1068 0.950 . S
C1078 C1079 1.386 . S
C1078 C1080 1.391 . S
C1079 C1078 1.386 . S
C1079 C1083 1.393 . S
C1080 H1069 0.950 . S
C1080 C1078 1.391 . S
C1080 C1081 1.400 . S
C1081 C1075 1.491 . S
C1081 C1080 1.400 . S
C1081 C1082 1.398 . S
C1082 H1070 0.950 . S
C1082 C1081 1.398 . S
C1082 C1083 1.391 . S
C1083 H1071 0.950 . S
C1083 C1079 1.393 . S
C1083 C1082 1.391 . S
H1084 C1092 0.950 . S
H1085 C1097 0.950 . S
H1086 C1094 0.950 . S
H1087 C1096 0.950 . S
H1088 C1098 0.950 . S
H1089 C1100 0.950 . S
H1090 C1102 0.950 . S
H1091 C1103 0.950 . S
C1092 H1084 0.950 . S
C1092 C1093 1.386 . S
C1092 C1094 1.391 . S
C1093 C1092 1.386 . S
C1093 C1097 1.393 . S
C1094 H1086 0.950 . S
C1094 C1092 1.391 . S
C1094 C1095 1.400 . S
C1095 C1094 1.400 . S
C1095 C1096 1.398 . S
C1095 C1101 1.491 . S
C1096 H1087 0.950 . S
C1096 C1095 1.398 . S
C1096 C1097 1.391 . S
C1097 H1085 0.950 . S
C1097 C1093 1.393 . S
C1097 C1096 1.391 . S
C1098 H1088 0.950 . S
C1098 C1099 1.386 . S
C1098 C1100 1.391 . S
C1099 C1098 1.386 . S
C1099 C1103 1.393 . S
C1100 H1089 0.950 . S
C1100 C1098 1.391 . S
C1100 C1101 1.400 . S
C1101 C1095 1.491 . S
C1101 C1100 1.400 . S
C1101 C1102 1.398 . S
C1102 H1090 0.950 . S
C1102 C1101 1.398 . S
C1102 C1103 1.391 . S
C1103 H1091 0.950 . S
C1103 C1099 1.393 . S
C1103 C1102 1.391 . S
H1104 C1112 0.950 . S
H1105 C1117 0.950 . S
H1106 C1114 0.950 . S
H1107 C1116 0.950 . S
H1108 C1118 0.950 . S
H1109 C1120 0.950 . S
H1110 C1122 0.950 . S
H1111 C1123 0.950 . S
C1112 H1104 0.950 . S
C1112 C1113 1.386 . S
C1112 C1114 1.391 . S
C1113 C1112 1.386 . S
C1113 C1117 1.393 . S
C1114 H1106 0.950 . S
C1114 C1112 1.391 . S
C1114 C1115 1.400 . S
C1115 C1114 1.400 . S
C1115 C1116 1.398 . S
C1115 C1121 1.491 . S
C1116 H1107 0.950 . S
C1116 C1115 1.398 . S
C1116 C1117 1.391 . S
C1117 H1105 0.950 . S
C1117 C1113 1.393 . S
C1117 C1116 1.391 . S
C1118 H1108 0.950 . S
C1118 C1119 1.386 . S
C1118 C1120 1.391 . S
C1119 C1118 1.386 . S
C1119 C1123 1.393 . S
C1120 H1109 0.950 . S
C1120 C1118 1.391 . S
C1120 C1121 1.400 . S
C1121 C1115 1.491 . S
C1121 C1120 1.400 . S
C1121 C1122 1.398 . S
C1122 H1110 0.950 . S
C1122 C1121 1.398 . S
C1122 C1123 1.391 . S
C1123 H1111 0.950 . S
C1123 C1119 1.393 . S
C1123 C1122 1.391 . S
H1124 C1132 0.950 . S
H1125 C1137 0.950 . S
H1126 C1134 0.950 . S
H1127 C1136 0.950 . S
H1128 C1138 0.950 . S
H1129 C1140 0.950 . S
H1130 C1142 0.950 . S
H1131 C1143 0.950 . S
C1132 H1124 0.950 . S
C1132 C1133 1.386 . S
C1132 C1134 1.391 . S
C1133 C1132 1.386 . S
C1133 C1137 1.393 . S
C1134 H1126 0.950 . S
C1134 C1132 1.391 . S
C1134 C1135 1.400 . S
C1135 C1134 1.400 . S
C1135 C1136 1.398 . S
C1135 C1141 1.491 . S
C1136 H1127 0.950 . S
C1136 C1135 1.398 . S
C1136 C1137 1.391 . S
C1137 H1125 0.950 . S
C1137 C1133 1.393 . S
C1137 C1136 1.391 . S
C1138 H1128 0.950 . S
C1138 C1139 1.386 . S
C1138 C1140 1.391 . S
C1139 C1138 1.386 . S
C1139 C1143 1.393 . S
C1140 H1129 0.950 . S
C1140 C1138 1.391 . S
C1140 C1141 1.400 . S
C1141 C1135 1.491 . S
C1141 C1140 1.400 . S
C1141 C1142 1.398 . S
C1142 H1130 0.950 . S
C1142 C1141 1.398 . S
C1142 C1143 1.391 . S
C1143 H1131 0.950 . S
C1143 C1139 1.393 . S
C1143 C1142 1.391 . S
H1144 C1152 0.950 . S
H1145 C1157 0.950 . S
H1146 C1154 0.950 . S
H1147 C1156 0.950 . S
H1148 C1158 0.950 . S
H1149 C1160 0.950 . S
H1150 C1162 0.950 . S
H1151 C1163 0.950 . S
C1152 H1144 0.950 . S
C1152 C1153 1.386 . S
C1152 C1154 1.391 . S
C1153 C1152 1.386 . S
C1153 C1157 1.393 . S
C1154 H1146 0.950 . S
C1154 C1152 1.391 . S
C1154 C1155 1.400 . S
C1155 C1154 1.400 . S
C1155 C1156 1.398 . S
C1155 C1161 1.491 . S
C1156 H1147 0.950 . S
C1156 C1155 1.398 . S
C1156 C1157 1.391 . S
C1157 H1145 0.950 . S
C1157 C1153 1.393 . S
C1157 C1156 1.391 . S
C1158 H1148 0.950 . S
C1158 C1159 1.386 . S
C1158 C1160 1.391 . S
C1159 C1158 1.386 . S
C1159 C1163 1.393 . S
C1160 H1149 0.950 . S
C1160 C1158 1.391 . S
C1160 C1161 1.400 . S
C1161 C1155 1.491 . S
C1161 C1160 1.400 . S
C1161 C1162 1.398 . S
C1162 H1150 0.950 . S
C1162 C1161 1.398 . S
C1162 C1163 1.391 . S
C1163 H1151 0.950 . S
C1163 C1159 1.393 . S
C1163 C1162 1.391 . S
H1164 C1172 0.950 . S
H1165 C1177 0.950 . S
H1166 C1174 0.950 . S
H1167 C1176 0.950 . S
H1168 C1178 0.950 . S
H1169 C1180 0.950 . S
H1170 C1182 0.950 . S
H1171 C1183 0.950 . S
C1172 H1164 0.950 . S
C1172 C1173 1.386 . S
C1172 C1174 1.391 . S
C1173 C1172 1.386 . S
C1173 C1177 1.393 . S
C1174 H1166 0.950 . S
C1174 C1172 1.391 . S
C1174 C1175 1.400 . S
C1175 C1174 1.400 . S
C1175 C1176 1.398 . S
C1175 C1181 1.491 . S
C1176 H1167 0.950 . S
C1176 C1175 1.398 . S
C1176 C1177 1.391 . S
C1177 H1165 0.950 . S
C1177 C1173 1.393 . S
C1177 C1176 1.391 . S
C1178 H1168 0.950 . S
C1178 C1179 1.386 . S
C1178 C1180 1.391 . S
C1179 C1178 1.386 . S
C1179 C1183 1.393 . S
C1180 H1169 0.950 . S
C1180 C1178 1.391 . S
C1180 C1181 1.400 . S
C1181 C1175 1.491 . S
C1181 C1180 1.400 . S
C1181 C1182 1.398 . S
C1182 H1170 0.950 . S
C1182 C1181 1.398 . S
C1182 C1183 1.391 . S
C1183 H1171 0.950 . S
C1183 C1179 1.393 . S
C1183 C1182 1.391 . S
H1184 C1192 0.950 . S
H1185 C1197 0.950 . S
H1186 C1194 0.950 . S
H1187 C1196 0.950 . S
H1188 C1198 0.950 . S
H1189 C1200 0.950 . S
H1190 C1202 0.950 . S
H1191 C1203 0.950 . S
C1192 H1184 0.950 . S
C1192 C1193 1.386 . S
C1192 C1194 1.391 . S
C1193 C1192 1.386 . S
C1193 C1197 1.393 . S
C1194 H1186 0.950 . S
C1194 C1192 1.391 . S
C1194 C1195 1.400 . S
C1195 C1194 1.400 . S
C1195 C1196 1.398 . S
C1195 C1201 1.491 . S
C1196 H1187 0.950 . S
C1196 C1195 1.398 . S
C1196 C1197 1.391 . S
C1197 H1185 0.950 . S
C1197 C1193 1.393 . S
C1197 C1196 1.391 . S
C1198 H1188 0.950 . S
C1198 C1199 1.386 . S
C1198 C1200 1.391 . S
C1199 C1198 1.386 . S
C1199 C1203 1.393 . S
C1200 H1189 0.950 . S
C1200 C1198 1.391 . S
C1200 C1201 1.400 . S
C1201 C1195 1.491 . S
C1201 C1200 1.400 . S
C1201 C1202 1.398 . S
C1202 H1190 0.950 . S
C1202 C1201 1.398 . S
C1202 C1203 1.391 . S
C1203 H1191 0.950 . S
C1203 C1199 1.393 . S
C1203 C1202 1.391 . S
H1204 C1212 0.950 . S
H1205 C1217 0.950 . S
H1206 C1214 0.950 . S
H1207 C1216 0.950 . S
H1208 C1218 0.950 . S
H1209 C1220 0.950 . S
H1210 C1222 0.950 . S
H1211 C1223 0.950 . S
C1212 H1204 0.950 . S
C1212 C1213 1.386 . S
C1212 C1214 1.391 . S
C1213 C1212 1.386 . S
C1213 C1217 1.393 . S
C1214 H1206 0.950 . S
C1214 C1212 1.391 . S
C1214 C1215 1.400 . S
C1215 C1214 1.400 . S
C1215 C1216 1.398 . S
C1215 C1221 1.491 . S
C1216 H1207 0.950 . S
C1216 C1215 1.398 . S
C1216 C1217 1.391 . S
C1217 H1205 0.950 . S
C1217 C1213 1.393 . S
C1217 C1216 1.391 . S
C1218 H1208 0.950 . S
C1218 C1219 1.386 . S
C1218 C1220 1.391 . S
C1219 C1218 1.386 . S
C1219 C1223 1.393 . S
C1220 H1209 0.950 . S
C1220 C1218 1.391 . S
C1220 C1221 1.400 . S
C1221 C1215 1.491 . S
C1221 C1220 1.400 . S
C1221 C1222 1.398 . S
C1222 H1210 0.950 . S
C1222 C1221 1.398 . S
C1222 C1223 1.391 . S
C1223 H1211 0.950 . S
C1223 C1219 1.393 . S
C1223 C1222 1.391 . S
H1224 C1232 0.950 . S
H1225 C1237 0.950 . S
H1226 C1234 0.950 . S
H1227 C1236 0.950 . S
H1228 C1238 0.950 . S
H1229 C1240 0.950 . S
H1230 C1242 0.950 . S
H1231 C1243 0.950 . S
C1232 H1224 0.950 . S
C1232 C1233 1.386 . S
C1232 C1234 1.391 . S
C1233 C1232 1.386 . S
C1233 C1237 1.393 . S
C1234 H1226 0.950 . S
C1234 C1232 1.391 . S
C1234 C1235 1.400 . S
C1235 C1234 1.400 . S
C1235 C1236 1.398 . S
C1235 C1241 1.491 . S
C1236 H1227 0.950 . S
C1236 C1235 1.398 . S
C1236 C1237 1.391 . S
C1237 H1225 0.950 . S
C1237 C1233 1.393 . S
C1237 C1236 1.391 . S
C1238 H1228 0.950 . S
C1238 C1239 1.386 . S
C1238 C1240 1.391 . S
C1239 C1238 1.386 . S
C1239 C1243 1.393 . S
C1240 H1229 0.950 . S
C1240 C1238 1.391 . S
C1240 C1241 1.400 . S
C1241 C1235 1.491 . S
C1241 C1240 1.400 . S
C1241 C1242 1.398 . S
C1242 H1230 0.950 . S
C1242 C1241 1.398 . S
C1242 C1243 1.391 . S
C1243 H1231 0.950 . S
C1243 C1239 1.393 . S
C1243 C1242 1.391 . S
H1244 C1252 0.950 . S
H1245 C1257 0.950 . S
H1246 C1254 0.950 . S
H1247 C1256 0.950 . S
H1248 C1258 0.950 . S
H1249 C1260 0.950 . S
H1250 C1262 0.950 . S
H1251 C1263 0.950 . S
C1252 H1244 0.950 . S
C1252 C1253 1.386 1_545 S
C1252 C1254 1.391 . S
C1253 C1252 1.386 1_565 S
C1253 C1257 1.393 . S
C1254 H1246 0.950 . S
C1254 C1252 1.391 . S
C1254 C1255 1.400 1_545 S
C1255 C1254 1.400 1_565 S
C1255 C1256 1.398 . S
C1255 C1261 1.491 1_565 S
C1256 H1247 0.950 . S
C1256 C1255 1.398 . S
C1256 C1257 1.391 . S
C1257 H1245 0.950 . S
C1257 C1253 1.393 . S
C1257 C1256 1.391 . S
C1258 H1248 0.950 . S
C1258 C1259 1.386 1_565 S
C1258 C1260 1.391 . S
C1259 C1258 1.386 1_545 S
C1259 C1263 1.393 . S
C1260 H1249 0.950 . S
C1260 C1258 1.391 . S
C1260 C1261 1.400 1_565 S
C1261 C1255 1.491 1_545 S
C1261 C1260 1.400 1_545 S
C1261 C1262 1.398 . S
C1262 H1250 0.950 . S
C1262 C1261 1.398 . S
C1262 C1263 1.391 . S
C1263 H1251 0.950 . S
C1263 C1259 1.393 . S
C1263 C1262 1.391 . S
H1264 C1272 0.950 . S
H1265 C1277 0.950 . S
H1266 C1274 0.950 . S
H1267 C1276 0.950 . S
H1268 C1278 0.950 . S
H1269 C1280 0.950 . S
H1270 C1282 0.950 . S
H1271 C1283 0.950 . S
C1272 H1264 0.950 . S
C1272 C1273 1.386 . S
C1272 C1274 1.391 . S
C1273 C1272 1.386 . S
C1273 C1277 1.393 1_655 S
C1274 H1266 0.950 . S
C1274 C1272 1.391 . S
C1274 C1275 1.400 . S
C1275 C1274 1.400 . S
C1275 C1276 1.398 1_655 S
C1275 C1281 1.491 1_655 S
C1276 H1267 0.950 . S
C1276 C1275 1.398 1_455 S
C1276 C1277 1.391 . S
C1277 H1265 0.950 . S
C1277 C1273 1.393 1_455 S
C1277 C1276 1.391 . S
C1278 H1268 0.950 . S
C1278 C1279 1.386 . S
C1278 C1280 1.391 . S
C1279 C1278 1.386 . S
C1279 C1283 1.393 1_455 S
C1280 H1269 0.950 . S
C1280 C1278 1.391 . S
C1280 C1281 1.400 . S
C1281 C1275 1.491 1_455 S
C1281 C1280 1.400 . S
C1281 C1282 1.398 1_455 S
C1282 H1270 0.950 . S
C1282 C1281 1.398 1_655 S
C1282 C1283 1.391 . S
C1283 H1271 0.950 . S
C1283 C1279 1.393 1_655 S
C1283 C1282 1.391 . S
H1284 C1292 0.950 . S
H1285 C1297 0.950 . S
H1286 C1294 0.950 . S
H1287 C1296 0.950 . S
H1288 C1298 0.950 . S
H1289 C1300 0.950 . S
H1290 C1302 0.950 . S
H1291 C1303 0.950 . S
C1292 H1284 0.950 . S
C1292 C1293 1.386 . S
C1292 C1294 1.391 . S
C1293 C1292 1.386 . S
C1293 C1297 1.393 . S
C1294 H1286 0.950 . S
C1294 C1292 1.391 . S
C1294 C1295 1.400 . S
C1295 C1294 1.400 . S
C1295 C1296 1.398 . S
C1295 C1301 1.491 . S
C1296 H1287 0.950 . S
C1296 C1295 1.398 . S
C1296 C1297 1.391 . S
C1297 H1285 0.950 . S
C1297 C1293 1.393 . S
C1297 C1296 1.391 . S
C1298 H1288 0.950 . S
C1298 C1299 1.386 . S
C1298 C1300 1.391 . S
C1299 C1298 1.386 . S
C1299 C1303 1.393 . S
C1300 H1289 0.950 . S
C1300 C1298 1.391 . S
C1300 C1301 1.400 . S
C1301 C1295 1.491 . S
C1301 C1300 1.400 . S
C1301 C1302 1.398 . S
C1302 H1290 0.950 . S
C1302 C1301 1.398 . S
C1302 C1303 1.391 . S
C1303 H1291 0.950 . S
C1303 C1299 1.393 . S
C1303 C1302 1.391 . S
H1304 C1312 0.950 . S
H1305 C1317 0.964 1_565 S
H1306 C1314 0.950 . S
H1307 C1316 0.950 . S
H1308 C1318 0.950 . S
H1309 C1320 0.950 . S
H1310 C1322 0.950 . S
H1311 C1323 0.965 1_545 S
C1312 H1304 0.950 . S
C1312 C1313 1.386 . S
C1312 C1314 1.391 . S
C1313 C1312 1.386 . S
C1313 C1317 1.384 . S
C1314 H1306 0.950 . S
C1314 C1312 1.391 . S
C1314 C1315 1.400 . S
C1315 C1314 1.400 . S
C1315 C1316 1.398 1_545 S
C1315 C1321 1.491 1_545 S
C1316 H1307 0.950 . S
C1316 C1315 1.398 1_565 S
C1316 C1317 1.387 1_565 S
C1317 H1305 0.964 1_545 S
C1317 C1313 1.384 . S
C1317 C1316 1.387 1_545 S
C1318 H1308 0.950 . S
C1318 C1319 1.386 . S
C1318 C1320 1.391 . S
C1319 C1318 1.386 . S
C1319 C1323 1.384 . S
C1320 H1309 0.950 . S
C1320 C1318 1.391 . S
C1320 C1321 1.400 . S
C1321 C1315 1.491 1_565 S
C1321 C1320 1.400 . S
C1321 C1322 1.398 1_565 S
C1322 H1310 0.950 . S
C1322 C1321 1.398 1_545 S
C1322 C1323 1.387 1_545 S
C1323 H1311 0.965 1_565 S
C1323 C1319 1.384 . S
C1323 C1322 1.387 1_565 S
H1324 C1332 0.950 . S
H1325 C1337 0.950 . S
H1326 C1334 0.950 . S
H1327 C1336 0.950 . S
H1328 C1338 0.950 . S
H1329 C1340 0.950 . S
H1330 C1342 0.950 . S
H1331 C1343 0.950 . S
C1332 H1324 0.950 . S
C1332 C1333 1.386 1_655 S
C1332 C1334 1.391 . S
C1333 C1332 1.386 1_455 S
C1333 C1337 1.393 . S
C1334 H1326 0.950 . S
C1334 C1332 1.391 . S
C1334 C1335 1.400 1_655 S
C1335 C1334 1.400 1_455 S
C1335 C1336 1.398 . S
C1335 C1341 1.491 1_455 S
C1336 H1327 0.950 . S
C1336 C1335 1.398 . S
C1336 C1337 1.391 . S
C1337 H1325 0.950 . S
C1337 C1333 1.393 . S
C1337 C1336 1.391 . S
C1338 H1328 0.950 . S
C1338 C1339 1.386 1_455 S
C1338 C1340 1.391 . S
C1339 C1338 1.386 1_655 S
C1339 C1343 1.393 . S
C1340 H1329 0.950 . S
C1340 C1338 1.391 . S
C1340 C1341 1.400 1_455 S
C1341 C1335 1.491 1_655 S
C1341 C1340 1.400 1_655 S
C1341 C1342 1.398 . S
C1342 H1330 0.950 . S
C1342 C1341 1.398 . S
C1342 C1343 1.391 . S
C1343 H1331 0.950 . S
C1343 C1339 1.393 . S
C1343 C1342 1.391 . S
H1344 C1352 0.950 . S
H1345 C1357 0.950 . S
H1346 C1354 0.950 . S
H1347 C1356 0.950 . S
H1348 C1358 0.950 . S
H1349 C1360 0.950 . S
H1350 C1362 0.950 . S
H1351 C1363 0.950 . S
C1352 H1344 0.950 . S
C1352 C1353 1.386 . S
C1352 C1354 1.391 . S
C1353 C1352 1.386 . S
C1353 C1357 1.393 . S
C1354 H1346 0.950 . S
C1354 C1352 1.391 . S
C1354 C1355 1.400 . S
C1355 C1354 1.400 . S
C1355 C1356 1.398 . S
C1355 C1361 1.491 . S
C1356 H1347 0.950 . S
C1356 C1355 1.398 . S
C1356 C1357 1.391 . S
C1357 H1345 0.950 . S
C1357 C1353 1.393 . S
C1357 C1356 1.391 . S
C1358 H1348 0.950 . S
C1358 C1359 1.386 . S
C1358 C1360 1.391 . S
C1359 C1358 1.386 . S
C1359 C1363 1.393 . S
C1360 H1349 0.950 . S
C1360 C1358 1.391 . S
C1360 C1361 1.400 . S
C1361 C1355 1.491 . S
C1361 C1360 1.400 . S
C1361 C1362 1.398 . S
C1362 H1350 0.950 . S
C1362 C1361 1.398 . S
C1362 C1363 1.391 . S
C1363 H1351 0.950 . S
C1363 C1359 1.393 . S
C1363 C1362 1.391 . S
H1364 C1372 0.950 . S
H1365 C1377 0.950 . S
H1366 C1374 0.950 . S
H1367 C1376 0.950 . S
H1368 C1378 0.950 . S
H1369 C1380 0.950 . S
H1370 C1382 0.950 . S
H1371 C1383 0.950 . S
C1372 H1364 0.950 . S
C1372 C1373 1.386 . S
C1372 C1374 1.391 . S
C1373 C1372 1.386 . S
C1373 C1377 1.393 . S
C1374 H1366 0.950 . S
C1374 C1372 1.391 . S
C1374 C1375 1.400 . S
C1375 C1374 1.400 . S
C1375 C1376 1.398 . S
C1375 C1381 1.491 . S
C1376 H1367 0.950 . S
C1376 C1375 1.398 . S
C1376 C1377 1.391 . S
C1377 H1365 0.950 . S
C1377 C1373 1.393 . S
C1377 C1376 1.391 . S
C1378 H1368 0.950 . S
C1378 C1379 1.386 . S
C1378 C1380 1.391 . S
C1379 C1378 1.386 . S
C1379 C1383 1.393 . S
C1380 H1369 0.950 . S
C1380 C1378 1.391 . S
C1380 C1381 1.400 . S
C1381 C1375 1.491 . S
C1381 C1380 1.400 . S
C1381 C1382 1.398 . S
C1382 H1370 0.950 . S
C1382 C1381 1.398 . S
C1382 C1383 1.391 . S
C1383 H1371 0.950 . S
C1383 C1379 1.393 . S
C1383 C1382 1.391 . S
H1384 C1392 0.950 . S
H1385 C1397 0.950 . S
H1386 C1394 0.950 . S
H1387 C1396 0.950 . S
H1388 C1398 0.950 . S
H1389 C1400 0.950 . S
H1390 C1402 0.950 . S
H1391 C1403 0.950 . S
C1392 H1384 0.950 . S
C1392 C1393 1.386 . S
C1392 C1394 1.391 . S
C1393 C1392 1.386 . S
C1393 C1397 1.393 . S
C1394 H1386 0.950 . S
C1394 C1392 1.391 . S
C1394 C1395 1.400 . S
C1395 C1394 1.400 . S
C1395 C1396 1.398 . S
C1395 C1401 1.491 . S
C1396 H1387 0.950 . S
C1396 C1395 1.398 . S
C1396 C1397 1.391 . S
C1397 H1385 0.950 . S
C1397 C1393 1.393 . S
C1397 C1396 1.391 . S
C1398 H1388 0.950 . S
C1398 C1399 1.386 . S
C1398 C1400 1.391 . S
C1399 C1398 1.386 . S
C1399 C1403 1.393 . S
C1400 H1389 0.950 . S
C1400 C1398 1.391 . S
C1400 C1401 1.400 . S
C1401 C1395 1.491 . S
C1401 C1400 1.400 . S
C1401 C1402 1.398 . S
C1402 H1390 0.950 . S
C1402 C1401 1.398 . S
C1402 C1403 1.391 . S
C1403 H1391 0.950 . S
C1403 C1399 1.393 . S
C1403 C1402 1.391 . S
H1404 C1412 0.950 . S
H1405 C1417 0.950 . S
H1406 C1414 0.950 . S
H1407 C1416 0.950 . S
H1408 C1418 0.950 . S
H1409 C1420 0.950 . S
H1410 C1422 0.950 . S
H1411 C1423 0.950 . S
C1412 H1404 0.950 . S
C1412 C1413 1.386 . S
C1412 C1414 1.391 . S
C1413 C1412 1.386 . S
C1413 C1417 1.393 . S
C1414 H1406 0.950 . S
C1414 C1412 1.391 . S
C1414 C1415 1.400 . S
C1415 C1414 1.400 . S
C1415 C1416 1.398 . S
C1415 C1421 1.491 . S
C1416 H1407 0.950 . S
C1416 C1415 1.398 . S
C1416 C1417 1.391 . S
C1417 H1405 0.950 . S
C1417 C1413 1.393 . S
C1417 C1416 1.391 . S
C1418 H1408 0.950 . S
C1418 C1419 1.386 . S
C1418 C1420 1.391 . S
C1419 C1418 1.386 . S
C1419 C1423 1.393 . S
C1420 H1409 0.950 . S
C1420 C1418 1.391 . S
C1420 C1421 1.400 . S
C1421 C1415 1.491 . S
C1421 C1420 1.400 . S
C1421 C1422 1.398 . S
C1422 H1410 0.950 . S
C1422 C1421 1.398 . S
C1422 C1423 1.391 . S
C1423 H1411 0.950 . S
C1423 C1419 1.393 . S
C1423 C1422 1.391 . S
H1424 C1432 0.950 . S
H1425 C1437 0.950 . S
H1426 C1434 0.950 . S
H1427 C1436 0.950 . S
H1428 C1438 0.950 . S
H1429 C1440 0.950 . S
H1430 C1442 0.950 . S
H1431 C1443 0.950 . S
C1432 H1424 0.950 . S
C1432 C1433 1.386 . S
C1432 C1434 1.391 . S
C1433 C1432 1.386 . S
C1433 C1437 1.393 . S
C1434 H1426 0.950 . S
C1434 C1432 1.391 . S
C1434 C1435 1.400 . S
C1435 C1434 1.400 . S
C1435 C1436 1.398 . S
C1435 C1441 1.491 . S
C1436 H1427 0.950 . S
C1436 C1435 1.398 . S
C1436 C1437 1.391 . S
C1437 H1425 0.950 . S
C1437 C1433 1.393 . S
C1437 C1436 1.391 . S
C1438 H1428 0.950 . S
C1438 C1439 1.386 . S
C1438 C1440 1.391 . S
C1439 C1438 1.386 . S
C1439 C1443 1.393 . S
C1440 H1429 0.950 . S
C1440 C1438 1.391 . S
C1440 C1441 1.400 . S
C1441 C1435 1.491 . S
C1441 C1440 1.400 . S
C1441 C1442 1.398 . S
C1442 H1430 0.950 . S
C1442 C1441 1.398 . S
C1442 C1443 1.391 . S
C1443 H1431 0.950 . S
C1443 C1439 1.393 . S
C1443 C1442 1.391 . S
H1444 C1452 0.950 . S
H1445 C1457 0.950 . S
H1446 C1454 0.950 . S
H1447 C1456 0.950 . S
H1448 C1458 0.950 . S
H1449 C1460 0.950 . S
H1450 C1462 0.950 . S
H1451 C1463 0.950 . S
C1452 H1444 0.950 . S
C1452 C1453 1.386 . S
C1452 C1454 1.391 . S
C1453 C1452 1.386 . S
C1453 C1457 1.393 . S
C1454 H1446 0.950 . S
C1454 C1452 1.391 . S
C1454 C1455 1.400 . S
C1455 C1454 1.400 . S
C1455 C1456 1.398 . S
C1455 C1461 1.491 . S
C1456 H1447 0.950 . S
C1456 C1455 1.398 . S
C1456 C1457 1.391 . S
C1457 H1445 0.950 . S
C1457 C1453 1.393 . S
C1457 C1456 1.391 . S
C1458 H1448 0.950 . S
C1458 C1459 1.386 . S
C1458 C1460 1.391 . S
C1459 C1458 1.386 . S
C1459 C1463 1.393 . S
C1460 H1449 0.950 . S
C1460 C1458 1.391 . S
C1460 C1461 1.400 . S
C1461 C1455 1.491 . S
C1461 C1460 1.400 . S
C1461 C1462 1.398 . S
C1462 H1450 0.950 . S
C1462 C1461 1.398 . S
C1462 C1463 1.391 . S
C1463 H1451 0.950 . S
C1463 C1459 1.393 . S
C1463 C1462 1.391 . S
H1464 C1472 0.950 . S
H1465 C1477 0.950 . S
H1466 C1474 0.950 . S
H1467 C1476 0.950 . S
H1468 C1478 0.950 . S
H1469 C1480 0.950 . S
H1470 C1482 0.950 . S
H1471 C1483 0.950 . S
C1472 H1464 0.950 . S
C1472 C1473 1.386 . S
C1472 C1474 1.391 . S
C1473 C1472 1.386 . S
C1473 C1477 1.393 . S
C1474 H1466 0.950 . S
C1474 C1472 1.391 . S
C1474 C1475 1.400 . S
C1475 C1474 1.400 . S
C1475 C1476 1.398 . S
C1475 C1481 1.491 . S
C1476 H1467 0.950 . S
C1476 C1475 1.398 . S
C1476 C1477 1.391 . S
C1477 H1465 0.950 . S
C1477 C1473 1.393 . S
C1477 C1476 1.391 . S
C1478 H1468 0.950 . S
C1478 C1479 1.386 . S
C1478 C1480 1.391 . S
C1479 C1478 1.386 . S
C1479 C1483 1.393 . S
C1480 H1469 0.950 . S
C1480 C1478 1.391 . S
C1480 C1481 1.400 . S
C1481 C1475 1.491 . S
C1481 C1480 1.400 . S
C1481 C1482 1.398 . S
C1482 H1470 0.950 . S
C1482 C1481 1.398 . S
C1482 C1483 1.391 . S
C1483 H1471 0.950 . S
C1483 C1479 1.393 . S
C1483 C1482 1.391 . S
H1484 C1492 0.950 . S
H1485 C1497 0.950 . S
H1486 C1494 0.950 . S
H1487 C1496 0.950 . S
H1488 C1498 0.950 . S
H1489 C1500 0.950 . S
H1490 C1502 0.950 . S
H1491 C1503 0.950 . S
C1492 H1484 0.950 . S
C1492 C1493 1.386 . S
C1492 C1494 1.391 . S
C1493 C1492 1.386 . S
C1493 C1497 1.393 . S
C1494 H1486 0.950 . S
C1494 C1492 1.391 . S
C1494 C1495 1.400 . S
C1495 C1494 1.400 . S
C1495 C1496 1.398 . S
C1495 C1501 1.491 . S
C1496 H1487 0.950 . S
C1496 C1495 1.398 . S
C1496 C1497 1.391 . S
C1497 H1485 0.950 . S
C1497 C1493 1.393 . S
C1497 C1496 1.391 . S
C1498 H1488 0.950 . S
C1498 C1499 1.386 . S
C1498 C1500 1.391 . S
C1499 C1498 1.386 . S
C1499 C1503 1.393 . S
C1500 H1489 0.950 . S
C1500 C1498 1.391 . S
C1500 C1501 1.400 . S
C1501 C1495 1.491 . S
C1501 C1500 1.400 . S
C1501 C1502 1.398 . S
C1502 H1490 0.950 . S
C1502 C1501 1.398 . S
C1502 C1503 1.391 . S
C1503 H1491 0.950 . S
C1503 C1499 1.393 . S
C1503 C1502 1.391 . S
H1504 C1512 0.950 . S
H1505 C1517 0.950 . S
H1506 C1514 0.950 . S
H1507 C1516 0.950 . S
H1508 C1518 0.950 . S
H1509 C1520 0.950 . S
H1510 C1522 0.950 . S
H1511 C1523 0.950 . S
C1512 H1504 0.950 . S
C1512 C1513 1.386 . S
C1512 C1514 1.391 . S
C1513 C1512 1.386 . S
C1513 C1517 1.393 . S
C1514 H1506 0.950 . S
C1514 C1512 1.391 . S
C1514 C1515 1.400 . S
C1515 C1514 1.400 . S
C1515 C1516 1.398 . S
C1515 C1521 1.491 . S
C1516 H1507 0.950 . S
C1516 C1515 1.398 . S
C1516 C1517 1.391 . S
C1517 H1505 0.950 . S
C1517 C1513 1.393 . S
C1517 C1516 1.391 . S
C1518 H1508 0.950 . S
C1518 C1519 1.386 . S
C1518 C1520 1.391 . S
C1519 C1518 1.386 . S
C1519 C1523 1.393 . S
C1520 H1509 0.950 . S
C1520 C1518 1.391 . S
C1520 C1521 1.400 . S
C1521 C1515 1.491 . S
C1521 C1520 1.400 . S
C1521 C1522 1.398 . S
C1522 H1510 0.950 . S
C1522 C1521 1.398 . S
C1522 C1523 1.391 . S
C1523 H1511 0.950 . S
C1523 C1519 1.393 . S
C1523 C1522 1.391 . S
H1524 C1532 0.950 . S
H1525 C1537 0.950 . S
H1526 C1534 0.950 . S
H1527 C1536 0.950 . S
H1528 C1538 0.950 . S
H1529 C1540 0.950 . S
H1530 C1542 0.950 . S
H1531 C1543 0.950 . S
C1532 H1524 0.950 . S
C1532 C1533 1.386 . S
C1532 C1534 1.391 . S
C1533 C1532 1.386 . S
C1533 C1537 1.393 . S
C1534 H1526 0.950 . S
C1534 C1532 1.391 . S
C1534 C1535 1.400 . S
C1535 C1534 1.400 . S
C1535 C1536 1.398 . S
C1535 C1541 1.491 . S
C1536 H1527 0.950 . S
C1536 C1535 1.398 . S
C1536 C1537 1.391 . S
C1537 H1525 0.950 . S
C1537 C1533 1.393 . S
C1537 C1536 1.391 . S
C1538 H1528 0.950 . S
C1538 C1539 1.386 . S
C1538 C1540 1.391 . S
C1539 C1538 1.386 . S
C1539 C1543 1.393 . S
C1540 H1529 0.950 . S
C1540 C1538 1.391 . S
C1540 C1541 1.400 . S
C1541 C1535 1.491 . S
C1541 C1540 1.400 . S
C1541 C1542 1.398 . S
C1542 H1530 0.950 . S
C1542 C1541 1.398 . S
C1542 C1543 1.391 . S
C1543 H1531 0.950 . S
C1543 C1539 1.393 . S
C1543 C1542 1.391 . S
H1544 C1552 0.950 . S
H1545 C1557 0.950 . S
H1546 C1554 0.950 . S
H1547 C1556 0.950 . S
H1548 C1558 0.950 . S
H1549 C1560 0.950 . S
H1550 C1562 0.950 . S
H1551 C1563 0.950 . S
C1552 H1544 0.950 . S
C1552 C1553 1.386 . S
C1552 C1554 1.391 . S
C1553 C1552 1.386 . S
C1553 C1557 1.393 . S
C1554 H1546 0.950 . S
C1554 C1552 1.391 . S
C1554 C1555 1.400 . S
C1555 C1554 1.400 . S
C1555 C1556 1.398 . S
C1555 C1561 1.491 . S
C1556 H1547 0.950 . S
C1556 C1555 1.398 . S
C1556 C1557 1.391 . S
C1557 H1545 0.950 . S
C1557 C1553 1.393 . S
C1557 C1556 1.391 . S
C1558 H1548 0.950 . S
C1558 C1559 1.386 . S
C1558 C1560 1.391 . S
C1559 C1558 1.386 . S
C1559 C1563 1.393 . S
C1560 H1549 0.950 . S
C1560 C1558 1.391 . S
C1560 C1561 1.400 . S
C1561 C1555 1.491 . S
C1561 C1560 1.400 . S
C1561 C1562 1.398 . S
C1562 H1550 0.950 . S
C1562 C1561 1.398 . S
C1562 C1563 1.391 . S
C1563 H1551 0.950 . S
C1563 C1559 1.393 . S
C1563 C1562 1.391 . S
H1564 C1572 0.950 . S
H1565 C1577 0.950 . S
H1566 C1574 0.950 . S
H1567 C1576 0.950 . S
H1568 C1578 0.950 . S
H1569 C1580 0.950 . S
H1570 C1582 0.950 . S
H1571 C1583 0.950 . S
C1572 H1564 0.950 . S
C1572 C1573 1.386 . S
C1572 C1574 1.391 . S
C1573 C1572 1.386 . S
C1573 C1577 1.393 . S
C1574 H1566 0.950 . S
C1574 C1572 1.391 . S
C1574 C1575 1.400 . S
C1575 C1574 1.400 . S
C1575 C1576 1.398 . S
C1575 C1581 1.491 . S
C1576 H1567 0.950 . S
C1576 C1575 1.398 . S
C1576 C1577 1.391 . S
C1577 H1565 0.950 . S
C1577 C1573 1.393 . S
C1577 C1576 1.391 . S
C1578 H1568 0.950 . S
C1578 C1579 1.386 . S
C1578 C1580 1.391 . S
C1579 C1578 1.386 . S
C1579 C1583 1.393 . S
C1580 H1569 0.950 . S
C1580 C1578 1.391 . S
C1580 C1581 1.400 . S
C1581 C1575 1.491 . S
C1581 C1580 1.400 . S
C1581 C1582 1.398 . S
C1582 H1570 0.950 . S
C1582 C1581 1.398 . S
C1582 C1583 1.391 . S
C1583 H1571 0.950 . S
C1583 C1579 1.393 . S
C1583 C1582 1.391 . S
H1584 C1592 0.950 . S
H1585 C1597 0.950 . S
H1586 C1594 0.950 . S
H1587 C1596 0.950 . S
H1588 C1598 0.950 . S
H1589 C1600 0.950 . S
H1590 C1602 0.950 . S
H1591 C1603 0.950 . S
C1592 H1584 0.950 . S
C1592 C1593 1.386 . S
C1592 C1594 1.391 . S
C1593 C1592 1.386 . S
C1593 C1597 1.393 . S
C1594 H1586 0.950 . S
C1594 C1592 1.391 . S
C1594 C1595 1.400 . S
C1595 C1594 1.400 . S
C1595 C1596 1.398 . S
C1595 C1601 1.491 . S
C1596 H1587 0.950 . S
C1596 C1595 1.398 . S
C1596 C1597 1.391 . S
C1597 H1585 0.950 . S
C1597 C1593 1.393 . S
C1597 C1596 1.391 . S
C1598 H1588 0.950 . S
C1598 C1599 1.386 . S
C1598 C1600 1.391 . S
C1599 C1598 1.386 . S
C1599 C1603 1.393 . S
C1600 H1589 0.950 . S
C1600 C1598 1.391 . S
C1600 C1601 1.400 . S
C1601 C1595 1.491 . S
C1601 C1600 1.400 . S
C1601 C1602 1.398 . S
C1602 H1590 0.950 . S
C1602 C1601 1.398 . S
C1602 C1603 1.391 . S
C1603 H1591 0.950 . S
C1603 C1599 1.393 . S
C1603 C1602 1.391 . S
H1604 C1612 0.950 . S
H1605 C1617 0.950 . S
H1606 C1614 0.950 . S
H1607 C1616 0.950 . S
H1608 C1618 0.950 . S
H1609 C1620 0.950 . S
H1610 C1622 0.950 . S
H1611 C1623 0.950 . S
C1612 H1604 0.950 . S
C1612 C1613 1.386 . S
C1612 C1614 1.391 . S
C1613 C1612 1.386 . S
C1613 C1617 1.393 . S
C1614 H1606 0.950 . S
C1614 C1612 1.391 . S
C1614 C1615 1.400 . S
C1615 C1614 1.400 . S
C1615 C1616 1.398 . S
C1615 C1621 1.491 . S
C1616 H1607 0.950 . S
C1616 C1615 1.398 . S
C1616 C1617 1.391 . S
C1617 H1605 0.950 . S
C1617 C1613 1.393 . S
C1617 C1616 1.391 . S
C1618 H1608 0.950 . S
C1618 C1619 1.386 . S
C1618 C1620 1.391 . S
C1619 C1618 1.386 . S
C1619 C1623 1.393 . S
C1620 H1609 0.950 . S
C1620 C1618 1.391 . S
C1620 C1621 1.400 . S
C1621 C1615 1.491 . S
C1621 C1620 1.400 . S
C1621 C1622 1.398 . S
C1622 H1610 0.950 . S
C1622 C1621 1.398 . S
C1622 C1623 1.391 . S
C1623 H1611 0.950 . S
C1623 C1619 1.393 . S
C1623 C1622 1.391 . S
H1624 C1632 0.950 . S
H1625 C1637 0.950 . S
H1626 C1634 0.950 . S
H1627 C1636 0.950 . S
H1628 C1638 0.950 . S
H1629 C1640 0.950 . S
H1630 C1642 0.950 . S
H1631 C1643 0.950 . S
C1632 H1624 0.950 . S
C1632 C1633 1.386 . S
C1632 C1634 1.391 . S
C1633 C1632 1.386 . S
C1633 C1637 1.393 . S
C1634 H1626 0.950 . S
C1634 C1632 1.391 . S
C1634 C1635 1.400 . S
C1635 C1634 1.400 . S
C1635 C1636 1.398 . S
C1635 C1641 1.491 . S
C1636 H1627 0.950 . S
C1636 C1635 1.398 . S
C1636 C1637 1.391 . S
C1637 H1625 0.950 . S
C1637 C1633 1.393 . S
C1637 C1636 1.391 . S
C1638 H1628 0.950 . S
C1638 C1639 1.386 . S
C1638 C1640 1.391 . S
C1639 C1638 1.386 . S
C1639 C1643 1.393 . S
C1640 H1629 0.950 . S
C1640 C1638 1.391 . S
C1640 C1641 1.400 . S
C1641 C1635 1.491 . S
C1641 C1640 1.400 . S
C1641 C1642 1.398 . S
C1642 H1630 0.950 . S
C1642 C1641 1.398 . S
C1642 C1643 1.391 . S
C1643 H1631 0.950 . S
C1643 C1639 1.393 . S
C1643 C1642 1.391 . S
H1644 C1652 0.950 . S
H1645 C1657 0.950 . S
H1646 C1654 0.950 . S
H1647 C1656 0.950 . S
H1648 C1658 0.950 . S
H1649 C1660 0.950 . S
H1650 C1662 0.950 . S
H1651 C1663 0.950 . S
C1652 H1644 0.950 . S
C1652 C1653 1.386 . S
C1652 C1654 1.391 . S
C1653 C1652 1.386 . S
C1653 C1657 1.393 . S
C1654 H1646 0.950 . S
C1654 C1652 1.391 . S
C1654 C1655 1.400 . S
C1655 C1654 1.400 . S
C1655 C1656 1.398 . S
C1655 C1661 1.491 . S
C1656 H1647 0.950 . S
C1656 C1655 1.398 . S
C1656 C1657 1.391 . S
C1657 H1645 0.950 . S
C1657 C1653 1.393 . S
C1657 C1656 1.391 . S
C1658 H1648 0.950 . S
C1658 C1659 1.386 . S
C1658 C1660 1.391 . S
C1659 C1658 1.386 . S
C1659 C1663 1.393 . S
C1660 H1649 0.950 . S
C1660 C1658 1.391 . S
C1660 C1661 1.400 . S
C1661 C1655 1.491 . S
C1661 C1660 1.400 . S
C1661 C1662 1.398 . S
C1662 H1650 0.950 . S
C1662 C1661 1.398 . S
C1662 C1663 1.391 . S
C1663 H1651 0.950 . S
C1663 C1659 1.393 . S
C1663 C1662 1.391 . S
H1664 C1672 0.950 . S
H1665 C1677 0.950 . S
H1666 C1674 0.950 . S
H1667 C1676 0.950 . S
H1668 C1678 0.950 . S
H1669 C1680 0.950 . S
H1670 C1682 0.950 . S
H1671 C1683 0.950 . S
C1672 H1664 0.950 . S
C1672 C1673 1.386 . S
C1672 C1674 1.391 . S
C1673 C1672 1.386 . S
C1673 C1677 1.393 . S
C1674 H1666 0.950 . S
C1674 C1672 1.391 . S
C1674 C1675 1.400 . S
C1675 C1674 1.400 . S
C1675 C1676 1.398 . S
C1675 C1681 1.491 . S
C1676 H1667 0.950 . S
C1676 C1675 1.398 . S
C1676 C1677 1.391 . S
C1677 H1665 0.950 . S
C1677 C1673 1.393 . S
C1677 C1676 1.391 . S
C1678 H1668 0.950 . S
C1678 C1679 1.386 . S
C1678 C1680 1.391 . S
C1679 C1678 1.386 . S
C1679 C1683 1.393 . S
C1680 H1669 0.950 . S
C1680 C1678 1.391 . S
C1680 C1681 1.400 . S
C1681 C1675 1.491 . S
C1681 C1680 1.400 . S
C1681 C1682 1.398 . S
C1682 H1670 0.950 . S
C1682 C1681 1.398 . S
C1682 C1683 1.391 . S
C1683 H1671 0.950 . S
C1683 C1679 1.393 . S
C1683 C1682 1.391 . S
H1684 C1692 0.950 . S
H1685 C1697 0.950 . S
H1686 C1694 0.950 . S
H1687 C1696 0.950 . S
H1688 C1698 0.950 . S
H1689 C1700 0.950 . S
H1690 C1702 0.950 . S
H1691 C1703 0.950 . S
C1692 H1684 0.950 . S
C1692 C1693 1.386 . S
C1692 C1694 1.391 . S
C1693 C1692 1.386 . S
C1693 C1697 1.393 . S
C1694 H1686 0.950 . S
C1694 C1692 1.391 . S
C1694 C1695 1.400 . S
C1695 C1694 1.400 . S
C1695 C1696 1.398 . S
C1695 C1701 1.491 . S
C1696 H1687 0.950 . S
C1696 C1695 1.398 . S
C1696 C1697 1.391 . S
C1697 H1685 0.950 . S
C1697 C1693 1.393 . S
C1697 C1696 1.391 . S
C1698 H1688 0.950 . S
C1698 C1699 1.386 . S
C1698 C1700 1.391 . S
C1699 C1698 1.386 . S
C1699 C1703 1.393 . S
C1700 H1689 0.950 . S
C1700 C1698 1.391 . S
C1700 C1701 1.400 . S
C1701 C1695 1.491 . S
C1701 C1700 1.400 . S
C1701 C1702 1.398 . S
C1702 H1690 0.950 . S
C1702 C1701 1.398 . S
C1702 C1703 1.391 . S
C1703 H1691 0.950 . S
C1703 C1699 1.393 . S
C1703 C1702 1.391 . S
H1704 C1712 0.950 . S
H1705 C1717 0.950 . S
H1706 C1714 0.950 . S
H1707 C1716 0.950 . S
H1708 C1718 0.950 . S
H1709 C1720 0.950 . S
H1710 C1722 0.950 . S
H1711 C1723 0.950 . S
C1712 H1704 0.950 . S
C1712 C1713 1.386 . S
C1712 C1714 1.391 . S
C1713 C1712 1.386 . S
C1713 C1717 1.393 . S
C1714 H1706 0.950 . S
C1714 C1712 1.391 . S
C1714 C1715 1.400 . S
C1715 C1714 1.400 . S
C1715 C1716 1.398 . S
C1715 C1721 1.491 . S
C1716 H1707 0.950 . S
C1716 C1715 1.398 . S
C1716 C1717 1.391 . S
C1717 H1705 0.950 . S
C1717 C1713 1.393 . S
C1717 C1716 1.391 . S
C1718 H1708 0.950 . S
C1718 C1719 1.386 . S
C1718 C1720 1.391 . S
C1719 C1718 1.386 . S
C1719 C1723 1.393 . S
C1720 H1709 0.950 . S
C1720 C1718 1.391 . S
C1720 C1721 1.400 . S
C1721 C1715 1.491 . S
C1721 C1720 1.400 . S
C1721 C1722 1.398 . S
C1722 H1710 0.950 . S
C1722 C1721 1.398 . S
C1722 C1723 1.391 . S
C1723 H1711 0.950 . S
C1723 C1719 1.393 . S
C1723 C1722 1.391 . S
H1724 C1732 0.950 . S
H1725 C1737 0.950 . S
H1726 C1734 0.950 . S
H1727 C1736 0.950 . S
H1728 C1738 0.950 . S
H1729 C1740 0.950 . S
H1730 C1742 0.950 . S
H1731 C1743 0.950 . S
C1732 H1724 0.950 . S
C1732 C1733 1.386 . S
C1732 C1734 1.391 . S
C1733 C1732 1.386 . S
C1733 C1737 1.393 . S
C1734 H1726 0.950 . S
C1734 C1732 1.391 . S
C1734 C1735 1.400 . S
C1735 C1734 1.400 . S
C1735 C1736 1.398 . S
C1735 C1741 1.491 . S
C1736 H1727 0.950 . S
C1736 C1735 1.398 . S
C1736 C1737 1.391 . S
C1737 H1725 0.950 . S
C1737 C1733 1.393 . S
C1737 C1736 1.391 . S
C1738 H1728 0.950 . S
C1738 C1739 1.386 . S
C1738 C1740 1.391 . S
C1739 C1738 1.386 . S
C1739 C1743 1.393 . S
C1740 H1729 0.950 . S
C1740 C1738 1.391 . S
C1740 C1741 1.400 . S
C1741 C1735 1.491 . S
C1741 C1740 1.400 . S
C1741 C1742 1.398 . S
C1742 H1730 0.950 . S
C1742 C1741 1.398 . S
C1742 C1743 1.391 . S
C1743 H1731 0.950 . S
C1743 C1739 1.393 . S
C1743 C1742 1.391 . S
H1744 C1752 0.950 . S
H1745 C1757 0.950 . S
H1746 C1754 0.950 . S
H1747 C1756 0.950 . S
H1748 C1758 0.950 . S
H1749 C1760 0.950 . S
H1750 C1762 0.950 . S
H1751 C1763 0.950 . S
C1752 H1744 0.950 . S
C1752 C1753 1.386 . S
C1752 C1754 1.391 . S
C1753 C1752 1.386 . S
C1753 C1757 1.393 . S
C1754 H1746 0.950 . S
C1754 C1752 1.391 . S
C1754 C1755 1.400 . S
C1755 C1754 1.400 . S
C1755 C1756 1.398 . S
C1755 C1761 1.491 . S
C1756 H1747 0.950 . S
C1756 C1755 1.398 . S
C1756 C1757 1.391 . S
C1757 H1745 0.950 . S
C1757 C1753 1.393 . S
C1757 C1756 1.391 . S
C1758 H1748 0.950 . S
C1758 C1759 1.386 . S
C1758 C1760 1.391 . S
C1759 C1758 1.386 . S
C1759 C1763 1.393 . S
C1760 H1749 0.950 . S
C1760 C1758 1.391 . S
C1760 C1761 1.400 . S
C1761 C1755 1.491 . S
C1761 C1760 1.400 . S
C1761 C1762 1.398 . S
C1762 H1750 0.950 . S
C1762 C1761 1.398 . S
C1762 C1763 1.391 . S
C1763 H1751 0.950 . S
C1763 C1759 1.393 . S
C1763 C1762 1.391 . S
H1764 C1772 0.950 . S
H1765 C1777 0.950 . S
H1766 C1774 0.950 . S
H1767 C1776 0.950 . S
H1768 C1778 0.950 . S
H1769 C1780 0.950 . S
H1770 C1782 0.950 . S
H1771 C1783 0.950 . S
C1772 H1764 0.950 . S
C1772 C1773 1.386 . S
C1772 C1774 1.391 . S
C1773 C1772 1.386 . S
C1773 C1777 1.393 . S
C1774 H1766 0.950 . S
C1774 C1772 1.391 . S
C1774 C1775 1.400 . S
C1775 C1774 1.400 . S
C1775 C1776 1.398 . S
C1775 C1781 1.491 . S
C1776 H1767 0.950 . S
C1776 C1775 1.398 . S
C1776 C1777 1.391 . S
C1777 H1765 0.950 . S
C1777 C1773 1.393 . S
C1777 C1776 1.391 . S
C1778 H1768 0.950 . S
C1778 C1779 1.386 . S
C1778 C1780 1.391 . S
C1779 C1778 1.386 . S
C1779 C1783 1.393 . S
C1780 H1769 0.950 . S
C1780 C1778 1.391 . S
C1780 C1781 1.400 . S
C1781 C1775 1.491 . S
C1781 C1780 1.400 . S
C1781 C1782 1.398 . S
C1782 H1770 0.950 . S
C1782 C1781 1.398 . S
C1782 C1783 1.391 . S
C1783 H1771 0.950 . S
C1783 C1779 1.393 . S
C1783 C1782 1.391 . S
H1784 C1792 0.950 . S
H1785 C1797 0.950 . S
H1786 C1794 0.950 . S
H1787 C1796 0.950 . S
H1788 C1798 0.950 . S
H1789 C1800 0.950 . S
H1790 C1802 0.950 . S
H1791 C1803 0.950 . S
C1792 H1784 0.950 . S
C1792 C1793 1.386 . S
C1792 C1794 1.391 . S
C1793 C1792 1.386 . S
C1793 C1797 1.393 . S
C1794 H1786 0.950 . S
C1794 C1792 1.391 . S
C1794 C1795 1.400 . S
C1795 C1794 1.400 . S
C1795 C1796 1.398 . S
C1795 C1801 1.491 . S
C1796 H1787 0.950 . S
C1796 C1795 1.398 . S
C1796 C1797 1.391 . S
C1797 H1785 0.950 . S
C1797 C1793 1.393 . S
C1797 C1796 1.391 . S
C1798 H1788 0.950 . S
C1798 C1799 1.386 . S
C1798 C1800 1.391 . S
C1799 C1798 1.386 . S
C1799 C1803 1.393 . S
C1800 H1789 0.950 . S
C1800 C1798 1.391 . S
C1800 C1801 1.400 . S
C1801 C1795 1.491 . S
C1801 C1800 1.400 . S
C1801 C1802 1.398 . S
C1802 H1790 0.950 . S
C1802 C1801 1.398 . S
C1802 C1803 1.391 . S
C1803 H1791 0.950 . S
C1803 C1799 1.393 . S
C1803 C1802 1.391 . S
H1804 C1812 0.950 . S
H1805 C1817 0.950 . S
H1806 C1814 0.950 . S
H1807 C1816 0.950 . S
H1808 C1818 0.950 . S
H1809 C1820 0.950 . S
H1810 C1822 0.950 . S
H1811 C1823 0.950 . S
C1812 H1804 0.950 . S
C1812 C1813 1.386 . S
C1812 C1814 1.391 . S
C1813 C1812 1.386 . S
C1813 C1817 1.393 . S
C1814 H1806 0.950 . S
C1814 C1812 1.391 . S
C1814 C1815 1.400 . S
C1815 C1814 1.400 . S
C1815 C1816 1.398 . S
C1815 C1821 1.491 . S
C1816 H1807 0.950 . S
C1816 C1815 1.398 . S
C1816 C1817 1.391 . S
C1817 H1805 0.950 . S
C1817 C1813 1.393 . S
C1817 C1816 1.391 . S
C1818 H1808 0.950 . S
C1818 C1819 1.386 . S
C1818 C1820 1.391 . S
C1819 C1818 1.386 . S
C1819 C1823 1.393 . S
C1820 H1809 0.950 . S
C1820 C1818 1.391 . S
C1820 C1821 1.400 . S
C1821 C1815 1.491 . S
C1821 C1820 1.400 . S
C1821 C1822 1.398 . S
C1822 H1810 0.950 . S
C1822 C1821 1.398 . S
C1822 C1823 1.391 . S
C1823 H1811 0.950 . S
C1823 C1819 1.393 . S
C1823 C1822 1.391 . S
H1824 C1832 0.950 . S
H1825 C1837 0.950 . S
H1826 C1834 0.950 1_655 S
H1827 C1836 0.950 . S
H1828 C1838 0.950 . S
H1829 C1840 0.950 1_455 S
H1830 C1842 0.950 . S
H1831 C1843 0.950 . S
C1832 H1824 0.950 . S
C1832 C1833 1.386 . S
C1832 C1834 1.391 . S
C1833 C1832 1.386 . S
C1833 C1837 1.393 . S
C1834 H1826 0.950 1_455 S
C1834 C1832 1.391 . S
C1834 C1835 1.400 . S
C1835 C1834 1.400 . S
C1835 C1836 1.398 . S
C1835 C1841 1.491 1_455 S
C1836 H1827 0.950 . S
C1836 C1835 1.398 . S
C1836 C1837 1.391 . S
C1837 H1825 0.950 . S
C1837 C1833 1.393 . S
C1837 C1836 1.391 . S
C1838 H1828 0.950 . S
C1838 C1839 1.386 . S
C1838 C1840 1.391 . S
C1839 C1838 1.386 . S
C1839 C1843 1.393 . S
C1840 H1829 0.950 1_655 S
C1840 C1838 1.391 . S
C1840 C1841 1.400 . S
C1841 C1835 1.491 1_655 S
C1841 C1840 1.400 . S
C1841 C1842 1.398 . S
C1842 H1830 0.950 . S
C1842 C1841 1.398 . S
C1842 C1843 1.391 . S
C1843 H1831 0.950 . S
C1843 C1839 1.393 . S
C1843 C1842 1.391 . S
H1844 C1852 0.950 . S
H1845 C1857 0.950 . S
H1846 C1854 0.950 . S
H1847 C1856 0.950 . S
H1848 C1858 0.950 . S
H1849 C1860 0.950 . S
H1850 C1862 0.950 . S
H1851 C1863 0.950 . S
C1852 H1844 0.950 . S
C1852 C1853 1.386 . S
C1852 C1854 1.391 . S
C1853 C1852 1.386 . S
C1853 C1857 1.393 . S
C1854 H1846 0.950 . S
C1854 C1852 1.391 . S
C1854 C1855 1.400 . S
C1855 C1854 1.400 . S
C1855 C1856 1.398 . S
C1855 C1861 1.491 . S
C1856 H1847 0.950 . S
C1856 C1855 1.398 . S
C1856 C1857 1.391 . S
C1857 H1845 0.950 . S
C1857 C1853 1.393 . S
C1857 C1856 1.391 . S
C1858 H1848 0.950 . S
C1858 C1859 1.386 . S
C1858 C1860 1.391 . S
C1859 C1858 1.386 . S
C1859 C1863 1.393 . S
C1860 H1849 0.950 . S
C1860 C1858 1.391 . S
C1860 C1861 1.400 . S
C1861 C1855 1.491 . S
C1861 C1860 1.400 . S
C1861 C1862 1.398 . S
C1862 H1850 0.950 . S
C1862 C1861 1.398 . S
C1862 C1863 1.391 . S
C1863 H1851 0.950 . S
C1863 C1859 1.393 . S
C1863 C1862 1.391 . S
H1864 C1872 0.950 . S
H1865 C1877 0.950 . S
H1866 C1874 0.950 . S
H1867 C1876 0.950 . S
H1868 C1878 0.950 . S
H1869 C1880 0.950 . S
H1870 C1882 0.950 . S
H1871 C1883 0.950 . S
C1872 H1864 0.950 . S
C1872 C1873 1.386 . S
C1872 C1874 1.391 . S
C1873 C1872 1.386 . S
C1873 C1877 1.393 . S
C1874 H1866 0.950 . S
C1874 C1872 1.391 . S
C1874 C1875 1.400 . S
C1875 C1874 1.400 . S
C1875 C1876 1.398 . S
C1875 C1881 1.491 1_545 S
C1876 H1867 0.950 . S
C1876 C1875 1.398 . S
C1876 C1877 1.391 . S
C1877 H1865 0.950 . S
C1877 C1873 1.393 . S
C1877 C1876 1.391 . S
C1878 H1868 0.950 . S
C1878 C1879 1.386 . S
C1878 C1880 1.391 . S
C1879 C1878 1.386 . S
C1879 C1883 1.393 . S
C1880 H1869 0.950 . S
C1880 C1878 1.391 . S
C1880 C1881 1.400 . S
C1881 C1875 1.491 1_565 S
C1881 C1880 1.400 . S
C1881 C1882 1.398 . S
C1882 H1870 0.950 . S
C1882 C1881 1.398 . S
C1882 C1883 1.391 . S
C1883 H1871 0.950 . S
C1883 C1879 1.393 . S
C1883 C1882 1.391 . S
H1884 C1892 0.950 . S
H1885 C1897 0.926 1_556 S
H1886 C1894 0.950 . S
H1887 C1896 0.950 1_565 S
H1888 C1898 0.950 . S
H1889 C1900 0.950 . S
H1890 C1902 0.950 1_545 S
H1891 C1903 0.926 1_554 S
C1892 H1884 0.950 . S
C1892 C1893 1.386 . S
C1892 C1894 1.391 . S
C1893 C1892 1.386 . S
C1893 C1897 1.443 . S
C1894 H1886 0.950 . S
C1894 C1892 1.391 . S
C1894 C1895 1.400 . S
C1895 C1894 1.400 . S
C1895 C1896 1.398 1_554 S
C1895 C1901 1.491 1_544 S
C1896 H1887 0.950 1_545 S
C1896 C1895 1.398 1_556 S
C1896 C1897 1.374 1_556 S
C1897 H1885 0.926 1_554 S
C1897 C1893 1.443 . S
C1897 C1896 1.374 1_554 S
C1898 H1888 0.950 . S
C1898 C1899 1.386 . S
C1898 C1900 1.391 . S
C1899 C1898 1.386 . S
C1899 C1903 1.443 . S
C1900 H1889 0.950 . S
C1900 C1898 1.391 . S
C1900 C1901 1.400 . S
C1901 C1895 1.491 1_566 S
C1901 C1900 1.400 . S
C1901 C1902 1.398 1_556 S
C1902 H1890 0.950 1_565 S
C1902 C1901 1.398 1_554 S
C1902 C1903 1.374 1_554 S
C1903 H1891 0.926 1_556 S
C1903 C1899 1.443 . S
C1903 C1902 1.374 1_556 S
H1904 C1912 0.950 . S
H1905 C1917 0.950 . S
H1906 C1914 0.950 1_455 S
H1907 C1916 0.950 . S
H1908 C1918 0.950 . S
H1909 C1920 0.950 1_655 S
H1910 C1922 0.950 . S
H1911 C1923 0.950 . S
C1912 H1904 0.950 . S
C1912 C1913 1.386 . S
C1912 C1914 1.391 . S
C1913 C1912 1.386 . S
C1913 C1917 1.393 1_554 S
C1914 H1906 0.950 1_655 S
C1914 C1912 1.391 . S
C1914 C1915 1.400 . S
C1915 C1914 1.400 . S
C1915 C1916 1.398 1_554 S
C1915 C1921 1.491 1_654 S
C1916 H1907 0.950 . S
C1916 C1915 1.398 1_556 S
C1916 C1917 1.391 . S
C1917 H1905 0.950 . S
C1917 C1913 1.393 1_556 S
C1917 C1916 1.391 . S
C1918 H1908 0.950 . S
C1918 C1919 1.386 . S
C1918 C1920 1.391 . S
C1919 C1918 1.386 . S
C1919 C1923 1.393 1_556 S
C1920 H1909 0.950 1_455 S
C1920 C1918 1.391 . S
C1920 C1921 1.400 . S
C1921 C1915 1.491 1_456 S
C1921 C1920 1.400 . S
C1921 C1922 1.398 1_556 S
C1922 H1910 0.950 . S
C1922 C1921 1.398 1_554 S
C1922 C1923 1.391 . S
C1923 H1911 0.950 . S
C1923 C1919 1.393 1_554 S
C1923 C1922 1.391 . S
H1924 C1932 0.930 1_554 S
H1925 C1937 0.950 . S
H1926 C1934 0.950 . S
H1927 C1936 0.950 . S
H1928 C1938 0.930 1_556 S
H1929 C1940 0.950 . S
H1930 C1942 0.950 . S
H1931 C1943 0.950 . S
C1932 H1924 0.930 1_556 S
C1932 C1933 1.427 . S
C1932 C1934 1.376 1_556 S
C1933 C1932 1.427 . S
C1933 C1937 1.393 . S
C1934 H1926 0.950 . S
C1934 C1932 1.376 1_554 S
C1934 C1935 1.400 1_554 S
C1935 C1934 1.400 1_556 S
C1935 C1936 1.398 . S
C1935 C1941 1.491 1_556 S
C1936 H1927 0.950 . S
C1936 C1935 1.398 . S
C1936 C1937 1.391 . S
C1937 H1925 0.950 . S
C1937 C1933 1.393 . S
C1937 C1936 1.391 . S
C1938 H1928 0.930 1_554 S
C1938 C1939 1.427 . S
C1938 C1940 1.376 1_554 S
C1939 C1938 1.427 . S
C1939 C1943 1.393 . S
C1940 H1929 0.950 . S
C1940 C1938 1.376 1_556 S
C1940 C1941 1.400 1_556 S
C1941 C1935 1.491 1_554 S
C1941 C1940 1.400 1_554 S
C1941 C1942 1.398 . S
C1942 H1930 0.950 . S
C1942 C1941 1.398 . S
C1942 C1943 1.391 . S
C1943 H1931 0.950 . S
C1943 C1939 1.393 . S
C1943 C1942 1.391 . S
C513 C9 1.356 . S
C519 C22 1.447 . S
C533 C23 1.331 . S
C539 C36 1.443 . S
C553 C8 1.445 . S
C559 C37 1.352 . S
C573 C51 1.352 . S
C579 C78 1.446 . S
C593 C65 1.349 . S
C599 C50 1.445 . S
C613 C64 1.447 . S
C619 C79 1.356 . S
C633 C93 1.320 . S
C639 C106 1.448 . S
C653 C120 1.443 . S
C659 C107 1.329 . S
C673 C92 1.444 . S
C679 C121 1.343 . S
C693 C162 1.449 . S
C699 C135 1.328 . S
C713 C149 1.353 . S
C719 C134 1.449 . S
C733 C163 1.318 . S
C739 C148 1.447 . S
C753 C190 1.448 . S
C759 C177 1.357 . S
C773 C191 1.340 . S
C779 C204 1.450 . S
C793 C205 1.323 . S
C799 C176 1.448 . S
C813 C219 1.337 . S
C819 C246 1.450 . S
C833 C233 1.328 . S
C839 C218 1.443 . S
C853 C247 1.344 . S
C859 C232 1.444 . S
C873 C274 1.444 . S
C879 C261 1.329 . S
C893 C275 1.320 . S
C899 C288 1.448 . S
C913 C260 1.449 . S
C919 C289 1.354 . S
C933 C330 1.449 . S
C939 C303 1.325 . S
C953 C317 1.356 . S
C959 C302 1.448 . S
C973 C316 1.450 . S
C979 C331 1.336 . S
C993 C358 1.450 . S
C999 C345 1.329 . S
C1013 C359 1.318 . S
C1019 C372 1.447 . S
C1033 C373 1.329 . S
C1039 C344 1.443 . S
C1053 C414 1.449 . S
C1059 C387 1.355 . S
C1073 C401 1.327 . S
C1079 C386 1.449 . S
C1093 C400 1.447 . S
C1099 C415 1.356 . S
C1113 C429 1.352 . S
C1119 C442 1.445 . S
C1133 C443 1.347 . S
C1139 C456 1.450 . S
C1153 C457 1.356 . S
C1159 C428 1.447 . S
C1173 C498 1.449 . S
C1179 C471 1.326 . S
C1193 C470 1.443 . S
C1199 C485 1.331 . S
C1213 C499 1.322 . S
C1219 C484 1.444 . S
C1233 C49 1.756 . S
C1239 C7 1.731 . S
C1253 C21 1.755 . S
C1259 C63 1.731 . S
C1273 C77 1.732 . S
C1279 C35 1.748 . S
C1293 C133 1.741 . S
C1299 C91 1.737 . S
C1313 C105 1.739 . S
C1319 C147 1.738 . S
C1333 C161 1.734 . S
C1339 C119 1.745 . S
C1353 C175 1.732 . S
C1359 C217 1.760 . S
C1373 C189 1.760 . S
C1379 C231 1.747 . S
C1393 C203 1.747 . S
C1399 C245 1.760 . S
C1413 C301 1.756 . S
C1419 C259 1.753 . S
C1433 C315 1.732 . S
C1439 C273 1.760 . S
C1453 C287 1.738 . S
C1459 C329 1.762 . S
C1473 C385 1.755 . S
C1479 C343 1.731 . S
C1493 C399 1.731 . S
C1499 C357 1.754 . S
C1513 C371 1.754 . S
C1519 C413 1.755 . S
C1533 C427 1.740 . S
C1539 C469 1.763 . S
C1553 C483 1.750 . S
C1559 C441 1.759 . S
C1573 C455 1.759 . S
C1579 C497 1.731 . S
C1593 C6 1.579 . S
C1599 C258 1.579 . S
C1613 C20 1.593 . S
C1619 C272 1.593 . S
C1633 C34 1.577 . S
C1639 C286 1.577 . S
C1653 C468 1.590 . S
C1659 C48 1.590 . S
C1673 C482 1.589 . S
C1679 C62 1.589 . S
C1693 C76 1.585 . S
C1699 C496 1.585 . S
C1713 C90 1.592 . S
C1719 C342 1.592 . S
C1733 C356 1.596 . S
C1739 C104 1.596 . S
C1753 C370 1.596 . S
C1759 C118 1.596 . S
C1773 C216 1.581 . S
C1779 C132 1.581 . S
C1793 C230 1.595 . S
C1799 C146 1.595 . S
C1813 C244 1.578 . S
C1819 C160 1.578 . S
C1833 C426 1.591 . S
C1839 C174 1.591 . S
C1853 C188 1.579 . S
C1859 C440 1.579 . S
C1873 C202 1.596 . S
C1879 C454 1.596 . S
C1893 C300 1.594 . S
C1899 C384 1.594 . S
C1913 C314 1.591 . S
C1919 C398 1.591 . S
C1933 C412 1.591 . S
C1939 C328 1.591 . S
