# Generated by pormake.
# Topology sxa, (6)-cn, num edge types: 1
# Building blocks:
#     Node 0, Type 0, BuildingBlock: PAMTOO_clean_sbu_0, # of connection points: 6
#     Node 1, Type 0, BuildingBlock: PAMTOO_clean_sbu_0, # of connection points: 6
#     Node 2, Type 0, BuildingBlock: PAMTOO_clean_sbu_0, # of connection points: 6
#     Node 3, Type 0, BuildingBlock: PAMTOO_clean_sbu_0, # of connection points: 6
#     Edge 4, Type (0, 0), BuildingBlock: FUNLAD_clean_linker_0, # of connection points: 2
#     Edge 5, Type (0, 0), BuildingBlock: FUNLAD_clean_linker_0, # of connection points: 2
#     Edge 6, Type (0, 0), BuildingBlock: FUNLAD_clean_linker_0, # of connection points: 2
#     Edge 7, Type (0, 0), BuildingBlock: FUNLAD_clean_linker_0, # of connection points: 2
#     Edge 8, Type (0, 0), BuildingBlock: FUNLAD_clean_linker_0, # of connection points: 2
#     Edge 9, Type (0, 0), BuildingBlock: FUNLAD_clean_linker_0, # of connection points: 2
#     Edge 10, Type (0, 0), BuildingBlock: FUNLAD_clean_linker_0, # of connection points: 2
#     Edge 11, Type (0, 0), BuildingBlock: FUNLAD_clean_linker_0, # of connection points: 2
#     Edge 12, Type (0, 0), BuildingBlock: FUNLAD_clean_linker_0, # of connection points: 2
#     Edge 13, Type (0, 0), BuildingBlock: FUNLAD_clean_linker_0, # of connection points: 2
#     Edge 14, Type (0, 0), BuildingBlock: FUNLAD_clean_linker_0, # of connection points: 2
#     Edge 15, Type (0, 0), BuildingBlock: FUNLAD_clean_linker_0, # of connection points: 2
# Relax obj value: 0.192
# Max RMSD: 0.267
# Mean RMSD: 0.267
data_MOF--net-sxa--node1-PAMTOO_clean_sbu_0--edge1-FUNLAD_clean_linker_0
_symmetry_space_group_name_H-M    P1
_symmetry_Int_Tables_number       1
_symmetry_cell_setting            triclinic
loop_
_symmetry_equiv_pos_as_xyz
'x, y, z'
_cell_length_a     40.431321
_cell_length_b     31.953231
_cell_length_c     18.468465
_cell_angle_alpha  93.651259
_cell_angle_beta   121.71563
_cell_angle_gamma 79.560726
loop_
_atom_site_label
_atom_site_type_symbol
_atom_site_fract_x
_atom_site_fract_y
_atom_site_fract_z
_atom_type_partial_charge
Dy0 Dy 0.06224 0.78313 0.2651 0.0
Dy1 Dy 0.07767 0.7572 0.10919 0.0
C2 C 0.07877 0.68785 0.21637 0.0
O3 O 0.12813 0.77016 0.32711 0.0
O4 O 0.13228 0.78079 0.20993 0.0
O5 O 0.06671 0.76401 0.38092 0.0
O6 O 0.03378 0.82565 0.32037 0.0
O7 O 0.05927 0.82699 0.09684 0.0
O8 O 0.07592 0.8431 0.23376 0.0
O9 O 1.01688 0.74658 0.06715 0.0
O10 O 1.00641 0.80096 0.14219 0.0
O11 O 0.05718 0.76282 0.97562 0.0
O12 O 0.11028 0.71868 0.05913 0.0
C13 C 0.14855 0.77648 0.29304 0.0
O14 O 0.05271 0.71519 0.22539 0.0
O15 O 0.10223 0.70251 0.2003 0.0
C16 C 1.01167 0.79267 0.39529 0.0
C17 C 0.95168 0.78335 0.42736 0.0
C18 C 0.95786 0.75731 0.36936 0.0
C19 C 0.98742 0.76199 0.35335 0.0
C20 C 1.00551 0.81877 0.45268 0.0
C21 C 0.97596 0.81423 0.46851 0.0
C22 C 0.04341 0.79825 0.38051 0.0
C23 C 0.06804 0.85421 0.15766 0.0
C24 C 0.99271 0.77529 0.07907 0.0
C25 C 0.11019 0.75741 0.95599 0.0
C26 C 0.15669 0.79083 0.91035 0.0
C27 C 0.155 0.8054 0.98203 0.0
C28 C 0.13184 0.78894 1.00439 0.0
C29 C 0.11016 0.74406 0.88234 0.0
C30 C 0.13318 0.76078 0.85939 0.0
C31 C 0.08859 0.7382 0.98444 0.0
H32 H 0.93953 0.73356 0.33547 0.0
H33 H 0.99134 0.74165 0.30824 0.0
H34 H 0.0238 0.84267 0.48582 0.0
H35 H 0.97264 0.83453 0.51432 0.0
H36 H 0.17312 0.8279 1.02363 0.0
H37 H 0.13183 0.79983 0.06117 0.0
H38 H 0.09312 0.72009 0.84384 0.0
H39 H 0.13341 0.74935 0.80316 0.0
Dy40 Dy 0.54904 0.28746 0.25033 0.0
Dy41 Dy 0.55833 0.27665 0.08399 0.0
C42 C 0.56865 0.19858 0.18306 0.0
O43 O 0.61458 0.27668 0.30843 0.0
O44 O 0.61595 0.29338 0.19029 0.0
O45 O 0.55385 0.25945 0.36052 0.0
O46 O 0.52698 0.32542 0.32209 0.0
O47 O 0.52949 0.3429 0.0805 0.0
O48 O 0.5614 0.34967 0.22406 0.0
O49 O 0.49773 0.26364 0.03963 0.0
O50 O 0.48951 0.30563 0.13607 0.0
O51 O 0.56161 0.303 0.98387 0.0
O52 O 0.56514 0.23488 0.99391 0.0
C53 C 0.63374 0.28564 0.27316 0.0
O54 O 0.54267 0.22066 0.19955 0.0
O55 O 0.58967 0.21938 0.16916 0.0
C56 C 0.5021 0.28813 0.38576 0.0
C57 C 0.44142 0.2817 0.41764 0.0
C58 C 0.48161 0.27211 0.48246 0.0
C59 C 0.51147 0.27535 0.46667 0.0
C60 C 0.46212 0.29707 0.32029 0.0
C61 C 0.43218 0.29395 0.33605 0.0
C62 C 0.53426 0.29364 0.37226 0.0
C63 C 0.54465 0.36664 0.14661 0.0
C64 C 0.47488 0.28569 0.0645 0.0
C65 C 0.61037 0.25796 0.9693 0.0
C66 C 0.68772 0.23736 1.00106 0.0
C67 C 0.67823 0.26937 0.04616 0.0
C68 C 0.64008 0.2796 0.03033 0.0
C69 C 0.61939 0.22625 0.92317 0.0
C70 C 0.65787 0.21601 0.93887 0.0
C71 C 0.57176 0.26543 0.96204 0.0
H72 H 0.49016 0.26181 0.54561 0.0
H73 H 0.54203 0.26818 0.5182 0.0
H74 H 0.45396 0.30703 0.25717 0.0
H75 H 0.40174 0.30207 0.28451 0.0
H76 H 0.70061 0.28577 0.09589 0.0
H77 H 0.63419 0.30374 0.0679 0.0
H78 H 0.59697 0.20882 0.87662 0.0
H79 H 0.66432 0.19131 0.90291 0.0
Dy80 Dy 0.07369 0.29181 0.94771 0.0
Dy81 Dy 0.08 0.26921 0.77992 0.0
C82 C 0.07721 0.19693 0.88828 0.0
O83 O 0.13149 0.30616 0.97413 0.0
O84 O 0.13804 0.2508 0.89781 0.0
O85 O 0.1005 0.28117 0.08303 0.0
O86 O 0.04731 0.32773 1.01329 0.0
O87 O 0.08746 0.33808 0.81561 0.0
O88 O 0.04491 0.3488 0.86184 0.0
O89 O 1.01493 0.28262 0.72746 0.0
O90 O 1.01553 0.27235 0.85097 0.0
O91 O 0.07343 0.2901 0.66253 0.0
O92 O 0.10414 0.22685 0.71662 0.0
C93 C 0.15393 0.27842 0.95563 0.0
O94 O 0.09187 0.22213 0.95215 0.0
O95 O 0.06526 0.20981 0.81029 0.0
C96 C 0.05243 0.28511 0.11813 0.0
C97 C 1.01121 0.24923 0.17525 0.0
C98 C 1.00749 0.23819 0.09663 0.0
C99 C 0.02799 0.25588 0.06853 0.0
C100 C 0.0578 0.29492 0.19817 0.0
C101 C 0.03737 0.27699 0.22676 0.0
C102 C 0.0714 0.30564 0.08451 0.0
C103 C 0.0636 0.36427 0.83321 0.0
C104 C 0.99665 0.27718 0.76709 0.0
C105 C 0.12748 0.26087 0.64549 0.0
C106 C 0.18875 0.26754 0.61569 0.0
C107 C 0.14915 0.27087 0.54783 0.0
C108 C 0.11901 0.2675 0.5626 0.0
C109 C 0.16676 0.25821 0.71371 0.0
C110 C 0.197 0.26141 0.69904 0.0
C111 C 0.09534 0.25553 0.6592 0.0
H112 H 0.98717 0.21757 0.05452 0.0
H113 H 0.02379 0.24779 1.00669 0.0
H114 H 0.07702 0.31708 0.23755 0.0
H115 H 0.04125 0.28572 0.28806 0.0
H116 H 0.14125 0.2764 0.48297 0.0
H117 H 0.08897 0.26983 0.50891 0.0
H118 H 0.17417 0.25314 0.77838 0.0
H119 H 0.22697 0.25817 0.75313 0.0
Dy120 Dy 0.59197 0.77368 0.96211 0.0
Dy121 Dy 0.59077 0.76116 0.78349 0.0
C122 C 0.59558 0.68332 0.8904 0.0
O123 O 0.64863 0.78996 0.985 0.0
O124 O 0.65034 0.74047 0.894 0.0
O125 O 0.59779 0.74739 0.07361 0.0
O126 O 0.59144 0.81562 0.05843 0.0
O127 O 0.59567 0.82945 0.82708 0.0
O128 O 0.55545 0.83007 0.87705 0.0
O129 O 0.52674 0.77083 0.73767 0.0
O130 O 0.53066 0.76082 0.8655 0.0
O131 O 0.58233 0.78743 0.66837 0.0
O132 O 0.61105 0.72214 0.70922 0.0
C133 C 0.66785 0.7669 0.95288 0.0
O134 O 0.6149 0.70585 0.95662 0.0
O135 O 0.57728 0.7006 0.81273 0.0
C136 C 0.55428 0.79154 0.10585 0.0
C137 C 0.48169 0.81129 0.09782 0.0
C138 C 0.48942 0.77577 0.05676 0.0
C139 C 0.52519 0.76607 0.06054 0.0
C140 C 0.54723 0.82643 0.14904 0.0
C141 C 0.51106 0.83635 0.14487 0.0
C142 C 0.58925 0.78487 0.09815 0.0
C143 C 0.57182 0.8511 0.85008 0.0
C144 C 0.51029 0.76545 0.78126 0.0
C145 C 0.63326 0.75929 0.63992 0.0
C146 C 0.69317 0.76828 0.60722 0.0
C147 C 0.68653 0.79508 0.66377 0.0
C148 C 0.65693 0.79067 0.67981 0.0
C149 C 0.63985 0.73246 0.58388 0.0
C150 C 0.66932 0.73688 0.56765 0.0
C151 C 0.60209 0.75341 0.65655 0.0
H152 H 0.46709 0.75643 1.0183 0.0
H153 H 0.52931 0.7395 0.02491 0.0
H154 H 0.56911 0.84679 0.18337 0.0
H155 H 0.50579 0.8639 0.17709 0.0
H156 H 0.70456 0.81918 0.69669 0.0
H157 H 0.65279 0.8116 0.72397 0.0
H158 H 0.62203 0.70801 0.55228 0.0
H159 H 0.67296 0.71599 0.5229 0.0
C160 C 0.10043 0.42104 0.91913 0.0
C161 C 0.06599 0.40973 0.84912 0.0
C162 C 0.09876 0.45964 0.95886 0.0
C163 C 0.06256 0.48773 0.92866 0.0
C164 C 0.02909 0.47818 0.85354 0.0
C165 C 0.03063 0.4393 0.81498 0.0
C166 C 0.05823 0.52631 0.9751 0.0
C167 C 0.07965 0.52829 0.06085 0.0
C168 C 0.07583 0.56665 0.10835 0.0
C169 C 0.10911 0.57387 0.18638 0.0
C170 C 0.10856 0.61198 0.22775 0.0
C171 C 0.07436 0.64327 0.1934 0.0
H172 H 1.0139 0.59146 1.01892 0.0
C173 C 0.03987 0.63445 0.11978 0.0
C174 C 0.04058 0.59654 0.07729 0.0
H175 H 1.01333 0.65834 0.09107 0.0
H176 H 0.12785 0.39844 0.94791 0.0
H177 H 0.1255 0.46661 1.01493 0.0
H178 H 1.00097 0.49944 0.82805 0.0
H179 H 1.00346 0.43092 0.76234 0.0
H180 H 0.03544 0.55302 0.93737 0.0
H181 H 0.10225 0.50134 0.09818 0.0
H182 H 0.13648 0.55121 0.21264 0.0
H183 H 0.13578 0.61834 0.28344 0.0
C184 C 0.52281 0.42952 0.04887 0.0
C185 C 0.54821 0.41012 0.13076 0.0
C186 C 0.53012 0.46608 0.02584 0.0
C187 C 0.56334 0.48416 0.08403 0.0
C188 C 0.58729 0.4664 0.16772 0.0
C189 C 0.5799 0.42967 0.1909 0.0
C190 C 0.5739 0.52127 0.05982 0.0
C191 C 0.5622 0.53174 0.97874 0.0
C192 C 0.5732 0.56849 0.95466 0.0
C193 C 0.54937 0.58645 0.87113 0.0
C194 C 0.55768 0.6224 0.84771 0.0
C195 C 0.59023 0.64094 0.90737 0.0
H196 H 0.62724 0.57194 0.07627 0.0
C197 C 0.6153 0.62144 0.98929 0.0
C198 C 0.60703 0.5857 1.0126 0.0
H199 H 0.64097 0.63453 0.03668 0.0
H200 H 0.4978 0.41556 1.00122 0.0
H201 H 0.50979 0.47962 0.96203 0.0
H202 H 0.61274 0.48001 0.21448 0.0
H203 H 0.60017 0.41538 0.25425 0.0
H204 H 0.59283 0.53987 0.11162 0.0
H205 H 0.54324 0.5132 0.92687 0.0
H206 H 0.52345 0.57349 0.82457 0.0
H207 H 0.53765 0.63673 0.78432 0.0
C208 C 0.53843 0.91924 0.87399 0.0
C209 C 0.5704 0.89711 0.86837 0.0
C210 C 0.53989 0.95914 0.91024 0.0
C211 C 0.57364 0.97802 0.94269 0.0
C212 C 0.60449 0.95726 0.93155 0.0
C213 C 0.60298 0.91713 0.89499 0.0
C214 C 0.57782 1.01891 0.9887 0.0
C215 C 0.55757 0.03414 0.02738 0.0
C216 C 0.56232 0.0746 0.07478 0.0
C217 C 0.53156 0.09577 0.08579 0.0
C218 C 0.53419 0.13499 0.12594 0.0
C219 C 0.56788 0.15365 0.15657 0.0
H220 H 0.62201 0.07635 0.10668 0.0
C221 C 0.59953 0.13118 0.1501 0.0
C222 C 0.59689 0.09224 0.11006 0.0
H223 H 0.62615 0.14441 0.17383 0.0
H224 H 0.51268 0.90483 0.8533 0.0
H225 H 0.51466 0.97459 0.91363 0.0
H226 H 0.63063 0.97128 0.95455 0.0
H227 H 0.62823 0.9008 0.89232 0.0
H228 H 0.59924 0.03637 0.99224 0.0
H229 H 0.53609 1.01679 1.02382 0.0
H230 H 0.50478 0.08267 0.06059 0.0
H231 H 0.50919 0.15155 0.12928 0.0
C232 C 0.07377 0.90257 0.06564 0.0
C233 C 0.07068 0.89728 0.137 0.0
C234 C 0.07489 0.94236 0.04106 0.0
C235 C 0.07261 0.97852 0.08658 0.0
C236 C 0.07071 0.97324 0.15956 0.0
C237 C 0.06975 0.933 0.18463 0.0
C238 C 0.07377 1.02159 0.06161 0.0
C239 C 0.06436 0.03275 0.98236 0.0
C240 C 0.0665 0.07538 0.95728 0.0
C241 C 0.06538 0.08049 0.88056 0.0
C242 C 0.06813 0.11991 0.85598 0.0
C243 C 0.0723 0.15493 0.90811 0.0
H244 H 0.06845 0.10973 0.06476 0.0
C245 C 0.0722 0.14998 0.98331 0.0
C246 C 0.06912 0.11108 1.00727 0.0
H247 H 0.07433 0.17646 0.02433 0.0
H248 H 0.07563 0.87571 0.02831 0.0
H249 H 0.07824 0.94416 0.98706 0.0
H250 H 0.06957 1.00043 0.19683 0.0
H251 H 0.06767 0.93002 0.24013 0.0
H252 H 0.08285 0.04454 0.11133 0.0
H253 H 0.05489 1.00967 0.93282 0.0
H254 H 0.06285 0.05373 0.83995 0.0
H255 H 0.06779 0.12272 0.79745 0.0
C256 C 0.44592 0.76624 0.64325 0.0
C257 C 0.46716 0.76486 0.73285 0.0
C258 C 0.40527 0.7665 0.59651 0.0
C259 C 0.38447 0.76586 0.63803 0.0
C260 C 0.40578 0.76361 0.72763 0.0
C261 C 0.44663 0.76326 0.77461 0.0
C262 C 0.34102 0.76591 0.5898 0.0
C263 C 0.31635 0.78185 0.509 0.0
C264 C 0.27316 0.78058 0.45656 0.0
C265 C 0.25355 0.78833 0.36813 0.0
C266 C 0.21324 0.78721 0.31538 0.0
C267 C 0.19122 0.77859 0.34972 0.0
H268 H 0.26448 0.76731 0.55905 0.0
C269 C 0.21057 0.77148 0.4384 0.0
C270 C 0.25104 0.77247 0.49129 0.0
H271 H 0.19452 0.76497 0.46718 0.0
H272 H 0.46069 0.76688 0.60864 0.0
H273 H 0.39058 0.76641 0.52785 0.0
H274 H 0.39071 0.76251 0.76148 0.0
H275 H 0.46201 0.76201 0.84352 0.0
H276 H 0.32946 0.75244 0.62264 0.0
H277 H 0.32833 0.79615 0.47798 0.0
H278 H 0.2696 0.79491 0.33933 0.0
H279 H 0.19943 0.793 0.24751 0.0
C280 C 0.22003 0.25313 0.52594 0.0
C281 C 0.22116 0.27014 0.59944 0.0
C282 C 0.25024 0.25547 0.51065 0.0
C283 C 0.28266 0.27505 0.56843 0.0
C284 C 0.28395 0.29163 0.6422 0.0
C285 C 0.25373 0.28937 0.65739 0.0
C286 C 0.31624 0.2779 0.55629 0.0
C287 C 0.31526 0.27178 0.48183 0.0
C288 C 0.34861 0.27459 0.46873 0.0
C289 C 0.34449 0.26302 0.38987 0.0
C290 C 0.37432 0.26521 0.37341 0.0
C291 C 0.40944 0.27922 0.43531 0.0
H292 H 0.38852 0.29872 0.59205 0.0
C293 C 0.41361 0.29098 0.51424 0.0
C294 C 0.38376 0.28875 0.53079 0.0
H295 H 0.43979 0.3027 0.5632 0.0
H296 H 0.19608 0.23715 0.48058 0.0
H297 H 0.24819 0.24105 0.45421 0.0
H298 H 0.30844 0.30672 0.68844 0.0
H299 H 0.25577 0.30328 0.71432 0.0
H300 H 0.34262 0.28602 0.61183 0.0
H301 H 0.28848 0.26442 0.42621 0.0
H302 H 0.31798 0.25199 0.3404 0.0
H303 H 0.36994 0.25532 0.31224 0.0
C304 C 0.93283 0.28067 0.62564 0.0
C305 C 0.95351 0.27602 0.71505 0.0
C306 C 0.89223 0.28 0.57625 0.0
C307 C 0.87099 0.27494 0.61498 0.0
C308 C 0.8918 0.26972 0.70426 0.0
C309 C 0.93245 0.27039 0.7537 0.0
C310 C 0.82765 0.27352 0.56494 0.0
C311 C 0.80261 0.2892 0.48395 0.0
C312 C 0.75928 0.28772 0.43245 0.0
C313 C 0.73876 0.29658 0.34417 0.0
C314 C 0.69821 0.29605 0.2928 0.0
C315 C 0.67682 0.28677 0.32823 0.0
H316 H 0.75181 0.27274 0.53589 0.0
C317 C 0.69716 0.27825 0.41669 0.0
C318 C 0.7378 0.27879 0.46821 0.0
H319 H 0.6817 0.27119 0.44649 0.0
H320 H 0.94802 0.28469 0.59333 0.0
H321 H 0.87802 0.28271 0.50779 0.0
H322 H 0.8765 0.26534 0.73614 0.0
H323 H 0.94729 0.26653 0.82228 0.0
H324 H 0.81632 0.25925 0.59734 0.0
H325 H 0.81413 0.30391 0.45244 0.0
H326 H 0.7542 0.30382 0.31442 0.0
H327 H 0.68372 0.30292 0.22516 0.0
C328 C 0.89812 0.81377 0.45866 0.0
C329 C 0.92048 0.77817 0.44571 0.0
C330 C 0.86942 0.80891 0.47721 0.0
C331 C 0.86228 0.76812 0.4839 0.0
C332 C 0.8844 0.73267 0.47011 0.0
C333 C 0.91301 0.73754 0.45147 0.0
C334 C 0.83176 0.76074 0.50292 0.0
C335 C 0.81335 0.79038 0.53207 0.0
C336 C 0.78276 0.78308 0.5509 0.0
C337 C 0.76048 0.81862 0.564 0.0
C338 C 0.73177 0.81387 0.58241 0.0
C339 C 0.72439 0.77327 0.58878 0.0
H340 H 0.79255 0.71379 0.55095 0.0
C341 C 0.74693 0.73758 0.57654 0.0
C342 C 0.77569 0.74232 0.55809 0.0
H343 H 0.7428 0.70571 0.58251 0.0
H344 H 0.90235 0.84567 0.4532 0.0
H345 H 0.8527 0.83741 0.48486 0.0
H346 H 0.87975 0.7008 0.47439 0.0
H347 H 0.92978 0.70926 0.44301 0.0
H348 H 0.82455 0.72899 0.49242 0.0
H349 H 0.82054 0.82214 0.54257 0.0
H350 H 0.76506 0.85047 0.55933 0.0
H351 H 0.71488 0.84224 0.59026 0.0
C352 C 0.42256 0.79085 0.08619 0.0
C353 C 0.44189 0.82298 0.0854 0.0
C354 C 0.38255 0.79977 0.05759 0.0
C355 C 0.36111 0.84109 0.02835 0.0
C356 C 0.38093 0.8741 0.03443 0.0
C357 C 0.42113 0.86505 0.06219 0.0
C358 C 0.31794 0.84899 0.99 0.0
C359 C 0.29599 0.82255 0.93167 0.0
C360 C 0.25557 0.81921 0.90862 0.0
C361 C 0.24312 0.77994 0.88063 0.0
C362 C 0.20921 0.77171 0.87511 0.0
C363 C 0.18669 0.80291 0.89631 0.0
H364 H 0.23892 0.8831 0.94026 0.0
C365 C 0.19687 0.84375 0.91556 0.0
C366 C 0.23111 0.85186 0.92195 0.0
H367 H 0.17939 0.86888 0.92966 0.0
H368 H 0.43806 0.75838 0.10576 0.0
H369 H 0.36807 0.77407 0.05629 0.0
H370 H 0.36492 0.9063 1.01349 0.0
H371 H 0.43533 0.89042 0.06089 0.0
H372 H 0.30525 0.87446 1.0145 0.0
H373 H 0.3104 0.79805 0.90865 0.0
H374 H 0.2612 0.75437 0.86897 0.0
H375 H 0.20247 0.73984 0.86038 0.0
C376 C 0.21853 0.24781 0.97235 0.0
C377 C 0.19497 0.28192 0.98505 0.0
C378 C 0.254 0.2529 0.98168 0.0
C379 C 0.26677 0.29232 1.00398 0.0
C380 C 0.24488 0.32544 1.02341 0.0
C381 C 0.20906 0.32038 1.01367 0.0
C382 C 0.30301 0.29941 1.00853 0.0
C383 C 0.31629 0.27875 0.96009 0.0
C384 C 0.35429 0.28356 0.97038 0.0
C385 C 0.3771 0.24851 0.95769 0.0
C386 C 0.41591 0.25004 0.98108 0.0
C387 C 0.43202 0.28678 1.0169 0.0
H388 H 0.35181 0.34995 1.0042 0.0
C389 C 0.40781 0.32312 1.02127 0.0
C390 C 0.36924 0.32166 0.99775 0.0
H391 H 0.41946 0.35212 0.04737 0.0
H392 H 0.2088 0.21745 0.95178 0.0
H393 H 0.27104 0.22598 0.97042 0.0
H394 H 0.25467 0.35583 0.04271 0.0
H395 H 0.19161 0.34711 0.02428 0.0
H396 H 0.31904 0.32245 0.05338 0.0
H397 H 0.3003 0.25565 0.91534 0.0
H398 H 0.36585 0.21904 0.93507 0.0
H399 H 0.4341 0.22161 0.97736 0.0
C400 C 0.75158 0.25831 0.04098 0.0
C401 C 0.72911 0.22602 1.0222 0.0
C402 C 0.79181 0.24816 0.07196 0.0
C403 C 0.81051 0.20544 0.08414 0.0
C404 C 0.78783 0.17307 0.06034 0.0
C405 C 0.7474 0.18324 0.03033 0.0
C406 C 0.85337 0.19511 0.11793 0.0
C407 C 0.87848 0.21738 0.18136 0.0
C408 C 0.91818 0.21977 0.1983 0.0
C409 C 0.93291 0.25762 0.23047 0.0
C410 C 0.9653 0.26589 0.22928 0.0
C411 C 0.98397 0.23611 0.19693 0.0
H412 H 0.92974 0.15778 0.15252 0.0
C413 C 0.97198 0.19619 0.17387 0.0
C414 C 0.93927 0.18808 0.17429 0.0
H415 H 0.9866 0.17204 0.15123 0.0
H416 H 0.73815 0.29159 0.0329 0.0
H417 H 0.80828 0.27386 0.08615 0.0
H418 H 0.80161 0.13996 0.06753 0.0
H419 H 0.73086 0.15766 1.01645 0.0
H420 H 0.86326 0.17177 0.08498 0.0
H421 H 0.86719 0.23995 0.21323 0.0
H422 H 0.91747 0.28237 0.25035 0.0
H423 H 0.9736 0.29699 0.24745 0.0
C424 C 0.92503 0.81281 0.03076 0.0
C425 C 0.94999 0.77584 0.03134 0.0
C426 C 0.88614 0.81157 1.00478 0.0
C427 C 0.87167 0.77315 0.97967 0.0
C428 C 0.89541 0.73724 0.9723 0.0
C429 C 0.93448 0.73853 0.99811 0.0
C430 C 0.83252 0.76928 0.96348 0.0
C431 C 0.81578 0.79295 1.00294 0.0
C432 C 0.77729 0.78772 0.98939 0.0
C433 C 0.76776 0.80077 0.05152 0.0
C434 C 0.73193 0.79467 0.04067 0.0
C435 C 0.70561 0.77501 0.9679 0.0
H436 H 0.75476 0.76171 0.8633 0.0
C437 C 0.71487 0.7632 0.90514 0.0
C438 C 0.7498 0.77009 0.91493 0.0
H439 H 0.69483 0.74889 0.84712 0.0
H440 H 0.9361 0.84232 0.05427 0.0
H441 H 0.86797 0.84042 1.00691 0.0
H442 H 0.88446 0.70752 0.95107 0.0
H443 H 0.95307 0.70973 0.99728 0.0
H444 H 0.81886 0.74375 0.92325 0.0
H445 H 0.83164 0.81526 0.05023 0.0
H446 H 0.78825 0.81514 0.10893 0.0
H447 H 0.7252 0.80453 0.08939 0.0
loop_
_geom_bond_atom_site_label_1
_geom_bond_atom_site_label_2
_geom_bond_distance
_geom_bond_site_symmetry_2
_ccdc_geom_bond_type
Dy0 O3 2.307 . S
Dy0 O5 2.395 . S
Dy0 O6 2.379 . S
Dy0 O8 2.339 . S
Dy0 O10 2.298 1_455 S
Dy0 O14 2.275 . S
Dy0 C22 2.738 1_455 S
Dy1 O4 2.298 . S
Dy1 O7 2.275 . S
Dy1 O9 2.307 1_455 S
Dy1 O11 2.395 . S
Dy1 O12 2.379 . S
Dy1 O15 2.339 . S
Dy1 C31 2.738 . S
C2 O14 1.254 . S
C2 O15 1.257 . S
O3 Dy0 2.307 . S
O3 C13 1.266 . S
O4 Dy1 2.298 . S
O4 C13 1.236 . S
O5 Dy0 2.395 . S
O5 C22 1.255 1_455 S
O6 Dy0 2.379 . S
O6 C22 1.249 1_455 S
O7 Dy1 2.275 . S
O7 C23 1.254 . S
O8 Dy0 2.339 . S
O8 C23 1.257 . S
O9 Dy1 2.307 1_655 S
O9 C24 1.266 . S
O10 Dy0 2.298 1_655 S
O10 C24 1.236 . S
O11 Dy1 2.395 . S
O11 C31 1.255 . S
O12 Dy1 2.379 . S
O12 C31 1.249 . S
C13 O3 1.266 . S
C13 O4 1.236 . S
O14 Dy0 2.275 . S
O14 C2 1.254 . S
O15 Dy1 2.339 . S
O15 C2 1.257 . S
C16 C19 1.344 . S
C16 C20 1.328 . S
C16 C22 1.516 . S
C17 C18 1.304 . S
C17 C21 1.323 . S
C18 C17 1.304 . S
C18 C19 1.371 . S
C18 H32 0.930 . S
C19 C16 1.344 . S
C19 C18 1.371 . S
C19 H33 0.931 . S
C20 C16 1.328 . S
C20 C21 1.433 . S
C20 H34 0.931 . S
C21 C17 1.323 . S
C21 C20 1.433 . S
C21 H35 0.933 . S
C22 Dy0 2.738 1_655 S
C22 O5 1.255 1_655 S
C22 O6 1.249 1_655 S
C22 C16 1.516 . S
C23 O7 1.254 . S
C23 O8 1.257 . S
C24 O9 1.266 . S
C24 O10 1.236 . S
C25 C28 1.344 . S
C25 C29 1.328 1_554 S
C25 C31 1.516 . S
C26 C27 1.304 . S
C26 C30 1.323 . S
C27 C26 1.304 . S
C27 C28 1.371 1_556 S
C27 H36 0.930 1_556 S
C28 C25 1.344 . S
C28 C27 1.371 1_554 S
C28 H37 0.931 . S
C29 C25 1.328 1_556 S
C29 C30 1.433 . S
C29 H38 0.931 . S
C30 C26 1.323 . S
C30 C29 1.433 . S
C30 H39 0.933 . S
C31 Dy1 2.738 . S
C31 O11 1.255 . S
C31 O12 1.249 . S
C31 C25 1.516 . S
H32 C18 0.930 . S
H33 C19 0.931 . S
H34 C20 0.931 . S
H35 C21 0.933 . S
H36 C27 0.930 1_554 S
H37 C28 0.931 . S
H38 C29 0.931 . S
H39 C30 0.933 . S
Dy40 O43 2.307 . S
Dy40 O45 2.395 . S
Dy40 O46 2.379 . S
Dy40 O48 2.339 . S
Dy40 O50 2.298 . S
Dy40 O54 2.275 . S
Dy40 C62 2.738 . S
Dy41 O44 2.298 . S
Dy41 O47 2.275 . S
Dy41 O49 2.307 . S
Dy41 O51 2.395 . S
Dy41 O52 2.379 . S
Dy41 O55 2.339 . S
Dy41 C71 2.738 . S
C42 O54 1.254 . S
C42 O55 1.257 . S
O43 Dy40 2.307 . S
O43 C53 1.266 . S
O44 Dy41 2.298 . S
O44 C53 1.236 . S
O45 Dy40 2.395 . S
O45 C62 1.255 . S
O46 Dy40 2.379 . S
O46 C62 1.249 . S
O47 Dy41 2.275 . S
O47 C63 1.254 . S
O48 Dy40 2.339 . S
O48 C63 1.257 . S
O49 Dy41 2.307 . S
O49 C64 1.266 . S
O50 Dy40 2.298 . S
O50 C64 1.236 . S
O51 Dy41 2.395 . S
O51 C71 1.255 . S
O52 Dy41 2.379 . S
O52 C71 1.249 . S
C53 O43 1.266 . S
C53 O44 1.236 . S
O54 Dy40 2.275 . S
O54 C42 1.254 . S
O55 Dy41 2.339 . S
O55 C42 1.257 . S
C56 C59 1.344 . S
C56 C60 1.328 . S
C56 C62 1.516 . S
C57 C58 1.304 . S
C57 C61 1.323 . S
C58 C57 1.304 . S
C58 C59 1.371 . S
C58 H72 0.930 . S
C59 C56 1.344 . S
C59 C58 1.371 . S
C59 H73 0.931 . S
C60 C56 1.328 . S
C60 C61 1.433 . S
C60 H74 0.931 . S
C61 C57 1.323 . S
C61 C60 1.433 . S
C61 H75 0.933 . S
C62 Dy40 2.738 . S
C62 O45 1.255 . S
C62 O46 1.249 . S
C62 C56 1.516 . S
C63 O47 1.254 . S
C63 O48 1.257 . S
C64 O49 1.266 . S
C64 O50 1.236 . S
C65 C68 1.344 . S
C65 C69 1.328 1_554 S
C65 C71 1.516 . S
C66 C67 1.304 . S
C66 C70 1.323 . S
C67 C66 1.304 . S
C67 C68 1.371 1_556 S
C67 H76 0.930 1_556 S
C68 C65 1.344 . S
C68 C67 1.371 1_554 S
C68 H77 0.931 . S
C69 C65 1.328 1_556 S
C69 C70 1.433 . S
C69 H78 0.931 . S
C70 C66 1.323 . S
C70 C69 1.433 . S
C70 H79 0.933 . S
C71 Dy41 2.738 . S
C71 O51 1.255 . S
C71 O52 1.249 . S
C71 C65 1.516 . S
H72 C58 0.930 . S
H73 C59 0.931 . S
H74 C60 0.931 . S
H75 C61 0.933 . S
H76 C67 0.930 1_554 S
H77 C68 0.931 . S
H78 C69 0.931 . S
H79 C70 0.933 . S
Dy80 O83 2.307 . S
Dy80 O85 2.395 . S
Dy80 O86 2.379 . S
Dy80 O88 2.339 . S
Dy80 O90 2.298 1_455 S
Dy80 O94 2.275 . S
Dy80 C102 2.738 . S
Dy81 O84 2.298 . S
Dy81 O87 2.275 . S
Dy81 O89 2.329 . S
Dy81 O91 2.395 . S
Dy81 O92 2.379 . S
Dy81 O95 2.339 . S
Dy81 C111 2.738 . S
C82 O94 1.254 . S
C82 O95 1.257 . S
O83 Dy80 2.307 . S
O83 C93 1.266 . S
O84 Dy81 2.298 . S
O84 C93 1.236 . S
O85 Dy80 2.395 . S
O85 C102 1.255 . S
O86 Dy80 2.379 . S
O86 C102 1.249 . S
O87 Dy81 2.275 . S
O87 C103 1.254 . S
O88 Dy80 2.339 . S
O88 C103 1.257 . S
O89 Dy81 2.329 . S
O89 C104 1.247 1_455 S
O90 Dy80 2.298 1_655 S
O90 C104 1.236 . S
O91 Dy81 2.395 . S
O91 C111 1.255 . S
O92 Dy81 2.379 . S
O92 C111 1.249 . S
C93 O83 1.266 . S
C93 O84 1.236 . S
O94 Dy80 2.275 . S
O94 C82 1.254 . S
O95 Dy81 2.339 . S
O95 C82 1.257 . S
C96 C99 1.344 . S
C96 C100 1.328 1_556 S
C96 C102 1.516 1_655 S
C97 C98 1.304 . S
C97 C101 1.323 . S
C98 C97 1.304 . S
C98 C99 1.371 1_554 S
C98 H112 0.930 1_554 S
C99 C96 1.344 . S
C99 C98 1.371 1_556 S
C99 H113 0.931 . S
C100 C96 1.328 1_554 S
C100 C101 1.433 . S
C100 H114 0.931 . S
C101 C97 1.323 . S
C101 C100 1.433 . S
C101 H115 0.933 . S
C102 Dy80 2.738 . S
C102 O85 1.255 . S
C102 O86 1.249 . S
C102 C96 1.516 1_455 S
C103 O87 1.254 . S
C103 O88 1.257 . S
C104 O89 1.247 1_655 S
C104 O90 1.236 . S
C105 C108 1.344 . S
C105 C109 1.328 . S
C105 C111 1.516 . S
C106 C107 1.304 . S
C106 C110 1.323 . S
C107 C106 1.304 . S
C107 C108 1.371 . S
C107 H116 0.930 . S
C108 C105 1.344 . S
C108 C107 1.371 . S
C108 H117 0.931 . S
C109 C105 1.328 . S
C109 C110 1.433 . S
C109 H118 0.931 . S
C110 C106 1.323 . S
C110 C109 1.433 . S
C110 H119 0.933 . S
C111 Dy81 2.738 . S
C111 O91 1.255 . S
C111 O92 1.249 . S
C111 C105 1.516 . S
H112 C98 0.930 1_556 S
H113 C99 0.931 . S
H114 C100 0.931 . S
H115 C101 0.933 . S
H116 C107 0.930 . S
H117 C108 0.931 . S
H118 C109 0.931 . S
H119 C110 0.933 . S
Dy120 O123 2.307 . S
Dy120 O125 2.395 . S
Dy120 O126 2.379 . S
Dy120 O128 2.339 . S
Dy120 O130 2.298 . S
Dy120 O134 2.275 . S
Dy120 C142 2.738 . S
Dy121 O124 2.298 . S
Dy121 O127 2.275 . S
Dy121 O129 2.307 . S
Dy121 O131 2.395 . S
Dy121 O132 2.379 . S
Dy121 O135 2.339 . S
Dy121 C151 2.738 . S
C122 O134 1.254 . S
C122 O135 1.257 . S
O123 Dy120 2.307 . S
O123 C133 1.266 . S
O124 Dy121 2.298 . S
O124 C133 1.236 . S
O125 Dy120 2.395 . S
O125 C142 1.255 . S
O126 Dy120 2.379 . S
O126 C142 1.249 . S
O127 Dy121 2.275 . S
O127 C143 1.254 . S
O128 Dy120 2.339 . S
O128 C143 1.257 . S
O129 Dy121 2.307 . S
O129 C144 1.266 . S
O130 Dy120 2.298 . S
O130 C144 1.236 . S
O131 Dy121 2.395 . S
O131 C151 1.255 . S
O132 Dy121 2.379 . S
O132 C151 1.249 . S
C133 O123 1.266 . S
C133 O124 1.236 . S
O134 Dy120 2.275 . S
O134 C122 1.254 . S
O135 Dy121 2.339 . S
O135 C122 1.257 . S
C136 C139 1.344 . S
C136 C140 1.328 1_556 S
C136 C142 1.516 . S
C137 C138 1.304 . S
C137 C141 1.323 . S
C138 C137 1.304 . S
C138 C139 1.371 1_554 S
C138 H152 0.930 1_554 S
C139 C136 1.344 . S
C139 C138 1.371 1_556 S
C139 H153 0.931 . S
C140 C136 1.328 1_554 S
C140 C141 1.433 . S
C140 H154 0.931 . S
C141 C137 1.323 . S
C141 C140 1.433 . S
C141 H155 0.933 . S
C142 Dy120 2.738 . S
C142 O125 1.255 . S
C142 O126 1.249 . S
C142 C136 1.516 . S
C143 O127 1.254 . S
C143 O128 1.257 . S
C144 O129 1.266 . S
C144 O130 1.236 . S
C145 C148 1.344 . S
C145 C149 1.328 . S
C145 C151 1.516 . S
C146 C147 1.304 . S
C146 C150 1.323 . S
C147 C146 1.304 . S
C147 C148 1.371 . S
C147 H156 0.930 . S
C148 C145 1.344 . S
C148 C147 1.371 . S
C148 H157 0.931 . S
C149 C145 1.328 . S
C149 C150 1.433 . S
C149 H158 0.931 . S
C150 C146 1.323 . S
C150 C149 1.433 . S
C150 H159 0.933 . S
C151 Dy121 2.738 . S
C151 O131 1.255 . S
C151 O132 1.249 . S
C151 C145 1.516 . S
H152 C138 0.930 1_556 S
H153 C139 0.931 . S
H154 C140 0.931 . S
H155 C141 0.933 . S
H156 C147 0.930 . S
H157 C148 0.931 . S
H158 C149 0.931 . S
H159 C150 0.933 . S
C160 C161 1.386 . S
C160 C162 1.383 . S
C160 H176 0.951 . S
C161 C160 1.386 . S
C161 C165 1.383 . S
C162 C160 1.383 . S
C162 C163 1.402 . S
C162 H177 0.951 1_556 S
C163 C162 1.402 . S
C163 C164 1.375 . S
C163 C166 1.481 . S
C164 C163 1.375 . S
C164 C165 1.367 . S
C164 H178 0.951 1_455 S
C165 C161 1.383 . S
C165 C164 1.367 . S
C165 H179 0.950 . S
C166 C163 1.481 . S
C166 C167 1.297 1_556 S
C166 H180 0.950 . S
C167 C166 1.297 1_554 S
C167 C168 1.479 . S
C167 H181 0.950 . S
C168 C167 1.479 . S
C168 C169 1.375 . S
C168 C174 1.404 . S
C169 C168 1.375 . S
C169 C170 1.369 . S
C169 H182 0.950 . S
C170 C169 1.369 . S
C170 C171 1.392 . S
C170 H183 0.951 . S
C171 C170 1.392 . S
C171 C173 1.384 . S
H172 C174 0.949 1_556 S
C173 C171 1.384 . S
C173 C174 1.385 . S
C173 H175 0.950 . S
C174 C168 1.404 . S
C174 H172 0.949 1_554 S
C174 C173 1.385 . S
H175 C173 0.950 . S
H176 C160 0.951 . S
H177 C162 0.951 1_554 S
H178 C164 0.951 1_655 S
H179 C165 0.950 . S
H180 C166 0.950 . S
H181 C167 0.950 . S
H182 C169 0.950 . S
H183 C170 0.951 . S
C184 C185 1.386 . S
C184 C186 1.383 . S
C184 H200 0.951 . S
C185 C184 1.386 . S
C185 C189 1.383 . S
C186 C184 1.383 . S
C186 C187 1.402 . S
C186 H201 0.951 1_554 S
C187 C186 1.402 . S
C187 C188 1.375 . S
C187 C190 1.481 . S
C188 C187 1.375 . S
C188 C189 1.367 . S
C188 H202 0.951 . S
C189 C185 1.383 . S
C189 C188 1.367 . S
C189 H203 0.950 . S
C190 C187 1.481 . S
C190 C191 1.297 1_554 S
C190 H204 0.950 . S
C191 C190 1.297 1_556 S
C191 C192 1.479 . S
C191 H205 0.950 . S
C192 C191 1.479 . S
C192 C193 1.375 . S
C192 C198 1.404 . S
C193 C192 1.375 . S
C193 C194 1.369 . S
C193 H206 0.950 . S
C194 C193 1.369 . S
C194 C195 1.392 . S
C194 H207 0.951 . S
C195 C194 1.392 . S
C195 C197 1.384 . S
H196 C198 0.949 1_554 S
C197 C195 1.384 . S
C197 C198 1.385 . S
C197 H199 0.950 . S
C198 C192 1.404 . S
C198 H196 0.949 1_556 S
C198 C197 1.385 . S
H199 C197 0.950 . S
H200 C184 0.951 . S
H201 C186 0.951 1_556 S
H202 C188 0.951 . S
H203 C189 0.950 . S
H204 C190 0.950 . S
H205 C191 0.950 . S
H206 C193 0.950 . S
H207 C194 0.951 . S
C208 C209 1.386 . S
C208 C210 1.383 . S
C208 H224 0.951 . S
C209 C208 1.386 . S
C209 C213 1.383 . S
C210 C208 1.383 . S
C210 C211 1.402 . S
C210 H225 0.951 . S
C211 C210 1.402 . S
C211 C212 1.375 . S
C211 C214 1.481 . S
C212 C211 1.375 . S
C212 C213 1.367 . S
C212 H226 0.951 . S
C213 C209 1.383 . S
C213 C212 1.367 . S
C213 H227 0.950 . S
C214 C211 1.481 . S
C214 C215 1.297 1_566 S
C214 H228 0.950 1_565 S
C215 C214 1.297 1_544 S
C215 C216 1.479 . S
C215 H229 0.950 1_545 S
C216 C215 1.479 . S
C216 C217 1.375 . S
C216 C222 1.404 . S
C217 C216 1.375 . S
C217 C218 1.369 . S
C217 H230 0.950 . S
C218 C217 1.369 . S
C218 C219 1.392 . S
C218 H231 0.951 . S
C219 C218 1.392 . S
C219 C221 1.384 . S
H220 C222 0.949 . S
C221 C219 1.384 . S
C221 C222 1.385 . S
C221 H223 0.950 . S
C222 C216 1.404 . S
C222 H220 0.949 . S
C222 C221 1.385 . S
H223 C221 0.950 . S
H224 C208 0.951 . S
H225 C210 0.951 . S
H226 C212 0.951 . S
H227 C213 0.950 . S
H228 C214 0.950 1_545 S
H229 C215 0.950 1_565 S
H230 C217 0.950 . S
H231 C218 0.951 . S
C232 C233 1.386 . S
C232 C234 1.383 . S
C232 H248 0.951 . S
C233 C232 1.386 . S
C233 C237 1.383 . S
C234 C232 1.383 . S
C234 C235 1.402 . S
C234 H249 0.951 . S
C235 C234 1.402 . S
C235 C236 1.375 . S
C235 C238 1.481 1_554 S
C236 C235 1.375 . S
C236 C237 1.367 . S
C236 H250 0.951 1_454 S
C237 C233 1.383 . S
C237 C236 1.367 . S
C237 H251 0.950 1_455 S
C238 C235 1.481 1_556 S
C238 C239 1.297 . S
C238 H252 0.950 . S
C239 C238 1.297 . S
C239 C240 1.479 1_565 S
C239 H253 0.950 1_556 S
C240 C239 1.479 1_545 S
C240 C241 1.375 . S
C240 C246 1.404 . S
C241 C240 1.375 . S
C241 C242 1.369 . S
C241 H254 0.950 . S
C242 C241 1.369 . S
C242 C243 1.392 . S
C242 H255 0.951 . S
C243 C242 1.392 . S
C243 C245 1.384 . S
H244 C246 0.959 . S
C245 C243 1.384 . S
C245 C246 1.385 . S
C245 H247 0.941 1_455 S
C246 C240 1.404 . S
C246 H244 0.959 . S
C246 C245 1.385 . S
H247 C245 0.941 1_655 S
H248 C232 0.951 . S
H249 C234 0.951 . S
H250 C236 0.951 1_656 S
H251 C237 0.950 1_655 S
H252 C238 0.950 . S
H253 C239 0.950 1_554 S
H254 C241 0.950 . S
H255 C242 0.951 . S
C256 C257 1.386 . S
C256 C258 1.383 . S
C256 H272 0.951 . S
C257 C256 1.386 . S
C257 C261 1.383 . S
C258 C256 1.383 . S
C258 C259 1.402 . S
C258 H273 0.951 . S
C259 C258 1.402 . S
C259 C260 1.375 . S
C259 C262 1.481 . S
C260 C259 1.375 . S
C260 C261 1.367 . S
C260 H274 0.951 . S
C261 C257 1.383 . S
C261 C260 1.367 . S
C261 H275 0.950 . S
C262 C259 1.481 . S
C262 C263 1.297 . S
C262 H276 0.950 . S
C263 C262 1.297 . S
C263 C264 1.479 . S
C263 H277 0.950 . S
C264 C263 1.479 . S
C264 C265 1.375 . S
C264 C270 1.404 . S
C265 C264 1.375 . S
C265 C266 1.369 . S
C265 H278 0.950 . S
C266 C265 1.369 . S
C266 C267 1.392 . S
C266 H279 0.951 . S
C267 C266 1.392 . S
C267 C269 1.384 . S
H268 C270 0.949 . S
C269 C267 1.384 . S
C269 C270 1.385 . S
C269 H271 0.950 . S
C270 C264 1.404 . S
C270 H268 0.949 . S
C270 C269 1.385 . S
H271 C269 0.950 . S
H272 C256 0.951 . S
H273 C258 0.951 . S
H274 C260 0.951 . S
H275 C261 0.950 . S
H276 C262 0.950 . S
H277 C263 0.950 . S
H278 C265 0.950 . S
H279 C266 0.951 . S
C280 C281 1.386 . S
C280 C282 1.383 . S
C280 H296 0.951 . S
C281 C280 1.386 . S
C281 C285 1.383 . S
C282 C280 1.383 . S
C282 C283 1.402 . S
C282 H297 0.951 . S
C283 C282 1.402 . S
C283 C284 1.375 . S
C283 C286 1.481 . S
C284 C283 1.375 . S
C284 C285 1.367 . S
C284 H298 0.951 . S
C285 C281 1.383 . S
C285 C284 1.367 . S
C285 H299 0.950 . S
C286 C283 1.481 . S
C286 C287 1.297 . S
C286 H300 0.950 . S
C287 C286 1.297 . S
C287 C288 1.479 . S
C287 H301 0.950 . S
C288 C287 1.479 . S
C288 C289 1.375 . S
C288 C294 1.404 . S
C289 C288 1.375 . S
C289 C290 1.369 . S
C289 H302 0.950 . S
C290 C289 1.369 . S
C290 C291 1.392 . S
C290 H303 0.951 . S
C291 C290 1.392 . S
C291 C293 1.384 . S
H292 C294 0.949 . S
C293 C291 1.384 . S
C293 C294 1.385 . S
C293 H295 0.950 . S
C294 C288 1.404 . S
C294 H292 0.949 . S
C294 C293 1.385 . S
H295 C293 0.950 . S
H296 C280 0.951 . S
H297 C282 0.951 . S
H298 C284 0.951 . S
H299 C285 0.950 . S
H300 C286 0.950 . S
H301 C287 0.950 . S
H302 C289 0.950 . S
H303 C290 0.951 . S
C304 C305 1.386 . S
C304 C306 1.383 . S
C304 H320 0.951 . S
C305 C304 1.386 . S
C305 C309 1.383 . S
C306 C304 1.383 . S
C306 C307 1.402 . S
C306 H321 0.951 . S
C307 C306 1.402 . S
C307 C308 1.375 . S
C307 C310 1.481 . S
C308 C307 1.375 . S
C308 C309 1.367 . S
C308 H322 0.951 . S
C309 C305 1.383 . S
C309 C308 1.367 . S
C309 H323 0.950 . S
C310 C307 1.481 . S
C310 C311 1.297 . S
C310 H324 0.950 . S
C311 C310 1.297 . S
C311 C312 1.479 . S
C311 H325 0.950 . S
C312 C311 1.479 . S
C312 C313 1.375 . S
C312 C318 1.404 . S
C313 C312 1.375 . S
C313 C314 1.369 . S
C313 H326 0.950 . S
C314 C313 1.369 . S
C314 C315 1.392 . S
C314 H327 0.951 . S
C315 C314 1.392 . S
C315 C317 1.384 . S
H316 C318 0.949 . S
C317 C315 1.384 . S
C317 C318 1.385 . S
C317 H319 0.950 . S
C318 C312 1.404 . S
C318 H316 0.949 . S
C318 C317 1.385 . S
H319 C317 0.950 . S
H320 C304 0.951 . S
H321 C306 0.951 . S
H322 C308 0.951 . S
H323 C309 0.950 . S
H324 C310 0.950 . S
H325 C311 0.950 . S
H326 C313 0.950 . S
H327 C314 0.951 . S
C328 C329 1.386 . S
C328 C330 1.383 . S
C328 H344 0.951 . S
C329 C328 1.386 . S
C329 C333 1.383 . S
C330 C328 1.383 . S
C330 C331 1.402 . S
C330 H345 0.951 . S
C331 C330 1.402 . S
C331 C332 1.375 . S
C331 C334 1.481 . S
C332 C331 1.375 . S
C332 C333 1.367 . S
C332 H346 0.951 . S
C333 C329 1.383 . S
C333 C332 1.367 . S
C333 H347 0.950 . S
C334 C331 1.481 . S
C334 C335 1.297 . S
C334 H348 0.950 . S
C335 C334 1.297 . S
C335 C336 1.479 . S
C335 H349 0.950 . S
C336 C335 1.479 . S
C336 C337 1.375 . S
C336 C342 1.404 . S
C337 C336 1.375 . S
C337 C338 1.369 . S
C337 H350 0.950 . S
C338 C337 1.369 . S
C338 C339 1.392 . S
C338 H351 0.951 . S
C339 C338 1.392 . S
C339 C341 1.384 . S
H340 C342 0.949 . S
C341 C339 1.384 . S
C341 C342 1.385 . S
C341 H343 0.950 . S
C342 C336 1.404 . S
C342 H340 0.949 . S
C342 C341 1.385 . S
H343 C341 0.950 . S
H344 C328 0.951 . S
H345 C330 0.951 . S
H346 C332 0.951 . S
H347 C333 0.950 . S
H348 C334 0.950 . S
H349 C335 0.950 . S
H350 C337 0.950 . S
H351 C338 0.951 . S
C352 C353 1.386 . S
C352 C354 1.383 . S
C352 H368 0.951 . S
C353 C352 1.386 . S
C353 C357 1.383 . S
C354 C352 1.383 . S
C354 C355 1.402 . S
C354 H369 0.951 . S
C355 C354 1.402 . S
C355 C356 1.375 . S
C355 C358 1.481 . S
C356 C355 1.375 . S
C356 C357 1.367 . S
C356 H370 0.951 . S
C357 C353 1.383 . S
C357 C356 1.367 . S
C357 H371 0.950 . S
C358 C355 1.481 . S
C358 C359 1.297 . S
C358 H372 0.950 . S
C359 C358 1.297 . S
C359 C360 1.477 . S
C359 H373 0.950 . S
C360 C359 1.477 . S
C360 C361 1.375 1_554 S
C360 C366 1.407 1_554 S
C361 C360 1.375 1_556 S
C361 C362 1.369 . S
C361 H374 0.950 . S
C362 C361 1.369 . S
C362 C363 1.392 . S
C362 H375 0.951 . S
C363 C362 1.392 . S
C363 C365 1.384 . S
H364 C366 0.948 1_554 S
C365 C363 1.384 . S
C365 C366 1.384 . S
C365 H367 0.950 . S
C366 C360 1.407 1_556 S
C366 H364 0.948 1_556 S
C366 C365 1.384 . S
H367 C365 0.950 . S
H368 C352 0.951 . S
H369 C354 0.951 . S
H370 C356 0.951 . S
H371 C357 0.950 . S
H372 C358 0.950 . S
H373 C359 0.950 . S
H374 C361 0.950 . S
H375 C362 0.951 . S
C376 C377 1.386 1_554 S
C376 C378 1.383 . S
C376 H392 0.951 . S
C377 C376 1.386 1_556 S
C377 C381 1.383 . S
C378 C376 1.383 . S
C378 C379 1.402 1_554 S
C378 H393 0.951 . S
C379 C378 1.402 1_556 S
C379 C380 1.375 . S
C379 C382 1.481 . S
C380 C379 1.375 . S
C380 C381 1.367 . S
C380 H394 0.951 . S
C381 C377 1.383 . S
C381 C380 1.367 . S
C381 H395 0.950 . S
C382 C379 1.481 . S
C382 C383 1.297 1_556 S
C382 H396 0.950 . S
C383 C382 1.297 1_554 S
C383 C384 1.479 . S
C383 H397 0.950 . S
C384 C383 1.479 . S
C384 C385 1.375 . S
C384 C390 1.404 1_554 S
C385 C384 1.375 . S
C385 C386 1.369 . S
C385 H398 0.950 . S
C386 C385 1.369 . S
C386 C387 1.392 . S
C386 H399 0.951 . S
C387 C386 1.392 . S
C387 C389 1.384 1_554 S
H388 C390 0.949 . S
C389 C387 1.384 1_556 S
C389 C390 1.385 . S
C389 H391 0.950 . S
C390 C384 1.404 1_556 S
C390 H388 0.949 . S
C390 C389 1.385 . S
H391 C389 0.950 . S
H392 C376 0.951 . S
H393 C378 0.951 . S
H394 C380 0.951 . S
H395 C381 0.950 . S
H396 C382 0.950 . S
H397 C383 0.950 . S
H398 C385 0.950 . S
H399 C386 0.951 . S
C400 C401 1.386 . S
C400 C402 1.383 . S
C400 H416 0.951 . S
C401 C400 1.386 . S
C401 C405 1.383 . S
C402 C400 1.383 . S
C402 C403 1.402 . S
C402 H417 0.951 1_556 S
C403 C402 1.402 . S
C403 C404 1.375 . S
C403 C406 1.481 1_556 S
C404 C403 1.375 . S
C404 C405 1.367 . S
C404 H418 0.951 . S
C405 C401 1.383 . S
C405 C404 1.367 . S
C405 H419 0.950 . S
C406 C403 1.481 1_554 S
C406 C407 1.297 . S
C406 H420 0.950 1_554 S
C407 C406 1.297 . S
C407 C408 1.479 . S
C407 H421 0.950 . S
C408 C407 1.479 . S
C408 C409 1.375 . S
C408 C414 1.404 . S
C409 C408 1.375 . S
C409 C410 1.369 . S
C409 H422 0.950 . S
C410 C409 1.369 . S
C410 C411 1.392 . S
C410 H423 0.951 . S
C411 C410 1.392 . S
C411 C413 1.384 . S
H412 C414 0.949 . S
C413 C411 1.384 . S
C413 C414 1.385 . S
C413 H415 0.950 . S
C414 C408 1.404 . S
C414 H412 0.949 . S
C414 C413 1.385 . S
H415 C413 0.950 . S
H416 C400 0.951 . S
H417 C402 0.951 1_554 S
H418 C404 0.951 . S
H419 C405 0.950 . S
H420 C406 0.950 1_556 S
H421 C407 0.950 . S
H422 C409 0.950 . S
H423 C410 0.951 . S
C424 C425 1.386 . S
C424 C426 1.383 . S
C424 H440 0.951 . S
C425 C424 1.386 . S
C425 C429 1.383 1_554 S
C426 C424 1.383 . S
C426 C427 1.402 1_554 S
C426 H441 0.951 . S
C427 C426 1.402 1_556 S
C427 C428 1.375 . S
C427 C430 1.481 . S
C428 C427 1.375 . S
C428 C429 1.367 . S
C428 H442 0.951 . S
C429 C425 1.383 1_556 S
C429 C428 1.367 . S
C429 H443 0.950 . S
C430 C427 1.481 . S
C430 C431 1.297 1_556 S
C430 H444 0.950 . S
C431 C430 1.297 1_554 S
C431 C432 1.479 1_554 S
C431 H445 0.950 . S
C432 C431 1.479 1_556 S
C432 C433 1.375 1_556 S
C432 C438 1.404 . S
C433 C432 1.375 1_554 S
C433 C434 1.369 . S
C433 H446 0.950 . S
C434 C433 1.369 . S
C434 C435 1.392 1_554 S
C434 H447 0.951 . S
C435 C434 1.392 1_556 S
C435 C437 1.384 . S
H436 C438 0.949 . S
C437 C435 1.384 . S
C437 C438 1.385 . S
C437 H439 0.950 . S
C438 C432 1.404 . S
C438 H436 0.949 . S
C438 C437 1.385 . S
H439 C437 0.950 . S
H440 C424 0.951 . S
H441 C426 0.951 . S
H442 C428 0.951 . S
H443 C429 0.950 . S
H444 C430 0.950 . S
H445 C431 0.950 . S
H446 C433 0.950 . S
H447 C434 0.951 . S
C161 C103 1.931 . S
C171 C2 1.834 . S
C185 C63 2.491 . S
C195 C122 2.469 . S
C209 C143 1.917 . S
C219 C42 1.921 . S
C233 C23 2.478 . S
C243 C82 2.483 . S
C257 C144 1.585 . S
C267 C13 1.575 . S
C281 C106 1.568 . S
C291 C57 1.584 . S
C305 C104 1.585 . S
C315 C53 1.575 . S
C329 C17 1.571 . S
C339 C146 1.590 . S
C353 C137 0.602 . S
C363 C26 0.340 . S
C377 C93 1.749 . S
C387 C64 1.775 . S
C401 C66 0.482 . S
C411 C97 0.700 . S
C425 C24 1.782 . S
C435 C133 1.774 . S
