# Generated by pormake.
# Topology sva, (7)-cn, num edge types: 1
# Building blocks:
#     Node 0, Type 0, BuildingBlock: HICVOG_clean_sbu_0, # of connection points: 7
#     Node 1, Type 0, BuildingBlock: HICVOG_clean_sbu_0, # of connection points: 7
#     Node 2, Type 0, BuildingBlock: HICVOG_clean_sbu_0, # of connection points: 7
#     Node 3, Type 0, BuildingBlock: HICVOG_clean_sbu_0, # of connection points: 7
#     Node 4, Type 0, BuildingBlock: HICVOG_clean_sbu_0, # of connection points: 7
#     Node 5, Type 0, BuildingBlock: HICVOG_clean_sbu_0, # of connection points: 7
#     Node 6, Type 0, BuildingBlock: HICVOG_clean_sbu_0, # of connection points: 7
#     Node 7, Type 0, BuildingBlock: HICVOG_clean_sbu_0, # of connection points: 7
#     Edge 8, Type (0, 0), BuildingBlock: ZUJKAS_clean_linker_0, # of connection points: 2
#     Edge 9, Type (0, 0), BuildingBlock: ZUJKAS_clean_linker_0, # of connection points: 2
#     Edge 10, Type (0, 0), BuildingBlock: ZUJKAS_clean_linker_0, # of connection points: 2
#     Edge 11, Type (0, 0), BuildingBlock: ZUJKAS_clean_linker_0, # of connection points: 2
#     Edge 12, Type (0, 0), BuildingBlock: ZUJKAS_clean_linker_0, # of connection points: 2
#     Edge 13, Type (0, 0), BuildingBlock: ZUJKAS_clean_linker_0, # of connection points: 2
#     Edge 14, Type (0, 0), BuildingBlock: ZUJKAS_clean_linker_0, # of connection points: 2
#     Edge 15, Type (0, 0), BuildingBlock: ZUJKAS_clean_linker_0, # of connection points: 2
#     Edge 16, Type (0, 0), BuildingBlock: ZUJKAS_clean_linker_0, # of connection points: 2
#     Edge 17, Type (0, 0), BuildingBlock: ZUJKAS_clean_linker_0, # of connection points: 2
#     Edge 18, Type (0, 0), BuildingBlock: ZUJKAS_clean_linker_0, # of connection points: 2
#     Edge 19, Type (0, 0), BuildingBlock: ZUJKAS_clean_linker_0, # of connection points: 2
#     Edge 20, Type (0, 0), BuildingBlock: ZUJKAS_clean_linker_0, # of connection points: 2
#     Edge 21, Type (0, 0), BuildingBlock: ZUJKAS_clean_linker_0, # of connection points: 2
#     Edge 22, Type (0, 0), BuildingBlock: ZUJKAS_clean_linker_0, # of connection points: 2
#     Edge 23, Type (0, 0), BuildingBlock: ZUJKAS_clean_linker_0, # of connection points: 2
#     Edge 24, Type (0, 0), BuildingBlock: ZUJKAS_clean_linker_0, # of connection points: 2
#     Edge 25, Type (0, 0), BuildingBlock: ZUJKAS_clean_linker_0, # of connection points: 2
#     Edge 26, Type (0, 0), BuildingBlock: ZUJKAS_clean_linker_0, # of connection points: 2
#     Edge 27, Type (0, 0), BuildingBlock: ZUJKAS_clean_linker_0, # of connection points: 2
#     Edge 28, Type (0, 0), BuildingBlock: ZUJKAS_clean_linker_0, # of connection points: 2
#     Edge 29, Type (0, 0), BuildingBlock: ZUJKAS_clean_linker_0, # of connection points: 2
#     Edge 30, Type (0, 0), BuildingBlock: ZUJKAS_clean_linker_0, # of connection points: 2
#     Edge 31, Type (0, 0), BuildingBlock: ZUJKAS_clean_linker_0, # of connection points: 2
#     Edge 32, Type (0, 0), BuildingBlock: ZUJKAS_clean_linker_0, # of connection points: 2
#     Edge 33, Type (0, 0), BuildingBlock: ZUJKAS_clean_linker_0, # of connection points: 2
#     Edge 34, Type (0, 0), BuildingBlock: ZUJKAS_clean_linker_0, # of connection points: 2
#     Edge 35, Type (0, 0), BuildingBlock: ZUJKAS_clean_linker_0, # of connection points: 2
# Relax obj value: 0.223
# Max RMSD: 0.267
# Mean RMSD: 0.267
data_MOF--net-sva--node1-HICVOG_clean_sbu_0--edge1-ZUJKAS_clean_linker_0
_symmetry_space_group_name_H-M    P1
_symmetry_Int_Tables_number       1
_symmetry_cell_setting            triclinic
loop_
_symmetry_equiv_pos_as_xyz
'x, y, z'
_cell_length_a     52.20259
_cell_length_b     52.158432
_cell_length_c     24.707968
_cell_angle_alpha  90.079674
_cell_angle_beta   89.996846
_cell_angle_gamma 89.924979
loop_
_atom_site_label
_atom_site_type_symbol
_atom_site_fract_x
_atom_site_fract_y
_atom_site_fract_z
_atom_type_partial_charge
Zn0 Zn 0.04183 0.19552 0.92293 0.0
C1 C 0.06747 0.23089 0.05673 0.0
N2 N 0.08912 0.21771 0.04615 0.0
C3 C 0.08228 0.20299 0.00392 0.0
N4 N 0.05774 0.20707 0.98915 0.0
N5 N 0.04812 0.22411 0.02337 0.0
C6 C 0.99058 0.27541 0.0401 0.0
O7 O 0.99097 0.26997 0.98816 0.0
O8 O 0.05351 0.16013 0.90243 0.0
Zn9 Zn 1.01254 0.22457 0.0481 0.0
N10 N 0.04841 0.2205 0.86672 0.0
C11 C 0.05461 0.26444 0.84449 0.0
C12 C 0.05213 0.24513 0.88298 0.0
C13 C 0.04733 0.2143 0.8132 0.0
N14 N 0.05301 0.25841 0.79119 0.0
C15 C 0.04952 0.23382 0.77421 0.0
O16 O 0.98516 0.2098 0.99769 0.0
C17 C 0.98406 0.19658 0.9544 0.0
O18 O 1.0041 0.19107 0.92782 0.0
H19 H 0.05262 0.24986 0.92556 0.0
H20 H 0.0438 0.19463 0.80135 0.0
C21 C 0.01659 0.2094 0.16113 0.0
C22 C 0.014 0.19174 0.20379 0.0
C23 C 1.00233 0.1595 0.14063 0.0
C24 C 1.00484 0.17701 0.09853 0.0
N25 N 1.01152 0.20166 0.10955 0.0
N26 N 1.00676 0.16729 0.19215 0.0
H27 H 0.02193 0.22912 0.16884 0.0
C28 C 0.05255 0.14372 0.94033 0.0
O29 O 0.04665 0.15147 0.9894 0.0
O30 O 1.00018 0.25946 0.0733 0.0
H31 H 1.00127 0.17105 0.05731 0.0
H32 H 0.05738 0.28415 0.85686 0.0
H33 H 0.99677 0.1399 0.1325 0.0
Zn34 Zn 0.83266 0.544 0.17471 0.0
C35 C 0.79726 0.56934 0.30846 0.0
N36 N 0.81074 0.59089 0.29901 0.0
C37 C 0.82579 0.58407 0.25728 0.0
N38 N 0.8216 0.55964 0.2417 0.0
N39 N 0.80414 0.55007 0.27487 0.0
C40 C 0.77079 0.48081 0.35296 0.0
O41 O 0.793 0.46955 0.361 0.0
O42 O 0.86862 0.55399 0.15513 0.0
Zn43 Zn 0.80479 0.51481 0.30092 0.0
N44 N 0.80861 0.55307 0.11817 0.0
C45 C 0.76767 0.5695 0.09389 0.0
C46 C 0.78583 0.56357 0.13317 0.0
C47 C 0.81403 0.54829 0.06522 0.0
N48 N 0.77297 0.56464 0.04113 0.0
C49 C 0.79571 0.55424 0.02525 0.0
O50 O 0.81932 0.48758 0.25016 0.0
C51 C 0.8309 0.4861 0.20494 0.0
O52 O 0.83569 0.50594 0.17712 0.0
H53 H 0.78167 0.56711 0.17536 0.0
H54 H 0.83212 0.53942 0.05487 0.0
C55 C 0.82119 0.51968 0.41285 0.0
C56 C 0.83974 0.51956 0.45436 0.0
C57 C 0.87195 0.51104 0.3886 0.0
C58 C 0.85351 0.51091 0.34802 0.0
N59 N 0.82857 0.51512 0.36085 0.0
N60 N 0.86466 0.51529 0.44051 0.0
H61 H 0.80123 0.52362 0.42111 0.0
C62 C 0.88524 0.5527 0.19258 0.0
O63 O 0.87757 0.54846 0.2424 0.0
O64 O 0.7703 0.50197 0.32735 0.0
H65 H 0.85902 0.50756 0.30642 0.0
H66 H 0.74943 0.57778 0.10522 0.0
H67 H 0.89191 0.50776 0.37903 0.0
Zn68 Zn 0.48772 0.33368 0.43285 0.0
C69 C 0.45584 0.29734 0.557 0.0
N70 N 0.43442 0.30955 0.54067 0.0
C71 C 0.4434 0.32584 0.50318 0.0
N72 N 0.46891 0.32349 0.49636 0.0
N73 N 0.47695 0.3059 0.53104 0.0
C74 C 0.54283 0.25998 0.54992 0.0
O75 O 0.55033 0.2732 0.50761 0.0
O76 O 0.47544 0.36704 0.40145 0.0
Zn77 Zn 0.51157 0.30473 0.5616 0.0
N78 N 0.48743 0.30565 0.38175 0.0
C79 C 0.49486 0.26112 0.36764 0.0
C80 C 0.49256 0.28204 0.40235 0.0
C81 C 0.48438 0.30924 0.3276 0.0
N82 N 0.49229 0.26471 0.31355 0.0
C83 C 0.48703 0.2882 0.29232 0.0
O84 O 0.54009 0.32388 0.52091 0.0
C85 C 0.5426 0.33789 0.47914 0.0
O86 O 0.52405 0.34181 0.44725 0.0
H87 H 0.49544 0.27959 0.44534 0.0
H88 H 0.481 0.32837 0.31221 0.0
C89 C 0.50603 0.31469 0.67773 0.0
C90 C 0.50574 0.33143 0.72245 0.0
C91 C 0.5107 0.36687 0.66328 0.0
C92 C 0.51103 0.35031 0.61918 0.0
N93 N 0.5091 0.32461 0.62719 0.0
N94 N 0.50824 0.35707 0.71376 0.0
H95 H 0.50443 0.29415 0.683 0.0
C96 C 0.48038 0.38527 0.43403 0.0
O97 O 0.48882 0.37968 0.48272 0.0
O98 O 0.52466 0.26876 0.57897 0.0
H99 H 0.51305 0.35785 0.57867 0.0
H100 H 0.4991 0.24226 0.38343 0.0
H101 H 0.51247 0.38735 0.65754 0.0
Zn102 Zn 0.72258 1.01346 0.80194 0.0
C103 C 0.70083 0.9427 0.76424 0.0
N104 N 0.71566 0.93677 0.80686 0.0
C105 C 0.72878 0.95864 0.81537 0.0
N106 N 0.72191 0.9773 0.78034 0.0
N107 N 0.70484 0.96694 0.7472 0.0
C108 C 0.64145 0.97516 0.70163 0.0
O109 O 0.65083 0.98202 0.74882 0.0
O110 O 0.75781 0.02639 0.82402 0.0
Zn111 Zn 0.69301 0.98141 0.67978 0.0
N112 N 0.70044 0.01526 0.86463 0.0
C113 C 0.65787 0.0217 0.89607 0.0
C114 C 0.67535 0.01992 0.85379 0.0
C115 C 0.70883 1.01189 0.91637 0.0
N116 N 0.66616 0.0186 0.94762 0.0
C117 C 0.69117 0.01363 0.95944 0.0
O118 O 0.68877 0.01917 0.68167 0.0
C119 C 0.69354 0.0398 0.70683 0.0
O120 O 0.70658 0.03981 0.75036 0.0
H121 H 0.66898 0.02229 0.81249 0.0
H122 H 0.72896 1.00831 0.92359 0.0
C123 C 0.71129 0.97663 0.56939 0.0
C124 C 0.7295 0.97022 0.52931 0.0
C125 C 0.75755 0.95531 0.59832 0.0
C126 C 0.73963 0.96193 0.63759 0.0
N127 N 0.71685 0.97235 0.6225 0.0
N128 N 0.7521 0.95961 0.54547 0.0
H129 H 0.69284 0.98467 0.55902 0.0
C130 C 0.77016 0.04091 0.79197 0.0
O131 O 0.76081 0.04517 0.74344 0.0
O132 O 0.65692 0.97077 0.663 0.0
H133 H 0.74389 0.95876 0.67984 0.0
H134 H 0.63785 0.02551 0.88805 0.0
H135 H 0.77572 0.94691 0.60972 0.0
Zn136 Zn 0.54247 0.69453 0.42473 0.0
C137 C 0.56869 0.72923 0.55865 0.0
N138 N 0.59003 0.71552 0.5484 0.0
C139 C 0.58292 0.70085 0.5063 0.0
N140 N 0.55849 0.70543 0.49135 0.0
N141 N 0.54925 0.7229 0.52511 0.0
C142 C 0.4869 0.77168 0.54223 0.0
O143 O 0.48291 0.76274 0.49323 0.0
O144 O 0.55349 0.65918 0.40192 0.0
Zn145 Zn 0.5138 0.72382 0.55021 0.0
N146 N 0.54995 0.71961 0.36927 0.0
C147 C 0.56425 0.76149 0.34638 0.0
C148 C 0.5595 0.74268 0.38498 0.0
C149 C 0.54501 0.7145 0.31627 0.0
N150 N 0.55922 0.75651 0.29356 0.0
C151 C 0.54977 0.73347 0.27699 0.0
O152 O 0.48653 0.7083 0.5009 0.0
C153 C 0.48496 0.6954 0.45728 0.0
O154 O 0.50469 0.69016 0.42945 0.0
H155 H 0.5632 0.74658 0.42721 0.0
H156 H 0.53691 0.69613 0.30539 0.0
C157 C 0.51732 0.70918 0.66357 0.0
C158 C 0.51755 0.69099 0.70578 0.0
C159 C 0.51048 0.6579 0.64119 0.0
C160 C 0.51023 0.67592 0.59983 0.0
N161 N 0.51351 0.70113 0.61175 0.0
N162 N 0.51412 0.66582 0.69287 0.0
H163 H 0.52064 0.72932 0.67116 0.0
C164 C 0.55226 0.64166 0.4375 0.0
O165 O 0.54719 0.64808 0.48782 0.0
O166 O 0.50125 0.75901 0.57415 0.0
H167 H 0.50766 0.66987 0.55833 0.0
H168 H 0.57175 0.77999 0.35828 0.0
H169 H 0.50792 0.63774 0.63234 0.0
Zn170 Zn 0.33071 0.043 0.67432 0.0
C171 C 0.29482 0.06806 0.80803 0.0
N172 N 0.30805 0.08974 0.79851 0.0
C173 C 0.32314 0.08312 0.7567 0.0
N174 N 0.31917 0.05865 0.74104 0.0
N175 N 0.30188 0.04887 0.7744 0.0
C176 C 0.25291 0.98674 0.78786 0.0
O177 O 0.26191 0.98289 0.73886 0.0
O178 O 0.36646 0.05379 0.65509 0.0
Zn179 Zn 0.301 1.01312 0.798 0.0
N180 N 0.30595 0.05032 0.61795 0.0
C181 C 0.26229 0.05833 0.59585 0.0
C182 C 0.28155 0.05521 0.63426 0.0
C183 C 0.31199 0.04868 0.56442 0.0
N184 N 0.26814 0.05618 0.54256 0.0
C185 C 0.2925 0.05153 0.52551 0.0
O186 O 0.31659 0.98605 0.74778 0.0
C187 C 0.32971 0.98505 0.70442 0.0
O188 O 0.33499 1.00517 0.678 0.0
H189 H 0.27694 0.05616 0.67683 0.0
H190 H 0.33145 0.04425 0.55251 0.0
C191 C 0.31507 0.01662 0.91204 0.0
C192 C 0.33232 0.01359 0.95534 0.0
C193 C 0.36488 1.00153 0.89331 0.0
C194 C 0.34779 1.00449 0.85058 0.0
N195 N 0.32317 1.01156 0.86069 0.0
N196 N 0.35674 1.00595 0.94456 0.0
H197 H 0.2954 0.02231 0.91906 0.0
C198 C 0.3824 0.05084 0.69345 0.0
O199 O 0.37376 0.04456 0.74159 0.0
O200 O 0.26567 1.00072 0.82037 0.0
H201 H 0.35408 1.00096 0.80957 0.0
H202 H 0.24276 0.06202 0.60828 0.0
H203 H 0.38445 0.99565 0.88587 0.0
Zn204 Zn 0.98184 0.83379 0.92788 0.0
C205 C 0.95817 0.79814 0.06277 0.0
N206 N 0.93672 0.81205 0.05504 0.0
C207 C 0.94305 0.82711 0.01304 0.0
N208 N 0.96709 0.82242 0.99552 0.0
N209 N 0.97696 0.80474 0.02789 0.0
C210 C 0.03888 0.75512 0.04112 0.0
O211 O 0.04269 0.7638 0.99189 0.0
O212 O 0.97271 0.8704 0.91196 0.0
Zn213 Zn 1.01285 0.80358 0.05045 0.0
N214 N 0.9714 0.8107 0.87034 0.0
C215 C 0.9525 0.77101 0.84499 0.0
C216 C 0.96 0.78832 0.8848 0.0
C217 C 0.97581 0.81644 0.81739 0.0
N218 N 0.95693 0.77664 0.79225 0.0
C219 C 0.96853 0.79884 0.77677 0.0
O220 O 0.03938 0.81847 0.99847 0.0
C221 C 0.04015 0.83071 0.95397 0.0
O222 O 0.01986 0.83608 0.92815 0.0
H223 H 0.95675 0.78392 0.92696 0.0
H224 H 0.98464 0.83458 0.80758 0.0
C225 C 1.01124 0.81827 0.16443 0.0
C226 C 0.01362 0.83615 0.20702 0.0
C227 C 0.02295 0.86871 0.14278 0.0
C228 C 0.02063 0.851 0.10098 0.0
N229 N 0.015 0.82617 0.11247 0.0
N230 N 0.0195 0.86089 0.19455 0.0
H231 H 1.00696 0.79833 0.17223 0.0
C232 C 0.97799 0.88564 0.95052 0.0
O233 O 0.98458 0.87593 0.99753 0.0
O234 O 0.02514 0.76824 0.07348 0.0
H235 H 0.02343 0.85697 0.05955 0.0
H236 H 0.94332 0.75317 0.85586 0.0
H237 H 0.02752 0.88851 0.13423 0.0
Zn238 Zn 0.2227 0.51328 0.29981 0.0
C239 C 0.20145 0.44306 0.25728 0.0
N240 N 0.21628 0.43634 0.29934 0.0
C241 C 0.22934 0.45806 0.30973 0.0
N242 N 0.22232 0.47739 0.27641 0.0
N243 N 0.2053 0.46761 0.24241 0.0
C244 C 0.14196 0.47316 0.1916 0.0
O245 O 0.14944 0.47849 0.24113 0.0
O246 O 0.2578 0.52696 0.32036 0.0
Zn247 Zn 0.19405 0.48296 0.17541 0.0
N248 N 0.20072 0.51458 0.36278 0.0
C249 C 0.15899 0.52381 0.39631 0.0
C250 C 0.17582 0.5207 0.35311 0.0
C251 C 0.20938 0.51057 0.41407 0.0
N252 N 0.16771 0.52057 0.44753 0.0
C253 C 0.19244 0.51387 0.45777 0.0
O254 O 0.18916 0.52067 0.17873 0.0
C255 C 0.19393 0.54079 0.20566 0.0
O256 O 0.20671 0.53988 0.24945 0.0
H257 H 0.16916 0.52347 0.31211 0.0
H258 H 0.2293 0.50571 0.42073 0.0
C259 C 0.21357 0.47893 0.06641 0.0
C260 C 0.2331 0.47597 0.02766 0.0
C261 C 0.26248 0.46594 0.09776 0.0
C262 C 0.24317 0.46914 0.13607 0.0
N263 N 0.21917 0.47573 0.11979 0.0
N264 N 0.25709 0.46966 0.04464 0.0
H265 H 0.19443 0.48465 0.05461 0.0
C266 C 0.25766 0.54869 0.34394 0.0
O267 O 0.23552 0.55975 0.35385 0.0
O268 O 0.1587 0.47158 0.15441 0.0
H269 H 0.24745 0.46688 0.17858 0.0
H270 H 0.13919 0.52896 0.38926 0.0
H271 H 0.28172 0.46091 0.11017 0.0
H272 H 0.98985 0.9225 0.02424 0.0
H273 H 1.00495 0.96586 0.00592 0.0
H274 H 0.99221 0.95444 0.83518 0.0
H275 H 0.97695 0.91081 0.85305 0.0
H276 H 0.04897 0.97493 0.93278 0.0
H277 H 0.95951 0.02628 0.87333 0.0
H278 H 0.95883 0.99741 0.91363 0.0
H279 H 0.96611 0.99558 0.84283 0.0
C280 C 0.98977 0.92931 0.98284 0.0
C281 C 0.98233 0.91317 0.94006 0.0
C282 C 0.99851 0.95405 0.97247 0.0
C283 C 0.9998 0.9632 0.91926 0.0
C284 C 0.99121 0.94769 0.87657 0.0
H285 H 0.04658 0.12017 0.84214 0.0
H286 H 0.03841 0.07448 0.82664 0.0
C287 C 0.98244 0.92283 0.8869 0.0
C288 C 1.01161 0.98842 0.90892 0.0
H289 H 0.99728 0.05054 0.87876 0.0
C290 C 0.03778 0.99144 0.92032 0.0
C291 C 0.99698 1.00973 0.89202 0.0
C292 C 0.96876 1.00734 0.87988 0.0
C293 C 0.04951 0.01557 0.91743 0.0
C294 C 0.03454 0.03716 0.90357 0.0
C295 C 1.0087 0.03389 0.8893 0.0
C296 C 0.04425 0.0636 0.91018 0.0
C297 C 0.07765 0.01783 0.93041 0.0
C298 C 0.05092 0.07239 0.96197 0.0
C299 C 0.05544 0.09839 0.97099 0.0
C300 C 0.05332 0.11604 0.92836 0.0
C301 C 0.0484 0.10698 0.87575 0.0
C302 C 0.04365 0.08093 0.86684 0.0
H303 H 0.08791 0.99956 0.92219 0.0
H304 H 0.0868 0.03338 0.90664 0.0
H305 H 0.07994 0.02231 0.97406 0.0
H306 H 0.05111 0.0594 0.99614 0.0
H307 H 0.05932 0.10482 0.01188 0.0
H308 H 0.90662 0.54224 0.09392 0.0
H309 H 0.95092 0.5289 0.07677 0.0
H310 H 0.96992 0.54362 0.24371 0.0
H311 H 0.9257 0.55677 0.26145 0.0
H312 H 1.00808 0.55958 0.15262 0.0
H313 H 0.97448 0.45808 0.15525 0.0
H314 H 0.95759 0.48096 0.11386 0.0
H315 H 0.95617 0.4836 0.18611 0.0
C316 C 0.92038 0.54328 0.12666 0.0
C317 C 0.91267 0.55027 0.17923 0.0
C318 C 0.9456 0.53553 0.1168 0.0
C319 C 0.96343 0.53501 0.15918 0.0
C320 C 0.95629 0.54382 0.21063 0.0
H321 H 0.10155 0.46801 0.26009 0.0
H322 H 0.05718 0.48065 0.24251 0.0
C323 C 0.93107 0.55131 0.22067 0.0
C324 C 0.98884 0.52316 0.15167 0.0
H325 H 0.01894 0.46498 0.15074 0.0
C326 C 1.01053 0.53894 0.15118 0.0
C327 C 0.99175 0.4962 0.15035 0.0
C328 C 0.96886 0.47856 0.15161 0.0
C329 C 0.03526 0.52837 0.15079 0.0
C330 C 0.03817 0.50141 0.15103 0.0
C331 C 0.01648 0.48563 0.1501 0.0
C332 C 0.0636 0.48953 0.15813 0.0
C333 C 0.05815 0.54601 0.15259 0.0
C334 C 0.08143 0.48927 0.11573 0.0
C335 C 0.10674 0.48181 0.12551 0.0
C336 C 0.11452 0.47487 0.17801 0.0
C337 C 0.09612 0.47345 0.21937 0.0
C338 C 0.07081 0.48065 0.20942 0.0
H339 H 0.05254 0.56649 0.15622 0.0
H340 H 0.07066 0.54094 0.18733 0.0
H341 H 0.06961 0.54359 0.11508 0.0
H342 H 0.07606 0.49597 0.07583 0.0
H343 H 0.12052 0.48314 0.09286 0.0
H344 H 0.54454 0.62203 0.33601 0.0
H345 H 0.53344 0.57764 0.31342 0.0
H346 H 0.54578 0.55557 0.47946 0.0
H347 H 0.55675 0.59982 0.50254 0.0
H348 H 0.56424 0.51933 0.39034 0.0
H349 H 0.46222 0.55091 0.37885 0.0
H350 H 0.48597 0.56845 0.34114 0.0
H351 H 0.4862 0.56963 0.41364 0.0
C352 C 0.54553 0.6076 0.36743 0.0
C353 C 0.55118 0.61443 0.42125 0.0
C354 C 0.53908 0.58231 0.35445 0.0
C355 C 0.53848 0.56353 0.39497 0.0
C356 C 0.54605 0.56989 0.44774 0.0
H357 H 0.47249 0.42748 0.49535 0.0
H358 H 0.48446 0.47148 0.47274 0.0
C359 C 0.55227 0.59517 0.46086 0.0
C360 C 0.52755 0.53791 0.38433 0.0
H361 H 0.47023 0.50664 0.37609 0.0
C362 C 0.54376 0.51648 0.38591 0.0
C363 C 0.50079 0.53444 0.37914 0.0
C364 C 0.48262 0.55697 0.37826 0.0
C365 C 0.53377 0.49152 0.38444 0.0
C366 C 0.50693 0.48807 0.38142 0.0
C367 C 0.4908 0.50948 0.37777 0.0
C368 C 0.49536 0.46261 0.39036 0.0
C369 C 0.55175 0.46896 0.38935 0.0
C370 C 0.49645 0.44342 0.35058 0.0
C371 C 0.48926 0.41826 0.36322 0.0
C372 C 0.4813 0.41212 0.41598 0.0
C373 C 0.47862 0.43176 0.45445 0.0
C374 C 0.48546 0.45685 0.44162 0.0
H375 H 0.57204 0.47498 0.39402 0.0
H376 H 0.54632 0.45703 0.42474 0.0
H377 H 0.55018 0.45674 0.3527 0.0
H378 H 0.50402 0.44763 0.31076 0.0
H379 H 0.49173 0.40338 0.33304 0.0
H380 H 0.61642 0.97446 0.6039 0.0
H381 H 0.57226 0.98855 0.58684 0.0
H382 H 0.56021 0.99778 0.75834 0.0
H383 H 0.60402 0.98376 0.77592 0.0
H384 H 0.52113 0.9706 0.63735 0.0
H385 H 0.54997 0.0709 0.68217 0.0
H386 H 0.57265 0.04639 0.66253 0.0
H387 H 0.56053 0.04741 0.73052 0.0
C388 C 0.60417 0.97893 0.63803 0.0
C389 C 0.61378 0.9783 0.69125 0.0
C390 C 0.57904 0.98705 0.62815 0.0
C391 C 0.56333 0.99464 0.67133 0.0
C392 C 0.57229 0.99234 0.72454 0.0
H393 H 0.42096 0.05117 0.76722 0.0
H394 H 0.4658 0.0401 0.75153 0.0
C395 C 0.59729 0.98423 0.73446 0.0
C396 C 0.53804 1.00639 0.66152 0.0
H397 H 0.50511 0.06218 0.68109 0.0
C398 C 0.51759 0.99072 0.64574 0.0
C399 C 0.53374 0.03266 0.67237 0.0
C400 C 0.55539 0.05045 0.68741 0.0
C401 C 0.49248 1.00036 0.64385 0.0
C402 C 0.48799 0.02635 0.65746 0.0
C403 C 0.50868 0.04229 0.67062 0.0
C404 C 0.46176 0.03642 0.66473 0.0
C405 C 0.47074 0.98237 0.63056 0.0
C406 C 0.44499 0.03907 0.62075 0.0
C407 C 0.41931 0.04557 0.62955 0.0
C408 C 0.41014 0.04932 0.68253 0.0
C409 C 0.42743 0.04822 0.72601 0.0
C410 C 0.45304 0.04189 0.71714 0.0
H411 H 0.47724 0.96215 0.62698 0.0
H412 H 0.45569 0.9835 0.66224 0.0
H413 H 0.46192 0.9881 0.59155 0.0
H414 H 0.45154 0.03523 0.57993 0.0
H415 H 0.40642 0.04629 0.59524 0.0
H416 H 0.24828 0.04824 0.78069 0.0
H417 H 0.20695 0.06391 0.8147 0.0
H418 H 0.24605 0.10704 0.93853 0.0
H419 H 0.2873 0.09164 0.90441 0.0
H420 H 0.17912 0.0697 0.9206 0.0
H421 H 0.21409 0.16057 0.83048 0.0
H422 H 0.22884 0.12994 0.81653 0.0
H423 H 0.23568 0.14651 0.8787 0.0
C424 C 0.24796 0.05996 0.81692 0.0
C425 C 0.27096 0.06872 0.84006 0.0
C426 C 0.22433 0.06913 0.83597 0.0
C427 C 0.22351 0.08707 0.87837 0.0
C428 C 0.2463 0.09346 0.90529 0.0
H429 H 0.10986 0.16779 0.0581 0.0
H430 H 0.14087 0.13709 0.0218 0.0
C431 C 0.26985 0.0845 0.88607 0.0
C432 C 0.19984 0.10208 0.88922 0.0
H433 H 0.17655 0.16327 0.88442 0.0
C434 C 0.17843 0.0901 0.9124 0.0
C435 C 0.19867 0.12857 0.87695 0.0
C436 C 0.22042 0.14218 0.8488 0.0
C437 C 0.15638 0.1043 0.92627 0.0
C438 C 0.15599 0.13114 0.9174 0.0
C439 C 0.17691 0.14276 0.89167 0.0
C440 C 0.13514 0.14795 0.93815 0.0
C441 C 0.13372 0.09048 0.95033 0.0
C442 C 0.1219 0.16473 0.90339 0.0
C443 C 0.10424 0.18247 0.92426 0.0
C444 C 0.09966 0.1837 0.98015 0.0
C445 C 0.11291 0.16698 0.01475 0.0
C446 C 0.1304 0.14924 0.99398 0.0
H447 H 0.13358 0.06991 0.9386 0.0
H448 H 0.13484 0.09152 0.99513 0.0
H449 H 0.11538 0.09939 0.93737 0.0
H450 H 0.12556 0.16437 0.86024 0.0
H451 H 0.0946 0.19553 0.89698 0.0
H452 H 0.83494 0.59548 0.15043 0.0
H453 H 0.86583 0.62679 0.11492 0.0
H454 H 0.88971 0.64449 0.27786 0.0
H455 H 0.85934 0.61299 0.31301 0.0
H456 H 0.86499 0.67807 0.13697 0.0
H457 H 0.95841 0.63808 0.20063 0.0
H458 H 0.92949 0.61912 0.19838 0.0
H459 H 0.93586 0.63966 0.25536 0.0
C460 C 0.84725 0.60562 0.17835 0.0
C461 C 0.84514 0.60156 0.23429 0.0
C462 C 0.86482 0.62354 0.15816 0.0
C463 C 0.88053 0.63761 0.19367 0.0
C464 C 0.8784 0.63338 0.24955 0.0
H465 H 0.93456 0.79048 0.15898 0.0
H466 H 0.91973 0.74911 0.19341 0.0
C467 C 0.86084 0.6156 0.26962 0.0
C468 C 0.89708 0.65868 0.17331 0.0
H469 H 0.95777 0.68331 0.17964 0.0
C470 C 0.88534 0.679 0.14565 0.0
C471 C 0.92371 0.65984 0.1842 0.0
C472 C 0.93768 0.63787 0.21077 0.0
C473 C 0.89918 0.70092 0.13079 0.0
C474 C 0.92542 0.70281 0.14471 0.0
C475 C 0.93755 0.68202 0.17003 0.0
C476 C 0.93998 0.72663 0.13347 0.0
C477 C 0.8855 0.72211 0.10084 0.0
C478 C 0.95774 0.72754 0.09084 0.0
C479 C 0.96648 0.75123 0.07146 0.0
C480 C 0.95752 0.77421 0.09455 0.0
C481 C 0.94185 0.77305 0.14067 0.0
C482 C 0.93325 0.74944 0.16013 0.0
H483 H 0.86728 0.71536 0.08251 0.0
H484 H 0.88092 0.73785 0.12954 0.0
H485 H 0.89783 0.73008 0.06833 0.0
H486 H 0.96316 0.71014 0.06973 0.0
H487 H 0.97808 0.75157 0.03512 0.0
H488 H 0.44273 0.37697 0.52165 0.0
H489 H 0.41145 0.40829 0.48859 0.0
H490 H 0.37266 0.34822 0.40074 0.0
H491 H 0.40512 0.3173 0.43106 0.0
H492 H 0.37304 0.39185 0.34333 0.0
H493 H 0.34121 0.41293 0.55308 0.0
H494 H 0.37431 0.42004 0.5408 0.0
H495 H 0.36331 0.38739 0.53754 0.0
C496 C 0.4282 0.37079 0.49327 0.0
C497 C 0.42689 0.34505 0.47692 0.0
C498 C 0.40994 0.38854 0.47548 0.0
C499 C 0.38936 0.38059 0.44291 0.0
C500 C 0.38835 0.35488 0.42574 0.0
H501 H 0.23691 0.43078 0.40136 0.0
H502 H 0.27831 0.41714 0.43701 0.0
C503 C 0.40689 0.33723 0.44289 0.0
C504 C 0.3682 0.39856 0.4286 0.0
H505 H 0.32065 0.43567 0.48317 0.0
C506 C 0.36171 0.40161 0.37386 0.0
C507 C 0.35322 0.41112 0.46855 0.0
C508 C 0.35816 0.40757 0.52829 0.0
C509 C 0.34031 0.41616 0.35797 0.0
C510 C 0.32535 0.42879 0.39789 0.0
C511 C 0.3323 0.42635 0.45255 0.0
C512 C 0.30063 0.4416 0.38432 0.0
C513 C 0.33314 0.4166 0.29875 0.0
C514 C 0.29921 0.46122 0.34542 0.0
C515 C 0.27542 0.46893 0.32466 0.0
C516 C 0.25272 0.45751 0.34337 0.0
C517 C 0.2541 0.43998 0.38636 0.0
C518 C 0.2778 0.4321 0.40664 0.0
H519 H 0.34326 0.40147 0.27534 0.0
H520 H 0.3122 0.4139 0.29341 0.0
H521 H 0.33846 0.43543 0.28123 0.0
H522 H 0.31653 0.46934 0.32855 0.0
H523 H 0.27503 0.48196 0.29059 0.0
H524 H 0.66821 0.91294 0.82061 0.0
H525 H 0.63892 0.88016 0.78602 0.0
H526 H 0.66175 0.89823 0.62273 0.0
H527 H 0.69156 0.93072 0.65754 0.0
H528 H 0.59709 0.88168 0.71012 0.0
H529 H 0.67872 0.82133 0.64058 0.0
H530 H 0.683 0.84829 0.68547 0.0
H531 H 0.67785 0.85345 0.61444 0.0
C532 C 0.66681 0.91004 0.77727 0.0
C533 C 0.68195 0.92452 0.74164 0.0
C534 C 0.64996 0.89144 0.75757 0.0
C535 C 0.64818 0.88667 0.70184 0.0
C536 C 0.66289 0.90151 0.66595 0.0
H537 H 0.54877 0.77655 0.53761 0.0
H538 H 0.56406 0.81687 0.57711 0.0
C539 C 0.67978 0.9202 0.68576 0.0
C540 C 0.63241 0.86485 0.68218 0.0
H541 H 0.63729 0.80537 0.62534 0.0
C542 C 0.6058 0.86503 0.69126 0.0
C543 C 0.64387 0.84303 0.65825 0.0
C544 C 0.67244 0.84126 0.64938 0.0
C545 C 0.5904 0.84388 0.67711 0.0
C546 C 0.60195 0.82208 0.65331 0.0
C547 C 0.62848 0.82208 0.6438 0.0
C548 C 0.58735 0.79863 0.63851 0.0
C549 C 0.56208 0.84466 0.68894 0.0
C550 C 0.59439 0.77503 0.66139 0.0
C551 C 0.58565 0.75206 0.63897 0.0
C552 C 0.56962 0.75225 0.59337 0.0
C553 C 0.56058 0.77586 0.57364 0.0
C554 C 0.56949 0.79894 0.59595 0.0
H555 H 0.557 0.86058 0.71689 0.0
H556 H 0.55142 0.84747 0.65053 0.0
H557 H 0.55565 0.82626 0.70694 0.0
H558 H 0.60812 0.77433 0.69425 0.0
H559 H 0.59306 0.73413 0.65462 0.0
H560 H 0.79716 0.07715 0.73658 0.0
H561 H 0.8325 0.10351 0.7694 0.0
H562 H 0.83023 0.06436 0.92286 0.0
H563 H 0.79474 0.03767 0.89024 0.0
H564 H 0.83117 0.1366 0.86211 0.0
H565 H 0.90688 0.06171 0.87718 0.0
H566 H 0.87809 0.05721 0.83778 0.0
H567 H 0.87696 0.05482 0.91018 0.0
C568 C 0.80429 0.07388 0.77715 0.0
C569 C 0.79307 0.05525 0.81076 0.0
C570 C 0.82445 0.08908 0.79591 0.0
C571 C 0.83405 0.08588 0.84848 0.0
C572 C 0.82328 0.06699 0.88194 0.0
H573 H 0.93834 0.19448 0.01007 0.0
H574 H 0.90059 0.16864 0.98719 0.0
C575 C 0.80297 0.05178 0.86325 0.0
C576 C 0.85486 0.1029 0.86824 0.0
H577 H 0.91793 0.10352 0.90493 0.0
C578 C 0.85011 0.12938 0.87184 0.0
C579 C 0.87956 0.09343 0.88058 0.0
C580 C 0.8859 0.06528 0.87597 0.0
C581 C 0.8695 0.14668 0.88688 0.0
C582 C 0.89424 0.13722 0.89891 0.0
C583 C 0.8989 0.11071 0.89592 0.0
C584 C 0.91603 0.15454 0.91149 0.0
C585 C 0.86365 0.175 0.88812 0.0
C586 C 0.93707 0.15543 0.87631 0.0
C587 C 0.95854 0.17018 0.88908 0.0
C588 C 0.9596 0.1843 0.93767 0.0
C589 C 0.93812 0.18406 0.97214 0.0
C590 C 0.91653 0.16925 0.95917 0.0
H591 H 0.84503 0.17952 0.86851 0.0
H592 H 0.86277 0.18159 0.9308 0.0
H593 H 0.87901 0.18599 0.86749 0.0
H594 H 0.93706 0.14431 0.83923 0.0
H595 H 0.97465 0.16987 0.86146 0.0
H596 H 0.84916 0.47368 0.10475 0.0
H597 H 0.87529 0.43666 0.07993 0.0
H598 H 0.86742 0.40664 0.24162 0.0
H599 H 0.84071 0.44342 0.26651 0.0
H600 H 0.92122 0.42488 0.12349 0.0
H601 H 0.85472 0.34309 0.15225 0.0
H602 H 0.84376 0.37589 0.14967 0.0
H603 H 0.85773 0.36334 0.21068 0.0
C604 C 0.85247 0.45892 0.13477 0.0
C605 C 0.84273 0.46151 0.18762 0.0
C606 C 0.86754 0.4378 0.12055 0.0
C607 C 0.87328 0.41875 0.15875 0.0
C608 C 0.86287 0.42078 0.21106 0.0
H609 H 0.97778 0.28751 0.14474 0.0
H610 H 0.95072 0.32303 0.17588 0.0
C611 C 0.84757 0.44186 0.22526 0.0
C612 C 0.89162 0.3979 0.14461 0.0
H613 H 0.89841 0.3328 0.13628 0.0
C614 C 0.91616 0.40475 0.12612 0.0
C615 C 0.88514 0.37161 0.14839 0.0
C616 C 0.85884 0.36298 0.16584 0.0
C617 C 0.93429 0.3861 0.11122 0.0
C618 C 0.92772 0.35988 0.11459 0.0
C619 C 0.9034 0.35295 0.13389 0.0
C620 C 0.94546 0.33936 0.09626 0.0
C621 C 0.96043 0.39454 0.09235 0.0
C622 C 0.95161 0.33688 0.0412 0.0
C623 C 0.96695 0.31656 0.02321 0.0
C624 C 0.9765 0.29832 0.05996 0.0
C625 C 0.97084 0.30126 0.11535 0.0
C626 C 0.9553 0.32148 0.13324 0.0
H627 H 0.9644 0.41483 0.10323 0.0
H628 H 0.97561 0.3822 0.11008 0.0
H629 H 0.96151 0.39273 0.04766 0.0
H630 H 0.94399 0.35031 0.01191 0.0
H631 H 0.97088 0.31487 0.98031 0.0
H632 H 0.7666 0.43833 0.41647 0.0
H633 H 0.72772 0.41517 0.44136 0.0
H634 H 0.682 0.47082 0.35592 0.0
H635 H 0.72095 0.4943 0.3307 0.0
H636 H 0.68137 0.43352 0.4977 0.0
H637 H 0.66389 0.39914 0.28766 0.0
H638 H 0.6946 0.41129 0.30942 0.0
H639 H 0.66873 0.43306 0.29599 0.0
C640 C 0.74829 0.44579 0.40312 0.0
C641 C 0.74691 0.46806 0.37111 0.0
C642 C 0.72609 0.43253 0.41756 0.0
C643 C 0.70205 0.44111 0.39996 0.0
C644 C 0.70044 0.46374 0.36935 0.0
H645 H 0.54968 0.37808 0.41064 0.0
H646 H 0.58845 0.40269 0.39493 0.0
C647 C 0.72269 0.47716 0.35513 0.0
C648 C 0.67884 0.42581 0.41231 0.0
H649 H 0.63323 0.38812 0.35354 0.0
C650 C 0.67079 0.42357 0.46629 0.0
C651 C 0.66522 0.41279 0.37123 0.0
C652 C 0.67355 0.41393 0.31279 0.0
C653 C 0.64903 0.4091 0.48017 0.0
C654 C 0.63542 0.39595 0.43905 0.0
C655 C 0.64367 0.39812 0.3851 0.0
C656 C 0.6119 0.38076 0.45035 0.0
C657 C 0.64043 0.40867 0.53847 0.0
C658 C 0.61207 0.35999 0.48665 0.0
C659 C 0.58967 0.34585 0.49624 0.0
C660 C 0.56684 0.35197 0.46892 0.0
C661 C 0.56693 0.37257 0.43211 0.0
C662 C 0.58913 0.38678 0.42308 0.0
H663 H 0.64859 0.42494 0.56185 0.0
H664 H 0.61923 0.40948 0.54148 0.0
H665 H 0.64707 0.39062 0.55764 0.0
H666 H 0.62956 0.35457 0.50724 0.0
H667 H 0.59026 0.33007 0.52466 0.0
H668 H 0.70227 0.09003 0.73737 0.0
H669 H 0.67713 0.12794 0.71161 0.0
H670 H 0.62805 0.08032 0.61344 0.0
H671 H 0.65352 0.04299 0.63661 0.0
H672 H 0.63788 0.1216 0.5613 0.0
H673 H 0.60901 0.1496 0.7689 0.0
H674 H 0.64311 0.14915 0.76004 0.0
H675 H 0.62519 0.11978 0.75455 0.0
C676 C 0.68627 0.08775 0.70988 0.0
C677 C 0.68006 0.06345 0.68894 0.0
C678 C 0.67169 0.10938 0.6957 0.0
C679 C 0.65027 0.107 0.66142 0.0
C680 C 0.64439 0.08279 0.63995 0.0
H681 H 0.5286 0.22177 0.62072 0.0
H682 H 0.55389 0.18403 0.64733 0.0
C683 C 0.65913 0.06138 0.65322 0.0
C684 C 0.63406 0.1295 0.64653 0.0
H685 H 0.59832 0.17876 0.6984 0.0
C686 C 0.62919 0.13401 0.59143 0.0
C687 C 0.62217 0.14547 0.68566 0.0
C688 C 0.62488 0.14064 0.74558 0.0
C689 C 0.61306 0.15398 0.57434 0.0
C690 C 0.60223 0.17076 0.61327 0.0
C691 C 0.6068 0.16612 0.66845 0.0
C692 C 0.58663 0.19351 0.59733 0.0
C693 C 0.6073 0.15635 0.51466 0.0
C694 C 0.59663 0.21156 0.561 0.0
C695 C 0.58209 0.23271 0.54503 0.0
C696 C 0.55739 0.23678 0.56609 0.0
C697 C 0.54752 0.21909 0.60357 0.0
C698 C 0.56199 0.19758 0.6189 0.0
H699 H 0.60939 0.13761 0.49363 0.0
H700 H 0.5876 0.16363 0.50754 0.0
H701 H 0.62112 0.16985 0.49598 0.0
H702 H 0.61586 0.20944 0.54517 0.0
H703 H 0.59051 0.24619 0.51688 0.0
H704 H 0.75101 0.54799 0.28375 0.0
H705 H 0.70948 0.56307 0.31792 0.0
H706 H 0.74818 0.60926 0.43731 0.0
H707 H 0.7896 0.59449 0.40298 0.0
H708 H 0.68233 0.56938 0.42352 0.0
H709 H 0.71368 0.66038 0.32838 0.0
H710 H 0.72943 0.63015 0.31559 0.0
H711 H 0.73605 0.64769 0.37669 0.0
C712 C 0.7506 0.56035 0.31901 0.0
C713 C 0.77349 0.57013 0.34076 0.0
C714 C 0.72686 0.56915 0.33815 0.0
C715 C 0.72582 0.58774 0.37928 0.0
C716 C 0.7486 0.59521 0.40498 0.0
H717 H 0.61095 0.66591 0.56011 0.0
H718 H 0.64241 0.63579 0.52349 0.0
C719 C 0.77224 0.58661 0.38565 0.0
C720 C 0.70178 0.60211 0.39019 0.0
H721 H 0.67661 0.6625 0.38396 0.0
C722 C 0.68094 0.58968 0.41456 0.0
C723 C 0.6997 0.62843 0.37694 0.0
C724 C 0.72078 0.64245 0.34746 0.0
C725 C 0.65858 0.6033 0.42867 0.0
C726 C 0.65729 0.63004 0.41886 0.0
C727 C 0.67763 0.64207 0.39193 0.0
C728 C 0.63613 0.64639 0.43985 0.0
C729 C 0.63657 0.58897 0.45405 0.0
C730 C 0.62241 0.66283 0.40521 0.0
C731 C 0.60454 0.68029 0.42629 0.0
C732 C 0.60014 0.68151 0.48224 0.0
C733 C 0.6138 0.66506 0.51669 0.0
C734 C 0.63156 0.64764 0.49575 0.0
H735 H 0.6368 0.56839 0.44232 0.0
H736 H 0.63828 0.59002 0.49876 0.0
H737 H 0.61784 0.5974 0.44218 0.0
H738 H 0.62593 0.66251 0.36201 0.0
H739 H 0.59467 0.69322 0.39911 0.0
H740 H 0.42809 0.29172 0.64834 0.0
H741 H 0.41287 0.25111 0.68546 0.0
H742 H 0.4624 0.20988 0.57593 0.0
H743 H 0.47797 0.25069 0.53926 0.0
H744 H 0.38704 0.2192 0.61411 0.0
H745 H 0.46624 0.16641 0.71533 0.0
H746 H 0.46711 0.20067 0.70461 0.0
H747 H 0.47315 0.17916 0.64931 0.0
C748 C 0.43662 0.27401 0.63403 0.0
C749 C 0.45436 0.27431 0.59139 0.0
C750 C 0.42777 0.2508 0.65493 0.0
C751 C 0.43634 0.2274 0.63331 0.0
C752 C 0.45574 0.22764 0.59382 0.0
H753 H 0.3328 0.09392 0.6496 0.0
H754 H 0.36283 0.1261 0.61406 0.0
C755 C 0.4648 0.251 0.57316 0.0
C756 C 0.42204 0.2035 0.64615 0.0
H757 H 0.42688 0.14438 0.70481 0.0
C758 C 0.39579 0.2028 0.63379 0.0
C759 C 0.4335 0.18209 0.67151 0.0
C760 C 0.46151 0.18202 0.68642 0.0
C761 C 0.38051 0.18163 0.6473 0.0
C762 C 0.39186 0.16024 0.67306 0.0
C763 C 0.41825 0.16069 0.68457 0.0
C764 C 0.37606 0.13848 0.69298 0.0
C765 C 0.35212 0.18283 0.63582 0.0
C766 C 0.37409 0.13418 0.74883 0.0
C767 C 0.35721 0.11574 0.76891 0.0
C768 C 0.34219 0.10095 0.73358 0.0
C769 C 0.34453 0.10474 0.67758 0.0
C770 C 0.3615 0.12325 0.65737 0.0
H771 H 0.34568 0.20259 0.62593 0.0
H772 H 0.34764 0.17032 0.60073 0.0
H773 H 0.34094 0.17589 0.6711 0.0
H774 H 0.38499 0.14573 0.7771 0.0
H775 H 0.35566 0.11324 0.81232 0.0
H776 H 0.73483 0.93642 0.91335 0.0
H777 H 0.77556 0.92206 0.95168 0.0
H778 H 0.81638 0.96405 0.82877 0.0
H779 H 0.77556 0.97857 0.79047 0.0
H780 H 0.8056 0.89179 0.88063 0.0
H781 H 0.86205 0.97265 0.96621 0.0
H782 H 0.82757 0.97386 0.95955 0.0
H783 H 0.84751 0.97773 0.90103 0.0
C784 C 0.75252 0.94359 0.89614 0.0
C785 C 0.75207 0.95873 0.84923 0.0
C786 C 0.77578 0.93525 0.91783 0.0
C787 C 0.79903 0.94184 0.89294 0.0
C788 C 0.79873 0.95898 0.84911 0.0
H789 H 0.93138 0.83762 0.90668 0.0
H790 H 0.899 0.86791 0.87319 0.0
C791 C 0.77536 0.96746 0.82748 0.0
C792 C 0.82262 0.92727 0.90684 0.0
H793 H 0.88282 0.93228 0.96025 0.0
C794 C 0.82251 0.90067 0.89793 0.0
C795 C 0.84468 0.93891 0.92908 0.0
C796 C 0.8456 0.96734 0.93998 0.0
C797 C 0.84363 0.8853 0.91146 0.0
C798 C 0.86569 0.89684 0.93397 0.0
C799 C 0.86598 0.92352 0.94247 0.0
C800 C 0.88766 0.88105 0.95284 0.0
C801 C 0.84184 0.85667 0.90314 0.0
C802 C 0.89249 0.87886 0.00845 0.0
C803 C 0.91098 0.86169 0.02742 0.0
C804 C 0.9253 0.84663 0.99117 0.0
C805 C 0.92101 0.84933 0.93539 0.0
C806 C 0.90239 0.8665 0.91632 0.0
H807 H 0.82191 0.85038 0.89468 0.0
H808 H 0.85399 0.85105 0.86822 0.0
H809 H 0.84894 0.84628 0.93937 0.0
H810 H 0.88127 0.88977 0.03735 0.0
H811 H 0.91386 0.8599 0.07069 0.0
H812 H 0.19394 0.43077 0.15033 0.0
H813 H 0.16311 0.39957 0.11373 0.0
H814 H 0.13653 0.38362 0.27554 0.0
H815 H 0.16685 0.41496 0.31171 0.0
H816 H 0.16251 0.3485 0.13699 0.0
H817 H 0.06913 0.39086 0.19393 0.0
H818 H 0.09848 0.40919 0.19299 0.0
H819 H 0.09086 0.38924 0.25011 0.0
C820 C 0.18108 0.42097 0.17771 0.0
C821 C 0.18237 0.42549 0.23362 0.0
C822 C 0.16354 0.40315 0.15692 0.0
C823 C 0.14706 0.38966 0.1918 0.0
C824 C 0.14845 0.39429 0.24766 0.0
H825 H 0.091 0.23742 0.1534 0.0
H826 H 0.10642 0.27834 0.18927 0.0
C827 C 0.16597 0.41197 0.26834 0.0
C828 C 0.13037 0.36878 0.17099 0.0
H829 H 0.06912 0.34546 0.17434 0.0
C830 C 0.14205 0.34803 0.14453 0.0
C831 C 0.10359 0.36825 0.18032 0.0
C832 C 0.08972 0.39071 0.20538 0.0
C833 C 0.12795 0.32631 0.12935 0.0
C834 C 0.10151 0.32503 0.14186 0.0
C835 C 0.08949 0.34625 0.16593 0.0
C836 C 0.08654 0.30149 0.13004 0.0
C837 C 0.14157 0.30474 0.10037 0.0
C838 C 0.06868 0.30112 0.08755 0.0
C839 C 0.05954 0.27769 0.06749 0.0
C840 C 0.06819 0.25445 0.08974 0.0
C841 C 0.08392 0.25508 0.1358 0.0
C842 C 0.09289 0.27843 0.15602 0.0
H843 H 0.15997 0.31117 0.08233 0.0
H844 H 0.14586 0.28921 0.12967 0.0
H845 H 0.12938 0.29662 0.06776 0.0
H846 H 0.06353 0.31872 0.06699 0.0
H847 H 0.04795 0.27774 0.03113 0.0
H848 H 0.26289 0.59128 0.40678 0.0
H849 H 0.30184 0.61564 0.42542 0.0
H850 H 0.34591 0.56171 0.33132 0.0
H851 H 0.30687 0.53691 0.31262 0.0
H852 H 0.35189 0.59556 0.4727 0.0
H853 H 0.35827 0.6368 0.26531 0.0
H854 H 0.32861 0.62453 0.29261 0.0
H855 H 0.35328 0.60276 0.2715 0.0
C856 C 0.28086 0.58445 0.39018 0.0
C857 C 0.28174 0.56222 0.35787 0.0
C858 C 0.3031 0.59841 0.401 0.0
C859 C 0.32665 0.59061 0.37931 0.0
C860 C 0.32782 0.56813 0.34801 0.0
H861 H 0.47658 0.6611 0.37548 0.0
H862 H 0.43799 0.63635 0.3576 0.0
C863 C 0.30554 0.55396 0.33754 0.0
C864 C 0.34979 0.6064 0.38888 0.0
H865 H 0.39036 0.64859 0.32738 0.0
C866 C 0.36038 0.60715 0.44102 0.0
C867 C 0.36073 0.62145 0.3474 0.0
C868 C 0.34967 0.6216 0.29099 0.0
C869 C 0.38194 0.62232 0.45265 0.0
C870 C 0.39268 0.63779 0.41136 0.0
C871 C 0.38205 0.63692 0.35913 0.0
C872 C 0.41554 0.65422 0.4209 0.0
C873 C 0.39339 0.62105 0.50867 0.0
C874 C 0.41562 0.67317 0.46143 0.0
C875 C 0.43785 0.68735 0.47215 0.0
C876 C 0.46032 0.68309 0.44198 0.0
C877 C 0.45969 0.66498 0.39965 0.0
C878 C 0.4376 0.65071 0.38934 0.0
H879 H 0.38751 0.60335 0.53033 0.0
H880 H 0.41464 0.62165 0.50703 0.0
H881 H 0.38662 0.63772 0.53269 0.0
H882 H 0.3986 0.67677 0.48531 0.0
H883 H 0.43757 0.70123 0.50481 0.0
H884 H 0.33168 0.93915 0.75946 0.0
H885 H 0.35835 0.90173 0.73763 0.0
H886 H 0.38365 0.9387 0.59121 0.0
H887 H 0.35728 0.97597 0.61238 0.0
H888 H 0.36034 0.86896 0.6439 0.0
H889 H 0.45087 0.92276 0.67345 0.0
H890 H 0.42033 0.93442 0.69753 0.0
H891 H 0.42888 0.93781 0.62744 0.0
C892 C 0.3426 0.93916 0.72218 0.0
C893 C 0.34241 0.96071 0.68792 0.0
C894 C 0.35793 0.91781 0.70992 0.0
C895 C 0.37344 0.91771 0.66345 0.0
C896 C 0.37229 0.93861 0.62792 0.0
H897 H 0.4505 0.79876 0.48734 0.0
H898 H 0.42356 0.83353 0.52113 0.0
C899 C 0.35701 0.95986 0.63998 0.0
C900 C 0.39116 0.89605 0.65202 0.0
H901 H 0.45435 0.88182 0.63072 0.0
C902 C 0.3809 0.8717 0.64149 0.0
C903 C 0.41805 0.89956 0.64964 0.0
C904 C 0.43027 0.92498 0.66311 0.0
C905 C 0.39672 0.85105 0.62642 0.0
C906 C 0.42346 0.85491 0.62135 0.0
C907 C 0.43383 0.87896 0.63409 0.0
C908 C 0.44074 0.83445 0.60073 0.0
C909 C 0.38468 0.82525 0.61574 0.0
C910 C 0.46003 0.824 0.63368 0.0
C911 C 0.47559 0.80402 0.61442 0.0
C912 C 0.47228 0.79436 0.56165 0.0
C913 C 0.45356 0.8056 0.52824 0.0
C914 C 0.43797 0.8254 0.54759 0.0
H915 H 0.36541 0.82371 0.63454 0.0
H916 H 0.38249 0.82253 0.57143 0.0
H917 H 0.39697 0.80953 0.63141 0.0
H918 H 0.46265 0.8309 0.67468 0.0
H919 H 0.48989 0.79587 0.64114 0.0
H920 H 0.08654 0.83258 0.00703 0.0
H921 H 0.12372 0.85901 0.98326 0.0
H922 H 0.08567 0.88337 0.83729 0.0
H923 H 0.04862 0.85717 0.86031 0.0
H924 H 0.15567 0.86047 0.88762 0.0
H925 H 0.10191 0.95111 0.91928 0.0
H926 H 0.09066 0.92057 0.94404 0.0
H927 H 0.08652 0.92897 0.87406 0.0
C928 C 0.08625 0.84319 0.96939 0.0
C929 C 0.06444 0.84283 0.93584 0.0
C930 C 0.10747 0.8584 0.95603 0.0
C931 C 0.10717 0.87361 0.90917 0.0
C932 C 0.08606 0.87222 0.87425 0.0
H933 H 0.22531 0.95115 0.73164 0.0
H934 H 0.19039 0.92434 0.76476 0.0
C935 C 0.06495 0.85703 0.88737 0.0
C936 C 0.12863 0.89134 0.89684 0.0
H937 H 0.14258 0.95459 0.87582 0.0
C938 C 0.15288 0.88105 0.88544 0.0
C939 C 0.12503 0.91824 0.89477 0.0
C940 C 0.0997 0.93047 0.90917 0.0
C941 C 0.17338 0.89688 0.86996 0.0
C942 C 0.16944 0.92365 0.86536 0.0
C943 C 0.14547 0.93404 0.87881 0.0
C944 C 0.18982 0.94098 0.84495 0.0
C945 C 0.1991 0.88484 0.85847 0.0
C946 C 0.2005 0.95991 0.87849 0.0
C947 C 0.22056 0.97538 0.85964 0.0
C948 C 0.23008 0.97232 0.8067 0.0
C949 C 0.21858 0.95399 0.77268 0.0
C950 C 0.19869 0.9385 0.79163 0.0
H951 H 0.20072 0.86541 0.87658 0.0
H952 H 0.20164 0.88295 0.81405 0.0
H953 H 0.21487 0.89698 0.87432 0.0
H954 H 0.19375 0.96229 0.91966 0.0
H955 H 0.22891 0.98937 0.88684 0.0
H956 H 0.07365 0.72648 0.98485 0.0
H957 H 0.09966 0.69087 0.01791 0.0
H958 H 0.06266 0.69595 0.17353 0.0
H959 H 0.03637 0.73176 0.14074 0.0
H960 H 0.13384 0.69304 0.10957 0.0
H961 H 0.05831 0.61851 0.1312 0.0
H962 H 0.0539 0.6468 0.09015 0.0
H963 H 0.05204 0.64905 0.16251 0.0
C964 C 0.07077 0.71991 0.02597 0.0
C965 C 0.05289 0.73202 0.06014 0.0
C966 C 0.08576 0.69959 0.04484 0.0
C967 C 0.08307 0.69072 0.09808 0.0
C968 C 0.06488 0.70235 0.13211 0.0
H969 H 0.19211 0.58701 0.2598 0.0
H970 H 0.16607 0.62462 0.23654 0.0
C971 C 0.0499 0.72283 0.11331 0.0
C972 C 0.09999 0.66985 0.11801 0.0
H973 H 0.10022 0.60711 0.15744 0.0
C974 C 0.12651 0.67429 0.12041 0.0
C975 C 0.09036 0.6454 0.13178 0.0
C976 C 0.06213 0.63942 0.12855 0.0
C977 C 0.14369 0.65482 0.13568 0.0
C978 C 0.13408 0.63032 0.14917 0.0
C979 C 0.10753 0.62597 0.14733 0.0
C980 C 0.15127 0.60847 0.16216 0.0
C981 C 0.17206 0.66032 0.13559 0.0
C982 C 0.15177 0.58704 0.12788 0.0
C983 C 0.16664 0.56565 0.14084 0.0
C984 C 0.18126 0.56505 0.18875 0.0
C985 C 0.18129 0.58687 0.2224 0.0
C986 C 0.16638 0.60837 0.20922 0.0
H987 H 0.17661 0.67864 0.11486 0.0
H988 H 0.17897 0.66165 0.17797 0.0
H989 H 0.18273 0.64455 0.11539 0.0
H990 H 0.14031 0.58673 0.09132 0.0
H991 H 0.16605 0.54926 0.11389 0.0
H992 H 0.0546 0.21813 0.24698 0.0
H993 H 0.06387 0.22479 0.34344 0.0
H994 H 0.99209 0.18883 0.38497 0.0
H995 H 0.98361 0.18087 0.28923 0.0
H996 H 0.04336 0.24981 0.42207 0.0
H997 H 0.03807 0.14754 0.47701 0.0
H998 H 0.03753 0.15809 0.4076 0.0
H999 H 1.00848 0.15758 0.44717 0.0
C1000 C 0.04081 0.2118 0.27688 0.0
C1001 C 0.01849 0.19882 0.26091 0.0
C1002 C 0.04613 0.21551 0.33194 0.0
C1003 C 0.02907 0.20657 0.37177 0.0
C1004 C 1.00609 0.19493 0.35537 0.0
H1005 H 0.02115 0.26046 0.70191 0.0
H1006 H 0.01763 0.25346 0.60447 0.0
C1007 C 1.0011 0.19067 0.30061 0.0
C1008 C 0.035 0.20957 0.4304 0.0
H1009 H 0.03466 0.17747 0.5508 0.0
C1010 C 0.04175 0.23391 0.4501 0.0
C1011 C 0.03369 0.18873 0.46709 0.0
C1012 C 0.02935 0.1615 0.44846 0.0
C1013 C 0.04618 0.23818 0.50548 0.0
C1014 C 0.04262 0.21781 0.54268 0.0
C1015 C 0.03689 0.19326 0.5227 0.0
C1016 C 0.04427 0.22157 0.60239 0.0
C1017 C 0.05505 0.26443 0.52307 0.0
C1018 C 0.0592 0.20505 0.63457 0.0
C1019 C 0.06045 0.20847 0.69076 0.0
C1020 C 0.04706 0.22868 0.7156 0.0
C1021 C 0.0319 0.24493 0.68359 0.0
C1022 C 0.03013 0.24112 0.62777 0.0
H1023 H 0.06575 0.2742 0.49015 0.0
H1024 H 0.03811 0.27647 0.53277 0.0
H1025 H 0.06757 0.26341 0.5593 0.0
H1026 H 0.07014 0.18969 0.61616 0.0
H1027 H 0.07242 0.19578 0.71455 0.0
H1028 H 0.84128 0.55519 0.96832 0.0
H1029 H 0.8472 0.54879 0.87105 0.0
H1030 H 0.76611 0.53586 0.85234 0.0
H1031 H 0.75994 0.5424 0.94932 0.0
H1032 H 0.8364 0.50728 0.80564 0.0
H1033 H 0.77922 0.59179 0.74194 0.0
H1034 H 0.78927 0.58693 0.81105 0.0
H1035 H 0.76203 0.56995 0.7846 0.0
C1036 C 0.82472 0.55068 0.94374 0.0
C1037 C 0.8001 0.54924 0.96677 0.0
C1038 C 0.82813 0.5472 0.88802 0.0
C1039 C 0.80703 0.54232 0.85429 0.0
C1040 C 0.78257 0.54026 0.87734 0.0
H1041 H 0.79346 0.51189 0.50784 0.0
H1042 H 0.78493 0.51736 0.60441 0.0
C1043 C 0.77912 0.54389 0.93287 0.0
C1044 C 0.81063 0.53915 0.79508 0.0
H1045 H 0.7928 0.56346 0.67228 0.0
C1046 C 0.82694 0.51962 0.7765 0.0
C1047 C 0.7982 0.55524 0.7571 0.0
C1048 C 0.78138 0.57731 0.77457 0.0
C1049 C 0.83099 0.5156 0.72097 0.0
C1050 C 0.81862 0.53172 0.68311 0.0
C1051 C 0.80214 0.55109 0.70153 0.0
C1052 C 0.82343 0.52936 0.62426 0.0
C1053 C 0.84831 0.494 0.70311 0.0
C1054 C 0.84774 0.53488 0.60339 0.0
C1055 C 0.85266 0.53213 0.54818 0.0
C1056 C 0.83333 0.52387 0.51241 0.0
C1057 C 0.80877 0.51878 0.5335 0.0
C1058 C 0.80386 0.52166 0.58892 0.0
H1059 H 0.85152 0.47985 0.736 0.0
H1060 H 0.84014 0.4839 0.66749 0.0
H1061 H 0.86717 0.50198 0.69117 0.0
H1062 H 0.86298 0.54125 0.62994 0.0
H1063 H 0.87174 0.53643 0.5336 0.0
H1064 H 0.47141 0.29657 0.76314 0.0
H1065 H 0.46361 0.28709 0.85921 0.0
H1066 H 0.52687 0.336 0.90353 0.0
H1067 H 0.53388 0.34634 0.80839 0.0
H1068 H 0.48984 0.26639 0.93977 0.0
H1069 H 0.47106 0.3676 0.99135 0.0
H1070 H 0.47398 0.35675 0.9223 0.0
H1071 H 0.50215 0.36432 0.96144 0.0
C1072 C 0.48377 0.30501 0.79354 0.0
C1073 C 0.50311 0.32233 0.77866 0.0
C1074 C 0.47925 0.29971 0.84831 0.0
C1075 C 0.49414 0.31151 0.8887 0.0
C1076 C 0.5145 0.32746 0.87333 0.0
H1077 H 0.51849 0.26655 0.21814 0.0
H1078 H 0.51733 0.27128 0.11995 0.0
C1079 C 0.51867 0.33315 0.81896 0.0
C1080 C 0.48849 0.30752 0.94698 0.0
H1081 H 0.48134 0.33991 0.06611 0.0
C1082 C 0.48764 0.28244 0.96735 0.0
C1083 C 0.48478 0.32841 0.98286 0.0
C1084 C 0.48273 0.35574 0.96321 0.0
C1085 C 0.48456 0.27774 0.02294 0.0
C1086 C 0.48328 0.29874 0.05937 0.0
C1087 C 0.4828 0.32376 0.03856 0.0
C1088 C 0.48348 0.29538 0.11914 0.0
C1089 C 0.48251 0.2503 0.04172 0.0
C1090 C 0.46558 0.30829 0.15193 0.0
C1091 C 0.46678 0.3063 0.20836 0.0
C1092 C 0.48571 0.2911 0.2329 0.0
C1093 C 0.50351 0.27815 0.20016 0.0
C1094 C 0.50268 0.28061 0.14395 0.0
H1095 H 0.47408 0.23794 0.00971 0.0
H1096 H 0.50197 0.24281 0.05059 0.0
H1097 H 0.47059 0.24864 0.07876 0.0
H1098 H 0.45068 0.31995 0.13386 0.0
H1099 H 0.45268 0.31629 0.2327 0.0
H1100 H 0.75262 0.94553 0.44532 0.0
H1101 H 0.74823 0.95372 0.34871 0.0
H1102 H 0.69222 1.01248 0.38186 0.0
H1103 H 0.69715 1.00524 0.4788 0.0
H1104 H 0.70658 0.94998 0.28249 0.0
H1105 H 0.74263 0.04997 0.28512 0.0
H1106 H 0.7461 0.02866 0.34215 0.0
H1107 H 0.71611 0.04466 0.32993 0.0
C1108 C 0.73939 0.9603 0.43233 0.0
C1109 C 0.72519 0.97459 0.47038 0.0
C1110 C 0.73687 0.96488 0.37691 0.0
C1111 C 0.7202 0.98396 0.35803 0.0
C1112 C 0.70558 0.99797 0.39556 0.0
H1113 H 0.66904 0.03614 0.04677 0.0
H1114 H 0.67796 0.02864 0.14234 0.0
C1115 C 0.70813 0.99347 0.45118 0.0
C1116 C 0.71799 0.98887 0.29899 0.0
H1117 H 0.72422 0.03535 0.20257 0.0
C1118 C 0.71062 0.96859 0.26494 0.0
C1119 C 0.72341 1.01314 0.27613 0.0
C1120 C 0.73275 0.0353 0.31009 0.0
C1121 C 0.7078 0.97211 0.2089 0.0
C1122 C 0.71282 0.99647 0.18622 0.0
C1123 C 0.72045 0.01668 0.22011 0.0
C1124 C 0.70876 1.00175 0.12788 0.0
C1125 C 0.69872 0.94996 0.17459 0.0
C1126 C 0.72351 0.98947 0.08791 0.0
C1127 C 0.71848 0.99373 0.03291 0.0
C1128 C 0.6986 1.01039 0.01709 0.0
C1129 C 0.68438 0.02308 0.05746 0.0
C1130 C 0.68949 0.0189 0.11217 0.0
H1131 H 0.69097 0.93405 0.19954 0.0
H1132 H 0.68366 0.95633 0.14583 0.0
H1133 H 0.71505 0.94239 0.1506 0.0
H1134 H 0.73868 0.97636 0.09927 0.0
H1135 H 0.7296 0.98335 0.00308 0.0
H1136 H 0.53586 0.76941 0.20298 0.0
H1137 H 0.52868 0.76372 0.10601 0.0
H1138 H 0.54569 0.68312 0.121 0.0
H1139 H 0.55272 0.68854 0.21805 0.0
H1140 H 0.56214 0.74745 0.02909 0.0
H1141 H 0.47889 0.68173 0.03762 0.0
H1142 H 0.49002 0.69932 0.096 0.0
H1143 H 0.50595 0.67029 0.07535 0.0
C1144 C 0.5379 0.75041 0.18576 0.0
C1145 C 0.5445 0.72938 0.21856 0.0
C1146 C 0.53377 0.74721 0.13031 0.0
C1147 C 0.5362 0.72293 0.1064 0.0
C1148 C 0.54298 0.7019 0.13885 0.0
H1149 H 0.53592 0.66027 0.78559 0.0
H1150 H 0.54029 0.66979 0.88167 0.0
C1151 C 0.54697 0.70504 0.19445 0.0
C1152 C 0.53269 0.71986 0.04715 0.0
H1153 H 0.49926 0.68633 0.95175 0.0
C1154 C 0.54823 0.73427 0.01213 0.0
C1155 C 0.51444 0.70274 0.02513 0.0
C1156 C 0.49619 0.68782 0.06044 0.0
C1157 C 0.54657 0.7314 0.95571 0.0
C1158 C 0.52878 0.71383 0.93387 0.0
C1159 C 0.51295 0.69973 0.96877 0.0
C1160 C 0.52696 0.7089 0.87498 0.0
C1161 C 0.56437 0.74657 0.91989 0.0
C1162 C 0.51803 0.72782 0.8393 0.0
C1163 C 0.51537 0.72244 0.78402 0.0
C1164 C 0.52162 0.69799 0.76355 0.0
C1165 C 0.53081 0.67926 0.79971 0.0
C1166 C 0.53338 0.68465 0.85473 0.0
H1167 H 0.58001 0.75582 0.9433 0.0
H1168 H 0.57298 0.73403 0.88841 0.0
H1169 H 0.55332 0.76182 0.89901 0.0
H1170 H 0.51257 0.74655 0.8544 0.0
H1171 H 0.50767 0.73722 0.75798 0.0
H1172 H 0.33108 0.07276 0.46512 0.0
H1173 H 0.33669 0.06996 0.36668 0.0
H1174 H 0.2712 0.01972 0.35652 0.0
H1175 H 0.26473 0.02379 0.45403 0.0
H1176 H 0.34739 0.03381 0.30151 0.0
H1177 H 0.25161 0.06836 0.24214 0.0
H1178 H 0.26276 0.06996 0.31109 0.0
H1179 H 0.2486 0.04091 0.28505 0.0
C1180 C 0.31792 0.06117 0.44166 0.0
C1181 C 0.29739 0.04859 0.46693 0.0
C1182 C 0.32106 0.05963 0.38544 0.0
C1183 C 0.30393 0.0452 0.35368 0.0
C1184 C 0.28405 0.03184 0.3795 0.0
H1185 H 0.34148 0.98251 0.0405 0.0
H1186 H 0.3337 0.99126 0.13621 0.0
C1187 C 0.28053 0.03391 0.43535 0.0
C1188 C 0.30736 0.04327 0.29394 0.0
H1189 H 0.27494 0.04496 0.17382 0.0
C1190 C 0.33158 0.03658 0.27363 0.0
C1191 C 0.28698 0.0475 0.25704 0.0
C1192 C 0.26115 0.05738 0.27498 0.0
C1193 C 0.33577 0.03308 0.21799 0.0
C1194 C 0.31485 0.03511 0.18163 0.0
C1195 C 0.29087 0.04281 0.20163 0.0
C1196 C 0.31743 0.02897 0.12301 0.0
C1197 C 0.36273 0.02768 0.19897 0.0
C1198 C 0.30916 0.0464 0.0832 0.0
C1199 C 0.31275 0.04095 0.02815 0.0
C1200 C 0.32493 0.01813 0.01222 0.0
C1201 C 0.33229 1.00035 0.05188 0.0
C1202 C 0.32814 1.0055 0.10661 0.0
H1203 H 0.37709 0.03586 0.22731 0.0
H1204 H 0.36587 1.00664 0.19759 0.0
H1205 H 0.36626 0.03571 0.15806 0.0
H1206 H 0.30058 0.06452 0.09473 0.0
H1207 H 0.30706 0.05503 0.99825 0.0
H1208 H 0.03744 0.85758 0.29342 0.0
H1209 H 0.03004 0.84941 0.38926 0.0
H1210 H 0.97405 0.79184 0.34834 0.0
H1211 H 0.98149 0.79974 0.25193 0.0
H1212 H 0.98534 0.85611 0.4439 0.0
H1213 H 0.0174 0.75488 0.46067 0.0
H1214 H 0.02477 0.77456 0.40269 0.0
H1215 H 0.99358 0.76034 0.40953 0.0
C1216 C 0.02371 0.84297 0.30467 0.0
C1217 C 1.01023 0.82919 0.26486 0.0
C1218 C 0.01952 0.83833 0.35955 0.0
C1219 C 1.0017 0.81984 0.37608 0.0
C1220 C 0.98834 0.80579 0.33656 0.0
H1221 H 0.94282 0.77748 0.69206 0.0
H1222 H 0.95064 0.78294 0.59544 0.0
C1223 C 0.99264 0.81032 0.28138 0.0
C1224 C 0.99627 0.8165 0.43467 0.0
H1225 H 0.9972 0.77297 0.53787 0.0
C1226 C 0.98803 0.83794 0.46447 0.0
C1227 C 0.99974 0.79278 0.46145 0.0
C1228 C 1.00958 0.76936 0.43215 0.0
C1229 C 0.98297 0.83629 0.52016 0.0
C1230 C 0.98651 0.81262 0.54692 0.0
C1231 C 0.99454 0.79111 0.51717 0.0
C1232 C 0.98177 0.80976 0.60579 0.0
C1233 C 0.97346 0.85977 0.54977 0.0
C1234 C 0.99683 0.82294 0.64377 0.0
C1235 C 0.99251 0.81983 0.69931 0.0
C1236 C 0.97296 0.80346 0.71797 0.0
C1237 C 0.95802 0.79027 0.67947 0.0
C1238 C 0.96242 0.79334 0.62409 0.0
H1239 H 0.96627 0.87466 0.52147 0.0
H1240 H 0.95789 0.85469 0.57842 0.0
H1241 H 0.98945 0.86816 0.57349 0.0
H1242 H 1.01222 0.83533 0.63044 0.0
H1243 H 1.00498 0.82978 0.72725 0.0
H1244 H 0.18535 0.54764 0.53928 0.0
H1245 H 0.19497 0.54173 0.63524 0.0
H1246 H 0.22508 0.4663 0.60062 0.0
H1247 H 0.21696 0.47303 0.5039 0.0
H1248 H 0.17538 0.51051 0.70154 0.0
H1249 H 0.27937 0.4902 0.69918 0.0
H1250 H 0.26262 0.50167 0.6402 0.0
H1251 H 0.26211 0.46809 0.65738 0.0
C1252 C 0.19456 0.53005 0.5522 0.0
C1253 C 0.20069 0.5109 0.51446 0.0
C1254 C 0.19995 0.52661 0.60701 0.0
C1255 C 0.21104 0.50366 0.62547 0.0
C1256 C 0.21727 0.48449 0.58751 0.0
H1257 H 0.19383 0.45802 0.96476 0.0
H1258 H 0.18829 0.46384 0.86707 0.0
C1259 C 0.21252 0.48826 0.53229 0.0
C1260 C 0.21437 0.4994 0.68465 0.0
H1261 H 0.25722 0.48057 0.78115 0.0
C1262 C 0.19339 0.50418 0.71891 0.0
C1263 C 0.23789 0.49139 0.70769 0.0
C1264 C 0.26182 0.48781 0.67423 0.0
C1265 C 0.19523 0.50133 0.77525 0.0
C1266 C 0.21837 0.49216 0.79805 0.0
C1267 C 0.23936 0.48733 0.76381 0.0
C1268 C 0.22159 0.48822 0.85735 0.0
C1269 C 0.17257 0.50907 0.80957 0.0
C1270 C 0.24267 0.49906 0.88429 0.0
C1271 C 0.24625 0.49505 0.93964 0.0
C1272 C 0.22858 0.48054 0.96946 0.0
C1273 C 0.20743 0.46973 0.9428 0.0
C1274 C 0.2042 0.47319 0.88704 0.0
H1275 H 0.16023 0.52323 0.78836 0.0
H1276 H 0.16067 0.49192 0.81802 0.0
H1277 H 0.17875 0.51755 0.84867 0.0
H1278 H 0.2564 0.51068 0.86247 0.0
H1279 H 0.26275 0.50352 0.95931 0.0
loop_
_geom_bond_atom_site_label_1
_geom_bond_atom_site_label_2
_geom_bond_distance
_geom_bond_site_symmetry_2
_ccdc_geom_bond_type
Zn0 N4 2.020 . S
Zn0 O8 2.019 . S
Zn0 N10 2.119 1_455 S
Zn0 O18 1.975 1_455 S
C1 N2 1.334 . S
C1 N5 1.336 . S
N2 C1 1.334 . S
N2 C3 1.334 1_554 S
C3 N2 1.334 1_556 S
C3 N4 1.336 . S
N4 Zn0 2.020 . S
N4 C3 1.336 . S
N4 N5 1.354 1_556 S
N5 C1 1.336 . S
N5 N4 1.354 1_554 S
N5 Zn9 2.020 1_455 S
C6 O7 1.244 . S
C6 O30 1.257 . S
O7 C6 1.244 . S
O8 Zn0 2.019 . S
O8 C28 1.257 . S
Zn9 N5 2.020 1_655 S
Zn9 O16 1.975 . S
Zn9 N25 2.119 . S
Zn9 O30 2.019 . S
N10 Zn0 2.119 1_655 S
N10 C12 1.334 . S
N10 C13 1.328 1_655 S
C11 C12 1.391 . S
C11 N14 1.329 . S
C11 H32 0.930 . S
C12 N10 1.334 . S
C12 C11 1.391 . S
C12 H19 0.930 . S
C13 N10 1.328 1_455 S
C13 C15 1.392 1_455 S
C13 H20 0.930 . S
N14 C11 1.329 . S
N14 C15 1.331 . S
C15 C13 1.392 1_655 S
C15 N14 1.331 . S
O16 Zn9 1.975 . S
O16 C17 1.252 1_554 S
C17 O16 1.252 1_556 S
C17 O18 1.252 . S
O18 Zn0 1.975 1_655 S
O18 C17 1.252 . S
H19 C12 0.930 . S
H20 C13 0.930 . S
C21 C22 1.392 . S
C21 N25 1.328 . S
C21 H27 0.930 . S
C22 C21 1.392 . S
C22 N26 1.331 . S
C23 C24 1.391 . S
C23 N26 1.329 . S
C23 H33 0.930 . S
C24 C23 1.391 . S
C24 N25 1.334 . S
C24 H31 0.930 . S
N25 Zn9 2.119 . S
N25 C21 1.328 . S
N25 C24 1.334 . S
N26 C22 1.331 . S
N26 C23 1.329 . S
H27 C21 0.930 . S
C28 O8 1.257 . S
C28 O29 1.244 . S
O29 C28 1.244 . S
O30 C6 1.257 . S
O30 Zn9 2.019 . S
H31 C24 0.930 . S
H32 C11 0.930 . S
H33 C23 0.930 . S
Zn34 N38 2.020 . S
Zn34 O42 2.019 . S
Zn34 N44 2.119 . S
Zn34 O52 1.975 . S
C35 N36 1.334 . S
C35 N39 1.336 . S
N36 C35 1.334 . S
N36 C37 1.334 . S
C37 N36 1.334 . S
C37 N38 1.336 . S
N38 Zn34 2.020 . S
N38 C37 1.336 . S
N38 N39 1.354 . S
N39 C35 1.336 . S
N39 N38 1.354 . S
N39 Zn43 2.020 . S
C40 O41 1.244 . S
C40 O64 1.257 . S
O41 C40 1.244 . S
O42 Zn34 2.019 . S
O42 C62 1.257 . S
Zn43 N39 2.020 . S
Zn43 O50 1.975 . S
Zn43 N59 2.119 . S
Zn43 O64 2.019 . S
N44 Zn34 2.119 . S
N44 C46 1.334 . S
N44 C47 1.328 . S
C45 C46 1.391 . S
C45 N48 1.329 . S
C45 H66 0.930 . S
C46 N44 1.334 . S
C46 C45 1.391 . S
C46 H53 0.930 . S
C47 N44 1.328 . S
C47 C49 1.392 . S
C47 H54 0.930 . S
N48 C45 1.329 . S
N48 C49 1.331 . S
C49 C47 1.392 . S
C49 N48 1.331 . S
O50 Zn43 1.975 . S
O50 C51 1.252 . S
C51 O50 1.252 . S
C51 O52 1.252 . S
O52 Zn34 1.975 . S
O52 C51 1.252 . S
H53 C46 0.930 . S
H54 C47 0.930 . S
C55 C56 1.392 . S
C55 N59 1.328 . S
C55 H61 0.930 . S
C56 C55 1.392 . S
C56 N60 1.331 . S
C57 C58 1.391 . S
C57 N60 1.329 . S
C57 H67 0.930 . S
C58 C57 1.391 . S
C58 N59 1.334 . S
C58 H65 0.930 . S
N59 Zn43 2.119 . S
N59 C55 1.328 . S
N59 C58 1.334 . S
N60 C56 1.331 . S
N60 C57 1.329 . S
H61 C55 0.930 . S
C62 O42 1.257 . S
C62 O63 1.244 . S
O63 C62 1.244 . S
O64 C40 1.257 . S
O64 Zn43 2.019 . S
H65 C58 0.930 . S
H66 C45 0.930 . S
H67 C57 0.930 . S
Zn68 N72 2.020 . S
Zn68 O76 2.019 . S
Zn68 N78 2.119 . S
Zn68 O86 1.975 . S
C69 N70 1.334 . S
C69 N73 1.336 . S
N70 C69 1.334 . S
N70 C71 1.334 . S
C71 N70 1.334 . S
C71 N72 1.336 . S
N72 Zn68 2.020 . S
N72 C71 1.336 . S
N72 N73 1.354 . S
N73 C69 1.336 . S
N73 N72 1.354 . S
N73 Zn77 2.020 . S
C74 O75 1.244 . S
C74 O98 1.257 . S
O75 C74 1.244 . S
O76 Zn68 2.019 . S
O76 C96 1.257 . S
Zn77 N73 2.020 . S
Zn77 O84 1.975 . S
Zn77 N93 2.119 . S
Zn77 O98 2.019 . S
N78 Zn68 2.119 . S
N78 C80 1.334 . S
N78 C81 1.328 . S
C79 C80 1.391 . S
C79 N82 1.329 . S
C79 H100 0.930 . S
C80 N78 1.334 . S
C80 C79 1.391 . S
C80 H87 0.930 . S
C81 N78 1.328 . S
C81 C83 1.392 . S
C81 H88 0.930 . S
N82 C79 1.329 . S
N82 C83 1.331 . S
C83 C81 1.392 . S
C83 N82 1.331 . S
O84 Zn77 1.975 . S
O84 C85 1.252 . S
C85 O84 1.252 . S
C85 O86 1.252 . S
O86 Zn68 1.975 . S
O86 C85 1.252 . S
H87 C80 0.930 . S
H88 C81 0.930 . S
C89 C90 1.392 . S
C89 N93 1.328 . S
C89 H95 0.930 . S
C90 C89 1.392 . S
C90 N94 1.331 . S
C91 C92 1.391 . S
C91 N94 1.329 . S
C91 H101 0.930 . S
C92 C91 1.391 . S
C92 N93 1.334 . S
C92 H99 0.930 . S
N93 Zn77 2.119 . S
N93 C89 1.328 . S
N93 C92 1.334 . S
N94 C90 1.331 . S
N94 C91 1.329 . S
H95 C89 0.930 . S
C96 O76 1.257 . S
C96 O97 1.244 . S
O97 C96 1.244 . S
O98 C74 1.257 . S
O98 Zn77 2.019 . S
H99 C92 0.930 . S
H100 C79 0.930 . S
H101 C91 0.930 . S
Zn102 N106 2.020 1_545 S
Zn102 O110 2.019 . S
Zn102 N112 2.119 . S
Zn102 O120 1.975 . S
C103 N104 1.334 . S
C103 N107 1.336 . S
N104 C103 1.334 . S
N104 C105 1.334 . S
C105 N104 1.334 . S
C105 N106 1.336 . S
N106 Zn102 2.020 1_565 S
N106 C105 1.336 . S
N106 N107 1.354 . S
N107 C103 1.336 . S
N107 N106 1.354 . S
N107 Zn111 2.020 . S
C108 O109 1.244 . S
C108 O132 1.257 . S
O109 C108 1.244 . S
O110 Zn102 2.019 . S
O110 C130 1.257 . S
Zn111 N107 2.020 . S
Zn111 O118 1.975 1_565 S
Zn111 N127 2.119 1_565 S
Zn111 O132 2.019 . S
N112 Zn102 2.119 . S
N112 C114 1.334 . S
N112 C115 1.328 . S
C113 C114 1.391 . S
C113 N116 1.329 . S
C113 H134 0.930 . S
C114 N112 1.334 . S
C114 C113 1.391 . S
C114 H121 0.930 . S
C115 N112 1.328 . S
C115 C117 1.392 . S
C115 H122 0.930 . S
N116 C113 1.329 . S
N116 C117 1.331 . S
C117 C115 1.392 . S
C117 N116 1.331 . S
O118 Zn111 1.975 1_545 S
O118 C119 1.252 . S
C119 O118 1.252 . S
C119 O120 1.252 . S
O120 Zn102 1.975 . S
O120 C119 1.252 . S
H121 C114 0.930 . S
H122 C115 0.930 . S
C123 C124 1.392 1_565 S
C123 N127 1.328 1_565 S
C123 H129 0.930 . S
C124 C123 1.392 1_545 S
C124 N128 1.331 . S
C125 C126 1.391 . S
C125 N128 1.329 . S
C125 H135 0.930 . S
C126 C125 1.391 . S
C126 N127 1.334 . S
C126 H133 0.930 . S
N127 Zn111 2.119 1_545 S
N127 C123 1.328 1_545 S
N127 C126 1.334 . S
N128 C124 1.331 . S
N128 C125 1.329 . S
H129 C123 0.930 . S
C130 O110 1.257 . S
C130 O131 1.244 . S
O131 C130 1.244 . S
O132 C108 1.257 . S
O132 Zn111 2.019 . S
H133 C126 0.930 . S
H134 C113 0.930 . S
H135 C125 0.930 . S
Zn136 N140 2.020 . S
Zn136 O144 2.019 . S
Zn136 N146 2.119 . S
Zn136 O154 1.975 . S
C137 N138 1.334 . S
C137 N141 1.336 . S
N138 C137 1.334 . S
N138 C139 1.334 . S
C139 N138 1.334 . S
C139 N140 1.336 . S
N140 Zn136 2.020 . S
N140 C139 1.336 . S
N140 N141 1.354 . S
N141 C137 1.336 . S
N141 N140 1.354 . S
N141 Zn145 2.020 . S
C142 O143 1.244 . S
C142 O166 1.257 . S
O143 C142 1.244 . S
O144 Zn136 2.019 . S
O144 C164 1.257 . S
Zn145 N141 2.020 . S
Zn145 O152 1.975 . S
Zn145 N161 2.119 . S
Zn145 O166 2.019 . S
N146 Zn136 2.119 . S
N146 C148 1.334 . S
N146 C149 1.328 . S
C147 C148 1.391 . S
C147 N150 1.329 . S
C147 H168 0.930 . S
C148 N146 1.334 . S
C148 C147 1.391 . S
C148 H155 0.930 . S
C149 N146 1.328 . S
C149 C151 1.392 . S
C149 H156 0.930 . S
N150 C147 1.329 . S
N150 C151 1.331 . S
C151 C149 1.392 . S
C151 N150 1.331 . S
O152 Zn145 1.975 . S
O152 C153 1.252 . S
C153 O152 1.252 . S
C153 O154 1.252 . S
O154 Zn136 1.975 . S
O154 C153 1.252 . S
H155 C148 0.930 . S
H156 C149 0.930 . S
C157 C158 1.392 . S
C157 N161 1.328 . S
C157 H163 0.930 . S
C158 C157 1.392 . S
C158 N162 1.331 . S
C159 C160 1.391 . S
C159 N162 1.329 . S
C159 H169 0.930 . S
C160 C159 1.391 . S
C160 N161 1.334 . S
C160 H167 0.930 . S
N161 Zn145 2.119 . S
N161 C157 1.328 . S
N161 C160 1.334 . S
N162 C158 1.331 . S
N162 C159 1.329 . S
H163 C157 0.930 . S
C164 O144 1.257 . S
C164 O165 1.244 . S
O165 C164 1.244 . S
O166 C142 1.257 . S
O166 Zn145 2.019 . S
H167 C160 0.930 . S
H168 C147 0.930 . S
H169 C159 0.930 . S
Zn170 N174 2.020 . S
Zn170 O178 2.019 . S
Zn170 N180 2.119 1_545 S
Zn170 O188 1.975 1_545 S
C171 N172 1.334 . S
C171 N175 1.336 . S
N172 C171 1.334 . S
N172 C173 1.334 . S
C173 N172 1.334 . S
C173 N174 1.336 . S
N174 Zn170 2.020 . S
N174 C173 1.336 . S
N174 N175 1.354 . S
N175 C171 1.336 . S
N175 N174 1.354 . S
N175 Zn179 2.020 1_545 S
C176 O177 1.244 . S
C176 O200 1.257 . S
O177 C176 1.244 . S
O178 Zn170 2.019 . S
O178 C198 1.257 . S
Zn179 N175 2.020 1_565 S
Zn179 O186 1.975 . S
Zn179 N195 2.119 . S
Zn179 O200 2.019 . S
N180 Zn170 2.119 1_565 S
N180 C182 1.334 . S
N180 C183 1.328 1_565 S
C181 C182 1.391 . S
C181 N184 1.329 . S
C181 H202 0.930 . S
C182 N180 1.334 . S
C182 C181 1.391 . S
C182 H189 0.930 . S
C183 N180 1.328 1_545 S
C183 C185 1.392 1_545 S
C183 H190 0.930 . S
N184 C181 1.329 . S
N184 C185 1.331 . S
C185 C183 1.392 1_565 S
C185 N184 1.331 . S
O186 Zn179 1.975 . S
O186 C187 1.252 . S
C187 O186 1.252 . S
C187 O188 1.252 . S
O188 Zn170 1.975 1_565 S
O188 C187 1.252 . S
H189 C182 0.930 . S
H190 C183 0.930 . S
C191 C192 1.392 . S
C191 N195 1.328 . S
C191 H197 0.930 . S
C192 C191 1.392 . S
C192 N196 1.331 . S
C193 C194 1.391 . S
C193 N196 1.329 . S
C193 H203 0.930 . S
C194 C193 1.391 . S
C194 N195 1.334 . S
C194 H201 0.930 . S
N195 Zn179 2.119 . S
N195 C191 1.328 . S
N195 C194 1.334 . S
N196 C192 1.331 . S
N196 C193 1.329 . S
H197 C191 0.930 . S
C198 O178 1.257 . S
C198 O199 1.244 . S
O199 C198 1.244 . S
O200 C176 1.257 . S
O200 Zn179 2.019 . S
H201 C194 0.930 . S
H202 C181 0.930 . S
H203 C193 0.930 . S
Zn204 N208 2.020 . S
Zn204 O212 2.019 . S
Zn204 N214 2.119 1_655 S
Zn204 O222 1.975 1_655 S
C205 N206 1.334 . S
C205 N209 1.336 . S
N206 C205 1.334 . S
N206 C207 1.334 1_554 S
C207 N206 1.334 1_556 S
C207 N208 1.336 . S
N208 Zn204 2.020 . S
N208 C207 1.336 . S
N208 N209 1.354 1_556 S
N209 C205 1.336 . S
N209 N208 1.354 1_554 S
N209 Zn213 2.020 1_655 S
C210 O211 1.244 . S
C210 O234 1.257 . S
O211 C210 1.244 . S
O212 Zn204 2.019 . S
O212 C232 1.257 . S
Zn213 N209 2.020 1_455 S
Zn213 O220 1.975 . S
Zn213 N229 2.119 . S
Zn213 O234 2.019 . S
N214 Zn204 2.119 1_455 S
N214 C216 1.334 . S
N214 C217 1.328 1_455 S
C215 C216 1.391 . S
C215 N218 1.329 . S
C215 H236 0.930 . S
C216 N214 1.334 . S
C216 C215 1.391 . S
C216 H223 0.930 . S
C217 N214 1.328 1_655 S
C217 C219 1.392 1_655 S
C217 H224 0.930 . S
N218 C215 1.329 . S
N218 C219 1.331 . S
C219 C217 1.392 1_455 S
C219 N218 1.331 . S
O220 Zn213 1.975 . S
O220 C221 1.252 1_554 S
C221 O220 1.252 1_556 S
C221 O222 1.252 . S
O222 Zn204 1.975 1_455 S
O222 C221 1.252 . S
H223 C216 0.930 . S
H224 C217 0.930 . S
C225 C226 1.392 . S
C225 N229 1.328 . S
C225 H231 0.930 . S
C226 C225 1.392 . S
C226 N230 1.331 . S
C227 C228 1.391 . S
C227 N230 1.329 . S
C227 H237 0.930 . S
C228 C227 1.391 . S
C228 N229 1.334 . S
C228 H235 0.930 . S
N229 Zn213 2.119 . S
N229 C225 1.328 . S
N229 C228 1.334 . S
N230 C226 1.331 . S
N230 C227 1.329 . S
H231 C225 0.930 . S
C232 O212 1.257 . S
C232 O233 1.244 . S
O233 C232 1.244 . S
O234 C210 1.257 . S
O234 Zn213 2.019 . S
H235 C228 0.930 . S
H236 C215 0.930 . S
H237 C227 0.930 . S
Zn238 N242 2.020 . S
Zn238 O246 2.019 . S
Zn238 N248 2.119 . S
Zn238 O256 1.975 . S
C239 N240 1.334 . S
C239 N243 1.336 . S
N240 C239 1.334 . S
N240 C241 1.334 . S
C241 N240 1.334 . S
C241 N242 1.336 . S
N242 Zn238 2.020 . S
N242 C241 1.336 . S
N242 N243 1.354 . S
N243 C239 1.336 . S
N243 N242 1.354 . S
N243 Zn247 2.020 . S
C244 O245 1.244 . S
C244 O268 1.257 . S
O245 C244 1.244 . S
O246 Zn238 2.019 . S
O246 C266 1.257 . S
Zn247 N243 2.020 . S
Zn247 O254 1.975 . S
Zn247 N263 2.119 . S
Zn247 O268 2.019 . S
N248 Zn238 2.119 . S
N248 C250 1.334 . S
N248 C251 1.328 . S
C249 C250 1.391 . S
C249 N252 1.329 . S
C249 H270 0.930 . S
C250 N248 1.334 . S
C250 C249 1.391 . S
C250 H257 0.930 . S
C251 N248 1.328 . S
C251 C253 1.392 . S
C251 H258 0.930 . S
N252 C249 1.329 . S
N252 C253 1.331 . S
C253 C251 1.392 . S
C253 N252 1.331 . S
O254 Zn247 1.975 . S
O254 C255 1.252 . S
C255 O254 1.252 . S
C255 O256 1.252 . S
O256 Zn238 1.975 . S
O256 C255 1.252 . S
H257 C250 0.930 . S
H258 C251 0.930 . S
C259 C260 1.392 . S
C259 N263 1.328 . S
C259 H265 0.930 . S
C260 C259 1.392 . S
C260 N264 1.331 . S
C261 C262 1.391 . S
C261 N264 1.329 . S
C261 H271 0.930 . S
C262 C261 1.391 . S
C262 N263 1.334 . S
C262 H269 0.930 . S
N263 Zn247 2.119 . S
N263 C259 1.328 . S
N263 C262 1.334 . S
N264 C260 1.331 . S
N264 C261 1.329 . S
H265 C259 0.930 . S
C266 O246 1.257 . S
C266 O267 1.244 . S
O267 C266 1.244 . S
O268 C244 1.257 . S
O268 Zn247 2.019 . S
H269 C262 0.930 . S
H270 C249 0.930 . S
H271 C261 0.930 . S
H272 C280 0.929 1_454 S
H273 C282 0.930 1_554 S
H274 C284 0.930 . S
H275 C287 0.929 . S
H276 C290 0.930 . S
H277 C292 0.960 1_545 S
H278 C292 0.960 1_554 S
H279 C292 0.960 . S
C280 H272 0.929 1_656 S
C280 C281 1.377 . S
C280 C282 1.384 1_655 S
C281 C280 1.377 . S
C281 C287 1.390 . S
C282 H273 0.930 1_556 S
C282 C280 1.384 1_455 S
C282 C283 1.372 1_455 S
C283 C282 1.372 1_655 S
C283 C284 1.400 . S
C283 C288 1.490 . S
C284 H274 0.930 . S
C284 C283 1.400 . S
C284 C287 1.386 . S
H285 C301 0.926 1_655 S
H286 C302 0.931 1_655 S
C287 H275 0.929 . S
C287 C281 1.390 . S
C287 C284 1.386 . S
C288 C283 1.490 . S
C288 C290 1.395 1_655 S
C288 C291 1.403 . S
H289 C295 0.930 . S
C290 H276 0.930 . S
C290 C288 1.395 1_455 S
C290 C293 1.403 1_565 S
C291 C288 1.403 . S
C291 C292 1.524 . S
C291 C295 1.400 1_565 S
C292 H277 0.960 1_565 S
C292 H278 0.960 1_556 S
C292 H279 0.960 . S
C292 C291 1.524 . S
C293 C290 1.403 1_545 S
C293 C294 1.392 . S
C293 C297 1.495 . S
C294 C293 1.392 . S
C294 C295 1.385 1_455 S
C294 C296 1.478 . S
C295 H289 0.930 . S
C295 C291 1.400 1_545 S
C295 C294 1.385 1_655 S
C296 C294 1.478 . S
C296 C298 1.381 . S
C296 C302 1.383 . S
C297 C293 1.495 . S
C297 H303 0.959 1_545 S
C297 H304 0.961 . S
C297 H305 0.960 . S
C298 C296 1.381 . S
C298 C299 1.394 . S
C298 H306 0.930 1_556 S
C299 C298 1.394 . S
C299 C300 1.383 . S
C299 H307 0.929 1_556 S
C300 C299 1.383 . S
C300 C301 1.377 . S
C301 H285 0.926 1_455 S
C301 C300 1.377 . S
C301 C302 1.379 . S
C302 H286 0.931 1_455 S
C302 C296 1.383 . S
C302 C301 1.379 . S
H303 C297 0.959 1_565 S
H304 C297 0.961 . S
H305 C297 0.960 . S
H306 C298 0.930 1_554 S
H307 C299 0.929 1_554 S
H308 C316 0.929 . S
H309 C318 0.930 . S
H310 C320 0.930 . S
H311 C323 0.929 . S
H312 C326 0.930 . S
H313 C328 0.960 . S
H314 C328 0.960 . S
H315 C328 0.960 . S
C316 H308 0.929 . S
C316 C317 1.377 . S
C316 C318 1.384 . S
C317 C316 1.377 . S
C317 C323 1.390 . S
C318 H309 0.930 . S
C318 C316 1.384 . S
C318 C319 1.372 . S
C319 C318 1.372 . S
C319 C320 1.400 . S
C319 C324 1.490 . S
C320 H310 0.930 . S
C320 C319 1.400 . S
C320 C323 1.386 . S
H321 C337 0.930 . S
H322 C338 0.931 . S
C323 H311 0.929 . S
C323 C317 1.390 . S
C323 C320 1.386 . S
C324 C319 1.490 . S
C324 C326 1.395 . S
C324 C327 1.403 . S
H325 C331 0.930 . S
C326 H312 0.930 . S
C326 C324 1.395 . S
C326 C329 1.403 1_655 S
C327 C324 1.403 . S
C327 C328 1.524 . S
C327 C331 1.400 1_655 S
C328 H313 0.960 . S
C328 H314 0.960 . S
C328 H315 0.960 . S
C328 C327 1.524 . S
C329 C326 1.403 1_455 S
C329 C330 1.392 . S
C329 C333 1.495 . S
C330 C329 1.392 . S
C330 C331 1.385 . S
C330 C332 1.478 . S
C331 H325 0.930 . S
C331 C327 1.400 1_455 S
C331 C330 1.385 . S
C332 C330 1.478 . S
C332 C334 1.381 . S
C332 C338 1.383 . S
C333 C329 1.495 . S
C333 H339 0.959 . S
C333 H340 0.961 . S
C333 H341 0.960 . S
C334 C332 1.381 . S
C334 C335 1.394 . S
C334 H342 0.930 . S
C335 C334 1.394 . S
C335 C336 1.383 . S
C335 H343 0.929 . S
C336 C335 1.383 . S
C336 C337 1.377 . S
C337 H321 0.930 . S
C337 C336 1.377 . S
C337 C338 1.379 . S
C338 H322 0.931 . S
C338 C332 1.383 . S
C338 C337 1.379 . S
H339 C333 0.959 . S
H340 C333 0.961 . S
H341 C333 0.960 . S
H342 C334 0.930 . S
H343 C335 0.929 . S
H344 C352 0.929 . S
H345 C354 0.930 . S
H346 C356 0.930 . S
H347 C359 0.929 . S
H348 C362 0.930 . S
H349 C364 0.960 . S
H350 C364 0.960 . S
H351 C364 0.960 . S
C352 H344 0.929 . S
C352 C353 1.377 . S
C352 C354 1.384 . S
C353 C352 1.377 . S
C353 C359 1.390 . S
C354 H345 0.930 . S
C354 C352 1.384 . S
C354 C355 1.372 . S
C355 C354 1.372 . S
C355 C356 1.400 . S
C355 C360 1.490 . S
C356 H346 0.930 . S
C356 C355 1.400 . S
C356 C359 1.386 . S
H357 C373 0.930 . S
H358 C374 0.931 . S
C359 H347 0.929 . S
C359 C353 1.390 . S
C359 C356 1.386 . S
C360 C355 1.490 . S
C360 C362 1.395 . S
C360 C363 1.403 . S
H361 C367 0.930 . S
C362 H348 0.930 . S
C362 C360 1.395 . S
C362 C365 1.403 . S
C363 C360 1.403 . S
C363 C364 1.524 . S
C363 C367 1.400 . S
C364 H349 0.960 . S
C364 H350 0.960 . S
C364 H351 0.960 . S
C364 C363 1.524 . S
C365 C362 1.403 . S
C365 C366 1.392 . S
C365 C369 1.495 . S
C366 C365 1.392 . S
C366 C367 1.385 . S
C366 C368 1.478 . S
C367 H361 0.930 . S
C367 C363 1.400 . S
C367 C366 1.385 . S
C368 C366 1.478 . S
C368 C370 1.381 . S
C368 C374 1.383 . S
C369 C365 1.495 . S
C369 H375 0.959 . S
C369 H376 0.961 . S
C369 H377 0.960 . S
C370 C368 1.381 . S
C370 C371 1.394 . S
C370 H378 0.930 . S
C371 C370 1.394 . S
C371 C372 1.383 . S
C371 H379 0.929 . S
C372 C371 1.383 . S
C372 C373 1.377 . S
C373 H357 0.930 . S
C373 C372 1.377 . S
C373 C374 1.379 . S
C374 H358 0.931 . S
C374 C368 1.383 . S
C374 C373 1.379 . S
H375 C369 0.959 . S
H376 C369 0.961 . S
H377 C369 0.960 . S
H378 C370 0.930 . S
H379 C371 0.929 . S
H380 C388 0.929 . S
H381 C390 0.930 . S
H382 C392 0.930 1_545 S
H383 C395 0.929 . S
H384 C398 0.930 . S
H385 C400 0.960 . S
H386 C400 0.960 . S
H387 C400 0.960 . S
C388 H380 0.929 . S
C388 C389 1.377 . S
C388 C390 1.384 . S
C389 C388 1.377 . S
C389 C395 1.390 . S
C390 H381 0.930 . S
C390 C388 1.384 . S
C390 C391 1.372 . S
C391 C390 1.372 . S
C391 C392 1.400 . S
C391 C396 1.490 . S
C392 H382 0.930 1_565 S
C392 C391 1.400 . S
C392 C395 1.386 . S
H393 C409 0.930 . S
H394 C410 0.931 . S
C395 H383 0.929 . S
C395 C389 1.390 . S
C395 C392 1.386 . S
C396 C391 1.490 . S
C396 C398 1.395 . S
C396 C399 1.403 1_565 S
H397 C403 0.930 . S
C398 H384 0.930 . S
C398 C396 1.395 . S
C398 C401 1.403 . S
C399 C396 1.403 1_545 S
C399 C400 1.524 . S
C399 C403 1.400 . S
C400 H385 0.960 . S
C400 H386 0.960 . S
C400 H387 0.960 . S
C400 C399 1.524 . S
C401 C398 1.403 . S
C401 C402 1.380 1_565 S
C401 C405 1.495 . S
C402 C401 1.380 1_545 S
C402 C403 1.395 . S
C402 C404 1.480 . S
C403 H397 0.930 . S
C403 C399 1.400 . S
C403 C402 1.395 . S
C404 C402 1.480 . S
C404 C406 1.387 . S
C404 C410 1.383 . S
C405 C401 1.495 . S
C405 H411 0.959 . S
C405 H412 0.961 . S
C405 H413 0.960 . S
C406 C404 1.387 . S
C406 C407 1.401 . S
C406 H414 0.918 1_545 S
C407 C406 1.401 . S
C407 C408 1.383 . S
C407 H415 0.929 . S
C408 C407 1.383 . S
C408 C409 1.377 . S
C409 H393 0.930 . S
C409 C408 1.377 . S
C409 C410 1.379 . S
C410 H394 0.931 . S
C410 C404 1.383 . S
C410 C409 1.379 . S
H411 C405 0.959 . S
H412 C405 0.961 . S
H413 C405 0.960 . S
H414 C406 0.918 1_565 S
H415 C407 0.929 . S
H416 C424 0.929 . S
H417 C426 0.930 . S
H418 C428 0.930 . S
H419 C431 0.929 . S
H420 C434 0.930 . S
H421 C436 0.960 . S
H422 C436 0.960 . S
H423 C436 0.960 . S
C424 H416 0.929 . S
C424 C425 1.377 . S
C424 C426 1.384 . S
C425 C424 1.377 . S
C425 C431 1.390 . S
C426 H417 0.930 . S
C426 C424 1.384 . S
C426 C427 1.372 . S
C427 C426 1.372 . S
C427 C428 1.400 . S
C427 C432 1.490 . S
C428 H418 0.930 . S
C428 C427 1.400 . S
C428 C431 1.386 . S
H429 C445 0.930 1_554 S
H430 C446 0.931 . S
C431 H419 0.929 . S
C431 C425 1.390 . S
C431 C428 1.386 . S
C432 C427 1.490 . S
C432 C434 1.395 . S
C432 C435 1.403 . S
H433 C439 0.930 . S
C434 H420 0.930 . S
C434 C432 1.395 . S
C434 C437 1.403 . S
C435 C432 1.403 . S
C435 C436 1.524 . S
C435 C439 1.400 . S
C436 H421 0.960 . S
C436 H422 0.960 . S
C436 H423 0.960 . S
C436 C435 1.524 . S
C437 C434 1.403 . S
C437 C438 1.392 . S
C437 C441 1.495 . S
C438 C437 1.392 . S
C438 C439 1.385 . S
C438 C440 1.478 . S
C439 H433 0.930 . S
C439 C435 1.400 . S
C439 C438 1.385 . S
C440 C438 1.478 . S
C440 C442 1.381 . S
C440 C446 1.383 . S
C441 C437 1.495 . S
C441 H447 0.959 . S
C441 H448 0.961 . S
C441 H449 0.960 . S
C442 C440 1.381 . S
C442 C443 1.394 . S
C442 H450 0.930 . S
C443 C442 1.394 . S
C443 C444 1.383 . S
C443 H451 0.929 . S
C444 C443 1.383 . S
C444 C445 1.377 . S
C445 H429 0.930 1_556 S
C445 C444 1.377 . S
C445 C446 1.379 . S
C446 H430 0.931 . S
C446 C440 1.383 . S
C446 C445 1.379 . S
H447 C441 0.959 . S
H448 C441 0.961 . S
H449 C441 0.960 . S
H450 C442 0.930 . S
H451 C443 0.929 . S
H452 C460 0.929 . S
H453 C462 0.930 . S
H454 C464 0.930 . S
H455 C467 0.929 . S
H456 C470 0.930 . S
H457 C472 0.960 . S
H458 C472 0.960 . S
H459 C472 0.960 . S
C460 H452 0.929 . S
C460 C461 1.377 . S
C460 C462 1.384 . S
C461 C460 1.377 . S
C461 C467 1.390 . S
C462 H453 0.930 . S
C462 C460 1.384 . S
C462 C463 1.372 . S
C463 C462 1.372 . S
C463 C464 1.400 . S
C463 C468 1.490 . S
C464 H454 0.930 . S
C464 C463 1.400 . S
C464 C467 1.386 . S
H465 C481 0.930 . S
H466 C482 0.931 . S
C467 H455 0.929 . S
C467 C461 1.390 . S
C467 C464 1.386 . S
C468 C463 1.490 . S
C468 C470 1.395 . S
C468 C471 1.403 . S
H469 C475 0.930 . S
C470 H456 0.930 . S
C470 C468 1.395 . S
C470 C473 1.403 . S
C471 C468 1.403 . S
C471 C472 1.524 . S
C471 C475 1.400 . S
C472 H457 0.960 . S
C472 H458 0.960 . S
C472 H459 0.960 . S
C472 C471 1.524 . S
C473 C470 1.403 . S
C473 C474 1.392 . S
C473 C477 1.495 . S
C474 C473 1.392 . S
C474 C475 1.385 . S
C474 C476 1.478 . S
C475 H469 0.930 . S
C475 C471 1.400 . S
C475 C474 1.385 . S
C476 C474 1.478 . S
C476 C478 1.381 . S
C476 C482 1.383 . S
C477 C473 1.495 . S
C477 H483 0.959 . S
C477 H484 0.961 . S
C477 H485 0.960 . S
C478 C476 1.381 . S
C478 C479 1.394 . S
C478 H486 0.930 . S
C479 C478 1.394 . S
C479 C480 1.383 . S
C479 H487 0.929 . S
C480 C479 1.383 . S
C480 C481 1.377 . S
C481 H465 0.930 . S
C481 C480 1.377 . S
C481 C482 1.379 . S
C482 H466 0.931 . S
C482 C476 1.383 . S
C482 C481 1.379 . S
H483 C477 0.959 . S
H484 C477 0.961 . S
H485 C477 0.960 . S
H486 C478 0.930 . S
H487 C479 0.929 . S
H488 C496 0.929 . S
H489 C498 0.930 . S
H490 C500 0.930 . S
H491 C503 0.929 . S
H492 C506 0.930 . S
H493 C508 0.960 . S
H494 C508 0.960 . S
H495 C508 0.960 . S
C496 H488 0.929 . S
C496 C497 1.377 . S
C496 C498 1.384 . S
C497 C496 1.377 . S
C497 C503 1.390 . S
C498 H489 0.930 . S
C498 C496 1.384 . S
C498 C499 1.372 . S
C499 C498 1.372 . S
C499 C500 1.400 . S
C499 C504 1.490 . S
C500 H490 0.930 . S
C500 C499 1.400 . S
C500 C503 1.386 . S
H501 C517 0.930 . S
H502 C518 0.931 . S
C503 H491 0.929 . S
C503 C497 1.390 . S
C503 C500 1.386 . S
C504 C499 1.490 . S
C504 C506 1.395 . S
C504 C507 1.403 . S
H505 C511 0.930 . S
C506 H492 0.930 . S
C506 C504 1.395 . S
C506 C509 1.403 . S
C507 C504 1.403 . S
C507 C508 1.524 . S
C507 C511 1.400 . S
C508 H493 0.960 . S
C508 H494 0.960 . S
C508 H495 0.960 . S
C508 C507 1.524 . S
C509 C506 1.403 . S
C509 C510 1.392 . S
C509 C513 1.495 . S
C510 C509 1.392 . S
C510 C511 1.385 . S
C510 C512 1.478 . S
C511 H505 0.930 . S
C511 C507 1.400 . S
C511 C510 1.385 . S
C512 C510 1.478 . S
C512 C514 1.381 . S
C512 C518 1.383 . S
C513 C509 1.495 . S
C513 H519 0.959 . S
C513 H520 0.961 . S
C513 H521 0.960 . S
C514 C512 1.381 . S
C514 C515 1.394 . S
C514 H522 0.930 . S
C515 C514 1.394 . S
C515 C516 1.383 . S
C515 H523 0.929 . S
C516 C515 1.383 . S
C516 C517 1.377 . S
C517 H501 0.930 . S
C517 C516 1.377 . S
C517 C518 1.379 . S
C518 H502 0.931 . S
C518 C512 1.383 . S
C518 C517 1.379 . S
H519 C513 0.959 . S
H520 C513 0.961 . S
H521 C513 0.960 . S
H522 C514 0.930 . S
H523 C515 0.929 . S
H524 C532 0.929 . S
H525 C534 0.930 . S
H526 C536 0.930 . S
H527 C539 0.929 . S
H528 C542 0.930 . S
H529 C544 0.960 . S
H530 C544 0.960 . S
H531 C544 0.960 . S
C532 H524 0.929 . S
C532 C533 1.377 . S
C532 C534 1.384 . S
C533 C532 1.377 . S
C533 C539 1.390 . S
C534 H525 0.930 . S
C534 C532 1.384 . S
C534 C535 1.372 . S
C535 C534 1.372 . S
C535 C536 1.400 . S
C535 C540 1.490 . S
C536 H526 0.930 . S
C536 C535 1.400 . S
C536 C539 1.386 . S
H537 C553 0.930 . S
H538 C554 0.931 . S
C539 H527 0.929 . S
C539 C533 1.390 . S
C539 C536 1.386 . S
C540 C535 1.490 . S
C540 C542 1.395 . S
C540 C543 1.403 . S
H541 C547 0.930 . S
C542 H528 0.930 . S
C542 C540 1.395 . S
C542 C545 1.403 . S
C543 C540 1.403 . S
C543 C544 1.524 . S
C543 C547 1.400 . S
C544 H529 0.960 . S
C544 H530 0.960 . S
C544 H531 0.960 . S
C544 C543 1.524 . S
C545 C542 1.403 . S
C545 C546 1.392 . S
C545 C549 1.495 . S
C546 C545 1.392 . S
C546 C547 1.385 . S
C546 C548 1.478 . S
C547 H541 0.930 . S
C547 C543 1.400 . S
C547 C546 1.385 . S
C548 C546 1.478 . S
C548 C550 1.381 . S
C548 C554 1.383 . S
C549 C545 1.495 . S
C549 H555 0.959 . S
C549 H556 0.961 . S
C549 H557 0.960 . S
C550 C548 1.381 . S
C550 C551 1.394 . S
C550 H558 0.930 . S
C551 C550 1.394 . S
C551 C552 1.383 . S
C551 H559 0.929 . S
C552 C551 1.383 . S
C552 C553 1.377 . S
C553 H537 0.930 . S
C553 C552 1.377 . S
C553 C554 1.379 . S
C554 H538 0.931 . S
C554 C548 1.383 . S
C554 C553 1.379 . S
H555 C549 0.959 . S
H556 C549 0.961 . S
H557 C549 0.960 . S
H558 C550 0.930 . S
H559 C551 0.929 . S
H560 C568 0.929 . S
H561 C570 0.930 . S
H562 C572 0.930 . S
H563 C575 0.929 . S
H564 C578 0.930 . S
H565 C580 0.960 . S
H566 C580 0.960 . S
H567 C580 0.960 . S
C568 H560 0.929 . S
C568 C569 1.377 . S
C568 C570 1.384 . S
C569 C568 1.377 . S
C569 C575 1.390 . S
C570 H561 0.930 . S
C570 C568 1.384 . S
C570 C571 1.372 . S
C571 C570 1.372 . S
C571 C572 1.400 . S
C571 C576 1.490 . S
C572 H562 0.930 . S
C572 C571 1.400 . S
C572 C575 1.386 . S
H573 C589 0.930 . S
H574 C590 0.931 1_554 S
C575 H563 0.929 . S
C575 C569 1.390 . S
C575 C572 1.386 . S
C576 C571 1.490 . S
C576 C578 1.395 . S
C576 C579 1.403 . S
H577 C583 0.930 . S
C578 H564 0.930 . S
C578 C576 1.395 . S
C578 C581 1.403 . S
C579 C576 1.403 . S
C579 C580 1.524 . S
C579 C583 1.400 . S
C580 H565 0.960 . S
C580 H566 0.960 . S
C580 H567 0.960 . S
C580 C579 1.524 . S
C581 C578 1.403 . S
C581 C582 1.392 . S
C581 C585 1.495 . S
C582 C581 1.392 . S
C582 C583 1.385 . S
C582 C584 1.478 . S
C583 H577 0.930 . S
C583 C579 1.400 . S
C583 C582 1.385 . S
C584 C582 1.478 . S
C584 C586 1.381 . S
C584 C590 1.383 . S
C585 C581 1.495 . S
C585 H591 0.959 . S
C585 H592 0.961 . S
C585 H593 0.960 . S
C586 C584 1.381 . S
C586 C587 1.394 . S
C586 H594 0.930 . S
C587 C586 1.394 . S
C587 C588 1.383 . S
C587 H595 0.929 . S
C588 C587 1.383 . S
C588 C589 1.377 1_556 S
C589 H573 0.930 . S
C589 C588 1.377 1_554 S
C589 C590 1.379 1_554 S
C590 H574 0.931 1_556 S
C590 C584 1.383 . S
C590 C589 1.379 1_556 S
H591 C585 0.959 . S
H592 C585 0.961 . S
H593 C585 0.960 . S
H594 C586 0.930 . S
H595 C587 0.929 . S
H596 C604 0.929 . S
H597 C606 0.930 . S
H598 C608 0.930 . S
H599 C611 0.929 . S
H600 C614 0.930 . S
H601 C616 0.960 . S
H602 C616 0.960 . S
H603 C616 0.960 . S
C604 H596 0.929 . S
C604 C605 1.377 . S
C604 C606 1.384 . S
C605 C604 1.377 . S
C605 C611 1.390 . S
C606 H597 0.930 . S
C606 C604 1.384 . S
C606 C607 1.372 . S
C607 C606 1.372 . S
C607 C608 1.400 . S
C607 C612 1.490 . S
C608 H598 0.930 . S
C608 C607 1.400 . S
C608 C611 1.386 . S
H609 C625 0.930 . S
H610 C626 0.931 . S
C611 H599 0.929 . S
C611 C605 1.390 . S
C611 C608 1.386 . S
C612 C607 1.490 . S
C612 C614 1.395 . S
C612 C615 1.403 . S
H613 C619 0.930 . S
C614 H600 0.930 . S
C614 C612 1.395 . S
C614 C617 1.403 . S
C615 C612 1.403 . S
C615 C616 1.524 . S
C615 C619 1.400 . S
C616 H601 0.960 . S
C616 H602 0.960 . S
C616 H603 0.960 . S
C616 C615 1.524 . S
C617 C614 1.403 . S
C617 C618 1.392 . S
C617 C621 1.495 . S
C618 C617 1.392 . S
C618 C619 1.385 . S
C618 C620 1.478 . S
C619 H613 0.930 . S
C619 C615 1.400 . S
C619 C618 1.385 . S
C620 C618 1.478 . S
C620 C622 1.381 . S
C620 C626 1.383 . S
C621 C617 1.495 . S
C621 H627 0.959 . S
C621 H628 0.961 . S
C621 H629 0.960 . S
C622 C620 1.381 . S
C622 C623 1.394 . S
C622 H630 0.930 . S
C623 C622 1.394 . S
C623 C624 1.383 . S
C623 H631 0.929 1_554 S
C624 C623 1.383 . S
C624 C625 1.377 . S
C625 H609 0.930 . S
C625 C624 1.377 . S
C625 C626 1.379 . S
C626 H610 0.931 . S
C626 C620 1.383 . S
C626 C625 1.379 . S
H627 C621 0.959 . S
H628 C621 0.961 . S
H629 C621 0.960 . S
H630 C622 0.930 . S
H631 C623 0.929 1_556 S
H632 C640 0.929 . S
H633 C642 0.930 . S
H634 C644 0.930 . S
H635 C647 0.929 . S
H636 C650 0.930 . S
H637 C652 0.960 . S
H638 C652 0.960 . S
H639 C652 0.960 . S
C640 H632 0.929 . S
C640 C641 1.377 . S
C640 C642 1.384 . S
C641 C640 1.377 . S
C641 C647 1.390 . S
C642 H633 0.930 . S
C642 C640 1.384 . S
C642 C643 1.372 . S
C643 C642 1.372 . S
C643 C644 1.400 . S
C643 C648 1.490 . S
C644 H634 0.930 . S
C644 C643 1.400 . S
C644 C647 1.386 . S
H645 C661 0.930 . S
H646 C662 0.931 . S
C647 H635 0.929 . S
C647 C641 1.390 . S
C647 C644 1.386 . S
C648 C643 1.490 . S
C648 C650 1.395 . S
C648 C651 1.403 . S
H649 C655 0.930 . S
C650 H636 0.930 . S
C650 C648 1.395 . S
C650 C653 1.403 . S
C651 C648 1.403 . S
C651 C652 1.524 . S
C651 C655 1.400 . S
C652 H637 0.960 . S
C652 H638 0.960 . S
C652 H639 0.960 . S
C652 C651 1.524 . S
C653 C650 1.403 . S
C653 C654 1.392 . S
C653 C657 1.495 . S
C654 C653 1.392 . S
C654 C655 1.385 . S
C654 C656 1.478 . S
C655 H649 0.930 . S
C655 C651 1.400 . S
C655 C654 1.385 . S
C656 C654 1.478 . S
C656 C658 1.381 . S
C656 C662 1.383 . S
C657 C653 1.495 . S
C657 H663 0.959 . S
C657 H664 0.961 . S
C657 H665 0.960 . S
C658 C656 1.381 . S
C658 C659 1.394 . S
C658 H666 0.930 . S
C659 C658 1.394 . S
C659 C660 1.383 . S
C659 H667 0.929 . S
C660 C659 1.383 . S
C660 C661 1.377 . S
C661 H645 0.930 . S
C661 C660 1.377 . S
C661 C662 1.379 . S
C662 H646 0.931 . S
C662 C656 1.383 . S
C662 C661 1.379 . S
H663 C657 0.959 . S
H664 C657 0.961 . S
H665 C657 0.960 . S
H666 C658 0.930 . S
H667 C659 0.929 . S
H668 C676 0.929 . S
H669 C678 0.930 . S
H670 C680 0.930 . S
H671 C683 0.929 . S
H672 C686 0.930 . S
H673 C688 0.960 . S
H674 C688 0.960 . S
H675 C688 0.960 . S
C676 H668 0.929 . S
C676 C677 1.377 . S
C676 C678 1.384 . S
C677 C676 1.377 . S
C677 C683 1.390 . S
C678 H669 0.930 . S
C678 C676 1.384 . S
C678 C679 1.372 . S
C679 C678 1.372 . S
C679 C680 1.400 . S
C679 C684 1.490 . S
C680 H670 0.930 . S
C680 C679 1.400 . S
C680 C683 1.386 . S
H681 C697 0.930 . S
H682 C698 0.931 . S
C683 H671 0.929 . S
C683 C677 1.390 . S
C683 C680 1.386 . S
C684 C679 1.490 . S
C684 C686 1.395 . S
C684 C687 1.403 . S
H685 C691 0.930 . S
C686 H672 0.930 . S
C686 C684 1.395 . S
C686 C689 1.403 . S
C687 C684 1.403 . S
C687 C688 1.524 . S
C687 C691 1.400 . S
C688 H673 0.960 . S
C688 H674 0.960 . S
C688 H675 0.960 . S
C688 C687 1.524 . S
C689 C686 1.403 . S
C689 C690 1.392 . S
C689 C693 1.495 . S
C690 C689 1.392 . S
C690 C691 1.385 . S
C690 C692 1.478 . S
C691 H685 0.930 . S
C691 C687 1.400 . S
C691 C690 1.385 . S
C692 C690 1.478 . S
C692 C694 1.381 . S
C692 C698 1.383 . S
C693 C689 1.495 . S
C693 H699 0.959 . S
C693 H700 0.961 . S
C693 H701 0.960 . S
C694 C692 1.381 . S
C694 C695 1.394 . S
C694 H702 0.930 . S
C695 C694 1.394 . S
C695 C696 1.383 . S
C695 H703 0.929 . S
C696 C695 1.383 . S
C696 C697 1.377 . S
C697 H681 0.930 . S
C697 C696 1.377 . S
C697 C698 1.379 . S
C698 H682 0.931 . S
C698 C692 1.383 . S
C698 C697 1.379 . S
H699 C693 0.959 . S
H700 C693 0.961 . S
H701 C693 0.960 . S
H702 C694 0.930 . S
H703 C695 0.929 . S
H704 C712 0.929 . S
H705 C714 0.930 . S
H706 C716 0.930 . S
H707 C719 0.929 . S
H708 C722 0.930 . S
H709 C724 0.960 . S
H710 C724 0.960 . S
H711 C724 0.960 . S
C712 H704 0.929 . S
C712 C713 1.377 . S
C712 C714 1.384 . S
C713 C712 1.377 . S
C713 C719 1.390 . S
C714 H705 0.930 . S
C714 C712 1.384 . S
C714 C715 1.372 . S
C715 C714 1.372 . S
C715 C716 1.400 . S
C715 C720 1.490 . S
C716 H706 0.930 . S
C716 C715 1.400 . S
C716 C719 1.386 . S
H717 C733 0.930 . S
H718 C734 0.931 . S
C719 H707 0.929 . S
C719 C713 1.390 . S
C719 C716 1.386 . S
C720 C715 1.490 . S
C720 C722 1.395 . S
C720 C723 1.403 . S
H721 C727 0.930 . S
C722 H708 0.930 . S
C722 C720 1.395 . S
C722 C725 1.403 . S
C723 C720 1.403 . S
C723 C724 1.524 . S
C723 C727 1.400 . S
C724 H709 0.960 . S
C724 H710 0.960 . S
C724 H711 0.960 . S
C724 C723 1.524 . S
C725 C722 1.403 . S
C725 C726 1.392 . S
C725 C729 1.495 . S
C726 C725 1.392 . S
C726 C727 1.385 . S
C726 C728 1.478 . S
C727 H721 0.930 . S
C727 C723 1.400 . S
C727 C726 1.385 . S
C728 C726 1.478 . S
C728 C730 1.381 . S
C728 C734 1.383 . S
C729 C725 1.495 . S
C729 H735 0.959 . S
C729 H736 0.961 . S
C729 H737 0.960 . S
C730 C728 1.381 . S
C730 C731 1.394 . S
C730 H738 0.930 . S
C731 C730 1.394 . S
C731 C732 1.383 . S
C731 H739 0.929 . S
C732 C731 1.383 . S
C732 C733 1.377 . S
C733 H717 0.930 . S
C733 C732 1.377 . S
C733 C734 1.379 . S
C734 H718 0.931 . S
C734 C728 1.383 . S
C734 C733 1.379 . S
H735 C729 0.959 . S
H736 C729 0.961 . S
H737 C729 0.960 . S
H738 C730 0.930 . S
H739 C731 0.929 . S
H740 C748 0.929 . S
H741 C750 0.930 . S
H742 C752 0.930 . S
H743 C755 0.929 . S
H744 C758 0.930 . S
H745 C760 0.960 . S
H746 C760 0.960 . S
H747 C760 0.960 . S
C748 H740 0.929 . S
C748 C749 1.377 . S
C748 C750 1.384 . S
C749 C748 1.377 . S
C749 C755 1.390 . S
C750 H741 0.930 . S
C750 C748 1.384 . S
C750 C751 1.372 . S
C751 C750 1.372 . S
C751 C752 1.400 . S
C751 C756 1.490 . S
C752 H742 0.930 . S
C752 C751 1.400 . S
C752 C755 1.386 . S
H753 C769 0.930 . S
H754 C770 0.931 . S
C755 H743 0.929 . S
C755 C749 1.390 . S
C755 C752 1.386 . S
C756 C751 1.490 . S
C756 C758 1.395 . S
C756 C759 1.403 . S
H757 C763 0.930 . S
C758 H744 0.930 . S
C758 C756 1.395 . S
C758 C761 1.403 . S
C759 C756 1.403 . S
C759 C760 1.524 . S
C759 C763 1.400 . S
C760 H745 0.960 . S
C760 H746 0.960 . S
C760 H747 0.960 . S
C760 C759 1.524 . S
C761 C758 1.403 . S
C761 C762 1.392 . S
C761 C765 1.495 . S
C762 C761 1.392 . S
C762 C763 1.385 . S
C762 C764 1.478 . S
C763 H757 0.930 . S
C763 C759 1.400 . S
C763 C762 1.385 . S
C764 C762 1.478 . S
C764 C766 1.381 . S
C764 C770 1.383 . S
C765 C761 1.495 . S
C765 H771 0.959 . S
C765 H772 0.961 . S
C765 H773 0.960 . S
C766 C764 1.381 . S
C766 C767 1.394 . S
C766 H774 0.930 . S
C767 C766 1.394 . S
C767 C768 1.383 . S
C767 H775 0.929 . S
C768 C767 1.383 . S
C768 C769 1.377 . S
C769 H753 0.930 . S
C769 C768 1.377 . S
C769 C770 1.379 . S
C770 H754 0.931 . S
C770 C764 1.383 . S
C770 C769 1.379 . S
H771 C765 0.959 . S
H772 C765 0.961 . S
H773 C765 0.960 . S
H774 C766 0.930 . S
H775 C767 0.929 . S
H776 C784 0.929 . S
H777 C786 0.930 . S
H778 C788 0.930 . S
H779 C791 0.929 . S
H780 C794 0.930 . S
H781 C796 0.960 . S
H782 C796 0.960 . S
H783 C796 0.960 . S
C784 H776 0.929 . S
C784 C785 1.377 . S
C784 C786 1.384 . S
C785 C784 1.377 . S
C785 C791 1.390 . S
C786 H777 0.930 . S
C786 C784 1.384 . S
C786 C787 1.372 . S
C787 C786 1.372 . S
C787 C788 1.400 . S
C787 C792 1.490 . S
C788 H778 0.930 . S
C788 C787 1.400 . S
C788 C791 1.386 . S
H789 C805 0.930 . S
H790 C806 0.931 . S
C791 H779 0.929 . S
C791 C785 1.390 . S
C791 C788 1.386 . S
C792 C787 1.490 . S
C792 C794 1.395 . S
C792 C795 1.403 . S
H793 C799 0.930 . S
C794 H780 0.930 . S
C794 C792 1.395 . S
C794 C797 1.403 . S
C795 C792 1.403 . S
C795 C796 1.524 . S
C795 C799 1.400 . S
C796 H781 0.960 . S
C796 H782 0.960 . S
C796 H783 0.960 . S
C796 C795 1.524 . S
C797 C794 1.403 . S
C797 C798 1.392 . S
C797 C801 1.495 1_556 S
C798 C797 1.392 . S
C798 C799 1.385 . S
C798 C800 1.478 . S
C799 H793 0.930 . S
C799 C795 1.400 . S
C799 C798 1.385 . S
C800 C798 1.478 . S
C800 C802 1.381 . S
C800 C806 1.383 . S
C801 C797 1.495 1_554 S
C801 H807 0.959 . S
C801 H808 0.961 . S
C801 H809 0.960 . S
C802 C800 1.381 . S
C802 C803 1.394 . S
C802 H810 0.930 . S
C803 C802 1.394 . S
C803 C804 1.383 . S
C803 H811 0.929 . S
C804 C803 1.383 . S
C804 C805 1.377 . S
C805 H789 0.930 . S
C805 C804 1.377 . S
C805 C806 1.379 . S
C806 H790 0.931 . S
C806 C800 1.383 . S
C806 C805 1.379 . S
H807 C801 0.959 . S
H808 C801 0.961 . S
H809 C801 0.960 . S
H810 C802 0.930 . S
H811 C803 0.929 . S
H812 C820 0.929 . S
H813 C822 0.930 . S
H814 C824 0.930 . S
H815 C827 0.929 . S
H816 C830 0.930 . S
H817 C832 0.960 . S
H818 C832 0.960 . S
H819 C832 0.960 . S
C820 H812 0.929 . S
C820 C821 1.377 . S
C820 C822 1.384 . S
C821 C820 1.377 . S
C821 C827 1.390 . S
C822 H813 0.930 . S
C822 C820 1.384 . S
C822 C823 1.372 . S
C823 C822 1.372 . S
C823 C824 1.400 . S
C823 C828 1.490 . S
C824 H814 0.930 . S
C824 C823 1.400 . S
C824 C827 1.386 . S
H825 C841 0.930 . S
H826 C842 0.931 . S
C827 H815 0.929 . S
C827 C821 1.390 . S
C827 C824 1.386 . S
C828 C823 1.490 . S
C828 C830 1.395 . S
C828 C831 1.403 . S
H829 C835 0.930 . S
C830 H816 0.930 . S
C830 C828 1.395 . S
C830 C833 1.403 . S
C831 C828 1.403 . S
C831 C832 1.524 . S
C831 C835 1.400 . S
C832 H817 0.960 . S
C832 H818 0.960 . S
C832 H819 0.960 . S
C832 C831 1.524 . S
C833 C830 1.403 . S
C833 C834 1.392 . S
C833 C837 1.495 . S
C834 C833 1.392 . S
C834 C835 1.385 . S
C834 C836 1.478 . S
C835 H829 0.930 . S
C835 C831 1.400 . S
C835 C834 1.385 . S
C836 C834 1.478 . S
C836 C838 1.381 . S
C836 C842 1.383 . S
C837 C833 1.495 . S
C837 H843 0.959 . S
C837 H844 0.961 . S
C837 H845 0.960 1_554 S
C838 C836 1.381 . S
C838 C839 1.394 . S
C838 H846 0.930 . S
C839 C838 1.394 . S
C839 C840 1.383 . S
C839 H847 0.929 . S
C840 C839 1.383 . S
C840 C841 1.377 . S
C841 H825 0.930 . S
C841 C840 1.377 . S
C841 C842 1.379 . S
C842 H826 0.931 . S
C842 C836 1.383 . S
C842 C841 1.379 . S
H843 C837 0.959 . S
H844 C837 0.961 . S
H845 C837 0.960 1_556 S
H846 C838 0.930 . S
H847 C839 0.929 . S
H848 C856 0.929 . S
H849 C858 0.930 . S
H850 C860 0.930 . S
H851 C863 0.929 . S
H852 C866 0.930 . S
H853 C868 0.960 . S
H854 C868 0.960 . S
H855 C868 0.960 . S
C856 H848 0.929 . S
C856 C857 1.377 . S
C856 C858 1.384 . S
C857 C856 1.377 . S
C857 C863 1.390 . S
C858 H849 0.930 . S
C858 C856 1.384 . S
C858 C859 1.372 . S
C859 C858 1.372 . S
C859 C860 1.400 . S
C859 C864 1.490 . S
C860 H850 0.930 . S
C860 C859 1.400 . S
C860 C863 1.386 . S
H861 C877 0.930 . S
H862 C878 0.931 . S
C863 H851 0.929 . S
C863 C857 1.390 . S
C863 C860 1.386 . S
C864 C859 1.490 . S
C864 C866 1.395 . S
C864 C867 1.403 . S
H865 C871 0.930 . S
C866 H852 0.930 . S
C866 C864 1.395 . S
C866 C869 1.403 . S
C867 C864 1.403 . S
C867 C868 1.524 . S
C867 C871 1.400 . S
C868 H853 0.960 . S
C868 H854 0.960 . S
C868 H855 0.960 . S
C868 C867 1.524 . S
C869 C866 1.403 . S
C869 C870 1.392 . S
C869 C873 1.495 . S
C870 C869 1.392 . S
C870 C871 1.385 . S
C870 C872 1.478 . S
C871 H865 0.930 . S
C871 C867 1.400 . S
C871 C870 1.385 . S
C872 C870 1.478 . S
C872 C874 1.381 . S
C872 C878 1.383 . S
C873 C869 1.495 . S
C873 H879 0.959 . S
C873 H880 0.961 . S
C873 H881 0.960 . S
C874 C872 1.381 . S
C874 C875 1.394 . S
C874 H882 0.930 . S
C875 C874 1.394 . S
C875 C876 1.383 . S
C875 H883 0.929 . S
C876 C875 1.383 . S
C876 C877 1.377 . S
C877 H861 0.930 . S
C877 C876 1.377 . S
C877 C878 1.379 . S
C878 H862 0.931 . S
C878 C872 1.383 . S
C878 C877 1.379 . S
H879 C873 0.959 . S
H880 C873 0.961 . S
H881 C873 0.960 . S
H882 C874 0.930 . S
H883 C875 0.929 . S
H884 C892 0.929 . S
H885 C894 0.930 . S
H886 C896 0.930 . S
H887 C899 0.929 . S
H888 C902 0.930 . S
H889 C904 0.960 . S
H890 C904 0.960 . S
H891 C904 0.960 . S
C892 H884 0.929 . S
C892 C893 1.377 . S
C892 C894 1.384 . S
C893 C892 1.377 . S
C893 C899 1.390 . S
C894 H885 0.930 . S
C894 C892 1.384 . S
C894 C895 1.372 . S
C895 C894 1.372 . S
C895 C896 1.400 . S
C895 C900 1.490 . S
C896 H886 0.930 . S
C896 C895 1.400 . S
C896 C899 1.386 . S
H897 C913 0.930 . S
H898 C914 0.931 . S
C899 H887 0.929 . S
C899 C893 1.390 . S
C899 C896 1.386 . S
C900 C895 1.490 . S
C900 C902 1.395 . S
C900 C903 1.403 . S
H901 C907 0.930 . S
C902 H888 0.930 . S
C902 C900 1.395 . S
C902 C905 1.403 . S
C903 C900 1.403 . S
C903 C904 1.524 . S
C903 C907 1.400 . S
C904 H889 0.960 . S
C904 H890 0.960 . S
C904 H891 0.960 . S
C904 C903 1.524 . S
C905 C902 1.403 . S
C905 C906 1.392 . S
C905 C909 1.495 . S
C906 C905 1.392 . S
C906 C907 1.385 . S
C906 C908 1.478 . S
C907 H901 0.930 . S
C907 C903 1.400 . S
C907 C906 1.385 . S
C908 C906 1.478 . S
C908 C910 1.381 . S
C908 C914 1.383 . S
C909 C905 1.495 . S
C909 H915 0.959 . S
C909 H916 0.961 . S
C909 H917 0.960 . S
C910 C908 1.381 . S
C910 C911 1.394 . S
C910 H918 0.930 . S
C911 C910 1.394 . S
C911 C912 1.383 . S
C911 H919 0.929 . S
C912 C911 1.383 . S
C912 C913 1.377 . S
C913 H897 0.930 . S
C913 C912 1.377 . S
C913 C914 1.379 . S
C914 H898 0.931 . S
C914 C908 1.383 . S
C914 C913 1.379 . S
H915 C909 0.959 . S
H916 C909 0.961 . S
H917 C909 0.960 . S
H918 C910 0.930 . S
H919 C911 0.929 . S
H920 C928 0.929 1_554 S
H921 C930 0.930 . S
H922 C932 0.930 . S
H923 C935 0.929 . S
H924 C938 0.930 . S
H925 C940 0.960 . S
H926 C940 0.960 1_554 S
H927 C940 0.960 . S
C928 H920 0.929 1_556 S
C928 C929 1.377 . S
C928 C930 1.384 . S
C929 C928 1.377 . S
C929 C935 1.390 . S
C930 H921 0.930 . S
C930 C928 1.384 . S
C930 C931 1.372 . S
C931 C930 1.372 . S
C931 C932 1.400 . S
C931 C936 1.490 . S
C932 H922 0.930 . S
C932 C931 1.400 . S
C932 C935 1.386 . S
H933 C949 0.930 . S
H934 C950 0.931 . S
C935 H923 0.929 . S
C935 C929 1.390 . S
C935 C932 1.386 . S
C936 C931 1.490 . S
C936 C938 1.395 . S
C936 C939 1.403 . S
H937 C943 0.930 . S
C938 H924 0.930 . S
C938 C936 1.395 . S
C938 C941 1.403 . S
C939 C936 1.403 . S
C939 C940 1.524 . S
C939 C943 1.400 . S
C940 H925 0.960 . S
C940 H926 0.960 1_556 S
C940 H927 0.960 . S
C940 C939 1.524 . S
C941 C938 1.403 . S
C941 C942 1.392 . S
C941 C945 1.495 . S
C942 C941 1.392 . S
C942 C943 1.385 . S
C942 C944 1.478 . S
C943 H937 0.930 . S
C943 C939 1.400 . S
C943 C942 1.385 . S
C944 C942 1.478 . S
C944 C946 1.381 . S
C944 C950 1.383 . S
C945 C941 1.495 . S
C945 H951 0.959 . S
C945 H952 0.961 . S
C945 H953 0.960 . S
C946 C944 1.381 . S
C946 C947 1.394 . S
C946 H954 0.930 . S
C947 C946 1.394 . S
C947 C948 1.383 . S
C947 H955 0.929 . S
C948 C947 1.383 . S
C948 C949 1.377 . S
C949 H933 0.930 . S
C949 C948 1.377 . S
C949 C950 1.379 . S
C950 H934 0.931 . S
C950 C944 1.383 . S
C950 C949 1.379 . S
H951 C945 0.959 . S
H952 C945 0.961 . S
H953 C945 0.960 . S
H954 C946 0.930 . S
H955 C947 0.929 . S
H956 C964 0.929 1_556 S
H957 C966 0.930 . S
H958 C968 0.930 . S
H959 C971 0.929 . S
H960 C974 0.930 . S
H961 C976 0.960 . S
H962 C976 0.960 . S
H963 C976 0.960 . S
C964 H956 0.929 1_554 S
C964 C965 1.377 . S
C964 C966 1.384 . S
C965 C964 1.377 . S
C965 C971 1.390 . S
C966 H957 0.930 . S
C966 C964 1.384 . S
C966 C967 1.372 . S
C967 C966 1.372 . S
C967 C968 1.400 . S
C967 C972 1.490 . S
C968 H958 0.930 . S
C968 C967 1.400 . S
C968 C971 1.386 . S
H969 C985 0.930 . S
H970 C986 0.931 . S
C971 H959 0.929 . S
C971 C965 1.390 . S
C971 C968 1.386 . S
C972 C967 1.490 . S
C972 C974 1.395 . S
C972 C975 1.403 . S
H973 C979 0.930 . S
C974 H960 0.930 . S
C974 C972 1.395 . S
C974 C977 1.403 . S
C975 C972 1.403 . S
C975 C976 1.524 . S
C975 C979 1.400 . S
C976 H961 0.960 . S
C976 H962 0.960 . S
C976 H963 0.960 . S
C976 C975 1.524 . S
C977 C974 1.403 . S
C977 C978 1.392 . S
C977 C981 1.495 . S
C978 C977 1.392 . S
C978 C979 1.385 . S
C978 C980 1.478 . S
C979 H973 0.930 . S
C979 C975 1.400 . S
C979 C978 1.385 . S
C980 C978 1.478 . S
C980 C982 1.381 . S
C980 C986 1.383 . S
C981 C977 1.495 . S
C981 H987 0.959 . S
C981 H988 0.961 . S
C981 H989 0.960 . S
C982 C980 1.381 . S
C982 C983 1.394 . S
C982 H990 0.930 . S
C983 C982 1.394 . S
C983 C984 1.383 . S
C983 H991 0.929 . S
C984 C983 1.383 . S
C984 C985 1.377 . S
C985 H969 0.930 . S
C985 C984 1.377 . S
C985 C986 1.379 . S
C986 H970 0.931 . S
C986 C980 1.383 . S
C986 C985 1.379 . S
H987 C981 0.959 . S
H988 C981 0.961 . S
H989 C981 0.960 . S
H990 C982 0.930 . S
H991 C983 0.929 . S
H992 C1000 0.925 1_455 S
H993 C1002 0.930 . S
H994 C1004 0.930 . S
H995 C1007 0.929 . S
H996 C1010 0.930 . S
H997 C1012 0.960 . S
H998 C1012 0.960 . S
H999 C1012 0.960 . S
C1000 H992 0.925 1_655 S
C1000 C1001 1.382 . S
C1000 C1002 1.383 1_655 S
C1001 C1000 1.382 . S
C1001 C1007 1.390 . S
C1002 H993 0.930 . S
C1002 C1000 1.383 1_455 S
C1002 C1003 1.372 1_455 S
C1003 C1002 1.372 1_655 S
C1003 C1004 1.400 . S
C1003 C1008 1.490 . S
C1004 H994 0.930 . S
C1004 C1003 1.400 . S
C1004 C1007 1.386 . S
H1005 C1021 0.930 . S
H1006 C1022 0.931 . S
C1007 H995 0.929 . S
C1007 C1001 1.390 . S
C1007 C1004 1.386 . S
C1008 C1003 1.490 . S
C1008 C1010 1.395 . S
C1008 C1011 1.403 . S
H1009 C1015 0.930 . S
C1010 H996 0.930 . S
C1010 C1008 1.395 . S
C1010 C1013 1.403 . S
C1011 C1008 1.403 . S
C1011 C1012 1.524 . S
C1011 C1015 1.400 . S
C1012 H997 0.960 . S
C1012 H998 0.960 . S
C1012 H999 0.960 . S
C1012 C1011 1.524 . S
C1013 C1010 1.403 . S
C1013 C1014 1.392 . S
C1013 C1017 1.495 1_655 S
C1014 C1013 1.392 . S
C1014 C1015 1.385 . S
C1014 C1016 1.478 . S
C1015 H1009 0.930 . S
C1015 C1011 1.400 . S
C1015 C1014 1.385 . S
C1016 C1014 1.478 . S
C1016 C1018 1.381 1_655 S
C1016 C1022 1.383 . S
C1017 C1013 1.495 1_455 S
C1017 H1023 0.959 . S
C1017 H1024 0.961 1_455 S
C1017 H1025 0.960 . S
C1018 C1016 1.381 1_455 S
C1018 C1019 1.394 . S
C1018 H1026 0.930 . S
C1019 C1018 1.394 . S
C1019 C1020 1.383 1_455 S
C1019 H1027 0.929 . S
C1020 C1019 1.383 1_655 S
C1020 C1021 1.377 . S
C1021 H1005 0.930 . S
C1021 C1020 1.377 . S
C1021 C1022 1.379 . S
C1022 H1006 0.931 . S
C1022 C1016 1.383 . S
C1022 C1021 1.379 . S
H1023 C1017 0.959 . S
H1024 C1017 0.961 1_655 S
H1025 C1017 0.960 . S
H1026 C1018 0.930 . S
H1027 C1019 0.929 . S
H1028 C1036 0.929 . S
H1029 C1038 0.930 . S
H1030 C1040 0.930 . S
H1031 C1043 0.929 . S
H1032 C1046 0.930 . S
H1033 C1048 0.960 . S
H1034 C1048 0.960 . S
H1035 C1048 0.960 . S
C1036 H1028 0.929 . S
C1036 C1037 1.377 . S
C1036 C1038 1.384 . S
C1037 C1036 1.377 . S
C1037 C1043 1.390 . S
C1038 H1029 0.930 . S
C1038 C1036 1.384 . S
C1038 C1039 1.372 . S
C1039 C1038 1.372 . S
C1039 C1040 1.400 . S
C1039 C1044 1.490 . S
C1040 H1030 0.930 . S
C1040 C1039 1.400 . S
C1040 C1043 1.386 . S
H1041 C1057 0.930 . S
H1042 C1058 0.931 . S
C1043 H1031 0.929 . S
C1043 C1037 1.390 . S
C1043 C1040 1.386 . S
C1044 C1039 1.490 . S
C1044 C1046 1.395 . S
C1044 C1047 1.403 . S
H1045 C1051 0.930 . S
C1046 H1032 0.930 . S
C1046 C1044 1.395 . S
C1046 C1049 1.403 . S
C1047 C1044 1.403 . S
C1047 C1048 1.524 . S
C1047 C1051 1.400 . S
C1048 H1033 0.960 . S
C1048 H1034 0.960 . S
C1048 H1035 0.960 . S
C1048 C1047 1.524 . S
C1049 C1046 1.403 . S
C1049 C1050 1.392 . S
C1049 C1053 1.495 . S
C1050 C1049 1.392 . S
C1050 C1051 1.385 . S
C1050 C1052 1.478 . S
C1051 H1045 0.930 . S
C1051 C1047 1.400 . S
C1051 C1050 1.385 . S
C1052 C1050 1.478 . S
C1052 C1054 1.381 . S
C1052 C1058 1.383 . S
C1053 C1049 1.495 . S
C1053 H1059 0.959 . S
C1053 H1060 0.961 . S
C1053 H1061 0.960 . S
C1054 C1052 1.381 . S
C1054 C1055 1.394 . S
C1054 H1062 0.930 . S
C1055 C1054 1.394 . S
C1055 C1056 1.383 . S
C1055 H1063 0.929 . S
C1056 C1055 1.383 . S
C1056 C1057 1.377 . S
C1057 H1041 0.930 . S
C1057 C1056 1.377 . S
C1057 C1058 1.379 . S
C1058 H1042 0.931 . S
C1058 C1052 1.383 . S
C1058 C1057 1.379 . S
H1059 C1053 0.959 . S
H1060 C1053 0.961 . S
H1061 C1053 0.960 . S
H1062 C1054 0.930 . S
H1063 C1055 0.929 . S
H1064 C1072 0.929 . S
H1065 C1074 0.930 . S
H1066 C1076 0.930 . S
H1067 C1079 0.929 . S
H1068 C1082 0.930 . S
H1069 C1084 0.960 . S
H1070 C1084 0.960 . S
H1071 C1084 0.960 . S
C1072 H1064 0.929 . S
C1072 C1073 1.377 . S
C1072 C1074 1.384 . S
C1073 C1072 1.377 . S
C1073 C1079 1.390 . S
C1074 H1065 0.930 . S
C1074 C1072 1.384 . S
C1074 C1075 1.372 . S
C1075 C1074 1.372 . S
C1075 C1076 1.400 . S
C1075 C1080 1.490 . S
C1076 H1066 0.930 . S
C1076 C1075 1.400 . S
C1076 C1079 1.386 . S
H1077 C1093 0.930 . S
H1078 C1094 0.931 . S
C1079 H1067 0.929 . S
C1079 C1073 1.390 . S
C1079 C1076 1.386 . S
C1080 C1075 1.490 . S
C1080 C1082 1.395 . S
C1080 C1083 1.403 . S
H1081 C1087 0.930 . S
C1082 H1068 0.930 . S
C1082 C1080 1.395 . S
C1082 C1085 1.403 1_556 S
C1083 C1080 1.403 . S
C1083 C1084 1.524 . S
C1083 C1087 1.400 1_556 S
C1084 H1069 0.960 . S
C1084 H1070 0.960 . S
C1084 H1071 0.960 . S
C1084 C1083 1.524 . S
C1085 C1082 1.403 1_554 S
C1085 C1086 1.392 . S
C1085 C1089 1.495 . S
C1086 C1085 1.392 . S
C1086 C1087 1.385 . S
C1086 C1088 1.478 . S
C1087 H1081 0.930 . S
C1087 C1083 1.400 1_554 S
C1087 C1086 1.385 . S
C1088 C1086 1.478 . S
C1088 C1090 1.381 . S
C1088 C1094 1.383 . S
C1089 C1085 1.495 . S
C1089 H1095 0.959 . S
C1089 H1096 0.961 . S
C1089 H1097 0.960 . S
C1090 C1088 1.381 . S
C1090 C1091 1.394 . S
C1090 H1098 0.930 . S
C1091 C1090 1.394 . S
C1091 C1092 1.383 . S
C1091 H1099 0.929 . S
C1092 C1091 1.383 . S
C1092 C1093 1.377 . S
C1093 H1077 0.930 . S
C1093 C1092 1.377 . S
C1093 C1094 1.379 . S
C1094 H1078 0.931 . S
C1094 C1088 1.383 . S
C1094 C1093 1.379 . S
H1095 C1089 0.959 . S
H1096 C1089 0.961 . S
H1097 C1089 0.960 . S
H1098 C1090 0.930 . S
H1099 C1091 0.929 . S
H1100 C1108 0.929 . S
H1101 C1110 0.930 . S
H1102 C1112 0.930 . S
H1103 C1115 0.929 . S
H1104 C1118 0.930 . S
H1105 C1120 0.960 . S
H1106 C1120 0.960 . S
H1107 C1120 0.960 . S
C1108 H1100 0.929 . S
C1108 C1109 1.377 1_565 S
C1108 C1110 1.384 . S
C1109 C1108 1.377 1_545 S
C1109 C1115 1.390 . S
C1110 H1101 0.930 . S
C1110 C1108 1.384 . S
C1110 C1111 1.372 1_565 S
C1111 C1110 1.372 1_545 S
C1111 C1112 1.400 . S
C1111 C1116 1.490 . S
C1112 H1102 0.930 . S
C1112 C1111 1.400 . S
C1112 C1115 1.386 . S
H1113 C1129 0.930 . S
H1114 C1130 0.931 . S
C1115 H1103 0.929 . S
C1115 C1109 1.390 . S
C1115 C1112 1.386 . S
C1116 C1111 1.490 . S
C1116 C1118 1.395 1_545 S
C1116 C1119 1.403 . S
H1117 C1123 0.930 . S
C1118 H1104 0.930 . S
C1118 C1116 1.395 1_565 S
C1118 C1121 1.403 . S
C1119 C1116 1.403 . S
C1119 C1120 1.524 . S
C1119 C1123 1.400 . S
C1120 H1105 0.960 . S
C1120 H1106 0.960 . S
C1120 H1107 0.960 . S
C1120 C1119 1.524 . S
C1121 C1118 1.403 . S
C1121 C1122 1.392 1_565 S
C1121 C1125 1.495 . S
C1122 C1121 1.392 1_545 S
C1122 C1123 1.385 . S
C1122 C1124 1.478 . S
C1123 H1117 0.930 . S
C1123 C1119 1.400 . S
C1123 C1122 1.385 . S
C1124 C1122 1.478 . S
C1124 C1126 1.380 1_545 S
C1124 C1130 1.383 . S
C1125 C1121 1.495 . S
C1125 H1131 0.959 . S
C1125 H1132 0.961 . S
C1125 H1133 0.960 . S
C1126 C1124 1.380 1_565 S
C1126 C1127 1.394 1_565 S
C1126 H1134 0.932 . S
C1127 C1126 1.394 1_545 S
C1127 C1128 1.383 . S
C1127 H1135 0.929 1_545 S
C1128 C1127 1.383 . S
C1128 C1129 1.377 . S
C1129 H1113 0.930 . S
C1129 C1128 1.377 . S
C1129 C1130 1.379 . S
C1130 H1114 0.931 . S
C1130 C1124 1.383 . S
C1130 C1129 1.379 . S
H1131 C1125 0.959 . S
H1132 C1125 0.961 . S
H1133 C1125 0.960 . S
H1134 C1126 0.932 . S
H1135 C1127 0.929 1_565 S
H1136 C1144 0.929 . S
H1137 C1146 0.930 . S
H1138 C1148 0.930 . S
H1139 C1151 0.929 . S
H1140 C1154 0.930 . S
H1141 C1156 0.960 . S
H1142 C1156 0.960 . S
H1143 C1156 0.960 . S
C1144 H1136 0.929 . S
C1144 C1145 1.377 . S
C1144 C1146 1.384 . S
C1145 C1144 1.377 . S
C1145 C1151 1.390 . S
C1146 H1137 0.930 . S
C1146 C1144 1.384 . S
C1146 C1147 1.372 . S
C1147 C1146 1.372 . S
C1147 C1148 1.400 . S
C1147 C1152 1.490 . S
C1148 H1138 0.930 . S
C1148 C1147 1.400 . S
C1148 C1151 1.386 . S
H1149 C1165 0.930 . S
H1150 C1166 0.931 . S
C1151 H1139 0.929 . S
C1151 C1145 1.390 . S
C1151 C1148 1.386 . S
C1152 C1147 1.490 . S
C1152 C1154 1.395 . S
C1152 C1155 1.403 . S
H1153 C1159 0.930 . S
C1154 H1140 0.930 . S
C1154 C1152 1.395 . S
C1154 C1157 1.403 1_554 S
C1155 C1152 1.403 . S
C1155 C1156 1.524 . S
C1155 C1159 1.400 1_554 S
C1156 H1141 0.960 . S
C1156 H1142 0.960 . S
C1156 H1143 0.960 . S
C1156 C1155 1.524 . S
C1157 C1154 1.403 1_556 S
C1157 C1158 1.392 . S
C1157 C1161 1.495 . S
C1158 C1157 1.392 . S
C1158 C1159 1.385 . S
C1158 C1160 1.478 . S
C1159 H1153 0.930 . S
C1159 C1155 1.400 1_556 S
C1159 C1158 1.385 . S
C1160 C1158 1.478 . S
C1160 C1162 1.381 . S
C1160 C1166 1.383 . S
C1161 C1157 1.495 . S
C1161 H1167 0.959 . S
C1161 H1168 0.961 . S
C1161 H1169 0.960 . S
C1162 C1160 1.381 . S
C1162 C1163 1.394 . S
C1162 H1170 0.930 . S
C1163 C1162 1.394 . S
C1163 C1164 1.383 . S
C1163 H1171 0.929 . S
C1164 C1163 1.383 . S
C1164 C1165 1.377 . S
C1165 H1149 0.930 . S
C1165 C1164 1.377 . S
C1165 C1166 1.379 . S
C1166 H1150 0.931 . S
C1166 C1160 1.383 . S
C1166 C1165 1.379 . S
H1167 C1161 0.959 . S
H1168 C1161 0.961 . S
H1169 C1161 0.960 . S
H1170 C1162 0.930 . S
H1171 C1163 0.929 . S
H1172 C1180 0.929 . S
H1173 C1182 0.930 . S
H1174 C1184 0.930 . S
H1175 C1187 0.929 . S
H1176 C1190 0.930 1_545 S
H1177 C1192 0.960 . S
H1178 C1192 0.960 . S
H1179 C1192 0.960 . S
C1180 H1172 0.929 . S
C1180 C1181 1.377 1_545 S
C1180 C1182 1.384 . S
C1181 C1180 1.377 1_565 S
C1181 C1187 1.390 . S
C1182 H1173 0.930 . S
C1182 C1180 1.384 . S
C1182 C1183 1.372 1_545 S
C1183 C1182 1.372 1_565 S
C1183 C1184 1.400 . S
C1183 C1188 1.490 . S
C1184 H1174 0.930 . S
C1184 C1183 1.400 . S
C1184 C1187 1.386 . S
H1185 C1201 0.930 . S
H1186 C1202 0.931 . S
C1187 H1175 0.929 . S
C1187 C1181 1.390 . S
C1187 C1184 1.386 . S
C1188 C1183 1.490 . S
C1188 C1190 1.395 . S
C1188 C1191 1.403 . S
H1189 C1195 0.930 . S
C1190 H1176 0.930 1_565 S
C1190 C1188 1.395 . S
C1190 C1193 1.403 . S
C1191 C1188 1.403 . S
C1191 C1192 1.524 . S
C1191 C1195 1.400 . S
C1192 H1177 0.960 . S
C1192 H1178 0.960 . S
C1192 H1179 0.960 . S
C1192 C1191 1.524 . S
C1193 C1190 1.403 . S
C1193 C1194 1.392 . S
C1193 C1197 1.495 1_565 S
C1194 C1193 1.392 . S
C1194 C1195 1.385 . S
C1194 C1196 1.478 . S
C1195 H1189 0.930 . S
C1195 C1191 1.400 . S
C1195 C1194 1.385 . S
C1196 C1194 1.478 . S
C1196 C1198 1.381 1_565 S
C1196 C1202 1.383 . S
C1197 C1193 1.495 1_545 S
C1197 H1203 0.959 . S
C1197 H1204 0.961 1_545 S
C1197 H1205 0.960 . S
C1198 C1196 1.381 1_545 S
C1198 C1199 1.399 . S
C1198 H1206 0.930 . S
C1199 C1198 1.399 . S
C1199 C1200 1.351 1_545 S
C1199 H1207 0.958 . S
C1200 C1199 1.351 1_565 S
C1200 C1201 1.377 . S
C1201 H1185 0.930 . S
C1201 C1200 1.377 . S
C1201 C1202 1.379 . S
C1202 H1186 0.931 . S
C1202 C1196 1.383 . S
C1202 C1201 1.379 . S
H1203 C1197 0.959 . S
H1204 C1197 0.961 1_565 S
H1205 C1197 0.960 . S
H1206 C1198 0.930 . S
H1207 C1199 0.958 . S
H1208 C1216 0.929 . S
H1209 C1218 0.930 . S
H1210 C1220 0.930 . S
H1211 C1223 0.929 . S
H1212 C1226 0.930 . S
H1213 C1228 0.960 . S
H1214 C1228 0.960 . S
H1215 C1228 0.960 . S
C1216 H1208 0.929 . S
C1216 C1217 1.377 . S
C1216 C1218 1.384 . S
C1217 C1216 1.377 . S
C1217 C1223 1.390 . S
C1218 H1209 0.930 . S
C1218 C1216 1.384 . S
C1218 C1219 1.372 . S
C1219 C1218 1.372 . S
C1219 C1220 1.400 . S
C1219 C1224 1.490 . S
C1220 H1210 0.930 . S
C1220 C1219 1.400 . S
C1220 C1223 1.386 . S
H1221 C1237 0.930 . S
H1222 C1238 0.931 . S
C1223 H1211 0.929 . S
C1223 C1217 1.390 . S
C1223 C1220 1.386 . S
C1224 C1219 1.490 . S
C1224 C1226 1.395 1_455 S
C1224 C1227 1.403 . S
H1225 C1231 0.930 . S
C1226 H1212 0.930 . S
C1226 C1224 1.395 1_655 S
C1226 C1229 1.403 . S
C1227 C1224 1.403 . S
C1227 C1228 1.524 . S
C1227 C1231 1.400 . S
C1228 H1213 0.960 . S
C1228 H1214 0.960 . S
C1228 H1215 0.960 . S
C1228 C1227 1.524 . S
C1229 C1226 1.403 . S
C1229 C1230 1.392 1_655 S
C1229 C1233 1.495 . S
C1230 C1229 1.392 1_455 S
C1230 C1231 1.385 . S
C1230 C1232 1.478 . S
C1231 H1225 0.930 . S
C1231 C1227 1.400 . S
C1231 C1230 1.385 . S
C1232 C1230 1.478 . S
C1232 C1234 1.381 . S
C1232 C1238 1.383 1_455 S
C1233 C1229 1.495 . S
C1233 H1239 0.959 . S
C1233 H1240 0.961 . S
C1233 H1241 0.960 . S
C1234 C1232 1.381 . S
C1234 C1235 1.394 . S
C1234 H1242 0.930 . S
C1235 C1234 1.394 . S
C1235 C1236 1.383 . S
C1235 H1243 0.929 . S
C1236 C1235 1.383 . S
C1236 C1237 1.377 1_455 S
C1237 H1221 0.930 . S
C1237 C1236 1.377 1_655 S
C1237 C1238 1.379 . S
C1238 H1222 0.931 . S
C1238 C1232 1.383 1_655 S
C1238 C1237 1.379 . S
H1239 C1233 0.959 . S
H1240 C1233 0.961 . S
H1241 C1233 0.960 . S
H1242 C1234 0.930 . S
H1243 C1235 0.929 . S
H1244 C1252 0.929 . S
H1245 C1254 0.930 . S
H1246 C1256 0.930 . S
H1247 C1259 0.929 . S
H1248 C1262 0.930 . S
H1249 C1264 0.960 . S
H1250 C1264 0.960 . S
H1251 C1264 0.960 . S
C1252 H1244 0.929 . S
C1252 C1253 1.377 . S
C1252 C1254 1.384 . S
C1253 C1252 1.377 . S
C1253 C1259 1.390 . S
C1254 H1245 0.930 . S
C1254 C1252 1.384 . S
C1254 C1255 1.372 . S
C1255 C1254 1.372 . S
C1255 C1256 1.400 . S
C1255 C1260 1.490 . S
C1256 H1246 0.930 . S
C1256 C1255 1.400 . S
C1256 C1259 1.386 . S
H1257 C1273 0.930 . S
H1258 C1274 0.931 . S
C1259 H1247 0.929 . S
C1259 C1253 1.390 . S
C1259 C1256 1.386 . S
C1260 C1255 1.490 . S
C1260 C1262 1.395 . S
C1260 C1263 1.403 . S
H1261 C1267 0.930 . S
C1262 H1248 0.930 . S
C1262 C1260 1.395 . S
C1262 C1265 1.403 . S
C1263 C1260 1.403 . S
C1263 C1264 1.524 . S
C1263 C1267 1.400 . S
C1264 H1249 0.960 . S
C1264 H1250 0.960 . S
C1264 H1251 0.960 . S
C1264 C1263 1.524 . S
C1265 C1262 1.403 . S
C1265 C1266 1.392 . S
C1265 C1269 1.495 . S
C1266 C1265 1.392 . S
C1266 C1267 1.385 . S
C1266 C1268 1.478 . S
C1267 H1261 0.930 . S
C1267 C1263 1.400 . S
C1267 C1266 1.385 . S
C1268 C1266 1.478 . S
C1268 C1270 1.381 . S
C1268 C1274 1.383 . S
C1269 C1265 1.495 . S
C1269 H1275 0.959 . S
C1269 H1276 0.961 . S
C1269 H1277 0.960 . S
C1270 C1268 1.381 . S
C1270 C1271 1.394 . S
C1270 H1278 0.930 . S
C1271 C1270 1.394 . S
C1271 C1272 1.383 . S
C1271 H1279 0.929 . S
C1272 C1271 1.383 . S
C1272 C1273 1.377 . S
C1273 H1257 0.930 . S
C1273 C1272 1.377 . S
C1273 C1274 1.379 . S
C1274 H1258 0.931 . S
C1274 C1268 1.383 . S
C1274 C1273 1.379 . S
H1275 C1269 0.959 . S
H1276 C1269 0.961 . S
H1277 C1269 0.960 . S
H1278 C1270 0.930 . S
H1279 C1271 0.929 . S
C281 C232 0.307 . S
C300 C28 0.411 . S
C317 C62 0.316 . S
C336 C244 0.212 . S
C353 C164 0.309 . S
C372 C96 0.222 . S
C389 C108 0.311 . S
C408 C198 0.217 . S
C425 C171 2.123 . S
C444 C3 2.169 . S
C461 C37 2.161 . S
C480 C205 2.121 . S
C497 C71 2.158 . S
C516 C241 2.118 . S
C533 C103 2.156 . S
C552 C137 2.135 . S
C569 C130 1.439 . S
C588 C17 1.424 . S
C605 C51 1.416 . S
C624 C6 1.445 . S
C641 C40 1.438 . S
C660 C85 1.433 . S
C677 C119 1.420 . S
C696 C74 1.447 . S
C713 C35 2.123 . S
C732 C139 2.165 . S
C749 C69 2.130 . S
C768 C173 2.148 . S
C785 C105 2.129 . S
C804 C207 2.143 . S
C821 C239 2.161 . S
C840 C1 2.103 . S
C857 C266 1.436 . S
C876 C153 1.435 . S
C893 C187 1.419 . S
C912 C142 1.428 . S
C929 C221 1.420 . S
C948 C176 1.433 . S
C965 C210 1.438 . S
C984 C255 1.412 . S
C1001 C22 1.375 . S
C1020 C15 1.350 . S
C1037 C49 1.384 1_556 S
C1056 C56 1.346 . S
C1073 C90 1.377 . S
C1092 C83 1.345 . S
C1109 C124 1.378 . S
C1128 C117 1.348 1_554 S
C1145 C151 1.382 . S
C1164 C158 1.401 . S
C1181 C185 1.382 . S
C1200 C192 1.342 1_554 S
C1217 C226 1.383 . S
C1236 C219 1.414 . S
C1253 C253 1.390 . S
C1272 C260 1.416 1_556 S
