# Generated by pormake.
# Topology wlm, (5)-cn, num edge types: 1
# Building blocks:
#     Node 0, Type 0, BuildingBlock: BEQFEK_clean_sbu_0, # of connection points: 5
#     Node 1, Type 0, BuildingBlock: BEQFEK_clean_sbu_0, # of connection points: 5
#     Node 2, Type 0, BuildingBlock: BEQFEK_clean_sbu_0, # of connection points: 5
#     Node 3, Type 0, BuildingBlock: BEQFEK_clean_sbu_0, # of connection points: 5
#     Node 4, Type 0, BuildingBlock: BEQFEK_clean_sbu_0, # of connection points: 5
#     Node 5, Type 0, BuildingBlock: BEQFEK_clean_sbu_0, # of connection points: 5
#     Node 6, Type 0, BuildingBlock: BEQFEK_clean_sbu_0, # of connection points: 5
#     Node 7, Type 0, BuildingBlock: BEQFEK_clean_sbu_0, # of connection points: 5
#     Node 8, Type 0, BuildingBlock: BEQFEK_clean_sbu_0, # of connection points: 5
#     Node 9, Type 0, BuildingBlock: BEQFEK_clean_sbu_0, # of connection points: 5
#     Node 10, Type 0, BuildingBlock: BEQFEK_clean_sbu_0, # of connection points: 5
#     Node 11, Type 0, BuildingBlock: BEQFEK_clean_sbu_0, # of connection points: 5
#     Node 12, Type 0, BuildingBlock: BEQFEK_clean_sbu_0, # of connection points: 5
#     Node 13, Type 0, BuildingBlock: BEQFEK_clean_sbu_0, # of connection points: 5
#     Node 14, Type 0, BuildingBlock: BEQFEK_clean_sbu_0, # of connection points: 5
#     Node 15, Type 0, BuildingBlock: BEQFEK_clean_sbu_0, # of connection points: 5
#     Node 16, Type 0, BuildingBlock: BEQFEK_clean_sbu_0, # of connection points: 5
#     Node 17, Type 0, BuildingBlock: BEQFEK_clean_sbu_0, # of connection points: 5
#     Node 18, Type 0, BuildingBlock: BEQFEK_clean_sbu_0, # of connection points: 5
#     Node 19, Type 0, BuildingBlock: BEQFEK_clean_sbu_0, # of connection points: 5
#     Node 20, Type 0, BuildingBlock: BEQFEK_clean_sbu_0, # of connection points: 5
#     Node 21, Type 0, BuildingBlock: BEQFEK_clean_sbu_0, # of connection points: 5
#     Node 22, Type 0, BuildingBlock: BEQFEK_clean_sbu_0, # of connection points: 5
#     Node 23, Type 0, BuildingBlock: BEQFEK_clean_sbu_0, # of connection points: 5
#     Node 24, Type 0, BuildingBlock: BEQFEK_clean_sbu_0, # of connection points: 5
#     Node 25, Type 0, BuildingBlock: BEQFEK_clean_sbu_0, # of connection points: 5
#     Node 26, Type 0, BuildingBlock: BEQFEK_clean_sbu_0, # of connection points: 5
#     Node 27, Type 0, BuildingBlock: BEQFEK_clean_sbu_0, # of connection points: 5
#     Node 28, Type 0, BuildingBlock: BEQFEK_clean_sbu_0, # of connection points: 5
#     Node 29, Type 0, BuildingBlock: BEQFEK_clean_sbu_0, # of connection points: 5
#     Node 30, Type 0, BuildingBlock: BEQFEK_clean_sbu_0, # of connection points: 5
#     Node 31, Type 0, BuildingBlock: BEQFEK_clean_sbu_0, # of connection points: 5
#     Node 32, Type 0, BuildingBlock: BEQFEK_clean_sbu_0, # of connection points: 5
#     Node 33, Type 0, BuildingBlock: BEQFEK_clean_sbu_0, # of connection points: 5
#     Node 34, Type 0, BuildingBlock: BEQFEK_clean_sbu_0, # of connection points: 5
#     Node 35, Type 0, BuildingBlock: BEQFEK_clean_sbu_0, # of connection points: 5
#     Edge 36, Type (0, 0), BuildingBlock: XUDNAN_clean_linker_2, # of connection points: 2
#     Edge 37, Type (0, 0), BuildingBlock: XUDNAN_clean_linker_2, # of connection points: 2
#     Edge 38, Type (0, 0), BuildingBlock: XUDNAN_clean_linker_2, # of connection points: 2
#     Edge 39, Type (0, 0), BuildingBlock: XUDNAN_clean_linker_2, # of connection points: 2
#     Edge 40, Type (0, 0), BuildingBlock: XUDNAN_clean_linker_2, # of connection points: 2
#     Edge 41, Type (0, 0), BuildingBlock: XUDNAN_clean_linker_2, # of connection points: 2
#     Edge 42, Type (0, 0), BuildingBlock: XUDNAN_clean_linker_2, # of connection points: 2
#     Edge 43, Type (0, 0), BuildingBlock: XUDNAN_clean_linker_2, # of connection points: 2
#     Edge 44, Type (0, 0), BuildingBlock: XUDNAN_clean_linker_2, # of connection points: 2
#     Edge 45, Type (0, 0), BuildingBlock: XUDNAN_clean_linker_2, # of connection points: 2
#     Edge 46, Type (0, 0), BuildingBlock: XUDNAN_clean_linker_2, # of connection points: 2
#     Edge 47, Type (0, 0), BuildingBlock: XUDNAN_clean_linker_2, # of connection points: 2
#     Edge 48, Type (0, 0), BuildingBlock: XUDNAN_clean_linker_2, # of connection points: 2
#     Edge 49, Type (0, 0), BuildingBlock: XUDNAN_clean_linker_2, # of connection points: 2
#     Edge 50, Type (0, 0), BuildingBlock: XUDNAN_clean_linker_2, # of connection points: 2
#     Edge 51, Type (0, 0), BuildingBlock: XUDNAN_clean_linker_2, # of connection points: 2
#     Edge 52, Type (0, 0), BuildingBlock: XUDNAN_clean_linker_2, # of connection points: 2
#     Edge 53, Type (0, 0), BuildingBlock: XUDNAN_clean_linker_2, # of connection points: 2
#     Edge 54, Type (0, 0), BuildingBlock: XUDNAN_clean_linker_2, # of connection points: 2
#     Edge 55, Type (0, 0), BuildingBlock: XUDNAN_clean_linker_2, # of connection points: 2
#     Edge 56, Type (0, 0), BuildingBlock: XUDNAN_clean_linker_2, # of connection points: 2
#     Edge 57, Type (0, 0), BuildingBlock: XUDNAN_clean_linker_2, # of connection points: 2
#     Edge 58, Type (0, 0), BuildingBlock: XUDNAN_clean_linker_2, # of connection points: 2
#     Edge 59, Type (0, 0), BuildingBlock: XUDNAN_clean_linker_2, # of connection points: 2
#     Edge 60, Type (0, 0), BuildingBlock: XUDNAN_clean_linker_2, # of connection points: 2
#     Edge 61, Type (0, 0), BuildingBlock: XUDNAN_clean_linker_2, # of connection points: 2
#     Edge 62, Type (0, 0), BuildingBlock: XUDNAN_clean_linker_2, # of connection points: 2
#     Edge 63, Type (0, 0), BuildingBlock: XUDNAN_clean_linker_2, # of connection points: 2
#     Edge 64, Type (0, 0), BuildingBlock: XUDNAN_clean_linker_2, # of connection points: 2
#     Edge 65, Type (0, 0), BuildingBlock: XUDNAN_clean_linker_2, # of connection points: 2
#     Edge 66, Type (0, 0), BuildingBlock: XUDNAN_clean_linker_2, # of connection points: 2
#     Edge 67, Type (0, 0), BuildingBlock: XUDNAN_clean_linker_2, # of connection points: 2
#     Edge 68, Type (0, 0), BuildingBlock: XUDNAN_clean_linker_2, # of connection points: 2
#     Edge 69, Type (0, 0), BuildingBlock: XUDNAN_clean_linker_2, # of connection points: 2
#     Edge 70, Type (0, 0), BuildingBlock: XUDNAN_clean_linker_2, # of connection points: 2
#     Edge 71, Type (0, 0), BuildingBlock: XUDNAN_clean_linker_2, # of connection points: 2
#     Edge 72, Type (0, 0), BuildingBlock: XUDNAN_clean_linker_2, # of connection points: 2
#     Edge 73, Type (0, 0), BuildingBlock: XUDNAN_clean_linker_2, # of connection points: 2
#     Edge 74, Type (0, 0), BuildingBlock: XUDNAN_clean_linker_2, # of connection points: 2
#     Edge 75, Type (0, 0), BuildingBlock: XUDNAN_clean_linker_2, # of connection points: 2
#     Edge 76, Type (0, 0), BuildingBlock: XUDNAN_clean_linker_2, # of connection points: 2
#     Edge 77, Type (0, 0), BuildingBlock: XUDNAN_clean_linker_2, # of connection points: 2
#     Edge 78, Type (0, 0), BuildingBlock: XUDNAN_clean_linker_2, # of connection points: 2
#     Edge 79, Type (0, 0), BuildingBlock: XUDNAN_clean_linker_2, # of connection points: 2
#     Edge 80, Type (0, 0), BuildingBlock: XUDNAN_clean_linker_2, # of connection points: 2
#     Edge 81, Type (0, 0), BuildingBlock: XUDNAN_clean_linker_2, # of connection points: 2
#     Edge 82, Type (0, 0), BuildingBlock: XUDNAN_clean_linker_2, # of connection points: 2
#     Edge 83, Type (0, 0), BuildingBlock: XUDNAN_clean_linker_2, # of connection points: 2
#     Edge 84, Type (0, 0), BuildingBlock: XUDNAN_clean_linker_2, # of connection points: 2
#     Edge 85, Type (0, 0), BuildingBlock: XUDNAN_clean_linker_2, # of connection points: 2
#     Edge 86, Type (0, 0), BuildingBlock: XUDNAN_clean_linker_2, # of connection points: 2
#     Edge 87, Type (0, 0), BuildingBlock: XUDNAN_clean_linker_2, # of connection points: 2
#     Edge 88, Type (0, 0), BuildingBlock: XUDNAN_clean_linker_2, # of connection points: 2
#     Edge 89, Type (0, 0), BuildingBlock: XUDNAN_clean_linker_2, # of connection points: 2
#     Edge 90, Type (0, 0), BuildingBlock: XUDNAN_clean_linker_2, # of connection points: 2
#     Edge 91, Type (0, 0), BuildingBlock: XUDNAN_clean_linker_2, # of connection points: 2
#     Edge 92, Type (0, 0), BuildingBlock: XUDNAN_clean_linker_2, # of connection points: 2
#     Edge 93, Type (0, 0), BuildingBlock: XUDNAN_clean_linker_2, # of connection points: 2
#     Edge 94, Type (0, 0), BuildingBlock: XUDNAN_clean_linker_2, # of connection points: 2
#     Edge 95, Type (0, 0), BuildingBlock: XUDNAN_clean_linker_2, # of connection points: 2
#     Edge 96, Type (0, 0), BuildingBlock: XUDNAN_clean_linker_2, # of connection points: 2
#     Edge 97, Type (0, 0), BuildingBlock: XUDNAN_clean_linker_2, # of connection points: 2
#     Edge 98, Type (0, 0), BuildingBlock: XUDNAN_clean_linker_2, # of connection points: 2
#     Edge 99, Type (0, 0), BuildingBlock: XUDNAN_clean_linker_2, # of connection points: 2
#     Edge 100, Type (0, 0), BuildingBlock: XUDNAN_clean_linker_2, # of connection points: 2
#     Edge 101, Type (0, 0), BuildingBlock: XUDNAN_clean_linker_2, # of connection points: 2
#     Edge 102, Type (0, 0), BuildingBlock: XUDNAN_clean_linker_2, # of connection points: 2
#     Edge 103, Type (0, 0), BuildingBlock: XUDNAN_clean_linker_2, # of connection points: 2
#     Edge 104, Type (0, 0), BuildingBlock: XUDNAN_clean_linker_2, # of connection points: 2
#     Edge 105, Type (0, 0), BuildingBlock: XUDNAN_clean_linker_2, # of connection points: 2
#     Edge 106, Type (0, 0), BuildingBlock: XUDNAN_clean_linker_2, # of connection points: 2
#     Edge 107, Type (0, 0), BuildingBlock: XUDNAN_clean_linker_2, # of connection points: 2
#     Edge 108, Type (0, 0), BuildingBlock: XUDNAN_clean_linker_2, # of connection points: 2
#     Edge 109, Type (0, 0), BuildingBlock: XUDNAN_clean_linker_2, # of connection points: 2
#     Edge 110, Type (0, 0), BuildingBlock: XUDNAN_clean_linker_2, # of connection points: 2
#     Edge 111, Type (0, 0), BuildingBlock: XUDNAN_clean_linker_2, # of connection points: 2
#     Edge 112, Type (0, 0), BuildingBlock: XUDNAN_clean_linker_2, # of connection points: 2
#     Edge 113, Type (0, 0), BuildingBlock: XUDNAN_clean_linker_2, # of connection points: 2
#     Edge 114, Type (0, 0), BuildingBlock: XUDNAN_clean_linker_2, # of connection points: 2
#     Edge 115, Type (0, 0), BuildingBlock: XUDNAN_clean_linker_2, # of connection points: 2
#     Edge 116, Type (0, 0), BuildingBlock: XUDNAN_clean_linker_2, # of connection points: 2
#     Edge 117, Type (0, 0), BuildingBlock: XUDNAN_clean_linker_2, # of connection points: 2
#     Edge 118, Type (0, 0), BuildingBlock: XUDNAN_clean_linker_2, # of connection points: 2
#     Edge 119, Type (0, 0), BuildingBlock: XUDNAN_clean_linker_2, # of connection points: 2
#     Edge 120, Type (0, 0), BuildingBlock: XUDNAN_clean_linker_2, # of connection points: 2
#     Edge 121, Type (0, 0), BuildingBlock: XUDNAN_clean_linker_2, # of connection points: 2
#     Edge 122, Type (0, 0), BuildingBlock: XUDNAN_clean_linker_2, # of connection points: 2
#     Edge 123, Type (0, 0), BuildingBlock: XUDNAN_clean_linker_2, # of connection points: 2
#     Edge 124, Type (0, 0), BuildingBlock: XUDNAN_clean_linker_2, # of connection points: 2
#     Edge 125, Type (0, 0), BuildingBlock: XUDNAN_clean_linker_2, # of connection points: 2
# Relax obj value: 0.054
# Max RMSD: 0.100
# Mean RMSD: 0.100
data_MOF--net-wlm--node1-BEQFEK_clean_sbu_0--edge1-XUDNAN_clean_linker_2
_symmetry_space_group_name_H-M    P1
_symmetry_Int_Tables_number       1
_symmetry_cell_setting            triclinic
loop_
_symmetry_equiv_pos_as_xyz
'x, y, z'
_cell_length_a     128.2874
_cell_length_b     128.32675
_cell_length_c     19.302949
_cell_angle_alpha  89.982475
_cell_angle_beta   90.012014
_cell_angle_gamma 119.97736
loop_
_atom_site_label
_atom_site_type_symbol
_atom_site_fract_x
_atom_site_fract_y
_atom_site_fract_z
_atom_type_partial_charge
Co0 Co 0.14684 0.40591 0.34065 0.0
Co1 Co 0.14327 0.39625 0.18723 0.0
C2 C 0.16761 0.40822 0.25783 0.0
O3 O 0.16332 0.41015 0.3128 0.0
O4 O 0.16092 0.40294 0.20556 0.0
C5 C 0.15314 0.41101 0.48395 0.0
O6 O 0.16133 0.40817 0.46725 0.0
C7 C 0.14539 0.39904 0.03481 0.0
C8 C 0.12896 0.38258 0.00115 0.0
C9 C 0.13855 0.39321 0.9768 0.0
N10 N 0.13998 0.39223 0.09096 0.0
N11 N 0.13032 0.38228 0.07012 0.0
C12 C 0.15603 0.41148 0.03787 0.0
H13 H 0.15759 0.41496 0.09174 0.0
H14 H 0.15466 0.41758 0.00302 0.0
H15 H 0.16411 0.41124 0.01965 0.0
C16 C 0.1349 0.41864 0.28383 0.0
N17 N 0.13994 0.41169 0.27572 0.0
N18 N 0.1381 0.4075 0.21189 0.0
C19 C 0.13166 0.4116 0.17777 0.0
C20 C 0.12958 0.4189 0.2219 0.0
C21 C 0.13419 0.42391 0.35151 0.0
H22 H 0.14328 0.42885 0.37514 0.0
H23 H 0.13054 0.43008 0.34495 0.0
H24 H 0.1283 0.41653 0.38735 0.0
O25 O 0.13683 0.38831 0.34778 0.0
O26 O 0.13388 0.38097 0.24116 0.0
H27 H 0.11973 0.41042 0.09476 0.0
H28 H 0.1338 0.41185 0.06801 0.0
C29 C 0.12648 0.40767 0.10677 0.0
H30 H 0.12216 0.39776 0.10245 0.0
H31 H 0.12428 0.37557 0.10347 0.0
O32 O 0.14651 0.41152 0.43648 0.0
C33 C 0.13223 0.37942 0.30634 0.0
Co34 Co 0.60075 0.74439 0.31575 0.0
Co35 Co 0.61088 0.74715 0.16429 0.0
C36 C 0.59972 0.76168 0.21761 0.0
O37 O 0.59722 0.75672 0.27718 0.0
O38 O 0.60489 0.75872 0.17159 0.0
C39 C 0.58926 0.73742 0.4682 0.0
O40 O 0.5775 0.73143 0.46193 0.0
C41 C 0.60903 0.74596 0.01079 0.0
C42 C 0.62623 0.74702 0.98303 0.0
C43 C 0.61594 0.74624 0.95447 0.0
N44 N 0.61497 0.74649 0.0695 0.0
N45 N 0.62521 0.74707 0.05233 0.0
C46 C 0.59723 0.74568 0.00916 0.0
H47 H 0.59519 0.74822 0.06004 0.0
H48 H 0.58995 0.73641 0.99711 0.0
H49 H 0.59729 0.7518 0.96826 0.0
C50 C 0.58752 0.71852 0.27304 0.0
N51 N 0.59466 0.73034 0.25934 0.0
N52 N 0.59918 0.73156 0.19657 0.0
C53 C 0.59511 0.72056 0.16875 0.0
C54 C 0.58756 0.71193 0.21599 0.0
C55 C 0.58191 0.71366 0.34206 0.0
H56 H 0.58901 0.71715 0.38249 0.0
H57 H 0.57557 0.71691 0.35436 0.0
H58 H 0.577 0.70368 0.34283 0.0
O59 O 0.61833 0.75155 0.32422 0.0
O60 O 0.62602 0.75345 0.21927 0.0
H61 H 0.60894 0.72287 0.09792 0.0
H62 H 0.59512 0.7086 0.08921 0.0
C63 C 0.59898 0.71833 0.09982 0.0
H64 H 0.59594 0.72221 0.0586 0.0
H65 H 0.6316 0.74766 0.088 0.0
O66 O 0.59589 0.74119 0.41459 0.0
C67 C 0.62732 0.75464 0.28469 0.0
Co68 Co 0.26034 0.85669 0.31374 0.0
Co69 Co 0.25822 0.86347 0.15831 0.0
C70 C 0.24214 0.83845 0.21958 0.0
O71 O 0.24708 0.841 0.27916 0.0
O72 O 0.2457 0.84631 0.1716 0.0
C73 C 0.25835 0.84594 0.44885 0.0
O74 O 0.25064 0.83597 0.41711 0.0
C75 C 0.25919 0.85876 0.01099 0.0
C76 C 0.25925 0.87409 0.959 0.0
C77 C 0.25929 0.86348 0.94578 0.0
N78 N 0.25899 0.86615 0.05976 0.0
N79 N 0.25903 0.87532 0.02833 0.0
C80 C 0.26014 0.84787 0.02782 0.0
H81 H 0.2639 0.84865 0.08056 0.0
H82 H 0.26588 0.84668 0.98933 0.0
H83 H 0.25104 0.83979 0.02682 0.0
C84 C 0.28545 0.86517 0.26733 0.0
N85 N 0.27411 0.86277 0.25558 0.0
N86 N 0.27341 0.86629 0.1924 0.0
C87 C 0.28439 0.87132 0.1628 0.0
C88 C 0.29234 0.8707 0.20898 0.0
C89 C 0.28964 0.86266 0.33427 0.0
H90 H 0.28979 0.86892 0.3744 0.0
H91 H 0.28318 0.85337 0.35151 0.0
H92 H 0.29878 0.86383 0.32935 0.0
O93 O 0.25468 0.86842 0.31527 0.0
O94 O 0.25308 0.87387 0.2083 0.0
H95 H 0.28248 0.88173 0.08199 0.0
H96 H 0.29708 0.88277 0.08471 0.0
C97 C 0.28726 0.87667 0.09165 0.0
H98 H 0.2842 0.86934 0.05292 0.0
H99 H 0.25887 0.88238 0.05413 0.0
O100 O 0.26406 0.85556 0.41365 0.0
C101 C 0.2522 0.87458 0.27379 0.0
Co102 Co 0.40696 0.14648 0.68522 0.0
Co103 Co 0.39686 0.14322 0.83764 0.0
C104 C 0.4097 0.1675 0.76808 0.0
O105 O 0.4118 0.1631 0.71419 0.0
O106 O 0.40391 0.16085 0.81947 0.0
C107 C 0.4099 0.15198 0.54398 0.0
O108 O 0.40473 0.15805 0.56488 0.0
C109 C 0.39854 0.14608 0.9903 0.0
C110 C 0.38345 0.12853 0.0235 0.0
C111 C 0.39311 0.13905 0.04834 0.0
N112 N 0.39243 0.13992 0.93365 0.0
N113 N 0.38323 0.12958 0.95419 0.0
C114 C 0.41019 0.15774 0.98803 0.0
H115 H 0.41466 0.15887 0.93712 0.0
H116 H 0.41626 0.15819 0.03038 0.0
H117 H 0.40833 0.16523 0.99517 0.0
C118 C 0.41832 0.13315 0.7441 0.0
N119 N 0.4119 0.13881 0.75053 0.0
N120 N 0.40796 0.1377 0.81468 0.0
C121 C 0.412 0.13146 0.85138 0.0
C122 C 0.41858 0.12824 0.8079 0.0
C123 C 0.42306 0.13156 0.6765 0.0
H124 H 0.41606 0.12891 0.63592 0.0
H125 H 0.43091 0.14028 0.66081 0.0
H126 H 0.42583 0.12465 0.67985 0.0
O127 O 0.38942 0.13723 0.67625 0.0
O128 O 0.38165 0.13415 0.7818 0.0
H129 H 0.40017 0.12271 0.9368 0.0
H130 H 0.41508 0.1248 0.94842 0.0
C131 C 0.40989 0.12886 0.9273 0.0
H132 H 0.41279 0.13736 0.95552 0.0
H133 H 0.37724 0.1229 0.92053 0.0
O134 O 0.41271 0.14655 0.58907 0.0
C135 C 0.38035 0.13278 0.71632 0.0
Co136 Co 0.86095 0.25908 0.68984 0.0
Co137 Co 0.86107 0.25534 0.84943 0.0
C138 C 0.83861 0.24131 0.76618 0.0
O139 O 0.84409 0.24683 0.71129 0.0
O140 O 0.84407 0.24353 0.82412 0.0
C141 C 0.85322 0.26424 0.56087 0.0
O142 O 0.84434 0.26377 0.59723 0.0
C143 C 0.85585 0.25577 0.99869 0.0
C144 C 0.87294 0.25878 0.04437 0.0
C145 C 0.86197 0.25778 0.06122 0.0
N146 N 0.86305 0.25592 0.94749 0.0
N147 N 0.87317 0.25756 0.97537 0.0
C148 C 0.84328 0.25335 0.98761 0.0
H149 H 0.83924 0.24767 0.94129 0.0
H150 H 0.84343 0.26198 0.97922 0.0
H151 H 0.83756 0.24875 0.03329 0.0
C152 C 0.87036 0.28453 0.73457 0.0
N153 N 0.86626 0.27278 0.74775 0.0
N154 N 0.86605 0.27116 0.81521 0.0
C155 C 0.86998 0.28185 0.84702 0.0
C156 C 0.87276 0.29065 0.79714 0.0
C157 C 0.87147 0.28964 0.66353 0.0
H158 H 0.87599 0.28625 0.62873 0.0
H159 H 0.86233 0.28658 0.64268 0.0
H160 H 0.87654 0.29962 0.66397 0.0
O161 O 0.87149 0.25191 0.69875 0.0
O162 O 0.8717 0.24957 0.81236 0.0
H163 H 0.87711 0.27985 0.94313 0.0
H164 H 0.87649 0.29351 0.93707 0.0
C165 C 0.87174 0.28381 0.92356 0.0
H166 H 0.86286 0.27932 0.94959 0.0
H167 H 0.88038 0.25817 0.947 0.0
O168 O 0.86137 0.26308 0.59117 0.0
C169 C 0.87501 0.2486 0.75169 0.0
Co170 Co 0.74676 0.60279 0.70409 0.0
Co171 Co 0.74828 0.6082 0.86078 0.0
C172 C 0.76307 0.59857 0.79729 0.0
O173 O 0.75875 0.59819 0.73708 0.0
O174 O 0.75968 0.60213 0.84994 0.0
C175 C 0.74141 0.59229 0.55723 0.0
O176 O 0.7417 0.58234 0.56855 0.0
C177 C 0.74767 0.60768 0.01505 0.0
C178 C 0.74059 0.62006 0.03192 0.0
C179 C 0.74399 0.61276 0.06641 0.0
N180 N 0.74621 0.61165 0.95333 0.0
N181 N 0.74212 0.61914 0.96402 0.0
C182 C 0.75289 0.59963 0.02372 0.0
H183 H 0.75871 0.60058 0.97921 0.0
H184 H 0.74548 0.59014 0.026 0.0
H185 H 0.75826 0.60182 0.07205 0.0
C186 C 0.72041 0.58909 0.73816 0.0
N187 N 0.73217 0.59544 0.75592 0.0
N188 N 0.733 0.59733 0.8231 0.0
C189 C 0.72186 0.59195 0.85054 0.0
C190 C 0.71347 0.58673 0.79776 0.0
C191 C 0.716 0.5865 0.66501 0.0
H192 H 0.72046 0.59494 0.63433 0.0
H193 H 0.71853 0.58016 0.64187 0.0
H194 H 0.70609 0.58253 0.66197 0.0
O195 O 0.75428 0.62055 0.70456 0.0
O196 O 0.75512 0.62415 0.8166 0.0
H197 H 0.71983 0.60053 0.94034 0.0
H198 H 0.70993 0.58449 0.9384 0.0
C199 C 0.71916 0.59185 0.92606 0.0
H200 H 0.72569 0.59058 0.95721 0.0
H201 H 0.74015 0.62345 0.92459 0.0
O202 O 0.74322 0.59956 0.60621 0.0
C203 C 0.75702 0.62788 0.7545 0.0
Co204 Co 0.85728 0.59844 0.68107 0.0
Co205 Co 0.86419 0.60718 0.83653 0.0
C206 C 0.83898 0.59791 0.77678 0.0
O207 O 0.84155 0.59575 0.71668 0.0
O208 O 0.84688 0.60221 0.82461 0.0
C209 C 0.84658 0.59026 0.54565 0.0
O210 O 0.83676 0.58855 0.57705 0.0
C211 C 0.8598 0.6015 0.98404 0.0
C212 C 0.87505 0.61696 0.03532 0.0
C213 C 0.86454 0.60623 0.04896 0.0
N214 N 0.86706 0.6091 0.9349 0.0
N215 N 0.87619 0.61832 0.96591 0.0
C216 C 0.84903 0.58954 0.96804 0.0
H217 H 0.84973 0.58656 0.91515 0.0
H218 H 0.8481 0.58271 0.00659 0.0
H219 H 0.84083 0.59034 0.97013 0.0
C220 C 0.8662 0.58208 0.72515 0.0
N221 N 0.86365 0.59088 0.73807 0.0
N222 N 0.86723 0.59502 0.80127 0.0
C223 C 0.87245 0.58917 0.8298 0.0
C224 C 0.8719 0.58072 0.78277 0.0
C225 C 0.86374 0.57559 0.6575 0.0
H226 H 0.85421 0.57214 0.6426 0.0
H227 H 0.86563 0.56806 0.65998 0.0
H228 H 0.86945 0.58203 0.61683 0.0
O229 O 0.86879 0.61586 0.67965 0.0
O230 O 0.87429 0.62282 0.78667 0.0
H231 H 0.88377 0.58775 0.90837 0.0
H232 H 0.87032 0.58717 0.93954 0.0
C233 C 0.8777 0.59149 0.90121 0.0
H234 H 0.88275 0.6013 0.91148 0.0
H235 H 0.88315 0.62559 0.93978 0.0
O236 O 0.8561 0.59367 0.58113 0.0
C237 C 0.87491 0.6245 0.72125 0.0
Co238 Co 0.40543 0.26099 0.68031 0.0
Co239 Co 0.39705 0.25537 0.83714 0.0
C240 C 0.40867 0.24304 0.76276 0.0
O241 O 0.41023 0.24912 0.70778 0.0
O242 O 0.40355 0.24441 0.81574 0.0
C243 C 0.41676 0.26278 0.54793 0.0
O244 O 0.42219 0.25803 0.58242 0.0
C245 C 0.40238 0.25541 0.98526 0.0
C246 C 0.38645 0.25431 0.036 0.0
C247 C 0.39749 0.25522 0.0502 0.0
N248 N 0.39463 0.2547 0.93593 0.0
N249 N 0.38507 0.25394 0.96666 0.0
C250 C 0.41466 0.25741 0.96897 0.0
H251 H 0.41735 0.261 0.91564 0.0
H252 H 0.42139 0.26379 0.00644 0.0
H253 H 0.41451 0.24871 0.97191 0.0
C254 C 0.41788 0.28601 0.7338 0.0
N255 N 0.41146 0.27401 0.74344 0.0
N256 N 0.40791 0.27171 0.80854 0.0
C257 C 0.41199 0.28225 0.8423 0.0
C258 C 0.4184 0.29167 0.79618 0.0
C259 C 0.42211 0.29176 0.6643 0.0
H260 H 0.41435 0.28819 0.62818 0.0
H261 H 0.42861 0.28926 0.64317 0.0
H262 H 0.42641 0.30169 0.66689 0.0
O263 O 0.38778 0.25315 0.68038 0.0
O264 O 0.38113 0.2492 0.78876 0.0
H265 H 0.3997 0.27843 0.92635 0.0
H266 H 0.41349 0.29274 0.93425 0.0
C267 C 0.40955 0.28328 0.91714 0.0
H268 H 0.41358 0.27907 0.94924 0.0
H269 H 0.37772 0.2534 0.9403 0.0
O270 O 0.41001 0.26572 0.58079 0.0
C271 C 0.37917 0.24902 0.7238 0.0
Co272 Co 0.74324 0.14449 0.67957 0.0
Co273 Co 0.7495 0.14206 0.8361 0.0
C274 C 0.76182 0.16576 0.75934 0.0
O275 O 0.75547 0.16111 0.70535 0.0
O276 O 0.76053 0.15942 0.81295 0.0
C277 C 0.74139 0.15397 0.5471 0.0
O278 O 0.74612 0.16414 0.58171 0.0
C279 C 0.75004 0.14762 0.9846 0.0
C280 C 0.75078 0.13257 0.03496 0.0
C281 C 0.75013 0.14283 0.04948 0.0
N282 N 0.7505 0.14047 0.93504 0.0
N283 N 0.75108 0.13157 0.96558 0.0
C284 C 0.74826 0.15805 0.96861 0.0
H285 H 0.74476 0.15729 0.91518 0.0
H286 H 0.7419 0.15847 0.00593 0.0
H287 H 0.75705 0.16652 0.97211 0.0
C288 C 0.71843 0.13224 0.73683 0.0
N289 N 0.73048 0.13776 0.7446 0.0
N290 N 0.73306 0.13671 0.80948 0.0
C291 C 0.72266 0.13049 0.84499 0.0
C292 C 0.71304 0.12738 0.80026 0.0
C293 C 0.71237 0.13057 0.66824 0.0
H294 H 0.71627 0.12696 0.63036 0.0
H295 H 0.71417 0.13945 0.64874 0.0
H296 H 0.70251 0.12438 0.67173 0.0
O297 O 0.75092 0.13459 0.67913 0.0
O298 O 0.7554 0.13212 0.78676 0.0
H299 H 0.72663 0.12228 0.92992 0.0
H300 H 0.71257 0.12225 0.93943 0.0
C301 C 0.72195 0.12744 0.92042 0.0
H302 H 0.72648 0.13586 0.95079 0.0
H303 H 0.75138 0.12464 0.93907 0.0
O304 O 0.73837 0.14427 0.58004 0.0
C305 C 0.75523 0.13017 0.72175 0.0
Co306 Co 0.59968 0.85669 0.29225 0.0
Co307 Co 0.60904 0.86255 0.13684 0.0
C308 C 0.59949 0.8378 0.20222 0.0
O309 O 0.59703 0.84074 0.26042 0.0
O310 O 0.60408 0.8454 0.15308 0.0
C311 C 0.59029 0.84618 0.42679 0.0
O312 O 0.58745 0.83609 0.39457 0.0
C313 C 0.60367 0.85756 0.9891 0.0
C314 C 0.61915 0.87274 0.93746 0.0
C315 C 0.60838 0.86226 0.92394 0.0
N316 N 0.6113 0.86487 0.03806 0.0
N317 N 0.62056 0.87392 0.00681 0.0
C318 C 0.5917 0.84684 0.00569 0.0
H319 H 0.58882 0.8476 0.05873 0.0
H320 H 0.58481 0.84594 0.96766 0.0
H321 H 0.59246 0.83861 0.00365 0.0
C322 C 0.58373 0.86572 0.23987 0.0
N323 N 0.59246 0.86289 0.23098 0.0
N324 N 0.59664 0.86567 0.16716 0.0
C325 C 0.59071 0.87038 0.13382 0.0
C326 C 0.58229 0.87047 0.17836 0.0
C327 C 0.57695 0.86384 0.30596 0.0
H328 H 0.57437 0.85486 0.32765 0.0
H329 H 0.5688 0.86463 0.29788 0.0
H330 H 0.58291 0.8707 0.34417 0.0
O331 O 0.61709 0.86808 0.29464 0.0
O332 O 0.62451 0.873 0.18811 0.0
H333 H 0.5902 0.88185 0.05339 0.0
H334 H 0.58892 0.86797 0.02408 0.0
C335 C 0.59347 0.87541 0.06188 0.0
H336 H 0.6033 0.88007 0.05254 0.0
H337 H 0.6278 0.88094 0.03277 0.0
O338 O 0.59473 0.85589 0.39192 0.0
C339 C 0.62591 0.87395 0.25377 0.0
Co340 Co 0.14751 0.74403 0.31244 0.0
Co341 Co 0.1405 0.74675 0.16004 0.0
C342 C 0.16583 0.76202 0.21705 0.0
O343 O 0.16325 0.75695 0.27634 0.0
O344 O 0.1579 0.75883 0.16957 0.0
C345 C 0.15289 0.74774 0.45543 0.0
O346 O 0.15691 0.75895 0.43657 0.0
C347 C 0.14253 0.74542 0.0094 0.0
C348 C 0.12541 0.74355 0.97204 0.0
C349 C 0.13587 0.74395 0.95016 0.0
N350 N 0.13633 0.74592 0.06423 0.0
N351 N 0.12615 0.74492 0.04144 0.0
C352 C 0.15424 0.74558 0.01424 0.0
H353 H 0.15555 0.74305 0.06717 0.0
H354 H 0.15458 0.73936 0.97554 0.0
H355 H 0.16167 0.7548 0.0026 0.0
C356 C 0.13623 0.71857 0.26874 0.0
N357 N 0.14046 0.73028 0.25445 0.0
N358 N 0.1373 0.73128 0.19099 0.0
C359 C 0.13102 0.7202 0.1628 0.0
C360 C 0.13016 0.71177 0.21107 0.0
C361 C 0.13708 0.71394 0.33841 0.0
H362 H 0.14647 0.71915 0.35769 0.0
H363 H 0.13427 0.70424 0.33635 0.0
H364 H 0.13121 0.71526 0.37535 0.0
O365 O 0.13636 0.75031 0.32041 0.0
O366 O 0.13084 0.75229 0.21453 0.0
H367 H 0.11857 0.7078 0.08654 0.0
H368 H 0.13138 0.72109 0.0523 0.0
C369 C 0.12464 0.71758 0.09461 0.0
H370 H 0.11931 0.72221 0.09197 0.0
H371 H 0.11955 0.74483 0.07345 0.0
O372 O 0.14904 0.73961 0.40907 0.0
C373 C 0.13033 0.75315 0.28011 0.0
Co374 Co 0.26114 0.40254 0.31425 0.0
Co375 Co 0.25727 0.39889 0.15458 0.0
C376 C 0.24325 0.40716 0.23872 0.0
O377 O 0.24882 0.40711 0.29321 0.0
O378 O 0.24543 0.40403 0.1803 0.0
C379 C 0.26645 0.41548 0.44295 0.0
O380 O 0.2661 0.42393 0.40629 0.0
C381 C 0.25738 0.40428 0.00495 0.0
C382 C 0.26131 0.39076 0.96016 0.0
C383 C 0.25971 0.40035 0.94275 0.0
N384 N 0.25792 0.39751 0.05655 0.0
N385 N 0.2601 0.38935 0.02918 0.0
C386 C 0.25429 0.41399 0.01533 0.0
H387 H 0.24824 0.41193 0.06036 0.0
H388 H 0.26263 0.42265 0.02561 0.0
H389 H 0.24982 0.41501 0.9687 0.0
C390 C 0.28656 0.41847 0.26926 0.0
N391 N 0.27478 0.41095 0.25623 0.0
N392 N 0.27309 0.40976 0.18873 0.0
C393 C 0.28375 0.41663 0.15682 0.0
C394 C 0.2926 0.42237 0.20667 0.0
C395 C 0.29185 0.42208 0.3402 0.0
H396 H 0.28936 0.42854 0.36211 0.0
H397 H 0.3018 0.42643 0.33895 0.0
H398 H 0.28808 0.41407 0.37444 0.0
O399 O 0.25408 0.38489 0.30493 0.0
O400 O 0.25155 0.38246 0.19137 0.0
H401 H 0.29523 0.42313 0.06603 0.0
H402 H 0.28037 0.42117 0.05604 0.0
C403 C 0.2856 0.41739 0.08005 0.0
H404 H 0.28235 0.40825 0.05888 0.0
H405 H 0.2611 0.38302 0.05794 0.0
O406 O 0.26517 0.4061 0.41289 0.0
C407 C 0.25072 0.37813 0.25179 0.0
Co408 Co 0.81467 0.73837 0.62293 0.0
Co409 Co 0.80865 0.72814 0.47029 0.0
C410 C 0.83384 0.73961 0.52963 0.0
O411 O 0.83079 0.74189 0.58811 0.0
O412 O 0.82619 0.73445 0.48119 0.0
C413 C 0.82023 0.74077 0.766 0.0
O414 O 0.82546 0.73464 0.74725 0.0
C415 C 0.81054 0.72975 0.31738 0.0
C416 C 0.79228 0.71571 0.28628 0.0
C417 C 0.80312 0.72472 0.26027 0.0
N418 N 0.80433 0.72401 0.37474 0.0
N419 N 0.79351 0.71545 0.35546 0.0
C420 C 0.82274 0.74076 0.31819 0.0
H421 H 0.82439 0.7455 0.36855 0.0
H422 H 0.82368 0.74693 0.27527 0.0
H423 H 0.82962 0.73803 0.31095 0.0
C424 C 0.80191 0.75102 0.57413 0.0
N425 N 0.80693 0.7441 0.56257 0.0
N426 N 0.80456 0.73998 0.49864 0.0
C427 C 0.79822 0.74442 0.46701 0.0
C428 C 0.79616 0.75142 0.51386 0.0
C429 C 0.80145 0.75583 0.64397 0.0
H430 H 0.79771 0.74836 0.6821 0.0
H431 H 0.81074 0.76241 0.66073 0.0
H432 H 0.79586 0.7602 0.64396 0.0
O433 O 0.80437 0.72094 0.63229 0.0
O434 O 0.79951 0.71304 0.52702 0.0
H435 H 0.78731 0.73251 0.38643 0.0
H436 H 0.79063 0.74786 0.37512 0.0
C437 C 0.79428 0.74209 0.39287 0.0
H438 H 0.80207 0.74406 0.35967 0.0
H439 H 0.78675 0.70984 0.38992 0.0
O440 O 0.81565 0.74429 0.71945 0.0
C441 C 0.79885 0.71188 0.59277 0.0
Co442 Co 0.27059 0.07713 0.63781 0.0
Co443 Co 0.27413 0.08182 0.47816 0.0
C444 C 0.26459 0.09434 0.56456 0.0
O445 O 0.26509 0.08882 0.61821 0.0
O446 O 0.26783 0.09257 0.50543 0.0
C447 C 0.25741 0.07044 0.76649 0.0
O448 O 0.24849 0.06982 0.72985 0.0
C449 C 0.26922 0.08227 0.32789 0.0
C450 C 0.28292 0.07854 0.28374 0.0
C451 C 0.27331 0.08007 0.26581 0.0
N452 N 0.27589 0.08166 0.37991 0.0
N453 N 0.28418 0.07964 0.35288 0.0
C454 C 0.25932 0.0851 0.33799 0.0
H455 H 0.26149 0.09146 0.38156 0.0
H456 H 0.25085 0.07672 0.35078 0.0
H457 H 0.25793 0.08914 0.29053 0.0
C458 C 0.2573 0.05164 0.58894 0.0
N459 N 0.26315 0.06363 0.57781 0.0
N460 N 0.26416 0.06569 0.51065 0.0
C461 C 0.25873 0.05506 0.47701 0.0
C462 C 0.25435 0.04578 0.52523 0.0
C463 C 0.25562 0.04602 0.65897 0.0
H464 H 0.26361 0.05158 0.69178 0.0
H465 H 0.24768 0.04567 0.68419 0.0
H466 H 0.25414 0.03674 0.65534 0.0
O467 O 0.28831 0.08532 0.62918 0.0
O468 O 0.29069 0.08855 0.51601 0.0
H469 H 0.2664 0.0561 0.37712 0.0
H470 H 0.25082 0.04446 0.38435 0.0
C471 C 0.25756 0.05376 0.39991 0.0
H472 H 0.25467 0.05993 0.37897 0.0
H473 H 0.29046 0.07861 0.38198 0.0
O474 O 0.26712 0.07271 0.73631 0.0
C475 C 0.29508 0.08941 0.5763 0.0
Co476 Co 0.93017 0.19178 0.65169 0.0
Co477 Co 0.92382 0.19516 0.49881 0.0
C478 C 0.91144 0.17098 0.57011 0.0
O479 O 0.91784 0.17535 0.62433 0.0
O480 O 0.91267 0.17758 0.51776 0.0
C481 C 0.92766 0.18611 0.7927 0.0
O482 O 0.91639 0.18012 0.77224 0.0
C483 C 0.9235 0.19212 0.34731 0.0
C484 C 0.92467 0.20897 0.31066 0.0
C485 C 0.92467 0.19874 0.28814 0.0
N486 N 0.9229 0.19821 0.4025 0.0
N487 N 0.92333 0.20815 0.37999 0.0
C488 C 0.9242 0.18085 0.35196 0.0
H489 H 0.92706 0.17984 0.40461 0.0
H490 H 0.93052 0.18088 0.31255 0.0
H491 H 0.91515 0.17303 0.34141 0.0
C492 C 0.95458 0.20218 0.59158 0.0
N493 N 0.94275 0.19839 0.58616 0.0
N494 N 0.94024 0.19992 0.52202 0.0
C495 C 0.95054 0.20482 0.48473 0.0
C496 C 0.9599 0.20632 0.52736 0.0
C497 C 0.96051 0.20148 0.65674 0.0
H498 H 0.95513 0.19239 0.67987 0.0
H499 H 0.96984 0.20341 0.64708 0.0
H500 H 0.9607 0.20808 0.69461 0.0
O501 O 0.92276 0.20193 0.65906 0.0
O502 O 0.91823 0.20485 0.55272 0.0
H503 H 0.9612 0.21489 0.39634 0.0
H504 H 0.94814 0.20066 0.37672 0.0
C505 C 0.95167 0.20867 0.41062 0.0
H506 H 0.94645 0.21328 0.40162 0.0
H507 H 0.92339 0.21469 0.4123 0.0
O508 O 0.93584 0.19161 0.7475 0.0
C509 C 0.91846 0.20656 0.61789 0.0
Co510 Co 0.07253 0.47889 0.00729 0.0
Co511 Co 0.06295 0.47555 0.16043 0.0
C512 C 0.07474 0.49973 0.08948 0.0
O513 O 0.07667 0.49534 0.03503 0.0
O514 O 0.06947 0.49313 0.142 0.0
C515 C 0.07584 0.4847 0.86608 0.0
O516 O 0.07069 0.49084 0.88617 0.0
C517 C 0.06543 0.47845 0.31231 0.0
C518 C 0.04999 0.46129 0.34765 0.0
C519 C 0.06002 0.47164 0.371 0.0
N520 N 0.05893 0.47234 0.25661 0.0
N521 N 0.04956 0.46223 0.27837 0.0
C522 C 0.07731 0.48982 0.30847 0.0
H523 H 0.08128 0.49096 0.25601 0.0
H524 H 0.08359 0.48982 0.34808 0.0
H525 H 0.07594 0.49755 0.31923 0.0
C526 C 0.08504 0.46667 0.06397 0.0
N527 N 0.07832 0.47198 0.07202 0.0
N528 N 0.0743 0.47044 0.13613 0.0
C529 C 0.07838 0.46405 0.17091 0.0
C530 C 0.08528 0.46142 0.12642 0.0
C531 C 0.08982 0.46547 0.99558 0.0
H532 H 0.08221 0.4606 0.95902 0.0
H533 H 0.09578 0.47455 0.97371 0.0
H534 H 0.09486 0.46056 1.00014 0.0
O535 O 0.05497 0.46869 1.00016 0.0
O536 O 0.04765 0.46595 0.10682 0.0
H537 H 0.06558 0.45453 0.25109 0.0
H538 H 0.07982 0.45508 0.26289 0.0
C539 C 0.07546 0.46018 0.24491 0.0
H540 H 0.07871 0.46823 0.27815 0.0
H541 H 0.04323 0.45564 0.24554 0.0
O542 O 0.07836 0.47911 0.91148 0.0
C543 C 0.0461 0.4641 0.04177 0.0
Co544 Co 0.52527 0.59453 0.02499 0.0
Co545 Co 0.52881 0.58787 0.17534 0.0
C546 C 0.50442 0.57609 0.10465 0.0
O547 O 0.50873 0.5827 0.05134 0.0
O548 O 0.51115 0.57698 0.15557 0.0
C549 C 0.52126 0.59106 0.88749 0.0
O550 O 0.51777 0.58032 0.91298 0.0
C551 C 0.5258 0.5893 0.32429 0.0
C552 C 0.53823 0.58378 0.36803 0.0
C553 C 0.5303 0.5877 0.38617 0.0
N554 N 0.53099 0.58665 0.27192 0.0
N555 N 0.53836 0.58329 0.29837 0.0
C556 C 0.51629 0.59269 0.31486 0.0
H557 H 0.51257 0.59056 0.26161 0.0
H558 H 0.52018 0.60248 0.32344 0.0
H559 H 0.50899 0.5879 0.35338 0.0
C560 C 0.53758 0.61914 0.08311 0.0
N561 N 0.53234 0.60712 0.08992 0.0
N562 N 0.53453 0.60449 0.15221 0.0
C563 C 0.54167 0.61487 0.18622 0.0
C564 C 0.54366 0.62448 0.144 0.0
C565 C 0.538 0.62531 0.01655 0.0
H566 H 0.52888 0.62101 0.9932 0.0
H567 H 0.54141 0.63505 0.02445 0.0
H568 H 0.54401 0.62419 0.97974 0.0
O569 O 0.53513 0.58664 0.0181 0.0
O570 O 0.5382 0.58185 0.12338 0.0
H571 H 0.55543 0.62459 0.26372 0.0
H572 H 0.54087 0.61423 0.29681 0.0
C573 C 0.54738 0.61565 0.25518 0.0
H574 H 0.54996 0.60862 0.25929 0.0
H575 H 0.54356 0.58078 0.26886 0.0
O576 O 0.52489 0.59989 0.92914 0.0
C577 C 0.5397 0.5821 0.05804 0.0
Co578 Co 0.4114 0.9327 0.01099 0.0
Co579 Co 0.41329 0.94009 0.16858 0.0
C580 C 0.42895 0.93097 0.10362 0.0
O581 O 0.42429 0.9296 0.04361 0.0
O582 O 0.42549 0.93486 0.15443 0.0
C583 C 0.40741 0.92018 0.87601 0.0
O584 O 0.40812 0.91151 0.90782 0.0
C585 C 0.41288 0.9357 0.31884 0.0
C586 C 0.40633 0.94732 0.36181 0.0
C587 C 0.40938 0.93874 0.38023 0.0
N588 N 0.41163 0.94192 0.2665 0.0
N589 N 0.40788 0.94899 0.29278 0.0
C590 C 0.41825 0.92779 0.30981 0.0
H591 H 0.42735 0.93331 0.28741 0.0
H592 H 0.41273 0.92046 0.27273 0.0
H593 H 0.41923 0.92401 0.35929 0.0
C594 C 0.38593 0.91619 0.05238 0.0
N595 N 0.39735 0.92475 0.06669 0.0
N596 N 0.39802 0.92809 0.1319 0.0
C597 C 0.387 0.92174 0.16087 0.0
C598 C 0.379 0.91403 0.11154 0.0
C599 C 0.38168 0.91064 0.98251 0.0
H600 H 0.38473 0.91782 0.94278 0.0
H601 H 0.38575 0.905 0.97015 0.0
H602 H 0.37174 0.90499 0.98048 0.0
O603 O 0.41731 0.95003 0.01314 0.0
O604 O 0.41895 0.95609 0.12213 0.0
H605 H 0.38618 0.93192 0.24616 0.0
H606 H 0.37472 0.91624 0.24833 0.0
C607 C 0.38425 0.92264 0.23523 0.0
H608 H 0.39004 0.92065 0.26876 0.0
H609 H 0.40602 0.95469 0.2633 0.0
O610 O 0.40818 0.92894 0.91076 0.0
C611 C 0.41992 0.95831 0.05731 0.0
Co612 Co 0.52539 0.93502 0.01278 0.0
Co613 Co 0.52914 0.93767 0.17128 0.0
C614 C 0.50524 0.93078 0.10979 0.0
O615 O 0.50927 0.93118 0.04892 0.0
O616 O 0.51194 0.933 0.16277 0.0
C617 C 0.51741 0.92451 0.87168 0.0
O618 O 0.51038 0.91361 0.89569 0.0
C619 C 0.52646 0.93396 0.32161 0.0
C620 C 0.54511 0.9462 0.35647 0.0
C621 C 0.53357 0.93848 0.37992 0.0
N622 N 0.5335 0.93872 0.26571 0.0
N623 N 0.54467 0.94589 0.28686 0.0
C624 C 0.51308 0.92618 0.31908 0.0
H625 H 0.51043 0.92006 0.27377 0.0
H626 H 0.50958 0.92085 0.36737 0.0
H627 H 0.50902 0.93201 0.31328 0.0
C628 C 0.53537 0.91836 0.03467 0.0
N629 N 0.53149 0.92581 0.05697 0.0
N630 N 0.53241 0.9266 0.12486 0.0
C631 C 0.53648 0.91939 0.14823 0.0
C632 C 0.53869 0.91403 0.09191 0.0
C633 C 0.53669 0.91617 0.95994 0.0
H634 H 0.53855 0.92415 0.9285 0.0
H635 H 0.52818 0.90836 0.94148 0.0
H636 H 0.54408 0.91413 0.95264 0.0
O637 O 0.53675 0.95243 0.02252 0.0
O638 O 0.53945 0.9543 0.13577 0.0
H639 H 0.54573 0.9247 0.24528 0.0
H640 H 0.53757 0.90861 0.23144 0.0
C641 C 0.5374 0.91709 0.22344 0.0
H642 H 0.52957 0.91639 0.25182 0.0
H643 H 0.5519 0.95094 0.25371 0.0
O644 O 0.52385 0.93311 0.91239 0.0
C645 C 0.54163 0.95891 0.0755 0.0
Co646 Co 0.06787 0.59254 0.03127 0.0
Co647 Co 0.0642 0.58828 0.19095 0.0
C648 C 0.07339 0.57518 0.10648 0.0
O649 O 0.07316 0.5807 0.05215 0.0
O650 O 0.07007 0.57711 0.16491 0.0
C651 C 0.08108 0.59907 0.90247 0.0
O652 O 0.09005 0.59978 0.93912 0.0
C653 C 0.06921 0.58802 0.34109 0.0
C654 C 0.0557 0.59203 0.38524 0.0
C655 C 0.06523 0.59037 0.4031 0.0
N656 N 0.06255 0.58868 0.28912 0.0
N657 N 0.05438 0.59087 0.31614 0.0
C658 C 0.07899 0.58502 0.33103 0.0
H659 H 0.08749 0.59332 0.31758 0.0
H660 H 0.08038 0.58104 0.37871 0.0
H661 H 0.07668 0.57855 0.28793 0.0
C662 C 0.08142 0.61816 0.07797 0.0
N663 N 0.07551 0.60619 0.0901 0.0
N664 N 0.07448 0.60429 0.15741 0.0
C665 C 0.07998 0.61501 0.19017 0.0
C666 C 0.0844 0.62417 0.14118 0.0
C667 C 0.08302 0.6236 0.00746 0.0
H668 H 0.07499 0.61797 0.97511 0.0
H669 H 0.09092 0.62387 0.98223 0.0
H670 H 0.08452 0.63289 0.01027 0.0
O671 O 0.05016 0.58474 0.03993 0.0
O672 O 0.04767 0.58193 0.15334 0.0
H673 H 0.07226 0.61429 0.28949 0.0
H674 H 0.08789 0.6258 0.28217 0.0
C675 C 0.08109 0.61649 0.2672 0.0
H676 H 0.08388 0.6103 0.28918 0.0
H677 H 0.04814 0.59197 0.28706 0.0
O678 O 0.07136 0.59676 0.93262 0.0
C679 C 0.04335 0.58102 0.09281 0.0
Co680 Co 0.4106 0.47964 0.99731 0.0
Co681 Co 0.41473 0.47562 0.15437 0.0
C682 C 0.42859 0.49992 0.08438 0.0
O683 O 0.42282 0.49592 0.02792 0.0
O684 O 0.42657 0.49304 0.13638 0.0
C685 C 0.41039 0.49003 0.8646 0.0
O686 O 0.41606 0.50021 0.89891 0.0
C687 C 0.41477 0.48086 0.30212 0.0
C688 C 0.41408 0.46511 0.35293 0.0
C689 C 0.4144 0.47588 0.367 0.0
N690 N 0.41468 0.47339 0.25287 0.0
N691 N 0.41433 0.46402 0.2836 0.0
C692 C 0.41421 0.49198 0.28584 0.0
H693 H 0.41055 0.49139 0.233 0.0
H694 H 0.40851 0.49328 0.32405 0.0
H695 H 0.42344 0.49989 0.28744 0.0
C696 C 0.38557 0.4697 0.04664 0.0
N697 N 0.39722 0.4732 0.05759 0.0
N698 N 0.39877 0.47132 0.12296 0.0
C699 C 0.38801 0.46641 0.15554 0.0
C700 C 0.37929 0.46528 0.10833 0.0
C701 C 0.38057 0.47016 0.97738 0.0
H702 H 0.38397 0.46639 0.93744 0.0
H703 H 0.38377 0.47968 0.96359 0.0
H704 H 0.37058 0.46504 0.97709 0.0
O705 O 0.4176 0.4691 0.99776 0.0
O706 O 0.4205 0.46549 0.10646 0.0
H707 H 0.39045 0.45793 0.24477 0.0
H708 H 0.37665 0.45849 0.24618 0.0
C709 C 0.38626 0.4634 0.23115 0.0
H710 H 0.39074 0.47184 0.26156 0.0
H711 H 0.41412 0.45682 0.25725 0.0
O712 O 0.4065 0.48018 0.8975 0.0
C713 C 0.42104 0.46402 0.04143 0.0
Co714 Co 0.26873 0.19208 0.66575 0.0
Co715 Co 0.27217 0.19279 0.50489 0.0
C716 C 0.26404 0.17007 0.58376 0.0
O717 O 0.26441 0.17543 0.63995 0.0
O718 O 0.26683 0.17565 0.52614 0.0
C719 C 0.25645 0.18221 0.79345 0.0
O720 O 0.24986 0.17273 0.75481 0.0
C721 C 0.2664 0.18734 0.35732 0.0
C722 C 0.2807 0.20385 0.30795 0.0
C723 C 0.27072 0.19276 0.29304 0.0
N724 N 0.27349 0.19492 0.40697 0.0
N725 N 0.28206 0.20473 0.37713 0.0
C726 C 0.25527 0.17563 0.37286 0.0
H727 H 0.2523 0.17553 0.42695 0.0
H728 H 0.24791 0.1741 0.33677 0.0
H729 H 0.25726 0.16819 0.36708 0.0
C730 C 0.25294 0.20194 0.62579 0.0
N731 N 0.2603 0.19764 0.60978 0.0
N732 N 0.2615 0.1977 0.54203 0.0
C733 C 0.25488 0.20204 0.51269 0.0
C734 C 0.24921 0.20488 0.5648 0.0
C735 C 0.25013 0.20381 0.69842 0.0
H736 H 0.25837 0.20743 0.73072 0.0
H737 H 0.24335 0.19502 0.72053 0.0
H738 H 0.24657 0.2101 0.70035 0.0
O739 O 0.28641 0.20277 0.65681 0.0
O740 O 0.2886 0.20312 0.54268 0.0
H741 H 0.26254 0.20941 0.41377 0.0
H742 H 0.24704 0.2058 0.42279 0.0
C743 C 0.25365 0.20295 0.43611 0.0
H744 H 0.25057 0.19406 0.41216 0.0
H745 H 0.28877 0.21208 0.40407 0.0
O746 O 0.26472 0.19172 0.76529 0.0
C747 C 0.29306 0.20633 0.60314 0.0
Co748 Co 0.81304 0.07788 0.64371 0.0
Co749 Co 0.81221 0.08139 0.48331 0.0
C750 C 0.83514 0.09509 0.56278 0.0
O751 O 0.82985 0.08987 0.6187 0.0
O752 O 0.82944 0.09276 0.50564 0.0
C753 C 0.82226 0.07458 0.77226 0.0
O754 O 0.83185 0.07737 0.73472 0.0
C755 C 0.81712 0.07981 0.33637 0.0
C756 C 0.8026 0.08143 0.28507 0.0
C757 C 0.81239 0.07993 0.27147 0.0
N758 N 0.8104 0.08115 0.38512 0.0
N759 N 0.80178 0.08218 0.35414 0.0
C760 C 0.82724 0.07762 0.35339 0.0
H761 H 0.8265 0.0745 0.40777 0.0
H762 H 0.82724 0.07082 0.31781 0.0
H763 H 0.83591 0.08616 0.34791 0.0
C764 C 0.80121 0.05229 0.6004 0.0
N765 N 0.80695 0.06413 0.58553 0.0
N766 N 0.80674 0.06554 0.51804 0.0
C767 C 0.80082 0.05458 0.48796 0.0
C768 C 0.79722 0.04583 0.53906 0.0
C769 C 0.79879 0.04734 0.67247 0.0
H770 H 0.80746 0.05074 0.70032 0.0
H771 H 0.79391 0.03736 0.67261 0.0
H772 H 0.79344 0.05062 0.70057 0.0
O773 O 0.80279 0.08542 0.63671 0.0
O774 O 0.80211 0.08762 0.523 0.0
H775 H 0.79309 0.058 0.39853 0.0
H776 H 0.79061 0.04287 0.40277 0.0
C777 C 0.79716 0.05247 0.41333 0.0
H778 H 0.80523 0.0552 0.38079 0.0
H779 H 0.79526 0.08327 0.38019 0.0
O780 O 0.81297 0.0737 0.74298 0.0
C781 C 0.79914 0.08875 0.58437 0.0
Co782 Co 0.92491 0.73366 0.62517 0.0
Co783 Co 0.92478 0.72923 0.4673 0.0
C784 C 0.90916 0.73801 0.52733 0.0
O785 O 0.91304 0.73809 0.58821 0.0
O786 O 0.91301 0.7348 0.4755 0.0
C787 C 0.92976 0.74518 0.76746 0.0
O788 O 0.93605 0.75632 0.74534 0.0
C789 C 0.92627 0.73311 0.31696 0.0
C790 C 0.92795 0.71771 0.28036 0.0
C791 C 0.92692 0.72738 0.25792 0.0
N792 N 0.92698 0.72714 0.37224 0.0
N793 N 0.92816 0.71804 0.35 0.0
C794 C 0.92395 0.74341 0.32071 0.0
H795 H 0.92679 0.74796 0.37172 0.0
H796 H 0.92881 0.74996 0.2786 0.0
H797 H 0.91418 0.73995 0.31366 0.0
C798 C 0.95174 0.74774 0.5974 0.0
N799 N 0.94007 0.74159 0.57753 0.0
N800 N 0.93965 0.74004 0.50992 0.0
C801 C 0.95092 0.74539 0.48456 0.0
C802 C 0.959 0.75033 0.53896 0.0
C803 C 0.95585 0.7498 0.67115 0.0
H804 H 0.94914 0.74249 0.70449 0.0
H805 H 0.95682 0.75846 0.68887 0.0
H806 H 0.96473 0.75034 0.67642 0.0
O807 O 0.91799 0.71597 0.62051 0.0
O808 O 0.9181 0.71295 0.50791 0.0
H809 H 0.95176 0.73626 0.39389 0.0
H810 H 0.96355 0.75183 0.39892 0.0
C811 C 0.95391 0.74544 0.40954 0.0
H812 H 0.94842 0.74811 0.37791 0.0
H813 H 0.92863 0.71178 0.38242 0.0
O814 O 0.92577 0.73644 0.72532 0.0
C815 C 0.91587 0.70893 0.56956 0.0
Co816 Co 0.47927 0.06799 0.98563 0.0
Co817 Co 0.47568 0.06434 0.82585 0.0
C818 C 0.49958 0.0718 0.89354 0.0
O819 O 0.4957 0.07203 0.95394 0.0
O820 O 0.49271 0.06893 0.84092 0.0
C821 C 0.48787 0.08079 0.11593 0.0
O822 O 0.49602 0.08981 0.07915 0.0
C823 C 0.47953 0.07141 0.67854 0.0
C824 C 0.46345 0.05627 0.63067 0.0
C825 C 0.47378 0.06703 0.61524 0.0
N826 N 0.4728 0.06363 0.72857 0.0
N827 N 0.46321 0.05462 0.69954 0.0
C828 C 0.49137 0.08253 0.69155 0.0
H829 H 0.49497 0.08225 0.74309 0.0
H830 H 0.49014 0.09049 0.69054 0.0
H831 H 0.49796 0.08365 0.65083 0.0
C832 C 0.4681 0.08324 0.95741 0.0
N833 N 0.47305 0.07665 0.93628 0.0
N834 N 0.47183 0.07529 0.86863 0.0
C835 C 0.46621 0.08107 0.84457 0.0
C836 C 0.46373 0.08638 0.89987 0.0
C837 C 0.4668 0.08575 0.03166 0.0
H838 H 0.47582 0.0921 0.05289 0.0
H839 H 0.46097 0.0898 0.03753 0.0
H840 H 0.46303 0.07729 0.06202 0.0
O841 O 0.46813 0.05037 0.97672 0.0
O842 O 0.46517 0.04793 0.86329 0.0
H843 H 0.45595 0.08416 0.76573 0.0
H844 H 0.46953 0.08469 0.73635 0.0
C845 C 0.46174 0.08007 0.77183 0.0
H846 H 0.4565 0.07046 0.75676 0.0
H847 H 0.45652 0.0473 0.72677 0.0
O848 O 0.48013 0.07124 0.08572 0.0
C849 C 0.46313 0.04364 0.9245 0.0
Co850 Co 0.9361 0.41155 0.95752 0.0
Co851 Co 0.94089 0.41199 0.7997 0.0
C852 C 0.93296 0.42828 0.8615 0.0
O853 O 0.93258 0.42412 0.92209 0.0
O854 O 0.93595 0.42431 0.80908 0.0
C855 C 0.93309 0.41583 0.10045 0.0
O856 O 0.9389 0.42729 0.08365 0.0
C857 C 0.93816 0.41124 0.64857 0.0
C858 C 0.94838 0.40228 0.61809 0.0
C859 C 0.94132 0.40674 0.59234 0.0
N860 N 0.9431 0.40948 0.70547 0.0
N861 N 0.94935 0.4043 0.68679 0.0
C862 C 0.9296 0.41596 0.64945 0.0
H863 H 0.92396 0.41287 0.69685 0.0
H864 H 0.92373 0.41303 0.6029 0.0
H865 H 0.93485 0.42594 0.65022 0.0
C866 C 0.91987 0.38553 0.92617 0.0
N867 N 0.92772 0.39692 0.90667 0.0
N868 N 0.92936 0.39716 0.83939 0.0
C869 C 0.92241 0.38599 0.81357 0.0
C870 C 0.91621 0.3782 0.86774 0.0
C871 C 0.91665 0.38169 0.99998 0.0
H872 H 0.92496 0.38566 0.03178 0.0
H873 H 0.91083 0.38515 0.01988 0.0
H874 H 0.9119 0.37177 0.00561 0.0
O875 O 0.95379 0.41794 0.95667 0.0
O876 O 0.9568 0.41797 0.84367 0.0
H877 H 0.9292 0.38252 0.72066 0.0
H878 H 0.91301 0.37418 0.72729 0.0
C879 C 0.92119 0.38295 0.73805 0.0
H880 H 0.92065 0.39001 0.70796 0.0
H881 H 0.9539 0.40172 0.72141 0.0
O882 O 0.93088 0.40798 0.05422 0.0
C883 C 0.9608 0.41999 0.90544 0.0
Co884 Co 0.594 0.52626 0.97168 0.0
Co885 Co 0.59026 0.52719 0.81324 0.0
C886 C 0.57706 0.50406 0.88966 0.0
O887 O 0.58228 0.50946 0.94541 0.0
O888 O 0.5792 0.50972 0.83236 0.0
C889 C 0.59226 0.51866 0.11239 0.0
O890 O 0.58149 0.51012 0.0938 0.0
C891 C 0.59151 0.52434 0.663 0.0
C892 C 0.59423 0.54185 0.62614 0.0
C893 C 0.59377 0.53137 0.60445 0.0
N894 N 0.59081 0.53049 0.71734 0.0
N895 N 0.59218 0.54083 0.69475 0.0
C896 C 0.59137 0.51265 0.66848 0.0
H897 H 0.59356 0.51126 0.72209 0.0
H898 H 0.59784 0.51238 0.63135 0.0
H899 H 0.58223 0.50522 0.65526 0.0
C900 C 0.61954 0.53828 0.92823 0.0
N901 N 0.60769 0.53268 0.91355 0.0
N902 N 0.60624 0.53279 0.84617 0.0
C903 C 0.61721 0.53843 0.81577 0.0
C904 C 0.62598 0.54207 0.86678 0.0
C905 C 0.62454 0.54047 1.00017 0.0
H906 H 0.62098 0.53173 0.0275 0.0
H907 H 0.63452 0.54513 1.0001 0.0
H908 H 0.6215 0.54595 0.02898 0.0
O909 O 0.58617 0.53629 0.96932 0.0
O910 O 0.58359 0.53663 0.85611 0.0
H911 H 0.61528 0.54707 0.72595 0.0
H912 H 0.62907 0.54657 0.72768 0.0
C913 C 0.61934 0.54152 0.74041 0.0
H914 H 0.61499 0.53314 0.70943 0.0
H915 H 0.59234 0.54746 0.72676 0.0
O916 O 0.59906 0.52635 0.0679 0.0
C917 C 0.58248 0.53963 0.9173 0.0
Co918 Co 0.73682 0.81354 0.36311 0.0
Co919 Co 0.73332 0.81053 0.52368 0.0
C920 C 0.7413 0.83429 0.45474 0.0
O921 O 0.74086 0.83 0.39461 0.0
O922 O 0.73878 0.82774 0.50858 0.0
C923 C 0.74818 0.82401 0.23314 0.0
O924 O 0.75419 0.83388 0.26993 0.0
C925 C 0.7403 0.81503 0.66938 0.0
C926 C 0.72494 0.79974 0.72141 0.0
C927 C 0.73581 0.81014 0.7344 0.0
N928 N 0.73242 0.8079 0.62107 0.0
N929 N 0.72327 0.79877 0.65241 0.0
C930 C 0.75213 0.82585 0.65187 0.0
H931 H 0.75478 0.82518 0.59805 0.0
H932 H 0.75922 0.82678 0.68845 0.0
H933 H 0.75126 0.83401 0.65528 0.0
C934 C 0.75176 0.80224 0.39291 0.0
N935 N 0.74528 0.80731 0.41388 0.0
N936 N 0.7439 0.80614 0.48153 0.0
C937 C 0.74953 0.80038 0.50574 0.0
C938 C 0.75476 0.79778 0.45047 0.0
C939 C 0.75414 0.80084 0.31862 0.0
H940 H 0.75902 0.80984 0.29393 0.0
H941 H 0.75955 0.79632 0.31339 0.0
H942 H 0.74545 0.79554 0.29101 0.0
O943 O 0.71917 0.80257 0.37201 0.0
O944 O 0.71683 0.80056 0.48604 0.0
H945 H 0.75253 0.79015 0.58498 0.0
H946 H 0.75328 0.80388 0.61373 0.0
C947 C 0.74854 0.79603 0.57873 0.0
H948 H 0.73893 0.79098 0.59426 0.0
H949 H 0.71583 0.79193 0.62672 0.0
O950 O 0.74058 0.81434 0.26304 0.0
C951 C 0.71245 0.79817 0.42504 0.0
Co952 Co 0.1929 0.92426 0.37139 0.0
Co953 Co 0.19741 0.92419 0.53096 0.0
C954 C 0.17305 0.90805 0.467 0.0
O955 O 0.17664 0.91187 0.40577 0.0
O956 O 0.18019 0.91218 0.51841 0.0
C957 C 0.18208 0.92417 0.23955 0.0
O958 O 0.17197 0.91942 0.27472 0.0
C959 C 0.19313 0.92694 0.67643 0.0
C960 C 0.20805 0.92626 0.72925 0.0
C961 C 0.1978 0.92705 0.74172 0.0
N962 N 0.20019 0.92599 0.62841 0.0
N963 N 0.20912 0.92564 0.66022 0.0
C964 C 0.18254 0.92833 0.65853 0.0
H965 H 0.18344 0.93186 0.60505 0.0
H966 H 0.18169 0.93447 0.69567 0.0
H967 H 0.17423 0.91941 0.66075 0.0
C968 C 0.20386 0.95049 0.40043 0.0
N969 N 0.1993 0.93902 0.42177 0.0
N970 N 0.20128 0.939 0.48867 0.0
C971 C 0.20719 0.95043 0.51198 0.0
C972 C 0.209 0.95812 0.45687 0.0
C973 C 0.20386 0.95404 0.3266 0.0
H974 H 0.20986 0.9519 0.29583 0.0
H975 H 0.19464 0.94873 0.30505 0.0
H976 H 0.20692 0.96377 0.32176 0.0
O977 O 0.20409 0.91777 0.37787 0.0
O978 O 0.20751 0.91803 0.49077 0.0
H979 H 0.21689 0.94873 0.5975 0.0
H980 H 0.21911 0.96367 0.58686 0.0
C981 C 0.21244 0.95394 0.58319 0.0
H982 H 0.20511 0.95176 0.62085 0.0
H983 H 0.21585 0.92479 0.63487 0.0
O984 O 0.19186 0.92708 0.2711 0.0
C985 C 0.20926 0.91587 0.42869 0.0
Co986 Co 0.08154 0.26983 0.36776 0.0
Co987 Co 0.08069 0.27225 0.52818 0.0
C988 C 0.09767 0.26554 0.461 0.0
O989 O 0.09382 0.26568 0.40034 0.0
O990 O 0.09336 0.26798 0.51386 0.0
C991 C 0.07777 0.25736 0.2379 0.0
O992 O 0.07664 0.24832 0.27553 0.0
C993 C 0.07781 0.26549 0.67693 0.0
C994 C 0.07357 0.27887 0.72045 0.0
C995 C 0.07509 0.26925 0.73835 0.0
N996 N 0.07774 0.27248 0.62506 0.0
N997 N 0.07519 0.28044 0.6516 0.0
C998 C 0.08074 0.25563 0.66806 0.0
H999 H 0.08527 0.25642 0.61825 0.0
H1000 H 0.0723 0.24681 0.66837 0.0
H1001 H 0.08651 0.25576 0.71128 0.0
C1002 C 0.05503 0.25372 0.39063 0.0
N1003 N 0.06639 0.26079 0.41372 0.0
N1004 N 0.06619 0.26141 0.48169 0.0
C1005 C 0.05479 0.2545 0.50418 0.0
C1006 C 0.04727 0.24944 0.44724 0.0
C1007 C 0.05155 0.25203 0.31572 0.0
H1008 H 0.05737 0.2604 0.28646 0.0
H1009 H 0.05276 0.24469 0.29418 0.0
H1010 H 0.04201 0.2496 0.30885 0.0
O1011 O 0.0879 0.28731 0.37999 0.0
O1012 O 0.08684 0.28894 0.49377 0.0
H1013 H 0.05209 0.26063 0.60198 0.0
H1014 H 0.04203 0.24475 0.58658 0.0
C1015 C 0.0513 0.25235 0.57905 0.0
H1016 H 0.05749 0.25015 0.60685 0.0
H1017 H 0.0746 0.28699 0.62263 0.0
O1018 O 0.0797 0.267 0.26742 0.0
C1019 C 0.08943 0.29367 0.43365 0.0
Co1020 Co 0.19281 0.26655 0.35584 0.0
Co1021 Co 0.19935 0.27638 0.50876 0.0
C1022 C 0.17411 0.26587 0.44995 0.0
O1023 O 0.17691 0.26356 0.39076 0.0
O1024 O 0.18189 0.2707 0.49815 0.0
C1025 C 0.18713 0.26404 0.21249 0.0
O1026 O 0.18201 0.27032 0.23041 0.0
C1027 C 0.1974 0.27401 0.66093 0.0
C1028 C 0.21546 0.2882 0.69401 0.0
C1029 C 0.20465 0.27893 0.71866 0.0
N1030 N 0.20364 0.28007 0.60445 0.0
N1031 N 0.21436 0.28869 0.62485 0.0
C1032 C 0.18523 0.26297 0.65885 0.0
H1033 H 0.18345 0.25871 0.60693 0.0
H1034 H 0.18449 0.25644 0.69907 0.0
H1035 H 0.17833 0.26554 0.66994 0.0
C1036 C 0.20248 0.25115 0.40623 0.0
N1037 N 0.1997 0.25989 0.41577 0.0
N1038 N 0.20261 0.26408 0.47938 0.0
C1039 C 0.2073 0.25806 0.51225 0.0
C1040 C 0.20735 0.2497 0.46715 0.0
C1041 C 0.20023 0.24418 0.3405 0.0
H1042 H 0.19076 0.24061 0.32409 0.0
H1043 H 0.20209 0.23666 0.34672 0.0
H1044 H 0.2061 0.25031 0.29912 0.0
O1045 O 0.20372 0.28401 0.34743 0.0
O1046 O 0.20885 0.29147 0.45351 0.0
H1047 H 0.21693 0.25565 0.59718 0.0
H1048 H 0.20413 0.25705 0.6213 0.0
C1049 C 0.21185 0.26034 0.5852 0.0
H1050 H 0.21783 0.27011 0.5934 0.0
H1051 H 0.22112 0.29456 0.59118 0.0
O1052 O 0.19168 0.26059 0.25946 0.0
C1053 C 0.20949 0.29289 0.38797 0.0
Co1054 Co 0.7349 0.92585 0.36239 0.0
Co1055 Co 0.7296 0.92372 0.52208 0.0
C1056 C 0.73924 0.90932 0.45241 0.0
O1057 O 0.73937 0.91363 0.39275 0.0
O1058 O 0.73578 0.9126 0.50564 0.0
C1059 C 0.74646 0.92719 0.23206 0.0
O1060 O 0.75221 0.92293 0.26796 0.0
C1061 C 0.73565 0.92501 0.6691 0.0
C1062 C 0.72009 0.92469 0.72007 0.0
C1063 C 0.73092 0.92512 0.73386 0.0
N1064 N 0.72796 0.92449 0.62007 0.0
N1065 N 0.71865 0.92427 0.65083 0.0
C1066 C 0.74766 0.92634 0.65274 0.0
H1067 H 0.74704 0.91743 0.65673 0.0
H1068 H 0.75041 0.92972 0.59909 0.0
H1069 H 0.75457 0.9326 0.68979 0.0
C1070 C 0.74874 0.95193 0.40099 0.0
N1071 N 0.74237 0.94015 0.41772 0.0
N1072 N 0.74011 0.93916 0.48468 0.0
C1073 C 0.74495 0.95023 0.51262 0.0
C1074 C 0.75054 0.95873 0.46065 0.0
C1075 C 0.75178 0.95647 0.32822 0.0
H1076 H 0.74339 0.95265 0.29709 0.0
H1077 H 0.75759 0.95328 0.30498 0.0
H1078 H 0.75644 0.96643 0.32588 0.0
O1079 O 0.7171 0.91851 0.36669 0.0
O1080 O 0.71341 0.91721 0.4797 0.0
H1081 H 0.73416 0.94864 0.60095 0.0
H1082 H 0.74866 0.96234 0.59977 0.0
C1083 C 0.74381 0.9526 0.58743 0.0
H1084 H 0.74767 0.94826 0.61991 0.0
H1085 H 0.71134 0.92383 0.62457 0.0
O1086 O 0.73913 0.92956 0.26292 0.0
C1087 C 0.70976 0.91564 0.4171 0.0
Co1088 Co 0.07978 0.81185 0.38692 0.0
Co1089 Co 0.08129 0.80778 0.54445 0.0
C1090 C 0.09673 0.83199 0.47996 0.0
O1091 O 0.09236 0.82812 0.41991 0.0
O1092 O 0.09314 0.82509 0.53268 0.0
C1093 C 0.08304 0.81936 0.24423 0.0
O1094 O 0.09441 0.82626 0.26094 0.0
C1095 C 0.08004 0.81008 0.69481 0.0
C1096 C 0.0749 0.7917 0.72953 0.0
C1097 C 0.07699 0.80278 0.75266 0.0
N1098 N 0.07971 0.80358 0.63952 0.0
N1099 N 0.07683 0.79267 0.66073 0.0
C1100 C 0.08207 0.8226 0.69101 0.0
H1101 H 0.07916 0.82419 0.63987 0.0
H1102 H 0.07717 0.82424 0.73309 0.0
H1103 H 0.09183 0.82906 0.69718 0.0
C1104 C 0.05378 0.80057 0.42285 0.0
N1105 N 0.06544 0.80536 0.44098 0.0
N1106 N 0.06608 0.80395 0.50799 0.0
C1107 C 0.05486 0.79839 0.5348 0.0
C1108 C 0.04668 0.79605 0.48174 0.0
C1109 C 0.04949 0.79952 0.34976 0.0
H1110 H 0.05373 0.8086 0.32595 0.0
H1111 H 0.03956 0.79537 0.34709 0.0
H1112 H 0.05234 0.79401 0.31954 0.0
O1113 O 0.08642 0.80076 0.38619 0.0
O1114 O 0.08726 0.79796 0.49884 0.0
H1115 H 0.05462 0.78724 0.61768 0.0
H1116 H 0.04211 0.78992 0.61882 0.0
C1117 C 0.05187 0.79404 0.60798 0.0
H1118 H 0.0569 0.80168 0.64388 0.0
H1119 H 0.07573 0.78574 0.6278 0.0
O1120 O 0.07554 0.81294 0.2905 0.0
C1121 C 0.08888 0.79592 0.43639 0.0
Co1122 Co 0.93197 0.52184 0.98175 0.0
Co1123 Co 0.94191 0.52957 0.82952 0.0
C1124 C 0.93186 0.50398 0.8838 0.0
O1125 O 0.92934 0.50627 0.94384 0.0
O1126 O 0.93659 0.5121 0.83725 0.0
C1127 C 0.93018 0.51652 0.1262 0.0
O1128 O 0.93715 0.51215 0.10884 0.0
C1129 C 0.93962 0.52801 0.67704 0.0
C1130 C 0.95317 0.54642 0.64529 0.0
C1131 C 0.94432 0.53544 0.6198 0.0
N1132 N 0.94541 0.53429 0.73404 0.0
N1133 N 0.95364 0.54524 0.71442 0.0
C1134 C 0.92897 0.51557 0.67809 0.0
H1135 H 0.9246 0.51348 0.72976 0.0
H1136 H 0.92237 0.51457 0.6377 0.0
H1137 H 0.93203 0.50906 0.66652 0.0
C1138 C 0.91618 0.53127 0.93562 0.0
N1139 N 0.92504 0.52875 0.92404 0.0
N1140 N 0.92948 0.53246 0.86155 0.0
C1141 C 0.92364 0.53762 0.83182 0.0
C1142 C 0.91502 0.53702 0.87767 0.0
C1143 C 0.90938 0.52867 0.00228 0.0
H1144 H 0.91569 0.53408 0.04422 0.0
H1145 H 0.90559 0.51904 0.01581 0.0
H1146 H 0.90204 0.53085 0.99923 0.0
O1147 O 0.9494 0.53297 0.9902 0.0
O1148 O 0.95699 0.539 0.88503 0.0
H1149 H 0.93565 0.54941 0.75424 0.0
H1150 H 0.92054 0.54695 0.74749 0.0
C1151 C 0.92598 0.54267 0.75995 0.0
H1152 H 0.92368 0.53532 0.72232 0.0
H1153 H 0.95925 0.55205 0.74857 0.0
O1154 O 0.92607 0.52036 0.07872 0.0
C1155 C 0.95832 0.53918 0.95057 0.0
Co1156 Co 0.47879 0.41148 0.98089 0.0
Co1157 Co 0.47802 0.41398 0.82089 0.0
C1158 C 0.50093 0.42825 0.89994 0.0
O1159 O 0.49567 0.42322 0.95628 0.0
O1160 O 0.49519 0.4257 0.84288 0.0
C1161 C 0.48624 0.40585 0.1096 0.0
O1162 O 0.49437 0.40503 0.0724 0.0
C1163 C 0.48253 0.41204 0.6725 0.0
C1164 C 0.46617 0.41072 0.62596 0.0
C1165 C 0.47661 0.41056 0.60973 0.0
N1166 N 0.47574 0.41281 0.72318 0.0
N1167 N 0.46603 0.4121 0.69486 0.0
C1168 C 0.49453 0.41304 0.68441 0.0
H1169 H 0.49862 0.41789 0.73316 0.0
H1170 H 0.49336 0.4039 0.68876 0.0
H1171 H 0.50071 0.4178 0.64062 0.0
C1172 C 0.46692 0.38554 0.94356 0.0
N1173 N 0.47266 0.3973 0.92659 0.0
N1174 N 0.47271 0.39835 0.85873 0.0
C1175 C 0.4671 0.38723 0.83043 0.0
C1176 C 0.46331 0.37876 0.88317 0.0
C1177 C 0.4643 0.38092 0.01635 0.0
H1178 H 0.47283 0.38287 0.04181 0.0
H1179 H 0.458 0.37108 0.01816 0.0
H1180 H 0.46047 0.38566 0.04571 0.0
O1181 O 0.46856 0.41896 0.97112 0.0
O1182 O 0.46778 0.42032 0.857 0.0
H1183 H 0.45869 0.37492 0.74445 0.0
H1184 H 0.47242 0.3886 0.72443 0.0
C1185 C 0.46402 0.3847 0.75523 0.0
H1186 H 0.45876 0.38898 0.73863 0.0
H1187 H 0.45921 0.41238 0.72277 0.0
O1188 O 0.47868 0.40801 0.08 0.0
C1189 C 0.46483 0.42188 0.91749 0.0
Co1190 Co 0.59356 0.07036 0.99473 0.0
Co1191 Co 0.59142 0.06272 0.8379 0.0
C1192 C 0.57597 0.07201 0.90298 0.0
O1193 O 0.58087 0.07386 0.96251 0.0
O1194 O 0.57923 0.06772 0.85348 0.0
C1195 C 0.59876 0.08345 0.12869 0.0
O1196 O 0.59947 0.09274 0.09571 0.0
C1197 C 0.59441 0.06952 0.69053 0.0
C1198 C 0.59341 0.05363 0.63989 0.0
C1199 C 0.5951 0.06499 0.62604 0.0
N1200 N 0.5926 0.0613 0.73949 0.0
N1201 N 0.59196 0.0518 0.70877 0.0
C1202 C 0.59515 0.08131 0.70609 0.0
H1203 H 0.59141 0.08119 0.75786 0.0
H1204 H 0.60471 0.08855 0.70634 0.0
H1205 H 0.59025 0.08342 0.66618 0.0
C1206 C 0.61942 0.08497 0.95465 0.0
N1207 N 0.60768 0.07783 0.9389 0.0
N1208 N 0.60677 0.07443 0.8737 0.0
C1209 C 0.6179 0.07934 0.84611 0.0
C1210 C 0.62626 0.08631 0.89606 0.0
C1211 C 0.62403 0.08937 0.02606 0.0
H1212 H 0.6204 0.08163 0.06233 0.0
H1213 H 0.62078 0.09549 0.04333 0.0
H1214 H 0.63401 0.09426 0.02785 0.0
O1215 O 0.58721 0.05289 0.99249 0.0
O1216 O 0.58577 0.04672 0.88372 0.0
H1217 H 0.61504 0.06626 0.76817 0.0
H1218 H 0.63028 0.07874 0.77187 0.0
C1219 C 0.62065 0.07609 0.77667 0.0
H1220 H 0.61854 0.0808 0.73577 0.0
H1221 H 0.59062 0.0441 0.73487 0.0
O1222 O 0.59681 0.07414 0.09497 0.0
C1223 C 0.58462 0.04455 0.94865 0.0
H1224 H 0.13454 0.44098 0.17412 0.0
H1225 H 0.10556 0.40657 0.24427 0.0
H1226 H 0.09092 0.41351 0.2237 0.0
H1227 H 0.12342 0.45917 0.25008 0.0
H1228 H 0.12812 0.46967 0.17902 0.0
H1229 H 0.13622 0.46191 0.19808 0.0
H1230 H 0.13287 0.45391 0.07207 0.0
H1231 H 0.1247 0.46161 0.05271 0.0
H1232 H 0.11778 0.44564 0.03807 0.0
H1233 H 0.07957 0.42415 0.19612 0.0
H1234 H 0.07217 0.4381 0.16697 0.0
H1235 H 0.10847 0.46582 0.11541 0.0
C1236 C 0.1251 0.43498 0.18509 0.0
C1237 C 0.12106 0.42328 0.21082 0.0
C1238 C 0.10871 0.41557 0.22467 0.0
C1239 C 0.10038 0.41942 0.21298 0.0
C1240 C 0.10459 0.43101 0.18736 0.0
C1241 C 0.11666 0.4387 0.1737 0.0
C1242 C 0.11881 0.45076 0.14733 0.0
C1243 C 0.12713 0.46098 0.19658 0.0
C1244 C 0.12384 0.45311 0.07313 0.0
C1245 C 0.10609 0.44868 0.1489 0.0
C1246 C 0.09803 0.43719 0.17177 0.0
C1247 C 0.08578 0.43317 0.17825 0.0
C1248 C 0.08167 0.44113 0.16174 0.0
C1249 C 0.08978 0.45299 0.13949 0.0
C1250 C 0.10212 0.45676 0.13219 0.0
H1251 H 0.5384 0.64255 0.15962 0.0
H1252 H 0.56797 0.63535 0.15449 0.0
H1253 H 0.58237 0.65689 0.17675 0.0
H1254 H 0.55388 0.67136 0.07416 0.0
H1255 H 0.54706 0.678 0.12629 0.0
H1256 H 0.53913 0.66202 0.11079 0.0
H1257 H 0.53696 0.65815 0.24315 0.0
H1258 H 0.54495 0.67412 0.25907 0.0
H1259 H 0.55022 0.66475 0.29693 0.0
H1260 H 0.59349 0.6791 0.19768 0.0
H1261 H 0.60077 0.70082 0.2136 0.0
H1262 H 0.56407 0.6938 0.20704 0.0
C1263 C 0.54792 0.64558 0.16329 0.0
C1264 C 0.55216 0.63739 0.15606 0.0
C1265 C 0.56463 0.64156 0.16065 0.0
C1266 C 0.57283 0.65374 0.17323 0.0
C1267 C 0.56839 0.66161 0.18099 0.0
C1268 C 0.55623 0.65773 0.17608 0.0
C1269 C 0.55387 0.66811 0.18573 0.0
C1270 C 0.54815 0.66998 0.12034 0.0
C1271 C 0.54604 0.66616 0.25006 0.0
C1272 C 0.56659 0.67842 0.19644 0.0
C1273 C 0.57482 0.67445 0.19357 0.0
C1274 C 0.58714 0.68231 0.20032 0.0
C1275 C 0.59119 0.69459 0.20941 0.0
C1276 C 0.58295 0.69885 0.21177 0.0
C1277 C 0.5705 0.69067 0.206 0.0
H1278 H 0.36152 0.91918 0.14767 0.0
H1279 H 0.3674 0.88966 0.09667 0.0
H1280 H 0.34585 0.87515 0.11942 0.0
H1281 H 0.34053 0.90472 0.28564 0.0
H1282 H 0.33127 0.91114 0.26351 0.0
H1283 H 0.34708 0.91912 0.24285 0.0
H1284 H 0.34209 0.92013 0.11375 0.0
H1285 H 0.32627 0.91225 0.13412 0.0
H1286 H 0.33201 0.90644 0.06856 0.0
H1287 H 0.32376 0.86391 0.15217 0.0
H1288 H 0.30244 0.8569 0.18217 0.0
H1289 H 0.31092 0.89384 0.20753 0.0
C1290 C 0.3582 0.90965 0.14111 0.0
C1291 C 0.36601 0.90545 0.12078 0.0
C1292 C 0.36146 0.89297 0.11213 0.0
C1293 C 0.34929 0.8847 0.12523 0.0
C1294 C 0.34181 0.88911 0.14626 0.0
C1295 C 0.34607 0.90131 0.15328 0.0
C1296 C 0.33614 0.90375 0.17512 0.0
C1297 C 0.33892 0.91005 0.24599 0.0
C1298 C 0.334 0.91107 0.11956 0.0
C1299 C 0.32563 0.89102 0.17966 0.0
C1300 C 0.3291 0.88269 0.1634 0.0
C1301 C 0.32095 0.87035 0.16473 0.0
C1302 C 0.30891 0.86645 0.18205 0.0
C1303 C 0.30519 0.87486 0.19718 0.0
C1304 C 0.31364 0.88727 0.19635 0.0
H1305 H 0.46779 0.1073 0.83851 0.0
H1306 H 0.44131 0.07654 0.95486 0.0
H1307 H 0.42674 0.08373 0.9416 0.0
H1308 H 0.45989 0.12889 0.90942 0.0
H1309 H 0.46246 0.13687 0.82867 0.0
H1310 H 0.4708 0.12938 0.84865 0.0
H1311 H 0.46349 0.11743 0.73379 0.0
H1312 H 0.45499 0.12476 0.71387 0.0
H1313 H 0.44757 0.10857 0.71664 0.0
H1314 H 0.41473 0.09348 0.90903 0.0
H1315 H 0.40661 0.10641 0.8711 0.0
H1316 H 0.4412 0.13166 0.78168 0.0
C1317 C 0.45897 0.10223 0.86198 0.0
C1318 C 0.45563 0.09146 0.89836 0.0
C1319 C 0.44402 0.0849 0.92774 0.0
C1320 C 0.43569 0.08887 0.92001 0.0
C1321 C 0.43918 0.09945 0.88308 0.0
C1322 C 0.4506 0.10615 0.8554 0.0
C1323 C 0.45206 0.11726 0.81864 0.0
C1324 C 0.46188 0.12878 0.85344 0.0
C1325 C 0.45468 0.11698 0.74114 0.0
C1326 C 0.43967 0.11574 0.82975 0.0
C1327 C 0.43236 0.10532 0.86638 0.0
C1328 C 0.42042 0.10175 0.88132 0.0
C1329 C 0.4159 0.10916 0.85974 0.0
C1330 C 0.42335 0.12012 0.82476 0.0
C1331 C 0.43533 0.12335 0.80864 0.0
H1332 H 0.89389 0.31022 0.75509 0.0
H1333 H 0.86105 0.29986 0.86909 0.0
H1334 H 0.86838 0.32122 0.89804 0.0
H1335 H 0.91357 0.33295 0.87221 0.0
H1336 H 0.92334 0.34302 0.80613 0.0
H1337 H 0.91522 0.32704 0.79076 0.0
H1338 H 0.90579 0.33028 0.67988 0.0
H1339 H 0.91394 0.34629 0.69472 0.0
H1340 H 0.89781 0.33849 0.68539 0.0
H1341 H 0.87955 0.34363 0.91723 0.0
H1342 H 0.89377 0.36555 0.92468 0.0
H1343 H 0.9196 0.36127 0.80123 0.0
C1344 C 0.8882 0.31253 0.78509 0.0
C1345 C 0.87687 0.3035 0.80941 0.0
C1346 C 0.86973 0.30673 0.8498 0.0
C1347 C 0.87382 0.31881 0.86643 0.0
C1348 C 0.88509 0.32752 0.84238 0.0
C1349 C 0.89218 0.32455 0.80246 0.0
C1350 C 0.90412 0.33561 0.78529 0.0
C1351 C 0.91468 0.33459 0.81541 0.0
C1352 C 0.90549 0.3378 0.70664 0.0
C1353 C 0.90267 0.34523 0.82209 0.0
C1354 C 0.89161 0.34039 0.85447 0.0
C1355 C 0.88824 0.34752 0.89208 0.0
C1356 C 0.89638 0.35993 0.89642 0.0
C1357 C 0.90775 0.36505 0.86371 0.0
C1358 C 0.91091 0.35758 0.82625 0.0
H1359 H 0.64292 0.53836 0.8022 0.0
H1360 H 0.63815 0.56499 0.91356 0.0
H1361 H 0.65984 0.57972 0.90005 0.0
H1362 H 0.67149 0.54621 0.87737 0.0
H1363 H 0.67761 0.54365 0.79937 0.0
H1364 H 0.66162 0.53544 0.81426 0.0
H1365 H 0.65814 0.54299 0.69678 0.0
H1366 H 0.67415 0.5513 0.68174 0.0
H1367 H 0.66556 0.55893 0.67976 0.0
H1368 H 0.68179 0.59133 0.87658 0.0
H1369 H 0.70327 0.59892 0.85205 0.0
H1370 H 0.69439 0.56474 0.75865 0.0
C1371 C 0.64651 0.54732 0.82332 0.0
C1372 C 0.63898 0.55064 0.85887 0.0
C1373 C 0.64387 0.56236 0.88641 0.0
C1374 C 0.65612 0.57076 0.87865 0.0
C1375 C 0.66335 0.56726 0.84337 0.0
C1376 C 0.65879 0.55581 0.81657 0.0
C1377 C 0.6687 0.55425 0.78397 0.0
C1378 C 0.66993 0.5443 0.82097 0.0
C1379 C 0.6665 0.55172 0.70592 0.0
C1380 C 0.67954 0.56657 0.7973 0.0
C1381 C 0.67618 0.57395 0.83094 0.0
C1382 C 0.68454 0.58565 0.85026 0.0
C1383 C 0.6967 0.58987 0.83624 0.0
C1384 C 0.70043 0.58239 0.80379 0.0
C1385 C 0.69173 0.57066 0.78295 0.0
H1386 H 0.92025 0.56017 0.85711 0.0
H1387 H 0.89059 0.52358 0.87193 0.0
H1388 H 0.8762 0.53068 0.84638 0.0
H1389 H 0.9049 0.57422 0.93848 0.0
H1390 H 0.91183 0.5873 0.88335 0.0
H1391 H 0.91964 0.57925 0.90265 0.0
H1392 H 0.92183 0.57662 0.77128 0.0
H1393 H 0.91396 0.5846 0.75157 0.0
H1394 H 0.90858 0.56969 0.71745 0.0
H1395 H 0.86519 0.54182 0.8153 0.0
H1396 H 0.85826 0.55635 0.79024 0.0
H1397 H 0.89508 0.5857 0.79927 0.0
C1398 C 0.91071 0.5537 0.85517 0.0
C1399 C 0.90644 0.54135 0.86623 0.0
C1400 C 0.89394 0.53309 0.86371 0.0
C1401 C 0.88575 0.53703 0.84899 0.0
C1402 C 0.89024 0.54928 0.83752 0.0
C1403 C 0.90242 0.55751 0.84119 0.0
C1404 C 0.90491 0.57019 0.82803 0.0
C1405 C 0.91066 0.57821 0.89194 0.0
C1406 C 0.91278 0.57559 0.76322 0.0
C1407 C 0.89224 0.56783 0.81605 0.0
C1408 C 0.88391 0.5557 0.82124 0.0
C1409 C 0.87163 0.55133 0.81145 0.0
C1410 C 0.86778 0.5596 0.797 0.0
C1411 C 0.87616 0.57205 0.79312 0.0
C1412 C 0.88853 0.57619 0.80225 0.0
H1413 H 0.44123 0.31063 0.77409 0.0
H1414 H 0.40576 0.30186 0.84594 0.0
H1415 H 0.41347 0.32317 0.87689 0.0
H1416 H 0.4582 0.33241 0.90255 0.0
H1417 H 0.47001 0.34248 0.84483 0.0
H1418 H 0.46171 0.32661 0.82641 0.0
H1419 H 0.45599 0.33094 0.70534 0.0
H1420 H 0.46438 0.34684 0.72313 0.0
H1421 H 0.44875 0.33986 0.69863 0.0
H1422 H 0.42519 0.34506 0.90635 0.0
H1423 H 0.43992 0.36669 0.92286 0.0
H1424 H 0.46764 0.3617 0.82697 0.0
C1425 C 0.4351 0.31327 0.79558 0.0
C1426 C 0.42296 0.30464 0.80871 0.0
C1427 C 0.41515 0.30836 0.83669 0.0
C1428 C 0.41943 0.32042 0.85424 0.0
C1429 C 0.43152 0.32869 0.8424 0.0
C1430 C 0.43922 0.32534 0.81276 0.0
C1431 C 0.4518 0.33608 0.80524 0.0
C1432 C 0.46097 0.33428 0.84728 0.0
C1433 C 0.45544 0.33858 0.72852 0.0
C1434 C 0.44999 0.34593 0.83623 0.0
C1435 C 0.43823 0.34143 0.85761 0.0
C1436 C 0.43441 0.3487 0.88942 0.0
C1437 C 0.44281 0.36092 0.89894 0.0
C1438 C 0.45483 0.36572 0.87649 0.0
C1439 C 0.45847 0.35815 0.84468 0.0
H1440 H 0.64319 0.10733 0.83616 0.0
H1441 H 0.6385 0.0757 0.94438 0.0
H1442 H 0.66011 0.08245 0.9275 0.0
H1443 H 0.66433 0.10895 0.70954 0.0
H1444 H 0.67335 0.12513 0.71034 0.0
H1445 H 0.65756 0.11792 0.73104 0.0
H1446 H 0.66253 0.12909 0.84874 0.0
H1447 H 0.67833 0.13646 0.82802 0.0
H1448 H 0.67289 0.12795 0.90715 0.0
H1449 H 0.68176 0.092 0.89315 0.0
H1450 H 0.70287 0.10499 0.85648 0.0
H1451 H 0.69407 0.13126 0.77701 0.0
C1452 C 0.64682 0.10197 0.85694 0.0
C1453 C 0.63935 0.09108 0.89205 0.0
C1454 C 0.64422 0.08414 0.91808 0.0
C1455 C 0.65642 0.08786 0.90831 0.0
C1456 C 0.66359 0.09859 0.87282 0.0
C1457 C 0.65904 0.10565 0.84845 0.0
C1458 C 0.66878 0.11692 0.81342 0.0
C1459 C 0.66582 0.11724 0.73652 0.0
C1460 C 0.67075 0.12828 0.85163 0.0
C1461 C 0.67951 0.11507 0.82179 0.0
C1462 C 0.67624 0.10435 0.8554 0.0
C1463 C 0.68447 0.10049 0.86774 0.0
C1464 C 0.69642 0.10793 0.84687 0.0
C1465 C 0.7001 0.1192 0.81533 0.0
C1466 C 0.69148 0.12271 0.80144 0.0
H1467 H 0.55755 0.91639 0.17041 0.0
H1468 H 0.5314 0.89327 0.01771 0.0
H1469 H 0.53948 0.87936 0.0246 0.0
H1470 H 0.58197 0.91219 0.11791 0.0
H1471 H 0.5869 0.91203 0.20515 0.0
H1472 H 0.57937 0.92034 0.18543 0.0
H1473 H 0.56353 0.90853 0.28048 0.0
H1474 H 0.57097 0.90013 0.30026 0.0
H1475 H 0.55523 0.89232 0.27768 0.0
H1476 H 0.55071 0.86816 0.04748 0.0
H1477 H 0.56406 0.86044 0.08536 0.0
H1478 H 0.58162 0.88994 0.23058 0.0
C1479 C 0.55345 0.90835 0.13882 0.0
C1480 C 0.54382 0.90589 0.09355 0.0
C1481 C 0.53887 0.8954 0.05205 0.0
C1482 C 0.54334 0.88741 0.0561 0.0
C1483 C 0.55268 0.88999 0.10241 0.0
C1484 C 0.55764 0.90019 0.14321 0.0
C1485 C 0.56745 0.90079 0.1898 0.0
C1486 C 0.57964 0.912 0.17357 0.0
C1487 C 0.56409 0.90042 0.2666 0.0
C1488 C 0.5673 0.88936 0.16857 0.0
C1489 C 0.55876 0.88329 0.1178 0.0
C1490 C 0.55732 0.87277 0.08775 0.0
C1491 C 0.56488 0.86843 0.10962 0.0
C1492 C 0.57363 0.87451 0.16157 0.0
C1493 C 0.57478 0.88502 0.19187 0.0
H1494 H 0.10472 0.64364 0.08683 0.0
H1495 H 0.07466 0.63397 0.22561 0.0
H1496 H 0.08315 0.65527 0.25812 0.0
H1497 H 0.1274 0.66662 0.19053 0.0
H1498 H 0.13535 0.67663 0.11972 0.0
H1499 H 0.12681 0.66064 0.1052 0.0
H1500 H 0.1146 0.66376 0.00867 0.0
H1501 H 0.12318 0.67978 0.02246 0.0
H1502 H 0.10699 0.67203 0.02768 0.0
H1503 H 0.09542 0.67721 0.28199 0.0
H1504 H 0.10997 0.69905 0.28749 0.0
H1505 H 0.13162 0.69512 0.12864 0.0
C1506 C 0.09988 0.64607 0.12333 0.0
C1507 C 0.08915 0.63716 0.15477 0.0
C1508 C 0.08304 0.64064 0.20221 0.0
C1509 C 0.08776 0.65272 0.22073 0.0
C1510 C 0.09851 0.66126 0.19042 0.0
C1511 C 0.10442 0.65817 0.14189 0.0
C1512 C 0.11583 0.66922 0.11722 0.0
C1513 C 0.12701 0.66821 0.1342 0.0
C1514 C 0.11511 0.67132 0.03938 0.0
C1515 C 0.11548 0.67893 0.16037 0.0
C1516 C 0.10541 0.67409 0.20244 0.0
C1517 C 0.10327 0.68113 0.24885 0.0
C1518 C 0.11158 0.69348 0.25193 0.0
C1519 C 0.12183 0.69865 0.2086 0.0
C1520 C 0.1238 0.69131 0.16212 0.0
H1521 H 0.36239 0.44379 0.1654 0.0
H1522 H 0.36711 0.47707 0.07929 0.0
H1523 H 0.34552 0.47 0.09894 0.0
H1524 H 0.33321 0.42432 0.09631 0.0
H1525 H 0.32774 0.41487 0.17204 0.0
H1526 H 0.34356 0.42262 0.15189 0.0
H1527 H 0.34838 0.43247 0.27356 0.0
H1528 H 0.33256 0.42475 0.29406 0.0
H1529 H 0.34133 0.4409 0.30116 0.0
H1530 H 0.32333 0.459 0.12389 0.0
H1531 H 0.30202 0.44484 0.15371 0.0
H1532 H 0.31184 0.41913 0.22925 0.0
C1533 C 0.35889 0.44963 0.15165 0.0
C1534 C 0.36638 0.461 0.12125 0.0
C1535 C 0.36147 0.46831 0.10245 0.0
C1536 C 0.34925 0.4644 0.11371 0.0
C1537 C 0.3421 0.45317 0.14424 0.0
C1538 C 0.34673 0.4459 0.16321 0.0
C1539 C 0.33707 0.43418 0.19448 0.0
C1540 C 0.33529 0.42336 0.15107 0.0
C1541 C 0.34001 0.43301 0.27032 0.0
C1542 C 0.32625 0.43593 0.18944 0.0
C1543 C 0.32936 0.44696 0.16024 0.0
C1544 C 0.32082 0.45042 0.14753 0.0
C1545 C 0.30878 0.44237 0.16463 0.0
C1546 C 0.30544 0.43107 0.19453 0.0
C1547 C 0.31428 0.42785 0.20757 0.0
H1548 H 0.7762 0.80156 0.50311 0.0
H1549 H 0.74353 0.77495 0.40167 0.0
H1550 H 0.7503 0.76 0.41109 0.0
H1551 H 0.79593 0.79257 0.41955 0.0
H1552 H 0.80524 0.79541 0.49512 0.0
H1553 H 0.79772 0.80392 0.48105 0.0
H1554 H 0.78775 0.79744 0.60198 0.0
H1555 H 0.79513 0.7888 0.6161 0.0
H1556 H 0.77898 0.78166 0.62274 0.0
H1557 H 0.76006 0.74778 0.43676 0.0
H1558 H 0.77328 0.7395 0.46433 0.0
H1559 H 0.80049 0.77434 0.5416 0.0
C1560 C 0.77058 0.7926 0.48244 0.0
C1561 C 0.75939 0.78932 0.45137 0.0
C1562 C 0.75217 0.77756 0.42506 0.0
C1563 C 0.75591 0.76903 0.43059 0.0
C1564 C 0.76695 0.77248 0.46204 0.0
C1565 C 0.77428 0.78402 0.48661 0.0
C1566 C 0.78588 0.78543 0.51629 0.0
C1567 C 0.79684 0.79489 0.47555 0.0
C1568 C 0.787 0.78852 0.59389 0.0
C1569 C 0.7839 0.77287 0.5047 0.0
C1570 C 0.77284 0.76553 0.47418 0.0
C1571 C 0.76881 0.75348 0.45975 0.0
C1572 C 0.77638 0.74887 0.4754 0.0
C1573 C 0.78796 0.75633 0.50394 0.0
C1574 C 0.79168 0.76845 0.51971 0.0
H1575 H 0.20707 0.97491 0.53501 0.0
H1576 H 0.22905 0.97093 0.37854 0.0
H1577 H 0.24329 0.99284 0.38202 0.0
H1578 H 0.21114 0.00338 0.47187 0.0
H1579 H 0.21159 0.00928 0.55727 0.0
H1580 H 0.20314 0.99329 0.5423 0.0
H1581 H 0.21514 0.99005 0.63962 0.0
H1582 H 0.22372 0.00604 0.65445 0.0
H1583 H 0.23134 0.99779 0.63525 0.0
H1584 H 0.25546 0.01485 0.40548 0.0
H1585 H 0.26404 0.0361 0.43959 0.0
H1586 H 0.2339 0.0263 0.57791 0.0
C1587 C 0.21485 0.97873 0.50127 0.0
C1588 C 0.21698 0.97133 0.45609 0.0
C1589 C 0.22723 0.97652 0.41275 0.0
C1590 C 0.23539 0.98892 0.41479 0.0
C1591 C 0.23312 0.99598 0.4603 0.0
C1592 C 0.22305 0.99113 0.50228 0.0
C1593 C 0.22268 1.00081 0.54559 0.0
C1594 C 0.21147 0.00174 0.52819 0.0
C1595 C 0.22326 0.99853 0.62334 0.0
C1596 C 0.23411 0.01186 0.52136 0.0
C1597 C 0.24003 0.00881 0.47262 0.0
C1598 C 0.25085 0.01737 0.443 0.0
C1599 C 0.25562 0.02941 0.46251 0.0
C1600 C 0.24952 0.03283 0.51041 0.0
C1601 C 0.23873 0.0239 0.54108 0.0
H1602 H 0.97993 0.22626 0.57651 0.0
H1603 H 0.96817 0.19673 0.43162 0.0
H1604 H 0.98928 0.20453 0.39425 0.0
H1605 H 1.00237 0.24868 0.46439 0.0
H1606 H 0.01281 0.25664 0.53349 0.0
H1607 H 0.99688 0.24844 0.5507 0.0
H1608 H 1.00023 0.23631 0.64684 0.0
H1609 H 0.01617 0.24448 0.62999 0.0
H1610 H 0.00803 0.22828 0.62627 0.0
H1611 H 0.01178 0.21537 0.3751 0.0
H1612 H 0.03387 0.22883 0.37249 0.0
H1613 H 0.03067 0.25227 0.52217 0.0
C1614 C 0.98188 0.22143 0.53738 0.0
C1615 C 0.97256 0.21086 0.50721 0.0
C1616 C 0.97529 0.20482 0.45534 0.0
C1617 C 0.98721 0.20918 0.4339 0.0
C1618 C 0.99625 0.21968 0.4643 0.0
C1619 C 0.99371 0.22578 0.51456 0.0
C1620 C 0.00502 0.23708 0.53723 0.0
C1621 C 0.00422 0.24837 0.52042 0.0
C1622 C 0.00751 0.2365 0.61467 0.0
C1623 C 0.0143 0.23633 0.49233 0.0
C1624 C 0.00909 0.22619 0.451 0.0
C1625 C 0.01594 0.22339 0.4068 0.0
C1626 C 0.02846 0.23112 0.4053 0.0
C1627 C 0.03398 0.24156 0.44716 0.0
C1628 C 0.02673 0.24425 0.49032 0.0
H1629 H 0.25275 0.22435 0.48777 0.0
H1630 H 0.2272 0.19654 0.62483 0.0
H1631 H 0.21335 0.20461 0.6119 0.0
H1632 H 0.24777 0.24801 0.54392 0.0
H1633 H 0.24908 0.25424 0.45855 0.0
H1634 H 0.25695 0.2463 0.47923 0.0
H1635 H 0.24668 0.23195 0.37545 0.0
H1636 H 0.23875 0.23983 0.35456 0.0
H1637 H 0.23049 0.22382 0.3693 0.0
H1638 H 0.20263 0.21612 0.58678 0.0
H1639 H 0.1957 0.23017 0.55013 0.0
H1640 H 0.22758 0.24967 0.42344 0.0
C1641 C 0.24418 0.21989 0.5144 0.0
C1642 C 0.24099 0.2098 0.55713 0.0
C1643 C 0.22982 0.20433 0.59226 0.0
C1644 C 0.22188 0.20881 0.58487 0.0
C1645 C 0.22523 0.2187 0.54171 0.0
C1646 C 0.2361 0.22415 0.50684 0.0
C1647 C 0.23754 0.23466 0.46363 0.0
C1648 C 0.24848 0.2465 0.48781 0.0
C1649 C 0.23841 0.23243 0.38614 0.0
C1650 C 0.22584 0.23435 0.48014 0.0
C1651 C 0.21888 0.22508 0.52543 0.0
C1652 C 0.20793 0.2233 0.55069 0.0
C1653 C 0.20405 0.23127 0.5296 0.0
C1654 C 0.21104 0.24077 0.4833 0.0
C1655 C 0.222 0.24228 0.45781 0.0
H1656 H 0.77316 0.97734 0.42895 0.0
H1657 H 0.73833 0.96949 0.50751 0.0
H1658 H 0.74645 0.99101 0.5342 0.0
H1659 H 0.79088 0.99918 0.55247 0.0
H1660 H 0.80255 0.00905 0.49347 0.0
H1661 H 0.7939 0.99318 0.47545 0.0
H1662 H 0.78784 0.9976 0.35565 0.0
H1663 H 0.79662 0.0135 0.3729 0.0
H1664 H 0.78093 0.00683 0.35058 0.0
H1665 H 0.7587 0.01281 0.56318 0.0
H1666 H 0.77396 0.03425 0.58087 0.0
H1667 H 0.80072 0.02851 0.47853 0.0
C1668 C 0.76723 0.98025 0.45035 0.0
C1669 C 0.75516 0.97182 0.46679 0.0
C1670 C 0.74763 0.97585 0.49518 0.0
C1671 C 0.75216 0.98803 0.51049 0.0
C1672 C 0.7642 0.9961 0.49601 0.0
C1673 C 0.7716 0.99245 0.4654 0.0
C1674 C 0.78427 0.003 0.45644 0.0
C1675 C 0.79344 1.00098 0.49688 0.0
C1676 C 0.78761 0.00537 0.3793 0.0
C1677 C 0.78287 0.01305 0.48822 0.0
C1678 C 0.77122 0.00884 0.51091 0.0
C1679 C 0.76781 0.01626 0.54485 0.0
C1680 C 0.77651 0.02836 0.55509 0.0
C1681 C 0.78841 0.0329 0.53112 0.0
C1682 C 0.79163 0.02518 0.49714 0.0
H1683 H 0.97774 0.77209 0.5832 0.0
H1684 H 0.96962 0.73851 0.48468 0.0
H1685 H 0.9912 0.74655 0.46081 0.0
H1686 H 1.00047 0.79139 0.46802 0.0
H1687 H 0.0102 0.80196 0.53238 0.0
H1688 H 0.99422 0.79337 0.54723 0.0
H1689 H 0.99774 0.78522 0.66239 0.0
H1690 H 0.01376 0.79393 0.64842 0.0
H1691 H 0.00665 0.77793 0.66224 0.0
H1692 H 0.01313 0.75869 0.43727 0.0
H1693 H 0.03481 0.77368 0.42697 0.0
H1694 H 0.0293 0.79931 0.54429 0.0
C1695 C 0.9806 0.7664 0.55805 0.0
C1696 C 0.97208 0.75474 0.53512 0.0
C1697 C 0.97605 0.74752 0.50192 0.0
C1698 C 0.98827 0.752 0.48818 0.0
C1699 C 0.99643 0.76368 0.50889 0.0
C1700 C 0.99285 0.77073 0.54424 0.0
C1701 C 0.00354 0.78308 0.55928 0.0
C1702 C 1.00201 0.79303 0.52465 0.0
C1703 C 0.00554 0.78516 0.63776 0.0
C1704 C 0.0136 0.78192 0.52557 0.0
C1705 C 0.00926 0.77064 0.49668 0.0
C1706 C 0.01668 0.76751 0.46035 0.0
C1707 C 0.02892 0.77606 0.4543 0.0
C1708 C 0.0336 0.78756 0.48466 0.0
C1709 C 0.02586 0.79054 0.52069 0.0
H1710 H 0.09828 0.30739 0.31542 0.0
H1711 H 0.09264 0.30989 0.53535 0.0
H1712 H 0.10221 0.33193 0.52469 0.0
H1713 H 0.12719 0.33351 0.30599 0.0
H1714 H 0.12491 0.3381 0.2217 0.0
H1715 H 0.117 0.32242 0.24523 0.0
H1716 H 0.09667 0.32123 0.21778 0.0
H1717 H 0.10452 0.33691 0.19399 0.0
H1718 H 0.09296 0.33154 0.25946 0.0
H1719 H 0.11311 0.35357 0.49221 0.0
H1720 H 0.12462 0.37366 0.44005 0.0
H1721 H 0.12332 0.35743 0.24031 0.0
C1722 C 0.09894 0.31255 0.36126 0.0
C1723 C 0.09467 0.30687 0.42629 0.0
C1724 C 0.09582 0.31399 0.485 0.0
C1725 C 0.10123 0.32653 0.47947 0.0
C1726 C 0.10544 0.33182 0.41489 0.0
C1727 C 0.10434 0.32509 0.35673 0.0
C1728 C 0.10998 0.3331 0.29395 0.0
C1729 C 0.12039 0.3317 0.26505 0.0
C1730 C 0.10046 0.33054 0.23799 0.0
C1731 C 0.11455 0.3454 0.3262 0.0
C1732 C 0.11177 0.34441 0.39595 0.0
C1733 C 0.11528 0.35447 0.43757 0.0
C1734 C 0.12186 0.36586 0.4073 0.0
C1735 C 0.1249 0.36717 0.3359 0.0
C1736 C 0.12109 0.35675 0.29484 0.0
H1737 H 0.64961 0.76658 0.22094 0.0
H1738 H 0.63238 0.75427 0.42152 0.0
H1739 H 0.65222 0.76328 0.47748 0.0
H1740 H 0.67519 0.76213 0.25511 0.0
H1741 H 0.68574 0.77553 0.20923 0.0
H1742 H 0.67015 0.76752 0.18358 0.0
H1743 H 0.66902 0.78701 0.19801 0.0
H1744 H 0.68459 0.79506 0.22379 0.0
H1745 H 0.67324 0.79491 0.27956 0.0
H1746 H 0.67368 0.77417 0.5131 0.0
H1747 H 0.69565 0.78655 0.52638 0.0
H1748 H 0.69933 0.79214 0.30359 0.0
C1749 C 0.65002 0.76567 0.2765 0.0
C1750 C 0.6394 0.75969 0.3167 0.0
C1751 C 0.64035 0.75882 0.38945 0.0
C1752 C 0.65159 0.76388 0.42185 0.0
C1753 C 0.66186 0.76982 0.381 0.0
C1754 C 0.66122 0.77075 0.30997 0.0
C1755 C 0.6737 0.77805 0.27883 0.0
C1756 C 0.67635 0.77034 0.22873 0.0
C1757 C 0.67522 0.78943 0.24295 0.0
C1758 C 0.68139 0.78114 0.34361 0.0
C1759 C 0.67435 0.77623 0.40182 0.0
C1760 C 0.67931 0.77803 0.4679 0.0
C1761 C 0.69182 0.7851 0.47487 0.0
C1762 C 0.69927 0.79034 0.4161 0.0
C1763 C 0.69392 0.78823 0.34957 0.0
H1764 H 0.21294 0.9071 0.30607 0.0
H1765 H 0.224 0.91352 0.52194 0.0
H1766 H 0.23722 0.90503 0.5021 0.0
H1767 H 0.21163 0.8789 0.29232 0.0
H1768 H 0.21731 0.88121 0.20493 0.0
H1769 H 0.2093 0.88857 0.23429 0.0
H1770 H 0.2274 0.90923 0.20001 0.0
H1771 H 0.23549 0.90193 0.17064 0.0
H1772 H 0.2421 0.91372 0.23458 0.0
H1773 H 0.24833 0.89503 0.46197 0.0
H1774 H 0.25646 0.88353 0.40455 0.0
H1775 H 0.23848 0.88335 0.21344 0.0
C1776 C 0.21824 0.90684 0.34901 0.0
C1777 C 0.21743 0.91102 0.41563 0.0
C1778 C 0.22443 0.91038 0.47051 0.0
C1779 C 0.23201 0.90561 0.45971 0.0
C1780 C 0.23254 0.90152 0.39372 0.0
C1781 C 0.22585 0.90206 0.33921 0.0
C1782 C 0.2277 0.89648 0.27428 0.0
C1783 C 0.21577 0.88565 0.25006 0.0
C1784 C 0.23352 0.9059 0.21646 0.0
C1785 C 0.23632 0.89256 0.30129 0.0
C1786 C 0.23903 0.89566 0.37023 0.0
C1787 C 0.24635 0.89262 0.40789 0.0
C1788 C 0.2509 0.88605 0.37471 0.0
C1789 C 0.24813 0.88254 0.30438 0.0
C1790 C 0.24089 0.88603 0.2669 0.0
H1791 H 0.30816 0.09627 0.69784 0.0
H1792 H 0.31202 0.09636 0.47414 0.0
H1793 H 0.33406 0.10691 0.48716 0.0
H1794 H 0.33327 0.12567 0.72668 0.0
H1795 H 0.33782 0.12181 0.80651 0.0
H1796 H 0.32226 0.11377 0.78054 0.0
H1797 H 0.32221 0.09361 0.78886 0.0
H1798 H 0.33778 0.10157 0.81499 0.0
H1799 H 0.33321 0.09171 0.74092 0.0
H1800 H 0.35544 0.11771 0.52286 0.0
H1801 H 0.37522 0.12846 0.57878 0.0
H1802 H 0.35798 0.12179 0.78061 0.0
C1803 C 0.31363 0.09842 0.6516 0.0
C1804 C 0.30833 0.09545 0.58488 0.0
C1805 C 0.31584 0.09854 0.52574 0.0
C1806 C 0.32838 0.10451 0.53258 0.0
C1807 C 0.3333 0.10738 0.59888 0.0
C1808 C 0.3262 0.10446 0.65743 0.0
C1809 C 0.33388 0.1089 0.72244 0.0
C1810 C 0.33167 0.11808 0.76131 0.0
C1811 C 0.33163 0.09832 0.76958 0.0
C1812 C 0.34639 0.11483 0.69106 0.0
C1813 C 0.34578 0.11377 0.61972 0.0
C1814 C 0.35605 0.11858 0.57868 0.0
C1815 C 0.36727 0.1247 0.61122 0.0
C1816 C 0.36822 0.12601 0.68437 0.0
C1817 C 0.35759 0.12095 0.72473 0.0
H1818 H 0.90579 0.21604 0.55227 0.0
H1819 H 0.91983 0.21348 0.75261 0.0
H1820 H 0.91101 0.22463 0.80621 0.0
H1821 H 0.91021 0.24633 0.57777 0.0
H1822 H 0.89644 0.24293 0.53418 0.0
H1823 H 0.90439 0.23523 0.50972 0.0
H1824 H 0.88514 0.21472 0.53171 0.0
H1825 H 0.87715 0.22236 0.55633 0.0
H1826 H 0.87783 0.21177 0.61495 0.0
H1827 H 0.89995 0.23502 0.84043 0.0
H1828 H 0.88738 0.24443 0.85277 0.0
H1829 H 0.88045 0.24071 0.63122 0.0
C1830 C 0.90711 0.21794 0.60723 0.0
C1831 C 0.91353 0.21385 0.64802 0.0
C1832 C 0.91496 0.21646 0.71999 0.0
C1833 C 0.91 0.22283 0.75112 0.0
C1834 C 0.90363 0.2266 0.70982 0.0
C1835 C 0.90219 0.22432 0.63946 0.0
C1836 C 0.89458 0.22912 0.60781 0.0
C1837 C 0.90184 0.23899 0.5542 0.0
C1838 C 0.88298 0.21888 0.57583 0.0
C1839 C 0.89188 0.23428 0.67162 0.0
C1840 C 0.89724 0.23274 0.72975 0.0
C1841 C 0.89577 0.23637 0.79525 0.0
C1842 C 0.88858 0.24168 0.80172 0.0
C1843 C 0.88294 0.24336 0.74302 0.0
C1844 C 0.88471 0.23967 0.67703 0.0
H1845 H 0.7894 0.68916 0.5339 0.0
H1846 H 0.79194 0.70756 0.72762 0.0
H1847 H 0.78094 0.68815 0.78723 0.0
H1848 H 0.75919 0.66329 0.56479 0.0
H1849 H 0.76272 0.65262 0.52643 0.0
H1850 H 0.77025 0.66799 0.49666 0.0
H1851 H 0.7909 0.66973 0.52186 0.0
H1852 H 0.78343 0.65439 0.55189 0.0
H1853 H 0.79399 0.6663 0.60739 0.0
H1854 H 0.77069 0.66721 0.82833 0.0
H1855 H 0.76134 0.64545 0.84859 0.0
H1856 H 0.76509 0.63995 0.62986 0.0
C1857 C 0.7875 0.68907 0.58862 0.0
C1858 C 0.79157 0.69993 0.6259 0.0
C1859 C 0.789 0.69942 0.69773 0.0
C1860 C 0.78271 0.68841 0.73225 0.0
C1861 C 0.77899 0.67793 0.69451 0.0
C1862 C 0.78122 0.67809 0.62434 0.0
C1863 C 0.77653 0.6654 0.59728 0.0
C1864 C 0.76658 0.66213 0.54308 0.0
C1865 C 0.78683 0.66387 0.56788 0.0
C1866 C 0.77148 0.65818 0.66344 0.0
C1867 C 0.77298 0.66564 0.71866 0.0
C1868 C 0.76938 0.66124 0.7855 0.0
C1869 C 0.76411 0.64884 0.79648 0.0
C1870 C 0.76246 0.64095 0.74091 0.0
C1871 C 0.76616 0.64572 0.67339 0.0
H1872 H 0.88371 0.6469 0.78277 0.0
H1873 H 0.88346 0.62938 0.58971 0.0
H1874 H 0.89468 0.64906 0.53271 0.0
H1875 H 0.87888 0.66923 0.70743 0.0
H1876 H 0.88867 0.68118 0.76522 0.0
H1877 H 0.88153 0.66578 0.79398 0.0
H1878 H 0.90233 0.66833 0.82492 0.0
H1879 H 0.90953 0.68378 0.79666 0.0
H1880 H 0.91395 0.67366 0.75984 0.0
H1881 H 0.90449 0.67017 0.49338 0.0
H1882 H 0.91303 0.6919 0.47473 0.0
H1883 H 0.90723 0.69632 0.692 0.0
C1884 C 0.88623 0.64725 0.72893 0.0
C1885 C 0.8827 0.63657 0.69081 0.0
C1886 C 0.88601 0.6374 0.62005 0.0
C1887 C 0.89242 0.64856 0.58709 0.0
C1888 C 0.89552 0.65887 0.6254 0.0
C1889 C 0.89263 0.65838 0.69479 0.0
C1890 C 0.8966 0.6709 0.7225 0.0
C1891 C 0.88577 0.67182 0.74882 0.0
C1892 C 0.90617 0.67437 0.77935 0.0
C1893 C 0.90195 0.67838 0.65751 0.0
C1894 C 0.90126 0.67122 0.60233 0.0
C1895 C 0.90519 0.67591 0.53628 0.0
C1896 C 0.90999 0.68828 0.52617 0.0
C1897 C 0.91084 0.69587 0.58182 0.0
C1898 C 0.90679 0.6908 0.64845 0.0
H1899 H 0.30687 0.21137 0.72165 0.0
H1900 H 0.30919 0.21892 0.50096 0.0
H1901 H 0.33121 0.23129 0.51048 0.0
H1902 H 0.33143 0.24092 0.77511 0.0
H1903 H 0.33687 0.23482 0.84075 0.0
H1904 H 0.32113 0.22707 0.81819 0.0
H1905 H 0.32205 0.20775 0.79197 0.0
H1906 H 0.33779 0.21544 0.8143 0.0
H1907 H 0.33296 0.20838 0.73068 0.0
H1908 H 0.35272 0.24201 0.54123 0.0
H1909 H 0.37292 0.25058 0.59112 0.0
H1910 H 0.35732 0.23623 0.79308 0.0
C1911 C 0.312 0.21575 0.67551 0.0
C1912 C 0.30627 0.21419 0.61051 0.0
C1913 C 0.31334 0.21995 0.55126 0.0
C1914 C 0.32587 0.22703 0.55614 0.0
C1915 C 0.33123 0.22827 0.6206 0.0
C1916 C 0.32458 0.22282 0.67934 0.0
C1917 C 0.33274 0.22529 0.74162 0.0
C1918 C 0.3304 0.23245 0.7972 0.0
C1919 C 0.3313 0.21352 0.77137 0.0
C1920 C 0.34501 0.23286 0.70831 0.0
C1921 C 0.34384 0.23448 0.63855 0.0
C1922 C 0.35377 0.24086 0.59585 0.0
C1923 C 0.36523 0.24567 0.6249 0.0
C1924 C 0.36677 0.24409 0.69624 0.0
C1925 C 0.35647 0.23766 0.73856 0.0
H1926 H 0.76902 0.12179 0.78686 0.0
H1927 H 0.75255 0.12179 0.58992 0.0
H1928 H 0.76137 0.11068 0.53641 0.0
H1929 H 0.7966 0.12628 0.71657 0.0
H1930 H 0.79829 0.11643 0.77638 0.0
H1931 H 0.79013 0.12385 0.80205 0.0
H1932 H 0.77154 0.10325 0.83208 0.0
H1933 H 0.77967 0.09577 0.80674 0.0
H1934 H 0.76536 0.09157 0.76736 0.0
H1935 H 0.77273 0.10083 0.5008 0.0
H1936 H 0.78566 0.09188 0.48627 0.0
H1937 H 0.7948 0.09755 0.70506 0.0
C1938 C 0.76716 0.11932 0.73277 0.0
C1939 C 0.7601 0.12274 0.69281 0.0
C1940 C 0.75796 0.11938 0.6219 0.0
C1941 C 0.76291 0.11302 0.59078 0.0
C1942 C 0.76997 0.10997 0.631 0.0
C1943 C 0.77206 0.1129 0.70048 0.0
C1944 C 0.7803 0.10874 0.73071 0.0
C1945 C 0.79203 0.11947 0.75803 0.0
C1946 C 0.77383 0.09927 0.78759 0.0
C1947 C 0.7826 0.10321 0.66702 0.0
C1948 C 0.77651 0.10404 0.61026 0.0
C1949 C 0.77748 0.10001 0.54493 0.0
C1950 C 0.7849 0.09499 0.53716 0.0
C1951 C 0.79123 0.09397 0.59446 0.0
C1952 C 0.78999 0.09809 0.66037 0.0
H1953 H 0.69772 0.90701 0.29309 0.0
H1954 H 0.69225 0.91247 0.50923 0.0
H1955 H 0.67056 0.9037 0.48736 0.0
H1956 H 0.67512 0.91335 0.2207 0.0
H1957 H 0.67026 0.90179 0.15555 0.0
H1958 H 0.68556 0.90914 0.18645 0.0
H1959 H 0.68316 0.88847 0.21907 0.0
H1960 H 0.66788 0.88106 0.18811 0.0
H1961 H 0.67104 0.87853 0.27554 0.0
H1962 H 0.64964 0.89385 0.44484 0.0
H1963 H 0.63023 0.88254 0.3853 0.0
H1964 H 0.64863 0.88296 0.19543 0.0
C1965 C 0.69197 0.90646 0.33568 0.0
C1966 C 0.69673 0.91048 0.40294 0.0
C1967 C 0.68886 0.90946 0.45735 0.0
C1968 C 0.67652 0.90454 0.44539 0.0
C1969 C 0.67214 0.90065 0.37876 0.0
C1970 C 0.67957 0.90149 0.32475 0.0
C1971 C 0.67237 0.89606 0.25891 0.0
C1972 C 0.67605 0.90566 0.20204 0.0
C1973 C 0.67369 0.8854 0.23396 0.0
C1974 C 0.65971 0.89191 0.28477 0.0
C1975 C 0.65988 0.89477 0.35396 0.0
C1976 C 0.64939 0.8916 0.3906 0.0
C1977 C 0.63839 0.88514 0.35615 0.0
C1978 C 0.63787 0.88183 0.28555 0.0
C1979 C 0.64873 0.88545 0.24911 0.0
H1980 H 0.12115 0.7665 0.21982 0.0
H1981 H 0.12247 0.74987 0.41324 0.0
H1982 H 0.11109 0.75809 0.47106 0.0
H1983 H 0.12562 0.79364 0.2947 0.0
H1984 H 0.11553 0.79544 0.23748 0.0
H1985 H 0.12292 0.78744 0.20844 0.0
H1986 H 0.10226 0.76888 0.17911 0.0
H1987 H 0.0948 0.77685 0.20784 0.0
H1988 H 0.0908 0.76245 0.24507 0.0
H1989 H 0.10082 0.76889 0.51065 0.0
H1990 H 0.09197 0.78178 0.53008 0.0
H1991 H 0.0971 0.79183 0.31246 0.0
C1992 C 0.11886 0.76444 0.274 0.0
C1993 C 0.1227 0.75752 0.31187 0.0
C1994 C 0.11968 0.75517 0.38304 0.0
C1995 C 0.11317 0.75977 0.41646 0.0
C1996 C 0.10971 0.76672 0.37821 0.0
C1997 C 0.11239 0.76905 0.3086 0.0
C1998 C 0.10807 0.77733 0.28104 0.0
C1999 C 0.11867 0.78916 0.25383 0.0
C2000 C 0.09841 0.771 0.22494 0.0
C2001 C 0.10274 0.77939 0.34636 0.0
C2002 C 0.10374 0.77309 0.40152 0.0
C2003 C 0.09989 0.7738 0.46781 0.0
C2004 C 0.0949 0.7812 0.47832 0.0
C2005 C 0.09381 0.78783 0.42286 0.0
C2006 C 0.09772 0.78681 0.35584 0.0
H2007 H 0.24395 0.3649 0.3727 0.0
H2008 H 0.24563 0.36152 0.14957 0.0
H2009 H 0.23636 0.33955 0.16197 0.0
H2010 H 0.25014 0.34088 0.41974 0.0
H2011 H 0.23974 0.33575 0.49139 0.0
H2012 H 0.24719 0.35135 0.46595 0.0
H2013 H 0.22653 0.35012 0.45188 0.0
H2014 H 0.21901 0.33454 0.47723 0.0
H2015 H 0.21534 0.33883 0.39587 0.0
H2016 H 0.22617 0.31809 0.19682 0.0
H2017 H 0.21531 0.29817 0.25171 0.0
H2018 H 0.21997 0.31508 0.45313 0.0
C2019 C 0.2425 0.35956 0.3265 0.0
C2020 C 0.24556 0.36497 0.2601 0.0
C2021 C 0.24337 0.35762 0.20095 0.0
C2022 C 0.23814 0.34512 0.20746 0.0
C2023 C 0.23514 0.34008 0.27343 0.0
C2024 C 0.23722 0.34703 0.33199 0.0
C2025 C 0.23265 0.33924 0.39645 0.0
C2026 C 0.24305 0.34197 0.44632 0.0
C2027 C 0.2228 0.34078 0.43245 0.0
C2028 C 0.22753 0.32682 0.36473 0.0
C2029 C 0.22916 0.32757 0.29374 0.0
C2030 C 0.2249 0.31738 0.25241 0.0
C2031 C 0.21871 0.30609 0.28424 0.0
C2032 C 0.21677 0.30502 0.3569 0.0
C2033 C 0.22138 0.31558 0.39764 0.0
H2034 H 0.97392 0.4298 0.02538 0.0
H2035 H 0.9774 0.42198 0.81033 0.0
H2036 H 0.99931 0.43154 0.8248 0.0
H2037 H 1.00006 0.45869 0.02961 0.0
H2038 H 0.00442 0.45737 0.11649 0.0
H2039 H 0.98881 0.44915 0.09166 0.0
H2040 H 0.98759 0.42921 0.12952 0.0
H2041 H 0.00321 0.43738 0.15473 0.0
H2042 H 0.99806 0.42514 0.09378 0.0
H2043 H 0.02067 0.4428 0.8587 0.0
H2044 H 0.04062 0.45503 0.91102 0.0
H2045 H 0.02394 0.45579 0.10549 0.0
C2046 C 0.97928 0.42995 0.98165 0.0
C2047 C 0.9739 0.42511 0.91668 0.0
C2048 C 0.98126 0.42563 0.86055 0.0
C2049 C 0.99374 0.43102 0.86825 0.0
C2050 C 0.99877 0.43585 0.93242 0.0
C2051 C 0.99182 0.43536 0.98834 0.0
C2052 C 0.99966 0.4417 0.05078 0.0
C2053 C 0.99814 0.45236 0.07344 0.0
C2054 C 0.99697 0.43282 0.11075 0.0
C2055 C 0.01209 0.44598 0.02064 0.0
C2056 C 0.01128 0.44242 0.95236 0.0
C2057 C 0.02143 0.44557 0.91229 0.0
C2058 C 0.03275 0.45257 0.9426 0.0
C2059 C 0.0339 0.45639 0.01252 0.0
C2060 C 0.02338 0.45295 0.05215 0.0
H2061 H 0.57501 0.54517 0.03948 0.0
H2062 H 0.57683 0.55093 0.81687 0.0
H2063 H 0.56678 0.56286 0.83043 0.0
H2064 H 0.54578 0.54166 0.06264 0.0
H2065 H 0.54918 0.54942 0.14456 0.0
H2066 H 0.55706 0.54173 0.11864 0.0
H2067 H 0.57745 0.56141 0.13414 0.0
H2068 H 0.56963 0.56917 0.1602 0.0
H2069 H 0.5801 0.57482 0.08893 0.0
H2070 H 0.55613 0.57355 0.86588 0.0
H2071 H 0.54521 0.58246 0.92138 0.0
H2072 H 0.54991 0.56997 0.12214 0.0
C2073 C 0.57339 0.54903 0.99369 0.0
C2074 C 0.57674 0.5471 0.92706 0.0
C2075 C 0.57434 0.55223 0.86843 0.0
C2076 C 0.56866 0.55906 0.87555 0.0
C2077 C 0.56539 0.5607 0.94163 0.0
C2078 C 0.56765 0.55586 0.99978 0.0
C2079 C 0.56284 0.55877 0.06448 0.0
C2080 C 0.55314 0.5472 0.09963 0.0
C2081 C 0.57312 0.5665 0.11491 0.0
C2082 C 0.55746 0.5659 0.03327 0.0
C2083 C 0.55912 0.56692 0.96235 0.0
C2084 C 0.55482 0.57287 0.92143 0.0
C2085 C 0.5486 0.57789 0.95366 0.0
C2086 C 0.54668 0.57695 0.02635 0.0
C2087 C 0.55125 0.5709 0.06661 0.0
H2088 H 0.43378 0.98026 0.12327 0.0
H2089 H 0.41567 0.96413 0.92949 0.0
H2090 H 0.42382 0.98419 0.87784 0.0
H2091 H 0.43021 0.00718 0.11272 0.0
H2092 H 0.44492 0.01704 0.14836 0.0
H2093 H 0.4368 1.00141 0.17322 0.0
H2094 H 0.45486 0.99906 0.13476 0.0
H2095 H 0.463 0.01464 0.10946 0.0
H2096 H 0.46054 0.00311 0.04764 0.0
H2097 H 0.43496 0.00554 0.84319 0.0
H2098 H 0.44826 0.02736 0.82842 0.0
H2099 H 0.45941 0.03026 0.04349 0.0
C2100 C 0.43136 0.981 0.0705 0.0
C2101 C 0.42407 0.9706 0.03053 0.0
C2102 C 0.42127 0.97193 0.96117 0.0
C2103 C 0.42582 0.9833 0.93127 0.0
C2104 C 0.43318 0.99334 0.97124 0.0
C2105 C 0.43591 0.99237 0.0394 0.0
C2106 C 0.44459 0.00468 0.06911 0.0
C2107 C 0.43878 0.00776 0.12943 0.0
C2108 C 0.45645 0.00541 0.09154 0.0
C2109 C 0.44643 0.01261 0.00656 0.0
C2110 C 0.43969 0.00584 0.95092 0.0
C2111 C 0.4402 0.01098 0.88655 0.0
C2112 C 0.44783 0.02339 0.87862 0.0
C2113 C 0.45487 0.03057 0.93475 0.0
C2114 C 0.45407 0.02506 0.99971 0.0
H2115 H 0.54602 0.97255 0.95721 0.0
H2116 H 0.55558 0.97507 0.17499 0.0
H2117 H 0.56857 0.99701 0.16284 0.0
H2118 H 0.57546 0.99614 0.89512 0.0
H2119 H 0.56908 0.00175 0.8322 0.0
H2120 H 0.56108 0.98609 0.85633 0.0
H2121 H 0.54248 0.98788 0.88961 0.0
H2122 H 0.55041 0.00353 0.8656 0.0
H2123 H 0.54413 0.99915 0.95131 0.0
H2124 H 0.57956 0.01852 0.12991 0.0
H2125 H 0.58783 0.03864 0.0788 0.0
H2126 H 0.57141 0.02265 0.8812 0.0
C2127 C 0.55096 0.97769 0.00219 0.0
C2128 C 0.54979 0.97205 0.06712 0.0
C2129 C 0.55631 0.97915 0.12478 0.0
C2130 C 0.56375 0.99162 0.11835 0.0
C2131 C 0.56461 0.99689 0.05392 0.0
C2132 C 0.55842 0.99019 0.99676 0.0
C2133 C 0.56055 0.99822 0.93429 0.0
C2134 C 0.56692 0.99538 0.87604 0.0
C2135 C 0.54868 0.99712 0.90873 0.0
C2136 C 0.56877 0.0105 0.96568 0.0
C2137 C 0.57102 0.00945 0.03465 0.0
C2138 C 0.57793 0.01946 0.07586 0.0
C2139 C 0.58256 0.03086 0.04624 0.0
C2140 C 0.58029 0.03225 0.97587 0.0
C2141 C 0.57342 0.02189 0.93482 0.0
H2142 H 0.98068 0.55044 0.88694 0.0
H2143 H 0.96325 0.54407 0.08789 0.0
H2144 H 0.98301 0.55476 0.14453 0.0
H2145 H 0.00449 0.54582 0.94138 0.0
H2146 H 0.01583 0.55748 0.88778 0.0
H2147 H 1.00029 0.55003 0.86144 0.0
H2148 H 1.00115 0.57059 0.85304 0.0
H2149 H 0.01672 0.57811 0.87911 0.0
H2150 H 0.00603 0.5805 0.92699 0.0
H2151 H 0.00441 0.56501 0.18097 0.0
H2152 H 0.0264 0.57468 0.19461 0.0
H2153 H 0.03035 0.57466 0.97103 0.0
C2154 C 0.98103 0.55144 0.94273 0.0
C2155 C 0.97037 0.5464 0.98278 0.0
C2156 C 0.97124 0.54781 0.05584 0.0
C2157 C 0.98245 0.5539 0.0887 0.0
C2158 C 0.99275 0.55858 0.048 0.0
C2159 C 0.9922 0.5575 0.97665 0.0
C2160 C 0.00472 0.56302 0.94572 0.0
C2161 C 0.00643 0.55352 0.9068 0.0
C2162 C 0.00731 0.57369 0.89842 0.0
C2163 C 0.01234 0.56721 0.01096 0.0
C2164 C 0.00523 0.56458 0.06926 0.0
C2165 C 0.01011 0.56721 0.1357 0.0
C2166 C 0.02262 0.57267 0.1429 0.0
C2167 C 0.03014 0.57546 0.08398 0.0
C2168 C 0.02488 0.57272 0.01713 0.0
H2169 H 0.45985 0.43062 0.03617 0.0
H2170 H 0.452 0.42522 0.81584 0.0
H2171 H 0.43915 0.43434 0.82654 0.0
H2172 H 0.43015 0.42477 0.09172 0.0
H2173 H 0.43606 0.43632 0.15722 0.0
H2174 H 0.44421 0.42876 0.13382 0.0
H2175 H 0.46309 0.44929 0.10656 0.0
H2176 H 0.45502 0.45691 0.12993 0.0
H2177 H 0.46195 0.45934 0.04577 0.0
H2178 H 0.42782 0.44448 0.85868 0.0
H2179 H 0.41897 0.4558 0.90951 0.0
H2180 H 0.43405 0.45514 0.11007 0.0
C2181 C 0.45533 0.43125 0.99031 0.0
C2182 C 0.45692 0.42716 0.92511 0.0
C2183 C 0.45096 0.42829 0.86627 0.0
C2184 C 0.44359 0.43342 0.87185 0.0
C2185 C 0.44227 0.43741 0.93658 0.0
C2186 C 0.44798 0.43644 0.99483 0.0
C2187 C 0.44538 0.44195 0.05751 0.0
C2188 C 0.43854 0.43238 0.11337 0.0
C2189 C 0.45706 0.4525 0.08663 0.0
C2190 C 0.43745 0.44628 0.025 0.0
C2191 C 0.43574 0.44345 0.95529 0.0
C2192 C 0.42905 0.44672 0.91324 0.0
C2193 C 0.42408 0.45319 0.9428 0.0
C2194 C 0.42581 0.45641 0.01395 0.0
C2195 C 0.43248 0.45275 0.05575 0.0
H2196 H 0.17933 0.40133 0.16428 0.0
H2197 H 0.18491 0.42214 0.35202 0.0
H2198 H 0.20556 0.42568 0.36044 0.0
H2199 H 0.19434 0.38653 0.21979 0.0
H2200 H 0.20105 0.38672 0.13743 0.0
H2201 H 0.18718 0.38702 0.14041 0.0
H2202 H 0.19682 0.40659 0.06756 0.0
H2203 H 0.21073 0.40633 0.06403 0.0
H2204 H 0.21063 0.41944 0.09659 0.0
H2205 H 0.22457 0.42505 0.35708 0.0
H2206 H 0.24112 0.42079 0.33981 0.0
H2207 H 0.22378 0.40076 0.15302 0.0
C2208 C 0.18499 0.40688 0.20619 0.0
C2209 C 0.18046 0.41149 0.25736 0.0
C2210 C 0.18813 0.41852 0.3121 0.0
C2211 C 0.19991 0.42061 0.31729 0.0
C2212 C 0.20398 0.4157 0.26716 0.0
C2213 C 0.19682 0.40906 0.21227 0.0
C2214 C 0.20317 0.40412 0.1682 0.0
C2215 C 0.19601 0.39028 0.1664 0.0
C2216 C 0.20548 0.40944 0.09473 0.0
C2217 C 0.21485 0.40873 0.20813 0.0
C2218 C 0.21514 0.41546 0.26474 0.0
C2219 C 0.22456 0.41997 0.3123 0.0
C2220 C 0.2339 0.41746 0.30218 0.0
C2221 C 0.2338 0.41053 0.24481 0.0
C2222 C 0.22422 0.40627 0.19663 0.0
H2223 H 0.59595 0.77592 0.30956 0.0
H2224 H 0.59848 0.77013 0.09004 0.0
H2225 H 0.59675 0.78795 0.06279 0.0
H2226 H 0.57483 0.78778 0.29316 0.0
H2227 H 0.58222 0.79874 0.36078 0.0
H2228 H 0.58215 0.78466 0.36328 0.0
H2229 H 0.60542 0.79622 0.37056 0.0
H2230 H 0.60557 0.81031 0.36775 0.0
H2231 H 0.61403 0.80718 0.30488 0.0
H2232 H 0.59694 0.80735 0.05901 0.0
H2233 H 0.59874 0.82712 0.07875 0.0
H2234 H 0.59597 0.8207 0.30066 0.0
C2235 C 0.59583 0.77823 0.25572 0.0
C2236 C 0.59728 0.77157 0.20191 0.0
C2237 C 0.59736 0.77507 0.13217 0.0
C2238 C 0.59635 0.78516 0.1161 0.0
C2239 C 0.59523 0.7917 0.17027 0.0
C2240 C 0.59489 0.78837 0.2387 0.0
C2241 C 0.59453 0.79752 0.28705 0.0
C2242 C 0.58273 0.79183 0.32851 0.0
C2243 C 0.60555 0.80314 0.33538 0.0
C2244 C 0.59502 0.80664 0.23508 0.0
C2245 C 0.59531 0.80301 0.16805 0.0
C2246 C 0.59653 0.81021 0.11118 0.0
C2247 C 0.59758 0.82146 0.12301 0.0
C2248 C 0.5974 0.82546 0.1912 0.0
C2249 C 0.59594 0.81783 0.24787 0.0
H2250 H 0.22818 0.82064 0.31364 0.0
H2251 H 0.23239 0.82886 0.09366 0.0
H2252 H 0.2144 0.80934 0.06921 0.0
H2253 H 0.21639 0.78791 0.29703 0.0
H2254 H 0.20584 0.78428 0.36709 0.0
H2255 H 0.21983 0.79837 0.36738 0.0
H2256 H 0.2081 0.80987 0.37871 0.0
H2257 H 0.1941 0.79584 0.37837 0.0
H2258 H 0.19667 0.80732 0.31581 0.0
H2259 H 0.1952 0.78987 0.06834 0.0
H2260 H 0.17572 0.77169 0.09146 0.0
H2261 H 0.18349 0.7758 0.31198 0.0
C2262 C 0.22545 0.81823 0.26024 0.0
C2263 C 0.2318 0.82628 0.20553 0.0
C2264 C 0.22776 0.82286 0.13648 0.0
C2265 C 0.21755 0.81176 0.12196 0.0
C2266 C 0.2114 0.80413 0.17698 0.0
C2267 C 0.21517 0.80718 0.24477 0.0
C2268 C 0.20641 0.79766 0.29448 0.0
C2269 C 0.21248 0.7917 0.33381 0.0
C2270 C 0.201 0.80299 0.34479 0.0
C2271 C 0.19702 0.78894 0.24405 0.0
C2272 C 0.20017 0.79281 0.17652 0.0
C2273 C 0.19269 0.78666 0.12093 0.0
C2274 C 0.18162 0.77634 0.13465 0.0
C2275 C 0.17807 0.77226 0.20349 0.0
C2276 C 0.18601 0.77857 0.25872 0.0
H2277 H 0.40145 0.17912 0.85282 0.0
H2278 H 0.42558 0.185 0.68072 0.0
H2279 H 0.42957 0.2058 0.66952 0.0
H2280 H 0.38802 0.1943 0.78131 0.0
H2281 H 0.3866 0.20079 0.86104 0.0
H2282 H 0.38692 0.18694 0.86279 0.0
H2283 H 0.40493 0.19637 0.94794 0.0
H2284 H 0.40462 0.21027 0.94677 0.0
H2285 H 0.41828 0.21025 0.92522 0.0
H2286 H 0.42913 0.22495 0.66725 0.0
H2287 H 0.42452 0.24139 0.67531 0.0
H2288 H 0.40075 0.22342 0.84919 0.0
C2289 C 0.40784 0.18488 0.81405 0.0
C2290 C 0.41326 0.18042 0.76792 0.0
C2291 C 0.42134 0.1882 0.71681 0.0
C2292 C 0.4237 0.20005 0.71013 0.0
C2293 C 0.41795 0.20406 0.75507 0.0
C2294 C 0.41025 0.19676 0.80639 0.0
C2295 C 0.40448 0.20299 0.84403 0.0
C2296 C 0.39069 0.19583 0.83682 0.0
C2297 C 0.40831 0.2051 0.92054 0.0
C2298 C 0.40988 0.21477 0.80444 0.0
C2299 C 0.41771 0.21523 0.75382 0.0
C2300 C 0.42317 0.22479 0.70741 0.0
C2301 C 0.42045 0.23407 0.71224 0.0
C2302 C 0.41233 0.23375 0.76311 0.0
C2303 C 0.40716 0.22404 0.81052 0.0
H2304 H 0.7806 0.17796 0.85098 0.0
H2305 H 0.76504 0.18252 0.66149 0.0
H2306 H 0.78217 0.20309 0.64941 0.0
H2307 H 0.79398 0.2096 0.9126 0.0
H2308 H 0.80723 0.20983 0.9457 0.0
H2309 H 0.79304 0.19594 0.94442 0.0
H2310 H 0.80279 0.18585 0.87403 0.0
H2311 H 0.81697 0.19969 0.87477 0.0
H2312 H 0.81029 0.19254 0.79355 0.0
H2313 H 0.80185 0.2221 0.64981 0.0
H2314 H 0.82268 0.2387 0.66472 0.0
H2315 H 0.82566 0.22231 0.85494 0.0
C2316 C 0.78065 0.18339 0.80785 0.0
C2317 C 0.77143 0.17859 0.75726 0.0
C2318 C 0.77197 0.18594 0.70096 0.0
C2319 C 0.78166 0.19768 0.69369 0.0
C2320 C 0.79074 0.20201 0.74335 0.0
C2321 C 0.7903 0.19515 0.79969 0.0
C2322 C 0.80167 0.2017 0.84291 0.0
C2323 C 0.79881 0.20443 0.91573 0.0
C2324 C 0.80832 0.19452 0.84648 0.0
C2325 C 0.80869 0.21314 0.80089 0.0
C2326 C 0.80215 0.21315 0.74397 0.0
C2327 C 0.80699 0.22231 0.69478 0.0
C2328 C 0.81885 0.23168 0.70357 0.0
C2329 C 0.82578 0.23185 0.76122 0.0
C2330 C 0.82052 0.22254 0.81101 0.0
H2331 H 0.82171 0.59603 0.68416 0.0
H2332 H 0.8287 0.59546 0.90372 0.0
H2333 H 0.80898 0.59323 0.93106 0.0
H2334 H 0.8085 0.61416 0.70043 0.0
H2335 H 0.7974 0.6068 0.63345 0.0
H2336 H 0.81138 0.60672 0.62997 0.0
H2337 H 0.79967 0.58344 0.62404 0.0
H2338 H 0.78563 0.58345 0.62753 0.0
H2339 H 0.78877 0.57496 0.69021 0.0
H2340 H 0.7894 0.59263 0.93606 0.0
H2341 H 0.77156 0.59474 0.91881 0.0
H2342 H 0.7771 0.59638 0.69619 0.0
C2343 C 0.81896 0.59516 0.73788 0.0
C2344 C 0.82671 0.59575 0.79181 0.0
C2345 C 0.82291 0.59492 0.8615 0.0
C2346 C 0.81169 0.59361 0.8776 0.0
C2347 C 0.80433 0.59323 0.82348 0.0
C2348 C 0.8078 0.59402 0.75499 0.0
C2349 C 0.79861 0.59446 0.70728 0.0
C2350 C 0.80431 0.60624 0.66534 0.0
C2351 C 0.79282 0.58342 0.65944 0.0
C2352 C 0.78961 0.59406 0.75986 0.0
C2353 C 0.79304 0.59317 0.82645 0.0
C2354 C 0.78656 0.59322 0.88414 0.0
C2355 C 0.77643 0.59446 0.87375 0.0
C2356 C 0.77287 0.59572 0.80617 0.0
C2357 C 0.77946 0.59528 0.74846 0.0
H2358 H 0.89425 0.73951 0.62495 0.0
H2359 H 0.90198 0.74296 0.40449 0.0
H2360 H 0.8847 0.7459 0.38337 0.0
H2361 H 0.86306 0.72244 0.60912 0.0
H2362 H 0.85963 0.72927 0.68059 0.0
H2363 H 0.8735 0.72895 0.68011 0.0
H2364 H 0.88556 0.75212 0.69403 0.0
H2365 H 0.87171 0.75251 0.69473 0.0
H2366 H 0.88332 0.76146 0.63299 0.0
H2367 H 0.86549 0.74617 0.3838 0.0
H2368 H 0.84558 0.74401 0.4062 0.0
H2369 H 0.85013 0.74074 0.6264 0.0
C2370 C 0.89248 0.74118 0.57244 0.0
C2371 C 0.89953 0.74104 0.51638 0.0
C2372 C 0.89674 0.74301 0.44829 0.0
C2373 C 0.88696 0.74474 0.43575 0.0
C2374 C 0.88004 0.74455 0.49183 0.0
C2375 C 0.88269 0.74289 0.55892 0.0
C2376 C 0.87325 0.74218 0.60914 0.0
C2377 C 0.86699 0.72998 0.64693 0.0
C2378 C 0.87879 0.75269 0.66077 0.0
C2379 C 0.86473 0.74337 0.55947 0.0
C2380 C 0.8689 0.74482 0.49214 0.0
C2381 C 0.86222 0.74524 0.4364 0.0
C2382 C 0.8509 0.74396 0.44961 0.0
C2383 C 0.84636 0.74232 0.51803 0.0
C2384 C 0.85349 0.74225 0.57373 0.0
H2385 H 0.26827 0.15704 0.48556 0.0
H2386 H 0.25297 0.15426 0.68999 0.0
H2387 H 0.24937 0.1336 0.70096 0.0
H2388 H 0.24846 0.12508 0.43394 0.0
H2389 H 0.26054 0.12439 0.39046 0.0
H2390 H 0.26049 0.1384 0.39438 0.0
H2391 H 0.28172 0.14872 0.44982 0.0
H2392 H 0.28182 0.13477 0.4462 0.0
H2393 H 0.28418 0.14249 0.5277 0.0
H2394 H 0.24933 0.11423 0.69568 0.0
H2395 H 0.25309 0.09745 0.67498 0.0
H2396 H 0.26846 0.11252 0.47406 0.0
C2397 C 0.2639 0.15198 0.53191 0.0
C2398 C 0.26085 0.15727 0.58677 0.0
C2399 C 0.25538 0.15042 0.64721 0.0
C2400 C 0.25324 0.13864 0.65385 0.0
C2401 C 0.2566 0.13379 0.59958 0.0
C2402 C 0.26178 0.1402 0.53964 0.0
C2403 C 0.26545 0.13323 0.49169 0.0
C2404 C 0.25831 0.13009 0.42358 0.0
C2405 C 0.2791 0.14022 0.4781 0.0
C2406 C 0.26184 0.12207 0.53496 0.0
C2407 C 0.25661 0.12253 0.59662 0.0
C2408 C 0.25325 0.11367 0.64717 0.0
C2409 C 0.25545 0.10418 0.63498 0.0
C2410 C 0.26101 0.10361 0.57275 0.0
C2411 C 0.26402 0.11258 0.52163 0.0
H2412 H 0.89232 0.15909 0.47995 0.0
H2413 H 0.90883 0.15379 0.66298 0.0
H2414 H 0.89199 0.13303 0.67302 0.0
H2415 H 0.86288 0.14376 0.54129 0.0
H2416 H 0.85592 0.13701 0.45982 0.0
H2417 H 0.86999 0.15097 0.4609 0.0
H2418 H 0.87967 0.14152 0.38416 0.0
H2419 H 0.86558 0.12752 0.3826 0.0
H2420 H 0.87908 0.12781 0.4116 0.0
H2421 H 0.87251 0.11389 0.67235 0.0
H2422 H 0.85165 0.09726 0.65903 0.0
H2423 H 0.84756 0.1144 0.4753 0.0
C2424 C 0.89253 0.15347 0.52111 0.0
C2425 C 0.90195 0.1581 0.57054 0.0
C2426 C 0.90176 0.15049 0.62441 0.0
C2427 C 0.89224 0.13865 0.63049 0.0
C2428 C 0.88297 0.13446 0.58209 0.0
C2429 C 0.88305 0.14158 0.52808 0.0
C2430 C 0.87151 0.13511 0.48623 0.0
C2431 C 0.86467 0.14213 0.48716 0.0
C2432 C 0.87412 0.13286 0.41172 0.0
C2433 C 0.86481 0.12342 0.52649 0.0
C2434 C 0.87165 0.12323 0.58123 0.0
C2435 C 0.86713 0.11383 0.62897 0.0
C2436 C 0.85525 0.10444 0.62112 0.0
C2437 C 0.84801 0.10447 0.56582 0.0
C2438 C 0.85296 0.11401 0.51725 0.0
H2439 H 0.0676 0.55606 0.19344 0.0
H2440 H 0.08678 0.57296 0.00369 0.0
H2441 H 0.09107 0.55643 0.9863 0.0
H2442 H 0.08661 0.54315 0.24782 0.0
H2443 H 0.07386 0.52948 0.27907 0.0
H2444 H 0.07367 0.54343 0.2819 0.0
H2445 H 0.05379 0.53362 0.21181 0.0
H2446 H 0.05394 0.51969 0.20861 0.0
H2447 H 0.05317 0.52672 0.12941 0.0
H2448 H 0.09172 0.53739 0.98335 0.0
H2449 H 0.08823 0.51676 0.99283 0.0
H2450 H 0.06824 0.51171 0.18342 0.0
C2451 C 0.07296 0.55643 0.14918 0.0
C2452 C 0.07695 0.56586 0.1002 0.0
C2453 C 0.08366 0.56586 0.04198 0.0
C2454 C 0.08619 0.55653 0.0318 0.0
C2455 C 0.08192 0.54724 0.08019 0.0
C2456 C 0.07545 0.54709 0.13778 0.0
C2457 C 0.07099 0.5355 0.17842 0.0
C2458 C 0.07662 0.53805 0.25112 0.0
C2459 C 0.05715 0.52847 0.18224 0.0
C2460 C 0.07571 0.52904 0.13372 0.0
C2461 C 0.08213 0.53606 0.07789 0.0
C2462 C 0.08683 0.53185 0.02726 0.0
C2463 C 0.08477 0.52009 0.03311 0.0
C2464 C 0.07798 0.51258 0.08899 0.0
C2465 C 0.07359 0.51725 0.14056 0.0
H2466 H 0.44836 0.51049 0.17053 0.0
H2467 H 0.43039 0.51829 0.00491 0.0
H2468 H 0.44692 0.53933 0.00263 0.0
H2469 H 0.46188 0.54034 0.2577 0.0
H2470 H 0.4757 0.54047 0.27666 0.0
H2471 H 0.46172 0.52639 0.27219 0.0
H2472 H 0.47093 0.51867 0.18006 0.0
H2473 H 0.4849 0.5327 0.18419 0.0
H2474 H 0.47733 0.52733 0.10228 0.0
H2475 H 0.46597 0.55877 0.00952 0.0
H2476 H 0.48679 0.57539 0.02275 0.0
H2477 H 0.49297 0.55536 0.18319 0.0
C2478 C 0.44779 0.51671 0.13499 0.0
C2479 C 0.43805 0.51276 0.08814 0.0
C2480 C 0.43775 0.5211 0.04125 0.0
C2481 C 0.44707 0.5331 0.03981 0.0
C2482 C 0.45665 0.53665 0.08555 0.0
C2483 C 0.45711 0.52874 0.13234 0.0
C2484 C 0.46898 0.53465 0.17135 0.0
C2485 C 0.46695 0.53551 0.2491 0.0
C2486 C 0.47595 0.52794 0.15867 0.0
C2487 C 0.47522 0.547 0.13776 0.0
C2488 C 0.46785 0.54798 0.08912 0.0
C2489 C 0.47179 0.55819 0.04809 0.0
C2490 C 0.48365 0.56758 0.0559 0.0
C2491 C 0.49151 0.56673 0.10425 0.0
C2492 C 0.48712 0.55638 0.14668 0.0
H2493 H 0.49048 0.93259 0.01291 0.0
H2494 H 0.49178 0.92362 0.22841 0.0
H2495 H 0.47163 0.92108 0.24718 0.0
H2496 H 0.47698 0.95014 0.04295 0.0
H2497 H 0.46771 0.9454 0.96633 0.0
H2498 H 0.48167 0.94527 0.9675 0.0
H2499 H 0.47037 0.92269 0.93434 0.0
H2500 H 0.45635 0.92275 0.93289 0.0
H2501 H 0.45791 0.91213 0.98675 0.0
H2502 H 0.45207 0.92085 0.24504 0.0
H2503 H 0.4345 0.92328 0.22262 0.0
H2504 H 0.44585 0.93279 0.00921 0.0
C2505 C 0.48643 0.92985 0.0637 0.0
C2506 C 0.49272 0.92826 0.11919 0.0
C2507 C 0.48718 0.92492 0.18518 0.0
C2508 C 0.4757 0.92339 0.19628 0.0
C2509 C 0.46984 0.92524 0.14088 0.0
C2510 C 0.47499 0.92838 0.07582 0.0
C2511 C 0.46711 0.93062 0.02643 0.0
C2512 C 0.47377 0.94363 0.99923 0.0
C2513 C 0.46267 0.9215 0.96656 0.0
C2514 C 0.45685 0.92848 0.07429 0.0
C2515 C 0.45858 0.92528 0.13987 0.0
C2516 C 0.45061 0.92332 0.19385 0.0
C2517 C 0.44071 0.92485 0.18083 0.0
C2518 C 0.43887 0.92838 0.11455 0.0
C2519 C 0.44695 0.92999 0.0603 0.0
H2520 H 0.56046 0.07296 0.99839 0.0
H2521 H 0.56873 0.07623 0.77866 0.0
H2522 H 0.55113 0.07852 0.75461 0.0
H2523 H 0.52926 0.05496 0.97904 0.0
H2524 H 0.52529 0.06156 0.04934 0.0
H2525 H 0.53939 0.06172 0.05109 0.0
H2526 H 0.55083 0.08489 0.06491 0.0
H2527 H 0.53673 0.08481 0.0634 0.0
H2528 H 0.54845 0.09399 0.00272 0.0
H2529 H 0.53188 0.07865 0.75231 0.0
H2530 H 0.51186 0.0763 0.77161 0.0
H2531 H 0.51553 0.07271 0.99275 0.0
C2532 C 0.55871 0.07445 0.94546 0.0
C2533 C 0.56603 0.0745 0.89044 0.0
C2534 C 0.56328 0.07617 0.82165 0.0
C2535 C 0.55332 0.07753 0.80745 0.0
C2536 C 0.54615 0.07719 0.86253 0.0
C2537 C 0.5487 0.07571 0.9302 0.0
C2538 C 0.53895 0.0747 0.97897 0.0
C2539 C 0.53286 0.06251 0.01681 0.0
C2540 C 0.54405 0.08523 0.03055 0.0
C2541 C 0.53042 0.07557 0.92785 0.0
C2542 C 0.53485 0.07714 0.86111 0.0
C2543 C 0.52837 0.07755 0.80441 0.0
C2544 C 0.51697 0.07617 0.81595 0.0
C2545 C 0.51211 0.07436 0.88373 0.0
C2546 C 0.51905 0.07424 0.94046 0.0
H2547 H 0.93083 0.44237 0.96196 0.0
H2548 H 0.92999 0.43726 0.7392 0.0
H2549 H 0.92785 0.45511 0.72186 0.0
H2550 H 0.90933 0.45368 0.96664 0.0
H2551 H 0.91755 0.46444 0.03388 0.0
H2552 H 0.9178 0.45053 0.02946 0.0
H2553 H 0.94109 0.46249 0.02536 0.0
H2554 H 0.94092 0.47641 0.02954 0.0
H2555 H 0.94856 0.47377 0.9593 0.0
H2556 H 0.92779 0.47445 0.72753 0.0
H2557 H 0.92944 0.49394 0.75606 0.0
H2558 H 0.93 0.48662 0.97516 0.0
C2559 C 0.92995 0.44486 0.90957 0.0
C2560 C 0.93055 0.43836 0.85192 0.0
C2561 C 0.92956 0.44205 0.78422 0.0
C2562 C 0.92831 0.45218 0.77379 0.0
C2563 C 0.92799 0.45851 0.83156 0.0
C2564 C 0.92871 0.45498 0.89818 0.0
C2565 C 0.92887 0.46382 0.95102 0.0
C2566 C 0.91772 0.45775 0.99802 0.0
C2567 C 0.94056 0.46945 0.9938 0.0
C2568 C 0.92842 0.473 0.90354 0.0
C2569 C 0.92783 0.4697 0.83488 0.0
C2570 C 0.92807 0.47706 0.78112 0.0
C2571 C 0.92906 0.48814 0.79786 0.0
C2572 C 0.92976 0.49178 0.8678 0.0
C2573 C 0.92926 0.484 0.92127 0.0
H2574 H 0.51363 0.44632 0.80535 0.0
H2575 H 0.51722 0.43171 0.00101 0.0
H2576 H 0.53808 0.44843 0.01166 0.0
H2577 H 0.5453 0.45866 0.74585 0.0
H2578 H 0.54595 0.47191 0.70936 0.0
H2579 H 0.53185 0.45792 0.71182 0.0
H2580 H 0.52206 0.46842 0.77784 0.0
H2581 H 0.5361 0.4824 0.77569 0.0
H2582 H 0.52878 0.47628 0.8574 0.0
H2583 H 0.55755 0.46758 0.00809 0.0
H2584 H 0.57436 0.48823 0.99177 0.0
H2585 H 0.55846 0.49086 0.79866 0.0
C2586 C 0.51892 0.44648 0.84952 0.0
C2587 C 0.51381 0.43765 0.90214 0.0
C2588 C 0.52093 0.43835 0.96 0.0
C2589 C 0.53282 0.44779 0.96637 0.0
C2590 C 0.53749 0.45648 0.91446 0.0
C2591 C 0.5308 0.45593 0.85703 0.0
C2592 C 0.53764 0.46704 0.81202 0.0
C2593 C 0.54035 0.46368 0.74052 0.0
C2594 C 0.53073 0.47394 0.8054 0.0
C2595 C 0.54906 0.47405 0.85421 0.0
C2596 C 0.54882 0.4677 0.9126 0.0
C2597 C 0.55793 0.47257 0.96207 0.0
C2598 C 0.56743 0.48434 0.95239 0.0
C2599 C 0.56778 0.49115 0.89373 0.0
C2600 C 0.55857 0.48581 0.84334 0.0
H2601 H 0.73856 0.89326 0.35489 0.0
H2602 H 0.74729 0.90395 0.5699 0.0
H2603 H 0.75094 0.88709 0.58959 0.0
H2604 H 0.72212 0.86244 0.38672 0.0
H2605 H 0.72705 0.8579 0.31095 0.0
H2606 H 0.72678 0.87178 0.31031 0.0
H2607 H 0.74935 0.88344 0.27706 0.0
H2608 H 0.74969 0.86956 0.27737 0.0
H2609 H 0.76012 0.882 0.33024 0.0
H2610 H 0.75147 0.86809 0.59033 0.0
H2611 H 0.74882 0.84792 0.57203 0.0
H2612 H 0.73973 0.84907 0.35656 0.0
C2613 C 0.74155 0.89223 0.40556 0.0
C2614 C 0.74271 0.89998 0.46084 0.0
C2615 C 0.74635 0.89814 0.52685 0.0
C2616 C 0.7485 0.88862 0.53847 0.0
C2617 C 0.74699 0.88096 0.48356 0.0
C2618 C 0.74364 0.88265 0.41827 0.0
C2619 C 0.74165 0.87246 0.37008 0.0
C2620 C 0.72863 0.86575 0.34296 0.0
C2621 C 0.75075 0.87715 0.31014 0.0
C2622 C 0.74407 0.86465 0.41911 0.0
C2623 C 0.74726 0.86983 0.48405 0.0
C2624 C 0.74916 0.86402 0.53945 0.0
C2625 C 0.74758 0.85253 0.52858 0.0
C2626 C 0.74414 0.84693 0.46281 0.0
C2627 C 0.74257 0.8532 0.4071 0.0
H2628 H 0.11194 0.84746 0.38004 0.0
H2629 H 0.10416 0.8448 0.60032 0.0
H2630 H 0.1218 0.86493 0.61814 0.0
H2631 H 0.14311 0.86088 0.39718 0.0
H2632 H 0.14684 0.87067 0.32315 0.0
H2633 H 0.13276 0.85673 0.32557 0.0
H2634 H 0.12124 0.86827 0.30583 0.0
H2635 H 0.13532 0.88228 0.30312 0.0
H2636 H 0.12377 0.88037 0.36348 0.0
H2637 H 0.14114 0.8842 0.61472 0.0
H2638 H 0.16114 0.90154 0.59046 0.0
H2639 H 0.15676 0.89211 0.37218 0.0
C2640 C 0.11378 0.85124 0.43174 0.0
C2641 C 0.10662 0.84457 0.48878 0.0
C2642 C 0.1095 0.84973 0.55585 0.0
C2643 C 0.11948 0.86118 0.56648 0.0
C2644 C 0.1265 0.86741 0.50953 0.0
C2645 C 0.12379 0.86267 0.44339 0.0
C2646 C 0.13338 0.87088 0.39217 0.0
C2647 C 0.13938 0.8644 0.35751 0.0
C2648 C 0.12811 0.87574 0.33794 0.0
C2649 C 0.14204 0.8808 0.44024 0.0
C2650 C 0.1378 0.87865 0.50755 0.0
C2651 C 0.14449 0.88608 0.56209 0.0
C2652 C 0.15587 0.89591 0.54774 0.0
C2653 C 0.16052 0.89826 0.47936 0.0
C2654 C 0.15339 0.89068 0.4248 0.0
H2655 H 0.15736 0.26438 0.35514 0.0
H2656 H 0.16299 0.2621 0.57505 0.0
H2657 H 0.1431 0.25977 0.59984 0.0
H2658 H 0.14405 0.28231 0.3724 0.0
H2659 H 0.13332 0.27538 0.30316 0.0
H2660 H 0.1473 0.2753 0.30116 0.0
H2661 H 0.13564 0.25207 0.29055 0.0
H2662 H 0.12159 0.25208 0.29231 0.0
H2663 H 0.12435 0.2432 0.3541 0.0
H2664 H 0.12367 0.2595 0.60247 0.0
H2665 H 0.1059 0.26165 0.58334 0.0
H2666 H 0.11256 0.26437 0.36159 0.0
C2667 C 0.15426 0.2631 0.40831 0.0
C2668 C 0.16169 0.26334 0.46319 0.0
C2669 C 0.15746 0.26194 0.53223 0.0
C2670 C 0.14615 0.26055 0.54682 0.0
C2671 C 0.13915 0.26061 0.49183 0.0
C2672 C 0.143 0.26183 0.42391 0.0
C2673 C 0.1341 0.26258 0.37519 0.0
C2674 C 0.14005 0.27461 0.33568 0.0
C2675 C 0.1286 0.25184 0.32507 0.0
C2676 C 0.12482 0.26187 0.42658 0.0
C2677 C 0.12787 0.26059 0.49343 0.0
C2678 C 0.12109 0.26035 0.5503 0.0
C2679 C 0.111 0.26161 0.53881 0.0
C2680 C 0.10775 0.26312 0.4709 0.0
C2681 C 0.11469 0.26307 0.41403 0.0
H2682 H 0.15799 0.40195 0.88895 0.0
H2683 H 0.12123 0.3946 0.90439 0.0
H2684 H 0.12205 0.40111 0.78302 0.0
H2685 H 0.16919 0.42802 0.76761 0.0
H2686 H 0.17829 0.42343 0.71986 0.0
H2687 H 0.17552 0.42001 0.81091 0.0
H2688 H 0.16709 0.39739 0.78449 0.0
H2689 H 0.16986 0.40075 0.69363 0.0
H2690 H 0.15496 0.38994 0.72312 0.0
H2691 H 0.12629 0.40705 0.65865 0.0
H2692 H 0.13283 0.40996 0.53663 0.0
H2693 H 0.16647 0.41229 0.59856 0.0
C2694 C 0.15025 0.40201 0.86699 0.0
C2695 C 0.1396 0.39796 0.90588 0.0
C2696 C 0.12949 0.39777 0.87524 0.0
C2697 C 0.1299 0.40151 0.80659 0.0
C2698 C 0.14047 0.40532 0.76903 0.0
C2699 C 0.15044 0.40552 0.79785 0.0
C2700 C 0.16018 0.40874 0.74386 0.0
C2701 C 0.17147 0.42076 0.76163 0.0
C2702 C 0.16319 0.3986 0.7358 0.0
C2703 C 0.15396 0.40991 0.6799 0.0
C2704 C 0.14273 0.40822 0.69604 0.0
C2705 C 0.13511 0.40847 0.64541 0.0
C2706 C 0.13892 0.41017 0.57616 0.0
C2707 C 0.15016 0.41135 0.55788 0.0
C2708 C 0.15785 0.41147 0.61085 0.0
H2709 H 0.57875 0.72967 0.59747 0.0
H2710 H 0.6132 0.75149 0.4953 0.0
H2711 H 0.62339 0.7563 0.6081 0.0
H2712 H 0.58517 0.74876 0.74853 0.0
H2713 H 0.57756 0.7364 0.80823 0.0
H2714 H 0.5727 0.73469 0.7193 0.0
H2715 H 0.5754 0.71608 0.7067 0.0
H2716 H 0.58021 0.71769 0.79565 0.0
H2717 H 0.5897 0.7174 0.72775 0.0
H2718 H 0.63007 0.75865 0.73021 0.0
H2719 H 0.63286 0.75824 0.8562 0.0
H2720 H 0.59436 0.73463 0.8814 0.0
C2721 C 0.58842 0.73549 0.59891 0.0
C2722 C 0.59514 0.7402 0.53724 0.0
C2723 C 0.60781 0.74774 0.54151 0.0
C2724 C 0.61372 0.75056 0.60548 0.0
C2725 C 0.60687 0.74579 0.66507 0.0
C2726 C 0.59452 0.7384 0.66267 0.0
C2727 C 0.58942 0.73431 0.73495 0.0
C2728 C 0.58069 0.73881 0.75384 0.0
C2729 C 0.58332 0.72055 0.74163 0.0
C2730 C 0.60084 0.74057 0.77795 0.0
C2731 C 0.61077 0.74715 0.73636 0.0
C2732 C 0.62235 0.75357 0.76345 0.0
C2733 C 0.62385 0.75325 0.8351 0.0
C2734 C 0.61383 0.7466 0.87915 0.0
C2735 C 0.60217 0.74014 0.84986 0.0
H2736 H 0.2689 0.87588 0.82485 0.0
H2737 H 0.24828 0.83962 0.9065 0.0
H2738 H 0.2476 0.83141 0.79064 0.0
H2739 H 0.25234 0.86977 0.66798 0.0
H2740 H 0.26513 0.87961 0.61537 0.0
H2741 H 0.26502 0.88271 0.70621 0.0
H2742 H 0.28509 0.88277 0.72259 0.0
H2743 H 0.28524 0.87962 0.63172 0.0
H2744 H 0.28613 0.86986 0.69574 0.0
H2745 H 0.2481 0.82699 0.66474 0.0
H2746 H 0.24904 0.82672 0.53718 0.0
H2747 H 0.26888 0.86578 0.53478 0.0
C2748 C 0.26438 0.86621 0.81852 0.0
C2749 C 0.25906 0.85843 0.87588 0.0
C2750 C 0.25298 0.84583 0.8648 0.0
C2751 C 0.25241 0.84104 0.79865 0.0
C2752 C 0.25786 0.84895 0.74357 0.0
C2753 C 0.26368 0.86127 0.75261 0.0
C2754 C 0.26818 0.86777 0.68389 0.0
C2755 C 0.26231 0.87541 0.66741 0.0
C2756 C 0.28198 0.87546 0.68348 0.0
C2757 C 0.26383 0.85716 0.63477 0.0
C2758 C 0.25797 0.8464 0.67044 0.0
C2759 C 0.25275 0.83536 0.63629 0.0
C2760 C 0.25333 0.83531 0.56371 0.0
C2761 C 0.25909 0.84621 0.52574 0.0
C2762 C 0.26456 0.85728 0.56217 0.0
H2763 H 0.40583 0.16338 0.43605 0.0
H2764 H 0.41522 0.13596 0.4817 0.0
H2765 H 0.41356 0.13084 0.35727 0.0
H2766 H 0.38387 0.14724 0.31353 0.0
H2767 H 0.38747 0.15976 0.2569 0.0
H2768 H 0.39079 0.1623 0.34792 0.0
H2769 H 0.41316 0.17732 0.32014 0.0
H2770 H 0.40989 0.17491 0.22881 0.0
H2771 H 0.42149 0.17262 0.26584 0.0
H2772 H 0.40822 0.12689 0.23107 0.0
H2773 H 0.40103 0.1254 0.11046 0.0
H2774 H 0.39597 0.15592 0.14511 0.0
C2775 C 0.40781 0.15648 0.41978 0.0
C2776 C 0.41068 0.15008 0.46875 0.0
C2777 C 0.41309 0.14105 0.44523 0.0
C2778 C 0.41215 0.13806 0.37462 0.0
C2779 C 0.40896 0.14431 0.32804 0.0
C2780 C 0.40701 0.15346 0.34948 0.0
C2781 C 0.40309 0.15837 0.28952 0.0
C2782 C 0.39056 0.15682 0.30279 0.0
C2783 C 0.41247 0.17159 0.27524 0.0
C2784 C 0.40276 0.15028 0.23134 0.0
C2785 C 0.40621 0.14225 0.25469 0.0
C2786 C 0.40574 0.13328 0.21194 0.0
C2787 C 0.40161 0.13246 0.14378 0.0
C2788 C 0.3981 0.14063 0.1189 0.0
C2789 C 0.39883 0.14974 0.16288 0.0
H2790 H 0.86548 0.25788 0.47151 0.0
H2791 H 0.8406 0.27151 0.47811 0.0
H2792 H 0.83998 0.2714 0.34973 0.0
H2793 H 0.88212 0.27405 0.32052 0.0
H2794 H 0.88361 0.26166 0.28858 0.0
H2795 H 0.88243 0.2634 0.38029 0.0
H2796 H 0.86416 0.24175 0.38653 0.0
H2797 H 0.86522 0.23996 0.29476 0.0
H2798 H 0.85131 0.23763 0.33159 0.0
H2799 H 0.8426 0.27014 0.21996 0.0
H2800 H 0.84756 0.2672 0.10095 0.0
H2801 H 0.86933 0.25278 0.18221 0.0
C2802 C 0.86 0.26099 0.44611 0.0
C2803 C 0.85317 0.26482 0.48459 0.0
C2804 C 0.84594 0.26859 0.4494 0.0
C2805 C 0.84553 0.26856 0.37666 0.0
C2806 C 0.8523 0.26459 0.34032 0.0
C2807 C 0.85935 0.26083 0.37403 0.0
C2808 C 0.86544 0.25657 0.32364 0.0
C2809 C 0.87922 0.26439 0.32856 0.0
C2810 C 0.86128 0.24318 0.33481 0.0
C2811 C 0.86078 0.25858 0.25603 0.0
C2812 C 0.85328 0.26327 0.26648 0.0
C2813 C 0.84826 0.26624 0.21124 0.0
C2814 C 0.85099 0.26434 0.14362 0.0
C2815 C 0.85846 0.25929 0.13197 0.0
C2816 C 0.86342 0.25646 0.18925 0.0
H2817 H 0.73959 0.58101 0.43153 0.0
H2818 H 0.74044 0.61233 0.5243 0.0
H2819 H 0.74074 0.62039 0.4093 0.0
H2820 H 0.75916 0.59601 0.29299 0.0
H2821 H 0.75104 0.5846 0.22862 0.0
H2822 H 0.75005 0.58049 0.31858 0.0
H2823 H 0.72681 0.57043 0.31413 0.0
H2824 H 0.72772 0.57434 0.22377 0.0
H2825 H 0.72004 0.57898 0.28372 0.0
H2826 H 0.7431 0.62629 0.28799 0.0
H2827 H 0.74511 0.62872 0.16175 0.0
H2828 H 0.74084 0.59301 0.14352 0.0
C2829 C 0.73964 0.58945 0.42747 0.0
C2830 C 0.74013 0.59606 0.48707 0.0
C2831 C 0.74018 0.6071 0.47963 0.0
C2832 C 0.74034 0.61179 0.41443 0.0
C2833 C 0.74024 0.60529 0.35692 0.0
C2834 C 0.73964 0.59426 0.36224 0.0
C2835 C 0.73973 0.5893 0.2911 0.0
C2836 C 0.75065 0.5875 0.28235 0.0
C2837 C 0.72787 0.57757 0.27738 0.0
C2838 C 0.74085 0.59946 0.2458 0.0
C2839 C 0.74116 0.60857 0.28521 0.0
C2840 C 0.7427 0.61916 0.25617 0.0
C2841 C 0.74384 0.62045 0.18439 0.0
C2842 C 0.74338 0.61118 0.14234 0.0
C2843 C 0.74171 0.60048 0.17368 0.0
H2844 H 0.86643 0.59884 0.46015 0.0
H2845 H 0.8274 0.58095 0.45713 0.0
H2846 H 0.82777 0.58208 0.32956 0.0
H2847 H 0.87126 0.61952 0.32748 0.0
H2848 H 0.88397 0.61927 0.28944 0.0
H2849 H 0.88071 0.61601 0.38014 0.0
H2850 H 0.87982 0.59555 0.36397 0.0
H2851 H 0.88316 0.59878 0.27317 0.0
H2852 H 0.86989 0.58512 0.29968 0.0
H2853 H 0.83233 0.58673 0.20379 0.0
H2854 H 0.8407 0.59402 0.08788 0.0
H2855 H 0.87684 0.60866 0.16993 0.0
C2856 C 0.85795 0.59492 0.4326 0.0
C2857 C 0.84687 0.58973 0.46883 0.0
C2858 C 0.83599 0.58493 0.43072 0.0
C2859 C 0.83611 0.58552 0.35814 0.0
C2860 C 0.84717 0.59093 0.32415 0.0
C2861 C 0.85789 0.59549 0.35996 0.0
C2862 C 0.86855 0.60142 0.31088 0.0
C2863 C 0.87659 0.61485 0.32802 0.0
C2864 C 0.87578 0.59482 0.312 0.0
C2865 C 0.86213 0.59967 0.24214 0.0
C2866 C 0.8498 0.59352 0.25106 0.0
C2867 C 0.84196 0.59128 0.19589 0.0
C2868 C 0.84683 0.59535 0.12975 0.0
C2869 C 0.85944 0.60153 0.11884 0.0
C2870 C 0.86716 0.60378 0.17624 0.0
H2871 H 0.40412 0.26908 0.45745 0.0
H2872 H 0.42955 0.25612 0.46368 0.0
H2873 H 0.42801 0.25352 0.33694 0.0
H2874 H 0.385 0.24894 0.33102 0.0
H2875 H 0.38191 0.25954 0.28749 0.0
H2876 H 0.38573 0.26142 0.37812 0.0
H2877 H 0.40333 0.28297 0.35461 0.0
H2878 H 0.39949 0.2812 0.2639 0.0
H2879 H 0.41452 0.28526 0.29062 0.0
H2880 H 0.42206 0.2502 0.21152 0.0
H2881 H 0.41344 0.24801 0.09513 0.0
H2882 H 0.39266 0.26413 0.16747 0.0
C2883 C 0.40955 0.26593 0.43206 0.0
C2884 C 0.41698 0.26283 0.47086 0.0
C2885 C 0.42382 0.2586 0.43541 0.0
C2886 C 0.42299 0.25706 0.36327 0.0
C2887 C 0.41536 0.25989 0.32688 0.0
C2888 C 0.40887 0.26439 0.35983 0.0
C2889 C 0.40102 0.26634 0.30865 0.0
C2890 C 0.38762 0.2586 0.32746 0.0
C2891 C 0.40482 0.27974 0.30418 0.0
C2892 C 0.40395 0.26203 0.24215 0.0
C2893 C 0.41224 0.25835 0.25386 0.0
C2894 C 0.41583 0.25338 0.20128 0.0
C2895 C 0.41096 0.25231 0.13475 0.0
C2896 C 0.40271 0.25635 0.12073 0.0
C2897 C 0.39911 0.26115 0.17581 0.0
H2898 H 0.74102 0.12897 0.16631 0.0
H2899 H 0.75744 0.16596 0.0954 0.0
H2900 H 0.75505 0.17226 0.21171 0.0
H2901 H 0.71968 0.12959 0.28752 0.0
H2902 H 0.72176 0.12055 0.35146 0.0
H2903 H 0.72382 0.11868 0.26089 0.0
H2904 H 0.74534 0.12266 0.28611 0.0
H2905 H 0.74331 0.12446 0.37673 0.0
H2906 H 0.75588 0.13625 0.33052 0.0
H2907 H 0.75133 0.17472 0.33676 0.0
H2908 H 0.74831 0.1735 0.46316 0.0
H2909 H 0.73533 0.13512 0.45611 0.0
C2910 C 0.74403 0.1384 0.17495 0.0
C2911 C 0.74897 0.14687 0.1202 0.0
C2912 C 0.75304 0.15914 0.13466 0.0
C2913 C 0.75185 0.16285 0.20117 0.0
C2914 C 0.74673 0.15424 0.25336 0.0
C2915 C 0.74302 0.14228 0.24131 0.0
C2916 C 0.73853 0.13496 0.30756 0.0
C2917 C 0.72515 0.12538 0.30147 0.0
C2918 C 0.74623 0.12925 0.32633 0.0
C2919 C 0.74039 0.14471 0.35889 0.0
C2920 C 0.745 0.15573 0.32626 0.0
C2921 C 0.7477 0.16613 0.36282 0.0
C2922 C 0.74592 0.16533 0.43478 0.0
C2923 C 0.74156 0.15421 0.46997 0.0
C2924 C 0.73858 0.14374 0.43095 0.0
H2925 H 0.61166 0.87508 0.80407 0.0
H2926 H 0.5946 0.83855 0.88293 0.0
H2927 H 0.58657 0.8308 0.76704 0.0
H2928 H 0.58856 0.87058 0.67768 0.0
H2929 H 0.59929 0.8801 0.61338 0.0
H2930 H 0.60291 0.88295 0.70414 0.0
H2931 H 0.62223 0.88171 0.68469 0.0
H2932 H 0.61871 0.87891 0.59393 0.0
H2933 H 0.6211 0.86849 0.64462 0.0
H2934 H 0.58113 0.82683 0.64145 0.0
H2935 H 0.57962 0.82688 0.51415 0.0
H2936 H 0.60068 0.8659 0.51396 0.0
C2937 C 0.60612 0.86545 0.79715 0.0
C2938 C 0.60339 0.85748 0.85383 0.0
C2939 C 0.59634 0.84493 0.84188 0.0
C2940 C 0.59183 0.84041 0.77568 0.0
C2941 C 0.59454 0.84851 0.72137 0.0
C2942 C 0.60159 0.86077 0.73115 0.0
C2943 C 0.60375 0.86748 0.66304 0.0
C2944 C 0.5983 0.87577 0.66468 0.0
C2945 C 0.61725 0.87456 0.64555 0.0
C2946 C 0.59693 0.85705 0.61337 0.0
C2947 C 0.59161 0.8462 0.64831 0.0
C2948 C 0.58519 0.83527 0.61358 0.0
C2949 C 0.58438 0.8354 0.54113 0.0
C2950 C 0.58997 0.84638 0.50379 0.0
C2951 C 0.59616 0.85736 0.54085 0.0
H2952 H 0.16095 0.76296 0.56719 0.0
H2953 H 0.14049 0.72514 0.51201 0.0
H2954 H 0.13519 0.71992 0.63504 0.0
H2955 H 0.17208 0.75854 0.73662 0.0
H2956 H 0.17087 0.77058 0.77668 0.0
H2957 H 0.17414 0.77119 0.68547 0.0
H2958 H 0.15578 0.77376 0.65799 0.0
H2959 H 0.15238 0.77305 0.74885 0.0
H2960 H 0.14111 0.76274 0.68936 0.0
H2961 H 0.12999 0.71904 0.7614 0.0
H2962 H 0.1265 0.72256 0.88341 0.0
H2963 H 0.15087 0.76076 0.85729 0.0
C2964 C 0.15557 0.75355 0.5811 0.0
C2965 C 0.15115 0.74446 0.52987 0.0
C2966 C 0.14405 0.73226 0.55028 0.0
C2967 C 0.14098 0.72921 0.62008 0.0
C2968 C 0.1452 0.73842 0.66899 0.0
C2969 C 0.15251 0.75034 0.65057 0.0
C2970 C 0.15538 0.75857 0.7126 0.0
C2971 C 0.16892 0.76511 0.72879 0.0
C2972 C 0.15089 0.76755 0.7015 0.0
C2973 C 0.14821 0.74948 0.76834 0.0
C2974 C 0.14245 0.73789 0.74221 0.0
C2975 C 0.13464 0.72804 0.78272 0.0
C2976 C 0.13268 0.7301 0.85162 0.0
C2977 C 0.13853 0.74188 0.87906 0.0
C2978 C 0.14647 0.75166 0.83728 0.0
H2979 H 0.25515 0.38801 0.82203 0.0
H2980 H 0.26845 0.42403 0.90281 0.0
H2981 H 0.2714 0.43191 0.78364 0.0
H2982 H 0.27664 0.39694 0.68544 0.0
H2983 H 0.26628 0.38583 0.6254 0.0
H2984 H 0.26439 0.38294 0.71713 0.0
H2985 H 0.24256 0.37907 0.70956 0.0
H2986 H 0.24435 0.38186 0.61772 0.0
H2987 H 0.23988 0.39038 0.67192 0.0
H2988 H 0.27287 0.43579 0.65381 0.0
H2989 H 0.27321 0.43529 0.5255 0.0
H2990 H 0.26047 0.39697 0.53269 0.0
C2991 C 0.25858 0.39755 0.81479 0.0
C2992 C 0.26111 0.40531 0.87192 0.0
C2993 C 0.26583 0.41778 0.86014 0.0
C2994 C 0.26773 0.42238 0.79247 0.0
C2995 C 0.26507 0.41444 0.73734 0.0
C2996 C 0.26067 0.4023 0.74794 0.0
C2997 C 0.25896 0.39569 0.6804 0.0
C2998 C 0.26705 0.39002 0.67692 0.0
C2999 C 0.24564 0.38619 0.66926 0.0
C3000 C 0.26305 0.406 0.62996 0.0
C3001 C 0.26649 0.41675 0.6635 0.0
C3002 C 0.27027 0.42743 0.62703 0.0
C3003 C 0.27044 0.42707 0.5543 0.0
C3004 C 0.26697 0.41612 0.51927 0.0
C3005 C 0.26334 0.40552 0.55793 0.0
H3006 H 0.83029 0.736 0.87849 0.0
H3007 H 0.8045 0.74706 0.8218 0.0
H3008 H 0.79832 0.74548 0.94421 0.0
H3009 H 0.81256 0.71433 0.99927 0.0
H3010 H 0.82447 0.71749 0.05989 0.0
H3011 H 0.82786 0.72073 0.96933 0.0
H3012 H 0.84327 0.74292 0.99837 0.0
H3013 H 0.84002 0.73973 0.08928 0.0
H3014 H 0.8386 0.75165 0.04925 0.0
H3015 H 0.79296 0.73994 0.06903 0.0
H3016 H 0.79027 0.73285 0.19051 0.0
H3017 H 0.82032 0.72661 0.16873 0.0
C3018 C 0.82353 0.73836 0.89201 0.0
C3019 C 0.81789 0.74166 0.84042 0.0
C3020 C 0.80902 0.74459 0.86031 0.0
C3021 C 0.80542 0.74368 0.92976 0.0
C3022 C 0.81092 0.74005 0.97895 0.0
C3023 C 0.81995 0.73766 0.96126 0.0
C3024 C 0.82407 0.73348 0.02374 0.0
C3025 C 0.82211 0.72075 0.01234 0.0
C3026 C 0.83728 0.74249 0.04119 0.0
C3027 C 0.81567 0.73351 0.07885 0.0
C3028 C 0.80814 0.73732 0.05182 0.0
C3029 C 0.79897 0.7372 0.09112 0.0
C3030 C 0.79746 0.73311 0.15977 0.0
C3031 C 0.80518 0.72935 0.18862 0.0
C3032 C 0.81447 0.72966 0.14792 0.0
H3033 H 0.27623 0.07756 0.85587 0.0
H3034 H 0.23758 0.06306 0.84993 0.0
H3035 H 0.23727 0.06407 0.97804 0.0
H3036 H 0.27729 0.06263 0.01169 0.0
H3037 H 0.2911 0.07541 0.04115 0.0
H3038 H 0.28802 0.07293 0.94979 0.0
H3039 H 0.29098 0.09437 0.93758 0.0
H3040 H 0.29395 0.09688 0.02902 0.0
H3041 H 0.28214 0.09866 0.99034 0.0
H3042 H 0.24138 0.06656 0.10763 0.0
H3043 H 0.24948 0.07046 0.22651 0.0
H3044 H 0.28559 0.08471 0.14467 0.0
C3045 C 0.26765 0.07444 0.88135 0.0
C3046 C 0.2569 0.07014 0.84298 0.0
C3047 C 0.24591 0.06634 0.87841 0.0
C3048 C 0.24565 0.06689 0.95105 0.0
C3049 C 0.25648 0.07137 0.98716 0.0
C3050 C 0.26726 0.07509 0.95334 0.0
C3051 C 0.2777 0.07989 0.00346 0.0
C3052 C 0.28389 0.07226 0.0014 0.0
C3053 C 0.28672 0.09324 0.98923 0.0
C3054 C 0.27113 0.07828 0.07103 0.0
C3055 C 0.25889 0.07332 0.06079 0.0
C3056 C 0.25098 0.07066 0.11611 0.0
C3057 C 0.2557 0.0731 0.18359 0.0
C3058 C 0.26825 0.07834 0.195 0.0
C3059 C 0.27599 0.08091 0.13767 0.0
H3060 H 0.91225 0.17477 0.90076 0.0
H3061 H 0.94926 0.20157 0.85451 0.0
H3062 H 0.95301 0.20637 0.97917 0.0
H3063 H 0.90719 0.19109 0.02486 0.0
H3064 H 0.89807 0.17857 0.08111 0.0
H3065 H 0.89868 0.17609 0.98987 0.0
H3066 H 0.90547 0.16058 0.01595 0.0
H3067 H 0.90479 0.16293 0.10753 0.0
H3068 H 0.9185 0.16488 0.06967 0.0
H3069 H 0.95192 0.21019 0.10589 0.0
H3070 H 0.94639 0.21183 0.22675 0.0
H3071 H 0.91038 0.18208 0.19179 0.0
C3072 C 0.92123 0.18146 0.91691 0.0
C3073 C 0.93047 0.18779 0.86778 0.0
C3074 C 0.94206 0.19655 0.89113 0.0
C3075 C 0.94427 0.19934 0.96187 0.0
C3076 C 0.93485 0.19318 0.00868 0.0
C3077 C 0.92361 0.18429 0.98728 0.0
C3078 C 0.91483 0.1795 0.04741 0.0
C3079 C 0.90406 0.18144 0.03505 0.0
C3080 C 0.91066 0.16618 0.06093 0.0
C3081 C 0.92277 0.18739 0.1056 0.0
C3082 C 0.93431 0.19518 0.08222 0.0
C3083 C 0.943 0.20398 0.12507 0.0
C3084 C 0.93979 0.20487 0.19335 0.0
C3085 C 0.92805 0.19698 0.21805 0.0
C3086 C 0.91948 0.18804 0.17406 0.0
H3087 H 0.07217 0.49622 0.75727 0.0
H3088 H 0.08145 0.4688 0.80535 0.0
H3089 H 0.08024 0.46378 0.68101 0.0
H3090 H 0.05063 0.48016 0.63351 0.0
H3091 H 0.05435 0.49266 0.5765 0.0
H3092 H 0.05748 0.49523 0.66766 0.0
H3093 H 0.07991 0.51024 0.64122 0.0
H3094 H 0.07683 0.5078 0.54971 0.0
H3095 H 0.08835 0.50552 0.58804 0.0
H3096 H 0.07516 0.45978 0.55476 0.0
H3097 H 0.06801 0.45812 0.43389 0.0
H3098 H 0.06291 0.48867 0.46625 0.0
C3099 C 0.07423 0.48935 0.74155 0.0
C3100 C 0.07692 0.48291 0.79113 0.0
C3101 C 0.07945 0.47391 0.76838 0.0
C3102 C 0.07877 0.47098 0.69782 0.0
C3103 C 0.07573 0.47726 0.65058 0.0
C3104 C 0.07369 0.48639 0.67133 0.0
C3105 C 0.0699 0.49128 0.61075 0.0
C3106 C 0.05735 0.48973 0.62286 0.0
C3107 C 0.07931 0.5045 0.5966 0.0
C3108 C 0.0697 0.48318 0.55309 0.0
C3109 C 0.07314 0.47518 0.57715 0.0
C3110 C 0.07271 0.46615 0.53502 0.0
C3111 C 0.0686 0.46524 0.46674 0.0
C3112 C 0.06509 0.47336 0.44126 0.0
C3113 C 0.06579 0.48253 0.48455 0.0
H3114 H 0.52062 0.57549 0.79016 0.0
H3115 H 0.52361 0.61051 0.81366 0.0
H3116 H 0.52513 0.61311 0.68598 0.0
H3117 H 0.54226 0.58402 0.65698 0.0
H3118 H 0.53442 0.56978 0.61251 0.0
H3119 H 0.53268 0.57044 0.70464 0.0
H3120 H 0.50954 0.56009 0.68954 0.0
H3121 H 0.5112 0.55941 0.59727 0.0
H3122 H 0.50329 0.56658 0.63161 0.0
H3123 H 0.52673 0.61183 0.55506 0.0
H3124 H 0.52953 0.60743 0.43392 0.0
H3125 H 0.52621 0.57358 0.49921 0.0
C3126 C 0.52143 0.58366 0.7686 0.0
C3127 C 0.52186 0.59276 0.81164 0.0
C3128 C 0.5232 0.60341 0.78143 0.0
C3129 C 0.52404 0.60494 0.70909 0.0
C3130 C 0.52362 0.59577 0.66818 0.0
C3131 C 0.52244 0.58538 0.69709 0.0
C3132 C 0.52292 0.57715 0.64274 0.0
C3133 C 0.53371 0.57524 0.65496 0.0
C3134 C 0.51103 0.5651 0.64015 0.0
C3135 C 0.52463 0.58453 0.5784 0.0
C3136 C 0.52486 0.59517 0.59382 0.0
C3137 C 0.52645 0.60348 0.54243 0.0
C3138 C 0.52791 0.60085 0.47371 0.0
C3139 C 0.52785 0.59007 0.45735 0.0
C3140 C 0.52621 0.58185 0.51045 0.0
H3141 H 0.41425 0.9504 0.50473 0.0
H3142 H 0.40054 0.915 0.41423 0.0
H3143 H 0.39868 0.90634 0.53088 0.0
H3144 H 0.43121 0.94738 0.64275 0.0
H3145 H 0.4273 0.95532 0.70507 0.0
H3146 H 0.42782 0.95874 0.61423 0.0
H3147 H 0.40584 0.95445 0.62006 0.0
H3148 H 0.40526 0.95102 0.71094 0.0
H3149 H 0.3942 0.94016 0.65256 0.0
H3150 H 0.39902 0.90167 0.65813 0.0
H3151 H 0.40031 0.90123 0.78605 0.0
H3152 H 0.41243 0.93942 0.79313 0.0
C3153 C 0.4109 0.94083 0.50955 0.0
C3154 C 0.40805 0.93346 0.45026 0.0
C3155 C 0.40339 0.92093 0.45869 0.0
C3156 C 0.40214 0.9159 0.52483 0.0
C3157 C 0.40533 0.92347 0.5822 0.0
C3158 C 0.40948 0.93565 0.57525 0.0
C3159 C 0.41201 0.94176 0.64524 0.0
C3160 C 0.42538 0.95137 0.65221 0.0
C3161 C 0.40383 0.94716 0.65793 0.0
C3162 C 0.40874 0.93115 0.69256 0.0
C3163 C 0.40496 0.92068 0.65531 0.0
C3164 C 0.40186 0.9098 0.68789 0.0
C3165 C 0.40264 0.90963 0.76049 0.0
C3166 C 0.40637 0.92025 0.7996 0.0
C3167 C 0.40939 0.9311 0.76484 0.0
H3168 H 0.51457 0.9104 0.75752 0.0
H3169 H 0.5206 0.94545 0.82075 0.0
H3170 H 0.52317 0.95191 0.69923 0.0
H3171 H 0.53672 0.92094 0.63183 0.0
H3172 H 0.5287 0.90906 0.56982 0.0
H3173 H 0.52531 0.90624 0.66064 0.0
H3174 H 0.50288 0.89913 0.63593 0.0
H3175 H 0.50619 0.90184 0.54475 0.0
H3176 H 0.49896 0.90886 0.58929 0.0
H3177 H 0.52794 0.95575 0.57633 0.0
H3178 H 0.53383 0.95637 0.45387 0.0
H3179 H 0.52458 0.91899 0.46593 0.0
C3180 C 0.51608 0.91929 0.74524 0.0
C3181 C 0.51738 0.92743 0.79814 0.0
C3182 C 0.51963 0.9391 0.78077 0.0
C3183 C 0.52104 0.94284 0.71193 0.0
C3184 C 0.52012 0.93479 0.66097 0.0
C3185 C 0.5176 0.92323 0.67628 0.0
C3186 C 0.51822 0.91685 0.61161 0.0
C3187 C 0.52781 0.91305 0.61895 0.0
C3188 C 0.50582 0.90603 0.59438 0.0
C3189 C 0.52192 0.92681 0.55861 0.0
C3190 C 0.52282 0.93702 0.58836 0.0
C3191 C 0.52702 0.94775 0.55183 0.0
C3192 C 0.53041 0.94805 0.48279 0.0
C3193 C 0.5295 0.9377 0.45141 0.0
C3194 C 0.52511 0.92692 0.48922 0.0
H3195 H 0.05295 0.58566 0.52423 0.0
H3196 H 0.08903 0.5998 0.44217 0.0
H3197 H 0.09712 0.60343 0.56109 0.0
H3198 H 0.06133 0.60744 0.65841 0.0
H3199 H 0.05053 0.59705 0.71967 0.0
H3200 H 0.04751 0.59475 0.62818 0.0
H3201 H 0.04454 0.57328 0.63834 0.0
H3202 H 0.04744 0.57548 0.72997 0.0
H3203 H 0.05626 0.57129 0.67642 0.0
H3204 H 0.10123 0.60565 0.69074 0.0
H3205 H 0.10092 0.60643 0.81894 0.0
H3206 H 0.06229 0.59216 0.81316 0.0
C3207 C 0.06255 0.58939 0.53121 0.0
C3208 C 0.07028 0.592 0.47384 0.0
C3209 C 0.08282 0.59714 0.48516 0.0
C3210 C 0.08754 0.59942 0.55264 0.0
C3211 C 0.07963 0.59671 0.60804 0.0
C3212 C 0.0674 0.59185 0.59788 0.0
C3213 C 0.06083 0.59013 0.66561 0.0
C3214 C 0.0547 0.5978 0.66808 0.0
C3215 C 0.05173 0.57675 0.67832 0.0
C3216 C 0.07127 0.59476 0.71564 0.0
C3217 C 0.08204 0.59847 0.68173 0.0
C3218 C 0.09285 0.60282 0.7178 0.0
C3219 C 0.09259 0.60324 0.7905 0.0
C3220 C 0.08161 0.59944 0.82599 0.0
C3221 C 0.07087 0.59527 0.78767 0.0
H3222 H 0.40446 0.46269 0.48486 0.0
H3223 H 0.42446 0.49952 0.41083 0.0
H3224 H 0.42368 0.50683 0.52723 0.0
H3225 H 0.38546 0.46669 0.60974 0.0
H3226 H 0.38644 0.45692 0.67328 0.0
H3227 H 0.38755 0.45443 0.58237 0.0
H3228 H 0.40806 0.45562 0.60357 0.0
H3229 H 0.40698 0.45804 0.69449 0.0
H3230 H 0.41998 0.46867 0.64584 0.0
H3231 H 0.42137 0.51028 0.65275 0.0
H3232 H 0.4192 0.5097 0.77976 0.0
H3233 H 0.40165 0.4707 0.77496 0.0
C3234 C 0.40857 0.47229 0.49287 0.0
C3235 C 0.41407 0.48048 0.43739 0.0
C3236 C 0.41961 0.49298 0.45086 0.0
C3237 C 0.41934 0.49726 0.51736 0.0
C3238 C 0.41367 0.48894 0.57041 0.0
C3239 C 0.40849 0.47672 0.55917 0.0
C3240 C 0.40369 0.46974 0.62617 0.0
C3241 C 0.38997 0.46146 0.62266 0.0
C3242 C 0.41006 0.4626 0.64353 0.0
C3243 C 0.4071 0.47996 0.67697 0.0
C3244 C 0.41272 0.49095 0.6435 0.0
C3245 C 0.41695 0.50173 0.6795 0.0
C3246 C 0.41565 0.50129 0.75176 0.0
C3247 C 0.41024 0.49016 0.78763 0.0
C3248 C 0.40574 0.47936 0.74924 0.0
H3249 H 0.27419 0.20656 0.17866 0.0
H3250 H 0.25739 0.16927 0.24451 0.0
H3251 H 0.24993 0.16272 0.12626 0.0
H3252 H 0.25208 0.2033 0.04916 0.0
H3253 H 0.26336 0.21358 0.9896 0.0
H3254 H 0.2661 0.21541 0.08156 0.0
H3255 H 0.28571 0.21455 0.06501 0.0
H3256 H 0.28306 0.21277 0.97312 0.0
H3257 H 0.28508 0.20185 0.02107 0.0
H3258 H 0.24496 0.16017 0.99908 0.0
H3259 H 0.24467 0.16178 0.87173 0.0
H3260 H 0.26608 0.20067 0.88746 0.0
C3261 C 0.2688 0.197 0.16867 0.0
C3262 C 0.26597 0.18847 0.22223 0.0
C3263 C 0.25916 0.17606 0.20605 0.0
C3264 C 0.25498 0.17222 0.13846 0.0
C3265 C 0.25784 0.18089 0.08729 0.0
C3266 C 0.26473 0.19303 0.10144 0.0
C3267 C 0.26749 0.2005 0.0362 0.0
C3268 C 0.26192 0.20868 0.03934 0.0
C3269 C 0.28114 0.20784 0.02309 0.0
C3270 C 0.26123 0.19066 0.98288 0.0
C3271 C 0.25553 0.17942 0.0135 0.0
C3272 C 0.24935 0.16892 0.97455 0.0
C3273 C 0.24921 0.16994 0.90225 0.0
C3274 C 0.25537 0.18135 0.86971 0.0
C3275 C 0.26128 0.19183 0.91085 0.0
H3276 H 0.80387 0.06829 0.86516 0.0
H3277 H 0.84193 0.07991 0.8524 0.0
H3278 H 0.84337 0.0813 0.97989 0.0
H3279 H 0.80601 0.0876 0.99808 0.0
H3280 H 0.79225 0.07703 0.041 0.0
H3281 H 0.7939 0.07575 0.94935 0.0
H3282 H 0.78914 0.05375 0.9656 0.0
H3283 H 0.78738 0.05493 0.0574 0.0
H3284 H 0.79787 0.05053 0.02616 0.0
H3285 H 0.84118 0.08383 0.10744 0.0
H3286 H 0.83524 0.08592 0.22541 0.0
H3287 H 0.79837 0.07154 0.156 0.0
C3288 C 0.81246 0.07092 0.88917 0.0
C3289 C 0.82279 0.07399 0.84871 0.0
C3290 C 0.83388 0.07745 0.88223 0.0
C3291 C 0.8348 0.07829 0.95468 0.0
C3292 C 0.82451 0.07549 0.99291 0.0
C3293 C 0.81352 0.07172 0.96138 0.0
C3294 C 0.80395 0.06973 0.01404 0.0
C3295 C 0.79873 0.07802 0.99975 0.0
C3296 C 0.794 0.05645 0.01591 0.0
C3297 C 0.81135 0.0733 0.07987 0.0
C3298 C 0.82318 0.07655 0.0667 0.0
C3299 C 0.83186 0.08096 0.11877 0.0
C3300 C 0.82835 0.08198 0.18615 0.0
C3301 C 0.81622 0.07847 0.20116 0.0
C3302 C 0.80768 0.07411 0.14682 0.0
H3303 H 0.94239 0.75758 0.88395 0.0
H3304 H 0.90945 0.72611 0.81566 0.0
H3305 H 0.90424 0.71946 0.9362 0.0
H3306 H 0.94964 0.74294 0.00924 0.0
H3307 H 0.95546 0.75484 0.07266 0.0
H3308 H 0.95592 0.75838 0.98212 0.0
H3309 H 0.94417 0.76954 0.00682 0.0
H3310 H 0.94374 0.76611 0.09772 0.0
H3311 H 0.92995 0.76183 0.05166 0.0
H3312 H 0.90379 0.71455 0.05865 0.0
H3313 H 0.9078 0.71218 0.18112 0.0
H3314 H 0.94067 0.74674 0.17474 0.0
C3315 C 0.93394 0.7495 0.89489 0.0
C3316 C 0.92632 0.74236 0.84073 0.0
C3317 C 0.91545 0.73167 0.85649 0.0
C3318 C 0.91236 0.72784 0.92481 0.0
C3319 C 0.9202 0.73482 0.97697 0.0
C3320 C 0.93072 0.74547 0.96334 0.0
C3321 C 0.938 0.75061 0.0291 0.0
C3322 C 0.95049 0.75175 0.02287 0.0
C3323 C 0.93902 0.76274 0.0474 0.0
C3324 C 0.93012 0.74095 0.08076 0.0
C3325 C 0.91985 0.732 0.0494 0.0
C3326 C 0.91164 0.72161 0.0844 0.0
C3327 C 0.91401 0.7203 0.15352 0.0
C3328 C 0.92442 0.72935 0.18662 0.0
C3329 C 0.93252 0.73986 0.15031 0.0
H3330 H 0.46855 0.05425 0.49563 0.0
H3331 H 0.48702 0.0909 0.57318 0.0
H3332 H 0.49336 0.09846 0.45454 0.0
H3333 H 0.48937 0.05798 0.36109 0.0
H3334 H 0.47776 0.04837 0.30098 0.0
H3335 H 0.47526 0.04589 0.39278 0.0
H3336 H 0.45599 0.04757 0.38233 0.0
H3337 H 0.45844 0.05005 0.29051 0.0
H3338 H 0.45695 0.0608 0.34346 0.0
H3339 H 0.49779 0.10196 0.32554 0.0
H3340 H 0.49881 0.10103 0.19761 0.0
H3341 H 0.47627 0.06218 0.20623 0.0
C3342 C 0.47397 0.06388 0.48792 0.0
C3343 C 0.47764 0.07193 0.54442 0.0
C3344 C 0.48457 0.08447 0.53167 0.0
C3345 C 0.48809 0.08888 0.46407 0.0
C3346 C 0.48445 0.08065 0.40975 0.0
C3347 C 0.47743 0.06842 0.42101 0.0
C3348 C 0.4743 0.06144 0.3539 0.0
C3349 C 0.47949 0.05292 0.35211 0.0
C3350 C 0.46061 0.05456 0.34186 0.0
C3351 C 0.48064 0.07166 0.30297 0.0
C3352 C 0.48653 0.08268 0.33596 0.0
C3353 C 0.49317 0.09338 0.29915 0.0
C3354 C 0.49372 0.09277 0.22665 0.0
C3355 C 0.48757 0.08155 0.1921 0.0
C3356 C 0.48099 0.07091 0.23107 0.0
H3357 H 0.94382 0.42468 0.50645 0.0
H3358 H 0.92976 0.38621 0.51761 0.0
H3359 H 0.92341 0.38415 0.39499 0.0
H3360 H 0.92146 0.42424 0.38175 0.0
H3361 H 0.93268 0.43737 0.33657 0.0
H3362 H 0.93436 0.43561 0.42787 0.0
H3363 H 0.95538 0.43804 0.40521 0.0
H3364 H 0.95378 0.43982 0.31413 0.0
H3365 H 0.95682 0.42827 0.34359 0.0
H3366 H 0.92005 0.38639 0.27117 0.0
H3367 H 0.92166 0.39284 0.14991 0.0
H3368 H 0.93898 0.43015 0.21627 0.0
C3369 C 0.93915 0.41582 0.48311 0.0
C3370 C 0.93707 0.40556 0.52078 0.0
C3371 C 0.93131 0.39413 0.48896 0.0
C3372 C 0.92761 0.39287 0.4198 0.0
C3373 C 0.92987 0.40318 0.38348 0.0
C3374 C 0.9356 0.41446 0.41369 0.0
C3375 C 0.93825 0.42421 0.3609 0.0
C3376 C 0.93127 0.43074 0.37779 0.0
C3377 C 0.95186 0.4331 0.35565 0.0
C3378 C 0.93345 0.41667 0.29595 0.0
C3379 C 0.92839 0.40455 0.31062 0.0
C3380 C 0.92389 0.39583 0.25898 0.0
C3381 C 0.92489 0.39961 0.19018 0.0
C3382 C 0.93051 0.41202 0.17354 0.0
C3383 C 0.93456 0.42061 0.22737 0.0
H3384 H 0.57886 0.50577 0.22427 0.0
H3385 H 0.61398 0.53531 0.16624 0.0
H3386 H 0.61925 0.53983 0.28944 0.0
H3387 H 0.5735 0.52019 0.35494 0.0
H3388 H 0.56612 0.50753 0.41292 0.0
H3389 H 0.56583 0.50507 0.32115 0.0
H3390 H 0.57512 0.4914 0.33975 0.0
H3391 H 0.57537 0.49376 0.43198 0.0
H3392 H 0.58902 0.49707 0.38724 0.0
H3393 H 0.61934 0.54355 0.41487 0.0
H3394 H 0.61459 0.54545 0.53671 0.0
H3395 H 0.57986 0.51311 0.51594 0.0
C3396 C 0.58779 0.51295 0.2375 0.0
C3397 C 0.596 0.52019 0.1857 0.0
C3398 C 0.60754 0.52964 0.20504 0.0
C3399 C 0.61064 0.53225 0.27492 0.0
C3400 C 0.60218 0.52522 0.32474 0.0
C3401 C 0.59105 0.51565 0.3071 0.0
C3402 C 0.58318 0.51029 0.37049 0.0
C3403 C 0.57147 0.51081 0.36448 0.0
C3404 C 0.58052 0.49736 0.3831 0.0
C3405 C 0.5914 0.51874 0.42592 0.0
C3406 C 0.60238 0.5272 0.39843 0.0
C3407 C 0.61094 0.53679 0.43752 0.0
C3408 C 0.60816 0.53785 0.50628 0.0
C3409 C 0.59698 0.52931 0.53502 0.0
C3410 C 0.5886 0.51952 0.49504 0.0
H3411 H 0.73848 0.80492 0.14342 0.0
H3412 H 0.76063 0.84384 0.15049 0.0
H3413 H 0.76121 0.84448 0.02264 0.0
H3414 H 0.75293 0.80045 0.98982 0.0
H3415 H 0.73889 0.78838 0.95739 0.0
H3416 H 0.74116 0.79094 0.04935 0.0
H3417 H 0.7219 0.79265 0.05731 0.0
H3418 H 0.7196 0.79016 0.96549 0.0
H3419 H 0.72057 0.80344 0.00368 0.0
H3420 H 0.75735 0.84104 0.89481 0.0
H3421 H 0.75028 0.83377 0.77692 0.0
H3422 H 0.7316 0.79698 0.85246 0.0
C3423 C 0.74361 0.81357 0.11816 0.0
C3424 C 0.7495 0.82433 0.15695 0.0
C3425 C 0.75608 0.83547 0.12188 0.0
C3426 C 0.75646 0.83593 0.04926 0.0
C3427 C 0.75035 0.82516 0.01259 0.0
C3428 C 0.74416 0.81418 0.04585 0.0
C3429 C 0.73789 0.80398 0.9945 0.0
C3430 C 0.74303 0.79543 0.99798 0.0
C3431 C 0.72418 0.79716 0.00594 0.0
C3432 C 0.74125 0.81097 0.92723 0.0
C3433 C 0.74848 0.82316 0.93871 0.0
C3434 C 0.752 0.83148 0.88491 0.0
C3435 C 0.74804 0.82722 0.8176 0.0
C3436 C 0.74075 0.81473 0.80442 0.0
C3437 C 0.73736 0.80656 0.86037 0.0
H3438 H 0.21055 0.93568 0.86152 0.0
H3439 H 0.17404 0.91771 0.78162 0.0
H3440 H 0.16631 0.91702 0.89885 0.0
H3441 H 0.20372 0.91784 0.01067 0.0
H3442 H 0.21423 0.92978 0.06615 0.0
H3443 H 0.21706 0.93036 0.97455 0.0
H3444 H 0.21861 0.95127 0.9676 0.0
H3445 H 0.2158 0.95075 0.05936 0.0
H3446 H 0.20638 0.95305 0.99926 0.0
H3447 H 0.16236 0.91689 0.02639 0.0
H3448 H 0.16252 0.91666 0.1543 0.0
H3449 H 0.20151 0.93388 0.15188 0.0
C3450 C 0.20094 0.9318 0.86841 0.0
C3451 C 0.19298 0.92719 0.81144 0.0
C3452 C 0.18044 0.92189 0.82318 0.0
C3453 C 0.17591 0.92132 0.89009 0.0
C3454 C 0.18402 0.92596 0.94496 0.0
C3455 C 0.19627 0.93106 0.93488 0.0
C3456 C 0.203 0.93453 0.00313 0.0
C3457 C 0.2099 0.92772 0.01426 0.0
C3458 C 0.21144 0.94821 0.00758 0.0
C3459 C 0.19258 0.93034 0.05324 0.0
C3460 C 0.18172 0.92555 0.01866 0.0
C3461 C 0.17081 0.92071 0.05405 0.0
C3462 C 0.171 0.92062 0.12673 0.0
C3463 C 0.18202 0.92525 0.1632 0.0
C3464 C 0.19294 0.93031 0.12564 0.0
H3465 H 0.08322 0.27555 0.14653 0.0
H3466 H 0.06962 0.23708 0.15746 0.0
H3467 H 0.0673 0.23576 0.02985 0.0
H3468 H 0.06385 0.27485 0.0118 0.0
H3469 H 0.07525 0.28849 0.9715 0.0
H3470 H 0.07582 0.28631 0.06328 0.0
H3471 H 0.09746 0.28983 0.0507 0.0
H3472 H 0.09699 0.29205 0.9589 0.0
H3473 H 0.10031 0.2808 0.99045 0.0
H3474 H 0.06585 0.23872 0.9011 0.0
H3475 H 0.06627 0.24577 0.78182 0.0
H3476 H 0.08176 0.28243 0.85671 0.0
C3477 C 0.07974 0.26682 0.12228 0.0
C3478 C 0.07656 0.2564 0.16184 0.0
C3479 C 0.07212 0.24518 0.12801 0.0
C3480 C 0.07075 0.24435 0.05569 0.0
C3481 C 0.07394 0.25482 0.01832 0.0
C3482 C 0.07841 0.26585 0.05054 0.0
C3483 C 0.08131 0.2758 0.99898 0.0
C3484 C 0.0736 0.2817 0.01219 0.0
C3485 C 0.09482 0.28517 0.99981 0.0
C3486 C 0.07773 0.26865 0.93248 0.0
C3487 C 0.07346 0.25657 0.94457 0.0
C3488 C 0.06938 0.2482 0.89092 0.0
C3489 C 0.06981 0.25232 0.82309 0.0
C3490 C 0.07445 0.26472 0.80956 0.0
C3491 C 0.07829 0.27291 0.86531 0.0
H3492 H 0.18754 0.27755 0.80872 0.0
H3493 H 0.21691 0.27023 0.78932 0.0
H3494 H 0.21391 0.26322 0.91108 0.0
H3495 H 0.19548 0.29004 0.9759 0.0
H3496 H 0.18026 0.28417 0.00602 0.0
H3497 H 0.18361 0.28699 0.91516 0.0
H3498 H 0.16767 0.26489 0.88759 0.0
H3499 H 0.1643 0.26199 0.97859 0.0
H3500 H 0.16864 0.25283 0.92934 0.0
H3501 H 0.20841 0.25801 0.03599 0.0
H3502 H 0.20234 0.25697 0.15822 0.0
H3503 H 0.17734 0.26891 0.09898 0.0
C3504 C 0.19315 0.27425 0.83009 0.0
C3505 C 0.20235 0.27425 0.79008 0.0
C3506 C 0.20978 0.27019 0.81958 0.0
C3507 C 0.20809 0.26615 0.88836 0.0
C3508 C 0.19902 0.26635 0.92704 0.0
C3509 C 0.19174 0.27041 0.89923 0.0
C3510 C 0.1835 0.27087 0.95393 0.0
C3511 C 0.18586 0.28378 0.9633 0.0
C3512 C 0.17024 0.26212 0.9363 0.0
C3513 C 0.18745 0.26668 0.01701 0.0
C3514 C 0.19621 0.26387 1.00002 0.0
C3515 C 0.20151 0.26012 0.04988 0.0
C3516 C 0.19797 0.25953 0.11922 0.0
C3517 C 0.18937 0.26286 0.13831 0.0
C3518 C 0.1839 0.26625 0.08609 0.0
H3519 H 0.72675 0.93426 0.8516 0.0
H3520 H 0.74553 0.91618 0.77722 0.0
H3521 H 0.7533 0.91684 0.89433 0.0
H3522 H 0.7487 0.9533 0.98205 0.0
H3523 H 0.73729 0.95133 0.0436 0.0
H3524 H 0.73429 0.95072 0.95203 0.0
H3525 H 0.71542 0.92963 0.96718 0.0
H3526 H 0.71834 0.9302 0.05869 0.0
H3527 H 0.71695 0.9178 0.00773 0.0
H3528 H 0.75823 0.91849 0.02108 0.0
H3529 H 0.75871 0.91968 0.14872 0.0
H3530 H 0.73584 0.93569 0.14209 0.0
C3531 C 0.73263 0.93059 0.85964 0.0
C3532 C 0.73591 0.92563 0.80407 0.0
C3533 C 0.74337 0.92063 0.81746 0.0
C3534 C 0.74774 0.92083 0.88435 0.0
C3535 C 0.74444 0.9259 0.93765 0.0
C3536 C 0.73696 0.9306 0.9262 0.0
C3537 C 0.734 0.93467 0.9933 0.0
C3538 C 0.73886 0.94832 0.99268 0.0
C3539 C 0.72037 0.92765 0.00755 0.0
C3540 C 0.74082 0.93135 0.04442 0.0
C3541 C 0.74691 0.92645 0.01117 0.0
C3542 C 0.75355 0.92237 0.04769 0.0
C3543 C 0.75378 0.92311 0.12022 0.0
C3544 C 0.74732 0.92778 0.15551 0.0
C3545 C 0.74092 0.93212 0.11674 0.0
H3546 H 0.09323 0.82019 0.83828 0.0
H3547 H 0.05632 0.79107 0.8259 0.0
H3548 H 0.05308 0.79447 0.94822 0.0
H3549 H 0.09875 0.81236 1.00006 0.0
H3550 H 0.10842 0.82749 0.03063 0.0
H3551 H 0.10722 0.82435 0.93931 0.0
H3552 H 0.10102 0.84046 0.91796 0.0
H3553 H 0.10221 0.84365 0.0095 0.0
H3554 H 0.08838 0.83954 0.96428 0.0
H3555 H 0.05435 0.7996 0.07249 0.0
H3556 H 0.06038 0.80477 0.19417 0.0
H3557 H 0.09694 0.82991 0.12888 0.0
C3558 C 0.08441 0.81479 0.86122 0.0
C3559 C 0.07494 0.80551 0.82335 0.0
C3560 C 0.0636 0.79828 0.85469 0.0
C3561 C 0.06168 0.80021 0.92369 0.0
C3562 C 0.07124 0.80932 0.96042 0.0
C3563 C 0.08242 0.81645 0.93056 0.0
C3564 C 0.09157 0.82452 0.98387 0.0
C3565 C 0.1021 0.82202 0.98875 0.0
C3566 C 0.09606 0.83783 0.96794 0.0
C3567 C 0.08389 0.8205 0.04868 0.0
C3568 C 0.07213 0.81196 0.03355 0.0
C3569 C 0.06349 0.80638 0.08502 0.0
C3570 C 0.06703 0.80937 0.15407 0.0
C3571 C 0.07915 0.81773 0.1711 0.0
C3572 C 0.0876 0.82357 0.11749 0.0
H3573 H 0.93574 0.50759 0.24113 0.0
H3574 H 0.92229 0.53121 0.17836 0.0
H3575 H 0.9232 0.53761 0.29976 0.0
H3576 H 0.91971 0.49886 0.4108 0.0
H3577 H 0.93207 0.49852 0.45305 0.0
H3578 H 0.92925 0.49492 0.36224 0.0
H3579 H 0.95115 0.51135 0.33412 0.0
H3580 H 0.954 0.51508 0.42457 0.0
H3581 H 0.95651 0.52659 0.36237 0.0
H3582 H 0.92833 0.54361 0.42432 0.0
H3583 H 0.93517 0.54705 0.54648 0.0
H3584 H 0.94392 0.51861 0.53108 0.0
C3585 C 0.93273 0.51391 0.25313 0.0
C3586 C 0.92894 0.5189 0.2001 0.0
C3587 C 0.92515 0.5272 0.21798 0.0
C3588 C 0.92567 0.53092 0.28686 0.0
C3589 C 0.92978 0.5261 0.33753 0.0
C3590 C 0.93301 0.51759 0.32183 0.0
C3591 C 0.93749 0.51413 0.38571 0.0
C3592 C 0.92913 0.50082 0.40403 0.0
C3593 C 0.95056 0.51696 0.37608 0.0
C3594 C 0.93666 0.52232 0.43927 0.0
C3595 C 0.93222 0.52918 0.4103 0.0
C3596 C 0.93156 0.5381 0.44795 0.0
C3597 C 0.93551 0.54004 0.51699 0.0
C3598 C 0.93988 0.53298 0.54781 0.0
C3599 C 0.94036 0.52394 0.50873 0.0
H3600 H 0.47062 0.41718 0.48956 0.0
H3601 H 0.48955 0.39955 0.56885 0.0
H3602 H 0.49462 0.39686 0.44958 0.0
H3603 H 0.45724 0.39729 0.34653 0.0
H3604 H 0.45826 0.40888 0.28939 0.0
H3605 H 0.45688 0.41014 0.3814 0.0
H3606 H 0.47637 0.431 0.38112 0.0
H3607 H 0.47777 0.42982 0.28905 0.0
H3608 H 0.49002 0.43241 0.34562 0.0
H3609 H 0.4976 0.39616 0.31962 0.0
H3610 H 0.49744 0.3968 0.19125 0.0
H3611 H 0.47523 0.41349 0.19996 0.0
C3612 C 0.47591 0.41282 0.48207 0.0
C3613 C 0.48005 0.40899 0.53894 0.0
C3614 C 0.48676 0.40313 0.52666 0.0
C3615 C 0.48955 0.40139 0.45883 0.0
C3616 C 0.48537 0.40538 0.40402 0.0
C3617 C 0.47861 0.41088 0.41506 0.0
C3618 C 0.47477 0.41393 0.34772 0.0
C3619 C 0.46097 0.40715 0.34088 0.0
C3620 C 0.48005 0.4276 0.34047 0.0
C3621 C 0.48042 0.40929 0.29686 0.0
C3622 C 0.48658 0.40446 0.33001 0.0
C3623 C 0.49275 0.39987 0.29312 0.0
C3624 C 0.49262 0.40027 0.22039 0.0
C3625 C 0.48625 0.4051 0.1858 0.0
C3626 C 0.48006 0.40961 0.22484 0.0
H3627 H 0.59055 0.06388 0.21365 0.0
H3628 H 0.60882 0.10289 0.21658 0.0
H3629 H 0.61017 0.10258 0.34458 0.0
H3630 H 0.57271 0.05947 0.3655 0.0
H3631 H 0.57353 0.04655 0.3945 0.0
H3632 H 0.57442 0.04994 0.30343 0.0
H3633 H 0.59473 0.05022 0.29559 0.0
H3634 H 0.5939 0.04683 0.38664 0.0
H3635 H 0.60691 0.05995 0.35234 0.0
H3636 H 0.61017 0.09782 0.47238 0.0
H3637 H 0.60762 0.08921 0.58891 0.0
H3638 H 0.58778 0.05324 0.50223 0.0
C3639 C 0.59491 0.07238 0.24108 0.0
C3640 C 0.59967 0.08343 0.20515 0.0
C3641 C 0.60513 0.09433 0.2431 0.0
C3642 C 0.60596 0.09423 0.31572 0.0
C3643 C 0.60115 0.08316 0.34948 0.0
C3644 C 0.59564 0.07244 0.31335 0.0
C3645 C 0.59082 0.06173 0.36177 0.0
C3646 C 0.57705 0.05397 0.35594 0.0
C3647 C 0.59696 0.05425 0.34827 0.0
C3648 C 0.59454 0.06809 0.43098 0.0
C3649 C 0.60056 0.08044 0.42286 0.0
C3650 C 0.60521 0.08816 0.4794 0.0
C3651 C 0.60353 0.08314 0.54595 0.0
C3652 C 0.59702 0.0705 0.55583 0.0
C3653 C 0.59263 0.06294 0.497 0.0
loop_
_geom_bond_atom_site_label_1
_geom_bond_atom_site_label_2
_geom_bond_distance
_geom_bond_site_symmetry_2
_ccdc_geom_bond_type
Co0 O3 1.970 . S
Co0 N17 1.989 . S
Co0 O25 1.967 . S
Co0 O32 1.920 . S
Co1 O4 1.966 . S
Co1 N10 2.022 . S
Co1 N18 1.993 . S
Co1 O26 1.941 . S
C2 O3 1.258 . S
C2 O4 1.263 . S
O3 Co0 1.970 . S
O3 C2 1.258 . S
O4 Co1 1.966 . S
O4 C2 1.263 . S
C5 O6 1.235 . S
C5 O32 1.289 . S
O6 C5 1.235 . S
C7 C9 1.400 1_554 S
C7 N10 1.351 . S
C7 C12 1.501 . S
C8 C9 1.387 . S
C8 N11 1.341 1_556 S
C9 C7 1.400 1_556 S
C9 C8 1.387 . S
N10 Co1 2.022 . S
N10 C7 1.351 . S
N10 N11 1.365 . S
N11 C8 1.341 1_554 S
N11 N10 1.365 . S
N11 H31 0.862 . S
C12 C7 1.501 . S
C12 H13 0.961 . S
C12 H14 0.961 . S
C12 H15 0.960 1_554 S
H13 C12 0.961 . S
H14 C12 0.961 . S
H15 C12 0.960 1_556 S
C16 N17 1.342 . S
C16 C20 1.401 . S
C16 C21 1.499 . S
N17 Co0 1.989 . S
N17 C16 1.342 . S
N17 N18 1.388 . S
N18 Co1 1.993 . S
N18 N17 1.388 . S
N18 C19 1.346 . S
C19 N18 1.346 . S
C19 C20 1.396 . S
C19 C29 1.510 . S
C20 C16 1.401 . S
C20 C19 1.396 . S
C21 C16 1.499 . S
C21 H22 0.959 . S
C21 H23 0.960 . S
C21 H24 0.961 . S
H22 C21 0.959 . S
H23 C21 0.960 . S
H24 C21 0.961 . S
O25 Co0 1.967 . S
O25 C33 1.258 . S
O26 Co1 1.941 . S
O26 C33 1.266 . S
H27 C29 0.959 . S
H28 C29 0.961 . S
C29 C19 1.510 . S
C29 H27 0.959 . S
C29 H28 0.961 . S
C29 H30 0.960 . S
H30 C29 0.960 . S
H31 N11 0.862 . S
O32 Co0 1.920 . S
O32 C5 1.289 . S
C33 O25 1.258 . S
C33 O26 1.266 . S
Co34 O37 1.970 . S
Co34 N51 1.989 . S
Co34 O59 1.967 . S
Co34 O66 1.920 . S
Co35 O38 1.966 . S
Co35 N44 2.022 . S
Co35 N52 1.993 . S
Co35 O60 1.941 . S
C36 O37 1.258 . S
C36 O38 1.263 . S
O37 Co34 1.970 . S
O37 C36 1.258 . S
O38 Co35 1.966 . S
O38 C36 1.263 . S
C39 O40 1.235 . S
C39 O66 1.289 . S
O40 C39 1.235 . S
C41 C43 1.400 1_554 S
C41 N44 1.351 . S
C41 C46 1.501 . S
C42 C43 1.387 . S
C42 N45 1.341 1_556 S
C43 C41 1.400 1_556 S
C43 C42 1.387 . S
N44 Co35 2.022 . S
N44 C41 1.351 . S
N44 N45 1.365 . S
N45 C42 1.341 1_554 S
N45 N44 1.365 . S
N45 H65 0.862 . S
C46 C41 1.501 . S
C46 H47 0.961 . S
C46 H48 0.961 . S
C46 H49 0.960 1_554 S
H47 C46 0.961 . S
H48 C46 0.961 . S
H49 C46 0.960 1_556 S
C50 N51 1.342 . S
C50 C54 1.401 . S
C50 C55 1.499 . S
N51 Co34 1.989 . S
N51 C50 1.342 . S
N51 N52 1.388 . S
N52 Co35 1.993 . S
N52 N51 1.388 . S
N52 C53 1.346 . S
C53 N52 1.346 . S
C53 C54 1.396 . S
C53 C63 1.510 . S
C54 C50 1.401 . S
C54 C53 1.396 . S
C55 C50 1.499 . S
C55 H56 0.959 . S
C55 H57 0.960 . S
C55 H58 0.961 . S
H56 C55 0.959 . S
H57 C55 0.960 . S
H58 C55 0.961 . S
O59 Co34 1.967 . S
O59 C67 1.258 . S
O60 Co35 1.941 . S
O60 C67 1.266 . S
H61 C63 0.959 . S
H62 C63 0.961 . S
C63 C53 1.510 . S
C63 H61 0.959 . S
C63 H62 0.961 . S
C63 H64 0.960 . S
H64 C63 0.960 . S
H65 N45 0.862 . S
O66 Co34 1.920 . S
O66 C39 1.289 . S
C67 O59 1.258 . S
C67 O60 1.266 . S
Co68 O71 1.970 . S
Co68 N85 1.989 . S
Co68 O93 1.967 . S
Co68 O100 1.920 . S
Co69 O72 1.966 . S
Co69 N78 2.022 . S
Co69 N86 1.993 . S
Co69 O94 1.941 . S
C70 O71 1.258 . S
C70 O72 1.263 . S
O71 Co68 1.970 . S
O71 C70 1.258 . S
O72 Co69 1.966 . S
O72 C70 1.263 . S
C73 O74 1.235 . S
C73 O100 1.289 . S
O74 C73 1.235 . S
C75 C77 1.400 1_554 S
C75 N78 1.351 . S
C75 C80 1.501 . S
C76 C77 1.387 . S
C76 N79 1.341 1_556 S
C77 C75 1.400 1_556 S
C77 C76 1.387 . S
N78 Co69 2.022 . S
N78 C75 1.351 . S
N78 N79 1.365 . S
N79 C76 1.341 1_554 S
N79 N78 1.365 . S
N79 H99 0.862 . S
C80 C75 1.501 . S
C80 H81 0.961 . S
C80 H82 0.961 . S
C80 H83 0.960 1_554 S
H81 C80 0.961 . S
H82 C80 0.961 . S
H83 C80 0.960 1_556 S
C84 N85 1.342 . S
C84 C88 1.401 . S
C84 C89 1.499 . S
N85 Co68 1.989 . S
N85 C84 1.342 . S
N85 N86 1.388 . S
N86 Co69 1.993 . S
N86 N85 1.388 . S
N86 C87 1.346 . S
C87 N86 1.346 . S
C87 C88 1.396 . S
C87 C97 1.510 . S
C88 C84 1.401 . S
C88 C87 1.396 . S
C89 C84 1.499 . S
C89 H90 0.959 . S
C89 H91 0.960 . S
C89 H92 0.961 . S
H90 C89 0.959 . S
H91 C89 0.960 . S
H92 C89 0.961 . S
O93 Co68 1.967 . S
O93 C101 1.258 . S
O94 Co69 1.941 . S
O94 C101 1.266 . S
H95 C97 0.959 . S
H96 C97 0.961 . S
C97 C87 1.510 . S
C97 H95 0.959 . S
C97 H96 0.961 . S
C97 H98 0.960 . S
H98 C97 0.960 . S
H99 N79 0.862 . S
O100 Co68 1.920 . S
O100 C73 1.289 . S
C101 O93 1.258 . S
C101 O94 1.266 . S
Co102 O105 1.970 . S
Co102 N119 1.989 . S
Co102 O127 1.967 . S
Co102 O134 1.920 . S
Co103 O106 1.966 . S
Co103 N112 2.022 . S
Co103 N120 1.993 . S
Co103 O128 1.941 . S
C104 O105 1.258 . S
C104 O106 1.263 . S
O105 Co102 1.970 . S
O105 C104 1.258 . S
O106 Co103 1.966 . S
O106 C104 1.263 . S
C107 O108 1.235 . S
C107 O134 1.289 . S
O108 C107 1.235 . S
C109 C111 1.400 1_556 S
C109 N112 1.351 . S
C109 C114 1.501 . S
C110 C111 1.387 . S
C110 N113 1.341 1_554 S
C111 C109 1.400 1_554 S
C111 C110 1.387 . S
N112 Co103 2.022 . S
N112 C109 1.351 . S
N112 N113 1.365 . S
N113 C110 1.341 1_556 S
N113 N112 1.365 . S
N113 H133 0.862 . S
C114 C109 1.501 . S
C114 H115 0.961 . S
C114 H116 0.961 . S
C114 H117 0.960 1_556 S
H115 C114 0.961 . S
H116 C114 0.961 . S
H117 C114 0.960 1_554 S
C118 N119 1.342 . S
C118 C122 1.401 . S
C118 C123 1.499 . S
N119 Co102 1.989 . S
N119 C118 1.342 . S
N119 N120 1.388 . S
N120 Co103 1.993 . S
N120 N119 1.388 . S
N120 C121 1.346 . S
C121 N120 1.346 . S
C121 C122 1.396 . S
C121 C131 1.510 . S
C122 C118 1.401 . S
C122 C121 1.396 . S
C123 C118 1.499 . S
C123 H124 0.959 . S
C123 H125 0.960 . S
C123 H126 0.961 . S
H124 C123 0.959 . S
H125 C123 0.960 . S
H126 C123 0.961 . S
O127 Co102 1.967 . S
O127 C135 1.258 . S
O128 Co103 1.941 . S
O128 C135 1.266 . S
H129 C131 0.959 . S
H130 C131 0.961 . S
C131 C121 1.510 . S
C131 H129 0.959 . S
C131 H130 0.961 . S
C131 H132 0.960 . S
H132 C131 0.960 . S
H133 N113 0.862 . S
O134 Co102 1.920 . S
O134 C107 1.289 . S
C135 O127 1.258 . S
C135 O128 1.266 . S
Co136 O139 1.970 . S
Co136 N153 1.989 . S
Co136 O161 1.967 . S
Co136 O168 1.920 . S
Co137 O140 1.966 . S
Co137 N146 2.022 . S
Co137 N154 1.993 . S
Co137 O162 1.941 . S
C138 O139 1.258 . S
C138 O140 1.263 . S
O139 Co136 1.970 . S
O139 C138 1.258 . S
O140 Co137 1.966 . S
O140 C138 1.263 . S
C141 O142 1.235 . S
C141 O168 1.289 . S
O142 C141 1.235 . S
C143 C145 1.400 1_556 S
C143 N146 1.351 . S
C143 C148 1.501 . S
C144 C145 1.387 . S
C144 N147 1.341 1_554 S
C145 C143 1.400 1_554 S
C145 C144 1.387 . S
N146 Co137 2.022 . S
N146 C143 1.351 . S
N146 N147 1.365 . S
N147 C144 1.341 1_556 S
N147 N146 1.365 . S
N147 H167 0.862 . S
C148 C143 1.501 . S
C148 H149 0.961 . S
C148 H150 0.961 . S
C148 H151 0.960 1_556 S
H149 C148 0.961 . S
H150 C148 0.961 . S
H151 C148 0.960 1_554 S
C152 N153 1.342 . S
C152 C156 1.401 . S
C152 C157 1.499 . S
N153 Co136 1.989 . S
N153 C152 1.342 . S
N153 N154 1.388 . S
N154 Co137 1.993 . S
N154 N153 1.388 . S
N154 C155 1.346 . S
C155 N154 1.346 . S
C155 C156 1.396 . S
C155 C165 1.510 . S
C156 C152 1.401 . S
C156 C155 1.396 . S
C157 C152 1.499 . S
C157 H158 0.959 . S
C157 H159 0.960 . S
C157 H160 0.961 . S
H158 C157 0.959 . S
H159 C157 0.960 . S
H160 C157 0.961 . S
O161 Co136 1.967 . S
O161 C169 1.258 . S
O162 Co137 1.941 . S
O162 C169 1.266 . S
H163 C165 0.959 . S
H164 C165 0.961 . S
C165 C155 1.510 . S
C165 H163 0.959 . S
C165 H164 0.961 . S
C165 H166 0.960 . S
H166 C165 0.960 . S
H167 N147 0.862 . S
O168 Co136 1.920 . S
O168 C141 1.289 . S
C169 O161 1.258 . S
C169 O162 1.266 . S
Co170 O173 1.970 . S
Co170 N187 1.989 . S
Co170 O195 1.967 . S
Co170 O202 1.920 . S
Co171 O174 1.966 . S
Co171 N180 2.022 . S
Co171 N188 1.993 . S
Co171 O196 1.941 . S
C172 O173 1.258 . S
C172 O174 1.263 . S
O173 Co170 1.970 . S
O173 C172 1.258 . S
O174 Co171 1.966 . S
O174 C172 1.263 . S
C175 O176 1.235 . S
C175 O202 1.289 . S
O176 C175 1.235 . S
C177 C179 1.400 1_556 S
C177 N180 1.351 . S
C177 C182 1.501 . S
C178 C179 1.387 . S
C178 N181 1.341 1_554 S
C179 C177 1.400 1_554 S
C179 C178 1.387 . S
N180 Co171 2.022 . S
N180 C177 1.351 . S
N180 N181 1.365 . S
N181 C178 1.341 1_556 S
N181 N180 1.365 . S
N181 H201 0.862 . S
C182 C177 1.501 . S
C182 H183 0.961 . S
C182 H184 0.961 . S
C182 H185 0.960 1_556 S
H183 C182 0.961 . S
H184 C182 0.961 . S
H185 C182 0.960 1_554 S
C186 N187 1.342 . S
C186 C190 1.401 . S
C186 C191 1.499 . S
N187 Co170 1.989 . S
N187 C186 1.342 . S
N187 N188 1.388 . S
N188 Co171 1.993 . S
N188 N187 1.388 . S
N188 C189 1.346 . S
C189 N188 1.346 . S
C189 C190 1.396 . S
C189 C199 1.510 . S
C190 C186 1.401 . S
C190 C189 1.396 . S
C191 C186 1.499 . S
C191 H192 0.959 . S
C191 H193 0.960 . S
C191 H194 0.961 . S
H192 C191 0.959 . S
H193 C191 0.960 . S
H194 C191 0.961 . S
O195 Co170 1.967 . S
O195 C203 1.258 . S
O196 Co171 1.941 . S
O196 C203 1.266 . S
H197 C199 0.959 . S
H198 C199 0.961 . S
C199 C189 1.510 . S
C199 H197 0.959 . S
C199 H198 0.961 . S
C199 H200 0.960 . S
H200 C199 0.960 . S
H201 N181 0.862 . S
O202 Co170 1.920 . S
O202 C175 1.289 . S
C203 O195 1.258 . S
C203 O196 1.266 . S
Co204 O207 1.970 . S
Co204 N221 1.989 . S
Co204 O229 1.967 . S
Co204 O236 1.920 . S
Co205 O208 1.966 . S
Co205 N214 2.022 . S
Co205 N222 1.993 . S
Co205 O230 1.941 . S
C206 O207 1.258 . S
C206 O208 1.263 . S
O207 Co204 1.970 . S
O207 C206 1.258 . S
O208 Co205 1.966 . S
O208 C206 1.263 . S
C209 O210 1.235 . S
C209 O236 1.289 . S
O210 C209 1.235 . S
C211 C213 1.400 1_556 S
C211 N214 1.351 . S
C211 C216 1.501 . S
C212 C213 1.387 . S
C212 N215 1.341 1_554 S
C213 C211 1.400 1_554 S
C213 C212 1.387 . S
N214 Co205 2.022 . S
N214 C211 1.351 . S
N214 N215 1.365 . S
N215 C212 1.341 1_556 S
N215 N214 1.365 . S
N215 H235 0.862 . S
C216 C211 1.501 . S
C216 H217 0.961 . S
C216 H218 0.961 . S
C216 H219 0.960 1_556 S
H217 C216 0.961 . S
H218 C216 0.961 . S
H219 C216 0.960 1_554 S
C220 N221 1.342 . S
C220 C224 1.401 . S
C220 C225 1.499 . S
N221 Co204 1.989 . S
N221 C220 1.342 . S
N221 N222 1.388 . S
N222 Co205 1.993 . S
N222 N221 1.388 . S
N222 C223 1.346 . S
C223 N222 1.346 . S
C223 C224 1.396 . S
C223 C233 1.510 . S
C224 C220 1.401 . S
C224 C223 1.396 . S
C225 C220 1.499 . S
C225 H226 0.959 . S
C225 H227 0.960 . S
C225 H228 0.961 . S
H226 C225 0.959 . S
H227 C225 0.960 . S
H228 C225 0.961 . S
O229 Co204 1.967 . S
O229 C237 1.258 . S
O230 Co205 1.941 . S
O230 C237 1.266 . S
H231 C233 0.959 . S
H232 C233 0.961 . S
C233 C223 1.510 . S
C233 H231 0.959 . S
C233 H232 0.961 . S
C233 H234 0.960 . S
H234 C233 0.960 . S
H235 N215 0.862 . S
O236 Co204 1.920 . S
O236 C209 1.289 . S
C237 O229 1.258 . S
C237 O230 1.266 . S
Co238 O241 1.970 . S
Co238 N255 1.989 . S
Co238 O263 1.967 . S
Co238 O270 1.920 . S
Co239 O242 1.966 . S
Co239 N248 2.022 . S
Co239 N256 1.993 . S
Co239 O264 1.941 . S
C240 O241 1.258 . S
C240 O242 1.263 . S
O241 Co238 1.970 . S
O241 C240 1.258 . S
O242 Co239 1.966 . S
O242 C240 1.263 . S
C243 O244 1.235 . S
C243 O270 1.289 . S
O244 C243 1.235 . S
C245 C247 1.400 1_556 S
C245 N248 1.351 . S
C245 C250 1.501 . S
C246 C247 1.387 . S
C246 N249 1.341 1_554 S
C247 C245 1.400 1_554 S
C247 C246 1.387 . S
N248 Co239 2.022 . S
N248 C245 1.351 . S
N248 N249 1.365 . S
N249 C246 1.341 1_556 S
N249 N248 1.365 . S
N249 H269 0.862 . S
C250 C245 1.501 . S
C250 H251 0.961 . S
C250 H252 0.961 . S
C250 H253 0.960 1_556 S
H251 C250 0.961 . S
H252 C250 0.961 . S
H253 C250 0.960 1_554 S
C254 N255 1.342 . S
C254 C258 1.401 . S
C254 C259 1.499 . S
N255 Co238 1.989 . S
N255 C254 1.342 . S
N255 N256 1.388 . S
N256 Co239 1.993 . S
N256 N255 1.388 . S
N256 C257 1.346 . S
C257 N256 1.346 . S
C257 C258 1.396 . S
C257 C267 1.510 . S
C258 C254 1.401 . S
C258 C257 1.396 . S
C259 C254 1.499 . S
C259 H260 0.959 . S
C259 H261 0.960 . S
C259 H262 0.961 . S
H260 C259 0.959 . S
H261 C259 0.960 . S
H262 C259 0.961 . S
O263 Co238 1.967 . S
O263 C271 1.258 . S
O264 Co239 1.941 . S
O264 C271 1.266 . S
H265 C267 0.959 . S
H266 C267 0.961 . S
C267 C257 1.510 . S
C267 H265 0.959 . S
C267 H266 0.961 . S
C267 H268 0.960 . S
H268 C267 0.960 . S
H269 N249 0.862 . S
O270 Co238 1.920 . S
O270 C243 1.289 . S
C271 O263 1.258 . S
C271 O264 1.266 . S
Co272 O275 1.970 . S
Co272 N289 1.989 . S
Co272 O297 1.967 . S
Co272 O304 1.920 . S
Co273 O276 1.966 . S
Co273 N282 2.022 . S
Co273 N290 1.993 . S
Co273 O298 1.941 . S
C274 O275 1.258 . S
C274 O276 1.263 . S
O275 Co272 1.970 . S
O275 C274 1.258 . S
O276 Co273 1.966 . S
O276 C274 1.263 . S
C277 O278 1.235 . S
C277 O304 1.289 . S
O278 C277 1.235 . S
C279 C281 1.400 1_556 S
C279 N282 1.351 . S
C279 C284 1.501 . S
C280 C281 1.387 . S
C280 N283 1.341 1_554 S
C281 C279 1.400 1_554 S
C281 C280 1.387 . S
N282 Co273 2.022 . S
N282 C279 1.351 . S
N282 N283 1.365 . S
N283 C280 1.341 1_556 S
N283 N282 1.365 . S
N283 H303 0.862 . S
C284 C279 1.501 . S
C284 H285 0.961 . S
C284 H286 0.961 . S
C284 H287 0.960 1_556 S
H285 C284 0.961 . S
H286 C284 0.961 . S
H287 C284 0.960 1_554 S
C288 N289 1.342 . S
C288 C292 1.401 . S
C288 C293 1.499 . S
N289 Co272 1.989 . S
N289 C288 1.342 . S
N289 N290 1.388 . S
N290 Co273 1.993 . S
N290 N289 1.388 . S
N290 C291 1.346 . S
C291 N290 1.346 . S
C291 C292 1.396 . S
C291 C301 1.510 . S
C292 C288 1.401 . S
C292 C291 1.396 . S
C293 C288 1.499 . S
C293 H294 0.959 . S
C293 H295 0.960 . S
C293 H296 0.961 . S
H294 C293 0.959 . S
H295 C293 0.960 . S
H296 C293 0.961 . S
O297 Co272 1.967 . S
O297 C305 1.258 . S
O298 Co273 1.941 . S
O298 C305 1.266 . S
H299 C301 0.959 . S
H300 C301 0.961 . S
C301 C291 1.510 . S
C301 H299 0.959 . S
C301 H300 0.961 . S
C301 H302 0.960 . S
H302 C301 0.960 . S
H303 N283 0.862 . S
O304 Co272 1.920 . S
O304 C277 1.289 . S
C305 O297 1.258 . S
C305 O298 1.266 . S
Co306 O309 1.970 . S
Co306 N323 1.989 . S
Co306 O331 1.967 . S
Co306 O338 1.920 . S
Co307 O310 1.966 . S
Co307 N316 2.022 . S
Co307 N324 1.993 . S
Co307 O332 1.941 . S
C308 O309 1.258 . S
C308 O310 1.263 . S
O309 Co306 1.970 . S
O309 C308 1.258 . S
O310 Co307 1.966 . S
O310 C308 1.263 . S
C311 O312 1.235 . S
C311 O338 1.289 . S
O312 C311 1.235 . S
C313 C315 1.400 1_554 S
C313 N316 1.351 . S
C313 C318 1.501 . S
C314 C315 1.387 . S
C314 N317 1.341 1_556 S
C315 C313 1.400 1_556 S
C315 C314 1.387 . S
N316 Co307 2.022 . S
N316 C313 1.351 . S
N316 N317 1.365 . S
N317 C314 1.341 1_554 S
N317 N316 1.365 . S
N317 H337 0.862 . S
C318 C313 1.501 . S
C318 H319 0.961 . S
C318 H320 0.961 . S
C318 H321 0.960 1_554 S
H319 C318 0.961 . S
H320 C318 0.961 . S
H321 C318 0.960 1_556 S
C322 N323 1.342 . S
C322 C326 1.401 . S
C322 C327 1.499 . S
N323 Co306 1.989 . S
N323 C322 1.342 . S
N323 N324 1.388 . S
N324 Co307 1.993 . S
N324 N323 1.388 . S
N324 C325 1.346 . S
C325 N324 1.346 . S
C325 C326 1.396 . S
C325 C335 1.510 . S
C326 C322 1.401 . S
C326 C325 1.396 . S
C327 C322 1.499 . S
C327 H328 0.959 . S
C327 H329 0.960 . S
C327 H330 0.961 . S
H328 C327 0.959 . S
H329 C327 0.960 . S
H330 C327 0.961 . S
O331 Co306 1.967 . S
O331 C339 1.258 . S
O332 Co307 1.941 . S
O332 C339 1.266 . S
H333 C335 0.959 . S
H334 C335 0.961 . S
C335 C325 1.510 . S
C335 H333 0.959 . S
C335 H334 0.961 . S
C335 H336 0.960 . S
H336 C335 0.960 . S
H337 N317 0.862 . S
O338 Co306 1.920 . S
O338 C311 1.289 . S
C339 O331 1.258 . S
C339 O332 1.266 . S
Co340 O343 1.970 . S
Co340 N357 1.989 . S
Co340 O365 1.967 . S
Co340 O372 1.920 . S
Co341 O344 1.966 . S
Co341 N350 2.022 . S
Co341 N358 1.993 . S
Co341 O366 1.941 . S
C342 O343 1.258 . S
C342 O344 1.263 . S
O343 Co340 1.970 . S
O343 C342 1.258 . S
O344 Co341 1.966 . S
O344 C342 1.263 . S
C345 O346 1.235 . S
C345 O372 1.289 . S
O346 C345 1.235 . S
C347 C349 1.400 1_554 S
C347 N350 1.351 . S
C347 C352 1.501 . S
C348 C349 1.387 . S
C348 N351 1.341 1_556 S
C349 C347 1.400 1_556 S
C349 C348 1.387 . S
N350 Co341 2.022 . S
N350 C347 1.351 . S
N350 N351 1.365 . S
N351 C348 1.341 1_554 S
N351 N350 1.365 . S
N351 H371 0.862 . S
C352 C347 1.501 . S
C352 H353 0.961 . S
C352 H354 0.961 . S
C352 H355 0.960 1_554 S
H353 C352 0.961 . S
H354 C352 0.961 . S
H355 C352 0.960 1_556 S
C356 N357 1.342 . S
C356 C360 1.401 . S
C356 C361 1.499 . S
N357 Co340 1.989 . S
N357 C356 1.342 . S
N357 N358 1.388 . S
N358 Co341 1.993 . S
N358 N357 1.388 . S
N358 C359 1.346 . S
C359 N358 1.346 . S
C359 C360 1.396 . S
C359 C369 1.510 . S
C360 C356 1.401 . S
C360 C359 1.396 . S
C361 C356 1.499 . S
C361 H362 0.959 . S
C361 H363 0.960 . S
C361 H364 0.961 . S
H362 C361 0.959 . S
H363 C361 0.960 . S
H364 C361 0.961 . S
O365 Co340 1.967 . S
O365 C373 1.258 . S
O366 Co341 1.941 . S
O366 C373 1.266 . S
H367 C369 0.959 . S
H368 C369 0.961 . S
C369 C359 1.510 . S
C369 H367 0.959 . S
C369 H368 0.961 . S
C369 H370 0.960 . S
H370 C369 0.960 . S
H371 N351 0.862 . S
O372 Co340 1.920 . S
O372 C345 1.289 . S
C373 O365 1.258 . S
C373 O366 1.266 . S
Co374 O377 1.970 . S
Co374 N391 1.989 . S
Co374 O399 1.967 . S
Co374 O406 1.920 . S
Co375 O378 1.966 . S
Co375 N384 2.022 . S
Co375 N392 1.993 . S
Co375 O400 1.941 . S
C376 O377 1.258 . S
C376 O378 1.263 . S
O377 Co374 1.970 . S
O377 C376 1.258 . S
O378 Co375 1.966 . S
O378 C376 1.263 . S
C379 O380 1.235 . S
C379 O406 1.289 . S
O380 C379 1.235 . S
C381 C383 1.400 1_554 S
C381 N384 1.351 . S
C381 C386 1.501 . S
C382 C383 1.387 . S
C382 N385 1.341 1_556 S
C383 C381 1.400 1_556 S
C383 C382 1.387 . S
N384 Co375 2.022 . S
N384 C381 1.351 . S
N384 N385 1.365 . S
N385 C382 1.341 1_554 S
N385 N384 1.365 . S
N385 H405 0.862 . S
C386 C381 1.501 . S
C386 H387 0.961 . S
C386 H388 0.961 . S
C386 H389 0.960 1_554 S
H387 C386 0.961 . S
H388 C386 0.961 . S
H389 C386 0.960 1_556 S
C390 N391 1.342 . S
C390 C394 1.401 . S
C390 C395 1.499 . S
N391 Co374 1.989 . S
N391 C390 1.342 . S
N391 N392 1.388 . S
N392 Co375 1.993 . S
N392 N391 1.388 . S
N392 C393 1.346 . S
C393 N392 1.346 . S
C393 C394 1.396 . S
C393 C403 1.510 . S
C394 C390 1.401 . S
C394 C393 1.396 . S
C395 C390 1.499 . S
C395 H396 0.959 . S
C395 H397 0.960 . S
C395 H398 0.961 . S
H396 C395 0.959 . S
H397 C395 0.960 . S
H398 C395 0.961 . S
O399 Co374 1.967 . S
O399 C407 1.258 . S
O400 Co375 1.941 . S
O400 C407 1.266 . S
H401 C403 0.959 . S
H402 C403 0.961 . S
C403 C393 1.510 . S
C403 H401 0.959 . S
C403 H402 0.961 . S
C403 H404 0.960 . S
H404 C403 0.960 . S
H405 N385 0.862 . S
O406 Co374 1.920 . S
O406 C379 1.289 . S
C407 O399 1.258 . S
C407 O400 1.266 . S
Co408 O411 1.970 . S
Co408 N425 1.989 . S
Co408 O433 1.967 . S
Co408 O440 1.920 . S
Co409 O412 1.966 . S
Co409 N418 2.022 . S
Co409 N426 1.993 . S
Co409 O434 1.941 . S
C410 O411 1.258 . S
C410 O412 1.263 . S
O411 Co408 1.970 . S
O411 C410 1.258 . S
O412 Co409 1.966 . S
O412 C410 1.263 . S
C413 O414 1.235 . S
C413 O440 1.289 . S
O414 C413 1.235 . S
C415 C417 1.400 . S
C415 N418 1.351 . S
C415 C420 1.501 . S
C416 C417 1.387 . S
C416 N419 1.341 . S
C417 C415 1.400 . S
C417 C416 1.387 . S
N418 Co409 2.022 . S
N418 C415 1.351 . S
N418 N419 1.365 . S
N419 C416 1.341 . S
N419 N418 1.365 . S
N419 H439 0.862 . S
C420 C415 1.501 . S
C420 H421 0.961 . S
C420 H422 0.961 . S
C420 H423 0.960 . S
H421 C420 0.961 . S
H422 C420 0.961 . S
H423 C420 0.960 . S
C424 N425 1.342 . S
C424 C428 1.401 . S
C424 C429 1.499 . S
N425 Co408 1.989 . S
N425 C424 1.342 . S
N425 N426 1.388 . S
N426 Co409 1.993 . S
N426 N425 1.388 . S
N426 C427 1.346 . S
C427 N426 1.346 . S
C427 C428 1.396 . S
C427 C437 1.510 . S
C428 C424 1.401 . S
C428 C427 1.396 . S
C429 C424 1.499 . S
C429 H430 0.959 . S
C429 H431 0.960 . S
C429 H432 0.961 . S
H430 C429 0.959 . S
H431 C429 0.960 . S
H432 C429 0.961 . S
O433 Co408 1.967 . S
O433 C441 1.258 . S
O434 Co409 1.941 . S
O434 C441 1.266 . S
H435 C437 0.959 . S
H436 C437 0.961 . S
C437 C427 1.510 . S
C437 H435 0.959 . S
C437 H436 0.961 . S
C437 H438 0.960 . S
H438 C437 0.960 . S
H439 N419 0.862 . S
O440 Co408 1.920 . S
O440 C413 1.289 . S
C441 O433 1.258 . S
C441 O434 1.266 . S
Co442 O445 1.970 . S
Co442 N459 1.989 . S
Co442 O467 1.967 . S
Co442 O474 1.920 . S
Co443 O446 1.966 . S
Co443 N452 2.022 . S
Co443 N460 1.993 . S
Co443 O468 1.941 . S
C444 O445 1.258 . S
C444 O446 1.263 . S
O445 Co442 1.970 . S
O445 C444 1.258 . S
O446 Co443 1.966 . S
O446 C444 1.263 . S
C447 O448 1.235 . S
C447 O474 1.289 . S
O448 C447 1.235 . S
C449 C451 1.400 . S
C449 N452 1.351 . S
C449 C454 1.501 . S
C450 C451 1.387 . S
C450 N453 1.341 . S
C451 C449 1.400 . S
C451 C450 1.387 . S
N452 Co443 2.022 . S
N452 C449 1.351 . S
N452 N453 1.365 . S
N453 C450 1.341 . S
N453 N452 1.365 . S
N453 H473 0.862 . S
C454 C449 1.501 . S
C454 H455 0.961 . S
C454 H456 0.961 . S
C454 H457 0.960 . S
H455 C454 0.961 . S
H456 C454 0.961 . S
H457 C454 0.960 . S
C458 N459 1.342 . S
C458 C462 1.401 . S
C458 C463 1.499 . S
N459 Co442 1.989 . S
N459 C458 1.342 . S
N459 N460 1.388 . S
N460 Co443 1.993 . S
N460 N459 1.388 . S
N460 C461 1.346 . S
C461 N460 1.346 . S
C461 C462 1.396 . S
C461 C471 1.510 . S
C462 C458 1.401 . S
C462 C461 1.396 . S
C463 C458 1.499 . S
C463 H464 0.959 . S
C463 H465 0.960 . S
C463 H466 0.961 . S
H464 C463 0.959 . S
H465 C463 0.960 . S
H466 C463 0.961 . S
O467 Co442 1.967 . S
O467 C475 1.258 . S
O468 Co443 1.941 . S
O468 C475 1.266 . S
H469 C471 0.959 . S
H470 C471 0.961 . S
C471 C461 1.510 . S
C471 H469 0.959 . S
C471 H470 0.961 . S
C471 H472 0.960 . S
H472 C471 0.960 . S
H473 N453 0.862 . S
O474 Co442 1.920 . S
O474 C447 1.289 . S
C475 O467 1.258 . S
C475 O468 1.266 . S
Co476 O479 1.970 . S
Co476 N493 1.989 . S
Co476 O501 1.967 . S
Co476 O508 1.920 . S
Co477 O480 1.966 . S
Co477 N486 2.022 . S
Co477 N494 1.993 . S
Co477 O502 1.941 . S
C478 O479 1.258 . S
C478 O480 1.263 . S
O479 Co476 1.970 . S
O479 C478 1.258 . S
O480 Co477 1.966 . S
O480 C478 1.263 . S
C481 O482 1.235 . S
C481 O508 1.289 . S
O482 C481 1.235 . S
C483 C485 1.400 . S
C483 N486 1.351 . S
C483 C488 1.501 . S
C484 C485 1.387 . S
C484 N487 1.341 . S
C485 C483 1.400 . S
C485 C484 1.387 . S
N486 Co477 2.022 . S
N486 C483 1.351 . S
N486 N487 1.365 . S
N487 C484 1.341 . S
N487 N486 1.365 . S
N487 H507 0.862 . S
C488 C483 1.501 . S
C488 H489 0.961 . S
C488 H490 0.961 . S
C488 H491 0.960 . S
H489 C488 0.961 . S
H490 C488 0.961 . S
H491 C488 0.960 . S
C492 N493 1.342 . S
C492 C496 1.401 . S
C492 C497 1.499 . S
N493 Co476 1.989 . S
N493 C492 1.342 . S
N493 N494 1.388 . S
N494 Co477 1.993 . S
N494 N493 1.388 . S
N494 C495 1.346 . S
C495 N494 1.346 . S
C495 C496 1.396 . S
C495 C505 1.510 . S
C496 C492 1.401 . S
C496 C495 1.396 . S
C497 C492 1.499 . S
C497 H498 0.959 . S
C497 H499 0.960 . S
C497 H500 0.961 . S
H498 C497 0.959 . S
H499 C497 0.960 . S
H500 C497 0.961 . S
O501 Co476 1.967 . S
O501 C509 1.258 . S
O502 Co477 1.941 . S
O502 C509 1.266 . S
H503 C505 0.959 . S
H504 C505 0.961 . S
C505 C495 1.510 . S
C505 H503 0.959 . S
C505 H504 0.961 . S
C505 H506 0.960 . S
H506 C505 0.960 . S
H507 N487 0.862 . S
O508 Co476 1.920 . S
O508 C481 1.289 . S
C509 O501 1.258 . S
C509 O502 1.266 . S
Co510 O513 1.970 . S
Co510 N527 1.989 . S
Co510 O535 1.967 . S
Co510 O542 1.920 1_554 S
Co511 O514 1.966 . S
Co511 N520 2.022 . S
Co511 N528 1.993 . S
Co511 O536 1.941 . S
C512 O513 1.258 . S
C512 O514 1.263 . S
O513 Co510 1.970 . S
O513 C512 1.258 . S
O514 Co511 1.966 . S
O514 C512 1.263 . S
C515 O516 1.235 . S
C515 O542 1.289 . S
O516 C515 1.235 . S
C517 C519 1.400 . S
C517 N520 1.351 . S
C517 C522 1.501 . S
C518 C519 1.387 . S
C518 N521 1.341 . S
C519 C517 1.400 . S
C519 C518 1.387 . S
N520 Co511 2.022 . S
N520 C517 1.351 . S
N520 N521 1.365 . S
N521 C518 1.341 . S
N521 N520 1.365 . S
N521 H541 0.862 . S
C522 C517 1.501 . S
C522 H523 0.961 . S
C522 H524 0.961 . S
C522 H525 0.960 . S
H523 C522 0.961 . S
H524 C522 0.961 . S
H525 C522 0.960 . S
C526 N527 1.342 . S
C526 C530 1.401 . S
C526 C531 1.499 1_554 S
N527 Co510 1.989 . S
N527 C526 1.342 . S
N527 N528 1.388 . S
N528 Co511 1.993 . S
N528 N527 1.388 . S
N528 C529 1.346 . S
C529 N528 1.346 . S
C529 C530 1.396 . S
C529 C539 1.510 . S
C530 C526 1.401 . S
C530 C529 1.396 . S
C531 C526 1.499 1_556 S
C531 H532 0.959 . S
C531 H533 0.960 . S
C531 H534 0.961 . S
H532 C531 0.959 . S
H533 C531 0.960 . S
H534 C531 0.961 . S
O535 Co510 1.967 . S
O535 C543 1.258 . S
O536 Co511 1.941 . S
O536 C543 1.266 . S
H537 C539 0.959 . S
H538 C539 0.961 . S
C539 C529 1.510 . S
C539 H537 0.959 . S
C539 H538 0.961 . S
C539 H540 0.960 . S
H540 C539 0.960 . S
H541 N521 0.862 . S
O542 Co510 1.920 1_556 S
O542 C515 1.289 . S
C543 O535 1.258 . S
C543 O536 1.266 . S
Co544 O547 1.970 . S
Co544 N561 1.989 . S
Co544 O569 1.967 . S
Co544 O576 1.920 1_554 S
Co545 O548 1.966 . S
Co545 N554 2.022 . S
Co545 N562 1.993 . S
Co545 O570 1.941 . S
C546 O547 1.258 . S
C546 O548 1.263 . S
O547 Co544 1.970 . S
O547 C546 1.258 . S
O548 Co545 1.966 . S
O548 C546 1.263 . S
C549 O550 1.235 . S
C549 O576 1.289 . S
O550 C549 1.235 . S
C551 C553 1.400 . S
C551 N554 1.351 . S
C551 C556 1.501 . S
C552 C553 1.387 . S
C552 N555 1.341 . S
C553 C551 1.400 . S
C553 C552 1.387 . S
N554 Co545 2.022 . S
N554 C551 1.351 . S
N554 N555 1.365 . S
N555 C552 1.341 . S
N555 N554 1.365 . S
N555 H575 0.862 . S
C556 C551 1.501 . S
C556 H557 0.961 . S
C556 H558 0.961 . S
C556 H559 0.960 . S
H557 C556 0.961 . S
H558 C556 0.961 . S
H559 C556 0.960 . S
C560 N561 1.342 . S
C560 C564 1.401 . S
C560 C565 1.499 1_554 S
N561 Co544 1.989 . S
N561 C560 1.342 . S
N561 N562 1.388 . S
N562 Co545 1.993 . S
N562 N561 1.388 . S
N562 C563 1.346 . S
C563 N562 1.346 . S
C563 C564 1.396 . S
C563 C573 1.510 . S
C564 C560 1.401 . S
C564 C563 1.396 . S
C565 C560 1.499 1_556 S
C565 H566 0.959 . S
C565 H567 0.960 . S
C565 H568 0.961 . S
H566 C565 0.959 . S
H567 C565 0.960 . S
H568 C565 0.961 . S
O569 Co544 1.967 . S
O569 C577 1.258 . S
O570 Co545 1.941 . S
O570 C577 1.266 . S
H571 C573 0.959 . S
H572 C573 0.961 . S
C573 C563 1.510 . S
C573 H571 0.959 . S
C573 H572 0.961 . S
C573 H574 0.960 . S
H574 C573 0.960 . S
H575 N555 0.862 . S
O576 Co544 1.920 1_556 S
O576 C549 1.289 . S
C577 O569 1.258 . S
C577 O570 1.266 . S
Co578 O581 1.970 . S
Co578 N595 1.989 . S
Co578 O603 1.967 . S
Co578 O610 1.920 1_554 S
Co579 O582 1.966 . S
Co579 N588 2.022 . S
Co579 N596 1.993 . S
Co579 O604 1.941 . S
C580 O581 1.258 . S
C580 O582 1.263 . S
O581 Co578 1.970 . S
O581 C580 1.258 . S
O582 Co579 1.966 . S
O582 C580 1.263 . S
C583 O584 1.235 . S
C583 O610 1.289 . S
O584 C583 1.235 . S
C585 C587 1.400 . S
C585 N588 1.351 . S
C585 C590 1.501 . S
C586 C587 1.387 . S
C586 N589 1.341 . S
C587 C585 1.400 . S
C587 C586 1.387 . S
N588 Co579 2.022 . S
N588 C585 1.351 . S
N588 N589 1.365 . S
N589 C586 1.341 . S
N589 N588 1.365 . S
N589 H609 0.862 . S
C590 C585 1.501 . S
C590 H591 0.961 . S
C590 H592 0.961 . S
C590 H593 0.960 . S
H591 C590 0.961 . S
H592 C590 0.961 . S
H593 C590 0.960 . S
C594 N595 1.342 . S
C594 C598 1.401 . S
C594 C599 1.499 1_554 S
N595 Co578 1.989 . S
N595 C594 1.342 . S
N595 N596 1.388 . S
N596 Co579 1.993 . S
N596 N595 1.388 . S
N596 C597 1.346 . S
C597 N596 1.346 . S
C597 C598 1.396 . S
C597 C607 1.510 . S
C598 C594 1.401 . S
C598 C597 1.396 . S
C599 C594 1.499 1_556 S
C599 H600 0.959 . S
C599 H601 0.960 . S
C599 H602 0.961 . S
H600 C599 0.959 . S
H601 C599 0.960 . S
H602 C599 0.961 . S
O603 Co578 1.967 . S
O603 C611 1.258 . S
O604 Co579 1.941 . S
O604 C611 1.266 . S
H605 C607 0.959 . S
H606 C607 0.961 . S
C607 C597 1.510 . S
C607 H605 0.959 . S
C607 H606 0.961 . S
C607 H608 0.960 . S
H608 C607 0.960 . S
H609 N589 0.862 . S
O610 Co578 1.920 1_556 S
O610 C583 1.289 . S
C611 O603 1.258 . S
C611 O604 1.266 . S
Co612 O615 1.970 . S
Co612 N629 1.989 . S
Co612 O637 1.967 . S
Co612 O644 1.920 1_554 S
Co613 O616 1.966 . S
Co613 N622 2.022 . S
Co613 N630 1.993 . S
Co613 O638 1.941 . S
C614 O615 1.258 . S
C614 O616 1.263 . S
O615 Co612 1.970 . S
O615 C614 1.258 . S
O616 Co613 1.966 . S
O616 C614 1.263 . S
C617 O618 1.235 . S
C617 O644 1.289 . S
O618 C617 1.235 . S
C619 C621 1.400 . S
C619 N622 1.351 . S
C619 C624 1.501 . S
C620 C621 1.387 . S
C620 N623 1.341 . S
C621 C619 1.400 . S
C621 C620 1.387 . S
N622 Co613 2.022 . S
N622 C619 1.351 . S
N622 N623 1.365 . S
N623 C620 1.341 . S
N623 N622 1.365 . S
N623 H643 0.862 . S
C624 C619 1.501 . S
C624 H625 0.961 . S
C624 H626 0.961 . S
C624 H627 0.960 . S
H625 C624 0.961 . S
H626 C624 0.961 . S
H627 C624 0.960 . S
C628 N629 1.342 . S
C628 C632 1.401 . S
C628 C633 1.499 1_554 S
N629 Co612 1.989 . S
N629 C628 1.342 . S
N629 N630 1.388 . S
N630 Co613 1.993 . S
N630 N629 1.388 . S
N630 C631 1.346 . S
C631 N630 1.346 . S
C631 C632 1.396 . S
C631 C641 1.510 . S
C632 C628 1.401 . S
C632 C631 1.396 . S
C633 C628 1.499 1_556 S
C633 H634 0.959 . S
C633 H635 0.960 . S
C633 H636 0.961 . S
H634 C633 0.959 . S
H635 C633 0.960 . S
H636 C633 0.961 . S
O637 Co612 1.967 . S
O637 C645 1.258 . S
O638 Co613 1.941 . S
O638 C645 1.266 . S
H639 C641 0.959 . S
H640 C641 0.961 . S
C641 C631 1.510 . S
C641 H639 0.959 . S
C641 H640 0.961 . S
C641 H642 0.960 . S
H642 C641 0.960 . S
H643 N623 0.862 . S
O644 Co612 1.920 1_556 S
O644 C617 1.289 . S
C645 O637 1.258 . S
C645 O638 1.266 . S
Co646 O649 1.970 . S
Co646 N663 1.989 . S
Co646 O671 1.967 . S
Co646 O678 1.920 1_554 S
Co647 O650 1.966 . S
Co647 N656 2.022 . S
Co647 N664 1.993 . S
Co647 O672 1.941 . S
C648 O649 1.258 . S
C648 O650 1.263 . S
O649 Co646 1.970 . S
O649 C648 1.258 . S
O650 Co647 1.966 . S
O650 C648 1.263 . S
C651 O652 1.235 . S
C651 O678 1.289 . S
O652 C651 1.235 . S
C653 C655 1.400 . S
C653 N656 1.351 . S
C653 C658 1.501 . S
C654 C655 1.387 . S
C654 N657 1.341 . S
C655 C653 1.400 . S
C655 C654 1.387 . S
N656 Co647 2.022 . S
N656 C653 1.351 . S
N656 N657 1.365 . S
N657 C654 1.341 . S
N657 N656 1.365 . S
N657 H677 0.862 . S
C658 C653 1.501 . S
C658 H659 0.961 . S
C658 H660 0.961 . S
C658 H661 0.960 . S
H659 C658 0.961 . S
H660 C658 0.961 . S
H661 C658 0.960 . S
C662 N663 1.342 . S
C662 C666 1.401 . S
C662 C667 1.499 1_554 S
N663 Co646 1.989 . S
N663 C662 1.342 . S
N663 N664 1.388 . S
N664 Co647 1.993 . S
N664 N663 1.388 . S
N664 C665 1.346 . S
C665 N664 1.346 . S
C665 C666 1.396 . S
C665 C675 1.510 . S
C666 C662 1.401 . S
C666 C665 1.396 . S
C667 C662 1.499 1_556 S
C667 H668 0.959 . S
C667 H669 0.960 . S
C667 H670 0.961 . S
H668 C667 0.959 . S
H669 C667 0.960 . S
H670 C667 0.961 . S
O671 Co646 1.967 . S
O671 C679 1.258 . S
O672 Co647 1.941 . S
O672 C679 1.266 . S
H673 C675 0.959 . S
H674 C675 0.961 . S
C675 C665 1.510 . S
C675 H673 0.959 . S
C675 H674 0.961 . S
C675 H676 0.960 . S
H676 C675 0.960 . S
H677 N657 0.862 . S
O678 Co646 1.920 1_556 S
O678 C651 1.289 . S
C679 O671 1.258 . S
C679 O672 1.266 . S
Co680 O683 1.970 . S
Co680 N697 1.989 . S
Co680 O705 1.967 . S
Co680 O712 1.920 1_554 S
Co681 O684 1.966 . S
Co681 N690 2.022 . S
Co681 N698 1.993 . S
Co681 O706 1.941 . S
C682 O683 1.258 . S
C682 O684 1.263 . S
O683 Co680 1.970 . S
O683 C682 1.258 . S
O684 Co681 1.966 . S
O684 C682 1.263 . S
C685 O686 1.235 . S
C685 O712 1.289 . S
O686 C685 1.235 . S
C687 C689 1.400 . S
C687 N690 1.351 . S
C687 C692 1.501 . S
C688 C689 1.387 . S
C688 N691 1.341 . S
C689 C687 1.400 . S
C689 C688 1.387 . S
N690 Co681 2.022 . S
N690 C687 1.351 . S
N690 N691 1.365 . S
N691 C688 1.341 . S
N691 N690 1.365 . S
N691 H711 0.862 . S
C692 C687 1.501 . S
C692 H693 0.961 . S
C692 H694 0.961 . S
C692 H695 0.960 . S
H693 C692 0.961 . S
H694 C692 0.961 . S
H695 C692 0.960 . S
C696 N697 1.342 . S
C696 C700 1.401 . S
C696 C701 1.499 1_554 S
N697 Co680 1.989 . S
N697 C696 1.342 . S
N697 N698 1.388 . S
N698 Co681 1.993 . S
N698 N697 1.388 . S
N698 C699 1.346 . S
C699 N698 1.346 . S
C699 C700 1.396 . S
C699 C709 1.510 . S
C700 C696 1.401 . S
C700 C699 1.396 . S
C701 C696 1.499 1_556 S
C701 H702 0.959 . S
C701 H703 0.960 . S
C701 H704 0.961 . S
H702 C701 0.959 . S
H703 C701 0.960 . S
H704 C701 0.961 . S
O705 Co680 1.967 . S
O705 C713 1.258 . S
O706 Co681 1.941 . S
O706 C713 1.266 . S
H707 C709 0.959 . S
H708 C709 0.961 . S
C709 C699 1.510 . S
C709 H707 0.959 . S
C709 H708 0.961 . S
C709 H710 0.960 . S
H710 C709 0.960 . S
H711 N691 0.862 . S
O712 Co680 1.920 1_556 S
O712 C685 1.289 . S
C713 O705 1.258 . S
C713 O706 1.266 . S
Co714 O717 1.970 . S
Co714 N731 1.989 . S
Co714 O739 1.967 . S
Co714 O746 1.920 . S
Co715 O718 1.966 . S
Co715 N724 2.022 . S
Co715 N732 1.993 . S
Co715 O740 1.941 . S
C716 O717 1.258 . S
C716 O718 1.263 . S
O717 Co714 1.970 . S
O717 C716 1.258 . S
O718 Co715 1.966 . S
O718 C716 1.263 . S
C719 O720 1.235 . S
C719 O746 1.289 . S
O720 C719 1.235 . S
C721 C723 1.400 . S
C721 N724 1.351 . S
C721 C726 1.501 . S
C722 C723 1.387 . S
C722 N725 1.341 . S
C723 C721 1.400 . S
C723 C722 1.387 . S
N724 Co715 2.022 . S
N724 C721 1.351 . S
N724 N725 1.365 . S
N725 C722 1.341 . S
N725 N724 1.365 . S
N725 H745 0.862 . S
C726 C721 1.501 . S
C726 H727 0.961 . S
C726 H728 0.961 . S
C726 H729 0.960 . S
H727 C726 0.961 . S
H728 C726 0.961 . S
H729 C726 0.960 . S
C730 N731 1.342 . S
C730 C734 1.401 . S
C730 C735 1.499 . S
N731 Co714 1.989 . S
N731 C730 1.342 . S
N731 N732 1.388 . S
N732 Co715 1.993 . S
N732 N731 1.388 . S
N732 C733 1.346 . S
C733 N732 1.346 . S
C733 C734 1.396 . S
C733 C743 1.510 . S
C734 C730 1.401 . S
C734 C733 1.396 . S
C735 C730 1.499 . S
C735 H736 0.959 . S
C735 H737 0.960 . S
C735 H738 0.961 . S
H736 C735 0.959 . S
H737 C735 0.960 . S
H738 C735 0.961 . S
O739 Co714 1.967 . S
O739 C747 1.258 . S
O740 Co715 1.941 . S
O740 C747 1.266 . S
H741 C743 0.959 . S
H742 C743 0.961 . S
C743 C733 1.510 . S
C743 H741 0.959 . S
C743 H742 0.961 . S
C743 H744 0.960 . S
H744 C743 0.960 . S
H745 N725 0.862 . S
O746 Co714 1.920 . S
O746 C719 1.289 . S
C747 O739 1.258 . S
C747 O740 1.266 . S
Co748 O751 1.970 . S
Co748 N765 1.989 . S
Co748 O773 1.967 . S
Co748 O780 1.920 . S
Co749 O752 1.966 . S
Co749 N758 2.022 . S
Co749 N766 1.993 . S
Co749 O774 1.941 . S
C750 O751 1.258 . S
C750 O752 1.263 . S
O751 Co748 1.970 . S
O751 C750 1.258 . S
O752 Co749 1.966 . S
O752 C750 1.263 . S
C753 O754 1.235 . S
C753 O780 1.289 . S
O754 C753 1.235 . S
C755 C757 1.400 . S
C755 N758 1.351 . S
C755 C760 1.501 . S
C756 C757 1.387 . S
C756 N759 1.341 . S
C757 C755 1.400 . S
C757 C756 1.387 . S
N758 Co749 2.022 . S
N758 C755 1.351 . S
N758 N759 1.365 . S
N759 C756 1.341 . S
N759 N758 1.365 . S
N759 H779 0.862 . S
C760 C755 1.501 . S
C760 H761 0.961 . S
C760 H762 0.961 . S
C760 H763 0.960 . S
H761 C760 0.961 . S
H762 C760 0.961 . S
H763 C760 0.960 . S
C764 N765 1.342 . S
C764 C768 1.401 . S
C764 C769 1.499 . S
N765 Co748 1.989 . S
N765 C764 1.342 . S
N765 N766 1.388 . S
N766 Co749 1.993 . S
N766 N765 1.388 . S
N766 C767 1.346 . S
C767 N766 1.346 . S
C767 C768 1.396 . S
C767 C777 1.510 . S
C768 C764 1.401 . S
C768 C767 1.396 . S
C769 C764 1.499 . S
C769 H770 0.959 . S
C769 H771 0.960 . S
C769 H772 0.961 . S
H770 C769 0.959 . S
H771 C769 0.960 . S
H772 C769 0.961 . S
O773 Co748 1.967 . S
O773 C781 1.258 . S
O774 Co749 1.941 . S
O774 C781 1.266 . S
H775 C777 0.959 . S
H776 C777 0.961 . S
C777 C767 1.510 . S
C777 H775 0.959 . S
C777 H776 0.961 . S
C777 H778 0.960 . S
H778 C777 0.960 . S
H779 N759 0.862 . S
O780 Co748 1.920 . S
O780 C753 1.289 . S
C781 O773 1.258 . S
C781 O774 1.266 . S
Co782 O785 1.970 . S
Co782 N799 1.989 . S
Co782 O807 1.967 . S
Co782 O814 1.920 . S
Co783 O786 1.966 . S
Co783 N792 2.022 . S
Co783 N800 1.993 . S
Co783 O808 1.941 . S
C784 O785 1.258 . S
C784 O786 1.263 . S
O785 Co782 1.970 . S
O785 C784 1.258 . S
O786 Co783 1.966 . S
O786 C784 1.263 . S
C787 O788 1.235 . S
C787 O814 1.289 . S
O788 C787 1.235 . S
C789 C791 1.400 . S
C789 N792 1.351 . S
C789 C794 1.501 . S
C790 C791 1.387 . S
C790 N793 1.341 . S
C791 C789 1.400 . S
C791 C790 1.387 . S
N792 Co783 2.022 . S
N792 C789 1.351 . S
N792 N793 1.365 . S
N793 C790 1.341 . S
N793 N792 1.365 . S
N793 H813 0.862 . S
C794 C789 1.501 . S
C794 H795 0.961 . S
C794 H796 0.961 . S
C794 H797 0.960 . S
H795 C794 0.961 . S
H796 C794 0.961 . S
H797 C794 0.960 . S
C798 N799 1.342 . S
C798 C802 1.401 . S
C798 C803 1.499 . S
N799 Co782 1.989 . S
N799 C798 1.342 . S
N799 N800 1.388 . S
N800 Co783 1.993 . S
N800 N799 1.388 . S
N800 C801 1.346 . S
C801 N800 1.346 . S
C801 C802 1.396 . S
C801 C811 1.510 . S
C802 C798 1.401 . S
C802 C801 1.396 . S
C803 C798 1.499 . S
C803 H804 0.959 . S
C803 H805 0.960 . S
C803 H806 0.961 . S
H804 C803 0.959 . S
H805 C803 0.960 . S
H806 C803 0.961 . S
O807 Co782 1.967 . S
O807 C815 1.258 . S
O808 Co783 1.941 . S
O808 C815 1.266 . S
H809 C811 0.959 . S
H810 C811 0.961 . S
C811 C801 1.510 . S
C811 H809 0.959 . S
C811 H810 0.961 . S
C811 H812 0.960 . S
H812 C811 0.960 . S
H813 N793 0.862 . S
O814 Co782 1.920 . S
O814 C787 1.289 . S
C815 O807 1.258 . S
C815 O808 1.266 . S
Co816 O819 1.970 . S
Co816 N833 1.989 . S
Co816 O841 1.967 . S
Co816 O848 1.920 1_556 S
Co817 O820 1.966 . S
Co817 N826 2.022 . S
Co817 N834 1.993 . S
Co817 O842 1.941 . S
C818 O819 1.258 . S
C818 O820 1.263 . S
O819 Co816 1.970 . S
O819 C818 1.258 . S
O820 Co817 1.966 . S
O820 C818 1.263 . S
C821 O822 1.235 . S
C821 O848 1.289 . S
O822 C821 1.235 . S
C823 C825 1.400 . S
C823 N826 1.351 . S
C823 C828 1.501 . S
C824 C825 1.387 . S
C824 N827 1.341 . S
C825 C823 1.400 . S
C825 C824 1.387 . S
N826 Co817 2.022 . S
N826 C823 1.351 . S
N826 N827 1.365 . S
N827 C824 1.341 . S
N827 N826 1.365 . S
N827 H847 0.862 . S
C828 C823 1.501 . S
C828 H829 0.961 . S
C828 H830 0.961 . S
C828 H831 0.960 . S
H829 C828 0.961 . S
H830 C828 0.961 . S
H831 C828 0.960 . S
C832 N833 1.342 . S
C832 C836 1.401 . S
C832 C837 1.499 1_556 S
N833 Co816 1.989 . S
N833 C832 1.342 . S
N833 N834 1.388 . S
N834 Co817 1.993 . S
N834 N833 1.388 . S
N834 C835 1.346 . S
C835 N834 1.346 . S
C835 C836 1.396 . S
C835 C845 1.510 . S
C836 C832 1.401 . S
C836 C835 1.396 . S
C837 C832 1.499 1_554 S
C837 H838 0.959 . S
C837 H839 0.960 . S
C837 H840 0.961 . S
H838 C837 0.959 . S
H839 C837 0.960 . S
H840 C837 0.961 . S
O841 Co816 1.967 . S
O841 C849 1.258 . S
O842 Co817 1.941 . S
O842 C849 1.266 . S
H843 C845 0.959 . S
H844 C845 0.961 . S
C845 C835 1.510 . S
C845 H843 0.959 . S
C845 H844 0.961 . S
C845 H846 0.960 . S
H846 C845 0.960 . S
H847 N827 0.862 . S
O848 Co816 1.920 1_554 S
O848 C821 1.289 . S
C849 O841 1.258 . S
C849 O842 1.266 . S
Co850 O853 1.970 . S
Co850 N867 1.989 . S
Co850 O875 1.967 . S
Co850 O882 1.920 1_556 S
Co851 O854 1.966 . S
Co851 N860 2.022 . S
Co851 N868 1.993 . S
Co851 O876 1.941 . S
C852 O853 1.258 . S
C852 O854 1.263 . S
O853 Co850 1.970 . S
O853 C852 1.258 . S
O854 Co851 1.966 . S
O854 C852 1.263 . S
C855 O856 1.235 . S
C855 O882 1.289 . S
O856 C855 1.235 . S
C857 C859 1.400 . S
C857 N860 1.351 . S
C857 C862 1.501 . S
C858 C859 1.387 . S
C858 N861 1.341 . S
C859 C857 1.400 . S
C859 C858 1.387 . S
N860 Co851 2.022 . S
N860 C857 1.351 . S
N860 N861 1.365 . S
N861 C858 1.341 . S
N861 N860 1.365 . S
N861 H881 0.862 . S
C862 C857 1.501 . S
C862 H863 0.961 . S
C862 H864 0.961 . S
C862 H865 0.960 . S
H863 C862 0.961 . S
H864 C862 0.961 . S
H865 C862 0.960 . S
C866 N867 1.342 . S
C866 C870 1.401 . S
C866 C871 1.499 1_556 S
N867 Co850 1.989 . S
N867 C866 1.342 . S
N867 N868 1.388 . S
N868 Co851 1.993 . S
N868 N867 1.388 . S
N868 C869 1.346 . S
C869 N868 1.346 . S
C869 C870 1.396 . S
C869 C879 1.510 . S
C870 C866 1.401 . S
C870 C869 1.396 . S
C871 C866 1.499 1_554 S
C871 H872 0.959 . S
C871 H873 0.960 . S
C871 H874 0.961 . S
H872 C871 0.959 . S
H873 C871 0.960 . S
H874 C871 0.961 . S
O875 Co850 1.967 . S
O875 C883 1.258 . S
O876 Co851 1.941 . S
O876 C883 1.266 . S
H877 C879 0.959 . S
H878 C879 0.961 . S
C879 C869 1.510 . S
C879 H877 0.959 . S
C879 H878 0.961 . S
C879 H880 0.960 . S
H880 C879 0.960 . S
H881 N861 0.862 . S
O882 Co850 1.920 1_554 S
O882 C855 1.289 . S
C883 O875 1.258 . S
C883 O876 1.266 . S
Co884 O887 1.970 . S
Co884 N901 1.989 . S
Co884 O909 1.967 . S
Co884 O916 1.920 1_556 S
Co885 O888 1.966 . S
Co885 N894 2.022 . S
Co885 N902 1.993 . S
Co885 O910 1.941 . S
C886 O887 1.258 . S
C886 O888 1.263 . S
O887 Co884 1.970 . S
O887 C886 1.258 . S
O888 Co885 1.966 . S
O888 C886 1.263 . S
C889 O890 1.235 . S
C889 O916 1.289 . S
O890 C889 1.235 . S
C891 C893 1.400 . S
C891 N894 1.351 . S
C891 C896 1.501 . S
C892 C893 1.387 . S
C892 N895 1.341 . S
C893 C891 1.400 . S
C893 C892 1.387 . S
N894 Co885 2.022 . S
N894 C891 1.351 . S
N894 N895 1.365 . S
N895 C892 1.341 . S
N895 N894 1.365 . S
N895 H915 0.862 . S
C896 C891 1.501 . S
C896 H897 0.961 . S
C896 H898 0.961 . S
C896 H899 0.960 . S
H897 C896 0.961 . S
H898 C896 0.961 . S
H899 C896 0.960 . S
C900 N901 1.342 . S
C900 C904 1.401 . S
C900 C905 1.499 1_556 S
N901 Co884 1.989 . S
N901 C900 1.342 . S
N901 N902 1.388 . S
N902 Co885 1.993 . S
N902 N901 1.388 . S
N902 C903 1.346 . S
C903 N902 1.346 . S
C903 C904 1.396 . S
C903 C913 1.510 . S
C904 C900 1.401 . S
C904 C903 1.396 . S
C905 C900 1.499 1_554 S
C905 H906 0.959 . S
C905 H907 0.960 . S
C905 H908 0.961 . S
H906 C905 0.959 . S
H907 C905 0.960 . S
H908 C905 0.961 . S
O909 Co884 1.967 . S
O909 C917 1.258 . S
O910 Co885 1.941 . S
O910 C917 1.266 . S
H911 C913 0.959 . S
H912 C913 0.961 . S
C913 C903 1.510 . S
C913 H911 0.959 . S
C913 H912 0.961 . S
C913 H914 0.960 . S
H914 C913 0.960 . S
H915 N895 0.862 . S
O916 Co884 1.920 1_554 S
O916 C889 1.289 . S
C917 O909 1.258 . S
C917 O910 1.266 . S
Co918 O921 1.970 . S
Co918 N935 1.989 . S
Co918 O943 1.967 . S
Co918 O950 1.920 . S
Co919 O922 1.966 . S
Co919 N928 2.022 . S
Co919 N936 1.993 . S
Co919 O944 1.941 . S
C920 O921 1.258 . S
C920 O922 1.263 . S
O921 Co918 1.970 . S
O921 C920 1.258 . S
O922 Co919 1.966 . S
O922 C920 1.263 . S
C923 O924 1.235 . S
C923 O950 1.289 . S
O924 C923 1.235 . S
C925 C927 1.400 . S
C925 N928 1.351 . S
C925 C930 1.501 . S
C926 C927 1.387 . S
C926 N929 1.341 . S
C927 C925 1.400 . S
C927 C926 1.387 . S
N928 Co919 2.022 . S
N928 C925 1.351 . S
N928 N929 1.365 . S
N929 C926 1.341 . S
N929 N928 1.365 . S
N929 H949 0.862 . S
C930 C925 1.501 . S
C930 H931 0.961 . S
C930 H932 0.961 . S
C930 H933 0.960 . S
H931 C930 0.961 . S
H932 C930 0.961 . S
H933 C930 0.960 . S
C934 N935 1.342 . S
C934 C938 1.401 . S
C934 C939 1.499 . S
N935 Co918 1.989 . S
N935 C934 1.342 . S
N935 N936 1.388 . S
N936 Co919 1.993 . S
N936 N935 1.388 . S
N936 C937 1.346 . S
C937 N936 1.346 . S
C937 C938 1.396 . S
C937 C947 1.510 . S
C938 C934 1.401 . S
C938 C937 1.396 . S
C939 C934 1.499 . S
C939 H940 0.959 . S
C939 H941 0.960 . S
C939 H942 0.961 . S
H940 C939 0.959 . S
H941 C939 0.960 . S
H942 C939 0.961 . S
O943 Co918 1.967 . S
O943 C951 1.258 . S
O944 Co919 1.941 . S
O944 C951 1.266 . S
H945 C947 0.959 . S
H946 C947 0.961 . S
C947 C937 1.510 . S
C947 H945 0.959 . S
C947 H946 0.961 . S
C947 H948 0.960 . S
H948 C947 0.960 . S
H949 N929 0.862 . S
O950 Co918 1.920 . S
O950 C923 1.289 . S
C951 O943 1.258 . S
C951 O944 1.266 . S
Co952 O955 1.970 . S
Co952 N969 1.989 . S
Co952 O977 1.967 . S
Co952 O984 1.920 . S
Co953 O956 1.966 . S
Co953 N962 2.022 . S
Co953 N970 1.993 . S
Co953 O978 1.941 . S
C954 O955 1.258 . S
C954 O956 1.263 . S
O955 Co952 1.970 . S
O955 C954 1.258 . S
O956 Co953 1.966 . S
O956 C954 1.263 . S
C957 O958 1.235 . S
C957 O984 1.289 . S
O958 C957 1.235 . S
C959 C961 1.400 . S
C959 N962 1.351 . S
C959 C964 1.501 . S
C960 C961 1.387 . S
C960 N963 1.341 . S
C961 C959 1.400 . S
C961 C960 1.387 . S
N962 Co953 2.022 . S
N962 C959 1.351 . S
N962 N963 1.365 . S
N963 C960 1.341 . S
N963 N962 1.365 . S
N963 H983 0.862 . S
C964 C959 1.501 . S
C964 H965 0.961 . S
C964 H966 0.961 . S
C964 H967 0.960 . S
H965 C964 0.961 . S
H966 C964 0.961 . S
H967 C964 0.960 . S
C968 N969 1.342 . S
C968 C972 1.401 . S
C968 C973 1.499 . S
N969 Co952 1.989 . S
N969 C968 1.342 . S
N969 N970 1.388 . S
N970 Co953 1.993 . S
N970 N969 1.388 . S
N970 C971 1.346 . S
C971 N970 1.346 . S
C971 C972 1.396 . S
C971 C981 1.510 . S
C972 C968 1.401 . S
C972 C971 1.396 . S
C973 C968 1.499 . S
C973 H974 0.959 . S
C973 H975 0.960 . S
C973 H976 0.961 . S
H974 C973 0.959 . S
H975 C973 0.960 . S
H976 C973 0.961 . S
O977 Co952 1.967 . S
O977 C985 1.258 . S
O978 Co953 1.941 . S
O978 C985 1.266 . S
H979 C981 0.959 . S
H980 C981 0.961 . S
C981 C971 1.510 . S
C981 H979 0.959 . S
C981 H980 0.961 . S
C981 H982 0.960 . S
H982 C981 0.960 . S
H983 N963 0.862 . S
O984 Co952 1.920 . S
O984 C957 1.289 . S
C985 O977 1.258 . S
C985 O978 1.266 . S
Co986 O989 1.970 . S
Co986 N1003 1.989 . S
Co986 O1011 1.967 . S
Co986 O1018 1.920 . S
Co987 O990 1.966 . S
Co987 N996 2.022 . S
Co987 N1004 1.993 . S
Co987 O1012 1.941 . S
C988 O989 1.258 . S
C988 O990 1.263 . S
O989 Co986 1.970 . S
O989 C988 1.258 . S
O990 Co987 1.966 . S
O990 C988 1.263 . S
C991 O992 1.235 . S
C991 O1018 1.289 . S
O992 C991 1.235 . S
C993 C995 1.400 . S
C993 N996 1.351 . S
C993 C998 1.501 . S
C994 C995 1.387 . S
C994 N997 1.341 . S
C995 C993 1.400 . S
C995 C994 1.387 . S
N996 Co987 2.022 . S
N996 C993 1.351 . S
N996 N997 1.365 . S
N997 C994 1.341 . S
N997 N996 1.365 . S
N997 H1017 0.862 . S
C998 C993 1.501 . S
C998 H999 0.961 . S
C998 H1000 0.961 . S
C998 H1001 0.960 . S
H999 C998 0.961 . S
H1000 C998 0.961 . S
H1001 C998 0.960 . S
C1002 N1003 1.342 . S
C1002 C1006 1.401 . S
C1002 C1007 1.499 . S
N1003 Co986 1.989 . S
N1003 C1002 1.342 . S
N1003 N1004 1.388 . S
N1004 Co987 1.993 . S
N1004 N1003 1.388 . S
N1004 C1005 1.346 . S
C1005 N1004 1.346 . S
C1005 C1006 1.396 . S
C1005 C1015 1.510 . S
C1006 C1002 1.401 . S
C1006 C1005 1.396 . S
C1007 C1002 1.499 . S
C1007 H1008 0.959 . S
C1007 H1009 0.960 . S
C1007 H1010 0.961 . S
H1008 C1007 0.959 . S
H1009 C1007 0.960 . S
H1010 C1007 0.961 . S
O1011 Co986 1.967 . S
O1011 C1019 1.258 . S
O1012 Co987 1.941 . S
O1012 C1019 1.266 . S
H1013 C1015 0.959 . S
H1014 C1015 0.961 . S
C1015 C1005 1.510 . S
C1015 H1013 0.959 . S
C1015 H1014 0.961 . S
C1015 H1016 0.960 . S
H1016 C1015 0.960 . S
H1017 N997 0.862 . S
O1018 Co986 1.920 . S
O1018 C991 1.289 . S
C1019 O1011 1.258 . S
C1019 O1012 1.266 . S
Co1020 O1023 1.970 . S
Co1020 N1037 1.989 . S
Co1020 O1045 1.967 . S
Co1020 O1052 1.920 . S
Co1021 O1024 1.966 . S
Co1021 N1030 2.022 . S
Co1021 N1038 1.993 . S
Co1021 O1046 1.941 . S
C1022 O1023 1.258 . S
C1022 O1024 1.263 . S
O1023 Co1020 1.970 . S
O1023 C1022 1.258 . S
O1024 Co1021 1.966 . S
O1024 C1022 1.263 . S
C1025 O1026 1.235 . S
C1025 O1052 1.289 . S
O1026 C1025 1.235 . S
C1027 C1029 1.400 . S
C1027 N1030 1.351 . S
C1027 C1032 1.501 . S
C1028 C1029 1.387 . S
C1028 N1031 1.341 . S
C1029 C1027 1.400 . S
C1029 C1028 1.387 . S
N1030 Co1021 2.022 . S
N1030 C1027 1.351 . S
N1030 N1031 1.365 . S
N1031 C1028 1.341 . S
N1031 N1030 1.365 . S
N1031 H1051 0.862 . S
C1032 C1027 1.501 . S
C1032 H1033 0.961 . S
C1032 H1034 0.961 . S
C1032 H1035 0.960 . S
H1033 C1032 0.961 . S
H1034 C1032 0.961 . S
H1035 C1032 0.960 . S
C1036 N1037 1.342 . S
C1036 C1040 1.401 . S
C1036 C1041 1.499 . S
N1037 Co1020 1.989 . S
N1037 C1036 1.342 . S
N1037 N1038 1.388 . S
N1038 Co1021 1.993 . S
N1038 N1037 1.388 . S
N1038 C1039 1.346 . S
C1039 N1038 1.346 . S
C1039 C1040 1.396 . S
C1039 C1049 1.510 . S
C1040 C1036 1.401 . S
C1040 C1039 1.396 . S
C1041 C1036 1.499 . S
C1041 H1042 0.959 . S
C1041 H1043 0.960 . S
C1041 H1044 0.961 . S
H1042 C1041 0.959 . S
H1043 C1041 0.960 . S
H1044 C1041 0.961 . S
O1045 Co1020 1.967 . S
O1045 C1053 1.258 . S
O1046 Co1021 1.941 . S
O1046 C1053 1.266 . S
H1047 C1049 0.959 . S
H1048 C1049 0.961 . S
C1049 C1039 1.510 . S
C1049 H1047 0.959 . S
C1049 H1048 0.961 . S
C1049 H1050 0.960 . S
H1050 C1049 0.960 . S
H1051 N1031 0.862 . S
O1052 Co1020 1.920 . S
O1052 C1025 1.289 . S
C1053 O1045 1.258 . S
C1053 O1046 1.266 . S
Co1054 O1057 1.970 . S
Co1054 N1071 1.989 . S
Co1054 O1079 1.967 . S
Co1054 O1086 1.920 . S
Co1055 O1058 1.966 . S
Co1055 N1064 2.022 . S
Co1055 N1072 1.993 . S
Co1055 O1080 1.941 . S
C1056 O1057 1.258 . S
C1056 O1058 1.263 . S
O1057 Co1054 1.970 . S
O1057 C1056 1.258 . S
O1058 Co1055 1.966 . S
O1058 C1056 1.263 . S
C1059 O1060 1.235 . S
C1059 O1086 1.289 . S
O1060 C1059 1.235 . S
C1061 C1063 1.400 . S
C1061 N1064 1.351 . S
C1061 C1066 1.501 . S
C1062 C1063 1.387 . S
C1062 N1065 1.341 . S
C1063 C1061 1.400 . S
C1063 C1062 1.387 . S
N1064 Co1055 2.022 . S
N1064 C1061 1.351 . S
N1064 N1065 1.365 . S
N1065 C1062 1.341 . S
N1065 N1064 1.365 . S
N1065 H1085 0.862 . S
C1066 C1061 1.501 . S
C1066 H1067 0.961 . S
C1066 H1068 0.961 . S
C1066 H1069 0.960 . S
H1067 C1066 0.961 . S
H1068 C1066 0.961 . S
H1069 C1066 0.960 . S
C1070 N1071 1.342 . S
C1070 C1074 1.401 . S
C1070 C1075 1.499 . S
N1071 Co1054 1.989 . S
N1071 C1070 1.342 . S
N1071 N1072 1.388 . S
N1072 Co1055 1.993 . S
N1072 N1071 1.388 . S
N1072 C1073 1.346 . S
C1073 N1072 1.346 . S
C1073 C1074 1.396 . S
C1073 C1083 1.510 . S
C1074 C1070 1.401 . S
C1074 C1073 1.396 . S
C1075 C1070 1.499 . S
C1075 H1076 0.959 . S
C1075 H1077 0.960 . S
C1075 H1078 0.961 . S
H1076 C1075 0.959 . S
H1077 C1075 0.960 . S
H1078 C1075 0.961 . S
O1079 Co1054 1.967 . S
O1079 C1087 1.258 . S
O1080 Co1055 1.941 . S
O1080 C1087 1.266 . S
H1081 C1083 0.959 . S
H1082 C1083 0.961 . S
C1083 C1073 1.510 . S
C1083 H1081 0.959 . S
C1083 H1082 0.961 . S
C1083 H1084 0.960 . S
H1084 C1083 0.960 . S
H1085 N1065 0.862 . S
O1086 Co1054 1.920 . S
O1086 C1059 1.289 . S
C1087 O1079 1.258 . S
C1087 O1080 1.266 . S
Co1088 O1091 1.970 . S
Co1088 N1105 1.989 . S
Co1088 O1113 1.967 . S
Co1088 O1120 1.920 . S
Co1089 O1092 1.966 . S
Co1089 N1098 2.022 . S
Co1089 N1106 1.993 . S
Co1089 O1114 1.941 . S
C1090 O1091 1.258 . S
C1090 O1092 1.263 . S
O1091 Co1088 1.970 . S
O1091 C1090 1.258 . S
O1092 Co1089 1.966 . S
O1092 C1090 1.263 . S
C1093 O1094 1.235 . S
C1093 O1120 1.289 . S
O1094 C1093 1.235 . S
C1095 C1097 1.400 . S
C1095 N1098 1.351 . S
C1095 C1100 1.501 . S
C1096 C1097 1.387 . S
C1096 N1099 1.341 . S
C1097 C1095 1.400 . S
C1097 C1096 1.387 . S
N1098 Co1089 2.022 . S
N1098 C1095 1.351 . S
N1098 N1099 1.365 . S
N1099 C1096 1.341 . S
N1099 N1098 1.365 . S
N1099 H1119 0.862 . S
C1100 C1095 1.501 . S
C1100 H1101 0.961 . S
C1100 H1102 0.961 . S
C1100 H1103 0.960 . S
H1101 C1100 0.961 . S
H1102 C1100 0.961 . S
H1103 C1100 0.960 . S
C1104 N1105 1.342 . S
C1104 C1108 1.401 . S
C1104 C1109 1.499 . S
N1105 Co1088 1.989 . S
N1105 C1104 1.342 . S
N1105 N1106 1.388 . S
N1106 Co1089 1.993 . S
N1106 N1105 1.388 . S
N1106 C1107 1.346 . S
C1107 N1106 1.346 . S
C1107 C1108 1.396 . S
C1107 C1117 1.510 . S
C1108 C1104 1.401 . S
C1108 C1107 1.396 . S
C1109 C1104 1.499 . S
C1109 H1110 0.959 . S
C1109 H1111 0.960 . S
C1109 H1112 0.961 . S
H1110 C1109 0.959 . S
H1111 C1109 0.960 . S
H1112 C1109 0.961 . S
O1113 Co1088 1.967 . S
O1113 C1121 1.258 . S
O1114 Co1089 1.941 . S
O1114 C1121 1.266 . S
H1115 C1117 0.959 . S
H1116 C1117 0.961 . S
C1117 C1107 1.510 . S
C1117 H1115 0.959 . S
C1117 H1116 0.961 . S
C1117 H1118 0.960 . S
H1118 C1117 0.960 . S
H1119 N1099 0.862 . S
O1120 Co1088 1.920 . S
O1120 C1093 1.289 . S
C1121 O1113 1.258 . S
C1121 O1114 1.266 . S
Co1122 O1125 1.970 . S
Co1122 N1139 1.989 . S
Co1122 O1147 1.967 . S
Co1122 O1154 1.920 1_556 S
Co1123 O1126 1.966 . S
Co1123 N1132 2.022 . S
Co1123 N1140 1.993 . S
Co1123 O1148 1.941 . S
C1124 O1125 1.258 . S
C1124 O1126 1.263 . S
O1125 Co1122 1.970 . S
O1125 C1124 1.258 . S
O1126 Co1123 1.966 . S
O1126 C1124 1.263 . S
C1127 O1128 1.235 . S
C1127 O1154 1.289 . S
O1128 C1127 1.235 . S
C1129 C1131 1.400 . S
C1129 N1132 1.351 . S
C1129 C1134 1.501 . S
C1130 C1131 1.387 . S
C1130 N1133 1.341 . S
C1131 C1129 1.400 . S
C1131 C1130 1.387 . S
N1132 Co1123 2.022 . S
N1132 C1129 1.351 . S
N1132 N1133 1.365 . S
N1133 C1130 1.341 . S
N1133 N1132 1.365 . S
N1133 H1153 0.862 . S
C1134 C1129 1.501 . S
C1134 H1135 0.961 . S
C1134 H1136 0.961 . S
C1134 H1137 0.960 . S
H1135 C1134 0.961 . S
H1136 C1134 0.961 . S
H1137 C1134 0.960 . S
C1138 N1139 1.342 . S
C1138 C1142 1.401 . S
C1138 C1143 1.499 1_556 S
N1139 Co1122 1.989 . S
N1139 C1138 1.342 . S
N1139 N1140 1.388 . S
N1140 Co1123 1.993 . S
N1140 N1139 1.388 . S
N1140 C1141 1.346 . S
C1141 N1140 1.346 . S
C1141 C1142 1.396 . S
C1141 C1151 1.510 . S
C1142 C1138 1.401 . S
C1142 C1141 1.396 . S
C1143 C1138 1.499 1_554 S
C1143 H1144 0.959 . S
C1143 H1145 0.960 . S
C1143 H1146 0.961 . S
H1144 C1143 0.959 . S
H1145 C1143 0.960 . S
H1146 C1143 0.961 . S
O1147 Co1122 1.967 . S
O1147 C1155 1.258 . S
O1148 Co1123 1.941 . S
O1148 C1155 1.266 . S
H1149 C1151 0.959 . S
H1150 C1151 0.961 . S
C1151 C1141 1.510 . S
C1151 H1149 0.959 . S
C1151 H1150 0.961 . S
C1151 H1152 0.960 . S
H1152 C1151 0.960 . S
H1153 N1133 0.862 . S
O1154 Co1122 1.920 1_554 S
O1154 C1127 1.289 . S
C1155 O1147 1.258 . S
C1155 O1148 1.266 . S
Co1156 O1159 1.970 . S
Co1156 N1173 1.989 . S
Co1156 O1181 1.967 . S
Co1156 O1188 1.920 1_556 S
Co1157 O1160 1.966 . S
Co1157 N1166 2.022 . S
Co1157 N1174 1.993 . S
Co1157 O1182 1.941 . S
C1158 O1159 1.258 . S
C1158 O1160 1.263 . S
O1159 Co1156 1.970 . S
O1159 C1158 1.258 . S
O1160 Co1157 1.966 . S
O1160 C1158 1.263 . S
C1161 O1162 1.235 . S
C1161 O1188 1.289 . S
O1162 C1161 1.235 . S
C1163 C1165 1.400 . S
C1163 N1166 1.351 . S
C1163 C1168 1.501 . S
C1164 C1165 1.387 . S
C1164 N1167 1.341 . S
C1165 C1163 1.400 . S
C1165 C1164 1.387 . S
N1166 Co1157 2.022 . S
N1166 C1163 1.351 . S
N1166 N1167 1.365 . S
N1167 C1164 1.341 . S
N1167 N1166 1.365 . S
N1167 H1187 0.862 . S
C1168 C1163 1.501 . S
C1168 H1169 0.961 . S
C1168 H1170 0.961 . S
C1168 H1171 0.960 . S
H1169 C1168 0.961 . S
H1170 C1168 0.961 . S
H1171 C1168 0.960 . S
C1172 N1173 1.342 . S
C1172 C1176 1.401 . S
C1172 C1177 1.499 1_556 S
N1173 Co1156 1.989 . S
N1173 C1172 1.342 . S
N1173 N1174 1.388 . S
N1174 Co1157 1.993 . S
N1174 N1173 1.388 . S
N1174 C1175 1.346 . S
C1175 N1174 1.346 . S
C1175 C1176 1.396 . S
C1175 C1185 1.510 . S
C1176 C1172 1.401 . S
C1176 C1175 1.396 . S
C1177 C1172 1.499 1_554 S
C1177 H1178 0.959 . S
C1177 H1179 0.960 . S
C1177 H1180 0.961 . S
H1178 C1177 0.959 . S
H1179 C1177 0.960 . S
H1180 C1177 0.961 . S
O1181 Co1156 1.967 . S
O1181 C1189 1.258 . S
O1182 Co1157 1.941 . S
O1182 C1189 1.266 . S
H1183 C1185 0.959 . S
H1184 C1185 0.961 . S
C1185 C1175 1.510 . S
C1185 H1183 0.959 . S
C1185 H1184 0.961 . S
C1185 H1186 0.960 . S
H1186 C1185 0.960 . S
H1187 N1167 0.862 . S
O1188 Co1156 1.920 1_554 S
O1188 C1161 1.289 . S
C1189 O1181 1.258 . S
C1189 O1182 1.266 . S
Co1190 O1193 1.970 . S
Co1190 N1207 1.989 . S
Co1190 O1215 1.967 . S
Co1190 O1222 1.920 1_556 S
Co1191 O1194 1.966 . S
Co1191 N1200 2.022 . S
Co1191 N1208 1.993 . S
Co1191 O1216 1.941 . S
C1192 O1193 1.258 . S
C1192 O1194 1.263 . S
O1193 Co1190 1.970 . S
O1193 C1192 1.258 . S
O1194 Co1191 1.966 . S
O1194 C1192 1.263 . S
C1195 O1196 1.235 . S
C1195 O1222 1.289 . S
O1196 C1195 1.235 . S
C1197 C1199 1.400 . S
C1197 N1200 1.351 . S
C1197 C1202 1.501 . S
C1198 C1199 1.387 . S
C1198 N1201 1.341 . S
C1199 C1197 1.400 . S
C1199 C1198 1.387 . S
N1200 Co1191 2.022 . S
N1200 C1197 1.351 . S
N1200 N1201 1.365 . S
N1201 C1198 1.341 . S
N1201 N1200 1.365 . S
N1201 H1221 0.862 . S
C1202 C1197 1.501 . S
C1202 H1203 0.961 . S
C1202 H1204 0.961 . S
C1202 H1205 0.960 . S
H1203 C1202 0.961 . S
H1204 C1202 0.961 . S
H1205 C1202 0.960 . S
C1206 N1207 1.342 . S
C1206 C1210 1.401 . S
C1206 C1211 1.499 1_556 S
N1207 Co1190 1.989 . S
N1207 C1206 1.342 . S
N1207 N1208 1.388 . S
N1208 Co1191 1.993 . S
N1208 N1207 1.388 . S
N1208 C1209 1.346 . S
C1209 N1208 1.346 . S
C1209 C1210 1.396 . S
C1209 C1219 1.510 . S
C1210 C1206 1.401 . S
C1210 C1209 1.396 . S
C1211 C1206 1.499 1_554 S
C1211 H1212 0.959 . S
C1211 H1213 0.960 . S
C1211 H1214 0.961 . S
H1212 C1211 0.959 . S
H1213 C1211 0.960 . S
H1214 C1211 0.961 . S
O1215 Co1190 1.967 . S
O1215 C1223 1.258 . S
O1216 Co1191 1.941 . S
O1216 C1223 1.266 . S
H1217 C1219 0.959 . S
H1218 C1219 0.961 . S
C1219 C1209 1.510 . S
C1219 H1217 0.959 . S
C1219 H1218 0.961 . S
C1219 H1220 0.960 . S
H1220 C1219 0.960 . S
H1221 N1201 0.862 . S
O1222 Co1190 1.920 1_554 S
O1222 C1195 1.289 . S
C1223 O1215 1.258 . S
C1223 O1216 1.266 . S
H1224 C1236 0.930 . S
H1225 C1238 0.930 . S
H1226 C1239 0.930 . S
H1227 C1243 0.959 . S
H1228 C1243 0.959 1_556 S
H1229 C1243 0.961 . S
H1230 C1244 0.960 . S
H1231 C1244 0.961 . S
H1232 C1244 0.959 . S
H1233 C1247 0.929 . S
H1234 C1248 0.931 . S
H1235 C1250 0.930 . S
C1236 H1224 0.930 . S
C1236 C1237 1.399 . S
C1236 C1241 1.399 . S
C1237 C1236 1.399 . S
C1237 C1238 1.376 . S
C1238 H1225 0.930 . S
C1238 C1237 1.376 . S
C1238 C1239 1.388 . S
C1239 H1226 0.930 . S
C1239 C1238 1.388 . S
C1239 C1240 1.390 . S
C1240 C1239 1.390 . S
C1240 C1241 1.394 . S
C1240 C1246 1.465 . S
C1241 C1236 1.399 . S
C1241 C1240 1.394 . S
C1241 C1242 1.516 . S
C1242 C1241 1.516 . S
C1242 C1243 1.502 . S
C1242 C1244 1.561 . S
C1242 C1245 1.526 . S
C1243 H1227 0.959 . S
C1243 H1228 0.959 1_554 S
C1243 H1229 0.961 . S
C1243 C1242 1.502 . S
C1244 H1230 0.960 . S
C1244 H1231 0.961 . S
C1244 H1232 0.959 . S
C1244 C1242 1.561 . S
C1245 C1242 1.526 . S
C1245 C1246 1.396 . S
C1245 C1250 1.390 . S
C1246 C1240 1.465 . S
C1246 C1245 1.396 . S
C1246 C1247 1.399 . S
C1247 H1233 0.929 . S
C1247 C1246 1.399 . S
C1247 C1248 1.385 . S
C1248 H1234 0.931 . S
C1248 C1247 1.385 . S
C1248 C1249 1.389 . S
C1249 C1248 1.389 . S
C1249 C1250 1.387 . S
C1250 H1235 0.930 . S
C1250 C1245 1.390 . S
C1250 C1249 1.387 . S
H1251 C1263 0.930 . S
H1252 C1265 0.930 . S
H1253 C1266 0.930 . S
H1254 C1270 0.959 . S
H1255 C1270 0.959 . S
H1256 C1270 0.961 . S
H1257 C1271 0.960 . S
H1258 C1271 0.961 . S
H1259 C1271 0.959 . S
H1260 C1274 0.929 . S
H1261 C1275 0.931 . S
H1262 C1277 0.930 . S
C1263 H1251 0.930 . S
C1263 C1264 1.399 . S
C1263 C1268 1.399 . S
C1264 C1263 1.399 . S
C1264 C1265 1.376 . S
C1265 H1252 0.930 . S
C1265 C1264 1.376 . S
C1265 C1266 1.388 . S
C1266 H1253 0.930 . S
C1266 C1265 1.388 . S
C1266 C1267 1.390 . S
C1267 C1266 1.390 . S
C1267 C1268 1.394 . S
C1267 C1273 1.465 . S
C1268 C1263 1.399 . S
C1268 C1267 1.394 . S
C1268 C1269 1.516 . S
C1269 C1268 1.516 . S
C1269 C1270 1.502 . S
C1269 C1271 1.561 . S
C1269 C1272 1.526 . S
C1270 H1254 0.959 . S
C1270 H1255 0.959 . S
C1270 H1256 0.961 . S
C1270 C1269 1.502 . S
C1271 H1257 0.960 . S
C1271 H1258 0.961 . S
C1271 H1259 0.959 . S
C1271 C1269 1.561 . S
C1272 C1269 1.526 . S
C1272 C1273 1.396 . S
C1272 C1277 1.390 . S
C1273 C1267 1.465 . S
C1273 C1272 1.396 . S
C1273 C1274 1.399 . S
C1274 H1260 0.929 . S
C1274 C1273 1.399 . S
C1274 C1275 1.385 . S
C1275 H1261 0.931 . S
C1275 C1274 1.385 . S
C1275 C1276 1.389 . S
C1276 C1275 1.389 . S
C1276 C1277 1.387 . S
C1277 H1262 0.930 . S
C1277 C1272 1.390 . S
C1277 C1276 1.387 . S
H1278 C1290 0.930 . S
H1279 C1292 0.930 . S
H1280 C1293 0.930 . S
H1281 C1297 0.959 . S
H1282 C1297 0.959 . S
H1283 C1297 0.961 . S
H1284 C1298 0.960 . S
H1285 C1298 0.961 . S
H1286 C1298 0.959 . S
H1287 C1301 0.929 . S
H1288 C1302 0.931 . S
H1289 C1304 0.930 . S
C1290 H1278 0.930 . S
C1290 C1291 1.399 . S
C1290 C1295 1.399 . S
C1291 C1290 1.399 . S
C1291 C1292 1.376 . S
C1292 H1279 0.930 . S
C1292 C1291 1.376 . S
C1292 C1293 1.388 . S
C1293 H1280 0.930 . S
C1293 C1292 1.388 . S
C1293 C1294 1.390 . S
C1294 C1293 1.390 . S
C1294 C1295 1.394 . S
C1294 C1300 1.465 . S
C1295 C1290 1.399 . S
C1295 C1294 1.394 . S
C1295 C1296 1.516 . S
C1296 C1295 1.516 . S
C1296 C1297 1.502 . S
C1296 C1298 1.561 . S
C1296 C1299 1.526 . S
C1297 H1281 0.959 . S
C1297 H1282 0.959 . S
C1297 H1283 0.961 . S
C1297 C1296 1.502 . S
C1298 H1284 0.960 . S
C1298 H1285 0.961 . S
C1298 H1286 0.959 . S
C1298 C1296 1.561 . S
C1299 C1296 1.526 . S
C1299 C1300 1.396 . S
C1299 C1304 1.390 . S
C1300 C1294 1.465 . S
C1300 C1299 1.396 . S
C1300 C1301 1.399 . S
C1301 H1287 0.929 . S
C1301 C1300 1.399 . S
C1301 C1302 1.385 . S
C1302 H1288 0.931 . S
C1302 C1301 1.385 . S
C1302 C1303 1.389 . S
C1303 C1302 1.389 . S
C1303 C1304 1.387 . S
C1304 H1289 0.930 . S
C1304 C1299 1.390 . S
C1304 C1303 1.387 . S
H1305 C1317 0.930 . S
H1306 C1319 0.930 . S
H1307 C1320 0.930 . S
H1308 C1324 0.959 . S
H1309 C1324 0.959 . S
H1310 C1324 0.961 . S
H1311 C1325 0.960 . S
H1312 C1325 0.961 . S
H1313 C1325 0.959 . S
H1314 C1328 0.929 . S
H1315 C1329 0.931 . S
H1316 C1331 0.930 . S
C1317 H1305 0.930 . S
C1317 C1318 1.399 . S
C1317 C1322 1.399 . S
C1318 C1317 1.399 . S
C1318 C1319 1.376 . S
C1319 H1306 0.930 . S
C1319 C1318 1.376 . S
C1319 C1320 1.388 . S
C1320 H1307 0.930 . S
C1320 C1319 1.388 . S
C1320 C1321 1.390 . S
C1321 C1320 1.390 . S
C1321 C1322 1.394 . S
C1321 C1327 1.465 . S
C1322 C1317 1.399 . S
C1322 C1321 1.394 . S
C1322 C1323 1.516 . S
C1323 C1322 1.516 . S
C1323 C1324 1.502 . S
C1323 C1325 1.561 . S
C1323 C1326 1.526 . S
C1324 H1308 0.959 . S
C1324 H1309 0.959 . S
C1324 H1310 0.961 . S
C1324 C1323 1.502 . S
C1325 H1311 0.960 . S
C1325 H1312 0.961 . S
C1325 H1313 0.959 . S
C1325 C1323 1.561 . S
C1326 C1323 1.526 . S
C1326 C1327 1.396 . S
C1326 C1331 1.390 . S
C1327 C1321 1.465 . S
C1327 C1326 1.396 . S
C1327 C1328 1.399 . S
C1328 H1314 0.929 . S
C1328 C1327 1.399 . S
C1328 C1329 1.385 . S
C1329 H1315 0.931 . S
C1329 C1328 1.385 . S
C1329 C1330 1.389 . S
C1330 C1329 1.389 . S
C1330 C1331 1.387 . S
C1331 H1316 0.930 . S
C1331 C1326 1.390 . S
C1331 C1330 1.387 . S
H1332 C1344 0.930 . S
H1333 C1346 0.930 . S
H1334 C1347 0.930 . S
H1335 C1351 0.959 . S
H1336 C1351 0.959 . S
H1337 C1351 0.961 . S
H1338 C1352 0.960 . S
H1339 C1352 0.961 . S
H1340 C1352 0.959 . S
H1341 C1355 0.929 . S
H1342 C1356 0.931 . S
H1343 C1358 0.930 . S
C1344 H1332 0.930 . S
C1344 C1345 1.399 . S
C1344 C1349 1.399 . S
C1345 C1344 1.399 . S
C1345 C1346 1.376 . S
C1346 H1333 0.930 . S
C1346 C1345 1.376 . S
C1346 C1347 1.388 . S
C1347 H1334 0.930 . S
C1347 C1346 1.388 . S
C1347 C1348 1.390 . S
C1348 C1347 1.390 . S
C1348 C1349 1.394 . S
C1348 C1354 1.465 . S
C1349 C1344 1.399 . S
C1349 C1348 1.394 . S
C1349 C1350 1.516 . S
C1350 C1349 1.516 . S
C1350 C1351 1.502 . S
C1350 C1352 1.561 . S
C1350 C1353 1.526 . S
C1351 H1335 0.959 . S
C1351 H1336 0.959 . S
C1351 H1337 0.961 . S
C1351 C1350 1.502 . S
C1352 H1338 0.960 . S
C1352 H1339 0.961 . S
C1352 H1340 0.959 . S
C1352 C1350 1.561 . S
C1353 C1350 1.526 . S
C1353 C1354 1.396 . S
C1353 C1358 1.390 . S
C1354 C1348 1.465 . S
C1354 C1353 1.396 . S
C1354 C1355 1.399 . S
C1355 H1341 0.929 . S
C1355 C1354 1.399 . S
C1355 C1356 1.385 . S
C1356 H1342 0.931 . S
C1356 C1355 1.385 . S
C1356 C1357 1.389 . S
C1357 C1356 1.389 . S
C1357 C1358 1.387 . S
C1358 H1343 0.930 . S
C1358 C1353 1.390 . S
C1358 C1357 1.387 . S
H1359 C1371 0.930 . S
H1360 C1373 0.930 . S
H1361 C1374 0.930 . S
H1362 C1378 0.959 . S
H1363 C1378 0.959 . S
H1364 C1378 0.961 . S
H1365 C1379 0.960 . S
H1366 C1379 0.961 . S
H1367 C1379 0.959 . S
H1368 C1382 0.929 . S
H1369 C1383 0.931 . S
H1370 C1385 0.930 . S
C1371 H1359 0.930 . S
C1371 C1372 1.399 . S
C1371 C1376 1.399 . S
C1372 C1371 1.399 . S
C1372 C1373 1.376 . S
C1373 H1360 0.930 . S
C1373 C1372 1.376 . S
C1373 C1374 1.388 . S
C1374 H1361 0.930 . S
C1374 C1373 1.388 . S
C1374 C1375 1.390 . S
C1375 C1374 1.390 . S
C1375 C1376 1.394 . S
C1375 C1381 1.465 . S
C1376 C1371 1.399 . S
C1376 C1375 1.394 . S
C1376 C1377 1.516 . S
C1377 C1376 1.516 . S
C1377 C1378 1.502 . S
C1377 C1379 1.561 . S
C1377 C1380 1.526 . S
C1378 H1362 0.959 . S
C1378 H1363 0.959 . S
C1378 H1364 0.961 . S
C1378 C1377 1.502 . S
C1379 H1365 0.960 . S
C1379 H1366 0.961 . S
C1379 H1367 0.959 . S
C1379 C1377 1.561 . S
C1380 C1377 1.526 . S
C1380 C1381 1.396 . S
C1380 C1385 1.390 . S
C1381 C1375 1.465 . S
C1381 C1380 1.396 . S
C1381 C1382 1.399 . S
C1382 H1368 0.929 . S
C1382 C1381 1.399 . S
C1382 C1383 1.385 . S
C1383 H1369 0.931 . S
C1383 C1382 1.385 . S
C1383 C1384 1.389 . S
C1384 C1383 1.389 . S
C1384 C1385 1.387 . S
C1385 H1370 0.930 . S
C1385 C1380 1.390 . S
C1385 C1384 1.387 . S
H1386 C1398 0.930 . S
H1387 C1400 0.930 . S
H1388 C1401 0.930 . S
H1389 C1405 0.959 . S
H1390 C1405 0.959 . S
H1391 C1405 0.961 . S
H1392 C1406 0.960 . S
H1393 C1406 0.961 . S
H1394 C1406 0.959 . S
H1395 C1409 0.929 . S
H1396 C1410 0.931 . S
H1397 C1412 0.930 . S
C1398 H1386 0.930 . S
C1398 C1399 1.399 . S
C1398 C1403 1.399 . S
C1399 C1398 1.399 . S
C1399 C1400 1.376 . S
C1400 H1387 0.930 . S
C1400 C1399 1.376 . S
C1400 C1401 1.388 . S
C1401 H1388 0.930 . S
C1401 C1400 1.388 . S
C1401 C1402 1.390 . S
C1402 C1401 1.390 . S
C1402 C1403 1.394 . S
C1402 C1408 1.465 . S
C1403 C1398 1.399 . S
C1403 C1402 1.394 . S
C1403 C1404 1.516 . S
C1404 C1403 1.516 . S
C1404 C1405 1.502 . S
C1404 C1406 1.561 . S
C1404 C1407 1.526 . S
C1405 H1389 0.959 . S
C1405 H1390 0.959 . S
C1405 H1391 0.961 . S
C1405 C1404 1.502 . S
C1406 H1392 0.960 . S
C1406 H1393 0.961 . S
C1406 H1394 0.959 . S
C1406 C1404 1.561 . S
C1407 C1404 1.526 . S
C1407 C1408 1.396 . S
C1407 C1412 1.390 . S
C1408 C1402 1.465 . S
C1408 C1407 1.396 . S
C1408 C1409 1.399 . S
C1409 H1395 0.929 . S
C1409 C1408 1.399 . S
C1409 C1410 1.385 . S
C1410 H1396 0.931 . S
C1410 C1409 1.385 . S
C1410 C1411 1.389 . S
C1411 C1410 1.389 . S
C1411 C1412 1.387 . S
C1412 H1397 0.930 . S
C1412 C1407 1.390 . S
C1412 C1411 1.387 . S
H1413 C1425 0.930 . S
H1414 C1427 0.930 . S
H1415 C1428 0.930 . S
H1416 C1432 0.959 . S
H1417 C1432 0.959 . S
H1418 C1432 0.961 . S
H1419 C1433 0.960 . S
H1420 C1433 0.961 . S
H1421 C1433 0.959 . S
H1422 C1436 0.929 . S
H1423 C1437 0.931 . S
H1424 C1439 0.930 . S
C1425 H1413 0.930 . S
C1425 C1426 1.399 . S
C1425 C1430 1.399 . S
C1426 C1425 1.399 . S
C1426 C1427 1.376 . S
C1427 H1414 0.930 . S
C1427 C1426 1.376 . S
C1427 C1428 1.388 . S
C1428 H1415 0.930 . S
C1428 C1427 1.388 . S
C1428 C1429 1.390 . S
C1429 C1428 1.390 . S
C1429 C1430 1.394 . S
C1429 C1435 1.465 . S
C1430 C1425 1.399 . S
C1430 C1429 1.394 . S
C1430 C1431 1.516 . S
C1431 C1430 1.516 . S
C1431 C1432 1.502 . S
C1431 C1433 1.561 . S
C1431 C1434 1.526 . S
C1432 H1416 0.959 . S
C1432 H1417 0.959 . S
C1432 H1418 0.961 . S
C1432 C1431 1.502 . S
C1433 H1419 0.960 . S
C1433 H1420 0.961 . S
C1433 H1421 0.959 . S
C1433 C1431 1.561 . S
C1434 C1431 1.526 . S
C1434 C1435 1.396 . S
C1434 C1439 1.390 . S
C1435 C1429 1.465 . S
C1435 C1434 1.396 . S
C1435 C1436 1.399 . S
C1436 H1422 0.929 . S
C1436 C1435 1.399 . S
C1436 C1437 1.385 . S
C1437 H1423 0.931 . S
C1437 C1436 1.385 . S
C1437 C1438 1.389 . S
C1438 C1437 1.389 . S
C1438 C1439 1.387 . S
C1439 H1424 0.930 . S
C1439 C1434 1.390 . S
C1439 C1438 1.387 . S
H1440 C1452 0.930 . S
H1441 C1454 0.930 . S
H1442 C1455 0.930 . S
H1443 C1459 0.959 . S
H1444 C1459 0.959 . S
H1445 C1459 0.961 . S
H1446 C1460 0.960 . S
H1447 C1460 0.961 . S
H1448 C1460 0.959 . S
H1449 C1463 0.929 . S
H1450 C1464 0.931 . S
H1451 C1466 0.930 . S
C1452 H1440 0.930 . S
C1452 C1453 1.399 . S
C1452 C1457 1.399 . S
C1453 C1452 1.399 . S
C1453 C1454 1.376 . S
C1454 H1441 0.930 . S
C1454 C1453 1.376 . S
C1454 C1455 1.388 . S
C1455 H1442 0.930 . S
C1455 C1454 1.388 . S
C1455 C1456 1.390 . S
C1456 C1455 1.390 . S
C1456 C1457 1.394 . S
C1456 C1462 1.465 . S
C1457 C1452 1.399 . S
C1457 C1456 1.394 . S
C1457 C1458 1.516 . S
C1458 C1457 1.516 . S
C1458 C1459 1.502 . S
C1458 C1460 1.561 . S
C1458 C1461 1.526 . S
C1459 H1443 0.959 . S
C1459 H1444 0.959 . S
C1459 H1445 0.961 . S
C1459 C1458 1.502 . S
C1460 H1446 0.960 . S
C1460 H1447 0.961 . S
C1460 H1448 0.959 . S
C1460 C1458 1.561 . S
C1461 C1458 1.526 . S
C1461 C1462 1.396 . S
C1461 C1466 1.390 . S
C1462 C1456 1.465 . S
C1462 C1461 1.396 . S
C1462 C1463 1.399 . S
C1463 H1449 0.929 . S
C1463 C1462 1.399 . S
C1463 C1464 1.385 . S
C1464 H1450 0.931 . S
C1464 C1463 1.385 . S
C1464 C1465 1.389 . S
C1465 C1464 1.389 . S
C1465 C1466 1.387 . S
C1466 H1451 0.930 . S
C1466 C1461 1.390 . S
C1466 C1465 1.387 . S
H1467 C1479 0.930 . S
H1468 C1481 0.930 . S
H1469 C1482 0.930 . S
H1470 C1486 0.959 . S
H1471 C1486 0.959 . S
H1472 C1486 0.961 . S
H1473 C1487 0.960 . S
H1474 C1487 0.961 . S
H1475 C1487 0.959 . S
H1476 C1490 0.929 . S
H1477 C1491 0.931 . S
H1478 C1493 0.930 . S
C1479 H1467 0.930 . S
C1479 C1480 1.399 . S
C1479 C1484 1.399 . S
C1480 C1479 1.399 . S
C1480 C1481 1.376 . S
C1481 H1468 0.930 . S
C1481 C1480 1.376 . S
C1481 C1482 1.388 . S
C1482 H1469 0.930 . S
C1482 C1481 1.388 . S
C1482 C1483 1.390 . S
C1483 C1482 1.390 . S
C1483 C1484 1.394 . S
C1483 C1489 1.465 . S
C1484 C1479 1.399 . S
C1484 C1483 1.394 . S
C1484 C1485 1.516 . S
C1485 C1484 1.516 . S
C1485 C1486 1.502 . S
C1485 C1487 1.561 . S
C1485 C1488 1.526 . S
C1486 H1470 0.959 . S
C1486 H1471 0.959 . S
C1486 H1472 0.961 . S
C1486 C1485 1.502 . S
C1487 H1473 0.960 . S
C1487 H1474 0.961 . S
C1487 H1475 0.959 . S
C1487 C1485 1.561 . S
C1488 C1485 1.526 . S
C1488 C1489 1.396 . S
C1488 C1493 1.390 . S
C1489 C1483 1.465 . S
C1489 C1488 1.396 . S
C1489 C1490 1.399 . S
C1490 H1476 0.929 . S
C1490 C1489 1.399 . S
C1490 C1491 1.385 . S
C1491 H1477 0.931 . S
C1491 C1490 1.385 . S
C1491 C1492 1.389 . S
C1492 C1491 1.389 . S
C1492 C1493 1.387 . S
C1493 H1478 0.930 . S
C1493 C1488 1.390 . S
C1493 C1492 1.387 . S
H1494 C1506 0.930 . S
H1495 C1508 0.930 . S
H1496 C1509 0.930 . S
H1497 C1513 0.959 . S
H1498 C1513 0.959 . S
H1499 C1513 0.961 . S
H1500 C1514 0.960 1_556 S
H1501 C1514 0.961 . S
H1502 C1514 0.959 . S
H1503 C1517 0.929 . S
H1504 C1518 0.931 . S
H1505 C1520 0.930 . S
C1506 H1494 0.930 . S
C1506 C1507 1.399 . S
C1506 C1511 1.399 . S
C1507 C1506 1.399 . S
C1507 C1508 1.376 . S
C1508 H1495 0.930 . S
C1508 C1507 1.376 . S
C1508 C1509 1.388 . S
C1509 H1496 0.930 . S
C1509 C1508 1.388 . S
C1509 C1510 1.390 . S
C1510 C1509 1.390 . S
C1510 C1511 1.394 . S
C1510 C1516 1.465 . S
C1511 C1506 1.399 . S
C1511 C1510 1.394 . S
C1511 C1512 1.516 . S
C1512 C1511 1.516 . S
C1512 C1513 1.502 . S
C1512 C1514 1.561 . S
C1512 C1515 1.526 . S
C1513 H1497 0.959 . S
C1513 H1498 0.959 . S
C1513 H1499 0.961 . S
C1513 C1512 1.502 . S
C1514 H1500 0.960 1_554 S
C1514 H1501 0.961 . S
C1514 H1502 0.959 . S
C1514 C1512 1.561 . S
C1515 C1512 1.526 . S
C1515 C1516 1.396 . S
C1515 C1520 1.390 . S
C1516 C1510 1.465 . S
C1516 C1515 1.396 . S
C1516 C1517 1.399 . S
C1517 H1503 0.929 . S
C1517 C1516 1.399 . S
C1517 C1518 1.385 . S
C1518 H1504 0.931 . S
C1518 C1517 1.385 . S
C1518 C1519 1.389 . S
C1519 C1518 1.389 . S
C1519 C1520 1.387 . S
C1520 H1505 0.930 . S
C1520 C1515 1.390 . S
C1520 C1519 1.387 . S
H1521 C1533 0.930 . S
H1522 C1535 0.930 . S
H1523 C1536 0.930 . S
H1524 C1540 0.959 . S
H1525 C1540 0.959 . S
H1526 C1540 0.961 . S
H1527 C1541 0.960 . S
H1528 C1541 0.961 . S
H1529 C1541 0.959 . S
H1530 C1544 0.929 . S
H1531 C1545 0.931 . S
H1532 C1547 0.930 . S
C1533 H1521 0.930 . S
C1533 C1534 1.399 . S
C1533 C1538 1.399 . S
C1534 C1533 1.399 . S
C1534 C1535 1.376 . S
C1535 H1522 0.930 . S
C1535 C1534 1.376 . S
C1535 C1536 1.388 . S
C1536 H1523 0.930 . S
C1536 C1535 1.388 . S
C1536 C1537 1.390 . S
C1537 C1536 1.390 . S
C1537 C1538 1.394 . S
C1537 C1543 1.465 . S
C1538 C1533 1.399 . S
C1538 C1537 1.394 . S
C1538 C1539 1.516 . S
C1539 C1538 1.516 . S
C1539 C1540 1.502 . S
C1539 C1541 1.561 . S
C1539 C1542 1.526 . S
C1540 H1524 0.959 . S
C1540 H1525 0.959 . S
C1540 H1526 0.961 . S
C1540 C1539 1.502 . S
C1541 H1527 0.960 . S
C1541 H1528 0.961 . S
C1541 H1529 0.959 . S
C1541 C1539 1.561 . S
C1542 C1539 1.526 . S
C1542 C1543 1.396 . S
C1542 C1547 1.390 . S
C1543 C1537 1.465 . S
C1543 C1542 1.396 . S
C1543 C1544 1.399 . S
C1544 H1530 0.929 . S
C1544 C1543 1.399 . S
C1544 C1545 1.385 . S
C1545 H1531 0.931 . S
C1545 C1544 1.385 . S
C1545 C1546 1.389 . S
C1546 C1545 1.389 . S
C1546 C1547 1.387 . S
C1547 H1532 0.930 . S
C1547 C1542 1.390 . S
C1547 C1546 1.387 . S
H1548 C1560 0.930 . S
H1549 C1562 0.930 . S
H1550 C1563 0.930 . S
H1551 C1567 0.959 . S
H1552 C1567 0.959 . S
H1553 C1567 0.961 . S
H1554 C1568 0.960 . S
H1555 C1568 0.961 . S
H1556 C1568 0.959 . S
H1557 C1571 0.929 . S
H1558 C1572 0.931 . S
H1559 C1574 0.930 . S
C1560 H1548 0.930 . S
C1560 C1561 1.399 . S
C1560 C1565 1.399 . S
C1561 C1560 1.399 . S
C1561 C1562 1.376 . S
C1562 H1549 0.930 . S
C1562 C1561 1.376 . S
C1562 C1563 1.388 . S
C1563 H1550 0.930 . S
C1563 C1562 1.388 . S
C1563 C1564 1.390 . S
C1564 C1563 1.390 . S
C1564 C1565 1.394 . S
C1564 C1570 1.465 . S
C1565 C1560 1.399 . S
C1565 C1564 1.394 . S
C1565 C1566 1.516 . S
C1566 C1565 1.516 . S
C1566 C1567 1.502 . S
C1566 C1568 1.561 . S
C1566 C1569 1.526 . S
C1567 H1551 0.959 . S
C1567 H1552 0.959 . S
C1567 H1553 0.961 . S
C1567 C1566 1.502 . S
C1568 H1554 0.960 . S
C1568 H1555 0.961 . S
C1568 H1556 0.959 . S
C1568 C1566 1.561 . S
C1569 C1566 1.526 . S
C1569 C1570 1.396 . S
C1569 C1574 1.390 . S
C1570 C1564 1.465 . S
C1570 C1569 1.396 . S
C1570 C1571 1.399 . S
C1571 H1557 0.929 . S
C1571 C1570 1.399 . S
C1571 C1572 1.385 . S
C1572 H1558 0.931 . S
C1572 C1571 1.385 . S
C1572 C1573 1.389 . S
C1573 C1572 1.389 . S
C1573 C1574 1.387 . S
C1574 H1559 0.930 . S
C1574 C1569 1.390 . S
C1574 C1573 1.387 . S
H1575 C1587 0.930 . S
H1576 C1589 0.930 . S
H1577 C1590 0.930 . S
H1578 C1594 0.959 . S
H1579 C1594 0.959 . S
H1580 C1594 0.961 1_565 S
H1581 C1595 0.960 . S
H1582 C1595 0.961 1_545 S
H1583 C1595 0.959 . S
H1584 C1598 0.929 . S
H1585 C1599 0.931 . S
H1586 C1601 0.930 . S
C1587 H1575 0.930 . S
C1587 C1588 1.399 . S
C1587 C1592 1.399 . S
C1588 C1587 1.399 . S
C1588 C1589 1.376 . S
C1589 H1576 0.930 . S
C1589 C1588 1.376 . S
C1589 C1590 1.388 . S
C1590 H1577 0.930 . S
C1590 C1589 1.388 . S
C1590 C1591 1.390 . S
C1591 C1590 1.390 . S
C1591 C1592 1.394 . S
C1591 C1597 1.465 1_565 S
C1592 C1587 1.399 . S
C1592 C1591 1.394 . S
C1592 C1593 1.579 . S
C1593 C1592 1.579 . S
C1593 C1594 1.469 1_565 S
C1593 C1595 1.562 . S
C1593 C1596 1.503 1_565 S
C1594 H1578 0.959 . S
C1594 H1579 0.959 . S
C1594 H1580 0.961 1_545 S
C1594 C1593 1.469 1_545 S
C1595 H1581 0.960 . S
C1595 H1582 0.961 1_565 S
C1595 H1583 0.959 . S
C1595 C1593 1.562 . S
C1596 C1593 1.503 1_545 S
C1596 C1597 1.396 . S
C1596 C1601 1.390 . S
C1597 C1591 1.465 1_545 S
C1597 C1596 1.396 . S
C1597 C1598 1.399 . S
C1598 H1584 0.929 . S
C1598 C1597 1.399 . S
C1598 C1599 1.385 . S
C1599 H1585 0.931 . S
C1599 C1598 1.385 . S
C1599 C1600 1.389 . S
C1600 C1599 1.389 . S
C1600 C1601 1.387 . S
C1601 H1586 0.930 . S
C1601 C1596 1.390 . S
C1601 C1600 1.387 . S
H1602 C1614 0.930 . S
H1603 C1616 0.930 . S
H1604 C1617 0.930 . S
H1605 C1621 0.959 . S
H1606 C1621 0.959 . S
H1607 C1621 0.961 1_655 S
H1608 C1622 0.960 1_655 S
H1609 C1622 0.961 . S
H1610 C1622 0.959 . S
H1611 C1625 0.929 . S
H1612 C1626 0.931 . S
H1613 C1628 0.930 . S
C1614 H1602 0.930 . S
C1614 C1615 1.399 . S
C1614 C1619 1.399 . S
C1615 C1614 1.399 . S
C1615 C1616 1.376 . S
C1616 H1603 0.930 . S
C1616 C1615 1.376 . S
C1616 C1617 1.388 . S
C1617 H1604 0.930 . S
C1617 C1616 1.388 . S
C1617 C1618 1.390 . S
C1618 C1617 1.390 . S
C1618 C1619 1.394 . S
C1618 C1624 1.465 1_655 S
C1619 C1614 1.399 . S
C1619 C1618 1.394 . S
C1619 C1620 1.516 1_655 S
C1620 C1619 1.516 1_455 S
C1620 C1621 1.502 . S
C1620 C1622 1.561 . S
C1620 C1623 1.526 . S
C1621 H1605 0.959 . S
C1621 H1606 0.959 . S
C1621 H1607 0.961 1_455 S
C1621 C1620 1.502 . S
C1622 H1608 0.960 1_455 S
C1622 H1609 0.961 . S
C1622 H1610 0.959 . S
C1622 C1620 1.561 . S
C1623 C1620 1.526 . S
C1623 C1624 1.396 . S
C1623 C1628 1.390 . S
C1624 C1618 1.465 1_455 S
C1624 C1623 1.396 . S
C1624 C1625 1.399 . S
C1625 H1611 0.929 . S
C1625 C1624 1.399 . S
C1625 C1626 1.385 . S
C1626 H1612 0.931 . S
C1626 C1625 1.385 . S
C1626 C1627 1.389 . S
C1627 C1626 1.389 . S
C1627 C1628 1.387 . S
C1628 H1613 0.930 . S
C1628 C1623 1.390 . S
C1628 C1627 1.387 . S
H1629 C1641 0.930 . S
H1630 C1643 0.930 . S
H1631 C1644 0.930 . S
H1632 C1648 0.959 . S
H1633 C1648 0.959 . S
H1634 C1648 0.961 . S
H1635 C1649 0.960 . S
H1636 C1649 0.961 . S
H1637 C1649 0.959 . S
H1638 C1652 0.929 . S
H1639 C1653 0.931 . S
H1640 C1655 0.930 . S
C1641 H1629 0.930 . S
C1641 C1642 1.399 . S
C1641 C1646 1.399 . S
C1642 C1641 1.399 . S
C1642 C1643 1.376 . S
C1643 H1630 0.930 . S
C1643 C1642 1.376 . S
C1643 C1644 1.388 . S
C1644 H1631 0.930 . S
C1644 C1643 1.388 . S
C1644 C1645 1.390 . S
C1645 C1644 1.390 . S
C1645 C1646 1.394 . S
C1645 C1651 1.465 . S
C1646 C1641 1.399 . S
C1646 C1645 1.394 . S
C1646 C1647 1.516 . S
C1647 C1646 1.516 . S
C1647 C1648 1.502 . S
C1647 C1649 1.561 . S
C1647 C1650 1.526 . S
C1648 H1632 0.959 . S
C1648 H1633 0.959 . S
C1648 H1634 0.961 . S
C1648 C1647 1.502 . S
C1649 H1635 0.960 . S
C1649 H1636 0.961 . S
C1649 H1637 0.959 . S
C1649 C1647 1.561 . S
C1650 C1647 1.526 . S
C1650 C1651 1.396 . S
C1650 C1655 1.390 . S
C1651 C1645 1.465 . S
C1651 C1650 1.396 . S
C1651 C1652 1.399 . S
C1652 H1638 0.929 . S
C1652 C1651 1.399 . S
C1652 C1653 1.385 . S
C1653 H1639 0.931 . S
C1653 C1652 1.385 . S
C1653 C1654 1.389 . S
C1654 C1653 1.389 . S
C1654 C1655 1.387 . S
C1655 H1640 0.930 . S
C1655 C1650 1.390 . S
C1655 C1654 1.387 . S
H1656 C1668 0.930 . S
H1657 C1670 0.930 . S
H1658 C1671 0.930 . S
H1659 C1675 0.959 . S
H1660 C1675 0.959 . S
H1661 C1675 0.961 1_565 S
H1662 C1676 0.877 1_565 S
H1663 C1676 0.961 . S
H1664 C1676 0.959 . S
H1665 C1679 0.929 . S
H1666 C1680 0.931 . S
H1667 C1682 0.930 . S
C1668 H1656 0.930 . S
C1668 C1669 1.399 . S
C1668 C1673 1.399 . S
C1669 C1668 1.399 . S
C1669 C1670 1.376 . S
C1670 H1657 0.930 . S
C1670 C1669 1.376 . S
C1670 C1671 1.388 . S
C1671 H1658 0.930 . S
C1671 C1670 1.388 . S
C1671 C1672 1.390 . S
C1672 C1671 1.390 . S
C1672 C1673 1.394 . S
C1672 C1678 1.465 1_565 S
C1673 C1668 1.399 . S
C1673 C1672 1.394 . S
C1673 C1674 1.516 1_565 S
C1674 C1673 1.516 1_545 S
C1674 C1675 1.502 . S
C1674 C1676 1.561 . S
C1674 C1677 1.526 . S
C1675 H1659 0.959 . S
C1675 H1660 0.959 . S
C1675 H1661 0.961 1_545 S
C1675 C1674 1.502 . S
C1676 H1662 0.877 1_545 S
C1676 H1663 0.961 . S
C1676 H1664 0.959 . S
C1676 C1674 1.561 . S
C1677 C1674 1.526 . S
C1677 C1678 1.396 . S
C1677 C1682 1.390 . S
C1678 C1672 1.465 1_545 S
C1678 C1677 1.396 . S
C1678 C1679 1.399 . S
C1679 H1665 0.929 . S
C1679 C1678 1.399 . S
C1679 C1680 1.385 . S
C1680 H1666 0.931 . S
C1680 C1679 1.385 . S
C1680 C1681 1.389 . S
C1681 C1680 1.389 . S
C1681 C1682 1.387 . S
C1682 H1667 0.930 . S
C1682 C1677 1.390 . S
C1682 C1681 1.387 . S
H1683 C1695 0.930 . S
H1684 C1697 0.930 . S
H1685 C1698 0.930 . S
H1686 C1702 0.959 . S
H1687 C1702 0.959 . S
H1688 C1702 0.961 1_655 S
H1689 C1703 0.960 1_655 S
H1690 C1703 0.961 . S
H1691 C1703 0.959 . S
H1692 C1706 0.929 . S
H1693 C1707 0.931 . S
H1694 C1709 0.930 . S
C1695 H1683 0.930 . S
C1695 C1696 1.399 . S
C1695 C1700 1.399 . S
C1696 C1695 1.399 . S
C1696 C1697 1.376 . S
C1697 H1684 0.930 . S
C1697 C1696 1.376 . S
C1697 C1698 1.388 . S
C1698 H1685 0.930 . S
C1698 C1697 1.388 . S
C1698 C1699 1.390 . S
C1699 C1698 1.390 . S
C1699 C1700 1.394 . S
C1699 C1705 1.465 1_655 S
C1700 C1695 1.399 . S
C1700 C1699 1.394 . S
C1700 C1701 1.516 1_655 S
C1701 C1700 1.516 1_455 S
C1701 C1702 1.502 . S
C1701 C1703 1.561 . S
C1701 C1704 1.526 . S
C1702 H1686 0.959 . S
C1702 H1687 0.959 . S
C1702 H1688 0.961 1_455 S
C1702 C1701 1.502 . S
C1703 H1689 0.960 1_455 S
C1703 H1690 0.961 . S
C1703 H1691 0.959 . S
C1703 C1701 1.561 . S
C1704 C1701 1.526 . S
C1704 C1705 1.396 . S
C1704 C1709 1.390 . S
C1705 C1699 1.465 1_455 S
C1705 C1704 1.396 . S
C1705 C1706 1.399 . S
C1706 H1692 0.929 . S
C1706 C1705 1.399 . S
C1706 C1707 1.385 . S
C1707 H1693 0.931 . S
C1707 C1706 1.385 . S
C1707 C1708 1.389 . S
C1708 C1707 1.389 . S
C1708 C1709 1.387 . S
C1709 H1694 0.930 . S
C1709 C1704 1.390 . S
C1709 C1708 1.387 . S
H1710 C1722 0.930 . S
H1711 C1724 0.930 . S
H1712 C1725 0.930 . S
H1713 C1729 0.959 . S
H1714 C1729 0.959 . S
H1715 C1729 0.961 . S
H1716 C1730 0.960 . S
H1717 C1730 0.961 . S
H1718 C1730 0.959 . S
H1719 C1733 0.929 . S
H1720 C1734 0.931 . S
H1721 C1736 0.930 . S
C1722 H1710 0.930 . S
C1722 C1723 1.399 . S
C1722 C1727 1.399 . S
C1723 C1722 1.399 . S
C1723 C1724 1.376 . S
C1724 H1711 0.930 . S
C1724 C1723 1.376 . S
C1724 C1725 1.388 . S
C1725 H1712 0.930 . S
C1725 C1724 1.388 . S
C1725 C1726 1.390 . S
C1726 C1725 1.390 . S
C1726 C1727 1.394 . S
C1726 C1732 1.465 . S
C1727 C1722 1.399 . S
C1727 C1726 1.394 . S
C1727 C1728 1.516 . S
C1728 C1727 1.516 . S
C1728 C1729 1.502 . S
C1728 C1730 1.561 . S
C1728 C1731 1.526 . S
C1729 H1713 0.959 . S
C1729 H1714 0.959 . S
C1729 H1715 0.961 . S
C1729 C1728 1.502 . S
C1730 H1716 0.960 . S
C1730 H1717 0.961 . S
C1730 H1718 0.959 . S
C1730 C1728 1.561 . S
C1731 C1728 1.526 . S
C1731 C1732 1.396 . S
C1731 C1736 1.390 . S
C1732 C1726 1.465 . S
C1732 C1731 1.396 . S
C1732 C1733 1.399 . S
C1733 H1719 0.929 . S
C1733 C1732 1.399 . S
C1733 C1734 1.385 . S
C1734 H1720 0.931 . S
C1734 C1733 1.385 . S
C1734 C1735 1.389 . S
C1735 C1734 1.389 . S
C1735 C1736 1.387 . S
C1736 H1721 0.930 . S
C1736 C1731 1.390 . S
C1736 C1735 1.387 . S
H1737 C1749 0.930 . S
H1738 C1751 0.930 . S
H1739 C1752 0.930 . S
H1740 C1756 0.959 . S
H1741 C1756 0.959 . S
H1742 C1756 0.961 . S
H1743 C1757 0.960 . S
H1744 C1757 0.961 . S
H1745 C1757 0.959 . S
H1746 C1760 0.929 . S
H1747 C1761 0.931 . S
H1748 C1763 0.930 . S
C1749 H1737 0.930 . S
C1749 C1750 1.399 . S
C1749 C1754 1.399 . S
C1750 C1749 1.399 . S
C1750 C1751 1.376 . S
C1751 H1738 0.930 . S
C1751 C1750 1.376 . S
C1751 C1752 1.388 . S
C1752 H1739 0.930 . S
C1752 C1751 1.388 . S
C1752 C1753 1.390 . S
C1753 C1752 1.390 . S
C1753 C1754 1.394 . S
C1753 C1759 1.465 . S
C1754 C1749 1.399 . S
C1754 C1753 1.394 . S
C1754 C1755 1.516 . S
C1755 C1754 1.516 . S
C1755 C1756 1.502 . S
C1755 C1757 1.561 . S
C1755 C1758 1.526 . S
C1756 H1740 0.959 . S
C1756 H1741 0.959 . S
C1756 H1742 0.961 . S
C1756 C1755 1.502 . S
C1757 H1743 0.960 . S
C1757 H1744 0.961 . S
C1757 H1745 0.959 . S
C1757 C1755 1.561 . S
C1758 C1755 1.526 . S
C1758 C1759 1.396 . S
C1758 C1763 1.390 . S
C1759 C1753 1.465 . S
C1759 C1758 1.396 . S
C1759 C1760 1.399 . S
C1760 H1746 0.929 . S
C1760 C1759 1.399 . S
C1760 C1761 1.385 . S
C1761 H1747 0.931 . S
C1761 C1760 1.385 . S
C1761 C1762 1.389 . S
C1762 C1761 1.389 . S
C1762 C1763 1.387 . S
C1763 H1748 0.930 . S
C1763 C1758 1.390 . S
C1763 C1762 1.387 . S
H1764 C1776 0.930 . S
H1765 C1778 0.930 . S
H1766 C1779 0.930 . S
H1767 C1783 0.959 . S
H1768 C1783 0.959 . S
H1769 C1783 0.961 . S
H1770 C1784 0.960 . S
H1771 C1784 0.961 . S
H1772 C1784 0.959 . S
H1773 C1787 0.929 . S
H1774 C1788 0.931 . S
H1775 C1790 0.930 . S
C1776 H1764 0.930 . S
C1776 C1777 1.399 . S
C1776 C1781 1.399 . S
C1777 C1776 1.399 . S
C1777 C1778 1.376 . S
C1778 H1765 0.930 . S
C1778 C1777 1.376 . S
C1778 C1779 1.388 . S
C1779 H1766 0.930 . S
C1779 C1778 1.388 . S
C1779 C1780 1.390 . S
C1780 C1779 1.390 . S
C1780 C1781 1.394 . S
C1780 C1786 1.465 . S
C1781 C1776 1.399 . S
C1781 C1780 1.394 . S
C1781 C1782 1.516 . S
C1782 C1781 1.516 . S
C1782 C1783 1.502 . S
C1782 C1784 1.561 . S
C1782 C1785 1.526 . S
C1783 H1767 0.959 . S
C1783 H1768 0.959 . S
C1783 H1769 0.961 . S
C1783 C1782 1.502 . S
C1784 H1770 0.960 . S
C1784 H1771 0.961 . S
C1784 H1772 0.959 . S
C1784 C1782 1.561 . S
C1785 C1782 1.526 . S
C1785 C1786 1.396 . S
C1785 C1790 1.390 . S
C1786 C1780 1.465 . S
C1786 C1785 1.396 . S
C1786 C1787 1.399 . S
C1787 H1773 0.929 . S
C1787 C1786 1.399 . S
C1787 C1788 1.385 . S
C1788 H1774 0.931 . S
C1788 C1787 1.385 . S
C1788 C1789 1.389 . S
C1789 C1788 1.389 . S
C1789 C1790 1.387 . S
C1790 H1775 0.930 . S
C1790 C1785 1.390 . S
C1790 C1789 1.387 . S
H1791 C1803 0.930 . S
H1792 C1805 0.930 . S
H1793 C1806 0.930 . S
H1794 C1810 0.959 . S
H1795 C1810 0.959 . S
H1796 C1810 0.961 . S
H1797 C1811 0.960 . S
H1798 C1811 0.961 . S
H1799 C1811 0.959 . S
H1800 C1814 0.929 . S
H1801 C1815 0.931 . S
H1802 C1817 0.930 . S
C1803 H1791 0.930 . S
C1803 C1804 1.399 . S
C1803 C1808 1.399 . S
C1804 C1803 1.399 . S
C1804 C1805 1.376 . S
C1805 H1792 0.930 . S
C1805 C1804 1.376 . S
C1805 C1806 1.388 . S
C1806 H1793 0.930 . S
C1806 C1805 1.388 . S
C1806 C1807 1.390 . S
C1807 C1806 1.390 . S
C1807 C1808 1.394 . S
C1807 C1813 1.465 . S
C1808 C1803 1.399 . S
C1808 C1807 1.394 . S
C1808 C1809 1.516 . S
C1809 C1808 1.516 . S
C1809 C1810 1.502 . S
C1809 C1811 1.561 . S
C1809 C1812 1.526 . S
C1810 H1794 0.959 . S
C1810 H1795 0.959 . S
C1810 H1796 0.961 . S
C1810 C1809 1.502 . S
C1811 H1797 0.960 . S
C1811 H1798 0.961 . S
C1811 H1799 0.959 . S
C1811 C1809 1.561 . S
C1812 C1809 1.526 . S
C1812 C1813 1.396 . S
C1812 C1817 1.390 . S
C1813 C1807 1.465 . S
C1813 C1812 1.396 . S
C1813 C1814 1.399 . S
C1814 H1800 0.929 . S
C1814 C1813 1.399 . S
C1814 C1815 1.385 . S
C1815 H1801 0.931 . S
C1815 C1814 1.385 . S
C1815 C1816 1.389 . S
C1816 C1815 1.389 . S
C1816 C1817 1.387 . S
C1817 H1802 0.930 . S
C1817 C1812 1.390 . S
C1817 C1816 1.387 . S
H1818 C1830 0.930 . S
H1819 C1832 0.930 . S
H1820 C1833 0.930 . S
H1821 C1837 0.959 . S
H1822 C1837 0.959 . S
H1823 C1837 0.961 . S
H1824 C1838 0.960 . S
H1825 C1838 0.961 . S
H1826 C1838 0.959 . S
H1827 C1841 0.929 . S
H1828 C1842 0.931 . S
H1829 C1844 0.930 . S
C1830 H1818 0.930 . S
C1830 C1831 1.399 . S
C1830 C1835 1.399 . S
C1831 C1830 1.399 . S
C1831 C1832 1.376 . S
C1832 H1819 0.930 . S
C1832 C1831 1.376 . S
C1832 C1833 1.388 . S
C1833 H1820 0.930 . S
C1833 C1832 1.388 . S
C1833 C1834 1.390 . S
C1834 C1833 1.390 . S
C1834 C1835 1.394 . S
C1834 C1840 1.465 . S
C1835 C1830 1.399 . S
C1835 C1834 1.394 . S
C1835 C1836 1.516 . S
C1836 C1835 1.516 . S
C1836 C1837 1.502 . S
C1836 C1838 1.561 . S
C1836 C1839 1.526 . S
C1837 H1821 0.959 . S
C1837 H1822 0.959 . S
C1837 H1823 0.961 . S
C1837 C1836 1.502 . S
C1838 H1824 0.960 . S
C1838 H1825 0.961 . S
C1838 H1826 0.959 . S
C1838 C1836 1.561 . S
C1839 C1836 1.526 . S
C1839 C1840 1.396 . S
C1839 C1844 1.390 . S
C1840 C1834 1.465 . S
C1840 C1839 1.396 . S
C1840 C1841 1.399 . S
C1841 H1827 0.929 . S
C1841 C1840 1.399 . S
C1841 C1842 1.385 . S
C1842 H1828 0.931 . S
C1842 C1841 1.385 . S
C1842 C1843 1.389 . S
C1843 C1842 1.389 . S
C1843 C1844 1.387 . S
C1844 H1829 0.930 . S
C1844 C1839 1.390 . S
C1844 C1843 1.387 . S
H1845 C1857 0.930 . S
H1846 C1859 0.930 . S
H1847 C1860 0.930 . S
H1848 C1864 0.959 . S
H1849 C1864 0.959 . S
H1850 C1864 0.961 . S
H1851 C1865 0.960 . S
H1852 C1865 0.961 . S
H1853 C1865 0.959 . S
H1854 C1868 0.929 . S
H1855 C1869 0.931 . S
H1856 C1871 0.930 . S
C1857 H1845 0.930 . S
C1857 C1858 1.399 . S
C1857 C1862 1.399 . S
C1858 C1857 1.399 . S
C1858 C1859 1.376 . S
C1859 H1846 0.930 . S
C1859 C1858 1.376 . S
C1859 C1860 1.388 . S
C1860 H1847 0.930 . S
C1860 C1859 1.388 . S
C1860 C1861 1.390 . S
C1861 C1860 1.390 . S
C1861 C1862 1.394 . S
C1861 C1867 1.465 . S
C1862 C1857 1.399 . S
C1862 C1861 1.394 . S
C1862 C1863 1.516 . S
C1863 C1862 1.516 . S
C1863 C1864 1.502 . S
C1863 C1865 1.561 . S
C1863 C1866 1.526 . S
C1864 H1848 0.959 . S
C1864 H1849 0.959 . S
C1864 H1850 0.961 . S
C1864 C1863 1.502 . S
C1865 H1851 0.960 . S
C1865 H1852 0.961 . S
C1865 H1853 0.959 . S
C1865 C1863 1.561 . S
C1866 C1863 1.526 . S
C1866 C1867 1.396 . S
C1866 C1871 1.390 . S
C1867 C1861 1.465 . S
C1867 C1866 1.396 . S
C1867 C1868 1.399 . S
C1868 H1854 0.929 . S
C1868 C1867 1.399 . S
C1868 C1869 1.385 . S
C1869 H1855 0.931 . S
C1869 C1868 1.385 . S
C1869 C1870 1.389 . S
C1870 C1869 1.389 . S
C1870 C1871 1.387 . S
C1871 H1856 0.930 . S
C1871 C1866 1.390 . S
C1871 C1870 1.387 . S
H1872 C1884 0.930 . S
H1873 C1886 0.930 . S
H1874 C1887 0.930 . S
H1875 C1891 0.959 . S
H1876 C1891 0.959 . S
H1877 C1891 0.961 . S
H1878 C1892 0.960 . S
H1879 C1892 0.961 . S
H1880 C1892 0.959 . S
H1881 C1895 0.929 . S
H1882 C1896 0.931 . S
H1883 C1898 0.930 . S
C1884 H1872 0.930 . S
C1884 C1885 1.399 . S
C1884 C1889 1.399 . S
C1885 C1884 1.399 . S
C1885 C1886 1.376 . S
C1886 H1873 0.930 . S
C1886 C1885 1.376 . S
C1886 C1887 1.388 . S
C1887 H1874 0.930 . S
C1887 C1886 1.388 . S
C1887 C1888 1.390 . S
C1888 C1887 1.390 . S
C1888 C1889 1.394 . S
C1888 C1894 1.465 . S
C1889 C1884 1.399 . S
C1889 C1888 1.394 . S
C1889 C1890 1.516 . S
C1890 C1889 1.516 . S
C1890 C1891 1.502 . S
C1890 C1892 1.561 . S
C1890 C1893 1.526 . S
C1891 H1875 0.959 . S
C1891 H1876 0.959 . S
C1891 H1877 0.961 . S
C1891 C1890 1.502 . S
C1892 H1878 0.960 . S
C1892 H1879 0.961 . S
C1892 H1880 0.959 . S
C1892 C1890 1.561 . S
C1893 C1890 1.526 . S
C1893 C1894 1.396 . S
C1893 C1898 1.390 . S
C1894 C1888 1.465 . S
C1894 C1893 1.396 . S
C1894 C1895 1.399 . S
C1895 H1881 0.929 . S
C1895 C1894 1.399 . S
C1895 C1896 1.385 . S
C1896 H1882 0.931 . S
C1896 C1895 1.385 . S
C1896 C1897 1.389 . S
C1897 C1896 1.389 . S
C1897 C1898 1.387 . S
C1898 H1883 0.930 . S
C1898 C1893 1.390 . S
C1898 C1897 1.387 . S
H1899 C1911 0.930 . S
H1900 C1913 0.930 . S
H1901 C1914 0.930 . S
H1902 C1918 0.959 . S
H1903 C1918 0.959 . S
H1904 C1918 0.961 . S
H1905 C1919 0.960 . S
H1906 C1919 0.961 . S
H1907 C1919 0.959 . S
H1908 C1922 0.929 . S
H1909 C1923 0.931 . S
H1910 C1925 0.930 . S
C1911 H1899 0.930 . S
C1911 C1912 1.399 . S
C1911 C1916 1.399 . S
C1912 C1911 1.399 . S
C1912 C1913 1.376 . S
C1913 H1900 0.930 . S
C1913 C1912 1.376 . S
C1913 C1914 1.388 . S
C1914 H1901 0.930 . S
C1914 C1913 1.388 . S
C1914 C1915 1.390 . S
C1915 C1914 1.390 . S
C1915 C1916 1.394 . S
C1915 C1921 1.465 . S
C1916 C1911 1.399 . S
C1916 C1915 1.394 . S
C1916 C1917 1.516 . S
C1917 C1916 1.516 . S
C1917 C1918 1.502 . S
C1917 C1919 1.561 . S
C1917 C1920 1.526 . S
C1918 H1902 0.959 . S
C1918 H1903 0.959 . S
C1918 H1904 0.961 . S
C1918 C1917 1.502 . S
C1919 H1905 0.960 . S
C1919 H1906 0.961 . S
C1919 H1907 0.959 . S
C1919 C1917 1.561 . S
C1920 C1917 1.526 . S
C1920 C1921 1.396 . S
C1920 C1925 1.390 . S
C1921 C1915 1.465 . S
C1921 C1920 1.396 . S
C1921 C1922 1.399 . S
C1922 H1908 0.929 . S
C1922 C1921 1.399 . S
C1922 C1923 1.385 . S
C1923 H1909 0.931 . S
C1923 C1922 1.385 . S
C1923 C1924 1.389 . S
C1924 C1923 1.389 . S
C1924 C1925 1.387 . S
C1925 H1910 0.930 . S
C1925 C1920 1.390 . S
C1925 C1924 1.387 . S
H1926 C1938 0.930 . S
H1927 C1940 0.930 . S
H1928 C1941 0.930 . S
H1929 C1945 0.959 . S
H1930 C1945 0.959 . S
H1931 C1945 0.961 . S
H1932 C1946 0.960 . S
H1933 C1946 0.961 . S
H1934 C1946 0.959 . S
H1935 C1949 0.929 . S
H1936 C1950 0.931 . S
H1937 C1952 0.930 . S
C1938 H1926 0.930 . S
C1938 C1939 1.399 . S
C1938 C1943 1.399 . S
C1939 C1938 1.399 . S
C1939 C1940 1.376 . S
C1940 H1927 0.930 . S
C1940 C1939 1.376 . S
C1940 C1941 1.388 . S
C1941 H1928 0.930 . S
C1941 C1940 1.388 . S
C1941 C1942 1.390 . S
C1942 C1941 1.390 . S
C1942 C1943 1.394 . S
C1942 C1948 1.465 . S
C1943 C1938 1.399 . S
C1943 C1942 1.394 . S
C1943 C1944 1.516 . S
C1944 C1943 1.516 . S
C1944 C1945 1.502 . S
C1944 C1946 1.561 . S
C1944 C1947 1.526 . S
C1945 H1929 0.959 . S
C1945 H1930 0.959 . S
C1945 H1931 0.961 . S
C1945 C1944 1.502 . S
C1946 H1932 0.960 . S
C1946 H1933 0.961 . S
C1946 H1934 0.959 . S
C1946 C1944 1.561 . S
C1947 C1944 1.526 . S
C1947 C1948 1.396 . S
C1947 C1952 1.390 . S
C1948 C1942 1.465 . S
C1948 C1947 1.396 . S
C1948 C1949 1.399 . S
C1949 H1935 0.929 . S
C1949 C1948 1.399 . S
C1949 C1950 1.385 . S
C1950 H1936 0.931 . S
C1950 C1949 1.385 . S
C1950 C1951 1.389 . S
C1951 C1950 1.389 . S
C1951 C1952 1.387 . S
C1952 H1937 0.930 . S
C1952 C1947 1.390 . S
C1952 C1951 1.387 . S
H1953 C1965 0.930 . S
H1954 C1967 0.930 . S
H1955 C1968 0.930 . S
H1956 C1972 0.959 . S
H1957 C1972 0.959 . S
H1958 C1972 0.961 . S
H1959 C1973 0.960 . S
H1960 C1973 0.961 . S
H1961 C1973 0.959 . S
H1962 C1976 0.929 . S
H1963 C1977 0.931 . S
H1964 C1979 0.930 . S
C1965 H1953 0.930 . S
C1965 C1966 1.399 . S
C1965 C1970 1.399 . S
C1966 C1965 1.399 . S
C1966 C1967 1.376 . S
C1967 H1954 0.930 . S
C1967 C1966 1.376 . S
C1967 C1968 1.388 . S
C1968 H1955 0.930 . S
C1968 C1967 1.388 . S
C1968 C1969 1.390 . S
C1969 C1968 1.390 . S
C1969 C1970 1.394 . S
C1969 C1975 1.465 . S
C1970 C1965 1.399 . S
C1970 C1969 1.394 . S
C1970 C1971 1.516 . S
C1971 C1970 1.516 . S
C1971 C1972 1.502 . S
C1971 C1973 1.561 . S
C1971 C1974 1.526 . S
C1972 H1956 0.959 . S
C1972 H1957 0.959 . S
C1972 H1958 0.961 . S
C1972 C1971 1.502 . S
C1973 H1959 0.960 . S
C1973 H1960 0.961 . S
C1973 H1961 0.959 . S
C1973 C1971 1.561 . S
C1974 C1971 1.526 . S
C1974 C1975 1.396 . S
C1974 C1979 1.390 . S
C1975 C1969 1.465 . S
C1975 C1974 1.396 . S
C1975 C1976 1.399 . S
C1976 H1962 0.929 . S
C1976 C1975 1.399 . S
C1976 C1977 1.385 . S
C1977 H1963 0.931 . S
C1977 C1976 1.385 . S
C1977 C1978 1.389 . S
C1978 C1977 1.389 . S
C1978 C1979 1.387 . S
C1979 H1964 0.930 . S
C1979 C1974 1.390 . S
C1979 C1978 1.387 . S
H1980 C1992 0.930 . S
H1981 C1994 0.930 . S
H1982 C1995 0.930 . S
H1983 C1999 0.959 . S
H1984 C1999 0.959 . S
H1985 C1999 0.961 . S
H1986 C2000 0.960 . S
H1987 C2000 0.961 . S
H1988 C2000 0.959 . S
H1989 C2003 0.929 . S
H1990 C2004 0.931 . S
H1991 C2006 0.930 . S
C1992 H1980 0.930 . S
C1992 C1993 1.399 . S
C1992 C1997 1.399 . S
C1993 C1992 1.399 . S
C1993 C1994 1.376 . S
C1994 H1981 0.930 . S
C1994 C1993 1.376 . S
C1994 C1995 1.388 . S
C1995 H1982 0.930 . S
C1995 C1994 1.388 . S
C1995 C1996 1.390 . S
C1996 C1995 1.390 . S
C1996 C1997 1.394 . S
C1996 C2002 1.465 . S
C1997 C1992 1.399 . S
C1997 C1996 1.394 . S
C1997 C1998 1.516 . S
C1998 C1997 1.516 . S
C1998 C1999 1.502 . S
C1998 C2000 1.561 . S
C1998 C2001 1.526 . S
C1999 H1983 0.959 . S
C1999 H1984 0.959 . S
C1999 H1985 0.961 . S
C1999 C1998 1.502 . S
C2000 H1986 0.960 . S
C2000 H1987 0.961 . S
C2000 H1988 0.959 . S
C2000 C1998 1.561 . S
C2001 C1998 1.526 . S
C2001 C2002 1.396 . S
C2001 C2006 1.390 . S
C2002 C1996 1.465 . S
C2002 C2001 1.396 . S
C2002 C2003 1.399 . S
C2003 H1989 0.929 . S
C2003 C2002 1.399 . S
C2003 C2004 1.385 . S
C2004 H1990 0.931 . S
C2004 C2003 1.385 . S
C2004 C2005 1.389 . S
C2005 C2004 1.389 . S
C2005 C2006 1.387 . S
C2006 H1991 0.930 . S
C2006 C2001 1.390 . S
C2006 C2005 1.387 . S
H2007 C2019 0.930 . S
H2008 C2021 0.930 . S
H2009 C2022 0.930 . S
H2010 C2026 0.959 . S
H2011 C2026 0.959 . S
H2012 C2026 0.961 . S
H2013 C2027 0.960 . S
H2014 C2027 0.961 . S
H2015 C2027 0.959 . S
H2016 C2030 0.929 . S
H2017 C2031 0.931 . S
H2018 C2033 0.930 . S
C2019 H2007 0.930 . S
C2019 C2020 1.399 . S
C2019 C2024 1.399 . S
C2020 C2019 1.399 . S
C2020 C2021 1.376 . S
C2021 H2008 0.930 . S
C2021 C2020 1.376 . S
C2021 C2022 1.388 . S
C2022 H2009 0.930 . S
C2022 C2021 1.388 . S
C2022 C2023 1.390 . S
C2023 C2022 1.390 . S
C2023 C2024 1.394 . S
C2023 C2029 1.465 . S
C2024 C2019 1.399 . S
C2024 C2023 1.394 . S
C2024 C2025 1.516 . S
C2025 C2024 1.516 . S
C2025 C2026 1.502 . S
C2025 C2027 1.561 . S
C2025 C2028 1.526 . S
C2026 H2010 0.959 . S
C2026 H2011 0.959 . S
C2026 H2012 0.961 . S
C2026 C2025 1.502 . S
C2027 H2013 0.960 . S
C2027 H2014 0.961 . S
C2027 H2015 0.959 . S
C2027 C2025 1.561 . S
C2028 C2025 1.526 . S
C2028 C2029 1.396 . S
C2028 C2033 1.390 . S
C2029 C2023 1.465 . S
C2029 C2028 1.396 . S
C2029 C2030 1.399 . S
C2030 H2016 0.929 . S
C2030 C2029 1.399 . S
C2030 C2031 1.385 . S
C2031 H2017 0.931 . S
C2031 C2030 1.385 . S
C2031 C2032 1.389 . S
C2032 C2031 1.389 . S
C2032 C2033 1.387 . S
C2033 H2018 0.930 . S
C2033 C2028 1.390 . S
C2033 C2032 1.387 . S
H2034 C2046 0.930 1_554 S
H2035 C2048 0.930 . S
H2036 C2049 0.930 . S
H2037 C2053 0.959 . S
H2038 C2053 0.959 . S
H2039 C2053 0.961 . S
H2040 C2054 0.960 . S
H2041 C2054 0.961 1_455 S
H2042 C2054 0.959 1_456 S
H2043 C2057 0.929 . S
H2044 C2058 0.928 1_556 S
H2045 C2060 0.930 . S
C2046 H2034 0.930 1_556 S
C2046 C2047 1.399 . S
C2046 C2051 1.399 . S
C2047 C2046 1.399 . S
C2047 C2048 1.376 . S
C2048 H2035 0.930 . S
C2048 C2047 1.376 . S
C2048 C2049 1.388 . S
C2049 H2036 0.930 . S
C2049 C2048 1.388 . S
C2049 C2050 1.390 . S
C2050 C2049 1.390 . S
C2050 C2051 1.394 . S
C2050 C2056 1.465 1_655 S
C2051 C2046 1.399 . S
C2051 C2050 1.394 . S
C2051 C2052 1.516 1_556 S
C2052 C2051 1.516 1_554 S
C2052 C2053 1.502 . S
C2052 C2054 1.561 . S
C2052 C2055 1.526 1_655 S
C2053 H2037 0.959 . S
C2053 H2038 0.959 . S
C2053 H2039 0.961 . S
C2053 C2052 1.502 . S
C2054 H2040 0.960 . S
C2054 H2041 0.961 1_655 S
C2054 H2042 0.959 1_654 S
C2054 C2052 1.561 . S
C2055 C2052 1.526 1_455 S
C2055 C2056 1.396 1_554 S
C2055 C2060 1.390 . S
C2056 C2050 1.465 1_455 S
C2056 C2055 1.396 1_556 S
C2056 C2057 1.399 . S
C2057 H2043 0.929 . S
C2057 C2056 1.399 . S
C2057 C2058 1.380 1_556 S
C2058 H2044 0.928 1_554 S
C2058 C2057 1.380 1_554 S
C2058 C2059 1.398 . S
C2059 C2058 1.398 . S
C2059 C2060 1.387 . S
C2060 H2045 0.930 . S
C2060 C2055 1.390 . S
C2060 C2059 1.387 . S
H2061 C2073 0.930 1_554 S
H2062 C2075 0.930 . S
H2063 C2076 0.930 . S
H2064 C2080 0.959 . S
H2065 C2080 0.959 . S
H2066 C2080 0.961 . S
H2067 C2081 0.960 . S
H2068 C2081 0.961 . S
H2069 C2081 0.959 . S
H2070 C2084 0.929 . S
H2071 C2085 0.931 1_556 S
H2072 C2087 0.930 . S
C2073 H2061 0.930 1_556 S
C2073 C2074 1.399 . S
C2073 C2078 1.399 1_556 S
C2074 C2073 1.399 . S
C2074 C2075 1.376 . S
C2075 H2062 0.930 . S
C2075 C2074 1.376 . S
C2075 C2076 1.388 . S
C2076 H2063 0.930 . S
C2076 C2075 1.388 . S
C2076 C2077 1.390 . S
C2077 C2076 1.390 . S
C2077 C2078 1.394 1_556 S
C2077 C2083 1.465 . S
C2078 C2073 1.399 1_554 S
C2078 C2077 1.394 1_554 S
C2078 C2079 1.516 . S
C2079 C2078 1.516 . S
C2079 C2080 1.502 . S
C2079 C2081 1.561 . S
C2079 C2082 1.526 . S
C2080 H2064 0.959 . S
C2080 H2065 0.959 . S
C2080 H2066 0.961 . S
C2080 C2079 1.502 . S
C2081 H2067 0.960 . S
C2081 H2068 0.961 . S
C2081 H2069 0.959 . S
C2081 C2079 1.561 . S
C2082 C2079 1.526 . S
C2082 C2083 1.396 1_554 S
C2082 C2087 1.390 . S
C2083 C2077 1.465 . S
C2083 C2082 1.396 1_556 S
C2083 C2084 1.399 . S
C2084 H2070 0.929 . S
C2084 C2083 1.399 . S
C2084 C2085 1.385 1_556 S
C2085 H2071 0.931 1_554 S
C2085 C2084 1.385 1_554 S
C2085 C2086 1.389 . S
C2086 C2085 1.389 . S
C2086 C2087 1.387 . S
C2087 H2072 0.930 . S
C2087 C2082 1.390 . S
C2087 C2086 1.387 . S
H2088 C2100 0.930 . S
H2089 C2102 0.930 . S
H2090 C2103 0.930 . S
H2091 C2107 0.959 . S
H2092 C2107 0.959 1_545 S
H2093 C2107 0.961 . S
H2094 C2108 0.936 1_565 S
H2095 C2108 0.961 . S
H2096 C2108 0.959 . S
H2097 C2111 0.929 . S
H2098 C2112 0.931 . S
H2099 C2114 0.930 . S
C2100 H2088 0.930 . S
C2100 C2101 1.399 . S
C2100 C2105 1.399 . S
C2101 C2100 1.399 . S
C2101 C2102 1.376 . S
C2102 H2089 0.930 . S
C2102 C2101 1.376 . S
C2102 C2103 1.388 . S
C2103 H2090 0.930 . S
C2103 C2102 1.388 . S
C2103 C2104 1.390 . S
C2104 C2103 1.390 . S
C2104 C2105 1.394 . S
C2104 C2110 1.465 1_564 S
C2105 C2100 1.399 . S
C2105 C2104 1.394 . S
C2105 C2106 1.516 1_565 S
C2106 C2105 1.516 1_545 S
C2106 C2107 1.502 1_544 S
C2106 C2108 1.561 . S
C2106 C2109 1.526 1_554 S
C2107 H2091 0.959 . S
C2107 H2092 0.959 1_565 S
C2107 H2093 0.961 . S
C2107 C2106 1.502 1_566 S
C2108 H2094 0.936 1_545 S
C2108 H2095 0.961 . S
C2108 H2096 0.959 . S
C2108 C2106 1.561 . S
C2109 C2106 1.526 1_556 S
C2109 C2110 1.396 . S
C2109 C2114 1.390 . S
C2110 C2104 1.465 1_546 S
C2110 C2109 1.396 . S
C2110 C2111 1.399 . S
C2111 H2097 0.929 . S
C2111 C2110 1.399 . S
C2111 C2112 1.385 . S
C2112 H2098 0.931 . S
C2112 C2111 1.385 . S
C2112 C2113 1.389 . S
C2113 C2112 1.389 . S
C2113 C2114 1.387 . S
C2114 H2099 0.930 . S
C2114 C2109 1.390 . S
C2114 C2113 1.387 . S
H2115 C2127 0.930 1_556 S
H2116 C2129 0.930 . S
H2117 C2130 0.930 . S
H2118 C2134 0.959 . S
H2119 C2134 0.959 . S
H2120 C2134 0.961 . S
H2121 C2135 0.960 . S
H2122 C2135 0.961 . S
H2123 C2135 0.959 . S
H2124 C2138 0.929 . S
H2125 C2139 0.931 . S
H2126 C2141 0.930 . S
C2127 H2115 0.930 1_554 S
C2127 C2128 1.399 . S
C2127 C2132 1.399 1_554 S
C2128 C2127 1.399 . S
C2128 C2129 1.376 . S
C2129 H2116 0.930 . S
C2129 C2128 1.376 . S
C2129 C2130 1.388 . S
C2130 H2117 0.930 . S
C2130 C2129 1.388 . S
C2130 C2131 1.390 . S
C2131 C2130 1.390 . S
C2131 C2132 1.394 1_554 S
C2131 C2137 1.465 1_565 S
C2132 C2127 1.399 1_556 S
C2132 C2131 1.394 1_556 S
C2132 C2133 1.516 . S
C2133 C2132 1.516 . S
C2133 C2134 1.502 . S
C2133 C2135 1.561 . S
C2133 C2136 1.526 1_565 S
C2134 H2118 0.959 . S
C2134 H2119 0.959 . S
C2134 H2120 0.961 . S
C2134 C2133 1.502 . S
C2135 H2121 0.960 . S
C2135 H2122 0.961 . S
C2135 H2123 0.959 . S
C2135 C2133 1.561 . S
C2136 C2133 1.526 1_545 S
C2136 C2137 1.396 1_556 S
C2136 C2141 1.390 . S
C2137 C2131 1.465 1_545 S
C2137 C2136 1.396 1_554 S
C2137 C2138 1.399 . S
C2138 H2124 0.929 . S
C2138 C2137 1.399 . S
C2138 C2139 1.385 . S
C2139 H2125 0.931 . S
C2139 C2138 1.385 . S
C2139 C2140 1.389 1_554 S
C2140 C2139 1.389 1_556 S
C2140 C2141 1.387 . S
C2141 H2126 0.930 . S
C2141 C2136 1.390 . S
C2141 C2140 1.387 . S
H2142 C2154 0.930 . S
H2143 C2156 0.930 . S
H2144 C2157 0.930 . S
H2145 C2161 0.959 . S
H2146 C2161 0.959 . S
H2147 C2161 0.957 . S
H2148 C2162 0.960 . S
H2149 C2162 0.961 1_455 S
H2150 C2162 0.959 . S
H2151 C2165 0.929 . S
H2152 C2166 0.931 . S
H2153 C2168 0.930 . S
C2154 H2142 0.930 . S
C2154 C2155 1.399 . S
C2154 C2159 1.399 . S
C2155 C2154 1.399 . S
C2155 C2156 1.376 . S
C2156 H2143 0.930 . S
C2156 C2155 1.376 . S
C2156 C2157 1.388 1_556 S
C2157 H2144 0.930 . S
C2157 C2156 1.388 1_554 S
C2157 C2158 1.390 . S
C2158 C2157 1.390 . S
C2158 C2159 1.394 1_554 S
C2158 C2164 1.465 1_655 S
C2159 C2154 1.399 . S
C2159 C2158 1.394 1_556 S
C2159 C2160 1.516 1_655 S
C2160 C2159 1.516 1_455 S
C2160 C2161 1.502 . S
C2160 C2162 1.561 1_456 S
C2160 C2163 1.526 1_556 S
C2161 H2145 0.959 . S
C2161 H2146 0.959 . S
C2161 H2147 0.957 . S
C2161 C2160 1.502 . S
C2162 H2148 0.960 . S
C2162 H2149 0.961 1_655 S
C2162 H2150 0.959 . S
C2162 C2160 1.561 1_654 S
C2163 C2160 1.526 1_554 S
C2163 C2164 1.396 . S
C2163 C2168 1.390 . S
C2164 C2158 1.465 1_455 S
C2164 C2163 1.396 . S
C2164 C2165 1.399 . S
C2165 H2151 0.929 . S
C2165 C2164 1.399 . S
C2165 C2166 1.385 . S
C2166 H2152 0.931 . S
C2166 C2165 1.385 . S
C2166 C2167 1.389 . S
C2167 C2166 1.389 . S
C2167 C2168 1.387 . S
C2168 H2153 0.930 . S
C2168 C2163 1.390 . S
C2168 C2167 1.387 . S
H2169 C2181 0.930 1_554 S
H2170 C2183 0.930 . S
H2171 C2184 0.930 . S
H2172 C2188 0.959 . S
H2173 C2188 0.959 . S
H2174 C2188 0.961 . S
H2175 C2189 0.960 . S
H2176 C2189 0.961 . S
H2177 C2189 0.959 . S
H2178 C2192 0.929 . S
H2179 C2193 0.931 . S
H2180 C2195 0.930 . S
C2181 H2169 0.930 1_556 S
C2181 C2182 1.399 . S
C2181 C2186 1.399 1_556 S
C2182 C2181 1.399 . S
C2182 C2183 1.376 . S
C2183 H2170 0.930 . S
C2183 C2182 1.376 . S
C2183 C2184 1.388 . S
C2184 H2171 0.930 . S
C2184 C2183 1.388 . S
C2184 C2185 1.390 . S
C2185 C2184 1.390 . S
C2185 C2186 1.394 1_556 S
C2185 C2191 1.465 . S
C2186 C2181 1.399 1_554 S
C2186 C2185 1.394 1_554 S
C2186 C2187 1.516 . S
C2187 C2186 1.516 . S
C2187 C2188 1.502 . S
C2187 C2189 1.561 . S
C2187 C2190 1.526 . S
C2188 H2172 0.959 . S
C2188 H2173 0.959 . S
C2188 H2174 0.961 . S
C2188 C2187 1.502 . S
C2189 H2175 0.960 . S
C2189 H2176 0.961 . S
C2189 H2177 0.959 . S
C2189 C2187 1.561 . S
C2190 C2187 1.526 . S
C2190 C2191 1.396 1_554 S
C2190 C2195 1.390 . S
C2191 C2185 1.465 . S
C2191 C2190 1.396 1_556 S
C2191 C2192 1.399 . S
C2192 H2178 0.929 . S
C2192 C2191 1.399 . S
C2192 C2193 1.385 . S
C2193 H2179 0.931 . S
C2193 C2192 1.385 . S
C2193 C2194 1.389 1_556 S
C2194 C2193 1.389 1_554 S
C2194 C2195 1.387 . S
C2195 H2180 0.930 . S
C2195 C2190 1.390 . S
C2195 C2194 1.387 . S
H2196 C2208 0.930 . S
H2197 C2210 0.930 . S
H2198 C2211 0.930 . S
H2199 C2215 0.959 . S
H2200 C2215 0.959 . S
H2201 C2215 0.961 . S
H2202 C2216 0.960 . S
H2203 C2216 0.961 . S
H2204 C2216 0.959 . S
H2205 C2219 0.929 . S
H2206 C2220 0.931 . S
H2207 C2222 0.930 . S
C2208 H2196 0.930 . S
C2208 C2209 1.399 . S
C2208 C2213 1.399 . S
C2209 C2208 1.399 . S
C2209 C2210 1.376 . S
C2210 H2197 0.930 . S
C2210 C2209 1.376 . S
C2210 C2211 1.388 . S
C2211 H2198 0.930 . S
C2211 C2210 1.388 . S
C2211 C2212 1.390 . S
C2212 C2211 1.390 . S
C2212 C2213 1.394 . S
C2212 C2218 1.465 . S
C2213 C2208 1.399 . S
C2213 C2212 1.394 . S
C2213 C2214 1.516 . S
C2214 C2213 1.516 . S
C2214 C2215 1.502 . S
C2214 C2216 1.561 . S
C2214 C2217 1.526 . S
C2215 H2199 0.959 . S
C2215 H2200 0.959 . S
C2215 H2201 0.961 . S
C2215 C2214 1.502 . S
C2216 H2202 0.960 . S
C2216 H2203 0.961 . S
C2216 H2204 0.959 . S
C2216 C2214 1.561 . S
C2217 C2214 1.526 . S
C2217 C2218 1.396 . S
C2217 C2222 1.390 . S
C2218 C2212 1.465 . S
C2218 C2217 1.396 . S
C2218 C2219 1.399 . S
C2219 H2205 0.929 . S
C2219 C2218 1.399 . S
C2219 C2220 1.385 . S
C2220 H2206 0.931 . S
C2220 C2219 1.385 . S
C2220 C2221 1.389 . S
C2221 C2220 1.389 . S
C2221 C2222 1.387 . S
C2222 H2207 0.930 . S
C2222 C2217 1.390 . S
C2222 C2221 1.387 . S
H2223 C2235 0.930 . S
H2224 C2237 0.930 . S
H2225 C2238 0.930 . S
H2226 C2242 0.959 . S
H2227 C2242 0.959 . S
H2228 C2242 0.961 . S
H2229 C2243 0.960 . S
H2230 C2243 0.961 . S
H2231 C2243 0.959 . S
H2232 C2246 0.929 . S
H2233 C2247 0.931 . S
H2234 C2249 0.930 . S
C2235 H2223 0.930 . S
C2235 C2236 1.399 . S
C2235 C2240 1.399 . S
C2236 C2235 1.399 . S
C2236 C2237 1.376 . S
C2237 H2224 0.930 . S
C2237 C2236 1.376 . S
C2237 C2238 1.388 . S
C2238 H2225 0.930 . S
C2238 C2237 1.388 . S
C2238 C2239 1.390 . S
C2239 C2238 1.390 . S
C2239 C2240 1.394 . S
C2239 C2245 1.465 . S
C2240 C2235 1.399 . S
C2240 C2239 1.394 . S
C2240 C2241 1.516 . S
C2241 C2240 1.516 . S
C2241 C2242 1.502 . S
C2241 C2243 1.561 . S
C2241 C2244 1.526 . S
C2242 H2226 0.959 . S
C2242 H2227 0.959 . S
C2242 H2228 0.961 . S
C2242 C2241 1.502 . S
C2243 H2229 0.960 . S
C2243 H2230 0.961 . S
C2243 H2231 0.959 . S
C2243 C2241 1.561 . S
C2244 C2241 1.526 . S
C2244 C2245 1.396 . S
C2244 C2249 1.390 . S
C2245 C2239 1.465 . S
C2245 C2244 1.396 . S
C2245 C2246 1.399 . S
C2246 H2232 0.929 . S
C2246 C2245 1.399 . S
C2246 C2247 1.385 . S
C2247 H2233 0.931 . S
C2247 C2246 1.385 . S
C2247 C2248 1.389 . S
C2248 C2247 1.389 . S
C2248 C2249 1.387 . S
C2249 H2234 0.930 . S
C2249 C2244 1.390 . S
C2249 C2248 1.387 . S
H2250 C2262 0.930 . S
H2251 C2264 0.930 . S
H2252 C2265 0.930 . S
H2253 C2269 0.959 . S
H2254 C2269 0.959 . S
H2255 C2269 0.961 . S
H2256 C2270 0.960 . S
H2257 C2270 0.961 . S
H2258 C2270 0.959 . S
H2259 C2273 0.929 . S
H2260 C2274 0.931 . S
H2261 C2276 0.930 . S
C2262 H2250 0.930 . S
C2262 C2263 1.399 . S
C2262 C2267 1.399 . S
C2263 C2262 1.399 . S
C2263 C2264 1.376 . S
C2264 H2251 0.930 . S
C2264 C2263 1.376 . S
C2264 C2265 1.388 . S
C2265 H2252 0.930 . S
C2265 C2264 1.388 . S
C2265 C2266 1.390 . S
C2266 C2265 1.390 . S
C2266 C2267 1.394 . S
C2266 C2272 1.465 . S
C2267 C2262 1.399 . S
C2267 C2266 1.394 . S
C2267 C2268 1.516 . S
C2268 C2267 1.516 . S
C2268 C2269 1.502 . S
C2268 C2270 1.561 . S
C2268 C2271 1.526 . S
C2269 H2253 0.959 . S
C2269 H2254 0.959 . S
C2269 H2255 0.961 . S
C2269 C2268 1.502 . S
C2270 H2256 0.960 . S
C2270 H2257 0.961 . S
C2270 H2258 0.959 . S
C2270 C2268 1.561 . S
C2271 C2268 1.526 . S
C2271 C2272 1.396 . S
C2271 C2276 1.390 . S
C2272 C2266 1.465 . S
C2272 C2271 1.396 . S
C2272 C2273 1.399 . S
C2273 H2259 0.929 . S
C2273 C2272 1.399 . S
C2273 C2274 1.385 . S
C2274 H2260 0.931 . S
C2274 C2273 1.385 . S
C2274 C2275 1.389 . S
C2275 C2274 1.389 . S
C2275 C2276 1.387 . S
C2276 H2261 0.930 . S
C2276 C2271 1.390 . S
C2276 C2275 1.387 . S
H2277 C2289 0.930 . S
H2278 C2291 0.930 . S
H2279 C2292 0.930 . S
H2280 C2296 0.959 . S
H2281 C2296 0.959 . S
H2282 C2296 0.961 . S
H2283 C2297 0.960 . S
H2284 C2297 0.961 . S
H2285 C2297 0.959 . S
H2286 C2300 0.929 . S
H2287 C2301 0.931 . S
H2288 C2303 0.930 . S
C2289 H2277 0.930 . S
C2289 C2290 1.399 . S
C2289 C2294 1.399 . S
C2290 C2289 1.399 . S
C2290 C2291 1.376 . S
C2291 H2278 0.930 . S
C2291 C2290 1.376 . S
C2291 C2292 1.388 . S
C2292 H2279 0.930 . S
C2292 C2291 1.388 . S
C2292 C2293 1.390 . S
C2293 C2292 1.390 . S
C2293 C2294 1.394 . S
C2293 C2299 1.465 . S
C2294 C2289 1.399 . S
C2294 C2293 1.394 . S
C2294 C2295 1.516 . S
C2295 C2294 1.516 . S
C2295 C2296 1.502 . S
C2295 C2297 1.561 . S
C2295 C2298 1.526 . S
C2296 H2280 0.959 . S
C2296 H2281 0.959 . S
C2296 H2282 0.961 . S
C2296 C2295 1.502 . S
C2297 H2283 0.960 . S
C2297 H2284 0.961 . S
C2297 H2285 0.959 . S
C2297 C2295 1.561 . S
C2298 C2295 1.526 . S
C2298 C2299 1.396 . S
C2298 C2303 1.390 . S
C2299 C2293 1.465 . S
C2299 C2298 1.396 . S
C2299 C2300 1.399 . S
C2300 H2286 0.929 . S
C2300 C2299 1.399 . S
C2300 C2301 1.385 . S
C2301 H2287 0.931 . S
C2301 C2300 1.385 . S
C2301 C2302 1.389 . S
C2302 C2301 1.389 . S
C2302 C2303 1.387 . S
C2303 H2288 0.930 . S
C2303 C2298 1.390 . S
C2303 C2302 1.387 . S
H2304 C2316 0.930 . S
H2305 C2318 0.930 . S
H2306 C2319 0.930 . S
H2307 C2323 0.959 . S
H2308 C2323 0.959 . S
H2309 C2323 0.961 . S
H2310 C2324 0.960 . S
H2311 C2324 0.961 . S
H2312 C2324 0.959 . S
H2313 C2327 0.929 . S
H2314 C2328 0.931 . S
H2315 C2330 0.930 . S
C2316 H2304 0.930 . S
C2316 C2317 1.399 . S
C2316 C2321 1.399 . S
C2317 C2316 1.399 . S
C2317 C2318 1.376 . S
C2318 H2305 0.930 . S
C2318 C2317 1.376 . S
C2318 C2319 1.388 . S
C2319 H2306 0.930 . S
C2319 C2318 1.388 . S
C2319 C2320 1.390 . S
C2320 C2319 1.390 . S
C2320 C2321 1.394 . S
C2320 C2326 1.465 . S
C2321 C2316 1.399 . S
C2321 C2320 1.394 . S
C2321 C2322 1.516 . S
C2322 C2321 1.516 . S
C2322 C2323 1.502 . S
C2322 C2324 1.561 . S
C2322 C2325 1.526 . S
C2323 H2307 0.959 . S
C2323 H2308 0.959 . S
C2323 H2309 0.961 . S
C2323 C2322 1.502 . S
C2324 H2310 0.960 . S
C2324 H2311 0.961 . S
C2324 H2312 0.959 . S
C2324 C2322 1.561 . S
C2325 C2322 1.526 . S
C2325 C2326 1.396 . S
C2325 C2330 1.390 . S
C2326 C2320 1.465 . S
C2326 C2325 1.396 . S
C2326 C2327 1.399 . S
C2327 H2313 0.929 . S
C2327 C2326 1.399 . S
C2327 C2328 1.385 . S
C2328 H2314 0.931 . S
C2328 C2327 1.385 . S
C2328 C2329 1.389 . S
C2329 C2328 1.389 . S
C2329 C2330 1.387 . S
C2330 H2315 0.930 . S
C2330 C2325 1.390 . S
C2330 C2329 1.387 . S
H2331 C2343 0.930 . S
H2332 C2345 0.930 . S
H2333 C2346 0.930 . S
H2334 C2350 0.959 . S
H2335 C2350 0.959 . S
H2336 C2350 0.961 . S
H2337 C2351 0.960 . S
H2338 C2351 0.961 . S
H2339 C2351 0.959 . S
H2340 C2354 0.929 . S
H2341 C2355 0.931 . S
H2342 C2357 0.930 . S
C2343 H2331 0.930 . S
C2343 C2344 1.399 . S
C2343 C2348 1.399 . S
C2344 C2343 1.399 . S
C2344 C2345 1.376 . S
C2345 H2332 0.930 . S
C2345 C2344 1.376 . S
C2345 C2346 1.388 . S
C2346 H2333 0.930 . S
C2346 C2345 1.388 . S
C2346 C2347 1.390 . S
C2347 C2346 1.390 . S
C2347 C2348 1.394 . S
C2347 C2353 1.465 . S
C2348 C2343 1.399 . S
C2348 C2347 1.394 . S
C2348 C2349 1.516 . S
C2349 C2348 1.516 . S
C2349 C2350 1.502 . S
C2349 C2351 1.561 . S
C2349 C2352 1.526 . S
C2350 H2334 0.959 . S
C2350 H2335 0.959 . S
C2350 H2336 0.961 . S
C2350 C2349 1.502 . S
C2351 H2337 0.960 . S
C2351 H2338 0.961 . S
C2351 H2339 0.959 . S
C2351 C2349 1.561 . S
C2352 C2349 1.526 . S
C2352 C2353 1.396 . S
C2352 C2357 1.390 . S
C2353 C2347 1.465 . S
C2353 C2352 1.396 . S
C2353 C2354 1.399 . S
C2354 H2340 0.929 . S
C2354 C2353 1.399 . S
C2354 C2355 1.385 . S
C2355 H2341 0.931 . S
C2355 C2354 1.385 . S
C2355 C2356 1.389 . S
C2356 C2355 1.389 . S
C2356 C2357 1.387 . S
C2357 H2342 0.930 . S
C2357 C2352 1.390 . S
C2357 C2356 1.387 . S
H2358 C2370 0.930 . S
H2359 C2372 0.930 . S
H2360 C2373 0.930 . S
H2361 C2377 0.959 . S
H2362 C2377 0.959 . S
H2363 C2377 0.961 . S
H2364 C2378 0.960 . S
H2365 C2378 0.961 . S
H2366 C2378 0.959 . S
H2367 C2381 0.929 . S
H2368 C2382 0.931 . S
H2369 C2384 0.930 . S
C2370 H2358 0.930 . S
C2370 C2371 1.399 . S
C2370 C2375 1.399 . S
C2371 C2370 1.399 . S
C2371 C2372 1.376 . S
C2372 H2359 0.930 . S
C2372 C2371 1.376 . S
C2372 C2373 1.388 . S
C2373 H2360 0.930 . S
C2373 C2372 1.388 . S
C2373 C2374 1.390 . S
C2374 C2373 1.390 . S
C2374 C2375 1.394 . S
C2374 C2380 1.465 . S
C2375 C2370 1.399 . S
C2375 C2374 1.394 . S
C2375 C2376 1.516 . S
C2376 C2375 1.516 . S
C2376 C2377 1.502 . S
C2376 C2378 1.561 . S
C2376 C2379 1.526 . S
C2377 H2361 0.959 . S
C2377 H2362 0.959 . S
C2377 H2363 0.961 . S
C2377 C2376 1.502 . S
C2378 H2364 0.960 . S
C2378 H2365 0.961 . S
C2378 H2366 0.959 . S
C2378 C2376 1.561 . S
C2379 C2376 1.526 . S
C2379 C2380 1.396 . S
C2379 C2384 1.390 . S
C2380 C2374 1.465 . S
C2380 C2379 1.396 . S
C2380 C2381 1.399 . S
C2381 H2367 0.929 . S
C2381 C2380 1.399 . S
C2381 C2382 1.385 . S
C2382 H2368 0.931 . S
C2382 C2381 1.385 . S
C2382 C2383 1.389 . S
C2383 C2382 1.389 . S
C2383 C2384 1.387 . S
C2384 H2369 0.930 . S
C2384 C2379 1.390 . S
C2384 C2383 1.387 . S
H2385 C2397 0.930 . S
H2386 C2399 0.930 . S
H2387 C2400 0.930 . S
H2388 C2404 0.959 . S
H2389 C2404 0.959 . S
H2390 C2404 0.961 . S
H2391 C2405 0.960 . S
H2392 C2405 0.961 . S
H2393 C2405 0.959 . S
H2394 C2408 0.929 . S
H2395 C2409 0.931 . S
H2396 C2411 0.930 . S
C2397 H2385 0.930 . S
C2397 C2398 1.399 . S
C2397 C2402 1.399 . S
C2398 C2397 1.399 . S
C2398 C2399 1.376 . S
C2399 H2386 0.930 . S
C2399 C2398 1.376 . S
C2399 C2400 1.388 . S
C2400 H2387 0.930 . S
C2400 C2399 1.388 . S
C2400 C2401 1.390 . S
C2401 C2400 1.390 . S
C2401 C2402 1.394 . S
C2401 C2407 1.465 . S
C2402 C2397 1.399 . S
C2402 C2401 1.394 . S
C2402 C2403 1.516 . S
C2403 C2402 1.516 . S
C2403 C2404 1.502 . S
C2403 C2405 1.561 . S
C2403 C2406 1.526 . S
C2404 H2388 0.959 . S
C2404 H2389 0.959 . S
C2404 H2390 0.961 . S
C2404 C2403 1.502 . S
C2405 H2391 0.960 . S
C2405 H2392 0.961 . S
C2405 H2393 0.959 . S
C2405 C2403 1.561 . S
C2406 C2403 1.526 . S
C2406 C2407 1.396 . S
C2406 C2411 1.390 . S
C2407 C2401 1.465 . S
C2407 C2406 1.396 . S
C2407 C2408 1.399 . S
C2408 H2394 0.929 . S
C2408 C2407 1.399 . S
C2408 C2409 1.385 . S
C2409 H2395 0.931 . S
C2409 C2408 1.385 . S
C2409 C2410 1.389 . S
C2410 C2409 1.389 . S
C2410 C2411 1.387 . S
C2411 H2396 0.930 . S
C2411 C2406 1.390 . S
C2411 C2410 1.387 . S
H2412 C2424 0.930 . S
H2413 C2426 0.930 . S
H2414 C2427 0.930 . S
H2415 C2431 0.959 . S
H2416 C2431 0.959 . S
H2417 C2431 0.961 . S
H2418 C2432 0.960 . S
H2419 C2432 0.961 . S
H2420 C2432 0.959 . S
H2421 C2435 0.929 . S
H2422 C2436 0.931 . S
H2423 C2438 0.930 . S
C2424 H2412 0.930 . S
C2424 C2425 1.399 . S
C2424 C2429 1.399 . S
C2425 C2424 1.399 . S
C2425 C2426 1.376 . S
C2426 H2413 0.930 . S
C2426 C2425 1.376 . S
C2426 C2427 1.388 . S
C2427 H2414 0.930 . S
C2427 C2426 1.388 . S
C2427 C2428 1.390 . S
C2428 C2427 1.390 . S
C2428 C2429 1.394 . S
C2428 C2434 1.465 . S
C2429 C2424 1.399 . S
C2429 C2428 1.394 . S
C2429 C2430 1.516 . S
C2430 C2429 1.516 . S
C2430 C2431 1.502 . S
C2430 C2432 1.561 . S
C2430 C2433 1.526 . S
C2431 H2415 0.959 . S
C2431 H2416 0.959 . S
C2431 H2417 0.961 . S
C2431 C2430 1.502 . S
C2432 H2418 0.960 . S
C2432 H2419 0.961 . S
C2432 H2420 0.959 . S
C2432 C2430 1.561 . S
C2433 C2430 1.526 . S
C2433 C2434 1.396 . S
C2433 C2438 1.390 . S
C2434 C2428 1.465 . S
C2434 C2433 1.396 . S
C2434 C2435 1.399 . S
C2435 H2421 0.929 . S
C2435 C2434 1.399 . S
C2435 C2436 1.385 . S
C2436 H2422 0.931 . S
C2436 C2435 1.385 . S
C2436 C2437 1.389 . S
C2437 C2436 1.389 . S
C2437 C2438 1.387 . S
C2438 H2423 0.930 . S
C2438 C2433 1.390 . S
C2438 C2437 1.387 . S
H2439 C2451 0.930 . S
H2440 C2453 0.922 1_556 S
H2441 C2454 0.930 1_556 S
H2442 C2458 0.959 . S
H2443 C2458 0.959 . S
H2444 C2458 0.961 . S
H2445 C2459 0.960 . S
H2446 C2459 0.961 . S
H2447 C2459 0.959 . S
H2448 C2462 0.929 1_556 S
H2449 C2463 0.931 1_556 S
H2450 C2465 0.930 . S
C2451 H2439 0.930 . S
C2451 C2452 1.399 . S
C2451 C2456 1.399 . S
C2452 C2451 1.399 . S
C2452 C2453 1.376 . S
C2453 H2440 0.922 1_554 S
C2453 C2452 1.376 . S
C2453 C2454 1.388 . S
C2454 H2441 0.930 1_554 S
C2454 C2453 1.388 . S
C2454 C2455 1.390 . S
C2455 C2454 1.390 . S
C2455 C2456 1.394 . S
C2455 C2461 1.465 . S
C2456 C2451 1.399 . S
C2456 C2455 1.394 . S
C2456 C2457 1.516 . S
C2457 C2456 1.516 . S
C2457 C2458 1.502 . S
C2457 C2459 1.561 . S
C2457 C2460 1.526 . S
C2458 H2442 0.959 . S
C2458 H2443 0.959 . S
C2458 H2444 0.961 . S
C2458 C2457 1.502 . S
C2459 H2445 0.960 . S
C2459 H2446 0.961 . S
C2459 H2447 0.959 . S
C2459 C2457 1.561 . S
C2460 C2457 1.526 . S
C2460 C2461 1.396 . S
C2460 C2465 1.390 . S
C2461 C2455 1.465 . S
C2461 C2460 1.396 . S
C2461 C2462 1.399 . S
C2462 H2448 0.929 1_554 S
C2462 C2461 1.399 . S
C2462 C2463 1.385 . S
C2463 H2449 0.931 1_554 S
C2463 C2462 1.385 . S
C2463 C2464 1.389 . S
C2464 C2463 1.389 . S
C2464 C2465 1.387 . S
C2465 H2450 0.930 . S
C2465 C2460 1.390 . S
C2465 C2464 1.387 . S
H2466 C2478 0.930 . S
H2467 C2480 0.930 . S
H2468 C2481 0.930 1_556 S
H2469 C2485 0.959 . S
H2470 C2485 0.959 . S
H2471 C2485 0.961 . S
H2472 C2486 0.960 . S
H2473 C2486 0.961 . S
H2474 C2486 0.959 . S
H2475 C2489 0.929 1_556 S
H2476 C2490 0.931 . S
H2477 C2492 0.930 . S
C2478 H2466 0.930 . S
C2478 C2479 1.399 . S
C2478 C2483 1.399 . S
C2479 C2478 1.399 . S
C2479 C2480 1.376 . S
C2480 H2467 0.930 . S
C2480 C2479 1.376 . S
C2480 C2481 1.388 . S
C2481 H2468 0.930 1_554 S
C2481 C2480 1.388 . S
C2481 C2482 1.390 . S
C2482 C2481 1.390 . S
C2482 C2483 1.394 . S
C2482 C2488 1.465 . S
C2483 C2478 1.399 . S
C2483 C2482 1.394 . S
C2483 C2484 1.516 . S
C2484 C2483 1.516 . S
C2484 C2485 1.502 . S
C2484 C2486 1.561 . S
C2484 C2487 1.526 . S
C2485 H2469 0.959 . S
C2485 H2470 0.959 . S
C2485 H2471 0.961 . S
C2485 C2484 1.502 . S
C2486 H2472 0.960 . S
C2486 H2473 0.961 . S
C2486 H2474 0.959 . S
C2486 C2484 1.561 . S
C2487 C2484 1.526 . S
C2487 C2488 1.396 . S
C2487 C2492 1.390 . S
C2488 C2482 1.465 . S
C2488 C2487 1.396 . S
C2488 C2489 1.399 . S
C2489 H2475 0.929 1_554 S
C2489 C2488 1.399 . S
C2489 C2490 1.385 . S
C2490 H2476 0.931 . S
C2490 C2489 1.385 . S
C2490 C2491 1.389 . S
C2491 C2490 1.389 . S
C2491 C2492 1.387 . S
C2492 H2477 0.930 . S
C2492 C2487 1.390 . S
C2492 C2491 1.387 . S
H2493 C2505 0.930 . S
H2494 C2507 0.930 . S
H2495 C2508 0.930 . S
H2496 C2512 0.959 . S
H2497 C2512 0.959 . S
H2498 C2512 0.961 . S
H2499 C2513 0.963 . S
H2500 C2513 0.963 . S
H2501 C2513 0.966 . S
H2502 C2516 0.929 . S
H2503 C2517 0.931 . S
H2504 C2519 0.930 . S
C2505 H2493 0.930 . S
C2505 C2506 1.399 . S
C2505 C2510 1.399 . S
C2506 C2505 1.399 . S
C2506 C2507 1.376 . S
C2507 H2494 0.930 . S
C2507 C2506 1.376 . S
C2507 C2508 1.388 . S
C2508 H2495 0.930 . S
C2508 C2507 1.388 . S
C2508 C2509 1.390 . S
C2509 C2508 1.390 . S
C2509 C2510 1.394 . S
C2509 C2515 1.465 . S
C2510 C2505 1.399 . S
C2510 C2509 1.394 . S
C2510 C2511 1.516 . S
C2511 C2510 1.516 . S
C2511 C2512 1.502 . S
C2511 C2513 1.550 1_554 S
C2511 C2514 1.526 . S
C2512 H2496 0.959 . S
C2512 H2497 0.959 . S
C2512 H2498 0.961 . S
C2512 C2511 1.502 . S
C2513 H2499 0.963 . S
C2513 H2500 0.963 . S
C2513 H2501 0.966 . S
C2513 C2511 1.550 1_556 S
C2514 C2511 1.526 . S
C2514 C2515 1.396 . S
C2514 C2519 1.390 . S
C2515 C2509 1.465 . S
C2515 C2514 1.396 . S
C2515 C2516 1.399 . S
C2516 H2502 0.929 . S
C2516 C2515 1.399 . S
C2516 C2517 1.385 . S
C2517 H2503 0.931 . S
C2517 C2516 1.385 . S
C2517 C2518 1.389 . S
C2518 C2517 1.389 . S
C2518 C2519 1.387 . S
C2519 H2504 0.930 . S
C2519 C2514 1.390 . S
C2519 C2518 1.387 . S
H2520 C2532 0.930 . S
H2521 C2534 0.930 . S
H2522 C2535 0.930 . S
H2523 C2539 0.959 . S
H2524 C2539 0.959 . S
H2525 C2539 0.961 . S
H2526 C2540 0.960 . S
H2527 C2540 0.961 . S
H2528 C2540 0.959 . S
H2529 C2543 0.929 . S
H2530 C2544 0.931 . S
H2531 C2546 0.930 . S
C2532 H2520 0.930 . S
C2532 C2533 1.399 . S
C2532 C2537 1.399 . S
C2533 C2532 1.399 . S
C2533 C2534 1.376 . S
C2534 H2521 0.930 . S
C2534 C2533 1.376 . S
C2534 C2535 1.388 . S
C2535 H2522 0.930 . S
C2535 C2534 1.388 . S
C2535 C2536 1.390 . S
C2536 C2535 1.390 . S
C2536 C2537 1.394 . S
C2536 C2542 1.465 . S
C2537 C2532 1.399 . S
C2537 C2536 1.394 . S
C2537 C2538 1.516 . S
C2538 C2537 1.516 . S
C2538 C2539 1.502 1_556 S
C2538 C2540 1.561 . S
C2538 C2541 1.526 . S
C2539 H2523 0.959 . S
C2539 H2524 0.959 . S
C2539 H2525 0.961 . S
C2539 C2538 1.502 1_554 S
C2540 H2526 0.960 . S
C2540 H2527 0.961 . S
C2540 H2528 0.959 . S
C2540 C2538 1.561 . S
C2541 C2538 1.526 . S
C2541 C2542 1.396 . S
C2541 C2546 1.390 . S
C2542 C2536 1.465 . S
C2542 C2541 1.396 . S
C2542 C2543 1.399 . S
C2543 H2529 0.929 . S
C2543 C2542 1.399 . S
C2543 C2544 1.385 . S
C2544 H2530 0.931 . S
C2544 C2543 1.385 . S
C2544 C2545 1.389 . S
C2545 C2544 1.389 . S
C2545 C2546 1.387 . S
C2546 H2531 0.930 . S
C2546 C2541 1.390 . S
C2546 C2545 1.387 . S
H2547 C2559 0.930 . S
H2548 C2561 0.930 . S
H2549 C2562 0.930 . S
H2550 C2566 0.959 1_556 S
H2551 C2566 0.959 . S
H2552 C2566 0.961 . S
H2553 C2567 0.960 . S
H2554 C2567 0.961 . S
H2555 C2567 0.959 . S
H2556 C2570 0.929 . S
H2557 C2571 0.931 . S
H2558 C2573 0.930 . S
C2559 H2547 0.930 . S
C2559 C2560 1.399 . S
C2559 C2564 1.399 . S
C2560 C2559 1.399 . S
C2560 C2561 1.376 . S
C2561 H2548 0.930 . S
C2561 C2560 1.376 . S
C2561 C2562 1.388 . S
C2562 H2549 0.930 . S
C2562 C2561 1.388 . S
C2562 C2563 1.390 . S
C2563 C2562 1.390 . S
C2563 C2564 1.394 . S
C2563 C2569 1.465 . S
C2564 C2559 1.399 . S
C2564 C2563 1.394 . S
C2564 C2565 1.516 . S
C2565 C2564 1.516 . S
C2565 C2566 1.502 1_556 S
C2565 C2567 1.561 1_556 S
C2565 C2568 1.526 . S
C2566 H2550 0.959 1_554 S
C2566 H2551 0.959 . S
C2566 H2552 0.961 . S
C2566 C2565 1.502 1_554 S
C2567 H2553 0.960 . S
C2567 H2554 0.961 . S
C2567 H2555 0.959 . S
C2567 C2565 1.561 1_554 S
C2568 C2565 1.526 . S
C2568 C2569 1.396 . S
C2568 C2573 1.390 . S
C2569 C2563 1.465 . S
C2569 C2568 1.396 . S
C2569 C2570 1.399 . S
C2570 H2556 0.929 . S
C2570 C2569 1.399 . S
C2570 C2571 1.385 . S
C2571 H2557 0.931 . S
C2571 C2570 1.385 . S
C2571 C2572 1.389 . S
C2572 C2571 1.389 . S
C2572 C2573 1.387 . S
C2573 H2558 0.930 . S
C2573 C2568 1.390 . S
C2573 C2572 1.387 . S
H2574 C2586 0.930 . S
H2575 C2588 0.930 . S
H2576 C2589 0.930 1_554 S
H2577 C2593 0.959 . S
H2578 C2593 0.959 . S
H2579 C2593 0.961 . S
H2580 C2594 0.960 . S
H2581 C2594 0.961 . S
H2582 C2594 0.959 . S
H2583 C2597 0.929 1_554 S
H2584 C2598 0.931 1_554 S
H2585 C2600 0.930 . S
C2586 H2574 0.930 . S
C2586 C2587 1.399 . S
C2586 C2591 1.399 . S
C2587 C2586 1.399 . S
C2587 C2588 1.376 . S
C2588 H2575 0.930 . S
C2588 C2587 1.376 . S
C2588 C2589 1.388 . S
C2589 H2576 0.930 1_556 S
C2589 C2588 1.388 . S
C2589 C2590 1.390 . S
C2590 C2589 1.390 . S
C2590 C2591 1.394 . S
C2590 C2596 1.465 . S
C2591 C2586 1.399 . S
C2591 C2590 1.394 . S
C2591 C2592 1.516 . S
C2592 C2591 1.516 . S
C2592 C2593 1.502 . S
C2592 C2594 1.561 . S
C2592 C2595 1.526 . S
C2593 H2577 0.959 . S
C2593 H2578 0.959 . S
C2593 H2579 0.961 . S
C2593 C2592 1.502 . S
C2594 H2580 0.960 . S
C2594 H2581 0.961 . S
C2594 H2582 0.959 . S
C2594 C2592 1.561 . S
C2595 C2592 1.526 . S
C2595 C2596 1.396 . S
C2595 C2600 1.390 . S
C2596 C2590 1.465 . S
C2596 C2595 1.396 . S
C2596 C2597 1.399 . S
C2597 H2583 0.929 1_556 S
C2597 C2596 1.399 . S
C2597 C2598 1.385 . S
C2598 H2584 0.931 1_556 S
C2598 C2597 1.385 . S
C2598 C2599 1.389 . S
C2599 C2598 1.389 . S
C2599 C2600 1.387 . S
C2600 H2585 0.930 . S
C2600 C2595 1.390 . S
C2600 C2599 1.387 . S
H2601 C2613 0.930 . S
H2602 C2615 0.930 . S
H2603 C2616 0.930 . S
H2604 C2620 0.959 . S
H2605 C2620 0.959 . S
H2606 C2620 0.961 . S
H2607 C2621 0.960 . S
H2608 C2621 0.961 . S
H2609 C2621 0.959 . S
H2610 C2624 0.929 . S
H2611 C2625 0.931 . S
H2612 C2627 0.930 . S
C2613 H2601 0.930 . S
C2613 C2614 1.399 . S
C2613 C2618 1.399 . S
C2614 C2613 1.399 . S
C2614 C2615 1.376 . S
C2615 H2602 0.930 . S
C2615 C2614 1.376 . S
C2615 C2616 1.388 . S
C2616 H2603 0.930 . S
C2616 C2615 1.388 . S
C2616 C2617 1.390 . S
C2617 C2616 1.390 . S
C2617 C2618 1.394 . S
C2617 C2623 1.465 . S
C2618 C2613 1.399 . S
C2618 C2617 1.394 . S
C2618 C2619 1.516 . S
C2619 C2618 1.516 . S
C2619 C2620 1.502 . S
C2619 C2621 1.561 . S
C2619 C2622 1.526 . S
C2620 H2604 0.959 . S
C2620 H2605 0.959 . S
C2620 H2606 0.961 . S
C2620 C2619 1.502 . S
C2621 H2607 0.960 . S
C2621 H2608 0.961 . S
C2621 H2609 0.959 . S
C2621 C2619 1.561 . S
C2622 C2619 1.526 . S
C2622 C2623 1.396 . S
C2622 C2627 1.390 . S
C2623 C2617 1.465 . S
C2623 C2622 1.396 . S
C2623 C2624 1.399 . S
C2624 H2610 0.929 . S
C2624 C2623 1.399 . S
C2624 C2625 1.385 . S
C2625 H2611 0.931 . S
C2625 C2624 1.385 . S
C2625 C2626 1.389 . S
C2626 C2625 1.389 . S
C2626 C2627 1.387 . S
C2627 H2612 0.930 . S
C2627 C2622 1.390 . S
C2627 C2626 1.387 . S
H2628 C2640 0.930 . S
H2629 C2642 0.930 . S
H2630 C2643 0.930 . S
H2631 C2647 0.959 . S
H2632 C2647 0.959 . S
H2633 C2647 0.961 . S
H2634 C2648 0.960 . S
H2635 C2648 0.961 . S
H2636 C2648 0.959 . S
H2637 C2651 0.929 . S
H2638 C2652 0.931 . S
H2639 C2654 0.930 . S
C2640 H2628 0.930 . S
C2640 C2641 1.399 . S
C2640 C2645 1.399 . S
C2641 C2640 1.399 . S
C2641 C2642 1.376 . S
C2642 H2629 0.930 . S
C2642 C2641 1.376 . S
C2642 C2643 1.388 . S
C2643 H2630 0.930 . S
C2643 C2642 1.388 . S
C2643 C2644 1.390 . S
C2644 C2643 1.390 . S
C2644 C2645 1.394 . S
C2644 C2650 1.465 . S
C2645 C2640 1.399 . S
C2645 C2644 1.394 . S
C2645 C2646 1.516 . S
C2646 C2645 1.516 . S
C2646 C2647 1.502 . S
C2646 C2648 1.561 . S
C2646 C2649 1.526 . S
C2647 H2631 0.959 . S
C2647 H2632 0.959 . S
C2647 H2633 0.961 . S
C2647 C2646 1.502 . S
C2648 H2634 0.960 . S
C2648 H2635 0.961 . S
C2648 H2636 0.959 . S
C2648 C2646 1.561 . S
C2649 C2646 1.526 . S
C2649 C2650 1.396 . S
C2649 C2654 1.390 . S
C2650 C2644 1.465 . S
C2650 C2649 1.396 . S
C2650 C2651 1.399 . S
C2651 H2637 0.929 . S
C2651 C2650 1.399 . S
C2651 C2652 1.385 . S
C2652 H2638 0.931 . S
C2652 C2651 1.385 . S
C2652 C2653 1.389 . S
C2653 C2652 1.389 . S
C2653 C2654 1.387 . S
C2654 H2639 0.930 . S
C2654 C2649 1.390 . S
C2654 C2653 1.387 . S
H2655 C2667 0.930 . S
H2656 C2669 0.930 . S
H2657 C2670 0.930 . S
H2658 C2674 0.959 . S
H2659 C2674 0.959 . S
H2660 C2674 0.961 . S
H2661 C2675 0.960 . S
H2662 C2675 0.961 . S
H2663 C2675 0.959 . S
H2664 C2678 0.929 . S
H2665 C2679 0.931 . S
H2666 C2681 0.930 . S
C2667 H2655 0.930 . S
C2667 C2668 1.399 . S
C2667 C2672 1.399 . S
C2668 C2667 1.399 . S
C2668 C2669 1.376 . S
C2669 H2656 0.930 . S
C2669 C2668 1.376 . S
C2669 C2670 1.388 . S
C2670 H2657 0.930 . S
C2670 C2669 1.388 . S
C2670 C2671 1.390 . S
C2671 C2670 1.390 . S
C2671 C2672 1.394 . S
C2671 C2677 1.465 . S
C2672 C2667 1.399 . S
C2672 C2671 1.394 . S
C2672 C2673 1.516 . S
C2673 C2672 1.516 . S
C2673 C2674 1.502 . S
C2673 C2675 1.561 . S
C2673 C2676 1.526 . S
C2674 H2658 0.959 . S
C2674 H2659 0.959 . S
C2674 H2660 0.961 . S
C2674 C2673 1.502 . S
C2675 H2661 0.960 . S
C2675 H2662 0.961 . S
C2675 H2663 0.959 . S
C2675 C2673 1.561 . S
C2676 C2673 1.526 . S
C2676 C2677 1.396 . S
C2676 C2681 1.390 . S
C2677 C2671 1.465 . S
C2677 C2676 1.396 . S
C2677 C2678 1.399 . S
C2678 H2664 0.929 . S
C2678 C2677 1.399 . S
C2678 C2679 1.385 . S
C2679 H2665 0.931 . S
C2679 C2678 1.385 . S
C2679 C2680 1.389 . S
C2680 C2679 1.389 . S
C2680 C2681 1.387 . S
C2681 H2666 0.930 . S
C2681 C2676 1.390 . S
C2681 C2680 1.387 . S
H2682 C2694 0.930 . S
H2683 C2696 0.930 . S
H2684 C2697 0.930 . S
H2685 C2701 0.959 . S
H2686 C2701 0.959 . S
H2687 C2701 0.961 . S
H2688 C2702 0.960 . S
H2689 C2702 0.961 . S
H2690 C2702 0.959 . S
H2691 C2705 0.929 . S
H2692 C2706 0.931 . S
H2693 C2708 0.930 . S
C2694 H2682 0.930 . S
C2694 C2695 1.399 . S
C2694 C2699 1.399 . S
C2695 C2694 1.399 . S
C2695 C2696 1.376 . S
C2696 H2683 0.930 . S
C2696 C2695 1.376 . S
C2696 C2697 1.388 . S
C2697 H2684 0.930 . S
C2697 C2696 1.388 . S
C2697 C2698 1.390 . S
C2698 C2697 1.390 . S
C2698 C2699 1.394 . S
C2698 C2704 1.465 . S
C2699 C2694 1.399 . S
C2699 C2698 1.394 . S
C2699 C2700 1.516 . S
C2700 C2699 1.516 . S
C2700 C2701 1.502 . S
C2700 C2702 1.561 . S
C2700 C2703 1.526 . S
C2701 H2685 0.959 . S
C2701 H2686 0.959 . S
C2701 H2687 0.961 . S
C2701 C2700 1.502 . S
C2702 H2688 0.960 . S
C2702 H2689 0.961 . S
C2702 H2690 0.959 . S
C2702 C2700 1.561 . S
C2703 C2700 1.526 . S
C2703 C2704 1.396 . S
C2703 C2708 1.390 . S
C2704 C2698 1.465 . S
C2704 C2703 1.396 . S
C2704 C2705 1.399 . S
C2705 H2691 0.929 . S
C2705 C2704 1.399 . S
C2705 C2706 1.385 . S
C2706 H2692 0.931 . S
C2706 C2705 1.385 . S
C2706 C2707 1.389 . S
C2707 C2706 1.389 . S
C2707 C2708 1.387 . S
C2708 H2693 0.930 . S
C2708 C2703 1.390 . S
C2708 C2707 1.387 . S
H2709 C2721 0.930 . S
H2710 C2723 0.930 . S
H2711 C2724 0.930 . S
H2712 C2728 0.959 . S
H2713 C2728 0.959 . S
H2714 C2728 0.961 . S
H2715 C2729 0.960 . S
H2716 C2729 0.961 . S
H2717 C2729 0.959 . S
H2718 C2732 0.929 . S
H2719 C2733 0.931 . S
H2720 C2735 0.930 . S
C2721 H2709 0.930 . S
C2721 C2722 1.399 . S
C2721 C2726 1.399 . S
C2722 C2721 1.399 . S
C2722 C2723 1.376 . S
C2723 H2710 0.930 . S
C2723 C2722 1.376 . S
C2723 C2724 1.388 . S
C2724 H2711 0.930 . S
C2724 C2723 1.388 . S
C2724 C2725 1.390 . S
C2725 C2724 1.390 . S
C2725 C2726 1.394 . S
C2725 C2731 1.465 . S
C2726 C2721 1.399 . S
C2726 C2725 1.394 . S
C2726 C2727 1.516 . S
C2727 C2726 1.516 . S
C2727 C2728 1.502 . S
C2727 C2729 1.561 . S
C2727 C2730 1.526 . S
C2728 H2712 0.959 . S
C2728 H2713 0.959 . S
C2728 H2714 0.961 . S
C2728 C2727 1.502 . S
C2729 H2715 0.960 . S
C2729 H2716 0.961 . S
C2729 H2717 0.959 . S
C2729 C2727 1.561 . S
C2730 C2727 1.526 . S
C2730 C2731 1.396 . S
C2730 C2735 1.390 . S
C2731 C2725 1.465 . S
C2731 C2730 1.396 . S
C2731 C2732 1.399 . S
C2732 H2718 0.929 . S
C2732 C2731 1.399 . S
C2732 C2733 1.385 . S
C2733 H2719 0.931 . S
C2733 C2732 1.385 . S
C2733 C2734 1.389 . S
C2734 C2733 1.389 . S
C2734 C2735 1.387 . S
C2735 H2720 0.930 . S
C2735 C2730 1.390 . S
C2735 C2734 1.387 . S
H2736 C2748 0.930 . S
H2737 C2750 0.930 . S
H2738 C2751 0.930 . S
H2739 C2755 0.959 . S
H2740 C2755 0.959 . S
H2741 C2755 0.961 . S
H2742 C2756 0.960 . S
H2743 C2756 0.961 . S
H2744 C2756 0.959 . S
H2745 C2759 0.929 . S
H2746 C2760 0.931 . S
H2747 C2762 0.930 . S
C2748 H2736 0.930 . S
C2748 C2749 1.399 . S
C2748 C2753 1.399 . S
C2749 C2748 1.399 . S
C2749 C2750 1.376 . S
C2750 H2737 0.930 . S
C2750 C2749 1.376 . S
C2750 C2751 1.388 . S
C2751 H2738 0.930 . S
C2751 C2750 1.388 . S
C2751 C2752 1.390 . S
C2752 C2751 1.390 . S
C2752 C2753 1.394 . S
C2752 C2758 1.465 . S
C2753 C2748 1.399 . S
C2753 C2752 1.394 . S
C2753 C2754 1.516 . S
C2754 C2753 1.516 . S
C2754 C2755 1.502 . S
C2754 C2756 1.561 . S
C2754 C2757 1.526 . S
C2755 H2739 0.959 . S
C2755 H2740 0.959 . S
C2755 H2741 0.961 . S
C2755 C2754 1.502 . S
C2756 H2742 0.960 . S
C2756 H2743 0.961 . S
C2756 H2744 0.959 . S
C2756 C2754 1.561 . S
C2757 C2754 1.526 . S
C2757 C2758 1.396 . S
C2757 C2762 1.390 . S
C2758 C2752 1.465 . S
C2758 C2757 1.396 . S
C2758 C2759 1.399 . S
C2759 H2745 0.929 . S
C2759 C2758 1.399 . S
C2759 C2760 1.385 . S
C2760 H2746 0.931 . S
C2760 C2759 1.385 . S
C2760 C2761 1.389 . S
C2761 C2760 1.389 . S
C2761 C2762 1.387 . S
C2762 H2747 0.930 . S
C2762 C2757 1.390 . S
C2762 C2761 1.387 . S
H2763 C2775 0.930 . S
H2764 C2777 0.930 . S
H2765 C2778 0.930 . S
H2766 C2782 0.959 . S
H2767 C2782 0.959 . S
H2768 C2782 0.961 . S
H2769 C2783 0.960 . S
H2770 C2783 0.961 . S
H2771 C2783 0.959 . S
H2772 C2786 0.929 . S
H2773 C2787 0.931 . S
H2774 C2789 0.930 . S
C2775 H2763 0.930 . S
C2775 C2776 1.399 . S
C2775 C2780 1.399 . S
C2776 C2775 1.399 . S
C2776 C2777 1.376 . S
C2777 H2764 0.930 . S
C2777 C2776 1.376 . S
C2777 C2778 1.388 . S
C2778 H2765 0.930 . S
C2778 C2777 1.388 . S
C2778 C2779 1.390 . S
C2779 C2778 1.390 . S
C2779 C2780 1.394 . S
C2779 C2785 1.465 . S
C2780 C2775 1.399 . S
C2780 C2779 1.394 . S
C2780 C2781 1.516 . S
C2781 C2780 1.516 . S
C2781 C2782 1.502 . S
C2781 C2783 1.561 . S
C2781 C2784 1.526 . S
C2782 H2766 0.959 . S
C2782 H2767 0.959 . S
C2782 H2768 0.961 . S
C2782 C2781 1.502 . S
C2783 H2769 0.960 . S
C2783 H2770 0.961 . S
C2783 H2771 0.959 . S
C2783 C2781 1.561 . S
C2784 C2781 1.526 . S
C2784 C2785 1.396 . S
C2784 C2789 1.390 . S
C2785 C2779 1.465 . S
C2785 C2784 1.396 . S
C2785 C2786 1.399 . S
C2786 H2772 0.929 . S
C2786 C2785 1.399 . S
C2786 C2787 1.385 . S
C2787 H2773 0.931 . S
C2787 C2786 1.385 . S
C2787 C2788 1.389 . S
C2788 C2787 1.389 . S
C2788 C2789 1.387 . S
C2789 H2774 0.930 . S
C2789 C2784 1.390 . S
C2789 C2788 1.387 . S
H2790 C2802 0.930 . S
H2791 C2804 0.930 . S
H2792 C2805 0.930 . S
H2793 C2809 0.959 . S
H2794 C2809 0.959 . S
H2795 C2809 0.961 . S
H2796 C2810 0.960 . S
H2797 C2810 0.961 . S
H2798 C2810 0.959 . S
H2799 C2813 0.929 . S
H2800 C2814 0.931 . S
H2801 C2816 0.930 . S
C2802 H2790 0.930 . S
C2802 C2803 1.399 . S
C2802 C2807 1.399 . S
C2803 C2802 1.399 . S
C2803 C2804 1.376 . S
C2804 H2791 0.930 . S
C2804 C2803 1.376 . S
C2804 C2805 1.388 . S
C2805 H2792 0.930 . S
C2805 C2804 1.388 . S
C2805 C2806 1.390 . S
C2806 C2805 1.390 . S
C2806 C2807 1.394 . S
C2806 C2812 1.465 . S
C2807 C2802 1.399 . S
C2807 C2806 1.394 . S
C2807 C2808 1.516 . S
C2808 C2807 1.516 . S
C2808 C2809 1.502 . S
C2808 C2810 1.561 . S
C2808 C2811 1.526 . S
C2809 H2793 0.959 . S
C2809 H2794 0.959 . S
C2809 H2795 0.961 . S
C2809 C2808 1.502 . S
C2810 H2796 0.960 . S
C2810 H2797 0.961 . S
C2810 H2798 0.959 . S
C2810 C2808 1.561 . S
C2811 C2808 1.526 . S
C2811 C2812 1.396 . S
C2811 C2816 1.390 . S
C2812 C2806 1.465 . S
C2812 C2811 1.396 . S
C2812 C2813 1.399 . S
C2813 H2799 0.929 . S
C2813 C2812 1.399 . S
C2813 C2814 1.385 . S
C2814 H2800 0.931 . S
C2814 C2813 1.385 . S
C2814 C2815 1.389 . S
C2815 C2814 1.389 . S
C2815 C2816 1.387 . S
C2816 H2801 0.930 . S
C2816 C2811 1.390 . S
C2816 C2815 1.387 . S
H2817 C2829 0.930 . S
H2818 C2831 0.930 . S
H2819 C2832 0.930 . S
H2820 C2836 0.959 . S
H2821 C2836 0.959 . S
H2822 C2836 0.961 . S
H2823 C2837 0.960 . S
H2824 C2837 0.961 . S
H2825 C2837 0.959 . S
H2826 C2840 0.929 . S
H2827 C2841 0.931 . S
H2828 C2843 0.930 . S
C2829 H2817 0.930 . S
C2829 C2830 1.399 . S
C2829 C2834 1.399 . S
C2830 C2829 1.399 . S
C2830 C2831 1.376 . S
C2831 H2818 0.930 . S
C2831 C2830 1.376 . S
C2831 C2832 1.388 . S
C2832 H2819 0.930 . S
C2832 C2831 1.388 . S
C2832 C2833 1.390 . S
C2833 C2832 1.390 . S
C2833 C2834 1.394 . S
C2833 C2839 1.465 . S
C2834 C2829 1.399 . S
C2834 C2833 1.394 . S
C2834 C2835 1.516 . S
C2835 C2834 1.516 . S
C2835 C2836 1.502 . S
C2835 C2837 1.561 . S
C2835 C2838 1.526 . S
C2836 H2820 0.959 . S
C2836 H2821 0.959 . S
C2836 H2822 0.961 . S
C2836 C2835 1.502 . S
C2837 H2823 0.960 . S
C2837 H2824 0.961 . S
C2837 H2825 0.959 . S
C2837 C2835 1.561 . S
C2838 C2835 1.526 . S
C2838 C2839 1.396 . S
C2838 C2843 1.390 . S
C2839 C2833 1.465 . S
C2839 C2838 1.396 . S
C2839 C2840 1.399 . S
C2840 H2826 0.929 . S
C2840 C2839 1.399 . S
C2840 C2841 1.385 . S
C2841 H2827 0.931 . S
C2841 C2840 1.385 . S
C2841 C2842 1.389 . S
C2842 C2841 1.389 . S
C2842 C2843 1.387 . S
C2843 H2828 0.930 . S
C2843 C2838 1.390 . S
C2843 C2842 1.387 . S
H2844 C2856 0.930 . S
H2845 C2858 0.930 . S
H2846 C2859 0.930 . S
H2847 C2863 0.959 . S
H2848 C2863 0.959 . S
H2849 C2863 0.961 . S
H2850 C2864 0.960 . S
H2851 C2864 0.961 . S
H2852 C2864 0.959 . S
H2853 C2867 0.929 . S
H2854 C2868 0.931 . S
H2855 C2870 0.930 . S
C2856 H2844 0.930 . S
C2856 C2857 1.399 . S
C2856 C2861 1.399 . S
C2857 C2856 1.399 . S
C2857 C2858 1.376 . S
C2858 H2845 0.930 . S
C2858 C2857 1.376 . S
C2858 C2859 1.388 . S
C2859 H2846 0.930 . S
C2859 C2858 1.388 . S
C2859 C2860 1.390 . S
C2860 C2859 1.390 . S
C2860 C2861 1.394 . S
C2860 C2866 1.465 . S
C2861 C2856 1.399 . S
C2861 C2860 1.394 . S
C2861 C2862 1.516 . S
C2862 C2861 1.516 . S
C2862 C2863 1.502 . S
C2862 C2864 1.561 . S
C2862 C2865 1.526 . S
C2863 H2847 0.959 . S
C2863 H2848 0.959 . S
C2863 H2849 0.961 . S
C2863 C2862 1.502 . S
C2864 H2850 0.960 . S
C2864 H2851 0.961 . S
C2864 H2852 0.959 . S
C2864 C2862 1.561 . S
C2865 C2862 1.526 . S
C2865 C2866 1.396 . S
C2865 C2870 1.390 . S
C2866 C2860 1.465 . S
C2866 C2865 1.396 . S
C2866 C2867 1.399 . S
C2867 H2853 0.929 . S
C2867 C2866 1.399 . S
C2867 C2868 1.385 . S
C2868 H2854 0.931 . S
C2868 C2867 1.385 . S
C2868 C2869 1.389 . S
C2869 C2868 1.389 . S
C2869 C2870 1.387 . S
C2870 H2855 0.930 . S
C2870 C2865 1.390 . S
C2870 C2869 1.387 . S
H2871 C2883 0.930 . S
H2872 C2885 0.930 . S
H2873 C2886 0.930 . S
H2874 C2890 0.959 . S
H2875 C2890 0.959 . S
H2876 C2890 0.961 . S
H2877 C2891 0.960 . S
H2878 C2891 0.961 . S
H2879 C2891 0.959 . S
H2880 C2894 0.929 . S
H2881 C2895 0.931 . S
H2882 C2897 0.930 . S
C2883 H2871 0.930 . S
C2883 C2884 1.399 . S
C2883 C2888 1.399 . S
C2884 C2883 1.399 . S
C2884 C2885 1.376 . S
C2885 H2872 0.930 . S
C2885 C2884 1.376 . S
C2885 C2886 1.388 . S
C2886 H2873 0.930 . S
C2886 C2885 1.388 . S
C2886 C2887 1.390 . S
C2887 C2886 1.390 . S
C2887 C2888 1.394 . S
C2887 C2893 1.465 . S
C2888 C2883 1.399 . S
C2888 C2887 1.394 . S
C2888 C2889 1.516 . S
C2889 C2888 1.516 . S
C2889 C2890 1.502 . S
C2889 C2891 1.561 . S
C2889 C2892 1.526 . S
C2890 H2874 0.959 . S
C2890 H2875 0.959 . S
C2890 H2876 0.961 . S
C2890 C2889 1.502 . S
C2891 H2877 0.960 . S
C2891 H2878 0.961 . S
C2891 H2879 0.959 . S
C2891 C2889 1.561 . S
C2892 C2889 1.526 . S
C2892 C2893 1.396 . S
C2892 C2897 1.390 . S
C2893 C2887 1.465 . S
C2893 C2892 1.396 . S
C2893 C2894 1.399 . S
C2894 H2880 0.929 . S
C2894 C2893 1.399 . S
C2894 C2895 1.385 . S
C2895 H2881 0.931 . S
C2895 C2894 1.385 . S
C2895 C2896 1.389 . S
C2896 C2895 1.389 . S
C2896 C2897 1.387 . S
C2897 H2882 0.930 . S
C2897 C2892 1.390 . S
C2897 C2896 1.387 . S
H2898 C2910 0.930 . S
H2899 C2912 0.930 . S
H2900 C2913 0.930 . S
H2901 C2917 0.959 . S
H2902 C2917 0.959 . S
H2903 C2917 0.961 . S
H2904 C2918 0.960 . S
H2905 C2918 0.961 . S
H2906 C2918 0.959 . S
H2907 C2921 0.929 . S
H2908 C2922 0.931 . S
H2909 C2924 0.930 . S
C2910 H2898 0.930 . S
C2910 C2911 1.399 . S
C2910 C2915 1.399 . S
C2911 C2910 1.399 . S
C2911 C2912 1.376 . S
C2912 H2899 0.930 . S
C2912 C2911 1.376 . S
C2912 C2913 1.388 . S
C2913 H2900 0.930 . S
C2913 C2912 1.388 . S
C2913 C2914 1.390 . S
C2914 C2913 1.390 . S
C2914 C2915 1.394 . S
C2914 C2920 1.465 . S
C2915 C2910 1.399 . S
C2915 C2914 1.394 . S
C2915 C2916 1.516 . S
C2916 C2915 1.516 . S
C2916 C2917 1.502 . S
C2916 C2918 1.561 . S
C2916 C2919 1.526 . S
C2917 H2901 0.959 . S
C2917 H2902 0.959 . S
C2917 H2903 0.961 . S
C2917 C2916 1.502 . S
C2918 H2904 0.960 . S
C2918 H2905 0.961 . S
C2918 H2906 0.959 . S
C2918 C2916 1.561 . S
C2919 C2916 1.526 . S
C2919 C2920 1.396 . S
C2919 C2924 1.390 . S
C2920 C2914 1.465 . S
C2920 C2919 1.396 . S
C2920 C2921 1.399 . S
C2921 H2907 0.929 . S
C2921 C2920 1.399 . S
C2921 C2922 1.385 . S
C2922 H2908 0.931 . S
C2922 C2921 1.385 . S
C2922 C2923 1.389 . S
C2923 C2922 1.389 . S
C2923 C2924 1.387 . S
C2924 H2909 0.930 . S
C2924 C2919 1.390 . S
C2924 C2923 1.387 . S
H2925 C2937 0.930 . S
H2926 C2939 0.930 . S
H2927 C2940 0.930 . S
H2928 C2944 0.959 . S
H2929 C2944 0.959 . S
H2930 C2944 0.961 . S
H2931 C2945 0.960 . S
H2932 C2945 0.961 . S
H2933 C2945 0.959 . S
H2934 C2948 0.929 . S
H2935 C2949 0.931 . S
H2936 C2951 0.930 . S
C2937 H2925 0.930 . S
C2937 C2938 1.399 . S
C2937 C2942 1.399 . S
C2938 C2937 1.399 . S
C2938 C2939 1.376 . S
C2939 H2926 0.930 . S
C2939 C2938 1.376 . S
C2939 C2940 1.388 . S
C2940 H2927 0.930 . S
C2940 C2939 1.388 . S
C2940 C2941 1.390 . S
C2941 C2940 1.390 . S
C2941 C2942 1.394 . S
C2941 C2947 1.465 . S
C2942 C2937 1.399 . S
C2942 C2941 1.394 . S
C2942 C2943 1.516 . S
C2943 C2942 1.516 . S
C2943 C2944 1.502 . S
C2943 C2945 1.561 . S
C2943 C2946 1.526 . S
C2944 H2928 0.959 . S
C2944 H2929 0.959 . S
C2944 H2930 0.961 . S
C2944 C2943 1.502 . S
C2945 H2931 0.960 . S
C2945 H2932 0.961 . S
C2945 H2933 0.959 . S
C2945 C2943 1.561 . S
C2946 C2943 1.526 . S
C2946 C2947 1.396 . S
C2946 C2951 1.390 . S
C2947 C2941 1.465 . S
C2947 C2946 1.396 . S
C2947 C2948 1.399 . S
C2948 H2934 0.929 . S
C2948 C2947 1.399 . S
C2948 C2949 1.385 . S
C2949 H2935 0.931 . S
C2949 C2948 1.385 . S
C2949 C2950 1.389 . S
C2950 C2949 1.389 . S
C2950 C2951 1.387 . S
C2951 H2936 0.930 . S
C2951 C2946 1.390 . S
C2951 C2950 1.387 . S
H2952 C2964 0.930 . S
H2953 C2966 0.930 . S
H2954 C2967 0.930 . S
H2955 C2971 0.959 . S
H2956 C2971 0.959 . S
H2957 C2971 0.961 . S
H2958 C2972 0.960 . S
H2959 C2972 0.961 . S
H2960 C2972 0.959 . S
H2961 C2975 0.929 . S
H2962 C2976 0.931 . S
H2963 C2978 0.930 . S
C2964 H2952 0.930 . S
C2964 C2965 1.399 . S
C2964 C2969 1.399 . S
C2965 C2964 1.399 . S
C2965 C2966 1.376 . S
C2966 H2953 0.930 . S
C2966 C2965 1.376 . S
C2966 C2967 1.388 . S
C2967 H2954 0.930 . S
C2967 C2966 1.388 . S
C2967 C2968 1.390 . S
C2968 C2967 1.390 . S
C2968 C2969 1.394 . S
C2968 C2974 1.465 . S
C2969 C2964 1.399 . S
C2969 C2968 1.394 . S
C2969 C2970 1.516 . S
C2970 C2969 1.516 . S
C2970 C2971 1.502 . S
C2970 C2972 1.561 . S
C2970 C2973 1.526 . S
C2971 H2955 0.959 . S
C2971 H2956 0.959 . S
C2971 H2957 0.961 . S
C2971 C2970 1.502 . S
C2972 H2958 0.960 . S
C2972 H2959 0.961 . S
C2972 H2960 0.959 . S
C2972 C2970 1.561 . S
C2973 C2970 1.526 . S
C2973 C2974 1.396 . S
C2973 C2978 1.390 . S
C2974 C2968 1.465 . S
C2974 C2973 1.396 . S
C2974 C2975 1.399 . S
C2975 H2961 0.929 . S
C2975 C2974 1.399 . S
C2975 C2976 1.385 . S
C2976 H2962 0.931 . S
C2976 C2975 1.385 . S
C2976 C2977 1.389 . S
C2977 C2976 1.389 . S
C2977 C2978 1.387 . S
C2978 H2963 0.930 . S
C2978 C2973 1.390 . S
C2978 C2977 1.387 . S
H2979 C2991 0.930 . S
H2980 C2993 0.930 . S
H2981 C2994 0.930 . S
H2982 C2998 0.959 . S
H2983 C2998 0.959 . S
H2984 C2998 0.961 . S
H2985 C2999 0.960 . S
H2986 C2999 0.961 . S
H2987 C2999 0.959 . S
H2988 C3002 0.929 . S
H2989 C3003 0.931 . S
H2990 C3005 0.930 . S
C2991 H2979 0.930 . S
C2991 C2992 1.399 . S
C2991 C2996 1.399 . S
C2992 C2991 1.399 . S
C2992 C2993 1.376 . S
C2993 H2980 0.930 . S
C2993 C2992 1.376 . S
C2993 C2994 1.388 . S
C2994 H2981 0.930 . S
C2994 C2993 1.388 . S
C2994 C2995 1.390 . S
C2995 C2994 1.390 . S
C2995 C2996 1.394 . S
C2995 C3001 1.465 . S
C2996 C2991 1.399 . S
C2996 C2995 1.394 . S
C2996 C2997 1.516 . S
C2997 C2996 1.516 . S
C2997 C2998 1.502 . S
C2997 C2999 1.561 . S
C2997 C3000 1.526 . S
C2998 H2982 0.959 . S
C2998 H2983 0.959 . S
C2998 H2984 0.961 . S
C2998 C2997 1.502 . S
C2999 H2985 0.960 . S
C2999 H2986 0.961 . S
C2999 H2987 0.959 . S
C2999 C2997 1.561 . S
C3000 C2997 1.526 . S
C3000 C3001 1.396 . S
C3000 C3005 1.390 . S
C3001 C2995 1.465 . S
C3001 C3000 1.396 . S
C3001 C3002 1.399 . S
C3002 H2988 0.929 . S
C3002 C3001 1.399 . S
C3002 C3003 1.385 . S
C3003 H2989 0.931 . S
C3003 C3002 1.385 . S
C3003 C3004 1.389 . S
C3004 C3003 1.389 . S
C3004 C3005 1.387 . S
C3005 H2990 0.930 . S
C3005 C3000 1.390 . S
C3005 C3004 1.387 . S
H3006 C3018 0.930 . S
H3007 C3020 0.930 . S
H3008 C3021 0.930 . S
H3009 C3025 0.959 . S
H3010 C3025 0.959 . S
H3011 C3025 0.961 1_556 S
H3012 C3026 0.960 . S
H3013 C3026 0.961 . S
H3014 C3026 0.959 . S
H3015 C3029 0.929 . S
H3016 C3030 0.931 . S
H3017 C3032 0.930 . S
C3018 H3006 0.930 . S
C3018 C3019 1.399 . S
C3018 C3023 1.399 . S
C3019 C3018 1.399 . S
C3019 C3020 1.376 . S
C3020 H3007 0.930 . S
C3020 C3019 1.376 . S
C3020 C3021 1.388 . S
C3021 H3008 0.930 . S
C3021 C3020 1.388 . S
C3021 C3022 1.390 . S
C3022 C3021 1.390 . S
C3022 C3023 1.394 . S
C3022 C3028 1.465 1_556 S
C3023 C3018 1.399 . S
C3023 C3022 1.394 . S
C3023 C3024 1.516 1_556 S
C3024 C3023 1.516 1_554 S
C3024 C3025 1.502 . S
C3024 C3026 1.561 . S
C3024 C3027 1.526 . S
C3025 H3009 0.959 . S
C3025 H3010 0.959 . S
C3025 H3011 0.961 1_554 S
C3025 C3024 1.502 . S
C3026 H3012 0.960 . S
C3026 H3013 0.961 . S
C3026 H3014 0.959 . S
C3026 C3024 1.561 . S
C3027 C3024 1.526 . S
C3027 C3028 1.396 . S
C3027 C3032 1.390 . S
C3028 C3022 1.465 1_554 S
C3028 C3027 1.396 . S
C3028 C3029 1.399 . S
C3029 H3015 0.929 . S
C3029 C3028 1.399 . S
C3029 C3030 1.385 . S
C3030 H3016 0.931 . S
C3030 C3029 1.385 . S
C3030 C3031 1.389 . S
C3031 C3030 1.389 . S
C3031 C3032 1.387 . S
C3032 H3017 0.930 . S
C3032 C3027 1.390 . S
C3032 C3031 1.387 . S
H3033 C3045 0.930 . S
H3034 C3047 0.930 . S
H3035 C3048 0.930 . S
H3036 C3052 0.959 . S
H3037 C3052 0.959 . S
H3038 C3052 0.961 1_556 S
H3039 C3053 0.960 1_556 S
H3040 C3053 0.961 . S
H3041 C3053 0.959 . S
H3042 C3056 0.929 . S
H3043 C3057 0.931 . S
H3044 C3059 0.930 . S
C3045 H3033 0.930 . S
C3045 C3046 1.399 . S
C3045 C3050 1.399 . S
C3046 C3045 1.399 . S
C3046 C3047 1.376 . S
C3047 H3034 0.930 . S
C3047 C3046 1.376 . S
C3047 C3048 1.388 . S
C3048 H3035 0.930 . S
C3048 C3047 1.388 . S
C3048 C3049 1.390 . S
C3049 C3048 1.390 . S
C3049 C3050 1.394 . S
C3049 C3055 1.465 1_556 S
C3050 C3045 1.399 . S
C3050 C3049 1.394 . S
C3050 C3051 1.516 1_556 S
C3051 C3050 1.516 1_554 S
C3051 C3052 1.502 . S
C3051 C3053 1.561 . S
C3051 C3054 1.526 . S
C3052 H3036 0.959 . S
C3052 H3037 0.959 . S
C3052 H3038 0.961 1_554 S
C3052 C3051 1.502 . S
C3053 H3039 0.960 1_554 S
C3053 H3040 0.961 . S
C3053 H3041 0.959 . S
C3053 C3051 1.561 . S
C3054 C3051 1.526 . S
C3054 C3055 1.396 . S
C3054 C3059 1.390 . S
C3055 C3049 1.465 1_554 S
C3055 C3054 1.396 . S
C3055 C3056 1.399 . S
C3056 H3042 0.929 . S
C3056 C3055 1.399 . S
C3056 C3057 1.385 . S
C3057 H3043 0.931 . S
C3057 C3056 1.385 . S
C3057 C3058 1.389 . S
C3058 C3057 1.389 . S
C3058 C3059 1.387 . S
C3059 H3044 0.930 . S
C3059 C3054 1.390 . S
C3059 C3058 1.387 . S
H3060 C3072 0.930 . S
H3061 C3074 0.930 . S
H3062 C3075 0.930 . S
H3063 C3079 0.959 . S
H3064 C3079 0.959 . S
H3065 C3079 0.961 1_556 S
H3066 C3080 0.960 1_556 S
H3067 C3080 0.961 . S
H3068 C3080 0.959 . S
H3069 C3083 0.929 . S
H3070 C3084 0.931 . S
H3071 C3086 0.930 . S
C3072 H3060 0.930 . S
C3072 C3073 1.399 . S
C3072 C3077 1.399 . S
C3073 C3072 1.399 . S
C3073 C3074 1.376 . S
C3074 H3061 0.930 . S
C3074 C3073 1.376 . S
C3074 C3075 1.388 . S
C3075 H3062 0.930 . S
C3075 C3074 1.388 . S
C3075 C3076 1.390 . S
C3076 C3075 1.390 . S
C3076 C3077 1.394 . S
C3076 C3082 1.465 1_556 S
C3077 C3072 1.399 . S
C3077 C3076 1.394 . S
C3077 C3078 1.516 1_556 S
C3078 C3077 1.516 1_554 S
C3078 C3079 1.502 . S
C3078 C3080 1.561 . S
C3078 C3081 1.526 . S
C3079 H3063 0.959 . S
C3079 H3064 0.959 . S
C3079 H3065 0.961 1_554 S
C3079 C3078 1.502 . S
C3080 H3066 0.960 1_554 S
C3080 H3067 0.961 . S
C3080 H3068 0.959 . S
C3080 C3078 1.561 . S
C3081 C3078 1.526 . S
C3081 C3082 1.396 . S
C3081 C3086 1.390 . S
C3082 C3076 1.465 1_554 S
C3082 C3081 1.396 . S
C3082 C3083 1.399 . S
C3083 H3069 0.929 . S
C3083 C3082 1.399 . S
C3083 C3084 1.385 . S
C3084 H3070 0.931 . S
C3084 C3083 1.385 . S
C3084 C3085 1.389 . S
C3085 C3084 1.389 . S
C3085 C3086 1.387 . S
C3086 H3071 0.930 . S
C3086 C3081 1.390 . S
C3086 C3085 1.387 . S
H3087 C3099 0.930 . S
H3088 C3101 0.930 . S
H3089 C3102 0.930 . S
H3090 C3106 0.959 . S
H3091 C3106 0.959 . S
H3092 C3106 0.961 . S
H3093 C3107 0.960 . S
H3094 C3107 0.961 . S
H3095 C3107 0.959 . S
H3096 C3110 0.929 . S
H3097 C3111 0.931 . S
H3098 C3113 0.930 . S
C3099 H3087 0.930 . S
C3099 C3100 1.399 . S
C3099 C3104 1.399 . S
C3100 C3099 1.399 . S
C3100 C3101 1.376 . S
C3101 H3088 0.930 . S
C3101 C3100 1.376 . S
C3101 C3102 1.388 . S
C3102 H3089 0.930 . S
C3102 C3101 1.388 . S
C3102 C3103 1.390 . S
C3103 C3102 1.390 . S
C3103 C3104 1.394 . S
C3103 C3109 1.465 . S
C3104 C3099 1.399 . S
C3104 C3103 1.394 . S
C3104 C3105 1.516 . S
C3105 C3104 1.516 . S
C3105 C3106 1.502 . S
C3105 C3107 1.561 . S
C3105 C3108 1.526 . S
C3106 H3090 0.959 . S
C3106 H3091 0.959 . S
C3106 H3092 0.961 . S
C3106 C3105 1.502 . S
C3107 H3093 0.960 . S
C3107 H3094 0.961 . S
C3107 H3095 0.959 . S
C3107 C3105 1.561 . S
C3108 C3105 1.526 . S
C3108 C3109 1.396 . S
C3108 C3113 1.390 . S
C3109 C3103 1.465 . S
C3109 C3108 1.396 . S
C3109 C3110 1.399 . S
C3110 H3096 0.929 . S
C3110 C3109 1.399 . S
C3110 C3111 1.385 . S
C3111 H3097 0.931 . S
C3111 C3110 1.385 . S
C3111 C3112 1.389 . S
C3112 C3111 1.389 . S
C3112 C3113 1.387 . S
C3113 H3098 0.930 . S
C3113 C3108 1.390 . S
C3113 C3112 1.387 . S
H3114 C3126 0.930 . S
H3115 C3128 0.930 . S
H3116 C3129 0.930 . S
H3117 C3133 0.959 . S
H3118 C3133 0.959 . S
H3119 C3133 0.961 . S
H3120 C3134 0.960 . S
H3121 C3134 0.961 . S
H3122 C3134 0.959 . S
H3123 C3137 0.929 . S
H3124 C3138 0.931 . S
H3125 C3140 0.930 . S
C3126 H3114 0.930 . S
C3126 C3127 1.399 . S
C3126 C3131 1.399 . S
C3127 C3126 1.399 . S
C3127 C3128 1.376 . S
C3128 H3115 0.930 . S
C3128 C3127 1.376 . S
C3128 C3129 1.388 . S
C3129 H3116 0.930 . S
C3129 C3128 1.388 . S
C3129 C3130 1.390 . S
C3130 C3129 1.390 . S
C3130 C3131 1.394 . S
C3130 C3136 1.465 . S
C3131 C3126 1.399 . S
C3131 C3130 1.394 . S
C3131 C3132 1.516 . S
C3132 C3131 1.516 . S
C3132 C3133 1.502 . S
C3132 C3134 1.561 . S
C3132 C3135 1.526 . S
C3133 H3117 0.959 . S
C3133 H3118 0.959 . S
C3133 H3119 0.961 . S
C3133 C3132 1.502 . S
C3134 H3120 0.960 . S
C3134 H3121 0.961 . S
C3134 H3122 0.959 . S
C3134 C3132 1.561 . S
C3135 C3132 1.526 . S
C3135 C3136 1.396 . S
C3135 C3140 1.390 . S
C3136 C3130 1.465 . S
C3136 C3135 1.396 . S
C3136 C3137 1.399 . S
C3137 H3123 0.929 . S
C3137 C3136 1.399 . S
C3137 C3138 1.385 . S
C3138 H3124 0.931 . S
C3138 C3137 1.385 . S
C3138 C3139 1.389 . S
C3139 C3138 1.389 . S
C3139 C3140 1.387 . S
C3140 H3125 0.930 . S
C3140 C3135 1.390 . S
C3140 C3139 1.387 . S
H3141 C3153 0.930 . S
H3142 C3155 0.930 . S
H3143 C3156 0.930 . S
H3144 C3160 0.959 . S
H3145 C3160 0.959 . S
H3146 C3160 0.961 . S
H3147 C3161 0.960 . S
H3148 C3161 0.961 . S
H3149 C3161 0.959 . S
H3150 C3164 0.929 . S
H3151 C3165 0.931 . S
H3152 C3167 0.930 . S
C3153 H3141 0.930 . S
C3153 C3154 1.399 . S
C3153 C3158 1.399 . S
C3154 C3153 1.399 . S
C3154 C3155 1.376 . S
C3155 H3142 0.930 . S
C3155 C3154 1.376 . S
C3155 C3156 1.388 . S
C3156 H3143 0.930 . S
C3156 C3155 1.388 . S
C3156 C3157 1.390 . S
C3157 C3156 1.390 . S
C3157 C3158 1.394 . S
C3157 C3163 1.465 . S
C3158 C3153 1.399 . S
C3158 C3157 1.394 . S
C3158 C3159 1.516 . S
C3159 C3158 1.516 . S
C3159 C3160 1.502 . S
C3159 C3161 1.561 . S
C3159 C3162 1.526 . S
C3160 H3144 0.959 . S
C3160 H3145 0.959 . S
C3160 H3146 0.961 . S
C3160 C3159 1.502 . S
C3161 H3147 0.960 . S
C3161 H3148 0.961 . S
C3161 H3149 0.959 . S
C3161 C3159 1.561 . S
C3162 C3159 1.526 . S
C3162 C3163 1.396 . S
C3162 C3167 1.390 . S
C3163 C3157 1.465 . S
C3163 C3162 1.396 . S
C3163 C3164 1.399 . S
C3164 H3150 0.929 . S
C3164 C3163 1.399 . S
C3164 C3165 1.385 . S
C3165 H3151 0.931 . S
C3165 C3164 1.385 . S
C3165 C3166 1.389 . S
C3166 C3165 1.389 . S
C3166 C3167 1.387 . S
C3167 H3152 0.930 . S
C3167 C3162 1.390 . S
C3167 C3166 1.387 . S
H3168 C3180 0.930 . S
H3169 C3182 0.930 . S
H3170 C3183 0.930 . S
H3171 C3187 0.959 . S
H3172 C3187 0.959 . S
H3173 C3187 0.961 . S
H3174 C3188 0.960 . S
H3175 C3188 0.961 . S
H3176 C3188 0.959 . S
H3177 C3191 0.929 . S
H3178 C3192 0.931 . S
H3179 C3194 0.930 . S
C3180 H3168 0.930 . S
C3180 C3181 1.399 . S
C3180 C3185 1.399 . S
C3181 C3180 1.399 . S
C3181 C3182 1.376 . S
C3182 H3169 0.930 . S
C3182 C3181 1.376 . S
C3182 C3183 1.388 . S
C3183 H3170 0.930 . S
C3183 C3182 1.388 . S
C3183 C3184 1.390 . S
C3184 C3183 1.390 . S
C3184 C3185 1.394 . S
C3184 C3190 1.465 . S
C3185 C3180 1.399 . S
C3185 C3184 1.394 . S
C3185 C3186 1.516 . S
C3186 C3185 1.516 . S
C3186 C3187 1.502 . S
C3186 C3188 1.561 . S
C3186 C3189 1.526 . S
C3187 H3171 0.959 . S
C3187 H3172 0.959 . S
C3187 H3173 0.961 . S
C3187 C3186 1.502 . S
C3188 H3174 0.960 . S
C3188 H3175 0.961 . S
C3188 H3176 0.959 . S
C3188 C3186 1.561 . S
C3189 C3186 1.526 . S
C3189 C3190 1.396 . S
C3189 C3194 1.390 . S
C3190 C3184 1.465 . S
C3190 C3189 1.396 . S
C3190 C3191 1.399 . S
C3191 H3177 0.929 . S
C3191 C3190 1.399 . S
C3191 C3192 1.385 . S
C3192 H3178 0.931 . S
C3192 C3191 1.385 . S
C3192 C3193 1.389 . S
C3193 C3192 1.389 . S
C3193 C3194 1.387 . S
C3194 H3179 0.930 . S
C3194 C3189 1.390 . S
C3194 C3193 1.387 . S
H3195 C3207 0.930 . S
H3196 C3209 0.930 . S
H3197 C3210 0.930 . S
H3198 C3214 0.959 . S
H3199 C3214 0.959 . S
H3200 C3214 0.961 . S
H3201 C3215 0.960 . S
H3202 C3215 0.961 . S
H3203 C3215 0.959 . S
H3204 C3218 0.929 . S
H3205 C3219 0.931 . S
H3206 C3221 0.930 . S
C3207 H3195 0.930 . S
C3207 C3208 1.399 . S
C3207 C3212 1.399 . S
C3208 C3207 1.399 . S
C3208 C3209 1.376 . S
C3209 H3196 0.930 . S
C3209 C3208 1.376 . S
C3209 C3210 1.388 . S
C3210 H3197 0.930 . S
C3210 C3209 1.388 . S
C3210 C3211 1.390 . S
C3211 C3210 1.390 . S
C3211 C3212 1.394 . S
C3211 C3217 1.465 . S
C3212 C3207 1.399 . S
C3212 C3211 1.394 . S
C3212 C3213 1.516 . S
C3213 C3212 1.516 . S
C3213 C3214 1.502 . S
C3213 C3215 1.561 . S
C3213 C3216 1.526 . S
C3214 H3198 0.959 . S
C3214 H3199 0.959 . S
C3214 H3200 0.961 . S
C3214 C3213 1.502 . S
C3215 H3201 0.960 . S
C3215 H3202 0.961 . S
C3215 H3203 0.959 . S
C3215 C3213 1.561 . S
C3216 C3213 1.526 . S
C3216 C3217 1.396 . S
C3216 C3221 1.390 . S
C3217 C3211 1.465 . S
C3217 C3216 1.396 . S
C3217 C3218 1.399 . S
C3218 H3204 0.929 . S
C3218 C3217 1.399 . S
C3218 C3219 1.385 . S
C3219 H3205 0.931 . S
C3219 C3218 1.385 . S
C3219 C3220 1.389 . S
C3220 C3219 1.389 . S
C3220 C3221 1.387 . S
C3221 H3206 0.930 . S
C3221 C3216 1.390 . S
C3221 C3220 1.387 . S
H3222 C3234 0.930 . S
H3223 C3236 0.930 . S
H3224 C3237 0.930 . S
H3225 C3241 0.959 . S
H3226 C3241 0.959 . S
H3227 C3241 0.961 . S
H3228 C3242 0.960 . S
H3229 C3242 0.961 . S
H3230 C3242 0.959 . S
H3231 C3245 0.929 . S
H3232 C3246 0.931 . S
H3233 C3248 0.930 . S
C3234 H3222 0.930 . S
C3234 C3235 1.399 . S
C3234 C3239 1.399 . S
C3235 C3234 1.399 . S
C3235 C3236 1.376 . S
C3236 H3223 0.930 . S
C3236 C3235 1.376 . S
C3236 C3237 1.388 . S
C3237 H3224 0.930 . S
C3237 C3236 1.388 . S
C3237 C3238 1.390 . S
C3238 C3237 1.390 . S
C3238 C3239 1.394 . S
C3238 C3244 1.465 . S
C3239 C3234 1.399 . S
C3239 C3238 1.394 . S
C3239 C3240 1.516 . S
C3240 C3239 1.516 . S
C3240 C3241 1.502 . S
C3240 C3242 1.561 . S
C3240 C3243 1.526 . S
C3241 H3225 0.959 . S
C3241 H3226 0.959 . S
C3241 H3227 0.961 . S
C3241 C3240 1.502 . S
C3242 H3228 0.960 . S
C3242 H3229 0.961 . S
C3242 H3230 0.959 . S
C3242 C3240 1.561 . S
C3243 C3240 1.526 . S
C3243 C3244 1.396 . S
C3243 C3248 1.390 . S
C3244 C3238 1.465 . S
C3244 C3243 1.396 . S
C3244 C3245 1.399 . S
C3245 H3231 0.929 . S
C3245 C3244 1.399 . S
C3245 C3246 1.385 . S
C3246 H3232 0.931 . S
C3246 C3245 1.385 . S
C3246 C3247 1.389 . S
C3247 C3246 1.389 . S
C3247 C3248 1.387 . S
C3248 H3233 0.930 . S
C3248 C3243 1.390 . S
C3248 C3247 1.387 . S
H3249 C3261 0.930 . S
H3250 C3263 0.930 . S
H3251 C3264 0.930 . S
H3252 C3268 0.959 . S
H3253 C3268 0.959 1_556 S
H3254 C3268 0.961 . S
H3255 C3269 0.960 . S
H3256 C3269 0.961 1_556 S
H3257 C3269 0.959 . S
H3258 C3272 0.929 . S
H3259 C3273 0.931 . S
H3260 C3275 0.930 . S
C3261 H3249 0.930 . S
C3261 C3262 1.399 . S
C3261 C3266 1.399 . S
C3262 C3261 1.399 . S
C3262 C3263 1.376 . S
C3263 H3250 0.930 . S
C3263 C3262 1.376 . S
C3263 C3264 1.388 . S
C3264 H3251 0.930 . S
C3264 C3263 1.388 . S
C3264 C3265 1.390 . S
C3265 C3264 1.390 . S
C3265 C3266 1.394 . S
C3265 C3271 1.465 1_554 S
C3266 C3261 1.399 . S
C3266 C3265 1.394 . S
C3266 C3267 1.516 . S
C3267 C3266 1.516 . S
C3267 C3268 1.502 . S
C3267 C3269 1.561 . S
C3267 C3270 1.526 1_554 S
C3268 H3252 0.959 . S
C3268 H3253 0.959 1_554 S
C3268 H3254 0.961 . S
C3268 C3267 1.502 . S
C3269 H3255 0.960 . S
C3269 H3256 0.961 1_554 S
C3269 H3257 0.959 . S
C3269 C3267 1.561 . S
C3270 C3267 1.526 1_556 S
C3270 C3271 1.396 . S
C3270 C3275 1.390 . S
C3271 C3265 1.465 1_556 S
C3271 C3270 1.396 . S
C3271 C3272 1.399 . S
C3272 H3258 0.929 . S
C3272 C3271 1.399 . S
C3272 C3273 1.385 . S
C3273 H3259 0.931 . S
C3273 C3272 1.385 . S
C3273 C3274 1.389 . S
C3274 C3273 1.389 . S
C3274 C3275 1.387 . S
C3275 H3260 0.930 . S
C3275 C3270 1.390 . S
C3275 C3274 1.387 . S
H3276 C3288 0.930 . S
H3277 C3290 0.930 . S
H3278 C3291 0.930 . S
H3279 C3295 0.959 . S
H3280 C3295 0.959 . S
H3281 C3295 0.961 1_556 S
H3282 C3296 0.960 1_556 S
H3283 C3296 0.961 . S
H3284 C3296 0.959 . S
H3285 C3299 0.929 . S
H3286 C3300 0.931 . S
H3287 C3302 0.930 . S
C3288 H3276 0.930 . S
C3288 C3289 1.399 . S
C3288 C3293 1.399 . S
C3289 C3288 1.399 . S
C3289 C3290 1.376 . S
C3290 H3277 0.930 . S
C3290 C3289 1.376 . S
C3290 C3291 1.388 . S
C3291 H3278 0.930 . S
C3291 C3290 1.388 . S
C3291 C3292 1.390 . S
C3292 C3291 1.390 . S
C3292 C3293 1.394 . S
C3292 C3298 1.465 1_556 S
C3293 C3288 1.399 . S
C3293 C3292 1.394 . S
C3293 C3294 1.516 1_556 S
C3294 C3293 1.516 1_554 S
C3294 C3295 1.502 . S
C3294 C3296 1.561 . S
C3294 C3297 1.526 . S
C3295 H3279 0.959 . S
C3295 H3280 0.959 . S
C3295 H3281 0.961 1_554 S
C3295 C3294 1.502 . S
C3296 H3282 0.960 1_554 S
C3296 H3283 0.961 . S
C3296 H3284 0.959 . S
C3296 C3294 1.561 . S
C3297 C3294 1.526 . S
C3297 C3298 1.396 . S
C3297 C3302 1.390 . S
C3298 C3292 1.465 1_554 S
C3298 C3297 1.396 . S
C3298 C3299 1.399 . S
C3299 H3285 0.929 . S
C3299 C3298 1.399 . S
C3299 C3300 1.385 . S
C3300 H3286 0.931 . S
C3300 C3299 1.385 . S
C3300 C3301 1.389 . S
C3301 C3300 1.389 . S
C3301 C3302 1.387 . S
C3302 H3287 0.930 . S
C3302 C3297 1.390 . S
C3302 C3301 1.387 . S
H3303 C3315 0.930 . S
H3304 C3317 0.930 . S
H3305 C3318 0.930 . S
H3306 C3322 0.959 . S
H3307 C3322 0.959 . S
H3308 C3322 0.974 . S
H3309 C3323 0.966 . S
H3310 C3323 0.961 . S
H3311 C3323 0.959 . S
H3312 C3326 0.929 . S
H3313 C3327 0.931 . S
H3314 C3329 0.930 . S
C3315 H3303 0.930 . S
C3315 C3316 1.399 . S
C3315 C3320 1.399 . S
C3316 C3315 1.399 . S
C3316 C3317 1.376 . S
C3317 H3304 0.930 . S
C3317 C3316 1.376 . S
C3317 C3318 1.388 . S
C3318 H3305 0.930 . S
C3318 C3317 1.388 . S
C3318 C3319 1.390 . S
C3319 C3318 1.390 . S
C3319 C3320 1.394 . S
C3319 C3325 1.465 1_556 S
C3320 C3315 1.399 . S
C3320 C3319 1.394 . S
C3320 C3321 1.516 1_556 S
C3321 C3320 1.516 1_554 S
C3321 C3322 1.502 . S
C3321 C3323 1.561 . S
C3321 C3324 1.526 . S
C3322 H3306 0.959 . S
C3322 H3307 0.959 . S
C3322 H3308 0.974 . S
C3322 C3321 1.502 . S
C3323 H3309 0.966 . S
C3323 H3310 0.961 . S
C3323 H3311 0.959 . S
C3323 C3321 1.561 . S
C3324 C3321 1.526 . S
C3324 C3325 1.396 . S
C3324 C3329 1.390 . S
C3325 C3319 1.465 1_554 S
C3325 C3324 1.396 . S
C3325 C3326 1.399 . S
C3326 H3312 0.929 . S
C3326 C3325 1.399 . S
C3326 C3327 1.385 . S
C3327 H3313 0.931 . S
C3327 C3326 1.385 . S
C3327 C3328 1.389 . S
C3328 C3327 1.389 . S
C3328 C3329 1.387 . S
C3329 H3314 0.930 . S
C3329 C3324 1.390 . S
C3329 C3328 1.387 . S
H3330 C3342 0.930 . S
H3331 C3344 0.930 . S
H3332 C3345 0.930 . S
H3333 C3349 0.959 . S
H3334 C3349 0.959 . S
H3335 C3349 0.961 . S
H3336 C3350 0.960 . S
H3337 C3350 0.961 . S
H3338 C3350 0.959 . S
H3339 C3353 0.929 . S
H3340 C3354 0.931 . S
H3341 C3356 0.930 . S
C3342 H3330 0.930 . S
C3342 C3343 1.399 . S
C3342 C3347 1.399 . S
C3343 C3342 1.399 . S
C3343 C3344 1.376 . S
C3344 H3331 0.930 . S
C3344 C3343 1.376 . S
C3344 C3345 1.388 . S
C3345 H3332 0.930 . S
C3345 C3344 1.388 . S
C3345 C3346 1.390 . S
C3346 C3345 1.390 . S
C3346 C3347 1.394 . S
C3346 C3352 1.465 . S
C3347 C3342 1.399 . S
C3347 C3346 1.394 . S
C3347 C3348 1.516 . S
C3348 C3347 1.516 . S
C3348 C3349 1.502 . S
C3348 C3350 1.561 . S
C3348 C3351 1.526 . S
C3349 H3333 0.959 . S
C3349 H3334 0.959 . S
C3349 H3335 0.961 . S
C3349 C3348 1.502 . S
C3350 H3336 0.960 . S
C3350 H3337 0.961 . S
C3350 H3338 0.959 . S
C3350 C3348 1.561 . S
C3351 C3348 1.526 . S
C3351 C3352 1.396 . S
C3351 C3356 1.390 . S
C3352 C3346 1.465 . S
C3352 C3351 1.396 . S
C3352 C3353 1.399 . S
C3353 H3339 0.929 . S
C3353 C3352 1.399 . S
C3353 C3354 1.385 . S
C3354 H3340 0.931 . S
C3354 C3353 1.385 . S
C3354 C3355 1.389 . S
C3355 C3354 1.389 . S
C3355 C3356 1.387 . S
C3356 H3341 0.930 . S
C3356 C3351 1.390 . S
C3356 C3355 1.387 . S
H3357 C3369 0.930 . S
H3358 C3371 0.930 . S
H3359 C3372 0.930 . S
H3360 C3376 0.959 . S
H3361 C3376 0.959 . S
H3362 C3376 0.961 . S
H3363 C3377 0.960 . S
H3364 C3377 0.961 . S
H3365 C3377 0.959 . S
H3366 C3380 0.929 . S
H3367 C3381 0.931 . S
H3368 C3383 0.930 . S
C3369 H3357 0.930 . S
C3369 C3370 1.399 . S
C3369 C3374 1.399 . S
C3370 C3369 1.399 . S
C3370 C3371 1.376 . S
C3371 H3358 0.930 . S
C3371 C3370 1.376 . S
C3371 C3372 1.388 . S
C3372 H3359 0.930 . S
C3372 C3371 1.388 . S
C3372 C3373 1.390 . S
C3373 C3372 1.390 . S
C3373 C3374 1.394 . S
C3373 C3379 1.465 . S
C3374 C3369 1.399 . S
C3374 C3373 1.394 . S
C3374 C3375 1.516 . S
C3375 C3374 1.516 . S
C3375 C3376 1.502 . S
C3375 C3377 1.561 . S
C3375 C3378 1.526 . S
C3376 H3360 0.959 . S
C3376 H3361 0.959 . S
C3376 H3362 0.961 . S
C3376 C3375 1.502 . S
C3377 H3363 0.960 . S
C3377 H3364 0.961 . S
C3377 H3365 0.959 . S
C3377 C3375 1.561 . S
C3378 C3375 1.526 . S
C3378 C3379 1.396 . S
C3378 C3383 1.390 . S
C3379 C3373 1.465 . S
C3379 C3378 1.396 . S
C3379 C3380 1.399 . S
C3380 H3366 0.929 . S
C3380 C3379 1.399 . S
C3380 C3381 1.385 . S
C3381 H3367 0.931 . S
C3381 C3380 1.385 . S
C3381 C3382 1.389 . S
C3382 C3381 1.389 . S
C3382 C3383 1.387 . S
C3383 H3368 0.930 . S
C3383 C3378 1.390 . S
C3383 C3382 1.387 . S
H3384 C3396 0.930 . S
H3385 C3398 0.930 . S
H3386 C3399 0.930 . S
H3387 C3403 0.959 . S
H3388 C3403 0.959 . S
H3389 C3403 0.961 . S
H3390 C3404 0.960 . S
H3391 C3404 0.961 . S
H3392 C3404 0.959 . S
H3393 C3407 0.929 . S
H3394 C3408 0.931 . S
H3395 C3410 0.930 . S
C3396 H3384 0.930 . S
C3396 C3397 1.399 . S
C3396 C3401 1.399 . S
C3397 C3396 1.399 . S
C3397 C3398 1.376 . S
C3398 H3385 0.930 . S
C3398 C3397 1.376 . S
C3398 C3399 1.388 . S
C3399 H3386 0.930 . S
C3399 C3398 1.388 . S
C3399 C3400 1.390 . S
C3400 C3399 1.390 . S
C3400 C3401 1.394 . S
C3400 C3406 1.465 . S
C3401 C3396 1.399 . S
C3401 C3400 1.394 . S
C3401 C3402 1.516 . S
C3402 C3401 1.516 . S
C3402 C3403 1.502 . S
C3402 C3404 1.561 . S
C3402 C3405 1.526 . S
C3403 H3387 0.959 . S
C3403 H3388 0.959 . S
C3403 H3389 0.961 . S
C3403 C3402 1.502 . S
C3404 H3390 0.960 . S
C3404 H3391 0.961 . S
C3404 H3392 0.959 . S
C3404 C3402 1.561 . S
C3405 C3402 1.526 . S
C3405 C3406 1.396 . S
C3405 C3410 1.390 . S
C3406 C3400 1.465 . S
C3406 C3405 1.396 . S
C3406 C3407 1.399 . S
C3407 H3393 0.929 . S
C3407 C3406 1.399 . S
C3407 C3408 1.385 . S
C3408 H3394 0.931 . S
C3408 C3407 1.385 . S
C3408 C3409 1.389 . S
C3409 C3408 1.389 . S
C3409 C3410 1.387 . S
C3410 H3395 0.930 . S
C3410 C3405 1.390 . S
C3410 C3409 1.387 . S
H3411 C3423 0.930 . S
H3412 C3425 0.930 . S
H3413 C3426 0.930 . S
H3414 C3430 0.959 . S
H3415 C3430 0.959 . S
H3416 C3430 0.961 1_554 S
H3417 C3431 0.960 1_554 S
H3418 C3431 0.961 . S
H3419 C3431 0.959 . S
H3420 C3434 0.929 . S
H3421 C3435 0.931 . S
H3422 C3437 0.930 . S
C3423 H3411 0.930 . S
C3423 C3424 1.399 . S
C3423 C3428 1.399 . S
C3424 C3423 1.399 . S
C3424 C3425 1.376 . S
C3425 H3412 0.930 . S
C3425 C3424 1.376 . S
C3425 C3426 1.388 . S
C3426 H3413 0.930 . S
C3426 C3425 1.388 . S
C3426 C3427 1.390 . S
C3427 C3426 1.390 . S
C3427 C3428 1.394 . S
C3427 C3433 1.465 1_554 S
C3428 C3423 1.399 . S
C3428 C3427 1.394 . S
C3428 C3429 1.516 1_554 S
C3429 C3428 1.516 1_556 S
C3429 C3430 1.502 . S
C3429 C3431 1.561 . S
C3429 C3432 1.526 . S
C3430 H3414 0.959 . S
C3430 H3415 0.959 . S
C3430 H3416 0.961 1_556 S
C3430 C3429 1.502 . S
C3431 H3417 0.960 1_556 S
C3431 H3418 0.961 . S
C3431 H3419 0.959 . S
C3431 C3429 1.561 . S
C3432 C3429 1.526 . S
C3432 C3433 1.396 . S
C3432 C3437 1.390 . S
C3433 C3427 1.465 1_556 S
C3433 C3432 1.396 . S
C3433 C3434 1.399 . S
C3434 H3420 0.929 . S
C3434 C3433 1.399 . S
C3434 C3435 1.385 . S
C3435 H3421 0.931 . S
C3435 C3434 1.385 . S
C3435 C3436 1.389 . S
C3436 C3435 1.389 . S
C3436 C3437 1.387 . S
C3437 H3422 0.930 . S
C3437 C3432 1.390 . S
C3437 C3436 1.387 . S
H3438 C3450 0.930 . S
H3439 C3452 0.930 . S
H3440 C3453 0.930 . S
H3441 C3457 0.959 . S
H3442 C3457 0.959 1_554 S
H3443 C3457 0.961 . S
H3444 C3458 0.960 . S
H3445 C3458 0.960 1_554 S
H3446 C3458 0.959 . S
H3447 C3461 0.929 . S
H3448 C3462 0.931 . S
H3449 C3464 0.930 . S
C3450 H3438 0.930 . S
C3450 C3451 1.399 . S
C3450 C3455 1.399 . S
C3451 C3450 1.399 . S
C3451 C3452 1.376 . S
C3452 H3439 0.930 . S
C3452 C3451 1.376 . S
C3452 C3453 1.388 . S
C3453 H3440 0.930 . S
C3453 C3452 1.388 . S
C3453 C3454 1.390 . S
C3454 C3453 1.390 . S
C3454 C3455 1.394 . S
C3454 C3460 1.465 1_556 S
C3455 C3450 1.399 . S
C3455 C3454 1.394 . S
C3455 C3456 1.516 . S
C3456 C3455 1.516 . S
C3456 C3457 1.502 . S
C3456 C3458 1.561 . S
C3456 C3459 1.526 1_556 S
C3457 H3441 0.959 . S
C3457 H3442 0.959 1_556 S
C3457 H3443 0.961 . S
C3457 C3456 1.502 . S
C3458 H3444 0.960 . S
C3458 H3445 0.960 1_556 S
C3458 H3446 0.959 . S
C3458 C3456 1.561 . S
C3459 C3456 1.526 1_554 S
C3459 C3460 1.396 . S
C3459 C3464 1.390 . S
C3460 C3454 1.465 1_554 S
C3460 C3459 1.396 . S
C3460 C3461 1.399 . S
C3461 H3447 0.929 . S
C3461 C3460 1.399 . S
C3461 C3462 1.385 . S
C3462 H3448 0.931 . S
C3462 C3461 1.385 . S
C3462 C3463 1.389 . S
C3463 C3462 1.389 . S
C3463 C3464 1.387 . S
C3464 H3449 0.930 . S
C3464 C3459 1.390 . S
C3464 C3463 1.387 . S
H3465 C3477 0.930 . S
H3466 C3479 0.930 . S
H3467 C3480 0.930 . S
H3468 C3484 0.959 . S
H3469 C3484 0.959 . S
H3470 C3484 0.961 1_554 S
H3471 C3485 0.960 1_554 S
H3472 C3485 0.961 . S
H3473 C3485 0.959 . S
H3474 C3488 0.929 . S
H3475 C3489 0.931 . S
H3476 C3491 0.930 . S
C3477 H3465 0.930 . S
C3477 C3478 1.399 . S
C3477 C3482 1.399 . S
C3478 C3477 1.399 . S
C3478 C3479 1.376 . S
C3479 H3466 0.930 . S
C3479 C3478 1.376 . S
C3479 C3480 1.388 . S
C3480 H3467 0.930 . S
C3480 C3479 1.388 . S
C3480 C3481 1.390 . S
C3481 C3480 1.390 . S
C3481 C3482 1.394 . S
C3481 C3487 1.465 1_554 S
C3482 C3477 1.399 . S
C3482 C3481 1.394 . S
C3482 C3483 1.516 1_554 S
C3483 C3482 1.516 1_556 S
C3483 C3484 1.502 . S
C3483 C3485 1.561 . S
C3483 C3486 1.526 . S
C3484 H3468 0.959 . S
C3484 H3469 0.959 . S
C3484 H3470 0.961 1_556 S
C3484 C3483 1.502 . S
C3485 H3471 0.960 1_556 S
C3485 H3472 0.961 . S
C3485 H3473 0.959 . S
C3485 C3483 1.561 . S
C3486 C3483 1.526 . S
C3486 C3487 1.396 . S
C3486 C3491 1.390 . S
C3487 C3481 1.465 1_556 S
C3487 C3486 1.396 . S
C3487 C3488 1.399 . S
C3488 H3474 0.929 . S
C3488 C3487 1.399 . S
C3488 C3489 1.385 . S
C3489 H3475 0.931 . S
C3489 C3488 1.385 . S
C3489 C3490 1.389 . S
C3490 C3489 1.389 . S
C3490 C3491 1.387 . S
C3491 H3476 0.930 . S
C3491 C3486 1.390 . S
C3491 C3490 1.387 . S
H3492 C3504 0.930 . S
H3493 C3506 0.930 . S
H3494 C3507 0.930 . S
H3495 C3511 0.959 . S
H3496 C3511 0.959 1_554 S
H3497 C3511 0.961 . S
H3498 C3512 0.960 . S
H3499 C3512 0.961 . S
H3500 C3512 0.959 . S
H3501 C3515 0.929 . S
H3502 C3516 0.931 . S
H3503 C3518 0.930 . S
C3504 H3492 0.930 . S
C3504 C3505 1.399 . S
C3504 C3509 1.399 . S
C3505 C3504 1.399 . S
C3505 C3506 1.376 . S
C3506 H3493 0.930 . S
C3506 C3505 1.376 . S
C3506 C3507 1.388 . S
C3507 H3494 0.930 . S
C3507 C3506 1.388 . S
C3507 C3508 1.390 . S
C3508 C3507 1.390 . S
C3508 C3509 1.394 . S
C3508 C3514 1.465 1_556 S
C3509 C3504 1.399 . S
C3509 C3508 1.394 . S
C3509 C3510 1.516 . S
C3510 C3509 1.516 . S
C3510 C3511 1.502 . S
C3510 C3512 1.561 . S
C3510 C3513 1.526 1_556 S
C3511 H3495 0.959 . S
C3511 H3496 0.959 1_556 S
C3511 H3497 0.961 . S
C3511 C3510 1.502 . S
C3512 H3498 0.960 . S
C3512 H3499 0.961 . S
C3512 H3500 0.959 . S
C3512 C3510 1.561 . S
C3513 C3510 1.526 1_554 S
C3513 C3514 1.396 . S
C3513 C3518 1.390 . S
C3514 C3508 1.465 1_554 S
C3514 C3513 1.396 . S
C3514 C3515 1.399 . S
C3515 H3501 0.929 . S
C3515 C3514 1.399 . S
C3515 C3516 1.385 . S
C3516 H3502 0.931 . S
C3516 C3515 1.385 . S
C3516 C3517 1.389 . S
C3517 C3516 1.389 . S
C3517 C3518 1.387 . S
C3518 H3503 0.930 . S
C3518 C3513 1.390 . S
C3518 C3517 1.387 . S
H3519 C3531 0.930 . S
H3520 C3533 0.930 . S
H3521 C3534 0.930 . S
H3522 C3538 0.959 . S
H3523 C3538 0.959 . S
H3524 C3538 0.961 . S
H3525 C3539 0.960 . S
H3526 C3539 0.961 1_554 S
H3527 C3539 0.959 . S
H3528 C3542 0.929 . S
H3529 C3543 0.931 . S
H3530 C3545 0.930 . S
C3531 H3519 0.930 . S
C3531 C3532 1.399 . S
C3531 C3536 1.399 . S
C3532 C3531 1.399 . S
C3532 C3533 1.376 . S
C3533 H3520 0.930 . S
C3533 C3532 1.376 . S
C3533 C3534 1.388 . S
C3534 H3521 0.930 . S
C3534 C3533 1.388 . S
C3534 C3535 1.390 . S
C3535 C3534 1.390 . S
C3535 C3536 1.394 . S
C3535 C3541 1.465 1_556 S
C3536 C3531 1.399 . S
C3536 C3535 1.394 . S
C3536 C3537 1.516 . S
C3537 C3536 1.516 . S
C3537 C3538 1.502 . S
C3537 C3539 1.561 . S
C3537 C3540 1.526 1_556 S
C3538 H3522 0.959 . S
C3538 H3523 0.959 . S
C3538 H3524 0.961 . S
C3538 C3537 1.502 . S
C3539 H3525 0.960 . S
C3539 H3526 0.961 1_556 S
C3539 H3527 0.959 . S
C3539 C3537 1.561 . S
C3540 C3537 1.526 1_554 S
C3540 C3541 1.396 . S
C3540 C3545 1.390 . S
C3541 C3535 1.465 1_554 S
C3541 C3540 1.396 . S
C3541 C3542 1.399 . S
C3542 H3528 0.929 . S
C3542 C3541 1.399 . S
C3542 C3543 1.385 . S
C3543 H3529 0.931 . S
C3543 C3542 1.385 . S
C3543 C3544 1.389 . S
C3544 C3543 1.389 . S
C3544 C3545 1.387 . S
C3545 H3530 0.930 . S
C3545 C3540 1.390 . S
C3545 C3544 1.387 . S
H3546 C3558 0.930 . S
H3547 C3560 0.930 . S
H3548 C3561 0.930 . S
H3549 C3565 0.959 . S
H3550 C3565 0.959 1_554 S
H3551 C3565 0.961 . S
H3552 C3566 0.960 . S
H3553 C3566 0.955 1_554 S
H3554 C3566 0.959 . S
H3555 C3569 0.929 . S
H3556 C3570 0.931 . S
H3557 C3572 0.930 . S
C3558 H3546 0.930 . S
C3558 C3559 1.399 . S
C3558 C3563 1.399 . S
C3559 C3558 1.399 . S
C3559 C3560 1.376 . S
C3560 H3547 0.930 . S
C3560 C3559 1.376 . S
C3560 C3561 1.388 . S
C3561 H3548 0.930 . S
C3561 C3560 1.388 . S
C3561 C3562 1.390 . S
C3562 C3561 1.390 . S
C3562 C3563 1.394 . S
C3562 C3568 1.465 1_556 S
C3563 C3558 1.399 . S
C3563 C3562 1.394 . S
C3563 C3564 1.516 . S
C3564 C3563 1.516 . S
C3564 C3565 1.502 . S
C3564 C3566 1.561 . S
C3564 C3567 1.526 1_556 S
C3565 H3549 0.959 . S
C3565 H3550 0.959 1_556 S
C3565 H3551 0.961 . S
C3565 C3564 1.502 . S
C3566 H3552 0.960 . S
C3566 H3553 0.955 1_556 S
C3566 H3554 0.959 . S
C3566 C3564 1.561 . S
C3567 C3564 1.526 1_554 S
C3567 C3568 1.396 . S
C3567 C3572 1.390 . S
C3568 C3562 1.465 1_554 S
C3568 C3567 1.396 . S
C3568 C3569 1.399 . S
C3569 H3555 0.929 . S
C3569 C3568 1.399 . S
C3569 C3570 1.385 . S
C3570 H3556 0.931 . S
C3570 C3569 1.385 . S
C3570 C3571 1.389 . S
C3571 C3570 1.389 . S
C3571 C3572 1.387 . S
C3572 H3557 0.930 . S
C3572 C3567 1.390 . S
C3572 C3571 1.387 . S
H3573 C3585 0.930 . S
H3574 C3587 0.930 . S
H3575 C3588 0.930 . S
H3576 C3592 0.959 . S
H3577 C3592 0.959 . S
H3578 C3592 0.961 . S
H3579 C3593 0.960 . S
H3580 C3593 0.961 . S
H3581 C3593 0.959 . S
H3582 C3596 0.929 . S
H3583 C3597 0.931 . S
H3584 C3599 0.930 . S
C3585 H3573 0.930 . S
C3585 C3586 1.399 . S
C3585 C3590 1.399 . S
C3586 C3585 1.399 . S
C3586 C3587 1.376 . S
C3587 H3574 0.930 . S
C3587 C3586 1.376 . S
C3587 C3588 1.388 . S
C3588 H3575 0.930 . S
C3588 C3587 1.388 . S
C3588 C3589 1.390 . S
C3589 C3588 1.390 . S
C3589 C3590 1.394 . S
C3589 C3595 1.465 . S
C3590 C3585 1.399 . S
C3590 C3589 1.394 . S
C3590 C3591 1.516 . S
C3591 C3590 1.516 . S
C3591 C3592 1.502 . S
C3591 C3593 1.561 . S
C3591 C3594 1.526 . S
C3592 H3576 0.959 . S
C3592 H3577 0.959 . S
C3592 H3578 0.961 . S
C3592 C3591 1.502 . S
C3593 H3579 0.960 . S
C3593 H3580 0.961 . S
C3593 H3581 0.959 . S
C3593 C3591 1.561 . S
C3594 C3591 1.526 . S
C3594 C3595 1.396 . S
C3594 C3599 1.390 . S
C3595 C3589 1.465 . S
C3595 C3594 1.396 . S
C3595 C3596 1.399 . S
C3596 H3582 0.929 . S
C3596 C3595 1.399 . S
C3596 C3597 1.385 . S
C3597 H3583 0.931 . S
C3597 C3596 1.385 . S
C3597 C3598 1.389 . S
C3598 C3597 1.389 . S
C3598 C3599 1.387 . S
C3599 H3584 0.930 . S
C3599 C3594 1.390 . S
C3599 C3598 1.387 . S
H3600 C3612 0.930 . S
H3601 C3614 0.930 . S
H3602 C3615 0.930 . S
H3603 C3619 0.959 . S
H3604 C3619 0.959 . S
H3605 C3619 0.961 . S
H3606 C3620 0.960 . S
H3607 C3620 0.961 . S
H3608 C3620 0.959 . S
H3609 C3623 0.929 . S
H3610 C3624 0.931 . S
H3611 C3626 0.930 . S
C3612 H3600 0.930 . S
C3612 C3613 1.399 . S
C3612 C3617 1.399 . S
C3613 C3612 1.399 . S
C3613 C3614 1.376 . S
C3614 H3601 0.930 . S
C3614 C3613 1.376 . S
C3614 C3615 1.388 . S
C3615 H3602 0.930 . S
C3615 C3614 1.388 . S
C3615 C3616 1.390 . S
C3616 C3615 1.390 . S
C3616 C3617 1.394 . S
C3616 C3622 1.465 . S
C3617 C3612 1.399 . S
C3617 C3616 1.394 . S
C3617 C3618 1.516 . S
C3618 C3617 1.516 . S
C3618 C3619 1.502 . S
C3618 C3620 1.561 . S
C3618 C3621 1.526 . S
C3619 H3603 0.959 . S
C3619 H3604 0.959 . S
C3619 H3605 0.961 . S
C3619 C3618 1.502 . S
C3620 H3606 0.960 . S
C3620 H3607 0.961 . S
C3620 H3608 0.959 . S
C3620 C3618 1.561 . S
C3621 C3618 1.526 . S
C3621 C3622 1.396 . S
C3621 C3626 1.390 . S
C3622 C3616 1.465 . S
C3622 C3621 1.396 . S
C3622 C3623 1.399 . S
C3623 H3609 0.929 . S
C3623 C3622 1.399 . S
C3623 C3624 1.385 . S
C3624 H3610 0.931 . S
C3624 C3623 1.385 . S
C3624 C3625 1.389 . S
C3625 C3624 1.389 . S
C3625 C3626 1.387 . S
C3626 H3611 0.930 . S
C3626 C3621 1.390 . S
C3626 C3625 1.387 . S
H3627 C3639 0.930 . S
H3628 C3641 0.930 . S
H3629 C3642 0.930 . S
H3630 C3646 0.959 . S
H3631 C3646 0.959 . S
H3632 C3646 0.961 . S
H3633 C3647 0.960 . S
H3634 C3647 0.961 . S
H3635 C3647 0.959 . S
H3636 C3650 0.929 . S
H3637 C3651 0.931 . S
H3638 C3653 0.930 . S
C3639 H3627 0.930 . S
C3639 C3640 1.399 . S
C3639 C3644 1.399 . S
C3640 C3639 1.399 . S
C3640 C3641 1.376 . S
C3641 H3628 0.930 . S
C3641 C3640 1.376 . S
C3641 C3642 1.388 . S
C3642 H3629 0.930 . S
C3642 C3641 1.388 . S
C3642 C3643 1.390 . S
C3643 C3642 1.390 . S
C3643 C3644 1.394 . S
C3643 C3649 1.465 . S
C3644 C3639 1.399 . S
C3644 C3643 1.394 . S
C3644 C3645 1.516 . S
C3645 C3644 1.516 . S
C3645 C3646 1.502 . S
C3645 C3647 1.561 . S
C3645 C3648 1.526 . S
C3646 H3630 0.959 . S
C3646 H3631 0.959 . S
C3646 H3632 0.961 . S
C3646 C3645 1.502 . S
C3647 H3633 0.960 . S
C3647 H3634 0.961 . S
C3647 H3635 0.959 . S
C3647 C3645 1.561 . S
C3648 C3645 1.526 . S
C3648 C3649 1.396 . S
C3648 C3653 1.390 . S
C3649 C3643 1.465 . S
C3649 C3648 1.396 . S
C3649 C3650 1.399 . S
C3650 H3636 0.929 . S
C3650 C3649 1.399 . S
C3650 C3651 1.385 . S
C3651 H3637 0.931 . S
C3651 C3650 1.385 . S
C3651 C3652 1.389 . S
C3652 C3651 1.389 . S
C3652 C3653 1.387 . S
C3653 H3638 0.930 . S
C3653 C3648 1.390 . S
C3653 C3652 1.387 . S
C1237 C20 1.500 . S
C1249 C530 1.484 . S
C1264 C564 1.501 . S
C1276 C54 1.485 . S
C1291 C598 1.496 . S
C1303 C88 1.484 . S
C1318 C836 1.499 . S
C1330 C122 1.488 . S
C1345 C156 1.487 . S
C1357 C870 1.492 . S
C1372 C904 1.496 . S
C1384 C190 1.493 . S
C1399 C1142 1.496 . S
C1411 C224 1.482 . S
C1426 C258 1.489 . S
C1438 C1176 1.501 . S
C1453 C1210 1.501 . S
C1465 C292 1.491 . S
C1480 C632 1.493 . S
C1492 C326 1.482 . S
C1507 C666 1.491 . S
C1519 C360 1.501 . S
C1534 C700 1.498 . S
C1546 C394 1.484 . S
C1561 C938 1.499 . S
C1573 C428 1.488 . S
C1588 C972 1.493 . S
C1600 C462 1.497 . S
C1615 C496 1.483 . S
C1627 C1006 1.499 . S
C1642 C734 1.494 . S
C1654 C1040 1.482 . S
C1669 C1074 1.492 . S
C1681 C768 1.501 . S
C1696 C802 1.494 . S
C1708 C1108 1.500 . S
C1723 C1019 1.494 . S
C1735 C33 1.484 . S
C1750 C67 1.475 . S
C1762 C951 1.493 . S
C1777 C985 1.494 . S
C1789 C101 1.476 . S
C1804 C475 1.492 . S
C1816 C135 1.487 . S
C1831 C509 1.482 . S
C1843 C169 1.495 . S
C1858 C441 1.479 . S
C1870 C203 1.495 . S
C1885 C237 1.487 . S
C1897 C815 1.495 . S
C1912 C747 1.490 . S
C1924 C271 1.476 . S
C1939 C305 1.480 . S
C1951 C781 1.494 . S
C1966 C1087 1.476 . S
C1978 C339 1.479 . S
C1993 C373 1.477 . S
C2005 C1121 1.491 . S
C2020 C407 1.479 . S
C2032 C1053 1.476 . S
C2047 C883 1.491 . S
C2059 C543 1.475 . S
C2074 C917 1.493 . S
C2086 C577 1.485 . S
C2101 C611 1.481 . S
C2113 C849 1.479 . S
C2128 C645 1.487 . S
C2140 C1223 1.475 . S
C2155 C1155 1.474 . S
C2167 C679 1.484 . S
C2182 C1189 1.485 . S
C2194 C713 1.475 . S
C2209 C2 1.474 . S
C2221 C376 1.473 . S
C2236 C36 1.480 . S
C2248 C308 1.483 . S
C2263 C70 1.478 . S
C2275 C342 1.481 . S
C2290 C104 1.479 . S
C2302 C240 1.477 . S
C2317 C274 1.472 . S
C2329 C138 1.473 . S
C2344 C206 1.475 . S
C2356 C172 1.474 . S
C2371 C784 1.485 . S
C2383 C410 1.483 . S
C2398 C716 1.471 . S
C2410 C444 1.473 . S
C2425 C478 1.480 . S
C2437 C750 1.478 . S
C2452 C648 1.472 . S
C2464 C512 1.473 . S
C2479 C682 1.472 . S
C2491 C546 1.473 . S
C2506 C614 1.484 . S
C2518 C580 1.486 . S
C2533 C1192 1.481 . S
C2545 C818 1.479 . S
C2560 C852 1.478 . S
C2572 C1124 1.481 . S
C2587 C1158 1.472 . S
C2599 C886 1.473 . S
C2614 C1056 1.486 . S
C2626 C920 1.487 . S
C2641 C1090 1.487 . S
C2653 C954 1.487 . S
C2668 C1022 1.474 . S
C2680 C988 1.473 . S
C2695 C9 1.331 . S
C2707 C5 1.383 . S
C2722 C39 1.386 . S
C2734 C43 1.308 . S
C2749 C77 1.378 . S
C2761 C73 1.386 . S
C2776 C107 1.395 . S
C2788 C111 1.311 . S
C2803 C141 1.384 . S
C2815 C145 1.379 . S
C2830 C175 1.392 . S
C2842 C179 1.295 . S
C2857 C209 1.381 . S
C2869 C213 1.317 . S
C2884 C243 1.381 . S
C2896 C247 1.356 . S
C2911 C281 1.343 . S
C2923 C277 1.380 . S
C2938 C315 1.349 . S
C2950 C311 1.381 . S
C2965 C345 1.394 . S
C2977 C349 1.316 . S
C2992 C383 1.378 . S
C3004 C379 1.386 . S
C3019 C413 1.393 . S
C3031 C417 1.295 . S
C3046 C447 1.393 . S
C3058 C451 1.349 . S
C3073 C481 1.395 . S
C3085 C485 1.314 . S
C3100 C515 1.395 . S
C3112 C519 1.310 . S
C3127 C549 1.392 . S
C3139 C553 1.350 . S
C3154 C587 1.347 . S
C3166 C583 1.393 . S
C3181 C617 1.381 . S
C3193 C621 1.320 . S
C3208 C655 1.364 . S
C3220 C651 1.394 . S
C3235 C689 1.354 . S
C3247 C685 1.381 . S
C3262 C723 1.359 . S
C3274 C719 1.381 . S
C3289 C753 1.382 . S
C3301 C757 1.366 . S
C3316 C787 1.381 . S
C3328 C791 1.316 . S
C3343 C825 1.345 . S
C3355 C821 1.393 . S
C3370 C859 1.302 . S
C3382 C855 1.395 . S
C3397 C889 1.395 . S
C3409 C893 1.308 . S
C3424 C923 1.380 . S
C3436 C927 1.357 . S
C3451 C961 1.371 . S
C3463 C957 1.381 . S
C3478 C991 1.384 . S
C3490 C995 1.379 . S
C3505 C1029 1.298 . S
C3517 C1025 1.391 . S
C3532 C1063 1.316 . S
C3544 C1059 1.381 . S
C3559 C1097 1.318 . S
C3571 C1093 1.395 . S
C3586 C1127 1.387 . S
C3598 C1131 1.295 . S
C3613 C1165 1.374 . S
C3625 C1161 1.392 . S
C3640 C1195 1.395 . S
C3652 C1199 1.356 . S
