# Generated by pormake.
# Topology unw, (4)-cn, num edge types: 1
# Building blocks:
#     Node 0, Type 0, BuildingBlock: CEKHIL_clean_sbu_0, # of connection points: 4
#     Node 1, Type 0, BuildingBlock: CEKHIL_clean_sbu_0, # of connection points: 4
#     Node 2, Type 0, BuildingBlock: CEKHIL_clean_sbu_0, # of connection points: 4
#     Node 3, Type 0, BuildingBlock: CEKHIL_clean_sbu_0, # of connection points: 4
#     Node 4, Type 0, BuildingBlock: CEKHIL_clean_sbu_0, # of connection points: 4
#     Node 5, Type 0, BuildingBlock: CEKHIL_clean_sbu_0, # of connection points: 4
#     Node 6, Type 0, BuildingBlock: CEKHIL_clean_sbu_0, # of connection points: 4
#     Node 7, Type 0, BuildingBlock: CEKHIL_clean_sbu_0, # of connection points: 4
#     Node 8, Type 0, BuildingBlock: CEKHIL_clean_sbu_0, # of connection points: 4
#     Node 9, Type 0, BuildingBlock: CEKHIL_clean_sbu_0, # of connection points: 4
#     Node 10, Type 0, BuildingBlock: CEKHIL_clean_sbu_0, # of connection points: 4
#     Node 11, Type 0, BuildingBlock: CEKHIL_clean_sbu_0, # of connection points: 4
#     Node 12, Type 0, BuildingBlock: CEKHIL_clean_sbu_0, # of connection points: 4
#     Node 13, Type 0, BuildingBlock: CEKHIL_clean_sbu_0, # of connection points: 4
#     Node 14, Type 0, BuildingBlock: CEKHIL_clean_sbu_0, # of connection points: 4
#     Node 15, Type 0, BuildingBlock: CEKHIL_clean_sbu_0, # of connection points: 4
#     Node 16, Type 0, BuildingBlock: CEKHIL_clean_sbu_0, # of connection points: 4
#     Node 17, Type 0, BuildingBlock: CEKHIL_clean_sbu_0, # of connection points: 4
#     Node 18, Type 0, BuildingBlock: CEKHIL_clean_sbu_0, # of connection points: 4
#     Node 19, Type 0, BuildingBlock: CEKHIL_clean_sbu_0, # of connection points: 4
#     Node 20, Type 0, BuildingBlock: CEKHIL_clean_sbu_0, # of connection points: 4
#     Node 21, Type 0, BuildingBlock: CEKHIL_clean_sbu_0, # of connection points: 4
#     Node 22, Type 0, BuildingBlock: CEKHIL_clean_sbu_0, # of connection points: 4
#     Node 23, Type 0, BuildingBlock: CEKHIL_clean_sbu_0, # of connection points: 4
#     Edge 24, Type (0, 0), BuildingBlock: CIFDUS_clean_linker_0, # of connection points: 2
#     Edge 25, Type (0, 0), BuildingBlock: CIFDUS_clean_linker_0, # of connection points: 2
#     Edge 26, Type (0, 0), BuildingBlock: CIFDUS_clean_linker_0, # of connection points: 2
#     Edge 27, Type (0, 0), BuildingBlock: CIFDUS_clean_linker_0, # of connection points: 2
#     Edge 28, Type (0, 0), BuildingBlock: CIFDUS_clean_linker_0, # of connection points: 2
#     Edge 29, Type (0, 0), BuildingBlock: CIFDUS_clean_linker_0, # of connection points: 2
#     Edge 30, Type (0, 0), BuildingBlock: CIFDUS_clean_linker_0, # of connection points: 2
#     Edge 31, Type (0, 0), BuildingBlock: CIFDUS_clean_linker_0, # of connection points: 2
#     Edge 32, Type (0, 0), BuildingBlock: CIFDUS_clean_linker_0, # of connection points: 2
#     Edge 33, Type (0, 0), BuildingBlock: CIFDUS_clean_linker_0, # of connection points: 2
#     Edge 34, Type (0, 0), BuildingBlock: CIFDUS_clean_linker_0, # of connection points: 2
#     Edge 35, Type (0, 0), BuildingBlock: CIFDUS_clean_linker_0, # of connection points: 2
#     Edge 36, Type (0, 0), BuildingBlock: CIFDUS_clean_linker_0, # of connection points: 2
#     Edge 37, Type (0, 0), BuildingBlock: CIFDUS_clean_linker_0, # of connection points: 2
#     Edge 38, Type (0, 0), BuildingBlock: CIFDUS_clean_linker_0, # of connection points: 2
#     Edge 39, Type (0, 0), BuildingBlock: CIFDUS_clean_linker_0, # of connection points: 2
#     Edge 40, Type (0, 0), BuildingBlock: CIFDUS_clean_linker_0, # of connection points: 2
#     Edge 41, Type (0, 0), BuildingBlock: CIFDUS_clean_linker_0, # of connection points: 2
#     Edge 42, Type (0, 0), BuildingBlock: CIFDUS_clean_linker_0, # of connection points: 2
#     Edge 43, Type (0, 0), BuildingBlock: CIFDUS_clean_linker_0, # of connection points: 2
#     Edge 44, Type (0, 0), BuildingBlock: CIFDUS_clean_linker_0, # of connection points: 2
#     Edge 45, Type (0, 0), BuildingBlock: CIFDUS_clean_linker_0, # of connection points: 2
#     Edge 46, Type (0, 0), BuildingBlock: CIFDUS_clean_linker_0, # of connection points: 2
#     Edge 47, Type (0, 0), BuildingBlock: CIFDUS_clean_linker_0, # of connection points: 2
#     Edge 48, Type (0, 0), BuildingBlock: CIFDUS_clean_linker_0, # of connection points: 2
#     Edge 49, Type (0, 0), BuildingBlock: CIFDUS_clean_linker_0, # of connection points: 2
#     Edge 50, Type (0, 0), BuildingBlock: CIFDUS_clean_linker_0, # of connection points: 2
#     Edge 51, Type (0, 0), BuildingBlock: CIFDUS_clean_linker_0, # of connection points: 2
#     Edge 52, Type (0, 0), BuildingBlock: CIFDUS_clean_linker_0, # of connection points: 2
#     Edge 53, Type (0, 0), BuildingBlock: CIFDUS_clean_linker_0, # of connection points: 2
#     Edge 54, Type (0, 0), BuildingBlock: CIFDUS_clean_linker_0, # of connection points: 2
#     Edge 55, Type (0, 0), BuildingBlock: CIFDUS_clean_linker_0, # of connection points: 2
#     Edge 56, Type (0, 0), BuildingBlock: CIFDUS_clean_linker_0, # of connection points: 2
#     Edge 57, Type (0, 0), BuildingBlock: CIFDUS_clean_linker_0, # of connection points: 2
#     Edge 58, Type (0, 0), BuildingBlock: CIFDUS_clean_linker_0, # of connection points: 2
#     Edge 59, Type (0, 0), BuildingBlock: CIFDUS_clean_linker_0, # of connection points: 2
#     Edge 60, Type (0, 0), BuildingBlock: CIFDUS_clean_linker_0, # of connection points: 2
#     Edge 61, Type (0, 0), BuildingBlock: CIFDUS_clean_linker_0, # of connection points: 2
#     Edge 62, Type (0, 0), BuildingBlock: CIFDUS_clean_linker_0, # of connection points: 2
#     Edge 63, Type (0, 0), BuildingBlock: CIFDUS_clean_linker_0, # of connection points: 2
#     Edge 64, Type (0, 0), BuildingBlock: CIFDUS_clean_linker_0, # of connection points: 2
#     Edge 65, Type (0, 0), BuildingBlock: CIFDUS_clean_linker_0, # of connection points: 2
#     Edge 66, Type (0, 0), BuildingBlock: CIFDUS_clean_linker_0, # of connection points: 2
#     Edge 67, Type (0, 0), BuildingBlock: CIFDUS_clean_linker_0, # of connection points: 2
#     Edge 68, Type (0, 0), BuildingBlock: CIFDUS_clean_linker_0, # of connection points: 2
#     Edge 69, Type (0, 0), BuildingBlock: CIFDUS_clean_linker_0, # of connection points: 2
#     Edge 70, Type (0, 0), BuildingBlock: CIFDUS_clean_linker_0, # of connection points: 2
#     Edge 71, Type (0, 0), BuildingBlock: CIFDUS_clean_linker_0, # of connection points: 2
# Relax obj value: 0.378
# Max RMSD: 0.302
# Mean RMSD: 0.288
data_MOF--net-unw--node1-CEKHIL_clean_sbu_0--edge1-CIFDUS_clean_linker_0
_symmetry_space_group_name_H-M    P1
_symmetry_Int_Tables_number       1
_symmetry_cell_setting            triclinic
loop_
_symmetry_equiv_pos_as_xyz
'x, y, z'
_cell_length_a     38.942214
_cell_length_b     39.625458
_cell_length_c     39.297512
_cell_angle_alpha  89.92699
_cell_angle_beta   90.075743
_cell_angle_gamma 90.12667
loop_
_atom_site_label
_atom_site_type_symbol
_atom_site_fract_x
_atom_site_fract_y
_atom_site_fract_z
_atom_type_partial_charge
Co0 Co 0.07446 0.32483 0.23882 0.0
O1 O 0.06525 0.37097 0.2269 0.0
O2 O 0.11273 0.35306 0.25217 0.0
C3 C 0.02445 0.30954 0.26201 0.0
O4 O 0.09211 0.27914 0.25496 0.0
Co5 Co 0.03523 0.26915 0.19907 0.0
O6 O 0.05939 0.23847 0.23099 0.0
C7 C 0.09323 0.30233 0.16627 0.0
C8 C 0.09591 0.37778 0.23806 0.0
C9 C 0.08338 0.24796 0.25093 0.0
O10 O 0.09787 0.31834 0.19414 0.0
O11 O 0.06772 0.28249 0.16149 0.0
O12 O 0.04638 0.32741 0.27937 0.0
O13 O 0.03058 0.30749 0.22965 0.0
Co14 Co 0.57884 0.1547 0.24915 0.0
O15 O 0.56901 0.1074 0.25166 0.0
O16 O 0.61701 0.12894 0.23066 0.0
C17 C 0.52882 0.17475 0.22993 0.0
O18 O 0.59612 0.2031 0.24257 0.0
Co19 Co 0.54131 0.19872 0.30186 0.0
O20 O 0.55873 0.23512 0.27198 0.0
C21 C 0.60177 0.16268 0.32425 0.0
C22 C 0.5997 0.10227 0.23996 0.0
C23 C 0.58353 0.23205 0.25106 0.0
O24 O 0.60328 0.1519 0.29369 0.0
O25 O 0.57757 0.18189 0.33452 0.0
O26 O 0.5504 0.16053 0.20916 0.0
O27 O 0.53499 0.16973 0.26207 0.0
Co28 Co 0.91927 0.65474 0.26788 0.0
O29 O 0.92925 0.60908 0.25534 0.0
O30 O 0.87961 0.62697 0.2763 0.0
C31 C 0.96689 0.66781 0.29659 0.0
O32 O 0.90048 0.69988 0.2837 0.0
Co33 Co 0.96277 0.71146 0.23472 0.0
O34 O 0.93467 0.74147 0.26384 0.0
C35 C 0.90773 0.68088 0.19494 0.0
C36 C 0.89753 0.60251 0.26323 0.0
C37 C 0.90898 0.73124 0.28108 0.0
O38 O 0.90038 0.66339 0.22133 0.0
O39 O 0.93381 0.70054 0.19365 0.0
O40 O 0.94297 0.64985 0.31094 0.0
O41 O 0.96398 0.67171 0.26392 0.0
Co42 Co 0.40059 0.82738 0.22594 0.0
O43 O 0.43783 0.82487 0.19385 0.0
O44 O 0.4332 0.79271 0.2397 0.0
C45 C 0.3967 0.88388 0.23383 0.0
O46 O 0.36528 0.82402 0.26427 0.0
Co47 Co 0.3335 0.86041 0.19834 0.0
O48 O 0.32088 0.85642 0.24701 0.0
C49 C 0.34923 0.79139 0.17834 0.0
C50 C 0.44988 0.80019 0.21198 0.0
C51 C 0.33638 0.83901 0.26962 0.0
O52 O 0.37464 0.79204 0.19921 0.0
O53 O 0.33111 0.81744 0.17154 0.0
O54 O 0.42058 0.86655 0.24898 0.0
O55 O 0.38128 0.86776 0.20957 0.0
Co56 Co 0.10293 0.66303 0.72313 0.0
O57 O 0.09253 0.61653 0.73275 0.0
O58 O 0.14119 0.63479 0.71008 0.0
C59 C 0.05354 0.67954 0.69885 0.0
O60 O 0.12208 0.70918 0.7098 0.0
Co61 Co 0.0641 0.71697 0.76447 0.0
O62 O 0.08768 0.74856 0.73295 0.0
C63 C 0.11929 0.68028 0.79788 0.0
C64 C 0.12363 0.60984 0.72292 0.0
C65 C 0.11279 0.74015 0.71398 0.0
O66 O 0.12474 0.66666 0.76895 0.0
O67 O 0.09438 0.70067 0.80298 0.0
O68 O 0.07622 0.66269 0.68154 0.0
O69 O 0.05879 0.6805 0.73148 0.0
Co70 Co 0.44103 0.16356 0.74046 0.0
O71 O 0.4512 0.11909 0.72353 0.0
O72 O 0.40814 0.1322 0.75803 0.0
C73 C 0.49189 0.18289 0.75707 0.0
O74 O 0.42257 0.20547 0.76347 0.0
Co75 Co 0.46697 0.2265 0.70151 0.0
O76 O 0.44508 0.25201 0.73919 0.0
C77 C 0.40981 0.18848 0.67328 0.0
C78 C 0.42351 0.10966 0.73959 0.0
C79 C 0.42668 0.23764 0.76178 0.0
O80 O 0.4098 0.17106 0.70072 0.0
O81 O 0.43279 0.21062 0.66666 0.0
O82 O 0.47576 0.16055 0.77541 0.0
O83 O 0.48094 0.18598 0.72603 0.0
Co84 Co 0.92572 0.33332 0.74478 0.0
O85 O 0.9683 0.32207 0.72333 0.0
O86 O 0.94675 0.29502 0.76785 0.0
C87 C 0.93014 0.38999 0.74809 0.0
O88 O 0.88164 0.33973 0.77241 0.0
Co89 Co 0.87582 0.37049 0.69604 0.0
O90 O 0.84863 0.3724 0.73846 0.0
C91 C 0.88253 0.29827 0.68864 0.0
C92 C 0.97036 0.29702 0.74444 0.0
C93 C 0.85453 0.3577 0.76674 0.0
O94 O 0.90165 0.29956 0.7151 0.0
O95 O 0.87091 0.32483 0.67419 0.0
O96 O 0.94631 0.37075 0.76961 0.0
O97 O 0.91855 0.37417 0.72153 0.0
Co98 Co 0.58932 0.84824 0.79348 0.0
O99 O 0.58257 0.89385 0.77803 0.0
O100 O 0.63004 0.8746 0.80237 0.0
C101 C 0.53956 0.83897 0.82051 0.0
O102 O 0.60536 0.80342 0.81269 0.0
Co103 Co 0.54458 0.79113 0.76228 0.0
O104 O 0.5717 0.76142 0.79285 0.0
C105 C 0.60015 0.8197 0.72166 0.0
C106 C 0.61422 0.89928 0.78721 0.0
C107 C 0.59652 0.77213 0.81107 0.0
O108 O 0.60917 0.83648 0.74803 0.0
O109 O 0.57286 0.80166 0.72072 0.0
O110 O 0.5638 0.85636 0.83511 0.0
O111 O 0.54399 0.83287 0.78841 0.0
Co112 Co 0.26927 0.07921 0.34444 0.0
O113 O 0.30277 0.04358 0.34639 0.0
O114 O 0.25552 0.042 0.31518 0.0
C115 C 0.26376 0.09205 0.40021 0.0
O116 O 0.2297 0.11222 0.33702 0.0
Co117 Co 0.29673 0.15022 0.36379 0.0
O118 O 0.247 0.16074 0.36188 0.0
C119 C 0.31097 0.12488 0.29578 0.0
C120 C 0.28464 0.02802 0.32352 0.0
C121 C 0.2241 0.14264 0.34743 0.0
O122 O 0.29307 0.0989 0.30366 0.0
O123 O 0.31828 0.14813 0.3172 0.0
O124 O 0.24842 0.06568 0.38759 0.0
O125 O 0.28701 0.10506 0.38052 0.0
Co126 Co 0.85025 0.19911 0.40232 0.0
O127 O 0.85354 0.16398 0.43557 0.0
O128 O 0.82425 0.21149 0.4422 0.0
C129 C 0.90563 0.20314 0.38672 0.0
O130 O 0.84249 0.24092 0.37309 0.0
Co131 Co 0.86414 0.17828 0.3276 0.0
O132 O 0.86103 0.22774 0.32045 0.0
C133 C 0.7986 0.15995 0.35802 0.0
C134 C 0.83309 0.18207 0.45412 0.0
C135 C 0.85007 0.24899 0.3422 0.0
O136 O 0.80723 0.17789 0.38374 0.0
O137 O 0.8191 0.15394 0.33335 0.0
O138 O 0.89505 0.21681 0.41486 0.0
O139 O 0.88399 0.18241 0.37276 0.0
Co140 Co 0.71067 0.8979 0.34556 0.0
O141 O 0.6799 0.93565 0.34352 0.0
O142 O 0.72805 0.93158 0.31384 0.0
C143 C 0.71476 0.88976 0.40227 0.0
O144 O 0.74802 0.86201 0.34224 0.0
Co145 Co 0.67873 0.8307 0.37151 0.0
O146 O 0.72754 0.81668 0.37062 0.0
C147 C 0.66476 0.85149 0.30166 0.0
C148 C 0.70011 0.9483 0.32055 0.0
C149 C 0.75169 0.8323 0.3553 0.0
O150 O 0.68546 0.87628 0.30643 0.0
O151 O 0.65599 0.83125 0.32553 0.0
O152 O 0.73195 0.91385 0.38754 0.0
O153 O 0.69073 0.87668 0.38357 0.0
Co154 Co 0.14376 0.76325 0.43157 0.0
O155 O 0.15023 0.79121 0.47055 0.0
O156 O 0.18062 0.74519 0.45888 0.0
C157 C 0.08628 0.75814 0.43104 0.0
O158 O 0.14355 0.72861 0.3935 0.0
Co159 Co 0.10757 0.7962 0.36971 0.0
O160 O 0.11352 0.75056 0.34974 0.0
C161 C 0.17761 0.8156 0.38494 0.0
C162 C 0.17571 0.77146 0.47807 0.0
C163 C 0.13005 0.72644 0.36364 0.0
O164 O 0.17878 0.79101 0.40616 0.0
O165 O 0.14989 0.82491 0.3703 0.0
O166 O 0.10458 0.74014 0.45199 0.0
O167 O 0.1027 0.78287 0.4169 0.0
Co168 Co 0.30189 0.90526 0.64696 0.0
O169 O 0.28885 0.91008 0.60029 0.0
O170 O 0.30814 0.86282 0.62393 0.0
C171 C 0.33257 0.95258 0.65273 0.0
O172 O 0.318 0.89156 0.69403 0.0
Co173 Co 0.27293 0.95571 0.69975 0.0
O174 O 0.30353 0.93157 0.73198 0.0
C175 C 0.22894 0.90036 0.67646 0.0
C176 C 0.29544 0.87809 0.59741 0.0
C177 C 0.31814 0.90384 0.72435 0.0
O178 O 0.2543 0.89001 0.65862 0.0
O179 O 0.22997 0.92779 0.69363 0.0
O180 O 0.34613 0.92624 0.63841 0.0
O181 O 0.29979 0.95102 0.65827 0.0
Co182 Co 0.14329 0.19264 0.60456 0.0
O183 O 0.09418 0.19717 0.60362 0.0
O184 O 0.12396 0.17904 0.64802 0.0
C185 C 0.1522 0.16822 0.55346 0.0
O186 O 0.19412 0.18458 0.61389 0.0
Co187 Co 0.18429 0.23754 0.55449 0.0
O188 O 0.22313 0.21012 0.57148 0.0
C189 C 0.15924 0.26829 0.61687 0.0
C190 C 0.09445 0.1882 0.63543 0.0
C191 C 0.2222 0.19149 0.59792 0.0
O192 O 0.14734 0.23907 0.62432 0.0
O193 O 0.17431 0.27439 0.5886 0.0
O194 O 0.14154 0.15043 0.57924 0.0
O195 O 0.15119 0.20066 0.55791 0.0
Co196 Co 0.72117 0.10166 0.66859 0.0
O197 O 0.73608 0.08901 0.62398 0.0
O198 O 0.71054 0.13734 0.63689 0.0
C199 C 0.69562 0.05363 0.68472 0.0
O200 O 0.7024 0.12292 0.7116 0.0
Co201 Co 0.75516 0.06786 0.73073 0.0
O202 O 0.72139 0.09433 0.75741 0.0
C203 C 0.7932 0.12044 0.69469 0.0
C204 C 0.72622 0.11888 0.6144 0.0
C205 C 0.70327 0.11751 0.74393 0.0
O206 O 0.76641 0.12421 0.6763 0.0
O207 O 0.79544 0.09744 0.71751 0.0
O208 O 0.67987 0.07484 0.66485 0.0
O209 O 0.72807 0.05953 0.68969 0.0
Co210 Co 0.84445 0.78808 0.60174 0.0
O211 O 0.89202 0.778 0.5938 0.0
O212 O 0.87171 0.80117 0.64085 0.0
C213 C 0.8301 0.81123 0.55145 0.0
O214 O 0.7969 0.80169 0.61839 0.0
Co215 Co 0.79128 0.74599 0.56165 0.0
O216 O 0.75826 0.77714 0.58358 0.0
C217 C 0.82513 0.71448 0.61941 0.0
C218 C 0.89758 0.78767 0.62492 0.0
C219 C 0.76578 0.79666 0.60827 0.0
O220 O 0.83928 0.74318 0.62416 0.0
O221 O 0.80534 0.70867 0.59404 0.0
O222 O 0.84643 0.82882 0.57429 0.0
O223 O 0.82836 0.77903 0.55746 0.0
Co224 Co 0.35664 0.27926 0.0917 0.0
O225 O 0.40546 0.27475 0.08761 0.0
O226 O 0.37906 0.29855 0.13128 0.0
C227 C 0.34297 0.29609 0.03873 0.0
O228 O 0.30643 0.2884 0.10331 0.0
Co229 Co 0.31269 0.22735 0.05262 0.0
O230 O 0.2753 0.25866 0.06538 0.0
C231 C 0.3443 0.20569 0.11577 0.0
C232 C 0.4075 0.28728 0.11807 0.0
C233 C 0.27762 0.28054 0.08903 0.0
O234 O 0.35534 0.236 0.11808 0.0
O235 O 0.32682 0.19536 0.09024 0.0
O236 O 0.35548 0.31752 0.0606 0.0
O237 O 0.34536 0.2646 0.04765 0.0
Co238 Co 0.34236 0.72434 0.91704 0.0
O239 O 0.33433 0.70192 0.95926 0.0
O240 O 0.30578 0.74701 0.94123 0.0
C241 C 0.39974 0.72746 0.91625 0.0
O242 O 0.34505 0.75333 0.87422 0.0
Co243 Co 0.37563 0.67982 0.86164 0.0
O244 O 0.3755 0.72302 0.83622 0.0
C245 C 0.30327 0.67027 0.87543 0.0
C246 C 0.30927 0.723 0.96362 0.0
C247 C 0.36024 0.75001 0.84525 0.0
O248 O 0.30593 0.69564 0.89538 0.0
O249 O 0.32928 0.65728 0.86061 0.0
O250 O 0.382 0.74825 0.93482 0.0
O251 O 0.38272 0.70128 0.90565 0.0
Co252 Co 0.22195 0.39944 0.83853 0.0
O253 O 0.18361 0.42976 0.84247 0.0
O254 O 0.22702 0.43654 0.80677 0.0
C255 C 0.23463 0.39156 0.8943 0.0
O256 O 0.26584 0.37388 0.82818 0.0
Co257 Co 0.21297 0.32601 0.86557 0.0
O258 O 0.2631 0.32454 0.85661 0.0
C259 C 0.18206 0.34429 0.8001 0.0
C260 C 0.1976 0.4472 0.8181 0.0
C261 C 0.27937 0.34612 0.83867 0.0
O262 O 0.19706 0.37315 0.80192 0.0
O263 O 0.18246 0.32279 0.82445 0.0
O264 O 0.24438 0.41885 0.87861 0.0
O265 O 0.21283 0.37331 0.87755 0.0
Co266 Co 0.62564 0.32738 0.88846 0.0
O267 O 0.62426 0.36053 0.92359 0.0
O268 O 0.65693 0.31473 0.92453 0.0
C269 C 0.56921 0.32007 0.87898 0.0
O270 O 0.63227 0.28788 0.85579 0.0
Co271 Co 0.60165 0.35309 0.81786 0.0
O272 O 0.61298 0.30615 0.80484 0.0
C273 C 0.66991 0.37106 0.84067 0.0
C274 C 0.64759 0.34283 0.93896 0.0
C275 C 0.62536 0.28321 0.82398 0.0
O276 O 0.66485 0.35166 0.86623 0.0
O277 O 0.64633 0.37834 0.81925 0.0
O278 O 0.58396 0.30639 0.90525 0.0
O279 O 0.58738 0.3433 0.86415 0.0
Co280 Co 0.79558 0.58744 0.84668 0.0
O281 O 0.83286 0.55563 0.84682 0.0
O282 O 0.78668 0.55153 0.81424 0.0
C283 C 0.78727 0.59475 0.90326 0.0
O284 O 0.75237 0.61584 0.84087 0.0
Co285 Co 0.81414 0.65911 0.87339 0.0
O286 O 0.76389 0.6648 0.86794 0.0
C287 C 0.8345 0.6411 0.8046 0.0
C288 C 0.81676 0.53982 0.82266 0.0
C289 C 0.74329 0.64488 0.85259 0.0
O290 O 0.81808 0.61329 0.80853 0.0
O291 O 0.83904 0.66224 0.82877 0.0
O292 O 0.77556 0.568 0.88795 0.0
O293 O 0.80917 0.61193 0.88545 0.0
Co294 Co 0.65637 0.71869 0.08792 0.0
O295 O 0.60893 0.72704 0.07766 0.0
O296 O 0.62734 0.70229 0.12474 0.0
C297 C 0.67493 0.69931 0.03724 0.0
O298 O 0.70398 0.70609 0.10584 0.0
Co299 Co 0.70875 0.76582 0.05256 0.0
O300 O 0.74167 0.73259 0.07141 0.0
C301 C 0.67219 0.79162 0.11142 0.0
C302 C 0.60182 0.71525 0.10767 0.0
C303 C 0.73487 0.71175 0.09525 0.0
O304 O 0.65842 0.76235 0.11341 0.0
O305 O 0.69266 0.79979 0.08733 0.0
O306 O 0.65814 0.67952 0.05786 0.0
O307 O 0.67402 0.73105 0.04525 0.0
Co308 Co 0.19021 0.59569 0.13881 0.0
O309 O 0.20347 0.58938 0.09229 0.0
O310 O 0.178 0.63514 0.11272 0.0
C311 C 0.16644 0.54513 0.14922 0.0
O312 O 0.17216 0.6107 0.18466 0.0
Co313 Co 0.22643 0.55451 0.19519 0.0
O314 O 0.19145 0.57536 0.22522 0.0
C315 C 0.26255 0.61236 0.16589 0.0
C316 C 0.1926 0.61999 0.08723 0.0
C317 C 0.17299 0.60014 0.21561 0.0
O318 O 0.23544 0.61797 0.14833 0.0
O319 O 0.26553 0.58669 0.1855 0.0
O320 O 0.14935 0.56825 0.13288 0.0
O321 O 0.19879 0.55147 0.15388 0.0
Co322 Co 0.7642 0.41392 0.15549 0.0
O323 O 0.74237 0.42583 0.11373 0.0
O324 O 0.77667 0.38173 0.12065 0.0
C325 C 0.78256 0.46515 0.17096 0.0
O326 O 0.79109 0.39468 0.19526 0.0
Co327 Co 0.73356 0.44233 0.22273 0.0
O328 O 0.77479 0.42109 0.24335 0.0
C329 C 0.7003 0.3844 0.18959 0.0
C330 C 0.75596 0.39875 0.10106 0.0
C331 C 0.79377 0.40019 0.22746 0.0
O332 O 0.72444 0.38408 0.16749 0.0
O333 O 0.69758 0.40728 0.21242 0.0
O334 O 0.79995 0.44763 0.14897 0.0
O335 O 0.7526 0.45341 0.17866 0.0
H336 H 0.1927 0.49791 0.193 0.0
H337 H 0.09984 0.52698 0.14057 0.0
H338 H 0.06914 0.4799 0.16633 0.0
H339 H 0.06889 0.42932 0.20171 0.0
H340 H 0.16146 0.3984 0.25336 0.0
H341 H 0.19177 0.4477 0.2306 0.0
C342 C 0.16578 0.49386 0.1872 0.0
C343 C 0.14869 0.51582 0.16466 0.0
C344 C 0.14809 0.46661 0.20223 0.0
C345 C 0.11371 0.5104 0.15765 0.0
C346 C 0.09604 0.48352 0.17247 0.0
C347 C 0.09556 0.43356 0.20847 0.0
C348 C 0.11282 0.41019 0.22928 0.0
C349 C 0.11299 0.46139 0.19463 0.0
C350 C 0.14747 0.41608 0.23755 0.0
C351 C 0.1649 0.44413 0.22431 0.0
H352 H 0.53408 0.20894 0.17095 0.0
H353 H 0.47101 0.20067 0.26065 0.0
H354 H 0.43063 0.24195 0.23655 0.0
H355 H 0.40961 0.27388 0.18624 0.0
H356 H 0.47305 0.2797 0.09651 0.0
H357 H 0.51754 0.24678 0.12485 0.0
C358 C 0.51147 0.21609 0.18532 0.0
C359 C 0.50493 0.20097 0.2171 0.0
C360 C 0.48865 0.23969 0.17137 0.0
C361 C 0.47622 0.21146 0.23585 0.0
C362 C 0.45325 0.23514 0.2221 0.0
C363 C 0.43375 0.26909 0.17341 0.0
C364 C 0.43792 0.27905 0.13916 0.0
C365 C 0.4587 0.2487 0.18941 0.0
C366 C 0.46917 0.27226 0.12277 0.0
C367 C 0.49443 0.25303 0.13882 0.0
H368 H 0.85027 0.47454 0.18219 0.0
H369 H 0.75055 0.51542 0.2056 0.0
H370 H 0.77732 0.55984 0.23992 0.0
H371 H 0.8293 0.58851 0.26061 0.0
H372 H 0.92891 0.54679 0.23757 0.0
H373 H 0.90185 0.50055 0.20653 0.0
C374 C 0.83445 0.49331 0.19466 0.0
C375 C 0.79862 0.49227 0.19093 0.0
C376 C 0.84994 0.51822 0.2148 0.0
C377 C 0.77827 0.5161 0.20788 0.0
C378 C 0.79353 0.54134 0.22759 0.0
C379 C 0.84506 0.56891 0.24944 0.0
C380 C 0.88105 0.57114 0.25127 0.0
C381 C 0.82937 0.54276 0.23104 0.0
C382 C 0.90114 0.54565 0.2365 0.0
C383 C 0.88571 0.51936 0.21849 0.0
H384 H 0.58577 0.71996 0.17569 0.0
H385 H 0.54276 0.73097 0.075 0.0
H386 H 0.49195 0.75774 0.09871 0.0
H387 H 0.46207 0.78299 0.14706 0.0
H388 H 0.50238 0.77088 0.24842 0.0
H389 H 0.55192 0.73984 0.22559 0.0
C390 C 0.56483 0.72732 0.15907 0.0
C391 C 0.56819 0.72344 0.12351 0.0
C392 C 0.53555 0.74325 0.17294 0.0
C393 C 0.54095 0.73362 0.10237 0.0
C394 C 0.51192 0.7492 0.1159 0.0
C395 C 0.48167 0.77345 0.16418 0.0
C396 C 0.47899 0.77971 0.19927 0.0
C397 C 0.50944 0.75508 0.15095 0.0
C398 C 0.50408 0.76656 0.22126 0.0
C399 C 0.53235 0.7488 0.20818 0.0
H400 H 0.22012 0.48935 0.76742 0.0
H401 H 0.13385 0.47021 0.83367 0.0
H402 H 0.10231 0.51644 0.80747 0.0
H403 H 0.09949 0.56324 0.76718 0.0
H404 H 0.18622 0.58527 0.70266 0.0
H405 H 0.21699 0.53665 0.72624 0.0
C406 C 0.19445 0.49536 0.77615 0.0
C407 C 0.17948 0.47634 0.80262 0.0
C408 C 0.17635 0.52227 0.76101 0.0
C409 C 0.14615 0.48446 0.81353 0.0
C410 C 0.12796 0.51085 0.79844 0.0
C411 C 0.12489 0.55712 0.75776 0.0
C412 C 0.14035 0.57768 0.73286 0.0
C413 C 0.14279 0.52993 0.77223 0.0
C414 C 0.17357 0.56967 0.72153 0.0
C415 C 0.19128 0.54202 0.73522 0.0
H416 H 0.55142 0.32111 0.8112 0.0
H417 H 0.52652 0.27375 0.90689 0.0
H418 H 0.50106 0.22608 0.87702 0.0
H419 H 0.49427 0.19403 0.82481 0.0
H420 H 0.52406 0.23777 0.7286 0.0
H421 H 0.54185 0.28958 0.75775 0.0
C422 C 0.5405 0.30033 0.82545 0.0
C423 C 0.5426 0.30009 0.86117 0.0
C424 C 0.52842 0.27162 0.80811 0.0
C425 C 0.5261 0.27413 0.87932 0.0
C426 C 0.51208 0.24655 0.86229 0.0
C427 C 0.50512 0.21461 0.81009 0.0
C428 C 0.50826 0.21179 0.77457 0.0
C429 C 0.51496 0.2442 0.82687 0.0
C430 C 0.52183 0.23909 0.75603 0.0
C431 C 0.5315 0.26889 0.77262 0.0
H432 H 0.8779 0.51059 0.83704 0.0
H433 H 0.79473 0.50788 0.7645 0.0
H434 H 0.82543 0.4653 0.73118 0.0
H435 H 0.87561 0.4276 0.72361 0.0
H436 H 0.9555 0.42753 0.79979 0.0
H437 H 0.92758 0.4739 0.82932 0.0
C438 C 0.86633 0.50064 0.81401 0.0
C439 C 0.83389 0.51227 0.8035 0.0
C440 C 0.88401 0.47613 0.79513 0.0
C441 C 0.81949 0.49915 0.77344 0.0
C442 C 0.8372 0.47501 0.75419 0.0
C443 C 0.88682 0.43761 0.74672 0.0
C444 C 0.91713 0.42325 0.75995 0.0
C445 C 0.86947 0.46314 0.76487 0.0
C446 C 0.93198 0.43767 0.78919 0.0
C447 C 0.91583 0.46401 0.80637 0.0
H448 H 0.5097 0.77737 0.81036 0.0
H449 H 0.51046 0.86304 0.8779 0.0
H450 H 0.4697 0.83456 0.91551 0.0
H451 H 0.43335 0.78597 0.92857 0.0
H452 H 0.4358 0.69807 0.86394 0.0
H453 H 0.47724 0.72614 0.82657 0.0
C454 C 0.50095 0.78977 0.83327 0.0
C455 C 0.51279 0.8224 0.84121 0.0
C456 C 0.47871 0.77259 0.85559 0.0
C457 C 0.50144 0.83804 0.87117 0.0
C458 C 0.47838 0.82167 0.89278 0.0
C459 C 0.44331 0.77263 0.90662 0.0
C460 C 0.43085 0.74021 0.89866 0.0
C461 C 0.46696 0.78893 0.88529 0.0
C462 C 0.44459 0.72319 0.87045 0.0
C463 C 0.46805 0.73936 0.84889 0.0
H464 H 0.2032 0.19209 0.51106 0.0
H465 H 0.1381 0.10583 0.52961 0.0
H466 H 0.16743 0.07443 0.48495 0.0
H467 H 0.21212 0.07076 0.44137 0.0
H468 H 0.28076 0.1548 0.42528 0.0
H469 H 0.25036 0.18727 0.46882 0.0
C470 C 0.19542 0.16648 0.50528 0.0
C471 C 0.16837 0.15139 0.52371 0.0
C472 C 0.21345 0.14792 0.48035 0.0
C473 C 0.15873 0.1181 0.51583 0.0
C474 C 0.17564 0.10002 0.49039 0.0
C475 C 0.22072 0.09608 0.44754 0.0
C476 C 0.24863 0.11032 0.42977 0.0
C477 C 0.20326 0.1145 0.47274 0.0
C478 C 0.25937 0.14314 0.43839 0.0
C479 C 0.24181 0.16184 0.46319 0.0
H480 H 0.77735 0.09481 0.57554 0.0
H481 H 0.70527 0.17699 0.58259 0.0
H482 H 0.73295 0.20493 0.53409 0.0
H483 H 0.7789 0.20636 0.49064 0.0
H484 H 0.85194 0.12461 0.48649 0.0
H485 H 0.82301 0.09651 0.53351 0.0
C486 C 0.76725 0.11857 0.56616 0.0
C487 C 0.73901 0.1336 0.5823 0.0
C488 C 0.78396 0.1349 0.53926 0.0
C489 C 0.72676 0.16474 0.57029 0.0
C490 C 0.74277 0.18084 0.54279 0.0
C491 C 0.78867 0.1826 0.50033 0.0
C492 C 0.81758 0.16765 0.48515 0.0
C493 C 0.77172 0.16635 0.52738 0.0
C494 C 0.82978 0.13671 0.49775 0.0
C495 C 0.81314 0.12049 0.52451 0.0
H496 H 0.77092 0.90814 0.43854 0.0
H497 H 0.69222 0.83157 0.4337 0.0
H498 H 0.72205 0.79894 0.47774 0.0
H499 H 0.7719 0.79153 0.51678 0.0
H500 H 0.84851 0.87014 0.52231 0.0
H501 H 0.81856 0.90211 0.47841 0.0
C502 C 0.75997 0.8845 0.44731 0.0
C503 C 0.7294 0.87231 0.43259 0.0
C504 C 0.77732 0.86586 0.47244 0.0
C505 C 0.71569 0.84162 0.44451 0.0
C506 C 0.73291 0.8228 0.46954 0.0
C507 C 0.78208 0.81553 0.50816 0.0
C508 C 0.81257 0.82832 0.52267 0.0
C509 C 0.76405 0.83444 0.48341 0.0
C510 C 0.82519 0.85967 0.51152 0.0
C511 C 0.80799 0.87808 0.4865 0.0
H512 H 0.20687 0.83071 0.47474 0.0
H513 H 0.20446 0.73836 0.53255 0.0
H514 H 0.24648 0.76196 0.57302 0.0
H515 H 0.27898 0.81142 0.59437 0.0
H516 H 0.28056 0.90322 0.53507 0.0
H517 H 0.24453 0.87686 0.49185 0.0
C518 C 0.21573 0.81577 0.4962 0.0
C519 C 0.2023 0.78338 0.5015 0.0
C520 C 0.23994 0.82926 0.51863 0.0
C521 C 0.21437 0.76362 0.52855 0.0
C522 C 0.23834 0.77708 0.55148 0.0
C523 C 0.27229 0.82525 0.57148 0.0
C524 C 0.28217 0.85927 0.56794 0.0
C525 C 0.25077 0.81017 0.5471 0.0
C526 C 0.27311 0.87705 0.53836 0.0
C527 C 0.2523 0.86211 0.51379 0.0
H528 H 0.59107 0.94775 0.74452 0.0
H529 H 0.68015 0.91826 0.80263 0.0
H530 H 0.71361 0.96368 0.77632 0.0
H531 H 0.71826 0.01003 0.73414 0.0
H532 H 0.62878 0.03728 0.67528 0.0
H533 H 0.59505 0.99437 0.70427 0.0
C534 C 0.61765 0.95153 0.75189 0.0
C535 C 0.63302 0.92971 0.7756 0.0
C536 C 0.6369 0.97704 0.73606 0.0
C537 C 0.66762 0.93483 0.78455 0.0
C538 C 0.68685 0.96065 0.76933 0.0
C539 C 0.69142 0.00646 0.72767 0.0
C540 C 0.67619 0.02672 0.70241 0.0
C541 C 0.67193 0.98154 0.74454 0.0
C542 C 0.64127 0.02199 0.6945 0.0
C543 C 0.62184 0.99749 0.71114 0.0
H544 H 0.95061 0.75209 0.59906 0.0
H545 H 0.91339 0.79498 0.69279 0.0
H546 H 0.95849 0.76545 0.72451 0.0
H547 H 0.00651 0.72405 0.72584 0.0
H548 H 0.04065 0.68012 0.63125 0.0
H549 H -0.00139 0.71301 0.59998 0.0
C550 C 0.95265 0.75557 0.62637 0.0
C551 C 0.92868 0.77593 0.64341 0.0
C552 C 0.97782 0.73769 0.6445 0.0
C553 C 0.93169 0.77978 0.67889 0.0
C554 C 0.95728 0.76257 0.69712 0.0
C555 C 0.00462 0.72167 0.69842 0.0
C556 C 0.02665 0.69939 0.68104 0.0
C557 C 0.98007 0.74081 0.68027 0.0
C558 C 0.02401 0.69684 0.64543 0.0
C559 C 1e-05 0.71579 0.62738 0.0
H560 H 0.44222 0.06263 0.69286 0.0
H561 H 0.36495 0.08515 0.76813 0.0
H562 H 0.32944 0.03892 0.74721 0.0
H563 H 0.3183 0.99501 0.70479 0.0
H564 H 0.39603 0.97082 0.63073 0.0
H565 H 0.43315 0.01529 0.65348 0.0
C566 C 0.41795 0.05697 0.70514 0.0
C567 C 0.40618 0.07743 0.73186 0.0
C568 C 0.39738 0.03061 0.69268 0.0
C569 C 0.37462 0.06982 0.74747 0.0
C570 C 0.35412 0.04356 0.73534 0.0
C571 C 0.34333 -0.00051 0.69363 0.0
C572 C 0.35429 0.98005 0.66592 0.0
C573 C 0.36483 0.02441 0.70739 0.0
C574 C 0.387 0.98574 0.65199 0.0
C575 C 0.40827 0.01101 0.66506 0.0
H576 H 0.09366 0.20463 0.70312 0.0
H577 H 0.02786 0.19078 0.61578 0.0
H578 H 0.98115 0.2194 0.64512 0.0
H579 H 0.9628 0.25712 0.69077 0.0
H580 H 0.02816 0.27385 0.77754 0.0
H581 H 0.07069 0.2343 0.7541 0.0
C582 C 0.0687 0.20678 0.69104 0.0
C583 C 0.06432 0.1958 0.65713 0.0
C584 C 0.04211 0.22434 0.70777 0.0
C585 C 0.03195 0.19916 0.64171 0.0
C586 C 0.00528 0.21575 0.65839 0.0
C587 C 0.98612 0.25151 0.70484 0.0
C588 C 0.99266 0.26834 0.73559 0.0
C589 C 0.01067 0.22986 0.69065 0.0
C590 C 0.02273 0.26106 0.75379 0.0
C591 C 0.04715 0.2388 0.74014 0.0
H592 H 0.63646 0.96033 0.2981 0.0
H593 H 0.73886 0.0015 0.29655 0.0
H594 H 0.71774 0.05181 0.26631 0.0
H595 H 0.66824 0.08667 0.24641 0.0
H596 H 0.56675 0.04258 0.24653 0.0
H597 H 0.58949 0.99067 0.27068 0.0
C598 C 0.65417 0.98034 0.29109 0.0
C599 C 0.68893 0.97776 0.30025 0.0
C600 C 0.64195 0.00864 0.27339 0.0
C601 C 0.71186 0.00325 0.29014 0.0
C602 C 0.69975 0.03198 0.27292 0.0
C603 C 0.65134 0.0653 0.25067 0.0
C604 C 0.61572 0.06867 0.24487 0.0
C605 C 0.66461 0.03533 0.26509 0.0
C606 C 0.59417 0.04079 0.25088 0.0
C607 C 0.6071 0.01113 0.26498 0.0
H608 H 0.98363 0.65743 0.36248 0.0
H609 H 0.00116 0.72536 0.27834 0.0
H610 H 0.03234 0.76382 0.3158 0.0
H611 H 0.05542 0.77744 0.37195 0.0
H612 H 0.04845 0.70412 0.45287 0.0
H613 H 0.00968 0.66978 0.41817 0.0
C614 C 0.99447 0.68057 0.35232 0.0
C615 C 0.98982 0.68871 0.31777 0.0
C616 C 0.01324 0.70204 0.37375 0.0
C617 C 0.00425 0.71857 0.30483 0.0
C618 C 0.02183 0.74071 0.32631 0.0
C619 C 0.0457 0.75388 0.38203 0.0
C620 C 0.05579 0.74288 0.41456 0.0
C621 C 0.02642 0.73269 0.3608 0.0
C622 C 0.04147 0.71301 0.42772 0.0
C623 C 0.01974 0.6931 0.40771 0.0
H624 H 0.33572 0.91634 0.21987 0.0
H625 H 0.42365 0.91919 0.28679 0.0
H626 H 0.39608 0.96246 0.32118 0.0
H627 H 0.3464 0.998 0.33381 0.0
H628 H 0.25708 0.99413 0.26889 0.0
H629 H 0.28513 0.95171 0.23318 0.0
C630 C 0.34892 0.92646 0.2419 0.0
C631 C 0.3817 0.9141 0.2508 0.0
C632 C 0.33227 0.95059 0.2625 0.0
C633 C 0.39845 0.92801 0.27926 0.0
C634 C 0.38255 0.95261 0.2992 0.0
C635 C 0.33282 0.98769 0.31205 0.0
C636 C 0.29951 -0.00079 0.30424 0.0
C637 C 0.34926 0.96365 0.29143 0.0
C638 C 0.28256 0.98559 0.27576 0.0
C639 C 0.29876 0.96153 0.25511 0.0
H640 H 0.01652 0.30258 0.32985 0.0
H641 H 0.97924 0.26401 0.23404 0.0
H642 H 0.94273 0.22344 0.26433 0.0
H643 H 0.92055 0.20001 0.31842 0.0
H644 H 0.95596 0.24205 0.41349 0.0
H645 H 0.9957 0.27871 0.38307 0.0
C646 C 0.00032 0.28545 0.31547 0.0
C647 C 0.00036 0.28655 0.27973 0.0
C648 C 0.97969 0.26222 0.33298 0.0
C649 C 0.97942 0.2639 0.26159 0.0
C650 C 0.95878 0.24052 0.2789 0.0
C651 C 0.93699 0.21713 0.33245 0.0
C652 C 0.93464 0.21884 0.36816 0.0
C653 C 0.95865 0.2395 0.31465 0.0
C654 C 0.95693 0.24048 0.38598 0.0
C655 C 0.97945 0.26172 0.3686 0.0
H656 H 0.78831 0.65966 0.92857 0.0
H657 H 0.7436 0.56132 0.94533 0.0
H658 H 0.70513 0.58489 0.98801 0.0
H659 H 0.68143 0.6338 0.01804 0.0
H660 H 0.72213 0.73315 0.998 0.0
H661 H 0.76372 0.70913 0.95815 0.0
C662 C 0.77015 0.64337 0.94148 0.0
C663 C 0.76863 0.60875 0.93321 0.0
C664 C 0.74674 0.65745 0.9649 0.0
C665 C 0.74532 0.58804 0.95092 0.0
C666 C 0.72305 0.60156 0.97519 0.0
C667 C 0.69929 0.65029 0.00488 0.0
C668 C 0.69855 0.68529 0.01106 0.0
C669 C 0.72297 0.63632 0.98183 0.0
C670 C 0.72196 0.70616 0.9937 0.0
C671 C 0.74594 0.69239 0.97103 0.0
H672 H 0.20801 0.68668 0.08228 0.0
H673 H 0.20355 0.59429 0.02442 0.0
H674 H 0.23653 0.62056 0.97871 0.0
H675 H 0.27399 0.66616 0.95972 0.0
H676 H 0.28171 0.75805 0.01761 0.0
H677 H 0.23976 0.73588 0.05894 0.0
C678 C 0.21329 0.67275 0.05913 0.0
C679 C 0.20349 0.63858 0.05661 0.0
C680 C 0.23348 0.68766 0.03353 0.0
C681 C 0.2109 0.62057 0.02682 0.0
C682 C 0.22996 0.63548 0.00086 0.0
C683 C 0.26611 0.68144 0.98125 0.0
C684 C 0.28107 0.71326 0.98629 0.0
C685 C 0.24263 0.66839 0.0047 0.0
C686 C 0.27051 0.73332 0.01365 0.0
C687 C 0.24672 0.72057 0.0372 0.0
H688 H 0.23777 0.32686 0.91947 0.0
H689 H 0.27544 0.42786 0.93684 0.0
H690 H 0.31249 0.40719 0.98243 0.0
H691 H 0.33574 0.36039 0.01613 0.0
H692 H 0.30168 0.25863 0.99633 0.0
H693 H 0.26258 0.27945 0.95221 0.0
C694 C 0.25403 0.34437 0.93319 0.0
C695 C 0.25384 0.37893 0.92451 0.0
C696 C 0.27642 0.33206 0.95858 0.0
C697 C 0.27502 0.40119 0.94288 0.0
C698 C 0.29641 0.38934 0.96886 0.0
C699 C 0.31993 0.34267 0.00205 0.0
C700 C 0.32165 0.30796 0.00966 0.0
C701 C 0.29769 0.3548 0.97661 0.0
C702 C 0.30099 0.28544 0.99102 0.0
C703 C 0.27845 0.29738 0.9659 0.0
H704 H 0.70478 0.4243 0.06332 0.0
H705 H 0.77767 0.3425 0.06607 0.0
H706 H 0.75021 0.31719 0.01592 0.0
H707 H 0.7036 0.3176 0.97269 0.0
H708 H 0.62982 0.3989 0.97376 0.0
H709 H 0.65924 0.42472 0.02156 0.0
C710 C 0.71506 0.40112 0.05282 0.0
C711 C 0.74333 0.38539 0.06828 0.0
C712 C 0.69855 0.3863 0.02503 0.0
C713 C 0.75604 0.35522 0.05444 0.0
C714 C 0.74017 0.34063 0.02597 0.0
C715 C 0.69388 0.3408 0.98363 0.0
C716 C 0.66449 0.35622 0.96972 0.0
C717 C 0.71101 0.3557 0.01138 0.0
C718 C 0.65231 0.38641 0.98396 0.0
C719 C 0.66921 0.40135 0.01124 0.0
H720 H 0.11457 0.2519 0.31252 0.0
H721 H 0.09675 0.18464 0.2281 0.0
H722 H 0.1352 0.1429 0.25332 0.0
H723 H 0.17941 0.12875 0.29582 0.0
H724 H 0.19615 0.19587 0.3807 0.0
H725 H 0.15204 0.23386 0.35934 0.0
C726 C 0.1189 0.22795 0.29989 0.0
C727 C 0.10342 0.22155 0.26832 0.0
C728 C 0.1408 0.20396 0.31463 0.0
C729 C 0.10858 0.19018 0.25244 0.0
C730 C 0.1306 0.16631 0.26678 0.0
C731 C 0.17268 0.15116 0.31013 0.0
C732 C 0.19149 0.15981 0.33935 0.0
C733 C 0.14757 0.17329 0.29744 0.0
C734 C 0.18243 0.18895 0.35772 0.0
C735 C 0.15732 0.21082 0.34549 0.0
H736 H 0.744 0.18573 0.39223 0.0
H737 H 0.77127 0.11018 0.31792 0.0
H738 H 0.71048 0.09865 0.30768 0.0
H739 H 0.65093 0.116 0.31313 0.0
H740 H 0.62382 0.19704 0.38126 0.0
H741 H 0.68314 0.19916 0.40199 0.0
C742 C 0.73672 0.16624 0.37424 0.0
C743 C 0.76222 0.14912 0.3555 0.0
C744 C 0.70173 0.16065 0.36751 0.0
C745 C 0.75224 0.124 0.33233 0.0
C746 C 0.71749 0.11734 0.32653 0.0
C747 C 0.65772 0.13377 0.33304 0.0
C748 C 0.63303 0.15688 0.34508 0.0
C749 C 0.69215 0.13642 0.34299 0.0
C750 C 0.64221 0.17908 0.37142 0.0
C751 C 0.67628 0.18061 0.3829 0.0
H752 H 0.86587 0.72333 0.33451 0.0
H753 H 0.90132 0.79675 0.26131 0.0
H754 H 0.85788 0.83667 0.28054 0.0
H755 H 0.80546 0.84797 0.31346 0.0
H756 H 0.77101 0.77434 0.38718 0.0
H757 H 0.81862 0.73766 0.3727 0.0
C758 C 0.86432 0.74821 0.32306 0.0
C759 C 0.88631 0.75686 0.29622 0.0
C760 C 0.8393 0.77101 0.33415 0.0
C761 C 0.88452 0.78942 0.282 0.0
C762 C 0.8596 0.81224 0.29285 0.0
C763 C 0.80873 0.8242 0.32678 0.0
C764 C 0.78416 0.81362 0.35067 0.0
C765 C 0.83619 0.80293 0.31824 0.0
C766 C 0.78906 0.78287 0.36804 0.0
C767 C 0.81632 0.76177 0.35984 0.0
H768 H 0.29157 0.88251 0.29721 0.0
H769 H 0.33924 0.7858 0.31449 0.0
H770 H 0.29654 0.77294 0.35846 0.0
H771 H 0.23947 0.78458 0.38262 0.0
H772 H 0.18871 0.87849 0.35901 0.0
H773 H 0.23893 0.89726 0.32693 0.0
C774 C 0.293 0.85881 0.31103 0.0
C775 C 0.31789 0.83471 0.30209 0.0
C776 C 0.26746 0.85098 0.33473 0.0
C777 C 0.32012 0.8046 0.32078 0.0
C778 C 0.2955 0.79715 0.34564 0.0
C779 C 0.2398 0.80954 0.37124 0.0
C780 C 0.2103 0.83 0.37273 0.0
C781 C 0.26807 0.81942 0.35146 0.0
C782 C 0.21097 0.86219 0.35781 0.0
C783 C 0.23962 0.87286 0.33943 0.0
H784 H 0.10854 0.80739 0.72712 0.0
H785 H 0.16359 0.73492 0.666 0.0
H786 H 0.20136 0.77974 0.64524 0.0
H787 H 0.22213 0.83776 0.64904 0.0
H788 H 0.16974 0.90944 0.7134 0.0
H789 H 0.12694 0.86652 0.72773 0.0
C790 C 0.12851 0.80133 0.70893 0.0
C791 C 0.13338 0.76765 0.69841 0.0
C792 C 0.15062 0.82704 0.69776 0.0
C793 C 0.15941 0.76048 0.67479 0.0
C794 C 0.18102 0.78611 0.66291 0.0
C795 C 0.20113 0.84434 0.66587 0.0
C796 C 0.19947 0.87685 0.68043 0.0
C797 C 0.17737 0.81927 0.67492 0.0
C798 C 0.17183 0.88468 0.70194 0.0
C799 C 0.14745 0.86007 0.7103 0.0
H800 H 0.35057 0.15498 0.68686 0.0
H801 H 0.40063 0.21486 0.60935 0.0
H802 H 0.34723 0.2165 0.57671 0.0
H803 H 0.28552 0.20705 0.57393 0.0
H804 H 0.23421 0.15168 0.654 0.0
H805 H 0.28949 0.14172 0.68179 0.0
C806 C 0.35009 0.16802 0.66257 0.0
C807 C 0.37953 0.1852 0.65077 0.0
C808 C 0.31909 0.16988 0.64462 0.0
C809 C 0.37831 0.20176 0.61918 0.0
C810 C 0.34777 0.20274 0.60057 0.0
C811 C 0.28626 0.19241 0.59727 0.0
C812 C 0.25558 0.18058 0.61215 0.0
C813 C 0.31781 0.18786 0.61364 0.0
C814 C 0.25732 0.16137 0.64217 0.0
C815 C 0.28891 0.15577 0.6581 0.0
H816 H 0.79549 0.17143 0.64845 0.0
H817 H 0.85147 0.1294 0.73351 0.0
H818 H 0.88838 0.17941 0.7347 0.0
H819 H 0.8985 0.23791 0.71754 0.0
H820 H 0.83834 0.28199 0.63643 0.0
H821 H 0.80956 0.22783 0.6275 0.0
C822 C 0.81602 0.17283 0.66708 0.0
C823 C 0.82019 0.14682 0.69138 0.0
C824 C 0.83615 0.20218 0.66852 0.0
C825 C 0.84741 0.14904 0.71475 0.0
C826 C 0.86841 0.17775 0.71554 0.0
C827 C 0.87946 0.23574 0.6975 0.0
C828 C 0.87016 0.26436 0.6781 0.0
C829 C 0.86204 0.20498 0.69347 0.0
C830 C 0.84579 0.26063 0.65198 0.0
C831 C 0.8292 0.22967 0.64697 0.0
H832 H 0.69785 0.78286 0.60055 0.0
H833 H 0.76853 0.84214 0.66084 0.0
H834 H 0.72164 0.85826 0.69868 0.0
H835 H 0.66274 0.84992 0.71826 0.0
H836 H 0.59322 0.78699 0.66041 0.0
H837 H 0.63772 0.77831 0.61757 0.0
C838 C 0.70308 0.79972 0.62165 0.0
C839 C 0.73688 0.81091 0.62806 0.0
C840 C 0.67628 0.808 0.64387 0.0
C841 C 0.74291 0.83289 0.65546 0.0
C842 C 0.7161 0.84205 0.67716 0.0
C843 C 0.657 0.8346 0.6961 0.0
C844 C 0.62471 0.81869 0.69288 0.0
C845 C 0.68298 0.82885 0.67219 0.0
C846 C 0.61786 0.79928 0.66375 0.0
C847 C 0.64335 0.79423 0.63929 0.0
H848 H 0.36357 0.1608 0.2668 0.0
H849 H 0.27455 0.1005 0.24226 0.0
H850 H 0.27966 0.1159 0.18252 0.0
H851 H 0.30446 0.15316 0.13854 0.0
H852 H 0.39538 0.21068 0.16236 0.0
H853 H 0.39494 0.18906 0.22043 0.0
C854 C 0.34569 0.15061 0.24826 0.0
C855 C 0.31845 0.13004 0.25916 0.0
C856 C 0.34895 0.15921 0.21364 0.0
C857 C 0.29577 0.11655 0.23469 0.0
C858 C 0.29854 0.12543 0.2004 0.0
C859 C 0.32477 0.16013 0.1561 0.0
C860 C 0.3493 0.18432 0.14641 0.0
C861 C 0.32437 0.14764 0.18971 0.0
C862 C 0.3756 0.19286 0.16951 0.0
C863 C 0.37537 0.18059 0.20279 0.0
H864 H 0.87469 0.27705 0.28439 0.0
H865 H 0.81242 0.29916 0.37242 0.0
H866 H 0.7945 0.35237 0.34635 0.0
H867 H 0.78919 0.38719 0.29507 0.0
H868 H 0.84749 0.36186 0.20526 0.0
H869 H 0.87471 0.31536 0.23582 0.0
C870 C 0.85741 0.29361 0.2981 0.0
C871 C 0.84412 0.28374 0.32991 0.0
C872 C 0.84638 0.32343 0.28253 0.0
C873 C 0.82264 0.30596 0.34772 0.0
C874 C 0.81229 0.33631 0.33276 0.0
C875 C 0.80848 0.37205 0.28237 0.0
C876 C 0.81593 0.37764 0.24776 0.0
C877 C 0.8229 0.34454 0.29962 0.0
C878 C 0.841 0.3578 0.23175 0.0
C879 C 0.85646 0.33115 0.24916 0.0
H880 H 0.62648 0.78345 0.16288 0.0
H881 H 0.7069 0.85009 0.12763 0.0
H882 H 0.70742 0.87838 0.18295 0.0
H883 H 0.69178 0.87776 0.24346 0.0
H884 H 0.6153 0.80719 0.27959 0.0
H885 H 0.60646 0.78693 0.22155 0.0
C886 C 0.64386 0.80453 0.16696 0.0
C887 C 0.66716 0.81417 0.14119 0.0
C888 C 0.64505 0.81961 0.19919 0.0
C889 C 0.68888 0.84196 0.14694 0.0
C890 C 0.68935 0.85794 0.17871 0.0
C891 C 0.67265 0.85838 0.23867 0.0
C892 C 0.65456 0.84369 0.26608 0.0
C893 C 0.6686 0.84601 0.20541 0.0
C894 C 0.62985 0.81869 0.25917 0.0
C895 C 0.62485 0.80705 0.22596 0.0
H896 H 0.18601 0.60158 0.2834 0.0
H897 H 0.11964 0.64369 0.20622 0.0
H898 H 0.09675 0.68376 0.24745 0.0
H899 H 0.10126 0.71131 0.30268 0.0
H900 H 0.17085 0.6721 0.37871 0.0
H901 H 0.18633 0.62588 0.3407 0.0
C902 C 0.16603 0.61905 0.27575 0.0
C903 C 0.15484 0.61997 0.24171 0.0
C904 C 0.15386 0.64274 0.29924 0.0
C905 C 0.12897 0.64279 0.23219 0.0
C906 C 0.11593 0.66572 0.25571 0.0
C907 C 0.11963 0.69254 0.31116 0.0
C908 C 0.13549 0.69563 0.34322 0.0
C909 C 0.12914 0.66671 0.28889 0.0
C910 C 0.15858 0.67059 0.35401 0.0
C911 C 0.16752 0.64421 0.33225 0.0
H912 H 0.33883 0.815 0.85489 0.0
H913 H 0.38124 0.74782 0.77929 0.0
H914 H 0.37639 0.79143 0.73631 0.0
H915 H 0.35477 0.84616 0.71858 0.0
H916 H 0.31144 0.91378 0.79307 0.0
H917 H 0.32295 0.87283 0.83802 0.0
C918 C 0.34718 0.81 0.82908 0.0
C919 C 0.35968 0.77794 0.82032 0.0
C920 C 0.3443 0.83527 0.80416 0.0
C921 C 0.37107 0.7721 0.78683 0.0
C922 C 0.36838 0.79705 0.76209 0.0
C923 C 0.34827 0.85223 0.74469 0.0
C924 C 0.33166 0.88268 0.75226 0.0
C925 C 0.35425 0.82839 0.77027 0.0
C926 C 0.32401 0.89035 0.78639 0.0
C927 C 0.33034 0.86685 0.81215 0.0
H928 H 0.20048 0.36516 0.73652 0.0
H929 H 0.13045 0.29895 0.78959 0.0
H930 H 0.11268 0.27411 0.73559 0.0
H931 H 0.12244 0.2657 0.67522 0.0
H932 H 0.19655 0.32738 0.62207 0.0
H933 H 0.20629 0.36026 0.67399 0.0
C934 C 0.18071 0.34584 0.73618 0.0
C935 C 0.16697 0.33376 0.76712 0.0
C936 C 0.17139 0.33074 0.70505 0.0
C937 C 0.14162 0.30851 0.76625 0.0
C938 C 0.13142 0.29428 0.73538 0.0
C939 C 0.1404 0.28667 0.67466 0.0
C940 C 0.15918 0.29363 0.64479 0.0
C941 C 0.147 0.30434 0.70486 0.0
C942 C 0.18181 0.32133 0.64461 0.0
C943 C 0.18762 0.33993 0.67444 0.0
H944 H 0.65375 0.16181 0.72617 0.0
H945 H 0.7131 0.12753 0.8123 0.0
H946 H 0.69144 0.17434 0.84647 0.0
H947 H 0.66117 0.22907 0.84939 0.0
H948 H 0.60405 0.26307 0.76143 0.0
H949 H 0.61902 0.21231 0.73092 0.0
C950 C 0.66165 0.16427 0.75257 0.0
C951 C 0.68544 0.1416 0.76643 0.0
C952 C 0.64971 0.19149 0.77177 0.0
C953 C 0.69491 0.14479 0.80087 0.0
C954 C 0.68271 0.1717 0.82039 0.0
C955 C 0.65169 0.22514 0.82372 0.0
C956 C 0.63193 0.25021 0.80772 0.0
C957 C 0.66099 0.19588 0.80574 0.0
C958 C 0.61959 0.24451 0.77447 0.0
C959 C 0.62817 0.21541 0.75682 0.0
H960 H 0.87231 0.71672 0.66992 0.0
H961 H 0.78781 0.65654 0.63233 0.0
H962 H 0.78749 0.62435 0.68564 0.0
H963 H 0.80488 0.62001 0.74577 0.0
H964 H 0.88462 0.68535 0.78468 0.0
H965 H 0.8931 0.70899 0.72779 0.0
C966 C 0.85399 0.69627 0.67304 0.0
C967 C 0.82959 0.68952 0.6473 0.0
C968 C 0.85284 0.67918 0.70423 0.0
C969 C 0.80671 0.66242 0.65168 0.0
C970 C 0.80635 0.64424 0.68231 0.0
C971 C 0.82466 0.63889 0.74169 0.0
C972 C 0.844 0.65109 0.76951 0.0
C973 C 0.82833 0.65339 0.70924 0.0
C974 C 0.86928 0.67575 0.76379 0.0
C975 C 0.87407 0.68929 0.7313 0.0
H976 H 0.15326 0.33674 0.17233 0.0
H977 H 0.09822 0.26964 0.10477 0.0
H978 H 0.1506 0.26113 0.07172 0.0
H979 H 0.21298 0.26568 0.06775 0.0
H980 H 0.26887 0.32818 0.13898 0.0
H981 H 0.21476 0.34557 0.16498 0.0
C982 C 0.15238 0.32061 0.15006 0.0
C983 C 0.12186 0.30327 0.14148 0.0
C984 C 0.18285 0.31456 0.13226 0.0
C985 C 0.12133 0.28301 0.11219 0.0
C986 C 0.15135 0.27795 0.09344 0.0
C987 C 0.2135 0.28342 0.08873 0.0
C988 C 0.24511 0.29508 0.10184 0.0
C989 C 0.18248 0.29243 0.10419 0.0
C990 C 0.24502 0.31844 0.12869 0.0
C991 C 0.21408 0.32837 0.14356 0.0
H992 H 0.24307 0.69741 0.89722 0.0
H993 H 0.28367 0.61927 0.83211 0.0
H994 H 0.22672 0.61086 0.80733 0.0
H995 H 0.16901 0.63256 0.79721 0.0
H996 H 0.13044 0.71534 0.85742 0.0
H997 H 0.18294 0.71446 0.89174 0.0
C998 C 0.23953 0.67809 0.87798 0.0
C999 C 0.26797 0.65953 0.86596 0.0
C1000 C 0.20712 0.6745 0.86278 0.0
C1001 C 0.26249 0.63424 0.84151 0.0
C1002 C 0.22992 0.62954 0.82724 0.0
C1003 C 0.17173 0.6502 0.81817 0.0
C1004 C 0.14609 0.67464 0.82416 0.0
C1005 C 0.20256 0.65064 0.83655 0.0
C1006 C 0.1498 0.69654 0.85199 0.0
C1007 C 0.17997 0.69619 0.87142 0.0
H1008 H 0.31897 0.29546 0.86274 0.0
H1009 H 0.31744 0.3752 0.78773 0.0
H1010 H 0.36802 0.35109 0.76031 0.0
H1011 H 0.40568 0.30211 0.75203 0.0
H1012 H 0.40335 0.22023 0.82456 0.0
H1013 H 0.36131 0.25059 0.85875 0.0
C1014 C 0.32993 0.3079 0.84066 0.0
C1015 C 0.31392 0.33655 0.82673 0.0
C1016 C 0.35804 0.29325 0.82435 0.0
C1017 C 0.32901 0.35286 0.7987 0.0
C1018 C 0.35781 0.33897 0.78289 0.0
C1019 C 0.39654 0.29129 0.77572 0.0
C1020 C 0.40696 0.25875 0.78547 0.0
C1021 C 0.3715 0.30835 0.7946 0.0
C1022 C 0.3951 0.24501 0.81626 0.0
C1023 C 0.37111 0.26233 0.83579 0.0
H1024 H 0.72686 0.33725 0.86015 0.0
H1025 H 0.69345 0.42414 0.80257 0.0
H1026 H 0.75165 0.43147 0.78035 0.0
H1027 H 0.80808 0.40762 0.77008 0.0
H1028 H 0.83945 0.31625 0.8212 0.0
H1029 H 0.78599 0.31671 0.8542 0.0
C1030 C 0.73245 0.35832 0.84338 0.0
C1031 C 0.70582 0.38003 0.83273 0.0
C1032 C 0.7654 0.36125 0.82939 0.0
C1033 C 0.71344 0.40701 0.81086 0.0
C1034 C 0.74663 0.4111 0.79812 0.0
C1035 C 0.80354 0.38796 0.78877 0.0
C1036 C 0.82729 0.3614 0.79261 0.0
C1037 C 0.77225 0.38747 0.80606 0.0
C1038 C 0.82145 0.33674 0.81758 0.0
C1039 C 0.79078 0.33689 0.83617 0.0
H1040 H 0.71185 0.69413 0.88768 0.0
H1041 H 0.69635 0.62516 0.80408 0.0
H1042 H 0.64474 0.65629 0.78713 0.0
H1043 H 0.61053 0.70846 0.79055 0.0
H1044 H 0.63134 0.78037 0.87041 0.0
H1045 H 0.67466 0.74271 0.89442 0.0
C1046 C 0.69702 0.68561 0.86591 0.0
C1047 C 0.70834 0.65792 0.84659 0.0
C1048 C 0.66866 0.70447 0.85546 0.0
C1049 C 0.6883 0.64659 0.81915 0.0
C1050 C 0.659 0.66456 0.80932 0.0
C1051 C 0.62404 0.71548 0.81365 0.0
C1052 C 0.61812 0.74719 0.82862 0.0
C1053 C 0.64989 0.69436 0.82642 0.0
C1054 C 0.63585 0.75621 0.85834 0.0
C1055 C 0.66056 0.73473 0.87202 0.0
H1056 H 0.80249 0.72228 0.08207 0.0
H1057 H 0.7344 0.66582 0.14779 0.0
H1058 H 0.78372 0.6465 0.18107 0.0
H1059 H 0.84451 0.65177 0.19556 0.0
H1060 H 0.91154 0.71268 0.13285 0.0
H1061 H 0.864 0.72358 0.09374 0.0
C1062 C 0.79824 0.70543 0.10345 0.0
C1063 C 0.76457 0.69599 0.11274 0.0
C1064 C 0.8265 0.69536 0.12302 0.0
C1065 C 0.75989 0.67382 0.14028 0.0
C1066 C 0.7881 0.66281 0.15933 0.0
C1067 C 0.84907 0.66702 0.17305 0.0
C1068 C 0.8816 0.68183 0.16746 0.0
C1069 C 0.82133 0.67434 0.15155 0.0
C1070 C 0.88682 0.70121 0.13797 0.0
C1071 C 0.85957 0.70759 0.11571 0.0
H1072 H 0.36452 0.72927 0.20372 0.0
H1073 H 0.30704 0.77886 0.12407 0.0
H1074 H 0.27934 0.72545 0.1096 0.0
H1075 H 0.26553 0.66735 0.12474 0.0
H1076 H 0.31914 0.61862 0.20755 0.0
H1077 H 0.35489 0.66891 0.21498 0.0
C1078 C 0.3465 0.72831 0.18269 0.0
C1079 C 0.33759 0.75819 0.16526 0.0
C1080 C 0.32973 0.69774 0.17526 0.0
C1081 C 0.31411 0.75638 0.13814 0.0
C1082 C 0.2982 0.72585 0.12988 0.0
C1083 C 0.28533 0.66738 0.14417 0.0
C1084 C 0.28913 0.63933 0.166 0.0
C1085 C 0.30485 0.69674 0.14912 0.0
C1086 C 0.31541 0.63984 0.19055 0.0
C1087 C 0.33573 0.66871 0.19495 0.0
H1088 H 0.64043 0.37813 0.2244 0.0
H1089 H 0.7094 0.32316 0.15892 0.0
H1090 H 0.67809 0.27103 0.17026 0.0
H1091 H 0.63478 0.23992 0.20378 0.0
H1092 H 0.56579 0.2961 0.26849 0.0
H1093 H 0.59337 0.34845 0.25224 0.0
C1094 C 0.64834 0.35486 0.21221 0.0
C1095 C 0.6775 0.35455 0.19135 0.0
C1096 C 0.63046 0.32489 0.219 0.0
C1097 C 0.68708 0.3242 0.1753 0.0
C1098 C 0.66933 0.29424 0.18192 0.0
C1099 C 0.62563 0.26363 0.21409 0.0
C1100 C 0.59871 0.26376 0.23787 0.0
C1101 C 0.6416 0.29408 0.20459 0.0
C1102 C 0.5868 0.2949 0.25049 0.0
C1103 C 0.60251 0.32507 0.24123 0.0
loop_
_geom_bond_atom_site_label_1
_geom_bond_atom_site_label_2
_geom_bond_distance
_geom_bond_site_symmetry_2
_ccdc_geom_bond_type
Co0 O1 2.216 . S
Co0 O2 2.091 . S
Co0 O4 2.004 . S
Co0 O10 2.021 . S
Co0 O12 2.137 . S
Co0 O13 2.244 . S
O1 Co0 2.216 . S
O1 C8 1.247 . S
O2 Co0 2.091 . S
O2 C8 1.261 . S
C3 O12 1.247 . S
C3 O13 1.272 . S
O4 Co0 2.004 . S
O4 C9 1.259 . S
Co5 O6 2.061 . S
Co5 O11 2.052 . S
Co5 O13 2.135 . S
O6 Co5 2.061 . S
O6 C9 1.235 . S
C7 O10 1.238 . S
C7 O11 1.241 . S
C8 O1 1.247 . S
C8 O2 1.261 . S
C9 O4 1.259 . S
C9 O6 1.235 . S
O10 Co0 2.021 . S
O10 C7 1.238 . S
O11 Co5 2.052 . S
O11 C7 1.241 . S
O12 Co0 2.137 . S
O12 C3 1.247 . S
O13 Co0 2.244 . S
O13 C3 1.272 . S
O13 Co5 2.135 . S
Co14 O15 2.216 . S
Co14 O16 2.091 . S
Co14 O18 2.004 . S
Co14 O24 2.021 . S
Co14 O26 2.137 . S
Co14 O27 2.244 . S
O15 Co14 2.216 . S
O15 C22 1.247 . S
O16 Co14 2.091 . S
O16 C22 1.261 . S
C17 O26 1.247 . S
C17 O27 1.272 . S
O18 Co14 2.004 . S
O18 C23 1.259 . S
Co19 O20 2.061 . S
Co19 O25 2.052 . S
Co19 O27 2.135 . S
O20 Co19 2.061 . S
O20 C23 1.235 . S
C21 O24 1.238 . S
C21 O25 1.241 . S
C22 O15 1.247 . S
C22 O16 1.261 . S
C23 O18 1.259 . S
C23 O20 1.235 . S
O24 Co14 2.021 . S
O24 C21 1.238 . S
O25 Co19 2.052 . S
O25 C21 1.241 . S
O26 Co14 2.137 . S
O26 C17 1.247 . S
O27 Co14 2.244 . S
O27 C17 1.272 . S
O27 Co19 2.135 . S
Co28 O29 2.216 . S
Co28 O30 2.091 . S
Co28 O32 2.004 . S
Co28 O38 2.021 . S
Co28 O40 2.137 . S
Co28 O41 2.244 . S
O29 Co28 2.216 . S
O29 C36 1.247 . S
O30 Co28 2.091 . S
O30 C36 1.261 . S
C31 O40 1.247 . S
C31 O41 1.272 . S
O32 Co28 2.004 . S
O32 C37 1.259 . S
Co33 O34 2.061 . S
Co33 O39 2.052 . S
Co33 O41 2.135 . S
O34 Co33 2.061 . S
O34 C37 1.235 . S
C35 O38 1.238 . S
C35 O39 1.241 . S
C36 O29 1.247 . S
C36 O30 1.261 . S
C37 O32 1.259 . S
C37 O34 1.235 . S
O38 Co28 2.021 . S
O38 C35 1.238 . S
O39 Co33 2.052 . S
O39 C35 1.241 . S
O40 Co28 2.137 . S
O40 C31 1.247 . S
O41 Co28 2.244 . S
O41 C31 1.272 . S
O41 Co33 2.135 . S
Co42 O43 2.216 . S
Co42 O44 2.091 . S
Co42 O46 2.004 . S
Co42 O52 2.021 . S
Co42 O54 2.137 . S
Co42 O55 2.244 . S
O43 Co42 2.216 . S
O43 C50 1.247 . S
O44 Co42 2.091 . S
O44 C50 1.261 . S
C45 O54 1.247 . S
C45 O55 1.272 . S
O46 Co42 2.004 . S
O46 C51 1.259 . S
Co47 O48 2.061 . S
Co47 O53 2.052 . S
Co47 O55 2.135 . S
O48 Co47 2.061 . S
O48 C51 1.235 . S
C49 O52 1.238 . S
C49 O53 1.241 . S
C50 O43 1.247 . S
C50 O44 1.261 . S
C51 O46 1.259 . S
C51 O48 1.235 . S
O52 Co42 2.021 . S
O52 C49 1.238 . S
O53 Co47 2.052 . S
O53 C49 1.241 . S
O54 Co42 2.137 . S
O54 C45 1.247 . S
O55 Co42 2.244 . S
O55 C45 1.272 . S
O55 Co47 2.135 . S
Co56 O57 2.216 . S
Co56 O58 2.091 . S
Co56 O60 2.004 . S
Co56 O66 2.021 . S
Co56 O68 2.137 . S
Co56 O69 2.244 . S
O57 Co56 2.216 . S
O57 C64 1.247 . S
O58 Co56 2.091 . S
O58 C64 1.261 . S
C59 O68 1.247 . S
C59 O69 1.272 . S
O60 Co56 2.004 . S
O60 C65 1.259 . S
Co61 O62 2.061 . S
Co61 O67 2.052 . S
Co61 O69 2.135 . S
O62 Co61 2.061 . S
O62 C65 1.235 . S
C63 O66 1.238 . S
C63 O67 1.241 . S
C64 O57 1.247 . S
C64 O58 1.261 . S
C65 O60 1.259 . S
C65 O62 1.235 . S
O66 Co56 2.021 . S
O66 C63 1.238 . S
O67 Co61 2.052 . S
O67 C63 1.241 . S
O68 Co56 2.137 . S
O68 C59 1.247 . S
O69 Co56 2.244 . S
O69 C59 1.272 . S
O69 Co61 2.135 . S
Co70 O71 2.216 . S
Co70 O72 2.091 . S
Co70 O74 2.004 . S
Co70 O80 2.021 . S
Co70 O82 2.137 . S
Co70 O83 2.244 . S
O71 Co70 2.216 . S
O71 C78 1.247 . S
O72 Co70 2.091 . S
O72 C78 1.261 . S
C73 O82 1.247 . S
C73 O83 1.272 . S
O74 Co70 2.004 . S
O74 C79 1.259 . S
Co75 O76 2.061 . S
Co75 O81 2.052 . S
Co75 O83 2.135 . S
O76 Co75 2.061 . S
O76 C79 1.235 . S
C77 O80 1.238 . S
C77 O81 1.241 . S
C78 O71 1.247 . S
C78 O72 1.261 . S
C79 O74 1.259 . S
C79 O76 1.235 . S
O80 Co70 2.021 . S
O80 C77 1.238 . S
O81 Co75 2.052 . S
O81 C77 1.241 . S
O82 Co70 2.137 . S
O82 C73 1.247 . S
O83 Co70 2.244 . S
O83 C73 1.272 . S
O83 Co75 2.135 . S
Co84 O85 2.216 . S
Co84 O86 2.091 . S
Co84 O88 2.004 . S
Co84 O94 2.021 . S
Co84 O96 2.137 . S
Co84 O97 2.244 . S
O85 Co84 2.216 . S
O85 C92 1.247 . S
O86 Co84 2.091 . S
O86 C92 1.261 . S
C87 O96 1.247 . S
C87 O97 1.272 . S
O88 Co84 2.004 . S
O88 C93 1.259 . S
Co89 O90 2.061 . S
Co89 O95 2.052 . S
Co89 O97 2.135 . S
O90 Co89 2.061 . S
O90 C93 1.235 . S
C91 O94 1.238 . S
C91 O95 1.241 . S
C92 O85 1.247 . S
C92 O86 1.261 . S
C93 O88 1.259 . S
C93 O90 1.235 . S
O94 Co84 2.021 . S
O94 C91 1.238 . S
O95 Co89 2.052 . S
O95 C91 1.241 . S
O96 Co84 2.137 . S
O96 C87 1.247 . S
O97 Co84 2.244 . S
O97 C87 1.272 . S
O97 Co89 2.135 . S
Co98 O99 2.216 . S
Co98 O100 2.091 . S
Co98 O102 2.004 . S
Co98 O108 2.021 . S
Co98 O110 2.137 . S
Co98 O111 2.244 . S
O99 Co98 2.216 . S
O99 C106 1.247 . S
O100 Co98 2.091 . S
O100 C106 1.261 . S
C101 O110 1.247 . S
C101 O111 1.272 . S
O102 Co98 2.004 . S
O102 C107 1.259 . S
Co103 O104 2.061 . S
Co103 O109 2.052 . S
Co103 O111 2.135 . S
O104 Co103 2.061 . S
O104 C107 1.235 . S
C105 O108 1.238 . S
C105 O109 1.241 . S
C106 O99 1.247 . S
C106 O100 1.261 . S
C107 O102 1.259 . S
C107 O104 1.235 . S
O108 Co98 2.021 . S
O108 C105 1.238 . S
O109 Co103 2.052 . S
O109 C105 1.241 . S
O110 Co98 2.137 . S
O110 C101 1.247 . S
O111 Co98 2.244 . S
O111 C101 1.272 . S
O111 Co103 2.135 . S
Co112 O113 2.216 . S
Co112 O114 2.091 . S
Co112 O116 2.004 . S
Co112 O122 2.021 . S
Co112 O124 2.137 . S
Co112 O125 2.244 . S
O113 Co112 2.216 . S
O113 C120 1.247 . S
O114 Co112 2.091 . S
O114 C120 1.261 . S
C115 O124 1.247 . S
C115 O125 1.272 . S
O116 Co112 2.004 . S
O116 C121 1.259 . S
Co117 O118 2.061 . S
Co117 O123 2.052 . S
Co117 O125 2.135 . S
O118 Co117 2.061 . S
O118 C121 1.235 . S
C119 O122 1.238 . S
C119 O123 1.241 . S
C120 O113 1.247 . S
C120 O114 1.261 . S
C121 O116 1.259 . S
C121 O118 1.235 . S
O122 Co112 2.021 . S
O122 C119 1.238 . S
O123 Co117 2.052 . S
O123 C119 1.241 . S
O124 Co112 2.137 . S
O124 C115 1.247 . S
O125 Co112 2.244 . S
O125 C115 1.272 . S
O125 Co117 2.135 . S
Co126 O127 2.216 . S
Co126 O128 2.091 . S
Co126 O130 2.004 . S
Co126 O136 2.021 . S
Co126 O138 2.137 . S
Co126 O139 2.244 . S
O127 Co126 2.216 . S
O127 C134 1.247 . S
O128 Co126 2.091 . S
O128 C134 1.261 . S
C129 O138 1.247 . S
C129 O139 1.272 . S
O130 Co126 2.004 . S
O130 C135 1.259 . S
Co131 O132 2.061 . S
Co131 O137 2.052 . S
Co131 O139 2.135 . S
O132 Co131 2.061 . S
O132 C135 1.235 . S
C133 O136 1.238 . S
C133 O137 1.241 . S
C134 O127 1.247 . S
C134 O128 1.261 . S
C135 O130 1.259 . S
C135 O132 1.235 . S
O136 Co126 2.021 . S
O136 C133 1.238 . S
O137 Co131 2.052 . S
O137 C133 1.241 . S
O138 Co126 2.137 . S
O138 C129 1.247 . S
O139 Co126 2.244 . S
O139 C129 1.272 . S
O139 Co131 2.135 . S
Co140 O141 2.216 . S
Co140 O142 2.091 . S
Co140 O144 2.004 . S
Co140 O150 2.021 . S
Co140 O152 2.137 . S
Co140 O153 2.244 . S
O141 Co140 2.216 . S
O141 C148 1.247 . S
O142 Co140 2.091 . S
O142 C148 1.261 . S
C143 O152 1.247 . S
C143 O153 1.272 . S
O144 Co140 2.004 . S
O144 C149 1.259 . S
Co145 O146 2.061 . S
Co145 O151 2.052 . S
Co145 O153 2.135 . S
O146 Co145 2.061 . S
O146 C149 1.235 . S
C147 O150 1.238 . S
C147 O151 1.241 . S
C148 O141 1.247 . S
C148 O142 1.261 . S
C149 O144 1.259 . S
C149 O146 1.235 . S
O150 Co140 2.021 . S
O150 C147 1.238 . S
O151 Co145 2.052 . S
O151 C147 1.241 . S
O152 Co140 2.137 . S
O152 C143 1.247 . S
O153 Co140 2.244 . S
O153 C143 1.272 . S
O153 Co145 2.135 . S
Co154 O155 2.216 . S
Co154 O156 2.091 . S
Co154 O158 2.004 . S
Co154 O164 2.021 . S
Co154 O166 2.137 . S
Co154 O167 2.244 . S
O155 Co154 2.216 . S
O155 C162 1.247 . S
O156 Co154 2.091 . S
O156 C162 1.261 . S
C157 O166 1.247 . S
C157 O167 1.272 . S
O158 Co154 2.004 . S
O158 C163 1.259 . S
Co159 O160 2.061 . S
Co159 O165 2.052 . S
Co159 O167 2.135 . S
O160 Co159 2.061 . S
O160 C163 1.235 . S
C161 O164 1.238 . S
C161 O165 1.241 . S
C162 O155 1.247 . S
C162 O156 1.261 . S
C163 O158 1.259 . S
C163 O160 1.235 . S
O164 Co154 2.021 . S
O164 C161 1.238 . S
O165 Co159 2.052 . S
O165 C161 1.241 . S
O166 Co154 2.137 . S
O166 C157 1.247 . S
O167 Co154 2.244 . S
O167 C157 1.272 . S
O167 Co159 2.135 . S
Co168 O169 2.216 . S
Co168 O170 2.091 . S
Co168 O172 2.004 . S
Co168 O178 2.021 . S
Co168 O180 2.137 . S
Co168 O181 2.244 . S
O169 Co168 2.216 . S
O169 C176 1.247 . S
O170 Co168 2.091 . S
O170 C176 1.261 . S
C171 O180 1.247 . S
C171 O181 1.272 . S
O172 Co168 2.004 . S
O172 C177 1.259 . S
Co173 O174 2.061 . S
Co173 O179 2.052 . S
Co173 O181 2.135 . S
O174 Co173 2.061 . S
O174 C177 1.235 . S
C175 O178 1.238 . S
C175 O179 1.241 . S
C176 O169 1.247 . S
C176 O170 1.261 . S
C177 O172 1.259 . S
C177 O174 1.235 . S
O178 Co168 2.021 . S
O178 C175 1.238 . S
O179 Co173 2.052 . S
O179 C175 1.241 . S
O180 Co168 2.137 . S
O180 C171 1.247 . S
O181 Co168 2.244 . S
O181 C171 1.272 . S
O181 Co173 2.135 . S
Co182 O183 2.216 . S
Co182 O184 2.091 . S
Co182 O186 2.004 . S
Co182 O192 2.021 . S
Co182 O194 2.137 . S
Co182 O195 2.244 . S
O183 Co182 2.216 . S
O183 C190 1.247 . S
O184 Co182 2.091 . S
O184 C190 1.261 . S
C185 O194 1.247 . S
C185 O195 1.272 . S
O186 Co182 2.004 . S
O186 C191 1.259 . S
Co187 O188 2.061 . S
Co187 O193 2.052 . S
Co187 O195 2.135 . S
O188 Co187 2.061 . S
O188 C191 1.235 . S
C189 O192 1.238 . S
C189 O193 1.241 . S
C190 O183 1.247 . S
C190 O184 1.261 . S
C191 O186 1.259 . S
C191 O188 1.235 . S
O192 Co182 2.021 . S
O192 C189 1.238 . S
O193 Co187 2.052 . S
O193 C189 1.241 . S
O194 Co182 2.137 . S
O194 C185 1.247 . S
O195 Co182 2.244 . S
O195 C185 1.272 . S
O195 Co187 2.135 . S
Co196 O197 2.216 . S
Co196 O198 2.091 . S
Co196 O200 2.004 . S
Co196 O206 2.021 . S
Co196 O208 2.137 . S
Co196 O209 2.244 . S
O197 Co196 2.216 . S
O197 C204 1.247 . S
O198 Co196 2.091 . S
O198 C204 1.261 . S
C199 O208 1.247 . S
C199 O209 1.272 . S
O200 Co196 2.004 . S
O200 C205 1.259 . S
Co201 O202 2.061 . S
Co201 O207 2.052 . S
Co201 O209 2.135 . S
O202 Co201 2.061 . S
O202 C205 1.235 . S
C203 O206 1.238 . S
C203 O207 1.241 . S
C204 O197 1.247 . S
C204 O198 1.261 . S
C205 O200 1.259 . S
C205 O202 1.235 . S
O206 Co196 2.021 . S
O206 C203 1.238 . S
O207 Co201 2.052 . S
O207 C203 1.241 . S
O208 Co196 2.137 . S
O208 C199 1.247 . S
O209 Co196 2.244 . S
O209 C199 1.272 . S
O209 Co201 2.135 . S
Co210 O211 2.216 . S
Co210 O212 2.091 . S
Co210 O214 2.004 . S
Co210 O220 2.021 . S
Co210 O222 2.137 . S
Co210 O223 2.244 . S
O211 Co210 2.216 . S
O211 C218 1.247 . S
O212 Co210 2.091 . S
O212 C218 1.261 . S
C213 O222 1.247 . S
C213 O223 1.272 . S
O214 Co210 2.004 . S
O214 C219 1.259 . S
Co215 O216 2.061 . S
Co215 O221 2.052 . S
Co215 O223 2.135 . S
O216 Co215 2.061 . S
O216 C219 1.235 . S
C217 O220 1.238 . S
C217 O221 1.241 . S
C218 O211 1.247 . S
C218 O212 1.261 . S
C219 O214 1.259 . S
C219 O216 1.235 . S
O220 Co210 2.021 . S
O220 C217 1.238 . S
O221 Co215 2.052 . S
O221 C217 1.241 . S
O222 Co210 2.137 . S
O222 C213 1.247 . S
O223 Co210 2.244 . S
O223 C213 1.272 . S
O223 Co215 2.135 . S
Co224 O225 2.216 . S
Co224 O226 2.091 . S
Co224 O228 2.004 . S
Co224 O234 2.021 . S
Co224 O236 2.137 . S
Co224 O237 2.244 . S
O225 Co224 2.216 . S
O225 C232 1.247 . S
O226 Co224 2.091 . S
O226 C232 1.261 . S
C227 O236 1.247 . S
C227 O237 1.272 . S
O228 Co224 2.004 . S
O228 C233 1.259 . S
Co229 O230 2.061 . S
Co229 O235 2.052 . S
Co229 O237 2.135 . S
O230 Co229 2.061 . S
O230 C233 1.235 . S
C231 O234 1.238 . S
C231 O235 1.241 . S
C232 O225 1.247 . S
C232 O226 1.261 . S
C233 O228 1.259 . S
C233 O230 1.235 . S
O234 Co224 2.021 . S
O234 C231 1.238 . S
O235 Co229 2.052 . S
O235 C231 1.241 . S
O236 Co224 2.137 . S
O236 C227 1.247 . S
O237 Co224 2.244 . S
O237 C227 1.272 . S
O237 Co229 2.135 . S
Co238 O239 2.216 . S
Co238 O240 2.091 . S
Co238 O242 2.004 . S
Co238 O248 2.021 . S
Co238 O250 2.137 . S
Co238 O251 2.244 . S
O239 Co238 2.216 . S
O239 C246 1.247 . S
O240 Co238 2.091 . S
O240 C246 1.261 . S
C241 O250 1.247 . S
C241 O251 1.272 . S
O242 Co238 2.004 . S
O242 C247 1.259 . S
Co243 O244 2.061 . S
Co243 O249 2.052 . S
Co243 O251 2.135 . S
O244 Co243 2.061 . S
O244 C247 1.235 . S
C245 O248 1.238 . S
C245 O249 1.241 . S
C246 O239 1.247 . S
C246 O240 1.261 . S
C247 O242 1.259 . S
C247 O244 1.235 . S
O248 Co238 2.021 . S
O248 C245 1.238 . S
O249 Co243 2.052 . S
O249 C245 1.241 . S
O250 Co238 2.137 . S
O250 C241 1.247 . S
O251 Co238 2.244 . S
O251 C241 1.272 . S
O251 Co243 2.135 . S
Co252 O253 2.216 . S
Co252 O254 2.091 . S
Co252 O256 2.004 . S
Co252 O262 2.021 . S
Co252 O264 2.137 . S
Co252 O265 2.244 . S
O253 Co252 2.216 . S
O253 C260 1.247 . S
O254 Co252 2.091 . S
O254 C260 1.261 . S
C255 O264 1.247 . S
C255 O265 1.272 . S
O256 Co252 2.004 . S
O256 C261 1.259 . S
Co257 O258 2.061 . S
Co257 O263 2.052 . S
Co257 O265 2.135 . S
O258 Co257 2.061 . S
O258 C261 1.235 . S
C259 O262 1.238 . S
C259 O263 1.241 . S
C260 O253 1.247 . S
C260 O254 1.261 . S
C261 O256 1.259 . S
C261 O258 1.235 . S
O262 Co252 2.021 . S
O262 C259 1.238 . S
O263 Co257 2.052 . S
O263 C259 1.241 . S
O264 Co252 2.137 . S
O264 C255 1.247 . S
O265 Co252 2.244 . S
O265 C255 1.272 . S
O265 Co257 2.135 . S
Co266 O267 2.216 . S
Co266 O268 2.091 . S
Co266 O270 2.004 . S
Co266 O276 2.021 . S
Co266 O278 2.137 . S
Co266 O279 2.244 . S
O267 Co266 2.216 . S
O267 C274 1.247 . S
O268 Co266 2.091 . S
O268 C274 1.261 . S
C269 O278 1.247 . S
C269 O279 1.272 . S
O270 Co266 2.004 . S
O270 C275 1.259 . S
Co271 O272 2.061 . S
Co271 O277 2.052 . S
Co271 O279 2.135 . S
O272 Co271 2.061 . S
O272 C275 1.235 . S
C273 O276 1.238 . S
C273 O277 1.241 . S
C274 O267 1.247 . S
C274 O268 1.261 . S
C275 O270 1.259 . S
C275 O272 1.235 . S
O276 Co266 2.021 . S
O276 C273 1.238 . S
O277 Co271 2.052 . S
O277 C273 1.241 . S
O278 Co266 2.137 . S
O278 C269 1.247 . S
O279 Co266 2.244 . S
O279 C269 1.272 . S
O279 Co271 2.135 . S
Co280 O281 2.216 . S
Co280 O282 2.091 . S
Co280 O284 2.004 . S
Co280 O290 2.021 . S
Co280 O292 2.137 . S
Co280 O293 2.244 . S
O281 Co280 2.216 . S
O281 C288 1.247 . S
O282 Co280 2.091 . S
O282 C288 1.261 . S
C283 O292 1.247 . S
C283 O293 1.272 . S
O284 Co280 2.004 . S
O284 C289 1.259 . S
Co285 O286 2.061 . S
Co285 O291 2.052 . S
Co285 O293 2.135 . S
O286 Co285 2.061 . S
O286 C289 1.235 . S
C287 O290 1.238 . S
C287 O291 1.241 . S
C288 O281 1.247 . S
C288 O282 1.261 . S
C289 O284 1.259 . S
C289 O286 1.235 . S
O290 Co280 2.021 . S
O290 C287 1.238 . S
O291 Co285 2.052 . S
O291 C287 1.241 . S
O292 Co280 2.137 . S
O292 C283 1.247 . S
O293 Co280 2.244 . S
O293 C283 1.272 . S
O293 Co285 2.135 . S
Co294 O295 2.216 . S
Co294 O296 2.091 . S
Co294 O298 2.004 . S
Co294 O304 2.021 . S
Co294 O306 2.137 . S
Co294 O307 2.244 . S
O295 Co294 2.216 . S
O295 C302 1.247 . S
O296 Co294 2.091 . S
O296 C302 1.261 . S
C297 O306 1.247 . S
C297 O307 1.272 . S
O298 Co294 2.004 . S
O298 C303 1.259 . S
Co299 O300 2.061 . S
Co299 O305 2.052 . S
Co299 O307 2.135 . S
O300 Co299 2.061 . S
O300 C303 1.235 . S
C301 O304 1.238 . S
C301 O305 1.241 . S
C302 O295 1.247 . S
C302 O296 1.261 . S
C303 O298 1.259 . S
C303 O300 1.235 . S
O304 Co294 2.021 . S
O304 C301 1.238 . S
O305 Co299 2.052 . S
O305 C301 1.241 . S
O306 Co294 2.137 . S
O306 C297 1.247 . S
O307 Co294 2.244 . S
O307 C297 1.272 . S
O307 Co299 2.135 . S
Co308 O309 2.216 . S
Co308 O310 2.091 . S
Co308 O312 2.004 . S
Co308 O318 2.021 . S
Co308 O320 2.137 . S
Co308 O321 2.244 . S
O309 Co308 2.216 . S
O309 C316 1.247 . S
O310 Co308 2.091 . S
O310 C316 1.261 . S
C311 O320 1.247 . S
C311 O321 1.272 . S
O312 Co308 2.004 . S
O312 C317 1.259 . S
Co313 O314 2.061 . S
Co313 O319 2.052 . S
Co313 O321 2.135 . S
O314 Co313 2.061 . S
O314 C317 1.235 . S
C315 O318 1.238 . S
C315 O319 1.241 . S
C316 O309 1.247 . S
C316 O310 1.261 . S
C317 O312 1.259 . S
C317 O314 1.235 . S
O318 Co308 2.021 . S
O318 C315 1.238 . S
O319 Co313 2.052 . S
O319 C315 1.241 . S
O320 Co308 2.137 . S
O320 C311 1.247 . S
O321 Co308 2.244 . S
O321 C311 1.272 . S
O321 Co313 2.135 . S
Co322 O323 2.216 . S
Co322 O324 2.091 . S
Co322 O326 2.004 . S
Co322 O332 2.021 . S
Co322 O334 2.137 . S
Co322 O335 2.244 . S
O323 Co322 2.216 . S
O323 C330 1.247 . S
O324 Co322 2.091 . S
O324 C330 1.261 . S
C325 O334 1.247 . S
C325 O335 1.272 . S
O326 Co322 2.004 . S
O326 C331 1.259 . S
Co327 O328 2.061 . S
Co327 O333 2.052 . S
Co327 O335 2.135 . S
O328 Co327 2.061 . S
O328 C331 1.235 . S
C329 O332 1.238 . S
C329 O333 1.241 . S
C330 O323 1.247 . S
C330 O324 1.261 . S
C331 O326 1.259 . S
C331 O328 1.235 . S
O332 Co322 2.021 . S
O332 C329 1.238 . S
O333 Co327 2.052 . S
O333 C329 1.241 . S
O334 Co322 2.137 . S
O334 C325 1.247 . S
O335 Co322 2.244 . S
O335 C325 1.272 . S
O335 Co327 2.135 . S
H336 C342 0.930 . S
H337 C345 0.930 . S
H338 C346 0.930 . S
H339 C347 0.930 . S
H340 C350 0.930 . S
H341 C351 0.930 . S
C342 H336 0.930 . S
C342 C343 1.355 . S
C342 C344 1.415 . S
C343 C342 1.355 . S
C343 C345 1.419 . S
C344 C342 1.415 . S
C344 C349 1.425 . S
C344 C351 1.409 . S
C345 H337 0.930 . S
C345 C343 1.419 . S
C345 C346 1.362 . S
C346 H338 0.930 . S
C346 C345 1.362 . S
C346 C349 1.409 . S
C347 H339 0.930 . S
C347 C348 1.355 . S
C347 C349 1.415 . S
C348 C347 1.355 . S
C348 C350 1.419 . S
C349 C344 1.425 . S
C349 C346 1.409 . S
C349 C347 1.415 . S
C350 H340 0.930 . S
C350 C348 1.419 . S
C350 C351 1.362 . S
C351 H341 0.930 . S
C351 C344 1.409 . S
C351 C350 1.362 . S
H352 C358 0.930 . S
H353 C361 0.930 . S
H354 C362 0.930 . S
H355 C363 0.930 . S
H356 C366 0.930 . S
H357 C367 0.930 . S
C358 H352 0.930 . S
C358 C359 1.355 . S
C358 C360 1.415 . S
C359 C358 1.355 . S
C359 C361 1.419 . S
C360 C358 1.415 . S
C360 C365 1.425 . S
C360 C367 1.409 . S
C361 H353 0.930 . S
C361 C359 1.419 . S
C361 C362 1.362 . S
C362 H354 0.930 . S
C362 C361 1.362 . S
C362 C365 1.409 . S
C363 H355 0.930 . S
C363 C364 1.355 . S
C363 C365 1.415 . S
C364 C363 1.355 . S
C364 C366 1.419 . S
C365 C360 1.425 . S
C365 C362 1.409 . S
C365 C363 1.415 . S
C366 H356 0.930 . S
C366 C364 1.419 . S
C366 C367 1.362 . S
C367 H357 0.930 . S
C367 C360 1.409 . S
C367 C366 1.362 . S
H368 C374 0.930 . S
H369 C377 0.930 . S
H370 C378 0.930 . S
H371 C379 0.930 . S
H372 C382 0.930 . S
H373 C383 0.930 . S
C374 H368 0.930 . S
C374 C375 1.355 . S
C374 C376 1.415 . S
C375 C374 1.355 . S
C375 C377 1.419 . S
C376 C374 1.415 . S
C376 C381 1.425 . S
C376 C383 1.409 . S
C377 H369 0.930 . S
C377 C375 1.419 . S
C377 C378 1.362 . S
C378 H370 0.930 . S
C378 C377 1.362 . S
C378 C381 1.409 . S
C379 H371 0.930 . S
C379 C380 1.355 . S
C379 C381 1.415 . S
C380 C379 1.355 . S
C380 C382 1.419 . S
C381 C376 1.425 . S
C381 C378 1.409 . S
C381 C379 1.415 . S
C382 H372 0.930 . S
C382 C380 1.419 . S
C382 C383 1.362 . S
C383 H373 0.930 . S
C383 C376 1.409 . S
C383 C382 1.362 . S
H384 C390 0.930 . S
H385 C393 0.930 . S
H386 C394 0.930 . S
H387 C395 0.930 . S
H388 C398 0.930 . S
H389 C399 0.930 . S
C390 H384 0.930 . S
C390 C391 1.355 . S
C390 C392 1.415 . S
C391 C390 1.355 . S
C391 C393 1.419 . S
C392 C390 1.415 . S
C392 C397 1.425 . S
C392 C399 1.409 . S
C393 H385 0.930 . S
C393 C391 1.419 . S
C393 C394 1.362 . S
C394 H386 0.930 . S
C394 C393 1.362 . S
C394 C397 1.409 . S
C395 H387 0.930 . S
C395 C396 1.355 . S
C395 C397 1.415 . S
C396 C395 1.355 . S
C396 C398 1.419 . S
C397 C392 1.425 . S
C397 C394 1.409 . S
C397 C395 1.415 . S
C398 H388 0.930 . S
C398 C396 1.419 . S
C398 C399 1.362 . S
C399 H389 0.930 . S
C399 C392 1.409 . S
C399 C398 1.362 . S
H400 C406 0.930 . S
H401 C409 0.930 . S
H402 C410 0.930 . S
H403 C411 0.930 . S
H404 C414 0.930 . S
H405 C415 0.930 . S
C406 H400 0.930 . S
C406 C407 1.355 . S
C406 C408 1.415 . S
C407 C406 1.355 . S
C407 C409 1.419 . S
C408 C406 1.415 . S
C408 C413 1.425 . S
C408 C415 1.409 . S
C409 H401 0.930 . S
C409 C407 1.419 . S
C409 C410 1.362 . S
C410 H402 0.930 . S
C410 C409 1.362 . S
C410 C413 1.409 . S
C411 H403 0.930 . S
C411 C412 1.355 . S
C411 C413 1.415 . S
C412 C411 1.355 . S
C412 C414 1.419 . S
C413 C408 1.425 . S
C413 C410 1.409 . S
C413 C411 1.415 . S
C414 H404 0.930 . S
C414 C412 1.419 . S
C414 C415 1.362 . S
C415 H405 0.930 . S
C415 C408 1.409 . S
C415 C414 1.362 . S
H416 C422 0.930 . S
H417 C425 0.930 . S
H418 C426 0.930 . S
H419 C427 0.930 . S
H420 C430 0.930 . S
H421 C431 0.930 . S
C422 H416 0.930 . S
C422 C423 1.355 . S
C422 C424 1.415 . S
C423 C422 1.355 . S
C423 C425 1.419 . S
C424 C422 1.415 . S
C424 C429 1.425 . S
C424 C431 1.409 . S
C425 H417 0.930 . S
C425 C423 1.419 . S
C425 C426 1.362 . S
C426 H418 0.930 . S
C426 C425 1.362 . S
C426 C429 1.409 . S
C427 H419 0.930 . S
C427 C428 1.355 . S
C427 C429 1.415 . S
C428 C427 1.355 . S
C428 C430 1.419 . S
C429 C424 1.425 . S
C429 C426 1.409 . S
C429 C427 1.415 . S
C430 H420 0.930 . S
C430 C428 1.419 . S
C430 C431 1.362 . S
C431 H421 0.930 . S
C431 C424 1.409 . S
C431 C430 1.362 . S
H432 C438 0.930 . S
H433 C441 0.930 . S
H434 C442 0.930 . S
H435 C443 0.930 . S
H436 C446 0.930 . S
H437 C447 0.930 . S
C438 H432 0.930 . S
C438 C439 1.355 . S
C438 C440 1.415 . S
C439 C438 1.355 . S
C439 C441 1.419 . S
C440 C438 1.415 . S
C440 C445 1.425 . S
C440 C447 1.409 . S
C441 H433 0.930 . S
C441 C439 1.419 . S
C441 C442 1.362 . S
C442 H434 0.930 . S
C442 C441 1.362 . S
C442 C445 1.409 . S
C443 H435 0.930 . S
C443 C444 1.355 . S
C443 C445 1.415 . S
C444 C443 1.355 . S
C444 C446 1.419 . S
C445 C440 1.425 . S
C445 C442 1.409 . S
C445 C443 1.415 . S
C446 H436 0.930 . S
C446 C444 1.419 . S
C446 C447 1.362 . S
C447 H437 0.930 . S
C447 C440 1.409 . S
C447 C446 1.362 . S
H448 C454 0.930 . S
H449 C457 0.930 . S
H450 C458 0.930 . S
H451 C459 0.930 . S
H452 C462 0.930 . S
H453 C463 0.930 . S
C454 H448 0.930 . S
C454 C455 1.355 . S
C454 C456 1.415 . S
C455 C454 1.355 . S
C455 C457 1.419 . S
C456 C454 1.415 . S
C456 C461 1.425 . S
C456 C463 1.409 . S
C457 H449 0.930 . S
C457 C455 1.419 . S
C457 C458 1.362 . S
C458 H450 0.930 . S
C458 C457 1.362 . S
C458 C461 1.409 . S
C459 H451 0.930 . S
C459 C460 1.355 . S
C459 C461 1.415 . S
C460 C459 1.355 . S
C460 C462 1.419 . S
C461 C456 1.425 . S
C461 C458 1.409 . S
C461 C459 1.415 . S
C462 H452 0.930 . S
C462 C460 1.419 . S
C462 C463 1.362 . S
C463 H453 0.930 . S
C463 C456 1.409 . S
C463 C462 1.362 . S
H464 C470 0.930 . S
H465 C473 0.930 . S
H466 C474 0.930 . S
H467 C475 0.930 . S
H468 C478 0.930 . S
H469 C479 0.930 . S
C470 H464 0.930 . S
C470 C471 1.355 . S
C470 C472 1.415 . S
C471 C470 1.355 . S
C471 C473 1.419 . S
C472 C470 1.415 . S
C472 C477 1.425 . S
C472 C479 1.409 . S
C473 H465 0.930 . S
C473 C471 1.419 . S
C473 C474 1.362 . S
C474 H466 0.930 . S
C474 C473 1.362 . S
C474 C477 1.409 . S
C475 H467 0.930 . S
C475 C476 1.355 . S
C475 C477 1.415 . S
C476 C475 1.355 . S
C476 C478 1.419 . S
C477 C472 1.425 . S
C477 C474 1.409 . S
C477 C475 1.415 . S
C478 H468 0.930 . S
C478 C476 1.419 . S
C478 C479 1.362 . S
C479 H469 0.930 . S
C479 C472 1.409 . S
C479 C478 1.362 . S
H480 C486 0.930 . S
H481 C489 0.930 . S
H482 C490 0.930 . S
H483 C491 0.930 . S
H484 C494 0.930 . S
H485 C495 0.930 . S
C486 H480 0.930 . S
C486 C487 1.355 . S
C486 C488 1.415 . S
C487 C486 1.355 . S
C487 C489 1.419 . S
C488 C486 1.415 . S
C488 C493 1.425 . S
C488 C495 1.409 . S
C489 H481 0.930 . S
C489 C487 1.419 . S
C489 C490 1.362 . S
C490 H482 0.930 . S
C490 C489 1.362 . S
C490 C493 1.409 . S
C491 H483 0.930 . S
C491 C492 1.355 . S
C491 C493 1.415 . S
C492 C491 1.355 . S
C492 C494 1.419 . S
C493 C488 1.425 . S
C493 C490 1.409 . S
C493 C491 1.415 . S
C494 H484 0.930 . S
C494 C492 1.419 . S
C494 C495 1.362 . S
C495 H485 0.930 . S
C495 C488 1.409 . S
C495 C494 1.362 . S
H496 C502 0.930 . S
H497 C505 0.930 . S
H498 C506 0.930 . S
H499 C507 0.930 . S
H500 C510 0.930 . S
H501 C511 0.930 . S
C502 H496 0.930 . S
C502 C503 1.355 . S
C502 C504 1.415 . S
C503 C502 1.355 . S
C503 C505 1.419 . S
C504 C502 1.415 . S
C504 C509 1.425 . S
C504 C511 1.409 . S
C505 H497 0.930 . S
C505 C503 1.419 . S
C505 C506 1.362 . S
C506 H498 0.930 . S
C506 C505 1.362 . S
C506 C509 1.409 . S
C507 H499 0.930 . S
C507 C508 1.355 . S
C507 C509 1.415 . S
C508 C507 1.355 . S
C508 C510 1.419 . S
C509 C504 1.425 . S
C509 C506 1.409 . S
C509 C507 1.415 . S
C510 H500 0.930 . S
C510 C508 1.419 . S
C510 C511 1.362 . S
C511 H501 0.930 . S
C511 C504 1.409 . S
C511 C510 1.362 . S
H512 C518 0.930 . S
H513 C521 0.930 . S
H514 C522 0.930 . S
H515 C523 0.930 . S
H516 C526 0.930 . S
H517 C527 0.930 . S
C518 H512 0.930 . S
C518 C519 1.355 . S
C518 C520 1.415 . S
C519 C518 1.355 . S
C519 C521 1.419 . S
C520 C518 1.415 . S
C520 C525 1.425 . S
C520 C527 1.409 . S
C521 H513 0.930 . S
C521 C519 1.419 . S
C521 C522 1.362 . S
C522 H514 0.930 . S
C522 C521 1.362 . S
C522 C525 1.409 . S
C523 H515 0.930 . S
C523 C524 1.355 . S
C523 C525 1.415 . S
C524 C523 1.355 . S
C524 C526 1.419 . S
C525 C520 1.425 . S
C525 C522 1.409 . S
C525 C523 1.415 . S
C526 H516 0.930 . S
C526 C524 1.419 . S
C526 C527 1.362 . S
C527 H517 0.930 . S
C527 C520 1.409 . S
C527 C526 1.362 . S
H528 C534 0.930 . S
H529 C537 0.930 . S
H530 C538 0.930 . S
H531 C539 0.930 . S
H532 C542 0.930 . S
H533 C543 0.930 1_565 S
C534 H528 0.930 . S
C534 C535 1.349 1_565 S
C534 C536 1.415 1_565 S
C535 C534 1.349 1_545 S
C535 C537 1.439 . S
C536 C534 1.415 1_545 S
C536 C541 1.425 . S
C536 C543 1.409 . S
C537 H529 0.930 . S
C537 C535 1.439 . S
C537 C538 1.362 . S
C538 H530 0.930 . S
C538 C537 1.362 . S
C538 C541 1.409 . S
C539 H531 0.930 . S
C539 C540 1.355 . S
C539 C541 1.415 . S
C540 C539 1.355 . S
C540 C542 1.419 . S
C541 C536 1.425 . S
C541 C538 1.409 . S
C541 C539 1.415 . S
C542 H532 0.930 . S
C542 C540 1.419 . S
C542 C543 1.362 . S
C543 H533 0.930 1_545 S
C543 C536 1.409 . S
C543 C542 1.362 . S
H544 C550 0.930 . S
H545 C553 0.930 . S
H546 C554 0.930 . S
H547 C555 0.930 . S
H548 C558 0.930 . S
H549 C559 0.930 1_655 S
C550 H544 0.930 . S
C550 C551 1.355 . S
C550 C552 1.415 1_655 S
C551 C550 1.355 . S
C551 C553 1.419 1_655 S
C552 C550 1.415 1_455 S
C552 C557 1.425 . S
C552 C559 1.409 . S
C553 H545 0.930 . S
C553 C551 1.419 1_455 S
C553 C554 1.362 . S
C554 H546 0.930 . S
C554 C553 1.362 . S
C554 C557 1.409 . S
C555 H547 0.930 . S
C555 C556 1.355 . S
C555 C557 1.415 . S
C556 C555 1.355 . S
C556 C558 1.419 . S
C557 C552 1.425 . S
C557 C554 1.409 . S
C557 C555 1.415 . S
C558 H548 0.930 . S
C558 C556 1.419 . S
C558 C559 1.362 . S
C559 H549 0.930 1_455 S
C559 C552 1.409 . S
C559 C558 1.362 . S
H560 C566 0.927 1_545 S
H561 C569 0.930 . S
H562 C570 0.930 . S
H563 C571 0.930 . S
H564 C574 0.930 . S
H565 C575 0.930 . S
C566 H560 0.927 1_565 S
C566 C567 1.354 1_565 S
C566 C568 1.417 . S
C567 C566 1.354 1_545 S
C567 C569 1.419 1_545 S
C568 C566 1.417 . S
C568 C573 1.425 . S
C568 C575 1.409 . S
C569 H561 0.930 . S
C569 C567 1.419 1_565 S
C569 C570 1.362 . S
C570 H562 0.930 . S
C570 C569 1.362 . S
C570 C573 1.409 . S
C571 H563 0.930 . S
C571 C572 1.355 . S
C571 C573 1.415 . S
C572 C571 1.355 . S
C572 C574 1.419 . S
C573 C568 1.425 . S
C573 C570 1.409 . S
C573 C571 1.415 . S
C574 H564 0.930 . S
C574 C572 1.419 . S
C574 C575 1.362 . S
C575 H565 0.930 . S
C575 C568 1.409 . S
C575 C574 1.362 . S
H576 C582 0.930 . S
H577 C585 0.930 . S
H578 C586 0.930 . S
H579 C587 0.930 . S
H580 C590 0.930 . S
H581 C591 0.930 . S
C582 H576 0.930 . S
C582 C583 1.355 1_655 S
C582 C584 1.415 . S
C583 C582 1.355 1_455 S
C583 C585 1.419 . S
C584 C582 1.415 . S
C584 C589 1.425 . S
C584 C591 1.409 . S
C585 H577 0.930 . S
C585 C583 1.419 . S
C585 C586 1.362 . S
C586 H578 0.930 . S
C586 C585 1.362 . S
C586 C589 1.409 1_455 S
C587 H579 0.930 . S
C587 C588 1.355 . S
C587 C589 1.415 . S
C588 C587 1.355 . S
C588 C590 1.419 . S
C589 C584 1.425 . S
C589 C586 1.409 1_655 S
C589 C587 1.415 . S
C590 H580 0.930 . S
C590 C588 1.419 . S
C590 C591 1.362 . S
C591 H581 0.930 . S
C591 C584 1.409 . S
C591 C590 1.362 . S
H592 C598 0.930 . S
H593 C601 0.930 . S
H594 C602 0.930 . S
H595 C603 0.930 . S
H596 C606 0.930 . S
H597 C607 0.930 . S
C598 H592 0.930 . S
C598 C599 1.355 . S
C598 C600 1.415 . S
C599 C598 1.355 . S
C599 C601 1.419 . S
C600 C598 1.415 . S
C600 C605 1.425 . S
C600 C607 1.409 . S
C601 H593 0.930 . S
C601 C599 1.419 . S
C601 C602 1.362 . S
C602 H594 0.930 . S
C602 C601 1.362 . S
C602 C605 1.409 . S
C603 H595 0.930 . S
C603 C604 1.355 . S
C603 C605 1.415 1_545 S
C604 C603 1.355 . S
C604 C606 1.419 1_545 S
C605 C600 1.425 . S
C605 C602 1.409 . S
C605 C603 1.415 1_565 S
C606 H596 0.930 . S
C606 C604 1.419 1_565 S
C606 C607 1.362 . S
C607 H597 0.930 . S
C607 C600 1.409 . S
C607 C606 1.362 . S
H608 C614 0.930 . S
H609 C617 0.930 . S
H610 C618 0.930 . S
H611 C619 0.930 . S
H612 C622 0.930 . S
H613 C623 0.930 . S
C614 H608 0.930 . S
C614 C615 1.355 . S
C614 C616 1.415 . S
C615 C614 1.355 . S
C615 C617 1.419 . S
C616 C614 1.415 . S
C616 C621 1.425 . S
C616 C623 1.409 1_655 S
C617 H609 0.930 . S
C617 C615 1.419 . S
C617 C618 1.362 . S
C618 H610 0.930 . S
C618 C617 1.362 . S
C618 C621 1.409 . S
C619 H611 0.930 . S
C619 C620 1.355 1_655 S
C619 C621 1.415 . S
C620 C619 1.355 1_455 S
C620 C622 1.419 . S
C621 C616 1.425 . S
C621 C618 1.409 . S
C621 C619 1.415 . S
C622 H612 0.930 . S
C622 C620 1.419 . S
C622 C623 1.362 . S
C623 H613 0.930 . S
C623 C616 1.409 1_455 S
C623 C622 1.362 . S
H624 C630 0.930 . S
H625 C633 0.930 . S
H626 C634 0.930 . S
H627 C635 0.930 . S
H628 C638 0.930 . S
H629 C639 0.930 . S
C630 H624 0.930 . S
C630 C631 1.355 1_545 S
C630 C632 1.415 . S
C631 C630 1.355 1_565 S
C631 C633 1.419 . S
C632 C630 1.415 . S
C632 C637 1.425 . S
C632 C639 1.409 . S
C633 H625 0.930 . S
C633 C631 1.419 . S
C633 C634 1.362 . S
C634 H626 0.930 . S
C634 C633 1.362 . S
C634 C637 1.409 1_565 S
C635 H627 0.930 . S
C635 C636 1.355 . S
C635 C637 1.415 . S
C636 C635 1.355 . S
C636 C638 1.419 . S
C637 C632 1.425 . S
C637 C634 1.409 1_545 S
C637 C635 1.415 . S
C638 H628 0.930 . S
C638 C636 1.419 . S
C638 C639 1.362 . S
C639 H629 0.930 . S
C639 C632 1.409 . S
C639 C638 1.362 . S
H640 C646 0.930 . S
H641 C649 0.930 . S
H642 C650 0.930 . S
H643 C651 0.930 . S
H644 C654 0.930 . S
H645 C655 0.930 . S
C646 H640 0.930 . S
C646 C647 1.355 . S
C646 C648 1.415 . S
C647 C646 1.355 . S
C647 C649 1.419 . S
C648 C646 1.415 . S
C648 C653 1.425 . S
C648 C655 1.409 1_455 S
C649 H641 0.930 . S
C649 C647 1.419 . S
C649 C650 1.362 . S
C650 H642 0.930 . S
C650 C649 1.362 . S
C650 C653 1.409 . S
C651 H643 0.930 . S
C651 C652 1.355 1_455 S
C651 C653 1.415 . S
C652 C651 1.355 1_655 S
C652 C654 1.419 . S
C653 C648 1.425 . S
C653 C650 1.409 . S
C653 C651 1.415 . S
C654 H644 0.930 . S
C654 C652 1.419 . S
C654 C655 1.362 . S
C655 H645 0.930 . S
C655 C648 1.409 1_655 S
C655 C654 1.362 . S
H656 C662 0.930 . S
H657 C665 0.922 1_556 S
H658 C666 0.930 . S
H659 C667 0.930 . S
H660 C670 0.930 . S
H661 C671 0.930 . S
C662 H656 0.930 . S
C662 C663 1.355 . S
C662 C664 1.415 1_556 S
C663 C662 1.355 . S
C663 C665 1.410 1_556 S
C664 C662 1.415 1_554 S
C664 C669 1.425 . S
C664 C671 1.409 . S
C665 H657 0.922 1_554 S
C665 C663 1.410 1_554 S
C665 C666 1.379 . S
C666 H658 0.930 . S
C666 C665 1.379 . S
C666 C669 1.409 . S
C667 H659 0.930 . S
C667 C668 1.355 . S
C667 C669 1.415 . S
C668 C667 1.355 . S
C668 C670 1.419 . S
C669 C664 1.425 . S
C669 C666 1.409 . S
C669 C667 1.415 . S
C670 H660 0.930 . S
C670 C668 1.419 . S
C670 C671 1.362 . S
C671 H661 0.930 . S
C671 C664 1.409 . S
C671 C670 1.362 . S
H672 C678 0.930 . S
H673 C681 0.930 . S
H674 C682 0.931 . S
H675 C683 0.930 . S
H676 C686 0.930 . S
H677 C687 0.930 . S
C678 H672 0.930 . S
C678 C679 1.355 1_556 S
C678 C680 1.415 . S
C679 C678 1.355 1_554 S
C679 C681 1.419 . S
C680 C678 1.415 . S
C680 C685 1.425 . S
C680 C687 1.409 . S
C681 H673 0.930 . S
C681 C679 1.419 . S
C681 C682 1.363 . S
C682 H674 0.931 . S
C682 C681 1.363 . S
C682 C685 1.408 1_554 S
C683 H675 0.930 . S
C683 C684 1.355 . S
C683 C685 1.415 . S
C684 C683 1.355 . S
C684 C686 1.419 . S
C685 C680 1.425 . S
C685 C682 1.408 1_556 S
C685 C683 1.415 . S
C686 H676 0.930 . S
C686 C684 1.419 . S
C686 C687 1.362 . S
C687 H677 0.930 . S
C687 C680 1.409 . S
C687 C686 1.362 . S
H688 C694 0.930 . S
H689 C697 0.930 . S
H690 C698 0.930 . S
H691 C699 0.930 . S
H692 C702 0.930 . S
H693 C703 0.930 . S
C694 H688 0.930 . S
C694 C695 1.355 1_554 S
C694 C696 1.415 . S
C695 C694 1.355 1_556 S
C695 C697 1.419 . S
C696 C694 1.415 . S
C696 C701 1.425 . S
C696 C703 1.409 . S
C697 H689 0.930 . S
C697 C695 1.419 . S
C697 C698 1.362 . S
C698 H690 0.930 . S
C698 C697 1.362 . S
C698 C701 1.409 1_556 S
C699 H691 0.930 . S
C699 C700 1.355 . S
C699 C701 1.415 . S
C700 C699 1.355 . S
C700 C702 1.419 . S
C701 C696 1.425 . S
C701 C698 1.409 1_554 S
C701 C699 1.415 . S
C702 H692 0.930 . S
C702 C700 1.419 . S
C702 C703 1.362 . S
C703 H693 0.930 . S
C703 C696 1.409 . S
C703 C702 1.362 . S
H704 C710 0.930 . S
H705 C713 0.930 . S
H706 C714 0.930 . S
H707 C715 0.930 . S
H708 C718 0.930 . S
H709 C719 0.930 . S
C710 H704 0.930 . S
C710 C711 1.355 1_556 S
C710 C712 1.415 . S
C711 C710 1.355 1_554 S
C711 C713 1.419 . S
C712 C710 1.415 . S
C712 C717 1.425 . S
C712 C719 1.409 . S
C713 H705 0.930 . S
C713 C711 1.419 . S
C713 C714 1.362 . S
C714 H706 0.930 . S
C714 C713 1.362 . S
C714 C717 1.409 1_554 S
C715 H707 0.930 . S
C715 C716 1.355 . S
C715 C717 1.415 . S
C716 C715 1.355 . S
C716 C718 1.419 . S
C717 C712 1.425 . S
C717 C714 1.409 1_556 S
C717 C715 1.415 . S
C718 H708 0.930 . S
C718 C716 1.419 . S
C718 C719 1.362 . S
C719 H709 0.930 . S
C719 C712 1.409 . S
C719 C718 1.362 . S
H720 C726 0.930 . S
H721 C729 0.930 . S
H722 C730 0.930 . S
H723 C731 0.930 . S
H724 C734 0.930 . S
H725 C735 0.930 . S
C726 H720 0.930 . S
C726 C727 1.355 . S
C726 C728 1.415 . S
C727 C726 1.355 . S
C727 C729 1.419 . S
C728 C726 1.415 . S
C728 C733 1.425 . S
C728 C735 1.409 . S
C729 H721 0.930 . S
C729 C727 1.419 . S
C729 C730 1.362 . S
C730 H722 0.930 . S
C730 C729 1.362 . S
C730 C733 1.409 . S
C731 H723 0.930 . S
C731 C732 1.355 . S
C731 C733 1.415 . S
C732 C731 1.355 . S
C732 C734 1.419 . S
C733 C728 1.425 . S
C733 C730 1.409 . S
C733 C731 1.415 . S
C734 H724 0.930 . S
C734 C732 1.419 . S
C734 C735 1.362 . S
C735 H725 0.930 . S
C735 C728 1.409 . S
C735 C734 1.362 . S
H736 C742 0.930 . S
H737 C745 0.930 . S
H738 C746 0.930 . S
H739 C747 0.930 . S
H740 C750 0.930 . S
H741 C751 0.930 . S
C742 H736 0.930 . S
C742 C743 1.355 . S
C742 C744 1.415 . S
C743 C742 1.355 . S
C743 C745 1.419 . S
C744 C742 1.415 . S
C744 C749 1.425 . S
C744 C751 1.409 . S
C745 H737 0.930 . S
C745 C743 1.419 . S
C745 C746 1.362 . S
C746 H738 0.930 . S
C746 C745 1.362 . S
C746 C749 1.409 . S
C747 H739 0.930 . S
C747 C748 1.355 . S
C747 C749 1.415 . S
C748 C747 1.355 . S
C748 C750 1.419 . S
C749 C744 1.425 . S
C749 C746 1.409 . S
C749 C747 1.415 . S
C750 H740 0.930 . S
C750 C748 1.419 . S
C750 C751 1.362 . S
C751 H741 0.930 . S
C751 C744 1.409 . S
C751 C750 1.362 . S
H752 C758 0.930 . S
H753 C761 0.930 . S
H754 C762 0.930 . S
H755 C763 0.930 . S
H756 C766 0.930 . S
H757 C767 0.930 . S
C758 H752 0.930 . S
C758 C759 1.355 . S
C758 C760 1.415 . S
C759 C758 1.355 . S
C759 C761 1.419 . S
C760 C758 1.415 . S
C760 C765 1.425 . S
C760 C767 1.409 . S
C761 H753 0.930 . S
C761 C759 1.419 . S
C761 C762 1.362 . S
C762 H754 0.930 . S
C762 C761 1.362 . S
C762 C765 1.409 . S
C763 H755 0.930 . S
C763 C764 1.355 . S
C763 C765 1.415 . S
C764 C763 1.355 . S
C764 C766 1.419 . S
C765 C760 1.425 . S
C765 C762 1.409 . S
C765 C763 1.415 . S
C766 H756 0.930 . S
C766 C764 1.419 . S
C766 C767 1.362 . S
C767 H757 0.930 . S
C767 C760 1.409 . S
C767 C766 1.362 . S
H768 C774 0.930 . S
H769 C777 0.930 . S
H770 C778 0.930 . S
H771 C779 0.930 . S
H772 C782 0.930 . S
H773 C783 0.930 . S
C774 H768 0.930 . S
C774 C775 1.355 . S
C774 C776 1.415 . S
C775 C774 1.355 . S
C775 C777 1.419 . S
C776 C774 1.415 . S
C776 C781 1.425 . S
C776 C783 1.409 . S
C777 H769 0.930 . S
C777 C775 1.419 . S
C777 C778 1.362 . S
C778 H770 0.930 . S
C778 C777 1.362 . S
C778 C781 1.409 . S
C779 H771 0.930 . S
C779 C780 1.355 . S
C779 C781 1.415 . S
C780 C779 1.355 . S
C780 C782 1.419 . S
C781 C776 1.425 . S
C781 C778 1.409 . S
C781 C779 1.415 . S
C782 H772 0.930 . S
C782 C780 1.419 . S
C782 C783 1.362 . S
C783 H773 0.930 . S
C783 C776 1.409 . S
C783 C782 1.362 . S
H784 C790 0.930 . S
H785 C793 0.930 . S
H786 C794 0.930 . S
H787 C795 0.930 . S
H788 C798 0.930 . S
H789 C799 0.930 . S
C790 H784 0.930 . S
C790 C791 1.355 . S
C790 C792 1.415 . S
C791 C790 1.355 . S
C791 C793 1.419 . S
C792 C790 1.415 . S
C792 C797 1.425 . S
C792 C799 1.409 . S
C793 H785 0.930 . S
C793 C791 1.419 . S
C793 C794 1.362 . S
C794 H786 0.930 . S
C794 C793 1.362 . S
C794 C797 1.409 . S
C795 H787 0.930 . S
C795 C796 1.355 . S
C795 C797 1.415 . S
C796 C795 1.355 . S
C796 C798 1.419 . S
C797 C792 1.425 . S
C797 C794 1.409 . S
C797 C795 1.415 . S
C798 H788 0.930 . S
C798 C796 1.419 . S
C798 C799 1.362 . S
C799 H789 0.930 . S
C799 C792 1.409 . S
C799 C798 1.362 . S
H800 C806 0.930 . S
H801 C809 0.930 . S
H802 C810 0.930 . S
H803 C811 0.930 . S
H804 C814 0.930 . S
H805 C815 0.930 . S
C806 H800 0.930 . S
C806 C807 1.355 . S
C806 C808 1.415 . S
C807 C806 1.355 . S
C807 C809 1.419 . S
C808 C806 1.415 . S
C808 C813 1.425 . S
C808 C815 1.409 . S
C809 H801 0.930 . S
C809 C807 1.419 . S
C809 C810 1.362 . S
C810 H802 0.930 . S
C810 C809 1.362 . S
C810 C813 1.409 . S
C811 H803 0.930 . S
C811 C812 1.355 . S
C811 C813 1.415 . S
C812 C811 1.355 . S
C812 C814 1.419 . S
C813 C808 1.425 . S
C813 C810 1.409 . S
C813 C811 1.415 . S
C814 H804 0.930 . S
C814 C812 1.419 . S
C814 C815 1.362 . S
C815 H805 0.930 . S
C815 C808 1.409 . S
C815 C814 1.362 . S
H816 C822 0.930 . S
H817 C825 0.930 . S
H818 C826 0.930 . S
H819 C827 0.930 . S
H820 C830 0.930 . S
H821 C831 0.930 . S
C822 H816 0.930 . S
C822 C823 1.355 . S
C822 C824 1.415 . S
C823 C822 1.355 . S
C823 C825 1.419 . S
C824 C822 1.415 . S
C824 C829 1.425 . S
C824 C831 1.409 . S
C825 H817 0.930 . S
C825 C823 1.419 . S
C825 C826 1.362 . S
C826 H818 0.930 . S
C826 C825 1.362 . S
C826 C829 1.409 . S
C827 H819 0.930 . S
C827 C828 1.355 . S
C827 C829 1.415 . S
C828 C827 1.355 . S
C828 C830 1.419 . S
C829 C824 1.425 . S
C829 C826 1.409 . S
C829 C827 1.415 . S
C830 H820 0.930 . S
C830 C828 1.419 . S
C830 C831 1.362 . S
C831 H821 0.930 . S
C831 C824 1.409 . S
C831 C830 1.362 . S
H832 C838 0.930 . S
H833 C841 0.930 . S
H834 C842 0.930 . S
H835 C843 0.930 . S
H836 C846 0.930 . S
H837 C847 0.930 . S
C838 H832 0.930 . S
C838 C839 1.355 . S
C838 C840 1.415 . S
C839 C838 1.355 . S
C839 C841 1.419 . S
C840 C838 1.415 . S
C840 C845 1.425 . S
C840 C847 1.409 . S
C841 H833 0.930 . S
C841 C839 1.419 . S
C841 C842 1.362 . S
C842 H834 0.930 . S
C842 C841 1.362 . S
C842 C845 1.409 . S
C843 H835 0.930 . S
C843 C844 1.355 . S
C843 C845 1.415 . S
C844 C843 1.355 . S
C844 C846 1.419 . S
C845 C840 1.425 . S
C845 C842 1.409 . S
C845 C843 1.415 . S
C846 H836 0.930 . S
C846 C844 1.419 . S
C846 C847 1.362 . S
C847 H837 0.930 . S
C847 C840 1.409 . S
C847 C846 1.362 . S
H848 C854 0.930 . S
H849 C857 0.930 . S
H850 C858 0.930 . S
H851 C859 0.930 . S
H852 C862 0.930 . S
H853 C863 0.930 . S
C854 H848 0.930 . S
C854 C855 1.355 . S
C854 C856 1.415 . S
C855 C854 1.355 . S
C855 C857 1.419 . S
C856 C854 1.415 . S
C856 C861 1.425 . S
C856 C863 1.409 . S
C857 H849 0.930 . S
C857 C855 1.419 . S
C857 C858 1.362 . S
C858 H850 0.930 . S
C858 C857 1.362 . S
C858 C861 1.409 . S
C859 H851 0.930 . S
C859 C860 1.355 . S
C859 C861 1.415 . S
C860 C859 1.355 . S
C860 C862 1.419 . S
C861 C856 1.425 . S
C861 C858 1.409 . S
C861 C859 1.415 . S
C862 H852 0.930 . S
C862 C860 1.419 . S
C862 C863 1.362 . S
C863 H853 0.930 . S
C863 C856 1.409 . S
C863 C862 1.362 . S
H864 C870 0.930 . S
H865 C873 0.930 . S
H866 C874 0.930 . S
H867 C875 0.930 . S
H868 C878 0.930 . S
H869 C879 0.930 . S
C870 H864 0.930 . S
C870 C871 1.355 . S
C870 C872 1.415 . S
C871 C870 1.355 . S
C871 C873 1.419 . S
C872 C870 1.415 . S
C872 C877 1.425 . S
C872 C879 1.409 . S
C873 H865 0.930 . S
C873 C871 1.419 . S
C873 C874 1.362 . S
C874 H866 0.930 . S
C874 C873 1.362 . S
C874 C877 1.409 . S
C875 H867 0.930 . S
C875 C876 1.355 . S
C875 C877 1.415 . S
C876 C875 1.355 . S
C876 C878 1.419 . S
C877 C872 1.425 . S
C877 C874 1.409 . S
C877 C875 1.415 . S
C878 H868 0.930 . S
C878 C876 1.419 . S
C878 C879 1.362 . S
C879 H869 0.930 . S
C879 C872 1.409 . S
C879 C878 1.362 . S
H880 C886 0.930 . S
H881 C889 0.930 . S
H882 C890 0.930 . S
H883 C891 0.930 . S
H884 C894 0.930 . S
H885 C895 0.930 . S
C886 H880 0.930 . S
C886 C887 1.355 . S
C886 C888 1.415 . S
C887 C886 1.355 . S
C887 C889 1.419 . S
C888 C886 1.415 . S
C888 C893 1.425 . S
C888 C895 1.409 . S
C889 H881 0.930 . S
C889 C887 1.419 . S
C889 C890 1.362 . S
C890 H882 0.930 . S
C890 C889 1.362 . S
C890 C893 1.409 . S
C891 H883 0.930 . S
C891 C892 1.355 . S
C891 C893 1.415 . S
C892 C891 1.355 . S
C892 C894 1.419 . S
C893 C888 1.425 . S
C893 C890 1.409 . S
C893 C891 1.415 . S
C894 H884 0.930 . S
C894 C892 1.419 . S
C894 C895 1.362 . S
C895 H885 0.930 . S
C895 C888 1.409 . S
C895 C894 1.362 . S
H896 C902 0.930 . S
H897 C905 0.930 . S
H898 C906 0.930 . S
H899 C907 0.930 . S
H900 C910 0.930 . S
H901 C911 0.930 . S
C902 H896 0.930 . S
C902 C903 1.355 . S
C902 C904 1.415 . S
C903 C902 1.355 . S
C903 C905 1.419 . S
C904 C902 1.415 . S
C904 C909 1.425 . S
C904 C911 1.409 . S
C905 H897 0.930 . S
C905 C903 1.419 . S
C905 C906 1.362 . S
C906 H898 0.930 . S
C906 C905 1.362 . S
C906 C909 1.409 . S
C907 H899 0.930 . S
C907 C908 1.355 . S
C907 C909 1.415 . S
C908 C907 1.355 . S
C908 C910 1.419 . S
C909 C904 1.425 . S
C909 C906 1.409 . S
C909 C907 1.415 . S
C910 H900 0.930 . S
C910 C908 1.419 . S
C910 C911 1.362 . S
C911 H901 0.930 . S
C911 C904 1.409 . S
C911 C910 1.362 . S
H912 C918 0.930 . S
H913 C921 0.930 . S
H914 C922 0.930 . S
H915 C923 0.930 . S
H916 C926 0.930 . S
H917 C927 0.930 . S
C918 H912 0.930 . S
C918 C919 1.355 . S
C918 C920 1.415 . S
C919 C918 1.355 . S
C919 C921 1.419 . S
C920 C918 1.415 . S
C920 C925 1.425 . S
C920 C927 1.409 . S
C921 H913 0.930 . S
C921 C919 1.419 . S
C921 C922 1.362 . S
C922 H914 0.930 . S
C922 C921 1.362 . S
C922 C925 1.409 . S
C923 H915 0.930 . S
C923 C924 1.355 . S
C923 C925 1.415 . S
C924 C923 1.355 . S
C924 C926 1.419 . S
C925 C920 1.425 . S
C925 C922 1.409 . S
C925 C923 1.415 . S
C926 H916 0.930 . S
C926 C924 1.419 . S
C926 C927 1.362 . S
C927 H917 0.930 . S
C927 C920 1.409 . S
C927 C926 1.362 . S
H928 C934 0.930 . S
H929 C937 0.930 . S
H930 C938 0.930 . S
H931 C939 0.930 . S
H932 C942 0.930 . S
H933 C943 0.930 . S
C934 H928 0.930 . S
C934 C935 1.355 . S
C934 C936 1.415 . S
C935 C934 1.355 . S
C935 C937 1.419 . S
C936 C934 1.415 . S
C936 C941 1.425 . S
C936 C943 1.409 . S
C937 H929 0.930 . S
C937 C935 1.419 . S
C937 C938 1.362 . S
C938 H930 0.930 . S
C938 C937 1.362 . S
C938 C941 1.409 . S
C939 H931 0.930 . S
C939 C940 1.355 . S
C939 C941 1.415 . S
C940 C939 1.355 . S
C940 C942 1.419 . S
C941 C936 1.425 . S
C941 C938 1.409 . S
C941 C939 1.415 . S
C942 H932 0.930 . S
C942 C940 1.419 . S
C942 C943 1.362 . S
C943 H933 0.930 . S
C943 C936 1.409 . S
C943 C942 1.362 . S
H944 C950 0.930 . S
H945 C953 0.930 . S
H946 C954 0.930 . S
H947 C955 0.930 . S
H948 C958 0.930 . S
H949 C959 0.930 . S
C950 H944 0.930 . S
C950 C951 1.355 . S
C950 C952 1.415 . S
C951 C950 1.355 . S
C951 C953 1.419 . S
C952 C950 1.415 . S
C952 C957 1.425 . S
C952 C959 1.409 . S
C953 H945 0.930 . S
C953 C951 1.419 . S
C953 C954 1.362 . S
C954 H946 0.930 . S
C954 C953 1.362 . S
C954 C957 1.409 . S
C955 H947 0.930 . S
C955 C956 1.355 . S
C955 C957 1.415 . S
C956 C955 1.355 . S
C956 C958 1.419 . S
C957 C952 1.425 . S
C957 C954 1.409 . S
C957 C955 1.415 . S
C958 H948 0.930 . S
C958 C956 1.419 . S
C958 C959 1.362 . S
C959 H949 0.930 . S
C959 C952 1.409 . S
C959 C958 1.362 . S
H960 C966 0.930 . S
H961 C969 0.930 . S
H962 C970 0.930 . S
H963 C971 0.930 . S
H964 C974 0.930 . S
H965 C975 0.930 . S
C966 H960 0.930 . S
C966 C967 1.355 . S
C966 C968 1.415 . S
C967 C966 1.355 . S
C967 C969 1.419 . S
C968 C966 1.415 . S
C968 C973 1.425 . S
C968 C975 1.409 . S
C969 H961 0.930 . S
C969 C967 1.419 . S
C969 C970 1.362 . S
C970 H962 0.930 . S
C970 C969 1.362 . S
C970 C973 1.409 . S
C971 H963 0.930 . S
C971 C972 1.355 . S
C971 C973 1.415 . S
C972 C971 1.355 . S
C972 C974 1.419 . S
C973 C968 1.425 . S
C973 C970 1.409 . S
C973 C971 1.415 . S
C974 H964 0.930 . S
C974 C972 1.419 . S
C974 C975 1.362 . S
C975 H965 0.930 . S
C975 C968 1.409 . S
C975 C974 1.362 . S
H976 C982 0.930 . S
H977 C985 0.930 . S
H978 C986 0.930 . S
H979 C987 0.930 . S
H980 C990 0.930 . S
H981 C991 0.930 . S
C982 H976 0.930 . S
C982 C983 1.355 . S
C982 C984 1.415 . S
C983 C982 1.355 . S
C983 C985 1.419 . S
C984 C982 1.415 . S
C984 C989 1.425 . S
C984 C991 1.409 . S
C985 H977 0.930 . S
C985 C983 1.419 . S
C985 C986 1.362 . S
C986 H978 0.930 . S
C986 C985 1.362 . S
C986 C989 1.409 . S
C987 H979 0.930 . S
C987 C988 1.355 . S
C987 C989 1.415 . S
C988 C987 1.355 . S
C988 C990 1.419 . S
C989 C984 1.425 . S
C989 C986 1.409 . S
C989 C987 1.415 . S
C990 H980 0.930 . S
C990 C988 1.419 . S
C990 C991 1.362 . S
C991 H981 0.930 . S
C991 C984 1.409 . S
C991 C990 1.362 . S
H992 C998 0.930 . S
H993 C1001 0.930 . S
H994 C1002 0.930 . S
H995 C1003 0.930 . S
H996 C1006 0.930 . S
H997 C1007 0.930 . S
C998 H992 0.930 . S
C998 C999 1.355 . S
C998 C1000 1.415 . S
C999 C998 1.355 . S
C999 C1001 1.419 . S
C1000 C998 1.415 . S
C1000 C1005 1.425 . S
C1000 C1007 1.409 . S
C1001 H993 0.930 . S
C1001 C999 1.419 . S
C1001 C1002 1.362 . S
C1002 H994 0.930 . S
C1002 C1001 1.362 . S
C1002 C1005 1.409 . S
C1003 H995 0.930 . S
C1003 C1004 1.355 . S
C1003 C1005 1.415 . S
C1004 C1003 1.355 . S
C1004 C1006 1.419 . S
C1005 C1000 1.425 . S
C1005 C1002 1.409 . S
C1005 C1003 1.415 . S
C1006 H996 0.930 . S
C1006 C1004 1.419 . S
C1006 C1007 1.362 . S
C1007 H997 0.930 . S
C1007 C1000 1.409 . S
C1007 C1006 1.362 . S
H1008 C1014 0.930 . S
H1009 C1017 0.930 . S
H1010 C1018 0.930 . S
H1011 C1019 0.930 . S
H1012 C1022 0.930 . S
H1013 C1023 0.930 . S
C1014 H1008 0.930 . S
C1014 C1015 1.355 . S
C1014 C1016 1.415 . S
C1015 C1014 1.355 . S
C1015 C1017 1.419 . S
C1016 C1014 1.415 . S
C1016 C1021 1.425 . S
C1016 C1023 1.409 . S
C1017 H1009 0.930 . S
C1017 C1015 1.419 . S
C1017 C1018 1.362 . S
C1018 H1010 0.930 . S
C1018 C1017 1.362 . S
C1018 C1021 1.409 . S
C1019 H1011 0.930 . S
C1019 C1020 1.355 . S
C1019 C1021 1.415 . S
C1020 C1019 1.355 . S
C1020 C1022 1.419 . S
C1021 C1016 1.425 . S
C1021 C1018 1.409 . S
C1021 C1019 1.415 . S
C1022 H1012 0.930 . S
C1022 C1020 1.419 . S
C1022 C1023 1.362 . S
C1023 H1013 0.930 . S
C1023 C1016 1.409 . S
C1023 C1022 1.362 . S
H1024 C1030 0.930 . S
H1025 C1033 0.930 . S
H1026 C1034 0.930 . S
H1027 C1035 0.930 . S
H1028 C1038 0.930 . S
H1029 C1039 0.930 . S
C1030 H1024 0.930 . S
C1030 C1031 1.355 . S
C1030 C1032 1.415 . S
C1031 C1030 1.355 . S
C1031 C1033 1.419 . S
C1032 C1030 1.415 . S
C1032 C1037 1.425 . S
C1032 C1039 1.409 . S
C1033 H1025 0.930 . S
C1033 C1031 1.419 . S
C1033 C1034 1.362 . S
C1034 H1026 0.930 . S
C1034 C1033 1.362 . S
C1034 C1037 1.409 . S
C1035 H1027 0.930 . S
C1035 C1036 1.355 . S
C1035 C1037 1.415 . S
C1036 C1035 1.355 . S
C1036 C1038 1.419 . S
C1037 C1032 1.425 . S
C1037 C1034 1.409 . S
C1037 C1035 1.415 . S
C1038 H1028 0.930 . S
C1038 C1036 1.419 . S
C1038 C1039 1.362 . S
C1039 H1029 0.930 . S
C1039 C1032 1.409 . S
C1039 C1038 1.362 . S
H1040 C1046 0.930 . S
H1041 C1049 0.930 . S
H1042 C1050 0.930 . S
H1043 C1051 0.930 . S
H1044 C1054 0.930 . S
H1045 C1055 0.930 . S
C1046 H1040 0.930 . S
C1046 C1047 1.355 . S
C1046 C1048 1.415 . S
C1047 C1046 1.355 . S
C1047 C1049 1.419 . S
C1048 C1046 1.415 . S
C1048 C1053 1.425 . S
C1048 C1055 1.409 . S
C1049 H1041 0.930 . S
C1049 C1047 1.419 . S
C1049 C1050 1.362 . S
C1050 H1042 0.930 . S
C1050 C1049 1.362 . S
C1050 C1053 1.409 . S
C1051 H1043 0.930 . S
C1051 C1052 1.355 . S
C1051 C1053 1.415 . S
C1052 C1051 1.355 . S
C1052 C1054 1.419 . S
C1053 C1048 1.425 . S
C1053 C1050 1.409 . S
C1053 C1051 1.415 . S
C1054 H1044 0.930 . S
C1054 C1052 1.419 . S
C1054 C1055 1.362 . S
C1055 H1045 0.930 . S
C1055 C1048 1.409 . S
C1055 C1054 1.362 . S
H1056 C1062 0.930 . S
H1057 C1065 0.930 . S
H1058 C1066 0.930 . S
H1059 C1067 0.930 . S
H1060 C1070 0.930 . S
H1061 C1071 0.930 . S
C1062 H1056 0.930 . S
C1062 C1063 1.355 . S
C1062 C1064 1.415 . S
C1063 C1062 1.355 . S
C1063 C1065 1.419 . S
C1064 C1062 1.415 . S
C1064 C1069 1.425 . S
C1064 C1071 1.409 . S
C1065 H1057 0.930 . S
C1065 C1063 1.419 . S
C1065 C1066 1.362 . S
C1066 H1058 0.930 . S
C1066 C1065 1.362 . S
C1066 C1069 1.409 . S
C1067 H1059 0.930 . S
C1067 C1068 1.355 . S
C1067 C1069 1.415 . S
C1068 C1067 1.355 . S
C1068 C1070 1.419 . S
C1069 C1064 1.425 . S
C1069 C1066 1.409 . S
C1069 C1067 1.415 . S
C1070 H1060 0.930 . S
C1070 C1068 1.419 . S
C1070 C1071 1.362 . S
C1071 H1061 0.930 . S
C1071 C1064 1.409 . S
C1071 C1070 1.362 . S
H1072 C1078 0.930 . S
H1073 C1081 0.930 . S
H1074 C1082 0.930 . S
H1075 C1083 0.930 . S
H1076 C1086 0.930 . S
H1077 C1087 0.930 . S
C1078 H1072 0.930 . S
C1078 C1079 1.355 . S
C1078 C1080 1.415 . S
C1079 C1078 1.355 . S
C1079 C1081 1.419 . S
C1080 C1078 1.415 . S
C1080 C1085 1.425 . S
C1080 C1087 1.409 . S
C1081 H1073 0.930 . S
C1081 C1079 1.419 . S
C1081 C1082 1.362 . S
C1082 H1074 0.930 . S
C1082 C1081 1.362 . S
C1082 C1085 1.409 . S
C1083 H1075 0.930 . S
C1083 C1084 1.355 . S
C1083 C1085 1.415 . S
C1084 C1083 1.355 . S
C1084 C1086 1.419 . S
C1085 C1080 1.425 . S
C1085 C1082 1.409 . S
C1085 C1083 1.415 . S
C1086 H1076 0.930 . S
C1086 C1084 1.419 . S
C1086 C1087 1.362 . S
C1087 H1077 0.930 . S
C1087 C1080 1.409 . S
C1087 C1086 1.362 . S
H1088 C1094 0.930 . S
H1089 C1097 0.930 . S
H1090 C1098 0.930 . S
H1091 C1099 0.930 . S
H1092 C1102 0.930 . S
H1093 C1103 0.930 . S
C1094 H1088 0.930 . S
C1094 C1095 1.355 . S
C1094 C1096 1.415 . S
C1095 C1094 1.355 . S
C1095 C1097 1.419 . S
C1096 C1094 1.415 . S
C1096 C1101 1.425 . S
C1096 C1103 1.409 . S
C1097 H1089 0.930 . S
C1097 C1095 1.419 . S
C1097 C1098 1.362 . S
C1098 H1090 0.930 . S
C1098 C1097 1.362 . S
C1098 C1101 1.409 . S
C1099 H1091 0.930 . S
C1099 C1100 1.355 . S
C1099 C1101 1.415 . S
C1100 C1099 1.355 . S
C1100 C1102 1.419 . S
C1101 C1096 1.425 . S
C1101 C1098 1.409 . S
C1101 C1099 1.415 . S
C1102 H1092 0.930 . S
C1102 C1100 1.419 . S
C1102 C1103 1.362 . S
C1103 H1093 0.930 . S
C1103 C1096 1.409 . S
C1103 C1102 1.362 . S
C343 C311 2.054 . S
C348 C8 1.987 . S
C359 C17 2.016 . S
C364 C232 1.955 . S
C375 C325 1.964 . S
C380 C36 1.871 . S
C391 C302 1.901 . S
C396 C50 1.971 . S
C407 C260 2.009 . S
C412 C64 1.942 . S
C423 C269 1.818 . S
C428 C73 1.999 . S
C439 C288 2.017 . S
C444 C87 1.886 . S
C455 C101 2.025 . S
C460 C241 1.893 . S
C471 C185 2.051 . S
C476 C115 1.927 . S
C487 C204 1.915 . S
C492 C134 2.003 . S
C503 C143 1.945 . S
C508 C213 2.066 . S
C519 C162 1.972 . S
C524 C176 1.893 . S
C535 C106 1.969 1_545 S
C540 C199 2.054 . S
C551 C218 1.963 . S
C556 C59 2.022 . S
C567 C78 1.900 . S
C572 C171 1.984 . S
C583 C190 1.906 . S
C588 C92 1.971 . S
C599 C148 1.993 . S
C604 C22 1.947 . S
C615 C31 2.001 . S
C620 C157 1.823 . S
C631 C45 1.863 . S
C636 C120 2.006 . S
C647 C3 1.982 . S
C652 C129 1.819 . S
C663 C283 1.922 . S
C668 C297 2.048 . S
C679 C316 1.933 . S
C684 C246 1.995 . S
C695 C255 1.867 . S
C700 C227 2.025 . S
C711 C330 1.894 . S
C716 C274 1.982 . S
C727 C9 0.950 . S
C732 C121 1.027 . S
C743 C133 0.937 . S
C748 C21 1.048 . S
C759 C37 0.757 . S
C764 C149 0.917 . S
C775 C51 1.026 . S
C780 C161 0.888 . S
C791 C65 0.833 . S
C796 C175 0.997 . S
C807 C77 1.030 . S
C812 C191 0.825 . S
C823 C203 1.053 . S
C828 C91 0.907 . S
C839 C219 0.995 . S
C844 C105 1.025 . S
C855 C119 0.956 . S
C860 C231 1.075 . S
C871 C135 0.941 . S
C876 C331 0.754 . S
C887 C301 1.091 . S
C892 C147 0.990 . S
C903 C317 0.799 . S
C908 C163 0.960 . S
C919 C247 0.989 . S
C924 C177 0.921 . S
C935 C259 0.971 . S
C940 C189 1.097 . S
C951 C205 0.749 . S
C956 C275 0.912 . S
C967 C217 1.103 . S
C972 C287 0.904 . S
C983 C7 1.070 . S
C988 C233 0.979 . S
C999 C245 0.956 . S
C1004 C63 1.043 . S
C1015 C261 0.957 . S
C1020 C79 0.788 . S
C1031 C273 0.994 . S
C1036 C93 1.052 . S
C1047 C289 1.091 . S
C1052 C107 1.001 . S
C1063 C303 0.921 . S
C1068 C35 1.066 . S
C1079 C49 1.029 . S
C1084 C315 1.011 . S
C1095 C329 0.997 . S
C1100 C23 0.982 . S
