# Generated by pormake.
# Topology etd, (3)-cn, num edge types: 1
# Building blocks:
#     Node 0, Type 0, BuildingBlock: OLANEW_clean_sbu_2, # of connection points: 3
#     Node 1, Type 0, BuildingBlock: OLANEW_clean_sbu_2, # of connection points: 3
#     Node 2, Type 0, BuildingBlock: OLANEW_clean_sbu_2, # of connection points: 3
#     Node 3, Type 0, BuildingBlock: OLANEW_clean_sbu_2, # of connection points: 3
#     Node 4, Type 0, BuildingBlock: OLANEW_clean_sbu_2, # of connection points: 3
#     Node 5, Type 0, BuildingBlock: OLANEW_clean_sbu_2, # of connection points: 3
#     Node 6, Type 0, BuildingBlock: OLANEW_clean_sbu_2, # of connection points: 3
#     Node 7, Type 0, BuildingBlock: OLANEW_clean_sbu_2, # of connection points: 3
#     Node 8, Type 0, BuildingBlock: OLANEW_clean_sbu_2, # of connection points: 3
#     Node 9, Type 0, BuildingBlock: OLANEW_clean_sbu_2, # of connection points: 3
#     Node 10, Type 0, BuildingBlock: OLANEW_clean_sbu_2, # of connection points: 3
#     Node 11, Type 0, BuildingBlock: OLANEW_clean_sbu_2, # of connection points: 3
#     Edge 12, Type (0, 0), BuildingBlock: XIVTED_clean_linker_0, # of connection points: 2
#     Edge 13, Type (0, 0), BuildingBlock: XIVTED_clean_linker_0, # of connection points: 2
#     Edge 14, Type (0, 0), BuildingBlock: XIVTED_clean_linker_0, # of connection points: 2
#     Edge 15, Type (0, 0), BuildingBlock: XIVTED_clean_linker_0, # of connection points: 2
#     Edge 16, Type (0, 0), BuildingBlock: XIVTED_clean_linker_0, # of connection points: 2
#     Edge 17, Type (0, 0), BuildingBlock: XIVTED_clean_linker_0, # of connection points: 2
#     Edge 18, Type (0, 0), BuildingBlock: XIVTED_clean_linker_0, # of connection points: 2
#     Edge 19, Type (0, 0), BuildingBlock: XIVTED_clean_linker_0, # of connection points: 2
#     Edge 20, Type (0, 0), BuildingBlock: XIVTED_clean_linker_0, # of connection points: 2
#     Edge 21, Type (0, 0), BuildingBlock: XIVTED_clean_linker_0, # of connection points: 2
#     Edge 22, Type (0, 0), BuildingBlock: XIVTED_clean_linker_0, # of connection points: 2
#     Edge 23, Type (0, 0), BuildingBlock: XIVTED_clean_linker_0, # of connection points: 2
#     Edge 24, Type (0, 0), BuildingBlock: XIVTED_clean_linker_0, # of connection points: 2
#     Edge 25, Type (0, 0), BuildingBlock: XIVTED_clean_linker_0, # of connection points: 2
#     Edge 26, Type (0, 0), BuildingBlock: XIVTED_clean_linker_0, # of connection points: 2
#     Edge 27, Type (0, 0), BuildingBlock: XIVTED_clean_linker_0, # of connection points: 2
#     Edge 28, Type (0, 0), BuildingBlock: XIVTED_clean_linker_0, # of connection points: 2
#     Edge 29, Type (0, 0), BuildingBlock: XIVTED_clean_linker_0, # of connection points: 2
# Relax obj value: 0.002
# Max RMSD: 0.049
# Mean RMSD: 0.049
data_MOF--net-etd--node1-OLANEW_clean_sbu_2--edge1-XIVTED_clean_linker_0
_symmetry_space_group_name_H-M    P1
_symmetry_Int_Tables_number       1
_symmetry_cell_setting            triclinic
loop_
_symmetry_equiv_pos_as_xyz
'x, y, z'
_cell_length_a     61.673592
_cell_length_b     61.698475
_cell_length_c     45.2231
_cell_angle_alpha  90.120989
_cell_angle_beta   89.920357
_cell_angle_gamma 119.99011
loop_
_atom_site_label
_atom_site_type_symbol
_atom_site_fract_x
_atom_site_fract_y
_atom_site_fract_z
_atom_type_partial_charge
O0 O 0.57917 0.15767 0.21007 0.0
Cd1 Cd 0.58369 0.17335 0.15942 0.0
O2 O 0.5411 0.15179 0.21499 0.0
Cd3 Cd 0.54277 0.17115 0.17396 0.0
O4 O 0.54411 0.19853 0.14237 0.0
C5 C 0.539 0.21479 0.15222 0.0
O6 O 0.53315 0.21408 0.18029 0.0
C7 C 0.55927 0.14989 0.22525 0.0
C8 C 0.56869 0.13409 0.11907 0.0
O9 O 0.59149 0.14677 0.12772 0.0
O10 O 0.55305 0.14018 0.12921 0.0
O11 O 0.49887 0.58616 0.26221 0.0
Cd12 Cd 0.523 0.60061 0.21634 0.0
O13 O 0.46655 0.58214 0.23749 0.0
Cd14 Cd 0.42856 0.57599 0.23284 0.0
O15 O 0.39166 0.57219 0.2273 0.0
C16 C 0.37759 0.56838 0.24954 0.0
O17 O 0.38546 0.56653 0.27589 0.0
C18 C 0.47601 0.58044 0.26174 0.0
C19 C 0.53107 0.56488 0.18831 0.0
O20 O 0.54693 0.58037 0.20693 0.0
O21 O 0.51122 0.56604 0.1833 0.0
O22 O 0.87952 0.4871 0.4746 0.0
Cd23 Cd 0.87723 0.49993 0.42406 0.0
O24 O 0.85272 0.44919 0.45982 0.0
Cd25 Cd 0.82558 0.40928 0.46435 0.0
O26 O 0.79526 0.37045 0.46183 0.0
C27 C 0.77953 0.3643 0.44089 0.0
O28 O 0.78216 0.38145 0.42174 0.0
C29 C 0.86605 0.46394 0.48038 0.0
C30 C 0.92234 0.52042 0.3931 0.0
O31 O 0.91605 0.53443 0.40731 0.0
O32 O 0.90746 0.49669 0.39387 0.0
O33 O 0.42248 0.82234 0.7064 0.0
Cd34 Cd 0.41476 0.80646 0.65576 0.0
O35 O 0.46014 0.82671 0.70763 0.0
Cd36 Cd 0.45565 0.80663 0.66598 0.0
O37 O 0.45287 0.77949 0.63264 0.0
C38 C 0.43752 0.77244 0.61117 0.0
O39 O 0.42297 0.78217 0.60807 0.0
C40 C 0.44311 0.82958 0.71978 0.0
C41 C 0.43202 0.84662 0.6166 0.0
O42 O 0.40939 0.83555 0.62603 0.0
O43 O 0.44636 0.83842 0.62527 0.0
O44 O 0.57056 0.5259 0.75219 0.0
Cd45 Cd 0.57698 0.54798 0.70537 0.0
O46 O 0.60378 0.52321 0.74166 0.0
Cd47 Cd 0.63098 0.51056 0.74701 0.0
O48 O 0.65864 0.49838 0.74401 0.0
C49 C 0.65176 0.47524 0.74519 0.0
O50 O 0.62791 0.45889 0.74896 0.0
C51 C 0.58596 0.51881 0.75931 0.0
C52 C 0.53274 0.53243 0.67393 0.0
O53 O 0.54553 0.5214 0.67064 0.0
O54 O 0.54077 0.55068 0.6923 0.0
O55 O 0.1196 0.51171 0.96787 0.0
Cd56 Cd 0.12136 0.49949 0.9168 0.0
O57 O 0.14605 0.54986 0.95363 0.0
Cd58 Cd 0.17316 0.58971 0.95898 0.0
O59 O 0.20452 0.62804 0.95652 0.0
C60 C 0.21508 0.63613 0.93163 0.0
O61 O 0.2065 0.62134 0.90845 0.0
C62 C 0.133 0.53481 0.97406 0.0
C63 C 0.07522 0.47641 0.88795 0.0
O64 O 0.08321 0.46343 0.90125 0.0
O65 O 0.0889 0.50031 0.88862 0.0
O66 O 0.87282 0.3879 0.6911 0.0
Cd67 Cd 0.86958 0.37245 0.74162 0.0
O68 O 0.84981 0.40356 0.70624 0.0
Cd69 Cd 0.8266 0.42106 0.70234 0.0
O70 O 0.80023 0.43481 0.70646 0.0
C71 C 0.77768 0.41942 0.71343 0.0
O72 O 0.77095 0.39578 0.71736 0.0
C73 C 0.86169 0.40007 0.68549 0.0
C74 C 0.91474 0.39605 0.77255 0.0
O75 O 0.90786 0.37555 0.75851 0.0
O76 O 0.90037 0.4055 0.77172 0.0
O77 O 0.48876 0.91792 0.93349 0.0
Cd78 Cd 0.49395 0.92631 0.98672 0.0
O79 O 0.45146 0.88761 0.9453 0.0
Cd80 Cd 0.41567 0.85308 0.9391 0.0
O81 O 0.38014 0.81788 0.94054 0.0
C82 C 0.37076 0.80451 0.91759 0.0
O83 O 0.38263 0.81217 0.89224 0.0
C84 C 0.46798 0.89933 0.9256 0.0
C85 C 0.51162 0.97557 0.00492 0.0
O86 O 0.52679 0.96769 0.99873 0.0
O87 O 0.48812 0.96036 0.00159 0.0
O88 O 0.58332 0.44227 0.97345 0.0
Cd89 Cd 0.57904 0.42511 0.02326 0.0
O90 O 0.54471 0.41459 0.96093 0.0
Cd91 Cd 0.53905 0.39201 0.00035 0.0
O92 O 0.53739 0.36429 0.03164 0.0
C93 C 0.54406 0.34907 0.02225 0.0
O94 O 0.55154 0.35086 0.99468 0.0
C95 C 0.56548 0.43399 0.95483 0.0
C96 C 0.5672 0.45209 0.06343 0.0
O97 O 0.58999 0.45794 0.05874 0.0
O98 O 0.54999 0.43328 0.04941 0.0
O99 O 0.12146 0.59983 0.18993 0.0
Cd100 Cd 0.12484 0.61444 0.24098 0.0
O101 O 0.14918 0.5894 0.20286 0.0
Cd102 Cd 0.17696 0.57766 0.19627 0.0
O103 O 0.20922 0.5721 0.19843 0.0
C104 C 0.21636 0.56908 0.22368 0.0
O105 O 0.20372 0.56882 0.24723 0.0
C106 C 0.13518 0.59062 0.18307 0.0
C107 C 0.07968 0.59247 0.27197 0.0
O108 O 0.08756 0.61331 0.2584 0.0
O109 O 0.09297 0.58185 0.27052 0.0
O110 O 0.52545 0.06852 0.44247 0.0
Cd111 Cd 0.52362 0.06092 0.49568 0.0
O112 O 0.56208 0.10108 0.4517 0.0
Cd113 Cd 0.59586 0.13697 0.44307 0.0
O114 O 0.62941 0.17393 0.4428 0.0
C115 C 0.63228 0.19031 0.42382 0.0
O116 O 0.61489 0.18463 0.40369 0.0
C117 C 0.54499 0.08785 0.43318 0.0
C118 C 0.50151 0.01084 0.51236 0.0
O119 O 0.48833 0.02143 0.50896 0.0
O120 O 0.52507 0.0238 0.50719 0.0
O121 O 0.36745 0.49623 0.45358 0.0
Cd122 Cd 0.34813 0.47759 0.50095 0.0
O123 O 0.38372 0.53303 0.47464 0.0
Cd124 Cd 0.40399 0.57391 0.47864 0.0
O125 O 0.4172 0.61167 0.49578 0.0
C126 C 0.40482 0.62266 0.49059 0.0
O127 O 0.3848 0.61145 0.4738 0.0
C128 C 0.38122 0.51986 0.45184 0.0
C129 C 0.38515 0.48656 0.54239 0.0
O130 O 0.37582 0.46703 0.52591 0.0
O131 O 0.37671 0.50168 0.53955 0.0
H132 H 0.59622 0.14855 0.25762 0.0
H133 H 0.50692 0.07948 0.39594 0.0
H134 H 0.51799 0.12692 0.26098 0.0
H135 H 0.5872 0.11253 0.39882 0.0
H136 H 0.51014 0.09317 0.34463 0.0
H137 H 0.59281 0.13218 0.3077 0.0
C138 C 0.5783 0.14026 0.2688 0.0
C139 C 0.55738 0.1392 0.25508 0.0
C140 C 0.52708 0.09754 0.35651 0.0
C141 C 0.55336 0.12041 0.31238 0.0
C142 C 0.52524 0.08966 0.38576 0.0
C143 C 0.54688 0.09541 0.40187 0.0
C144 C 0.55073 0.11103 0.34312 0.0
C145 C 0.57013 0.10848 0.38755 0.0
C146 C 0.57639 0.13099 0.29743 0.0
C147 C 0.53465 0.12826 0.2707 0.0
N148 N 0.57145 0.11589 0.35899 0.0
N149 N 0.53326 0.11931 0.29847 0.0
H150 H 0.42661 0.56256 0.44395 0.0
H151 H 0.42629 0.54584 0.26823 0.0
H152 H 0.36591 0.50235 0.39599 0.0
H153 H 0.49203 0.59659 0.31791 0.0
H154 H 0.40216 0.53312 0.31416 0.0
H155 H 0.449 0.57892 0.39729 0.0
C156 C 0.41773 0.55312 0.42355 0.0
C157 C 0.3942 0.53128 0.42379 0.0
C158 C 0.42182 0.54717 0.31501 0.0
C159 C 0.41997 0.54949 0.37042 0.0
C160 C 0.43553 0.55465 0.28874 0.0
C161 C 0.46107 0.57263 0.28923 0.0
C162 C 0.43375 0.55775 0.34199 0.0
C163 C 0.47234 0.58269 0.3166 0.0
C164 C 0.43067 0.56227 0.39695 0.0
C165 C 0.38401 0.51927 0.39677 0.0
N166 N 0.4586 0.57517 0.34189 0.0
N167 N 0.39694 0.52853 0.37119 0.0
H168 H 0.8642 0.37895 0.63356 0.0
H169 H 0.87175 0.48876 0.53229 0.0
H170 H 0.86125 0.4425 0.66853 0.0
H171 H 0.85991 0.41858 0.49737 0.0
H172 H 0.87064 0.47335 0.58244 0.0
H173 H 0.86528 0.39436 0.58345 0.0
C174 C 0.86365 0.39609 0.63066 0.0
C175 C 0.86211 0.40921 0.6552 0.0
C176 C 0.8681 0.46124 0.56381 0.0
C177 C 0.86359 0.42709 0.59799 0.0
C178 C 0.86881 0.47006 0.53521 0.0
C179 C 0.86539 0.45471 0.51068 0.0
C180 C 0.86432 0.43703 0.56791 0.0
C181 C 0.86181 0.43071 0.51567 0.0
C182 C 0.8642 0.40484 0.60207 0.0
C183 C 0.86162 0.43139 0.65023 0.0
N184 N 0.86142 0.42262 0.54371 0.0
N185 N 0.86242 0.43968 0.62219 0.0
H186 H 0.48634 0.85137 0.7524 0.0
H187 H 0.424 0.87632 0.89415 0.0
H188 H 0.40932 0.83407 0.75508 0.0
H189 H 0.5031 0.90315 0.88608 0.0
H190 H 0.4179 0.85983 0.84374 0.0
H191 H 0.49256 0.8696 0.8018 0.0
C192 C 0.47072 0.85141 0.76334 0.0
C193 C 0.44725 0.84111 0.74954 0.0
C194 C 0.4366 0.86931 0.85299 0.0
C195 C 0.45426 0.86194 0.80625 0.0
C196 C 0.44003 0.87847 0.88191 0.0
C197 C 0.464 0.89058 0.89457 0.0
C198 C 0.45729 0.87227 0.83662 0.0
C199 C 0.48428 0.89382 0.87721 0.0
C200 C 0.47432 0.86189 0.79155 0.0
C201 C 0.42775 0.84179 0.76483 0.0
N202 N 0.48044 0.88455 0.84922 0.0
N203 N 0.43166 0.85193 0.79239 0.0
H204 H 0.60895 0.47145 0.93076 0.0
H205 H 0.54234 0.48755 0.78765 0.0
H206 H 0.52986 0.42545 0.91317 0.0
H207 H 0.62239 0.52075 0.79574 0.0
H208 H 0.53725 0.46667 0.8352 0.0
H209 H 0.61414 0.49177 0.88282 0.0
C210 C 0.59266 0.46565 0.91687 0.0
C211 C 0.56892 0.4467 0.92602 0.0
C212 C 0.55593 0.47833 0.82645 0.0
C213 C 0.57475 0.46993 0.87116 0.0
C214 C 0.55883 0.49029 0.79936 0.0
C215 C 0.5828 0.50549 0.78749 0.0
C216 C 0.57717 0.48195 0.84203 0.0
C217 C 0.60355 0.50857 0.80364 0.0
C218 C 0.59567 0.4772 0.88945 0.0
C219 C 0.54852 0.43992 0.90702 0.0
N220 N 0.60028 0.49697 0.83016 0.0
N221 N 0.55189 0.45158 0.88056 0.0
H222 H 0.13828 0.57955 0.99238 0.0
H223 H 0.14128 0.55173 0.16448 0.0
H224 H 0.12877 0.50976 0.02527 0.0
H225 H 0.12854 0.61012 0.13211 0.0
H226 H 0.14147 0.53847 0.11347 0.0
H227 H 0.13948 0.59353 0.04337 0.0
C228 C 0.13684 0.56733 0.01035 0.0
C229 C 0.13386 0.54365 0.00465 0.0
C230 C 0.13872 0.55424 0.11752 0.0
C231 C 0.13479 0.55931 0.06297 0.0
C232 C 0.13891 0.56199 0.14661 0.0
C233 C 0.13533 0.58231 0.15245 0.0
C234 C 0.1351 0.56703 0.09412 0.0
C235 C 0.13143 0.59438 0.12851 0.0
C236 C 0.13722 0.57519 0.03942 0.0
C237 C 0.13116 0.5282 0.02875 0.0
N238 N 0.13158 0.58667 0.10036 0.0
N239 N 0.13185 0.53635 0.05687 0.0
H240 H 0.55158 0.22271 0.09341 0.0
H241 H 0.53028 0.34033 0.08065 0.0
H242 H 0.52824 0.25152 0.16637 0.0
H243 H 0.55608 0.31315 0.00843 0.0
H244 H 0.52901 0.30764 0.11228 0.0
H245 H 0.55289 0.25542 0.06174 0.0
C246 C 0.54671 0.23589 0.10278 0.0
C247 C 0.53979 0.23435 0.13261 0.0
C248 C 0.53496 0.30883 0.08952 0.0
C249 C 0.54125 0.27186 0.09647 0.0
C250 C 0.53568 0.3275 0.07143 0.0
C251 C 0.54329 0.32949 0.04182 0.0
C252 C 0.54186 0.29199 0.07793 0.0
C253 C 0.55009 0.31234 0.03111 0.0
C254 C 0.54748 0.25458 0.08468 0.0
C255 C 0.53369 0.25197 0.14352 0.0
N256 N 0.5492 0.29432 0.04914 0.0
N257 N 0.53456 0.26996 0.12547 0.0
H258 H 0.24799 0.5707 0.17993 0.0
H259 H 0.34335 0.56156 0.29246 0.0
H260 H 0.23685 0.56301 0.27445 0.0
H261 H 0.3557 0.57156 0.19826 0.0
H262 H 0.30335 0.56016 0.28603 0.0
H263 H 0.28654 0.56909 0.18593 0.0
C264 C 0.25358 0.56857 0.20194 0.0
C265 C 0.23919 0.56708 0.22674 0.0
C266 C 0.31478 0.5626 0.26675 0.0
C267 C 0.28336 0.56528 0.23377 0.0
C268 C 0.33764 0.5634 0.27041 0.0
C269 C 0.35297 0.56677 0.24588 0.0
C270 C 0.30715 0.5652 0.23835 0.0
C271 C 0.34454 0.56899 0.21782 0.0
C272 C 0.27562 0.56768 0.20535 0.0
C273 C 0.24737 0.56431 0.2547 0.0
N274 N 0.32224 0.56823 0.21485 0.0
N275 N 0.26892 0.56357 0.25746 0.0
H276 H 0.7686 0.32404 0.47626 0.0
H277 H 0.64414 0.2301 0.38726 0.0
H278 H 0.74231 0.34536 0.3993 0.0
H279 H 0.67105 0.20851 0.46343 0.0
H280 H 0.68035 0.27226 0.39081 0.0
H281 H 0.73329 0.28145 0.47151 0.0
C282 C 0.75542 0.31978 0.45834 0.0
C283 C 0.75842 0.33834 0.43817 0.0
C284 C 0.67836 0.25828 0.40671 0.0
C285 C 0.71791 0.28958 0.4326 0.0
C286 C 0.65768 0.23419 0.40469 0.0
C287 C 0.6545 0.21573 0.42512 0.0
C288 C 0.69601 0.26401 0.42935 0.0
C289 C 0.6727 0.22213 0.44722 0.0
C290 C 0.73526 0.29544 0.45563 0.0
C291 C 0.74076 0.33169 0.41538 0.0
N292 N 0.69262 0.24573 0.44878 0.0
N293 N 0.72126 0.30788 0.41324 0.0
H294 H 0.38203 0.65083 0.48489 0.0
H295 H 0.46466 0.74829 0.61123 0.0
H296 H 0.44302 0.64937 0.52978 0.0
H297 H 0.40469 0.75076 0.56512 0.0
H298 H 0.45859 0.71357 0.57959 0.0
H299 H 0.39166 0.68892 0.51192 0.0
C300 C 0.39756 0.65859 0.50028 0.0
C301 C 0.41164 0.64676 0.50518 0.0
C302 C 0.44684 0.72178 0.57628 0.0
C303 C 0.4227 0.69038 0.53636 0.0
C304 C 0.45029 0.74163 0.59436 0.0
C305 C 0.43506 0.75239 0.59097 0.0
C306 C 0.42795 0.71251 0.55467 0.0
C307 C 0.41681 0.743 0.56863 0.0
C308 C 0.40304 0.68036 0.51574 0.0
C309 C 0.43159 0.65777 0.52535 0.0
N310 N 0.41368 0.72353 0.55145 0.0
N311 N 0.43642 0.67885 0.54031 0.0
H312 H 0.64351 0.42732 0.74706 0.0
H313 H 0.7857 0.46725 0.70967 0.0
H314 H 0.7021 0.50387 0.73431 0.0
H315 H 0.72793 0.39119 0.72725 0.0
H316 H 0.75522 0.48097 0.7178 0.0
H317 H 0.67408 0.41369 0.73933 0.0
C318 C 0.66281 0.44128 0.7427 0.0
C319 C 0.67023 0.46679 0.74132 0.0
C320 C 0.74921 0.46128 0.71988 0.0
C321 C 0.70536 0.45128 0.73233 0.0
C322 C 0.7666 0.45342 0.71519 0.0
C323 C 0.75938 0.42802 0.71779 0.0
C324 C 0.72436 0.44362 0.72716 0.0
C325 C 0.73436 0.41096 0.72502 0.0
C326 C 0.68027 0.43348 0.73827 0.0
C327 C 0.69552 0.48401 0.73558 0.0
N328 N 0.71778 0.41907 0.72944 0.0
N329 N 0.71215 0.47594 0.73125 0.0
H330 H 0.24225 0.65875 0.88181 0.0
H331 H 0.34161 0.78325 0.96656 0.0
H332 H 0.23842 0.67133 0.97515 0.0
H333 H 0.34586 0.77057 0.87334 0.0
H334 H 0.30311 0.74285 0.96979 0.0
H335 H 0.27946 0.70015 0.87795 0.0
C336 C 0.24918 0.67023 0.9015 0.0
C337 C 0.23721 0.6615 0.92888 0.0
C338 C 0.31242 0.74891 0.9486 0.0
C339 C 0.2799 0.70897 0.9246 0.0
C340 C 0.33443 0.772 0.94673 0.0
C341 C 0.34706 0.78031 0.91964 0.0
C342 C 0.3029 0.73394 0.92321 0.0
C343 C 0.3368 0.76492 0.8947 0.0
C344 C 0.27046 0.69389 0.89927 0.0
C345 C 0.24705 0.67725 0.95361 0.0
N346 N 0.31537 0.74246 0.89711 0.0
N347 N 0.26784 0.70018 0.95088 0.0
H348 H 0.52157 0.10296 0.09747 0.0
H349 H 0.5601 0.01159 0.01645 0.0
H350 H 0.59714 0.116 0.09443 0.0
H351 H 0.48416 0.99725 0.02201 0.0
H352 H 0.57453 0.05176 0.04116 0.0
H353 H 0.50805 0.06602 0.06627 0.0
C354 C 0.53536 0.09815 0.09012 0.0
C355 C 0.56051 0.11253 0.09875 0.0
C356 C 0.55472 0.03991 0.03681 0.0
C357 C 0.54512 0.07018 0.06304 0.0
C358 C 0.54647 0.01697 0.02263 0.0
C359 C 0.52085 0.00093 0.01731 0.0
C360 C 0.53724 0.04688 0.04581 0.0
C361 C 0.50407 0.00895 0.02577 0.0
C362 C 0.52761 0.07703 0.07229 0.0
C363 C 0.57754 0.10542 0.08845 0.0
N364 N 0.51254 0.03128 0.03976 0.0
N365 N 0.56951 0.08469 0.07127 0.0
H366 H 0.52134 0.44763 0.07362 0.0
H367 H 0.57352 0.56118 0.18935 0.0
H368 H 0.59893 0.49061 0.09969 0.0
H369 H 0.49972 0.52734 0.15072 0.0
H370 H 0.58188 0.53246 0.16077 0.0
H371 H 0.51188 0.4737 0.10584 0.0
C372 C 0.53638 0.46246 0.08623 0.0
C373 C 0.561 0.467 0.08384 0.0
C374 C 0.56384 0.53128 0.15861 0.0
C375 C 0.55027 0.49692 0.1208 0.0
C376 C 0.55901 0.54762 0.17499 0.0
C377 C 0.53592 0.54675 0.17233 0.0
C378 C 0.54539 0.51381 0.13953 0.0
C379 C 0.51783 0.52877 0.15337 0.0
C380 C 0.53096 0.47738 0.10457 0.0
C381 C 0.5797 0.48649 0.10073 0.0
N382 N 0.52297 0.51305 0.13767 0.0
N383 N 0.57396 0.50074 0.11845 0.0
H384 H 0.05435 0.54564 0.29636 0.0
H385 H 0.95383 0.56967 0.37944 0.0
H386 H 0.05169 0.61391 0.28742 0.0
H387 H 0.94436 0.49601 0.36731 0.0
H388 H 0.99205 0.58717 0.34973 0.0
H389 H 0.01612 0.52797 0.32613 0.0
C390 C 0.04572 0.5569 0.30062 0.0
C391 C 0.05622 0.58128 0.28936 0.0
C392 C 0.98159 0.56718 0.35356 0.0
C393 C 0.01261 0.56125 0.3236 0.0
C394 C 0.95983 0.55718 0.37062 0.0
C395 C 0.94586 0.53133 0.37583 0.0
C396 C 0.98961 0.55125 0.34188 0.0
C397 C 0.95451 0.51604 0.36378 0.0
C398 C 0.02388 0.54679 0.31757 0.0
C399 C 0.0442 0.59501 0.29557 0.0
N400 N 0.97587 0.52624 0.34744 0.0
N401 N 0.02311 0.58485 0.31239 0.0
H402 H 0.45233 0.97872 0.5261 0.0
H403 H 0.47909 0.87445 0.59331 0.0
H404 H 0.52471 0.9838 0.52406 0.0
H405 H 0.40685 0.86965 0.59604 0.0
H406 H 0.49534 0.91288 0.56443 0.0
H407 H 0.43455 0.93715 0.54811 0.0
C408 C 0.46446 0.97102 0.53007 0.0
C409 C 0.4901 0.98485 0.5234 0.0
C410 C 0.47589 0.90335 0.57118 0.0
C411 C 0.46987 0.93728 0.54876 0.0
C412 C 0.46659 0.88138 0.58768 0.0
C413 C 0.4416 0.86889 0.59729 0.0
C414 C 0.46012 0.91298 0.56429 0.0
C415 C 0.42626 0.87871 0.58923 0.0
C416 C 0.45429 0.94728 0.54268 0.0
C417 C 0.50488 0.97387 0.52896 0.0
N418 N 0.4358 0.90024 0.57336 0.0
N419 N 0.49458 0.95082 0.54148 0.0
H420 H 0.50323 0.55399 0.6731 0.0
H421 H 0.40897 0.4597 0.55119 0.0
H422 H 0.50975 0.49326 0.63505 0.0
H423 H 0.40783 0.52548 0.58165 0.0
H424 H 0.44379 0.46975 0.58472 0.0
H425 H 0.46616 0.54186 0.64269 0.0
C426 C 0.49682 0.53804 0.65844 0.0
C427 C 0.50969 0.52469 0.65653 0.0
C428 C 0.43588 0.48195 0.58413 0.0
C429 C 0.46724 0.5107 0.62164 0.0
C430 C 0.41596 0.4762 0.56502 0.0
C431 C 0.40551 0.49183 0.56352 0.0
C432 C 0.44542 0.50346 0.60196 0.0
C433 C 0.41535 0.51295 0.582 0.0
C434 C 0.47566 0.53115 0.64105 0.0
C435 C 0.50048 0.50416 0.63717 0.0
N436 N 0.43477 0.51817 0.6004 0.0
N437 N 0.47986 0.49783 0.62044 0.0
H438 H 0.93802 0.44274 0.79761 0.0
H439 H 0.04577 0.42672 0.87455 0.0
H440 H 0.94526 0.37714 0.78639 0.0
H441 H 0.04989 0.49824 0.86438 0.0
H442 H 0.0066 0.40707 0.84655 0.0
H443 H 0.97688 0.46232 0.82622 0.0
C444 C 0.94777 0.43245 0.80115 0.0
C445 C 0.93839 0.40827 0.78955 0.0
C446 C 0.01609 0.42706 0.85045 0.0
C447 C 0.98276 0.43051 0.82245 0.0
C448 C 0.03839 0.43828 0.86653 0.0
C449 C 0.05115 0.46417 0.87177 0.0
C450 C 0.00631 0.44179 0.83979 0.0
C451 C 0.04073 0.47823 0.86078 0.0
C452 C 0.96998 0.44366 0.81744 0.0
C453 C 0.95185 0.39584 0.79483 0.0
N454 N 0.01889 0.46685 0.84538 0.0
N455 N 0.97329 0.40706 0.811 0.0
loop_
_geom_bond_atom_site_label_1
_geom_bond_atom_site_label_2
_geom_bond_distance
_geom_bond_site_symmetry_2
_ccdc_geom_bond_type
O0 Cd1 2.300 . S
O0 C7 1.275 . S
Cd1 O0 2.300 . S
Cd1 O9 2.381 . S
Cd1 O10 2.378 . S
O2 Cd3 2.385 . S
O2 C7 1.255 . S
Cd3 O2 2.385 . S
Cd3 O4 2.317 . S
O4 Cd3 2.317 . S
O4 C5 1.232 . S
C5 O4 1.232 . S
C5 O6 1.218 . S
O6 C5 1.218 . S
C7 O0 1.275 . S
C7 O2 1.255 . S
C8 O9 1.258 . S
C8 O10 1.256 . S
O9 Cd1 2.381 . S
O9 C8 1.258 . S
O10 Cd1 2.378 . S
O10 C8 1.256 . S
O11 Cd12 2.300 . S
O11 C18 1.275 . S
Cd12 O11 2.300 . S
Cd12 O20 2.381 . S
Cd12 O21 2.378 . S
O13 Cd14 2.385 . S
O13 C18 1.255 . S
Cd14 O13 2.385 . S
Cd14 O15 2.317 . S
O15 Cd14 2.317 . S
O15 C16 1.232 . S
C16 O15 1.232 . S
C16 O17 1.218 . S
O17 C16 1.218 . S
C18 O11 1.275 . S
C18 O13 1.255 . S
C19 O20 1.258 . S
C19 O21 1.256 . S
O20 Cd12 2.381 . S
O20 C19 1.258 . S
O21 Cd12 2.378 . S
O21 C19 1.256 . S
O22 Cd23 2.300 . S
O22 C29 1.275 . S
Cd23 O22 2.300 . S
Cd23 O31 2.381 . S
Cd23 O32 2.378 . S
O24 Cd25 2.385 . S
O24 C29 1.255 . S
Cd25 O24 2.385 . S
Cd25 O26 2.317 . S
O26 Cd25 2.317 . S
O26 C27 1.232 . S
C27 O26 1.232 . S
C27 O28 1.218 . S
O28 C27 1.218 . S
C29 O22 1.275 . S
C29 O24 1.255 . S
C30 O31 1.258 . S
C30 O32 1.256 . S
O31 Cd23 2.381 . S
O31 C30 1.258 . S
O32 Cd23 2.378 . S
O32 C30 1.256 . S
O33 Cd34 2.300 . S
O33 C40 1.275 . S
Cd34 O33 2.300 . S
Cd34 O42 2.381 . S
Cd34 O43 2.378 . S
O35 Cd36 2.385 . S
O35 C40 1.255 . S
Cd36 O35 2.385 . S
Cd36 O37 2.317 . S
O37 Cd36 2.317 . S
O37 C38 1.232 . S
C38 O37 1.232 . S
C38 O39 1.218 . S
O39 C38 1.218 . S
C40 O33 1.275 . S
C40 O35 1.255 . S
C41 O42 1.258 . S
C41 O43 1.256 . S
O42 Cd34 2.381 . S
O42 C41 1.258 . S
O43 Cd34 2.378 . S
O43 C41 1.256 . S
O44 Cd45 2.300 . S
O44 C51 1.275 . S
Cd45 O44 2.300 . S
Cd45 O53 2.381 . S
Cd45 O54 2.378 . S
O46 Cd47 2.385 . S
O46 C51 1.255 . S
Cd47 O46 2.385 . S
Cd47 O48 2.317 . S
O48 Cd47 2.317 . S
O48 C49 1.232 . S
C49 O48 1.232 . S
C49 O50 1.218 . S
O50 C49 1.218 . S
C51 O44 1.275 . S
C51 O46 1.255 . S
C52 O53 1.258 . S
C52 O54 1.256 . S
O53 Cd45 2.381 . S
O53 C52 1.258 . S
O54 Cd45 2.378 . S
O54 C52 1.256 . S
O55 Cd56 2.300 . S
O55 C62 1.275 . S
Cd56 O55 2.300 . S
Cd56 O64 2.381 . S
Cd56 O65 2.378 . S
O57 Cd58 2.385 . S
O57 C62 1.255 . S
Cd58 O57 2.385 . S
Cd58 O59 2.317 . S
O59 Cd58 2.317 . S
O59 C60 1.232 . S
C60 O59 1.232 . S
C60 O61 1.218 . S
O61 C60 1.218 . S
C62 O55 1.275 . S
C62 O57 1.255 . S
C63 O64 1.258 . S
C63 O65 1.256 . S
O64 Cd56 2.381 . S
O64 C63 1.258 . S
O65 Cd56 2.378 . S
O65 C63 1.256 . S
O66 Cd67 2.300 . S
O66 C73 1.275 . S
Cd67 O66 2.300 . S
Cd67 O75 2.381 . S
Cd67 O76 2.378 . S
O68 Cd69 2.385 . S
O68 C73 1.255 . S
Cd69 O68 2.385 . S
Cd69 O70 2.317 . S
O70 Cd69 2.317 . S
O70 C71 1.232 . S
C71 O70 1.232 . S
C71 O72 1.218 . S
O72 C71 1.218 . S
C73 O66 1.275 . S
C73 O68 1.255 . S
C74 O75 1.258 . S
C74 O76 1.256 . S
O75 Cd67 2.381 . S
O75 C74 1.258 . S
O76 Cd67 2.378 . S
O76 C74 1.256 . S
O77 Cd78 2.300 . S
O77 C84 1.275 . S
Cd78 O77 2.300 . S
Cd78 O86 2.381 . S
Cd78 O87 2.378 . S
O79 Cd80 2.385 . S
O79 C84 1.255 . S
Cd80 O79 2.385 . S
Cd80 O81 2.317 . S
O81 Cd80 2.317 . S
O81 C82 1.232 . S
C82 O81 1.232 . S
C82 O83 1.218 . S
O83 C82 1.218 . S
C84 O77 1.275 . S
C84 O79 1.255 . S
C85 O86 1.258 . S
C85 O87 1.256 . S
O86 Cd78 2.381 . S
O86 C85 1.258 . S
O87 Cd78 2.378 . S
O87 C85 1.256 . S
O88 Cd89 2.300 . S
O88 C95 1.275 . S
Cd89 O88 2.300 . S
Cd89 O97 2.381 . S
Cd89 O98 2.378 . S
O90 Cd91 2.385 . S
O90 C95 1.255 . S
Cd91 O90 2.385 . S
Cd91 O92 2.317 . S
O92 Cd91 2.317 . S
O92 C93 1.232 . S
C93 O92 1.232 . S
C93 O94 1.218 . S
O94 C93 1.218 . S
C95 O88 1.275 . S
C95 O90 1.255 . S
C96 O97 1.258 . S
C96 O98 1.256 . S
O97 Cd89 2.381 . S
O97 C96 1.258 . S
O98 Cd89 2.378 . S
O98 C96 1.256 . S
O99 Cd100 2.300 . S
O99 C106 1.275 . S
Cd100 O99 2.300 . S
Cd100 O108 2.381 . S
Cd100 O109 2.378 . S
O101 Cd102 2.385 . S
O101 C106 1.255 . S
Cd102 O101 2.385 . S
Cd102 O103 2.317 . S
O103 Cd102 2.317 . S
O103 C104 1.232 . S
C104 O103 1.232 . S
C104 O105 1.218 . S
O105 C104 1.218 . S
C106 O99 1.275 . S
C106 O101 1.255 . S
C107 O108 1.258 . S
C107 O109 1.256 . S
O108 Cd100 2.381 . S
O108 C107 1.258 . S
O109 Cd100 2.378 . S
O109 C107 1.256 . S
O110 Cd111 2.300 . S
O110 C117 1.275 . S
Cd111 O110 2.300 . S
Cd111 O119 2.381 . S
Cd111 O120 2.378 . S
O112 Cd113 2.385 . S
O112 C117 1.255 . S
Cd113 O112 2.385 . S
Cd113 O114 2.317 . S
O114 Cd113 2.317 . S
O114 C115 1.232 . S
C115 O114 1.232 . S
C115 O116 1.218 . S
O116 C115 1.218 . S
C117 O110 1.275 . S
C117 O112 1.255 . S
C118 O119 1.258 . S
C118 O120 1.256 . S
O119 Cd111 2.381 . S
O119 C118 1.258 . S
O120 Cd111 2.378 . S
O120 C118 1.256 . S
O121 Cd122 2.300 . S
O121 C128 1.275 . S
Cd122 O121 2.300 . S
Cd122 O130 2.381 . S
Cd122 O131 2.378 . S
O123 Cd124 2.385 . S
O123 C128 1.255 . S
Cd124 O123 2.385 . S
Cd124 O125 2.317 . S
O125 Cd124 2.317 . S
O125 C126 1.232 . S
C126 O125 1.232 . S
C126 O127 1.218 . S
O127 C126 1.218 . S
C128 O121 1.275 . S
C128 O123 1.255 . S
C129 O130 1.258 . S
C129 O131 1.256 . S
O130 Cd122 2.381 . S
O130 C129 1.258 . S
O131 Cd122 2.378 . S
O131 C129 1.256 . S
H132 C138 0.930 . S
H133 C142 0.930 . S
H134 C147 0.929 . S
H135 C145 0.929 . S
H136 C140 0.929 . S
H137 C146 0.929 . S
C138 H132 0.930 . S
C138 C139 1.367 . S
C138 C146 1.378 . S
C139 C138 1.367 . S
C139 C147 1.433 . S
C140 H136 0.929 . S
C140 C142 1.378 . S
C140 C144 1.350 . S
C141 C144 1.463 . S
C141 C146 1.350 . S
C141 N149 1.427 . S
C142 H133 0.930 . S
C142 C140 1.378 . S
C142 C143 1.367 . S
C143 C142 1.367 . S
C143 C145 1.433 . S
C144 C140 1.350 . S
C144 C141 1.463 . S
C144 N148 1.427 . S
C145 H135 0.929 . S
C145 C143 1.433 . S
C145 N148 1.384 . S
C146 H137 0.929 . S
C146 C138 1.378 . S
C146 C141 1.350 . S
C147 H134 0.929 . S
C147 C139 1.433 . S
C147 N149 1.384 . S
N148 C144 1.427 . S
N148 C145 1.384 . S
N149 C141 1.427 . S
N149 C147 1.384 . S
H150 C156 0.930 . S
H151 C160 0.930 . S
H152 C165 0.929 . S
H153 C163 0.929 . S
H154 C158 0.929 . S
H155 C164 0.929 . S
C156 H150 0.930 . S
C156 C157 1.367 . S
C156 C164 1.378 . S
C157 C156 1.367 . S
C157 C165 1.433 . S
C158 H154 0.929 . S
C158 C160 1.378 . S
C158 C162 1.350 . S
C159 C162 1.463 . S
C159 C164 1.350 . S
C159 N167 1.427 . S
C160 H151 0.930 . S
C160 C158 1.378 . S
C160 C161 1.367 . S
C161 C160 1.367 . S
C161 C163 1.433 . S
C162 C158 1.350 . S
C162 C159 1.463 . S
C162 N166 1.427 . S
C163 H153 0.929 . S
C163 C161 1.433 . S
C163 N166 1.384 . S
C164 H155 0.929 . S
C164 C156 1.378 . S
C164 C159 1.350 . S
C165 H152 0.929 . S
C165 C157 1.433 . S
C165 N167 1.384 . S
N166 C162 1.427 . S
N166 C163 1.384 . S
N167 C159 1.427 . S
N167 C165 1.384 . S
H168 C174 0.930 . S
H169 C178 0.930 . S
H170 C183 0.929 . S
H171 C181 0.929 . S
H172 C176 0.929 . S
H173 C182 0.929 . S
C174 H168 0.930 . S
C174 C175 1.367 . S
C174 C182 1.378 . S
C175 C174 1.367 . S
C175 C183 1.433 . S
C176 H172 0.929 . S
C176 C178 1.378 . S
C176 C180 1.350 . S
C177 C180 1.463 . S
C177 C182 1.350 . S
C177 N185 1.427 . S
C178 H169 0.930 . S
C178 C176 1.378 . S
C178 C179 1.367 . S
C179 C178 1.367 . S
C179 C181 1.433 . S
C180 C176 1.350 . S
C180 C177 1.463 . S
C180 N184 1.427 . S
C181 H171 0.929 . S
C181 C179 1.433 . S
C181 N184 1.384 . S
C182 H173 0.929 . S
C182 C174 1.378 . S
C182 C177 1.350 . S
C183 H170 0.929 . S
C183 C175 1.433 . S
C183 N185 1.384 . S
N184 C180 1.427 . S
N184 C181 1.384 . S
N185 C177 1.427 . S
N185 C183 1.384 . S
H186 C192 0.930 . S
H187 C196 0.930 . S
H188 C201 0.929 . S
H189 C199 0.929 . S
H190 C194 0.929 . S
H191 C200 0.929 . S
C192 H186 0.930 . S
C192 C193 1.367 . S
C192 C200 1.378 . S
C193 C192 1.367 . S
C193 C201 1.433 . S
C194 H190 0.929 . S
C194 C196 1.378 . S
C194 C198 1.350 . S
C195 C198 1.463 . S
C195 C200 1.350 . S
C195 N203 1.427 . S
C196 H187 0.930 . S
C196 C194 1.378 . S
C196 C197 1.367 . S
C197 C196 1.367 . S
C197 C199 1.433 . S
C198 C194 1.350 . S
C198 C195 1.463 . S
C198 N202 1.427 . S
C199 H189 0.929 . S
C199 C197 1.433 . S
C199 N202 1.384 . S
C200 H191 0.929 . S
C200 C192 1.378 . S
C200 C195 1.350 . S
C201 H188 0.929 . S
C201 C193 1.433 . S
C201 N203 1.384 . S
N202 C198 1.427 . S
N202 C199 1.384 . S
N203 C195 1.427 . S
N203 C201 1.384 . S
H204 C210 0.930 . S
H205 C214 0.930 . S
H206 C219 0.929 . S
H207 C217 0.929 . S
H208 C212 0.929 . S
H209 C218 0.929 . S
C210 H204 0.930 . S
C210 C211 1.367 . S
C210 C218 1.378 . S
C211 C210 1.367 . S
C211 C219 1.433 . S
C212 H208 0.929 . S
C212 C214 1.378 . S
C212 C216 1.350 . S
C213 C216 1.463 . S
C213 C218 1.350 . S
C213 N221 1.427 . S
C214 H205 0.930 . S
C214 C212 1.378 . S
C214 C215 1.367 . S
C215 C214 1.367 . S
C215 C217 1.433 . S
C216 C212 1.350 . S
C216 C213 1.463 . S
C216 N220 1.427 . S
C217 H207 0.929 . S
C217 C215 1.433 . S
C217 N220 1.384 . S
C218 H209 0.929 . S
C218 C210 1.378 . S
C218 C213 1.350 . S
C219 H206 0.929 . S
C219 C211 1.433 . S
C219 N221 1.384 . S
N220 C216 1.427 . S
N220 C217 1.384 . S
N221 C213 1.427 . S
N221 C219 1.384 . S
H222 C228 0.930 . S
H223 C232 0.930 . S
H224 C237 0.929 . S
H225 C235 0.929 . S
H226 C230 0.929 . S
H227 C236 0.929 . S
C228 H222 0.930 . S
C228 C229 1.367 . S
C228 C236 1.378 . S
C229 C228 1.367 . S
C229 C237 1.433 . S
C230 H226 0.929 . S
C230 C232 1.378 . S
C230 C234 1.350 . S
C231 C234 1.463 . S
C231 C236 1.350 . S
C231 N239 1.427 . S
C232 H223 0.930 . S
C232 C230 1.378 . S
C232 C233 1.367 . S
C233 C232 1.367 . S
C233 C235 1.433 . S
C234 C230 1.350 . S
C234 C231 1.463 . S
C234 N238 1.427 . S
C235 H225 0.929 . S
C235 C233 1.433 . S
C235 N238 1.384 . S
C236 H227 0.929 . S
C236 C228 1.378 . S
C236 C231 1.350 . S
C237 H224 0.929 . S
C237 C229 1.433 . S
C237 N239 1.384 . S
N238 C234 1.427 . S
N238 C235 1.384 . S
N239 C231 1.427 . S
N239 C237 1.384 . S
H240 C246 0.930 . S
H241 C250 0.930 . S
H242 C255 0.929 . S
H243 C253 0.929 . S
H244 C248 0.929 . S
H245 C254 0.929 . S
C246 H240 0.930 . S
C246 C247 1.367 . S
C246 C254 1.378 . S
C247 C246 1.367 . S
C247 C255 1.433 . S
C248 H244 0.929 . S
C248 C250 1.378 . S
C248 C252 1.350 . S
C249 C252 1.463 . S
C249 C254 1.350 . S
C249 N257 1.427 . S
C250 H241 0.930 . S
C250 C248 1.378 . S
C250 C251 1.367 . S
C251 C250 1.367 . S
C251 C253 1.433 . S
C252 C248 1.350 . S
C252 C249 1.463 . S
C252 N256 1.427 . S
C253 H243 0.929 . S
C253 C251 1.433 . S
C253 N256 1.384 . S
C254 H245 0.929 . S
C254 C246 1.378 . S
C254 C249 1.350 . S
C255 H242 0.929 . S
C255 C247 1.433 . S
C255 N257 1.384 . S
N256 C252 1.427 . S
N256 C253 1.384 . S
N257 C249 1.427 . S
N257 C255 1.384 . S
H258 C264 0.930 . S
H259 C268 0.930 . S
H260 C273 0.929 . S
H261 C271 0.929 . S
H262 C266 0.929 . S
H263 C272 0.929 . S
C264 H258 0.930 . S
C264 C265 1.367 . S
C264 C272 1.378 . S
C265 C264 1.367 . S
C265 C273 1.433 . S
C266 H262 0.929 . S
C266 C268 1.378 . S
C266 C270 1.350 . S
C267 C270 1.463 . S
C267 C272 1.350 . S
C267 N275 1.427 . S
C268 H259 0.930 . S
C268 C266 1.378 . S
C268 C269 1.367 . S
C269 C268 1.367 . S
C269 C271 1.433 . S
C270 C266 1.350 . S
C270 C267 1.463 . S
C270 N274 1.427 . S
C271 H261 0.929 . S
C271 C269 1.433 . S
C271 N274 1.384 . S
C272 H263 0.929 . S
C272 C264 1.378 . S
C272 C267 1.350 . S
C273 H260 0.929 . S
C273 C265 1.433 . S
C273 N275 1.384 . S
N274 C270 1.427 . S
N274 C271 1.384 . S
N275 C267 1.427 . S
N275 C273 1.384 . S
H276 C282 0.930 . S
H277 C286 0.930 . S
H278 C291 0.929 . S
H279 C289 0.929 . S
H280 C284 0.929 . S
H281 C290 0.929 . S
C282 H276 0.930 . S
C282 C283 1.367 . S
C282 C290 1.378 . S
C283 C282 1.367 . S
C283 C291 1.433 . S
C284 H280 0.929 . S
C284 C286 1.378 . S
C284 C288 1.350 . S
C285 C288 1.463 . S
C285 C290 1.350 . S
C285 N293 1.427 . S
C286 H277 0.930 . S
C286 C284 1.378 . S
C286 C287 1.367 . S
C287 C286 1.367 . S
C287 C289 1.433 . S
C288 C284 1.350 . S
C288 C285 1.463 . S
C288 N292 1.427 . S
C289 H279 0.929 . S
C289 C287 1.433 . S
C289 N292 1.384 . S
C290 H281 0.929 . S
C290 C282 1.378 . S
C290 C285 1.350 . S
C291 H278 0.929 . S
C291 C283 1.433 . S
C291 N293 1.384 . S
N292 C288 1.427 . S
N292 C289 1.384 . S
N293 C285 1.427 . S
N293 C291 1.384 . S
H294 C300 0.930 . S
H295 C304 0.930 . S
H296 C309 0.929 . S
H297 C307 0.929 . S
H298 C302 0.929 . S
H299 C308 0.929 . S
C300 H294 0.930 . S
C300 C301 1.367 . S
C300 C308 1.378 . S
C301 C300 1.367 . S
C301 C309 1.433 . S
C302 H298 0.929 . S
C302 C304 1.378 . S
C302 C306 1.350 . S
C303 C306 1.463 . S
C303 C308 1.350 . S
C303 N311 1.427 . S
C304 H295 0.930 . S
C304 C302 1.378 . S
C304 C305 1.367 . S
C305 C304 1.367 . S
C305 C307 1.433 . S
C306 C302 1.350 . S
C306 C303 1.463 . S
C306 N310 1.427 . S
C307 H297 0.929 . S
C307 C305 1.433 . S
C307 N310 1.384 . S
C308 H299 0.929 . S
C308 C300 1.378 . S
C308 C303 1.350 . S
C309 H296 0.929 . S
C309 C301 1.433 . S
C309 N311 1.384 . S
N310 C306 1.427 . S
N310 C307 1.384 . S
N311 C303 1.427 . S
N311 C309 1.384 . S
H312 C318 0.930 . S
H313 C322 0.930 . S
H314 C327 0.929 . S
H315 C325 0.929 . S
H316 C320 0.929 . S
H317 C326 0.929 . S
C318 H312 0.930 . S
C318 C319 1.367 . S
C318 C326 1.378 . S
C319 C318 1.367 . S
C319 C327 1.433 . S
C320 H316 0.929 . S
C320 C322 1.378 . S
C320 C324 1.350 . S
C321 C324 1.463 . S
C321 C326 1.350 . S
C321 N329 1.427 . S
C322 H313 0.930 . S
C322 C320 1.378 . S
C322 C323 1.367 . S
C323 C322 1.367 . S
C323 C325 1.433 . S
C324 C320 1.350 . S
C324 C321 1.463 . S
C324 N328 1.427 . S
C325 H315 0.929 . S
C325 C323 1.433 . S
C325 N328 1.384 . S
C326 H317 0.929 . S
C326 C318 1.378 . S
C326 C321 1.350 . S
C327 H314 0.929 . S
C327 C319 1.433 . S
C327 N329 1.384 . S
N328 C324 1.427 . S
N328 C325 1.384 . S
N329 C321 1.427 . S
N329 C327 1.384 . S
H330 C336 0.930 . S
H331 C340 0.930 . S
H332 C345 0.929 . S
H333 C343 0.929 . S
H334 C338 0.929 . S
H335 C344 0.929 . S
C336 H330 0.930 . S
C336 C337 1.367 . S
C336 C344 1.378 . S
C337 C336 1.367 . S
C337 C345 1.433 . S
C338 H334 0.929 . S
C338 C340 1.378 . S
C338 C342 1.350 . S
C339 C342 1.463 . S
C339 C344 1.350 . S
C339 N347 1.427 . S
C340 H331 0.930 . S
C340 C338 1.378 . S
C340 C341 1.367 . S
C341 C340 1.367 . S
C341 C343 1.433 . S
C342 C338 1.350 . S
C342 C339 1.463 . S
C342 N346 1.427 . S
C343 H333 0.929 . S
C343 C341 1.433 . S
C343 N346 1.384 . S
C344 H335 0.929 . S
C344 C336 1.378 . S
C344 C339 1.350 . S
C345 H332 0.929 . S
C345 C337 1.433 . S
C345 N347 1.384 . S
N346 C342 1.427 . S
N346 C343 1.384 . S
N347 C339 1.427 . S
N347 C345 1.384 . S
H348 C354 0.930 . S
H349 C358 0.930 . S
H350 C363 0.929 . S
H351 C361 0.929 . S
H352 C356 0.929 . S
H353 C362 0.929 . S
C354 H348 0.930 . S
C354 C355 1.367 . S
C354 C362 1.378 . S
C355 C354 1.367 . S
C355 C363 1.433 . S
C356 H352 0.929 . S
C356 C358 1.378 . S
C356 C360 1.350 . S
C357 C360 1.463 1_544 S
C357 C362 1.350 . S
C357 N365 1.434 . S
C358 H349 0.930 . S
C358 C356 1.378 . S
C358 C359 1.367 . S
C359 C358 1.367 . S
C359 C361 1.433 . S
C360 C356 1.350 . S
C360 C357 1.463 1_566 S
C360 N364 1.434 . S
C361 H351 0.929 . S
C361 C359 1.433 . S
C361 N364 1.397 . S
C362 H353 0.929 . S
C362 C354 1.378 . S
C362 C357 1.350 . S
C363 H350 0.929 . S
C363 C355 1.433 . S
C363 N365 1.397 . S
N364 C360 1.434 . S
N364 C361 1.397 . S
N365 C357 1.434 . S
N365 C363 1.397 . S
H366 C372 0.930 . S
H367 C376 0.930 . S
H368 C381 0.929 . S
H369 C379 0.929 . S
H370 C374 0.929 . S
H371 C380 0.929 . S
C372 H366 0.930 . S
C372 C373 1.367 . S
C372 C380 1.378 . S
C373 C372 1.367 . S
C373 C381 1.433 . S
C374 H370 0.929 . S
C374 C376 1.378 . S
C374 C378 1.350 . S
C375 C378 1.463 . S
C375 C380 1.350 . S
C375 N383 1.427 . S
C376 H367 0.930 . S
C376 C374 1.378 . S
C376 C377 1.367 . S
C377 C376 1.367 . S
C377 C379 1.433 . S
C378 C374 1.350 . S
C378 C375 1.463 . S
C378 N382 1.427 . S
C379 H369 0.929 . S
C379 C377 1.433 . S
C379 N382 1.384 . S
C380 H371 0.929 . S
C380 C372 1.378 . S
C380 C375 1.350 . S
C381 H368 0.929 . S
C381 C373 1.433 . S
C381 N383 1.384 . S
N382 C378 1.427 . S
N382 C379 1.384 . S
N383 C375 1.427 . S
N383 C381 1.384 . S
H384 C390 0.930 . S
H385 C394 0.930 . S
H386 C399 0.929 . S
H387 C397 0.929 . S
H388 C392 0.929 . S
H389 C398 0.929 . S
C390 H384 0.930 . S
C390 C391 1.367 . S
C390 C398 1.378 . S
C391 C390 1.367 . S
C391 C399 1.433 . S
C392 H388 0.929 . S
C392 C394 1.378 . S
C392 C396 1.350 . S
C393 C396 1.463 1_455 S
C393 C398 1.350 . S
C393 N401 1.427 . S
C394 H385 0.930 . S
C394 C392 1.378 . S
C394 C395 1.367 . S
C395 C394 1.367 . S
C395 C397 1.433 . S
C396 C392 1.350 . S
C396 C393 1.463 1_655 S
C396 N400 1.427 . S
C397 H387 0.929 . S
C397 C395 1.433 . S
C397 N400 1.384 . S
C398 H389 0.929 . S
C398 C390 1.378 . S
C398 C393 1.350 . S
C399 H386 0.929 . S
C399 C391 1.433 . S
C399 N401 1.384 . S
N400 C396 1.427 . S
N400 C397 1.384 . S
N401 C393 1.427 . S
N401 C399 1.384 . S
H402 C408 0.930 . S
H403 C412 0.930 . S
H404 C417 0.929 . S
H405 C415 0.929 . S
H406 C410 0.925 1_545 S
H407 C416 0.924 1_565 S
C408 H402 0.930 . S
C408 C409 1.367 . S
C408 C416 1.378 . S
C409 C408 1.367 . S
C409 C417 1.433 . S
C410 H406 0.925 1_565 S
C410 C412 1.378 . S
C410 C414 1.350 . S
C411 C414 1.463 1_545 S
C411 C416 1.350 . S
C411 N419 1.427 . S
C412 H403 0.930 . S
C412 C410 1.378 . S
C412 C413 1.367 . S
C413 C412 1.367 . S
C413 C415 1.433 . S
C414 C410 1.350 . S
C414 C411 1.463 1_565 S
C414 N418 1.427 . S
C415 H405 0.929 . S
C415 C413 1.433 . S
C415 N418 1.384 . S
C416 H407 0.924 1_545 S
C416 C408 1.378 . S
C416 C411 1.350 . S
C417 H404 0.929 . S
C417 C409 1.433 . S
C417 N419 1.384 . S
N418 C414 1.427 . S
N418 C415 1.384 . S
N419 C411 1.427 . S
N419 C417 1.384 . S
H420 C426 0.930 . S
H421 C430 0.930 . S
H422 C435 0.929 . S
H423 C433 0.929 . S
H424 C428 0.929 . S
H425 C434 0.929 . S
C426 H420 0.930 . S
C426 C427 1.367 . S
C426 C434 1.378 . S
C427 C426 1.367 . S
C427 C435 1.433 . S
C428 H424 0.929 . S
C428 C430 1.378 . S
C428 C432 1.350 . S
C429 C432 1.463 . S
C429 C434 1.350 . S
C429 N437 1.427 . S
C430 H421 0.930 . S
C430 C428 1.378 . S
C430 C431 1.367 . S
C431 C430 1.367 . S
C431 C433 1.433 . S
C432 C428 1.350 . S
C432 C429 1.463 . S
C432 N436 1.427 . S
C433 H423 0.929 . S
C433 C431 1.433 . S
C433 N436 1.384 . S
C434 H425 0.929 . S
C434 C426 1.378 . S
C434 C429 1.350 . S
C435 H422 0.929 . S
C435 C427 1.433 . S
C435 N437 1.384 . S
N436 C432 1.427 . S
N436 C433 1.384 . S
N437 C429 1.427 . S
N437 C435 1.384 . S
H438 C444 0.930 . S
H439 C448 0.930 . S
H440 C453 0.929 . S
H441 C451 0.929 . S
H442 C446 0.929 . S
H443 C452 0.929 . S
C444 H438 0.930 . S
C444 C445 1.367 . S
C444 C452 1.378 . S
C445 C444 1.367 . S
C445 C453 1.433 . S
C446 H442 0.929 . S
C446 C448 1.378 . S
C446 C450 1.350 . S
C447 C450 1.463 1_655 S
C447 C452 1.350 . S
C447 N455 1.427 . S
C448 H439 0.930 . S
C448 C446 1.378 . S
C448 C449 1.367 . S
C449 C448 1.367 . S
C449 C451 1.433 . S
C450 C446 1.350 . S
C450 C447 1.463 1_455 S
C450 N454 1.427 . S
C451 H441 0.929 . S
C451 C449 1.433 . S
C451 N454 1.384 . S
C452 H443 0.929 . S
C452 C444 1.378 . S
C452 C447 1.350 . S
C453 H440 0.929 . S
C453 C445 1.433 . S
C453 N455 1.384 . S
N454 C450 1.427 . S
N454 C451 1.384 . S
N455 C447 1.427 . S
N455 C453 1.384 . S
C139 C7 1.542 . S
C143 C117 1.551 . S
C157 C128 1.537 . S
C161 C18 1.535 . S
C175 C73 1.544 . S
C179 C29 1.551 . S
C193 C40 1.546 . S
C197 C84 1.534 . S
C211 C95 1.547 1_556 S
C215 C51 1.549 . S
C229 C62 1.538 1_554 S
C233 C106 1.535 . S
C247 C5 1.336 . S
C251 C93 1.339 . S
C265 C104 1.317 . S
C269 C16 1.341 . S
C283 C27 1.322 . S
C287 C115 1.343 . S
C301 C126 1.327 . S
C305 C38 1.314 . S
C319 C49 1.343 . S
C323 C71 1.327 . S
C337 C60 1.336 . S
C341 C82 1.314 . S
C355 C8 1.583 . S
C359 C85 1.589 . S
C373 C96 1.587 . S
C377 C19 1.593 . S
C391 C107 1.583 . S
C395 C30 1.588 . S
C409 C118 1.585 . S
C413 C41 1.584 . S
C427 C52 1.584 . S
C431 C129 1.591 . S
C445 C74 1.583 . S
C449 C63 1.587 . S
