# Generated by pormake.
# Topology wft, (7)-cn, num edge types: 1
# Building blocks:
#     Node 0, Type 0, BuildingBlock: NUHQUE_clean_sbu_2, # of connection points: 7
#     Node 1, Type 0, BuildingBlock: NUHQUE_clean_sbu_2, # of connection points: 7
#     Node 2, Type 0, BuildingBlock: NUHQUE_clean_sbu_2, # of connection points: 7
#     Node 3, Type 0, BuildingBlock: NUHQUE_clean_sbu_2, # of connection points: 7
#     Node 4, Type 0, BuildingBlock: NUHQUE_clean_sbu_2, # of connection points: 7
#     Node 5, Type 0, BuildingBlock: NUHQUE_clean_sbu_2, # of connection points: 7
#     Node 6, Type 0, BuildingBlock: NUHQUE_clean_sbu_2, # of connection points: 7
#     Node 7, Type 0, BuildingBlock: NUHQUE_clean_sbu_2, # of connection points: 7
#     Edge 8, Type (0, 0), BuildingBlock: CIFDUS_clean_linker_0, # of connection points: 2
#     Edge 9, Type (0, 0), BuildingBlock: CIFDUS_clean_linker_0, # of connection points: 2
#     Edge 10, Type (0, 0), BuildingBlock: CIFDUS_clean_linker_0, # of connection points: 2
#     Edge 11, Type (0, 0), BuildingBlock: CIFDUS_clean_linker_0, # of connection points: 2
#     Edge 12, Type (0, 0), BuildingBlock: CIFDUS_clean_linker_0, # of connection points: 2
#     Edge 13, Type (0, 0), BuildingBlock: CIFDUS_clean_linker_0, # of connection points: 2
#     Edge 14, Type (0, 0), BuildingBlock: CIFDUS_clean_linker_0, # of connection points: 2
#     Edge 15, Type (0, 0), BuildingBlock: CIFDUS_clean_linker_0, # of connection points: 2
#     Edge 16, Type (0, 0), BuildingBlock: CIFDUS_clean_linker_0, # of connection points: 2
#     Edge 17, Type (0, 0), BuildingBlock: CIFDUS_clean_linker_0, # of connection points: 2
#     Edge 18, Type (0, 0), BuildingBlock: CIFDUS_clean_linker_0, # of connection points: 2
#     Edge 19, Type (0, 0), BuildingBlock: CIFDUS_clean_linker_0, # of connection points: 2
#     Edge 20, Type (0, 0), BuildingBlock: CIFDUS_clean_linker_0, # of connection points: 2
#     Edge 21, Type (0, 0), BuildingBlock: CIFDUS_clean_linker_0, # of connection points: 2
#     Edge 22, Type (0, 0), BuildingBlock: CIFDUS_clean_linker_0, # of connection points: 2
#     Edge 23, Type (0, 0), BuildingBlock: CIFDUS_clean_linker_0, # of connection points: 2
#     Edge 24, Type (0, 0), BuildingBlock: CIFDUS_clean_linker_0, # of connection points: 2
#     Edge 25, Type (0, 0), BuildingBlock: CIFDUS_clean_linker_0, # of connection points: 2
#     Edge 26, Type (0, 0), BuildingBlock: CIFDUS_clean_linker_0, # of connection points: 2
#     Edge 27, Type (0, 0), BuildingBlock: CIFDUS_clean_linker_0, # of connection points: 2
#     Edge 28, Type (0, 0), BuildingBlock: CIFDUS_clean_linker_0, # of connection points: 2
#     Edge 29, Type (0, 0), BuildingBlock: CIFDUS_clean_linker_0, # of connection points: 2
#     Edge 30, Type (0, 0), BuildingBlock: CIFDUS_clean_linker_0, # of connection points: 2
#     Edge 31, Type (0, 0), BuildingBlock: CIFDUS_clean_linker_0, # of connection points: 2
#     Edge 32, Type (0, 0), BuildingBlock: CIFDUS_clean_linker_0, # of connection points: 2
#     Edge 33, Type (0, 0), BuildingBlock: CIFDUS_clean_linker_0, # of connection points: 2
#     Edge 34, Type (0, 0), BuildingBlock: CIFDUS_clean_linker_0, # of connection points: 2
#     Edge 35, Type (0, 0), BuildingBlock: CIFDUS_clean_linker_0, # of connection points: 2
# Relax obj value: 0.103
# Max RMSD: 0.180
# Mean RMSD: 0.180
data_MOF--net-wft--node1-NUHQUE_clean_sbu_2--edge1-CIFDUS_clean_linker_0
_symmetry_space_group_name_H-M    P1
_symmetry_Int_Tables_number       1
_symmetry_cell_setting            triclinic
loop_
_symmetry_equiv_pos_as_xyz
'x, y, z'
_cell_length_a     29.591057
_cell_length_b     29.628359
_cell_length_c     31.246102
_cell_angle_alpha  90.135784
_cell_angle_beta   90.018901
_cell_angle_gamma 89.95754
loop_
_atom_site_label
_atom_site_type_symbol
_atom_site_fract_x
_atom_site_fract_y
_atom_site_fract_z
_atom_type_partial_charge
O0 O 0.31188 0.3445 0.45162 0.0
Tb1 Tb 0.33846 0.2774 0.43873 0.0
Eu2 Eu 0.33943 0.17282 0.38816 0.0
C3 C 0.27472 0.34962 0.47426 0.0
O4 O 0.25158 0.3137 0.48522 0.0
C5 C 0.29056 0.19759 0.47321 0.0
O6 O 0.37502 0.10548 0.3866 0.0
C7 C 0.26724 0.17436 0.34083 0.0
C8 C 0.41941 0.1033 0.38892 0.0
O9 O 0.44282 0.14083 0.39155 0.0
C10 C 0.40008 0.26031 0.36087 0.0
C11 C 0.24078 0.18311 0.30159 0.0
C12 C 0.19378 0.18826 0.30629 0.0
C13 C 0.16614 0.19379 0.27042 0.0
C14 C 0.18576 0.19598 0.22985 0.0
C15 C 0.23244 0.18891 0.2236 0.0
C16 C 0.26009 0.18285 0.26019 0.0
O17 O 0.28156 0.23351 0.45046 0.0
O18 O 0.32148 0.16986 0.45851 0.0
O19 O 0.37639 0.2936 0.49669 0.0
O20 O 0.39479 0.23552 0.46081 0.0
C21 C 0.4041 0.25965 0.49447 0.0
O22 O 0.39731 0.21616 0.36534 0.0
O23 O 0.36904 0.28783 0.37641 0.0
O24 O 0.2955 0.1401 0.34156 0.0
O25 O 0.27952 0.20856 0.36508 0.0
H26 H 0.17849 0.18633 0.33778 0.0
H27 H 0.16365 0.20257 0.20295 0.0
H28 H 0.29598 0.17679 0.25667 0.0
O29 O 0.34612 0.67355 0.65567 0.0
Tb30 Tb 0.27792 0.64704 0.65708 0.0
Eu31 Eu 0.17023 0.6538 0.69815 0.0
C32 C 0.35474 0.71434 0.64133 0.0
O33 O 0.3212 0.74274 0.63574 0.0
C34 C 0.20289 0.69594 0.61349 0.0
O35 O 0.10244 0.62199 0.70948 0.0
C36 C 0.18422 0.72568 0.74419 0.0
C37 C 0.09672 0.58027 0.69615 0.0
O38 O 0.13025 0.55971 0.6766 0.0
C39 C 0.24764 0.58353 0.72971 0.0
C40 C 0.18658 0.74824 0.78638 0.0
C41 C 0.18768 0.79571 0.78694 0.0
C42 C 0.18832 0.81958 0.82575 0.0
C43 C 0.18918 0.7954 0.86428 0.0
C44 C 0.18885 0.74792 0.86463 0.0
C45 C 0.18683 0.72428 0.82535 0.0
O46 O 0.23701 0.70453 0.63893 0.0
O47 O 0.17238 0.66751 0.62722 0.0
O48 O 0.30655 0.61345 0.60118 0.0
O49 O 0.24308 0.59121 0.62464 0.0
C50 C 0.2739 0.58483 0.59551 0.0
O51 O 0.20474 0.59028 0.72061 0.0
O52 O 0.27894 0.61298 0.71872 0.0
O53 O 0.14413 0.71384 0.72991 0.0
O54 O 0.21677 0.69763 0.73314 0.0
H55 H 0.18694 0.81419 0.75702 0.0
H56 H 0.18989 0.81375 0.89435 0.0
H57 H 0.18595 0.68771 0.82511 0.0
O58 O 0.66211 0.63043 0.43246 0.0
Tb59 Tb 0.63441 0.69833 0.43386 0.0
Eu60 Eu 0.65218 0.81189 0.39864 0.0
C61 C 0.70111 0.62064 0.45042 0.0
O62 O 0.72805 0.65356 0.46228 0.0
C63 C 0.68344 0.76932 0.48399 0.0
O64 O 0.62258 0.88128 0.38969 0.0
C65 C 0.72561 0.79706 0.35512 0.0
C66 C 0.58085 0.88777 0.40294 0.0
O67 O 0.55952 0.8542 0.42147 0.0
C68 C 0.57876 0.73985 0.35929 0.0
C69 C 0.75024 0.79366 0.31405 0.0
C70 C 0.79694 0.78502 0.31583 0.0
C71 C 0.82278 0.78263 0.27832 0.0
C72 C 0.80144 0.78799 0.23867 0.0
C73 C 0.75449 0.79515 0.23579 0.0
C74 C 0.72895 0.7988 0.27391 0.0
O75 O 0.69151 0.73758 0.45569 0.0
O76 O 0.66229 0.80529 0.47018 0.0
O77 O 0.59414 0.66387 0.48202 0.0
O78 O 0.5828 0.7338 0.47158 0.0
C79 C 0.5709 0.69882 0.49403 0.0
O80 O 0.58855 0.78176 0.37026 0.0
O81 O 0.60368 0.7051 0.37105 0.0
O82 O 0.71345 0.83739 0.36861 0.0
O83 O 0.69693 0.76487 0.36534 0.0
H84 H 0.8134 0.78064 0.34658 0.0
H85 H 0.82163 0.78601 0.20975 0.0
H86 H 0.69285 0.80476 0.27238 0.0
O87 O 0.63686 0.32783 0.65497 0.0
Tb88 Tb 0.70696 0.34797 0.66175 0.0
Eu89 Eu 0.81244 0.34032 0.70442 0.0
C90 C 0.62627 0.29294 0.63092 0.0
O91 O 0.65886 0.2684 0.61441 0.0
C92 C 0.78011 0.29704 0.61936 0.0
O93 O 0.88 0.37436 0.71026 0.0
C94 C 0.80699 0.2662 0.74831 0.0
C95 C 0.88292 0.41789 0.70258 0.0
O96 O 0.84638 0.44026 0.69165 0.0
C97 C 0.73246 0.40533 0.7408 0.0
C98 C 0.8038 0.24054 0.78862 0.0
C99 C 0.8023 0.19321 0.78536 0.0
C100 C 0.80044 0.1666 0.82215 0.0
C101 C 0.79818 0.18747 0.86218 0.0
C102 C 0.80197 0.23467 0.86699 0.0
C103 C 0.80437 0.26132 0.82942 0.0
O104 O 0.74549 0.28878 0.64422 0.0
O105 O 0.80996 0.32626 0.63331 0.0
O106 O 0.69044 0.38535 0.60374 0.0
O107 O 0.74931 0.40346 0.63868 0.0
C108 C 0.72501 0.41232 0.60502 0.0
O109 O 0.77589 0.40022 0.73292 0.0
O110 O 0.70217 0.37692 0.72553 0.0
O111 O 0.84556 0.28581 0.73893 0.0
O112 O 0.77116 0.2881 0.73438 0.0
H113 H 0.80364 0.17703 0.75421 0.0
H114 H 0.79354 0.16591 0.88974 0.0
H115 H 0.80746 0.29765 0.8316 0.0
O116 O 0.82877 0.14037 0.15868 0.0
Tb117 Tb 0.85466 0.20871 0.16635 0.0
Eu118 Eu 0.83376 0.32193 0.20504 0.0
C119 C 0.78664 0.13199 0.14758 0.0
O120 O 0.75696 0.16493 0.14796 0.0
C121 C 0.80073 0.27912 0.12036 0.0
O122 O 0.8618 0.39248 0.20524 0.0
C123 C 0.76077 0.31261 0.25025 0.0
C124 C 0.89262 0.40479 0.23324 0.0
O125 O 0.9035 0.37713 0.26436 0.0
C126 C 0.90694 0.24837 0.24339 0.0
C127 C 0.73606 0.3063 0.2908 0.0
C128 C 0.68942 0.29821 0.28811 0.0
C129 C 0.66316 0.29388 0.32513 0.0
C130 C 0.68409 0.29662 0.36528 0.0
C131 C 0.73108 0.3033 0.3689 0.0
C132 C 0.757 0.30896 0.33128 0.0
O133 O 0.79549 0.24708 0.14871 0.0
O134 O 0.82017 0.31611 0.13395 0.0
O135 O 0.90078 0.18155 0.11833 0.0
O136 O 0.90321 0.25167 0.13232 0.0
C137 C 0.9202 0.2195 0.10892 0.0
O138 O 0.89721 0.29039 0.23267 0.0
O139 O 0.88257 0.21362 0.23043 0.0
O140 O 0.77971 0.35196 0.24281 0.0
O141 O 0.78273 0.27813 0.23364 0.0
H142 H 0.67326 0.29601 0.25699 0.0
H143 H 0.66363 0.29307 0.39386 0.0
H144 H 0.79309 0.31468 0.33341 0.0
O145 O 0.13215 0.15 0.92734 0.0
Tb146 Tb 0.2029 0.13237 0.91998 0.0
Eu147 Eu 0.31224 0.15173 0.88365 0.0
C148 C 0.11946 0.18948 0.9425 0.0
O149 O 0.14957 0.22171 0.9468 0.0
C150 C 0.27068 0.1853 0.96926 0.0
O151 O 0.38159 0.12071 0.88215 0.0
C152 C 0.3041 0.22645 0.84097 0.0
C153 C 0.38507 0.07787 0.89263 0.0
O154 O 0.34847 0.05587 0.90398 0.0
C155 C 0.23858 0.08206 0.84126 0.0
C156 C 0.29722 0.24941 0.79966 0.0
C157 C 0.28694 0.29573 0.80045 0.0
C158 C 0.27875 0.3192 0.7624 0.0
C159 C 0.28066 0.29613 0.7233 0.0
C160 C 0.29115 0.2498 0.72166 0.0
C161 C 0.29977 0.2265 0.76016 0.0
O162 O 0.23792 0.192 0.94178 0.0
O163 O 0.3061 0.16324 0.95515 0.0
O164 O 0.18287 0.0863 0.97069 0.0
O165 O 0.24891 0.08049 0.94453 0.0
C166 C 0.22087 0.06454 0.97268 0.0
O167 O 0.28094 0.09042 0.85175 0.0
O168 O 0.20508 0.10764 0.85482 0.0
O169 O 0.34324 0.20668 0.84799 0.0
O170 O 0.26945 0.20475 0.85743 0.0
H171 H 0.28475 0.31347 0.83079 0.0
H172 H 0.27435 0.31457 0.69395 0.0
H173 H 0.3076 0.19076 0.75949 0.0
O174 O 0.16572 0.84122 0.14553 0.0
Tb175 Tb 0.14453 0.77188 0.1534 0.0
Eu176 Eu 0.15113 0.66947 0.19933 0.0
C177 C 0.20035 0.8509 0.12093 0.0
O178 O 0.22464 0.81783 0.10498 0.0
C179 C 0.19515 0.69696 0.11355 0.0
O180 O 0.1149 0.6053 0.21589 0.0
C181 C 0.22427 0.68239 0.24376 0.0
C182 C 0.075 0.5991 0.19835 0.0
O183 O 0.06025 0.62909 0.17073 0.0
C184 C 0.08443 0.74995 0.23048 0.0
C185 C 0.2476 0.68551 0.28547 0.0
C186 C 0.29518 0.68583 0.28534 0.0
C187 C 0.31944 0.68677 0.32386 0.0
C188 C 0.29585 0.68861 0.36262 0.0
C189 C 0.24835 0.68957 0.36365 0.0
C190 C 0.22413 0.68722 0.32475 0.0
O191 O 0.20353 0.73224 0.13758 0.0
O192 O 0.1654 0.668 0.12809 0.0
O193 O 0.1069 0.78816 0.09533 0.0
O194 O 0.08887 0.72961 0.13044 0.0
C195 C 0.07969 0.7538 0.09687 0.0
O196 O 0.08899 0.70645 0.22291 0.0
O197 O 0.11438 0.77915 0.2163 0.0
O198 O 0.21065 0.64228 0.23105 0.0
O199 O 0.19719 0.71552 0.23219 0.0
H200 H 0.31339 0.68434 0.25525 0.0
H201 H 0.3148 0.68914 0.39235 0.0
H202 H 0.18751 0.68719 0.32498 0.0
O203 O 0.84982 0.82277 0.9355 0.0
Tb204 Tb 0.78254 0.85204 0.93807 0.0
Eu205 Eu 0.67287 0.8411 0.89947 0.0
C206 C 0.85976 0.78758 0.95931 0.0
O207 O 0.82701 0.76669 0.97945 0.0
C208 C 0.70883 0.8034 0.98476 0.0
O209 O 0.60401 0.87247 0.8927 0.0
C210 C 0.68376 0.76663 0.8566 0.0
C211 C 0.5996 0.91541 0.90273 0.0
O212 O 0.63501 0.93756 0.91696 0.0
C213 C 0.74782 0.91041 0.86071 0.0
C214 C 0.68977 0.74005 0.81688 0.0
C215 C 0.70018 0.69406 0.82155 0.0
C216 C 0.70582 0.66644 0.78565 0.0
C217 C 0.70229 0.68514 0.74479 0.0
C218 C 0.69075 0.73093 0.73861 0.0
C219 C 0.68464 0.75848 0.77543 0.0
O220 O 0.74269 0.79473 0.959 0.0
O221 O 0.67723 0.83063 0.97091 0.0
O222 O 0.81765 0.8854 0.99055 0.0
O223 O 0.7508 0.90626 0.97576 0.0
C224 C 0.78522 0.91274 1.00108 0.0
O225 O 0.70519 0.90183 0.86943 0.0
O226 O 0.78153 0.88625 0.87629 0.0
O227 O 0.64379 0.78389 0.8652 0.0
O228 O 0.71782 0.79093 0.8709 0.0
H229 H 0.70341 0.67954 0.85325 0.0
H230 H 0.70944 0.66335 0.71777 0.0
H231 H 0.67551 0.79369 0.77215 0.0
H232 H 0.18876 0.15796 0.15241 0.0
H233 H 0.31742 0.21258 0.19223 0.0
H234 H 0.34246 0.21312 0.1174 0.0
H235 H 0.32522 0.20259 1.03921 0.0
H236 H 0.18973 0.16433 1.00337 0.0
H237 H 0.16933 0.15503 0.07775 0.0
C238 C 0.22187 0.17157 0.14528 0.0
C239 C 0.2504 0.18648 0.17859 0.0
C240 C 0.23473 0.17508 0.10234 0.0
C241 C 0.29434 0.20085 0.16774 0.0
C242 C 0.30858 0.20166 0.12474 0.0
C243 C 0.29127 0.19242 0.04791 0.0
C244 C 0.25925 0.18339 1.01549 0.0
C245 C 0.27869 0.18963 0.09156 0.0
C246 C 0.21522 0.17093 1.02729 0.0
C247 C 0.20343 0.16558 0.07002 0.0
H248 H 0.14713 0.6629 1.04546 0.0
H249 H 0.2668 0.7389 0.0775 0.0
H250 H 0.27796 0.75763 1.00226 0.0
H251 H 0.24924 0.7596 0.92867 0.0
H252 H 0.12946 0.68485 0.8954 0.0
H253 H 0.1232 0.65771 0.96937 0.0
C254 C 0.17626 0.68258 1.0358 0.0
C255 C 0.2059 0.69989 0.06719 0.0
C256 C 0.18222 0.69374 0.99223 0.0
C257 C 0.24325 0.72562 0.0541 0.0
C258 C 0.24964 0.7364 1.01105 0.0
C259 C 0.22222 0.7367 0.93751 0.0
C260 C 0.1897 0.72444 0.90673 0.0
C261 C 0.21863 0.7218 0.98005 0.0
C262 C 0.15503 0.69455 0.91846 0.0
C263 C 0.15129 0.67935 0.96084 0.0
H264 H 0.67552 0.84908 0.05449 0.0
H265 H 0.75212 0.73113 1.01818 0.0
H266 H 0.7693 0.71595 0.09314 0.0
H267 H 0.7681 0.7394 0.16819 0.0
H268 H 0.69424 0.85844 0.20583 0.0
H269 H 0.66946 0.86939 0.13156 0.0
C270 C 0.69522 0.8196 0.06313 0.0
C271 C 0.7129 0.79144 1.03071 0.0
C272 C 0.70558 0.81138 0.10656 0.0
C273 C 0.73866 0.75361 1.04241 0.0
C274 C 0.74844 0.74487 0.08531 0.0
C275 C 0.7463 0.76761 0.16022 0.0
C276 C 0.73349 0.79838 0.19245 0.0
C277 C 0.73304 0.7741 0.11751 0.0
C278 C 0.70451 0.83422 0.18171 0.0
C279 C 0.69064 0.84065 0.13916 0.0
H280 H 0.83539 0.19487 0.93929 0.0
H281 H 0.77493 0.31968 0.89645 0.0
H282 H 0.77302 0.34662 0.97068 0.0
H283 H 0.78339 0.33165 0.04931 0.0
H284 H 0.82324 0.19775 0.08789 0.0
H285 H 0.83595 0.17649 1.01409 0.0
C286 C 0.81994 0.22737 0.94552 0.0
C287 C 0.80389 0.25423 0.91151 0.0
C288 C 0.81494 0.24089 0.98815 0.0
C289 C 0.78757 0.29777 0.9214 0.0
C290 C 0.78591 0.31308 0.96409 0.0
C291 C 0.79468 0.29785 1.04132 0.0
C292 C 0.80385 0.26674 0.07439 0.0
C293 C 0.79862 0.28447 0.99795 0.0
C294 C 0.81723 0.22274 0.06349 0.0
C295 C 0.82436 0.21044 1.0211 0.0
H296 H 0.71742 0.24403 0.43359 0.0
H297 H 0.79108 0.36488 0.40198 0.0
H298 H 0.81694 0.37133 0.47636 0.0
H299 H 0.8124 0.34633 0.55189 0.0
H300 H 0.73664 0.22638 0.58269 0.0
H301 H 0.71784 0.21583 0.50723 0.0
C302 C 0.73941 0.27164 0.44291 0.0
C303 C 0.75192 0.3042 0.41237 0.0
C304 C 0.75357 0.27538 0.4857 0.0
C305 C 0.78107 0.3393 0.4248 0.0
C306 C 0.79561 0.34313 0.4674 0.0
C307 C 0.79262 0.31735 0.54193 0.0
C308 C 0.7757 0.28725 0.57295 0.0
C309 C 0.78131 0.31186 0.49836 0.0
C310 C 0.74972 0.25018 0.55953 0.0
C311 C 0.73892 0.24416 0.51638 0.0
H312 H 0.22925 0.25331 0.65786 0.0
H313 H 0.3586 0.19577 0.69012 0.0
H314 H 0.36764 0.16887 0.61631 0.0
H315 H 0.34249 0.16996 0.54068 0.0
H316 H 0.21398 0.23003 0.50907 0.0
H317 H 0.20068 0.24744 0.58445 0.0
C318 C 0.25918 0.23439 0.64882 0.0
C319 C 0.29344 0.22695 0.67924 0.0
C320 C 0.26435 0.21971 0.60634 0.0
C321 C 0.33172 0.20182 0.6673 0.0
C322 C 0.337 0.18671 0.62503 0.0
C323 C 0.31106 0.18573 0.5505 0.0
C324 C 0.27929 0.19893 0.51935 0.0
C325 C 0.30405 0.1965 0.59398 0.0
C326 C 0.23901 0.21985 0.53247 0.0
C327 C 0.23146 0.22993 0.57554 0.0
H328 H 0.26665 0.74762 0.42824 0.0
H329 H 0.17995 0.63626 0.39464 0.0
H330 H 0.15383 0.63142 0.46905 0.0
H331 H 0.16315 0.6531 0.54528 0.0
H332 H 0.25293 0.76265 0.57788 0.0
H333 H 0.27044 0.77386 0.50242 0.0
C334 C 0.24155 0.72266 0.43712 0.0
C335 C 0.2256 0.69203 0.4061 0.0
C336 C 0.22771 0.71941 0.47996 0.0
C337 C 0.19262 0.66032 0.41787 0.0
C338 C 0.17803 0.6573 0.46051 0.0
C339 C 0.18582 0.68 0.53577 0.0
C340 C 0.20708 0.70674 0.5673 0.0
C341 C 0.19639 0.68581 0.4921 0.0
C342 C 0.23655 0.74128 0.55439 0.0
C343 C 0.24657 0.74774 0.5112 0.0
H344 H 0.66306 0.68459 0.66725 0.0
H345 H 0.70612 0.81753 0.70708 0.0
H346 H 0.70416 0.84249 0.63245 0.0
H347 H 0.69541 0.82457 0.55436 0.0
H348 H 0.66868 0.68669 0.5178 0.0
H349 H 0.66119 0.66531 0.59221 0.0
C350 C 0.67349 0.71879 0.66016 0.0
C351 C 0.68588 0.74851 0.69357 0.0
C352 C 0.67565 0.732 0.61715 0.0
C353 C 0.69626 0.79351 0.68268 0.0
C354 C 0.69569 0.80777 0.63972 0.0
C355 C 0.68808 0.78989 0.56287 0.0
C356 C 0.68188 0.75742 0.53022 0.0
C357 C 0.6863 0.77702 0.60649 0.0
C358 C 0.67313 0.71251 0.54186 0.0
C359 C 0.66881 0.70017 0.58462 0.0
H360 H 0.50929 0.08705 0.37878 0.0
H361 H 0.38206 0.02038 0.40244 0.0
H362 H 0.42097 0.94798 0.40851 0.0
H363 H 0.49106 0.90398 0.40895 0.0
H364 H 0.61826 0.96963 0.38317 0.0
H365 H 0.57933 0.04218 0.37593 0.0
C366 C 0.49005 0.05666 0.38519 0.0
C367 C 0.44284 0.05918 0.39042 0.0
C368 C 0.51262 0.01505 0.38833 0.0
C369 C 0.41839 0.01942 0.39826 0.0
C370 C 0.44063 0.97801 0.40185 0.0
C371 C 0.51034 0.93415 0.40177 0.0
C372 C 0.55755 0.93151 0.39699 0.0
C373 C 0.48772 0.9755 0.39727 0.0
C374 C 0.58191 0.97079 0.38708 0.0
C375 C 0.55967 0.01226 0.38301 0.0
H376 H 0.89729 0.50776 0.71094 0.0
H377 H 0.96694 0.38037 0.69846 0.0
H378 H 0.03952 0.41963 0.69649 0.0
H379 H 0.0827 0.4902 0.69512 0.0
H380 H 0.0136 0.61753 0.71028 0.0
H381 H 0.94107 0.57816 0.7147 0.0
C382 C 0.92839 0.48861 0.7079 0.0
C383 C 0.92683 0.44131 0.70439 0.0
C384 C 0.96994 0.51135 0.70721 0.0
C385 C 0.96733 0.41682 0.70116 0.0
C386 C 0.00879 0.43924 0.6999 0.0
C387 C 0.05175 0.50933 0.69948 0.0
C388 C 0.05331 0.55668 0.70187 0.0
C389 C 0.01041 0.48649 0.70237 0.0
C390 C 0.01315 0.58103 0.70827 0.0
C391 C 0.97172 0.55856 0.71066 0.0
H392 H 0.97374 0.42689 0.26837 0.0
H393 H 0.87187 0.47507 0.18067 0.0
H394 H 0.91928 0.53969 0.16268 0.0
H395 H 0.99066 0.5806 0.16948 0.0
H396 H 0.09369 0.53181 0.25564 0.0
H397 H 0.04481 0.46906 0.27642 0.0
C398 C 0.96165 0.45183 0.24573 0.0
C399 C 0.91929 0.44621 0.22591 0.0
C400 C 0.98948 0.48844 0.23488 0.0
C401 C 0.90435 0.47858 0.19633 0.0
C402 C 0.93149 0.51547 0.18592 0.0
C403 C 0.00253 0.55627 0.19281 0.0
C404 C 0.04589 0.56076 0.21079 0.0
C405 C 0.97435 0.52035 0.20453 0.0
C406 C 0.06056 0.52902 0.24112 0.0
C407 C 0.03258 0.4932 0.25311 0.0
H408 H 0.39948 0.98763 0.89209 0.0
H409 H 0.46936 0.11543 0.89194 0.0
H410 H 0.54205 0.07615 0.89465 0.0
H411 H 0.5854 0.00561 0.89909 0.0
H412 H 0.51562 0.87778 0.89645 0.0
H413 H 0.44298 0.91706 0.89264 0.0
C414 C 0.43062 0.00691 0.89263 0.0
C415 C 0.4291 0.05437 0.89222 0.0
C416 C 0.47217 0.98412 0.89373 0.0
C417 C 0.46969 0.07888 0.89229 0.0
C418 C 0.51121 0.05644 0.89394 0.0
C419 C 0.55429 0.98633 0.89768 0.0
C420 C 0.55579 0.93887 0.89846 0.0
C421 C 0.5128 0.0091 0.89502 0.0
C422 C 0.5153 0.91433 0.89595 0.0
C423 C 0.47379 0.93677 0.89387 0.0
H424 H 0.46455 0.21856 0.31307 0.0
H425 H 0.4362 0.34286 0.38016 0.0
H426 H 0.51532 0.36525 0.3736 0.0
H427 H 0.59443 0.34548 0.35591 0.0
H428 H 0.62221 0.22221 0.28738 0.0
H429 H 0.54164 0.20325 0.28758 0.0
C430 C 0.47544 0.25103 0.32542 0.0
C431 C 0.44441 0.27883 0.34728 0.0
C432 C 0.52114 0.26348 0.32197 0.0
C433 C 0.45913 0.32089 0.3629 0.0
C434 C 0.50458 0.33351 0.35962 0.0
C435 C 0.58258 0.31474 0.34069 0.0
C436 C 0.61398 0.28497 0.32204 0.0
C437 C 0.53614 0.30442 0.34044 0.0
C438 C 0.59848 0.24549 0.30195 0.0
C439 C 0.5525 0.23467 0.30212 0.0
H440 H 0.3346 0.392 0.76505 0.0
H441 H 0.19435 0.35366 0.7602 0.0
H442 H 0.17199 0.43308 0.75484 0.0
H443 H 0.19258 0.51225 0.74605 0.0
H444 H 0.33309 0.55148 0.74694 0.0
H445 H 0.35514 0.47314 0.76029 0.0
C446 C 0.29921 0.40138 0.7634 0.0
C447 C 0.26599 0.36745 0.76315 0.0
C448 C 0.28674 0.44713 0.75965 0.0
C449 C 0.22026 0.37949 0.7606 0.0
C450 C 0.20757 0.42478 0.75749 0.0
C451 C 0.22808 0.50403 0.7498 0.0
C452 C 0.2611 0.53799 0.74529 0.0
C453 C 0.24054 0.4588 0.75627 0.0
C454 C 0.30687 0.52625 0.75027 0.0
C455 C 0.31955 0.48132 0.75765 0.0
H456 H 0.52575 0.66569 0.36787 0.0
H457 H 0.53045 0.79646 0.30773 0.0
H458 H 0.45122 0.78902 0.28647 0.0
H459 H 0.37803 0.7492 0.29258 0.0
H460 H 0.37243 0.6219 0.35862 0.0
H461 H 0.45429 0.62378 0.36971 0.0
C462 C 0.50981 0.69203 0.3491 0.0
C463 C 0.5341 0.73147 0.33919 0.0
C464 C 0.46372 0.68832 0.33853 0.0
C465 C 0.51256 0.76571 0.31567 0.0
C466 C 0.46716 0.76157 0.3037 0.0
C467 C 0.39508 0.72153 0.30855 0.0
C468 C 0.36953 0.68537 0.32463 0.0
C469 C 0.442 0.72364 0.31606 0.0
C470 C 0.39163 0.64998 0.34593 0.0
C471 C 0.43835 0.65113 0.35236 0.0
H472 H 0.64837 0.59774 0.76956 0.0
H473 H 0.78458 0.62643 0.80962 0.0
H474 H 0.8038 0.54597 0.80464 0.0
H475 H 0.7838 0.46929 0.78075 0.0
H476 H 0.64701 0.44085 0.74078 0.0
H477 H 0.62571 0.519 0.75499 0.0
C478 C 0.68194 0.58602 0.77806 0.0
C479 C 0.71515 0.61757 0.78987 0.0
C480 C 0.69259 0.53985 0.77503 0.0
C481 C 0.75858 0.60247 0.80069 0.0
C482 C 0.76953 0.55659 0.79763 0.0
C483 C 0.74906 0.47987 0.77601 0.0
C484 C 0.71724 0.44913 0.75921 0.0
C485 C 0.73712 0.52515 0.78371 0.0
C486 C 0.67231 0.46354 0.75363 0.0
C487 C 0.66013 0.50845 0.76142 0.0
H488 H 0.95818 0.17226 0.2383 0.0
H489 H 0.95743 0.3067 0.29155 0.0
H490 H 0.03736 0.2997 0.30989 0.0
H491 H 0.11013 0.25914 0.30176 0.0
H492 H 0.11099 0.12694 0.24422 0.0
H493 H 0.02872 0.12894 0.23698 0.0
C494 C 0.97511 0.19957 0.255 0.0
C495 C 0.95177 0.24005 0.26329 0.0
C496 C 0.02151 0.19587 0.26421 0.0
C497 C 0.97458 0.27527 0.2845 0.0
C498 C 0.02042 0.27137 0.29487 0.0
C499 C 0.09197 0.23048 0.28867 0.0
C500 C 0.11623 0.1929 0.27365 0.0
C501 C 0.04466 0.23245 0.28351 0.0
C502 C 0.09271 0.1561 0.25609 0.0
C503 C 0.04576 0.15733 0.25181 0.0
H504 H 0.16907 0.02795 0.8639 0.0
H505 H 0.28745 0.03265 0.78373 0.0
H506 H 0.27982 0.95188 0.76833 0.0
H507 H 0.2442 0.87822 0.78417 0.0
H508 H 0.13024 0.87335 0.86992 0.0
H509 H 0.13139 0.95555 0.87679 0.0
C510 C 0.19237 0.01159 0.84199 0.0
C511 C 0.22835 0.03641 0.82438 0.0
C512 C 0.18906 0.96477 0.83504 0.0
C513 C 0.25916 0.01436 0.79722 0.0
C514 C 0.25502 0.9681 0.78873 0.0
C515 C 0.21926 0.89534 0.8038 0.0
C516 C 0.18727 0.86979 0.82663 0.0
C517 C 0.22087 0.94267 0.80845 0.0
C518 C 0.15542 0.89229 0.85235 0.0
C519 C 0.15599 0.93928 0.85618 0.0
H520 H 0.89151 0.83682 0.25279 0.0
H521 H 0.86352 0.70608 0.3065 0.0
H522 H 0.94355 0.68547 0.3004 0.0
H523 H 0.02 0.70241 0.27353 0.0
H524 H 0.04831 0.83441 0.22192 0.0
H525 H 0.97012 0.85711 0.23434 0.0
C526 C 0.90326 0.80412 0.26372 0.0
C527 C 0.87191 0.77284 0.27984 0.0
C528 C 0.94934 0.79277 0.2605 0.0
C529 C 0.88724 0.73064 0.29412 0.0
C530 C 0.9329 0.71885 0.29048 0.0
C531 C 0.00931 0.73645 0.26578 0.0
C532 C 0.04009 0.76649 0.24653 0.0
C533 C 0.9641 0.74932 0.27289 0.0
C534 C 0.0256 0.81056 0.23692 0.0
C535 C 0.98067 0.8235 0.24367 0.0
H536 H 0.73893 0.10773 0.78901 0.0
H537 H 0.86742 0.1144 0.85346 0.0
H538 H 0.86641 0.03277 0.86465 0.0
H539 H 0.82374 0.96186 0.86569 0.0
H540 H 0.69251 0.95591 0.80581 0.0
H541 H 0.70011 0.03413 0.78252 0.0
C542 C 0.76715 0.09092 0.80439 0.0
C543 C 0.80319 0.11672 0.82039 0.0
C544 C 0.76563 0.04406 0.81192 0.0
C545 C 0.83939 0.09494 0.84086 0.0
C546 C 0.83872 0.04836 0.84743 0.0
C547 C 0.79741 0.97721 0.84642 0.0
C548 C 0.75754 0.95308 0.83775 0.0
C549 C 0.80128 0.0228 0.83445 0.0
C550 C 0.7235 0.97378 0.81316 0.0
C551 C 0.72769 0.01865 0.79999 0.0
H552 H 0.32141 0.4284 0.46726 0.0
H553 H 0.20204 0.37047 0.5244 0.0
H554 H 0.18867 0.44013 0.56421 0.0
H555 H 0.21514 0.51479 0.58834 0.0
H556 H 0.33575 0.57147 0.53278 0.0
H557 H 0.34409 0.50537 0.48662 0.0
C558 C 0.29208 0.43121 0.4879 0.0
C559 C 0.26308 0.39406 0.4931 0.0
C560 C 0.28497 0.47112 0.5113 0.0
C561 C 0.22513 0.39842 0.51993 0.0
C562 C 0.21748 0.43823 0.54286 0.0
C563 C 0.24281 0.51286 0.56565 0.0
C564 C 0.275 0.54761 0.56415 0.0
C565 C 0.24782 0.47438 0.53966 0.0
C566 C 0.31071 0.54489 0.53466 0.0
C567 C 0.31555 0.50708 0.5083 0.0
H568 H 0.51379 0.76639 0.51785 0.0
H569 H 0.55252 0.62952 0.54725 0.0
H570 H 0.49283 0.62483 0.60081 0.0
H571 H 0.42533 0.65658 0.6338 0.0
H572 H 0.38319 0.79203 0.60234 0.0
H573 H 0.44912 0.80075 0.556 0.0
C574 C 0.50927 0.73577 0.53633 0.0
C575 C 0.53688 0.69813 0.5283 0.0
C576 C 0.47438 0.73308 0.56675 0.0
C577 C 0.53115 0.65872 0.55254 0.0
C578 C 0.49714 0.65604 0.58325 0.0
C579 C 0.43089 0.68837 0.61749 0.0
C580 C 0.39905 0.72338 0.62118 0.0
C581 C 0.46792 0.6926 0.58988 0.0
C582 C 0.40705 0.7644 0.59991 0.0
C583 C 0.44459 0.76932 0.57315 0.0
H584 H 0.68 0.42872 0.53151 0.0
H585 H 0.78812 0.4789 0.61095 0.0
H586 H 0.79499 0.54569 0.56544 0.0
H587 H 0.764 0.59355 0.50849 0.0
H588 H 0.65386 0.54424 0.43072 0.0
H589 H 0.65475 0.47288 0.46954 0.0
C590 C 0.7054 0.45407 0.5385 0.0
C591 C 0.73304 0.44946 0.57477 0.0
C592 C 0.70876 0.49248 0.51252 0.0
C593 C 0.76623 0.48207 0.58331 0.0
C594 C 0.77011 0.52023 0.55735 0.0
C595 C 0.74083 0.56687 0.49934 0.0
C596 C 0.70852 0.57449 0.46707 0.0
C597 C 0.74068 0.52637 0.52259 0.0
C598 C 0.67883 0.53944 0.45565 0.0
C599 C 0.67914 0.49868 0.478 0.0
H600 H 0.42666 0.309 0.56411 0.0
H601 H 0.47063 0.19681 0.48637 0.0
H602 H 0.54207 0.19383 0.52567 0.0
H603 H 0.59489 0.22858 0.57646 0.0
H604 H 0.5517 0.34245 0.65271 0.0
H605 H 0.47682 0.33887 0.62009 0.0
C606 C 0.45167 0.28351 0.55625 0.0
C607 C 0.44383 0.25351 0.52219 0.0
C608 C 0.49284 0.28249 0.57852 0.0
C609 C 0.47616 0.22039 0.5124 0.0
C610 C 0.51702 0.21879 0.53475 0.0
C611 C 0.56893 0.25222 0.58646 0.0
C612 C 0.57911 0.28612 0.61657 0.0
C613 C 0.52621 0.2505 0.56703 0.0
C614 C 0.54492 0.31622 0.62937 0.0
C615 C 0.5021 0.31432 0.61063 0.0
H616 H 0.72215 0.975 1.02546 0.0
H617 H 0.85715 0.92795 0.05247 0.0
H618 H 0.86775 0.98891 0.10403 0.0
H619 H 0.84141 0.0592 0.13668 0.0
H620 H 0.70692 0.10777 0.10938 0.0
H621 H 0.69316 0.04236 0.0635 0.0
C622 C 0.75365 0.97796 1.043 0.0
C623 C 0.789 0.94744 1.03485 0.0
C624 C 0.75968 0.0134 0.07255 0.0
C625 C 0.82956 0.95131 0.05794 0.0
C626 C 0.83568 0.98616 0.08746 0.0
C627 C 0.80881 0.05521 0.12126 0.0
C628 C 0.77548 0.08866 0.12621 0.0
C629 C 0.80136 0.01794 0.09435 0.0
C630 C 0.73333 0.08267 0.1061 0.0
C631 C 0.72547 0.04535 0.07961 0.0
H632 H 0.94048 0.16053 1.04627 0.0
H633 H 0.97813 0.29016 0.09796 0.0
H634 H 0.04085 0.29496 1.04687 0.0
H635 H 0.08869 0.25873 0.9922 0.0
H636 H 0.05033 0.12868 0.94113 0.0
H637 H 0.98353 0.12807 0.98671 0.0
C638 C 0.96232 0.18993 1.04613 0.0
C639 C 0.95545 0.2246 0.07612 0.0
C640 C -0.002 0.1924 1.01674 0.0
C641 C 0.98321 0.26294 0.07526 0.0
C642 C 0.01899 0.26564 1.04612 0.0
C643 C 0.0653 0.23063 0.99042 0.0
C644 C 0.07487 0.19355 0.96363 0.0
C645 C 0.02725 0.23011 1.0173 0.0
C646 C 0.04405 0.15751 0.96167 0.0
C647 C 0.0059 0.15699 0.98789 0.0
H648 H 0.26237 0.88061 0.06329 0.0
H649 H 0.15004 0.92516 0.14097 0.0
H650 H 0.14933 -0.00264 0.1038 0.0
H651 H 0.17451 0.04399 1.04378 0.0
H652 H 0.28616 4e-05 0.96548 0.0
H653 H 0.29345 0.93133 1.00851 0.0
C654 C 0.23823 0.90639 0.07261 0.0
C655 C 0.20582 0.89721 0.10436 0.0
C656 C 0.23752 0.94762 0.05064 0.0
C657 C 0.17509 0.93115 0.11635 0.0
C658 C 0.17449 0.97241 0.095 0.0
C659 C 0.2007 0.0195 1.03649 0.0
C660 C 0.2293 0.02632 1.00133 0.0
C661 C 0.20451 0.98033 0.06118 0.0
C662 C 0.26366 -0.00493 0.9924 0.0
C663 C 0.26772 0.95585 1.01688 0.0
H664 H 0.89058 0.72195 1.01231 0.0
H665 H 0.93551 0.83391 0.93506 0.0
H666 H 0.01025 0.82972 0.96792 0.0
H667 H 0.05907 0.80125 1.02564 0.0
H668 H 0.01309 0.69117 0.10445 0.0
H669 H 0.94257 0.68745 0.06379 0.0
C670 C 0.91693 0.74493 1.00203 0.0
C671 C 0.90719 0.77869 0.97178 0.0
C672 C 0.95946 0.74305 1.02179 0.0
C673 C 0.94193 0.80782 0.95851 0.0
C674 C 0.98464 0.80563 0.97748 0.0
C675 C 0.03384 0.77603 1.03341 0.0
C676 C 0.04075 0.74698 0.06828 0.0
C677 C -0.00681 0.77454 1.01029 0.0
C678 C 0.00822 0.71409 0.07788 0.0
C679 C 0.9679 0.71204 0.05472 0.0
loop_
_geom_bond_atom_site_label_1
_geom_bond_atom_site_label_2
_geom_bond_distance
_geom_bond_site_symmetry_2
_ccdc_geom_bond_type
O0 Tb1 2.292 . S
O0 C3 1.255 . S
Tb1 O0 2.292 . S
Tb1 O17 2.326 . S
Tb1 O19 2.500 . S
Tb1 O20 2.473 . S
Tb1 O23 2.324 . S
Eu2 O6 2.292 . S
Eu2 C7 2.852 . S
Eu2 O18 2.324 . S
Eu2 O22 2.326 . S
Eu2 O24 2.500 . S
Eu2 O25 2.473 . S
C3 O0 1.255 . S
C3 O4 1.247 . S
O4 C3 1.247 . S
C5 O17 1.242 . S
C5 O18 1.258 . S
O6 Eu2 2.292 . S
O6 C8 1.255 . S
C7 Eu2 2.852 . S
C7 C11 1.503 . S
C7 O24 1.273 . S
C7 O25 1.257 . S
C8 O6 1.255 . S
C8 O9 1.247 . S
O9 C8 1.247 . S
C10 O22 1.242 . S
C10 O23 1.258 . S
C11 C7 1.503 . S
C11 C12 1.379 . S
C11 C16 1.392 . S
C12 C11 1.379 . S
C12 C13 1.404 . S
C12 H26 0.929 . S
C13 C12 1.404 . S
C13 C14 1.389 . S
C14 C13 1.389 . S
C14 C15 1.399 . S
C14 H27 0.931 . S
C15 C14 1.399 . S
C15 C16 1.390 . S
C16 C11 1.392 . S
C16 C15 1.390 . S
C16 H28 0.929 . S
O17 Tb1 2.326 . S
O17 C5 1.242 . S
O18 Eu2 2.324 . S
O18 C5 1.258 . S
O19 Tb1 2.500 . S
O19 C21 1.273 . S
O20 Tb1 2.473 . S
O20 C21 1.257 . S
C21 O19 1.273 . S
C21 O20 1.257 . S
O22 Eu2 2.326 . S
O22 C10 1.242 . S
O23 Tb1 2.324 . S
O23 C10 1.258 . S
O24 Eu2 2.500 . S
O24 C7 1.273 . S
O25 Eu2 2.473 . S
O25 C7 1.257 . S
H26 C12 0.929 . S
H27 C14 0.931 . S
H28 C16 0.929 . S
O29 Tb30 2.292 . S
O29 C32 1.255 . S
Tb30 O29 2.292 . S
Tb30 O46 2.326 . S
Tb30 O48 2.500 . S
Tb30 O49 2.473 . S
Tb30 O52 2.324 . S
Eu31 O35 2.292 . S
Eu31 C36 2.852 . S
Eu31 O47 2.324 . S
Eu31 O51 2.326 . S
Eu31 O53 2.500 . S
Eu31 O54 2.473 . S
C32 O29 1.255 . S
C32 O33 1.247 . S
O33 C32 1.247 . S
C34 O46 1.242 . S
C34 O47 1.258 . S
O35 Eu31 2.292 . S
O35 C37 1.255 . S
C36 Eu31 2.852 . S
C36 C40 1.503 . S
C36 O53 1.273 . S
C36 O54 1.257 . S
C37 O35 1.255 . S
C37 O38 1.247 . S
O38 C37 1.247 . S
C39 O51 1.242 . S
C39 O52 1.258 . S
C40 C36 1.503 . S
C40 C41 1.379 . S
C40 C45 1.392 . S
C41 C40 1.379 . S
C41 C42 1.404 . S
C41 H55 0.929 . S
C42 C41 1.404 . S
C42 C43 1.389 . S
C43 C42 1.389 . S
C43 C44 1.399 . S
C43 H56 0.931 . S
C44 C43 1.399 . S
C44 C45 1.390 . S
C45 C40 1.392 . S
C45 C44 1.390 . S
C45 H57 0.929 . S
O46 Tb30 2.326 . S
O46 C34 1.242 . S
O47 Eu31 2.324 . S
O47 C34 1.258 . S
O48 Tb30 2.500 . S
O48 C50 1.273 . S
O49 Tb30 2.473 . S
O49 C50 1.257 . S
C50 O48 1.273 . S
C50 O49 1.257 . S
O51 Eu31 2.326 . S
O51 C39 1.242 . S
O52 Tb30 2.324 . S
O52 C39 1.258 . S
O53 Eu31 2.500 . S
O53 C36 1.273 . S
O54 Eu31 2.473 . S
O54 C36 1.257 . S
H55 C41 0.929 . S
H56 C43 0.931 . S
H57 C45 0.929 . S
O58 Tb59 2.292 . S
O58 C61 1.255 . S
Tb59 O58 2.292 . S
Tb59 O75 2.326 . S
Tb59 O77 2.500 . S
Tb59 O78 2.473 . S
Tb59 O81 2.324 . S
Eu60 O64 2.292 . S
Eu60 C65 2.852 . S
Eu60 O76 2.324 . S
Eu60 O80 2.326 . S
Eu60 O82 2.500 . S
Eu60 O83 2.473 . S
C61 O58 1.255 . S
C61 O62 1.247 . S
O62 C61 1.247 . S
C63 O75 1.242 . S
C63 O76 1.258 . S
O64 Eu60 2.292 . S
O64 C66 1.255 . S
C65 Eu60 2.852 . S
C65 C69 1.503 . S
C65 O82 1.273 . S
C65 O83 1.257 . S
C66 O64 1.255 . S
C66 O67 1.247 . S
O67 C66 1.247 . S
C68 O80 1.242 . S
C68 O81 1.258 . S
C69 C65 1.503 . S
C69 C70 1.379 . S
C69 C74 1.392 . S
C70 C69 1.379 . S
C70 C71 1.404 . S
C70 H84 0.929 . S
C71 C70 1.404 . S
C71 C72 1.389 . S
C72 C71 1.389 . S
C72 C73 1.399 . S
C72 H85 0.931 . S
C73 C72 1.399 . S
C73 C74 1.390 . S
C74 C69 1.392 . S
C74 C73 1.390 . S
C74 H86 0.929 . S
O75 Tb59 2.326 . S
O75 C63 1.242 . S
O76 Eu60 2.324 . S
O76 C63 1.258 . S
O77 Tb59 2.500 . S
O77 C79 1.273 . S
O78 Tb59 2.473 . S
O78 C79 1.257 . S
C79 O77 1.273 . S
C79 O78 1.257 . S
O80 Eu60 2.326 . S
O80 C68 1.242 . S
O81 Tb59 2.324 . S
O81 C68 1.258 . S
O82 Eu60 2.500 . S
O82 C65 1.273 . S
O83 Eu60 2.473 . S
O83 C65 1.257 . S
H84 C70 0.929 . S
H85 C72 0.931 . S
H86 C74 0.929 . S
O87 Tb88 2.292 . S
O87 C90 1.255 . S
Tb88 O87 2.292 . S
Tb88 O104 2.326 . S
Tb88 O106 2.500 . S
Tb88 O107 2.473 . S
Tb88 O110 2.324 . S
Eu89 O93 2.292 . S
Eu89 C94 2.852 . S
Eu89 O105 2.324 . S
Eu89 O109 2.326 . S
Eu89 O111 2.500 . S
Eu89 O112 2.473 . S
C90 O87 1.255 . S
C90 O91 1.247 . S
O91 C90 1.247 . S
C92 O104 1.242 . S
C92 O105 1.258 . S
O93 Eu89 2.292 . S
O93 C95 1.255 . S
C94 Eu89 2.852 . S
C94 C98 1.503 . S
C94 O111 1.273 . S
C94 O112 1.257 . S
C95 O93 1.255 . S
C95 O96 1.247 . S
O96 C95 1.247 . S
C97 O109 1.242 . S
C97 O110 1.258 . S
C98 C94 1.503 . S
C98 C99 1.379 . S
C98 C103 1.392 . S
C99 C98 1.379 . S
C99 C100 1.404 . S
C99 H113 0.929 . S
C100 C99 1.404 . S
C100 C101 1.389 . S
C101 C100 1.389 . S
C101 C102 1.399 . S
C101 H114 0.931 . S
C102 C101 1.399 . S
C102 C103 1.390 . S
C103 C98 1.392 . S
C103 C102 1.390 . S
C103 H115 0.929 . S
O104 Tb88 2.326 . S
O104 C92 1.242 . S
O105 Eu89 2.324 . S
O105 C92 1.258 . S
O106 Tb88 2.500 . S
O106 C108 1.273 . S
O107 Tb88 2.473 . S
O107 C108 1.257 . S
C108 O106 1.273 . S
C108 O107 1.257 . S
O109 Eu89 2.326 . S
O109 C97 1.242 . S
O110 Tb88 2.324 . S
O110 C97 1.258 . S
O111 Eu89 2.500 . S
O111 C94 1.273 . S
O112 Eu89 2.473 . S
O112 C94 1.257 . S
H113 C99 0.929 . S
H114 C101 0.931 . S
H115 C103 0.929 . S
O116 Tb117 2.292 . S
O116 C119 1.255 . S
Tb117 O116 2.292 . S
Tb117 O133 2.326 . S
Tb117 O135 2.500 . S
Tb117 O136 2.473 . S
Tb117 O139 2.324 . S
Eu118 O122 2.292 . S
Eu118 C123 2.852 . S
Eu118 O134 2.324 . S
Eu118 O138 2.326 . S
Eu118 O140 2.500 . S
Eu118 O141 2.473 . S
C119 O116 1.255 . S
C119 O120 1.247 . S
O120 C119 1.247 . S
C121 O133 1.242 . S
C121 O134 1.258 . S
O122 Eu118 2.292 . S
O122 C124 1.255 . S
C123 Eu118 2.852 . S
C123 C127 1.503 . S
C123 O140 1.273 . S
C123 O141 1.257 . S
C124 O122 1.255 . S
C124 O125 1.247 . S
O125 C124 1.247 . S
C126 O138 1.242 . S
C126 O139 1.258 . S
C127 C123 1.503 . S
C127 C128 1.379 . S
C127 C132 1.392 . S
C128 C127 1.379 . S
C128 C129 1.404 . S
C128 H142 0.929 . S
C129 C128 1.404 . S
C129 C130 1.389 . S
C130 C129 1.389 . S
C130 C131 1.399 . S
C130 H143 0.931 . S
C131 C130 1.399 . S
C131 C132 1.390 . S
C132 C127 1.392 . S
C132 C131 1.390 . S
C132 H144 0.929 . S
O133 Tb117 2.326 . S
O133 C121 1.242 . S
O134 Eu118 2.324 . S
O134 C121 1.258 . S
O135 Tb117 2.500 . S
O135 C137 1.273 . S
O136 Tb117 2.473 . S
O136 C137 1.257 . S
C137 O135 1.273 . S
C137 O136 1.257 . S
O138 Eu118 2.326 . S
O138 C126 1.242 . S
O139 Tb117 2.324 . S
O139 C126 1.258 . S
O140 Eu118 2.500 . S
O140 C123 1.273 . S
O141 Eu118 2.473 . S
O141 C123 1.257 . S
H142 C128 0.929 . S
H143 C130 0.931 . S
H144 C132 0.929 . S
O145 Tb146 2.292 . S
O145 C148 1.255 . S
Tb146 O145 2.292 . S
Tb146 O162 2.326 . S
Tb146 O164 2.500 . S
Tb146 O165 2.473 . S
Tb146 O168 2.324 . S
Eu147 O151 2.292 . S
Eu147 C152 2.852 . S
Eu147 O163 2.324 . S
Eu147 O167 2.326 . S
Eu147 O169 2.500 . S
Eu147 O170 2.473 . S
C148 O145 1.255 . S
C148 O149 1.247 . S
O149 C148 1.247 . S
C150 O162 1.242 . S
C150 O163 1.258 . S
O151 Eu147 2.292 . S
O151 C153 1.255 . S
C152 Eu147 2.852 . S
C152 C156 1.503 . S
C152 O169 1.273 . S
C152 O170 1.257 . S
C153 O151 1.255 . S
C153 O154 1.247 . S
O154 C153 1.247 . S
C155 O167 1.242 . S
C155 O168 1.258 . S
C156 C152 1.503 . S
C156 C157 1.379 . S
C156 C161 1.392 . S
C157 C156 1.379 . S
C157 C158 1.404 . S
C157 H171 0.929 . S
C158 C157 1.404 . S
C158 C159 1.389 . S
C159 C158 1.389 . S
C159 C160 1.399 . S
C159 H172 0.931 . S
C160 C159 1.399 . S
C160 C161 1.390 . S
C161 C156 1.392 . S
C161 C160 1.390 . S
C161 H173 0.929 . S
O162 Tb146 2.326 . S
O162 C150 1.242 . S
O163 Eu147 2.324 . S
O163 C150 1.258 . S
O164 Tb146 2.500 . S
O164 C166 1.273 . S
O165 Tb146 2.473 . S
O165 C166 1.257 . S
C166 O164 1.273 . S
C166 O165 1.257 . S
O167 Eu147 2.326 . S
O167 C155 1.242 . S
O168 Tb146 2.324 . S
O168 C155 1.258 . S
O169 Eu147 2.500 . S
O169 C152 1.273 . S
O170 Eu147 2.473 . S
O170 C152 1.257 . S
H171 C157 0.929 . S
H172 C159 0.931 . S
H173 C161 0.929 . S
O174 Tb175 2.292 . S
O174 C177 1.255 . S
Tb175 O174 2.292 . S
Tb175 O191 2.326 . S
Tb175 O193 2.500 . S
Tb175 O194 2.473 . S
Tb175 O197 2.324 . S
Eu176 O180 2.292 . S
Eu176 C181 2.852 . S
Eu176 O192 2.324 . S
Eu176 O196 2.326 . S
Eu176 O198 2.500 . S
Eu176 O199 2.473 . S
C177 O174 1.255 . S
C177 O178 1.247 . S
O178 C177 1.247 . S
C179 O191 1.242 . S
C179 O192 1.258 . S
O180 Eu176 2.292 . S
O180 C182 1.255 . S
C181 Eu176 2.852 . S
C181 C185 1.503 . S
C181 O198 1.273 . S
C181 O199 1.257 . S
C182 O180 1.255 . S
C182 O183 1.247 . S
O183 C182 1.247 . S
C184 O196 1.242 . S
C184 O197 1.258 . S
C185 C181 1.503 . S
C185 C186 1.379 . S
C185 C190 1.392 . S
C186 C185 1.379 . S
C186 C187 1.404 . S
C186 H200 0.929 . S
C187 C186 1.404 . S
C187 C188 1.389 . S
C188 C187 1.389 . S
C188 C189 1.399 . S
C188 H201 0.931 . S
C189 C188 1.399 . S
C189 C190 1.390 . S
C190 C185 1.392 . S
C190 C189 1.390 . S
C190 H202 0.929 . S
O191 Tb175 2.326 . S
O191 C179 1.242 . S
O192 Eu176 2.324 . S
O192 C179 1.258 . S
O193 Tb175 2.500 . S
O193 C195 1.273 . S
O194 Tb175 2.473 . S
O194 C195 1.257 . S
C195 O193 1.273 . S
C195 O194 1.257 . S
O196 Eu176 2.326 . S
O196 C184 1.242 . S
O197 Tb175 2.324 . S
O197 C184 1.258 . S
O198 Eu176 2.500 . S
O198 C181 1.273 . S
O199 Eu176 2.473 . S
O199 C181 1.257 . S
H200 C186 0.929 . S
H201 C188 0.931 . S
H202 C190 0.929 . S
O203 Tb204 2.292 . S
O203 C206 1.255 . S
Tb204 O203 2.292 . S
Tb204 O220 2.326 . S
Tb204 O222 2.500 . S
Tb204 O223 2.473 . S
Tb204 O226 2.324 . S
Eu205 O209 2.292 . S
Eu205 C210 2.852 . S
Eu205 O221 2.324 . S
Eu205 O225 2.326 . S
Eu205 O227 2.500 . S
Eu205 O228 2.473 . S
C206 O203 1.255 . S
C206 O207 1.247 . S
O207 C206 1.247 . S
C208 O220 1.242 . S
C208 O221 1.258 . S
O209 Eu205 2.292 . S
O209 C211 1.255 . S
C210 Eu205 2.852 . S
C210 C214 1.503 . S
C210 O227 1.273 . S
C210 O228 1.257 . S
C211 O209 1.255 . S
C211 O212 1.247 . S
O212 C211 1.247 . S
C213 O225 1.242 . S
C213 O226 1.258 . S
C214 C210 1.503 . S
C214 C215 1.379 . S
C214 C219 1.392 . S
C215 C214 1.379 . S
C215 C216 1.404 . S
C215 H229 0.929 . S
C216 C215 1.404 . S
C216 C217 1.389 . S
C217 C216 1.389 . S
C217 C218 1.399 . S
C217 H230 0.931 . S
C218 C217 1.399 . S
C218 C219 1.390 . S
C219 C214 1.392 . S
C219 C218 1.390 . S
C219 H231 0.929 . S
O220 Tb204 2.326 . S
O220 C208 1.242 . S
O221 Eu205 2.324 . S
O221 C208 1.258 . S
O222 Tb204 2.500 . S
O222 C224 1.273 . S
O223 Tb204 2.473 . S
O223 C224 1.257 . S
C224 O222 1.273 . S
C224 O223 1.257 . S
O225 Eu205 2.326 . S
O225 C213 1.242 . S
O226 Tb204 2.324 . S
O226 C213 1.258 . S
O227 Eu205 2.500 . S
O227 C210 1.273 . S
O228 Eu205 2.473 . S
O228 C210 1.257 . S
H229 C215 0.929 . S
H230 C217 0.931 . S
H231 C219 0.929 . S
H232 C238 0.930 . S
H233 C241 0.930 . S
H234 C242 0.930 . S
H235 C243 0.930 . S
H236 C246 0.930 . S
H237 C247 0.930 . S
C238 H232 0.930 . S
C238 C239 1.355 . S
C238 C240 1.415 . S
C239 C238 1.355 . S
C239 C241 1.419 . S
C240 C238 1.415 . S
C240 C245 1.425 . S
C240 C247 1.409 . S
C241 H233 0.930 . S
C241 C239 1.419 . S
C241 C242 1.362 . S
C242 H234 0.930 . S
C242 C241 1.362 . S
C242 C245 1.409 . S
C243 H235 0.930 . S
C243 C244 1.355 1_554 S
C243 C245 1.415 . S
C244 C243 1.355 1_556 S
C244 C246 1.419 . S
C245 C240 1.425 . S
C245 C242 1.409 . S
C245 C243 1.415 . S
C246 H236 0.930 . S
C246 C244 1.419 . S
C246 C247 1.362 1_556 S
C247 H237 0.930 . S
C247 C240 1.409 . S
C247 C246 1.362 1_554 S
H248 C254 0.930 . S
H249 C257 0.918 1_554 S
H250 C258 0.930 . S
H251 C259 0.930 . S
H252 C262 0.930 . S
H253 C263 0.930 . S
C254 H248 0.930 . S
C254 C255 1.355 1_556 S
C254 C256 1.415 . S
C255 C254 1.355 1_554 S
C255 C257 1.413 1_554 S
C256 C254 1.415 . S
C256 C261 1.425 . S
C256 C263 1.409 . S
C257 H249 0.918 1_556 S
C257 C255 1.413 1_556 S
C257 C258 1.380 . S
C258 H250 0.930 . S
C258 C257 1.380 . S
C258 C261 1.409 . S
C259 H251 0.930 . S
C259 C260 1.355 . S
C259 C261 1.415 . S
C260 C259 1.355 . S
C260 C262 1.419 . S
C261 C256 1.425 . S
C261 C258 1.409 . S
C261 C259 1.415 . S
C262 H252 0.930 . S
C262 C260 1.419 . S
C262 C263 1.362 . S
C263 H253 0.930 . S
C263 C256 1.409 . S
C263 C262 1.362 . S
H264 C270 0.930 . S
H265 C273 0.930 . S
H266 C274 0.930 . S
H267 C275 0.930 . S
H268 C278 0.930 . S
H269 C279 0.930 . S
C270 H264 0.930 . S
C270 C271 1.355 1_554 S
C270 C272 1.415 . S
C271 C270 1.355 1_556 S
C271 C273 1.419 . S
C272 C270 1.415 . S
C272 C277 1.425 . S
C272 C279 1.409 . S
C273 H265 0.930 . S
C273 C271 1.419 . S
C273 C274 1.362 1_556 S
C274 H266 0.930 . S
C274 C273 1.362 1_554 S
C274 C277 1.409 . S
C275 H267 0.930 . S
C275 C276 1.355 . S
C275 C277 1.415 . S
C276 C275 1.355 . S
C276 C278 1.419 . S
C277 C272 1.425 . S
C277 C274 1.409 . S
C277 C275 1.415 . S
C278 H268 0.930 . S
C278 C276 1.419 . S
C278 C279 1.362 . S
C279 H269 0.930 . S
C279 C272 1.409 . S
C279 C278 1.362 . S
H280 C286 0.930 . S
H281 C289 0.930 . S
H282 C290 0.930 . S
H283 C291 0.930 . S
H284 C294 0.930 . S
H285 C295 0.930 . S
C286 H280 0.930 . S
C286 C287 1.355 . S
C286 C288 1.415 . S
C287 C286 1.355 . S
C287 C289 1.419 . S
C288 C286 1.415 . S
C288 C293 1.425 . S
C288 C295 1.409 . S
C289 H281 0.930 . S
C289 C287 1.419 . S
C289 C290 1.362 . S
C290 H282 0.930 . S
C290 C289 1.362 . S
C290 C293 1.409 . S
C291 H283 0.930 . S
C291 C292 1.355 1_556 S
C291 C293 1.415 . S
C292 C291 1.355 1_554 S
C292 C294 1.419 . S
C293 C288 1.425 . S
C293 C290 1.409 . S
C293 C291 1.415 . S
C294 H284 0.930 . S
C294 C292 1.419 . S
C294 C295 1.362 1_554 S
C295 H285 0.930 . S
C295 C288 1.409 . S
C295 C294 1.362 1_556 S
H296 C302 0.930 . S
H297 C305 0.930 . S
H298 C306 0.930 . S
H299 C307 0.930 . S
H300 C310 0.930 . S
H301 C311 0.930 . S
C302 H296 0.930 . S
C302 C303 1.355 . S
C302 C304 1.415 . S
C303 C302 1.355 . S
C303 C305 1.419 . S
C304 C302 1.415 . S
C304 C309 1.425 . S
C304 C311 1.409 . S
C305 H297 0.930 . S
C305 C303 1.419 . S
C305 C306 1.362 . S
C306 H298 0.930 . S
C306 C305 1.362 . S
C306 C309 1.409 . S
C307 H299 0.930 . S
C307 C308 1.355 . S
C307 C309 1.415 . S
C308 C307 1.355 . S
C308 C310 1.419 . S
C309 C304 1.425 . S
C309 C306 1.409 . S
C309 C307 1.415 . S
C310 H300 0.930 . S
C310 C308 1.419 . S
C310 C311 1.362 . S
C311 H301 0.930 . S
C311 C304 1.409 . S
C311 C310 1.362 . S
H312 C318 0.930 . S
H313 C321 0.930 . S
H314 C322 0.930 . S
H315 C323 0.930 . S
H316 C326 0.930 . S
H317 C327 0.930 . S
C318 H312 0.930 . S
C318 C319 1.355 . S
C318 C320 1.415 . S
C319 C318 1.355 . S
C319 C321 1.419 . S
C320 C318 1.415 . S
C320 C325 1.425 . S
C320 C327 1.409 . S
C321 H313 0.930 . S
C321 C319 1.419 . S
C321 C322 1.362 . S
C322 H314 0.930 . S
C322 C321 1.362 . S
C322 C325 1.409 . S
C323 H315 0.930 . S
C323 C324 1.355 . S
C323 C325 1.415 . S
C324 C323 1.355 . S
C324 C326 1.419 . S
C325 C320 1.425 . S
C325 C322 1.409 . S
C325 C323 1.415 . S
C326 H316 0.930 . S
C326 C324 1.419 . S
C326 C327 1.362 . S
C327 H317 0.930 . S
C327 C320 1.409 . S
C327 C326 1.362 . S
H328 C334 0.930 . S
H329 C337 0.930 . S
H330 C338 0.930 . S
H331 C339 0.930 . S
H332 C342 0.930 . S
H333 C343 0.930 . S
C334 H328 0.930 . S
C334 C335 1.355 . S
C334 C336 1.415 . S
C335 C334 1.355 . S
C335 C337 1.419 . S
C336 C334 1.415 . S
C336 C341 1.425 . S
C336 C343 1.409 . S
C337 H329 0.930 . S
C337 C335 1.419 . S
C337 C338 1.362 . S
C338 H330 0.930 . S
C338 C337 1.362 . S
C338 C341 1.409 . S
C339 H331 0.930 . S
C339 C340 1.355 . S
C339 C341 1.415 . S
C340 C339 1.355 . S
C340 C342 1.419 . S
C341 C336 1.425 . S
C341 C338 1.409 . S
C341 C339 1.415 . S
C342 H332 0.930 . S
C342 C340 1.419 . S
C342 C343 1.362 . S
C343 H333 0.930 . S
C343 C336 1.409 . S
C343 C342 1.362 . S
H344 C350 0.930 . S
H345 C353 0.930 . S
H346 C354 0.930 . S
H347 C355 0.930 . S
H348 C358 0.930 . S
H349 C359 0.930 . S
C350 H344 0.930 . S
C350 C351 1.355 . S
C350 C352 1.415 . S
C351 C350 1.355 . S
C351 C353 1.419 . S
C352 C350 1.415 . S
C352 C357 1.425 . S
C352 C359 1.409 . S
C353 H345 0.930 . S
C353 C351 1.419 . S
C353 C354 1.362 . S
C354 H346 0.930 . S
C354 C353 1.362 . S
C354 C357 1.409 . S
C355 H347 0.930 . S
C355 C356 1.355 . S
C355 C357 1.415 . S
C356 C355 1.355 . S
C356 C358 1.419 . S
C357 C352 1.425 . S
C357 C354 1.409 . S
C357 C355 1.415 . S
C358 H348 0.930 . S
C358 C356 1.419 . S
C358 C359 1.362 . S
C359 H349 0.930 . S
C359 C352 1.409 . S
C359 C358 1.362 . S
H360 C366 0.930 . S
H361 C369 0.930 . S
H362 C370 0.930 1_565 S
H363 C371 0.930 . S
H364 C374 0.930 . S
H365 C375 0.930 1_545 S
C366 H360 0.930 . S
C366 C367 1.355 . S
C366 C368 1.415 . S
C367 C366 1.355 . S
C367 C369 1.419 . S
C368 C366 1.415 . S
C368 C373 1.425 1_545 S
C368 C375 1.409 1_545 S
C369 H361 0.930 . S
C369 C367 1.419 . S
C369 C370 1.362 . S
C370 H362 0.930 1_545 S
C370 C369 1.362 . S
C370 C373 1.409 1_545 S
C371 H363 0.930 . S
C371 C372 1.355 . S
C371 C373 1.415 . S
C372 C371 1.355 . S
C372 C374 1.419 . S
C373 C368 1.425 1_565 S
C373 C370 1.409 1_565 S
C373 C371 1.415 . S
C374 H364 0.930 . S
C374 C372 1.419 . S
C374 C375 1.362 . S
C375 H365 0.930 1_565 S
C375 C368 1.409 1_565 S
C375 C374 1.362 . S
H376 C382 0.930 . S
H377 C385 0.930 . S
H378 C386 0.930 1_455 S
H379 C387 0.930 . S
H380 C390 0.930 . S
H381 C391 0.930 1_655 S
C382 H376 0.930 . S
C382 C383 1.355 . S
C382 C384 1.415 . S
C383 C382 1.355 . S
C383 C385 1.419 . S
C384 C382 1.415 . S
C384 C389 1.425 1_655 S
C384 C391 1.409 1_655 S
C385 H377 0.930 . S
C385 C383 1.419 . S
C385 C386 1.362 . S
C386 H378 0.930 1_655 S
C386 C385 1.362 . S
C386 C389 1.409 1_655 S
C387 H379 0.930 . S
C387 C388 1.355 . S
C387 C389 1.415 . S
C388 C387 1.355 . S
C388 C390 1.419 . S
C389 C384 1.425 1_455 S
C389 C386 1.409 1_455 S
C389 C387 1.415 . S
C390 H380 0.930 . S
C390 C388 1.419 . S
C390 C391 1.362 . S
C391 H381 0.930 1_455 S
C391 C384 1.409 1_455 S
C391 C390 1.362 . S
H392 C398 0.930 . S
H393 C401 0.930 . S
H394 C402 0.930 . S
H395 C403 0.930 . S
H396 C406 0.930 . S
H397 C407 0.930 . S
C398 H392 0.930 . S
C398 C399 1.355 1_455 S
C398 C400 1.415 . S
C399 C398 1.355 1_655 S
C399 C401 1.419 . S
C400 C398 1.415 . S
C400 C405 1.425 1_455 S
C400 C407 1.409 . S
C401 H393 0.930 . S
C401 C399 1.419 . S
C401 C402 1.362 . S
C402 H394 0.930 . S
C402 C401 1.362 . S
C402 C405 1.409 . S
C403 H395 0.930 . S
C403 C404 1.355 1_655 S
C403 C405 1.415 . S
C404 C403 1.355 1_455 S
C404 C406 1.419 . S
C405 C400 1.425 1_655 S
C405 C402 1.409 . S
C405 C403 1.415 . S
C406 H396 0.930 . S
C406 C404 1.419 . S
C406 C407 1.362 . S
C407 H397 0.930 . S
C407 C400 1.409 . S
C407 C406 1.362 . S
H408 C414 0.930 . S
H409 C417 0.930 . S
H410 C418 0.930 . S
H411 C419 0.930 . S
H412 C422 0.930 . S
H413 C423 0.930 . S
C414 H408 0.930 . S
C414 C415 1.355 1_565 S
C414 C416 1.415 . S
C415 C414 1.355 1_545 S
C415 C417 1.419 . S
C416 C414 1.415 . S
C416 C421 1.425 1_565 S
C416 C423 1.409 . S
C417 H409 0.930 . S
C417 C415 1.419 . S
C417 C418 1.362 . S
C418 H410 0.930 . S
C418 C417 1.362 . S
C418 C421 1.409 . S
C419 H411 0.930 . S
C419 C420 1.355 1_545 S
C419 C421 1.415 . S
C420 C419 1.355 1_565 S
C420 C422 1.419 . S
C421 C416 1.425 1_545 S
C421 C418 1.409 . S
C421 C419 1.415 . S
C422 H412 0.930 . S
C422 C420 1.419 . S
C422 C423 1.362 . S
C423 H413 0.930 . S
C423 C416 1.409 . S
C423 C422 1.362 . S
H424 C430 0.930 . S
H425 C433 0.930 . S
H426 C434 0.930 . S
H427 C435 0.930 . S
H428 C438 0.930 . S
H429 C439 0.930 . S
C430 H424 0.930 . S
C430 C431 1.355 . S
C430 C432 1.415 . S
C431 C430 1.355 . S
C431 C433 1.419 . S
C432 C430 1.415 . S
C432 C437 1.425 . S
C432 C439 1.409 . S
C433 H425 0.930 . S
C433 C431 1.419 . S
C433 C434 1.362 . S
C434 H426 0.930 . S
C434 C433 1.362 . S
C434 C437 1.409 . S
C435 H427 0.930 . S
C435 C436 1.355 . S
C435 C437 1.415 . S
C436 C435 1.355 . S
C436 C438 1.419 . S
C437 C432 1.425 . S
C437 C434 1.409 . S
C437 C435 1.415 . S
C438 H428 0.930 . S
C438 C436 1.419 . S
C438 C439 1.362 . S
C439 H429 0.930 . S
C439 C432 1.409 . S
C439 C438 1.362 . S
H440 C446 0.930 . S
H441 C449 0.930 . S
H442 C450 0.930 . S
H443 C451 0.930 . S
H444 C454 0.930 . S
H445 C455 0.930 . S
C446 H440 0.930 . S
C446 C447 1.355 . S
C446 C448 1.415 . S
C447 C446 1.355 . S
C447 C449 1.419 . S
C448 C446 1.415 . S
C448 C453 1.425 . S
C448 C455 1.409 . S
C449 H441 0.930 . S
C449 C447 1.419 . S
C449 C450 1.362 . S
C450 H442 0.930 . S
C450 C449 1.362 . S
C450 C453 1.409 . S
C451 H443 0.930 . S
C451 C452 1.355 . S
C451 C453 1.415 . S
C452 C451 1.355 . S
C452 C454 1.419 . S
C453 C448 1.425 . S
C453 C450 1.409 . S
C453 C451 1.415 . S
C454 H444 0.930 . S
C454 C452 1.419 . S
C454 C455 1.362 . S
C455 H445 0.930 . S
C455 C448 1.409 . S
C455 C454 1.362 . S
H456 C462 0.930 . S
H457 C465 0.930 . S
H458 C466 0.930 . S
H459 C467 0.930 . S
H460 C470 0.930 . S
H461 C471 0.930 . S
C462 H456 0.930 . S
C462 C463 1.355 . S
C462 C464 1.415 . S
C463 C462 1.355 . S
C463 C465 1.419 . S
C464 C462 1.415 . S
C464 C469 1.425 . S
C464 C471 1.409 . S
C465 H457 0.930 . S
C465 C463 1.419 . S
C465 C466 1.362 . S
C466 H458 0.930 . S
C466 C465 1.362 . S
C466 C469 1.409 . S
C467 H459 0.930 . S
C467 C468 1.355 . S
C467 C469 1.415 . S
C468 C467 1.355 . S
C468 C470 1.419 . S
C469 C464 1.425 . S
C469 C466 1.409 . S
C469 C467 1.415 . S
C470 H460 0.930 . S
C470 C468 1.419 . S
C470 C471 1.362 . S
C471 H461 0.930 . S
C471 C464 1.409 . S
C471 C470 1.362 . S
H472 C478 0.930 . S
H473 C481 0.930 . S
H474 C482 0.930 . S
H475 C483 0.930 . S
H476 C486 0.930 . S
H477 C487 0.930 . S
C478 H472 0.930 . S
C478 C479 1.355 . S
C478 C480 1.415 . S
C479 C478 1.355 . S
C479 C481 1.419 . S
C480 C478 1.415 . S
C480 C485 1.425 . S
C480 C487 1.409 . S
C481 H473 0.930 . S
C481 C479 1.419 . S
C481 C482 1.362 . S
C482 H474 0.930 . S
C482 C481 1.362 . S
C482 C485 1.409 . S
C483 H475 0.930 . S
C483 C484 1.355 . S
C483 C485 1.415 . S
C484 C483 1.355 . S
C484 C486 1.419 . S
C485 C480 1.425 . S
C485 C482 1.409 . S
C485 C483 1.415 . S
C486 H476 0.930 . S
C486 C484 1.419 . S
C486 C487 1.362 . S
C487 H477 0.930 . S
C487 C480 1.409 . S
C487 C486 1.362 . S
H488 C494 0.930 . S
H489 C497 0.930 . S
H490 C498 0.930 . S
H491 C499 0.930 . S
H492 C502 0.930 . S
H493 C503 0.930 . S
C494 H488 0.930 . S
C494 C495 1.355 1_455 S
C494 C496 1.415 . S
C495 C494 1.355 1_655 S
C495 C497 1.419 . S
C496 C494 1.415 . S
C496 C501 1.425 . S
C496 C503 1.409 . S
C497 H489 0.930 . S
C497 C495 1.419 . S
C497 C498 1.362 1_655 S
C498 H490 0.930 . S
C498 C497 1.362 1_455 S
C498 C501 1.409 . S
C499 H491 0.930 . S
C499 C500 1.355 . S
C499 C501 1.415 . S
C500 C499 1.355 . S
C500 C502 1.419 . S
C501 C496 1.425 . S
C501 C498 1.409 . S
C501 C499 1.415 . S
C502 H492 0.930 . S
C502 C500 1.419 . S
C502 C503 1.362 . S
C503 H493 0.930 . S
C503 C496 1.409 . S
C503 C502 1.362 . S
H504 C510 0.930 . S
H505 C513 0.930 . S
H506 C514 0.930 . S
H507 C515 0.930 . S
H508 C518 0.930 . S
H509 C519 0.930 . S
C510 H504 0.930 . S
C510 C511 1.355 1_565 S
C510 C512 1.415 . S
C511 C510 1.355 1_545 S
C511 C513 1.419 . S
C512 C510 1.415 . S
C512 C517 1.425 . S
C512 C519 1.409 . S
C513 H505 0.930 . S
C513 C511 1.419 . S
C513 C514 1.362 1_545 S
C514 H506 0.930 . S
C514 C513 1.362 1_565 S
C514 C517 1.409 . S
C515 H507 0.930 . S
C515 C516 1.355 . S
C515 C517 1.415 . S
C516 C515 1.355 . S
C516 C518 1.419 . S
C517 C512 1.425 . S
C517 C514 1.409 . S
C517 C515 1.415 . S
C518 H508 0.930 . S
C518 C516 1.419 . S
C518 C519 1.362 . S
C519 H509 0.930 . S
C519 C512 1.409 . S
C519 C518 1.362 . S
H520 C526 0.930 . S
H521 C529 0.930 . S
H522 C530 0.930 . S
H523 C531 0.930 1_455 S
H524 C534 0.930 1_455 S
H525 C535 0.930 . S
C526 H520 0.930 . S
C526 C527 1.355 . S
C526 C528 1.415 . S
C527 C526 1.355 . S
C527 C529 1.419 . S
C528 C526 1.415 . S
C528 C533 1.425 . S
C528 C535 1.409 . S
C529 H521 0.930 . S
C529 C527 1.419 . S
C529 C530 1.362 . S
C530 H522 0.930 . S
C530 C529 1.362 . S
C530 C533 1.409 . S
C531 H523 0.930 1_655 S
C531 C532 1.355 1_655 S
C531 C533 1.415 . S
C532 C531 1.355 1_455 S
C532 C534 1.419 1_455 S
C533 C528 1.425 . S
C533 C530 1.409 . S
C533 C531 1.415 . S
C534 H524 0.930 1_655 S
C534 C532 1.419 1_655 S
C534 C535 1.362 . S
C535 H525 0.930 . S
C535 C528 1.409 . S
C535 C534 1.362 . S
H536 C542 0.930 . S
H537 C545 0.930 . S
H538 C546 0.930 . S
H539 C547 0.930 . S
H540 C550 0.930 . S
H541 C551 0.930 . S
C542 H536 0.930 . S
C542 C543 1.355 . S
C542 C544 1.415 . S
C543 C542 1.355 . S
C543 C545 1.419 . S
C544 C542 1.415 . S
C544 C549 1.425 . S
C544 C551 1.409 . S
C545 H537 0.930 . S
C545 C543 1.419 . S
C545 C546 1.362 . S
C546 H538 0.930 . S
C546 C545 1.362 . S
C546 C549 1.409 . S
C547 H539 0.930 . S
C547 C548 1.355 1_545 S
C547 C549 1.415 . S
C548 C547 1.355 1_565 S
C548 C550 1.419 . S
C549 C544 1.425 . S
C549 C546 1.409 . S
C549 C547 1.415 . S
C550 H540 0.930 . S
C550 C548 1.419 . S
C550 C551 1.362 1_565 S
C551 H541 0.930 . S
C551 C544 1.409 . S
C551 C550 1.362 1_545 S
H552 C558 0.930 . S
H553 C561 0.930 . S
H554 C562 0.930 . S
H555 C563 0.930 . S
H556 C566 0.930 . S
H557 C567 0.930 . S
C558 H552 0.930 . S
C558 C559 1.355 . S
C558 C560 1.415 . S
C559 C558 1.355 . S
C559 C561 1.419 . S
C560 C558 1.415 . S
C560 C565 1.425 . S
C560 C567 1.409 . S
C561 H553 0.930 . S
C561 C559 1.419 . S
C561 C562 1.362 . S
C562 H554 0.930 . S
C562 C561 1.362 . S
C562 C565 1.409 . S
C563 H555 0.930 . S
C563 C564 1.355 . S
C563 C565 1.415 . S
C564 C563 1.355 . S
C564 C566 1.419 . S
C565 C560 1.425 . S
C565 C562 1.409 . S
C565 C563 1.415 . S
C566 H556 0.930 . S
C566 C564 1.419 . S
C566 C567 1.362 . S
C567 H557 0.930 . S
C567 C560 1.409 . S
C567 C566 1.362 . S
H568 C574 0.930 . S
H569 C577 0.930 . S
H570 C578 0.930 . S
H571 C579 0.930 . S
H572 C582 0.930 . S
H573 C583 0.930 . S
C574 H568 0.930 . S
C574 C575 1.355 . S
C574 C576 1.415 . S
C575 C574 1.355 . S
C575 C577 1.419 . S
C576 C574 1.415 . S
C576 C581 1.425 . S
C576 C583 1.409 . S
C577 H569 0.930 . S
C577 C575 1.419 . S
C577 C578 1.362 . S
C578 H570 0.930 . S
C578 C577 1.362 . S
C578 C581 1.409 . S
C579 H571 0.930 . S
C579 C580 1.355 . S
C579 C581 1.415 . S
C580 C579 1.355 . S
C580 C582 1.419 . S
C581 C576 1.425 . S
C581 C578 1.409 . S
C581 C579 1.415 . S
C582 H572 0.930 . S
C582 C580 1.419 . S
C582 C583 1.362 . S
C583 H573 0.930 . S
C583 C576 1.409 . S
C583 C582 1.362 . S
H584 C590 0.930 . S
H585 C593 0.930 . S
H586 C594 0.930 . S
H587 C595 0.930 . S
H588 C598 0.930 . S
H589 C599 0.930 . S
C590 H584 0.930 . S
C590 C591 1.355 . S
C590 C592 1.415 . S
C591 C590 1.355 . S
C591 C593 1.419 . S
C592 C590 1.415 . S
C592 C597 1.425 . S
C592 C599 1.409 . S
C593 H585 0.930 . S
C593 C591 1.419 . S
C593 C594 1.362 . S
C594 H586 0.930 . S
C594 C593 1.362 . S
C594 C597 1.409 . S
C595 H587 0.930 . S
C595 C596 1.355 . S
C595 C597 1.415 . S
C596 C595 1.355 . S
C596 C598 1.419 . S
C597 C592 1.425 . S
C597 C594 1.409 . S
C597 C595 1.415 . S
C598 H588 0.930 . S
C598 C596 1.419 . S
C598 C599 1.362 . S
C599 H589 0.930 . S
C599 C592 1.409 . S
C599 C598 1.362 . S
H600 C606 0.930 . S
H601 C609 0.930 . S
H602 C610 0.930 . S
H603 C611 0.930 . S
H604 C614 0.930 . S
H605 C615 0.930 . S
C606 H600 0.930 . S
C606 C607 1.355 . S
C606 C608 1.415 . S
C607 C606 1.355 . S
C607 C609 1.419 . S
C608 C606 1.415 . S
C608 C613 1.425 . S
C608 C615 1.409 . S
C609 H601 0.930 . S
C609 C607 1.419 . S
C609 C610 1.362 . S
C610 H602 0.930 . S
C610 C609 1.362 . S
C610 C613 1.409 . S
C611 H603 0.930 . S
C611 C612 1.355 . S
C611 C613 1.415 . S
C612 C611 1.355 . S
C612 C614 1.419 . S
C613 C608 1.425 . S
C613 C610 1.409 . S
C613 C611 1.415 . S
C614 H604 0.930 . S
C614 C612 1.419 . S
C614 C615 1.362 . S
C615 H605 0.930 . S
C615 C608 1.409 . S
C615 C614 1.362 . S
H616 C622 0.930 . S
H617 C625 0.930 . S
H618 C626 0.930 . S
H619 C627 0.930 . S
H620 C630 0.930 . S
H621 C631 0.930 1_556 S
C622 H616 0.930 . S
C622 C623 1.355 1_545 S
C622 C624 1.413 1_556 S
C623 C622 1.355 1_565 S
C623 C625 1.419 . S
C624 C622 1.413 1_554 S
C624 C629 1.427 . S
C624 C631 1.409 . S
C625 H617 0.930 . S
C625 C623 1.419 . S
C625 C626 1.362 1_556 S
C626 H618 0.930 . S
C626 C625 1.362 1_554 S
C626 C629 1.409 1_565 S
C627 H619 0.930 . S
C627 C628 1.355 . S
C627 C629 1.415 . S
C628 C627 1.355 . S
C628 C630 1.419 . S
C629 C624 1.427 . S
C629 C626 1.409 1_545 S
C629 C627 1.415 . S
C630 H620 0.930 . S
C630 C628 1.419 . S
C630 C631 1.362 . S
C631 H621 0.930 1_554 S
C631 C624 1.409 . S
C631 C630 1.362 . S
H632 C638 0.939 . S
H633 C641 0.930 . S
H634 C642 0.930 . S
H635 C643 0.930 . S
H636 C646 0.930 . S
H637 C647 0.930 1_655 S
C638 H632 0.939 . S
C638 C639 1.335 1_556 S
C638 C640 1.426 1_655 S
C639 C638 1.335 1_554 S
C639 C641 1.419 1_655 S
C640 C638 1.426 1_455 S
C640 C645 1.425 . S
C640 C647 1.409 . S
C641 H633 0.930 . S
C641 C639 1.419 1_455 S
C641 C642 1.362 . S
C642 H634 0.930 . S
C642 C641 1.362 . S
C642 C645 1.409 1_554 S
C643 H635 0.930 . S
C643 C644 1.355 . S
C643 C645 1.415 . S
C644 C643 1.355 . S
C644 C646 1.419 . S
C645 C640 1.425 . S
C645 C642 1.409 1_556 S
C645 C643 1.415 . S
C646 H636 0.930 . S
C646 C644 1.419 . S
C646 C647 1.362 . S
C647 H637 0.930 1_455 S
C647 C640 1.409 . S
C647 C646 1.362 . S
H648 C654 0.930 . S
H649 C657 0.930 . S
H650 C658 0.930 . S
H651 C659 0.930 . S
H652 C662 0.930 . S
H653 C663 0.930 . S
C654 H648 0.930 . S
C654 C655 1.355 . S
C654 C656 1.415 . S
C655 C654 1.355 . S
C655 C657 1.419 . S
C656 C654 1.415 . S
C656 C661 1.425 . S
C656 C663 1.409 1_554 S
C657 H649 0.930 . S
C657 C655 1.419 . S
C657 C658 1.362 . S
C658 H650 0.930 . S
C658 C657 1.362 . S
C658 C661 1.409 . S
C659 H651 0.930 . S
C659 C660 1.355 . S
C659 C661 1.415 1_546 S
C660 C659 1.355 . S
C660 C662 1.419 . S
C661 C656 1.425 . S
C661 C658 1.409 . S
C661 C659 1.415 1_564 S
C662 H652 0.930 . S
C662 C660 1.419 . S
C662 C663 1.362 1_545 S
C663 H653 0.930 . S
C663 C656 1.409 1_556 S
C663 C662 1.362 1_565 S
H664 C670 0.930 . S
H665 C673 0.930 . S
H666 C674 0.930 1_455 S
H667 C675 0.931 . S
H668 C678 0.930 . S
H669 C679 0.930 . S
C670 H664 0.930 . S
C670 C671 1.355 . S
C670 C672 1.415 . S
C671 C670 1.355 . S
C671 C673 1.419 . S
C672 C670 1.415 . S
C672 C677 1.425 . S
C672 C679 1.409 1_556 S
C673 H665 0.930 . S
C673 C671 1.419 . S
C673 C674 1.362 . S
C674 H666 0.930 1_655 S
C674 C673 1.362 . S
C674 C677 1.409 . S
C675 H667 0.931 . S
C675 C676 1.351 1_556 S
C675 C677 1.417 1_455 S
C676 C675 1.351 1_554 S
C676 C678 1.419 1_455 S
C677 C672 1.425 . S
C677 C674 1.409 . S
C677 C675 1.417 1_655 S
C678 H668 0.930 . S
C678 C676 1.419 1_655 S
C678 C679 1.362 . S
C679 H669 0.930 . S
C679 C672 1.409 1_554 S
C679 C678 1.362 . S
C239 C15 2.128 . S
C244 C150 2.109 . S
C255 C179 2.091 . S
C260 C44 2.120 . S
C271 C208 2.112 . S
C276 C73 2.130 . S
C287 C102 2.107 . S
C292 C121 2.082 . S
C303 C131 2.107 . S
C308 C92 2.075 . S
C319 C160 2.123 . S
C324 C5 2.104 . S
C335 C189 2.123 . S
C340 C34 2.095 . S
C351 C218 2.107 . S
C356 C63 2.082 . S
C367 C8 1.204 . S
C372 C66 1.181 . S
C383 C95 1.214 . S
C388 C37 1.171 . S
C399 C124 1.171 . S
C404 C182 1.214 . S
C415 C153 1.214 . S
C420 C211 1.171 . S
C431 C10 2.111 . S
C436 C129 1.943 . S
C447 C158 1.972 . S
C452 C39 2.089 . S
C463 C68 2.093 . S
C468 C187 1.881 . S
C479 C216 1.946 . S
C484 C97 2.040 . S
C495 C126 2.116 . S
C500 C13 1.914 . S
C511 C155 2.107 . S
C516 C42 1.889 . S
C527 C71 1.973 . S
C532 C184 2.088 . S
C543 C100 1.881 . S
C548 C213 2.093 . S
C559 C3 0.955 . S
C564 C50 0.932 . S
C575 C79 0.892 . S
C580 C32 0.951 . S
C591 C108 0.925 . S
C596 C61 0.922 . S
C607 C21 0.973 . S
C612 C90 0.905 . S
C623 C224 0.900 . S
C628 C119 0.968 . S
C639 C137 0.899 . S
C644 C148 0.943 . S
C655 C177 0.905 . S
C660 C166 0.956 . S
C671 C206 0.914 . S
C676 C195 0.938 . S
