# Generated by pormake.
# Topology smi, (6)-cn, num edge types: 1
# Building blocks:
#     Node 0, Type 0, BuildingBlock: IZENUY_clean_sbu_0, # of connection points: 6
#     Node 1, Type 0, BuildingBlock: IZENUY_clean_sbu_0, # of connection points: 6
#     Node 2, Type 0, BuildingBlock: IZENUY_clean_sbu_0, # of connection points: 6
#     Node 3, Type 0, BuildingBlock: IZENUY_clean_sbu_0, # of connection points: 6
#     Node 4, Type 0, BuildingBlock: IZENUY_clean_sbu_0, # of connection points: 6
#     Node 5, Type 0, BuildingBlock: IZENUY_clean_sbu_0, # of connection points: 6
#     Edge 6, Type (0, 0), BuildingBlock: OJICUG_clean_linker_0, # of connection points: 2
#     Edge 7, Type (0, 0), BuildingBlock: OJICUG_clean_linker_0, # of connection points: 2
#     Edge 8, Type (0, 0), BuildingBlock: OJICUG_clean_linker_0, # of connection points: 2
#     Edge 9, Type (0, 0), BuildingBlock: OJICUG_clean_linker_0, # of connection points: 2
#     Edge 10, Type (0, 0), BuildingBlock: OJICUG_clean_linker_0, # of connection points: 2
#     Edge 11, Type (0, 0), BuildingBlock: OJICUG_clean_linker_0, # of connection points: 2
#     Edge 12, Type (0, 0), BuildingBlock: OJICUG_clean_linker_0, # of connection points: 2
#     Edge 13, Type (0, 0), BuildingBlock: OJICUG_clean_linker_0, # of connection points: 2
#     Edge 14, Type (0, 0), BuildingBlock: OJICUG_clean_linker_0, # of connection points: 2
#     Edge 15, Type (0, 0), BuildingBlock: OJICUG_clean_linker_0, # of connection points: 2
#     Edge 16, Type (0, 0), BuildingBlock: OJICUG_clean_linker_0, # of connection points: 2
#     Edge 17, Type (0, 0), BuildingBlock: OJICUG_clean_linker_0, # of connection points: 2
#     Edge 18, Type (0, 0), BuildingBlock: OJICUG_clean_linker_0, # of connection points: 2
#     Edge 19, Type (0, 0), BuildingBlock: OJICUG_clean_linker_0, # of connection points: 2
#     Edge 20, Type (0, 0), BuildingBlock: OJICUG_clean_linker_0, # of connection points: 2
#     Edge 21, Type (0, 0), BuildingBlock: OJICUG_clean_linker_0, # of connection points: 2
#     Edge 22, Type (0, 0), BuildingBlock: OJICUG_clean_linker_0, # of connection points: 2
#     Edge 23, Type (0, 0), BuildingBlock: OJICUG_clean_linker_0, # of connection points: 2
# Relax obj value: 0.337
# Max RMSD: 0.277
# Mean RMSD: 0.276
data_MOF--net-smi--node1-IZENUY_clean_sbu_0--edge1-OJICUG_clean_linker_0
_symmetry_space_group_name_H-M    P1
_symmetry_Int_Tables_number       1
_symmetry_cell_setting            triclinic
loop_
_symmetry_equiv_pos_as_xyz
'x, y, z'
_cell_length_a     19.916781
_cell_length_b     19.885943
_cell_length_c     29.775224
_cell_angle_alpha  90.006916
_cell_angle_beta   90.010031
_cell_angle_gamma 120.11266
loop_
_atom_site_label
_atom_site_type_symbol
_atom_site_fract_x
_atom_site_fract_y
_atom_site_fract_z
_atom_type_partial_charge
Fe0 Fe 0.09178 0.57921 0.13556 0.0
Fe1 Fe 0.24517 0.62294 0.08882 0.0
O2 O 0.14256 0.57139 0.08872 0.0
Fe3 Fe 0.09198 0.51267 0.04177 0.0
O4 O 0.04292 0.5664 0.0324 0.0
O5 O 1.01 0.57294 0.10199 0.0
O6 O 0.13886 0.68468 0.13138 0.0
C7 C 0.21138 0.72768 0.13475 0.0
C8 C 1.00301 0.42329 0.11719 0.0
O9 O 0.25594 0.70172 0.12542 0.0
C10 C 0.21161 0.48436 0.04284 0.0
O11 O 0.16371 0.58493 0.17668 0.0
O12 O 0.24708 0.56776 0.13656 0.0
O13 O 1.00997 0.43675 0.07518 0.0
O14 O 0.04265 0.47619 0.14483 0.0
C15 C 0.21598 0.6507 1.00381 0.0
O16 O 0.25613 0.55508 0.05226 0.0
O17 O 0.13905 0.45447 0.046 0.0
C18 C 0.2156 0.56568 0.17379 0.0
O19 O 0.24732 0.68016 0.04109 0.0
O20 O 0.16413 0.57931 1.00081 0.0
C21 C 1.0033 0.57962 0.05998 0.0
Fe22 Fe 0.58542 0.08568 0.20864 0.0
Fe23 Fe 0.62924 0.23925 0.25553 0.0
O24 O 0.57774 0.1365 0.25554 0.0
Fe25 Fe 0.51917 0.08576 0.30246 0.0
O26 O 0.57288 0.03668 0.31174 0.0
O27 O 0.57905 1.00365 0.2421 0.0
O28 O 0.69072 0.13273 0.2128 0.0
C29 C 0.73371 0.20536 0.2095 0.0
C30 C 0.42976 0.99691 0.22702 0.0
O31 O 0.70788 0.25005 0.2189 0.0
C32 C 0.49085 0.20551 0.30155 0.0
O33 O 0.5912 0.15784 0.1676 0.0
O34 O 0.57414 0.24129 0.20783 0.0
O35 O 0.44335 1.00369 0.26901 0.0
O36 O 0.48254 0.03663 0.19938 0.0
C37 C 0.65699 0.20987 0.3405 0.0
O38 O 0.56147 0.25015 0.29216 0.0
O39 O 0.46104 0.13285 0.29828 0.0
C40 C 0.57202 0.20983 0.17056 0.0
O41 O 0.68639 0.2413 0.30324 0.0
O42 O 0.58571 0.15796 0.34347 0.0
C43 C 0.58592 0.99697 0.2841 0.0
Fe44 Fe 0.39732 0.62313 0.4222 0.0
Fe45 Fe 0.44024 0.51299 0.46918 0.0
O46 O 0.44844 0.57173 0.42227 0.0
Fe47 Fe 0.50713 0.57973 0.37543 0.0
O48 O 0.56552 0.68523 0.37963 0.0
O49 O 0.46532 0.70198 0.38562 0.0
O50 O 0.45244 0.68038 0.46995 0.0
C51 C 0.45434 0.65093 0.50722 0.0
C52 C 0.3696 0.56588 0.33721 0.0
O53 O 0.43479 0.57957 0.51018 0.0
C54 C 0.43993 0.42376 0.3937 0.0
O55 O 0.31844 0.5552 0.45874 0.0
O56 O 0.33487 0.45469 0.46494 0.0
O57 O 0.44081 0.58526 0.33432 0.0
O58 O 0.34017 0.5679 0.37444 0.0
C59 C 0.59603 0.5801 0.45102 0.0
O60 O 0.44628 0.43714 0.43573 0.0
O61 O 0.45328 0.47669 0.3661 0.0
C62 C 0.29218 0.4845 0.46814 0.0
O63 O 0.54312 0.56677 0.47858 0.0
O64 O 0.58273 0.57362 0.40899 0.0
C65 C 0.5359 0.72809 0.37628 0.0
Fe66 Fe 0.78181 0.39206 0.58881 0.0
Fe67 Fe 0.93501 0.50256 0.5419 0.0
O68 O 0.88442 0.4437 0.58878 0.0
Fe69 Fe 0.93519 0.43583 0.63562 0.0
O70 O 0.88817 0.33037 0.63137 0.0
O71 O 0.77106 0.31325 0.62535 0.0
O72 O 0.7798 0.33497 0.54104 0.0
C73 C 0.81119 0.36453 0.50379 0.0
C74 C 0.81125 0.44918 0.67383 0.0
O75 O 0.86295 0.43595 0.50086 0.0
C76 C 0.02387 0.59181 0.6174 0.0
O77 O 0.7708 0.45994 0.55228 0.0
O78 O 0.88783 0.56065 0.54617 0.0
O79 O 0.86319 0.43 0.67672 0.0
O80 O 0.77978 0.44712 0.63659 0.0
C81 C 0.02377 0.43566 0.56005 0.0
O82 O 0.01693 0.57846 0.57538 0.0
O83 O 0.98426 0.53883 0.64499 0.0
C84 C 0.81526 0.53069 0.54294 0.0
O85 O 0.98419 0.44897 0.53248 0.0
O86 O 0.01702 0.4422 0.60207 0.0
C87 C 0.81565 0.28733 0.63468 0.0
Fe88 Fe 0.44148 0.92952 0.70874 0.0
Fe89 Fe 0.39787 0.77597 0.75556 0.0
O90 O 0.44934 0.87873 0.75559 0.0
Fe91 Fe 0.50807 0.92947 0.80248 0.0
O92 O 0.4544 0.97856 0.81186 0.0
O93 O 0.4479 0.01152 0.74226 0.0
O94 O 0.3362 0.88246 0.713 0.0
C95 C 0.29321 0.80982 0.7097 0.0
C96 C 0.59722 0.01829 0.727 0.0
O97 O 0.31911 0.76515 0.71901 0.0
C98 C 0.5364 0.80973 0.80144 0.0
O99 O 0.43559 0.85738 0.66765 0.0
O100 O 0.45284 0.77396 0.70779 0.0
O101 O 0.5838 0.01153 0.76901 0.0
O102 O 0.54432 0.97861 0.69939 0.0
C103 C 0.37036 0.80535 0.84058 0.0
O104 O 0.46576 0.76509 0.79209 0.0
O105 O 0.56619 0.88239 0.7982 0.0
C106 C 0.45484 0.80544 0.67055 0.0
O107 O 0.34086 0.77392 0.80332 0.0
O108 O 0.44165 0.85728 0.84352 0.0
C109 C 0.44117 0.0182 0.78427 0.0
Fe110 Fe 0.62955 0.39198 0.92225 0.0
Fe111 Fe 0.58679 0.50232 0.96914 0.0
O112 O 0.57851 0.44345 0.92226 0.0
Fe113 Fe 0.51978 0.43539 0.87541 0.0
O114 O 0.46133 0.32991 0.87966 0.0
O115 O 0.56146 0.31307 0.88572 0.0
O116 O 0.57445 0.33488 0.97002 0.0
C117 C 0.57263 0.36443 0.00727 0.0
C118 C 0.65722 0.44901 0.83722 0.0
O119 O 0.59224 0.43581 0.01019 0.0
C120 C 0.58712 0.59141 0.8936 0.0
O121 O 0.70849 0.45997 0.95877 0.0
O122 O 0.69216 0.56055 0.96488 0.0
O123 O 0.58602 0.42969 0.83432 0.0
O124 O 0.68667 0.44705 0.87447 0.0
C125 C 0.43098 0.43521 0.95097 0.0
O126 O 0.58078 0.57812 0.93563 0.0
O127 O 0.5737 0.5384 0.86603 0.0
C128 C 0.73481 0.53071 0.96811 0.0
O129 O 0.48392 0.44861 0.97854 0.0
O130 O 0.44425 0.44163 0.90895 0.0
C131 C 0.49087 0.28699 0.87639 0.0
C132 C 0.31872 0.55235 0.21401 0.0
C133 C 0.24938 0.55472 0.21541 0.0
H134 H 0.41098 0.55374 0.25146 0.0
C135 C 0.21584 0.55252 0.2573 0.0
H136 H 0.34585 0.55341 0.18229 0.0
C137 C 0.25303 0.5523 0.29699 0.0
C138 C 0.3248 0.55482 0.29558 0.0
H139 H 0.16204 0.55348 0.25954 0.0
H140 H 0.22693 0.55332 0.32871 0.0
C141 C 0.35617 0.55267 0.25369 0.0
C142 C 0.67063 0.21012 0.42397 0.0
C143 C 0.70191 0.2438 0.38208 0.0
H144 H 0.68105 0.22127 0.49537 0.0
C145 C 0.77366 0.31343 0.38063 0.0
H146 H 0.61584 0.15608 0.42623 0.0
C147 C 0.81089 0.35105 0.4203 0.0
C148 C 0.77741 0.31955 0.4622 0.0
H149 H 0.79968 0.34068 0.3489 0.0
H150 H 0.86466 0.4061 0.41805 0.0
C151 C 0.70813 0.24747 0.46364 0.0
C152 C 0.46772 0.80503 0.58703 0.0
C153 C 0.46572 0.77156 0.62893 0.0
H154 H 0.46668 0.79375 0.51563 0.0
C155 C 0.46821 0.70219 0.63036 0.0
H156 H 0.46666 0.85886 0.58478 0.0
C157 C 0.46783 0.66462 0.5907 0.0
C158 C 0.46548 0.6959 0.5488 0.0
H159 H 0.46732 0.67511 0.66209 0.0
H160 H 0.46687 0.60977 0.59295 0.0
C161 C 0.46787 0.76773 0.54736 0.0
C162 C 0.77375 0.46246 0.79703 0.0
C163 C 0.70198 0.45997 0.7956 0.0
H164 H 0.86473 0.46127 0.7596 0.0
C165 C 0.67062 0.46211 0.7537 0.0
H166 H 0.79984 0.46144 0.82875 0.0
C167 C 0.70807 0.46242 0.71403 0.0
C168 C 0.77742 0.46006 0.71545 0.0
H169 H 0.61581 0.46105 0.75146 0.0
H170 H 0.68095 0.46137 0.6823 0.0
C171 C 0.81094 0.46224 0.75735 0.0
C172 C 0.21627 0.66442 0.92033 0.0
C173 C 0.2499 0.6957 0.96225 0.0
H174 H 0.22737 0.67495 0.84895 0.0
C175 C 0.31943 0.76757 0.96373 0.0
H176 H 0.16231 0.60955 0.91805 0.0
C177 C 0.35697 0.80491 0.92409 0.0
C178 C 0.3255 0.77143 0.88217 0.0
H179 H 0.34663 0.79359 0.99548 0.0
H180 H 0.41193 0.85876 0.92637 0.0
C181 C 0.25354 0.70203 0.88069 0.0
C182 C 0.55871 0.21012 0.08707 0.0
C183 C 0.56114 0.24378 0.12898 0.0
H184 H 0.55943 0.22125 0.01568 0.0
C185 C 0.55912 0.3134 0.13044 0.0
H186 H 0.5594 0.15609 0.08481 0.0
C187 C 0.55954 0.351 0.09078 0.0
C188 C 0.56146 0.3195 0.04887 0.0
H189 H 0.56037 0.34063 0.16217 0.0
H190 H 0.56088 0.40603 0.09305 0.0
C191 C 0.5586 0.24745 0.04742 0.0
C192 C 0.31299 0.45069 0.94698 0.0
C193 C 0.3577 0.4254 0.97019 0.0
H194 H 0.229 0.48792 0.95256 0.0
C195 C 0.33998 0.40333 0.01563 0.0
H196 H 0.32544 0.46866 0.9122 0.0
C197 C 0.28505 0.41438 0.0386 0.0
C198 C 0.24559 0.44624 0.01643 0.0
H199 H 0.37293 0.38302 0.03447 0.0
H200 H 0.27798 0.40385 0.07446 0.0
C201 C 0.25756 0.46138 0.97005 0.0
C202 C 0.8685 0.30632 0.11334 0.0
C203 C 0.93906 0.35 0.13631 0.0
H204 H 0.74672 0.22371 0.11929 0.0
C205 C 0.94355 0.33171 0.18162 0.0
H206 H 0.86289 0.31931 0.07868 0.0
C207 C 0.87728 0.27728 0.20474 0.0
C208 C 0.80555 0.23898 0.18284 0.0
H209 H 0.99723 0.36393 0.20026 0.0
H210 H 0.88099 0.26977 0.24053 0.0
C211 C 0.8021 0.25143 0.13656 0.0
C212 C 0.55822 0.79655 0.30338 0.0
C213 C 0.57416 0.80009 0.34966 0.0
H214 H 0.55058 0.85703 0.24554 0.0
C215 C 0.60712 0.87186 0.3716 0.0
H216 H 0.53087 0.74111 0.28608 0.0
C217 C 0.61843 0.93798 0.34853 0.0
C218 C 0.59557 0.9333 0.30323 0.0
H219 H 0.61829 0.87561 0.4074 0.0
H220 H 0.63955 0.99163 0.36722 0.0
C221 C 0.5692 0.8628 0.28021 0.0
C222 C 0.74193 0.6008 0.53867 0.0
C223 C 0.78127 0.5688 0.51652 0.0
H224 H 0.65419 0.63235 0.53453 0.0
C225 C 0.76924 0.55359 0.47015 0.0
H226 H 0.74906 0.61138 0.57453 0.0
C227 C 0.71388 0.56438 0.44706 0.0
C228 C 0.66929 0.58983 0.47025 0.0
H229 H 0.79772 0.52696 0.45267 0.0
H230 H 0.70138 0.54636 0.41228 0.0
C231 C 0.68706 0.61195 0.51569 0.0
C232 C 0.14965 0.73756 0.70509 0.0
C233 C 0.22127 0.77618 0.68312 0.0
H234 H 0.02979 0.65066 0.70067 0.0
C235 C 0.22459 0.76402 0.63679 0.0
H236 H 0.14607 0.74486 0.74092 0.0
C237 C 0.15818 0.70909 0.61357 0.0
C238 C 0.08775 0.6651 0.6366 0.0
H239 H 0.2799 0.79201 0.61946 0.0
H240 H 0.16371 0.69634 0.57885 0.0
C241 C 0.08337 0.68312 0.68197 0.0
C242 C 0.46794 0.21828 0.80353 0.0
C243 C 0.45252 0.21488 0.84987 0.0
H244 H 0.47534 0.15774 0.74564 0.0
C245 C 0.42016 0.14324 0.8719 0.0
H246 H 0.49484 0.27362 0.78615 0.0
C247 C 0.40895 0.07715 0.84885 0.0
C248 C 0.43137 0.08174 0.80347 0.0
H249 H 0.40939 0.13962 0.90774 0.0
H250 H 0.3883 0.02363 0.86759 0.0
C251 C 0.4571 0.15205 0.78037 0.0
C252 C 0.60722 0.73711 0.80592 0.0
C253 C 0.57458 0.77597 0.82796 0.0
H254 H 0.63971 0.64997 0.81024 0.0
C255 C 0.55925 0.76388 0.8743 0.0
H256 H 0.61796 0.74432 0.77008 0.0
C257 C 0.57053 0.70886 0.89748 0.0
C258 C 0.59661 0.66467 0.8744 0.0
H259 H 0.5322 0.79204 0.89169 0.0
H260 H 0.55238 0.69621 0.93223 0.0
C261 C 0.61886 0.68257 0.82899 0.0
C262 C 0.86983 0.56421 0.06397 0.0
C263 C 0.93988 0.58951 0.04077 0.0
H264 H 0.74857 0.52706 0.05838 0.0
C265 C 0.94432 0.61172 0.99535 0.0
H266 H 0.86426 0.54615 0.09874 0.0
C267 C 0.87834 0.60077 0.97239 0.0
C268 C 0.80695 0.56888 0.99454 0.0
H269 H 0.99762 0.63204 0.97652 0.0
H270 H 0.88184 0.61138 0.93653 0.0
C271 C 0.80373 0.55363 0.0409 0.0
C272 C 0.31255 0.8625 0.23089 0.0
C273 C 0.35643 0.93309 0.2079 0.0
H274 H 0.22958 0.74066 0.22495 0.0
C275 C 0.33814 0.93768 0.16262 0.0
H276 H 0.32551 0.85681 0.26554 0.0
C277 C 0.28351 0.87143 0.13951 0.0
C278 C 0.245 0.79962 0.16141 0.0
H279 H 0.3705 0.9914 0.14397 0.0
H280 H 0.27601 0.87516 0.10372 0.0
C281 C 0.25745 0.79612 0.20768 0.0
C282 C 0.41972 0.27784 0.30611 0.0
C283 C 0.45272 0.23928 0.32811 0.0
H284 H 0.38688 0.36472 0.31046 0.0
C285 C 0.46836 0.25163 0.37442 0.0
H286 H 0.40872 0.27041 0.2703 0.0
C287 C 0.457 0.30661 0.3976 0.0
C288 C 0.43053 0.3505 0.37454 0.0
H289 H 0.4957 0.22372 0.39177 0.0
H290 H 0.47538 0.31947 0.4323 0.0
C291 C 0.40802 0.33234 0.32919 0.0
C292 C 0.15725 0.45104 0.56402 0.0
C293 C 0.08718 0.42577 0.54083 0.0
H294 H 0.2785 0.48814 0.55842 0.0
C295 C 0.08271 0.40359 0.4954 0.0
H296 H 0.16285 0.46909 0.5988 0.0
C297 C 0.14865 0.41451 0.47242 0.0
C298 C 0.22006 0.44636 0.49457 0.0
H299 H 0.0294 0.38329 0.47656 0.0
H300 H 0.14512 0.40392 0.43656 0.0
C301 C 0.22333 0.4616 0.54094 0.0
C302 C 0.68854 0.07738 0.66249 0.0
C303 C 0.67054 0.08202 0.70783 0.0
H304 H 0.75045 0.13984 0.60355 0.0
C305 C 0.71474 0.15255 0.73083 0.0
H306 H 0.65595 0.0237 0.64382 0.0
C307 C 0.76987 0.21887 0.70761 0.0
C308 C 0.78203 0.21535 0.6613 0.0
H309 H 0.70202 0.15827 0.76552 0.0
H310 H 0.798 0.27431 0.72491 0.0
C311 C 0.74319 0.14357 0.63937 0.0
loop_
_geom_bond_atom_site_label_1
_geom_bond_atom_site_label_2
_geom_bond_distance
_geom_bond_site_symmetry_2
_ccdc_geom_bond_type
Fe0 O2 1.918 . S
Fe0 O5 1.997 . S
Fe0 O6 2.002 . S
Fe0 O11 1.976 . S
Fe0 O14 1.996 . S
Fe1 O2 1.918 . S
Fe1 O9 1.997 . S
Fe1 O12 1.996 . S
Fe1 O16 1.976 . S
Fe1 O19 2.002 . S
O2 Fe0 1.918 . S
O2 Fe1 1.918 . S
O2 Fe3 1.918 . S
Fe3 O2 1.918 . S
Fe3 O4 2.002 . S
Fe3 O13 1.976 . S
Fe3 O17 1.996 . S
Fe3 O20 1.997 1_554 S
O4 Fe3 2.002 . S
O4 C21 1.295 . S
O5 Fe0 1.997 . S
O5 C21 1.235 . S
O6 Fe0 2.002 . S
O6 C7 1.295 . S
C7 O6 1.295 . S
C7 O9 1.235 . S
C8 O13 1.287 . S
C8 O14 1.255 . S
O9 Fe1 1.997 . S
O9 C7 1.235 . S
C10 O16 1.287 . S
C10 O17 1.255 . S
O11 Fe0 1.976 . S
O11 C18 1.287 . S
O12 Fe1 1.996 . S
O12 C18 1.255 . S
O13 Fe3 1.976 . S
O13 C8 1.287 . S
O14 Fe0 1.996 . S
O14 C8 1.255 . S
C15 O19 1.295 1_556 S
C15 O20 1.235 . S
O16 Fe1 1.976 . S
O16 C10 1.287 . S
O17 Fe3 1.996 . S
O17 C10 1.255 . S
C18 O11 1.287 . S
C18 O12 1.255 . S
O19 Fe1 2.002 . S
O19 C15 1.295 1_554 S
O20 Fe3 1.997 1_556 S
O20 C15 1.235 . S
C21 O4 1.295 . S
C21 O5 1.235 . S
Fe22 O24 1.918 . S
Fe22 O27 1.997 . S
Fe22 O28 2.002 . S
Fe22 O33 1.976 . S
Fe22 O36 1.996 . S
Fe23 O24 1.918 . S
Fe23 O31 1.997 . S
Fe23 O34 1.996 . S
Fe23 O38 1.976 . S
Fe23 O41 2.002 . S
O24 Fe22 1.918 . S
O24 Fe23 1.918 . S
O24 Fe25 1.918 . S
Fe25 O24 1.918 . S
Fe25 O26 2.002 . S
Fe25 O35 1.976 . S
Fe25 O39 1.996 . S
Fe25 O42 1.997 . S
O26 Fe25 2.002 . S
O26 C43 1.295 . S
O27 Fe22 1.997 . S
O27 C43 1.235 . S
O28 Fe22 2.002 . S
O28 C29 1.295 . S
C29 O28 1.295 . S
C29 O31 1.235 . S
C30 O35 1.287 . S
C30 O36 1.255 . S
O31 Fe23 1.997 . S
O31 C29 1.235 . S
C32 O38 1.287 . S
C32 O39 1.255 . S
O33 Fe22 1.976 . S
O33 C40 1.287 . S
O34 Fe23 1.996 . S
O34 C40 1.255 . S
O35 Fe25 1.976 . S
O35 C30 1.287 . S
O36 Fe22 1.996 . S
O36 C30 1.255 . S
C37 O41 1.295 . S
C37 O42 1.235 . S
O38 Fe23 1.976 . S
O38 C32 1.287 . S
O39 Fe25 1.996 . S
O39 C32 1.255 . S
C40 O33 1.287 . S
C40 O34 1.255 . S
O41 Fe23 2.002 . S
O41 C37 1.295 . S
O42 Fe25 1.997 . S
O42 C37 1.235 . S
C43 O26 1.295 . S
C43 O27 1.235 . S
Fe44 O46 1.918 . S
Fe44 O49 1.997 . S
Fe44 O50 2.002 . S
Fe44 O55 1.976 . S
Fe44 O58 1.996 . S
Fe45 O46 1.918 . S
Fe45 O53 1.997 . S
Fe45 O56 1.996 . S
Fe45 O60 1.976 . S
Fe45 O63 2.002 . S
O46 Fe44 1.918 . S
O46 Fe45 1.918 . S
O46 Fe47 1.918 . S
Fe47 O46 1.918 . S
Fe47 O48 2.002 . S
Fe47 O57 1.976 . S
Fe47 O61 1.996 . S
Fe47 O64 1.997 . S
O48 Fe47 2.002 . S
O48 C65 1.295 . S
O49 Fe44 1.997 . S
O49 C65 1.235 . S
O50 Fe44 2.002 . S
O50 C51 1.295 . S
C51 O50 1.295 . S
C51 O53 1.235 . S
C52 O57 1.287 . S
C52 O58 1.255 . S
O53 Fe45 1.997 . S
O53 C51 1.235 . S
C54 O60 1.287 . S
C54 O61 1.255 . S
O55 Fe44 1.976 . S
O55 C62 1.287 . S
O56 Fe45 1.996 . S
O56 C62 1.255 . S
O57 Fe47 1.976 . S
O57 C52 1.287 . S
O58 Fe44 1.996 . S
O58 C52 1.255 . S
C59 O63 1.295 . S
C59 O64 1.235 . S
O60 Fe45 1.976 . S
O60 C54 1.287 . S
O61 Fe47 1.996 . S
O61 C54 1.255 . S
C62 O55 1.287 . S
C62 O56 1.255 . S
O63 Fe45 2.002 . S
O63 C59 1.295 . S
O64 Fe47 1.997 . S
O64 C59 1.235 . S
C65 O48 1.295 . S
C65 O49 1.235 . S
Fe66 O68 1.918 . S
Fe66 O71 1.997 . S
Fe66 O72 2.002 . S
Fe66 O77 1.976 . S
Fe66 O80 1.996 . S
Fe67 O68 1.918 . S
Fe67 O75 1.997 . S
Fe67 O78 1.996 . S
Fe67 O82 1.976 . S
Fe67 O85 2.002 . S
O68 Fe66 1.918 . S
O68 Fe67 1.918 . S
O68 Fe69 1.918 . S
Fe69 O68 1.918 . S
Fe69 O70 2.002 . S
Fe69 O79 1.976 . S
Fe69 O83 1.996 . S
Fe69 O86 1.997 . S
O70 Fe69 2.002 . S
O70 C87 1.295 . S
O71 Fe66 1.997 . S
O71 C87 1.235 . S
O72 Fe66 2.002 . S
O72 C73 1.295 . S
C73 O72 1.295 . S
C73 O75 1.235 . S
C74 O79 1.287 . S
C74 O80 1.255 . S
O75 Fe67 1.997 . S
O75 C73 1.235 . S
C76 O82 1.287 . S
C76 O83 1.255 . S
O77 Fe66 1.976 . S
O77 C84 1.287 . S
O78 Fe67 1.996 . S
O78 C84 1.255 . S
O79 Fe69 1.976 . S
O79 C74 1.287 . S
O80 Fe66 1.996 . S
O80 C74 1.255 . S
C81 O85 1.295 . S
C81 O86 1.235 . S
O82 Fe67 1.976 . S
O82 C76 1.287 . S
O83 Fe69 1.996 . S
O83 C76 1.255 . S
C84 O77 1.287 . S
C84 O78 1.255 . S
O85 Fe67 2.002 . S
O85 C81 1.295 . S
O86 Fe69 1.997 . S
O86 C81 1.235 . S
C87 O70 1.295 . S
C87 O71 1.235 . S
Fe88 O90 1.918 . S
Fe88 O93 1.997 . S
Fe88 O94 2.002 . S
Fe88 O99 1.976 . S
Fe88 O102 1.996 . S
Fe89 O90 1.918 . S
Fe89 O97 1.997 . S
Fe89 O100 1.996 . S
Fe89 O104 1.976 . S
Fe89 O107 2.002 . S
O90 Fe88 1.918 . S
O90 Fe89 1.918 . S
O90 Fe91 1.918 . S
Fe91 O90 1.918 . S
Fe91 O92 2.002 . S
Fe91 O101 1.976 . S
Fe91 O105 1.996 . S
Fe91 O108 1.997 . S
O92 Fe91 2.002 . S
O92 C109 1.295 . S
O93 Fe88 1.997 . S
O93 C109 1.235 . S
O94 Fe88 2.002 . S
O94 C95 1.295 . S
C95 O94 1.295 . S
C95 O97 1.235 . S
C96 O101 1.287 . S
C96 O102 1.255 . S
O97 Fe89 1.997 . S
O97 C95 1.235 . S
C98 O104 1.287 . S
C98 O105 1.255 . S
O99 Fe88 1.976 . S
O99 C106 1.287 . S
O100 Fe89 1.996 . S
O100 C106 1.255 . S
O101 Fe91 1.976 . S
O101 C96 1.287 . S
O102 Fe88 1.996 . S
O102 C96 1.255 . S
C103 O107 1.295 . S
C103 O108 1.235 . S
O104 Fe89 1.976 . S
O104 C98 1.287 . S
O105 Fe91 1.996 . S
O105 C98 1.255 . S
C106 O99 1.287 . S
C106 O100 1.255 . S
O107 Fe89 2.002 . S
O107 C103 1.295 . S
O108 Fe91 1.997 . S
O108 C103 1.235 . S
C109 O92 1.295 . S
C109 O93 1.235 . S
Fe110 O112 1.918 . S
Fe110 O115 1.997 . S
Fe110 O116 2.002 . S
Fe110 O121 1.976 . S
Fe110 O124 1.996 . S
Fe111 O112 1.918 . S
Fe111 O119 1.997 1_556 S
Fe111 O122 1.996 . S
Fe111 O126 1.976 . S
Fe111 O129 2.002 . S
O112 Fe110 1.918 . S
O112 Fe111 1.918 . S
O112 Fe113 1.918 . S
Fe113 O112 1.918 . S
Fe113 O114 2.002 . S
Fe113 O123 1.976 . S
Fe113 O127 1.996 . S
Fe113 O130 1.997 . S
O114 Fe113 2.002 . S
O114 C131 1.295 . S
O115 Fe110 1.997 . S
O115 C131 1.235 . S
O116 Fe110 2.002 . S
O116 C117 1.295 1_556 S
C117 O116 1.295 1_554 S
C117 O119 1.235 . S
C118 O123 1.287 . S
C118 O124 1.255 . S
O119 Fe111 1.997 1_554 S
O119 C117 1.235 . S
C120 O126 1.287 . S
C120 O127 1.255 . S
O121 Fe110 1.976 . S
O121 C128 1.287 . S
O122 Fe111 1.996 . S
O122 C128 1.255 . S
O123 Fe113 1.976 . S
O123 C118 1.287 . S
O124 Fe110 1.996 . S
O124 C118 1.255 . S
C125 O129 1.295 . S
C125 O130 1.235 . S
O126 Fe111 1.976 . S
O126 C120 1.287 . S
O127 Fe113 1.996 . S
O127 C120 1.255 . S
C128 O121 1.287 . S
C128 O122 1.255 . S
O129 Fe111 2.002 . S
O129 C125 1.295 . S
O130 Fe113 1.997 . S
O130 C125 1.235 . S
C131 O114 1.295 . S
C131 O115 1.235 . S
C132 C133 1.387 . S
C132 H136 0.950 . S
C132 C141 1.390 . S
C133 C132 1.387 . S
C133 C135 1.387 . S
H134 C141 0.950 . S
C135 C133 1.387 . S
C135 C137 1.390 . S
C135 H139 0.950 . S
H136 C132 0.950 . S
C137 C135 1.390 . S
C137 C138 1.387 . S
C137 H140 0.950 . S
C138 C137 1.387 . S
C138 C141 1.387 . S
H139 C135 0.950 . S
H140 C137 0.950 . S
C141 C132 1.390 . S
C141 H134 0.950 . S
C141 C138 1.387 . S
C142 C143 1.387 . S
C142 H146 0.950 . S
C142 C151 1.390 . S
C143 C142 1.387 . S
C143 C145 1.387 . S
H144 C151 0.950 . S
C145 C143 1.387 . S
C145 C147 1.390 . S
C145 H149 0.950 . S
H146 C142 0.950 . S
C147 C145 1.390 . S
C147 C148 1.387 . S
C147 H150 0.950 . S
C148 C147 1.387 . S
C148 C151 1.387 . S
H149 C145 0.950 . S
H150 C147 0.950 . S
C151 C142 1.390 . S
C151 H144 0.950 . S
C151 C148 1.387 . S
C152 C153 1.387 . S
C152 H156 0.950 . S
C152 C161 1.390 . S
C153 C152 1.387 . S
C153 C155 1.387 . S
H154 C161 0.950 . S
C155 C153 1.387 . S
C155 C157 1.390 . S
C155 H159 0.950 . S
H156 C152 0.950 . S
C157 C155 1.390 . S
C157 C158 1.387 . S
C157 H160 0.950 . S
C158 C157 1.387 . S
C158 C161 1.387 . S
H159 C155 0.950 . S
H160 C157 0.950 . S
C161 C152 1.390 . S
C161 H154 0.950 . S
C161 C158 1.387 . S
C162 C163 1.387 . S
C162 H166 0.950 . S
C162 C171 1.390 . S
C163 C162 1.387 . S
C163 C165 1.387 . S
H164 C171 0.950 . S
C165 C163 1.387 . S
C165 C167 1.390 . S
C165 H169 0.950 . S
H166 C162 0.950 . S
C167 C165 1.390 . S
C167 C168 1.387 . S
C167 H170 0.950 . S
C168 C167 1.387 . S
C168 C171 1.387 . S
H169 C165 0.950 . S
H170 C167 0.950 . S
C171 C162 1.390 . S
C171 H164 0.950 . S
C171 C168 1.387 . S
C172 C173 1.387 . S
C172 H176 0.950 . S
C172 C181 1.390 . S
C173 C172 1.387 . S
C173 C175 1.387 . S
H174 C181 0.950 . S
C175 C173 1.387 . S
C175 C177 1.390 . S
C175 H179 0.950 . S
H176 C172 0.950 . S
C177 C175 1.390 . S
C177 C178 1.387 . S
C177 H180 0.950 . S
C178 C177 1.387 . S
C178 C181 1.387 . S
H179 C175 0.950 . S
H180 C177 0.950 . S
C181 C172 1.390 . S
C181 H174 0.950 . S
C181 C178 1.387 . S
C182 C183 1.387 . S
C182 H186 0.950 . S
C182 C191 1.390 . S
C183 C182 1.387 . S
C183 C185 1.387 . S
H184 C191 0.950 . S
C185 C183 1.387 . S
C185 C187 1.390 . S
C185 H189 0.950 . S
H186 C182 0.950 . S
C187 C185 1.390 . S
C187 C188 1.387 . S
C187 H190 0.950 . S
C188 C187 1.387 . S
C188 C191 1.387 . S
H189 C185 0.950 . S
H190 C187 0.950 . S
C191 C182 1.390 . S
C191 H184 0.950 . S
C191 C188 1.387 . S
C192 C193 1.387 . S
C192 H196 0.950 . S
C192 C201 1.390 . S
C193 C192 1.387 . S
C193 C195 1.387 1_556 S
H194 C201 0.950 . S
C195 C193 1.387 1_554 S
C195 C197 1.390 . S
C195 H199 0.950 . S
H196 C192 0.950 . S
C197 C195 1.390 . S
C197 C198 1.387 . S
C197 H200 0.950 . S
C198 C197 1.387 . S
C198 C201 1.387 1_554 S
H199 C195 0.950 . S
H200 C197 0.950 . S
C201 C192 1.390 . S
C201 H194 0.950 . S
C201 C198 1.387 1_556 S
C202 C203 1.387 . S
C202 H206 0.950 . S
C202 C211 1.390 . S
C203 C202 1.387 . S
C203 C205 1.387 . S
H204 C211 0.950 . S
C205 C203 1.387 . S
C205 C207 1.390 . S
C205 H209 0.950 . S
H206 C202 0.950 . S
C207 C205 1.390 . S
C207 C208 1.387 . S
C207 H210 0.950 . S
C208 C207 1.387 . S
C208 C211 1.387 . S
H209 C205 0.950 . S
H210 C207 0.950 . S
C211 C202 1.390 . S
C211 H204 0.950 . S
C211 C208 1.387 . S
C212 C213 1.387 . S
C212 H216 0.950 . S
C212 C221 1.390 . S
C213 C212 1.387 . S
C213 C215 1.387 . S
H214 C221 0.950 . S
C215 C213 1.387 . S
C215 C217 1.390 . S
C215 H219 0.950 . S
H216 C212 0.950 . S
C217 C215 1.390 . S
C217 C218 1.387 . S
C217 H220 0.950 . S
C218 C217 1.387 . S
C218 C221 1.387 . S
H219 C215 0.950 . S
H220 C217 0.950 . S
C221 C212 1.390 . S
C221 H214 0.950 . S
C221 C218 1.387 . S
C222 C223 1.387 . S
C222 H226 0.950 . S
C222 C231 1.390 . S
C223 C222 1.387 . S
C223 C225 1.387 . S
H224 C231 0.950 . S
C225 C223 1.387 . S
C225 C227 1.390 . S
C225 H229 0.950 . S
H226 C222 0.950 . S
C227 C225 1.390 . S
C227 C228 1.387 . S
C227 H230 0.950 . S
C228 C227 1.387 . S
C228 C231 1.387 . S
H229 C225 0.950 . S
H230 C227 0.950 . S
C231 C222 1.390 . S
C231 H224 0.950 . S
C231 C228 1.387 . S
C232 C233 1.387 . S
C232 H236 0.950 . S
C232 C241 1.390 . S
C233 C232 1.387 . S
C233 C235 1.387 . S
H234 C241 0.950 . S
C235 C233 1.387 . S
C235 C237 1.390 . S
C235 H239 0.950 . S
H236 C232 0.950 . S
C237 C235 1.390 . S
C237 C238 1.387 . S
C237 H240 0.950 . S
C238 C237 1.387 . S
C238 C241 1.387 . S
H239 C235 0.950 . S
H240 C237 0.950 . S
C241 C232 1.390 . S
C241 H234 0.950 . S
C241 C238 1.387 . S
C242 C243 1.387 . S
C242 H246 0.950 . S
C242 C251 1.390 . S
C243 C242 1.387 . S
C243 C245 1.387 . S
H244 C251 0.950 . S
C245 C243 1.387 . S
C245 C247 1.390 . S
C245 H249 0.950 . S
H246 C242 0.950 . S
C247 C245 1.390 . S
C247 C248 1.387 . S
C247 H250 0.950 . S
C248 C247 1.387 . S
C248 C251 1.387 . S
H249 C245 0.950 . S
H250 C247 0.950 . S
C251 C242 1.390 . S
C251 H244 0.950 . S
C251 C248 1.387 . S
C252 C253 1.387 . S
C252 H256 0.950 . S
C252 C261 1.390 . S
C253 C252 1.387 . S
C253 C255 1.387 . S
H254 C261 0.950 . S
C255 C253 1.387 . S
C255 C257 1.390 . S
C255 H259 0.950 . S
H256 C252 0.950 . S
C257 C255 1.390 . S
C257 C258 1.387 . S
C257 H260 0.950 . S
C258 C257 1.387 . S
C258 C261 1.387 . S
H259 C255 0.950 . S
H260 C257 0.950 . S
C261 C252 1.390 . S
C261 H254 0.950 . S
C261 C258 1.387 . S
C262 C263 1.387 . S
C262 H266 0.950 . S
C262 C271 1.401 . S
C263 C262 1.387 . S
C263 C265 1.387 . S
H264 C271 0.949 1_556 S
C265 C263 1.387 . S
C265 C267 1.390 1_554 S
C265 H269 0.950 . S
H266 C262 0.950 . S
C267 C265 1.390 1_556 S
C267 C268 1.387 . S
C267 H270 0.950 . S
C268 C267 1.387 . S
C268 C271 1.378 1_556 S
H269 C265 0.950 . S
H270 C267 0.950 . S
C271 C262 1.401 . S
C271 H264 0.949 1_554 S
C271 C268 1.378 1_554 S
C272 C273 1.387 . S
C272 H276 0.950 . S
C272 C281 1.390 . S
C273 C272 1.387 . S
C273 C275 1.387 . S
H274 C281 0.950 . S
C275 C273 1.387 . S
C275 C277 1.390 . S
C275 H279 0.950 . S
H276 C272 0.950 . S
C277 C275 1.390 . S
C277 C278 1.387 . S
C277 H280 0.950 . S
C278 C277 1.387 . S
C278 C281 1.387 . S
H279 C275 0.950 . S
H280 C277 0.950 . S
C281 C272 1.390 . S
C281 H274 0.950 . S
C281 C278 1.387 . S
C282 C283 1.387 . S
C282 H286 0.950 . S
C282 C291 1.390 . S
C283 C282 1.387 . S
C283 C285 1.387 . S
H284 C291 0.950 . S
C285 C283 1.387 . S
C285 C287 1.390 . S
C285 H289 0.950 . S
H286 C282 0.950 . S
C287 C285 1.390 . S
C287 C288 1.387 . S
C287 H290 0.950 . S
C288 C287 1.387 . S
C288 C291 1.387 . S
H289 C285 0.950 . S
H290 C287 0.950 . S
C291 C282 1.390 . S
C291 H284 0.950 . S
C291 C288 1.387 . S
C292 C293 1.387 . S
C292 H296 0.950 . S
C292 C301 1.390 . S
C293 C292 1.387 . S
C293 C295 1.387 . S
H294 C301 0.950 . S
C295 C293 1.387 . S
C295 C297 1.390 . S
C295 H299 0.950 . S
H296 C292 0.950 . S
C297 C295 1.390 . S
C297 C298 1.387 . S
C297 H300 0.950 . S
C298 C297 1.387 . S
C298 C301 1.387 . S
H299 C295 0.950 . S
H300 C297 0.950 . S
C301 C292 1.390 . S
C301 H294 0.950 . S
C301 C298 1.387 . S
C302 C303 1.387 . S
C302 H306 0.950 1_545 S
C302 C311 1.390 . S
C303 C302 1.387 . S
C303 C305 1.387 . S
H304 C311 0.950 . S
C305 C303 1.387 . S
C305 C307 1.390 . S
C305 H309 0.950 . S
H306 C302 0.950 1_565 S
C307 C305 1.390 . S
C307 C308 1.387 . S
C307 H310 0.950 . S
C308 C307 1.387 . S
C308 C311 1.387 . S
H309 C305 0.950 . S
H310 C307 0.950 . S
C311 C302 1.390 . S
C311 H304 0.950 . S
C311 C308 1.387 . S
C133 C18 0.991 . S
C138 C52 0.991 . S
C143 C37 1.104 . S
C148 C73 1.107 . S
C153 C106 1.052 . S
C158 C51 1.046 . S
C163 C118 0.991 . S
C168 C74 0.991 . S
C173 C15 1.106 . S
C178 C103 1.106 . S
C183 C40 1.052 . S
C188 C117 1.045 . S
C193 C125 1.437 . S
C198 C10 1.462 . S
C203 C8 1.458 1_655 S
C208 C29 1.432 . S
C213 C65 1.454 . S
C218 C43 1.465 1_565 S
C223 C84 1.462 . S
C228 C59 1.440 . S
C233 C95 1.432 . S
C238 C76 1.459 1_455 S
C243 C131 1.456 . S
C248 C109 1.466 1_545 S
C253 C98 1.432 . S
C258 C120 1.427 . S
C263 C21 1.433 1_655 S
C268 C128 1.453 . S
C273 C30 1.452 1_565 S
C278 C7 1.425 . S
C283 C32 1.430 . S
C288 C54 1.426 . S
C293 C81 1.433 1_455 S
C298 C62 1.452 . S
C303 C96 1.455 1_545 S
C308 C87 1.425 . S
