# Generated by pormake.
# Topology lta, (4)-cn, num edge types: 1
# Building blocks:
#     Node 0, Type 0, BuildingBlock: KUFVIS_clean_sbu_0, # of connection points: 4
#     Node 1, Type 0, BuildingBlock: KUFVIS_clean_sbu_0, # of connection points: 4
#     Node 2, Type 0, BuildingBlock: KUFVIS_clean_sbu_0, # of connection points: 4
#     Node 3, Type 0, BuildingBlock: KUFVIS_clean_sbu_0, # of connection points: 4
#     Node 4, Type 0, BuildingBlock: KUFVIS_clean_sbu_0, # of connection points: 4
#     Node 5, Type 0, BuildingBlock: KUFVIS_clean_sbu_0, # of connection points: 4
#     Node 6, Type 0, BuildingBlock: KUFVIS_clean_sbu_0, # of connection points: 4
#     Node 7, Type 0, BuildingBlock: KUFVIS_clean_sbu_0, # of connection points: 4
#     Node 8, Type 0, BuildingBlock: KUFVIS_clean_sbu_0, # of connection points: 4
#     Node 9, Type 0, BuildingBlock: KUFVIS_clean_sbu_0, # of connection points: 4
#     Node 10, Type 0, BuildingBlock: KUFVIS_clean_sbu_0, # of connection points: 4
#     Node 11, Type 0, BuildingBlock: KUFVIS_clean_sbu_0, # of connection points: 4
#     Node 12, Type 0, BuildingBlock: KUFVIS_clean_sbu_0, # of connection points: 4
#     Node 13, Type 0, BuildingBlock: KUFVIS_clean_sbu_0, # of connection points: 4
#     Node 14, Type 0, BuildingBlock: KUFVIS_clean_sbu_0, # of connection points: 4
#     Node 15, Type 0, BuildingBlock: KUFVIS_clean_sbu_0, # of connection points: 4
#     Node 16, Type 0, BuildingBlock: KUFVIS_clean_sbu_0, # of connection points: 4
#     Node 17, Type 0, BuildingBlock: KUFVIS_clean_sbu_0, # of connection points: 4
#     Node 18, Type 0, BuildingBlock: KUFVIS_clean_sbu_0, # of connection points: 4
#     Node 19, Type 0, BuildingBlock: KUFVIS_clean_sbu_0, # of connection points: 4
#     Node 20, Type 0, BuildingBlock: KUFVIS_clean_sbu_0, # of connection points: 4
#     Node 21, Type 0, BuildingBlock: KUFVIS_clean_sbu_0, # of connection points: 4
#     Node 22, Type 0, BuildingBlock: KUFVIS_clean_sbu_0, # of connection points: 4
#     Node 23, Type 0, BuildingBlock: KUFVIS_clean_sbu_0, # of connection points: 4
#     Edge 24, Type (0, 0), None
#     Edge 25, Type (0, 0), None
#     Edge 26, Type (0, 0), None
#     Edge 27, Type (0, 0), None
#     Edge 28, Type (0, 0), None
#     Edge 29, Type (0, 0), None
#     Edge 30, Type (0, 0), None
#     Edge 31, Type (0, 0), None
#     Edge 32, Type (0, 0), None
#     Edge 33, Type (0, 0), None
#     Edge 34, Type (0, 0), None
#     Edge 35, Type (0, 0), None
#     Edge 36, Type (0, 0), None
#     Edge 37, Type (0, 0), None
#     Edge 38, Type (0, 0), None
#     Edge 39, Type (0, 0), None
#     Edge 40, Type (0, 0), None
#     Edge 41, Type (0, 0), None
#     Edge 42, Type (0, 0), None
#     Edge 43, Type (0, 0), None
#     Edge 44, Type (0, 0), None
#     Edge 45, Type (0, 0), None
#     Edge 46, Type (0, 0), None
#     Edge 47, Type (0, 0), None
#     Edge 48, Type (0, 0), None
#     Edge 49, Type (0, 0), None
#     Edge 50, Type (0, 0), None
#     Edge 51, Type (0, 0), None
#     Edge 52, Type (0, 0), None
#     Edge 53, Type (0, 0), None
#     Edge 54, Type (0, 0), None
#     Edge 55, Type (0, 0), None
#     Edge 56, Type (0, 0), None
#     Edge 57, Type (0, 0), None
#     Edge 58, Type (0, 0), None
#     Edge 59, Type (0, 0), None
#     Edge 60, Type (0, 0), None
#     Edge 61, Type (0, 0), None
#     Edge 62, Type (0, 0), None
#     Edge 63, Type (0, 0), None
#     Edge 64, Type (0, 0), None
#     Edge 65, Type (0, 0), None
#     Edge 66, Type (0, 0), None
#     Edge 67, Type (0, 0), None
#     Edge 68, Type (0, 0), None
#     Edge 69, Type (0, 0), None
#     Edge 70, Type (0, 0), None
#     Edge 71, Type (0, 0), None
# Relax obj value: 0.234
# Max RMSD: 0.138
# Mean RMSD: 0.138
data_MOF--net-lta--node1-KUFVIS_clean_sbu_0--edge1-none
_symmetry_space_group_name_H-M    P1
_symmetry_Int_Tables_number       1
_symmetry_cell_setting            triclinic
loop_
_symmetry_equiv_pos_as_xyz
'x, y, z'
_cell_length_a     26.312309
_cell_length_b     26.134027
_cell_length_c     26.161355
_cell_angle_alpha  89.996553
_cell_angle_beta   89.998755
_cell_angle_gamma 90.004433
loop_
_atom_site_label
_atom_site_type_symbol
_atom_site_fract_x
_atom_site_fract_y
_atom_site_fract_z
_atom_type_partial_charge
Mn0 Mn 0.10853 0.32122 0.49885 0.0
Mn1 Mn 0.16568 0.32484 0.53012 0.0
C2 C 0.10745 0.39708 0.58 0.0
C3 C 0.01784 0.32625 0.49569 0.0
C4 C 0.20611 0.25167 0.49224 0.0
O5 O 0.11097 0.31769 0.42253 0.0
O6 O 0.1551 0.37429 0.46837 0.0
C7 C 0.24323 0.40476 0.5436 0.0
N8 N 0.21391 0.36748 0.56384 0.0
C9 C 0.25087 0.37994 0.64588 0.0
C10 C 0.28444 0.4161 0.62547 0.0
C11 C 0.2829 0.4259 0.57283 0.0
C12 C 0.22083 0.35231 0.61232 0.0
H13 H 0.23434 0.41899 0.50663 0.0
C14 C 0.13056 0.36282 0.42657 0.0
O15 O 0.04172 0.28478 0.50492 0.0
O16 O 0.04535 0.36622 0.48969 0.0
N17 N 0.17326 0.28116 0.59085 0.0
C18 C 0.14211 0.24117 0.60426 0.0
C19 C 0.13704 0.22683 0.65571 0.0
C20 C 0.161 0.25567 0.6938 0.0
C21 C 0.1904 0.29795 0.67973 0.0
C22 C 0.19572 0.30921 0.62778 0.0
H23 H 0.11828 0.22229 0.57647 0.0
O24 O 0.10737 0.34817 0.57544 0.0
O25 O 0.10788 0.34891 0.57296 0.0
O26 O 0.15762 0.24869 0.50037 0.0
O27 O 0.22214 0.29634 0.49469 0.0
C28 C 0.21247 0.33135 0.71513 0.0
C29 C 0.24431 0.37119 0.69792 0.0
H30 H 0.31075 0.43678 0.64969 0.0
H31 H 0.30839 0.45378 0.55617 0.0
H32 H 0.11264 0.19515 0.66611 0.0
H33 H 0.15578 0.24568 0.73365 0.0
H34 H 0.20411 0.32703 0.75511 0.0
H35 H 0.26143 0.39712 0.72408 0.0
Mn36 Mn 0.6629 0.11254 0.50273 0.0
Mn37 Mn 0.6634 0.16844 0.53936 0.0
C38 C 0.59277 0.10316 0.58751 0.0
C39 C 0.65815 0.02137 0.49585 0.0
C40 C 0.73331 0.21084 0.49857 0.0
O41 O 0.66074 0.12012 0.42709 0.0
O42 O 0.60958 0.16339 0.48063 0.0
C43 C 0.59217 0.25086 0.56711 0.0
N44 N 0.62596 0.21454 0.5813 0.0
C45 C 0.6164 0.2353 0.66926 0.0
C46 C 0.5808 0.27298 0.65623 0.0
C47 C 0.57049 0.28268 0.60452 0.0
C48 C 0.64276 0.21235 0.62981 0.0
H49 H 0.58221 0.25468 0.52784 0.0
C50 C 0.61679 0.14013 0.43683 0.0
O51 O 0.69968 0.04541 0.50313 0.0
O52 O 0.61808 0.04902 0.4928 0.0
N53 N 0.71182 0.16881 0.59707 0.0
C54 C 0.75281 0.13689 0.60321 0.0
C55 C 0.77012 0.12412 0.65237 0.0
C56 C 0.74329 0.14098 0.69542 0.0
C57 C 0.70018 0.17149 0.68871 0.0
C58 C 0.68623 0.18509 0.63883 0.0
H59 H 0.77044 0.11792 0.57117 0.0
O60 O 0.6408 0.10683 0.58044 0.0
O61 O 0.64027 0.10731 0.5782 0.0
O62 O 0.73547 0.16141 0.50201 0.0
O63 O 0.69002 0.22773 0.50683 0.0
C64 C 0.66822 0.1862 0.72907 0.0
C65 C 0.6258 0.21746 0.71885 0.0
H66 H 0.56095 0.29444 0.6852 0.0
H67 H 0.5439 0.31239 0.59382 0.0
H68 H 0.8025 0.09901 0.65695 0.0
H69 H 0.75545 0.12938 0.73324 0.0
H70 H 0.67524 0.17285 0.7676 0.0
H71 H 0.59855 0.22419 0.74816 0.0
Mn72 Mn 0.8722 0.66611 0.49873 0.0
Mn73 Mn 0.81499 0.66236 0.52975 0.0
C74 C 0.87278 0.58996 0.57966 0.0
C75 C 0.9629 0.66112 0.49583 0.0
C76 C 0.77467 0.7357 0.49196 0.0
O77 O 0.87002 0.66993 0.42243 0.0
O78 O 0.82578 0.61312 0.46787 0.0
C79 C 0.73765 0.58211 0.54285 0.0
N80 N 0.76664 0.6196 0.5632 0.0
C81 C 0.72933 0.60697 0.64507 0.0
C82 C 0.69595 0.57075 0.62447 0.0
C83 C 0.69783 0.56091 0.57184 0.0
C84 C 0.75948 0.6347 0.61166 0.0
H85 H 0.7469 0.56773 0.50601 0.0
C86 C 0.85043 0.62478 0.42619 0.0
O87 O 0.93898 0.70255 0.50514 0.0
O88 O 0.93542 0.62116 0.48962 0.0
N89 N 0.80722 0.70586 0.59057 0.0
C90 C 0.83839 0.74575 0.6042 0.0
C91 C 0.84329 0.75995 0.65571 0.0
C92 C 0.81913 0.73104 0.69362 0.0
C93 C 0.78972 0.68885 0.67932 0.0
C94 C 0.78456 0.67775 0.62733 0.0
H95 H 0.86237 0.76466 0.57656 0.0
O96 O 0.87313 0.63889 0.57524 0.0
O97 O 0.87262 0.63815 0.57275 0.0
O98 O 0.82313 0.73865 0.5003 0.0
O99 O 0.75866 0.69101 0.49423 0.0
C100 C 0.76752 0.65538 0.71455 0.0
C101 C 0.73565 0.61564 0.69716 0.0
H102 H 0.66956 0.54999 0.64854 0.0
H103 H 0.67256 0.53291 0.55506 0.0
H104 H 0.8677 0.79155 0.66629 0.0
H105 H 0.82423 0.74091 0.73351 0.0
H106 H 0.77583 0.65956 0.75455 0.0
H107 H 0.71836 0.58974 0.72325 0.0
Mn108 Mn 0.31783 0.87486 0.5026 0.0
Mn109 Mn 0.31737 0.81888 0.53912 0.0
C110 C 0.38789 0.88418 0.58745 0.0
C111 C 0.32259 0.96603 0.49583 0.0
C112 C 0.24746 0.77658 0.49831 0.0
O113 O 0.31998 0.86741 0.42694 0.0
O114 O 0.37119 0.8241 0.4804 0.0
C115 C 0.38861 0.73636 0.56663 0.0
N116 N 0.35487 0.7727 0.58093 0.0
C117 C 0.36445 0.75167 0.66883 0.0
C118 C 0.4 0.71398 0.6557 0.0
C119 C 0.41027 0.70442 0.60395 0.0
C120 C 0.3381 0.77475 0.62945 0.0
H121 H 0.39853 0.73263 0.52734 0.0
C122 C 0.36395 0.84741 0.43664 0.0
O123 O 0.28105 0.94198 0.50308 0.0
O124 O 0.36266 0.93839 0.49277 0.0
N125 N 0.26897 0.81829 0.59684 0.0
C126 C 0.22794 0.85015 0.60309 0.0
C127 C 0.21063 0.86274 0.65229 0.0
C128 C 0.23748 0.8458 0.69528 0.0
C129 C 0.28065 0.81538 0.68847 0.0
C130 C 0.2946 0.80195 0.63855 0.0
H131 H 0.21027 0.8692 0.57111 0.0
O132 O 0.33987 0.88044 0.58033 0.0
O133 O 0.34042 0.87996 0.57809 0.0
O134 O 0.24529 0.826 0.50184 0.0
O135 O 0.29078 0.75967 0.50644 0.0
C136 C 0.31263 0.8006 0.72878 0.0
C137 C 0.35506 0.76938 0.71846 0.0
H138 H 0.4198 0.69239 0.68462 0.0
H139 H 0.43682 0.67471 0.59315 0.0
H140 H 0.17821 0.88779 0.65695 0.0
H141 H 0.22532 0.85727 0.73314 0.0
H142 H 0.30562 0.81387 0.76734 0.0
H143 H 0.38233 0.76258 0.74773 0.0
Mn144 Mn 0.10856 0.66618 0.48763 0.0
Mn145 Mn 0.16571 0.66253 0.45636 0.0
C146 C 0.10746 0.59032 0.40647 0.0
C147 C 0.01787 0.66115 0.49079 0.0
C148 C 0.20616 0.7357 0.49419 0.0
O149 O 0.11099 0.66971 0.56394 0.0
O150 O 0.1551 0.6131 0.51811 0.0
C151 C 0.24325 0.58262 0.44291 0.0
N152 N 0.21394 0.61989 0.42265 0.0
C153 C 0.25095 0.60744 0.34063 0.0
C154 C 0.28451 0.57129 0.36107 0.0
C155 C 0.28294 0.56148 0.41371 0.0
C156 C 0.22089 0.63506 0.37418 0.0
H157 H 0.23434 0.56839 0.47989 0.0
C158 C 0.13056 0.62457 0.55991 0.0
O159 O 0.04175 0.70262 0.48155 0.0
O160 O 0.04537 0.62118 0.49678 0.0
N161 N 0.17331 0.70621 0.39562 0.0
C162 C 0.14219 0.7462 0.3822 0.0
C163 C 0.13715 0.76055 0.33074 0.0
C164 C 0.16113 0.73171 0.29267 0.0
C165 C 0.19051 0.68942 0.30675 0.0
C166 C 0.19579 0.67815 0.3587 0.0
H167 H 0.11835 0.76509 0.40998 0.0
O168 O 0.1074 0.63923 0.41103 0.0
O169 O 0.10791 0.63848 0.41351 0.0
O170 O 0.15766 0.73869 0.48608 0.0
O171 O 0.22217 0.69103 0.49178 0.0
C172 C 0.21261 0.65604 0.27137 0.0
C173 C 0.24444 0.6162 0.28859 0.0
H174 H 0.31085 0.55062 0.33687 0.0
H175 H 0.30842 0.53361 0.43039 0.0
H176 H 0.11278 0.79224 0.32033 0.0
H177 H 0.15595 0.74171 0.25282 0.0
H178 H 0.20429 0.66037 0.23138 0.0
H179 H 0.2616 0.59029 0.26245 0.0
Mn180 Mn 0.31777 0.11252 0.48381 0.0
Mn181 Mn 0.31733 0.1685 0.44731 0.0
C182 C 0.38783 0.1032 0.39895 0.0
C183 C 0.32257 0.02135 0.49058 0.0
C184 C 0.24741 0.21079 0.4881 0.0
O185 O 0.31992 0.11995 0.55947 0.0
O186 O 0.37114 0.16327 0.50603 0.0
C187 C 0.38856 0.25104 0.41983 0.0
N188 N 0.35484 0.21469 0.40552 0.0
C189 C 0.36444 0.23574 0.31762 0.0
C190 C 0.39998 0.27344 0.33077 0.0
C191 C 0.41024 0.28299 0.38253 0.0
C192 C 0.33808 0.21265 0.357 0.0
H193 H 0.39847 0.25478 0.45912 0.0
C194 C 0.36389 0.13995 0.54979 0.0
O195 O 0.28102 0.04537 0.48333 0.0
O196 O 0.36264 0.04901 0.49363 0.0
N197 N 0.26894 0.16911 0.38958 0.0
C198 C 0.22789 0.13726 0.38332 0.0
C199 C 0.21059 0.12468 0.33411 0.0
C200 C 0.23746 0.14163 0.29113 0.0
C201 C 0.28063 0.17204 0.29795 0.0
C202 C 0.29458 0.18546 0.34788 0.0
H203 H 0.21022 0.1182 0.41529 0.0
O204 O 0.33982 0.10695 0.40608 0.0
O205 O 0.34036 0.10743 0.40832 0.0
O206 O 0.24523 0.16137 0.48458 0.0
O207 O 0.29074 0.2277 0.48001 0.0
C208 C 0.31263 0.18683 0.25766 0.0
C209 C 0.35505 0.21805 0.26799 0.0
H210 H 0.41979 0.29504 0.30186 0.0
H211 H 0.43677 0.31272 0.39333 0.0
H212 H 0.17816 0.09963 0.32944 0.0
H213 H 0.2253 0.13018 0.25326 0.0
H214 H 0.30562 0.17358 0.21909 0.0
H215 H 0.38233 0.22486 0.23872 0.0
Mn216 Mn 0.87216 0.32131 0.48773 0.0
Mn217 Mn 0.81496 0.32507 0.45668 0.0
C218 C 0.87278 0.39746 0.4068 0.0
C219 C 0.96287 0.32629 0.49065 0.0
C220 C 0.77461 0.25174 0.49442 0.0
O221 O 0.86996 0.31749 0.56403 0.0
O222 O 0.82574 0.3743 0.51858 0.0
C223 C 0.73765 0.40534 0.44358 0.0
N224 N 0.76664 0.36785 0.42324 0.0
C225 C 0.72935 0.38049 0.34136 0.0
C226 C 0.69597 0.41671 0.36196 0.0
C227 C 0.69784 0.42654 0.41459 0.0
C228 C 0.75948 0.35276 0.37477 0.0
H229 H 0.74689 0.41971 0.48043 0.0
C230 C 0.85038 0.36264 0.56026 0.0
O231 O 0.93894 0.28486 0.48133 0.0
O232 O 0.9354 0.36625 0.49685 0.0
N233 N 0.80719 0.28158 0.39585 0.0
C234 C 0.83834 0.24168 0.38223 0.0
C235 C 0.84324 0.22748 0.33072 0.0
C236 C 0.8191 0.2564 0.29281 0.0
C237 C 0.7897 0.2986 0.30711 0.0
C238 C 0.78455 0.30971 0.3591 0.0
H239 H 0.86231 0.22276 0.40987 0.0
O240 O 0.87313 0.34853 0.41122 0.0
O241 O 0.87261 0.34928 0.41371 0.0
O242 O 0.82308 0.24878 0.48614 0.0
O243 O 0.7586 0.29643 0.49218 0.0
C244 C 0.76752 0.33208 0.27188 0.0
C245 C 0.73567 0.37183 0.28926 0.0
H246 H 0.66959 0.43748 0.33788 0.0
H247 H 0.67257 0.45455 0.43137 0.0
H248 H 0.86763 0.19587 0.32014 0.0
H249 H 0.82419 0.24653 0.25291 0.0
H250 H 0.77584 0.3279 0.23188 0.0
H251 H 0.71839 0.39773 0.26318 0.0
Mn252 Mn 0.66296 0.87488 0.48369 0.0
Mn253 Mn 0.66347 0.81899 0.44705 0.0
C254 C 0.59286 0.88427 0.39889 0.0
C255 C 0.65817 0.96605 0.49058 0.0
C256 C 0.73338 0.77659 0.48781 0.0
O257 O 0.66079 0.86729 0.55932 0.0
O258 O 0.60963 0.82402 0.50577 0.0
C259 C 0.59225 0.73654 0.41928 0.0
N260 N 0.62604 0.77288 0.4051 0.0
C261 C 0.61651 0.75209 0.31713 0.0
C262 C 0.58093 0.71438 0.33016 0.0
C263 C 0.5706 0.70471 0.38187 0.0
C264 C 0.64284 0.77507 0.35659 0.0
H265 H 0.58229 0.73271 0.45855 0.0
C266 C 0.61684 0.84728 0.54957 0.0
O267 O 0.69971 0.94203 0.48331 0.0
O268 O 0.61811 0.93838 0.49361 0.0
N269 N 0.71189 0.81863 0.38934 0.0
C270 C 0.75289 0.85056 0.38321 0.0
C271 C 0.77021 0.86332 0.33405 0.0
C272 C 0.7434 0.84645 0.291 0.0
C273 C 0.70029 0.81592 0.2977 0.0
C274 C 0.68631 0.80234 0.34758 0.0
H275 H 0.7705 0.86954 0.41525 0.0
O276 O 0.64088 0.8806 0.40597 0.0
O277 O 0.64034 0.88011 0.40821 0.0
O278 O 0.73553 0.82603 0.48441 0.0
O279 O 0.69008 0.75969 0.47957 0.0
C280 C 0.66835 0.80118 0.25733 0.0
C281 C 0.62594 0.76991 0.26754 0.0
H282 H 0.56111 0.6929 0.30118 0.0
H283 H 0.54402 0.67498 0.39257 0.0
H284 H 0.8026 0.88844 0.32948 0.0
H285 H 0.75557 0.85803 0.25317 0.0
H286 H 0.6754 0.81452 0.21879 0.0
H287 H 0.59871 0.76314 0.23822 0.0
Mn288 Mn 0.49463 0.11353 0.32475 0.0
Mn289 Mn 0.52091 0.17221 0.33073 0.0
C290 C 0.56926 0.12487 0.40839 0.0
C291 C 0.49379 0.02156 0.33173 0.0
C292 C 0.48921 0.21022 0.2514 0.0
O293 O 0.41981 0.11107 0.31213 0.0
O294 O 0.45481 0.1582 0.3732 0.0
C295 C 0.52181 0.24619 0.41642 0.0
N296 N 0.5458 0.22391 0.37621 0.0
C297 C 0.62303 0.26734 0.3966 0.0
C298 C 0.59795 0.29497 0.43466 0.0
C299 C 0.54633 0.28537 0.44353 0.0
C300 C 0.59413 0.23632 0.36453 0.0
H301 H 0.48506 0.23312 0.42824 0.0
C302 C 0.41667 0.13057 0.35725 0.0
O303 O 0.50696 0.04519 0.29115 0.0
O304 O 0.48385 0.05005 0.37023 0.0
N305 N 0.58468 0.18293 0.2943 0.0
C306 C 0.6047 0.14829 0.26026 0.0
C307 C 0.65729 0.1454 0.25275 0.0
C308 C 0.68957 0.17533 0.28276 0.0
C309 C 0.66868 0.20809 0.31947 0.0
C310 C 0.61582 0.21173 0.32346 0.0
H311 H 0.58091 0.1203 0.24156 0.0
O312 O 0.56769 0.11659 0.35985 0.0
O313 O 0.56488 0.11749 0.36059 0.0
O314 O 0.50103 0.16191 0.25083 0.0
O315 O 0.48684 0.22661 0.29595 0.0
C316 C 0.69836 0.23234 0.35637 0.0
C317 C 0.67585 0.265 0.39261 0.0
H318 H 0.61846 0.32124 0.45919 0.0
H319 H 0.52726 0.30515 0.47414 0.0
H320 H 0.67296 0.1182 0.22584 0.0
H321 H 0.73037 0.17132 0.2788 0.0
H322 H 0.738 0.22316 0.3586 0.0
H323 H 0.69889 0.2846 0.42023 0.0
Mn324 Mn 0.87225 0.49892 0.3213 0.0
Mn325 Mn 0.81497 0.52949 0.32523 0.0
C326 C 0.87206 0.57955 0.398 0.0
C327 C 0.96292 0.49621 0.32659 0.0
C328 C 0.77504 0.49202 0.25139 0.0
O329 O 0.87057 0.42254 0.31672 0.0
O330 O 0.82603 0.4672 0.37385 0.0
C331 C 0.73804 0.54136 0.40609 0.0
N332 N 0.76632 0.56212 0.36829 0.0
C333 C 0.72801 0.64355 0.38139 0.0
C334 C 0.69501 0.62232 0.41758 0.0
C335 C 0.6978 0.56966 0.42738 0.0
C336 C 0.7585 0.61062 0.35344 0.0
H337 H 0.74811 0.50474 0.42069 0.0
C338 C 0.85093 0.42577 0.36183 0.0
O339 O 0.93912 0.50585 0.2852 0.0
O340 O 0.93534 0.48971 0.36639 0.0
N341 N 0.80681 0.59067 0.28236 0.0
C342 C 0.83825 0.605 0.24296 0.0
C343 C 0.84294 0.65675 0.22944 0.0
C344 C 0.81824 0.69416 0.25853 0.0
C345 C 0.78852 0.67912 0.30021 0.0
C346 C 0.78358 0.62693 0.31064 0.0
H347 H 0.86262 0.57771 0.22402 0.0
O348 O 0.87288 0.57535 0.34909 0.0
O349 O 0.87224 0.57278 0.34985 0.0
O350 O 0.82343 0.50082 0.24864 0.0
O351 O 0.75894 0.49381 0.29604 0.0
C352 C 0.76593 0.71383 0.3339 0.0
C353 C 0.73378 0.69585 0.3731 0.0
H354 H 0.66839 0.64598 0.43852 0.0
H355 H 0.67303 0.55245 0.45557 0.0
H356 H 0.8676 0.6679 0.19826 0.0
H357 H 0.82318 0.73425 0.24924 0.0
H358 H 0.77431 0.75389 0.33035 0.0
H359 H 0.71596 0.7217 0.3989 0.0
Mn360 Mn 0.48612 0.87408 0.3246 0.0
Mn361 Mn 0.45978 0.81542 0.33051 0.0
C362 C 0.41146 0.86273 0.4082 0.0
C363 C 0.48702 0.96605 0.33169 0.0
C364 C 0.49153 0.77745 0.25119 0.0
O365 O 0.56094 0.8765 0.31204 0.0
O366 O 0.52585 0.82933 0.37305 0.0
C367 C 0.45876 0.74116 0.41598 0.0
N368 N 0.43479 0.76368 0.37589 0.0
C369 C 0.35747 0.7203 0.39613 0.0
C370 C 0.3825 0.6925 0.4341 0.0
C371 C 0.43416 0.70193 0.44297 0.0
C372 C 0.38644 0.75138 0.36417 0.0
H373 H 0.49558 0.75404 0.42778 0.0
C374 C 0.56402 0.85697 0.35716 0.0
O375 O 0.47386 0.94248 0.29107 0.0
O376 O 0.4969 0.9375 0.37016 0.0
N377 N 0.39604 0.80482 0.29399 0.0
C378 C 0.37609 0.83951 0.25996 0.0
C379 C 0.32352 0.84245 0.25237 0.0
C380 C 0.29117 0.81252 0.28231 0.0
C381 C 0.31198 0.77971 0.31902 0.0
C382 C 0.36482 0.77604 0.3231 0.0
H383 H 0.39994 0.8675 0.24131 0.0
O384 O 0.41304 0.87103 0.35966 0.0
O385 O 0.41584 0.87013 0.3604 0.0
O386 O 0.47975 0.82576 0.25063 0.0
O387 O 0.49384 0.76103 0.29573 0.0
C388 C 0.28222 0.7554 0.35583 0.0
C389 C 0.30466 0.72268 0.39207 0.0
H390 H 0.36194 0.66618 0.45853 0.0
H391 H 0.45319 0.68196 0.47346 0.0
H392 H 0.30791 0.86969 0.22546 0.0
H393 H 0.25038 0.81655 0.27827 0.0
H394 H 0.24257 0.76456 0.35799 0.0
H395 H 0.28157 0.70305 0.41962 0.0
Mn396 Mn 0.10853 0.4886 0.32139 0.0
Mn397 Mn 0.16587 0.45829 0.32544 0.0
C398 C 0.10923 0.40819 0.39838 0.0
C399 C 0.01786 0.49105 0.32663 0.0
C400 C 0.20569 0.49565 0.25143 0.0
O401 O 0.10996 0.56496 0.31651 0.0
O402 O 0.1546 0.52071 0.37384 0.0
C403 C 0.24268 0.44691 0.40653 0.0
N404 N 0.21465 0.42598 0.36862 0.0
C405 C 0.2533 0.34474 0.38197 0.0
C406 C 0.28615 0.3662 0.41816 0.0
C407 C 0.28306 0.41886 0.42789 0.0
C408 C 0.22269 0.37749 0.3539 0.0
H409 H 0.23235 0.48346 0.42114 0.0
C410 C 0.1296 0.56202 0.36164 0.0
O411 O 0.04171 0.48132 0.28529 0.0
O412 O 0.0454 0.49776 0.36642 0.0
N413 N 0.17424 0.39701 0.28278 0.0
C414 C 0.14279 0.38243 0.24349 0.0
C415 C 0.13824 0.33061 0.23018 0.0
C416 C 0.1631 0.2934 0.25938 0.0
C417 C 0.19285 0.3087 0.30095 0.0
C418 C 0.19765 0.36094 0.31116 0.0
H419 H 0.11828 0.40955 0.2245 0.0
O420 O 0.10813 0.41226 0.34945 0.0
O421 O 0.10878 0.41483 0.35022 0.0
O422 O 0.15734 0.48664 0.24871 0.0
O423 O 0.22178 0.49406 0.29609 0.0
C424 C 0.21552 0.27419 0.33477 0.0
C425 C 0.24771 0.29238 0.37384 0.0
H426 H 0.31283 0.3427 0.4392 0.0
H427 H 0.30764 0.43622 0.45615 0.0
H428 H 0.11356 0.31926 0.19909 0.0
H429 H 0.15826 0.25325 0.25027 0.0
H430 H 0.20712 0.23413 0.33144 0.0
H431 H 0.26569 0.26663 0.39964 0.0
Mn432 Mn 0.49467 0.87386 0.66165 0.0
Mn433 Mn 0.52096 0.8152 0.65568 0.0
C434 C 0.56931 0.86253 0.57801 0.0
C435 C 0.49381 0.96583 0.65467 0.0
C436 C 0.48924 0.77719 0.73501 0.0
O437 O 0.41985 0.87631 0.67427 0.0
O438 O 0.45486 0.82918 0.6132 0.0
C439 C 0.5219 0.74119 0.57002 0.0
N440 N 0.54587 0.7635 0.61022 0.0
C441 C 0.62314 0.72013 0.58983 0.0
C442 C 0.59808 0.69248 0.55177 0.0
C443 C 0.54645 0.70204 0.5429 0.0
C444 C 0.59421 0.75113 0.6219 0.0
H445 H 0.48514 0.75422 0.5582 0.0
C446 C 0.41672 0.85681 0.62914 0.0
O447 O 0.50698 0.94221 0.69525 0.0
O448 O 0.48388 0.93734 0.61617 0.0
N449 N 0.58472 0.80451 0.69213 0.0
C450 C 0.60472 0.83918 0.72616 0.0
C451 C 0.65731 0.84209 0.73369 0.0
C452 C 0.68961 0.81218 0.70369 0.0
C453 C 0.66874 0.77941 0.66698 0.0
C454 C 0.61588 0.77574 0.66297 0.0
H455 H 0.58091 0.86716 0.74486 0.0
O456 O 0.56773 0.87082 0.62655 0.0
O457 O 0.56492 0.86992 0.62581 0.0
O458 O 0.50105 0.8255 0.73558 0.0
O459 O 0.48689 0.76079 0.69046 0.0
C460 C 0.69844 0.75518 0.63009 0.0
C461 C 0.67595 0.72251 0.59383 0.0
H462 H 0.61862 0.66623 0.52725 0.0
H463 H 0.52741 0.68223 0.5123 0.0
H464 H 0.67296 0.86931 0.7606 0.0
H465 H 0.7304 0.81622 0.70766 0.0
H466 H 0.73808 0.76436 0.62787 0.0
H467 H 0.69901 0.70294 0.56621 0.0
Mn468 Mn 0.10849 0.49881 0.66509 0.0
Mn469 Mn 0.16584 0.52913 0.66105 0.0
C470 C 0.1092 0.57921 0.58809 0.0
C471 C 0.01782 0.49635 0.65984 0.0
C472 C 0.20564 0.49177 0.73507 0.0
O473 O 0.10991 0.42244 0.66996 0.0
O474 O 0.15457 0.4667 0.61264 0.0
C475 C 0.24267 0.5405 0.57998 0.0
N476 N 0.21462 0.56143 0.61787 0.0
C477 C 0.25328 0.64268 0.60452 0.0
C478 C 0.28614 0.62122 0.56834 0.0
C479 C 0.28305 0.56855 0.55863 0.0
C480 C 0.22266 0.60993 0.63259 0.0
H481 H 0.23235 0.50395 0.56537 0.0
C482 C 0.12956 0.42538 0.62484 0.0
O483 O 0.04166 0.50608 0.70118 0.0
O484 O 0.04536 0.48964 0.62005 0.0
N485 N 0.1742 0.59041 0.7037 0.0
C486 C 0.14274 0.60499 0.74298 0.0
C487 C 0.13819 0.6568 0.75629 0.0
C488 C 0.16305 0.69402 0.72709 0.0
C489 C 0.19281 0.67872 0.68553 0.0
C490 C 0.19762 0.62648 0.67532 0.0
H491 H 0.11823 0.57786 0.76198 0.0
O492 O 0.1081 0.57515 0.63702 0.0
O493 O 0.10875 0.57257 0.63626 0.0
O494 O 0.15729 0.50077 0.73777 0.0
O495 O 0.22173 0.49335 0.6904 0.0
C496 C 0.2155 0.71323 0.65171 0.0
C497 C 0.24769 0.69503 0.61264 0.0
H498 H 0.31283 0.64472 0.5473 0.0
H499 H 0.30765 0.55119 0.53038 0.0
H500 H 0.1135 0.66816 0.78737 0.0
H501 H 0.15821 0.73416 0.7362 0.0
H502 H 0.2071 0.7533 0.65504 0.0
H503 H 0.26567 0.72079 0.58684 0.0
Mn504 Mn 0.48604 0.11329 0.66182 0.0
Mn505 Mn 0.45969 0.17193 0.65593 0.0
C506 C 0.41139 0.12461 0.57822 0.0
C507 C 0.48699 0.02133 0.65472 0.0
C508 C 0.49141 0.20991 0.73526 0.0
O509 O 0.56087 0.11091 0.67437 0.0
O510 O 0.52576 0.15806 0.61338 0.0
C511 C 0.45864 0.24622 0.57049 0.0
N512 N 0.43467 0.22367 0.61056 0.0
C513 C 0.35734 0.26702 0.59035 0.0
C514 C 0.38236 0.29485 0.55239 0.0
C515 C 0.43402 0.28545 0.54353 0.0
C516 C 0.38632 0.23594 0.62229 0.0
H517 H 0.49546 0.23337 0.55868 0.0
C518 C 0.56394 0.13045 0.62926 0.0
O519 O 0.47382 0.04489 0.69534 0.0
O520 O 0.49686 0.04989 0.61625 0.0
N521 N 0.39594 0.18249 0.69246 0.0
C522 C 0.37601 0.14779 0.72649 0.0
C523 C 0.32343 0.14484 0.73411 0.0
C524 C 0.29107 0.17477 0.70418 0.0
C525 C 0.31187 0.20758 0.66746 0.0
C526 C 0.36471 0.21126 0.66336 0.0
H527 H 0.39986 0.11981 0.74514 0.0
O528 O 0.41296 0.11631 0.62677 0.0
O529 O 0.41577 0.11721 0.62603 0.0
O530 O 0.47966 0.16159 0.73581 0.0
O531 O 0.49373 0.22633 0.69072 0.0
C532 C 0.2821 0.2319 0.63067 0.0
C533 C 0.30453 0.26462 0.59443 0.0
H534 H 0.36179 0.32118 0.52798 0.0
H535 H 0.45306 0.30546 0.51304 0.0
H536 H 0.30784 0.1176 0.76103 0.0
H537 H 0.25029 0.17073 0.70823 0.0
H538 H 0.24244 0.22275 0.62853 0.0
H539 H 0.28144 0.28426 0.56689 0.0
Mn540 Mn 0.8722 0.4885 0.66516 0.0
Mn541 Mn 0.81491 0.45794 0.66122 0.0
C542 C 0.872 0.40787 0.58846 0.0
C543 C 0.96287 0.4912 0.65987 0.0
C544 C 0.77498 0.49542 0.73506 0.0
O545 O 0.87054 0.56488 0.66973 0.0
O546 O 0.826 0.52023 0.6126 0.0
C547 C 0.738 0.44609 0.58034 0.0
N548 N 0.76626 0.42532 0.61815 0.0
C549 C 0.72793 0.3439 0.60503 0.0
C550 C 0.69495 0.36513 0.56883 0.0
C551 C 0.69776 0.4178 0.55904 0.0
C552 C 0.75842 0.37683 0.63299 0.0
H553 H 0.74808 0.48271 0.56575 0.0
C554 C 0.85091 0.56166 0.62463 0.0
O555 O 0.93907 0.48156 0.70126 0.0
O556 O 0.9353 0.4977 0.62007 0.0
N557 N 0.80671 0.39676 0.70409 0.0
C558 C 0.83812 0.38243 0.7435 0.0
C559 C 0.84278 0.33067 0.75703 0.0
C560 C 0.81809 0.29327 0.72792 0.0
C561 C 0.78839 0.30832 0.68623 0.0
C562 C 0.78348 0.3605 0.6758 0.0
H563 H 0.8625 0.4097 0.76245 0.0
O564 O 0.87281 0.41207 0.63737 0.0
O565 O 0.87217 0.41464 0.63661 0.0
O566 O 0.82337 0.48661 0.73781 0.0
O567 O 0.75889 0.49363 0.6904 0.0
C568 C 0.76581 0.27361 0.65253 0.0
C569 C 0.73369 0.2916 0.61331 0.0
H570 H 0.66833 0.34148 0.54787 0.0
H571 H 0.673 0.43501 0.53084 0.0
H572 H 0.86742 0.31952 0.78822 0.0
H573 H 0.823 0.25317 0.73722 0.0
H574 H 0.77418 0.23355 0.65608 0.0
H575 H 0.71587 0.26575 0.58751 0.0
Mn576 Mn 0.31739 0.50349 0.112 0.0
Mn577 Mn 0.3169 0.54043 0.16767 0.0
C578 C 0.38802 0.58789 0.10263 0.0
C579 C 0.32205 0.4964 0.02087 0.0
C580 C 0.24692 0.49982 0.2104 0.0
O581 O 0.31948 0.42783 0.11978 0.0
O582 O 0.37062 0.48153 0.163 0.0
C583 C 0.38824 0.56867 0.24971 0.0
N584 N 0.35421 0.58266 0.21357 0.0
C585 C 0.36384 0.67083 0.23373 0.0
C586 C 0.39954 0.65799 0.27132 0.0
C587 C 0.41002 0.60629 0.28118 0.0
C588 C 0.33741 0.63121 0.2111 0.0
H589 H 0.39832 0.52939 0.25364 0.0
C590 C 0.36345 0.43769 0.13972 0.0
O591 O 0.28056 0.50384 0.04491 0.0
O592 O 0.36211 0.49327 0.0485 0.0
N593 N 0.26855 0.59824 0.16742 0.0
C594 C 0.22773 0.60418 0.13528 0.0
C595 C 0.21056 0.65331 0.12206 0.0
C596 C 0.23733 0.6965 0.13876 0.0
C597 C 0.28023 0.68998 0.1696 0.0
C598 C 0.29406 0.64013 0.18359 0.0
H599 H 0.21021 0.57195 0.11647 0.0
O600 O 0.33992 0.58116 0.10608 0.0
O601 O 0.34043 0.57891 0.10657 0.0
O602 O 0.24478 0.50295 0.16098 0.0
O603 O 0.29018 0.50839 0.22717 0.0
C604 C 0.31216 0.73045 0.18419 0.0
C605 C 0.35451 0.72038 0.21557 0.0
H606 H 0.41948 0.68708 0.2925 0.0
H607 H 0.4368 0.59578 0.31076 0.0
H608 H 0.17835 0.65774 0.09673 0.0
H609 H 0.2253 0.73429 0.12681 0.0
H610 H 0.3052 0.76896 0.17063 0.0
H611 H 0.38179 0.74975 0.22217 0.0
Mn612 Mn 0.31734 0.48392 0.87447 0.0
Mn613 Mn 0.31683 0.44697 0.81883 0.0
C614 C 0.38793 0.39948 0.88385 0.0
C615 C 0.32204 0.49103 0.9656 0.0
C616 C 0.24686 0.4876 0.7761 0.0
O617 O 0.31946 0.55958 0.86669 0.0
O618 O 0.37058 0.50587 0.82347 0.0
C619 C 0.38811 0.41872 0.73674 0.0
N620 N 0.3541 0.40474 0.77291 0.0
C621 C 0.36366 0.31656 0.75273 0.0
C622 C 0.39935 0.3294 0.71511 0.0
C623 C 0.40985 0.38109 0.70525 0.0
C624 C 0.33727 0.35619 0.77538 0.0
H625 H 0.3982 0.458 0.73279 0.0
C626 C 0.36343 0.54972 0.84675 0.0
O627 O 0.28054 0.48359 0.94158 0.0
O628 O 0.36209 0.49413 0.93796 0.0
N629 N 0.26845 0.38919 0.81909 0.0
C630 C 0.22764 0.38326 0.85124 0.0
C631 C 0.21043 0.33413 0.86444 0.0
C632 C 0.23716 0.29093 0.84772 0.0
C633 C 0.28007 0.29744 0.81688 0.0
C634 C 0.29393 0.34729 0.8029 0.0
H635 H 0.21014 0.41549 0.87006 0.0
O636 O 0.33984 0.40624 0.88041 0.0
O637 O 0.34035 0.40849 0.87991 0.0
O638 O 0.24472 0.48447 0.82552 0.0
O639 O 0.29012 0.47902 0.75933 0.0
C640 C 0.31195 0.25695 0.80224 0.0
C641 C 0.35429 0.26701 0.77085 0.0
H642 H 0.41927 0.3003 0.69392 0.0
H643 H 0.43661 0.39159 0.67565 0.0
H644 H 0.17822 0.32971 0.88979 0.0
H645 H 0.22511 0.25314 0.85966 0.0
H646 H 0.30496 0.21843 0.81578 0.0
H647 H 0.38153 0.23762 0.76421 0.0
Mn648 Mn 0.49496 0.32543 0.87367 0.0
Mn649 Mn 0.52127 0.33137 0.81493 0.0
C650 C 0.56961 0.40913 0.86181 0.0
C651 C 0.49396 0.33266 0.96556 0.0
C652 C 0.48969 0.25189 0.77713 0.0
O653 O 0.42016 0.31265 0.87617 0.0
O654 O 0.45506 0.37376 0.82896 0.0
C655 C 0.52199 0.41702 0.74076 0.0
N656 N 0.54607 0.3769 0.76318 0.0
C657 C 0.62338 0.39755 0.71999 0.0
C658 C 0.59831 0.43565 0.69241 0.0
C659 C 0.54664 0.44435 0.70181 0.0
C660 C 0.59447 0.36535 0.75088 0.0
H661 H 0.48505 0.42861 0.7535 0.0
C662 C 0.41694 0.35778 0.85661 0.0
O663 O 0.50726 0.29201 0.94208 0.0
O664 O 0.4841 0.37113 0.93696 0.0
N665 N 0.58511 0.29501 0.8042 0.0
C666 C 0.60517 0.26082 0.83866 0.0
C667 C 0.65776 0.2533 0.84146 0.0
C668 C 0.69001 0.28342 0.81161 0.0
C669 C 0.66908 0.32026 0.77901 0.0
C670 C 0.61621 0.32427 0.77545 0.0
H671 H 0.58142 0.24201 0.8666 0.0
O672 O 0.568 0.36059 0.87043 0.0
O673 O 0.56521 0.36134 0.8696 0.0
O674 O 0.50143 0.25138 0.82542 0.0
O675 O 0.4873 0.29645 0.76066 0.0
C676 C 0.69876 0.35721 0.75478 0.0
C677 C 0.67619 0.39362 0.72234 0.0
H678 H 0.61885 0.4603 0.66627 0.0
H679 H 0.52765 0.47495 0.68196 0.0
H680 H 0.67347 0.22627 0.86853 0.0
H681 H 0.73081 0.27943 0.81554 0.0
H682 H 0.73847 0.35931 0.7637 0.0
H683 H 0.69921 0.42135 0.70283 0.0
Mn684 Mn 0.66332 0.50339 0.87447 0.0
Mn685 Mn 0.66381 0.54026 0.81869 0.0
C686 C 0.59279 0.58787 0.88379 0.0
C687 C 0.65866 0.49642 0.9656 0.0
C688 C 0.73375 0.4996 0.77606 0.0
O689 O 0.66117 0.4277 0.86683 0.0
O690 O 0.61009 0.4814 0.8235 0.0
C691 C 0.59244 0.56826 0.73658 0.0
N692 N 0.62643 0.58236 0.77273 0.0
C693 C 0.61675 0.67048 0.75239 0.0
C694 C 0.58108 0.65754 0.71479 0.0
C695 C 0.57065 0.60581 0.70502 0.0
C696 C 0.6432 0.63093 0.77509 0.0
H697 H 0.58242 0.52896 0.73269 0.0
C698 C 0.61722 0.4376 0.84685 0.0
O699 O 0.70015 0.50382 0.94155 0.0
O700 O 0.61859 0.49329 0.93799 0.0
N701 N 0.71214 0.59808 0.81872 0.0
C702 C 0.75301 0.60411 0.85079 0.0
C703 C 0.77016 0.65329 0.86389 0.0
C704 C 0.74333 0.69642 0.84717 0.0
C705 C 0.70038 0.6898 0.81642 0.0
C706 C 0.68658 0.63992 0.80252 0.0
H707 H 0.77059 0.57193 0.86963 0.0
O708 O 0.64088 0.58108 0.88026 0.0
O709 O 0.64036 0.57884 0.87976 0.0
O710 O 0.7359 0.5028 0.82548 0.0
O711 O 0.69048 0.50808 0.75927 0.0
C712 C 0.6684 0.73022 0.80181 0.0
C713 C 0.62604 0.72006 0.77047 0.0
H714 H 0.56114 0.68658 0.69353 0.0
H715 H 0.54391 0.59522 0.67544 0.0
H716 H 0.80242 0.65779 0.88916 0.0
H717 H 0.75535 0.73425 0.85903 0.0
H718 H 0.67532 0.76876 0.81532 0.0
H719 H 0.59871 0.74938 0.76386 0.0
Mn720 Mn 0.48571 0.66182 0.87352 0.0
Mn721 Mn 0.45936 0.65576 0.81483 0.0
C722 C 0.41101 0.57807 0.86209 0.0
C723 C 0.48679 0.65475 0.96542 0.0
C724 C 0.4909 0.73522 0.7769 0.0
O725 O 0.5605 0.67466 0.87594 0.0
O726 O 0.52562 0.61343 0.82889 0.0
C727 C 0.45869 0.56994 0.74089 0.0
N728 N 0.43459 0.61011 0.7632 0.0
C729 C 0.35734 0.5894 0.71996 0.0
C730 C 0.38244 0.55125 0.69247 0.0
C731 C 0.43409 0.54255 0.70196 0.0
C732 C 0.38621 0.62166 0.75082 0.0
H733 H 0.49561 0.55837 0.7537 0.0
C734 C 0.56374 0.6295 0.85648 0.0
O735 O 0.47347 0.69537 0.94188 0.0
O736 O 0.49664 0.61624 0.93689 0.0
N737 N 0.39552 0.69206 0.80406 0.0
C738 C 0.37542 0.72629 0.83845 0.0
C739 C 0.32283 0.73379 0.84122 0.0
C740 C 0.29061 0.70361 0.81139 0.0
C741 C 0.31157 0.66675 0.77885 0.0
C742 C 0.36444 0.66276 0.77533 0.0
H743 H 0.39916 0.74516 0.86636 0.0
O744 O 0.41265 0.62665 0.87049 0.0
O745 O 0.41547 0.6259 0.86958 0.0
O746 O 0.47919 0.73578 0.82519 0.0
O747 O 0.49328 0.69064 0.76047 0.0
C748 C 0.28193 0.62975 0.75466 0.0
C749 C 0.30452 0.59332 0.72227 0.0
H750 H 0.36193 0.52656 0.66635 0.0
H751 H 0.4531 0.51191 0.6822 0.0
H752 H 0.3071 0.76084 0.86825 0.0
H753 H 0.2498 0.70759 0.81531 0.0
H754 H 0.24221 0.62766 0.76354 0.0
H755 H 0.28154 0.56555 0.70278 0.0
Mn756 Mn 0.66337 0.48408 0.112 0.0
Mn757 Mn 0.66383 0.44724 0.16775 0.0
C758 C 0.59281 0.39961 0.10266 0.0
C759 C 0.65867 0.49109 0.02088 0.0
C760 C 0.73381 0.48786 0.21038 0.0
O761 O 0.6613 0.55976 0.11967 0.0
O762 O 0.61012 0.50615 0.16292 0.0
C763 C 0.59247 0.41924 0.24987 0.0
N764 N 0.62644 0.40515 0.21371 0.0
C765 C 0.61673 0.31702 0.23407 0.0
C766 C 0.58107 0.32998 0.27168 0.0
C767 C 0.57067 0.3817 0.28144 0.0
C768 C 0.64319 0.35657 0.21135 0.0
H769 H 0.58245 0.45855 0.25375 0.0
C770 C 0.61732 0.54996 0.1396 0.0
O771 O 0.70018 0.48367 0.0449 0.0
O772 O 0.61862 0.49422 0.04851 0.0
N773 N 0.71215 0.3894 0.16771 0.0
C774 C 0.753 0.38336 0.13563 0.0
C775 C 0.77013 0.33418 0.12253 0.0
C776 C 0.74329 0.29105 0.13927 0.0
C777 C 0.70035 0.29768 0.17003 0.0
C778 C 0.68657 0.34757 0.18392 0.0
H779 H 0.77058 0.41552 0.11678 0.0
O780 O 0.64089 0.4064 0.10619 0.0
O781 O 0.64038 0.40864 0.10668 0.0
O782 O 0.73596 0.48464 0.16097 0.0
O783 O 0.69052 0.47942 0.22717 0.0
C784 C 0.66835 0.25727 0.18465 0.0
C785 C 0.626 0.26745 0.216 0.0
H786 H 0.56113 0.30094 0.29294 0.0
H787 H 0.54394 0.39231 0.31103 0.0
H788 H 0.80238 0.32967 0.09725 0.0
H789 H 0.7553 0.25322 0.12741 0.0
H790 H 0.67526 0.21873 0.17113 0.0
H791 H 0.59868 0.23813 0.22261 0.0
Mn792 Mn 0.49504 0.66199 0.11274 0.0
Mn793 Mn 0.52143 0.65601 0.17142 0.0
C794 C 0.56976 0.5783 0.12418 0.0
C795 C 0.4939 0.6548 0.02085 0.0
C796 C 0.48985 0.73546 0.20931 0.0
O797 O 0.42023 0.67474 0.11035 0.0
O798 O 0.45521 0.6136 0.15745 0.0
C799 C 0.52218 0.57038 0.24561 0.0
N800 N 0.54628 0.61045 0.2231 0.0
C801 C 0.62357 0.58989 0.26633 0.0
C802 C 0.5985 0.55183 0.29397 0.0
C803 C 0.54682 0.54313 0.28461 0.0
C804 C 0.59467 0.62204 0.2354 0.0
H805 H 0.48521 0.55881 0.23292 0.0
C806 C 0.41705 0.62959 0.12986 0.0
O807 O 0.50721 0.69546 0.04433 0.0
O808 O 0.48411 0.61632 0.04944 0.0
N809 N 0.58526 0.69238 0.18211 0.0
C810 C 0.6053 0.7266 0.14766 0.0
C811 C 0.65789 0.73416 0.14485 0.0
C812 C 0.69015 0.70405 0.1747 0.0
C813 C 0.66925 0.66719 0.20728 0.0
C814 C 0.61639 0.66313 0.21083 0.0
H815 H 0.58153 0.74542 0.11974 0.0
O816 O 0.56811 0.62688 0.11578 0.0
O817 O 0.5653 0.62613 0.11669 0.0
O818 O 0.50154 0.73601 0.16101 0.0
O819 O 0.48751 0.69089 0.22576 0.0
C820 C 0.69894 0.63027 0.23154 0.0
C821 C 0.67638 0.59386 0.264 0.0
H822 H 0.61903 0.52723 0.32016 0.0
H823 H 0.52781 0.51259 0.30454 0.0
H824 H 0.67357 0.76121 0.11779 0.0
H825 H 0.73095 0.70808 0.17077 0.0
H826 H 0.73866 0.62822 0.22266 0.0
H827 H 0.6994 0.56616 0.28353 0.0
Mn828 Mn 0.48574 0.32562 0.11289 0.0
Mn829 Mn 0.45939 0.33167 0.1716 0.0
C830 C 0.41103 0.40935 0.12434 0.0
C831 C 0.48685 0.3327 0.02099 0.0
C832 C 0.49091 0.2522 0.20952 0.0
O833 O 0.56054 0.3128 0.11047 0.0
O834 O 0.52564 0.374 0.15754 0.0
C835 C 0.45877 0.4175 0.24552 0.0
N836 N 0.43464 0.37733 0.22323 0.0
C837 C 0.35743 0.39803 0.26654 0.0
C838 C 0.38256 0.43617 0.29402 0.0
C839 C 0.43421 0.44487 0.28449 0.0
C840 C 0.38628 0.36578 0.23565 0.0
H841 H 0.49567 0.42908 0.23267 0.0
C842 C 0.56377 0.35796 0.12995 0.0
O843 O 0.4735 0.29209 0.04453 0.0
O844 O 0.49668 0.37121 0.04953 0.0
N845 N 0.39553 0.29539 0.1824 0.0
C846 C 0.37542 0.26116 0.14801 0.0
C847 C 0.32282 0.25368 0.14525 0.0
C848 C 0.29062 0.28387 0.1751 0.0
C849 C 0.31161 0.32071 0.20764 0.0
C850 C 0.36448 0.32469 0.21115 0.0
H851 H 0.39914 0.24228 0.12009 0.0
O852 O 0.41268 0.36077 0.11595 0.0
O853 O 0.4155 0.36152 0.11685 0.0
O854 O 0.4792 0.25165 0.16123 0.0
O855 O 0.4933 0.29678 0.22595 0.0
C856 C 0.28199 0.35771 0.23186 0.0
C857 C 0.30461 0.39413 0.26425 0.0
H858 H 0.36207 0.46086 0.32016 0.0
H859 H 0.45325 0.47551 0.30423 0.0
H860 H 0.30706 0.22664 0.11823 0.0
H861 H 0.24981 0.2799 0.1712 0.0
H862 H 0.24227 0.35982 0.22298 0.0
H863 H 0.28164 0.42189 0.28376 0.0
loop_
_geom_bond_atom_site_label_1
_geom_bond_atom_site_label_2
_geom_bond_distance
_geom_bond_site_symmetry_2
_ccdc_geom_bond_type
Mn0 O5 2.095 . S
Mn0 O15 2.162 . S
Mn0 O16 2.297 . S
Mn0 O24 2.385 . S
Mn0 O25 2.209 . S
Mn0 O26 2.094 . S
Mn1 O6 2.121 . S
Mn1 N8 2.257 . S
Mn1 N17 2.282 . S
Mn1 O25 2.215 . S
Mn1 O27 2.117 . S
C2 O24 1.234 . S
C2 O25 1.283 . S
C3 O15 1.281 . S
C3 O16 1.236 . S
C4 O26 1.240 . S
C4 O27 1.264 . S
O5 Mn0 2.095 . S
O5 C14 1.250 . S
O6 Mn1 2.121 . S
O6 C14 1.258 . S
C7 N8 1.326 . S
C7 C11 1.460 . S
C7 H13 0.929 . S
N8 Mn1 2.257 . S
N8 C7 1.326 . S
N8 C12 1.362 . S
C9 C10 1.258 . S
C9 C12 1.431 . S
C9 C29 1.449 . S
C10 C9 1.258 . S
C10 C11 1.477 . S
C10 H30 0.931 . S
C11 C7 1.460 . S
C11 C10 1.477 . S
C11 H31 0.930 . S
C12 N8 1.362 . S
C12 C9 1.431 . S
C12 C22 1.476 . S
H13 C7 0.929 . S
C14 O5 1.250 . S
C14 O6 1.258 . S
O15 Mn0 2.162 . S
O15 C3 1.281 . S
O16 Mn0 2.297 . S
O16 C3 1.236 . S
N17 Mn1 2.282 . S
N17 C18 1.328 . S
N17 C22 1.318 . S
C18 N17 1.328 . S
C18 C19 1.457 . S
C18 H23 0.929 . S
C19 C18 1.457 . S
C19 C20 1.291 . S
C19 H32 0.931 . S
C20 C19 1.291 . S
C20 C21 1.373 . S
C20 H33 0.929 . S
C21 C20 1.373 . S
C21 C22 1.396 . S
C21 C28 1.403 . S
C22 C12 1.476 . S
C22 N17 1.318 . S
C22 C21 1.396 . S
H23 C18 0.929 . S
O24 Mn0 2.385 . S
O24 C2 1.234 . S
O25 Mn0 2.209 . S
O25 Mn1 2.215 . S
O25 C2 1.283 . S
O26 Mn0 2.094 . S
O26 C4 1.240 . S
O27 Mn1 2.117 . S
O27 C4 1.264 . S
C28 C21 1.403 . S
C28 C29 1.399 . S
C28 H34 0.929 . S
C29 C9 1.449 . S
C29 C28 1.399 . S
C29 H35 0.930 . S
H30 C10 0.931 . S
H31 C11 0.930 . S
H32 C19 0.931 . S
H33 C20 0.929 . S
H34 C28 0.929 . S
H35 C29 0.930 . S
Mn36 O41 2.095 . S
Mn36 O51 2.162 . S
Mn36 O52 2.297 . S
Mn36 O60 2.385 . S
Mn36 O61 2.209 . S
Mn36 O62 2.094 . S
Mn37 O42 2.121 . S
Mn37 N44 2.257 . S
Mn37 N53 2.282 . S
Mn37 O61 2.215 . S
Mn37 O63 2.117 . S
C38 O60 1.234 . S
C38 O61 1.283 . S
C39 O51 1.281 . S
C39 O52 1.236 . S
C40 O62 1.240 . S
C40 O63 1.264 . S
O41 Mn36 2.095 . S
O41 C50 1.250 . S
O42 Mn37 2.121 . S
O42 C50 1.258 . S
C43 N44 1.326 . S
C43 C47 1.460 . S
C43 H49 0.929 . S
N44 Mn37 2.257 . S
N44 C43 1.326 . S
N44 C48 1.362 . S
C45 C46 1.258 . S
C45 C48 1.431 . S
C45 C65 1.449 . S
C46 C45 1.258 . S
C46 C47 1.477 . S
C46 H66 0.931 . S
C47 C43 1.460 . S
C47 C46 1.477 . S
C47 H67 0.930 . S
C48 N44 1.362 . S
C48 C45 1.431 . S
C48 C58 1.476 . S
H49 C43 0.929 . S
C50 O41 1.250 . S
C50 O42 1.258 . S
O51 Mn36 2.162 . S
O51 C39 1.281 . S
O52 Mn36 2.297 . S
O52 C39 1.236 . S
N53 Mn37 2.282 . S
N53 C54 1.328 . S
N53 C58 1.318 . S
C54 N53 1.328 . S
C54 C55 1.457 . S
C54 H59 0.929 . S
C55 C54 1.457 . S
C55 C56 1.291 . S
C55 H68 0.931 . S
C56 C55 1.291 . S
C56 C57 1.373 . S
C56 H69 0.929 . S
C57 C56 1.373 . S
C57 C58 1.396 . S
C57 C64 1.403 . S
C58 C48 1.476 . S
C58 N53 1.318 . S
C58 C57 1.396 . S
H59 C54 0.929 . S
O60 Mn36 2.385 . S
O60 C38 1.234 . S
O61 Mn36 2.209 . S
O61 Mn37 2.215 . S
O61 C38 1.283 . S
O62 Mn36 2.094 . S
O62 C40 1.240 . S
O63 Mn37 2.117 . S
O63 C40 1.264 . S
C64 C57 1.403 . S
C64 C65 1.399 . S
C64 H70 0.929 . S
C65 C45 1.449 . S
C65 C64 1.399 . S
C65 H71 0.930 . S
H66 C46 0.931 . S
H67 C47 0.930 . S
H68 C55 0.931 . S
H69 C56 0.929 . S
H70 C64 0.929 . S
H71 C65 0.930 . S
Mn72 O77 2.095 . S
Mn72 O87 2.162 . S
Mn72 O88 2.297 . S
Mn72 O96 2.385 . S
Mn72 O97 2.209 . S
Mn72 O98 2.094 . S
Mn73 O78 2.121 . S
Mn73 N80 2.257 . S
Mn73 N89 2.282 . S
Mn73 O97 2.215 . S
Mn73 O99 2.117 . S
C74 O96 1.234 . S
C74 O97 1.283 . S
C75 O87 1.281 . S
C75 O88 1.236 . S
C76 O98 1.240 . S
C76 O99 1.264 . S
O77 Mn72 2.095 . S
O77 C86 1.250 . S
O78 Mn73 2.121 . S
O78 C86 1.258 . S
C79 N80 1.326 . S
C79 C83 1.460 . S
C79 H85 0.929 . S
N80 Mn73 2.257 . S
N80 C79 1.326 . S
N80 C84 1.362 . S
C81 C82 1.258 . S
C81 C84 1.431 . S
C81 C101 1.449 . S
C82 C81 1.258 . S
C82 C83 1.477 . S
C82 H102 0.931 . S
C83 C79 1.460 . S
C83 C82 1.477 . S
C83 H103 0.930 . S
C84 N80 1.362 . S
C84 C81 1.431 . S
C84 C94 1.476 . S
H85 C79 0.929 . S
C86 O77 1.250 . S
C86 O78 1.258 . S
O87 Mn72 2.162 . S
O87 C75 1.281 . S
O88 Mn72 2.297 . S
O88 C75 1.236 . S
N89 Mn73 2.282 . S
N89 C90 1.328 . S
N89 C94 1.318 . S
C90 N89 1.328 . S
C90 C91 1.457 . S
C90 H95 0.929 . S
C91 C90 1.457 . S
C91 C92 1.291 . S
C91 H104 0.931 . S
C92 C91 1.291 . S
C92 C93 1.373 . S
C92 H105 0.929 . S
C93 C92 1.373 . S
C93 C94 1.396 . S
C93 C100 1.403 . S
C94 C84 1.476 . S
C94 N89 1.318 . S
C94 C93 1.396 . S
H95 C90 0.929 . S
O96 Mn72 2.385 . S
O96 C74 1.234 . S
O97 Mn72 2.209 . S
O97 Mn73 2.215 . S
O97 C74 1.283 . S
O98 Mn72 2.094 . S
O98 C76 1.240 . S
O99 Mn73 2.117 . S
O99 C76 1.264 . S
C100 C93 1.403 . S
C100 C101 1.399 . S
C100 H106 0.929 . S
C101 C81 1.449 . S
C101 C100 1.399 . S
C101 H107 0.930 . S
H102 C82 0.931 . S
H103 C83 0.930 . S
H104 C91 0.931 . S
H105 C92 0.929 . S
H106 C100 0.929 . S
H107 C101 0.930 . S
Mn108 O113 2.095 . S
Mn108 O123 2.162 . S
Mn108 O124 2.297 . S
Mn108 O132 2.385 . S
Mn108 O133 2.209 . S
Mn108 O134 2.094 . S
Mn109 O114 2.121 . S
Mn109 N116 2.257 . S
Mn109 N125 2.282 . S
Mn109 O133 2.215 . S
Mn109 O135 2.117 . S
C110 O132 1.234 . S
C110 O133 1.283 . S
C111 O123 1.281 . S
C111 O124 1.236 . S
C112 O134 1.240 . S
C112 O135 1.264 . S
O113 Mn108 2.095 . S
O113 C122 1.250 . S
O114 Mn109 2.121 . S
O114 C122 1.258 . S
C115 N116 1.326 . S
C115 C119 1.460 . S
C115 H121 0.929 . S
N116 Mn109 2.257 . S
N116 C115 1.326 . S
N116 C120 1.362 . S
C117 C118 1.258 . S
C117 C120 1.431 . S
C117 C137 1.449 . S
C118 C117 1.258 . S
C118 C119 1.477 . S
C118 H138 0.931 . S
C119 C115 1.460 . S
C119 C118 1.477 . S
C119 H139 0.930 . S
C120 N116 1.362 . S
C120 C117 1.431 . S
C120 C130 1.476 . S
H121 C115 0.929 . S
C122 O113 1.250 . S
C122 O114 1.258 . S
O123 Mn108 2.162 . S
O123 C111 1.281 . S
O124 Mn108 2.297 . S
O124 C111 1.236 . S
N125 Mn109 2.282 . S
N125 C126 1.328 . S
N125 C130 1.318 . S
C126 N125 1.328 . S
C126 C127 1.457 . S
C126 H131 0.929 . S
C127 C126 1.457 . S
C127 C128 1.291 . S
C127 H140 0.931 . S
C128 C127 1.291 . S
C128 C129 1.373 . S
C128 H141 0.929 . S
C129 C128 1.373 . S
C129 C130 1.396 . S
C129 C136 1.403 . S
C130 C120 1.476 . S
C130 N125 1.318 . S
C130 C129 1.396 . S
H131 C126 0.929 . S
O132 Mn108 2.385 . S
O132 C110 1.234 . S
O133 Mn108 2.209 . S
O133 Mn109 2.215 . S
O133 C110 1.283 . S
O134 Mn108 2.094 . S
O134 C112 1.240 . S
O135 Mn109 2.117 . S
O135 C112 1.264 . S
C136 C129 1.403 . S
C136 C137 1.399 . S
C136 H142 0.929 . S
C137 C117 1.449 . S
C137 C136 1.399 . S
C137 H143 0.930 . S
H138 C118 0.931 . S
H139 C119 0.930 . S
H140 C127 0.931 . S
H141 C128 0.929 . S
H142 C136 0.929 . S
H143 C137 0.930 . S
Mn144 O149 2.095 . S
Mn144 O159 2.162 . S
Mn144 O160 2.297 . S
Mn144 O168 2.385 . S
Mn144 O169 2.209 . S
Mn144 O170 2.094 . S
Mn145 O150 2.121 . S
Mn145 N152 2.257 . S
Mn145 N161 2.282 . S
Mn145 O169 2.215 . S
Mn145 O171 2.117 . S
C146 O168 1.234 . S
C146 O169 1.283 . S
C147 O159 1.281 . S
C147 O160 1.236 . S
C148 O170 1.240 . S
C148 O171 1.264 . S
O149 Mn144 2.095 . S
O149 C158 1.250 . S
O150 Mn145 2.121 . S
O150 C158 1.258 . S
C151 N152 1.326 . S
C151 C155 1.460 . S
C151 H157 0.929 . S
N152 Mn145 2.257 . S
N152 C151 1.326 . S
N152 C156 1.362 . S
C153 C154 1.258 . S
C153 C156 1.431 . S
C153 C173 1.449 . S
C154 C153 1.258 . S
C154 C155 1.477 . S
C154 H174 0.931 . S
C155 C151 1.460 . S
C155 C154 1.477 . S
C155 H175 0.930 . S
C156 N152 1.362 . S
C156 C153 1.431 . S
C156 C166 1.476 . S
H157 C151 0.929 . S
C158 O149 1.250 . S
C158 O150 1.258 . S
O159 Mn144 2.162 . S
O159 C147 1.281 . S
O160 Mn144 2.297 . S
O160 C147 1.236 . S
N161 Mn145 2.282 . S
N161 C162 1.328 . S
N161 C166 1.318 . S
C162 N161 1.328 . S
C162 C163 1.457 . S
C162 H167 0.929 . S
C163 C162 1.457 . S
C163 C164 1.291 . S
C163 H176 0.931 . S
C164 C163 1.291 . S
C164 C165 1.373 . S
C164 H177 0.929 . S
C165 C164 1.373 . S
C165 C166 1.396 . S
C165 C172 1.403 . S
C166 C156 1.476 . S
C166 N161 1.318 . S
C166 C165 1.396 . S
H167 C162 0.929 . S
O168 Mn144 2.385 . S
O168 C146 1.234 . S
O169 Mn144 2.209 . S
O169 Mn145 2.215 . S
O169 C146 1.283 . S
O170 Mn144 2.094 . S
O170 C148 1.240 . S
O171 Mn145 2.117 . S
O171 C148 1.264 . S
C172 C165 1.403 . S
C172 C173 1.399 . S
C172 H178 0.929 . S
C173 C153 1.449 . S
C173 C172 1.399 . S
C173 H179 0.930 . S
H174 C154 0.931 . S
H175 C155 0.930 . S
H176 C163 0.931 . S
H177 C164 0.929 . S
H178 C172 0.929 . S
H179 C173 0.930 . S
Mn180 O185 2.095 . S
Mn180 O195 2.162 . S
Mn180 O196 2.297 . S
Mn180 O204 2.385 . S
Mn180 O205 2.209 . S
Mn180 O206 2.094 . S
Mn181 O186 2.121 . S
Mn181 N188 2.257 . S
Mn181 N197 2.282 . S
Mn181 O205 2.215 . S
Mn181 O207 2.117 . S
C182 O204 1.234 . S
C182 O205 1.283 . S
C183 O195 1.281 . S
C183 O196 1.236 . S
C184 O206 1.240 . S
C184 O207 1.264 . S
O185 Mn180 2.095 . S
O185 C194 1.250 . S
O186 Mn181 2.121 . S
O186 C194 1.258 . S
C187 N188 1.326 . S
C187 C191 1.460 . S
C187 H193 0.929 . S
N188 Mn181 2.257 . S
N188 C187 1.326 . S
N188 C192 1.362 . S
C189 C190 1.258 . S
C189 C192 1.431 . S
C189 C209 1.449 . S
C190 C189 1.258 . S
C190 C191 1.477 . S
C190 H210 0.931 . S
C191 C187 1.460 . S
C191 C190 1.477 . S
C191 H211 0.930 . S
C192 N188 1.362 . S
C192 C189 1.431 . S
C192 C202 1.476 . S
H193 C187 0.929 . S
C194 O185 1.250 . S
C194 O186 1.258 . S
O195 Mn180 2.162 . S
O195 C183 1.281 . S
O196 Mn180 2.297 . S
O196 C183 1.236 . S
N197 Mn181 2.282 . S
N197 C198 1.328 . S
N197 C202 1.318 . S
C198 N197 1.328 . S
C198 C199 1.457 . S
C198 H203 0.929 . S
C199 C198 1.457 . S
C199 C200 1.291 . S
C199 H212 0.931 . S
C200 C199 1.291 . S
C200 C201 1.373 . S
C200 H213 0.929 . S
C201 C200 1.373 . S
C201 C202 1.396 . S
C201 C208 1.403 . S
C202 C192 1.476 . S
C202 N197 1.318 . S
C202 C201 1.396 . S
H203 C198 0.929 . S
O204 Mn180 2.385 . S
O204 C182 1.234 . S
O205 Mn180 2.209 . S
O205 Mn181 2.215 . S
O205 C182 1.283 . S
O206 Mn180 2.094 . S
O206 C184 1.240 . S
O207 Mn181 2.117 . S
O207 C184 1.264 . S
C208 C201 1.403 . S
C208 C209 1.399 . S
C208 H214 0.929 . S
C209 C189 1.449 . S
C209 C208 1.399 . S
C209 H215 0.930 . S
H210 C190 0.931 . S
H211 C191 0.930 . S
H212 C199 0.931 . S
H213 C200 0.929 . S
H214 C208 0.929 . S
H215 C209 0.930 . S
Mn216 O221 2.095 . S
Mn216 O231 2.162 . S
Mn216 O232 2.297 . S
Mn216 O240 2.385 . S
Mn216 O241 2.209 . S
Mn216 O242 2.094 . S
Mn217 O222 2.121 . S
Mn217 N224 2.257 . S
Mn217 N233 2.282 . S
Mn217 O241 2.215 . S
Mn217 O243 2.117 . S
C218 O240 1.234 . S
C218 O241 1.283 . S
C219 O231 1.281 . S
C219 O232 1.236 . S
C220 O242 1.240 . S
C220 O243 1.264 . S
O221 Mn216 2.095 . S
O221 C230 1.250 . S
O222 Mn217 2.121 . S
O222 C230 1.258 . S
C223 N224 1.326 . S
C223 C227 1.460 . S
C223 H229 0.929 . S
N224 Mn217 2.257 . S
N224 C223 1.326 . S
N224 C228 1.362 . S
C225 C226 1.258 . S
C225 C228 1.431 . S
C225 C245 1.449 . S
C226 C225 1.258 . S
C226 C227 1.477 . S
C226 H246 0.931 . S
C227 C223 1.460 . S
C227 C226 1.477 . S
C227 H247 0.930 . S
C228 N224 1.362 . S
C228 C225 1.431 . S
C228 C238 1.476 . S
H229 C223 0.929 . S
C230 O221 1.250 . S
C230 O222 1.258 . S
O231 Mn216 2.162 . S
O231 C219 1.281 . S
O232 Mn216 2.297 . S
O232 C219 1.236 . S
N233 Mn217 2.282 . S
N233 C234 1.328 . S
N233 C238 1.318 . S
C234 N233 1.328 . S
C234 C235 1.457 . S
C234 H239 0.929 . S
C235 C234 1.457 . S
C235 C236 1.291 . S
C235 H248 0.931 . S
C236 C235 1.291 . S
C236 C237 1.373 . S
C236 H249 0.929 . S
C237 C236 1.373 . S
C237 C238 1.396 . S
C237 C244 1.403 . S
C238 C228 1.476 . S
C238 N233 1.318 . S
C238 C237 1.396 . S
H239 C234 0.929 . S
O240 Mn216 2.385 . S
O240 C218 1.234 . S
O241 Mn216 2.209 . S
O241 Mn217 2.215 . S
O241 C218 1.283 . S
O242 Mn216 2.094 . S
O242 C220 1.240 . S
O243 Mn217 2.117 . S
O243 C220 1.264 . S
C244 C237 1.403 . S
C244 C245 1.399 . S
C244 H250 0.929 . S
C245 C225 1.449 . S
C245 C244 1.399 . S
C245 H251 0.930 . S
H246 C226 0.931 . S
H247 C227 0.930 . S
H248 C235 0.931 . S
H249 C236 0.929 . S
H250 C244 0.929 . S
H251 C245 0.930 . S
Mn252 O257 2.095 . S
Mn252 O267 2.162 . S
Mn252 O268 2.297 . S
Mn252 O276 2.385 . S
Mn252 O277 2.209 . S
Mn252 O278 2.094 . S
Mn253 O258 2.121 . S
Mn253 N260 2.257 . S
Mn253 N269 2.282 . S
Mn253 O277 2.215 . S
Mn253 O279 2.117 . S
C254 O276 1.234 . S
C254 O277 1.283 . S
C255 O267 1.281 . S
C255 O268 1.236 . S
C256 O278 1.240 . S
C256 O279 1.264 . S
O257 Mn252 2.095 . S
O257 C266 1.250 . S
O258 Mn253 2.121 . S
O258 C266 1.258 . S
C259 N260 1.326 . S
C259 C263 1.460 . S
C259 H265 0.929 . S
N260 Mn253 2.257 . S
N260 C259 1.326 . S
N260 C264 1.362 . S
C261 C262 1.258 . S
C261 C264 1.431 . S
C261 C281 1.449 . S
C262 C261 1.258 . S
C262 C263 1.477 . S
C262 H282 0.931 . S
C263 C259 1.460 . S
C263 C262 1.477 . S
C263 H283 0.930 . S
C264 N260 1.362 . S
C264 C261 1.431 . S
C264 C274 1.476 . S
H265 C259 0.929 . S
C266 O257 1.250 . S
C266 O258 1.258 . S
O267 Mn252 2.162 . S
O267 C255 1.281 . S
O268 Mn252 2.297 . S
O268 C255 1.236 . S
N269 Mn253 2.282 . S
N269 C270 1.328 . S
N269 C274 1.318 . S
C270 N269 1.328 . S
C270 C271 1.457 . S
C270 H275 0.929 . S
C271 C270 1.457 . S
C271 C272 1.291 . S
C271 H284 0.931 . S
C272 C271 1.291 . S
C272 C273 1.373 . S
C272 H285 0.929 . S
C273 C272 1.373 . S
C273 C274 1.396 . S
C273 C280 1.403 . S
C274 C264 1.476 . S
C274 N269 1.318 . S
C274 C273 1.396 . S
H275 C270 0.929 . S
O276 Mn252 2.385 . S
O276 C254 1.234 . S
O277 Mn252 2.209 . S
O277 Mn253 2.215 . S
O277 C254 1.283 . S
O278 Mn252 2.094 . S
O278 C256 1.240 . S
O279 Mn253 2.117 . S
O279 C256 1.264 . S
C280 C273 1.403 . S
C280 C281 1.399 . S
C280 H286 0.929 . S
C281 C261 1.449 . S
C281 C280 1.399 . S
C281 H287 0.930 . S
H282 C262 0.931 . S
H283 C263 0.930 . S
H284 C271 0.931 . S
H285 C272 0.929 . S
H286 C280 0.929 . S
H287 C281 0.930 . S
Mn288 O293 2.095 . S
Mn288 O303 2.162 . S
Mn288 O304 2.297 . S
Mn288 O312 2.385 . S
Mn288 O313 2.209 . S
Mn288 O314 2.094 . S
Mn289 O294 2.121 . S
Mn289 N296 2.257 . S
Mn289 N305 2.282 . S
Mn289 O313 2.215 . S
Mn289 O315 2.117 . S
C290 O312 1.234 . S
C290 O313 1.283 . S
C291 O303 1.281 . S
C291 O304 1.236 . S
C292 O314 1.240 . S
C292 O315 1.264 . S
O293 Mn288 2.095 . S
O293 C302 1.250 . S
O294 Mn289 2.121 . S
O294 C302 1.258 . S
C295 N296 1.326 . S
C295 C299 1.460 . S
C295 H301 0.929 . S
N296 Mn289 2.257 . S
N296 C295 1.326 . S
N296 C300 1.362 . S
C297 C298 1.258 . S
C297 C300 1.431 . S
C297 C317 1.449 . S
C298 C297 1.258 . S
C298 C299 1.477 . S
C298 H318 0.931 . S
C299 C295 1.460 . S
C299 C298 1.477 . S
C299 H319 0.930 . S
C300 N296 1.362 . S
C300 C297 1.431 . S
C300 C310 1.476 . S
H301 C295 0.929 . S
C302 O293 1.250 . S
C302 O294 1.258 . S
O303 Mn288 2.162 . S
O303 C291 1.281 . S
O304 Mn288 2.297 . S
O304 C291 1.236 . S
N305 Mn289 2.282 . S
N305 C306 1.328 . S
N305 C310 1.318 . S
C306 N305 1.328 . S
C306 C307 1.457 . S
C306 H311 0.929 . S
C307 C306 1.457 . S
C307 C308 1.291 . S
C307 H320 0.931 . S
C308 C307 1.291 . S
C308 C309 1.373 . S
C308 H321 0.929 . S
C309 C308 1.373 . S
C309 C310 1.396 . S
C309 C316 1.403 . S
C310 C300 1.476 . S
C310 N305 1.318 . S
C310 C309 1.396 . S
H311 C306 0.929 . S
O312 Mn288 2.385 . S
O312 C290 1.234 . S
O313 Mn288 2.209 . S
O313 Mn289 2.215 . S
O313 C290 1.283 . S
O314 Mn288 2.094 . S
O314 C292 1.240 . S
O315 Mn289 2.117 . S
O315 C292 1.264 . S
C316 C309 1.403 . S
C316 C317 1.399 . S
C316 H322 0.929 . S
C317 C297 1.449 . S
C317 C316 1.399 . S
C317 H323 0.930 . S
H318 C298 0.931 . S
H319 C299 0.930 . S
H320 C307 0.931 . S
H321 C308 0.929 . S
H322 C316 0.929 . S
H323 C317 0.930 . S
Mn324 O329 2.095 . S
Mn324 O339 2.162 . S
Mn324 O340 2.297 . S
Mn324 O348 2.385 . S
Mn324 O349 2.209 . S
Mn324 O350 2.094 . S
Mn325 O330 2.121 . S
Mn325 N332 2.257 . S
Mn325 N341 2.282 . S
Mn325 O349 2.215 . S
Mn325 O351 2.117 . S
C326 O348 1.234 . S
C326 O349 1.283 . S
C327 O339 1.281 . S
C327 O340 1.236 . S
C328 O350 1.240 . S
C328 O351 1.264 . S
O329 Mn324 2.095 . S
O329 C338 1.250 . S
O330 Mn325 2.121 . S
O330 C338 1.258 . S
C331 N332 1.326 . S
C331 C335 1.460 . S
C331 H337 0.929 . S
N332 Mn325 2.257 . S
N332 C331 1.326 . S
N332 C336 1.362 . S
C333 C334 1.258 . S
C333 C336 1.431 . S
C333 C353 1.449 . S
C334 C333 1.258 . S
C334 C335 1.477 . S
C334 H354 0.931 . S
C335 C331 1.460 . S
C335 C334 1.477 . S
C335 H355 0.930 . S
C336 N332 1.362 . S
C336 C333 1.431 . S
C336 C346 1.476 . S
H337 C331 0.929 . S
C338 O329 1.250 . S
C338 O330 1.258 . S
O339 Mn324 2.162 . S
O339 C327 1.281 . S
O340 Mn324 2.297 . S
O340 C327 1.236 . S
N341 Mn325 2.282 . S
N341 C342 1.328 . S
N341 C346 1.318 . S
C342 N341 1.328 . S
C342 C343 1.457 . S
C342 H347 0.929 . S
C343 C342 1.457 . S
C343 C344 1.291 . S
C343 H356 0.931 . S
C344 C343 1.291 . S
C344 C345 1.373 . S
C344 H357 0.929 . S
C345 C344 1.373 . S
C345 C346 1.396 . S
C345 C352 1.403 . S
C346 C336 1.476 . S
C346 N341 1.318 . S
C346 C345 1.396 . S
H347 C342 0.929 . S
O348 Mn324 2.385 . S
O348 C326 1.234 . S
O349 Mn324 2.209 . S
O349 Mn325 2.215 . S
O349 C326 1.283 . S
O350 Mn324 2.094 . S
O350 C328 1.240 . S
O351 Mn325 2.117 . S
O351 C328 1.264 . S
C352 C345 1.403 . S
C352 C353 1.399 . S
C352 H358 0.929 . S
C353 C333 1.449 . S
C353 C352 1.399 . S
C353 H359 0.930 . S
H354 C334 0.931 . S
H355 C335 0.930 . S
H356 C343 0.931 . S
H357 C344 0.929 . S
H358 C352 0.929 . S
H359 C353 0.930 . S
Mn360 O365 2.095 . S
Mn360 O375 2.162 . S
Mn360 O376 2.297 . S
Mn360 O384 2.385 . S
Mn360 O385 2.209 . S
Mn360 O386 2.094 . S
Mn361 O366 2.121 . S
Mn361 N368 2.257 . S
Mn361 N377 2.282 . S
Mn361 O385 2.215 . S
Mn361 O387 2.117 . S
C362 O384 1.234 . S
C362 O385 1.283 . S
C363 O375 1.281 . S
C363 O376 1.236 . S
C364 O386 1.240 . S
C364 O387 1.264 . S
O365 Mn360 2.095 . S
O365 C374 1.250 . S
O366 Mn361 2.121 . S
O366 C374 1.258 . S
C367 N368 1.326 . S
C367 C371 1.460 . S
C367 H373 0.929 . S
N368 Mn361 2.257 . S
N368 C367 1.326 . S
N368 C372 1.362 . S
C369 C370 1.258 . S
C369 C372 1.431 . S
C369 C389 1.449 . S
C370 C369 1.258 . S
C370 C371 1.477 . S
C370 H390 0.931 . S
C371 C367 1.460 . S
C371 C370 1.477 . S
C371 H391 0.930 . S
C372 N368 1.362 . S
C372 C369 1.431 . S
C372 C382 1.476 . S
H373 C367 0.929 . S
C374 O365 1.250 . S
C374 O366 1.258 . S
O375 Mn360 2.162 . S
O375 C363 1.281 . S
O376 Mn360 2.297 . S
O376 C363 1.236 . S
N377 Mn361 2.282 . S
N377 C378 1.328 . S
N377 C382 1.318 . S
C378 N377 1.328 . S
C378 C379 1.457 . S
C378 H383 0.929 . S
C379 C378 1.457 . S
C379 C380 1.291 . S
C379 H392 0.931 . S
C380 C379 1.291 . S
C380 C381 1.373 . S
C380 H393 0.929 . S
C381 C380 1.373 . S
C381 C382 1.396 . S
C381 C388 1.403 . S
C382 C372 1.476 . S
C382 N377 1.318 . S
C382 C381 1.396 . S
H383 C378 0.929 . S
O384 Mn360 2.385 . S
O384 C362 1.234 . S
O385 Mn360 2.209 . S
O385 Mn361 2.215 . S
O385 C362 1.283 . S
O386 Mn360 2.094 . S
O386 C364 1.240 . S
O387 Mn361 2.117 . S
O387 C364 1.264 . S
C388 C381 1.403 . S
C388 C389 1.399 . S
C388 H394 0.929 . S
C389 C369 1.449 . S
C389 C388 1.399 . S
C389 H395 0.930 . S
H390 C370 0.931 . S
H391 C371 0.930 . S
H392 C379 0.931 . S
H393 C380 0.929 . S
H394 C388 0.929 . S
H395 C389 0.930 . S
Mn396 O401 2.095 . S
Mn396 O411 2.162 . S
Mn396 O412 2.297 . S
Mn396 O420 2.385 . S
Mn396 O421 2.209 . S
Mn396 O422 2.094 . S
Mn397 O402 2.121 . S
Mn397 N404 2.257 . S
Mn397 N413 2.282 . S
Mn397 O421 2.215 . S
Mn397 O423 2.117 . S
C398 O420 1.234 . S
C398 O421 1.283 . S
C399 O411 1.281 . S
C399 O412 1.236 . S
C400 O422 1.240 . S
C400 O423 1.264 . S
O401 Mn396 2.095 . S
O401 C410 1.250 . S
O402 Mn397 2.121 . S
O402 C410 1.258 . S
C403 N404 1.326 . S
C403 C407 1.460 . S
C403 H409 0.929 . S
N404 Mn397 2.257 . S
N404 C403 1.326 . S
N404 C408 1.362 . S
C405 C406 1.258 . S
C405 C408 1.431 . S
C405 C425 1.449 . S
C406 C405 1.258 . S
C406 C407 1.477 . S
C406 H426 0.931 . S
C407 C403 1.460 . S
C407 C406 1.477 . S
C407 H427 0.930 . S
C408 N404 1.362 . S
C408 C405 1.431 . S
C408 C418 1.476 . S
H409 C403 0.929 . S
C410 O401 1.250 . S
C410 O402 1.258 . S
O411 Mn396 2.162 . S
O411 C399 1.281 . S
O412 Mn396 2.297 . S
O412 C399 1.236 . S
N413 Mn397 2.282 . S
N413 C414 1.328 . S
N413 C418 1.318 . S
C414 N413 1.328 . S
C414 C415 1.457 . S
C414 H419 0.929 . S
C415 C414 1.457 . S
C415 C416 1.291 . S
C415 H428 0.931 . S
C416 C415 1.291 . S
C416 C417 1.373 . S
C416 H429 0.929 . S
C417 C416 1.373 . S
C417 C418 1.396 . S
C417 C424 1.403 . S
C418 C408 1.476 . S
C418 N413 1.318 . S
C418 C417 1.396 . S
H419 C414 0.929 . S
O420 Mn396 2.385 . S
O420 C398 1.234 . S
O421 Mn396 2.209 . S
O421 Mn397 2.215 . S
O421 C398 1.283 . S
O422 Mn396 2.094 . S
O422 C400 1.240 . S
O423 Mn397 2.117 . S
O423 C400 1.264 . S
C424 C417 1.403 . S
C424 C425 1.399 . S
C424 H430 0.929 . S
C425 C405 1.449 . S
C425 C424 1.399 . S
C425 H431 0.930 . S
H426 C406 0.931 . S
H427 C407 0.930 . S
H428 C415 0.931 . S
H429 C416 0.929 . S
H430 C424 0.929 . S
H431 C425 0.930 . S
Mn432 O437 2.095 . S
Mn432 O447 2.162 . S
Mn432 O448 2.297 . S
Mn432 O456 2.385 . S
Mn432 O457 2.209 . S
Mn432 O458 2.094 . S
Mn433 O438 2.121 . S
Mn433 N440 2.257 . S
Mn433 N449 2.282 . S
Mn433 O457 2.215 . S
Mn433 O459 2.117 . S
C434 O456 1.234 . S
C434 O457 1.283 . S
C435 O447 1.281 . S
C435 O448 1.236 . S
C436 O458 1.240 . S
C436 O459 1.264 . S
O437 Mn432 2.095 . S
O437 C446 1.250 . S
O438 Mn433 2.121 . S
O438 C446 1.258 . S
C439 N440 1.326 . S
C439 C443 1.460 . S
C439 H445 0.929 . S
N440 Mn433 2.257 . S
N440 C439 1.326 . S
N440 C444 1.362 . S
C441 C442 1.258 . S
C441 C444 1.431 . S
C441 C461 1.449 . S
C442 C441 1.258 . S
C442 C443 1.477 . S
C442 H462 0.931 . S
C443 C439 1.460 . S
C443 C442 1.477 . S
C443 H463 0.930 . S
C444 N440 1.362 . S
C444 C441 1.431 . S
C444 C454 1.476 . S
H445 C439 0.929 . S
C446 O437 1.250 . S
C446 O438 1.258 . S
O447 Mn432 2.162 . S
O447 C435 1.281 . S
O448 Mn432 2.297 . S
O448 C435 1.236 . S
N449 Mn433 2.282 . S
N449 C450 1.328 . S
N449 C454 1.318 . S
C450 N449 1.328 . S
C450 C451 1.457 . S
C450 H455 0.929 . S
C451 C450 1.457 . S
C451 C452 1.291 . S
C451 H464 0.931 . S
C452 C451 1.291 . S
C452 C453 1.373 . S
C452 H465 0.929 . S
C453 C452 1.373 . S
C453 C454 1.396 . S
C453 C460 1.403 . S
C454 C444 1.476 . S
C454 N449 1.318 . S
C454 C453 1.396 . S
H455 C450 0.929 . S
O456 Mn432 2.385 . S
O456 C434 1.234 . S
O457 Mn432 2.209 . S
O457 Mn433 2.215 . S
O457 C434 1.283 . S
O458 Mn432 2.094 . S
O458 C436 1.240 . S
O459 Mn433 2.117 . S
O459 C436 1.264 . S
C460 C453 1.403 . S
C460 C461 1.399 . S
C460 H466 0.929 . S
C461 C441 1.449 . S
C461 C460 1.399 . S
C461 H467 0.930 . S
H462 C442 0.931 . S
H463 C443 0.930 . S
H464 C451 0.931 . S
H465 C452 0.929 . S
H466 C460 0.929 . S
H467 C461 0.930 . S
Mn468 O473 2.095 . S
Mn468 O483 2.162 . S
Mn468 O484 2.297 . S
Mn468 O492 2.385 . S
Mn468 O493 2.209 . S
Mn468 O494 2.094 . S
Mn469 O474 2.121 . S
Mn469 N476 2.257 . S
Mn469 N485 2.282 . S
Mn469 O493 2.215 . S
Mn469 O495 2.117 . S
C470 O492 1.234 . S
C470 O493 1.283 . S
C471 O483 1.281 . S
C471 O484 1.236 . S
C472 O494 1.240 . S
C472 O495 1.264 . S
O473 Mn468 2.095 . S
O473 C482 1.250 . S
O474 Mn469 2.121 . S
O474 C482 1.258 . S
C475 N476 1.326 . S
C475 C479 1.460 . S
C475 H481 0.929 . S
N476 Mn469 2.257 . S
N476 C475 1.326 . S
N476 C480 1.362 . S
C477 C478 1.258 . S
C477 C480 1.431 . S
C477 C497 1.449 . S
C478 C477 1.258 . S
C478 C479 1.477 . S
C478 H498 0.931 . S
C479 C475 1.460 . S
C479 C478 1.477 . S
C479 H499 0.930 . S
C480 N476 1.362 . S
C480 C477 1.431 . S
C480 C490 1.476 . S
H481 C475 0.929 . S
C482 O473 1.250 . S
C482 O474 1.258 . S
O483 Mn468 2.162 . S
O483 C471 1.281 . S
O484 Mn468 2.297 . S
O484 C471 1.236 . S
N485 Mn469 2.282 . S
N485 C486 1.328 . S
N485 C490 1.318 . S
C486 N485 1.328 . S
C486 C487 1.457 . S
C486 H491 0.929 . S
C487 C486 1.457 . S
C487 C488 1.291 . S
C487 H500 0.931 . S
C488 C487 1.291 . S
C488 C489 1.373 . S
C488 H501 0.929 . S
C489 C488 1.373 . S
C489 C490 1.396 . S
C489 C496 1.403 . S
C490 C480 1.476 . S
C490 N485 1.318 . S
C490 C489 1.396 . S
H491 C486 0.929 . S
O492 Mn468 2.385 . S
O492 C470 1.234 . S
O493 Mn468 2.209 . S
O493 Mn469 2.215 . S
O493 C470 1.283 . S
O494 Mn468 2.094 . S
O494 C472 1.240 . S
O495 Mn469 2.117 . S
O495 C472 1.264 . S
C496 C489 1.403 . S
C496 C497 1.399 . S
C496 H502 0.929 . S
C497 C477 1.449 . S
C497 C496 1.399 . S
C497 H503 0.930 . S
H498 C478 0.931 . S
H499 C479 0.930 . S
H500 C487 0.931 . S
H501 C488 0.929 . S
H502 C496 0.929 . S
H503 C497 0.930 . S
Mn504 O509 2.095 . S
Mn504 O519 2.162 . S
Mn504 O520 2.297 . S
Mn504 O528 2.385 . S
Mn504 O529 2.209 . S
Mn504 O530 2.094 . S
Mn505 O510 2.121 . S
Mn505 N512 2.257 . S
Mn505 N521 2.282 . S
Mn505 O529 2.215 . S
Mn505 O531 2.117 . S
C506 O528 1.234 . S
C506 O529 1.283 . S
C507 O519 1.281 . S
C507 O520 1.236 . S
C508 O530 1.240 . S
C508 O531 1.264 . S
O509 Mn504 2.095 . S
O509 C518 1.250 . S
O510 Mn505 2.121 . S
O510 C518 1.258 . S
C511 N512 1.326 . S
C511 C515 1.460 . S
C511 H517 0.929 . S
N512 Mn505 2.257 . S
N512 C511 1.326 . S
N512 C516 1.362 . S
C513 C514 1.258 . S
C513 C516 1.431 . S
C513 C533 1.449 . S
C514 C513 1.258 . S
C514 C515 1.477 . S
C514 H534 0.931 . S
C515 C511 1.460 . S
C515 C514 1.477 . S
C515 H535 0.930 . S
C516 N512 1.362 . S
C516 C513 1.431 . S
C516 C526 1.476 . S
H517 C511 0.929 . S
C518 O509 1.250 . S
C518 O510 1.258 . S
O519 Mn504 2.162 . S
O519 C507 1.281 . S
O520 Mn504 2.297 . S
O520 C507 1.236 . S
N521 Mn505 2.282 . S
N521 C522 1.328 . S
N521 C526 1.318 . S
C522 N521 1.328 . S
C522 C523 1.457 . S
C522 H527 0.929 . S
C523 C522 1.457 . S
C523 C524 1.291 . S
C523 H536 0.931 . S
C524 C523 1.291 . S
C524 C525 1.373 . S
C524 H537 0.929 . S
C525 C524 1.373 . S
C525 C526 1.396 . S
C525 C532 1.403 . S
C526 C516 1.476 . S
C526 N521 1.318 . S
C526 C525 1.396 . S
H527 C522 0.929 . S
O528 Mn504 2.385 . S
O528 C506 1.234 . S
O529 Mn504 2.209 . S
O529 Mn505 2.215 . S
O529 C506 1.283 . S
O530 Mn504 2.094 . S
O530 C508 1.240 . S
O531 Mn505 2.117 . S
O531 C508 1.264 . S
C532 C525 1.403 . S
C532 C533 1.399 . S
C532 H538 0.929 . S
C533 C513 1.449 . S
C533 C532 1.399 . S
C533 H539 0.930 . S
H534 C514 0.931 . S
H535 C515 0.930 . S
H536 C523 0.931 . S
H537 C524 0.929 . S
H538 C532 0.929 . S
H539 C533 0.930 . S
Mn540 O545 2.095 . S
Mn540 O555 2.162 . S
Mn540 O556 2.297 . S
Mn540 O564 2.385 . S
Mn540 O565 2.209 . S
Mn540 O566 2.094 . S
Mn541 O546 2.121 . S
Mn541 N548 2.257 . S
Mn541 N557 2.282 . S
Mn541 O565 2.215 . S
Mn541 O567 2.117 . S
C542 O564 1.234 . S
C542 O565 1.283 . S
C543 O555 1.281 . S
C543 O556 1.236 . S
C544 O566 1.240 . S
C544 O567 1.264 . S
O545 Mn540 2.095 . S
O545 C554 1.250 . S
O546 Mn541 2.121 . S
O546 C554 1.258 . S
C547 N548 1.326 . S
C547 C551 1.460 . S
C547 H553 0.929 . S
N548 Mn541 2.257 . S
N548 C547 1.326 . S
N548 C552 1.362 . S
C549 C550 1.258 . S
C549 C552 1.431 . S
C549 C569 1.449 . S
C550 C549 1.258 . S
C550 C551 1.477 . S
C550 H570 0.931 . S
C551 C547 1.460 . S
C551 C550 1.477 . S
C551 H571 0.930 . S
C552 N548 1.362 . S
C552 C549 1.431 . S
C552 C562 1.476 . S
H553 C547 0.929 . S
C554 O545 1.250 . S
C554 O546 1.258 . S
O555 Mn540 2.162 . S
O555 C543 1.281 . S
O556 Mn540 2.297 . S
O556 C543 1.236 . S
N557 Mn541 2.282 . S
N557 C558 1.328 . S
N557 C562 1.318 . S
C558 N557 1.328 . S
C558 C559 1.457 . S
C558 H563 0.929 . S
C559 C558 1.457 . S
C559 C560 1.291 . S
C559 H572 0.931 . S
C560 C559 1.291 . S
C560 C561 1.373 . S
C560 H573 0.929 . S
C561 C560 1.373 . S
C561 C562 1.396 . S
C561 C568 1.403 . S
C562 C552 1.476 . S
C562 N557 1.318 . S
C562 C561 1.396 . S
H563 C558 0.929 . S
O564 Mn540 2.385 . S
O564 C542 1.234 . S
O565 Mn540 2.209 . S
O565 Mn541 2.215 . S
O565 C542 1.283 . S
O566 Mn540 2.094 . S
O566 C544 1.240 . S
O567 Mn541 2.117 . S
O567 C544 1.264 . S
C568 C561 1.403 . S
C568 C569 1.399 . S
C568 H574 0.929 . S
C569 C549 1.449 . S
C569 C568 1.399 . S
C569 H575 0.930 . S
H570 C550 0.931 . S
H571 C551 0.930 . S
H572 C559 0.931 . S
H573 C560 0.929 . S
H574 C568 0.929 . S
H575 C569 0.930 . S
Mn576 O581 2.095 . S
Mn576 O591 2.162 . S
Mn576 O592 2.297 . S
Mn576 O600 2.385 . S
Mn576 O601 2.209 . S
Mn576 O602 2.094 . S
Mn577 O582 2.121 . S
Mn577 N584 2.257 . S
Mn577 N593 2.282 . S
Mn577 O601 2.215 . S
Mn577 O603 2.117 . S
C578 O600 1.234 . S
C578 O601 1.283 . S
C579 O591 1.281 . S
C579 O592 1.236 . S
C580 O602 1.240 . S
C580 O603 1.264 . S
O581 Mn576 2.095 . S
O581 C590 1.250 . S
O582 Mn577 2.121 . S
O582 C590 1.258 . S
C583 N584 1.326 . S
C583 C587 1.460 . S
C583 H589 0.929 . S
N584 Mn577 2.257 . S
N584 C583 1.326 . S
N584 C588 1.362 . S
C585 C586 1.258 . S
C585 C588 1.431 . S
C585 C605 1.449 . S
C586 C585 1.258 . S
C586 C587 1.477 . S
C586 H606 0.931 . S
C587 C583 1.460 . S
C587 C586 1.477 . S
C587 H607 0.930 . S
C588 N584 1.362 . S
C588 C585 1.431 . S
C588 C598 1.476 . S
H589 C583 0.929 . S
C590 O581 1.250 . S
C590 O582 1.258 . S
O591 Mn576 2.162 . S
O591 C579 1.281 . S
O592 Mn576 2.297 . S
O592 C579 1.236 . S
N593 Mn577 2.282 . S
N593 C594 1.328 . S
N593 C598 1.318 . S
C594 N593 1.328 . S
C594 C595 1.457 . S
C594 H599 0.929 . S
C595 C594 1.457 . S
C595 C596 1.291 . S
C595 H608 0.931 . S
C596 C595 1.291 . S
C596 C597 1.373 . S
C596 H609 0.929 . S
C597 C596 1.373 . S
C597 C598 1.396 . S
C597 C604 1.403 . S
C598 C588 1.476 . S
C598 N593 1.318 . S
C598 C597 1.396 . S
H599 C594 0.929 . S
O600 Mn576 2.385 . S
O600 C578 1.234 . S
O601 Mn576 2.209 . S
O601 Mn577 2.215 . S
O601 C578 1.283 . S
O602 Mn576 2.094 . S
O602 C580 1.240 . S
O603 Mn577 2.117 . S
O603 C580 1.264 . S
C604 C597 1.403 . S
C604 C605 1.399 . S
C604 H610 0.929 . S
C605 C585 1.449 . S
C605 C604 1.399 . S
C605 H611 0.930 . S
H606 C586 0.931 . S
H607 C587 0.930 . S
H608 C595 0.931 . S
H609 C596 0.929 . S
H610 C604 0.929 . S
H611 C605 0.930 . S
Mn612 O617 2.095 . S
Mn612 O627 2.162 . S
Mn612 O628 2.297 . S
Mn612 O636 2.385 . S
Mn612 O637 2.209 . S
Mn612 O638 2.094 . S
Mn613 O618 2.121 . S
Mn613 N620 2.257 . S
Mn613 N629 2.282 . S
Mn613 O637 2.215 . S
Mn613 O639 2.117 . S
C614 O636 1.234 . S
C614 O637 1.283 . S
C615 O627 1.281 . S
C615 O628 1.236 . S
C616 O638 1.240 . S
C616 O639 1.264 . S
O617 Mn612 2.095 . S
O617 C626 1.250 . S
O618 Mn613 2.121 . S
O618 C626 1.258 . S
C619 N620 1.326 . S
C619 C623 1.460 . S
C619 H625 0.929 . S
N620 Mn613 2.257 . S
N620 C619 1.326 . S
N620 C624 1.362 . S
C621 C622 1.258 . S
C621 C624 1.431 . S
C621 C641 1.449 . S
C622 C621 1.258 . S
C622 C623 1.477 . S
C622 H642 0.931 . S
C623 C619 1.460 . S
C623 C622 1.477 . S
C623 H643 0.930 . S
C624 N620 1.362 . S
C624 C621 1.431 . S
C624 C634 1.476 . S
H625 C619 0.929 . S
C626 O617 1.250 . S
C626 O618 1.258 . S
O627 Mn612 2.162 . S
O627 C615 1.281 . S
O628 Mn612 2.297 . S
O628 C615 1.236 . S
N629 Mn613 2.282 . S
N629 C630 1.328 . S
N629 C634 1.318 . S
C630 N629 1.328 . S
C630 C631 1.457 . S
C630 H635 0.929 . S
C631 C630 1.457 . S
C631 C632 1.291 . S
C631 H644 0.931 . S
C632 C631 1.291 . S
C632 C633 1.373 . S
C632 H645 0.929 . S
C633 C632 1.373 . S
C633 C634 1.396 . S
C633 C640 1.403 . S
C634 C624 1.476 . S
C634 N629 1.318 . S
C634 C633 1.396 . S
H635 C630 0.929 . S
O636 Mn612 2.385 . S
O636 C614 1.234 . S
O637 Mn612 2.209 . S
O637 Mn613 2.215 . S
O637 C614 1.283 . S
O638 Mn612 2.094 . S
O638 C616 1.240 . S
O639 Mn613 2.117 . S
O639 C616 1.264 . S
C640 C633 1.403 . S
C640 C641 1.399 . S
C640 H646 0.929 . S
C641 C621 1.449 . S
C641 C640 1.399 . S
C641 H647 0.930 . S
H642 C622 0.931 . S
H643 C623 0.930 . S
H644 C631 0.931 . S
H645 C632 0.929 . S
H646 C640 0.929 . S
H647 C641 0.930 . S
Mn648 O653 2.095 . S
Mn648 O663 2.162 . S
Mn648 O664 2.297 . S
Mn648 O672 2.385 . S
Mn648 O673 2.209 . S
Mn648 O674 2.094 . S
Mn649 O654 2.121 . S
Mn649 N656 2.257 . S
Mn649 N665 2.282 . S
Mn649 O673 2.215 . S
Mn649 O675 2.117 . S
C650 O672 1.234 . S
C650 O673 1.283 . S
C651 O663 1.281 . S
C651 O664 1.236 . S
C652 O674 1.240 . S
C652 O675 1.264 . S
O653 Mn648 2.095 . S
O653 C662 1.250 . S
O654 Mn649 2.121 . S
O654 C662 1.258 . S
C655 N656 1.326 . S
C655 C659 1.460 . S
C655 H661 0.929 . S
N656 Mn649 2.257 . S
N656 C655 1.326 . S
N656 C660 1.362 . S
C657 C658 1.258 . S
C657 C660 1.431 . S
C657 C677 1.449 . S
C658 C657 1.258 . S
C658 C659 1.477 . S
C658 H678 0.931 . S
C659 C655 1.460 . S
C659 C658 1.477 . S
C659 H679 0.930 . S
C660 N656 1.362 . S
C660 C657 1.431 . S
C660 C670 1.476 . S
H661 C655 0.929 . S
C662 O653 1.250 . S
C662 O654 1.258 . S
O663 Mn648 2.162 . S
O663 C651 1.281 . S
O664 Mn648 2.297 . S
O664 C651 1.236 . S
N665 Mn649 2.282 . S
N665 C666 1.328 . S
N665 C670 1.318 . S
C666 N665 1.328 . S
C666 C667 1.457 . S
C666 H671 0.929 . S
C667 C666 1.457 . S
C667 C668 1.291 . S
C667 H680 0.931 . S
C668 C667 1.291 . S
C668 C669 1.373 . S
C668 H681 0.929 . S
C669 C668 1.373 . S
C669 C670 1.396 . S
C669 C676 1.403 . S
C670 C660 1.476 . S
C670 N665 1.318 . S
C670 C669 1.396 . S
H671 C666 0.929 . S
O672 Mn648 2.385 . S
O672 C650 1.234 . S
O673 Mn648 2.209 . S
O673 Mn649 2.215 . S
O673 C650 1.283 . S
O674 Mn648 2.094 . S
O674 C652 1.240 . S
O675 Mn649 2.117 . S
O675 C652 1.264 . S
C676 C669 1.403 . S
C676 C677 1.399 . S
C676 H682 0.929 . S
C677 C657 1.449 . S
C677 C676 1.399 . S
C677 H683 0.930 . S
H678 C658 0.931 . S
H679 C659 0.930 . S
H680 C667 0.931 . S
H681 C668 0.929 . S
H682 C676 0.929 . S
H683 C677 0.930 . S
Mn684 O689 2.095 . S
Mn684 O699 2.162 . S
Mn684 O700 2.297 . S
Mn684 O708 2.385 . S
Mn684 O709 2.209 . S
Mn684 O710 2.094 . S
Mn685 O690 2.121 . S
Mn685 N692 2.257 . S
Mn685 N701 2.282 . S
Mn685 O709 2.215 . S
Mn685 O711 2.117 . S
C686 O708 1.234 . S
C686 O709 1.283 . S
C687 O699 1.281 . S
C687 O700 1.236 . S
C688 O710 1.240 . S
C688 O711 1.264 . S
O689 Mn684 2.095 . S
O689 C698 1.250 . S
O690 Mn685 2.121 . S
O690 C698 1.258 . S
C691 N692 1.326 . S
C691 C695 1.460 . S
C691 H697 0.929 . S
N692 Mn685 2.257 . S
N692 C691 1.326 . S
N692 C696 1.362 . S
C693 C694 1.258 . S
C693 C696 1.431 . S
C693 C713 1.449 . S
C694 C693 1.258 . S
C694 C695 1.477 . S
C694 H714 0.931 . S
C695 C691 1.460 . S
C695 C694 1.477 . S
C695 H715 0.930 . S
C696 N692 1.362 . S
C696 C693 1.431 . S
C696 C706 1.476 . S
H697 C691 0.929 . S
C698 O689 1.250 . S
C698 O690 1.258 . S
O699 Mn684 2.162 . S
O699 C687 1.281 . S
O700 Mn684 2.297 . S
O700 C687 1.236 . S
N701 Mn685 2.282 . S
N701 C702 1.328 . S
N701 C706 1.318 . S
C702 N701 1.328 . S
C702 C703 1.457 . S
C702 H707 0.929 . S
C703 C702 1.457 . S
C703 C704 1.291 . S
C703 H716 0.931 . S
C704 C703 1.291 . S
C704 C705 1.373 . S
C704 H717 0.929 . S
C705 C704 1.373 . S
C705 C706 1.396 . S
C705 C712 1.403 . S
C706 C696 1.476 . S
C706 N701 1.318 . S
C706 C705 1.396 . S
H707 C702 0.929 . S
O708 Mn684 2.385 . S
O708 C686 1.234 . S
O709 Mn684 2.209 . S
O709 Mn685 2.215 . S
O709 C686 1.283 . S
O710 Mn684 2.094 . S
O710 C688 1.240 . S
O711 Mn685 2.117 . S
O711 C688 1.264 . S
C712 C705 1.403 . S
C712 C713 1.399 . S
C712 H718 0.929 . S
C713 C693 1.449 . S
C713 C712 1.399 . S
C713 H719 0.930 . S
H714 C694 0.931 . S
H715 C695 0.930 . S
H716 C703 0.931 . S
H717 C704 0.929 . S
H718 C712 0.929 . S
H719 C713 0.930 . S
Mn720 O725 2.095 . S
Mn720 O735 2.162 . S
Mn720 O736 2.297 . S
Mn720 O744 2.385 . S
Mn720 O745 2.209 . S
Mn720 O746 2.094 . S
Mn721 O726 2.121 . S
Mn721 N728 2.257 . S
Mn721 N737 2.282 . S
Mn721 O745 2.215 . S
Mn721 O747 2.117 . S
C722 O744 1.234 . S
C722 O745 1.283 . S
C723 O735 1.281 . S
C723 O736 1.236 . S
C724 O746 1.240 . S
C724 O747 1.264 . S
O725 Mn720 2.095 . S
O725 C734 1.250 . S
O726 Mn721 2.121 . S
O726 C734 1.258 . S
C727 N728 1.326 . S
C727 C731 1.460 . S
C727 H733 0.929 . S
N728 Mn721 2.257 . S
N728 C727 1.326 . S
N728 C732 1.362 . S
C729 C730 1.258 . S
C729 C732 1.431 . S
C729 C749 1.449 . S
C730 C729 1.258 . S
C730 C731 1.477 . S
C730 H750 0.931 . S
C731 C727 1.460 . S
C731 C730 1.477 . S
C731 H751 0.930 . S
C732 N728 1.362 . S
C732 C729 1.431 . S
C732 C742 1.476 . S
H733 C727 0.929 . S
C734 O725 1.250 . S
C734 O726 1.258 . S
O735 Mn720 2.162 . S
O735 C723 1.281 . S
O736 Mn720 2.297 . S
O736 C723 1.236 . S
N737 Mn721 2.282 . S
N737 C738 1.328 . S
N737 C742 1.318 . S
C738 N737 1.328 . S
C738 C739 1.457 . S
C738 H743 0.929 . S
C739 C738 1.457 . S
C739 C740 1.291 . S
C739 H752 0.931 . S
C740 C739 1.291 . S
C740 C741 1.373 . S
C740 H753 0.929 . S
C741 C740 1.373 . S
C741 C742 1.396 . S
C741 C748 1.403 . S
C742 C732 1.476 . S
C742 N737 1.318 . S
C742 C741 1.396 . S
H743 C738 0.929 . S
O744 Mn720 2.385 . S
O744 C722 1.234 . S
O745 Mn720 2.209 . S
O745 Mn721 2.215 . S
O745 C722 1.283 . S
O746 Mn720 2.094 . S
O746 C724 1.240 . S
O747 Mn721 2.117 . S
O747 C724 1.264 . S
C748 C741 1.403 . S
C748 C749 1.399 . S
C748 H754 0.929 . S
C749 C729 1.449 . S
C749 C748 1.399 . S
C749 H755 0.930 . S
H750 C730 0.931 . S
H751 C731 0.930 . S
H752 C739 0.931 . S
H753 C740 0.929 . S
H754 C748 0.929 . S
H755 C749 0.930 . S
Mn756 O761 2.095 . S
Mn756 O771 2.162 . S
Mn756 O772 2.297 . S
Mn756 O780 2.385 . S
Mn756 O781 2.209 . S
Mn756 O782 2.094 . S
Mn757 O762 2.121 . S
Mn757 N764 2.257 . S
Mn757 N773 2.282 . S
Mn757 O781 2.215 . S
Mn757 O783 2.117 . S
C758 O780 1.234 . S
C758 O781 1.283 . S
C759 O771 1.281 . S
C759 O772 1.236 . S
C760 O782 1.240 . S
C760 O783 1.264 . S
O761 Mn756 2.095 . S
O761 C770 1.250 . S
O762 Mn757 2.121 . S
O762 C770 1.258 . S
C763 N764 1.326 . S
C763 C767 1.460 . S
C763 H769 0.929 . S
N764 Mn757 2.257 . S
N764 C763 1.326 . S
N764 C768 1.362 . S
C765 C766 1.258 . S
C765 C768 1.431 . S
C765 C785 1.449 . S
C766 C765 1.258 . S
C766 C767 1.477 . S
C766 H786 0.931 . S
C767 C763 1.460 . S
C767 C766 1.477 . S
C767 H787 0.930 . S
C768 N764 1.362 . S
C768 C765 1.431 . S
C768 C778 1.476 . S
H769 C763 0.929 . S
C770 O761 1.250 . S
C770 O762 1.258 . S
O771 Mn756 2.162 . S
O771 C759 1.281 . S
O772 Mn756 2.297 . S
O772 C759 1.236 . S
N773 Mn757 2.282 . S
N773 C774 1.328 . S
N773 C778 1.318 . S
C774 N773 1.328 . S
C774 C775 1.457 . S
C774 H779 0.929 . S
C775 C774 1.457 . S
C775 C776 1.291 . S
C775 H788 0.931 . S
C776 C775 1.291 . S
C776 C777 1.373 . S
C776 H789 0.929 . S
C777 C776 1.373 . S
C777 C778 1.396 . S
C777 C784 1.403 . S
C778 C768 1.476 . S
C778 N773 1.318 . S
C778 C777 1.396 . S
H779 C774 0.929 . S
O780 Mn756 2.385 . S
O780 C758 1.234 . S
O781 Mn756 2.209 . S
O781 Mn757 2.215 . S
O781 C758 1.283 . S
O782 Mn756 2.094 . S
O782 C760 1.240 . S
O783 Mn757 2.117 . S
O783 C760 1.264 . S
C784 C777 1.403 . S
C784 C785 1.399 . S
C784 H790 0.929 . S
C785 C765 1.449 . S
C785 C784 1.399 . S
C785 H791 0.930 . S
H786 C766 0.931 . S
H787 C767 0.930 . S
H788 C775 0.931 . S
H789 C776 0.929 . S
H790 C784 0.929 . S
H791 C785 0.930 . S
Mn792 O797 2.095 . S
Mn792 O807 2.162 . S
Mn792 O808 2.297 . S
Mn792 O816 2.385 . S
Mn792 O817 2.209 . S
Mn792 O818 2.094 . S
Mn793 O798 2.121 . S
Mn793 N800 2.257 . S
Mn793 N809 2.282 . S
Mn793 O817 2.215 . S
Mn793 O819 2.117 . S
C794 O816 1.234 . S
C794 O817 1.283 . S
C795 O807 1.281 . S
C795 O808 1.236 . S
C796 O818 1.240 . S
C796 O819 1.264 . S
O797 Mn792 2.095 . S
O797 C806 1.250 . S
O798 Mn793 2.121 . S
O798 C806 1.258 . S
C799 N800 1.326 . S
C799 C803 1.460 . S
C799 H805 0.929 . S
N800 Mn793 2.257 . S
N800 C799 1.326 . S
N800 C804 1.362 . S
C801 C802 1.258 . S
C801 C804 1.431 . S
C801 C821 1.449 . S
C802 C801 1.258 . S
C802 C803 1.477 . S
C802 H822 0.931 . S
C803 C799 1.460 . S
C803 C802 1.477 . S
C803 H823 0.930 . S
C804 N800 1.362 . S
C804 C801 1.431 . S
C804 C814 1.476 . S
H805 C799 0.929 . S
C806 O797 1.250 . S
C806 O798 1.258 . S
O807 Mn792 2.162 . S
O807 C795 1.281 . S
O808 Mn792 2.297 . S
O808 C795 1.236 . S
N809 Mn793 2.282 . S
N809 C810 1.328 . S
N809 C814 1.318 . S
C810 N809 1.328 . S
C810 C811 1.457 . S
C810 H815 0.929 . S
C811 C810 1.457 . S
C811 C812 1.291 . S
C811 H824 0.931 . S
C812 C811 1.291 . S
C812 C813 1.373 . S
C812 H825 0.929 . S
C813 C812 1.373 . S
C813 C814 1.396 . S
C813 C820 1.403 . S
C814 C804 1.476 . S
C814 N809 1.318 . S
C814 C813 1.396 . S
H815 C810 0.929 . S
O816 Mn792 2.385 . S
O816 C794 1.234 . S
O817 Mn792 2.209 . S
O817 Mn793 2.215 . S
O817 C794 1.283 . S
O818 Mn792 2.094 . S
O818 C796 1.240 . S
O819 Mn793 2.117 . S
O819 C796 1.264 . S
C820 C813 1.403 . S
C820 C821 1.399 . S
C820 H826 0.929 . S
C821 C801 1.449 . S
C821 C820 1.399 . S
C821 H827 0.930 . S
H822 C802 0.931 . S
H823 C803 0.930 . S
H824 C811 0.931 . S
H825 C812 0.929 . S
H826 C820 0.929 . S
H827 C821 0.930 . S
Mn828 O833 2.095 . S
Mn828 O843 2.162 . S
Mn828 O844 2.297 . S
Mn828 O852 2.385 . S
Mn828 O853 2.209 . S
Mn828 O854 2.094 . S
Mn829 O834 2.121 . S
Mn829 N836 2.257 . S
Mn829 N845 2.282 . S
Mn829 O853 2.215 . S
Mn829 O855 2.117 . S
C830 O852 1.234 . S
C830 O853 1.283 . S
C831 O843 1.281 . S
C831 O844 1.236 . S
C832 O854 1.240 . S
C832 O855 1.264 . S
O833 Mn828 2.095 . S
O833 C842 1.250 . S
O834 Mn829 2.121 . S
O834 C842 1.258 . S
C835 N836 1.326 . S
C835 C839 1.460 . S
C835 H841 0.929 . S
N836 Mn829 2.257 . S
N836 C835 1.326 . S
N836 C840 1.362 . S
C837 C838 1.258 . S
C837 C840 1.431 . S
C837 C857 1.449 . S
C838 C837 1.258 . S
C838 C839 1.477 . S
C838 H858 0.931 . S
C839 C835 1.460 . S
C839 C838 1.477 . S
C839 H859 0.930 . S
C840 N836 1.362 . S
C840 C837 1.431 . S
C840 C850 1.476 . S
H841 C835 0.929 . S
C842 O833 1.250 . S
C842 O834 1.258 . S
O843 Mn828 2.162 . S
O843 C831 1.281 . S
O844 Mn828 2.297 . S
O844 C831 1.236 . S
N845 Mn829 2.282 . S
N845 C846 1.328 . S
N845 C850 1.318 . S
C846 N845 1.328 . S
C846 C847 1.457 . S
C846 H851 0.929 . S
C847 C846 1.457 . S
C847 C848 1.291 . S
C847 H860 0.931 . S
C848 C847 1.291 . S
C848 C849 1.373 . S
C848 H861 0.929 . S
C849 C848 1.373 . S
C849 C850 1.396 . S
C849 C856 1.403 . S
C850 C840 1.476 . S
C850 N845 1.318 . S
C850 C849 1.396 . S
H851 C846 0.929 . S
O852 Mn828 2.385 . S
O852 C830 1.234 . S
O853 Mn828 2.209 . S
O853 Mn829 2.215 . S
O853 C830 1.283 . S
O854 Mn828 2.094 . S
O854 C832 1.240 . S
O855 Mn829 2.117 . S
O855 C832 1.264 . S
C856 C849 1.403 . S
C856 C857 1.399 . S
C856 H862 0.929 . S
C857 C837 1.449 . S
C857 C856 1.399 . S
C857 H863 0.930 . S
H858 C838 0.931 . S
H859 C839 0.930 . S
H860 C847 0.931 . S
H861 C848 0.929 . S
H862 C856 0.929 . S
H863 C857 0.930 . S
C398 C14 1.581 . S
C50 C290 1.581 . S
C86 C326 1.581 . S
C122 C362 1.581 . S
C470 C158 1.581 . S
C194 C506 1.581 . S
C542 C230 1.581 . S
C434 C266 1.581 . S
C182 C302 1.581 . S
C218 C338 1.581 . S
C374 C254 1.581 . S
C146 C410 1.581 . S
C110 C446 1.581 . S
C482 C2 1.581 . S
C518 C38 1.581 . S
C554 C74 1.581 . S
C590 C830 1.581 . S
C722 C626 1.581 . S
C662 C614 1.581 . S
C698 C650 1.581 . S
C686 C734 1.581 . S
C770 C794 1.581 . S
C578 C806 1.581 . S
C758 C842 1.581 . S
C3 C219 1.531 1_455 S
C39 C255 1.531 1_545 S
C75 C147 1.531 1_655 S
C183 C111 1.531 1_545 S
C363 C291 1.531 1_565 S
C327 C399 1.531 1_655 S
C435 C507 1.531 1_565 S
C543 C471 1.531 1_655 S
C615 C579 1.531 1_556 S
C651 C831 1.531 1_556 S
C687 C759 1.531 1_556 S
C723 C795 1.531 1_556 S
C4 C184 1.076 . S
C40 C220 1.076 . S
C76 C256 1.076 . S
C148 C112 1.076 . S
C292 C832 1.076 . S
C328 C760 1.076 . S
C796 C364 1.076 . S
C400 C580 1.076 . S
C724 C436 1.076 . S
C616 C472 1.076 . S
C508 C652 1.076 . S
C688 C544 1.076 . S
