# Generated by pormake.
# Topology unw, (4)-cn, num edge types: 1
# Building blocks:
#     Node 0, Type 0, BuildingBlock: CEKHIL_clean_sbu_0, # of connection points: 4
#     Node 1, Type 0, BuildingBlock: CEKHIL_clean_sbu_0, # of connection points: 4
#     Node 2, Type 0, BuildingBlock: CEKHIL_clean_sbu_0, # of connection points: 4
#     Node 3, Type 0, BuildingBlock: CEKHIL_clean_sbu_0, # of connection points: 4
#     Node 4, Type 0, BuildingBlock: CEKHIL_clean_sbu_0, # of connection points: 4
#     Node 5, Type 0, BuildingBlock: CEKHIL_clean_sbu_0, # of connection points: 4
#     Node 6, Type 0, BuildingBlock: CEKHIL_clean_sbu_0, # of connection points: 4
#     Node 7, Type 0, BuildingBlock: CEKHIL_clean_sbu_0, # of connection points: 4
#     Node 8, Type 0, BuildingBlock: CEKHIL_clean_sbu_0, # of connection points: 4
#     Node 9, Type 0, BuildingBlock: CEKHIL_clean_sbu_0, # of connection points: 4
#     Node 10, Type 0, BuildingBlock: CEKHIL_clean_sbu_0, # of connection points: 4
#     Node 11, Type 0, BuildingBlock: CEKHIL_clean_sbu_0, # of connection points: 4
#     Node 12, Type 0, BuildingBlock: CEKHIL_clean_sbu_0, # of connection points: 4
#     Node 13, Type 0, BuildingBlock: CEKHIL_clean_sbu_0, # of connection points: 4
#     Node 14, Type 0, BuildingBlock: CEKHIL_clean_sbu_0, # of connection points: 4
#     Node 15, Type 0, BuildingBlock: CEKHIL_clean_sbu_0, # of connection points: 4
#     Node 16, Type 0, BuildingBlock: CEKHIL_clean_sbu_0, # of connection points: 4
#     Node 17, Type 0, BuildingBlock: CEKHIL_clean_sbu_0, # of connection points: 4
#     Node 18, Type 0, BuildingBlock: CEKHIL_clean_sbu_0, # of connection points: 4
#     Node 19, Type 0, BuildingBlock: CEKHIL_clean_sbu_0, # of connection points: 4
#     Node 20, Type 0, BuildingBlock: CEKHIL_clean_sbu_0, # of connection points: 4
#     Node 21, Type 0, BuildingBlock: CEKHIL_clean_sbu_0, # of connection points: 4
#     Node 22, Type 0, BuildingBlock: CEKHIL_clean_sbu_0, # of connection points: 4
#     Node 23, Type 0, BuildingBlock: CEKHIL_clean_sbu_0, # of connection points: 4
#     Edge 24, Type (0, 0), BuildingBlock: TEMPAE_clean_linker_10, # of connection points: 2
#     Edge 25, Type (0, 0), BuildingBlock: TEMPAE_clean_linker_10, # of connection points: 2
#     Edge 26, Type (0, 0), BuildingBlock: TEMPAE_clean_linker_10, # of connection points: 2
#     Edge 27, Type (0, 0), BuildingBlock: TEMPAE_clean_linker_10, # of connection points: 2
#     Edge 28, Type (0, 0), BuildingBlock: TEMPAE_clean_linker_10, # of connection points: 2
#     Edge 29, Type (0, 0), BuildingBlock: TEMPAE_clean_linker_10, # of connection points: 2
#     Edge 30, Type (0, 0), BuildingBlock: TEMPAE_clean_linker_10, # of connection points: 2
#     Edge 31, Type (0, 0), BuildingBlock: TEMPAE_clean_linker_10, # of connection points: 2
#     Edge 32, Type (0, 0), BuildingBlock: TEMPAE_clean_linker_10, # of connection points: 2
#     Edge 33, Type (0, 0), BuildingBlock: TEMPAE_clean_linker_10, # of connection points: 2
#     Edge 34, Type (0, 0), BuildingBlock: TEMPAE_clean_linker_10, # of connection points: 2
#     Edge 35, Type (0, 0), BuildingBlock: TEMPAE_clean_linker_10, # of connection points: 2
#     Edge 36, Type (0, 0), BuildingBlock: TEMPAE_clean_linker_10, # of connection points: 2
#     Edge 37, Type (0, 0), BuildingBlock: TEMPAE_clean_linker_10, # of connection points: 2
#     Edge 38, Type (0, 0), BuildingBlock: TEMPAE_clean_linker_10, # of connection points: 2
#     Edge 39, Type (0, 0), BuildingBlock: TEMPAE_clean_linker_10, # of connection points: 2
#     Edge 40, Type (0, 0), BuildingBlock: TEMPAE_clean_linker_10, # of connection points: 2
#     Edge 41, Type (0, 0), BuildingBlock: TEMPAE_clean_linker_10, # of connection points: 2
#     Edge 42, Type (0, 0), BuildingBlock: TEMPAE_clean_linker_10, # of connection points: 2
#     Edge 43, Type (0, 0), BuildingBlock: TEMPAE_clean_linker_10, # of connection points: 2
#     Edge 44, Type (0, 0), BuildingBlock: TEMPAE_clean_linker_10, # of connection points: 2
#     Edge 45, Type (0, 0), BuildingBlock: TEMPAE_clean_linker_10, # of connection points: 2
#     Edge 46, Type (0, 0), BuildingBlock: TEMPAE_clean_linker_10, # of connection points: 2
#     Edge 47, Type (0, 0), BuildingBlock: TEMPAE_clean_linker_10, # of connection points: 2
#     Edge 48, Type (0, 0), BuildingBlock: TEMPAE_clean_linker_10, # of connection points: 2
#     Edge 49, Type (0, 0), BuildingBlock: TEMPAE_clean_linker_10, # of connection points: 2
#     Edge 50, Type (0, 0), BuildingBlock: TEMPAE_clean_linker_10, # of connection points: 2
#     Edge 51, Type (0, 0), BuildingBlock: TEMPAE_clean_linker_10, # of connection points: 2
#     Edge 52, Type (0, 0), BuildingBlock: TEMPAE_clean_linker_10, # of connection points: 2
#     Edge 53, Type (0, 0), BuildingBlock: TEMPAE_clean_linker_10, # of connection points: 2
#     Edge 54, Type (0, 0), BuildingBlock: TEMPAE_clean_linker_10, # of connection points: 2
#     Edge 55, Type (0, 0), BuildingBlock: TEMPAE_clean_linker_10, # of connection points: 2
#     Edge 56, Type (0, 0), BuildingBlock: TEMPAE_clean_linker_10, # of connection points: 2
#     Edge 57, Type (0, 0), BuildingBlock: TEMPAE_clean_linker_10, # of connection points: 2
#     Edge 58, Type (0, 0), BuildingBlock: TEMPAE_clean_linker_10, # of connection points: 2
#     Edge 59, Type (0, 0), BuildingBlock: TEMPAE_clean_linker_10, # of connection points: 2
#     Edge 60, Type (0, 0), BuildingBlock: TEMPAE_clean_linker_10, # of connection points: 2
#     Edge 61, Type (0, 0), BuildingBlock: TEMPAE_clean_linker_10, # of connection points: 2
#     Edge 62, Type (0, 0), BuildingBlock: TEMPAE_clean_linker_10, # of connection points: 2
#     Edge 63, Type (0, 0), BuildingBlock: TEMPAE_clean_linker_10, # of connection points: 2
#     Edge 64, Type (0, 0), BuildingBlock: TEMPAE_clean_linker_10, # of connection points: 2
#     Edge 65, Type (0, 0), BuildingBlock: TEMPAE_clean_linker_10, # of connection points: 2
#     Edge 66, Type (0, 0), BuildingBlock: TEMPAE_clean_linker_10, # of connection points: 2
#     Edge 67, Type (0, 0), BuildingBlock: TEMPAE_clean_linker_10, # of connection points: 2
#     Edge 68, Type (0, 0), BuildingBlock: TEMPAE_clean_linker_10, # of connection points: 2
#     Edge 69, Type (0, 0), BuildingBlock: TEMPAE_clean_linker_10, # of connection points: 2
#     Edge 70, Type (0, 0), BuildingBlock: TEMPAE_clean_linker_10, # of connection points: 2
#     Edge 71, Type (0, 0), BuildingBlock: TEMPAE_clean_linker_10, # of connection points: 2
# Relax obj value: 0.378
# Max RMSD: 0.301
# Mean RMSD: 0.288
data_MOF--net-unw--node1-CEKHIL_clean_sbu_0--edge1-TEMPAE_clean_linker_10
_symmetry_space_group_name_H-M    P1
_symmetry_Int_Tables_number       1
_symmetry_cell_setting            triclinic
loop_
_symmetry_equiv_pos_as_xyz
'x, y, z'
_cell_length_a     44.655725
_cell_length_b     45.561774
_cell_length_c     45.118947
_cell_angle_alpha  90.016491
_cell_angle_beta   90.153668
_cell_angle_gamma 90.450548
loop_
_atom_site_label
_atom_site_type_symbol
_atom_site_fract_x
_atom_site_fract_y
_atom_site_fract_z
_atom_type_partial_charge
Co0 Co 0.12266 0.40203 0.29508 0.0
O1 O 0.11558 0.4409 0.28069 0.0
O2 O 0.15564 0.42701 0.3063 0.0
C3 C 0.07753 0.39137 0.31353 0.0
O4 O 0.13694 0.36428 0.31415 0.0
Co5 Co 0.0899 0.34927 0.26594 0.0
O6 O 0.10463 0.32823 0.30159 0.0
C7 C 0.14255 0.37427 0.23629 0.0
C8 C 0.14185 0.44735 0.29145 0.0
C9 C 0.12646 0.33806 0.31702 0.0
O10 O 0.14515 0.39248 0.25782 0.0
O11 O 0.12108 0.35557 0.2344 0.0
O12 O 0.09615 0.4077 0.32858 0.0
O13 O 0.08478 0.38655 0.2862 0.0
Co14 Co 0.64714 0.11878 0.21657 0.0
O15 O 0.63669 0.08687 0.24232 0.0
O16 O 0.66566 0.08296 0.2027 0.0
C17 C 0.60168 0.13905 0.21229 0.0
O18 O 0.66191 0.14757 0.18502 0.0
Co19 Co 0.64185 0.18201 0.24114 0.0
O20 O 0.64332 0.19147 0.1982 0.0
C21 C 0.69417 0.14704 0.25778 0.0
C22 C 0.65369 0.07067 0.22594 0.0
C23 C 0.65557 0.17454 0.17937 0.0
O24 O 0.68412 0.12654 0.24091 0.0
O25 O 0.67985 0.17085 0.2624 0.0
O26 O 0.60876 0.11655 0.19606 0.0
O27 O 0.62043 0.14567 0.23317 0.0
Co28 Co 0.89393 0.6183 0.28 0.0
O29 O 0.90967 0.59136 0.25194 0.0
O30 O 0.87172 0.5817 0.28227 0.0
C31 C 0.93722 0.63505 0.29851 0.0
O32 O 0.87252 0.64188 0.31173 0.0
Co33 Co 0.90734 0.68444 0.26938 0.0
O34 O 0.89299 0.68723 0.31088 0.0
C35 C 0.85916 0.65589 0.23535 0.0
C36 C 0.88847 0.57358 0.26015 0.0
C37 C 0.8763 0.66772 0.32281 0.0
O38 O 0.86426 0.63215 0.24969 0.0
O39 O 0.875 0.67923 0.23865 0.0
O40 O 0.92593 0.61051 0.30828 0.0
O41 O 0.92444 0.646 0.27537 0.0
Co42 Co 0.35558 0.88516 0.20431 0.0
O43 O 0.39612 0.8758 0.19378 0.0
O44 O 0.365 0.846 0.21764 0.0
C45 C 0.36263 0.93055 0.22235 0.0
O46 O 0.31272 0.88781 0.21998 0.0
Co47 Co 0.32251 0.93355 0.16922 0.0
O48 O 0.29186 0.92833 0.20048 0.0
C49 C 0.32945 0.87647 0.14164 0.0
C50 C 0.39108 0.85018 0.20552 0.0
C51 C 0.29151 0.90684 0.21849 0.0
O52 O 0.34132 0.86783 0.16596 0.0
O53 O 0.32074 0.90277 0.13726 0.0
O54 O 0.36912 0.90767 0.23829 0.0
O55 O 0.35693 0.92525 0.19462 0.0
Co56 Co 0.14597 0.59738 0.70127 0.0
O57 O 0.13326 0.5628 0.72189 0.0
O58 O 0.16709 0.56381 0.68595 0.0
C59 C 0.10086 0.61743 0.694 0.0
O60 O 0.16352 0.62922 0.67453 0.0
Co61 Co 0.13679 0.65789 0.73073 0.0
O62 O 0.14178 0.67118 0.68907 0.0
C63 C 0.18703 0.62165 0.75047 0.0
C64 C 0.1529 0.54887 0.70622 0.0
C65 C 0.15636 0.6562 0.6702 0.0
O66 O 0.17953 0.60283 0.73061 0.0
O67 O 0.17215 0.64509 0.75525 0.0
O68 O 0.1103 0.59688 0.67639 0.0
O69 O 0.11698 0.62215 0.7174 0.0
Co70 Co 0.3916 0.10989 0.79199 0.0
O71 O 0.40316 0.07718 0.76808 0.0
O72 O 0.3634 0.07843 0.7977 0.0
C73 C 0.43637 0.12199 0.81059 0.0
O74 O 0.37343 0.13914 0.82042 0.0
Co75 Co 0.41455 0.17241 0.77719 0.0
O76 O 0.39954 0.18137 0.81758 0.0
C77 C 0.36358 0.14827 0.74353 0.0
C78 C 0.3791 0.06445 0.77807 0.0
C79 C 0.38012 0.16491 0.83009 0.0
O80 O 0.36529 0.1248 0.75913 0.0
O81 O 0.38203 0.16976 0.7463 0.0
O82 O 0.42114 0.10039 0.82212 0.0
O83 O 0.42619 0.13235 0.78589 0.0
Co84 Co 0.8594 0.36998 0.72401 0.0
O85 O 0.90061 0.36102 0.71647 0.0
O86 O 0.8677 0.33011 0.7362 0.0
C87 C 0.86445 0.41419 0.74484 0.0
O88 O 0.8153 0.37253 0.73596 0.0
Co89 Co 0.82976 0.4199 0.68852 0.0
O90 O 0.79898 0.41639 0.71987 0.0
C91 C 0.83639 0.36312 0.65993 0.0
C92 C 0.89469 0.33484 0.72636 0.0
C93 C 0.79579 0.39331 0.73553 0.0
O94 O 0.84831 0.35417 0.68406 0.0
O95 O 0.82722 0.38938 0.65621 0.0
O96 O 0.86965 0.39055 0.76007 0.0
O97 O 0.86195 0.41055 0.71636 0.0
Co98 Co 0.6147 0.88058 0.76881 0.0
O99 O 0.59894 0.91133 0.74501 0.0
O100 O 0.63592 0.91686 0.77751 0.0
C101 C 0.57173 0.85985 0.78346 0.0
O102 O 0.6356 0.85254 0.79724 0.0
Co103 Co 0.60353 0.8171 0.74609 0.0
O104 O 0.61552 0.80797 0.78742 0.0
C105 C 0.65115 0.85224 0.71881 0.0
C106 C 0.61953 0.92806 0.75644 0.0
C107 C 0.63094 0.82532 0.8037 0.0
O108 O 0.64552 0.87256 0.73757 0.0
O109 O 0.63573 0.82849 0.71714 0.0
O110 O 0.58186 0.88316 0.79692 0.0
O111 O 0.58501 0.85323 0.75896 0.0
Co112 Co 0.2745 0.11862 0.39142 0.0
O113 O 0.2899 0.07956 0.38562 0.0
O114 O 0.26583 0.10583 0.35173 0.0
C115 C 0.25236 0.1141 0.4356 0.0
O116 O 0.25458 0.15846 0.38899 0.0
Co117 Co 0.29956 0.15959 0.44023 0.0
O118 O 0.26366 0.18332 0.43113 0.0
C119 C 0.33196 0.15525 0.38421 0.0
C120 C 0.28014 0.08208 0.35854 0.0
C121 C 0.2499 0.18018 0.40656 0.0
O122 O 0.31277 0.13584 0.37607 0.0
O123 O 0.33113 0.16806 0.40942 0.0
O124 O 0.23952 0.10375 0.41183 0.0
O125 O 0.28032 0.12163 0.4327 0.0
Co126 Co 0.88917 0.22251 0.38256 0.0
O127 O 0.87711 0.20603 0.41997 0.0
O128 O 0.84727 0.22892 0.38809 0.0
C129 C 0.93107 0.24612 0.39587 0.0
O130 O 0.89281 0.24311 0.34293 0.0
Co131 Co 0.94588 0.20211 0.34989 0.0
O132 O 0.93836 0.23601 0.32339 0.0
C133 C 0.89137 0.16655 0.34499 0.0
C134 C 0.8503 0.21463 0.41278 0.0
C135 C 0.91288 0.24835 0.32322 0.0
O136 O 0.8788 0.18487 0.36233 0.0
O137 O 0.91866 0.16895 0.33672 0.0
O138 O 0.90495 0.25707 0.40177 0.0
O139 O 0.93095 0.21898 0.38688 0.0
Co140 Co 0.70567 0.86241 0.38726 0.0
O141 O 0.6919 0.90213 0.38337 0.0
O142 O 0.71974 0.87875 0.35042 0.0
C143 C 0.72261 0.86201 0.43389 0.0
O144 O 0.72451 0.8219 0.38408 0.0
Co145 Co 0.67153 0.81956 0.42809 0.0
O146 O 0.70699 0.79452 0.42187 0.0
C147 C 0.64629 0.83199 0.37006 0.0
C148 C 0.70483 0.90209 0.35755 0.0
C149 C 0.725 0.79868 0.40042 0.0
O150 O 0.66912 0.84848 0.36568 0.0
O151 O 0.64193 0.81799 0.39424 0.0
O152 O 0.73823 0.87418 0.41288 0.0
O153 O 0.69482 0.85617 0.4272 0.0
Co154 Co 0.11906 0.79988 0.37667 0.0
O155 O 0.13218 0.81549 0.41408 0.0
O156 O 0.16105 0.79288 0.38124 0.0
C157 C 0.07738 0.7766 0.39109 0.0
O158 O 0.11389 0.77995 0.33677 0.0
Co159 Co 0.06159 0.82124 0.34586 0.0
O160 O 0.06806 0.78814 0.31812 0.0
C161 C 0.11636 0.85647 0.34015 0.0
C162 C 0.15863 0.80647 0.4064 0.0
C163 C 0.09335 0.77548 0.31721 0.0
O164 O 0.12933 0.83769 0.35676 0.0
O165 O 0.08867 0.85457 0.33295 0.0
O166 O 0.10358 0.76524 0.39577 0.0
O167 O 0.07746 0.80377 0.38224 0.0
Co168 Co 0.30139 0.87438 0.60555 0.0
O169 O 0.28301 0.88943 0.57039 0.0
O170 O 0.31858 0.85559 0.57158 0.0
C171 C 0.30871 0.91726 0.62927 0.0
O172 O 0.3261 0.85406 0.63708 0.0
Co173 Co 0.27015 0.88122 0.6667 0.0
O174 O 0.309 0.86672 0.68214 0.0
C175 C 0.24843 0.83616 0.62507 0.0
C176 C 0.29975 0.87098 0.55614 0.0
C177 C 0.32811 0.8544 0.66547 0.0
O178 O 0.27039 0.84194 0.60759 0.0
O179 O 0.24303 0.85111 0.64844 0.0
O180 O 0.32725 0.90911 0.60871 0.0
O181 O 0.28488 0.90131 0.63192 0.0
Co182 Co 0.10522 0.21334 0.63974 0.0
O183 O 0.06453 0.22326 0.63092 0.0
O184 O 0.07886 0.19736 0.66992 0.0
C185 C 0.11995 0.19936 0.59441 0.0
O186 O 0.14583 0.19866 0.65469 0.0
Co187 Co 0.15497 0.25239 0.61255 0.0
O188 O 0.17982 0.2182 0.6234 0.0
C189 C 0.1247 0.27311 0.6658 0.0
C190 C 0.05734 0.21033 0.65552 0.0
C191 C 0.17252 0.20017 0.64377 0.0
O192 O 0.10908 0.24944 0.66499 0.0
O193 O 0.14447 0.27946 0.64629 0.0
O194 O 0.10456 0.18156 0.61112 0.0
O195 O 0.12136 0.22632 0.60361 0.0
Co196 Co 0.70523 0.13217 0.60515 0.0
O197 O 0.72202 0.11974 0.56831 0.0
O198 O 0.68912 0.15567 0.57355 0.0
C199 C 0.69479 0.08792 0.62414 0.0
O200 O 0.68233 0.15017 0.63934 0.0
Co201 Co 0.73696 0.11725 0.66429 0.0
O202 O 0.69721 0.1273 0.68095 0.0
C203 C 0.75922 0.16707 0.62897 0.0
C204 C 0.70665 0.14072 0.5563 0.0
C205 C 0.6791 0.14375 0.6669 0.0
O206 O 0.73829 0.16214 0.61001 0.0
O207 O 0.76342 0.15097 0.65184 0.0
O208 O 0.67671 0.09975 0.60501 0.0
O209 O 0.7202 0.10121 0.62797 0.0
Co210 Co 0.8798 0.75634 0.62494 0.0
O211 O 0.90677 0.72588 0.61419 0.0
O212 O 0.91973 0.76562 0.63965 0.0
C213 C 0.8559 0.76163 0.58146 0.0
O214 O 0.85654 0.79218 0.63918 0.0
Co215 Co 0.81244 0.73931 0.62579 0.0
O216 O 0.80892 0.78265 0.62515 0.0
C217 C 0.84995 0.72217 0.67602 0.0
C218 C 0.92717 0.74014 0.62887 0.0
C219 C 0.82933 0.8002 0.63428 0.0
O220 O 0.87175 0.73577 0.66354 0.0
O221 O 0.8241 0.71948 0.66394 0.0
O222 O 0.88192 0.77396 0.58573 0.0
O223 O 0.84797 0.74271 0.6014 0.0
Co224 Co 0.37627 0.26598 0.13564 0.0
O225 O 0.40765 0.23992 0.12481 0.0
O226 O 0.41348 0.27818 0.1547 0.0
C227 C 0.35531 0.27288 0.09102 0.0
O228 O 0.34726 0.29721 0.15069 0.0
Co229 Co 0.31214 0.24033 0.12973 0.0
O230 O 0.3024 0.28263 0.13248 0.0
C231 C 0.34803 0.22329 0.18091 0.0
C232 C 0.42478 0.2547 0.14269 0.0
C233 C 0.31945 0.30186 0.14445 0.0
O234 O 0.36809 0.24113 0.17142 0.0
O235 O 0.32371 0.21813 0.16667 0.0
O236 O 0.37935 0.28738 0.09856 0.0
O237 O 0.34829 0.25118 0.10831 0.0
Co238 Co 0.38908 0.69362 0.87197 0.0
O239 O 0.37997 0.68009 0.91127 0.0
O240 O 0.34803 0.70192 0.88056 0.0
C241 C 0.43259 0.71658 0.87999 0.0
O242 O 0.39026 0.71153 0.8308 0.0
Co243 Co 0.44155 0.66802 0.83663 0.0
O244 O 0.43423 0.70119 0.80928 0.0
C245 C 0.38505 0.63548 0.83783 0.0
C246 C 0.35295 0.68921 0.90583 0.0
C247 C 0.40945 0.7148 0.80981 0.0
O248 O 0.37538 0.65531 0.85528 0.0
O249 O 0.41153 0.63588 0.8271 0.0
O250 O 0.40743 0.72864 0.88744 0.0
O251 O 0.43101 0.68882 0.87316 0.0
Co252 Co 0.21593 0.36355 0.88333 0.0
O253 O 0.20648 0.40393 0.87479 0.0
O254 O 0.23093 0.37371 0.84492 0.0
C255 C 0.23319 0.36633 0.92974 0.0
O256 O 0.23072 0.32159 0.88417 0.0
Co257 Co 0.17952 0.32729 0.92833 0.0
O258 O 0.21316 0.29929 0.92508 0.0
C259 C 0.15422 0.33641 0.86954 0.0
C260 C 0.21866 0.39911 0.84903 0.0
C261 C 0.23052 0.30019 0.90275 0.0
O262 O 0.17792 0.35104 0.86349 0.0
O263 O 0.14951 0.32458 0.89482 0.0
O264 O 0.24975 0.3747 0.90756 0.0
O265 O 0.20492 0.36234 0.9237 0.0
Co266 Co 0.62246 0.28357 0.88647 0.0
O267 O 0.63777 0.29827 0.92353 0.0
O268 O 0.66442 0.27585 0.88882 0.0
C269 C 0.58116 0.26044 0.90204 0.0
O270 O 0.61535 0.26466 0.84646 0.0
Co271 Co 0.56397 0.306 0.85842 0.0
O272 O 0.56924 0.27392 0.82918 0.0
C273 C 0.61852 0.34137 0.85204 0.0
C274 C 0.66369 0.2891 0.91426 0.0
C275 C 0.59433 0.261 0.82728 0.0
O276 O 0.63217 0.32177 0.86707 0.0
O277 O 0.59053 0.33992 0.84602 0.0
O278 O 0.60739 0.24871 0.90546 0.0
O279 O 0.5812 0.28782 0.89386 0.0
Co280 Co 0.78563 0.62252 0.89785 0.0
O281 O 0.8054 0.58523 0.89571 0.0
O282 O 0.77609 0.60365 0.86067 0.0
C283 C 0.76632 0.62093 0.94343 0.0
O284 O 0.76144 0.65997 0.89269 0.0
Co285 Co 0.81066 0.67003 0.94037 0.0
O286 O 0.77252 0.68989 0.93099 0.0
C287 C 0.84002 0.6618 0.88337 0.0
C288 C 0.7938 0.58281 0.86935 0.0
C289 C 0.75689 0.68327 0.90826 0.0
O290 O 0.8208 0.64147 0.87818 0.0
O291 O 0.84069 0.67642 0.90758 0.0
O292 O 0.75378 0.60649 0.92181 0.0
O293 O 0.79325 0.63064 0.93814 0.0
Co294 Co 0.60228 0.7208 0.13191 0.0
O295 O 0.56293 0.73327 0.12085 0.0
O296 O 0.57306 0.70453 0.15915 0.0
C297 C 0.62001 0.70866 0.08718 0.0
O298 O 0.64078 0.70312 0.14876 0.0
Co299 Co 0.65587 0.75868 0.11077 0.0
O300 O 0.67795 0.72254 0.12111 0.0
C301 C 0.62283 0.77777 0.16298 0.0
C302 C 0.55337 0.71942 0.14413 0.0
C303 C 0.66815 0.70367 0.13961 0.0
O304 O 0.60602 0.75512 0.15959 0.0
O305 O 0.64427 0.78417 0.14531 0.0
O306 O 0.60239 0.69074 0.10144 0.0
O307 O 0.62175 0.73502 0.09793 0.0
Co308 Co 0.21839 0.62958 0.11676 0.0
O309 O 0.24133 0.61513 0.08415 0.0
O310 O 0.19984 0.64152 0.08029 0.0
C311 C 0.21832 0.58852 0.14439 0.0
O312 O 0.18828 0.64752 0.145 0.0
Co313 Co 0.24639 0.63484 0.17963 0.0
O314 O 0.20393 0.63933 0.19164 0.0
C315 C 0.26134 0.6792 0.13453 0.0
C316 C 0.22214 0.6286 0.06737 0.0
C317 C 0.18397 0.64719 0.17314 0.0
O318 O 0.24253 0.66716 0.11659 0.0
O319 O 0.26748 0.66865 0.16011 0.0
O320 O 0.19964 0.59114 0.12238 0.0
O321 O 0.23841 0.60894 0.14651 0.0
Co322 Co 0.8108 0.37767 0.09569 0.0
O323 O 0.79797 0.38723 0.05646 0.0
O324 O 0.82807 0.35038 0.06818 0.0
C325 C 0.82223 0.42285 0.11157 0.0
O326 O 0.82948 0.36201 0.13346 0.0
Co327 Co 0.77539 0.40036 0.15013 0.0
O328 O 0.81229 0.38866 0.1717 0.0
C329 C 0.75266 0.34881 0.11737 0.0
C330 C 0.81297 0.3644 0.04801 0.0
C331 C 0.83038 0.37009 0.16076 0.0
O332 O 0.77569 0.35003 0.10042 0.0
O333 O 0.7475 0.36783 0.1376 0.0
O334 O 0.84107 0.40857 0.09512 0.0
O335 O 0.79588 0.41123 0.11397 0.0
C336 C 0.19491 0.54273 0.16411 0.0
C337 C 0.2127 0.56771 0.16882 0.0
C338 C 0.18687 0.52445 0.18783 0.0
C339 C 0.19558 0.53227 0.21705 0.0
C340 C 0.21407 0.55711 0.22183 0.0
C341 C 0.2232 0.57398 0.19749 0.0
C342 C 0.16854 0.4971 0.18168 0.0
C343 C 0.22258 0.56712 0.25266 0.0
C344 C 0.14191 0.49813 0.2716 0.0
C345 C 0.15794 0.47334 0.28044 0.0
C346 C 0.15508 0.51925 0.2531 0.0
C347 C 0.18444 0.51465 0.24238 0.0
C348 C 0.20151 0.49091 0.25322 0.0
C349 C 0.18815 0.47074 0.27264 0.0
C350 C 0.13681 0.54526 0.24329 0.0
C351 C 0.23311 0.48562 0.24272 0.0
H352 H 0.18716 0.53757 0.14191 0.0
H353 H 0.23741 0.59291 0.20129 0.0
H354 H 0.17882 0.47785 0.1927 0.0
H355 H 0.1457 0.49965 0.19088 0.0
H356 H 0.16654 0.49245 0.15758 0.0
H357 H 0.24111 0.58353 0.25237 0.0
H358 H 0.20282 0.57738 0.26319 0.0
H359 H 0.22928 0.54841 0.26682 0.0
H360 H 0.11857 0.50016 0.27781 0.0
H361 H 0.20052 0.45148 0.27942 0.0
H362 H 0.129 0.54181 0.22018 0.0
H363 H 0.15061 0.56563 0.24365 0.0
H364 H 0.11686 0.54848 0.25757 0.0
H365 H 0.23411 0.48609 0.21816 0.0
H366 H 0.242 0.46431 0.25064 0.0
H367 H 0.24808 0.50335 0.25096 0.0
C368 C 0.57408 0.16602 0.17311 0.0
C369 C 0.57786 0.15935 0.20316 0.0
C370 C 0.55178 0.18548 0.16379 0.0
C371 C 0.53198 0.19754 0.18494 0.0
C372 C 0.53614 0.19128 0.21545 0.0
C373 C 0.55952 0.17267 0.22426 0.0
C374 C 0.54879 0.19233 0.13118 0.0
C375 C 0.51495 0.20289 0.2386 0.0
C376 C 0.47783 0.25803 0.16191 0.0
C377 C 0.45284 0.24131 0.15329 0.0
C378 C 0.50407 0.24418 0.1721 0.0
C379 C 0.50465 0.21314 0.1747 0.0
C380 C 0.47905 0.19642 0.16678 0.0
C381 C 0.45374 0.21066 0.1558 0.0
C382 C 0.53126 0.26261 0.1796 0.0
C383 C 0.4783 0.16339 0.16994 0.0
H384 H 0.58881 0.15622 0.15687 0.0
H385 H 0.56271 0.16761 0.24753 0.0
H386 H 0.52843 0.18139 0.12217 0.0
H387 H 0.54622 0.21629 0.12775 0.0
H388 H 0.56844 0.18474 0.1183 0.0
H389 H 0.5227 0.19809 0.26149 0.0
H390 H 0.5123 0.22695 0.23618 0.0
H391 H 0.49249 0.19274 0.23542 0.0
H392 H 0.47705 0.28173 0.1601 0.0
H393 H 0.43419 0.19767 0.14977 0.0
H394 H 0.5504 0.2559 0.16556 0.0
H395 H 0.53794 0.25895 0.20299 0.0
H396 H 0.52726 0.28642 0.17625 0.0
H397 H 0.49508 0.15342 0.155 0.0
H398 H 0.45596 0.15386 0.16453 0.0
H399 H 0.48424 0.15705 0.19295 0.0
C400 C 0.81178 0.46391 0.14616 0.0
C401 C 0.83248 0.44499 0.13311 0.0
C402 C 0.82056 0.4833 0.16874 0.0
C403 C 0.85059 0.48316 0.17887 0.0
C404 C 0.87142 0.4636 0.16618 0.0
C405 C 0.86219 0.44498 0.14313 0.0
C406 C 0.7979 0.50434 0.18129 0.0
C407 C 0.90348 0.46249 0.17683 0.0
C408 C 0.88241 0.55366 0.20986 0.0
C409 C 0.87992 0.54922 0.24048 0.0
C410 C 0.87264 0.5324 0.18972 0.0
C411 C 0.86094 0.50556 0.20046 0.0
C412 C 0.8589 0.50057 0.23143 0.0
C413 C 0.86789 0.52287 0.25123 0.0
C414 C 0.87431 0.53897 0.15691 0.0
C415 C 0.84725 0.4718 0.24351 0.0
H416 H 0.78871 0.4636 0.13861 0.0
H417 H 0.87804 0.42979 0.13356 0.0
H418 H 0.79652 0.50184 0.2057 0.0
H419 H 0.80508 0.52728 0.17675 0.0
H420 H 0.77519 0.50089 0.17172 0.0
H421 H 0.91616 0.44437 0.16635 0.0
H422 H 0.915 0.48354 0.17172 0.0
H423 H 0.90414 0.4596 0.20124 0.0
H424 H 0.89111 0.57437 0.20155 0.0
H425 H 0.86588 0.51961 0.27494 0.0
H426 H 0.85167 0.53719 0.14684 0.0
H427 H 0.88872 0.52267 0.14571 0.0
H428 H 0.8834 0.56127 0.15233 0.0
H429 H 0.82363 0.46841 0.23659 0.0
H430 H 0.84847 0.47088 0.26809 0.0
H431 H 0.86034 0.45333 0.23427 0.0
C432 C 0.50123 0.73654 0.13663 0.0
C433 C 0.52342 0.72629 0.15597 0.0
C434 C 0.47636 0.75182 0.14736 0.0
C435 C 0.47395 0.7574 0.17812 0.0
C436 C 0.49476 0.74462 0.19797 0.0
C437 C 0.51923 0.72896 0.18663 0.0
C438 C 0.45428 0.7644 0.12546 0.0
C439 C 0.49273 0.74985 0.23092 0.0
C440 C 0.44258 0.83273 0.19447 0.0
C441 C 0.41296 0.82618 0.20233 0.0
C442 C 0.46288 0.81038 0.18782 0.0
C443 C 0.45325 0.78067 0.18863 0.0
C444 C 0.42359 0.77383 0.19746 0.0
C445 C 0.4038 0.79671 0.20435 0.0
C446 C 0.49422 0.81884 0.17833 0.0
C447 C 0.4122 0.74257 0.19801 0.0
H448 H 0.50434 0.73435 0.1129 0.0
H449 H 0.53643 0.72123 0.20165 0.0
H450 H 0.43097 0.76136 0.13341 0.0
H451 H 0.45839 0.78834 0.12313 0.0
H452 H 0.45632 0.75413 0.10323 0.0
H453 H 0.50986 0.73738 0.2435 0.0
H454 H 0.49581 0.77358 0.23566 0.0
H455 H 0.47019 0.74348 0.23907 0.0
H456 H 0.44976 0.85545 0.19284 0.0
H457 H 0.38078 0.79154 0.21004 0.0
H458 H 0.49606 0.81656 0.15392 0.0
H459 H 0.51107 0.80418 0.18847 0.0
H460 H 0.49987 0.84188 0.18433 0.0
H461 H 0.42893 0.72775 0.20817 0.0
H462 H 0.40831 0.73496 0.17494 0.0
H463 H 0.3908 0.74049 0.21035 0.0
C464 C 0.21215 0.40793 0.79503 0.0
C465 C 0.21411 0.41928 0.82391 0.0
C466 C 0.20339 0.42568 0.77119 0.0
C467 C 0.19711 0.45562 0.77632 0.0
C468 C 0.20044 0.46747 0.80525 0.0
C469 C 0.20846 0.44901 0.8288 0.0
C470 C 0.1991 0.41193 0.74101 0.0
C471 C 0.19432 0.49942 0.81163 0.0
C472 C 0.19375 0.51353 0.71623 0.0
C473 C 0.1631 0.51988 0.71628 0.0
C474 C 0.20522 0.49119 0.73435 0.0
C475 C 0.18534 0.47446 0.75214 0.0
C476 C 0.15407 0.47868 0.74958 0.0
C477 C 0.14334 0.50166 0.73196 0.0
C478 C 0.23867 0.48681 0.73588 0.0
C479 C 0.13205 0.46052 0.76726 0.0
H480 H 0.21591 0.38474 0.79127 0.0
H481 H 0.20982 0.45774 0.85113 0.0
H482 H 0.17479 0.41008 0.73611 0.0
H483 H 0.20924 0.42583 0.72349 0.0
H484 H 0.20895 0.38965 0.73976 0.0
H485 H 0.20273 0.50618 0.83382 0.0
H486 H 0.20483 0.51371 0.79463 0.0
H487 H 0.16983 0.50325 0.81084 0.0
H488 H 0.20908 0.52769 0.70417 0.0
H489 H 0.1196 0.5065 0.73188 0.0
H490 H 0.24437 0.46542 0.72569 0.0
H491 H 0.24645 0.48617 0.75924 0.0
H492 H 0.25122 0.50437 0.72404 0.0
H493 H 0.1381 0.43697 0.76658 0.0
H494 H 0.10877 0.46294 0.75893 0.0
H495 H 0.13269 0.4676 0.79079 0.0
C496 C 0.55823 0.21072 0.90308 0.0
C497 C 0.55482 0.24095 0.89838 0.0
C498 C 0.53691 0.19056 0.89265 0.0
C499 C 0.51121 0.20096 0.87779 0.0
C500 C 0.50605 0.23155 0.87581 0.0
C501 C 0.52811 0.2513 0.88601 0.0
C502 C 0.54335 0.15815 0.8951 0.0
C503 C 0.47836 0.24341 0.86093 0.0
C504 C 0.48102 0.15426 0.81487 0.0
C505 C 0.45727 0.13952 0.82856 0.0
C506 C 0.49898 0.17402 0.83087 0.0
C507 C 0.49218 0.17996 0.86094 0.0
C508 C 0.46802 0.16519 0.87483 0.0
C509 C 0.45112 0.14469 0.85855 0.0
C510 C 0.52496 0.18887 0.81546 0.0
C511 C 0.45944 0.17177 0.90647 0.0
H512 H 0.57862 0.20255 0.9131 0.0
H513 H 0.52516 0.27465 0.88267 0.0
H514 H 0.52343 0.14601 0.90333 0.0
H515 H 0.5487 0.14934 0.8728 0.0
H516 H 0.56254 0.15365 0.91011 0.0
H517 H 0.4749 0.26696 0.86622 0.0
H518 H 0.4806 0.24121 0.83655 0.0
H519 H 0.45817 0.23076 0.8677 0.0
H520 H 0.48541 0.15043 0.79156 0.0
H521 H 0.43213 0.13382 0.86885 0.0
H522 H 0.54601 0.18519 0.82802 0.0
H523 H 0.52116 0.21287 0.81475 0.0
H524 H 0.52802 0.18081 0.79244 0.0
H525 H 0.44061 0.15772 0.91425 0.0
H526 H 0.45273 0.1951 0.90836 0.0
H527 H 0.47889 0.16861 0.92144 0.0
C528 C 0.83085 0.54585 0.8528 0.0
C529 C 0.80284 0.55899 0.84914 0.0
C530 C 0.84066 0.52404 0.83327 0.0
C531 C 0.82163 0.51455 0.80995 0.0
C532 C 0.79328 0.52778 0.80609 0.0
C533 C 0.78439 0.55022 0.82551 0.0
C534 C 0.87123 0.51082 0.83789 0.0
C535 C 0.77209 0.5177 0.78196 0.0
C536 C 0.85744 0.4687 0.74908 0.0
C537 C 0.85289 0.44035 0.76018 0.0
C538 C 0.84687 0.4933 0.76471 0.0
C539 C 0.83062 0.48912 0.79138 0.0
C540 C 0.82468 0.46036 0.80168 0.0
C541 C 0.83632 0.43642 0.78625 0.0
C542 C 0.85391 0.52369 0.75328 0.0
C543 C 0.80653 0.45481 0.82937 0.0
H544 H 0.84541 0.55298 0.87073 0.0
H545 H 0.76277 0.56049 0.82258 0.0
H546 H 0.8688 0.48738 0.8442 0.0
H547 H 0.88423 0.51166 0.81698 0.0
H548 H 0.88423 0.52231 0.85549 0.0
H549 H 0.75096 0.53041 0.78172 0.0
H550 H 0.78298 0.51983 0.76 0.0
H551 H 0.76647 0.49413 0.78507 0.0
H552 H 0.87001 0.47166 0.72876 0.0
H553 H 0.83207 0.41442 0.79447 0.0
H554 H 0.86857 0.53539 0.76937 0.0
H555 H 0.83307 0.5366 0.75111 0.0
H556 H 0.86534 0.5232 0.73145 0.0
H557 H 0.81888 0.46329 0.84899 0.0
H558 H 0.80172 0.43109 0.83285 0.0
H559 H 0.78494 0.46664 0.82815 0.0
C560 C 0.53383 0.81962 0.78363 0.0
C561 C 0.55346 0.83796 0.79929 0.0
C562 C 0.51732 0.79776 0.79832 0.0
C563 C 0.52139 0.7936 0.82919 0.0
C564 C 0.54243 0.81115 0.84479 0.0
C565 C 0.55775 0.8336 0.82975 0.0
C566 C 0.49458 0.7801 0.78099 0.0
C567 C 0.54846 0.80648 0.87738 0.0
C568 C 0.45332 0.76628 0.87046 0.0
C569 C 0.45785 0.73583 0.87114 0.0
C570 C 0.47416 0.78524 0.85742 0.0
C571 C 0.50087 0.77369 0.84565 0.0
C572 C 0.5067 0.74323 0.84806 0.0
C573 C 0.48482 0.72449 0.86041 0.0
C574 C 0.46675 0.81747 0.85484 0.0
C575 C 0.53546 0.73035 0.83659 0.0
H576 H 0.53091 0.82283 0.75998 0.0
H577 H 0.57375 0.84721 0.84168 0.0
H578 H 0.4962 0.75643 0.78636 0.0
H579 H 0.47174 0.78736 0.78709 0.0
H580 H 0.49748 0.78289 0.75673 0.0
H581 H 0.56842 0.81902 0.88515 0.0
H582 H 0.52879 0.81354 0.89046 0.0
H583 H 0.55199 0.78284 0.88201 0.0
H584 H 0.43262 0.77537 0.87877 0.0
H585 H 0.48848 0.701 0.86096 0.0
H586 H 0.46538 0.82373 0.8311 0.0
H587 H 0.48469 0.83104 0.86512 0.0
H588 H 0.44515 0.82297 0.86559 0.0
H589 H 0.53518 0.73043 0.81201 0.0
H590 H 0.53863 0.70741 0.84426 0.0
H591 H 0.55497 0.74381 0.84383 0.0
C592 C 0.15572 0.20668 0.55207 0.0
C593 C 0.13943 0.1878 0.57065 0.0
C594 C 0.17524 0.19545 0.53047 0.0
C595 C 0.17879 0.16467 0.52774 0.0
C596 C 0.16259 0.1456 0.54667 0.0
C597 C 0.143 0.15737 0.56768 0.0
C598 C 0.19171 0.21644 0.51028 0.0
C599 C 0.16585 0.11268 0.54463 0.0
C600 C 0.20327 0.13104 0.45492 0.0
C601 C 0.23373 0.12557 0.46006 0.0
C602 C 0.18547 0.14452 0.47643 0.0
C603 C 0.19817 0.15211 0.50417 0.0
C604 C 0.22886 0.14641 0.50969 0.0
C605 C 0.24641 0.13353 0.48738 0.0
C606 C 0.15304 0.15076 0.46938 0.0
C607 C 0.24305 0.15379 0.53921 0.0
H608 H 0.15316 0.23021 0.55436 0.0
H609 H 0.13074 0.1426 0.58214 0.0
H610 H 0.21617 0.21247 0.51143 0.0
H611 H 0.18463 0.2126 0.487 0.0
H612 H 0.18746 0.23976 0.51598 0.0
H613 H 0.15266 0.10094 0.56185 0.0
H614 H 0.15828 0.10492 0.52252 0.0
H615 H 0.18974 0.10659 0.54705 0.0
H616 H 0.1934 0.12554 0.43364 0.0
H617 H 0.27001 0.12962 0.4913 0.0
H618 H 0.14845 0.17447 0.47244 0.0
H619 H 0.13828 0.13851 0.48486 0.0
H620 H 0.14692 0.14454 0.44633 0.0
H621 H 0.2407 0.17757 0.54389 0.0
H622 H 0.26719 0.14813 0.53997 0.0
H623 H 0.23131 0.14176 0.55719 0.0
C624 C 0.71381 0.18115 0.52025 0.0
C625 C 0.71443 0.15103 0.52643 0.0
C626 C 0.73105 0.19286 0.49712 0.0
C627 C 0.74863 0.1738 0.47968 0.0
C628 C 0.74585 0.14306 0.48326 0.0
C629 C 0.72894 0.132 0.50689 0.0
C630 C 0.73328 0.22576 0.49372 0.0
C631 C 0.76336 0.12197 0.46433 0.0
C632 C 0.79572 0.20411 0.41672 0.0
C633 C 0.82394 0.20618 0.43033 0.0
C634 C 0.77074 0.19376 0.43244 0.0
C635 C 0.77415 0.18585 0.46254 0.0
C636 C 0.80251 0.18864 0.47655 0.0
C637 C 0.82716 0.19846 0.46012 0.0
C638 C 0.74119 0.19009 0.41646 0.0
C639 C 0.80716 0.18035 0.50867 0.0
H640 H 0.70252 0.1959 0.53532 0.0
H641 H 0.72905 0.10863 0.51146 0.0
H642 H 0.75566 0.23339 0.50137 0.0
H643 H 0.73104 0.23208 0.47009 0.0
H644 H 0.71592 0.23734 0.50677 0.0
H645 H 0.75404 0.09932 0.4656 0.0
H646 H 0.76349 0.12908 0.44082 0.0
H647 H 0.78693 0.12147 0.47213 0.0
H648 H 0.79334 0.20959 0.39345 0.0
H649 H 0.84902 0.19997 0.47057 0.0
H650 H 0.7412 0.20121 0.39455 0.0
H651 H 0.72253 0.19882 0.42993 0.0
H652 H 0.73666 0.16638 0.41286 0.0
H653 H 0.78908 0.1893 0.52274 0.0
H654 H 0.82903 0.18835 0.51739 0.0
H655 H 0.80643 0.1561 0.51084 0.0
C656 C 0.72757 0.84301 0.48618 0.0
C657 C 0.73884 0.84602 0.45741 0.0
C658 C 0.74423 0.82823 0.50814 0.0
C659 C 0.77185 0.815 0.50051 0.0
C660 C 0.78232 0.81674 0.47102 0.0
C661 C 0.76618 0.83289 0.45018 0.0
C662 C 0.7326 0.82723 0.53949 0.0
C663 C 0.81091 0.80194 0.46149 0.0
C664 C 0.83598 0.80478 0.55442 0.0
C665 C 0.83401 0.77475 0.56085 0.0
C666 C 0.81468 0.81842 0.53634 0.0
C667 C 0.79142 0.80142 0.52342 0.0
C668 C 0.78916 0.77106 0.53001 0.0
C669 C 0.81021 0.75817 0.54919 0.0
C670 C 0.81732 0.85103 0.53076 0.0
C671 C 0.765 0.75213 0.51624 0.0
H672 H 0.70633 0.85296 0.4917 0.0
H673 H 0.77475 0.83468 0.42778 0.0
H674 H 0.72567 0.80447 0.54502 0.0
H675 H 0.75048 0.83371 0.55538 0.0
H676 H 0.71309 0.84186 0.54267 0.0
H677 H 0.81394 0.8024 0.43706 0.0
H678 H 0.8304 0.81313 0.47197 0.0
H679 H 0.811 0.77872 0.4689 0.0
H680 H 0.85387 0.81787 0.56411 0.0
H681 H 0.80846 0.73503 0.55453 0.0
H682 H 0.79558 0.86183 0.53512 0.0
H683 H 0.82304 0.85499 0.50718 0.0
H684 H 0.83478 0.86157 0.54486 0.0
H685 H 0.74271 0.75971 0.52363 0.0
H686 H 0.76738 0.7286 0.5222 0.0
H687 H 0.76562 0.75421 0.49175 0.0
C688 C 0.21298 0.81783 0.41082 0.0
C689 C 0.18515 0.81325 0.42443 0.0
C690 C 0.23792 0.82699 0.42745 0.0
C691 C 0.23483 0.83101 0.45836 0.0
C692 C 0.20702 0.82511 0.47232 0.0
C693 C 0.18235 0.81671 0.45505 0.0
C694 C 0.26704 0.83356 0.4118 0.0
C695 C 0.20303 0.82847 0.50541 0.0
C696 C 0.29539 0.8341 0.51607 0.0
C697 C 0.29252 0.86329 0.52534 0.0
C698 C 0.2789 0.82356 0.4918 0.0
C699 C 0.25981 0.84296 0.47639 0.0
C700 C 0.26037 0.87331 0.48308 0.0
C701 C 0.27656 0.88311 0.50781 0.0
C702 C 0.27897 0.79107 0.4853 0.0
C703 C 0.24105 0.89484 0.46647 0.0
H704 H 0.21496 0.81541 0.387 0.0
H705 H 0.16081 0.81295 0.46549 0.0
H706 H 0.2709 0.85764 0.4114 0.0
H707 H 0.28615 0.82362 0.42381 0.0
H708 H 0.26694 0.82539 0.3886 0.0
H709 H 0.18069 0.82067 0.51298 0.0
H710 H 0.22048 0.81599 0.51748 0.0
H711 H 0.20563 0.85191 0.51167 0.0
H712 H 0.30783 0.81873 0.5296 0.0
H713 H 0.27473 0.90581 0.5148 0.0
H714 H 0.2777 0.78682 0.46113 0.0
H715 H 0.25904 0.78069 0.49571 0.0
H716 H 0.29929 0.78034 0.49437 0.0
H717 H 0.24137 0.89031 0.44232 0.0
H718 H 0.24845 0.91788 0.4703 0.0
H719 H 0.21754 0.89259 0.47412 0.0
C720 C 0.61983 0.95868 0.71131 0.0
C721 C 0.62781 0.95558 0.74123 0.0
C722 C 0.63108 0.98175 0.6942 0.0
C723 C 0.6499 0.00306 0.70758 0.0
C724 C 0.65674 0.0011 0.73822 0.0
C725 C 0.6461 0.97691 0.75463 0.0
C726 C 0.62388 0.98251 0.66143 0.0
C727 C 0.67576 0.02413 0.75343 0.0
C728 C 0.70155 0.04259 0.65404 0.0
C729 C 0.68383 0.06641 0.64582 0.0
C730 C 0.69114 0.02207 0.67488 0.0
C731 C 0.66309 0.0265 0.68877 0.0
C732 C 0.64597 0.05155 0.68167 0.0
C733 C 0.65618 0.07079 0.65963 0.0
C734 C 0.70948 0.995 0.68098 0.0
C735 C 0.61665 0.05775 0.69698 0.0
H736 H 0.606 0.94208 0.70065 0.0
H737 H 0.65233 0.97453 0.77774 0.0
H738 H 0.61239 0.00324 0.65571 0.0
H739 H 0.64492 0.98181 0.6484 0.0
H740 H 0.60936 0.96385 0.65441 0.0
H741 H 0.67541 0.02171 0.77793 0.0
H742 H 0.69927 0.02236 0.74582 0.0
H743 H 0.6679 0.04644 0.74757 0.0
H744 H 0.72305 0.03953 0.64343 0.0
H745 H 0.64285 0.08969 0.65366 0.0
H746 H 0.69669 0.97515 0.67405 0.0
H747 H 0.71396 0.9929 0.70506 0.0
H748 H 0.7312 0.99533 0.66905 0.0
H749 H 0.59971 0.04097 0.69058 0.0
H750 H 0.60779 0.07976 0.69126 0.0
H751 H 0.61956 0.05644 0.72138 0.0
C752 C 0.95579 0.69449 0.6367 0.0
C753 C 0.95537 0.72527 0.63686 0.0
C754 C 0.98082 0.67901 0.64651 0.0
C755 C 0.0066 0.69463 0.65597 0.0
C756 C 0.00675 0.72577 0.65549 0.0
C757 C 0.98083 0.7408 0.6464 0.0
C758 C 0.97938 0.64585 0.64731 0.0
C759 C 0.0342 0.74309 0.66462 0.0
C760 C 0.05834 0.65065 0.70558 0.0
C761 C 0.07748 0.63812 0.68467 0.0
C762 C 0.03571 0.67005 0.69673 0.0
C763 C 0.03306 0.67787 0.66642 0.0
C764 C 0.05358 0.66652 0.64556 0.0
C765 C 0.07517 0.64629 0.65485 0.0
C766 C 0.01377 0.68102 0.71953 0.0
C767 C 0.0522 0.67509 0.61326 0.0
H768 H 0.93602 0.6823 0.6298 0.0
H769 H 0.98052 0.76459 0.64661 0.0
H770 H 0.99681 0.63657 0.63265 0.0
H771 H 0.98396 0.63793 0.67012 0.0
H772 H 0.95723 0.63711 0.64013 0.0
H773 H 0.03133 0.76706 0.66125 0.0
H774 H 0.03924 0.73906 0.68834 0.0
H775 H 0.0539 0.73574 0.65172 0.0
H776 H 0.06043 0.64448 0.72869 0.0
H777 H 0.09055 0.63716 0.63881 0.0
H778 H 0.99111 0.67208 0.71456 0.0
H779 H 0.01227 0.70528 0.71862 0.0
H780 H 0.02006 0.67443 0.74241 0.0
H781 H 0.03199 0.66517 0.60285 0.0
H782 H 0.07222 0.66768 0.60083 0.0
H783 H 0.05037 0.69927 0.61101 0.0
C784 C 0.38514 0.01554 0.75473 0.0
C785 C 0.36675 0.03901 0.76244 0.0
C786 C 0.37501 0.99404 0.73477 0.0
C787 C 0.34667 0.99735 0.72106 0.0
C788 C 0.32776 0.02068 0.72948 0.0
C789 C 0.33785 0.04092 0.75064 0.0
C790 C 0.39489 0.96831 0.7278 0.0
C791 C 0.29784 0.02554 0.71465 0.0
C792 C 0.33725 0.96178 0.64552 0.0
C793 C 0.31736 0.93885 0.65211 0.0
C794 C 0.34642 0.98159 0.66767 0.0
C795 C 0.33702 0.97696 0.6973 0.0
C796 C 0.31752 0.9534 0.7041 0.0
C797 C 0.30681 0.93558 0.68117 0.0
C798 C 0.3658 0.00758 0.65933 0.0
C799 C 0.30832 0.94671 0.73562 0.0
H800 H 0.40757 0.01434 0.76389 0.0
H801 H 0.32397 0.05952 0.75629 0.0
H802 H 0.38181 0.9475 0.72848 0.0
H803 H 0.40404 0.97064 0.7051 0.0
H804 H 0.41396 0.96666 0.74357 0.0
H805 H 0.28488 0.04319 0.72558 0.0
H806 H 0.30153 0.03162 0.69112 0.0
H807 H 0.28407 0.00522 0.71475 0.0
H808 H 0.34512 0.96458 0.62298 0.0
H809 H 0.29084 0.91852 0.68644 0.0
H810 H 0.38804 0.00581 0.67011 0.0
H811 H 0.35545 0.02818 0.66735 0.0
H812 H 0.36913 0.00928 0.63499 0.0
H813 H 0.32837 0.94587 0.75018 0.0
H814 H 0.29604 0.92549 0.73744 0.0
H815 H 0.29371 0.96433 0.74419 0.0
C816 C 0.02434 0.21666 0.69974 0.0
C817 C 0.02769 0.21596 0.66886 0.0
C818 C 0.99966 0.23071 0.71271 0.0
C819 C 0.97794 0.24411 0.69431 0.0
C820 C 0.97958 0.24046 0.6632 0.0
C821 C 0.00449 0.2265 0.65086 0.0
C822 C 0.9982 0.23357 0.74599 0.0
C823 C 0.9566 0.25384 0.64275 0.0
C824 C 0.90773 0.28141 0.72338 0.0
C825 C 0.91673 0.31099 0.7229 0.0
C826 C 0.9277 0.25901 0.71537 0.0
C827 C 0.95727 0.26648 0.70673 0.0
C828 C 0.96677 0.29623 0.70762 0.0
C829 C 0.9464 0.31804 0.71565 0.0
C830 C 0.91649 0.22771 0.71442 0.0
C831 C 0.99793 0.3054 0.69825 0.0
H832 H 0.04216 0.20851 0.71378 0.0
H833 H 0.00681 0.22571 0.62695 0.0
H834 H 0.00081 0.25697 0.75239 0.0
H835 H 0.97597 0.2261 0.75406 0.0
H836 H 0.01588 0.22067 0.7573 0.0
H837 H 0.95844 0.24529 0.61977 0.0
H838 H 0.9336 0.24946 0.65094 0.0
H839 H 0.95986 0.27801 0.64213 0.0
H840 H 0.8847 0.27584 0.72864 0.0
H841 H 0.95352 0.34084 0.71522 0.0
H842 H 0.9339 0.21227 0.72223 0.0
H843 H 0.91084 0.2218 0.6912 0.0
H844 H 0.89604 0.22466 0.72808 0.0
H845 H 0.01497 0.29059 0.70783 0.0
H846 H 0.00337 0.32829 0.70497 0.0
H847 H 0.99969 0.30389 0.67377 0.0
C848 C 0.67681 0.94617 0.34072 0.0
C849 C 0.69978 0.92595 0.33594 0.0
C850 C 0.67009 0.96768 0.31956 0.0
C851 C 0.68706 0.96934 0.29313 0.0
C852 C 0.71032 0.949 0.28815 0.0
C853 C 0.71627 0.92738 0.30955 0.0
C854 C 0.64493 0.98882 0.32565 0.0
C855 C 0.72912 0.95035 0.26043 0.0
C856 C 0.65209 0.01606 0.23243 0.0
C857 C 0.66537 0.04332 0.23845 0.0
C858 C 0.6601 0.99111 0.24904 0.0
C859 C 0.68172 0.99384 0.27202 0.0
C860 C 0.69606 0.02119 0.27703 0.0
C861 C 0.68735 0.0456 0.26045 0.0
C862 C 0.6442 0.96233 0.2432 0.0
C863 C 0.71925 0.02519 0.30118 0.0
H864 H 0.66366 0.9449 0.36084 0.0
H865 H 0.73392 0.91166 0.30565 0.0
H866 H 0.654 0.0115 0.32738 0.0
H867 H 0.62865 0.9885 0.30703 0.0
H868 H 0.63281 0.98353 0.34647 0.0
H869 H 0.74557 0.93221 0.25932 0.0
H870 H 0.71455 0.94932 0.2405 0.0
H871 H 0.74148 0.97156 0.2596 0.0
H872 H 0.63459 0.01456 0.21578 0.0
H873 H 0.69666 0.06694 0.26578 0.0
H874 H 0.62901 0.95721 0.26196 0.0
H875 H 0.66055 0.94419 0.24167 0.0
H876 H 0.63074 0.96291 0.22247 0.0
H877 H 0.70848 0.02273 0.32318 0.0
H878 H 0.73028 0.04712 0.30024 0.0
H879 H 0.73671 0.00809 0.29946 0.0
C880 C 0.95007 0.65822 0.34671 0.0
C881 C 0.95704 0.65326 0.31688 0.0
C882 C 0.96599 0.67923 0.36331 0.0
C883 C 0.99018 0.69446 0.34999 0.0
C884 C 0.99789 0.68856 0.32014 0.0
C885 C 0.98069 0.66854 0.3037 0.0
C886 C 0.95634 0.68581 0.39464 0.0
C887 C 0.02403 0.70374 0.30537 0.0
C888 C 0.02468 0.76661 0.3744 0.0
C889 C 0.05129 0.7568 0.38742 0.0
C890 C 0.00293 0.74642 0.36441 0.0
C891 C 0.00836 0.71594 0.36717 0.0
C892 C 0.03391 0.70613 0.38268 0.0
C893 C 0.05487 0.72672 0.39295 0.0
C894 C 0.97535 0.75769 0.34889 0.0
C895 C 0.04074 0.67385 0.38583 0.0
H896 H 0.9312 0.64676 0.35658 0.0
H897 H 0.98569 0.66479 0.2805 0.0
H898 H 0.97529 0.6827 0.41023 0.0
H899 H 0.94951 0.70912 0.3963 0.0
H900 H 0.93729 0.67171 0.40182 0.0
H901 H 0.02848 0.69483 0.28292 0.0
H902 H 0.01928 0.72749 0.3034 0.0
H903 H 0.04461 0.70141 0.31899 0.0
H904 H 0.02159 0.78985 0.37043 0.0
H905 H 0.07518 0.71896 0.40347 0.0
H906 H 0.95525 0.74473 0.35532 0.0
H907 H 0.97816 0.75541 0.32458 0.0
H908 H 0.97137 0.7812 0.35395 0.0
H909 H 0.02076 0.6615 0.39359 0.0
H910 H 0.0595 0.66985 0.4015 0.0
H911 H 0.04697 0.66483 0.36385 0.0
C912 C 0.33218 0.97635 0.22564 0.0
C913 C 0.35445 0.95819 0.23733 0.0
C914 C 0.31823 0.99746 0.24348 0.0
C915 C 0.32872 0.00219 0.27275 0.0
C916 C 0.35367 0.9863 0.28332 0.0
C917 C 0.36568 0.96392 0.2658 0.0
C918 C 0.2915 0.01376 0.23153 0.0
C919 C 0.36709 0.99231 0.31349 0.0
C920 C 0.30897 0.07247 0.31304 0.0
C921 C 0.28993 0.06188 0.33525 0.0
C922 C 0.32114 0.05347 0.2919 0.0
C923 C 0.31346 0.02328 0.29269 0.0
C924 C 0.29274 0.01285 0.31412 0.0
C925 C 0.28177 0.03222 0.33571 0.0
C926 C 0.34347 0.06583 0.27007 0.0
C927 C 0.2825 0.98118 0.3145 0.0
H928 H 0.3243 0.97289 0.20322 0.0
H929 H 0.38342 0.95036 0.27469 0.0
H930 H 0.27199 0.01028 0.24635 0.0
H931 H 0.29633 0.03768 0.23106 0.0
H932 H 0.28525 0.00652 0.20881 0.0
H933 H 0.38856 0.98059 0.31686 0.0
H934 H 0.37115 0.01622 0.31638 0.0
H935 H 0.35123 0.98523 0.331 0.0
H936 H 0.3154 0.0955 0.31295 0.0
H937 H 0.26681 0.02424 0.35285 0.0
H938 H 0.34546 0.0525 0.24966 0.0
H939 H 0.36583 0.06673 0.28083 0.0
H940 H 0.33722 0.08847 0.2636 0.0
H941 H 0.27648 0.97383 0.29178 0.0
H942 H 0.26287 0.97772 0.3292 0.0
H943 H 0.30099 0.96707 0.32243 0.0
C944 C 0.03236 0.35904 0.31294 0.0
C945 C 0.05598 0.37198 0.32877 0.0
C946 C 0.01371 0.33798 0.32627 0.0
C947 C 0.01945 0.32908 0.35582 0.0
C948 C 0.04343 0.34198 0.37185 0.0
C949 C 0.06119 0.3636 0.35824 0.0
C950 C 0.98818 0.32492 0.30853 0.0
C951 C 0.05067 0.33255 0.40312 0.0
C952 C 0.9529 0.29641 0.39589 0.0
C953 C 0.95664 0.26628 0.39076 0.0
C954 C 0.9738 0.317 0.38558 0.0
C955 C 0.99942 0.30722 0.37026 0.0
C956 C 0.00453 0.27674 0.36695 0.0
C957 C 0.98296 0.25654 0.3772 0.0
C958 C 0.96742 0.3493 0.38939 0.0
C959 C 0.03206 0.26555 0.35142 0.0
H960 H 0.02862 0.36525 0.29004 0.0
H961 H 0.07994 0.37306 0.3703 0.0
H962 H 0.99262 0.30137 0.30438 0.0
H963 H 0.96691 0.3263 0.3211 0.0
H964 H 0.98515 0.33608 0.28685 0.0
H965 H 0.07014 0.34475 0.4125 0.0
H966 H 0.03104 0.33598 0.41769 0.0
H967 H 0.05573 0.30874 0.40349 0.0
H968 H 0.93275 0.30414 0.4066 0.0
H969 H 0.98609 0.23329 0.37337 0.0
H970 H 0.96333 0.35936 0.36736 0.0
H971 H 0.98702 0.36074 0.39935 0.0
H972 H 0.94756 0.35323 0.40358 0.0
H973 H 0.03107 0.27143 0.32758 0.0
H974 H 0.03424 0.24134 0.35331 0.0
H975 H 0.05245 0.27607 0.36082 0.0
C976 C 0.71593 0.63135 0.96392 0.0
C977 C 0.74717 0.63318 0.96712 0.0
C978 C 0.69673 0.64532 0.98378 0.0
C979 C 0.7089 0.66091 0.00814 0.0
C980 C 0.74042 0.66234 0.01204 0.0
C981 C 0.75926 0.6488 0.99117 0.0
C982 C 0.66332 0.64357 0.97849 0.0
C983 C 0.7543 0.67853 0.03789 0.0
C984 C 0.6559 0.71484 0.04491 0.0
C985 C 0.64286 0.69708 0.06675 0.0
C986 C 0.67813 0.70368 0.02603 0.0
C987 C 0.68815 0.67446 0.02989 0.0
C988 C 0.67598 0.65701 0.05288 0.0
C989 C 0.65312 0.66832 0.07063 0.0
C990 C 0.69024 0.72277 0.00143 0.0
C991 C 0.68692 0.62623 0.05857 0.0
H992 H 0.70627 0.61967 0.94523 0.0
H993 H 0.78336 0.65057 0.99358 0.0
H994 H 0.65231 0.63201 0.99721 0.0
H995 H 0.65383 0.66598 0.97739 0.0
H996 H 0.65755 0.63182 0.95764 0.0
H997 H 0.77797 0.67208 0.04153 0.0
H998 H 0.75381 0.70246 0.03342 0.0
H999 H 0.74154 0.6745 0.05857 0.0
H1000 H 0.64825 0.73721 0.0422 0.0
H1001 H 0.64374 0.65479 0.08811 0.0
H1002 H 0.68438 0.71292 0.97965 0.0
H1003 H 0.71503 0.72398 0.00272 0.0
H1004 H 0.68121 0.7454 0.00224 0.0
H1005 H 0.68096 0.61189 0.03953 0.0
H1006 H 0.67714 0.61658 0.07901 0.0
H1007 H 0.71169 0.62626 0.0607 0.0
C1008 C 0.22411 0.6622 0.02442 0.0
C1009 C 0.22933 0.63426 0.0362 0.0
C1010 C 0.23939 0.6717 0.99905 0.0
C1011 C 0.25957 0.6524 0.98499 0.0
C1012 C 0.26179 0.62295 0.99467 0.0
C1013 C 0.24696 0.61433 0.02057 0.0
C1014 C 0.23666 0.70334 0.98956 0.0
C1015 C 0.28224 0.60143 0.97955 0.0
C1016 C 0.3001 0.67468 0.91469 0.0
C1017 C 0.32825 0.68258 0.9261 0.0
C1018 C 0.27712 0.66513 0.93356 0.0
C1019 C 0.28243 0.66427 0.96446 0.0
C1020 C 0.31052 0.67348 0.97608 0.0
C1021 C 0.33331 0.68204 0.95663 0.0
C1022 C 0.24786 0.65465 0.92032 0.0
C1023 C 0.31687 0.67341 0.009 0.0
H1024 H 0.21057 0.67768 0.03666 0.0
H1025 H 0.25073 0.59263 0.02966 0.0
H1026 H 0.25693 0.71566 0.99679 0.0
H1027 H 0.23523 0.7051 0.96509 0.0
H1028 H 0.21673 0.71397 -0.00055 0.0
H1029 H 0.27703 0.57842 0.98599 0.0
H1030 H 0.28052 0.6034 0.95509 0.0
H1031 H 0.30579 0.60631 0.98588 0.0
H1032 H 0.29649 0.67467 0.89091 0.0
H1033 H 0.35516 0.6882 0.96528 0.0
H1034 H 0.22859 0.66399 0.93246 0.0
H1035 H 0.2463 0.63041 0.92234 0.0
H1036 H 0.24586 0.6605 0.8965 0.0
H1037 H 0.29856 0.68432 0.02126 0.0
H1038 H 0.33833 0.68467 0.01452 0.0
H1039 H 0.31807 0.65044 0.01705 0.0
C1040 C 0.23433 0.3505 0.98329 0.0
C1041 C 0.24782 0.35198 0.95533 0.0
C1042 C 0.2489 0.3365 0.00715 0.0
C1043 C 0.27688 0.32272 0.00241 0.0
C1044 C 0.28971 0.323 0.97379 0.0
C1045 C 0.27539 0.3381 0.95088 0.0
C1046 C 0.23469 0.33688 0.03744 0.0
C1047 C 0.31895 0.30778 0.96738 0.0
C1048 C 0.33619 0.31512 0.0619 0.0
C1049 C 0.33423 0.28522 0.06903 0.0
C1050 C 0.31636 0.32788 0.04164 0.0
C1051 C 0.29441 0.3102 0.0275 0.0
C1052 C 0.29184 0.28007 0.03507 0.0
C1053 C 0.31157 0.268 0.05612 0.0
C1054 C 0.31947 0.36021 0.03478 0.0
C1055 C 0.26885 0.26049 0.02034 0.0
H1056 H 0.21283 0.36085 0.98664 0.0
H1057 H 0.28558 0.33842 0.9291 0.0
H1058 H 0.22897 0.31415 0.04429 0.0
H1059 H 0.25073 0.34577 0.05405 0.0
H1060 H 0.214 0.35025 0.03795 0.0
H1061 H 0.32388 0.30686 0.94327 0.0
H1062 H 0.33755 0.31965 0.97865 0.0
H1063 H 0.31848 0.28504 0.97615 0.0
H1064 H 0.35317 0.32876 0.07237 0.0
H1065 H 0.30974 0.24497 0.06195 0.0
H1066 H 0.29743 0.37114 0.03667 0.0
H1067 H 0.32729 0.36311 0.01164 0.0
H1068 H 0.33561 0.37146 0.04983 0.0
H1069 H 0.24603 0.26812 0.02591 0.0
H1070 H 0.27096 0.23719 0.02725 0.0
H1071 H 0.27117 0.26179 0.99593 0.0
C1072 C 0.79411 0.36874 0.99664 0.0
C1073 C 0.80654 0.35126 0.01894 0.0
C1074 C 0.77667 0.3561 0.97414 0.0
C1075 C 0.77139 0.32545 0.97449 0.0
C1076 C 0.78752 0.30743 0.99436 0.0
C1077 C 0.80525 0.32063 0.01636 0.0
C1078 C 0.76076 0.37595 0.95253 0.0
C1079 C 0.78275 0.27461 0.99511 0.0
C1080 C 0.69033 0.30621 0.95957 0.0
C1081 C 0.69153 0.29571 0.9305 0.0
C1082 C 0.71644 0.31502 0.97437 0.0
C1083 C 0.74436 0.3136 0.95952 0.0
C1084 C 0.74582 0.30232 0.9304 0.0
C1085 C 0.7193 0.29339 0.91623 0.0
C1086 C 0.7139 0.32697 0.00551 0.0
C1087 C 0.77502 0.30096 0.91369 0.0
H1088 H 0.79559 0.39245 0.99838 0.0
H1089 H 0.81504 0.30705 0.03351 0.0
H1090 H 0.75995 0.36602 0.9301 0.0
H1091 H 0.73734 0.37914 0.95998 0.0
H1092 H 0.77181 0.39783 0.95107 0.0
H1093 H 0.80076 0.2634 0.00769 0.0
H1094 H 0.76104 0.26966 0.006 0.0
H1095 H 0.78175 0.26543 0.97236 0.0
H1096 H 0.66889 0.308 0.97062 0.0
H1097 H 0.72027 0.28554 0.89357 0.0
H1098 H 0.71802 0.35102 0.00524 0.0
H1099 H 0.731 0.31705 0.02016 0.0
H1100 H 0.69144 0.32281 0.01525 0.0
H1101 H 0.78123 0.32332 0.90602 0.0
H1102 H 0.77334 0.28643 0.89396 0.0
H1103 H 0.7934 0.29307 0.92813 0.0
C1104 C 0.12712 0.29189 0.34666 0.0
C1105 C 0.14173 0.31757 0.33721 0.0
C1106 C 0.14265 0.27019 0.36224 0.0
C1107 C 0.17356 0.27419 0.36804 0.0
C1108 C 0.18792 0.3009 0.36029 0.0
C1109 C 0.17173 0.32241 0.34511 0.0
C1110 C 0.12646 0.24224 0.37077 0.0
C1111 C 0.22089 0.30591 0.36612 0.0
C1112 C 0.21631 0.22226 0.41805 0.0
C1113 C 0.22894 0.20321 0.39718 0.0
C1114 C 0.1976 0.2452 0.40905 0.0
C1115 C 0.19172 0.24918 0.3785 0.0
C1116 C 0.20407 0.22973 0.35741 0.0
C1117 C 0.22237 0.20685 0.36705 0.0
C1118 C 0.18427 0.26518 0.43213 0.0
C1119 C 0.1986 0.23352 0.32457 0.0
H1120 H 0.10377 0.2883 0.34102 0.0
H1121 H 0.18309 0.34229 0.33797 0.0
H1122 H 0.13378 0.22412 0.35611 0.0
H1123 H 0.13203 0.23594 0.39387 0.0
H1124 H 0.10177 0.24436 0.36874 0.0
H1125 H 0.22789 0.32893 0.36158 0.0
H1126 H 0.22649 0.30057 0.38945 0.0
H1127 H 0.23416 0.29114 0.35177 0.0
H1128 H 0.22109 0.21926 0.44142 0.0
H1129 H 0.23223 0.19229 0.35083 0.0
H1130 H 0.15956 0.26248 0.43223 0.0
H1131 H 0.18918 0.28848 0.42674 0.0
H1132 H 0.1929 0.2605 0.45474 0.0
H1133 H 0.17422 0.23276 0.31981 0.0
H1134 H 0.20973 0.21634 0.31114 0.0
H1135 H 0.20707 0.25532 0.31729 0.0
C1136 C 0.84832 0.13241 0.34645 0.0
C1137 C 0.87063 0.14644 0.32972 0.0
C1138 C 0.82033 0.12569 0.3339 0.0
C1139 C 0.81452 0.13388 0.3042 0.0
C1140 C 0.83824 0.14459 0.28629 0.0
C1141 C 0.86629 0.15036 0.29926 0.0
C1142 C 0.79605 0.11316 0.3535 0.0
C1143 C 0.83304 0.15377 0.25455 0.0
C1144 C 0.74071 0.11743 0.26546 0.0
C1145 C 0.72434 0.14309 0.27115 0.0
C1146 C 0.76956 0.11349 0.27706 0.0
C1147 C 0.78307 0.13634 0.29363 0.0
C1148 C 0.76684 0.16236 0.29943 0.0
C1149 C 0.73756 0.16526 0.28843 0.0
C1150 C 0.78567 0.08503 0.27132 0.0
C1151 C 0.7806 0.18744 0.31682 0.0
H1152 H 0.85165 0.12954 0.37009 0.0
H1153 H 0.88338 0.16161 0.28643 0.0
H1154 H 0.78187 0.13126 0.36183 0.0
H1155 H 0.78141 0.09772 0.34101 0.0
H1156 H 0.80563 0.10155 0.37295 0.0
H1157 H 0.85443 0.15695 0.2424 0.0
H1158 H 0.81919 0.13732 0.24256 0.0
H1159 H 0.8207 0.17483 0.25428 0.0
H1160 H 0.73125 0.10047 0.25143 0.0
H1161 H 0.72531 0.18523 0.29282 0.0
H1162 H 0.79388 0.07564 0.2925 0.0
H1163 H 0.80551 0.08913 0.25715 0.0
H1164 H 0.77106 0.06851 0.26019 0.0
H1165 H 0.78646 0.18 0.3395 0.0
H1166 H 0.76532 0.20647 0.31867 0.0
H1167 H 0.80163 0.19489 0.30602 0.0
C1168 C 0.86602 0.70154 0.36461 0.0
C1169 C 0.85691 0.67763 0.3471 0.0
C1170 C 0.84497 0.7181 0.38018 0.0
C1171 C 0.81429 0.7106 0.37776 0.0
C1172 C 0.8056 0.68412 0.36361 0.0
C1173 C 0.82717 0.66776 0.34845 0.0
C1174 C 0.85519 0.74543 0.39631 0.0
C1175 C 0.77313 0.67492 0.36154 0.0
C1176 C 0.7557 0.75614 0.41713 0.0
C1177 C 0.74787 0.77617 0.39481 0.0
C1178 C 0.77734 0.73457 0.41215 0.0
C1179 C 0.7914 0.73309 0.38417 0.0
C1180 C 0.78363 0.75335 0.3616 0.0
C1181 C 0.76208 0.77474 0.36728 0.0
C1182 C 0.78544 0.71399 0.43709 0.0
C1183 C 0.79802 0.75237 0.33133 0.0
H1184 H 0.88923 0.70875 0.36416 0.0
H1185 H 0.82011 0.64908 0.33519 0.0
H1186 H 0.84972 0.76501 0.38276 0.0
H1187 H 0.84335 0.74758 0.41778 0.0
H1188 H 0.87972 0.74543 0.40049 0.0
H1189 H 0.77059 0.65173 0.35427 0.0
H1190 H 0.76186 0.67766 0.38324 0.0
H1191 H 0.7615 0.68914 0.34526 0.0
H1192 H 0.74516 0.7575 0.4387 0.0
H1193 H 0.75609 0.79015 0.34998 0.0
H1194 H 0.80546 0.72279 0.44881 0.0
H1195 H 0.79092 0.69175 0.42881 0.0
H1196 H 0.767 0.71202 0.45346 0.0
H1197 H 0.82259 0.7556 0.33346 0.0
H1198 H 0.78914 0.76946 0.31618 0.0
H1199 H 0.79415 0.73054 0.32103 0.0
C1200 C 0.24939 0.92959 0.24616 0.0
C1201 C 0.26544 0.90432 0.23846 0.0
C1202 C 0.22379 0.92783 0.26402 0.0
C1203 C 0.2137 0.90007 0.27397 0.0
C1204 C 0.23011 0.87452 0.26667 0.0
C1205 C 0.25598 0.877 0.2492 0.0
C1206 C 0.20749 0.95562 0.27206 0.0
C1207 C 0.22005 0.84447 0.27693 0.0
C1208 C 0.16299 0.8863 0.33933 0.0
C1209 C 0.13647 0.87744 0.32502 0.0
C1210 C 0.18774 0.89633 0.3231 0.0
C1211 C 0.18588 0.89732 0.29182 0.0
C1212 C 0.1581 0.89159 0.27757 0.0
C1213 C 0.13356 0.88184 0.29444 0.0
C1214 C 0.2167 0.90283 0.33927 0.0
C1215 C 0.15515 0.89271 0.24426 0.0
H1216 H 0.25694 0.95087 0.23829 0.0
H1217 H 0.26832 0.85747 0.24328 0.0
H1218 H 0.18431 0.95477 0.26317 0.0
H1219 H 0.20581 0.95762 0.29651 0.0
H1220 H 0.21886 0.97557 0.2633 0.0
H1221 H 0.23524 0.82684 0.26927 0.0
H1222 H 0.21906 0.84386 0.30149 0.0
H1223 H 0.19716 0.83971 0.26849 0.0
H1224 H 0.16525 0.88301 0.36305 0.0
H1225 H 0.1132 0.87481 0.28327 0.0
H1226 H 0.2282 0.92229 0.32972 0.0
H1227 H 0.23193 0.88384 0.33694 0.0
H1228 H 0.21296 0.9067 0.36329 0.0
H1229 H 0.16575 0.91294 0.23533 0.0
H1230 H 0.13137 0.89189 0.23699 0.0
H1231 H 0.16694 0.87369 0.23445 0.0
C1232 C 0.20016 0.67529 0.64284 0.0
C1233 C 0.16906 0.67258 0.64518 0.0
C1234 C 0.21292 0.6998 0.62872 0.0
C1235 C 0.19391 0.72148 0.61653 0.0
C1236 C 0.16285 0.71566 0.61398 0.0
C1237 C 0.1506 0.69152 0.62905 0.0
C1238 C 0.24629 0.70469 0.63105 0.0
C1239 C 0.14211 0.73712 0.59916 0.0
C1240 C 0.21391 0.79743 0.64378 0.0
C1241 C 0.23081 0.80887 0.62029 0.0
C1242 C 0.20114 0.7694 0.64223 0.0
C1243 C 0.20453 0.75247 0.61609 0.0
C1244 C 0.2196 0.76469 0.59135 0.0
C1245 C 0.23303 0.79264 0.59391 0.0
C1246 C 0.1853 0.75745 0.66934 0.0
C1247 C 0.22278 0.7481 0.56261 0.0
H1248 H 0.21438 0.66044 0.6552 0.0
H1249 H 0.12647 0.68904 0.63049 0.0
H1250 H 0.25529 0.71359 0.60999 0.0
H1251 H 0.25102 0.72101 0.64876 0.0
H1252 H 0.25826 0.6841 0.63654 0.0
H1253 H 0.12092 0.72624 0.59204 0.0
H1254 H 0.13642 0.75483 0.61501 0.0
H1255 H 0.153 0.74739 0.57961 0.0
H1256 H 0.21192 0.80975 0.66422 0.0
H1257 H 0.24579 0.80143 0.57547 0.0
H1258 H 0.19617 0.73693 0.67687 0.0
H1259 H 0.16165 0.75211 0.66391 0.0
H1260 H 0.18547 0.77324 0.68811 0.0
H1261 H 0.24444 0.73634 0.56265 0.0
H1262 H 0.22301 0.76344 0.54347 0.0
H1263 H 0.20449 0.73179 0.55933 0.0
C1264 C 0.31891 0.12712 0.71711 0.0
C1265 C 0.33702 0.15156 0.724 0.0
C1266 C 0.29136 0.13038 0.70246 0.0
C1267 C 0.28142 0.15882 0.69489 0.0
C1268 C 0.30016 0.18344 0.70063 0.0
C1269 C 0.32777 0.17951 0.71496 0.0
C1270 C 0.2728 0.10322 0.69636 0.0
C1271 C 0.29055 0.21414 0.69256 0.0
C1272 C 0.22101 0.17456 0.63834 0.0
C1273 C 0.19713 0.18286 0.65661 0.0
C1274 C 0.248 0.16465 0.65049 0.0
C1275 C 0.25127 0.16338 0.68162 0.0
C1276 C 0.22635 0.1692 0.70006 0.0
C1277 C 0.19941 0.17885 0.68729 0.0
C1278 C 0.27353 0.15708 0.63008 0.0
C1279 C 0.22877 0.16694 0.73333 0.0
H1280 H 0.32589 0.10535 0.72375 0.0
H1281 H 0.34149 0.19854 0.72023 0.0
H1282 H 0.25499 0.10669 0.67959 0.0
H1283 H 0.28742 0.08524 0.68851 0.0
H1284 H 0.26216 0.09585 0.71731 0.0
H1285 H 0.30805 0.23085 0.69773 0.0
H1286 H 0.28523 0.21534 0.66855 0.0
H1287 H 0.26987 0.21979 0.70484 0.0
H1288 H 0.21905 0.17715 0.61451 0.0
H1289 H 0.18095 0.1852 0.70141 0.0
H1290 H 0.28275 0.1353 0.63603 0.0
H1291 H 0.29185 0.17348 0.63273 0.0
H1292 H 0.26653 0.15666 0.60644 0.0
H1293 H 0.23776 0.14516 0.73963 0.0
H1294 H 0.20683 0.17002 0.74442 0.0
H1295 H 0.24468 0.18387 0.7417 0.0
C1296 C 0.77959 0.20854 0.59822 0.0
C1297 C 0.77677 0.19463 0.62588 0.0
C1298 C 0.79224 0.23683 0.5959 0.0
C1299 C 0.80149 0.25176 0.6219 0.0
C1300 C 0.79973 0.23732 0.64969 0.0
C1301 C 0.78779 0.20882 0.65126 0.0
C1302 C 0.79522 0.25095 0.56579 0.0
C1303 C 0.809 0.25254 0.6781 0.0
C1304 C 0.85031 0.31886 0.63155 0.0
C1305 C 0.82874 0.33995 0.63847 0.0
C1306 C 0.8418 0.29061 0.62225 0.0
C1307 C 0.81099 0.28315 0.62095 0.0
C1308 C 0.78925 0.30538 0.62474 0.0
C1309 C 0.79849 0.33375 0.63307 0.0
C1310 C 0.86579 0.26801 0.61721 0.0
C1311 C 0.75615 0.2984 0.62396 0.0
H1312 H 0.77135 0.19754 0.57847 0.0
H1313 H 0.78551 0.19831 0.67269 0.0
H1314 H 0.78312 0.27211 0.56521 0.0
H1315 H 0.81915 0.25588 0.5613 0.0
H1316 H 0.78637 0.23671 0.5478 0.0
H1317 H 0.80581 0.23837 0.6979 0.0
H1318 H 0.83291 0.25916 0.67702 0.0
H1319 H 0.7957 0.2728 0.68112 0.0
H1320 H 0.87375 0.32365 0.63592 0.0
H1321 H 0.78181 0.34993 0.63889 0.0
H1322 H 0.85906 0.25219 0.59967 0.0
H1323 H 0.86953 0.2555 0.63797 0.0
H1324 H 0.88738 0.27853 0.61089 0.0
H1325 H 0.75043 0.28441 0.60462 0.0
H1326 H 0.74238 0.31858 0.62305 0.0
H1327 H 0.75 0.28598 0.64425 0.0
C1328 C 0.8156 0.83324 0.67465 0.0
C1329 C 0.81847 0.82885 0.64413 0.0
C1330 C 0.79047 0.84774 0.68594 0.0
C1331 C 0.76838 0.85814 0.66598 0.0
C1332 C 0.77481 0.85931 0.63534 0.0
C1333 C 0.79989 0.84437 0.62466 0.0
C1334 C 0.78511 0.84722 0.71893 0.0
C1335 C 0.75279 0.87185 0.61346 0.0
C1336 C 0.69109 0.83077 0.68705 0.0
C1337 C 0.67883 0.85534 0.70095 0.0
C1338 C 0.71977 0.83195 0.6746 0.0
C1339 C 0.73662 0.8585 0.67582 0.0
C1340 C 0.72366 0.88394 0.68815 0.0
C1341 C 0.69486 0.88206 0.70053 0.0
C1342 C 0.73256 0.80422 0.66142 0.0
C1343 C 0.74018 0.91297 0.68869 0.0
H1344 H 0.83014 0.82141 0.68972 0.0
H1345 H 0.80239 0.84125 0.60096 0.0
H1346 H 0.77417 0.86769 0.72639 0.0
H1347 H 0.76998 0.82855 0.72438 0.0
H1348 H 0.80634 0.84441 0.73147 0.0
H1349 H 0.76389 0.87766 0.59222 0.0
H1350 H 0.73507 0.85527 0.60873 0.0
H1351 H 0.74185 0.89163 0.62262 0.0
H1352 H 0.67889 0.81011 0.68713 0.0
H1353 H 0.68529 0.90139 0.71072 0.0
H1354 H 0.75289 0.79768 0.67389 0.0
H1355 H 0.73924 0.80809 0.63808 0.0
H1356 H 0.71635 0.7856 0.66188 0.0
H1357 H 0.72984 0.92875 0.70433 0.0
H1358 H 0.73961 0.92279 0.6662 0.0
H1359 H 0.76404 0.91011 0.69488 0.0
C1360 C 0.34884 0.19659 0.35294 0.0
C1361 C 0.35115 0.16686 0.36041 0.0
C1362 C 0.35486 0.20612 0.32395 0.0
C1363 C 0.36394 0.18545 0.30236 0.0
C1364 C 0.37061 0.15643 0.31112 0.0
C1365 C 0.36363 0.14729 0.34 0.0
C1366 C 0.34824 0.23749 0.31567 0.0
C1367 C 0.38264 0.13448 0.28925 0.0
C1368 C 0.32958 0.19657 0.2261 0.0
C1369 C 0.353 0.21028 0.2107 0.0
C1370 C 0.33327 0.18772 0.25571 0.0
C1371 C 0.36109 0.19264 0.27028 0.0
C1372 C 0.38529 0.20509 0.25441 0.0
C1373 C 0.38093 0.21382 0.2249 0.0
C1374 C 0.30708 0.1738 0.27169 0.0
C1375 C 0.41541 0.21056 0.26875 0.0
H1376 H 0.33896 0.21171 0.36864 0.0
H1377 H 0.36554 0.12429 0.34585 0.0
H1378 H 0.36633 0.24664 0.30155 0.0
H1379 H 0.32712 0.23819 0.30267 0.0
H1380 H 0.3457 0.25168 0.33552 0.0
H1381 H 0.38729 0.11295 0.29975 0.0
H1382 H 0.36639 0.1313 0.27088 0.0
H1383 H 0.40365 0.14302 0.27929 0.0
H1384 H 0.30801 0.19364 0.21538 0.0
H1385 H 0.39939 0.22414 0.21319 0.0
H1386 H 0.30073 0.18755 0.29096 0.0
H1387 H 0.31348 0.15192 0.28033 0.0
H1388 H 0.28716 0.17107 0.25711 0.0
H1389 H 0.41481 0.23171 0.28092 0.0
H1390 H 0.43353 0.21205 0.25197 0.0
H1391 H 0.42112 0.19312 0.2849 0.0
C1392 C 0.8754 0.276 0.29367 0.0
C1393 C 0.90534 0.26838 0.29865 0.0
C1394 C 0.86739 0.29385 0.2698 0.0
C1395 C 0.88994 0.30483 0.25071 0.0
C1396 C 0.92028 0.29768 0.25581 0.0
C1397 C 0.92761 0.27924 0.27962 0.0
C1398 C 0.83466 0.30049 0.26471 0.0
C1399 C 0.9449 0.30949 0.23619 0.0
C1400 C 0.85839 0.32568 0.17614 0.0
C1401 C 0.85099 0.35509 0.18112 0.0
C1402 C 0.87314 0.30938 0.19798 0.0
C1403 C 0.88113 0.32311 0.22505 0.0
C1404 C 0.87621 0.3535 0.229 0.0
C1405 C 0.86082 0.36911 0.20706 0.0
C1406 C 0.87774 0.27693 0.19308 0.0
C1407 C 0.88518 0.36904 0.25724 0.0
H1408 H 0.858 0.26746 0.30807 0.0
H1409 H 0.95076 0.27331 0.2833 0.0
H1410 H 0.83102 0.32453 0.26555 0.0
H1411 H 0.82771 0.29282 0.24236 0.0
H1412 H 0.81991 0.28984 0.28141 0.0
H1413 H 0.9672 0.30065 0.24228 0.0
H1414 H 0.94024 0.30404 0.21266 0.0
H1415 H 0.94579 0.33378 0.23791 0.0
H1416 H 0.85083 0.31483 0.15605 0.0
H1417 H 0.85556 0.39204 0.21064 0.0
H1418 H 0.86184 0.26434 0.20714 0.0
H1419 H 0.90069 0.27045 0.19965 0.0
H1420 H 0.87396 0.27051 0.1696 0.0
H1421 H 0.86961 0.3626 0.27527 0.0
H1422 H 0.88451 0.39329 0.25479 0.0
H1423 H 0.90806 0.36259 0.26417 0.0
C1424 C 0.59151 0.79461 0.20538 0.0
C1425 C 0.61941 0.79411 0.19108 0.0
C1426 C 0.58903 0.80375 0.23499 0.0
C1427 C 0.6152 0.81166 0.25092 0.0
C1428 C 0.64315 0.81281 0.23606 0.0
C1429 C 0.64483 0.80439 0.20617 0.0
C1430 C 0.55861 0.80304 0.24945 0.0
C1431 C 0.6717 0.82089 0.25228 0.0
C1432 C 0.62052 0.84989 0.32507 0.0
C1433 C 0.62762 0.82632 0.34374 0.0
C1434 C 0.61337 0.84522 0.29514 0.0
C1435 C 0.61425 0.81639 0.28356 0.0
C1436 C 0.61844 0.79232 0.30304 0.0
C1437 C 0.62481 0.79759 0.33309 0.0
C1438 C 0.60742 0.87132 0.27546 0.0
C1439 C 0.61917 0.76121 0.29159 0.0
H1440 H 0.57171 0.78669 0.19379 0.0
H1441 H 0.66647 0.80371 0.19535 0.0
H1442 H 0.55413 0.78063 0.25807 0.0
H1443 H 0.55703 0.81877 0.26814 0.0
H1444 H 0.54081 0.80821 0.23311 0.0
H1445 H 0.69141 0.82164 0.23732 0.0
H1446 H 0.66945 0.84262 0.26308 0.0
H1447 H 0.67603 0.80456 0.27001 0.0
H1448 H 0.6228 0.87215 0.33334 0.0
H1449 H 0.6307 0.77942 0.34744 0.0
H1450 H 0.58848 0.86658 0.26015 0.0
H1451 H 0.62748 0.87602 0.26174 0.0
H1452 H 0.60222 0.89129 0.28854 0.0
H1453 H 0.59895 0.75647 0.27805 0.0
H1454 H 0.62041 0.74487 0.30983 0.0
H1455 H 0.63898 0.75842 0.27707 0.0
C1456 C 0.15036 0.68984 0.17613 0.0
C1457 C 0.15735 0.66137 0.1853 0.0
C1458 C 0.1327 0.70792 0.194 0.0
C1459 C 0.12133 0.69673 0.22104 0.0
C1460 C 0.12462 0.6666 0.22788 0.0
C1461 C 0.14324 0.64934 0.21018 0.0
C1462 C 0.1301 0.73997 0.18598 0.0
C1463 C 0.11171 0.65353 0.25584 0.0
C1464 C 0.12923 0.74543 0.28831 0.0
C1465 C 0.09997 0.75555 0.29225 0.0
C1466 C 0.13635 0.72679 0.26484 0.0
C1467 C 0.11348 0.71737 0.24512 0.0
C1468 C 0.08387 0.72746 0.24881 0.0
C1469 C 0.07755 0.74689 0.27211 0.0
C1470 C 0.16848 0.71715 0.26126 0.0
C1471 C 0.05891 0.71742 0.22849 0.0
H1472 H 0.16141 0.69907 0.15685 0.0
H1473 H 0.14849 0.62712 0.21698 0.0
H1474 H 0.10798 0.74885 0.19231 0.0
H1475 H 0.1475 0.75265 0.19821 0.0
H1476 H 0.13355 0.7436 0.16188 0.0
H1477 H 0.11009 0.62922 0.2544 0.0
H1478 H 0.12643 0.65923 0.27488 0.0
H1479 H 0.08916 0.66248 0.26043 0.0
H1480 H 0.14682 0.7523 0.30345 0.0
H1481 H 0.055 0.75505 0.27469 0.0
H1482 H 0.17649 0.72224 0.23856 0.0
H1483 H 0.17001 0.69306 0.26438 0.0
H1484 H 0.1838 0.72797 0.27741 0.0
H1485 H 0.06452 0.7225 0.20512 0.0
H1486 H 0.03721 0.72785 0.23397 0.0
H1487 H 0.05617 0.69325 0.23011 0.0
C1488 C 0.37305 0.74558 0.78215 0.0
C1489 C 0.40219 0.73483 0.78517 0.0
C1490 C 0.36571 0.76494 0.75928 0.0
C1491 C 0.38821 0.77413 0.73919 0.0
C1492 C 0.41755 0.763 0.74168 0.0
C1493 C 0.42419 0.74332 0.76463 0.0
C1494 C 0.33388 0.77575 0.75683 0.0
C1495 C 0.44208 0.77247 0.72073 0.0
C1496 C 0.35431 0.80709 0.67052 0.0
C1497 C 0.35068 0.83612 0.67991 0.0
C1498 C 0.36888 0.78674 0.68868 0.0
C1499 C 0.38064 0.7961 0.7163 0.0
C1500 C 0.38014 0.82619 0.72408 0.0
C1501 C 0.36456 0.84583 0.70599 0.0
C1502 C 0.36874 0.7548 0.67975 0.0
C1503 C 0.39362 0.83712 0.75278 0.0
H1504 H 0.35581 0.73883 0.79765 0.0
H1505 H 0.44673 0.73494 0.76673 0.0
H1506 H 0.33334 0.79979 0.76069 0.0
H1507 H 0.32504 0.77163 0.73419 0.0
H1508 H 0.31871 0.76496 0.77305 0.0
H1509 H 0.46169 0.75767 0.72187 0.0
H1510 H 0.43391 0.77312 0.69751 0.0
H1511 H 0.44956 0.79501 0.72664 0.0
H1512 H 0.34338 0.79965 0.65035 0.0
H1513 H 0.36189 0.86845 0.71298 0.0
H1514 H 0.35154 0.74284 0.69286 0.0
H1515 H 0.39066 0.74453 0.68451 0.0
H1516 H 0.36345 0.75189 0.65585 0.0
H1517 H 0.37899 0.83054 0.77152 0.0
H1518 H 0.39604 0.86141 0.75302 0.0
H1519 H 0.41592 0.8272 0.75656 0.0
C1520 C 0.12702 0.35259 0.82468 0.0
C1521 C 0.13485 0.32976 0.84399 0.0
C1522 C 0.1191 0.34679 0.79512 0.0
C1523 C 0.12037 0.31764 0.78445 0.0
C1524 C 0.12551 0.29432 0.80459 0.0
C1525 C 0.13239 0.30067 0.83432 0.0
C1526 C 0.11152 0.37201 0.77486 0.0
C1527 C 0.1262 0.26283 0.79421 0.0
C1528 C 0.0948 0.29133 0.70853 0.0
C1529 C 0.12199 0.2911 0.69295 0.0
C1530 C 0.09336 0.30159 0.73782 0.0
C1531 C 0.11984 0.31165 0.75198 0.0
C1532 C 0.14696 0.31326 0.73566 0.0
C1533 C 0.14761 0.30324 0.70621 0.0
C1534 C 0.0635 0.30045 0.75343 0.0
C1535 C 0.17588 0.3233 0.75004 0.0
H1536 H 0.12912 0.37514 0.83216 0.0
H1537 H 0.13888 0.28308 0.84914 0.0
H1538 H 0.13098 0.37717 0.76051 0.0
H1539 H 0.09239 0.36605 0.76023 0.0
H1540 H 0.10578 0.39209 0.78755 0.0
H1541 H 0.12954 0.24719 0.8128 0.0
H1542 H 0.10491 0.25716 0.78275 0.0
H1543 H 0.14464 0.25999 0.77803 0.0
H1544 H 0.07481 0.28219 0.69825 0.0
H1545 H 0.16871 0.30279 0.6944 0.0
H1546 H 0.04917 0.31823 0.7446 0.0
H1547 H 0.06513 0.30318 0.77778 0.0
H1548 H 0.05202 0.27926 0.74867 0.0
H1549 H 0.17313 0.34524 0.76026 0.0
H1550 H 0.19468 0.3245 0.734 0.0
H1551 H 0.182 0.30782 0.76802 0.0
C1552 C 0.64247 0.14369 0.70817 0.0
C1553 C 0.65549 0.15819 0.68402 0.0
C1554 C 0.62505 0.15904 0.72863 0.0
C1555 C 0.62158 0.1897 0.72522 0.0
C1556 C 0.63216 0.20378 0.69925 0.0
C1557 C 0.6488 0.18768 0.67868 0.0
C1558 C 0.61319 0.14302 0.75547 0.0
C1559 C 0.62916 0.23648 0.69488 0.0
C1560 C 0.57775 0.23442 0.7812 0.0
C1561 C 0.60048 0.2422 0.80134 0.0
C1562 C 0.58395 0.2168 0.75644 0.0
C1563 C 0.6137 0.20764 0.75139 0.0
C1564 C 0.63674 0.21579 0.77144 0.0
C1565 C 0.62977 0.23265 0.79628 0.0
C1566 C 0.55879 0.20789 0.73585 0.0
C1567 C 0.66893 0.20692 0.7666 0.0
H1568 H 0.64723 0.12068 0.71193 0.0
H1569 H 0.65879 0.19883 0.65987 0.0
H1570 H 0.62855 0.14682 0.77449 0.0
H1571 H 0.59079 0.15128 0.7618 0.0
H1572 H 0.61158 0.11898 0.75152 0.0
H1573 H 0.63317 0.24296 0.67148 0.0
H1574 H 0.60665 0.24409 0.70158 0.0
H1575 H 0.64587 0.24801 0.70904 0.0
H1576 H 0.55513 0.24201 0.78479 0.0
H1577 H 0.64758 0.23878 0.81149 0.0
H1578 H 0.55688 0.18361 0.73512 0.0
H1579 H 0.56363 0.21542 0.71298 0.0
H1580 H 0.53691 0.21699 0.74285 0.0
H1581 H 0.67073 0.18265 0.76692 0.0
H1582 H 0.68427 0.21604 0.78376 0.0
H1583 H 0.6767 0.21459 0.74456 0.0
C1584 C 0.83061 0.70254 0.7243 0.0
C1585 C 0.85488 0.7111 0.70659 0.0
C1586 C 0.83479 0.69484 0.75413 0.0
C1587 C 0.86399 0.69551 0.76659 0.0
C1588 C 0.88872 0.7033 0.74867 0.0
C1589 C 0.88387 0.71108 0.71893 0.0
C1590 C 0.80779 0.68646 0.7725 0.0
C1591 C 0.92018 0.70403 0.76101 0.0
C1592 C 0.85922 0.70101 0.85004 0.0
C1593 C 0.85787 0.67121 0.85757 0.0
C1594 C 0.86422 0.70964 0.82054 0.0
C1595 C 0.86812 0.68789 0.79841 0.0
C1596 C 0.87076 0.6581 0.80677 0.0
C1597 C 0.86559 0.65013 0.83631 0.0
C1598 C 0.86182 0.7417 0.81261 0.0
C1599 C 0.87545 0.63423 0.78408 0.0
H1600 H 0.80817 0.7026 0.71509 0.0
H1601 H 0.90287 0.71754 0.70545 0.0
H1602 H 0.81067 0.66412 0.78181 0.0
H1603 H 0.80556 0.70183 0.79144 0.0
H1604 H 0.78667 0.68681 0.75944 0.0
H1605 H 0.93722 0.70792 0.74352 0.0
H1606 H 0.92217 0.72178 0.77775 0.0
H1607 H 0.92532 0.68309 0.77241 0.0
H1608 H 0.85311 0.71736 0.86637 0.0
H1609 H 0.86473 0.62704 0.84218 0.0
H1610 H 0.83953 0.74578 0.80254 0.0
H1611 H 0.87903 0.74801 0.79607 0.0
H1612 H 0.86432 0.75604 0.8324 0.0
H1613 H 0.85414 0.63013 0.77199 0.0
H1614 H 0.88252 0.61332 0.79456 0.0
H1615 H 0.89252 0.64093 0.76755 0.0
C1616 C 0.17472 0.34565 0.20187 0.0
C1617 C 0.16796 0.37247 0.21535 0.0
C1618 C 0.20228 0.34148 0.1877 0.0
C1619 C 0.22334 0.36492 0.18641 0.0
C1620 C 0.21548 0.39282 0.19756 0.0
C1621 C 0.18805 0.39617 0.21231 0.0
C1622 C 0.20959 0.31137 0.17582 0.0
C1623 C 0.23645 0.41882 0.19551 0.0
C1624 C 0.30072 0.33273 0.18514 0.0
C1625 C 0.30419 0.32838 0.15468 0.0
C1626 C 0.27575 0.34782 0.19603 0.0
C1627 C 0.25423 0.35889 0.17582 0.0
C1628 C 0.26032 0.35846 0.14508 0.0
C1629 C 0.28514 0.34282 0.13481 0.0
C1630 C 0.27052 0.34866 0.22904 0.0
C1631 C 0.23892 0.3714 0.12282 0.0
H1632 H 0.15938 0.32723 0.20416 0.0
H1633 H 0.18286 0.41714 0.22239 0.0
H1634 H 0.21627 0.31287 0.15221 0.0
H1635 H 0.22881 0.30216 0.1883 0.0
H1636 H 0.19039 0.29583 0.1776 0.0
H1637 H 0.25017 0.42007 0.21602 0.0
H1638 H 0.2518 0.41722 0.17629 0.0
H1639 H 0.22363 0.43951 0.1936 0.0
H1640 H 0.31537 0.32136 0.20045 0.0
H1641 H 0.28792 0.33943 0.11116 0.0
H1642 H 0.25228 0.333 0.23483 0.0
H1643 H 0.26336 0.37086 0.23601 0.0
H1644 H 0.2909 0.34262 0.24176 0.0
H1645 H 0.22108 0.35509 0.11765 0.0
H1646 H 0.25056 0.37704 0.10182 0.0
H1647 H 0.2281 0.39141 0.13167 0.0
C1648 C 0.35727 0.61502 0.79501 0.0
C1649 C 0.36169 0.61582 0.82573 0.0
C1650 C 0.3286 0.60963 0.78315 0.0
C1651 C 0.30418 0.60458 0.80256 0.0
C1652 C 0.30958 0.60115 0.83326 0.0
C1653 C 0.33833 0.60692 0.84451 0.0
C1654 C 0.32386 0.61291 0.7502 0.0
C1655 C 0.28442 0.59474 0.85464 0.0
C1656 C 0.23101 0.64013 0.77976 0.0
C1657 C 0.21541 0.6166 0.7668 0.0
C1658 C 0.25969 0.63628 0.79191 0.0
C1659 C 0.27293 0.60807 0.79155 0.0
C1660 C 0.25667 0.58392 0.7799 0.0
C1661 C 0.22826 0.58852 0.76736 0.0
C1662 C 0.27624 0.66266 0.80424 0.0
C1663 C 0.26952 0.5534 0.77964 0.0
H1664 H 0.37519 0.62213 0.78045 0.0
H1665 H 0.34174 0.60752 0.86832 0.0
H1666 H 0.30931 0.59498 0.7416 0.0
H1667 H 0.31239 0.63398 0.74571 0.0
H1668 H 0.34535 0.6128 0.73784 0.0
H1669 H 0.29298 0.58714 0.87645 0.0
H1670 H 0.27132 0.61501 0.85831 0.0
H1671 H 0.26896 0.57782 0.84548 0.0
H1672 H 0.22133 0.66188 0.77933 0.0
H1673 H 0.21629 0.57008 0.75759 0.0
H1674 H 0.29737 0.6662 0.79179 0.0
H1675 H 0.28235 0.65878 0.82776 0.0
H1676 H 0.26278 0.68302 0.80296 0.0
H1677 H 0.28424 0.55095 0.76005 0.0
H1678 H 0.25158 0.53651 0.77815 0.0
H1679 H 0.28313 0.54911 0.79977 0.0
C1680 C 0.26389 0.27147 0.87013 0.0
C1681 C 0.25202 0.27629 0.89834 0.0
C1682 C 0.28554 0.25003 0.86551 0.0
C1683 C 0.29583 0.23317 0.88984 0.0
C1684 C 0.28363 0.23758 0.91838 0.0
C1685 C 0.26174 0.25916 0.92229 0.0
C1686 C 0.29762 0.24567 0.83455 0.0
C1687 C 0.29416 0.22042 0.94499 0.0
C1688 C 0.33267 0.16651 0.85882 0.0
C1689 C 0.36146 0.17783 0.85355 0.0
C1690 C 0.31149 0.18308 0.87418 0.0
C1691 C 0.31957 0.21133 0.88457 0.0
C1692 C 0.34975 0.22082 0.88324 0.0
C1693 C 0.37043 0.204 0.86747 0.0
C1694 C 0.27968 0.17185 0.87616 0.0
C1695 C 0.35941 0.25019 0.8956 0.0
H1696 H 0.25626 0.28454 0.85154 0.0
H1697 H 0.25281 0.26312 0.94423 0.0
H1698 H 0.32201 0.25052 0.83421 0.0
H1699 H 0.29447 0.22249 0.82758 0.0
H1700 H 0.2865 0.26001 0.818 0.0
H1701 H 0.27617 0.21842 0.96184 0.0
H1702 H 0.30173 0.19808 0.93895 0.0
H1703 H 0.31333 0.23223 0.95535 0.0
H1704 H 0.32575 0.14596 0.84869 0.0
H1705 H 0.39301 0.21235 0.86432 0.0
H1706 H 0.26572 0.18326 0.85941 0.0
H1707 H 0.27011 0.17657 0.89831 0.0
H1708 H 0.27818 0.14786 0.87196 0.0
H1709 H 0.35159 0.2679 0.88063 0.0
H1710 H 0.38416 0.25195 0.89766 0.0
H1711 H 0.34921 0.25389 0.91767 0.0
C1712 C 0.66429 0.37226 0.85198 0.0
C1713 C 0.638 0.36319 0.83743 0.0
C1714 C 0.68894 0.38284 0.83598 0.0
C1715 C 0.68719 0.38418 0.80471 0.0
C1716 C 0.65951 0.37843 0.79029 0.0
C1717 C 0.63505 0.36808 0.80693 0.0
C1718 C 0.7178 0.38935 0.85232 0.0
C1719 C 0.65664 0.38012 0.75701 0.0
C1720 C 0.75238 0.41627 0.76122 0.0
C1721 C 0.76845 0.39089 0.75383 0.0
C1722 C 0.72585 0.41456 0.77772 0.0
C1723 C 0.71515 0.38681 0.78708 0.0
C1724 C 0.73144 0.36114 0.77997 0.0
C1725 C 0.75799 0.36352 0.76355 0.0
C1726 C 0.70957 0.44246 0.78541 0.0
C1727 C 0.72072 0.33109 0.78958 0.0
H1728 H 0.66652 0.36858 0.87563 0.0
H1729 H 0.61484 0.3609 0.79561 0.0
H1730 H 0.73337 0.3707 0.84943 0.0
H1731 H 0.72893 0.40925 0.84329 0.0
H1732 H 0.71404 0.39251 0.87644 0.0
H1733 H 0.63286 0.37958 0.7497 0.0
H1734 H 0.6674 0.40043 0.74845 0.0
H1735 H 0.6683 0.36119 0.74689 0.0
H1736 H 0.76064 0.43761 0.75424 0.0
H1737 H 0.77029 0.34389 0.7579 0.0
H1738 H 0.71204 0.44691 0.80947 0.0
H1739 H 0.68528 0.44017 0.78066 0.0
H1740 H 0.71846 0.4617 0.77302 0.0
H1741 H 0.71936 0.33012 0.81411 0.0
H1742 H 0.73573 0.31334 0.78188 0.0
H1743 H 0.69789 0.3268 0.78074 0.0
C1744 C 0.72411 0.72639 0.91791 0.0
C1745 C 0.73433 0.70467 0.89836 0.0
C1746 C 0.70539 0.74895 0.90798 0.0
C1747 C 0.69681 0.74973 0.87781 0.0
C1748 C 0.70628 0.72733 0.85823 0.0
C1749 C 0.7248 0.70497 0.8688 0.0
C1750 C 0.69513 0.77203 0.92963 0.0
C1751 C 0.69761 0.72745 0.82583 0.0
C1752 C 0.63122 0.78934 0.84472 0.0
C1753 C 0.64587 0.81199 0.82937 0.0
C1754 C 0.64716 0.77047 0.86332 0.0
C1755 C 0.6785 0.77414 0.86607 0.0
C1756 C 0.69282 0.79885 0.85306 0.0
C1757 C 0.67618 0.81772 0.83491 0.0
C1758 C 0.63087 0.74492 0.87743 0.0
C1759 C 0.7262 0.80364 0.85579 0.0
H1760 H 0.73112 0.72604 0.94093 0.0
H1761 H 0.73272 0.68834 0.85359 0.0
H1762 H 0.70006 0.79432 0.92095 0.0
H1763 H 0.67052 0.77031 0.93251 0.0
H1764 H 0.70595 0.7697 0.95169 0.0
H1765 H 0.70666 0.70829 0.81365 0.0
H1766 H 0.67287 0.72727 0.82354 0.0
H1767 H 0.70607 0.74781 0.81513 0.0
H1768 H 0.60761 0.78518 0.84064 0.0
H1769 H 0.68745 0.83525 0.82299 0.0
H1770 H 0.6393 0.74085 0.90019 0.0
H1771 H 0.63484 0.7248 0.86419 0.0
H1772 H 0.60633 0.74864 0.8784 0.0
H1773 H 0.73368 0.80056 0.87903 0.0
H1774 H 0.73307 0.82592 0.8483 0.0
H1775 H 0.73796 0.78721 0.84198 0.0
C1776 C 0.69353 0.68125 0.18312 0.0
C1777 C 0.69066 0.68394 0.15237 0.0
C1778 C 0.72026 0.67083 0.19565 0.0
C1779 C 0.74424 0.66275 0.17684 0.0
C1780 C 0.73987 0.6621 0.14579 0.0
C1781 C 0.71319 0.673 0.13392 0.0
C1782 C 0.72389 0.67137 0.22891 0.0
C1783 C 0.76432 0.65292 0.12478 0.0
C1784 C 0.82134 0.68363 0.20564 0.0
C1785 C 0.83173 0.65685 0.21675 0.0
C1786 C 0.79319 0.68556 0.19197 0.0
C1787 C 0.77498 0.66008 0.18923 0.0
C1788 C 0.78592 0.63269 0.19896 0.0
C1789 C 0.81416 0.63139 0.21263 0.0
C1790 C 0.78253 0.71513 0.18129 0.0
C1791 C 0.76747 0.60496 0.19577 0.0
H1792 H 0.67612 0.68981 0.19735 0.0
H1793 H 0.71081 0.6749 0.11006 0.0
H1794 H 0.7348 0.65102 0.23681 0.0
H1795 H 0.73854 0.69014 0.23527 0.0
H1796 H 0.70207 0.67377 0.2404 0.0
H1797 H 0.75476 0.64431 0.10372 0.0
H1798 H 0.77847 0.67233 0.11941 0.0
H1799 H 0.77892 0.6359 0.13461 0.0
H1800 H 0.8347 0.70338 0.20859 0.0
H1801 H 0.82205 0.61047 0.22086 0.0
H1802 H 0.76203 0.72144 0.19351 0.0
H1803 H 0.77662 0.71394 0.15742 0.0
H1804 H 0.79969 0.73266 0.1844 0.0
H1805 H 0.74757 0.60617 0.21038 0.0
H1806 H 0.78037 0.58504 0.20171 0.0
H1807 H 0.75917 0.6026 0.17268 0.0
C1808 C 0.34351 0.83202 0.11397 0.0
C1809 C 0.32186 0.85315 0.12041 0.0
C1810 C 0.33502 0.80337 0.10615 0.0
C1811 C 0.30425 0.79575 0.10588 0.0
C1812 C 0.28248 0.81814 0.10793 0.0
C1813 C 0.29164 0.84685 0.11497 0.0
C1814 C 0.35895 0.78049 0.10241 0.0
C1815 C 0.24944 0.81103 0.10725 0.0
C1816 C 0.27552 0.71728 0.09664 0.0
C1817 C 0.2747 0.70788 0.12629 0.0
C1818 C 0.28622 0.74545 0.08922 0.0
C1819 C 0.2953 0.76487 0.1121 0.0
C1820 C 0.29499 0.75521 0.14198 0.0
C1821 C 0.28507 0.72678 0.1486 0.0
C1822 C 0.28696 0.7544 0.05703 0.0
C1823 C 0.30436 0.77516 0.16724 0.0
H1824 H 0.36696 0.83703 0.11805 0.0
H1825 H 0.27493 0.86324 0.12007 0.0
H1826 H 0.36254 0.76903 0.12382 0.0
H1827 H 0.35212 0.76384 0.08569 0.0
H1828 H 0.3806 0.79057 0.09561 0.0
H1829 H 0.2357 0.83104 0.10423 0.0
H1830 H 0.24417 0.79536 0.08914 0.0
H1831 H 0.24295 0.8005 0.1285 0.0
H1832 H 0.26768 0.70269 0.07921 0.0
H1833 H 0.28437 0.71977 0.17155 0.0
H1834 H 0.30542 0.77019 0.05246 0.0
H1835 H 0.2655 0.76504 0.05115 0.0
H1836 H 0.28958 0.73502 0.04237 0.0
H1837 H 0.32822 0.78163 0.16478 0.0
H1838 H 0.30157 0.76457 0.18925 0.0
H1839 H 0.2909 0.79553 0.16691 0.0
C1840 C 0.73427 0.30323 0.0914 0.0
C1841 C 0.73338 0.32221 0.11594 0.0
C1842 C 0.71954 0.27582 0.09196 0.0
C1843 C 0.70453 0.26684 0.11808 0.0
C1844 C 0.70265 0.28645 0.14243 0.0
C1845 C 0.71662 0.314 0.14082 0.0
C1846 C 0.72141 0.25643 0.06493 0.0
C1847 C 0.68731 0.27778 0.17102 0.0
C1848 C 0.64921 0.20786 0.13662 0.0
C1849 C 0.66767 0.18902 0.15288 0.0
C1850 C 0.66158 0.23121 0.12038 0.0
C1851 C 0.69281 0.2364 0.12185 0.0
C1852 C 0.71166 0.21485 0.1345 0.0
C1853 C 0.69876 0.19109 0.14974 0.0
C1854 C 0.641 0.2523 0.10481 0.0
C1855 C 0.74519 0.219 0.13551 0.0
H1856 H 0.74711 0.30941 0.07199 0.0
H1857 H 0.71589 0.3284 0.15992 0.0
H1858 H 0.74444 0.24763 0.06312 0.0
H1859 H 0.70527 0.23781 0.06543 0.0
H1860 H 0.71716 0.26953 0.04463 0.0
H1861 H 0.68874 0.29527 0.18814 0.0
H1862 H 0.66332 0.27286 0.16681 0.0
H1863 H 0.69763 0.25762 0.18015 0.0
H1864 H 0.62508 0.20598 0.13882 0.0
H1865 H 0.71298 0.17641 0.16231 0.0
H1866 H 0.65147 0.26064 0.08412 0.0
H1867 H 0.63669 0.27139 0.11942 0.0
H1868 H 0.61915 0.24177 0.09933 0.0
H1869 H 0.75375 0.22529 0.11334 0.0
H1870 H 0.75682 0.19881 0.14292 0.0
H1871 H 0.75089 0.23705 0.15113 0.0
loop_
_geom_bond_atom_site_label_1
_geom_bond_atom_site_label_2
_geom_bond_distance
_geom_bond_site_symmetry_2
_ccdc_geom_bond_type
Co0 O1 2.216 . S
Co0 O2 2.091 . S
Co0 O4 2.004 . S
Co0 O10 2.021 . S
Co0 O12 2.137 . S
Co0 O13 2.244 . S
O1 Co0 2.216 . S
O1 C8 1.247 . S
O2 Co0 2.091 . S
O2 C8 1.261 . S
C3 O12 1.247 . S
C3 O13 1.272 . S
O4 Co0 2.004 . S
O4 C9 1.259 . S
Co5 O6 2.061 . S
Co5 O11 2.052 . S
Co5 O13 2.135 . S
O6 Co5 2.061 . S
O6 C9 1.235 . S
C7 O10 1.238 . S
C7 O11 1.241 . S
C8 O1 1.247 . S
C8 O2 1.261 . S
C9 O4 1.259 . S
C9 O6 1.235 . S
O10 Co0 2.021 . S
O10 C7 1.238 . S
O11 Co5 2.052 . S
O11 C7 1.241 . S
O12 Co0 2.137 . S
O12 C3 1.247 . S
O13 Co0 2.244 . S
O13 C3 1.272 . S
O13 Co5 2.135 . S
Co14 O15 2.216 . S
Co14 O16 2.091 . S
Co14 O18 2.004 . S
Co14 O24 2.021 . S
Co14 O26 2.137 . S
Co14 O27 2.244 . S
O15 Co14 2.216 . S
O15 C22 1.247 . S
O16 Co14 2.091 . S
O16 C22 1.261 . S
C17 O26 1.247 . S
C17 O27 1.272 . S
O18 Co14 2.004 . S
O18 C23 1.259 . S
Co19 O20 2.061 . S
Co19 O25 2.052 . S
Co19 O27 2.135 . S
O20 Co19 2.061 . S
O20 C23 1.235 . S
C21 O24 1.238 . S
C21 O25 1.241 . S
C22 O15 1.247 . S
C22 O16 1.261 . S
C23 O18 1.259 . S
C23 O20 1.235 . S
O24 Co14 2.021 . S
O24 C21 1.238 . S
O25 Co19 2.052 . S
O25 C21 1.241 . S
O26 Co14 2.137 . S
O26 C17 1.247 . S
O27 Co14 2.244 . S
O27 C17 1.272 . S
O27 Co19 2.135 . S
Co28 O29 2.216 . S
Co28 O30 2.091 . S
Co28 O32 2.004 . S
Co28 O38 2.021 . S
Co28 O40 2.137 . S
Co28 O41 2.244 . S
O29 Co28 2.216 . S
O29 C36 1.247 . S
O30 Co28 2.091 . S
O30 C36 1.261 . S
C31 O40 1.247 . S
C31 O41 1.272 . S
O32 Co28 2.004 . S
O32 C37 1.259 . S
Co33 O34 2.061 . S
Co33 O39 2.052 . S
Co33 O41 2.135 . S
O34 Co33 2.061 . S
O34 C37 1.235 . S
C35 O38 1.238 . S
C35 O39 1.241 . S
C36 O29 1.247 . S
C36 O30 1.261 . S
C37 O32 1.259 . S
C37 O34 1.235 . S
O38 Co28 2.021 . S
O38 C35 1.238 . S
O39 Co33 2.052 . S
O39 C35 1.241 . S
O40 Co28 2.137 . S
O40 C31 1.247 . S
O41 Co28 2.244 . S
O41 C31 1.272 . S
O41 Co33 2.135 . S
Co42 O43 2.216 . S
Co42 O44 2.091 . S
Co42 O46 2.004 . S
Co42 O52 2.021 . S
Co42 O54 2.137 . S
Co42 O55 2.244 . S
O43 Co42 2.216 . S
O43 C50 1.247 . S
O44 Co42 2.091 . S
O44 C50 1.261 . S
C45 O54 1.247 . S
C45 O55 1.272 . S
O46 Co42 2.004 . S
O46 C51 1.259 . S
Co47 O48 2.061 . S
Co47 O53 2.052 . S
Co47 O55 2.135 . S
O48 Co47 2.061 . S
O48 C51 1.235 . S
C49 O52 1.238 . S
C49 O53 1.241 . S
C50 O43 1.247 . S
C50 O44 1.261 . S
C51 O46 1.259 . S
C51 O48 1.235 . S
O52 Co42 2.021 . S
O52 C49 1.238 . S
O53 Co47 2.052 . S
O53 C49 1.241 . S
O54 Co42 2.137 . S
O54 C45 1.247 . S
O55 Co42 2.244 . S
O55 C45 1.272 . S
O55 Co47 2.135 . S
Co56 O57 2.216 . S
Co56 O58 2.091 . S
Co56 O60 2.004 . S
Co56 O66 2.021 . S
Co56 O68 2.137 . S
Co56 O69 2.244 . S
O57 Co56 2.216 . S
O57 C64 1.247 . S
O58 Co56 2.091 . S
O58 C64 1.261 . S
C59 O68 1.247 . S
C59 O69 1.272 . S
O60 Co56 2.004 . S
O60 C65 1.259 . S
Co61 O62 2.061 . S
Co61 O67 2.052 . S
Co61 O69 2.135 . S
O62 Co61 2.061 . S
O62 C65 1.235 . S
C63 O66 1.238 . S
C63 O67 1.241 . S
C64 O57 1.247 . S
C64 O58 1.261 . S
C65 O60 1.259 . S
C65 O62 1.235 . S
O66 Co56 2.021 . S
O66 C63 1.238 . S
O67 Co61 2.052 . S
O67 C63 1.241 . S
O68 Co56 2.137 . S
O68 C59 1.247 . S
O69 Co56 2.244 . S
O69 C59 1.272 . S
O69 Co61 2.135 . S
Co70 O71 2.216 . S
Co70 O72 2.091 . S
Co70 O74 2.004 . S
Co70 O80 2.021 . S
Co70 O82 2.137 . S
Co70 O83 2.244 . S
O71 Co70 2.216 . S
O71 C78 1.247 . S
O72 Co70 2.091 . S
O72 C78 1.261 . S
C73 O82 1.247 . S
C73 O83 1.272 . S
O74 Co70 2.004 . S
O74 C79 1.259 . S
Co75 O76 2.061 . S
Co75 O81 2.052 . S
Co75 O83 2.135 . S
O76 Co75 2.061 . S
O76 C79 1.235 . S
C77 O80 1.238 . S
C77 O81 1.241 . S
C78 O71 1.247 . S
C78 O72 1.261 . S
C79 O74 1.259 . S
C79 O76 1.235 . S
O80 Co70 2.021 . S
O80 C77 1.238 . S
O81 Co75 2.052 . S
O81 C77 1.241 . S
O82 Co70 2.137 . S
O82 C73 1.247 . S
O83 Co70 2.244 . S
O83 C73 1.272 . S
O83 Co75 2.135 . S
Co84 O85 2.216 . S
Co84 O86 2.091 . S
Co84 O88 2.004 . S
Co84 O94 2.021 . S
Co84 O96 2.137 . S
Co84 O97 2.244 . S
O85 Co84 2.216 . S
O85 C92 1.247 . S
O86 Co84 2.091 . S
O86 C92 1.261 . S
C87 O96 1.247 . S
C87 O97 1.272 . S
O88 Co84 2.004 . S
O88 C93 1.259 . S
Co89 O90 2.061 . S
Co89 O95 2.052 . S
Co89 O97 2.135 . S
O90 Co89 2.061 . S
O90 C93 1.235 . S
C91 O94 1.238 . S
C91 O95 1.241 . S
C92 O85 1.247 . S
C92 O86 1.261 . S
C93 O88 1.259 . S
C93 O90 1.235 . S
O94 Co84 2.021 . S
O94 C91 1.238 . S
O95 Co89 2.052 . S
O95 C91 1.241 . S
O96 Co84 2.137 . S
O96 C87 1.247 . S
O97 Co84 2.244 . S
O97 C87 1.272 . S
O97 Co89 2.135 . S
Co98 O99 2.216 . S
Co98 O100 2.091 . S
Co98 O102 2.004 . S
Co98 O108 2.021 . S
Co98 O110 2.137 . S
Co98 O111 2.244 . S
O99 Co98 2.216 . S
O99 C106 1.247 . S
O100 Co98 2.091 . S
O100 C106 1.261 . S
C101 O110 1.247 . S
C101 O111 1.272 . S
O102 Co98 2.004 . S
O102 C107 1.259 . S
Co103 O104 2.061 . S
Co103 O109 2.052 . S
Co103 O111 2.135 . S
O104 Co103 2.061 . S
O104 C107 1.235 . S
C105 O108 1.238 . S
C105 O109 1.241 . S
C106 O99 1.247 . S
C106 O100 1.261 . S
C107 O102 1.259 . S
C107 O104 1.235 . S
O108 Co98 2.021 . S
O108 C105 1.238 . S
O109 Co103 2.052 . S
O109 C105 1.241 . S
O110 Co98 2.137 . S
O110 C101 1.247 . S
O111 Co98 2.244 . S
O111 C101 1.272 . S
O111 Co103 2.135 . S
Co112 O113 2.216 . S
Co112 O114 2.091 . S
Co112 O116 2.004 . S
Co112 O122 2.021 . S
Co112 O124 2.137 . S
Co112 O125 2.244 . S
O113 Co112 2.216 . S
O113 C120 1.247 . S
O114 Co112 2.091 . S
O114 C120 1.261 . S
C115 O124 1.247 . S
C115 O125 1.272 . S
O116 Co112 2.004 . S
O116 C121 1.259 . S
Co117 O118 2.061 . S
Co117 O123 2.052 . S
Co117 O125 2.135 . S
O118 Co117 2.061 . S
O118 C121 1.235 . S
C119 O122 1.238 . S
C119 O123 1.241 . S
C120 O113 1.247 . S
C120 O114 1.261 . S
C121 O116 1.259 . S
C121 O118 1.235 . S
O122 Co112 2.021 . S
O122 C119 1.238 . S
O123 Co117 2.052 . S
O123 C119 1.241 . S
O124 Co112 2.137 . S
O124 C115 1.247 . S
O125 Co112 2.244 . S
O125 C115 1.272 . S
O125 Co117 2.135 . S
Co126 O127 2.216 . S
Co126 O128 2.091 . S
Co126 O130 2.004 . S
Co126 O136 2.021 . S
Co126 O138 2.137 . S
Co126 O139 2.244 . S
O127 Co126 2.216 . S
O127 C134 1.247 . S
O128 Co126 2.091 . S
O128 C134 1.261 . S
C129 O138 1.247 . S
C129 O139 1.272 . S
O130 Co126 2.004 . S
O130 C135 1.259 . S
Co131 O132 2.061 . S
Co131 O137 2.052 . S
Co131 O139 2.135 . S
O132 Co131 2.061 . S
O132 C135 1.235 . S
C133 O136 1.238 . S
C133 O137 1.241 . S
C134 O127 1.247 . S
C134 O128 1.261 . S
C135 O130 1.259 . S
C135 O132 1.235 . S
O136 Co126 2.021 . S
O136 C133 1.238 . S
O137 Co131 2.052 . S
O137 C133 1.241 . S
O138 Co126 2.137 . S
O138 C129 1.247 . S
O139 Co126 2.244 . S
O139 C129 1.272 . S
O139 Co131 2.135 . S
Co140 O141 2.216 . S
Co140 O142 2.091 . S
Co140 O144 2.004 . S
Co140 O150 2.021 . S
Co140 O152 2.137 . S
Co140 O153 2.244 . S
O141 Co140 2.216 . S
O141 C148 1.247 . S
O142 Co140 2.091 . S
O142 C148 1.261 . S
C143 O152 1.247 . S
C143 O153 1.272 . S
O144 Co140 2.004 . S
O144 C149 1.259 . S
Co145 O146 2.061 . S
Co145 O151 2.052 . S
Co145 O153 2.135 . S
O146 Co145 2.061 . S
O146 C149 1.235 . S
C147 O150 1.238 . S
C147 O151 1.241 . S
C148 O141 1.247 . S
C148 O142 1.261 . S
C149 O144 1.259 . S
C149 O146 1.235 . S
O150 Co140 2.021 . S
O150 C147 1.238 . S
O151 Co145 2.052 . S
O151 C147 1.241 . S
O152 Co140 2.137 . S
O152 C143 1.247 . S
O153 Co140 2.244 . S
O153 C143 1.272 . S
O153 Co145 2.135 . S
Co154 O155 2.216 . S
Co154 O156 2.091 . S
Co154 O158 2.004 . S
Co154 O164 2.021 . S
Co154 O166 2.137 . S
Co154 O167 2.244 . S
O155 Co154 2.216 . S
O155 C162 1.247 . S
O156 Co154 2.091 . S
O156 C162 1.261 . S
C157 O166 1.247 . S
C157 O167 1.272 . S
O158 Co154 2.004 . S
O158 C163 1.259 . S
Co159 O160 2.061 . S
Co159 O165 2.052 . S
Co159 O167 2.135 . S
O160 Co159 2.061 . S
O160 C163 1.235 . S
C161 O164 1.238 . S
C161 O165 1.241 . S
C162 O155 1.247 . S
C162 O156 1.261 . S
C163 O158 1.259 . S
C163 O160 1.235 . S
O164 Co154 2.021 . S
O164 C161 1.238 . S
O165 Co159 2.052 . S
O165 C161 1.241 . S
O166 Co154 2.137 . S
O166 C157 1.247 . S
O167 Co154 2.244 . S
O167 C157 1.272 . S
O167 Co159 2.135 . S
Co168 O169 2.216 . S
Co168 O170 2.091 . S
Co168 O172 2.004 . S
Co168 O178 2.021 . S
Co168 O180 2.137 . S
Co168 O181 2.244 . S
O169 Co168 2.216 . S
O169 C176 1.247 . S
O170 Co168 2.091 . S
O170 C176 1.261 . S
C171 O180 1.247 . S
C171 O181 1.272 . S
O172 Co168 2.004 . S
O172 C177 1.259 . S
Co173 O174 2.061 . S
Co173 O179 2.052 . S
Co173 O181 2.135 . S
O174 Co173 2.061 . S
O174 C177 1.235 . S
C175 O178 1.238 . S
C175 O179 1.241 . S
C176 O169 1.247 . S
C176 O170 1.261 . S
C177 O172 1.259 . S
C177 O174 1.235 . S
O178 Co168 2.021 . S
O178 C175 1.238 . S
O179 Co173 2.052 . S
O179 C175 1.241 . S
O180 Co168 2.137 . S
O180 C171 1.247 . S
O181 Co168 2.244 . S
O181 C171 1.272 . S
O181 Co173 2.135 . S
Co182 O183 2.216 . S
Co182 O184 2.091 . S
Co182 O186 2.004 . S
Co182 O192 2.021 . S
Co182 O194 2.137 . S
Co182 O195 2.244 . S
O183 Co182 2.216 . S
O183 C190 1.247 . S
O184 Co182 2.091 . S
O184 C190 1.261 . S
C185 O194 1.247 . S
C185 O195 1.272 . S
O186 Co182 2.004 . S
O186 C191 1.259 . S
Co187 O188 2.061 . S
Co187 O193 2.052 . S
Co187 O195 2.135 . S
O188 Co187 2.061 . S
O188 C191 1.235 . S
C189 O192 1.238 . S
C189 O193 1.241 . S
C190 O183 1.247 . S
C190 O184 1.261 . S
C191 O186 1.259 . S
C191 O188 1.235 . S
O192 Co182 2.021 . S
O192 C189 1.238 . S
O193 Co187 2.052 . S
O193 C189 1.241 . S
O194 Co182 2.137 . S
O194 C185 1.247 . S
O195 Co182 2.244 . S
O195 C185 1.272 . S
O195 Co187 2.135 . S
Co196 O197 2.216 . S
Co196 O198 2.091 . S
Co196 O200 2.004 . S
Co196 O206 2.021 . S
Co196 O208 2.137 . S
Co196 O209 2.244 . S
O197 Co196 2.216 . S
O197 C204 1.247 . S
O198 Co196 2.091 . S
O198 C204 1.261 . S
C199 O208 1.247 . S
C199 O209 1.272 . S
O200 Co196 2.004 . S
O200 C205 1.259 . S
Co201 O202 2.061 . S
Co201 O207 2.052 . S
Co201 O209 2.135 . S
O202 Co201 2.061 . S
O202 C205 1.235 . S
C203 O206 1.238 . S
C203 O207 1.241 . S
C204 O197 1.247 . S
C204 O198 1.261 . S
C205 O200 1.259 . S
C205 O202 1.235 . S
O206 Co196 2.021 . S
O206 C203 1.238 . S
O207 Co201 2.052 . S
O207 C203 1.241 . S
O208 Co196 2.137 . S
O208 C199 1.247 . S
O209 Co196 2.244 . S
O209 C199 1.272 . S
O209 Co201 2.135 . S
Co210 O211 2.216 . S
Co210 O212 2.091 . S
Co210 O214 2.004 . S
Co210 O220 2.021 . S
Co210 O222 2.137 . S
Co210 O223 2.244 . S
O211 Co210 2.216 . S
O211 C218 1.247 . S
O212 Co210 2.091 . S
O212 C218 1.261 . S
C213 O222 1.247 . S
C213 O223 1.272 . S
O214 Co210 2.004 . S
O214 C219 1.259 . S
Co215 O216 2.061 . S
Co215 O221 2.052 . S
Co215 O223 2.135 . S
O216 Co215 2.061 . S
O216 C219 1.235 . S
C217 O220 1.238 . S
C217 O221 1.241 . S
C218 O211 1.247 . S
C218 O212 1.261 . S
C219 O214 1.259 . S
C219 O216 1.235 . S
O220 Co210 2.021 . S
O220 C217 1.238 . S
O221 Co215 2.052 . S
O221 C217 1.241 . S
O222 Co210 2.137 . S
O222 C213 1.247 . S
O223 Co210 2.244 . S
O223 C213 1.272 . S
O223 Co215 2.135 . S
Co224 O225 2.216 . S
Co224 O226 2.091 . S
Co224 O228 2.004 . S
Co224 O234 2.021 . S
Co224 O236 2.137 . S
Co224 O237 2.244 . S
O225 Co224 2.216 . S
O225 C232 1.247 . S
O226 Co224 2.091 . S
O226 C232 1.261 . S
C227 O236 1.247 . S
C227 O237 1.272 . S
O228 Co224 2.004 . S
O228 C233 1.259 . S
Co229 O230 2.061 . S
Co229 O235 2.052 . S
Co229 O237 2.135 . S
O230 Co229 2.061 . S
O230 C233 1.235 . S
C231 O234 1.238 . S
C231 O235 1.241 . S
C232 O225 1.247 . S
C232 O226 1.261 . S
C233 O228 1.259 . S
C233 O230 1.235 . S
O234 Co224 2.021 . S
O234 C231 1.238 . S
O235 Co229 2.052 . S
O235 C231 1.241 . S
O236 Co224 2.137 . S
O236 C227 1.247 . S
O237 Co224 2.244 . S
O237 C227 1.272 . S
O237 Co229 2.135 . S
Co238 O239 2.216 . S
Co238 O240 2.091 . S
Co238 O242 2.004 . S
Co238 O248 2.021 . S
Co238 O250 2.137 . S
Co238 O251 2.244 . S
O239 Co238 2.216 . S
O239 C246 1.247 . S
O240 Co238 2.091 . S
O240 C246 1.261 . S
C241 O250 1.247 . S
C241 O251 1.272 . S
O242 Co238 2.004 . S
O242 C247 1.259 . S
Co243 O244 2.061 . S
Co243 O249 2.052 . S
Co243 O251 2.135 . S
O244 Co243 2.061 . S
O244 C247 1.235 . S
C245 O248 1.238 . S
C245 O249 1.241 . S
C246 O239 1.247 . S
C246 O240 1.261 . S
C247 O242 1.259 . S
C247 O244 1.235 . S
O248 Co238 2.021 . S
O248 C245 1.238 . S
O249 Co243 2.052 . S
O249 C245 1.241 . S
O250 Co238 2.137 . S
O250 C241 1.247 . S
O251 Co238 2.244 . S
O251 C241 1.272 . S
O251 Co243 2.135 . S
Co252 O253 2.216 . S
Co252 O254 2.091 . S
Co252 O256 2.004 . S
Co252 O262 2.021 . S
Co252 O264 2.137 . S
Co252 O265 2.244 . S
O253 Co252 2.216 . S
O253 C260 1.247 . S
O254 Co252 2.091 . S
O254 C260 1.261 . S
C255 O264 1.247 . S
C255 O265 1.272 . S
O256 Co252 2.004 . S
O256 C261 1.259 . S
Co257 O258 2.061 . S
Co257 O263 2.052 . S
Co257 O265 2.135 . S
O258 Co257 2.061 . S
O258 C261 1.235 . S
C259 O262 1.238 . S
C259 O263 1.241 . S
C260 O253 1.247 . S
C260 O254 1.261 . S
C261 O256 1.259 . S
C261 O258 1.235 . S
O262 Co252 2.021 . S
O262 C259 1.238 . S
O263 Co257 2.052 . S
O263 C259 1.241 . S
O264 Co252 2.137 . S
O264 C255 1.247 . S
O265 Co252 2.244 . S
O265 C255 1.272 . S
O265 Co257 2.135 . S
Co266 O267 2.216 . S
Co266 O268 2.091 . S
Co266 O270 2.004 . S
Co266 O276 2.021 . S
Co266 O278 2.137 . S
Co266 O279 2.244 . S
O267 Co266 2.216 . S
O267 C274 1.247 . S
O268 Co266 2.091 . S
O268 C274 1.261 . S
C269 O278 1.247 . S
C269 O279 1.272 . S
O270 Co266 2.004 . S
O270 C275 1.259 . S
Co271 O272 2.061 . S
Co271 O277 2.052 . S
Co271 O279 2.135 . S
O272 Co271 2.061 . S
O272 C275 1.235 . S
C273 O276 1.238 . S
C273 O277 1.241 . S
C274 O267 1.247 . S
C274 O268 1.261 . S
C275 O270 1.259 . S
C275 O272 1.235 . S
O276 Co266 2.021 . S
O276 C273 1.238 . S
O277 Co271 2.052 . S
O277 C273 1.241 . S
O278 Co266 2.137 . S
O278 C269 1.247 . S
O279 Co266 2.244 . S
O279 C269 1.272 . S
O279 Co271 2.135 . S
Co280 O281 2.216 . S
Co280 O282 2.091 . S
Co280 O284 2.004 . S
Co280 O290 2.021 . S
Co280 O292 2.137 . S
Co280 O293 2.244 . S
O281 Co280 2.216 . S
O281 C288 1.247 . S
O282 Co280 2.091 . S
O282 C288 1.261 . S
C283 O292 1.247 . S
C283 O293 1.272 . S
O284 Co280 2.004 . S
O284 C289 1.259 . S
Co285 O286 2.061 . S
Co285 O291 2.052 . S
Co285 O293 2.135 . S
O286 Co285 2.061 . S
O286 C289 1.235 . S
C287 O290 1.238 . S
C287 O291 1.241 . S
C288 O281 1.247 . S
C288 O282 1.261 . S
C289 O284 1.259 . S
C289 O286 1.235 . S
O290 Co280 2.021 . S
O290 C287 1.238 . S
O291 Co285 2.052 . S
O291 C287 1.241 . S
O292 Co280 2.137 . S
O292 C283 1.247 . S
O293 Co280 2.244 . S
O293 C283 1.272 . S
O293 Co285 2.135 . S
Co294 O295 2.216 . S
Co294 O296 2.091 . S
Co294 O298 2.004 . S
Co294 O304 2.021 . S
Co294 O306 2.137 . S
Co294 O307 2.244 . S
O295 Co294 2.216 . S
O295 C302 1.247 . S
O296 Co294 2.091 . S
O296 C302 1.261 . S
C297 O306 1.247 . S
C297 O307 1.272 . S
O298 Co294 2.004 . S
O298 C303 1.259 . S
Co299 O300 2.061 . S
Co299 O305 2.052 . S
Co299 O307 2.135 . S
O300 Co299 2.061 . S
O300 C303 1.235 . S
C301 O304 1.238 . S
C301 O305 1.241 . S
C302 O295 1.247 . S
C302 O296 1.261 . S
C303 O298 1.259 . S
C303 O300 1.235 . S
O304 Co294 2.021 . S
O304 C301 1.238 . S
O305 Co299 2.052 . S
O305 C301 1.241 . S
O306 Co294 2.137 . S
O306 C297 1.247 . S
O307 Co294 2.244 . S
O307 C297 1.272 . S
O307 Co299 2.135 . S
Co308 O309 2.216 . S
Co308 O310 2.091 . S
Co308 O312 2.004 . S
Co308 O318 2.021 . S
Co308 O320 2.137 . S
Co308 O321 2.244 . S
O309 Co308 2.216 . S
O309 C316 1.247 . S
O310 Co308 2.091 . S
O310 C316 1.261 . S
C311 O320 1.247 . S
C311 O321 1.272 . S
O312 Co308 2.004 . S
O312 C317 1.259 . S
Co313 O314 2.061 . S
Co313 O319 2.052 . S
Co313 O321 2.135 . S
O314 Co313 2.061 . S
O314 C317 1.235 . S
C315 O318 1.238 . S
C315 O319 1.241 . S
C316 O309 1.247 . S
C316 O310 1.261 . S
C317 O312 1.259 . S
C317 O314 1.235 . S
O318 Co308 2.021 . S
O318 C315 1.238 . S
O319 Co313 2.052 . S
O319 C315 1.241 . S
O320 Co308 2.137 . S
O320 C311 1.247 . S
O321 Co308 2.244 . S
O321 C311 1.272 . S
O321 Co313 2.135 . S
Co322 O323 2.216 . S
Co322 O324 2.091 . S
Co322 O326 2.004 . S
Co322 O332 2.021 . S
Co322 O334 2.137 . S
Co322 O335 2.244 . S
O323 Co322 2.216 . S
O323 C330 1.247 . S
O324 Co322 2.091 . S
O324 C330 1.261 . S
C325 O334 1.247 . S
C325 O335 1.272 . S
O326 Co322 2.004 . S
O326 C331 1.259 . S
Co327 O328 2.061 . S
Co327 O333 2.052 . S
Co327 O335 2.135 . S
O328 Co327 2.061 . S
O328 C331 1.235 . S
C329 O332 1.238 . S
C329 O333 1.241 . S
C330 O323 1.247 . S
C330 O324 1.261 . S
C331 O326 1.259 . S
C331 O328 1.235 . S
O332 Co322 2.021 . S
O332 C329 1.238 . S
O333 Co327 2.052 . S
O333 C329 1.241 . S
O334 Co322 2.137 . S
O334 C325 1.247 . S
O335 Co322 2.244 . S
O335 C325 1.272 . S
O335 Co327 2.135 . S
C336 C337 1.391 . S
C336 C338 1.394 . S
C336 H352 0.931 . S
C337 C336 1.391 . S
C337 C341 1.376 . S
C338 C336 1.394 . S
C338 C339 1.369 . S
C338 C342 1.531 . S
C339 C338 1.369 . S
C339 C340 1.410 . S
C339 C347 1.503 . S
C340 C339 1.410 . S
C340 C341 1.392 . S
C340 C343 1.511 . S
C341 C337 1.376 . S
C341 C340 1.392 . S
C341 H353 0.929 . S
C342 C338 1.531 . S
C342 H354 0.960 . S
C342 H355 0.962 . S
C342 H356 0.960 . S
C343 C340 1.511 . S
C343 H357 0.961 . S
C343 H358 0.961 . S
C343 H359 0.961 . S
C344 C345 1.370 . S
C344 C346 1.363 . S
C344 H360 0.931 . S
C345 C344 1.370 . S
C345 C349 1.408 . S
C346 C344 1.363 . S
C346 C347 1.370 . S
C346 C350 1.524 . S
C347 C339 1.503 . S
C347 C346 1.370 . S
C347 C348 1.403 . S
C348 C347 1.403 . S
C348 C349 1.404 . S
C348 C351 1.539 . S
C349 C345 1.408 . S
C349 C348 1.404 . S
C349 H361 0.930 . S
C350 C346 1.524 . S
C350 H362 0.956 . S
C350 H363 0.961 . S
C350 H364 0.961 . S
C351 C348 1.539 . S
C351 H365 0.958 . S
C351 H366 0.961 . S
C351 H367 0.960 . S
H352 C336 0.931 . S
H353 C341 0.929 . S
H354 C342 0.960 . S
H355 C342 0.962 . S
H356 C342 0.960 . S
H357 C343 0.961 . S
H358 C343 0.961 . S
H359 C343 0.961 . S
H360 C344 0.931 . S
H361 C349 0.930 . S
H362 C350 0.956 . S
H363 C350 0.961 . S
H364 C350 0.961 . S
H365 C351 0.958 . S
H366 C351 0.961 . S
H367 C351 0.960 . S
C368 C369 1.391 . S
C368 C370 1.394 . S
C368 H384 0.931 . S
C369 C368 1.391 . S
C369 C373 1.376 . S
C370 C368 1.394 . S
C370 C371 1.369 . S
C370 C374 1.531 . S
C371 C370 1.369 . S
C371 C372 1.410 . S
C371 C379 1.503 . S
C372 C371 1.410 . S
C372 C373 1.392 . S
C372 C375 1.511 . S
C373 C369 1.376 . S
C373 C372 1.392 . S
C373 H385 0.929 . S
C374 C370 1.531 . S
C374 H386 0.960 . S
C374 H387 0.962 . S
C374 H388 0.960 . S
C375 C372 1.511 . S
C375 H389 0.961 . S
C375 H390 0.961 . S
C375 H391 0.961 . S
C376 C377 1.370 . S
C376 C378 1.363 . S
C376 H392 0.931 . S
C377 C376 1.370 . S
C377 C381 1.408 . S
C378 C376 1.363 . S
C378 C379 1.370 . S
C378 C382 1.524 . S
C379 C371 1.503 . S
C379 C378 1.370 . S
C379 C380 1.403 . S
C380 C379 1.403 . S
C380 C381 1.404 . S
C380 C383 1.539 . S
C381 C377 1.408 . S
C381 C380 1.404 . S
C381 H393 0.930 . S
C382 C378 1.524 . S
C382 H394 0.956 . S
C382 H395 0.961 . S
C382 H396 0.961 . S
C383 C380 1.539 . S
C383 H397 0.958 . S
C383 H398 0.961 . S
C383 H399 0.960 . S
H384 C368 0.931 . S
H385 C373 0.929 . S
H386 C374 0.960 . S
H387 C374 0.962 . S
H388 C374 0.960 . S
H389 C375 0.961 . S
H390 C375 0.961 . S
H391 C375 0.961 . S
H392 C376 0.931 . S
H393 C381 0.930 . S
H394 C382 0.956 . S
H395 C382 0.961 . S
H396 C382 0.961 . S
H397 C383 0.958 . S
H398 C383 0.961 . S
H399 C383 0.960 . S
C400 C401 1.391 . S
C400 C402 1.394 . S
C400 H416 0.931 . S
C401 C400 1.391 . S
C401 C405 1.376 . S
C402 C400 1.394 . S
C402 C403 1.369 . S
C402 C406 1.531 . S
C403 C402 1.369 . S
C403 C404 1.410 . S
C403 C411 1.503 . S
C404 C403 1.410 . S
C404 C405 1.392 . S
C404 C407 1.511 . S
C405 C401 1.376 . S
C405 C404 1.392 . S
C405 H417 0.929 . S
C406 C402 1.531 . S
C406 H418 0.960 . S
C406 H419 0.962 . S
C406 H420 0.960 . S
C407 C404 1.511 . S
C407 H421 0.961 . S
C407 H422 0.961 . S
C407 H423 0.961 . S
C408 C409 1.370 . S
C408 C410 1.363 . S
C408 H424 0.931 . S
C409 C408 1.370 . S
C409 C413 1.408 . S
C410 C408 1.363 . S
C410 C411 1.370 . S
C410 C414 1.524 . S
C411 C403 1.503 . S
C411 C410 1.370 . S
C411 C412 1.403 . S
C412 C411 1.403 . S
C412 C413 1.404 . S
C412 C415 1.539 . S
C413 C409 1.408 . S
C413 C412 1.404 . S
C413 H425 0.930 . S
C414 C410 1.524 . S
C414 H426 0.956 . S
C414 H427 0.961 . S
C414 H428 0.961 . S
C415 C412 1.539 . S
C415 H429 0.958 . S
C415 H430 0.961 . S
C415 H431 0.960 . S
H416 C400 0.931 . S
H417 C405 0.929 . S
H418 C406 0.960 . S
H419 C406 0.962 . S
H420 C406 0.960 . S
H421 C407 0.961 . S
H422 C407 0.961 . S
H423 C407 0.961 . S
H424 C408 0.931 . S
H425 C413 0.930 . S
H426 C414 0.956 . S
H427 C414 0.961 . S
H428 C414 0.961 . S
H429 C415 0.958 . S
H430 C415 0.961 . S
H431 C415 0.960 . S
C432 C433 1.391 . S
C432 C434 1.394 . S
C432 H448 0.931 . S
C433 C432 1.391 . S
C433 C437 1.376 . S
C434 C432 1.394 . S
C434 C435 1.369 . S
C434 C438 1.531 . S
C435 C434 1.369 . S
C435 C436 1.410 . S
C435 C443 1.503 . S
C436 C435 1.410 . S
C436 C437 1.392 . S
C436 C439 1.511 . S
C437 C433 1.376 . S
C437 C436 1.392 . S
C437 H449 0.929 . S
C438 C434 1.531 . S
C438 H450 0.960 . S
C438 H451 0.962 . S
C438 H452 0.960 . S
C439 C436 1.511 . S
C439 H453 0.961 . S
C439 H454 0.961 . S
C439 H455 0.961 . S
C440 C441 1.370 . S
C440 C442 1.363 . S
C440 H456 0.931 . S
C441 C440 1.370 . S
C441 C445 1.408 . S
C442 C440 1.363 . S
C442 C443 1.370 . S
C442 C446 1.524 . S
C443 C435 1.503 . S
C443 C442 1.370 . S
C443 C444 1.403 . S
C444 C443 1.403 . S
C444 C445 1.404 . S
C444 C447 1.539 . S
C445 C441 1.408 . S
C445 C444 1.404 . S
C445 H457 0.930 . S
C446 C442 1.524 . S
C446 H458 0.956 . S
C446 H459 0.961 . S
C446 H460 0.961 . S
C447 C444 1.539 . S
C447 H461 0.958 . S
C447 H462 0.961 . S
C447 H463 0.960 . S
H448 C432 0.931 . S
H449 C437 0.929 . S
H450 C438 0.960 . S
H451 C438 0.962 . S
H452 C438 0.960 . S
H453 C439 0.961 . S
H454 C439 0.961 . S
H455 C439 0.961 . S
H456 C440 0.931 . S
H457 C445 0.930 . S
H458 C446 0.956 . S
H459 C446 0.961 . S
H460 C446 0.961 . S
H461 C447 0.958 . S
H462 C447 0.961 . S
H463 C447 0.960 . S
C464 C465 1.391 . S
C464 C466 1.394 . S
C464 H480 0.931 . S
C465 C464 1.391 . S
C465 C469 1.376 . S
C466 C464 1.394 . S
C466 C467 1.369 . S
C466 C470 1.531 . S
C467 C466 1.369 . S
C467 C468 1.410 . S
C467 C475 1.503 . S
C468 C467 1.410 . S
C468 C469 1.392 . S
C468 C471 1.511 . S
C469 C465 1.376 . S
C469 C468 1.392 . S
C469 H481 0.929 . S
C470 C466 1.531 . S
C470 H482 0.960 . S
C470 H483 0.962 . S
C470 H484 0.960 . S
C471 C468 1.511 . S
C471 H485 0.961 . S
C471 H486 0.961 . S
C471 H487 0.961 . S
C472 C473 1.370 . S
C472 C474 1.363 . S
C472 H488 0.931 . S
C473 C472 1.370 . S
C473 C477 1.408 . S
C474 C472 1.363 . S
C474 C475 1.370 . S
C474 C478 1.524 . S
C475 C467 1.503 . S
C475 C474 1.370 . S
C475 C476 1.403 . S
C476 C475 1.403 . S
C476 C477 1.404 . S
C476 C479 1.539 . S
C477 C473 1.408 . S
C477 C476 1.404 . S
C477 H489 0.930 . S
C478 C474 1.524 . S
C478 H490 0.956 . S
C478 H491 0.961 . S
C478 H492 0.961 . S
C479 C476 1.539 . S
C479 H493 0.958 . S
C479 H494 0.961 . S
C479 H495 0.960 . S
H480 C464 0.931 . S
H481 C469 0.929 . S
H482 C470 0.960 . S
H483 C470 0.962 . S
H484 C470 0.960 . S
H485 C471 0.961 . S
H486 C471 0.961 . S
H487 C471 0.961 . S
H488 C472 0.931 . S
H489 C477 0.930 . S
H490 C478 0.956 . S
H491 C478 0.961 . S
H492 C478 0.961 . S
H493 C479 0.958 . S
H494 C479 0.961 . S
H495 C479 0.960 . S
C496 C497 1.391 . S
C496 C498 1.394 . S
C496 H512 0.931 . S
C497 C496 1.391 . S
C497 C501 1.376 . S
C498 C496 1.394 . S
C498 C499 1.369 . S
C498 C502 1.531 . S
C499 C498 1.369 . S
C499 C500 1.410 . S
C499 C507 1.503 . S
C500 C499 1.410 . S
C500 C501 1.392 . S
C500 C503 1.511 . S
C501 C497 1.376 . S
C501 C500 1.392 . S
C501 H513 0.929 . S
C502 C498 1.531 . S
C502 H514 0.960 . S
C502 H515 0.962 . S
C502 H516 0.960 . S
C503 C500 1.511 . S
C503 H517 0.961 . S
C503 H518 0.961 . S
C503 H519 0.961 . S
C504 C505 1.370 . S
C504 C506 1.363 . S
C504 H520 0.931 . S
C505 C504 1.370 . S
C505 C509 1.408 . S
C506 C504 1.363 . S
C506 C507 1.370 . S
C506 C510 1.524 . S
C507 C499 1.503 . S
C507 C506 1.370 . S
C507 C508 1.403 . S
C508 C507 1.403 . S
C508 C509 1.404 . S
C508 C511 1.539 . S
C509 C505 1.408 . S
C509 C508 1.404 . S
C509 H521 0.930 . S
C510 C506 1.524 . S
C510 H522 0.956 . S
C510 H523 0.961 . S
C510 H524 0.961 . S
C511 C508 1.539 . S
C511 H525 0.958 . S
C511 H526 0.961 . S
C511 H527 0.960 . S
H512 C496 0.931 . S
H513 C501 0.929 . S
H514 C502 0.960 . S
H515 C502 0.962 . S
H516 C502 0.960 . S
H517 C503 0.961 . S
H518 C503 0.961 . S
H519 C503 0.961 . S
H520 C504 0.931 . S
H521 C509 0.930 . S
H522 C510 0.956 . S
H523 C510 0.961 . S
H524 C510 0.961 . S
H525 C511 0.958 . S
H526 C511 0.961 . S
H527 C511 0.960 . S
C528 C529 1.391 . S
C528 C530 1.394 . S
C528 H544 0.931 . S
C529 C528 1.391 . S
C529 C533 1.376 . S
C530 C528 1.394 . S
C530 C531 1.369 . S
C530 C534 1.531 . S
C531 C530 1.369 . S
C531 C532 1.410 . S
C531 C539 1.503 . S
C532 C531 1.410 . S
C532 C533 1.392 . S
C532 C535 1.511 . S
C533 C529 1.376 . S
C533 C532 1.392 . S
C533 H545 0.929 . S
C534 C530 1.531 . S
C534 H546 0.960 . S
C534 H547 0.962 . S
C534 H548 0.960 . S
C535 C532 1.511 . S
C535 H549 0.961 . S
C535 H550 0.961 . S
C535 H551 0.961 . S
C536 C537 1.370 . S
C536 C538 1.363 . S
C536 H552 0.931 . S
C537 C536 1.370 . S
C537 C541 1.408 . S
C538 C536 1.363 . S
C538 C539 1.370 . S
C538 C542 1.524 . S
C539 C531 1.503 . S
C539 C538 1.370 . S
C539 C540 1.403 . S
C540 C539 1.403 . S
C540 C541 1.404 . S
C540 C543 1.539 . S
C541 C537 1.408 . S
C541 C540 1.404 . S
C541 H553 0.930 . S
C542 C538 1.524 . S
C542 H554 0.956 . S
C542 H555 0.961 . S
C542 H556 0.961 . S
C543 C540 1.539 . S
C543 H557 0.958 . S
C543 H558 0.961 . S
C543 H559 0.960 . S
H544 C528 0.931 . S
H545 C533 0.929 . S
H546 C534 0.960 . S
H547 C534 0.962 . S
H548 C534 0.960 . S
H549 C535 0.961 . S
H550 C535 0.961 . S
H551 C535 0.961 . S
H552 C536 0.931 . S
H553 C541 0.930 . S
H554 C542 0.956 . S
H555 C542 0.961 . S
H556 C542 0.961 . S
H557 C543 0.958 . S
H558 C543 0.961 . S
H559 C543 0.960 . S
C560 C561 1.391 . S
C560 C562 1.394 . S
C560 H576 0.931 . S
C561 C560 1.391 . S
C561 C565 1.376 . S
C562 C560 1.394 . S
C562 C563 1.369 . S
C562 C566 1.531 . S
C563 C562 1.369 . S
C563 C564 1.410 . S
C563 C571 1.503 . S
C564 C563 1.410 . S
C564 C565 1.392 . S
C564 C567 1.511 . S
C565 C561 1.376 . S
C565 C564 1.392 . S
C565 H577 0.929 . S
C566 C562 1.531 . S
C566 H578 0.960 . S
C566 H579 0.962 . S
C566 H580 0.960 . S
C567 C564 1.511 . S
C567 H581 0.961 . S
C567 H582 0.961 . S
C567 H583 0.961 . S
C568 C569 1.370 . S
C568 C570 1.363 . S
C568 H584 0.931 . S
C569 C568 1.370 . S
C569 C573 1.408 . S
C570 C568 1.363 . S
C570 C571 1.370 . S
C570 C574 1.524 . S
C571 C563 1.503 . S
C571 C570 1.370 . S
C571 C572 1.403 . S
C572 C571 1.403 . S
C572 C573 1.404 . S
C572 C575 1.539 . S
C573 C569 1.408 . S
C573 C572 1.404 . S
C573 H585 0.930 . S
C574 C570 1.524 . S
C574 H586 0.956 . S
C574 H587 0.961 . S
C574 H588 0.961 . S
C575 C572 1.539 . S
C575 H589 0.958 . S
C575 H590 0.961 . S
C575 H591 0.960 . S
H576 C560 0.931 . S
H577 C565 0.929 . S
H578 C566 0.960 . S
H579 C566 0.962 . S
H580 C566 0.960 . S
H581 C567 0.961 . S
H582 C567 0.961 . S
H583 C567 0.961 . S
H584 C568 0.931 . S
H585 C573 0.930 . S
H586 C574 0.956 . S
H587 C574 0.961 . S
H588 C574 0.961 . S
H589 C575 0.958 . S
H590 C575 0.961 . S
H591 C575 0.960 . S
C592 C593 1.391 . S
C592 C594 1.394 . S
C592 H608 0.931 . S
C593 C592 1.391 . S
C593 C597 1.376 . S
C594 C592 1.394 . S
C594 C595 1.369 . S
C594 C598 1.531 . S
C595 C594 1.369 . S
C595 C596 1.410 . S
C595 C603 1.503 . S
C596 C595 1.410 . S
C596 C597 1.392 . S
C596 C599 1.511 . S
C597 C593 1.376 . S
C597 C596 1.392 . S
C597 H609 0.929 . S
C598 C594 1.531 . S
C598 H610 0.960 . S
C598 H611 0.962 . S
C598 H612 0.960 . S
C599 C596 1.511 . S
C599 H613 0.961 . S
C599 H614 0.961 . S
C599 H615 0.961 . S
C600 C601 1.370 . S
C600 C602 1.363 . S
C600 H616 0.931 . S
C601 C600 1.370 . S
C601 C605 1.408 . S
C602 C600 1.363 . S
C602 C603 1.370 . S
C602 C606 1.524 . S
C603 C595 1.503 . S
C603 C602 1.370 . S
C603 C604 1.403 . S
C604 C603 1.403 . S
C604 C605 1.404 . S
C604 C607 1.539 . S
C605 C601 1.408 . S
C605 C604 1.404 . S
C605 H617 0.930 . S
C606 C602 1.524 . S
C606 H618 0.956 . S
C606 H619 0.961 . S
C606 H620 0.961 . S
C607 C604 1.539 . S
C607 H621 0.958 . S
C607 H622 0.961 . S
C607 H623 0.960 . S
H608 C592 0.931 . S
H609 C597 0.929 . S
H610 C598 0.960 . S
H611 C598 0.962 . S
H612 C598 0.960 . S
H613 C599 0.961 . S
H614 C599 0.961 . S
H615 C599 0.961 . S
H616 C600 0.931 . S
H617 C605 0.930 . S
H618 C606 0.956 . S
H619 C606 0.961 . S
H620 C606 0.961 . S
H621 C607 0.958 . S
H622 C607 0.961 . S
H623 C607 0.960 . S
C624 C625 1.391 . S
C624 C626 1.394 . S
C624 H640 0.931 . S
C625 C624 1.391 . S
C625 C629 1.376 . S
C626 C624 1.394 . S
C626 C627 1.369 . S
C626 C630 1.531 . S
C627 C626 1.369 . S
C627 C628 1.410 . S
C627 C635 1.503 . S
C628 C627 1.410 . S
C628 C629 1.392 . S
C628 C631 1.511 . S
C629 C625 1.376 . S
C629 C628 1.392 . S
C629 H641 0.929 . S
C630 C626 1.531 . S
C630 H642 0.960 . S
C630 H643 0.962 . S
C630 H644 0.960 . S
C631 C628 1.511 . S
C631 H645 0.961 . S
C631 H646 0.961 . S
C631 H647 0.961 . S
C632 C633 1.370 . S
C632 C634 1.363 . S
C632 H648 0.931 . S
C633 C632 1.370 . S
C633 C637 1.408 . S
C634 C632 1.363 . S
C634 C635 1.370 . S
C634 C638 1.524 . S
C635 C627 1.503 . S
C635 C634 1.370 . S
C635 C636 1.403 . S
C636 C635 1.403 . S
C636 C637 1.404 . S
C636 C639 1.539 . S
C637 C633 1.408 . S
C637 C636 1.404 . S
C637 H649 0.930 . S
C638 C634 1.524 . S
C638 H650 0.956 . S
C638 H651 0.961 . S
C638 H652 0.961 . S
C639 C636 1.539 . S
C639 H653 0.958 . S
C639 H654 0.961 . S
C639 H655 0.960 . S
H640 C624 0.931 . S
H641 C629 0.929 . S
H642 C630 0.960 . S
H643 C630 0.962 . S
H644 C630 0.960 . S
H645 C631 0.961 . S
H646 C631 0.961 . S
H647 C631 0.961 . S
H648 C632 0.931 . S
H649 C637 0.930 . S
H650 C638 0.956 . S
H651 C638 0.961 . S
H652 C638 0.961 . S
H653 C639 0.958 . S
H654 C639 0.961 . S
H655 C639 0.960 . S
C656 C657 1.391 . S
C656 C658 1.394 . S
C656 H672 0.931 . S
C657 C656 1.391 . S
C657 C661 1.376 . S
C658 C656 1.394 . S
C658 C659 1.369 . S
C658 C662 1.531 . S
C659 C658 1.369 . S
C659 C660 1.410 . S
C659 C667 1.503 . S
C660 C659 1.410 . S
C660 C661 1.392 . S
C660 C663 1.511 . S
C661 C657 1.376 . S
C661 C660 1.392 . S
C661 H673 0.929 . S
C662 C658 1.531 . S
C662 H674 0.960 . S
C662 H675 0.962 . S
C662 H676 0.960 . S
C663 C660 1.511 . S
C663 H677 0.961 . S
C663 H678 0.961 . S
C663 H679 0.961 . S
C664 C665 1.370 . S
C664 C666 1.363 . S
C664 H680 0.931 . S
C665 C664 1.370 . S
C665 C669 1.408 . S
C666 C664 1.363 . S
C666 C667 1.370 . S
C666 C670 1.524 . S
C667 C659 1.503 . S
C667 C666 1.370 . S
C667 C668 1.403 . S
C668 C667 1.403 . S
C668 C669 1.404 . S
C668 C671 1.539 . S
C669 C665 1.408 . S
C669 C668 1.404 . S
C669 H681 0.930 . S
C670 C666 1.524 . S
C670 H682 0.956 . S
C670 H683 0.961 . S
C670 H684 0.961 . S
C671 C668 1.539 . S
C671 H685 0.958 . S
C671 H686 0.961 . S
C671 H687 0.960 . S
H672 C656 0.931 . S
H673 C661 0.929 . S
H674 C662 0.960 . S
H675 C662 0.962 . S
H676 C662 0.960 . S
H677 C663 0.961 . S
H678 C663 0.961 . S
H679 C663 0.961 . S
H680 C664 0.931 . S
H681 C669 0.930 . S
H682 C670 0.956 . S
H683 C670 0.961 . S
H684 C670 0.961 . S
H685 C671 0.958 . S
H686 C671 0.961 . S
H687 C671 0.960 . S
C688 C689 1.391 . S
C688 C690 1.394 . S
C688 H704 0.931 . S
C689 C688 1.391 . S
C689 C693 1.376 . S
C690 C688 1.394 . S
C690 C691 1.369 . S
C690 C694 1.531 . S
C691 C690 1.369 . S
C691 C692 1.410 . S
C691 C699 1.503 . S
C692 C691 1.410 . S
C692 C693 1.392 . S
C692 C695 1.511 . S
C693 C689 1.376 . S
C693 C692 1.392 . S
C693 H705 0.929 . S
C694 C690 1.531 . S
C694 H706 0.960 . S
C694 H707 0.962 . S
C694 H708 0.960 . S
C695 C692 1.511 . S
C695 H709 0.961 . S
C695 H710 0.961 . S
C695 H711 0.961 . S
C696 C697 1.370 . S
C696 C698 1.363 . S
C696 H712 0.931 . S
C697 C696 1.370 . S
C697 C701 1.408 . S
C698 C696 1.363 . S
C698 C699 1.370 . S
C698 C702 1.524 . S
C699 C691 1.503 . S
C699 C698 1.370 . S
C699 C700 1.403 . S
C700 C699 1.403 . S
C700 C701 1.404 . S
C700 C703 1.539 . S
C701 C697 1.408 . S
C701 C700 1.404 . S
C701 H713 0.930 . S
C702 C698 1.524 . S
C702 H714 0.956 . S
C702 H715 0.961 . S
C702 H716 0.961 . S
C703 C700 1.539 . S
C703 H717 0.958 . S
C703 H718 0.961 . S
C703 H719 0.960 . S
H704 C688 0.931 . S
H705 C693 0.929 . S
H706 C694 0.960 . S
H707 C694 0.962 . S
H708 C694 0.960 . S
H709 C695 0.961 . S
H710 C695 0.961 . S
H711 C695 0.961 . S
H712 C696 0.931 . S
H713 C701 0.930 . S
H714 C702 0.956 . S
H715 C702 0.961 . S
H716 C702 0.961 . S
H717 C703 0.958 . S
H718 C703 0.961 . S
H719 C703 0.960 . S
C720 C721 1.391 . S
C720 C722 1.394 . S
C720 H736 0.931 . S
C721 C720 1.391 . S
C721 C725 1.376 1_565 S
C722 C720 1.394 . S
C722 C723 1.369 1_565 S
C722 C726 1.531 . S
C723 C722 1.369 1_545 S
C723 C724 1.410 . S
C723 C731 1.503 . S
C724 C723 1.410 . S
C724 C725 1.392 . S
C724 C727 1.511 . S
C725 C721 1.376 1_545 S
C725 C724 1.392 . S
C725 H737 0.929 . S
C726 C722 1.531 . S
C726 H738 0.960 . S
C726 H739 0.962 . S
C726 H740 0.960 . S
C727 C724 1.511 . S
C727 H741 0.961 . S
C727 H742 0.961 . S
C727 H743 0.961 . S
C728 C729 1.370 . S
C728 C730 1.363 . S
C728 H744 0.931 . S
C729 C728 1.370 . S
C729 C733 1.408 . S
C730 C728 1.363 . S
C730 C731 1.370 . S
C730 C734 1.524 . S
C731 C723 1.503 . S
C731 C730 1.370 . S
C731 C732 1.403 . S
C732 C731 1.403 . S
C732 C733 1.404 . S
C732 C735 1.539 . S
C733 C729 1.408 . S
C733 C732 1.404 . S
C733 H745 0.930 . S
C734 C730 1.524 . S
C734 H746 0.956 . S
C734 H747 0.961 . S
C734 H748 0.961 . S
C735 C732 1.539 . S
C735 H749 0.958 . S
C735 H750 0.961 . S
C735 H751 0.960 . S
H736 C720 0.931 . S
H737 C725 0.929 . S
H738 C726 0.960 . S
H739 C726 0.962 . S
H740 C726 0.960 . S
H741 C727 0.961 . S
H742 C727 0.961 . S
H743 C727 0.961 . S
H744 C728 0.931 . S
H745 C733 0.930 . S
H746 C734 0.956 . S
H747 C734 0.961 . S
H748 C734 0.961 . S
H749 C735 0.958 . S
H750 C735 0.961 . S
H751 C735 0.960 . S
C752 C753 1.391 . S
C752 C754 1.394 . S
C752 H768 0.931 . S
C753 C752 1.391 . S
C753 C757 1.376 1_655 S
C754 C752 1.394 . S
C754 C755 1.369 1_655 S
C754 C758 1.531 . S
C755 C754 1.369 1_455 S
C755 C756 1.410 . S
C755 C763 1.503 . S
C756 C755 1.410 . S
C756 C757 1.392 . S
C756 C759 1.511 . S
C757 C753 1.376 1_455 S
C757 C756 1.392 . S
C757 H769 0.929 . S
C758 C754 1.531 . S
C758 H770 0.960 . S
C758 H771 0.962 . S
C758 H772 0.960 . S
C759 C756 1.511 . S
C759 H773 0.961 . S
C759 H774 0.961 . S
C759 H775 0.961 . S
C760 C761 1.370 . S
C760 C762 1.363 . S
C760 H776 0.931 . S
C761 C760 1.370 . S
C761 C765 1.408 . S
C762 C760 1.363 . S
C762 C763 1.370 . S
C762 C766 1.524 . S
C763 C755 1.503 . S
C763 C762 1.370 . S
C763 C764 1.403 . S
C764 C763 1.403 . S
C764 C765 1.404 . S
C764 C767 1.539 . S
C765 C761 1.408 . S
C765 C764 1.404 . S
C765 H777 0.930 . S
C766 C762 1.524 . S
C766 H778 0.956 . S
C766 H779 0.961 . S
C766 H780 0.961 . S
C767 C764 1.539 . S
C767 H781 0.958 . S
C767 H782 0.961 . S
C767 H783 0.960 . S
H768 C752 0.931 . S
H769 C757 0.929 . S
H770 C758 0.960 . S
H771 C758 0.962 . S
H772 C758 0.960 . S
H773 C759 0.961 . S
H774 C759 0.961 . S
H775 C759 0.961 . S
H776 C760 0.931 . S
H777 C765 0.930 . S
H778 C766 0.956 . S
H779 C766 0.961 . S
H780 C766 0.961 . S
H781 C767 0.958 . S
H782 C767 0.961 . S
H783 C767 0.960 . S
C784 C785 1.391 . S
C784 C786 1.394 1_545 S
C784 H800 0.931 . S
C785 C784 1.391 . S
C785 C789 1.376 . S
C786 C784 1.394 1_565 S
C786 C787 1.369 . S
C786 C790 1.531 . S
C787 C786 1.369 . S
C787 C788 1.410 . S
C787 C795 1.503 . S
C788 C787 1.410 . S
C788 C789 1.392 1_565 S
C788 C791 1.511 . S
C789 C785 1.376 . S
C789 C788 1.392 1_545 S
C789 H801 0.929 . S
C790 C786 1.531 . S
C790 H802 0.960 . S
C790 H803 0.962 . S
C790 H804 0.960 . S
C791 C788 1.511 . S
C791 H805 0.961 . S
C791 H806 0.961 . S
C791 H807 0.961 . S
C792 C793 1.370 . S
C792 C794 1.363 . S
C792 H808 0.931 . S
C793 C792 1.370 . S
C793 C797 1.408 . S
C794 C792 1.363 . S
C794 C795 1.370 . S
C794 C798 1.524 1_565 S
C795 C787 1.503 . S
C795 C794 1.370 . S
C795 C796 1.403 . S
C796 C795 1.403 . S
C796 C797 1.404 . S
C796 C799 1.539 . S
C797 C793 1.408 . S
C797 C796 1.404 . S
C797 H809 0.930 . S
C798 C794 1.524 1_545 S
C798 H810 0.956 . S
C798 H811 0.961 . S
C798 H812 0.961 . S
C799 C796 1.539 . S
C799 H813 0.958 . S
C799 H814 0.961 . S
C799 H815 0.960 . S
H800 C784 0.931 . S
H801 C789 0.929 . S
H802 C790 0.960 . S
H803 C790 0.962 . S
H804 C790 0.960 . S
H805 C791 0.961 . S
H806 C791 0.961 . S
H807 C791 0.961 . S
H808 C792 0.931 . S
H809 C797 0.930 . S
H810 C798 0.956 . S
H811 C798 0.961 . S
H812 C798 0.961 . S
H813 C799 0.958 . S
H814 C799 0.961 . S
H815 C799 0.960 . S
C816 C817 1.391 1_655 S
C816 C818 1.394 . S
C816 H832 0.931 . S
C817 C816 1.391 1_455 S
C817 C821 1.376 . S
C818 C816 1.394 . S
C818 C819 1.369 . S
C818 C822 1.531 . S
C819 C818 1.369 . S
C819 C820 1.410 1_655 S
C819 C827 1.503 . S
C820 C819 1.410 1_455 S
C820 C821 1.392 . S
C820 C823 1.511 . S
C821 C817 1.376 . S
C821 C820 1.392 . S
C821 H833 0.929 . S
C822 C818 1.531 . S
C822 H834 0.960 . S
C822 H835 0.962 . S
C822 H836 0.960 . S
C823 C820 1.511 . S
C823 H837 0.961 . S
C823 H838 0.961 . S
C823 H839 0.961 . S
C824 C825 1.370 . S
C824 C826 1.363 . S
C824 H840 0.931 . S
C825 C824 1.370 . S
C825 C829 1.408 . S
C826 C824 1.363 . S
C826 C827 1.370 . S
C826 C830 1.524 . S
C827 C819 1.503 . S
C827 C826 1.370 . S
C827 C828 1.403 . S
C828 C827 1.403 . S
C828 C829 1.404 . S
C828 C831 1.539 . S
C829 C825 1.408 . S
C829 C828 1.404 . S
C829 H841 0.930 . S
C830 C826 1.524 . S
C830 H842 0.956 . S
C830 H843 0.961 . S
C830 H844 0.961 . S
C831 C828 1.539 . S
C831 H845 0.958 . S
C831 H846 0.967 . S
C831 H847 0.960 1_655 S
H832 C816 0.931 . S
H833 C821 0.929 . S
H834 C822 0.960 . S
H835 C822 0.962 . S
H836 C822 0.960 . S
H837 C823 0.961 . S
H838 C823 0.961 . S
H839 C823 0.961 . S
H840 C824 0.931 . S
H841 C829 0.930 . S
H842 C830 0.956 . S
H843 C830 0.961 . S
H844 C830 0.961 . S
H845 C831 0.958 . S
H846 C831 0.967 . S
H847 C831 0.960 1_455 S
C848 C849 1.391 . S
C848 C850 1.394 . S
C848 H864 0.931 . S
C849 C848 1.391 . S
C849 C853 1.376 . S
C850 C848 1.394 . S
C850 C851 1.369 . S
C850 C854 1.531 . S
C851 C850 1.369 . S
C851 C852 1.410 . S
C851 C859 1.503 . S
C852 C851 1.410 . S
C852 C853 1.392 . S
C852 C855 1.511 . S
C853 C849 1.376 . S
C853 C852 1.392 . S
C853 H865 0.929 . S
C854 C850 1.531 . S
C854 H866 0.960 1_565 S
C854 H867 0.962 . S
C854 H868 0.960 . S
C855 C852 1.511 . S
C855 H869 0.961 . S
C855 H870 0.961 . S
C855 H871 0.961 . S
C856 C857 1.370 1_565 S
C856 C858 1.363 . S
C856 H872 0.931 . S
C857 C856 1.370 1_545 S
C857 C861 1.408 . S
C858 C856 1.363 . S
C858 C859 1.370 . S
C858 C862 1.524 . S
C859 C851 1.503 . S
C859 C858 1.370 . S
C859 C860 1.403 1_565 S
C860 C859 1.403 1_545 S
C860 C861 1.404 . S
C860 C863 1.539 . S
C861 C857 1.408 . S
C861 C860 1.404 . S
C861 H873 0.930 . S
C862 C858 1.524 . S
C862 H874 0.956 . S
C862 H875 0.961 . S
C862 H876 0.961 . S
C863 C860 1.539 . S
C863 H877 0.958 . S
C863 H878 0.961 . S
C863 H879 0.960 . S
H864 C848 0.931 . S
H865 C853 0.929 . S
H866 C854 0.960 1_545 S
H867 C854 0.962 . S
H868 C854 0.960 . S
H869 C855 0.961 . S
H870 C855 0.961 . S
H871 C855 0.961 . S
H872 C856 0.931 . S
H873 C861 0.930 . S
H874 C862 0.956 . S
H875 C862 0.961 . S
H876 C862 0.961 . S
H877 C863 0.958 . S
H878 C863 0.961 . S
H879 C863 0.960 . S
C880 C881 1.391 . S
C880 C882 1.394 . S
C880 H896 0.931 . S
C881 C880 1.391 . S
C881 C885 1.376 . S
C882 C880 1.394 . S
C882 C883 1.369 . S
C882 C886 1.531 . S
C883 C882 1.369 . S
C883 C884 1.410 . S
C883 C891 1.503 . S
C884 C883 1.410 . S
C884 C885 1.392 . S
C884 C887 1.538 . S
C885 C881 1.376 . S
C885 C884 1.392 . S
C885 H897 0.929 . S
C886 C882 1.531 . S
C886 H898 0.960 . S
C886 H899 0.962 . S
C886 H900 0.960 . S
C887 C884 1.538 . S
C887 H901 0.969 . S
C887 H902 0.956 1_655 S
C887 H903 0.931 1_655 S
C888 C889 1.370 1_655 S
C888 C890 1.363 . S
C888 H904 0.931 . S
C889 C888 1.370 1_455 S
C889 C893 1.408 . S
C890 C888 1.363 . S
C890 C891 1.370 . S
C890 C894 1.524 . S
C891 C883 1.503 . S
C891 C890 1.370 . S
C891 C892 1.403 1_655 S
C892 C891 1.403 1_455 S
C892 C893 1.404 . S
C892 C895 1.539 . S
C893 C889 1.408 . S
C893 C892 1.404 . S
C893 H905 0.930 . S
C894 C890 1.524 . S
C894 H906 0.956 . S
C894 H907 0.961 . S
C894 H908 0.961 . S
C895 C892 1.539 . S
C895 H909 0.958 . S
C895 H910 0.961 . S
C895 H911 0.960 . S
H896 C880 0.931 . S
H897 C885 0.929 . S
H898 C886 0.960 . S
H899 C886 0.962 . S
H900 C886 0.960 . S
H901 C887 0.969 . S
H902 C887 0.956 1_455 S
H903 C887 0.931 1_455 S
H904 C888 0.931 . S
H905 C893 0.930 . S
H906 C894 0.956 . S
H907 C894 0.961 . S
H908 C894 0.961 . S
H909 C895 0.958 . S
H910 C895 0.961 . S
H911 C895 0.960 . S
C912 C913 1.391 . S
C912 C914 1.394 . S
C912 H928 0.931 . S
C913 C912 1.391 . S
C913 C917 1.376 . S
C914 C912 1.394 . S
C914 C915 1.369 1_565 S
C914 C918 1.531 . S
C915 C914 1.369 1_545 S
C915 C916 1.412 . S
C915 C923 1.503 . S
C916 C915 1.412 . S
C916 C917 1.382 1_545 S
C916 C919 1.520 . S
C917 C913 1.376 . S
C917 C916 1.382 1_565 S
C917 H929 0.929 . S
C918 C914 1.531 . S
C918 H930 0.960 . S
C918 H931 0.962 1_565 S
C918 H932 0.960 . S
C919 C916 1.520 . S
C919 H933 0.961 . S
C919 H934 0.961 . S
C919 H935 0.961 . S
C920 C921 1.370 . S
C920 C922 1.363 . S
C920 H936 0.931 . S
C921 C920 1.370 . S
C921 C925 1.408 . S
C922 C920 1.363 . S
C922 C923 1.370 . S
C922 C926 1.524 . S
C923 C915 1.503 . S
C923 C922 1.370 . S
C923 C924 1.403 . S
C924 C923 1.403 . S
C924 C925 1.404 . S
C924 C927 1.539 1_545 S
C925 C921 1.408 . S
C925 C924 1.404 . S
C925 H937 0.930 . S
C926 C922 1.524 . S
C926 H938 0.956 . S
C926 H939 0.961 . S
C926 H940 0.961 . S
C927 C924 1.539 1_565 S
C927 H941 0.958 . S
C927 H942 0.961 . S
C927 H943 0.960 . S
H928 C912 0.931 . S
H929 C917 0.929 . S
H930 C918 0.960 . S
H931 C918 0.962 1_545 S
H932 C918 0.960 . S
H933 C919 0.961 . S
H934 C919 0.961 . S
H935 C919 0.961 . S
H936 C920 0.931 . S
H937 C925 0.930 . S
H938 C926 0.956 . S
H939 C926 0.961 . S
H940 C926 0.961 . S
H941 C927 0.958 . S
H942 C927 0.961 . S
H943 C927 0.960 . S
C944 C945 1.391 . S
C944 C946 1.394 . S
C944 H960 0.931 . S
C945 C944 1.391 . S
C945 C949 1.376 . S
C946 C944 1.394 . S
C946 C947 1.369 . S
C946 C950 1.531 1_455 S
C947 C946 1.369 . S
C947 C948 1.410 . S
C947 C955 1.503 . S
C948 C947 1.410 . S
C948 C949 1.392 . S
C948 C951 1.511 . S
C949 C945 1.376 . S
C949 C948 1.392 . S
C949 H961 0.929 . S
C950 C946 1.531 1_655 S
C950 H962 0.960 . S
C950 H963 0.962 . S
C950 H964 0.960 . S
C951 C948 1.511 . S
C951 H965 0.961 . S
C951 H966 0.961 . S
C951 H967 0.961 . S
C952 C953 1.370 . S
C952 C954 1.363 1_655 S
C952 H968 0.931 . S
C953 C952 1.370 . S
C953 C957 1.408 . S
C954 C952 1.363 1_455 S
C954 C955 1.370 . S
C954 C958 1.524 . S
C955 C947 1.503 . S
C955 C954 1.370 . S
C955 C956 1.403 . S
C956 C955 1.403 . S
C956 C957 1.404 1_455 S
C956 C959 1.539 . S
C957 C953 1.408 . S
C957 C956 1.404 1_655 S
C957 H969 0.930 . S
C958 C954 1.524 . S
C958 H970 0.956 . S
C958 H971 0.961 . S
C958 H972 0.961 . S
C959 C956 1.539 . S
C959 H973 0.958 . S
C959 H974 0.961 . S
C959 H975 0.960 . S
H960 C944 0.931 . S
H961 C949 0.929 . S
H962 C950 0.960 . S
H963 C950 0.962 . S
H964 C950 0.960 . S
H965 C951 0.961 . S
H966 C951 0.961 . S
H967 C951 0.961 . S
H968 C952 0.931 . S
H969 C957 0.930 . S
H970 C958 0.956 . S
H971 C958 0.961 . S
H972 C958 0.961 . S
H973 C959 0.958 . S
H974 C959 0.961 . S
H975 C959 0.960 . S
C976 C977 1.391 . S
C976 C978 1.394 . S
C976 H992 0.931 . S
C977 C976 1.391 . S
C977 C981 1.376 1_556 S
C978 C976 1.394 . S
C978 C979 1.369 1_556 S
C978 C982 1.531 . S
C979 C978 1.369 1_554 S
C979 C980 1.410 . S
C979 C987 1.503 . S
C980 C979 1.410 . S
C980 C981 1.392 . S
C980 C983 1.511 . S
C981 C977 1.376 1_554 S
C981 C980 1.392 . S
C981 H993 0.929 . S
C982 C978 1.531 . S
C982 H994 0.960 1_556 S
C982 H995 0.962 . S
C982 H996 0.960 . S
C983 C980 1.511 . S
C983 H997 0.961 . S
C983 H998 0.961 . S
C983 H999 0.961 . S
C984 C985 1.370 . S
C984 C986 1.363 . S
C984 H1000 0.931 . S
C985 C984 1.370 . S
C985 C989 1.408 . S
C986 C984 1.363 . S
C986 C987 1.370 . S
C986 C990 1.524 . S
C987 C979 1.503 . S
C987 C986 1.370 . S
C987 C988 1.403 . S
C988 C987 1.403 . S
C988 C989 1.404 . S
C988 C991 1.539 . S
C989 C985 1.408 . S
C989 C988 1.404 . S
C989 H1001 0.930 . S
C990 C986 1.524 . S
C990 H1002 0.956 1_554 S
C990 H1003 0.961 . S
C990 H1004 0.961 . S
C991 C988 1.539 . S
C991 H1005 0.958 . S
C991 H1006 0.961 . S
C991 H1007 0.960 . S
H992 C976 0.931 . S
H993 C981 0.929 . S
H994 C982 0.960 1_554 S
H995 C982 0.962 . S
H996 C982 0.960 . S
H997 C983 0.961 . S
H998 C983 0.961 . S
H999 C983 0.961 . S
H1000 C984 0.931 . S
H1001 C989 0.930 . S
H1002 C990 0.956 1_556 S
H1003 C990 0.961 . S
H1004 C990 0.961 . S
H1005 C991 0.958 . S
H1006 C991 0.961 . S
H1007 C991 0.960 . S
C1008 C1009 1.391 . S
C1008 C1010 1.394 . S
C1008 H1024 0.931 . S
C1009 C1008 1.391 . S
C1009 C1013 1.376 . S
C1010 C1008 1.394 . S
C1010 C1011 1.369 1_554 S
C1010 C1014 1.531 . S
C1011 C1010 1.369 1_556 S
C1011 C1012 1.410 . S
C1011 C1019 1.503 . S
C1012 C1011 1.410 . S
C1012 C1013 1.392 1_556 S
C1012 C1015 1.511 . S
C1013 C1009 1.376 . S
C1013 C1012 1.392 1_554 S
C1013 H1025 0.929 . S
C1014 C1010 1.531 . S
C1014 H1026 0.960 . S
C1014 H1027 0.962 1_554 S
C1014 H1028 0.960 . S
C1015 C1012 1.511 . S
C1015 H1029 0.961 . S
C1015 H1030 0.961 . S
C1015 H1031 0.961 . S
C1016 C1017 1.370 . S
C1016 C1018 1.363 . S
C1016 H1032 0.931 . S
C1017 C1016 1.370 . S
C1017 C1021 1.408 . S
C1018 C1016 1.363 . S
C1018 C1019 1.370 . S
C1018 C1022 1.524 . S
C1019 C1011 1.503 . S
C1019 C1018 1.370 . S
C1019 C1020 1.403 . S
C1020 C1019 1.403 . S
C1020 C1021 1.404 . S
C1020 C1023 1.539 1_556 S
C1021 C1017 1.408 . S
C1021 C1020 1.404 . S
C1021 H1033 0.930 . S
C1022 C1018 1.524 . S
C1022 H1034 0.956 . S
C1022 H1035 0.961 . S
C1022 H1036 0.961 . S
C1023 C1020 1.539 1_554 S
C1023 H1037 0.958 . S
C1023 H1038 0.961 . S
C1023 H1039 0.960 . S
H1024 C1008 0.931 . S
H1025 C1013 0.929 . S
H1026 C1014 0.960 . S
H1027 C1014 0.962 1_556 S
H1028 C1014 0.960 . S
H1029 C1015 0.961 . S
H1030 C1015 0.961 . S
H1031 C1015 0.961 . S
H1032 C1016 0.931 . S
H1033 C1021 0.930 . S
H1034 C1022 0.956 . S
H1035 C1022 0.961 . S
H1036 C1022 0.961 . S
H1037 C1023 0.958 . S
H1038 C1023 0.961 . S
H1039 C1023 0.960 . S
C1040 C1041 1.391 . S
C1040 C1042 1.394 1_556 S
C1040 H1056 0.931 . S
C1041 C1040 1.391 . S
C1041 C1045 1.376 . S
C1042 C1040 1.394 1_554 S
C1042 C1043 1.369 . S
C1042 C1046 1.531 . S
C1043 C1042 1.369 . S
C1043 C1044 1.410 1_554 S
C1043 C1051 1.503 . S
C1044 C1043 1.410 1_556 S
C1044 C1045 1.392 . S
C1044 C1047 1.511 . S
C1045 C1041 1.376 . S
C1045 C1044 1.392 . S
C1045 H1057 0.929 . S
C1046 C1042 1.531 . S
C1046 H1058 0.960 . S
C1046 H1059 0.962 . S
C1046 H1060 0.960 . S
C1047 C1044 1.511 . S
C1047 H1061 0.961 . S
C1047 H1062 0.961 1_556 S
C1047 H1063 0.961 . S
C1048 C1049 1.370 . S
C1048 C1050 1.363 . S
C1048 H1064 0.931 . S
C1049 C1048 1.370 . S
C1049 C1053 1.408 . S
C1050 C1048 1.363 . S
C1050 C1051 1.370 . S
C1050 C1054 1.524 . S
C1051 C1043 1.503 . S
C1051 C1050 1.370 . S
C1051 C1052 1.403 . S
C1052 C1051 1.403 . S
C1052 C1053 1.404 . S
C1052 C1055 1.559 . S
C1053 C1049 1.408 . S
C1053 C1052 1.404 . S
C1053 H1065 0.930 . S
C1054 C1050 1.524 . S
C1054 H1066 0.956 . S
C1054 H1067 0.961 . S
C1054 H1068 0.961 . S
C1055 C1052 1.559 . S
C1055 H1069 0.961 . S
C1055 H1070 0.956 1_554 S
C1055 H1071 0.943 1_554 S
H1056 C1040 0.931 . S
H1057 C1045 0.929 . S
H1058 C1046 0.960 . S
H1059 C1046 0.962 . S
H1060 C1046 0.960 . S
H1061 C1047 0.961 . S
H1062 C1047 0.961 1_554 S
H1063 C1047 0.961 . S
H1064 C1048 0.931 . S
H1065 C1053 0.930 . S
H1066 C1054 0.956 . S
H1067 C1054 0.961 . S
H1068 C1054 0.961 . S
H1069 C1055 0.961 . S
H1070 C1055 0.956 1_556 S
H1071 C1055 0.943 1_556 S
C1072 C1073 1.391 . S
C1072 C1074 1.394 1_554 S
C1072 H1088 0.931 . S
C1073 C1072 1.391 . S
C1073 C1077 1.376 1_554 S
C1074 C1072 1.394 1_556 S
C1074 C1075 1.369 . S
C1074 C1078 1.531 . S
C1075 C1074 1.369 . S
C1075 C1076 1.410 . S
C1075 C1083 1.503 . S
C1076 C1075 1.410 . S
C1076 C1077 1.392 . S
C1076 C1079 1.511 . S
C1077 C1073 1.376 1_556 S
C1077 C1076 1.392 . S
C1077 H1089 0.929 . S
C1078 C1074 1.531 . S
C1078 H1090 0.970 . S
C1078 H1091 0.954 1_556 S
C1078 H1092 0.957 1_556 S
C1079 C1076 1.511 . S
C1079 H1093 0.961 . S
C1079 H1094 0.961 . S
C1079 H1095 0.961 . S
C1080 C1081 1.370 . S
C1080 C1082 1.363 . S
C1080 H1096 0.931 . S
C1081 C1080 1.370 . S
C1081 C1085 1.408 . S
C1082 C1080 1.363 . S
C1082 C1083 1.370 . S
C1082 C1086 1.524 1_556 S
C1083 C1075 1.503 . S
C1083 C1082 1.370 . S
C1083 C1084 1.403 . S
C1084 C1083 1.403 . S
C1084 C1085 1.404 . S
C1084 C1087 1.539 . S
C1085 C1081 1.408 . S
C1085 C1084 1.404 . S
C1085 H1097 0.930 . S
C1086 C1082 1.524 1_554 S
C1086 H1098 0.956 . S
C1086 H1099 0.961 . S
C1086 H1100 0.961 . S
C1087 C1084 1.539 . S
C1087 H1101 0.958 . S
C1087 H1102 0.961 . S
C1087 H1103 0.960 . S
H1088 C1072 0.931 . S
H1089 C1077 0.929 . S
H1090 C1078 0.970 . S
H1091 C1078 0.954 1_554 S
H1092 C1078 0.957 1_554 S
H1093 C1079 0.961 . S
H1094 C1079 0.961 . S
H1095 C1079 0.961 . S
H1096 C1080 0.931 . S
H1097 C1085 0.930 . S
H1098 C1086 0.956 . S
H1099 C1086 0.961 . S
H1100 C1086 0.961 . S
H1101 C1087 0.958 . S
H1102 C1087 0.961 . S
H1103 C1087 0.960 . S
C1104 C1105 1.391 . S
C1104 C1106 1.394 . S
C1104 H1120 0.931 . S
C1105 C1104 1.391 . S
C1105 C1109 1.376 . S
C1106 C1104 1.394 . S
C1106 C1107 1.369 . S
C1106 C1110 1.531 . S
C1107 C1106 1.369 . S
C1107 C1108 1.410 . S
C1107 C1115 1.503 . S
C1108 C1107 1.410 . S
C1108 C1109 1.392 . S
C1108 C1111 1.511 . S
C1109 C1105 1.376 . S
C1109 C1108 1.392 . S
C1109 H1121 0.929 . S
C1110 C1106 1.531 . S
C1110 H1122 0.960 . S
C1110 H1123 0.962 . S
C1110 H1124 0.960 . S
C1111 C1108 1.511 . S
C1111 H1125 0.961 . S
C1111 H1126 0.961 . S
C1111 H1127 0.961 . S
C1112 C1113 1.370 . S
C1112 C1114 1.363 . S
C1112 H1128 0.931 . S
C1113 C1112 1.370 . S
C1113 C1117 1.408 . S
C1114 C1112 1.363 . S
C1114 C1115 1.370 . S
C1114 C1118 1.524 . S
C1115 C1107 1.503 . S
C1115 C1114 1.370 . S
C1115 C1116 1.403 . S
C1116 C1115 1.403 . S
C1116 C1117 1.404 . S
C1116 C1119 1.539 . S
C1117 C1113 1.408 . S
C1117 C1116 1.404 . S
C1117 H1129 0.930 . S
C1118 C1114 1.524 . S
C1118 H1130 0.956 . S
C1118 H1131 0.961 . S
C1118 H1132 0.961 . S
C1119 C1116 1.539 . S
C1119 H1133 0.958 . S
C1119 H1134 0.961 . S
C1119 H1135 0.960 . S
H1120 C1104 0.931 . S
H1121 C1109 0.929 . S
H1122 C1110 0.960 . S
H1123 C1110 0.962 . S
H1124 C1110 0.960 . S
H1125 C1111 0.961 . S
H1126 C1111 0.961 . S
H1127 C1111 0.961 . S
H1128 C1112 0.931 . S
H1129 C1117 0.930 . S
H1130 C1118 0.956 . S
H1131 C1118 0.961 . S
H1132 C1118 0.961 . S
H1133 C1119 0.958 . S
H1134 C1119 0.961 . S
H1135 C1119 0.960 . S
C1136 C1137 1.391 . S
C1136 C1138 1.394 . S
C1136 H1152 0.931 . S
C1137 C1136 1.391 . S
C1137 C1141 1.376 . S
C1138 C1136 1.394 . S
C1138 C1139 1.369 . S
C1138 C1142 1.531 . S
C1139 C1138 1.369 . S
C1139 C1140 1.410 . S
C1139 C1147 1.503 . S
C1140 C1139 1.410 . S
C1140 C1141 1.392 . S
C1140 C1143 1.511 . S
C1141 C1137 1.376 . S
C1141 C1140 1.392 . S
C1141 H1153 0.929 . S
C1142 C1138 1.531 . S
C1142 H1154 0.960 . S
C1142 H1155 0.962 . S
C1142 H1156 0.960 . S
C1143 C1140 1.511 . S
C1143 H1157 0.961 . S
C1143 H1158 0.961 . S
C1143 H1159 0.961 . S
C1144 C1145 1.370 . S
C1144 C1146 1.363 . S
C1144 H1160 0.931 . S
C1145 C1144 1.370 . S
C1145 C1149 1.408 . S
C1146 C1144 1.363 . S
C1146 C1147 1.370 . S
C1146 C1150 1.524 . S
C1147 C1139 1.503 . S
C1147 C1146 1.370 . S
C1147 C1148 1.403 . S
C1148 C1147 1.403 . S
C1148 C1149 1.404 . S
C1148 C1151 1.539 . S
C1149 C1145 1.408 . S
C1149 C1148 1.404 . S
C1149 H1161 0.930 . S
C1150 C1146 1.524 . S
C1150 H1162 0.956 . S
C1150 H1163 0.961 . S
C1150 H1164 0.961 . S
C1151 C1148 1.539 . S
C1151 H1165 0.958 . S
C1151 H1166 0.961 . S
C1151 H1167 0.960 . S
H1152 C1136 0.931 . S
H1153 C1141 0.929 . S
H1154 C1142 0.960 . S
H1155 C1142 0.962 . S
H1156 C1142 0.960 . S
H1157 C1143 0.961 . S
H1158 C1143 0.961 . S
H1159 C1143 0.961 . S
H1160 C1144 0.931 . S
H1161 C1149 0.930 . S
H1162 C1150 0.956 . S
H1163 C1150 0.961 . S
H1164 C1150 0.961 . S
H1165 C1151 0.958 . S
H1166 C1151 0.961 . S
H1167 C1151 0.960 . S
C1168 C1169 1.391 . S
C1168 C1170 1.394 . S
C1168 H1184 0.931 . S
C1169 C1168 1.391 . S
C1169 C1173 1.376 . S
C1170 C1168 1.394 . S
C1170 C1171 1.369 . S
C1170 C1174 1.531 . S
C1171 C1170 1.369 . S
C1171 C1172 1.410 . S
C1171 C1179 1.503 . S
C1172 C1171 1.410 . S
C1172 C1173 1.392 . S
C1172 C1175 1.511 . S
C1173 C1169 1.376 . S
C1173 C1172 1.392 . S
C1173 H1185 0.929 . S
C1174 C1170 1.531 . S
C1174 H1186 0.960 . S
C1174 H1187 0.962 . S
C1174 H1188 0.960 . S
C1175 C1172 1.511 . S
C1175 H1189 0.961 . S
C1175 H1190 0.961 . S
C1175 H1191 0.961 . S
C1176 C1177 1.370 . S
C1176 C1178 1.363 . S
C1176 H1192 0.931 . S
C1177 C1176 1.370 . S
C1177 C1181 1.408 . S
C1178 C1176 1.363 . S
C1178 C1179 1.370 . S
C1178 C1182 1.524 . S
C1179 C1171 1.503 . S
C1179 C1178 1.370 . S
C1179 C1180 1.403 . S
C1180 C1179 1.403 . S
C1180 C1181 1.404 . S
C1180 C1183 1.539 . S
C1181 C1177 1.408 . S
C1181 C1180 1.404 . S
C1181 H1193 0.930 . S
C1182 C1178 1.524 . S
C1182 H1194 0.956 . S
C1182 H1195 0.961 . S
C1182 H1196 0.961 . S
C1183 C1180 1.539 . S
C1183 H1197 0.958 . S
C1183 H1198 0.961 . S
C1183 H1199 0.960 . S
H1184 C1168 0.931 . S
H1185 C1173 0.929 . S
H1186 C1174 0.960 . S
H1187 C1174 0.962 . S
H1188 C1174 0.960 . S
H1189 C1175 0.961 . S
H1190 C1175 0.961 . S
H1191 C1175 0.961 . S
H1192 C1176 0.931 . S
H1193 C1181 0.930 . S
H1194 C1182 0.956 . S
H1195 C1182 0.961 . S
H1196 C1182 0.961 . S
H1197 C1183 0.958 . S
H1198 C1183 0.961 . S
H1199 C1183 0.960 . S
C1200 C1201 1.391 . S
C1200 C1202 1.394 . S
C1200 H1216 0.931 . S
C1201 C1200 1.391 . S
C1201 C1205 1.376 . S
C1202 C1200 1.394 . S
C1202 C1203 1.369 . S
C1202 C1206 1.531 . S
C1203 C1202 1.369 . S
C1203 C1204 1.410 . S
C1203 C1211 1.503 . S
C1204 C1203 1.410 . S
C1204 C1205 1.392 . S
C1204 C1207 1.511 . S
C1205 C1201 1.376 . S
C1205 C1204 1.392 . S
C1205 H1217 0.929 . S
C1206 C1202 1.531 . S
C1206 H1218 0.960 . S
C1206 H1219 0.962 . S
C1206 H1220 0.960 . S
C1207 C1204 1.511 . S
C1207 H1221 0.961 . S
C1207 H1222 0.961 . S
C1207 H1223 0.961 . S
C1208 C1209 1.370 . S
C1208 C1210 1.363 . S
C1208 H1224 0.931 . S
C1209 C1208 1.370 . S
C1209 C1213 1.408 . S
C1210 C1208 1.363 . S
C1210 C1211 1.370 . S
C1210 C1214 1.524 . S
C1211 C1203 1.503 . S
C1211 C1210 1.370 . S
C1211 C1212 1.403 . S
C1212 C1211 1.403 . S
C1212 C1213 1.404 . S
C1212 C1215 1.539 . S
C1213 C1209 1.408 . S
C1213 C1212 1.404 . S
C1213 H1225 0.930 . S
C1214 C1210 1.524 . S
C1214 H1226 0.956 . S
C1214 H1227 0.961 . S
C1214 H1228 0.961 . S
C1215 C1212 1.539 . S
C1215 H1229 0.958 . S
C1215 H1230 0.961 . S
C1215 H1231 0.960 . S
H1216 C1200 0.931 . S
H1217 C1205 0.929 . S
H1218 C1206 0.960 . S
H1219 C1206 0.962 . S
H1220 C1206 0.960 . S
H1221 C1207 0.961 . S
H1222 C1207 0.961 . S
H1223 C1207 0.961 . S
H1224 C1208 0.931 . S
H1225 C1213 0.930 . S
H1226 C1214 0.956 . S
H1227 C1214 0.961 . S
H1228 C1214 0.961 . S
H1229 C1215 0.958 . S
H1230 C1215 0.961 . S
H1231 C1215 0.960 . S
C1232 C1233 1.391 . S
C1232 C1234 1.394 . S
C1232 H1248 0.931 . S
C1233 C1232 1.391 . S
C1233 C1237 1.376 . S
C1234 C1232 1.394 . S
C1234 C1235 1.369 . S
C1234 C1238 1.531 . S
C1235 C1234 1.369 . S
C1235 C1236 1.410 . S
C1235 C1243 1.503 . S
C1236 C1235 1.410 . S
C1236 C1237 1.392 . S
C1236 C1239 1.511 . S
C1237 C1233 1.376 . S
C1237 C1236 1.392 . S
C1237 H1249 0.929 . S
C1238 C1234 1.531 . S
C1238 H1250 0.960 . S
C1238 H1251 0.962 . S
C1238 H1252 0.960 . S
C1239 C1236 1.511 . S
C1239 H1253 0.961 . S
C1239 H1254 0.961 . S
C1239 H1255 0.961 . S
C1240 C1241 1.370 . S
C1240 C1242 1.363 . S
C1240 H1256 0.931 . S
C1241 C1240 1.370 . S
C1241 C1245 1.408 . S
C1242 C1240 1.363 . S
C1242 C1243 1.370 . S
C1242 C1246 1.524 . S
C1243 C1235 1.503 . S
C1243 C1242 1.370 . S
C1243 C1244 1.403 . S
C1244 C1243 1.403 . S
C1244 C1245 1.404 . S
C1244 C1247 1.539 . S
C1245 C1241 1.408 . S
C1245 C1244 1.404 . S
C1245 H1257 0.930 . S
C1246 C1242 1.524 . S
C1246 H1258 0.956 . S
C1246 H1259 0.961 . S
C1246 H1260 0.961 . S
C1247 C1244 1.539 . S
C1247 H1261 0.958 . S
C1247 H1262 0.961 . S
C1247 H1263 0.960 . S
H1248 C1232 0.931 . S
H1249 C1237 0.929 . S
H1250 C1238 0.960 . S
H1251 C1238 0.962 . S
H1252 C1238 0.960 . S
H1253 C1239 0.961 . S
H1254 C1239 0.961 . S
H1255 C1239 0.961 . S
H1256 C1240 0.931 . S
H1257 C1245 0.930 . S
H1258 C1246 0.956 . S
H1259 C1246 0.961 . S
H1260 C1246 0.961 . S
H1261 C1247 0.958 . S
H1262 C1247 0.961 . S
H1263 C1247 0.960 . S
C1264 C1265 1.391 . S
C1264 C1266 1.394 . S
C1264 H1280 0.931 . S
C1265 C1264 1.391 . S
C1265 C1269 1.376 . S
C1266 C1264 1.394 . S
C1266 C1267 1.369 . S
C1266 C1270 1.531 . S
C1267 C1266 1.369 . S
C1267 C1268 1.410 . S
C1267 C1275 1.503 . S
C1268 C1267 1.410 . S
C1268 C1269 1.392 . S
C1268 C1271 1.511 . S
C1269 C1265 1.376 . S
C1269 C1268 1.392 . S
C1269 H1281 0.929 . S
C1270 C1266 1.531 . S
C1270 H1282 0.960 . S
C1270 H1283 0.962 . S
C1270 H1284 0.960 . S
C1271 C1268 1.511 . S
C1271 H1285 0.961 . S
C1271 H1286 0.961 . S
C1271 H1287 0.961 . S
C1272 C1273 1.370 . S
C1272 C1274 1.363 . S
C1272 H1288 0.931 . S
C1273 C1272 1.370 . S
C1273 C1277 1.408 . S
C1274 C1272 1.363 . S
C1274 C1275 1.370 . S
C1274 C1278 1.524 . S
C1275 C1267 1.503 . S
C1275 C1274 1.370 . S
C1275 C1276 1.403 . S
C1276 C1275 1.403 . S
C1276 C1277 1.404 . S
C1276 C1279 1.539 . S
C1277 C1273 1.408 . S
C1277 C1276 1.404 . S
C1277 H1289 0.930 . S
C1278 C1274 1.524 . S
C1278 H1290 0.956 . S
C1278 H1291 0.961 . S
C1278 H1292 0.961 . S
C1279 C1276 1.539 . S
C1279 H1293 0.958 . S
C1279 H1294 0.961 . S
C1279 H1295 0.960 . S
H1280 C1264 0.931 . S
H1281 C1269 0.929 . S
H1282 C1270 0.960 . S
H1283 C1270 0.962 . S
H1284 C1270 0.960 . S
H1285 C1271 0.961 . S
H1286 C1271 0.961 . S
H1287 C1271 0.961 . S
H1288 C1272 0.931 . S
H1289 C1277 0.930 . S
H1290 C1278 0.956 . S
H1291 C1278 0.961 . S
H1292 C1278 0.961 . S
H1293 C1279 0.958 . S
H1294 C1279 0.961 . S
H1295 C1279 0.960 . S
C1296 C1297 1.391 . S
C1296 C1298 1.394 . S
C1296 H1312 0.931 . S
C1297 C1296 1.391 . S
C1297 C1301 1.376 . S
C1298 C1296 1.394 . S
C1298 C1299 1.369 . S
C1298 C1302 1.531 . S
C1299 C1298 1.369 . S
C1299 C1300 1.410 . S
C1299 C1307 1.503 . S
C1300 C1299 1.410 . S
C1300 C1301 1.392 . S
C1300 C1303 1.511 . S
C1301 C1297 1.376 . S
C1301 C1300 1.392 . S
C1301 H1313 0.929 . S
C1302 C1298 1.531 . S
C1302 H1314 0.960 . S
C1302 H1315 0.962 . S
C1302 H1316 0.960 . S
C1303 C1300 1.511 . S
C1303 H1317 0.961 . S
C1303 H1318 0.961 . S
C1303 H1319 0.961 . S
C1304 C1305 1.370 . S
C1304 C1306 1.363 . S
C1304 H1320 0.931 . S
C1305 C1304 1.370 . S
C1305 C1309 1.408 . S
C1306 C1304 1.363 . S
C1306 C1307 1.370 . S
C1306 C1310 1.524 . S
C1307 C1299 1.503 . S
C1307 C1306 1.370 . S
C1307 C1308 1.403 . S
C1308 C1307 1.403 . S
C1308 C1309 1.404 . S
C1308 C1311 1.539 . S
C1309 C1305 1.408 . S
C1309 C1308 1.404 . S
C1309 H1321 0.930 . S
C1310 C1306 1.524 . S
C1310 H1322 0.956 . S
C1310 H1323 0.961 . S
C1310 H1324 0.961 . S
C1311 C1308 1.539 . S
C1311 H1325 0.958 . S
C1311 H1326 0.961 . S
C1311 H1327 0.960 . S
H1312 C1296 0.931 . S
H1313 C1301 0.929 . S
H1314 C1302 0.960 . S
H1315 C1302 0.962 . S
H1316 C1302 0.960 . S
H1317 C1303 0.961 . S
H1318 C1303 0.961 . S
H1319 C1303 0.961 . S
H1320 C1304 0.931 . S
H1321 C1309 0.930 . S
H1322 C1310 0.956 . S
H1323 C1310 0.961 . S
H1324 C1310 0.961 . S
H1325 C1311 0.958 . S
H1326 C1311 0.961 . S
H1327 C1311 0.960 . S
C1328 C1329 1.391 . S
C1328 C1330 1.394 . S
C1328 H1344 0.931 . S
C1329 C1328 1.391 . S
C1329 C1333 1.376 . S
C1330 C1328 1.394 . S
C1330 C1331 1.369 . S
C1330 C1334 1.531 . S
C1331 C1330 1.369 . S
C1331 C1332 1.410 . S
C1331 C1339 1.503 . S
C1332 C1331 1.410 . S
C1332 C1333 1.392 . S
C1332 C1335 1.511 . S
C1333 C1329 1.376 . S
C1333 C1332 1.392 . S
C1333 H1345 0.929 . S
C1334 C1330 1.531 . S
C1334 H1346 0.960 . S
C1334 H1347 0.962 . S
C1334 H1348 0.960 . S
C1335 C1332 1.511 . S
C1335 H1349 0.961 . S
C1335 H1350 0.961 . S
C1335 H1351 0.961 . S
C1336 C1337 1.370 . S
C1336 C1338 1.363 . S
C1336 H1352 0.931 . S
C1337 C1336 1.370 . S
C1337 C1341 1.408 . S
C1338 C1336 1.363 . S
C1338 C1339 1.370 . S
C1338 C1342 1.524 . S
C1339 C1331 1.503 . S
C1339 C1338 1.370 . S
C1339 C1340 1.403 . S
C1340 C1339 1.403 . S
C1340 C1341 1.404 . S
C1340 C1343 1.539 . S
C1341 C1337 1.408 . S
C1341 C1340 1.404 . S
C1341 H1353 0.930 . S
C1342 C1338 1.524 . S
C1342 H1354 0.956 . S
C1342 H1355 0.961 . S
C1342 H1356 0.961 . S
C1343 C1340 1.539 . S
C1343 H1357 0.958 . S
C1343 H1358 0.961 . S
C1343 H1359 0.960 . S
H1344 C1328 0.931 . S
H1345 C1333 0.929 . S
H1346 C1334 0.960 . S
H1347 C1334 0.962 . S
H1348 C1334 0.960 . S
H1349 C1335 0.961 . S
H1350 C1335 0.961 . S
H1351 C1335 0.961 . S
H1352 C1336 0.931 . S
H1353 C1341 0.930 . S
H1354 C1342 0.956 . S
H1355 C1342 0.961 . S
H1356 C1342 0.961 . S
H1357 C1343 0.958 . S
H1358 C1343 0.961 . S
H1359 C1343 0.960 . S
C1360 C1361 1.391 . S
C1360 C1362 1.394 . S
C1360 H1376 0.931 . S
C1361 C1360 1.391 . S
C1361 C1365 1.376 . S
C1362 C1360 1.394 . S
C1362 C1363 1.369 . S
C1362 C1366 1.531 . S
C1363 C1362 1.369 . S
C1363 C1364 1.410 . S
C1363 C1371 1.503 . S
C1364 C1363 1.410 . S
C1364 C1365 1.392 . S
C1364 C1367 1.511 . S
C1365 C1361 1.376 . S
C1365 C1364 1.392 . S
C1365 H1377 0.929 . S
C1366 C1362 1.531 . S
C1366 H1378 0.960 . S
C1366 H1379 0.962 . S
C1366 H1380 0.960 . S
C1367 C1364 1.511 . S
C1367 H1381 0.961 . S
C1367 H1382 0.961 . S
C1367 H1383 0.961 . S
C1368 C1369 1.370 . S
C1368 C1370 1.363 . S
C1368 H1384 0.931 . S
C1369 C1368 1.370 . S
C1369 C1373 1.408 . S
C1370 C1368 1.363 . S
C1370 C1371 1.370 . S
C1370 C1374 1.524 . S
C1371 C1363 1.503 . S
C1371 C1370 1.370 . S
C1371 C1372 1.403 . S
C1372 C1371 1.403 . S
C1372 C1373 1.404 . S
C1372 C1375 1.539 . S
C1373 C1369 1.408 . S
C1373 C1372 1.404 . S
C1373 H1385 0.930 . S
C1374 C1370 1.524 . S
C1374 H1386 0.956 . S
C1374 H1387 0.961 . S
C1374 H1388 0.961 . S
C1375 C1372 1.539 . S
C1375 H1389 0.958 . S
C1375 H1390 0.961 . S
C1375 H1391 0.960 . S
H1376 C1360 0.931 . S
H1377 C1365 0.929 . S
H1378 C1366 0.960 . S
H1379 C1366 0.962 . S
H1380 C1366 0.960 . S
H1381 C1367 0.961 . S
H1382 C1367 0.961 . S
H1383 C1367 0.961 . S
H1384 C1368 0.931 . S
H1385 C1373 0.930 . S
H1386 C1374 0.956 . S
H1387 C1374 0.961 . S
H1388 C1374 0.961 . S
H1389 C1375 0.958 . S
H1390 C1375 0.961 . S
H1391 C1375 0.960 . S
C1392 C1393 1.391 . S
C1392 C1394 1.394 . S
C1392 H1408 0.931 . S
C1393 C1392 1.391 . S
C1393 C1397 1.376 . S
C1394 C1392 1.394 . S
C1394 C1395 1.369 . S
C1394 C1398 1.531 . S
C1395 C1394 1.369 . S
C1395 C1396 1.410 . S
C1395 C1403 1.503 . S
C1396 C1395 1.410 . S
C1396 C1397 1.392 . S
C1396 C1399 1.511 . S
C1397 C1393 1.376 . S
C1397 C1396 1.392 . S
C1397 H1409 0.929 . S
C1398 C1394 1.531 . S
C1398 H1410 0.960 . S
C1398 H1411 0.962 . S
C1398 H1412 0.960 . S
C1399 C1396 1.511 . S
C1399 H1413 0.961 . S
C1399 H1414 0.961 . S
C1399 H1415 0.961 . S
C1400 C1401 1.370 . S
C1400 C1402 1.363 . S
C1400 H1416 0.931 . S
C1401 C1400 1.370 . S
C1401 C1405 1.408 . S
C1402 C1400 1.363 . S
C1402 C1403 1.370 . S
C1402 C1406 1.524 . S
C1403 C1395 1.503 . S
C1403 C1402 1.370 . S
C1403 C1404 1.403 . S
C1404 C1403 1.403 . S
C1404 C1405 1.404 . S
C1404 C1407 1.539 . S
C1405 C1401 1.408 . S
C1405 C1404 1.404 . S
C1405 H1417 0.930 . S
C1406 C1402 1.524 . S
C1406 H1418 0.956 . S
C1406 H1419 0.961 . S
C1406 H1420 0.961 . S
C1407 C1404 1.539 . S
C1407 H1421 0.958 . S
C1407 H1422 0.961 . S
C1407 H1423 0.960 . S
H1408 C1392 0.931 . S
H1409 C1397 0.929 . S
H1410 C1398 0.960 . S
H1411 C1398 0.962 . S
H1412 C1398 0.960 . S
H1413 C1399 0.961 . S
H1414 C1399 0.961 . S
H1415 C1399 0.961 . S
H1416 C1400 0.931 . S
H1417 C1405 0.930 . S
H1418 C1406 0.956 . S
H1419 C1406 0.961 . S
H1420 C1406 0.961 . S
H1421 C1407 0.958 . S
H1422 C1407 0.961 . S
H1423 C1407 0.960 . S
C1424 C1425 1.391 . S
C1424 C1426 1.394 . S
C1424 H1440 0.931 . S
C1425 C1424 1.391 . S
C1425 C1429 1.376 . S
C1426 C1424 1.394 . S
C1426 C1427 1.369 . S
C1426 C1430 1.531 . S
C1427 C1426 1.369 . S
C1427 C1428 1.410 . S
C1427 C1435 1.503 . S
C1428 C1427 1.410 . S
C1428 C1429 1.392 . S
C1428 C1431 1.511 . S
C1429 C1425 1.376 . S
C1429 C1428 1.392 . S
C1429 H1441 0.929 . S
C1430 C1426 1.531 . S
C1430 H1442 0.960 . S
C1430 H1443 0.962 . S
C1430 H1444 0.960 . S
C1431 C1428 1.511 . S
C1431 H1445 0.961 . S
C1431 H1446 0.961 . S
C1431 H1447 0.961 . S
C1432 C1433 1.370 . S
C1432 C1434 1.363 . S
C1432 H1448 0.931 . S
C1433 C1432 1.370 . S
C1433 C1437 1.408 . S
C1434 C1432 1.363 . S
C1434 C1435 1.370 . S
C1434 C1438 1.524 . S
C1435 C1427 1.503 . S
C1435 C1434 1.370 . S
C1435 C1436 1.403 . S
C1436 C1435 1.403 . S
C1436 C1437 1.404 . S
C1436 C1439 1.539 . S
C1437 C1433 1.408 . S
C1437 C1436 1.404 . S
C1437 H1449 0.930 . S
C1438 C1434 1.524 . S
C1438 H1450 0.956 . S
C1438 H1451 0.961 . S
C1438 H1452 0.961 . S
C1439 C1436 1.539 . S
C1439 H1453 0.958 . S
C1439 H1454 0.961 . S
C1439 H1455 0.960 . S
H1440 C1424 0.931 . S
H1441 C1429 0.929 . S
H1442 C1430 0.960 . S
H1443 C1430 0.962 . S
H1444 C1430 0.960 . S
H1445 C1431 0.961 . S
H1446 C1431 0.961 . S
H1447 C1431 0.961 . S
H1448 C1432 0.931 . S
H1449 C1437 0.930 . S
H1450 C1438 0.956 . S
H1451 C1438 0.961 . S
H1452 C1438 0.961 . S
H1453 C1439 0.958 . S
H1454 C1439 0.961 . S
H1455 C1439 0.960 . S
C1456 C1457 1.391 . S
C1456 C1458 1.394 . S
C1456 H1472 0.931 . S
C1457 C1456 1.391 . S
C1457 C1461 1.376 . S
C1458 C1456 1.394 . S
C1458 C1459 1.369 . S
C1458 C1462 1.531 . S
C1459 C1458 1.369 . S
C1459 C1460 1.410 . S
C1459 C1467 1.503 . S
C1460 C1459 1.410 . S
C1460 C1461 1.392 . S
C1460 C1463 1.511 . S
C1461 C1457 1.376 . S
C1461 C1460 1.392 . S
C1461 H1473 0.929 . S
C1462 C1458 1.531 . S
C1462 H1474 0.960 . S
C1462 H1475 0.962 . S
C1462 H1476 0.960 . S
C1463 C1460 1.511 . S
C1463 H1477 0.961 . S
C1463 H1478 0.961 . S
C1463 H1479 0.961 . S
C1464 C1465 1.370 . S
C1464 C1466 1.363 . S
C1464 H1480 0.931 . S
C1465 C1464 1.370 . S
C1465 C1469 1.408 . S
C1466 C1464 1.363 . S
C1466 C1467 1.370 . S
C1466 C1470 1.524 . S
C1467 C1459 1.503 . S
C1467 C1466 1.370 . S
C1467 C1468 1.403 . S
C1468 C1467 1.403 . S
C1468 C1469 1.404 . S
C1468 C1471 1.539 . S
C1469 C1465 1.408 . S
C1469 C1468 1.404 . S
C1469 H1481 0.930 . S
C1470 C1466 1.524 . S
C1470 H1482 0.956 . S
C1470 H1483 0.961 . S
C1470 H1484 0.961 . S
C1471 C1468 1.539 . S
C1471 H1485 0.958 . S
C1471 H1486 0.961 . S
C1471 H1487 0.960 . S
H1472 C1456 0.931 . S
H1473 C1461 0.929 . S
H1474 C1462 0.960 . S
H1475 C1462 0.962 . S
H1476 C1462 0.960 . S
H1477 C1463 0.961 . S
H1478 C1463 0.961 . S
H1479 C1463 0.961 . S
H1480 C1464 0.931 . S
H1481 C1469 0.930 . S
H1482 C1470 0.956 . S
H1483 C1470 0.961 . S
H1484 C1470 0.961 . S
H1485 C1471 0.958 . S
H1486 C1471 0.961 . S
H1487 C1471 0.960 . S
C1488 C1489 1.391 . S
C1488 C1490 1.394 . S
C1488 H1504 0.931 . S
C1489 C1488 1.391 . S
C1489 C1493 1.376 . S
C1490 C1488 1.394 . S
C1490 C1491 1.369 . S
C1490 C1494 1.531 . S
C1491 C1490 1.369 . S
C1491 C1492 1.410 . S
C1491 C1499 1.503 . S
C1492 C1491 1.410 . S
C1492 C1493 1.392 . S
C1492 C1495 1.511 . S
C1493 C1489 1.376 . S
C1493 C1492 1.392 . S
C1493 H1505 0.929 . S
C1494 C1490 1.531 . S
C1494 H1506 0.960 . S
C1494 H1507 0.962 . S
C1494 H1508 0.960 . S
C1495 C1492 1.511 . S
C1495 H1509 0.961 . S
C1495 H1510 0.961 . S
C1495 H1511 0.961 . S
C1496 C1497 1.370 . S
C1496 C1498 1.363 . S
C1496 H1512 0.931 . S
C1497 C1496 1.370 . S
C1497 C1501 1.408 . S
C1498 C1496 1.363 . S
C1498 C1499 1.370 . S
C1498 C1502 1.524 . S
C1499 C1491 1.503 . S
C1499 C1498 1.370 . S
C1499 C1500 1.403 . S
C1500 C1499 1.403 . S
C1500 C1501 1.404 . S
C1500 C1503 1.539 . S
C1501 C1497 1.408 . S
C1501 C1500 1.404 . S
C1501 H1513 0.930 . S
C1502 C1498 1.524 . S
C1502 H1514 0.956 . S
C1502 H1515 0.961 . S
C1502 H1516 0.961 . S
C1503 C1500 1.539 . S
C1503 H1517 0.958 . S
C1503 H1518 0.961 . S
C1503 H1519 0.960 . S
H1504 C1488 0.931 . S
H1505 C1493 0.929 . S
H1506 C1494 0.960 . S
H1507 C1494 0.962 . S
H1508 C1494 0.960 . S
H1509 C1495 0.961 . S
H1510 C1495 0.961 . S
H1511 C1495 0.961 . S
H1512 C1496 0.931 . S
H1513 C1501 0.930 . S
H1514 C1502 0.956 . S
H1515 C1502 0.961 . S
H1516 C1502 0.961 . S
H1517 C1503 0.958 . S
H1518 C1503 0.961 . S
H1519 C1503 0.960 . S
C1520 C1521 1.391 . S
C1520 C1522 1.394 . S
C1520 H1536 0.931 . S
C1521 C1520 1.391 . S
C1521 C1525 1.376 . S
C1522 C1520 1.394 . S
C1522 C1523 1.369 . S
C1522 C1526 1.531 . S
C1523 C1522 1.369 . S
C1523 C1524 1.410 . S
C1523 C1531 1.503 . S
C1524 C1523 1.410 . S
C1524 C1525 1.392 . S
C1524 C1527 1.511 . S
C1525 C1521 1.376 . S
C1525 C1524 1.392 . S
C1525 H1537 0.929 . S
C1526 C1522 1.531 . S
C1526 H1538 0.960 . S
C1526 H1539 0.962 . S
C1526 H1540 0.960 . S
C1527 C1524 1.511 . S
C1527 H1541 0.961 . S
C1527 H1542 0.961 . S
C1527 H1543 0.961 . S
C1528 C1529 1.370 . S
C1528 C1530 1.363 . S
C1528 H1544 0.931 . S
C1529 C1528 1.370 . S
C1529 C1533 1.408 . S
C1530 C1528 1.363 . S
C1530 C1531 1.370 . S
C1530 C1534 1.524 . S
C1531 C1523 1.503 . S
C1531 C1530 1.370 . S
C1531 C1532 1.403 . S
C1532 C1531 1.403 . S
C1532 C1533 1.404 . S
C1532 C1535 1.539 . S
C1533 C1529 1.408 . S
C1533 C1532 1.404 . S
C1533 H1545 0.930 . S
C1534 C1530 1.524 . S
C1534 H1546 0.956 . S
C1534 H1547 0.961 . S
C1534 H1548 0.961 . S
C1535 C1532 1.539 . S
C1535 H1549 0.958 . S
C1535 H1550 0.961 . S
C1535 H1551 0.960 . S
H1536 C1520 0.931 . S
H1537 C1525 0.929 . S
H1538 C1526 0.960 . S
H1539 C1526 0.962 . S
H1540 C1526 0.960 . S
H1541 C1527 0.961 . S
H1542 C1527 0.961 . S
H1543 C1527 0.961 . S
H1544 C1528 0.931 . S
H1545 C1533 0.930 . S
H1546 C1534 0.956 . S
H1547 C1534 0.961 . S
H1548 C1534 0.961 . S
H1549 C1535 0.958 . S
H1550 C1535 0.961 . S
H1551 C1535 0.960 . S
C1552 C1553 1.391 . S
C1552 C1554 1.394 . S
C1552 H1568 0.931 . S
C1553 C1552 1.391 . S
C1553 C1557 1.376 . S
C1554 C1552 1.394 . S
C1554 C1555 1.369 . S
C1554 C1558 1.531 . S
C1555 C1554 1.369 . S
C1555 C1556 1.410 . S
C1555 C1563 1.503 . S
C1556 C1555 1.410 . S
C1556 C1557 1.392 . S
C1556 C1559 1.511 . S
C1557 C1553 1.376 . S
C1557 C1556 1.392 . S
C1557 H1569 0.929 . S
C1558 C1554 1.531 . S
C1558 H1570 0.960 . S
C1558 H1571 0.962 . S
C1558 H1572 0.960 . S
C1559 C1556 1.511 . S
C1559 H1573 0.961 . S
C1559 H1574 0.961 . S
C1559 H1575 0.961 . S
C1560 C1561 1.370 . S
C1560 C1562 1.363 . S
C1560 H1576 0.931 . S
C1561 C1560 1.370 . S
C1561 C1565 1.408 . S
C1562 C1560 1.363 . S
C1562 C1563 1.370 . S
C1562 C1566 1.524 . S
C1563 C1555 1.503 . S
C1563 C1562 1.370 . S
C1563 C1564 1.403 . S
C1564 C1563 1.403 . S
C1564 C1565 1.404 . S
C1564 C1567 1.539 . S
C1565 C1561 1.408 . S
C1565 C1564 1.404 . S
C1565 H1577 0.930 . S
C1566 C1562 1.524 . S
C1566 H1578 0.956 . S
C1566 H1579 0.961 . S
C1566 H1580 0.961 . S
C1567 C1564 1.539 . S
C1567 H1581 0.958 . S
C1567 H1582 0.961 . S
C1567 H1583 0.960 . S
H1568 C1552 0.931 . S
H1569 C1557 0.929 . S
H1570 C1558 0.960 . S
H1571 C1558 0.962 . S
H1572 C1558 0.960 . S
H1573 C1559 0.961 . S
H1574 C1559 0.961 . S
H1575 C1559 0.961 . S
H1576 C1560 0.931 . S
H1577 C1565 0.930 . S
H1578 C1566 0.956 . S
H1579 C1566 0.961 . S
H1580 C1566 0.961 . S
H1581 C1567 0.958 . S
H1582 C1567 0.961 . S
H1583 C1567 0.960 . S
C1584 C1585 1.391 . S
C1584 C1586 1.394 . S
C1584 H1600 0.931 . S
C1585 C1584 1.391 . S
C1585 C1589 1.376 . S
C1586 C1584 1.394 . S
C1586 C1587 1.369 . S
C1586 C1590 1.531 . S
C1587 C1586 1.369 . S
C1587 C1588 1.410 . S
C1587 C1595 1.503 . S
C1588 C1587 1.410 . S
C1588 C1589 1.392 . S
C1588 C1591 1.511 . S
C1589 C1585 1.376 . S
C1589 C1588 1.392 . S
C1589 H1601 0.929 . S
C1590 C1586 1.531 . S
C1590 H1602 0.960 . S
C1590 H1603 0.962 . S
C1590 H1604 0.960 . S
C1591 C1588 1.511 . S
C1591 H1605 0.961 . S
C1591 H1606 0.961 . S
C1591 H1607 0.961 . S
C1592 C1593 1.370 . S
C1592 C1594 1.363 . S
C1592 H1608 0.931 . S
C1593 C1592 1.370 . S
C1593 C1597 1.408 . S
C1594 C1592 1.363 . S
C1594 C1595 1.370 . S
C1594 C1598 1.524 . S
C1595 C1587 1.503 . S
C1595 C1594 1.370 . S
C1595 C1596 1.403 . S
C1596 C1595 1.403 . S
C1596 C1597 1.404 . S
C1596 C1599 1.539 . S
C1597 C1593 1.408 . S
C1597 C1596 1.404 . S
C1597 H1609 0.930 . S
C1598 C1594 1.524 . S
C1598 H1610 0.956 . S
C1598 H1611 0.961 . S
C1598 H1612 0.961 . S
C1599 C1596 1.539 . S
C1599 H1613 0.958 . S
C1599 H1614 0.961 . S
C1599 H1615 0.960 . S
H1600 C1584 0.931 . S
H1601 C1589 0.929 . S
H1602 C1590 0.960 . S
H1603 C1590 0.962 . S
H1604 C1590 0.960 . S
H1605 C1591 0.961 . S
H1606 C1591 0.961 . S
H1607 C1591 0.961 . S
H1608 C1592 0.931 . S
H1609 C1597 0.930 . S
H1610 C1598 0.956 . S
H1611 C1598 0.961 . S
H1612 C1598 0.961 . S
H1613 C1599 0.958 . S
H1614 C1599 0.961 . S
H1615 C1599 0.960 . S
C1616 C1617 1.391 . S
C1616 C1618 1.394 . S
C1616 H1632 0.931 . S
C1617 C1616 1.391 . S
C1617 C1621 1.376 . S
C1618 C1616 1.394 . S
C1618 C1619 1.369 . S
C1618 C1622 1.531 . S
C1619 C1618 1.369 . S
C1619 C1620 1.410 . S
C1619 C1627 1.503 . S
C1620 C1619 1.410 . S
C1620 C1621 1.392 . S
C1620 C1623 1.511 . S
C1621 C1617 1.376 . S
C1621 C1620 1.392 . S
C1621 H1633 0.929 . S
C1622 C1618 1.531 . S
C1622 H1634 0.960 . S
C1622 H1635 0.962 . S
C1622 H1636 0.960 . S
C1623 C1620 1.511 . S
C1623 H1637 0.961 . S
C1623 H1638 0.961 . S
C1623 H1639 0.961 . S
C1624 C1625 1.370 . S
C1624 C1626 1.363 . S
C1624 H1640 0.931 . S
C1625 C1624 1.370 . S
C1625 C1629 1.408 . S
C1626 C1624 1.363 . S
C1626 C1627 1.370 . S
C1626 C1630 1.524 . S
C1627 C1619 1.503 . S
C1627 C1626 1.370 . S
C1627 C1628 1.403 . S
C1628 C1627 1.403 . S
C1628 C1629 1.404 . S
C1628 C1631 1.539 . S
C1629 C1625 1.408 . S
C1629 C1628 1.404 . S
C1629 H1641 0.930 . S
C1630 C1626 1.524 . S
C1630 H1642 0.956 . S
C1630 H1643 0.961 . S
C1630 H1644 0.961 . S
C1631 C1628 1.539 . S
C1631 H1645 0.958 . S
C1631 H1646 0.961 . S
C1631 H1647 0.960 . S
H1632 C1616 0.931 . S
H1633 C1621 0.929 . S
H1634 C1622 0.960 . S
H1635 C1622 0.962 . S
H1636 C1622 0.960 . S
H1637 C1623 0.961 . S
H1638 C1623 0.961 . S
H1639 C1623 0.961 . S
H1640 C1624 0.931 . S
H1641 C1629 0.930 . S
H1642 C1630 0.956 . S
H1643 C1630 0.961 . S
H1644 C1630 0.961 . S
H1645 C1631 0.958 . S
H1646 C1631 0.961 . S
H1647 C1631 0.960 . S
C1648 C1649 1.391 . S
C1648 C1650 1.394 . S
C1648 H1664 0.931 . S
C1649 C1648 1.391 . S
C1649 C1653 1.376 . S
C1650 C1648 1.394 . S
C1650 C1651 1.369 . S
C1650 C1654 1.531 . S
C1651 C1650 1.369 . S
C1651 C1652 1.410 . S
C1651 C1659 1.503 . S
C1652 C1651 1.410 . S
C1652 C1653 1.392 . S
C1652 C1655 1.511 . S
C1653 C1649 1.376 . S
C1653 C1652 1.392 . S
C1653 H1665 0.929 . S
C1654 C1650 1.531 . S
C1654 H1666 0.960 . S
C1654 H1667 0.962 . S
C1654 H1668 0.960 . S
C1655 C1652 1.511 . S
C1655 H1669 0.961 . S
C1655 H1670 0.961 . S
C1655 H1671 0.961 . S
C1656 C1657 1.370 . S
C1656 C1658 1.363 . S
C1656 H1672 0.931 . S
C1657 C1656 1.370 . S
C1657 C1661 1.408 . S
C1658 C1656 1.363 . S
C1658 C1659 1.370 . S
C1658 C1662 1.524 . S
C1659 C1651 1.503 . S
C1659 C1658 1.370 . S
C1659 C1660 1.403 . S
C1660 C1659 1.403 . S
C1660 C1661 1.404 . S
C1660 C1663 1.539 . S
C1661 C1657 1.408 . S
C1661 C1660 1.404 . S
C1661 H1673 0.930 . S
C1662 C1658 1.524 . S
C1662 H1674 0.956 . S
C1662 H1675 0.961 . S
C1662 H1676 0.961 . S
C1663 C1660 1.539 . S
C1663 H1677 0.958 . S
C1663 H1678 0.961 . S
C1663 H1679 0.960 . S
H1664 C1648 0.931 . S
H1665 C1653 0.929 . S
H1666 C1654 0.960 . S
H1667 C1654 0.962 . S
H1668 C1654 0.960 . S
H1669 C1655 0.961 . S
H1670 C1655 0.961 . S
H1671 C1655 0.961 . S
H1672 C1656 0.931 . S
H1673 C1661 0.930 . S
H1674 C1662 0.956 . S
H1675 C1662 0.961 . S
H1676 C1662 0.961 . S
H1677 C1663 0.958 . S
H1678 C1663 0.961 . S
H1679 C1663 0.960 . S
C1680 C1681 1.391 . S
C1680 C1682 1.394 . S
C1680 H1696 0.931 . S
C1681 C1680 1.391 . S
C1681 C1685 1.376 . S
C1682 C1680 1.394 . S
C1682 C1683 1.369 . S
C1682 C1686 1.531 . S
C1683 C1682 1.369 . S
C1683 C1684 1.410 . S
C1683 C1691 1.503 . S
C1684 C1683 1.410 . S
C1684 C1685 1.392 . S
C1684 C1687 1.511 . S
C1685 C1681 1.376 . S
C1685 C1684 1.392 . S
C1685 H1697 0.929 . S
C1686 C1682 1.531 . S
C1686 H1698 0.960 . S
C1686 H1699 0.962 . S
C1686 H1700 0.960 . S
C1687 C1684 1.511 . S
C1687 H1701 0.961 . S
C1687 H1702 0.961 . S
C1687 H1703 0.961 . S
C1688 C1689 1.370 . S
C1688 C1690 1.363 . S
C1688 H1704 0.931 . S
C1689 C1688 1.370 . S
C1689 C1693 1.408 . S
C1690 C1688 1.363 . S
C1690 C1691 1.370 . S
C1690 C1694 1.524 . S
C1691 C1683 1.503 . S
C1691 C1690 1.370 . S
C1691 C1692 1.403 . S
C1692 C1691 1.403 . S
C1692 C1693 1.404 . S
C1692 C1695 1.539 . S
C1693 C1689 1.408 . S
C1693 C1692 1.404 . S
C1693 H1705 0.930 . S
C1694 C1690 1.524 . S
C1694 H1706 0.956 . S
C1694 H1707 0.961 . S
C1694 H1708 0.961 . S
C1695 C1692 1.539 . S
C1695 H1709 0.958 . S
C1695 H1710 0.961 . S
C1695 H1711 0.960 . S
H1696 C1680 0.931 . S
H1697 C1685 0.929 . S
H1698 C1686 0.960 . S
H1699 C1686 0.962 . S
H1700 C1686 0.960 . S
H1701 C1687 0.961 . S
H1702 C1687 0.961 . S
H1703 C1687 0.961 . S
H1704 C1688 0.931 . S
H1705 C1693 0.930 . S
H1706 C1694 0.956 . S
H1707 C1694 0.961 . S
H1708 C1694 0.961 . S
H1709 C1695 0.958 . S
H1710 C1695 0.961 . S
H1711 C1695 0.960 . S
C1712 C1713 1.391 . S
C1712 C1714 1.394 . S
C1712 H1728 0.931 . S
C1713 C1712 1.391 . S
C1713 C1717 1.376 . S
C1714 C1712 1.394 . S
C1714 C1715 1.369 . S
C1714 C1718 1.531 . S
C1715 C1714 1.369 . S
C1715 C1716 1.410 . S
C1715 C1723 1.503 . S
C1716 C1715 1.410 . S
C1716 C1717 1.392 . S
C1716 C1719 1.511 . S
C1717 C1713 1.376 . S
C1717 C1716 1.392 . S
C1717 H1729 0.929 . S
C1718 C1714 1.531 . S
C1718 H1730 0.960 . S
C1718 H1731 0.962 . S
C1718 H1732 0.960 . S
C1719 C1716 1.511 . S
C1719 H1733 0.961 . S
C1719 H1734 0.961 . S
C1719 H1735 0.961 . S
C1720 C1721 1.370 . S
C1720 C1722 1.363 . S
C1720 H1736 0.931 . S
C1721 C1720 1.370 . S
C1721 C1725 1.408 . S
C1722 C1720 1.363 . S
C1722 C1723 1.370 . S
C1722 C1726 1.524 . S
C1723 C1715 1.503 . S
C1723 C1722 1.370 . S
C1723 C1724 1.403 . S
C1724 C1723 1.403 . S
C1724 C1725 1.404 . S
C1724 C1727 1.539 . S
C1725 C1721 1.408 . S
C1725 C1724 1.404 . S
C1725 H1737 0.930 . S
C1726 C1722 1.524 . S
C1726 H1738 0.956 . S
C1726 H1739 0.961 . S
C1726 H1740 0.961 . S
C1727 C1724 1.539 . S
C1727 H1741 0.958 . S
C1727 H1742 0.961 . S
C1727 H1743 0.960 . S
H1728 C1712 0.931 . S
H1729 C1717 0.929 . S
H1730 C1718 0.960 . S
H1731 C1718 0.962 . S
H1732 C1718 0.960 . S
H1733 C1719 0.961 . S
H1734 C1719 0.961 . S
H1735 C1719 0.961 . S
H1736 C1720 0.931 . S
H1737 C1725 0.930 . S
H1738 C1726 0.956 . S
H1739 C1726 0.961 . S
H1740 C1726 0.961 . S
H1741 C1727 0.958 . S
H1742 C1727 0.961 . S
H1743 C1727 0.960 . S
C1744 C1745 1.391 . S
C1744 C1746 1.394 . S
C1744 H1760 0.931 . S
C1745 C1744 1.391 . S
C1745 C1749 1.376 . S
C1746 C1744 1.394 . S
C1746 C1747 1.369 . S
C1746 C1750 1.531 . S
C1747 C1746 1.369 . S
C1747 C1748 1.410 . S
C1747 C1755 1.503 . S
C1748 C1747 1.410 . S
C1748 C1749 1.392 . S
C1748 C1751 1.511 . S
C1749 C1745 1.376 . S
C1749 C1748 1.392 . S
C1749 H1761 0.929 . S
C1750 C1746 1.531 . S
C1750 H1762 0.960 . S
C1750 H1763 0.962 . S
C1750 H1764 0.960 . S
C1751 C1748 1.511 . S
C1751 H1765 0.961 . S
C1751 H1766 0.961 . S
C1751 H1767 0.961 . S
C1752 C1753 1.370 . S
C1752 C1754 1.363 . S
C1752 H1768 0.931 . S
C1753 C1752 1.370 . S
C1753 C1757 1.408 . S
C1754 C1752 1.363 . S
C1754 C1755 1.370 . S
C1754 C1758 1.524 . S
C1755 C1747 1.503 . S
C1755 C1754 1.370 . S
C1755 C1756 1.403 . S
C1756 C1755 1.403 . S
C1756 C1757 1.404 . S
C1756 C1759 1.539 . S
C1757 C1753 1.408 . S
C1757 C1756 1.404 . S
C1757 H1769 0.930 . S
C1758 C1754 1.524 . S
C1758 H1770 0.956 . S
C1758 H1771 0.961 . S
C1758 H1772 0.961 . S
C1759 C1756 1.539 . S
C1759 H1773 0.958 . S
C1759 H1774 0.961 . S
C1759 H1775 0.960 . S
H1760 C1744 0.931 . S
H1761 C1749 0.929 . S
H1762 C1750 0.960 . S
H1763 C1750 0.962 . S
H1764 C1750 0.960 . S
H1765 C1751 0.961 . S
H1766 C1751 0.961 . S
H1767 C1751 0.961 . S
H1768 C1752 0.931 . S
H1769 C1757 0.930 . S
H1770 C1758 0.956 . S
H1771 C1758 0.961 . S
H1772 C1758 0.961 . S
H1773 C1759 0.958 . S
H1774 C1759 0.961 . S
H1775 C1759 0.960 . S
C1776 C1777 1.391 . S
C1776 C1778 1.394 . S
C1776 H1792 0.931 . S
C1777 C1776 1.391 . S
C1777 C1781 1.376 . S
C1778 C1776 1.394 . S
C1778 C1779 1.369 . S
C1778 C1782 1.531 . S
C1779 C1778 1.369 . S
C1779 C1780 1.410 . S
C1779 C1787 1.503 . S
C1780 C1779 1.410 . S
C1780 C1781 1.392 . S
C1780 C1783 1.511 . S
C1781 C1777 1.376 . S
C1781 C1780 1.392 . S
C1781 H1793 0.929 . S
C1782 C1778 1.531 . S
C1782 H1794 0.960 . S
C1782 H1795 0.962 . S
C1782 H1796 0.960 . S
C1783 C1780 1.511 . S
C1783 H1797 0.961 . S
C1783 H1798 0.961 . S
C1783 H1799 0.961 . S
C1784 C1785 1.370 . S
C1784 C1786 1.363 . S
C1784 H1800 0.931 . S
C1785 C1784 1.370 . S
C1785 C1789 1.408 . S
C1786 C1784 1.363 . S
C1786 C1787 1.370 . S
C1786 C1790 1.524 . S
C1787 C1779 1.503 . S
C1787 C1786 1.370 . S
C1787 C1788 1.403 . S
C1788 C1787 1.403 . S
C1788 C1789 1.404 . S
C1788 C1791 1.539 . S
C1789 C1785 1.408 . S
C1789 C1788 1.404 . S
C1789 H1801 0.930 . S
C1790 C1786 1.524 . S
C1790 H1802 0.956 . S
C1790 H1803 0.961 . S
C1790 H1804 0.961 . S
C1791 C1788 1.539 . S
C1791 H1805 0.958 . S
C1791 H1806 0.961 . S
C1791 H1807 0.960 . S
H1792 C1776 0.931 . S
H1793 C1781 0.929 . S
H1794 C1782 0.960 . S
H1795 C1782 0.962 . S
H1796 C1782 0.960 . S
H1797 C1783 0.961 . S
H1798 C1783 0.961 . S
H1799 C1783 0.961 . S
H1800 C1784 0.931 . S
H1801 C1789 0.930 . S
H1802 C1790 0.956 . S
H1803 C1790 0.961 . S
H1804 C1790 0.961 . S
H1805 C1791 0.958 . S
H1806 C1791 0.961 . S
H1807 C1791 0.960 . S
C1808 C1809 1.391 . S
C1808 C1810 1.394 . S
C1808 H1824 0.931 . S
C1809 C1808 1.391 . S
C1809 C1813 1.376 . S
C1810 C1808 1.394 . S
C1810 C1811 1.369 . S
C1810 C1814 1.531 . S
C1811 C1810 1.369 . S
C1811 C1812 1.410 . S
C1811 C1819 1.503 . S
C1812 C1811 1.410 . S
C1812 C1813 1.392 . S
C1812 C1815 1.511 . S
C1813 C1809 1.376 . S
C1813 C1812 1.392 . S
C1813 H1825 0.929 . S
C1814 C1810 1.531 . S
C1814 H1826 0.960 . S
C1814 H1827 0.962 . S
C1814 H1828 0.960 . S
C1815 C1812 1.511 . S
C1815 H1829 0.961 . S
C1815 H1830 0.961 . S
C1815 H1831 0.961 . S
C1816 C1817 1.370 . S
C1816 C1818 1.363 . S
C1816 H1832 0.931 . S
C1817 C1816 1.370 . S
C1817 C1821 1.408 . S
C1818 C1816 1.363 . S
C1818 C1819 1.370 . S
C1818 C1822 1.524 . S
C1819 C1811 1.503 . S
C1819 C1818 1.370 . S
C1819 C1820 1.403 . S
C1820 C1819 1.403 . S
C1820 C1821 1.404 . S
C1820 C1823 1.539 . S
C1821 C1817 1.408 . S
C1821 C1820 1.404 . S
C1821 H1833 0.930 . S
C1822 C1818 1.524 . S
C1822 H1834 0.956 . S
C1822 H1835 0.961 . S
C1822 H1836 0.961 . S
C1823 C1820 1.539 . S
C1823 H1837 0.958 . S
C1823 H1838 0.961 . S
C1823 H1839 0.960 . S
H1824 C1808 0.931 . S
H1825 C1813 0.929 . S
H1826 C1814 0.960 . S
H1827 C1814 0.962 . S
H1828 C1814 0.960 . S
H1829 C1815 0.961 . S
H1830 C1815 0.961 . S
H1831 C1815 0.961 . S
H1832 C1816 0.931 . S
H1833 C1821 0.930 . S
H1834 C1822 0.956 . S
H1835 C1822 0.961 . S
H1836 C1822 0.961 . S
H1837 C1823 0.958 . S
H1838 C1823 0.961 . S
H1839 C1823 0.960 . S
C1840 C1841 1.391 . S
C1840 C1842 1.394 . S
C1840 H1856 0.931 . S
C1841 C1840 1.391 . S
C1841 C1845 1.376 . S
C1842 C1840 1.394 . S
C1842 C1843 1.369 . S
C1842 C1846 1.531 . S
C1843 C1842 1.369 . S
C1843 C1844 1.410 . S
C1843 C1851 1.503 . S
C1844 C1843 1.410 . S
C1844 C1845 1.392 . S
C1844 C1847 1.511 . S
C1845 C1841 1.376 . S
C1845 C1844 1.392 . S
C1845 H1857 0.929 . S
C1846 C1842 1.531 . S
C1846 H1858 0.960 . S
C1846 H1859 0.962 . S
C1846 H1860 0.960 . S
C1847 C1844 1.511 . S
C1847 H1861 0.961 . S
C1847 H1862 0.961 . S
C1847 H1863 0.961 . S
C1848 C1849 1.370 . S
C1848 C1850 1.363 . S
C1848 H1864 0.931 . S
C1849 C1848 1.370 . S
C1849 C1853 1.408 . S
C1850 C1848 1.363 . S
C1850 C1851 1.370 . S
C1850 C1854 1.524 . S
C1851 C1843 1.503 . S
C1851 C1850 1.370 . S
C1851 C1852 1.403 . S
C1852 C1851 1.403 . S
C1852 C1853 1.404 . S
C1852 C1855 1.539 . S
C1853 C1849 1.408 . S
C1853 C1852 1.404 . S
C1853 H1865 0.930 . S
C1854 C1850 1.524 . S
C1854 H1866 0.956 . S
C1854 H1867 0.961 . S
C1854 H1868 0.961 . S
C1855 C1852 1.539 . S
C1855 H1869 0.958 . S
C1855 H1870 0.961 . S
C1855 H1871 0.960 . S
H1856 C1840 0.931 . S
H1857 C1845 0.929 . S
H1858 C1846 0.960 . S
H1859 C1846 0.962 . S
H1860 C1846 0.960 . S
H1861 C1847 0.961 . S
H1862 C1847 0.961 . S
H1863 C1847 0.961 . S
H1864 C1848 0.931 . S
H1865 C1853 0.930 . S
H1866 C1854 0.956 . S
H1867 C1854 0.961 . S
H1868 C1854 0.961 . S
H1869 C1855 0.958 . S
H1870 C1855 0.961 . S
H1871 C1855 0.960 . S
C337 C311 2.031 . S
C345 C8 1.958 . S
C369 C17 1.999 . S
C377 C232 1.932 . S
C401 C325 1.952 . S
C409 C36 1.916 . S
C433 C302 1.958 . S
C441 C50 1.984 . S
C465 C260 1.970 . S
C473 C64 1.937 . S
C497 C269 1.893 . S
C505 C73 1.997 . S
C529 C288 2.037 . S
C537 C87 1.886 . S
C561 C101 1.984 . S
C569 C241 1.862 . S
C593 C185 2.006 . S
C601 C115 1.915 . S
C625 C204 1.887 . S
C633 C134 1.993 . S
C657 C143 1.893 . S
C665 C213 2.042 . S
C689 C162 1.993 . S
C697 C176 1.915 . S
C721 C106 1.971 . S
C729 C199 2.025 . S
C753 C218 1.937 . S
C761 C59 1.996 . S
C785 C78 1.929 . S
C793 C171 1.968 . S
C817 C190 1.907 . S
C825 C92 1.996 . S
C849 C148 1.996 . S
C857 C22 1.918 . S
C881 C31 2.013 . S
C889 C157 1.847 . S
C913 C45 1.863 . S
C921 C120 2.029 . S
C945 C3 1.987 . S
C953 C129 1.860 . S
C977 C283 1.928 . S
C985 C297 2.020 . S
C1009 C316 1.891 . S
C1017 C246 1.994 . S
C1041 C255 1.875 . S
C1049 C227 2.045 . S
C1073 C330 1.946 . S
C1081 C274 1.975 . S
C1105 C9 0.747 . S
C1113 C121 0.879 . S
C1137 C133 0.718 . S
C1145 C21 0.824 . S
C1169 C37 0.719 . S
C1177 C149 0.813 . S
C1201 C51 0.771 . S
C1209 C161 0.817 . S
C1233 C65 0.821 . S
C1241 C175 0.826 . S
C1265 C77 0.831 . S
C1273 C191 0.793 . S
C1297 C203 0.814 . S
C1305 C91 0.778 . S
C1329 C219 0.869 . S
C1337 C105 0.898 . S
C1361 C119 0.888 . S
C1369 C231 0.903 . S
C1393 C135 0.816 . S
C1401 C331 0.815 . S
C1425 C301 0.893 . S
C1433 C147 0.849 . S
C1457 C317 0.858 . S
C1465 C163 0.782 . S
C1489 C247 0.822 . S
C1497 C177 0.812 . S
C1521 C259 0.821 . S
C1529 C189 0.916 . S
C1553 C205 0.716 . S
C1561 C275 0.826 . S
C1585 C217 0.929 . S
C1593 C287 0.885 . S
C1617 C7 0.917 . S
C1625 C233 0.853 . S
C1649 C245 0.894 . S
C1657 C63 0.850 . S
C1681 C261 0.868 . S
C1689 C79 0.748 . S
C1713 C273 0.762 . S
C1721 C93 0.849 . S
C1745 C289 0.825 . S
C1753 C107 0.855 . S
C1777 C303 0.869 . S
C1785 C35 0.861 . S
C1809 C49 0.723 . S
C1817 C315 0.827 . S
C1841 C329 0.817 . S
C1849 C23 0.749 . S
