# Generated by pormake.
# Topology uka, (4)-cn, num edge types: 1
# Building blocks:
#     Node 0, Type 0, BuildingBlock: QUQFOY_clean_sbu_1, # of connection points: 4
#     Node 1, Type 0, BuildingBlock: QUQFOY_clean_sbu_1, # of connection points: 4
#     Node 2, Type 0, BuildingBlock: QUQFOY_clean_sbu_1, # of connection points: 4
#     Node 3, Type 0, BuildingBlock: QUQFOY_clean_sbu_1, # of connection points: 4
#     Node 4, Type 0, BuildingBlock: QUQFOY_clean_sbu_1, # of connection points: 4
#     Node 5, Type 0, BuildingBlock: QUQFOY_clean_sbu_1, # of connection points: 4
#     Node 6, Type 0, BuildingBlock: QUQFOY_clean_sbu_1, # of connection points: 4
#     Node 7, Type 0, BuildingBlock: QUQFOY_clean_sbu_1, # of connection points: 4
#     Node 8, Type 0, BuildingBlock: QUQFOY_clean_sbu_1, # of connection points: 4
#     Node 9, Type 0, BuildingBlock: QUQFOY_clean_sbu_1, # of connection points: 4
#     Node 10, Type 0, BuildingBlock: QUQFOY_clean_sbu_1, # of connection points: 4
#     Node 11, Type 0, BuildingBlock: QUQFOY_clean_sbu_1, # of connection points: 4
#     Node 12, Type 0, BuildingBlock: QUQFOY_clean_sbu_1, # of connection points: 4
#     Node 13, Type 0, BuildingBlock: QUQFOY_clean_sbu_1, # of connection points: 4
#     Node 14, Type 0, BuildingBlock: QUQFOY_clean_sbu_1, # of connection points: 4
#     Node 15, Type 0, BuildingBlock: QUQFOY_clean_sbu_1, # of connection points: 4
#     Node 16, Type 0, BuildingBlock: QUQFOY_clean_sbu_1, # of connection points: 4
#     Node 17, Type 0, BuildingBlock: QUQFOY_clean_sbu_1, # of connection points: 4
#     Node 18, Type 0, BuildingBlock: QUQFOY_clean_sbu_1, # of connection points: 4
#     Node 19, Type 0, BuildingBlock: QUQFOY_clean_sbu_1, # of connection points: 4
#     Node 20, Type 0, BuildingBlock: QUQFOY_clean_sbu_1, # of connection points: 4
#     Node 21, Type 0, BuildingBlock: QUQFOY_clean_sbu_1, # of connection points: 4
#     Node 22, Type 0, BuildingBlock: QUQFOY_clean_sbu_1, # of connection points: 4
#     Node 23, Type 0, BuildingBlock: QUQFOY_clean_sbu_1, # of connection points: 4
#     Node 24, Type 0, BuildingBlock: QUQFOY_clean_sbu_1, # of connection points: 4
#     Node 25, Type 0, BuildingBlock: QUQFOY_clean_sbu_1, # of connection points: 4
#     Node 26, Type 0, BuildingBlock: QUQFOY_clean_sbu_1, # of connection points: 4
#     Node 27, Type 0, BuildingBlock: QUQFOY_clean_sbu_1, # of connection points: 4
#     Node 28, Type 0, BuildingBlock: QUQFOY_clean_sbu_1, # of connection points: 4
#     Node 29, Type 0, BuildingBlock: QUQFOY_clean_sbu_1, # of connection points: 4
#     Node 30, Type 0, BuildingBlock: QUQFOY_clean_sbu_1, # of connection points: 4
#     Node 31, Type 0, BuildingBlock: QUQFOY_clean_sbu_1, # of connection points: 4
#     Edge 32, Type (0, 0), BuildingBlock: TEMPAE_clean_linker_10, # of connection points: 2
#     Edge 33, Type (0, 0), BuildingBlock: TEMPAE_clean_linker_10, # of connection points: 2
#     Edge 34, Type (0, 0), BuildingBlock: TEMPAE_clean_linker_10, # of connection points: 2
#     Edge 35, Type (0, 0), BuildingBlock: TEMPAE_clean_linker_10, # of connection points: 2
#     Edge 36, Type (0, 0), BuildingBlock: TEMPAE_clean_linker_10, # of connection points: 2
#     Edge 37, Type (0, 0), BuildingBlock: TEMPAE_clean_linker_10, # of connection points: 2
#     Edge 38, Type (0, 0), BuildingBlock: TEMPAE_clean_linker_10, # of connection points: 2
#     Edge 39, Type (0, 0), BuildingBlock: TEMPAE_clean_linker_10, # of connection points: 2
#     Edge 40, Type (0, 0), BuildingBlock: TEMPAE_clean_linker_10, # of connection points: 2
#     Edge 41, Type (0, 0), BuildingBlock: TEMPAE_clean_linker_10, # of connection points: 2
#     Edge 42, Type (0, 0), BuildingBlock: TEMPAE_clean_linker_10, # of connection points: 2
#     Edge 43, Type (0, 0), BuildingBlock: TEMPAE_clean_linker_10, # of connection points: 2
#     Edge 44, Type (0, 0), BuildingBlock: TEMPAE_clean_linker_10, # of connection points: 2
#     Edge 45, Type (0, 0), BuildingBlock: TEMPAE_clean_linker_10, # of connection points: 2
#     Edge 46, Type (0, 0), BuildingBlock: TEMPAE_clean_linker_10, # of connection points: 2
#     Edge 47, Type (0, 0), BuildingBlock: TEMPAE_clean_linker_10, # of connection points: 2
#     Edge 48, Type (0, 0), BuildingBlock: TEMPAE_clean_linker_10, # of connection points: 2
#     Edge 49, Type (0, 0), BuildingBlock: TEMPAE_clean_linker_10, # of connection points: 2
#     Edge 50, Type (0, 0), BuildingBlock: TEMPAE_clean_linker_10, # of connection points: 2
#     Edge 51, Type (0, 0), BuildingBlock: TEMPAE_clean_linker_10, # of connection points: 2
#     Edge 52, Type (0, 0), BuildingBlock: TEMPAE_clean_linker_10, # of connection points: 2
#     Edge 53, Type (0, 0), BuildingBlock: TEMPAE_clean_linker_10, # of connection points: 2
#     Edge 54, Type (0, 0), BuildingBlock: TEMPAE_clean_linker_10, # of connection points: 2
#     Edge 55, Type (0, 0), BuildingBlock: TEMPAE_clean_linker_10, # of connection points: 2
#     Edge 56, Type (0, 0), BuildingBlock: TEMPAE_clean_linker_10, # of connection points: 2
#     Edge 57, Type (0, 0), BuildingBlock: TEMPAE_clean_linker_10, # of connection points: 2
#     Edge 58, Type (0, 0), BuildingBlock: TEMPAE_clean_linker_10, # of connection points: 2
#     Edge 59, Type (0, 0), BuildingBlock: TEMPAE_clean_linker_10, # of connection points: 2
#     Edge 60, Type (0, 0), BuildingBlock: TEMPAE_clean_linker_10, # of connection points: 2
#     Edge 61, Type (0, 0), BuildingBlock: TEMPAE_clean_linker_10, # of connection points: 2
#     Edge 62, Type (0, 0), BuildingBlock: TEMPAE_clean_linker_10, # of connection points: 2
#     Edge 63, Type (0, 0), BuildingBlock: TEMPAE_clean_linker_10, # of connection points: 2
#     Edge 64, Type (0, 0), BuildingBlock: TEMPAE_clean_linker_10, # of connection points: 2
#     Edge 65, Type (0, 0), BuildingBlock: TEMPAE_clean_linker_10, # of connection points: 2
#     Edge 66, Type (0, 0), BuildingBlock: TEMPAE_clean_linker_10, # of connection points: 2
#     Edge 67, Type (0, 0), BuildingBlock: TEMPAE_clean_linker_10, # of connection points: 2
#     Edge 68, Type (0, 0), BuildingBlock: TEMPAE_clean_linker_10, # of connection points: 2
#     Edge 69, Type (0, 0), BuildingBlock: TEMPAE_clean_linker_10, # of connection points: 2
#     Edge 70, Type (0, 0), BuildingBlock: TEMPAE_clean_linker_10, # of connection points: 2
#     Edge 71, Type (0, 0), BuildingBlock: TEMPAE_clean_linker_10, # of connection points: 2
#     Edge 72, Type (0, 0), BuildingBlock: TEMPAE_clean_linker_10, # of connection points: 2
#     Edge 73, Type (0, 0), BuildingBlock: TEMPAE_clean_linker_10, # of connection points: 2
#     Edge 74, Type (0, 0), BuildingBlock: TEMPAE_clean_linker_10, # of connection points: 2
#     Edge 75, Type (0, 0), BuildingBlock: TEMPAE_clean_linker_10, # of connection points: 2
#     Edge 76, Type (0, 0), BuildingBlock: TEMPAE_clean_linker_10, # of connection points: 2
#     Edge 77, Type (0, 0), BuildingBlock: TEMPAE_clean_linker_10, # of connection points: 2
#     Edge 78, Type (0, 0), BuildingBlock: TEMPAE_clean_linker_10, # of connection points: 2
#     Edge 79, Type (0, 0), BuildingBlock: TEMPAE_clean_linker_10, # of connection points: 2
#     Edge 80, Type (0, 0), BuildingBlock: TEMPAE_clean_linker_10, # of connection points: 2
#     Edge 81, Type (0, 0), BuildingBlock: TEMPAE_clean_linker_10, # of connection points: 2
#     Edge 82, Type (0, 0), BuildingBlock: TEMPAE_clean_linker_10, # of connection points: 2
#     Edge 83, Type (0, 0), BuildingBlock: TEMPAE_clean_linker_10, # of connection points: 2
#     Edge 84, Type (0, 0), BuildingBlock: TEMPAE_clean_linker_10, # of connection points: 2
#     Edge 85, Type (0, 0), BuildingBlock: TEMPAE_clean_linker_10, # of connection points: 2
#     Edge 86, Type (0, 0), BuildingBlock: TEMPAE_clean_linker_10, # of connection points: 2
#     Edge 87, Type (0, 0), BuildingBlock: TEMPAE_clean_linker_10, # of connection points: 2
#     Edge 88, Type (0, 0), BuildingBlock: TEMPAE_clean_linker_10, # of connection points: 2
#     Edge 89, Type (0, 0), BuildingBlock: TEMPAE_clean_linker_10, # of connection points: 2
#     Edge 90, Type (0, 0), BuildingBlock: TEMPAE_clean_linker_10, # of connection points: 2
#     Edge 91, Type (0, 0), BuildingBlock: TEMPAE_clean_linker_10, # of connection points: 2
#     Edge 92, Type (0, 0), BuildingBlock: TEMPAE_clean_linker_10, # of connection points: 2
#     Edge 93, Type (0, 0), BuildingBlock: TEMPAE_clean_linker_10, # of connection points: 2
#     Edge 94, Type (0, 0), BuildingBlock: TEMPAE_clean_linker_10, # of connection points: 2
#     Edge 95, Type (0, 0), BuildingBlock: TEMPAE_clean_linker_10, # of connection points: 2
# Relax obj value: 0.063
# Max RMSD: 0.095
# Mean RMSD: 0.095
data_MOF--net-uka--node1-QUQFOY_clean_sbu_1--edge1-TEMPAE_clean_linker_10
_symmetry_space_group_name_H-M    P1
_symmetry_Int_Tables_number       1
_symmetry_cell_setting            triclinic
loop_
_symmetry_equiv_pos_as_xyz
'x, y, z'
_cell_length_a     64.268051
_cell_length_b     64.269269
_cell_length_c     44.91758
_cell_angle_alpha  90.001526
_cell_angle_beta   90.002314
_cell_angle_gamma 89.996236
loop_
_atom_site_label
_atom_site_type_symbol
_atom_site_fract_x
_atom_site_fract_y
_atom_site_fract_z
_atom_type_partial_charge
O0 O 0.13217 0.23727 0.31121 0.0
Cd1 Cd 0.14353 0.26582 0.29906 0.0
Cd2 Cd 0.10708 0.26875 0.27007 0.0
O3 O 0.10486 0.2377 0.28153 0.0
O4 O 0.17407 0.26433 0.30345 0.0
O5 O 0.15804 0.26727 0.25978 0.0
C6 C 0.17507 0.26513 0.2748 0.0
C7 C 0.09341 0.28015 0.22461 0.0
C8 C 0.11634 0.22828 0.30025 0.0
C9 C 0.11521 0.2974 0.32275 0.0
O10 O 0.10263 0.28995 0.30374 0.0
O11 O 0.13381 0.29086 0.32389 0.0
O12 O 0.08162 0.2738 0.2459 0.0
O13 O 0.11329 0.27917 0.22855 0.0
O14 O 0.01676 0.87767 0.55013 0.0
Cd15 Cd 0.9886 0.89264 0.55268 0.0
Cd16 Cd 0.97707 0.85693 0.51868 0.0
O17 O 0.00833 0.8503 0.52306 0.0
O18 O 0.99721 0.92008 0.56867 0.0
O19 O 0.98178 0.91619 0.52494 0.0
C20 C 0.99038 0.92824 0.54439 0.0
C21 C 0.96063 0.8452 0.47516 0.0
C22 C 0.02179 0.8608 0.53732 0.0
C23 C 0.95703 0.86469 0.57967 0.0
O24 O 0.95906 0.8538 0.55624 0.0
O25 O 0.96726 0.88144 0.58288 0.0
O26 O 0.9669 0.83257 0.49546 0.0
O27 O 0.96407 0.86479 0.47914 0.0
O28 O 0.36641 0.76289 0.80118 0.0
Cd29 Cd 0.35701 0.73304 0.79214 0.0
Cd30 Cd 0.3927 0.73188 0.76111 0.0
O31 O 0.39309 0.76334 0.77031 0.0
O32 O 0.3267 0.73228 0.79951 0.0
O33 O 0.34082 0.72881 0.75462 0.0
C34 C 0.3244 0.73015 0.77115 0.0
C35 C 0.40447 0.71976 0.715 0.0
C36 C 0.38129 0.77259 0.7888 0.0
C37 C 0.38871 0.70446 0.81575 0.0
O38 O 0.40017 0.71223 0.79559 0.0
O39 O 0.3697 0.70962 0.81759 0.0
O40 O 0.41698 0.72761 0.73435 0.0
O41 O 0.38485 0.7196 0.72124 0.0
O42 O 0.49382 0.11788 0.05156 0.0
Cd43 Cd 0.52288 0.10831 0.03838 0.0
Cd44 Cd 0.52203 0.14336 0.00751 0.0
O45 O 0.49097 0.14349 0.01918 0.0
O46 O 0.52369 0.07787 0.04461 0.0
O47 O 0.52401 0.09276 -6e-05 0.0
C48 C 0.52342 0.07608 0.01601 0.0
C49 C 0.53264 0.15365 0.96001 0.0
C50 C 0.4831 0.13217 0.03948 0.0
C51 C 0.55226 0.14009 0.05889 0.0
O52 O 0.54278 0.15155 0.04028 0.0
O53 O 0.548 0.12084 0.0605 0.0
O54 O 0.52516 0.16674 0.9789 0.0
O55 O 0.53319 0.13426 0.9676 0.0
O56 O 0.13374 0.75523 0.18651 0.0
Cd57 Cd 0.14264 0.72605 0.19983 0.0
Cd58 Cd 0.10713 0.72723 0.23014 0.0
O59 O 0.10759 0.75823 0.21796 0.0
O60 O 0.1732 0.72473 0.19546 0.0
O61 O 0.15696 0.72436 0.23918 0.0
C62 C 0.17413 0.72472 0.22416 0.0
C63 C 0.0948 0.71728 0.27704 0.0
C64 C 0.11929 0.76603 0.19805 0.0
C65 C 0.11096 0.69701 0.17849 0.0
O66 O 0.0995 0.70627 0.19733 0.0
O67 O 0.13018 0.70137 0.17679 0.0
O68 O 0.08261 0.72469 0.25694 0.0
O69 O 0.11444 0.71642 0.27107 0.0
O70 O 0.4849 0.87904 0.44959 0.0
Cd71 Cd 0.51449 0.88998 0.45644 0.0
Cd72 Cd 0.51921 0.85351 0.48546 0.0
O73 O 0.48767 0.85095 0.47751 0.0
O74 O 0.51323 0.92033 0.44944 0.0
O75 O 0.51964 0.90631 0.49369 0.0
C76 C 0.51672 0.92267 0.47749 0.0
C77 C 0.53279 0.8413 0.53053 0.0
C78 C 0.47686 0.86285 0.46101 0.0
C79 C 0.54418 0.8607 0.42904 0.0
O80 O 0.53849 0.84845 0.44966 0.0
O81 O 0.53722 0.87916 0.42811 0.0
O82 O 0.52577 0.82883 0.51049 0.0
O83 O 0.53145 0.86104 0.5255 0.0
O84 O 0.37287 0.22998 0.70429 0.0
Cd85 Cd 0.35709 0.25772 0.70315 0.0
Cd86 Cd 0.39309 0.27003 0.7355 0.0
O87 O 0.40078 0.23911 0.72971 0.0
O88 O 0.32949 0.24858 0.68832 0.0
O89 O 0.33407 0.26362 0.73217 0.0
C90 C 0.32175 0.25494 0.71313 0.0
C91 C 0.4044 0.28598 0.77966 0.0
C92 C 0.39031 0.22543 0.71584 0.0
C93 C 0.38344 0.29044 0.67545 0.0
O94 O 0.3949 0.2887 0.69838 0.0
O95 O 0.36702 0.2796 0.67285 0.0
O96 O 0.41715 0.28072 0.75893 0.0
O97 O 0.38493 0.28189 0.77565 0.0
O98 O 0.0043 0.11306 0.93592 0.0
Cd99 Cd 0.97545 0.09963 0.9394 0.0
Cd100 Cd 0.97067 0.13391 0.97824 0.0
O101 O 0.00208 0.13749 0.97023 0.0
O102 O 0.98075 0.07208 0.9211 0.0
O103 O 0.97137 0.07616 0.96821 0.0
C104 C 0.97724 0.06401 0.94687 0.0
C105 C 0.95797 0.14498 0.0246 0.0
C106 C 0.01255 0.1277 0.95075 0.0
C107 C 0.94459 0.13102 0.92102 0.0
O108 O 0.95081 0.14099 0.94377 0.0
O109 O 0.95162 0.11297 0.91547 0.0
O110 O 0.9648 0.15787 0.00503 0.0
O111 O 0.95888 0.1254 0.01832 0.0
O112 O 0.87086 0.76752 0.70537 0.0
Cd113 Cd 0.85578 0.73937 0.70437 0.0
Cd114 Cd 0.89142 0.72876 0.73858 0.0
O115 O 0.89803 0.75996 0.73335 0.0
O116 O 0.82834 0.74777 0.68812 0.0
O117 O 0.8323 0.7335 0.73263 0.0
C118 C 0.82024 0.74172 0.71286 0.0
C119 C 0.90219 0.71273 0.78287 0.0
C120 C 0.88758 0.77298 0.71821 0.0
C121 C 0.88383 0.70739 0.67859 0.0
O122 O 0.89496 0.71025 0.70162 0.0
O123 O 0.86681 0.71715 0.67531 0.0
O124 O 0.91526 0.71887 0.76307 0.0
O125 O 0.88269 0.71616 0.77798 0.0
O126 O 0.98552 0.12121 0.45687 0.0
Cd127 Cd 0.01457 0.11014 0.46753 0.0
Cd128 Cd 0.0169 0.14695 0.49704 0.0
O129 O 0.98582 0.1489 0.48588 0.0
O130 O 0.01366 0.07999 0.45874 0.0
O131 O 0.01714 0.09277 0.50438 0.0
C132 C 0.01529 0.07686 0.48698 0.0
C133 C 0.02864 0.15978 0.54275 0.0
C134 C 0.97641 0.13705 0.46764 0.0
C135 C 0.04549 0.13984 0.44426 0.0
O136 O 0.03783 0.15221 0.46336 0.0
O137 O 0.03929 0.12113 0.44298 0.0
O138 O 0.02191 0.17194 0.52213 0.0
O139 O 0.02774 0.13997 0.53806 0.0
O140 O 0.63396 0.24431 0.19024 0.0
Cd141 Cd 0.64368 0.27298 0.20471 0.0
Cd142 Cd 0.6087 0.27141 0.23621 0.0
O143 O 0.60865 0.24063 0.22293 0.0
O144 O 0.67412 0.27387 0.19853 0.0
O145 O 0.65924 0.27345 0.24319 0.0
C146 C 0.67593 0.27317 0.22712 0.0
C147 C 0.59707 0.28087 0.28366 0.0
C148 C 0.61974 0.23329 0.20196 0.0
C149 C 0.61188 0.30268 0.18583 0.0
O150 O 0.60062 0.29288 0.20434 0.0
O151 O 0.6311 0.29846 0.18359 0.0
O152 O 0.58459 0.27365 0.26378 0.0
O153 O 0.61663 0.28173 0.27716 0.0
O154 O 0.50708 0.88145 0.94375 0.0
Cd155 Cd 0.47903 0.89631 0.94857 0.0
Cd156 Cd 0.47256 0.86034 0.98438 0.0
O157 O 0.50351 0.85506 0.97472 0.0
O158 O 0.48585 0.92371 0.9308 0.0
O159 O 0.47624 0.91978 0.97782 0.0
C160 C 0.48262 0.93178 0.95662 0.0
C161 C 0.45978 0.84841 0.03025 0.0
C162 C 0.51445 0.86539 0.95637 0.0
C163 C 0.44613 0.86747 0.92831 0.0
O164 O 0.45177 0.85618 0.95009 0.0
O165 O 0.45439 0.88516 0.92405 0.0
O166 O 0.46543 0.83584 0.00952 0.0
O167 O 0.46198 0.86809 0.02541 0.0
O168 O 0.86761 0.24301 0.79848 0.0
Cd169 Cd 0.85798 0.27261 0.78808 0.0
Cd170 Cd 0.89316 0.27315 0.75663 0.0
O171 O 0.89381 0.24184 0.76684 0.0
O172 O 0.82767 0.27329 0.79557 0.0
O173 O 0.84165 0.27574 0.75048 0.0
C174 C 0.82528 0.27461 0.76713 0.0
C175 C 0.90344 0.28476 0.70958 0.0
C176 C 0.88231 0.23302 0.7861 0.0
C177 C 0.88982 0.30163 0.81008 0.0
O178 O 0.90117 0.29326 0.79029 0.0
O179 O 0.87074 0.29673 0.81213 0.0
O180 O 0.91659 0.27724 0.72833 0.0
O181 O 0.88402 0.28486 0.71702 0.0
O182 O 0.52026 0.12043 0.54698 0.0
Cd183 Cd 0.49208 0.10557 0.55019 0.0
Cd184 Cd 0.48026 0.14075 0.51587 0.0
O185 O 0.51152 0.14759 0.51968 0.0
O186 O 0.50063 0.078 0.56581 0.0
O187 O 0.48477 0.08222 0.52244 0.0
C188 C 0.49348 0.07 0.5416 0.0
C189 C 0.46345 0.1513 0.47198 0.0
C190 C 0.52513 0.13722 0.53386 0.0
C191 C 0.46074 0.13372 0.57731 0.0
O192 O 0.4625 0.14438 0.55361 0.0
O193 O 0.47104 0.11703 0.58064 0.0
O194 O 0.46979 0.16446 0.49155 0.0
O195 O 0.46702 0.13183 0.47694 0.0
O196 O 0.6267 0.76358 0.2957 0.0
Cd197 Cd 0.64124 0.73523 0.29276 0.0
Cd198 Cd 0.60462 0.72785 0.25893 0.0
O199 O 0.59931 0.75903 0.26683 0.0
O200 O 0.66861 0.74254 0.31024 0.0
O201 O 0.66487 0.73128 0.26398 0.0
C202 C 0.6768 0.73833 0.28481 0.0
C203 C 0.59332 0.71354 0.21373 0.0
C204 C 0.61028 0.77057 0.2836 0.0
C205 C 0.61239 0.70321 0.31626 0.0
O206 O 0.60075 0.70812 0.2945 0.0
O207 O 0.63014 0.71161 0.31935 0.0
O208 O 0.58044 0.71967 0.23381 0.0
O209 O 0.61293 0.71616 0.21882 0.0
O210 O 0.99461 0.8815 0.05428 0.0
Cd211 Cd 0.02278 0.89123 0.03794 0.0
Cd212 Cd 0.02108 0.85581 0.00822 0.0
O213 O 0.99051 0.85572 0.02244 0.0
O214 O 0.02327 0.92188 0.04144 0.0
O215 O 0.02189 0.90507 0.99821 0.0
C216 C 0.02165 0.92241 0.01281 0.0
C217 C 0.03016 0.84412 0.96068 0.0
C218 C 0.98348 0.86705 0.04338 0.0
C219 C 0.05328 0.86036 0.05706 0.0
O220 O 0.04314 0.84855 0.03965 0.0
O221 O 0.04897 0.8796 0.05841 0.0
O222 O 0.02337 0.83159 0.98083 0.0
O223 O 0.03076 0.86372 0.96699 0.0
O224 O 0.631 0.73495 0.80317 0.0
Cd225 Cd 0.64034 0.76494 0.79503 0.0
Cd226 Cd 0.60493 0.76654 0.76358 0.0
O227 O 0.60442 0.73499 0.77214 0.0
O228 O 0.67065 0.76571 0.8024 0.0
O229 O 0.6565 0.76969 0.75762 0.0
C230 C 0.67293 0.76818 0.7741 0.0
C231 C 0.59367 0.77896 0.71736 0.0
C232 C 0.61613 0.72546 0.79042 0.0
C233 C 0.6085 0.79328 0.81898 0.0
O234 O 0.59721 0.78589 0.79833 0.0
O235 O 0.62746 0.78796 0.82106 0.0
O236 O 0.58094 0.77107 0.73638 0.0
O237 O 0.61322 0.77907 0.72406 0.0
O238 O 0.50346 0.3817 0.05978 0.0
Cd239 Cd 0.47412 0.39085 0.04767 0.0
Cd240 Cd 0.47431 0.35561 0.01723 0.0
O241 O 0.50555 0.3555 0.02825 0.0
O242 O 0.47317 0.42145 0.05193 0.0
O243 O 0.47192 0.40509 0.00834 0.0
C244 C 0.47277 0.42229 0.02323 0.0
C245 C 0.46329 0.34511 0.96991 0.0
C246 C 0.51387 0.36713 0.04784 0.0
C247 C 0.44529 0.3593 0.07015 0.0
O248 O 0.45394 0.3478 0.05077 0.0
O249 O 0.44987 0.37847 0.07172 0.0
O250 O 0.47075 0.33206 0.98887 0.0
O251 O 0.46286 0.36452 0.97735 0.0
O252 O 0.87144 0.25986 0.29479 0.0
Cd253 Cd 0.85647 0.23164 0.29464 0.0
Cd254 Cd 0.89213 0.22226 0.25985 0.0
O255 O 0.89826 0.25351 0.26554 0.0
O256 O 0.82935 0.23977 0.31224 0.0
O257 O 0.83247 0.22688 0.26677 0.0
C258 C 0.82082 0.23473 0.28735 0.0
C259 C 0.90229 0.20675 0.21491 0.0
C260 C 0.88782 0.26596 0.28164 0.0
C261 C 0.88522 0.1998 0.31914 0.0
O262 O 0.8964 0.20352 0.29643 0.0
O263 O 0.8678 0.20882 0.32249 0.0
O264 O 0.91565 0.2129 0.23432 0.0
O265 O 0.88285 0.20987 0.22059 0.0
O266 O 0.98057 0.6222 0.54435 0.0
Cd267 Cd 0.00927 0.60935 0.53659 0.0
Cd268 Cd 0.01618 0.64605 0.50848 0.0
O269 O 0.98498 0.65059 0.51749 0.0
O270 O 0.00607 0.57913 0.54351 0.0
O271 O 0.01297 0.5928 0.49918 0.0
C272 C 0.00921 0.57663 0.51541 0.0
C273 C 0.03001 0.65819 0.4635 0.0
C274 C 0.97356 0.63914 0.5338 0.0
C275 C 0.04124 0.63617 0.56401 0.0
O276 O 0.03622 0.6491 0.54388 0.0
O277 O 0.03296 0.61826 0.56464 0.0
O278 O 0.02403 0.67071 0.48416 0.0
O279 O 0.02743 0.63849 0.46787 0.0
O280 O 0.62746 0.26937 0.69688 0.0
Cd281 Cd 0.64328 0.24166 0.69544 0.0
Cd282 Cd 0.60752 0.22959 0.72941 0.0
O283 O 0.60022 0.26062 0.72402 0.0
O284 O 0.67067 0.25085 0.67992 0.0
O285 O 0.66663 0.23602 0.72404 0.0
C286 C 0.67868 0.24472 0.70467 0.0
C287 C 0.59518 0.2135 0.77289 0.0
C288 C 0.61042 0.27413 0.70944 0.0
C289 C 0.6165 0.20887 0.6691 0.0
O290 O 0.60539 0.21098 0.6923 0.0
O291 O 0.63298 0.21951 0.66575 0.0
O292 O 0.58288 0.21927 0.7519 0.0
O293 O 0.61479 0.21723 0.76963 0.0
O294 O 0.99319 0.38092 0.94757 0.0
Cd295 Cd 0.02104 0.39136 0.96421 0.0
Cd296 Cd 0.02035 0.3552 0.99275 0.0
O297 O 0.98988 0.35436 0.97825 0.0
O298 O 0.02073 0.42194 0.95979 0.0
O299 O 0.01974 0.40581 0.00354 0.0
C300 C 0.01918 0.4229 0.98838 0.0
C301 C 0.02956 0.34264 0.03974 0.0
C302 C 0.98253 0.36588 0.95777 0.0
C303 C 0.05264 0.36172 0.94448 0.0
O304 O 0.04281 0.34928 0.96134 0.0
O305 O 0.04766 0.38082 0.9437 0.0
O306 O 0.0233 0.33041 0.01889 0.0
O307 O 0.02952 0.3624 0.03447 0.0
O308 O 0.86544 0.74461 0.19536 0.0
Cd309 Cd 0.85565 0.77387 0.20721 0.0
Cd310 Cd 0.89008 0.77337 0.23991 0.0
O311 O 0.89026 0.74218 0.22904 0.0
O312 O 0.82539 0.7747 0.19942 0.0
O313 O 0.83916 0.77569 0.24479 0.0
C314 C 0.82288 0.77495 0.22791 0.0
C315 C 0.90026 0.78425 0.28737 0.0
C316 C 0.87942 0.73403 0.20843 0.0
C317 C 0.88798 0.80289 0.18746 0.0
O318 O 0.89896 0.79369 0.20694 0.0
O319 O 0.86878 0.79861 0.18497 0.0
O320 O 0.91335 0.77653 0.2687 0.0
O321 O 0.88092 0.78495 0.27961 0.0
O322 O 0.51308 0.61876 0.44627 0.0
Cd323 Cd 0.48362 0.60765 0.4538 0.0
Cd324 Cd 0.47956 0.64385 0.48437 0.0
O325 O 0.51099 0.64623 0.47554 0.0
O326 O 0.48474 0.57744 0.44548 0.0
O327 O 0.4791 0.59056 0.49051 0.0
C328 C 0.48169 0.57453 0.47354 0.0
C329 C 0.46662 0.65637 0.52968 0.0
C330 C 0.52142 0.63465 0.45809 0.0
C331 C 0.45356 0.63747 0.42858 0.0
O332 O 0.45978 0.64939 0.44929 0.0
O333 O 0.46034 0.61897 0.42682 0.0
O334 O 0.47367 0.66867 0.50947 0.0
O335 O 0.46766 0.6366 0.52475 0.0
O336 O 0.36594 0.25351 0.19632 0.0
Cd337 Cd 0.35349 0.2243 0.20085 0.0
Cd338 Cd 0.38928 0.22092 0.23697 0.0
O339 O 0.39214 0.25229 0.22796 0.0
O340 O 0.32576 0.22894 0.18274 0.0
O341 O 0.33017 0.21979 0.22986 0.0
C342 C 0.31785 0.22532 0.20855 0.0
C343 C 0.40051 0.20855 0.28339 0.0
C344 C 0.38108 0.26228 0.20939 0.0
C345 C 0.38527 0.19422 0.18071 0.0
O346 O 0.39592 0.2009 0.20255 0.0
O347 O 0.36684 0.20071 0.17646 0.0
O348 O 0.41334 0.2154 0.26373 0.0
O349 O 0.3809 0.20933 0.27717 0.0
O350 O 0.48932 0.6143 0.93919 0.0
Cd351 Cd 0.51732 0.59954 0.9449 0.0
Cd352 Cd 0.52319 0.63523 0.98132 0.0
O353 O 0.49227 0.64019 0.97112 0.0
O354 O 0.51087 0.5717 0.92834 0.0
O355 O 0.51992 0.57689 0.97537 0.0
C356 C 0.51381 0.56434 0.95466 0.0
C357 C 0.53539 0.64799 0.02709 0.0
C358 C 0.48166 0.63009 0.95213 0.0
C359 C 0.55033 0.62838 0.9257 0.0
O360 O 0.54431 0.63949 0.94746 0.0
O361 O 0.54224 0.61067 0.92098 0.0
O362 O 0.52972 0.66018 0.0059 0.0
O363 O 0.53353 0.62822 0.02278 0.0
O364 O 0.12728 0.72837 0.69727 0.0
Cd365 Cd 0.14173 0.75679 0.69793 0.0
Cd366 Cd 0.1049 0.76602 0.73101 0.0
O367 O 0.09928 0.73477 0.72416 0.0
O368 O 0.16961 0.74916 0.6825 0.0
O369 O 0.16457 0.76271 0.72726 0.0
C370 C 0.17714 0.755 0.7077 0.0
C371 C 0.09199 0.781 0.77495 0.0
C372 C 0.11039 0.72229 0.70904 0.0
C373 C 0.1136 0.78855 0.672 0.0
O374 O 0.10214 0.78516 0.69455 0.0
O375 O 0.13081 0.77909 0.66898 0.0
O376 O 0.07987 0.77487 0.75394 0.0
O377 O 0.11172 0.77813 0.77151 0.0
O378 O 0.01429 0.38176 0.44313 0.0
Cd379 Cd 0.98495 0.39423 0.4416 0.0
Cd380 Cd 0.97748 0.35831 0.47682 0.0
O381 O 0.00921 0.35461 0.47227 0.0
O382 O 0.99105 0.42218 0.42515 0.0
O383 O 0.97703 0.41723 0.46964 0.0
C384 C 0.9844 0.42983 0.44986 0.0
C385 C 0.96221 0.34642 0.52109 0.0
C386 C 0.02126 0.36593 0.45675 0.0
C387 C 0.9559 0.36315 0.41624 0.0
O388 O 0.95964 0.3527 0.43966 0.0
O389 O 0.96403 0.38097 0.41252 0.0
O390 O 0.9696 0.33383 0.50153 0.0
O391 O 0.96391 0.36612 0.51598 0.0
O392 O 0.36761 0.73646 0.30158 0.0
Cd393 Cd 0.35316 0.76486 0.29897 0.0
Cd394 Cd 0.38916 0.7723 0.26383 0.0
O395 O 0.39443 0.74109 0.27167 0.0
O396 O 0.32561 0.75785 0.3161 0.0
O397 O 0.32983 0.7691 0.26989 0.0
C398 C 0.31767 0.76216 0.29053 0.0
C399 C 0.40056 0.78629 0.21843 0.0
C400 C 0.38379 0.72951 0.28882 0.0
C401 C 0.38224 0.79691 0.32152 0.0
O402 O 0.39345 0.79211 0.29924 0.0
O403 O 0.36462 0.78839 0.32535 0.0
O404 O 0.41338 0.78018 0.23859 0.0
O405 O 0.38094 0.7839 0.22358 0.0
O406 O 0.00433 0.61421 0.0587 0.0
Cd407 Cd 0.97505 0.60179 0.05469 0.0
Cd408 Cd 0.97195 0.63707 0.01686 0.0
O409 O 0.00339 0.63943 0.02544 0.0
O410 O 0.97945 0.57446 0.07414 0.0
O411 O 0.97063 0.57784 0.02673 0.0
C412 C 0.97597 0.56598 0.04866 0.0
C413 C 0.9597 0.64869 0.97058 0.0
C414 C 0.01328 0.62882 0.04465 0.0
C415 C 0.94519 0.63421 0.0733 0.0
O416 O 0.95212 0.64442 0.0512 0.0
O417 O 0.95138 0.61577 0.07821 0.0
O418 O 0.96693 0.6613 0.99023 0.0
O419 O 0.96003 0.62906 0.97669 0.0
O420 O 0.13545 0.26014 0.81541 0.0
Cd421 Cd 0.14386 0.23053 0.8033 0.0
Cd422 Cd 0.10848 0.23222 0.77198 0.0
O423 O 0.10969 0.26332 0.78331 0.0
O424 O 0.17428 0.22847 0.809 0.0
O425 O 0.15895 0.22763 0.76465 0.0
C426 C 0.1758 0.22772 0.78038 0.0
C427 C 0.09534 0.22202 0.72568 0.0
C428 C 0.12138 0.27112 0.80325 0.0
C429 C 0.11118 0.20246 0.8244 0.0
O430 O 0.10017 0.21183 0.80514 0.0
O431 O 0.13046 0.2064 0.82654 0.0
O432 O 0.08361 0.23009 0.74582 0.0
O433 O 0.11502 0.22072 0.73116 0.0
O434 O 0.47713 0.37583 0.54391 0.0
Cd435 Cd 0.5053 0.39083 0.54491 0.0
Cd436 Cd 0.5163 0.35439 0.51212 0.0
O437 O 0.48513 0.3478 0.51797 0.0
O438 O 0.49693 0.41866 0.55981 0.0
O439 O 0.51188 0.41372 0.51594 0.0
C440 C 0.50356 0.42624 0.53504 0.0
C441 C 0.5323 0.34194 0.46865 0.0
C442 C 0.47191 0.35864 0.53217 0.0
C443 C 0.5373 0.36348 0.57207 0.0
O444 O 0.53492 0.35213 0.54917 0.0
O445 O 0.52707 0.38026 0.57496 0.0
O446 O 0.52623 0.32964 0.48949 0.0
O447 O 0.5288 0.36158 0.47199 0.0
C448 C 0.06715 0.13582 0.39799 0.0
C449 C 0.06027 0.14809 0.42191 0.0
C450 C 0.07898 0.14458 0.37482 0.0
C451 C 0.08369 0.16609 0.37554 0.0
C452 C 0.07765 0.17824 0.40037 0.0
C453 C 0.06617 0.16906 0.42329 0.0
C454 C 0.08556 0.13102 0.34906 0.0
C455 C 0.08241 0.20126 0.40214 0.0
C456 C 0.12279 0.19697 0.33186 0.0
C457 C 0.10953 0.20817 0.3129 0.0
C458 C 0.11499 0.1811 0.35016 0.0
C459 C 0.09344 0.17669 0.34974 0.0
C460 C 0.08052 0.18624 0.32817 0.0
C461 C 0.08878 0.20181 0.30981 0.0
C462 C 0.12941 0.17066 0.37206 0.0
C463 C 0.05747 0.18182 0.3268 0.0
H464 H 0.06277 0.11956 0.39684 0.0
H465 H 0.06114 0.17863 0.44181 0.0
H466 H 0.07483 0.13356 0.33007 0.0
H467 H 0.10149 0.13505 0.34146 0.0
H468 H 0.08512 0.11425 0.355 0.0
H469 H 0.07709 0.20831 0.42339 0.0
H470 H 0.09939 0.20393 0.39997 0.0
H471 H 0.07467 0.20953 0.38349 0.0
H472 H 0.13899 0.20147 0.33386 0.0
H473 H 0.07849 0.21019 0.29491 0.0
H474 H 0.12555 0.15392 0.37445 0.0
H475 H 0.12761 0.17804 0.39424 0.0
H476 H 0.14596 0.17216 0.3652 0.0
H477 H 0.05445 0.16487 0.32805 0.0
H478 H 0.05028 0.18801 0.30611 0.0
H479 H 0.04968 0.18922 0.34617 0.0
C480 C 0.05802 0.86408 0.55664 0.0
C481 C 0.04238 0.85168 0.54397 0.0
C482 C 0.07474 0.85501 0.57191 0.0
C483 C 0.0755 0.83312 0.57495 0.0
C484 C 0.0614 0.82057 0.55867 0.0
C485 C 0.04502 0.83004 0.54314 0.0
C486 C 0.09007 0.8689 0.58778 0.0
C487 C 0.06191 0.79714 0.56087 0.0
C488 C 0.11609 0.80427 0.6208 0.0
C489 C 0.1056 0.80224 0.64808 0.0
C490 C 0.10702 0.81515 0.59692 0.0
C491 C 0.08693 0.82384 0.60041 0.0
C492 C 0.07676 0.82263 0.62833 0.0
C493 C 0.08628 0.81202 0.65179 0.0
C494 C 0.11858 0.8165 0.56776 0.0
C495 C 0.05533 0.83177 0.63318 0.0
H496 H 0.05636 0.88087 0.55667 0.0
H497 H 0.03318 0.82035 0.53298 0.0
H498 H 0.08542 0.87046 0.61147 0.0
H499 H 0.10595 0.86212 0.58721 0.0
H500 H 0.09052 0.8847 0.57778 0.0
H501 H 0.05239 0.78967 0.5432 0.0
H502 H 0.07809 0.79128 0.55924 0.0
H503 H 0.05565 0.79231 0.58285 0.0
H504 H 0.13108 0.79684 0.61776 0.0
H505 H 0.07813 0.81075 0.67284 0.0
H506 H 0.11582 0.83164 0.55657 0.0
H507 H 0.11299 0.80403 0.55268 0.0
H508 H 0.13559 0.81438 0.57094 0.0
H509 H 0.05542 0.84865 0.62805 0.0
H510 H 0.04974 0.82969 0.65639 0.0
H511 H 0.044 0.82425 0.61794 0.0
C512 C 0.42534 0.86996 0.88096 0.0
C513 C 0.43152 0.85863 0.90618 0.0
C514 C 0.41398 0.86037 0.85797 0.0
C515 C 0.40922 0.83892 0.8601 0.0
C516 C 0.41444 0.82777 0.88624 0.0
C517 C 0.42528 0.83782 0.90903 0.0
C518 C 0.40805 0.87298 0.83095 0.0
C519 C 0.40971 0.80482 0.88951 0.0
C520 C 0.3726 0.80508 0.81666 0.0
C521 C 0.38684 0.79356 0.79968 0.0
C522 C 0.37923 0.82208 0.83378 0.0
C523 C 0.40063 0.8272 0.83442 0.0
C524 C 0.41455 0.8172 0.8146 0.0
C525 C 0.40741 0.80058 0.79719 0.0
C526 C 0.36374 0.83311 0.85347 0.0
C527 C 0.43748 0.8223 0.81441 0.0
H528 H 0.42991 0.88612 0.87869 0.0
H529 H 0.42977 0.82895 0.92853 0.0
H530 H 0.42 0.87085 0.8134 0.0
H531 H 0.39286 0.86791 0.82172 0.0
H532 H 0.40719 0.88985 0.83627 0.0
H533 H 0.41452 0.79858 0.91152 0.0
H534 H 0.3928 0.80199 0.88672 0.0
H535 H 0.41792 0.7959 0.87191 0.0
H536 H 0.35653 0.80003 0.81809 0.0
H537 H 0.41845 0.79192 0.7838 0.0
H538 H 0.36718 0.85001 0.85467 0.0
H539 H 0.36475 0.82674 0.87639 0.0
H540 H 0.34755 0.83094 0.84538 0.0
H541 H 0.43992 0.83937 0.81392 0.0
H542 H 0.44561 0.81526 0.79504 0.0
H543 H 0.44475 0.81627 0.8351 0.0
C544 C 0.38468 0.17305 0.1336 0.0
C545 C 0.39545 0.18047 0.15864 0.0
C546 C 0.39518 0.16225 0.11089 0.0
C547 C 0.41695 0.15925 0.11313 0.0
C548 C 0.42766 0.16588 0.13898 0.0
C549 C 0.41676 0.1762 0.16147 0.0
C550 C 0.38314 0.15487 0.08406 0.0
C551 C 0.45091 0.16305 0.1423 0.0
C552 C 0.45219 0.12321 0.07062 0.0
C553 C 0.46255 0.13743 0.05213 0.0
C554 C 0.43537 0.12956 0.08832 0.0
C555 C 0.4292 0.15068 0.08796 0.0
C556 C 0.43821 0.16454 0.06711 0.0
C557 C 0.4547 0.15767 0.0492 0.0
C558 C 0.42557 0.11412 0.1094 0.0
C559 C 0.43208 0.1872 0.06601 0.0
H560 H 0.36818 0.17615 0.13132 0.0
H561 H 0.42523 0.18171 0.18079 0.0
H562 H 0.38572 0.16578 0.06528 0.0
H563 H 0.38852 0.13926 0.07683 0.0
H564 H 0.36616 0.15418 0.08859 0.0
H565 H 0.45678 0.16878 0.16408 0.0
H566 H 0.45507 0.14638 0.14015 0.0
H567 H 0.45912 0.1716 0.12432 0.0
H568 H 0.45793 0.1074 0.07249 0.0
H569 H 0.46252 0.16869 0.03476 0.0
H570 H 0.4085 0.11652 0.11078 0.0
H571 H 0.43208 0.1164 0.13205 0.0
H572 H 0.42869 0.09782 0.10248 0.0
H573 H 0.41491 0.18889 0.06613 0.0
H574 H 0.43837 0.19515 0.04597 0.0
H575 H 0.43817 0.19524 0.08607 0.0
C576 C 0.12816 0.79618 0.16531 0.0
C577 C 0.11421 0.78652 0.18498 0.0
C578 C 0.12166 0.81264 0.14703 0.0
C579 C 0.10068 0.81921 0.14814 0.0
C580 C 0.08724 0.81108 0.17026 0.0
C581 C 0.09424 0.7949 0.18862 0.0
C582 C 0.13669 0.82152 0.12456 0.0
C583 C 0.06476 0.81776 0.17233 0.0
C584 C 0.07719 0.86247 0.10128 0.0
C585 C 0.06845 0.85093 0.07786 0.0
C586 C 0.0889 0.85262 0.12365 0.0
C587 C 0.09159 0.83077 0.12267 0.0
C588 C 0.08386 0.8193 0.09813 0.0
C589 C 0.07256 0.82955 0.07597 0.0
C590 C 0.0974 0.86544 0.14903 0.0
C591 C 0.08644 0.79596 0.09608 0.0
H592 H 0.1438 0.79008 0.16287 0.0
H593 H 0.08345 0.78769 0.20403 0.0
H594 H 0.13381 0.81427 0.10252 0.0
H595 H 0.13446 0.83855 0.12211 0.0
H596 H 0.15311 0.81842 0.13091 0.0
H597 H 0.05728 0.81223 0.19317 0.0
H598 H 0.06345 0.83494 0.17131 0.0
H599 H 0.05601 0.8113 0.15313 0.0
H600 H 0.07422 0.87904 0.10281 0.0
H601 H 0.06612 0.82053 0.05777 0.0
H602 H 0.113 0.85983 0.15594 0.0
H603 H 0.08688 0.86403 0.1685 0.0
H604 H 0.09851 0.88217 0.143 0.0
H605 H 0.10313 0.7917 0.09761 0.0
H606 H 0.0801 0.78951 0.07499 0.0
H607 H 0.07829 0.78837 0.11497 0.0
C608 C 0.41143 0.81828 0.34113 0.0
C609 C 0.39103 0.81093 0.34446 0.0
C610 C 0.42149 0.82881 0.36422 0.0
C611 C 0.41076 0.8325 0.39125 0.0
C612 C 0.38968 0.82647 0.39409 0.0
C613 C 0.38007 0.81553 0.3707 0.0
C614 C 0.44403 0.83498 0.36015 0.0
C615 C 0.37753 0.83064 0.4222 0.0
C616 C 0.45057 0.83504 0.45225 0.0
C617 C 0.45603 0.85613 0.45091 0.0
C618 C 0.43405 0.82729 0.43518 0.0
C619 C 0.42259 0.84107 0.41684 0.0
C620 C 0.4262 0.86273 0.41871 0.0
C621 C 0.44308 0.87003 0.43551 0.0
C622 C 0.43059 0.80407 0.43403 0.0
C623 C 0.41368 0.878 0.40052 0.0
H624 H 0.41999 0.81501 0.32087 0.0
H625 H 0.36423 0.81005 0.37339 0.0
H626 H 0.44597 0.8519 0.36411 0.0
H627 H 0.45386 0.82667 0.37663 0.0
H628 H 0.44993 0.83134 0.3375 0.0
H629 H 0.36049 0.83015 0.41811 0.0
H630 H 0.38133 0.81857 0.43898 0.0
H631 H 0.38163 0.846 0.43185 0.0
H632 H 0.46034 0.82423 0.46442 0.0
H633 H 0.44692 0.88645 0.43497 0.0
H634 H 0.4368 0.79789 0.41272 0.0
H635 H 0.41376 0.80038 0.43485 0.0
H636 H 0.43851 0.79589 0.45265 0.0
H637 H 0.41953 0.87807 0.37728 0.0
H638 H 0.41498 0.89405 0.40949 0.0
H639 H 0.39702 0.87346 0.39991 0.0
C640 C 0.4216 0.20326 0.70762 0.0
C641 C 0.39988 0.20521 0.70819 0.0
C642 C 0.43111 0.18718 0.69148 0.0
C643 C 0.41853 0.17268 0.67601 0.0
C644 C 0.39672 0.17284 0.68023 0.0
C645 C 0.3876 0.18925 0.69611 0.0
C646 C 0.45446 0.18738 0.68791 0.0
C647 C 0.38284 0.15714 0.66511 0.0
C648 C 0.43783 0.16125 0.59833 0.0
C649 C 0.4479 0.14207 0.60196 0.0
C650 C 0.42779 0.17097 0.62216 0.0
C651 C 0.42749 0.16116 0.65038 0.0
C652 C 0.43659 0.14126 0.65393 0.0
C653 C 0.44688 0.13198 0.62967 0.0
C654 C 0.4182 0.1922 0.61728 0.0
C655 C 0.43622 0.13011 0.68348 0.0
H656 H 0.43121 0.21538 0.71725 0.0
H657 H 0.37078 0.1904 0.6971 0.0
H658 H 0.46085 0.17139 0.68921 0.0
H659 H 0.45846 0.19374 0.66566 0.0
H660 H 0.46214 0.19715 0.7051 0.0
H661 H 0.36727 0.15636 0.67581 0.0
H662 H 0.38066 0.16165 0.64147 0.0
H663 H 0.38998 0.14142 0.66548 0.0
H664 H 0.43836 0.16912 0.577 0.0
H665 H 0.45455 0.11711 0.63266 0.0
H666 H 0.42593 0.20382 0.63183 0.0
H667 H 0.40147 0.19191 0.62331 0.0
H668 H 0.41959 0.19753 0.59384 0.0
H669 H 0.44844 0.13671 0.69816 0.0
H670 H 0.43931 0.1132 0.68087 0.0
H671 H 0.42103 0.13219 0.69484 0.0
C672 C 0.11142 0.18002 0.87029 0.0
C673 C 0.10086 0.18808 0.84547 0.0
C674 C 0.10086 0.16806 0.89174 0.0
C675 C 0.0793 0.1643 0.88826 0.0
C676 C 0.06879 0.17181 0.86273 0.0
C677 C 0.0797 0.18349 0.84166 0.0
C678 C 0.11261 0.16009 0.91849 0.0
C679 C 0.04579 0.16805 0.858 0.0
C680 C 0.0458 0.12306 0.92294 0.0
C681 C 0.03338 0.13521 0.94185 0.0
C682 C 0.06272 0.1318 0.90775 0.0
C683 C 0.06709 0.15322 0.91139 0.0
C684 C 0.05617 0.16488 0.93312 0.0
C685 C 0.03944 0.15568 0.94825 0.0
C686 C 0.07437 0.11869 0.88542 0.0
C687 C 0.06053 0.18771 0.93791 0.0
H688 H 0.12778 0.18348 0.87338 0.0
H689 H 0.07143 0.18948 0.82246 0.0
H690 H 0.1083 0.16941 0.93834 0.0
H691 H 0.10846 0.14366 0.92323 0.0
H692 H 0.12973 0.16119 0.91537 0.0
H693 H 0.04008 0.17471 0.8367 0.0
H694 H 0.04249 0.15111 0.858 0.0
H695 H 0.03678 0.17509 0.87651 0.0
H696 H 0.04148 0.10706 0.91841 0.0
H697 H 0.03008 0.1651 0.96312 0.0
H698 H 0.09123 0.12237 0.88569 0.0
H699 H 0.06844 0.12209 0.86273 0.0
H700 H 0.0723 0.10179 0.88976 0.0
H701 H 0.07751 0.19072 0.93853 0.0
H702 H 0.05345 0.19353 0.95888 0.0
H703 H 0.05394 0.19674 0.91906 0.0
C704 C 0.93439 0.83708 0.60099 0.0
C705 C 0.94403 0.85651 0.60425 0.0
C706 C 0.92431 0.8275 0.62489 0.0
C707 C 0.92348 0.83773 0.65279 0.0
C708 C 0.93207 0.85789 0.65589 0.0
C709 C 0.94245 0.867 0.63159 0.0
C710 C 0.9153 0.80597 0.62047 0.0
C711 C 0.93108 0.86952 0.68503 0.0
C712 C 0.88393 0.80893 0.69805 0.0
C713 C 0.89656 0.79348 0.71073 0.0
C714 C 0.89274 0.82553 0.68221 0.0
C715 C 0.91458 0.82635 0.67858 0.0
C716 C 0.9274 0.81242 0.6947 0.0
C717 C 0.9182 0.79616 0.71085 0.0
C718 C 0.87857 0.84068 0.66648 0.0
C719 C 0.95079 0.81295 0.69179 0.0
H720 H 0.93535 0.82889 0.57994 0.0
H721 H 0.94976 0.88209 0.63428 0.0
H722 H 0.92308 0.79477 0.63563 0.0
H723 H 0.89848 0.80596 0.62601 0.0
H724 H 0.91714 0.80029 0.59726 0.0
H725 H 0.93327 0.88651 0.68176 0.0
H726 H 0.91602 0.86687 0.6965 0.0
H727 H 0.94364 0.86387 0.69991 0.0
H728 H 0.86715 0.80721 0.69853 0.0
H729 H 0.92806 0.78443 0.72095 0.0
H730 H 0.87677 0.83588 0.64289 0.0
H731 H 0.88526 0.8566 0.66669 0.0
H732 H 0.86288 0.84111 0.67684 0.0
H733 H 0.9553 0.80657 0.66975 0.0
H734 H 0.95855 0.80356 0.70934 0.0
H735 H 0.95664 0.82916 0.69303 0.0
C736 C 0.95026 0.16441 0.45568 0.0
C737 C 0.95612 0.14341 0.45513 0.0
C738 C 0.93441 0.17179 0.43702 0.0
C739 C 0.92401 0.15773 0.41786 0.0
C740 C 0.92801 0.13614 0.42015 0.0
C741 C 0.94423 0.12923 0.43854 0.0
C742 C 0.93058 0.19494 0.43535 0.0
C743 C 0.91662 0.12057 0.401 0.0
C744 C 0.88226 0.18183 0.36874 0.0
C745 C 0.89383 0.18649 0.34307 0.0
C746 C 0.89147 0.17139 0.3929 0.0
C747 C 0.9128 0.16596 0.39147 0.0
C748 C 0.92423 0.16982 0.36511 0.0
C749 C 0.91456 0.17981 0.3412 0.0
C750 C 0.87861 0.16698 0.42028 0.0
C751 C 0.94706 0.16436 0.3626 0.0
H752 H 0.95924 0.17543 0.46867 0.0
H753 H 0.94841 0.11288 0.43852 0.0
H754 H 0.93748 0.20113 0.41449 0.0
H755 H 0.91367 0.19832 0.43478 0.0
H756 H 0.93762 0.20336 0.45446 0.0
H757 H 0.91801 0.10454 0.41002 0.0
H758 H 0.8999 0.12466 0.3991 0.0
H759 H 0.92334 0.12071 0.37824 0.0
H760 H 0.86617 0.18678 0.37029 0.0
H761 H 0.92363 0.1832 0.32144 0.0
H762 H 0.88201 0.17886 0.43751 0.0
H763 H 0.88248 0.15153 0.42981 0.0
H764 H 0.86168 0.16751 0.41536 0.0
H765 H 0.95608 0.17301 0.37966 0.0
H766 H 0.95358 0.16813 0.34034 0.0
H767 H 0.9494 0.14752 0.36679 0.0
C768 C 0.57603 0.13823 0.10329 0.0
C769 C 0.56675 0.14984 0.08037 0.0
C770 C 0.58766 0.14808 0.12575 0.0
C771 C 0.58972 0.17001 0.12539 0.0
C772 C 0.58118 0.18164 0.10159 0.0
C773 C 0.56995 0.17141 0.07932 0.0
C774 C 0.59694 0.13514 0.15043 0.0
C775 C 0.58304 0.20508 0.10028 0.0
C776 C 0.59428 0.20475 0.1925 0.0
C777 C 0.61415 0.2132 0.18805 0.0
C778 C 0.58672 0.18898 0.17385 0.0
C779 C 0.59947 0.18135 0.15057 0.0
C780 C 0.62037 0.18806 0.14834 0.0
C781 C 0.62744 0.20407 0.16699 0.0
C782 C 0.56435 0.18218 0.17707 0.0
C783 C 0.63466 0.1798 0.12444 0.0
H784 H 0.57372 0.12153 0.10419 0.0
H785 H 0.56301 0.18052 0.06161 0.0
H786 H 0.61292 0.14048 0.15584 0.0
H787 H 0.58737 0.13687 0.17083 0.0
H788 H 0.5975 0.11836 0.1445 0.0
H789 H 0.57593 0.21171 0.07983 0.0
H790 H 0.57524 0.2121 0.11991 0.0
H791 H 0.59964 0.20976 0.10102 0.0
H792 H 0.58399 0.21158 0.20893 0.0
H793 H 0.64298 0.21024 0.16385 0.0
H794 H 0.56301 0.16503 0.1752 0.0
H795 H 0.55497 0.18912 0.15885 0.0
H796 H 0.55755 0.18714 0.19867 0.0
H797 H 0.63262 0.16277 0.12159 0.0
H798 H 0.65125 0.18307 0.12958 0.0
H799 H 0.63081 0.18733 0.10291 0.0
C800 C 0.54764 0.86967 0.92829 0.0
C801 C 0.53463 0.85714 0.94584 0.0
C802 C 0.56377 0.8609 0.91144 0.0
C803 C 0.56676 0.83911 0.91202 0.0
C804 C 0.55524 0.82676 0.93228 0.0
C805 C 0.53932 0.83596 0.94911 0.0
C806 C 0.57606 0.8747 0.8907 0.0
C807 C 0.5581 0.80347 0.93378 0.0
C808 C 0.57797 0.81278 0.83854 0.0
C809 C 0.59884 0.80684 0.84175 0.0
C810 C 0.56761 0.82364 0.86106 0.0
C811 C 0.5784 0.82889 0.8875 0.0
C812 C 0.59971 0.82375 0.89049 0.0
C813 C 0.6097 0.81269 0.86756 0.0
C814 C 0.54488 0.82896 0.85684 0.0
C815 C 0.61175 0.82931 0.91822 0.0
H816 H 0.54438 0.88615 0.92613 0.0
H817 H 0.52947 0.82621 0.96286 0.0
H818 H 0.59268 0.87004 0.89021 0.0
H819 H 0.56985 0.87309 0.86776 0.0
H820 H 0.57501 0.89134 0.89724 0.0
H821 H 0.55069 0.79669 0.95391 0.0
H822 H 0.55095 0.79622 0.91383 0.0
H823 H 0.57486 0.79935 0.93379 0.0
H824 H 0.56947 0.80848 0.81862 0.0
H825 H 0.62584 0.80817 0.87022 0.0
H826 H 0.5425 0.84597 0.85919 0.0
H827 H 0.53542 0.8212 0.87429 0.0
H828 H 0.53891 0.82407 0.83471 0.0
H829 H 0.60887 0.84573 0.92461 0.0
H830 H 0.62876 0.82698 0.91529 0.0
H831 H 0.60644 0.81941 0.93696 0.0
C832 C 0.90821 0.20478 0.79453 0.0
C833 C 0.88777 0.21212 0.79736 0.0
C834 C 0.91513 0.18777 0.81135 0.0
C835 C 0.90113 0.17768 0.83096 0.0
C836 C 0.87989 0.18344 0.8311 0.0
C837 C 0.87348 0.2008 0.81454 0.0
C838 C 0.93793 0.18213 0.81055 0.0
C839 C 0.86432 0.17254 0.85083 0.0
C840 C 0.92392 0.13184 0.87343 0.0
C841 C 0.93077 0.14173 0.89953 0.0
C842 C 0.91312 0.14302 0.85137 0.0
C843 C 0.90956 0.16458 0.85536 0.0
C844 C 0.91558 0.17434 0.88226 0.0
C845 C 0.92589 0.16276 0.90407 0.0
C846 C 0.90637 0.13195 0.82337 0.0
C847 C 0.91215 0.19734 0.88747 0.0
H848 H 0.9193 0.21335 0.78109 0.0
H849 H 0.85754 0.20617 0.81634 0.0
H850 H 0.9455 0.18751 0.83139 0.0
H851 H 0.93998 0.16503 0.80924 0.0
H852 H 0.94609 0.18942 0.79139 0.0
H853 H 0.84808 0.17559 0.84358 0.0
H854 H 0.86706 0.15549 0.85095 0.0
H855 H 0.86607 0.1782 0.87403 0.0
H856 H 0.92748 0.11555 0.86983 0.0
H857 H 0.93094 0.17054 0.92422 0.0
H858 H 0.91744 0.13554 0.80515 0.0
H859 H 0.89073 0.13727 0.81619 0.0
H860 H 0.90601 0.1148 0.82646 0.0
H861 H 0.92077 0.20647 0.8705 0.0
H862 H 0.91742 0.2024 0.90988 0.0
H863 H 0.89542 0.20121 0.88514 0.0
C864 C 0.61912 0.19401 0.61735 0.0
C865 C 0.60877 0.19531 0.64483 0.0
C866 C 0.6102 0.18324 0.59324 0.0
C867 C 0.59035 0.17399 0.59667 0.0
C868 C 0.58036 0.17445 0.62477 0.0
C869 C 0.58977 0.18491 0.64847 0.0
C870 C 0.62164 0.18263 0.56392 0.0
C871 C 0.55918 0.16473 0.62957 0.0
C872 C 0.54809 0.16814 0.53991 0.0
C873 C 0.54572 0.14646 0.54016 0.0
C874 C 0.5645 0.17759 0.55542 0.0
C875 C 0.57891 0.16498 0.57101 0.0
C876 C 0.57843 0.14314 0.56725 0.0
C877 C 0.56165 0.13408 0.55208 0.0
C878 C 0.56469 0.20098 0.5584 0.0
C879 C 0.59415 0.12922 0.58225 0.0
H880 H 0.63389 0.20188 0.61436 0.0
H881 H 0.58172 0.1856 0.66965 0.0
H882 H 0.61888 0.16777 0.55199 0.0
H883 H 0.61599 0.19548 0.54955 0.0
H884 H 0.63865 0.18472 0.56711 0.0
H885 H 0.55367 0.16634 0.6529 0.0
H886 H 0.54759 0.17217 0.61468 0.0
H887 H 0.55967 0.14793 0.62397 0.0
H888 H 0.536 0.17782 0.53033 0.0
H889 H 0.56019 0.11727 0.55165 0.0
H890 H 0.58076 0.2071 0.55651 0.0
H891 H 0.55868 0.20535 0.58071 0.0
H892 H 0.55482 0.2086 0.54126 0.0
H893 H 0.6099 0.13629 0.58164 0.0
H894 H 0.59477 0.11363 0.57161 0.0
H895 H 0.58977 0.12712 0.60596 0.0
C896 C 0.61571 0.80487 0.30825 0.0
C897 C 0.60233 0.79099 0.29358 0.0
C898 C 0.60775 0.82101 0.32587 0.0
C899 C 0.58596 0.82304 0.32912 0.0
C900 C 0.5725 0.81078 0.31134 0.0
C901 C 0.58089 0.79491 0.29356 0.0
C902 C 0.62264 0.83428 0.3436 0.0
C903 C 0.54916 0.81268 0.31382 0.0
C904 C 0.56526 0.83225 0.40668 0.0
C905 C 0.55735 0.85252 0.40466 0.0
C906 C 0.57516 0.82284 0.38247 0.0
C907 C 0.57742 0.83404 0.3555 0.0
C908 C 0.57058 0.85493 0.35375 0.0
C909 C 0.5605 0.86393 0.37838 0.0
C910 C 0.5824 0.80055 0.38544 0.0
C911 C 0.57303 0.86748 0.32558 0.0
H912 H 0.63237 0.8022 0.30778 0.0
H913 H 0.57047 0.78439 0.282 0.0
H914 H 0.61711 0.85061 0.34484 0.0
H915 H 0.62362 0.8282 0.36668 0.0
H916 H 0.63853 0.83409 0.33384 0.0
H917 H 0.54106 0.80471 0.29517 0.0
H918 H 0.54396 0.80551 0.33504 0.0
H919 H 0.54436 0.82924 0.31416 0.0
H920 H 0.5631 0.82337 0.42697 0.0
H921 H 0.55446 0.87963 0.37663 0.0
H922 H 0.59921 0.79938 0.38012 0.0
H923 H 0.57389 0.79056 0.36938 0.0
H924 H 0.57989 0.79424 0.40819 0.0
H925 H 0.58837 0.86458 0.31505 0.0
H926 H 0.57137 0.88443 0.32984 0.0
H927 H 0.56085 0.86279 0.30941 0.0
C928 C 0.91989 0.81991 0.1677 0.0
C929 C 0.8983 0.81697 0.16597 0.0
C930 C 0.93067 0.83062 0.14545 0.0
C931 C 0.91957 0.83893 0.12096 0.0
C932 C 0.89763 0.83718 0.11989 0.0
C933 C 0.88722 0.82605 0.14236 0.0
C934 C 0.9541 0.83214 0.14749 0.0
C935 C 0.88526 0.84626 0.09447 0.0
C936 C 0.95453 0.87544 0.0785 0.0
C937 C 0.96355 0.86171 0.05792 0.0
C938 C 0.93841 0.86887 0.09732 0.0
C939 C 0.93147 0.84801 0.09579 0.0
C940 C 0.93913 0.83473 0.07315 0.0
C941 C 0.95501 0.8418 0.0543 0.0
C942 C 0.93016 0.88369 0.12056 0.0
C943 C 0.93212 0.81236 0.07074 0.0
H944 H 0.92859 0.81311 0.18594 0.0
H945 H 0.87052 0.82397 0.14093 0.0
H946 H 0.96131 0.82383 0.12844 0.0
H947 H 0.95908 0.84864 0.14621 0.0
H948 H 0.96028 0.82536 0.16846 0.0
H949 H 0.86836 0.84694 0.09962 0.0
H950 H 0.89079 0.86216 0.089 0.0
H951 H 0.88741 0.83651 0.07434 0.0
H952 H 0.9608 0.891 0.08103 0.0
H953 H 0.96177 0.83116 0.03827 0.0
H954 H 0.9374 0.88007 0.14238 0.0
H955 H 0.91307 0.88198 0.12311 0.0
H956 H 0.93376 0.90014 0.11494 0.0
H957 H 0.93865 0.80333 0.08962 0.0
H958 H 0.93734 0.80501 0.04963 0.0
H959 H 0.91493 0.81127 0.0721 0.0
C960 C 0.57151 0.62657 0.87862 0.0
C961 C 0.56519 0.63749 0.90415 0.0
C962 C 0.58308 0.63651 0.85615 0.0
C963 C 0.58791 0.6579 0.85911 0.0
C964 C 0.58258 0.6686 0.88558 0.0
C965 C 0.57154 0.65821 0.90785 0.0
C966 C 0.58914 0.62435 0.82877 0.0
C967 C 0.58738 0.69146 0.88975 0.0
C968 C 0.62471 0.69251 0.81727 0.0
C969 C 0.61053 0.70432 0.80058 0.0
C970 C 0.61801 0.67519 0.83368 0.0
C971 C 0.59662 0.67006 0.83393 0.0
C972 C 0.58278 0.68041 0.81437 0.0
C973 C 0.58998 0.69734 0.79765 0.0
C974 C 0.63343 0.6638 0.85308 0.0
C975 C 0.55985 0.67531 0.81379 0.0
H976 H 0.56687 0.61049 0.8757 0.0
H977 H 0.56697 0.66675 0.9276 0.0
H978 H 0.57725 0.62674 0.8112 0.0
H979 H 0.60436 0.62959 0.81984 0.0
H980 H 0.59 0.6074 0.83354 0.0
H981 H 0.58247 0.69733 0.91193 0.0
H982 H 0.60431 0.69428 0.88726 0.0
H983 H 0.57929 0.70073 0.8724 0.0
H984 H 0.64077 0.69754 0.81902 0.0
H985 H 0.579 0.70623 0.78447 0.0
H986 H 0.62996 0.64689 0.85363 0.0
H987 H 0.63236 0.66977 0.8762 0.0
H988 H 0.64964 0.6661 0.84517 0.0
H989 H 0.55741 0.65826 0.81257 0.0
H990 H 0.55179 0.68274 0.79466 0.0
H991 H 0.5525 0.68092 0.83466 0.0
C992 C 0.58048 0.32147 0.1679 0.0
C993 C 0.6018 0.31735 0.16492 0.0
C994 C 0.56959 0.33236 0.14594 0.0
C995 C 0.58032 0.33964 0.12047 0.0
C996 C 0.60212 0.33688 0.11825 0.0
C997 C 0.61263 0.32561 0.14048 0.0
C998 C 0.54632 0.33503 0.14931 0.0
C999 C 0.61417 0.34487 0.09179 0.0
C1000 C 0.54259 0.34177 0.05657 0.0
C1001 C 0.53458 0.36191 0.06005 0.0
C1002 C 0.55916 0.33482 0.07425 0.0
C1003 C 0.56805 0.34847 0.09549 0.0
C1004 C 0.56174 0.36954 0.09639 0.0
C1005 C 0.5449 0.37599 0.07882 0.0
C1006 C 0.56553 0.31224 0.07246 0.0
C1007 C 0.57137 0.38475 0.11795 0.0
H1008 H 0.572 0.31539 0.18687 0.0
H1009 H 0.62914 0.32261 0.13809 0.0
H1010 H 0.54207 0.3517 0.1475 0.0
H1011 H 0.53818 0.32661 0.13115 0.0
H1012 H 0.5405 0.32904 0.17096 0.0
H1013 H 0.63112 0.34575 0.09654 0.0
H1014 H 0.61185 0.33421 0.07266 0.0
H1015 H 0.60859 0.3605 0.08499 0.0
H1016 H 0.53484 0.33087 0.04187 0.0
H1017 H 0.53906 0.39173 0.08112 0.0
H1018 H 0.55948 0.30384 0.09223 0.0
H1019 H 0.58272 0.31073 0.07261 0.0
H1020 H 0.55937 0.30454 0.05214 0.0
H1021 H 0.56477 0.38216 0.14047 0.0
H1022 H 0.56819 0.40112 0.11142 0.0
H1023 H 0.58845 0.38243 0.11942 0.0
C1024 C 0.91783 0.29011 0.28823 0.0
C1025 C 0.89633 0.28662 0.28941 0.0
C1026 C 0.92682 0.30673 0.30388 0.0
C1027 C 0.9139 0.32019 0.32067 0.0
C1028 C 0.89202 0.31839 0.31844 0.0
C1029 C 0.88347 0.30149 0.303 0.0
C1030 C 0.95023 0.30825 0.30539 0.0
C1031 C 0.87769 0.33287 0.33516 0.0
C1032 C 0.93532 0.33336 0.39664 0.0
C1033 C 0.94328 0.35346 0.39239 0.0
C1034 C 0.9254 0.32268 0.37357 0.0
C1035 C 0.92307 0.33239 0.34547 0.0
C1036 C 0.93015 0.35304 0.3413 0.0
C1037 C 0.94034 0.36332 0.3648 0.0
C1038 C 0.91801 0.30067 0.3791 0.0
C1039 C 0.92763 0.36402 0.31182 0.0
H1040 H 0.92785 0.2788 0.27749 0.0
H1041 H 0.86676 0.29912 0.3034 0.0
H1042 H 0.95536 0.32469 0.30396 0.0
H1043 H 0.95566 0.30198 0.32707 0.0
H1044 H 0.95784 0.29925 0.28729 0.0
H1045 H 0.86162 0.33243 0.32606 0.0
H1046 H 0.87706 0.32811 0.35889 0.0
H1047 H 0.8835 0.34911 0.33432 0.0
H1048 H 0.93737 0.32562 0.41789 0.0
H1049 H 0.9464 0.37887 0.36133 0.0
H1050 H 0.9261 0.2898 0.36379 0.0
H1051 H 0.90109 0.29945 0.37457 0.0
H1052 H 0.9209 0.29549 0.40233 0.0
H1053 H 0.93925 0.3579 0.2958 0.0
H1054 H 0.93001 0.38108 0.31394 0.0
H1055 H 0.91197 0.36113 0.30229 0.0
C1056 C 0.88067 0.69059 0.62817 0.0
C1057 C 0.89201 0.694 0.65445 0.0
C1058 C 0.88958 0.67983 0.60406 0.0
C1059 C 0.91038 0.67275 0.60621 0.0
C1060 C 0.92154 0.67542 0.63312 0.0
C1061 C 0.91216 0.68581 0.65692 0.0
C1062 C 0.87701 0.67681 0.57602 0.0
C1063 C 0.9438 0.66813 0.63643 0.0
C1064 C 0.93976 0.63383 0.56018 0.0
C1065 C 0.95336 0.64707 0.54473 0.0
C1066 C 0.92364 0.64197 0.57769 0.0
C1067 C 0.92142 0.6638 0.58016 0.0
C1068 C 0.9335 0.67705 0.56185 0.0
C1069 C 0.94926 0.66849 0.54411 0.0
C1070 C 0.91049 0.62729 0.59595 0.0
C1071 C 0.93153 0.70043 0.56366 0.0
H1072 H 0.86503 0.69675 0.62613 0.0
H1073 H 0.92104 0.68821 0.67715 0.0
H1074 H 0.88175 0.68857 0.55928 0.0
H1075 H 0.87982 0.6612 0.56625 0.0
H1076 H 0.86007 0.67865 0.58022 0.0
H1077 H 0.95014 0.67116 0.65903 0.0
H1078 H 0.94487 0.65119 0.63197 0.0
H1079 H 0.95383 0.67618 0.61994 0.0
H1080 H 0.94255 0.61719 0.5602 0.0
H1081 H 0.95953 0.67881 0.53193 0.0
H1082 H 0.89413 0.63277 0.59708 0.0
H1083 H 0.91661 0.62669 0.61903 0.0
H1084 H 0.91074 0.61126 0.58669 0.0
H1085 H 0.91495 0.70518 0.56365 0.0
H1086 H 0.93958 0.70831 0.54491 0.0
H1087 H 0.93854 0.70594 0.58483 0.0
C1088 C 0.56103 0.33672 0.59316 0.0
C1089 C 0.55078 0.35584 0.59646 0.0
C1090 C 0.57161 0.32755 0.61694 0.0
C1091 C 0.57231 0.33789 0.64477 0.0
C1092 C 0.5631 0.35778 0.64789 0.0
C1093 C 0.55225 0.36648 0.6237 0.0
C1094 C 0.58129 0.30632 0.6125 0.0
C1095 C 0.5639 0.3695 0.67697 0.0
C1096 C 0.57912 0.29649 0.70265 0.0
C1097 C 0.60083 0.2944 0.70221 0.0
C1098 C 0.56935 0.31251 0.68674 0.0
C1099 C 0.58168 0.32683 0.67051 0.0
C1100 C 0.60355 0.32664 0.67388 0.0
C1101 C 0.61293 0.31026 0.68951 0.0
C1102 C 0.54594 0.3124 0.68415 0.0
C1103 C 0.61717 0.34223 0.65804 0.0
H1104 H 0.56019 0.32845 0.57217 0.0
H1105 H 0.54446 0.38132 0.62643 0.0
H1106 H 0.59813 0.30686 0.61786 0.0
H1107 H 0.57394 0.2949 0.62777 0.0
H1108 H 0.57952 0.30055 0.58932 0.0
H1109 H 0.5613 0.38643 0.6736 0.0
H1110 H 0.5515 0.36361 0.69193 0.0
H1111 H 0.57904 0.36724 0.68838 0.0
H1112 H 0.56966 0.28446 0.71282 0.0
H1113 H 0.62975 0.30903 0.68978 0.0
H1114 H 0.54146 0.30588 0.66217 0.0
H1115 H 0.53965 0.32843 0.68547 0.0
H1116 H 0.53858 0.30279 0.7018 0.0
H1117 H 0.61901 0.33749 0.63443 0.0
H1118 H 0.63289 0.34313 0.66827 0.0
H1119 H 0.61 0.35793 0.65833 0.0
C1120 C 0.95498 0.33991 0.94555 0.0
C1121 C 0.96283 0.36017 0.94287 0.0
C1122 C 0.93943 0.33269 0.92627 0.0
C1123 C 0.93137 0.34618 0.90417 0.0
C1124 C 0.93756 0.36729 0.90363 0.0
C1125 C 0.95338 0.37402 0.92285 0.0
C1126 C 0.93322 0.31005 0.92763 0.0
C1127 C 0.92885 0.38232 0.88101 0.0
C1128 C 0.92105 0.31927 0.83094 0.0
C1129 C 0.89958 0.31554 0.83234 0.0
C1130 C 0.93136 0.32987 0.85376 0.0
C1131 C 0.91989 0.33723 0.87851 0.0
C1132 C 0.89802 0.33468 0.8793 0.0
C1133 C 0.8881 0.3237 0.85624 0.0
C1134 C 0.95473 0.33227 0.85199 0.0
C1135 C 0.88524 0.34275 0.90501 0.0
H1136 H 0.96207 0.32917 0.96115 0.0
H1137 H 0.9591 0.38984 0.92107 0.0
H1138 H 0.91608 0.30837 0.92606 0.0
H1139 H 0.94013 0.30167 0.90842 0.0
H1140 H 0.93862 0.30244 0.94845 0.0
H1141 H 0.93183 0.39875 0.88741 0.0
H1142 H 0.93628 0.37946 0.8591 0.0
H1143 H 0.91184 0.38005 0.87824 0.0
H1144 H 0.93005 0.3132 0.81247 0.0
H1145 H 0.87147 0.321 0.85742 0.0
H1146 H 0.96217 0.32382 0.87072 0.0
H1147 H 0.9591 0.3489 0.85403 0.0
H1148 H 0.96122 0.32618 0.83078 0.0
H1149 H 0.88767 0.33262 0.92471 0.0
H1150 H 0.86836 0.34295 0.89974 0.0
H1151 H 0.89019 0.3587 0.91126 0.0
C1152 C 0.92779 0.66631 0.0916 0.0
C1153 C 0.9313 0.64488 0.0947 0.0
C1154 C 0.91693 0.67752 0.11324 0.0
C1155 C 0.90897 0.66701 0.13848 0.0
C1156 C 0.91139 0.64519 0.14105 0.0
C1157 C 0.92275 0.63437 0.11922 0.0
C1158 C 0.9148 0.70082 0.10963 0.0
C1159 C 0.90265 0.6334 0.16726 0.0
C1160 C 0.90489 0.70517 0.20166 0.0
C1161 C 0.88496 0.7133 0.19664 0.0
C1162 C 0.91235 0.68845 0.18472 0.0
C1163 C 0.89939 0.67949 0.16267 0.0
C1164 C 0.87843 0.68597 0.16014 0.0
C1165 C 0.8715 0.70298 0.17698 0.0
C1166 C 0.93481 0.68199 0.18815 0.0
C1167 C 0.86393 0.6763 0.13763 0.0
H1168 H 0.93424 0.6746 0.07271 0.0
H1169 H 0.92528 0.61778 0.12169 0.0
H1170 H 0.89815 0.70534 0.11012 0.0
H1171 H 0.92263 0.70887 0.1284 0.0
H1172 H 0.92169 0.70653 0.08847 0.0
H1173 H 0.90215 0.61638 0.16302 0.0
H1174 H 0.91254 0.63618 0.1871 0.0
H1175 H 0.88672 0.63887 0.1727 0.0
H1176 H 0.91532 0.71294 0.21704 0.0
H1177 H 0.8559 0.70892 0.17346 0.0
H1178 H 0.94393 0.68803 0.16903 0.0
H1179 H 0.93628 0.6648 0.18809 0.0
H1180 H 0.94179 0.68812 0.20901 0.0
H1181 H 0.86742 0.68266 0.11521 0.0
H1182 H 0.84737 0.67971 0.14284 0.0
H1183 H 0.86611 0.65919 0.13666 0.0
C1184 C 0.58343 0.68217 0.33727 0.0
C1185 C 0.60407 0.6891 0.33943 0.0
C1186 C 0.57401 0.67127 0.36055 0.0
C1187 C 0.58561 0.66678 0.38658 0.0
C1188 C 0.60684 0.67251 0.38824 0.0
C1189 C 0.6158 0.68383 0.3647 0.0
C1190 C 0.55128 0.66547 0.35777 0.0
C1191 C 0.61987 0.66752 0.41525 0.0
C1192 C 0.54772 0.66254 0.44981 0.0
C1193 C 0.54206 0.64154 0.44741 0.0
C1194 C 0.5638 0.67073 0.43231 0.0
C1195 C 0.5746 0.65749 0.41241 0.0
C1196 C 0.57091 0.6358 0.41312 0.0
C1197 C 0.55448 0.62807 0.43043 0.0
C1198 C 0.5674 0.69394 0.43246 0.0
C1199 C 0.58275 0.62107 0.39319 0.0
H1200 H 0.57425 0.68599 0.31778 0.0
H1201 H 0.63181 0.68899 0.36648 0.0
H1202 H 0.54928 0.64847 0.36081 0.0
H1203 H 0.54215 0.67337 0.37544 0.0
H1204 H 0.54463 0.66986 0.33582 0.0
H1205 H 0.63676 0.668 0.41005 0.0
H1206 H 0.61673 0.67917 0.4329 0.0
H1207 H 0.61597 0.65194 0.42434 0.0
H1208 H 0.53839 0.67301 0.46321 0.0
H1209 H 0.55051 0.6117 0.42904 0.0
H1210 H 0.56047 0.70084 0.41209 0.0
H1211 H 0.58427 0.69751 0.43224 0.0
H1212 H 0.56023 0.70153 0.45217 0.0
H1213 H 0.5762 0.62178 0.37036 0.0
H1214 H 0.5816 0.60474 0.40117 0.0
H1215 H 0.59941 0.62552 0.39185 0.0
C1216 C 0.42572 0.36035 0.11856 0.0
C1217 C 0.43159 0.34958 0.09268 0.0
C1218 C 0.41535 0.35007 0.14188 0.0
C1219 C 0.41097 0.32857 0.13922 0.0
C1220 C 0.41593 0.31794 0.11253 0.0
C1221 C 0.42607 0.32859 0.0896 0.0
C1222 C 0.40998 0.362 0.16978 0.0
C1223 C 0.41137 0.29502 0.1086 0.0
C1224 C 0.40844 0.28918 0.20103 0.0
C1225 C 0.38754 0.28312 0.19905 0.0
C1226 C 0.41604 0.30571 0.18379 0.0
C1227 C 0.40231 0.31648 0.1645 0.0
C1228 C 0.38075 0.31217 0.16546 0.0
C1229 C 0.37362 0.2954 0.1826 0.0
C1230 C 0.43912 0.31001 0.18367 0.0
C1231 C 0.36551 0.32374 0.14598 0.0
H1232 H 0.4299 0.37659 0.12111 0.0
H1233 H 0.43034 0.32019 0.06958 0.0
H1234 H 0.39432 0.35764 0.17809 0.0
H1235 H 0.42138 0.35813 0.18748 0.0
H1236 H 0.41042 0.37908 0.16605 0.0
H1237 H 0.41573 0.28926 0.08613 0.0
H1238 H 0.4201 0.28588 0.12545 0.0
H1239 H 0.39457 0.29196 0.11213 0.0
H1240 H 0.41925 0.27988 0.21392 0.0
H1241 H 0.35733 0.29106 0.1815 0.0
H1242 H 0.44219 0.32699 0.18379 0.0
H1243 H 0.44607 0.30352 0.16304 0.0
H1244 H 0.44707 0.30285 0.2031 0.0
H1245 H 0.36926 0.34058 0.14522 0.0
H1246 H 0.34925 0.32179 0.1539 0.0
H1247 H 0.36649 0.31764 0.12291 0.0
C1248 C 0.45648 0.65935 0.94577 0.0
C1249 C 0.46153 0.63835 0.94142 0.0
C1250 C 0.44065 0.6688 0.92904 0.0
C1251 C 0.42961 0.65686 0.90775 0.0
C1252 C 0.43293 0.63515 0.90601 0.0
C1253 C 0.44894 0.62614 0.9228 0.0
C1254 C 0.43742 0.69198 0.93179 0.0
C1255 C 0.42113 0.62178 0.88413 0.0
C1256 C 0.38703 0.6839 0.86334 0.0
C1257 C 0.39822 0.69054 0.83822 0.0
C1258 C 0.3968 0.67239 0.886 0.0
C1259 C 0.41823 0.66761 0.88345 0.0
C1260 C 0.42937 0.67369 0.8577 0.0
C1261 C 0.41923 0.68499 0.83542 0.0
C1262 C 0.3844 0.66593 0.91298 0.0
C1263 C 0.45224 0.66881 0.85397 0.0
H1264 H 0.46598 0.66885 0.96036 0.0
H1265 H 0.45248 0.60978 0.9198 0.0
H1266 H 0.44481 0.69989 0.91253 0.0
H1267 H 0.42062 0.69588 0.93145 0.0
H1268 H 0.4444 0.69828 0.95255 0.0
H1269 H 0.42231 0.60499 0.88976 0.0
H1270 H 0.40446 0.62624 0.88338 0.0
H1271 H 0.42767 0.6241 0.8615 0.0
H1272 H 0.37078 0.68812 0.86566 0.0
H1273 H 0.42799 0.6899 0.81603 0.0
H1274 H 0.3893 0.67535 0.93245 0.0
H1275 H 0.38737 0.64937 0.91851 0.0
H1276 H 0.36742 0.66815 0.90963 0.0
H1277 H 0.4613 0.67618 0.87217 0.0
H1278 H 0.45851 0.67439 0.83235 0.0
H1279 H 0.45482 0.65177 0.85541 0.0
C1280 C 0.11503 0.68729 0.68604 0.0
C1281 C 0.10199 0.70183 0.70002 0.0
C1282 C 0.10668 0.67126 0.66858 0.0
C1283 C 0.08488 0.67005 0.66479 0.0
C1284 C 0.07168 0.68282 0.68223 0.0
C1285 C 0.08043 0.69855 0.69986 0.0
C1286 C 0.12125 0.6573 0.65142 0.0
C1287 C 0.04831 0.68172 0.6793 0.0
C1288 C 0.06442 0.66275 0.58675 0.0
C1289 C 0.05514 0.64306 0.58836 0.0
C1290 C 0.07484 0.67125 0.6112 0.0
C1291 C 0.07626 0.65967 0.63797 0.0
C1292 C 0.06819 0.6392 0.63919 0.0
C1293 C 0.05758 0.63115 0.61435 0.0
C1294 C 0.08341 0.6931 0.60876 0.0
C1295 C 0.06976 0.62619 0.66705 0.0
H1296 H 0.13176 0.68942 0.68673 0.0
H1297 H 0.07025 0.70952 0.711 0.0
H1298 H 0.11498 0.64125 0.64993 0.0
H1299 H 0.12298 0.66333 0.62841 0.0
H1300 H 0.13693 0.65674 0.66183 0.0
H1301 H 0.04032 0.69006 0.69771 0.0
H1302 H 0.04356 0.68896 0.65791 0.0
H1303 H 0.04295 0.66533 0.67904 0.0
H1304 H 0.06286 0.67197 0.56666 0.0
H1305 H 0.05052 0.61586 0.61576 0.0
H1306 H 0.1002 0.69324 0.61442 0.0
H1307 H 0.07533 0.70344 0.62482 0.0
H1308 H 0.08149 0.69972 0.58608 0.0
H1309 H 0.08477 0.62879 0.67867 0.0
H1310 H 0.06815 0.60934 0.66203 0.0
H1311 H 0.05707 0.63062 0.68255 0.0
C1312 C 0.04739 0.33755 0.45153 0.0
C1313 C 0.04254 0.35876 0.44973 0.0
C1314 C 0.06431 0.32937 0.43567 0.0
C1315 C 0.07666 0.34285 0.41805 0.0
C1316 C 0.07379 0.3646 0.4201 0.0
C1317 C 0.05658 0.37234 0.43576 0.0
C1318 C 0.06717 0.30608 0.43463 0.0
C1319 C 0.08728 0.37954 0.40283 0.0
C1320 C 0.11835 0.31624 0.37158 0.0
C1321 C 0.10718 0.31205 0.34538 0.0
C1322 C 0.10913 0.32732 0.39513 0.0
C1323 C 0.08825 0.33408 0.39237 0.0
C1324 C 0.07744 0.331 0.36524 0.0
C1325 C 0.08708 0.32016 0.3421 0.0
C1326 C 0.12137 0.33072 0.42337 0.0
C1327 C 0.05519 0.33814 0.36113 0.0
H1328 H 0.03681 0.32699 0.46272 0.0
H1329 H 0.05323 0.38887 0.435 0.0
H1330 H 0.06101 0.30005 0.41321 0.0
H1331 H 0.0839 0.30195 0.43581 0.0
H1332 H 0.05883 0.29816 0.45309 0.0
H1333 H 0.08646 0.39552 0.41219 0.0
H1334 H 0.10374 0.37432 0.40273 0.0
H1335 H 0.08187 0.38014 0.37938 0.0
H1336 H 0.13395 0.3101 0.37425 0.0
H1337 H 0.07845 0.31728 0.32177 0.0
H1338 H 0.11776 0.31807 0.43935 0.0
H1339 H 0.11729 0.34573 0.43408 0.0
H1340 H 0.13839 0.33043 0.41903 0.0
H1341 H 0.04494 0.33005 0.3773 0.0
H1342 H 0.04926 0.335 0.33833 0.0
H1343 H 0.05392 0.35508 0.36545 0.0
C1344 C 0.43578 0.63496 0.37884 0.0
C1345 C 0.43986 0.64607 0.40513 0.0
C1346 C 0.42503 0.64431 0.35507 0.0
C1347 C 0.41846 0.66525 0.35769 0.0
C1348 C 0.42171 0.67615 0.38469 0.0
C1349 C 0.43225 0.66641 0.40805 0.0
C1350 C 0.42154 0.63207 0.32685 0.0
C1351 C 0.41481 0.69849 0.38857 0.0
C1352 C 0.41331 0.70495 0.29676 0.0
C1353 C 0.39192 0.70904 0.29824 0.0
C1354 C 0.42213 0.68887 0.3137 0.0
C1355 C 0.40915 0.67658 0.33215 0.0
C1356 C 0.3873 0.67882 0.33042 0.0
C1357 C 0.37892 0.69516 0.3136 0.0
C1358 C 0.44551 0.68677 0.31459 0.0
C1359 C 0.3729 0.66553 0.34892 0.0
H1360 H 0.44157 0.61921 0.37641 0.0
H1361 H 0.43512 0.67505 0.42836 0.0
H1362 H 0.40584 0.63511 0.31754 0.0
H1363 H 0.43311 0.63692 0.3099 0.0
H1364 H 0.4233 0.61507 0.33059 0.0
H1365 H 0.41815 0.70456 0.41123 0.0
H1366 H 0.42287 0.70854 0.37213 0.0
H1367 H 0.39785 0.69987 0.38443 0.0
H1368 H 0.42343 0.71546 0.28465 0.0
H1369 H 0.36229 0.69796 0.31426 0.0
H1370 H 0.45018 0.67016 0.31433 0.0
H1371 H 0.45146 0.69372 0.33556 0.0
H1372 H 0.45306 0.69483 0.29556 0.0
H1373 H 0.3783 0.64914 0.34948 0.0
H1374 H 0.3567 0.66595 0.34028 0.0
H1375 H 0.37276 0.67141 0.37215 0.0
C1376 C 0.04635 0.62188 0.07188 0.0
C1377 C 0.03426 0.63531 0.05436 0.0
C1378 C 0.06332 0.62941 0.08824 0.0
C1379 C 0.06801 0.65089 0.08733 0.0
C1380 C 0.05744 0.66396 0.06693 0.0
C1381 C 0.04071 0.65596 0.05049 0.0
C1382 C 0.0747 0.61481 0.10892 0.0
C1383 C 0.06215 0.68693 0.06502 0.0
C1384 C 0.08012 0.6775 0.16021 0.0
C1385 C 0.10117 0.68267 0.15686 0.0
C1386 C 0.06945 0.66657 0.13808 0.0
C1387 C 0.08013 0.66041 0.11194 0.0
C1388 C 0.10168 0.66446 0.1091 0.0
C1389 C 0.11198 0.67567 0.13161 0.0
C1390 C 0.04646 0.66242 0.14218 0.0
C1391 C 0.11367 0.65782 0.08183 0.0
H1392 H 0.04171 0.60575 0.07442 0.0
H1393 H 0.03157 0.66638 0.03672 0.0
H1394 H 0.09159 0.61835 0.10936 0.0
H1395 H 0.06863 0.61679 0.13188 0.0
H1396 H 0.07252 0.59829 0.10233 0.0
H1397 H 0.05511 0.69416 0.04494 0.0
H1398 H 0.05581 0.69486 0.08501 0.0
H1399 H 0.07918 0.68968 0.06463 0.0
H1400 H 0.07168 0.68262 0.17978 0.0
H1401 H 0.12827 0.67956 0.12887 0.0
H1402 H 0.04323 0.64553 0.14014 0.0
H1403 H 0.03748 0.67049 0.12451 0.0
H1404 H 0.04065 0.66781 0.16417 0.0
H1405 H 0.10896 0.64202 0.07451 0.0
H1406 H 0.13073 0.65794 0.08585 0.0
H1407 H 0.11027 0.66872 0.0633 0.0
C1408 C 0.09665 0.30041 0.81147 0.0
C1409 C 0.11643 0.29177 0.8159 0.0
C1410 C 0.08938 0.31643 0.82988 0.0
C1411 C 0.10237 0.32413 0.85284 0.0
C1412 C 0.12333 0.31753 0.85453 0.0
C1413 C 0.13009 0.30121 0.83619 0.0
C1414 C 0.06698 0.32324 0.82707 0.0
C1415 C 0.13794 0.32611 0.87777 0.0
C1416 C 0.07729 0.36558 0.90134 0.0
C1417 C 0.06832 0.3532 0.92367 0.0
C1418 C 0.08964 0.35662 0.8789 0.0
C1419 C 0.09269 0.33481 0.87865 0.0
C1420 C 0.0847 0.32249 0.90215 0.0
C1421 C 0.0728 0.33186 0.92444 0.0
C1422 C 0.09842 0.37038 0.85476 0.0
C1423 C 0.08762 0.29914 0.90288 0.0
H1424 H 0.0861 0.29342 0.7955 0.0
H1425 H 0.14562 0.29496 0.83919 0.0
H1426 H 0.05779 0.31642 0.84559 0.0
H1427 H 0.0657 0.3404 0.82874 0.0
H1428 H 0.05995 0.31815 0.80568 0.0
H1429 H 0.15447 0.32326 0.87177 0.0
H1430 H 0.13552 0.34307 0.88081 0.0
H1431 H 0.13482 0.31841 0.89943 0.0
H1432 H 0.07405 0.38213 0.90071 0.0
H1433 H 0.06619 0.32219 0.94181 0.0
H1434 H 0.08779 0.3702 0.8353 0.0
H1435 H 0.11387 0.36477 0.84719 0.0
H1436 H 0.09993 0.38674 0.86243 0.0
H1437 H 0.08009 0.292 0.88313 0.0
H1438 H 0.08087 0.29195 0.9232 0.0
H1439 H 0.10441 0.2952 0.90199 0.0
C1440 C 0.43597 0.36239 0.55237 0.0
C1441 C 0.45154 0.34962 0.54028 0.0
C1442 C 0.41965 0.35382 0.56907 0.0
C1443 C 0.41926 0.33212 0.57418 0.0
C1444 C 0.43325 0.31902 0.55863 0.0
C1445 C 0.4492 0.32796 0.54159 0.0
C1446 C 0.40436 0.36822 0.58409 0.0
C1447 C 0.43315 0.29575 0.56308 0.0
C1448 C 0.40977 0.31406 0.65297 0.0
C1449 C 0.39069 0.30363 0.65048 0.0
C1450 C 0.41875 0.32399 0.62846 0.0
C1451 C 0.40825 0.32384 0.60073 0.0
C1452 C 0.38833 0.31459 0.59846 0.0
C1453 C 0.37983 0.3044 0.62336 0.0
C1454 C 0.44003 0.33374 0.632 0.0
C1455 C 0.37638 0.31457 0.56955 0.0
H1456 H 0.43741 0.37916 0.55078 0.0
H1457 H 0.46101 0.31798 0.53194 0.0
H1458 H 0.38858 0.36121 0.58469 0.0
H1459 H 0.40936 0.37095 0.60741 0.0
H1460 H 0.40352 0.38351 0.57261 0.0
H1461 H 0.44263 0.2876 0.546 0.0
H1462 H 0.43966 0.29206 0.58536 0.0
H1463 H 0.41705 0.28958 0.56232 0.0
H1464 H 0.41821 0.31376 0.67385 0.0
H1465 H 0.36501 0.29649 0.62126 0.0
H1466 H 0.43953 0.35036 0.6254 0.0
H1467 H 0.45135 0.3258 0.61719 0.0
H1468 H 0.4459 0.33278 0.65522 0.0
H1469 H 0.37874 0.32928 0.55705 0.0
H1470 H 0.35945 0.31233 0.57338 0.0
H1471 H 0.38197 0.30159 0.55538 0.0
C1472 C 0.2856 0.24504 0.19741 0.0
C1473 C 0.29569 0.22959 0.21407 0.0
C1474 C 0.26534 0.25138 0.2045 0.0
C1475 C 0.25475 0.24153 0.22822 0.0
C1476 C 0.26448 0.22515 0.2441 0.0
C1477 C 0.28504 0.21961 0.23717 0.0
C1478 C 0.25575 0.26933 0.18768 0.0
C1479 C 0.25339 0.21387 0.26896 0.0
C1480 C 0.21332 0.26973 0.27241 0.0
C1481 C 0.19509 0.26165 0.25994 0.0
C1482 C 0.23286 0.26406 0.26124 0.0
C1483 C 0.23411 0.24934 0.23786 0.0
C1484 C 0.21568 0.24152 0.22469 0.0
C1485 C 0.1963 0.24808 0.23562 0.0
C1486 C 0.25216 0.27333 0.27511 0.0
C1487 C 0.21641 0.22539 0.20028 0.0
H1488 H 0.29393 0.25295 0.17973 0.0
H1489 H 0.29283 0.2076 0.24995 0.0
H1490 H 0.24018 0.26499 0.17906 0.0
H1491 H 0.25354 0.28269 0.20301 0.0
H1492 H 0.26557 0.27448 0.16871 0.0
H1493 H 0.26223 0.20008 0.27684 0.0
H1494 H 0.25109 0.22457 0.28805 0.0
H1495 H 0.23776 0.20872 0.26146 0.0
H1496 H 0.21228 0.28024 0.29124 0.0
H1497 H 0.18212 0.24161 0.22636 0.0
H1498 H 0.26262 0.27953 0.25757 0.0
H1499 H 0.26086 0.26109 0.28727 0.0
H1500 H 0.24843 0.28607 0.29095 0.0
H1501 H 0.2265 0.23073 0.18176 0.0
H1502 H 0.20072 0.22182 0.19124 0.0
H1503 H 0.22331 0.21081 0.20911 0.0
C1504 C 0.98043 0.96136 0.51901 0.0
C1505 C 0.99349 0.95057 0.53859 0.0
C1506 C 0.9839 0.98247 0.51274 0.0
C1507 C 0.00121 0.99272 0.52564 0.0
C1508 C 0.01438 0.98188 0.54553 0.0
C1509 C 0.01017 0.96099 0.5521 0.0
C1510 C 0.96922 0.99372 0.492 0.0
C1511 C 0.03332 0.9921 0.55903 0.0
C1512 C 0.02139 0.03891 0.48207 0.0
C1513 C 0.0137 0.0556 0.49878 0.0
C1514 C 0.01807 0.01835 0.49121 0.0
C1515 C 0.00615 0.01446 0.51712 0.0
C1516 C 0.99861 0.03131 0.53435 0.0
C1517 C 0.00278 0.05177 0.52518 0.0
C1518 C 0.02696 0.00079 0.47282 0.0
C1519 C 0.98543 0.02773 0.56169 0.0
H1520 H 0.96746 0.95332 0.50873 0.0
H1521 H 0.02041 0.9526 0.56706 0.0
H1522 H 0.96357 0.00827 0.50258 0.0
H1523 H 0.97755 0.99818 0.47134 0.0
H1524 H 0.95557 0.98402 0.48583 0.0
H1525 H 0.04167 0.98164 0.57469 0.0
H1526 H 0.04424 0.99678 0.54109 0.0
H1527 H 0.02881 0.00645 0.57112 0.0
H1528 H 0.02989 0.04196 0.46168 0.0
H1529 H 0.99662 0.06474 0.53784 0.0
H1530 H 0.01414 0.99164 0.46272 0.0
H1531 H 0.03603 0.99006 0.48718 0.0
H1532 H 0.03723 0.00651 0.45468 0.0
H1533 H 0.97087 0.01958 0.5553 0.0
H1534 H 0.98126 0.04251 0.57307 0.0
H1535 H 0.99373 0.01758 0.57772 0.0
C1536 C 0.30008 0.74223 0.73177 0.0
C1537 C 0.30347 0.73109 0.75812 0.0
C1538 C 0.2798 0.74624 0.72175 0.0
C1539 C 0.26268 0.73831 0.73803 0.0
C1540 C 0.26614 0.72604 0.76373 0.0
C1541 C 0.28653 0.72291 0.77379 0.0
C1542 C 0.27667 0.75982 0.69469 0.0
C1543 C 0.2483 0.71671 0.78107 0.0
C1544 C 0.20969 0.76423 0.73501 0.0
C1545 C 0.1993 0.75164 0.7144 0.0
C1546 C 0.23064 0.76052 0.74207 0.0
C1547 C 0.24109 0.74341 0.72892 0.0
C1548 C 0.23063 0.73069 0.70805 0.0
C1549 C 0.20993 0.73517 0.7007 0.0
C1550 C 0.24151 0.77476 0.76382 0.0
C1551 C 0.24105 0.71195 0.69427 0.0
H1552 H 0.31324 0.7488 0.71994 0.0
H1553 H 0.28924 0.71426 0.79415 0.0
H1554 H 0.26669 0.75181 0.67813 0.0
H1555 H 0.26853 0.77433 0.70127 0.0
H1556 H 0.29163 0.76405 0.68385 0.0
H1557 H 0.25374 0.706 0.79887 0.0
H1558 H 0.23899 0.72928 0.79151 0.0
H1559 H 0.2378 0.708 0.76592 0.0
H1560 H 0.20148 0.77703 0.74544 0.0
H1561 H 0.20181 0.72529 0.68495 0.0
H1562 H 0.25625 0.7806 0.75403 0.0
H1563 H 0.24559 0.76601 0.78429 0.0
H1564 H 0.23171 0.78829 0.77019 0.0
H1565 H 0.25562 0.71664 0.68288 0.0
H1566 H 0.23086 0.70391 0.67794 0.0
H1567 H 0.24538 0.70072 0.71199 0.0
C1568 C 0.50656 0.05337 0.97837 0.0
C1569 C 0.52017 0.05552 0.00251 0.0
C1570 C 0.50016 0.0336 0.96879 0.0
C1571 C 0.50814 0.0157 0.98317 0.0
C1572 C 0.5229 0.01784 0.00638 0.0
C1573 C 0.52844 0.03778 0.01616 0.0
C1574 C 0.48401 0.03193 0.9445 0.0
C1575 C 0.53231 -0.00091 0.02153 0.0
C1576 C 0.47808 0.96492 0.98491 0.0
C1577 C 0.48783 0.95375 0.9621 0.0
C1578 C 0.48398 0.98549 0.99118 0.0
C1579 C 0.50047 0.99471 0.9749 0.0
C1580 C 0.51024 0.9835 0.95171 0.0
C1581 C 0.50357 0.96325 0.94529 0.0
C1582 C 0.4728 0.99722 0.01553 0.0
C1583 C 0.52828 0.99257 0.93449 0.0
H1584 H 0.49993 0.06715 0.96817 0.0
H1585 H 0.53898 0.03953 0.03484 0.0
H1586 H 0.48949 0.02142 0.92656 0.0
H1587 H 0.46955 0.02505 0.95376 0.0
H1588 H 0.48017 0.04729 0.93458 0.0
H1589 H 0.54504 0.00343 0.03708 0.0
H1590 H 0.52014 0.99071 0.03428 0.0
H1591 H 0.53858 0.98811 0.00471 0.0
H1592 H 0.46585 0.95759 0.9978 0.0
H1593 H 0.51129 0.95451 0.92783 0.0
H1594 H 0.46741 0.01253 0.0071 0.0
H1595 H 0.48364 0.00026 0.03424 0.0
H1596 H 0.45917 0.9885 0.02424 0.0
H1597 H 0.52382 0.00769 0.92445 0.0
H1598 H 0.53374 0.98204 0.9165 0.0
H1599 H 0.54146 0.99561 0.94986 0.0
C1600 C 0.19603 0.74048 0.26374 0.0
C1601 C 0.19433 0.72736 0.23897 0.0
C1602 C 0.21562 0.74639 0.27462 0.0
C1603 C 0.23378 0.73843 0.26088 0.0
C1604 C 0.23204 0.72411 0.23706 0.0
C1605 C 0.2123 0.71903 0.22603 0.0
C1606 C 0.21688 0.76207 0.2996 0.0
C1607 C 0.25104 0.71473 0.22251 0.0
C1608 C 0.28487 0.7679 0.26188 0.0
C1609 C 0.29562 0.75755 0.28456 0.0
C1610 C 0.26431 0.76244 0.25486 0.0
C1611 C 0.25464 0.7458 0.27027 0.0
C1612 C 0.26536 0.73551 0.29347 0.0
C1613 C 0.28564 0.74172 0.30062 0.0
C1614 C 0.25311 0.77415 0.23052 0.0
C1615 C 0.25578 0.71734 0.30982 0.0
H1616 H 0.18209 0.74715 0.27343 0.0
H1617 H 0.2109 0.70886 0.20687 0.0
H1618 H 0.2271 0.75625 0.31767 0.0
H1619 H 0.22389 0.7767 0.29113 0.0
H1620 H 0.20135 0.76571 0.30913 0.0
H1621 H 0.24694 0.70229 0.20637 0.0
H1622 H 0.25981 0.72701 0.21053 0.0
H1623 H 0.26158 0.7081 0.23963 0.0
H1624 H 0.29256 0.78021 0.24957 0.0
H1625 H 0.29403 0.73355 0.318 0.0
H1626 H 0.23767 0.7795 0.23856 0.0
H1627 H 0.25036 0.76369 0.21128 0.0
H1628 H 0.26207 0.78788 0.22268 0.0
H1629 H 0.24042 0.72173 0.31914 0.0
H1630 H 0.26582 0.71165 0.32824 0.0
H1631 H 0.25312 0.70433 0.29401 0.0
C1632 C 0.50579 0.94674 0.51792 0.0
C1633 C 0.51585 0.94357 0.49065 0.0
C1634 C 0.50194 0.96696 0.52838 0.0
C1635 C 0.50896 0.98422 0.51155 0.0
C1636 C 0.52015 0.98097 0.4848 0.0
C1637 C 0.52312 0.96065 0.47439 0.0
C1638 C 0.4895 0.96985 0.55659 0.0
C1639 C 0.52851 -0.00104 0.46678 0.0
C1640 C 0.48294 0.03707 0.51627 0.0
C1641 C 0.49642 0.0477 0.53543 0.0
C1642 C 0.48633 0.01605 0.50937 0.0
C1643 C 0.504 0.00574 0.52116 0.0
C1644 C 0.51755 0.01639 0.54073 0.0
C1645 C 0.51341 0.03719 0.54798 0.0
C1646 C 0.47123 0.00498 0.48907 0.0
C1647 C 0.53686 0.00612 0.55303 0.0
H1648 H 0.49994 0.93346 0.53023 0.0
H1649 H 0.53094 0.9581 0.45331 0.0
H1650 H 0.49801 0.97998 0.57242 0.0
H1651 H 0.47458 0.97773 0.55128 0.0
H1652 H 0.486 0.95483 0.56775 0.0
H1653 H 0.53847 0.99369 0.44802 0.0
H1654 H 0.51541 0.00816 0.45756 0.0
H1655 H 0.53775 0.00951 0.48119 0.0
H1656 H 0.46973 0.04518 0.50675 0.0
H1657 H 0.52396 0.04547 0.56262 0.0
H1658 H 0.46607 0.99016 0.49937 0.0
H1659 H 0.47903 0.00103 0.46778 0.0
H1660 H 0.4573 0.0146 0.48405 0.0
H1661 H 0.53277 0.99143 0.56457 0.0
H1662 H 0.54535 0.01632 0.56888 0.0
H1663 H 0.5475 0.00204 0.53447 0.0
C1664 C 0.19917 0.24037 0.74012 0.0
C1665 C 0.19643 0.22889 0.76632 0.0
C1666 C 0.2192 0.24464 0.72929 0.0
C1667 C 0.23672 0.23669 0.74464 0.0
C1668 C 0.23391 0.22404 0.77013 0.0
C1669 C 0.21376 0.22058 0.78095 0.0
C1670 C 0.22163 0.25856 0.70243 0.0
C1671 C 0.25219 0.21473 0.78653 0.0
C1672 C 0.28911 0.23479 0.70606 0.0
C1673 C 0.29964 0.25124 0.71996 0.0
C1674 C 0.26851 0.22999 0.71362 0.0
C1675 C 0.25807 0.24231 0.735 0.0
C1676 C 0.2684 0.25943 0.74831 0.0
C1677 C 0.28922 0.26351 0.74095 0.0
C1678 C 0.25819 0.2113 0.69954 0.0
C1679 C 0.25756 0.27322 0.77067 0.0
H1680 H 0.18572 0.24701 0.72905 0.0
H1681 H 0.21158 0.21163 0.80118 0.0
H1682 H 0.22946 0.27322 0.70914 0.0
H1683 H 0.23163 0.251 0.68547 0.0
H1684 H 0.20644 0.26249 0.69206 0.0
H1685 H 0.24723 0.2037 0.80421 0.0
H1686 H 0.26254 0.20639 0.77075 0.0
H1687 H 0.26149 0.22729 0.79698 0.0
H1688 H 0.29721 0.22517 0.68998 0.0
H1689 H 0.29732 0.27632 0.75153 0.0
H1690 H 0.24332 0.21588 0.6889 0.0
H1691 H 0.25444 0.19967 0.717 0.0
H1692 H 0.26823 0.20376 0.68253 0.0
H1693 H 0.2426 0.27892 0.7614 0.0
H1694 H 0.2672 0.28685 0.77712 0.0
H1695 H 0.25389 0.26417 0.79103 0.0
C1696 C 0.97295 0.03128 0.97624 0.0
C1697 C 0.982 0.04192 0.95234 0.0
C1698 C 0.9791 0.01091 0.98321 0.0
C1699 C 0.99514 0.00132 0.96646 0.0
C1700 C 0.00399 0.01185 0.9419 0.0
C1701 C 0.99709 0.03193 0.93487 0.0
C1702 C 0.96889 -0.00011 0.00905 0.0
C1703 C 0.02151 0.00238 0.92403 0.0
C1704 C 0.0256 0.96076 0.00929 0.0
C1705 C 0.01735 0.94227 0.99783 0.0
C1706 C 0.01919 0.9801 0.99822 0.0
C1707 C 0.00361 0.98089 0.97594 0.0
C1708 C 0.99564 0.96222 0.96373 0.0
C1709 C 0.00287 0.94306 0.97455 0.0
C1710 C 0.02859 -0.00032 0.01106 0.0
C1711 C 0.97866 0.96247 0.9405 0.0
H1712 H 0.96122 0.03897 0.98966 0.0
H1713 H 0.00428 0.04022 0.91654 0.0
H1714 H 0.96374 0.98411 0.00222 0.0
H1715 H 0.98027 0.99794 0.02739 0.0
H1716 H 0.95524 0.00858 0.01774 0.0
H1717 H 0.02584 0.01209 0.90453 0.0
H1718 H 0.03542 0.00055 0.93844 0.0
H1719 H 0.01714 0.98666 0.91603 0.0
H1720 H 0.03681 0.96008 0.02731 0.0
H1721 H 0.99628 0.92871 0.96605 0.0
H1722 H 0.01662 0.00833 0.02384 0.0
H1723 H 0.03405 0.01005 0.99291 0.0
H1724 H 0.04189 0.99632 0.0261 0.0
H1725 H 0.9643 0.96924 0.95023 0.0
H1726 H 0.97502 0.94663 0.93205 0.0
H1727 H 0.98319 0.97244 0.92143 0.0
C1728 C 0.78784 0.76207 0.70493 0.0
C1729 C 0.79802 0.74539 0.71883 0.0
C1730 C 0.76712 0.76687 0.71176 0.0
C1731 C 0.75619 0.7543 0.73232 0.0
C1732 C 0.76618 0.73697 0.74561 0.0
C1733 C 0.78714 0.73292 0.73906 0.0
C1734 C 0.7572 0.78582 0.69782 0.0
C1735 C 0.75481 0.72288 0.76704 0.0
C1736 C 0.71083 0.77529 0.77684 0.0
C1737 C 0.69385 0.76731 0.76102 0.0
C1738 C 0.73121 0.77201 0.76687 0.0
C1739 C 0.73464 0.75982 0.74109 0.0
C1740 C 0.71748 0.75218 0.72458 0.0
C1741 C 0.69721 0.75632 0.73454 0.0
C1742 C 0.74909 0.78104 0.78446 0.0
C1743 C 0.72055 0.73869 0.69741 0.0
H1744 H 0.79633 0.77186 0.68947 0.0
H1745 H 0.79499 0.71995 0.74965 0.0
H1746 H 0.74257 0.78146 0.6863 0.0
H1747 H 0.75304 0.79717 0.71547 0.0
H1748 H 0.76765 0.7936 0.68157 0.0
H1749 H 0.76426 0.70913 0.77349 0.0
H1750 H 0.75073 0.73164 0.7875 0.0
H1751 H 0.74004 0.71739 0.75694 0.0
H1752 H 0.70814 0.78383 0.79731 0.0
H1753 H 0.68402 0.74992 0.72258 0.0
H1754 H 0.75986 0.78955 0.76947 0.0
H1755 H 0.75809 0.76831 0.79505 0.0
H1756 H 0.74371 0.79185 0.80217 0.0
H1757 H 0.73094 0.7465 0.68118 0.0
H1758 H 0.70561 0.73493 0.68619 0.0
H1759 H 0.72822 0.72392 0.70402 0.0
C1760 C 0.69877 0.25695 0.26529 0.0
C1761 C 0.69655 0.27002 0.24055 0.0
C1762 C 0.71857 0.25083 0.27513 0.0
C1763 C 0.73644 0.25851 0.26034 0.0
C1764 C 0.73423 0.27268 0.23641 0.0
C1765 C 0.71426 0.27799 0.22648 0.0
C1766 C 0.72033 0.23534 0.30027 0.0
C1767 C 0.75294 0.28174 0.22072 0.0
C1768 C 0.78909 0.25553 0.29799 0.0
C1769 C 0.79869 0.23944 0.282 0.0
C1770 C 0.7687 0.26174 0.29148 0.0
C1771 C 0.75748 0.25119 0.269 0.0
C1772 C 0.7668 0.23433 0.25364 0.0
C1773 C 0.78747 0.22885 0.26002 0.0
C1774 C 0.7595 0.28013 0.30777 0.0
C1775 C 0.75509 0.22237 0.23005 0.0
H1776 H 0.68502 0.25056 0.27588 0.0
H1777 H 0.71249 0.28814 0.20735 0.0
H1778 H 0.72729 0.22068 0.2918 0.0
H1779 H 0.73081 0.24135 0.3179 0.0
H1780 H 0.70498 0.23169 0.31039 0.0
H1781 H 0.74854 0.29395 0.20437 0.0
H1782 H 0.76385 0.2886 0.23716 0.0
H1783 H 0.76142 0.26924 0.20878 0.0
H1784 H 0.79783 0.26389 0.31483 0.0
H1785 H 0.79486 0.21633 0.24776 0.0
H1786 H 0.74438 0.27584 0.31797 0.0
H1787 H 0.75642 0.29291 0.29174 0.0
H1788 H 0.76997 0.28609 0.32551 0.0
H1789 H 0.73983 0.21713 0.23886 0.0
H1790 H 0.76388 0.20856 0.22212 0.0
H1791 H 0.75194 0.23264 0.21072 0.0
C1792 C 0.71079 0.26564 0.6974 0.0
C1793 C 0.70078 0.24879 0.71112 0.0
C1794 C 0.73136 0.27079 0.70459 0.0
C1795 C 0.74233 0.25842 0.72536 0.0
C1796 C 0.73251 0.24094 0.73852 0.0
C1797 C 0.71169 0.23652 0.73158 0.0
C1798 C 0.7411 0.28987 0.69076 0.0
C1799 C 0.74393 0.22708 0.76019 0.0
C1800 C 0.80126 0.26162 0.72793 0.0
C1801 C 0.80434 0.27292 0.75421 0.0
C1802 C 0.7811 0.25691 0.71802 0.0
C1803 C 0.76375 0.26426 0.73436 0.0
C1804 C 0.76686 0.27667 0.76002 0.0
C1805 C 0.78716 0.28055 0.76994 0.0
C1806 C 0.77838 0.24322 0.69098 0.0
C1807 C 0.74875 0.28538 0.77746 0.0
H1808 H 0.70228 0.27527 0.68176 0.0
H1809 H 0.70397 0.22343 0.74204 0.0
H1810 H 0.74507 0.30125 0.70845 0.0
H1811 H 0.7558 0.28569 0.67931 0.0
H1812 H 0.73061 0.29755 0.67446 0.0
H1813 H 0.73463 0.21322 0.76661 0.0
H1814 H 0.75884 0.22174 0.75031 0.0
H1815 H 0.74778 0.23595 0.78064 0.0
H1816 H 0.8146 0.25548 0.71603 0.0
H1817 H 0.78961 0.28933 0.79025 0.0
H1818 H 0.76808 0.25086 0.67447 0.0
H1819 H 0.77076 0.22843 0.69761 0.0
H1820 H 0.79344 0.2395 0.68006 0.0
H1821 H 0.73793 0.29374 0.76238 0.0
H1822 H 0.75386 0.29623 0.79527 0.0
H1823 H 0.73989 0.27248 0.7879 0.0
C1824 C 0.78466 0.78036 0.22553 0.0
C1825 C 0.80195 0.77223 0.24047 0.0
C1826 C 0.76442 0.77543 0.23471 0.0
C1827 C 0.76152 0.76142 0.25869 0.0
C1828 C 0.77897 0.75353 0.27427 0.0
C1829 C 0.79904 0.75933 0.26524 0.0
C1830 C 0.74618 0.78473 0.21823 0.0
C1831 C 0.77647 0.73816 0.29944 0.0
C1832 C 0.70846 0.75921 0.29523 0.0
C1833 C 0.69888 0.74308 0.27929 0.0
C1834 C 0.72891 0.76528 0.28889 0.0
C1835 C 0.74021 0.75453 0.26669 0.0
C1836 C 0.73085 0.73772 0.25126 0.0
C1837 C 0.71011 0.73241 0.25741 0.0
C1838 C 0.73814 0.78367 0.30515 0.0
C1839 C 0.74266 0.72553 0.22802 0.0
H1840 H 0.78699 0.79035 0.20637 0.0
H1841 H 0.81248 0.75279 0.27646 0.0
H1842 H 0.73771 0.77233 0.20605 0.0
H1843 H 0.73507 0.79183 0.23418 0.0
H1844 H 0.75109 0.7968 0.20197 0.0
H1845 H 0.79158 0.73414 0.31001 0.0
H1846 H 0.76593 0.7445 0.31674 0.0
H1847 H 0.76924 0.72367 0.29087 0.0
H1848 H 0.69969 0.76764 0.31195 0.0
H1849 H 0.7027 0.71989 0.2452 0.0
H1850 H 0.74187 0.79619 0.28899 0.0
H1851 H 0.75291 0.77917 0.31615 0.0
H1852 H 0.72742 0.79006 0.32227 0.0
H1853 H 0.7463 0.73572 0.20878 0.0
H1854 H 0.73372 0.71189 0.21983 0.0
H1855 H 0.75768 0.72 0.23729 0.0
C1856 C 0.46763 0.46053 0.0208 0.0
C1857 C 0.47574 0.44235 0.0082 0.0
C1858 C 0.47311 0.48012 0.00958 0.0
C1859 C 0.48766 0.48146 0.98599 0.0
C1860 C 0.49543 0.46309 0.97262 0.0
C1861 C 0.48907 0.44368 0.98362 0.0
C1862 C 0.46391 0.49936 0.02369 0.0
C1863 C 0.51138 0.46392 0.94796 0.0
C1864 C 0.4926 0.53277 0.94511 0.0
C1865 C 0.5085 0.54255 0.96127 0.0
C1866 C 0.48574 0.51278 0.95273 0.0
C1867 C 0.49551 0.50212 0.97645 0.0
C1868 C 0.51218 0.5116 0.99203 0.0
C1869 C 0.51824 0.53191 0.98458 0.0
C1870 C 0.46751 0.50345 0.93623 0.0
C1871 C 0.52337 0.50042 0.0169 0.0
H1872 H 0.45731 0.45942 0.03984 0.0
H1873 H 0.49558 0.42956 0.97422 0.0
H1874 H 0.4762 0.50797 0.0359 0.0
H1875 H 0.4577 0.50994 0.00629 0.0
H1876 H 0.45119 0.49558 0.03953 0.0
H1877 H 0.5149 0.44826 0.93878 0.0
H1878 H 0.50589 0.47405 0.92959 0.0
H1879 H 0.52601 0.4708 0.95662 0.0
H1880 H 0.48488 0.54112 0.92727 0.0
H1881 H 0.5306 0.53947 0.99696 0.0
H1882 H 0.45436 0.50108 0.95188 0.0
H1883 H 0.4717 0.48798 0.92711 0.0
H1884 H 0.46212 0.5135 0.91764 0.0
H1885 H 0.51262 0.49805 0.03591 0.0
H1886 H 0.53716 0.5092 0.02493 0.0
H1887 H 0.52852 0.48481 0.0093 0.0
C1888 C 0.00342 0.46307 0.44301 0.0
C1889 C 0.98689 0.45218 0.45608 0.0
C1890 C 0.00748 0.4838 0.45065 0.0
C1891 C 0.99426 0.49403 0.47112 0.0
C1892 C 0.97696 0.48337 0.48337 0.0
C1893 C 0.97369 0.46238 0.4761 0.0
C1894 C 0.02646 0.49442 0.43789 0.0
C1895 C 0.96218 0.49399 0.50462 0.0
C1896 C 0.01464 0.5385 0.51803 0.0
C1897 C 0.00732 0.5558 0.5023 0.0
C1898 C 0.01113 0.5183 0.50749 0.0
C1899 C -0.0007 0.51541 0.48121 0.0
C1900 C 0.99205 0.5329 0.46506 0.0
C1901 C 0.99649 0.55298 0.47557 0.0
C1902 C 0.01977 0.50007 0.52473 0.0
C1903 C 0.9789 0.53038 0.43744 0.0
H1904 H 0.01378 0.4551 0.42775 0.0
H1905 H 0.96084 0.45396 0.48606 0.0
H1906 H 0.02204 0.50927 0.42702 0.0
H1907 H 0.03745 0.49828 0.45613 0.0
H1908 H 0.03469 0.48455 0.42135 0.0
H1909 H 0.94837 0.48423 0.50972 0.0
H1910 H 0.97033 0.49754 0.52578 0.0
H1911 H 0.9568 0.50899 0.4951 0.0
H1912 H 0.02305 0.5408 0.5387 0.0
H1913 H 0.99059 0.56644 0.46372 0.0
H1914 H 0.0288 0.48975 0.50971 0.0
H1915 H 0.00683 0.49072 0.53409 0.0
H1916 H 0.03002 0.50507 0.54332 0.0
H1917 H 0.98716 0.52071 0.42075 0.0
H1918 H 0.9749 0.54556 0.4271 0.0
H1919 H 0.96427 0.52214 0.44318 0.0
C1920 C 5e-05 0.44417 0.02558 0.0
C1921 C 0.0148 0.44297 0.00269 0.0
C1922 C 0.99284 0.46353 0.03569 0.0
C1923 C 0.00113 0.48198 0.02317 0.0
C1924 C 0.01695 0.48076 0.0013 0.0
C1925 C 0.02333 0.46123 0.99093 0.0
C1926 C 0.9756 0.46424 0.05849 0.0
C1927 C 0.02669 0.50008 0.98817 0.0
C1928 C 0.97127 0.53279 0.0205 0.0
C1929 C 0.98027 0.54368 0.0442 0.0
C1930 C 0.9771 0.51218 0.01444 0.0
C1931 C 0.99277 0.50261 0.0319 0.0
C1932 C 0.00152 0.51339 0.05631 0.0
C1933 C 0.99493 0.53372 0.06242 0.0
C1934 C 0.96699 0.5009 0.98874 0.0
C1935 C 0.01867 0.50394 0.07492 0.0
H1936 H 0.99325 0.42999 0.0343 0.0
H1937 H 0.03475 0.46021 0.97322 0.0
H1938 H 0.97998 0.47445 0.07738 0.0
H1939 H 0.96141 0.47098 0.04821 0.0
H1940 H 0.97174 0.44856 0.06731 0.0
H1941 H 0.04012 0.4964 0.97352 0.0
H1942 H 0.01494 0.50868 0.9749 0.0
H1943 H 0.03205 0.51062 0.00618 0.0
H1944 H 0.95986 0.54046 0.0065 0.0
H1945 H 0.00208 0.5422 0.08061 0.0
H1946 H 0.96163 0.48527 0.99591 0.0
H1947 H 0.97852 0.49859 0.97066 0.0
H1948 H 0.95351 0.50961 0.97956 0.0
H1949 H 0.01402 0.48835 0.08314 0.0
H1950 H 0.02282 0.51383 0.09432 0.0
H1951 H 0.03276 0.5018 0.06096 0.0
C1952 C 0.51411 0.4589 0.50902 0.0
C1953 C 0.50061 0.44847 0.52837 0.0
C1954 C 0.51095 0.47997 0.50216 0.0
C1955 C 0.4935 0.49052 0.51418 0.0
C1956 C 0.47985 0.48 0.53375 0.0
C1957 C 0.48377 0.45916 0.54097 0.0
C1958 C 0.52616 0.49089 0.48185 0.0
C1959 C 0.46074 0.49053 0.54626 0.0
C1960 C 0.49278 0.54957 0.51276 0.0
C1961 C 0.48257 0.55336 0.48577 0.0
C1962 C 0.49641 0.52913 0.52246 0.0
C1963 C 0.48901 0.51226 0.50515 0.0
C1964 C 0.47775 0.51612 0.47863 0.0
C1965 C 0.47501 0.53666 0.46897 0.0
C1966 C 0.50894 0.52558 0.55043 0.0
C1967 C 0.46899 0.49856 0.46013 0.0
H1968 H 0.52721 0.45064 0.49946 0.0
H1969 H 0.47321 0.45101 0.55575 0.0
H1970 H 0.51829 0.49531 0.46081 0.0
H1971 H 0.5318 0.50544 0.49245 0.0
H1972 H 0.5398 0.48098 0.47635 0.0
H1973 H 0.45191 0.48025 0.56163 0.0
H1974 H 0.46517 0.50487 0.55842 0.0
H1975 H 0.4503 0.49526 0.52778 0.0
H1976 H 0.49886 0.56256 0.52549 0.0
H1977 H 0.46707 0.53968 0.44811 0.0
H1978 H 0.52354 0.51722 0.5448 0.0
H1979 H 0.50018 0.51563 0.56621 0.0
H1980 H 0.51303 0.54038 0.5618 0.0
H1981 H 0.48187 0.48919 0.45064 0.0
H1982 H 0.45913 0.50429 0.44154 0.0
H1983 H 0.45953 0.48803 0.47428 0.0
C1984 C 0.04486 0.34702 0.09079 0.0
C1985 C 0.03787 0.33395 0.06788 0.0
C1986 C 0.05406 0.33874 0.1166 0.0
C1987 C 0.05643 0.31691 0.11941 0.0
C1988 C 0.04923 0.30366 0.09647 0.0
C1989 C 0.03998 0.31232 0.07109 0.0
C1990 C 0.06135 0.35334 0.14078 0.0
C1991 C 0.05152 0.28031 0.09859 0.0
C1992 C 0.09666 0.29511 0.17319 0.0
C1993 C 0.08415 0.28919 0.19731 0.0
C1994 C 0.08788 0.30431 0.14772 0.0
C1995 C 0.06612 0.30779 0.14652 0.0
C1996 C 0.05346 0.30193 0.17086 0.0
C1997 C 0.06261 0.29263 0.19587 0.0
C1998 C 0.10184 0.31018 0.12204 0.0
C1999 C 0.03022 0.30547 0.1705 0.0
H2000 H 0.04334 0.36374 0.08844 0.0
H2001 H 0.03471 0.30208 0.05346 0.0
H2002 H 0.05353 0.34947 0.1621 0.0
H2003 H 0.07832 0.35142 0.14435 0.0
H2004 H 0.05815 0.36989 0.13535 0.0
H2005 H 0.04526 0.27219 0.07868 0.0
H2006 H 0.06817 0.27613 0.10115 0.0
H2007 H 0.04324 0.27444 0.11857 0.0
H2008 H 0.11332 0.29255 0.17419 0.0
H2009 H 0.05282 0.28823 0.21449 0.0
H2010 H 0.10031 0.32704 0.11719 0.0
H2011 H 0.09701 0.30165 0.1017 0.0
H2012 H 0.11846 0.30666 0.12659 0.0
H2013 H 0.02682 0.32219 0.16672 0.0
H2014 H 0.02265 0.30057 0.1916 0.0
H2015 H 0.02308 0.29668 0.15187 0.0
C2016 C 0.92906 0.79366 0.32204 0.0
C2017 C 0.90765 0.79301 0.31598 0.0
C2018 C 0.93669 0.80285 0.34813 0.0
C2019 C 0.92257 0.81153 0.36887 0.0
C2020 C 0.90091 0.81079 0.36308 0.0
C2021 C 0.89369 0.80158 0.33662 0.0
C2022 C 0.9599 0.80332 0.35345 0.0
C2023 C 0.8854 0.81972 0.38484 0.0
C2024 C 0.9437 0.81621 0.44733 0.0
C2025 C 0.94982 0.83716 0.44842 0.0
C2026 C 0.93409 0.80789 0.42198 0.0
C2027 C 0.93064 0.82078 0.39694 0.0
C2028 C 0.93633 0.84207 0.39809 0.0
C2029 C 0.94579 0.85005 0.42392 0.0
C2030 C 0.92814 0.78515 0.42172 0.0
C2031 C 0.93301 0.85625 0.37173 0.0
H2032 H 0.93999 0.78716 0.30619 0.0
H2033 H 0.87714 0.80119 0.33204 0.0
H2034 H 0.96521 0.81962 0.35647 0.0
H2035 H 0.96371 0.79476 0.37419 0.0
H2036 H 0.9688 0.79628 0.33479 0.0
H2037 H 0.8691 0.81799 0.37701 0.0
H2038 H 0.88696 0.81184 0.40671 0.0
H2039 H 0.88863 0.83648 0.38849 0.0
H2040 H 0.94657 0.80617 0.46628 0.0
H2041 H 0.95043 0.86625 0.42465 0.0
H2042 H 0.93765 0.77674 0.40499 0.0
H2043 H 0.91159 0.78334 0.41518 0.0
H2044 H 0.93048 0.77763 0.44374 0.0
H2045 H 0.94273 0.85093 0.35279 0.0
H2046 H 0.93706 0.87267 0.37682 0.0
H2047 H 0.91654 0.8556 0.36436 0.0
C2048 C 0.39937 0.70296 0.66504 0.0
C2049 C 0.41275 0.71035 0.68733 0.0
C2050 C 0.40733 0.69348 0.63922 0.0
C2051 C 0.42913 0.69121 0.63581 0.0
C2052 C 0.44266 0.69852 0.65834 0.0
C2053 C 0.43432 0.70808 0.68371 0.0
C2054 C 0.39245 0.68607 0.61548 0.0
C2055 C 0.46599 0.6963 0.65562 0.0
C2056 C 0.45121 0.652 0.58069 0.0
C2057 C 0.45695 0.66497 0.55696 0.0
C2058 C 0.44185 0.66027 0.6064 0.0
C2059 C 0.43798 0.68194 0.60822 0.0
C2060 C 0.44348 0.69502 0.58415 0.0
C2061 C 0.45298 0.6864 0.55893 0.0
C2062 C 0.43638 0.64588 0.63179 0.0
C2063 C 0.4395 0.71818 0.58513 0.0
H2064 H 0.3827 0.70462 0.66773 0.0
H2065 H 0.44478 0.7136 0.7009 0.0
H2066 H 0.39562 0.69433 0.59427 0.0
H2067 H 0.39479 0.66922 0.61128 0.0
H2068 H 0.37593 0.68869 0.62171 0.0
H2069 H 0.47432 0.70216 0.67561 0.0
H2070 H 0.47018 0.67972 0.65224 0.0
H2071 H 0.47161 0.70503 0.63589 0.0
H2072 H 0.45419 0.63543 0.57928 0.0
H2073 H 0.4572 0.69652 0.54059 0.0
H2074 H 0.41961 0.6473 0.63726 0.0
H2075 H 0.44525 0.65039 0.65198 0.0
H2076 H 0.43986 0.62935 0.62656 0.0
H2077 H 0.42281 0.72123 0.58968 0.0
H2078 H 0.44383 0.72604 0.56399 0.0
H2079 H 0.44855 0.7253 0.60353 0.0
C2080 C 0.59935 0.19904 0.82448 0.0
C2081 C 0.58677 0.20292 0.79959 0.0
C2082 C 0.59105 0.18972 0.85019 0.0
C2083 C 0.56974 0.18404 0.85086 0.0
C2084 C 0.55716 0.18737 0.82547 0.0
C2085 C 0.5658 0.19683 0.80023 0.0
C2086 C 0.60491 0.18648 0.87693 0.0
C2087 C 0.53442 0.18144 0.82522 0.0
C2088 C 0.55009 0.14709 0.91087 0.0
C2089 C 0.54138 0.16105 0.9314 0.0
C2090 C 0.55946 0.15431 0.88453 0.0
C2091 C 0.56018 0.17597 0.87873 0.0
C2092 C 0.5513 0.19008 0.8993 0.0
C2093 C 0.54197 0.18245 0.92529 0.0
C2094 C 0.56861 0.13881 0.86295 0.0
C2095 C 0.55174 0.21328 0.89393 0.0
H2096 H 0.61557 0.20365 0.8241 0.0
H2097 H 0.556 0.19959 0.78099 0.0
H2098 H 0.5993 0.19619 0.89572 0.0
H2099 H 0.60424 0.17002 0.88429 0.0
H2100 H 0.62137 0.19061 0.87226 0.0
H2101 H 0.52714 0.18379 0.80304 0.0
H2102 H 0.53253 0.16489 0.83171 0.0
H2103 H 0.52583 0.19094 0.84178 0.0
H2104 H 0.54975 0.13054 0.91548 0.0
H2105 H 0.53535 0.19337 0.94105 0.0
H2106 H 0.58543 0.14201 0.85975 0.0
H2107 H 0.56102 0.14041 0.84088 0.0
H2108 H 0.56675 0.1225 0.8707 0.0
H2109 H 0.56805 0.21865 0.89135 0.0
H2110 H 0.54441 0.22218 0.91237 0.0
H2111 H 0.54344 0.21704 0.87295 0.0
C2112 C 0.04518 0.65321 0.41248 0.0
C2113 C 0.0401 0.66639 0.43627 0.0
C2114 C 0.0549 0.66105 0.38677 0.0
C2115 C 0.05977 0.68252 0.38498 0.0
C2116 C 0.05493 0.69581 0.40911 0.0
C2117 C 0.04509 0.68761 0.43437 0.0
C2118 C 0.05968 0.64644 0.36136 0.0
C2119 C 0.05996 0.71876 0.40815 0.0
C2120 C 0.0992 0.70131 0.32769 0.0
C2121 C 0.08614 0.70901 0.30523 0.0
C2122 C 0.09086 0.69256 0.3538 0.0
C2123 C 0.06899 0.69137 0.35735 0.0
C2124 C 0.05577 0.69915 0.33475 0.0
C2125 C 0.0645 0.70794 0.30908 0.0
C2126 C 0.10543 0.6846 0.37757 0.0
C2127 C 0.03237 0.69812 0.33764 0.0
H2128 H 0.04142 0.6368 0.41383 0.0
H2129 H 0.04138 0.69789 0.45274 0.0
H2130 H 0.05099 0.65135 0.3412 0.0
H2131 H 0.07649 0.64712 0.35583 0.0
H2132 H 0.05548 0.63008 0.36658 0.0
H2133 H 0.05602 0.7268 0.4293 0.0
H2134 H 0.07677 0.72106 0.40355 0.0
H2135 H 0.05121 0.7263 0.38978 0.0
H2136 H 0.11593 0.70204 0.32484 0.0
H2137 H 0.05427 0.71374 0.29178 0.0
H2138 H 0.10247 0.66785 0.38171 0.0
H2139 H 0.10252 0.69294 0.3988 0.0
H2140 H 0.12205 0.68663 0.3714 0.0
H2141 H 0.02736 0.68176 0.3409 0.0
H2142 H 0.02427 0.70448 0.31777 0.0
H2143 H 0.02727 0.70702 0.3575 0.0
C2144 C 0.5642 0.7905 0.68524 0.0
C2145 C 0.58573 0.78836 0.68949 0.0
C2146 C 0.55616 0.79993 0.65958 0.0
C2147 C 0.56995 0.80727 0.6374 0.0
C2148 C 0.59171 0.80516 0.64146 0.0
C2149 C 0.59937 0.7958 0.66756 0.0
C2150 C 0.53285 0.80196 0.65617 0.0
C2151 C 0.60687 0.81262 0.61812 0.0
C2152 C 0.54689 0.81157 0.55997 0.0
C2153 C 0.54262 0.83294 0.55784 0.0
C2154 C 0.55631 0.80315 0.58539 0.0
C2155 C 0.56141 0.81636 0.6095 0.0
C2156 C 0.55732 0.83798 0.60745 0.0
C2157 C 0.54805 0.84605 0.58155 0.0
C2158 C 0.56054 0.78004 0.58661 0.0
C2159 C 0.56239 0.85251 0.63285 0.0
H2160 H 0.55354 0.78494 0.70215 0.0
H2161 H 0.61601 0.79424 0.67072 0.0
H2162 H 0.52858 0.81849 0.65252 0.0
H2163 H 0.52758 0.7931 0.63635 0.0
H2164 H 0.52429 0.79612 0.67596 0.0
H2165 H 0.62332 0.81019 0.62488 0.0
H2166 H 0.6041 0.80423 0.59689 0.0
H2167 H 0.60443 0.82942 0.61368 0.0
H2168 H 0.54292 0.80134 0.54164 0.0
H2169 H 0.54484 0.86257 0.58001 0.0
H2170 H 0.55126 0.77286 0.60473 0.0
H2171 H 0.57718 0.77717 0.59172 0.0
H2172 H 0.55663 0.77209 0.56537 0.0
H2173 H 0.55322 0.84808 0.6528 0.0
H2174 H 0.55895 0.86901 0.62734 0.0
H2175 H 0.57907 0.85116 0.63887 0.0
C2176 C 0.43311 0.30232 0.80886 0.0
C2177 C 0.41215 0.29634 0.80697 0.0
C2178 C 0.44111 0.31157 0.83471 0.0
C2179 C 0.42787 0.31484 0.85942 0.0
C2180 C 0.40658 0.30925 0.8575 0.0
C2181 C 0.39894 0.30011 0.83123 0.0
C2182 C 0.46387 0.31738 0.8358 0.0
C2183 C 0.392 0.31244 0.88346 0.0
C2184 C 0.45393 0.31628 0.93517 0.0
C2185 C 0.45464 0.33769 0.94122 0.0
C2186 C 0.44502 0.30869 0.90884 0.0
C2187 C 0.4367 0.32284 0.88785 0.0
C2188 C 0.43743 0.34449 0.89369 0.0
C2189 C 0.44636 0.35167 0.92036 0.0
C2190 C 0.44455 0.28548 0.90347 0.0
C2191 C 0.42882 0.36004 0.87172 0.0
H2192 H 0.44341 0.29963 0.79015 0.0
H2193 H 0.38272 0.29558 0.8299 0.0
H2194 H 0.46565 0.33392 0.84238 0.0
H2195 H 0.47192 0.30784 0.85286 0.0
H2196 H 0.47178 0.31499 0.81407 0.0
H2197 H 0.37567 0.30837 0.87785 0.0
H2198 H 0.39707 0.30266 0.90249 0.0
H2199 H 0.39252 0.32888 0.89095 0.0
H2200 H 0.46019 0.30533 0.95119 0.0
H2201 H 0.4468 0.36823 0.92491 0.0
H2202 H 0.45343 0.28166 0.883 0.0
H2203 H 0.4283 0.28024 0.8999 0.0
H2204 H 0.45127 0.27654 0.92233 0.0
H2205 H 0.4371 0.35859 0.85014 0.0
H2206 H 0.43036 0.37633 0.87972 0.0
H2207 H 0.41214 0.35677 0.86744 0.0
C2208 C 0.93049 0.19139 0.18372 0.0
C2209 C 0.90935 0.19622 0.18736 0.0
C2210 C 0.93776 0.18171 0.15778 0.0
C2211 C 0.92357 0.1768 0.13475 0.0
C2212 C 0.90213 0.18128 0.13844 0.0
C2213 C 0.89525 0.19091 0.16478 0.0
C2214 C 0.96073 0.17716 0.15476 0.0
C2215 C 0.88657 0.17635 0.11427 0.0
C2216 C 0.94675 0.17426 0.05727 0.0
C2217 C 0.94893 0.15276 0.05282 0.0
C2218 C 0.9381 0.1822 0.08354 0.0
C2219 C 0.93151 0.16833 0.10609 0.0
C2220 C 0.93348 0.14658 0.10173 0.0
C2221 C 0.94214 0.13903 0.07506 0.0
C2222 C 0.93626 0.2055 0.08729 0.0
C2223 C 0.92671 0.13134 0.12538 0.0
H2224 H 0.94149 0.19528 0.20114 0.0
H2225 H 0.87889 0.19453 0.16749 0.0
H2226 H 0.96318 0.16051 0.14922 0.0
H2227 H 0.96734 0.18647 0.13624 0.0
H2228 H 0.96951 0.18082 0.17541 0.0
H2229 H 0.87033 0.1797 0.12126 0.0
H2230 H 0.89012 0.1857 0.09413 0.0
H2231 H 0.88771 0.15972 0.10787 0.0
H2232 H 0.95183 0.18501 0.04015 0.0
H2233 H 0.94371 0.1224 0.07174 0.0
H2234 H 0.94591 0.21066 0.1064 0.0
H2235 H 0.91992 0.20981 0.0923 0.0
H2236 H 0.94134 0.21413 0.06713 0.0
H2237 H 0.93603 0.13376 0.14588 0.0
H2238 H 0.92855 0.11492 0.11812 0.0
H2239 H 0.91018 0.13404 0.13131 0.0
C2240 C 0.94906 0.67842 0.93832 0.0
C2241 C 0.9507 0.65685 0.94254 0.0
C2242 C 0.94022 0.68671 0.9124 0.0
C2243 C 0.93291 0.67311 0.88995 0.0
C2244 C 0.93443 0.6513 0.89402 0.0
C2245 C 0.94328 0.6434 0.92035 0.0
C2246 C 0.93887 0.71006 0.90894 0.0
C2247 C 0.92691 0.63635 0.87045 0.0
C2248 C 0.89589 0.69673 0.8331 0.0
C2249 C 0.90961 0.70189 0.80997 0.0
C2250 C 0.90314 0.68683 0.85903 0.0
C2251 C 0.92455 0.68191 0.86174 0.0
C2252 C 0.93834 0.68666 0.83816 0.0
C2253 C 0.93072 0.69663 0.81265 0.0
C2254 C 0.888 0.6821 0.88381 0.0
C2255 C 0.96126 0.68163 0.84012 0.0
H2256 H 0.95464 0.68895 0.9554 0.0
H2257 H 0.94444 0.62672 0.9235 0.0
H2258 H 0.9482 0.71508 0.88944 0.0
H2259 H 0.92253 0.71478 0.90473 0.0
H2260 H 0.94461 0.71846 0.92893 0.0
H2261 H 0.92866 0.61984 0.87737 0.0
H2262 H 0.91029 0.63934 0.86534 0.0
H2263 H 0.93579 0.63879 0.84956 0.0
H2264 H 0.87956 0.70069 0.83114 0.0
H2265 H 0.94142 0.7004 0.79479 0.0
H2266 H 0.89218 0.69124 0.90389 0.0
H2267 H 0.88892 0.66541 0.88997 0.0
H2268 H 0.87169 0.68583 0.87759 0.0
H2269 H 0.96847 0.69071 0.85843 0.0
H2270 H 0.96967 0.68521 0.81913 0.0
H2271 H 0.96349 0.66491 0.8454 0.0
C2272 C 0.06435 0.2118 0.69563 0.0
C2273 C 0.08606 0.21338 0.69814 0.0
C2274 C 0.05508 0.20258 0.67067 0.0
C2275 C 0.06779 0.19494 0.64741 0.0
C2276 C 0.08972 0.19667 0.64959 0.0
C2277 C 0.09862 0.20578 0.67505 0.0
C2278 C 0.03164 0.20091 0.66928 0.0
C2279 C 0.10375 0.18894 0.62502 0.0
C2280 C 0.04408 0.15571 0.59376 0.0
C2281 C 0.03818 0.16856 0.57 0.0
C2282 C 0.05386 0.16405 0.6191 0.0
C2283 C 0.058 0.18568 0.62048 0.0
C2284 C 0.05216 0.19868 0.59649 0.0
C2285 C 0.04223 0.18999 0.57166 0.0
C2286 C 0.05964 0.14975 0.64445 0.0
C2287 C 0.05643 0.2218 0.59702 0.0
H2288 H 0.05451 0.21749 0.71346 0.0
H2289 H 0.1154 0.20692 0.67688 0.0
H2290 H 0.02569 0.20956 0.64968 0.0
H2291 H 0.02699 0.1844 0.66649 0.0
H2292 H 0.024 0.20716 0.68958 0.0
H2293 H 0.12048 0.19145 0.63011 0.0
H2294 H 0.10113 0.17208 0.62128 0.0
H2295 H 0.09997 0.19705 0.60389 0.0
H2296 H 0.04105 0.13914 0.59259 0.0
H2297 H 0.03787 0.20004 0.5533 0.0
H2298 H 0.05157 0.15475 0.66509 0.0
H2299 H 0.0766 0.15069 0.6488 0.0
H2300 H 0.0555 0.13329 0.63983 0.0
H2301 H 0.0481 0.2291 0.61596 0.0
H2302 H 0.05149 0.22964 0.57614 0.0
H2303 H 0.07329 0.22465 0.60039 0.0
C2304 C 0.54774 0.34621 0.41765 0.0
C2305 C 0.54315 0.33351 0.44216 0.0
C2306 C 0.55765 0.33801 0.39232 0.0
C2307 C 0.56321 0.31667 0.39165 0.0
C2308 C 0.55905 0.30393 0.41662 0.0
C2309 C 0.54901 0.31248 0.44148 0.0
C2310 C 0.56173 0.35205 0.36602 0.0
C2311 C 0.56482 0.28115 0.41686 0.0
C2312 C 0.5672 0.28962 0.31684 0.0
C2313 C 0.58878 0.28912 0.31209 0.0
C2314 C 0.55874 0.29865 0.34252 0.0
C2315 C 0.57217 0.3073 0.36419 0.0
C2316 C 0.59399 0.30661 0.35981 0.0
C2317 C 0.60205 0.29757 0.33373 0.0
C2318 C 0.53538 0.29908 0.34634 0.0
C2319 C 0.60878 0.31551 0.3826 0.0
H2320 H 0.54332 0.36248 0.41807 0.0
H2321 H 0.54569 0.30257 0.46043 0.0
H2322 H 0.57843 0.35148 0.35983 0.0
H2323 H 0.55272 0.34652 0.34649 0.0
H2324 H 0.55738 0.36847 0.37058 0.0
H2325 H 0.56164 0.27367 0.43869 0.0
H2326 H 0.55588 0.27278 0.39945 0.0
H2327 H 0.58157 0.27922 0.41156 0.0
H2328 H 0.5568 0.28321 0.30021 0.0
H2329 H 0.61873 0.29729 0.33018 0.0
H2330 H 0.52995 0.31538 0.34879 0.0
H2331 H 0.53094 0.29065 0.36693 0.0
H2332 H 0.5271 0.29189 0.32722 0.0
H2333 H 0.60558 0.33232 0.38581 0.0
H2334 H 0.62533 0.3136 0.37599 0.0
H2335 H 0.60637 0.30777 0.40441 0.0
C2336 C 0.44732 0.81876 0.06135 0.0
C2337 C 0.45053 0.84025 0.05812 0.0
C2338 C 0.4383 0.81052 0.08719 0.0
C2339 C 0.4324 0.82406 0.11053 0.0
C2340 C 0.43547 0.84579 0.10743 0.0
C2341 C 0.44448 0.85365 0.0812 0.0
C2342 C 0.4353 0.78727 0.08962 0.0
C2343 C 0.42944 0.86068 0.13194 0.0
C2344 C 0.39472 0.80246 0.16818 0.0
C2345 C 0.40838 0.79618 0.19081 0.0
C2346 C 0.40225 0.81194 0.1421 0.0
C2347 C 0.42392 0.81525 0.13867 0.0
C2348 C 0.43772 0.80916 0.1616 0.0
C2349 C 0.4298 0.79968 0.18731 0.0
C2350 C 0.38708 0.81815 0.11803 0.0
C2351 C 0.46093 0.81241 0.15883 0.0
H2352 H 0.45184 0.80828 0.04359 0.0
H2353 H 0.44685 0.87026 0.07882 0.0
H2354 H 0.44458 0.78111 0.10849 0.0
H2355 H 0.41874 0.78365 0.09426 0.0
H2356 H 0.44005 0.77895 0.06902 0.0
H2357 H 0.43222 0.87717 0.12569 0.0
H2358 H 0.41275 0.85873 0.13757 0.0
H2359 H 0.4385 0.85715 0.15235 0.0
H2360 H 0.37815 0.79988 0.17077 0.0
H2361 H 0.44049 0.79499 0.20473 0.0
H2362 H 0.39042 0.80928 0.09738 0.0
H2363 H 0.38891 0.8349 0.11267 0.0
H2364 H 0.37066 0.81525 0.12458 0.0
H2365 H 0.467 0.80334 0.1397 0.0
H2366 H 0.46946 0.80758 0.1792 0.0
H2367 H 0.46435 0.82904 0.15439 0.0
C2368 C 0.94672 0.35137 0.57193 0.0
C2369 C 0.95195 0.33823 0.54818 0.0
C2370 C 0.93758 0.34336 0.59797 0.0
C2371 C 0.93342 0.32175 0.60009 0.0
C2372 C 0.93814 0.30854 0.57583 0.0
C2373 C 0.94743 0.31691 0.55027 0.0
C2374 C 0.9329 0.35789 0.6235 0.0
C2375 C 0.93382 0.28545 0.57711 0.0
C2376 C 0.93221 0.29598 0.67598 0.0
C2377 C 0.91079 0.29389 0.68118 0.0
C2378 C 0.93971 0.30533 0.64993 0.0
C2379 C 0.92545 0.31264 0.62832 0.0
C2380 C 0.90379 0.31053 0.63331 0.0
C2381 C 0.89669 0.30124 0.65979 0.0
C2382 C 0.96293 0.30735 0.64551 0.0
C2383 C 0.88814 0.31795 0.61061 0.0
H2384 H 0.95013 0.36786 0.57042 0.0
H2385 H 0.95122 0.30666 0.5319 0.0
H2386 H 0.91638 0.35636 0.63031 0.0
H2387 H 0.94257 0.35363 0.64303 0.0
H2388 H 0.93602 0.37442 0.61776 0.0
H2389 H 0.93715 0.27756 0.55563 0.0
H2390 H 0.94353 0.27818 0.59469 0.0
H2391 H 0.91731 0.28263 0.58308 0.0
H2392 H 0.94323 0.29048 0.69246 0.0
H2393 H 0.88012 0.29972 0.6637 0.0
H2394 H 0.96713 0.32388 0.64175 0.0
H2395 H 0.96777 0.29853 0.62544 0.0
H2396 H 0.97191 0.30147 0.66489 0.0
H2397 H 0.89044 0.33477 0.60613 0.0
H2398 H 0.87184 0.31546 0.61804 0.0
H2399 H 0.89053 0.30961 0.58926 0.0
C2400 C 0.39468 0.19237 0.33367 0.0
C2401 C 0.40836 0.19952 0.31159 0.0
C2402 C 0.40229 0.18352 0.36018 0.0
C2403 C 0.42405 0.18174 0.36457 0.0
C2404 C 0.43788 0.18877 0.34224 0.0
C2405 C 0.42988 0.1976 0.31612 0.0
C2406 C 0.38708 0.17629 0.3836 0.0
C2407 C 0.46119 0.18715 0.34604 0.0
C2408 C 0.44725 0.17973 0.4421 0.0
C2409 C 0.45242 0.1586 0.44496 0.0
C2410 C 0.43735 0.18729 0.41649 0.0
C2411 C 0.43257 0.17343 0.393 0.0
C2412 C 0.43731 0.15199 0.39597 0.0
C2413 C 0.44715 0.14481 0.42198 0.0
C2414 C 0.43252 0.21024 0.41425 0.0
C2415 C 0.43249 0.13676 0.37133 0.0
H2416 H 0.37804 0.19374 0.33029 0.0
H2417 H 0.4406 0.20297 0.29914 0.0
H2418 H 0.38987 0.15967 0.38895 0.0
H2419 H 0.38945 0.18527 0.40442 0.0
H2420 H 0.37065 0.17816 0.3764 0.0
H2421 H 0.4698 0.19269 0.32611 0.0
H2422 H 0.4662 0.19651 0.36552 0.0
H2423 H 0.46568 0.17078 0.35046 0.0
H2424 H 0.4511 0.19049 0.45984 0.0
H2425 H 0.45103 0.12846 0.42409 0.0
H2426 H 0.41587 0.21259 0.40867 0.0
H2427 H 0.44182 0.21729 0.39605 0.0
H2428 H 0.436 0.2187 0.43524 0.0
H2429 H 0.41587 0.13791 0.36487 0.0
H2430 H 0.4359 0.12043 0.37785 0.0
H2431 H 0.44187 0.14064 0.35135 0.0
C2432 C 0.55045 0.64375 0.07837 0.0
C2433 C 0.54431 0.6567 0.05484 0.0
C2434 C 0.55924 0.65213 0.10443 0.0
C2435 C 0.56198 0.67394 0.10689 0.0
C2436 C 0.55595 0.68704 0.0831 0.0
C2437 C 0.54717 0.67828 0.05745 0.0
C2438 C 0.5654 0.6377 0.12943 0.0
C2439 C 0.5586 0.71037 0.08483 0.0
C2440 C 0.56423 0.6995 0.18291 0.0
C2441 C 0.5856 0.70329 0.18632 0.0
C2442 C 0.55643 0.68955 0.15748 0.0
C2443 C 0.57032 0.68329 0.13475 0.0
C2444 C 0.59194 0.68692 0.13808 0.0
C2445 C 0.59935 0.69686 0.16389 0.0
C2446 C 0.53327 0.68598 0.15479 0.0
C2447 C 0.6072 0.68055 0.11422 0.0
H2448 H 0.54836 0.62707 0.07647 0.0
H2449 H 0.54257 0.68843 0.03933 0.0
H2450 H 0.58207 0.63991 0.135 0.0
H2451 H 0.5563 0.64146 0.14971 0.0
H2452 H 0.56279 0.62108 0.12373 0.0
H2453 H 0.55374 0.71831 0.06399 0.0
H2454 H 0.54924 0.71666 0.10352 0.0
H2455 H 0.57511 0.7143 0.08936 0.0
H2456 H 0.55348 0.7043 0.20019 0.0
H2457 H 0.61588 0.69966 0.16642 0.0
H2458 H 0.53006 0.66924 0.15089 0.0
H2459 H 0.5271 0.69466 0.13535 0.0
H2460 H 0.52467 0.69103 0.17498 0.0
H2461 H 0.60561 0.66369 0.10942 0.0
H2462 H 0.62357 0.68379 0.12065 0.0
H2463 H 0.60373 0.68902 0.09328 0.0
C2464 C 0.09589 0.79613 0.82619 0.0
C2465 C 0.08327 0.79131 0.80169 0.0
C2466 C 0.08747 0.80568 0.85166 0.0
C2467 C 0.06598 0.81063 0.85248 0.0
C2468 C 0.05329 0.80615 0.82757 0.0
C2469 C 0.06206 0.79648 0.80257 0.0
C2470 C 0.10146 0.81011 0.8779 0.0
C2471 C 0.03035 0.81129 0.82749 0.0
C2472 C 0.0392 0.81429 0.92755 0.0
C2473 C 0.03829 0.83587 0.93216 0.0
C2474 C 0.04825 0.80593 0.9018 0.0
C2475 C 0.05649 0.81946 0.87993 0.0
C2476 C 0.05533 0.84128 0.88415 0.0
C2477 C 0.04629 0.84924 0.91029 0.0
C2478 C 0.04919 0.78258 0.89816 0.0
C2479 C 0.06377 0.85618 0.86115 0.0
H2480 H 0.11229 0.79223 0.82564 0.0
H2481 H 0.0522 0.79297 0.78364 0.0
H2482 H 0.10059 0.82682 0.88395 0.0
H2483 H 0.09612 0.80108 0.89752 0.0
H2484 H 0.11795 0.80604 0.87333 0.0
H2485 H 0.02286 0.80777 0.80578 0.0
H2486 H 0.02231 0.80223 0.8451 0.0
H2487 H 0.02799 0.82801 0.8326 0.0
H2488 H 0.03314 0.80382 0.94435 0.0
H2489 H 0.04569 0.86592 0.91372 0.0
H2490 H 0.0656 0.7775 0.89568 0.0
H2491 H 0.04082 0.77787 0.87763 0.0
H2492 H 0.04222 0.77421 0.91736 0.0
H2493 H 0.08065 0.8534 0.85787 0.0
H2494 H 0.06146 0.87271 0.86761 0.0
H2495 H 0.05604 0.85346 0.83942 0.0
loop_
_geom_bond_atom_site_label_1
_geom_bond_atom_site_label_2
_geom_bond_distance
_geom_bond_site_symmetry_2
_ccdc_geom_bond_type
O0 Cd1 2.223 . S
O0 C8 1.315 . S
Cd1 O0 2.223 . S
Cd1 O4 2.297 . S
Cd1 O5 2.439 . S
Cd1 O11 2.240 . S
Cd2 O3 2.240 . S
Cd2 O10 2.223 . S
Cd2 O12 2.297 . S
Cd2 O13 2.439 . S
O3 Cd2 2.240 . S
O3 C8 1.279 . S
O4 Cd1 2.297 . S
O4 C6 1.247 . S
O5 Cd1 2.439 . S
O5 C6 1.208 . S
C6 O4 1.247 . S
C6 O5 1.208 . S
C7 O12 1.247 . S
C7 O13 1.208 . S
C8 O0 1.315 . S
C8 O3 1.279 . S
C9 O10 1.315 . S
C9 O11 1.279 . S
O10 Cd2 2.223 . S
O10 C9 1.315 . S
O11 Cd1 2.240 . S
O11 C9 1.279 . S
O12 Cd2 2.297 . S
O12 C7 1.247 . S
O13 Cd2 2.439 . S
O13 C7 1.208 . S
O14 Cd15 2.223 . S
O14 C22 1.315 . S
Cd15 O14 2.223 . S
Cd15 O18 2.297 . S
Cd15 O19 2.439 . S
Cd15 O25 2.240 . S
Cd16 O17 2.240 . S
Cd16 O24 2.223 . S
Cd16 O26 2.297 . S
Cd16 O27 2.439 . S
O17 Cd16 2.240 . S
O17 C22 1.279 . S
O18 Cd15 2.297 . S
O18 C20 1.247 . S
O19 Cd15 2.439 . S
O19 C20 1.208 . S
C20 O18 1.247 . S
C20 O19 1.208 . S
C21 O26 1.247 . S
C21 O27 1.208 . S
C22 O14 1.315 . S
C22 O17 1.279 . S
C23 O24 1.315 . S
C23 O25 1.279 . S
O24 Cd16 2.223 . S
O24 C23 1.315 . S
O25 Cd15 2.240 . S
O25 C23 1.279 . S
O26 Cd16 2.297 . S
O26 C21 1.247 . S
O27 Cd16 2.439 . S
O27 C21 1.208 . S
O28 Cd29 2.223 . S
O28 C36 1.315 . S
Cd29 O28 2.223 . S
Cd29 O32 2.297 . S
Cd29 O33 2.439 . S
Cd29 O39 2.240 . S
Cd30 O31 2.240 . S
Cd30 O38 2.223 . S
Cd30 O40 2.297 . S
Cd30 O41 2.439 . S
O31 Cd30 2.240 . S
O31 C36 1.279 . S
O32 Cd29 2.297 . S
O32 C34 1.247 . S
O33 Cd29 2.439 . S
O33 C34 1.208 . S
C34 O32 1.247 . S
C34 O33 1.208 . S
C35 O40 1.247 . S
C35 O41 1.208 . S
C36 O28 1.315 . S
C36 O31 1.279 . S
C37 O38 1.315 . S
C37 O39 1.279 . S
O38 Cd30 2.223 . S
O38 C37 1.315 . S
O39 Cd29 2.240 . S
O39 C37 1.279 . S
O40 Cd30 2.297 . S
O40 C35 1.247 . S
O41 Cd30 2.439 . S
O41 C35 1.208 . S
O42 Cd43 2.223 . S
O42 C50 1.315 . S
Cd43 O42 2.223 . S
Cd43 O46 2.297 . S
Cd43 O47 2.439 . S
Cd43 O53 2.240 . S
Cd44 O45 2.240 . S
Cd44 O52 2.223 . S
Cd44 O54 2.297 1_554 S
Cd44 O55 2.439 1_554 S
O45 Cd44 2.240 . S
O45 C50 1.279 . S
O46 Cd43 2.297 . S
O46 C48 1.247 . S
O47 Cd43 2.439 . S
O47 C48 1.208 . S
C48 O46 1.247 . S
C48 O47 1.208 . S
C49 O54 1.247 . S
C49 O55 1.208 . S
C50 O42 1.315 . S
C50 O45 1.279 . S
C51 O52 1.315 . S
C51 O53 1.279 . S
O52 Cd44 2.223 . S
O52 C51 1.315 . S
O53 Cd43 2.240 . S
O53 C51 1.279 . S
O54 Cd44 2.297 1_556 S
O54 C49 1.247 . S
O55 Cd44 2.439 1_556 S
O55 C49 1.208 . S
O56 Cd57 2.223 . S
O56 C64 1.315 . S
Cd57 O56 2.223 . S
Cd57 O60 2.297 . S
Cd57 O61 2.439 . S
Cd57 O67 2.240 . S
Cd58 O59 2.240 . S
Cd58 O66 2.223 . S
Cd58 O68 2.297 . S
Cd58 O69 2.439 . S
O59 Cd58 2.240 . S
O59 C64 1.279 . S
O60 Cd57 2.297 . S
O60 C62 1.247 . S
O61 Cd57 2.439 . S
O61 C62 1.208 . S
C62 O60 1.247 . S
C62 O61 1.208 . S
C63 O68 1.247 . S
C63 O69 1.208 . S
C64 O56 1.315 . S
C64 O59 1.279 . S
C65 O66 1.315 . S
C65 O67 1.279 . S
O66 Cd58 2.223 . S
O66 C65 1.315 . S
O67 Cd57 2.240 . S
O67 C65 1.279 . S
O68 Cd58 2.297 . S
O68 C63 1.247 . S
O69 Cd58 2.439 . S
O69 C63 1.208 . S
O70 Cd71 2.223 . S
O70 C78 1.315 . S
Cd71 O70 2.223 . S
Cd71 O74 2.297 . S
Cd71 O75 2.439 . S
Cd71 O81 2.240 . S
Cd72 O73 2.240 . S
Cd72 O80 2.223 . S
Cd72 O82 2.297 . S
Cd72 O83 2.439 . S
O73 Cd72 2.240 . S
O73 C78 1.279 . S
O74 Cd71 2.297 . S
O74 C76 1.247 . S
O75 Cd71 2.439 . S
O75 C76 1.208 . S
C76 O74 1.247 . S
C76 O75 1.208 . S
C77 O82 1.247 . S
C77 O83 1.208 . S
C78 O70 1.315 . S
C78 O73 1.279 . S
C79 O80 1.315 . S
C79 O81 1.279 . S
O80 Cd72 2.223 . S
O80 C79 1.315 . S
O81 Cd71 2.240 . S
O81 C79 1.279 . S
O82 Cd72 2.297 . S
O82 C77 1.247 . S
O83 Cd72 2.439 . S
O83 C77 1.208 . S
O84 Cd85 2.223 . S
O84 C92 1.315 . S
Cd85 O84 2.223 . S
Cd85 O88 2.297 . S
Cd85 O89 2.439 . S
Cd85 O95 2.240 . S
Cd86 O87 2.240 . S
Cd86 O94 2.223 . S
Cd86 O96 2.297 . S
Cd86 O97 2.439 . S
O87 Cd86 2.240 . S
O87 C92 1.279 . S
O88 Cd85 2.297 . S
O88 C90 1.247 . S
O89 Cd85 2.439 . S
O89 C90 1.208 . S
C90 O88 1.247 . S
C90 O89 1.208 . S
C91 O96 1.247 . S
C91 O97 1.208 . S
C92 O84 1.315 . S
C92 O87 1.279 . S
C93 O94 1.315 . S
C93 O95 1.279 . S
O94 Cd86 2.223 . S
O94 C93 1.315 . S
O95 Cd85 2.240 . S
O95 C93 1.279 . S
O96 Cd86 2.297 . S
O96 C91 1.247 . S
O97 Cd86 2.439 . S
O97 C91 1.208 . S
O98 Cd99 2.223 . S
O98 C106 1.315 . S
Cd99 O98 2.223 . S
Cd99 O102 2.297 . S
Cd99 O103 2.439 . S
Cd99 O109 2.240 . S
Cd100 O101 2.240 . S
Cd100 O108 2.223 . S
Cd100 O110 2.297 1_556 S
Cd100 O111 2.439 1_556 S
O101 Cd100 2.240 . S
O101 C106 1.279 . S
O102 Cd99 2.297 . S
O102 C104 1.247 . S
O103 Cd99 2.439 . S
O103 C104 1.208 . S
C104 O102 1.247 . S
C104 O103 1.208 . S
C105 O110 1.247 . S
C105 O111 1.208 . S
C106 O98 1.315 . S
C106 O101 1.279 . S
C107 O108 1.315 . S
C107 O109 1.279 . S
O108 Cd100 2.223 . S
O108 C107 1.315 . S
O109 Cd99 2.240 . S
O109 C107 1.279 . S
O110 Cd100 2.297 1_554 S
O110 C105 1.247 . S
O111 Cd100 2.439 1_554 S
O111 C105 1.208 . S
O112 Cd113 2.223 . S
O112 C120 1.315 . S
Cd113 O112 2.223 . S
Cd113 O116 2.297 . S
Cd113 O117 2.439 . S
Cd113 O123 2.240 . S
Cd114 O115 2.240 . S
Cd114 O122 2.223 . S
Cd114 O124 2.297 . S
Cd114 O125 2.439 . S
O115 Cd114 2.240 . S
O115 C120 1.279 . S
O116 Cd113 2.297 . S
O116 C118 1.247 . S
O117 Cd113 2.439 . S
O117 C118 1.208 . S
C118 O116 1.247 . S
C118 O117 1.208 . S
C119 O124 1.247 . S
C119 O125 1.208 . S
C120 O112 1.315 . S
C120 O115 1.279 . S
C121 O122 1.315 . S
C121 O123 1.279 . S
O122 Cd114 2.223 . S
O122 C121 1.315 . S
O123 Cd113 2.240 . S
O123 C121 1.279 . S
O124 Cd114 2.297 . S
O124 C119 1.247 . S
O125 Cd114 2.439 . S
O125 C119 1.208 . S
O126 Cd127 2.223 . S
O126 C134 1.315 . S
Cd127 O126 2.223 . S
Cd127 O130 2.297 . S
Cd127 O131 2.439 . S
Cd127 O137 2.240 . S
Cd128 O129 2.240 . S
Cd128 O136 2.223 . S
Cd128 O138 2.297 . S
Cd128 O139 2.439 . S
O129 Cd128 2.240 . S
O129 C134 1.279 . S
O130 Cd127 2.297 . S
O130 C132 1.247 . S
O131 Cd127 2.439 . S
O131 C132 1.208 . S
C132 O130 1.247 . S
C132 O131 1.208 . S
C133 O138 1.247 . S
C133 O139 1.208 . S
C134 O126 1.315 . S
C134 O129 1.279 . S
C135 O136 1.315 . S
C135 O137 1.279 . S
O136 Cd128 2.223 . S
O136 C135 1.315 . S
O137 Cd127 2.240 . S
O137 C135 1.279 . S
O138 Cd128 2.297 . S
O138 C133 1.247 . S
O139 Cd128 2.439 . S
O139 C133 1.208 . S
O140 Cd141 2.223 . S
O140 C148 1.315 . S
Cd141 O140 2.223 . S
Cd141 O144 2.297 . S
Cd141 O145 2.439 . S
Cd141 O151 2.240 . S
Cd142 O143 2.240 . S
Cd142 O150 2.223 . S
Cd142 O152 2.297 . S
Cd142 O153 2.439 . S
O143 Cd142 2.240 . S
O143 C148 1.279 . S
O144 Cd141 2.297 . S
O144 C146 1.247 . S
O145 Cd141 2.439 . S
O145 C146 1.208 . S
C146 O144 1.247 . S
C146 O145 1.208 . S
C147 O152 1.247 . S
C147 O153 1.208 . S
C148 O140 1.315 . S
C148 O143 1.279 . S
C149 O150 1.315 . S
C149 O151 1.279 . S
O150 Cd142 2.223 . S
O150 C149 1.315 . S
O151 Cd141 2.240 . S
O151 C149 1.279 . S
O152 Cd142 2.297 . S
O152 C147 1.247 . S
O153 Cd142 2.439 . S
O153 C147 1.208 . S
O154 Cd155 2.223 . S
O154 C162 1.315 . S
Cd155 O154 2.223 . S
Cd155 O158 2.297 . S
Cd155 O159 2.439 . S
Cd155 O165 2.240 . S
Cd156 O157 2.240 . S
Cd156 O164 2.223 . S
Cd156 O166 2.297 1_556 S
Cd156 O167 2.439 1_556 S
O157 Cd156 2.240 . S
O157 C162 1.279 . S
O158 Cd155 2.297 . S
O158 C160 1.247 . S
O159 Cd155 2.439 . S
O159 C160 1.208 . S
C160 O158 1.247 . S
C160 O159 1.208 . S
C161 O166 1.247 . S
C161 O167 1.208 . S
C162 O154 1.315 . S
C162 O157 1.279 . S
C163 O164 1.315 . S
C163 O165 1.279 . S
O164 Cd156 2.223 . S
O164 C163 1.315 . S
O165 Cd155 2.240 . S
O165 C163 1.279 . S
O166 Cd156 2.297 1_554 S
O166 C161 1.247 . S
O167 Cd156 2.439 1_554 S
O167 C161 1.208 . S
O168 Cd169 2.223 . S
O168 C176 1.315 . S
Cd169 O168 2.223 . S
Cd169 O172 2.297 . S
Cd169 O173 2.439 . S
Cd169 O179 2.240 . S
Cd170 O171 2.240 . S
Cd170 O178 2.223 . S
Cd170 O180 2.297 . S
Cd170 O181 2.439 . S
O171 Cd170 2.240 . S
O171 C176 1.279 . S
O172 Cd169 2.297 . S
O172 C174 1.247 . S
O173 Cd169 2.439 . S
O173 C174 1.208 . S
C174 O172 1.247 . S
C174 O173 1.208 . S
C175 O180 1.247 . S
C175 O181 1.208 . S
C176 O168 1.315 . S
C176 O171 1.279 . S
C177 O178 1.315 . S
C177 O179 1.279 . S
O178 Cd170 2.223 . S
O178 C177 1.315 . S
O179 Cd169 2.240 . S
O179 C177 1.279 . S
O180 Cd170 2.297 . S
O180 C175 1.247 . S
O181 Cd170 2.439 . S
O181 C175 1.208 . S
O182 Cd183 2.223 . S
O182 C190 1.315 . S
Cd183 O182 2.223 . S
Cd183 O186 2.297 . S
Cd183 O187 2.439 . S
Cd183 O193 2.240 . S
Cd184 O185 2.240 . S
Cd184 O192 2.223 . S
Cd184 O194 2.297 . S
Cd184 O195 2.439 . S
O185 Cd184 2.240 . S
O185 C190 1.279 . S
O186 Cd183 2.297 . S
O186 C188 1.247 . S
O187 Cd183 2.439 . S
O187 C188 1.208 . S
C188 O186 1.247 . S
C188 O187 1.208 . S
C189 O194 1.247 . S
C189 O195 1.208 . S
C190 O182 1.315 . S
C190 O185 1.279 . S
C191 O192 1.315 . S
C191 O193 1.279 . S
O192 Cd184 2.223 . S
O192 C191 1.315 . S
O193 Cd183 2.240 . S
O193 C191 1.279 . S
O194 Cd184 2.297 . S
O194 C189 1.247 . S
O195 Cd184 2.439 . S
O195 C189 1.208 . S
O196 Cd197 2.223 . S
O196 C204 1.315 . S
Cd197 O196 2.223 . S
Cd197 O200 2.297 . S
Cd197 O201 2.439 . S
Cd197 O207 2.240 . S
Cd198 O199 2.240 . S
Cd198 O206 2.223 . S
Cd198 O208 2.297 . S
Cd198 O209 2.439 . S
O199 Cd198 2.240 . S
O199 C204 1.279 . S
O200 Cd197 2.297 . S
O200 C202 1.247 . S
O201 Cd197 2.439 . S
O201 C202 1.208 . S
C202 O200 1.247 . S
C202 O201 1.208 . S
C203 O208 1.247 . S
C203 O209 1.208 . S
C204 O196 1.315 . S
C204 O199 1.279 . S
C205 O206 1.315 . S
C205 O207 1.279 . S
O206 Cd198 2.223 . S
O206 C205 1.315 . S
O207 Cd197 2.240 . S
O207 C205 1.279 . S
O208 Cd198 2.297 . S
O208 C203 1.247 . S
O209 Cd198 2.439 . S
O209 C203 1.208 . S
O210 Cd211 2.223 . S
O210 C218 1.315 . S
Cd211 O210 2.223 . S
Cd211 O214 2.297 . S
Cd211 O215 2.439 . S
Cd211 O221 2.240 . S
Cd212 O213 2.240 . S
Cd212 O220 2.223 . S
Cd212 O222 2.297 1_554 S
Cd212 O223 2.439 1_554 S
O213 Cd212 2.240 . S
O213 C218 1.279 . S
O214 Cd211 2.297 . S
O214 C216 1.247 . S
O215 Cd211 2.439 . S
O215 C216 1.208 . S
C216 O214 1.247 . S
C216 O215 1.208 . S
C217 O222 1.247 . S
C217 O223 1.208 . S
C218 O210 1.315 . S
C218 O213 1.279 . S
C219 O220 1.315 . S
C219 O221 1.279 . S
O220 Cd212 2.223 . S
O220 C219 1.315 . S
O221 Cd211 2.240 . S
O221 C219 1.279 . S
O222 Cd212 2.297 1_556 S
O222 C217 1.247 . S
O223 Cd212 2.439 1_556 S
O223 C217 1.208 . S
O224 Cd225 2.223 . S
O224 C232 1.315 . S
Cd225 O224 2.223 . S
Cd225 O228 2.297 . S
Cd225 O229 2.439 . S
Cd225 O235 2.240 . S
Cd226 O227 2.240 . S
Cd226 O234 2.223 . S
Cd226 O236 2.297 . S
Cd226 O237 2.439 . S
O227 Cd226 2.240 . S
O227 C232 1.279 . S
O228 Cd225 2.297 . S
O228 C230 1.247 . S
O229 Cd225 2.439 . S
O229 C230 1.208 . S
C230 O228 1.247 . S
C230 O229 1.208 . S
C231 O236 1.247 . S
C231 O237 1.208 . S
C232 O224 1.315 . S
C232 O227 1.279 . S
C233 O234 1.315 . S
C233 O235 1.279 . S
O234 Cd226 2.223 . S
O234 C233 1.315 . S
O235 Cd225 2.240 . S
O235 C233 1.279 . S
O236 Cd226 2.297 . S
O236 C231 1.247 . S
O237 Cd226 2.439 . S
O237 C231 1.208 . S
O238 Cd239 2.223 . S
O238 C246 1.315 . S
Cd239 O238 2.223 . S
Cd239 O242 2.297 . S
Cd239 O243 2.439 . S
Cd239 O249 2.240 . S
Cd240 O241 2.240 . S
Cd240 O248 2.223 . S
Cd240 O250 2.297 1_554 S
Cd240 O251 2.439 1_554 S
O241 Cd240 2.240 . S
O241 C246 1.279 . S
O242 Cd239 2.297 . S
O242 C244 1.247 . S
O243 Cd239 2.439 . S
O243 C244 1.208 . S
C244 O242 1.247 . S
C244 O243 1.208 . S
C245 O250 1.247 . S
C245 O251 1.208 . S
C246 O238 1.315 . S
C246 O241 1.279 . S
C247 O248 1.315 . S
C247 O249 1.279 . S
O248 Cd240 2.223 . S
O248 C247 1.315 . S
O249 Cd239 2.240 . S
O249 C247 1.279 . S
O250 Cd240 2.297 1_556 S
O250 C245 1.247 . S
O251 Cd240 2.439 1_556 S
O251 C245 1.208 . S
O252 Cd253 2.223 . S
O252 C260 1.315 . S
Cd253 O252 2.223 . S
Cd253 O256 2.297 . S
Cd253 O257 2.439 . S
Cd253 O263 2.240 . S
Cd254 O255 2.240 . S
Cd254 O262 2.223 . S
Cd254 O264 2.297 . S
Cd254 O265 2.439 . S
O255 Cd254 2.240 . S
O255 C260 1.279 . S
O256 Cd253 2.297 . S
O256 C258 1.247 . S
O257 Cd253 2.439 . S
O257 C258 1.208 . S
C258 O256 1.247 . S
C258 O257 1.208 . S
C259 O264 1.247 . S
C259 O265 1.208 . S
C260 O252 1.315 . S
C260 O255 1.279 . S
C261 O262 1.315 . S
C261 O263 1.279 . S
O262 Cd254 2.223 . S
O262 C261 1.315 . S
O263 Cd253 2.240 . S
O263 C261 1.279 . S
O264 Cd254 2.297 . S
O264 C259 1.247 . S
O265 Cd254 2.439 . S
O265 C259 1.208 . S
O266 Cd267 2.223 . S
O266 C274 1.315 . S
Cd267 O266 2.223 . S
Cd267 O270 2.297 . S
Cd267 O271 2.439 . S
Cd267 O277 2.240 . S
Cd268 O269 2.240 . S
Cd268 O276 2.223 . S
Cd268 O278 2.297 . S
Cd268 O279 2.439 . S
O269 Cd268 2.240 . S
O269 C274 1.279 . S
O270 Cd267 2.297 . S
O270 C272 1.247 . S
O271 Cd267 2.439 . S
O271 C272 1.208 . S
C272 O270 1.247 . S
C272 O271 1.208 . S
C273 O278 1.247 . S
C273 O279 1.208 . S
C274 O266 1.315 . S
C274 O269 1.279 . S
C275 O276 1.315 . S
C275 O277 1.279 . S
O276 Cd268 2.223 . S
O276 C275 1.315 . S
O277 Cd267 2.240 . S
O277 C275 1.279 . S
O278 Cd268 2.297 . S
O278 C273 1.247 . S
O279 Cd268 2.439 . S
O279 C273 1.208 . S
O280 Cd281 2.223 . S
O280 C288 1.315 . S
Cd281 O280 2.223 . S
Cd281 O284 2.297 . S
Cd281 O285 2.439 . S
Cd281 O291 2.240 . S
Cd282 O283 2.240 . S
Cd282 O290 2.223 . S
Cd282 O292 2.297 . S
Cd282 O293 2.439 . S
O283 Cd282 2.240 . S
O283 C288 1.279 . S
O284 Cd281 2.297 . S
O284 C286 1.247 . S
O285 Cd281 2.439 . S
O285 C286 1.208 . S
C286 O284 1.247 . S
C286 O285 1.208 . S
C287 O292 1.247 . S
C287 O293 1.208 . S
C288 O280 1.315 . S
C288 O283 1.279 . S
C289 O290 1.315 . S
C289 O291 1.279 . S
O290 Cd282 2.223 . S
O290 C289 1.315 . S
O291 Cd281 2.240 . S
O291 C289 1.279 . S
O292 Cd282 2.297 . S
O292 C287 1.247 . S
O293 Cd282 2.439 . S
O293 C287 1.208 . S
O294 Cd295 2.223 . S
O294 C302 1.315 . S
Cd295 O294 2.223 . S
Cd295 O298 2.297 . S
Cd295 O299 2.439 . S
Cd295 O305 2.240 . S
Cd296 O297 2.240 . S
Cd296 O304 2.223 . S
Cd296 O306 2.297 1_556 S
Cd296 O307 2.439 1_556 S
O297 Cd296 2.240 . S
O297 C302 1.279 . S
O298 Cd295 2.297 . S
O298 C300 1.247 . S
O299 Cd295 2.439 . S
O299 C300 1.208 . S
C300 O298 1.247 . S
C300 O299 1.208 . S
C301 O306 1.247 . S
C301 O307 1.208 . S
C302 O294 1.315 . S
C302 O297 1.279 . S
C303 O304 1.315 . S
C303 O305 1.279 . S
O304 Cd296 2.223 . S
O304 C303 1.315 . S
O305 Cd295 2.240 . S
O305 C303 1.279 . S
O306 Cd296 2.297 1_554 S
O306 C301 1.247 . S
O307 Cd296 2.439 1_554 S
O307 C301 1.208 . S
O308 Cd309 2.223 . S
O308 C316 1.315 . S
Cd309 O308 2.223 . S
Cd309 O312 2.297 . S
Cd309 O313 2.439 . S
Cd309 O319 2.240 . S
Cd310 O311 2.240 . S
Cd310 O318 2.223 . S
Cd310 O320 2.297 . S
Cd310 O321 2.439 . S
O311 Cd310 2.240 . S
O311 C316 1.279 . S
O312 Cd309 2.297 . S
O312 C314 1.247 . S
O313 Cd309 2.439 . S
O313 C314 1.208 . S
C314 O312 1.247 . S
C314 O313 1.208 . S
C315 O320 1.247 . S
C315 O321 1.208 . S
C316 O308 1.315 . S
C316 O311 1.279 . S
C317 O318 1.315 . S
C317 O319 1.279 . S
O318 Cd310 2.223 . S
O318 C317 1.315 . S
O319 Cd309 2.240 . S
O319 C317 1.279 . S
O320 Cd310 2.297 . S
O320 C315 1.247 . S
O321 Cd310 2.439 . S
O321 C315 1.208 . S
O322 Cd323 2.223 . S
O322 C330 1.315 . S
Cd323 O322 2.223 . S
Cd323 O326 2.297 . S
Cd323 O327 2.439 . S
Cd323 O333 2.240 . S
Cd324 O325 2.240 . S
Cd324 O332 2.223 . S
Cd324 O334 2.297 . S
Cd324 O335 2.439 . S
O325 Cd324 2.240 . S
O325 C330 1.279 . S
O326 Cd323 2.297 . S
O326 C328 1.247 . S
O327 Cd323 2.439 . S
O327 C328 1.208 . S
C328 O326 1.247 . S
C328 O327 1.208 . S
C329 O334 1.247 . S
C329 O335 1.208 . S
C330 O322 1.315 . S
C330 O325 1.279 . S
C331 O332 1.315 . S
C331 O333 1.279 . S
O332 Cd324 2.223 . S
O332 C331 1.315 . S
O333 Cd323 2.240 . S
O333 C331 1.279 . S
O334 Cd324 2.297 . S
O334 C329 1.247 . S
O335 Cd324 2.439 . S
O335 C329 1.208 . S
O336 Cd337 2.223 . S
O336 C344 1.315 . S
Cd337 O336 2.223 . S
Cd337 O340 2.297 . S
Cd337 O341 2.439 . S
Cd337 O347 2.240 . S
Cd338 O339 2.240 . S
Cd338 O346 2.223 . S
Cd338 O348 2.297 . S
Cd338 O349 2.439 . S
O339 Cd338 2.240 . S
O339 C344 1.279 . S
O340 Cd337 2.297 . S
O340 C342 1.247 . S
O341 Cd337 2.439 . S
O341 C342 1.208 . S
C342 O340 1.247 . S
C342 O341 1.208 . S
C343 O348 1.247 . S
C343 O349 1.208 . S
C344 O336 1.315 . S
C344 O339 1.279 . S
C345 O346 1.315 . S
C345 O347 1.279 . S
O346 Cd338 2.223 . S
O346 C345 1.315 . S
O347 Cd337 2.240 . S
O347 C345 1.279 . S
O348 Cd338 2.297 . S
O348 C343 1.247 . S
O349 Cd338 2.439 . S
O349 C343 1.208 . S
O350 Cd351 2.223 . S
O350 C358 1.315 . S
Cd351 O350 2.223 . S
Cd351 O354 2.297 . S
Cd351 O355 2.439 . S
Cd351 O361 2.240 . S
Cd352 O353 2.240 . S
Cd352 O360 2.223 . S
Cd352 O362 2.297 1_556 S
Cd352 O363 2.439 1_556 S
O353 Cd352 2.240 . S
O353 C358 1.279 . S
O354 Cd351 2.297 . S
O354 C356 1.247 . S
O355 Cd351 2.439 . S
O355 C356 1.208 . S
C356 O354 1.247 . S
C356 O355 1.208 . S
C357 O362 1.247 . S
C357 O363 1.208 . S
C358 O350 1.315 . S
C358 O353 1.279 . S
C359 O360 1.315 . S
C359 O361 1.279 . S
O360 Cd352 2.223 . S
O360 C359 1.315 . S
O361 Cd351 2.240 . S
O361 C359 1.279 . S
O362 Cd352 2.297 1_554 S
O362 C357 1.247 . S
O363 Cd352 2.439 1_554 S
O363 C357 1.208 . S
O364 Cd365 2.223 . S
O364 C372 1.315 . S
Cd365 O364 2.223 . S
Cd365 O368 2.297 . S
Cd365 O369 2.439 . S
Cd365 O375 2.240 . S
Cd366 O367 2.240 . S
Cd366 O374 2.223 . S
Cd366 O376 2.297 . S
Cd366 O377 2.439 . S
O367 Cd366 2.240 . S
O367 C372 1.279 . S
O368 Cd365 2.297 . S
O368 C370 1.247 . S
O369 Cd365 2.439 . S
O369 C370 1.208 . S
C370 O368 1.247 . S
C370 O369 1.208 . S
C371 O376 1.247 . S
C371 O377 1.208 . S
C372 O364 1.315 . S
C372 O367 1.279 . S
C373 O374 1.315 . S
C373 O375 1.279 . S
O374 Cd366 2.223 . S
O374 C373 1.315 . S
O375 Cd365 2.240 . S
O375 C373 1.279 . S
O376 Cd366 2.297 . S
O376 C371 1.247 . S
O377 Cd366 2.439 . S
O377 C371 1.208 . S
O378 Cd379 2.223 . S
O378 C386 1.315 . S
Cd379 O378 2.223 . S
Cd379 O382 2.297 . S
Cd379 O383 2.439 . S
Cd379 O389 2.240 . S
Cd380 O381 2.240 . S
Cd380 O388 2.223 . S
Cd380 O390 2.297 . S
Cd380 O391 2.439 . S
O381 Cd380 2.240 . S
O381 C386 1.279 . S
O382 Cd379 2.297 . S
O382 C384 1.247 . S
O383 Cd379 2.439 . S
O383 C384 1.208 . S
C384 O382 1.247 . S
C384 O383 1.208 . S
C385 O390 1.247 . S
C385 O391 1.208 . S
C386 O378 1.315 . S
C386 O381 1.279 . S
C387 O388 1.315 . S
C387 O389 1.279 . S
O388 Cd380 2.223 . S
O388 C387 1.315 . S
O389 Cd379 2.240 . S
O389 C387 1.279 . S
O390 Cd380 2.297 . S
O390 C385 1.247 . S
O391 Cd380 2.439 . S
O391 C385 1.208 . S
O392 Cd393 2.223 . S
O392 C400 1.315 . S
Cd393 O392 2.223 . S
Cd393 O396 2.297 . S
Cd393 O397 2.439 . S
Cd393 O403 2.240 . S
Cd394 O395 2.240 . S
Cd394 O402 2.223 . S
Cd394 O404 2.297 . S
Cd394 O405 2.439 . S
O395 Cd394 2.240 . S
O395 C400 1.279 . S
O396 Cd393 2.297 . S
O396 C398 1.247 . S
O397 Cd393 2.439 . S
O397 C398 1.208 . S
C398 O396 1.247 . S
C398 O397 1.208 . S
C399 O404 1.247 . S
C399 O405 1.208 . S
C400 O392 1.315 . S
C400 O395 1.279 . S
C401 O402 1.315 . S
C401 O403 1.279 . S
O402 Cd394 2.223 . S
O402 C401 1.315 . S
O403 Cd393 2.240 . S
O403 C401 1.279 . S
O404 Cd394 2.297 . S
O404 C399 1.247 . S
O405 Cd394 2.439 . S
O405 C399 1.208 . S
O406 Cd407 2.223 . S
O406 C414 1.315 . S
Cd407 O406 2.223 . S
Cd407 O410 2.297 . S
Cd407 O411 2.439 . S
Cd407 O417 2.240 . S
Cd408 O409 2.240 . S
Cd408 O416 2.223 . S
Cd408 O418 2.297 1_554 S
Cd408 O419 2.439 1_554 S
O409 Cd408 2.240 . S
O409 C414 1.279 . S
O410 Cd407 2.297 . S
O410 C412 1.247 . S
O411 Cd407 2.439 . S
O411 C412 1.208 . S
C412 O410 1.247 . S
C412 O411 1.208 . S
C413 O418 1.247 . S
C413 O419 1.208 . S
C414 O406 1.315 . S
C414 O409 1.279 . S
C415 O416 1.315 . S
C415 O417 1.279 . S
O416 Cd408 2.223 . S
O416 C415 1.315 . S
O417 Cd407 2.240 . S
O417 C415 1.279 . S
O418 Cd408 2.297 1_556 S
O418 C413 1.247 . S
O419 Cd408 2.439 1_556 S
O419 C413 1.208 . S
O420 Cd421 2.223 . S
O420 C428 1.315 . S
Cd421 O420 2.223 . S
Cd421 O424 2.297 . S
Cd421 O425 2.439 . S
Cd421 O431 2.240 . S
Cd422 O423 2.240 . S
Cd422 O430 2.223 . S
Cd422 O432 2.297 . S
Cd422 O433 2.439 . S
O423 Cd422 2.240 . S
O423 C428 1.279 . S
O424 Cd421 2.297 . S
O424 C426 1.247 . S
O425 Cd421 2.439 . S
O425 C426 1.208 . S
C426 O424 1.247 . S
C426 O425 1.208 . S
C427 O432 1.247 . S
C427 O433 1.208 . S
C428 O420 1.315 . S
C428 O423 1.279 . S
C429 O430 1.315 . S
C429 O431 1.279 . S
O430 Cd422 2.223 . S
O430 C429 1.315 . S
O431 Cd421 2.240 . S
O431 C429 1.279 . S
O432 Cd422 2.297 . S
O432 C427 1.247 . S
O433 Cd422 2.439 . S
O433 C427 1.208 . S
O434 Cd435 2.223 . S
O434 C442 1.315 . S
Cd435 O434 2.223 . S
Cd435 O438 2.297 . S
Cd435 O439 2.439 . S
Cd435 O445 2.240 . S
Cd436 O437 2.240 . S
Cd436 O444 2.223 . S
Cd436 O446 2.297 . S
Cd436 O447 2.439 . S
O437 Cd436 2.240 . S
O437 C442 1.279 . S
O438 Cd435 2.297 . S
O438 C440 1.247 . S
O439 Cd435 2.439 . S
O439 C440 1.208 . S
C440 O438 1.247 . S
C440 O439 1.208 . S
C441 O446 1.247 . S
C441 O447 1.208 . S
C442 O434 1.315 . S
C442 O437 1.279 . S
C443 O444 1.315 . S
C443 O445 1.279 . S
O444 Cd436 2.223 . S
O444 C443 1.315 . S
O445 Cd435 2.240 . S
O445 C443 1.279 . S
O446 Cd436 2.297 . S
O446 C441 1.247 . S
O447 Cd436 2.439 . S
O447 C441 1.208 . S
C448 C449 1.391 . S
C448 C450 1.394 . S
C448 H464 0.931 . S
C449 C448 1.391 . S
C449 C453 1.376 . S
C450 C448 1.394 . S
C450 C451 1.369 . S
C450 C454 1.531 . S
C451 C450 1.369 . S
C451 C452 1.410 . S
C451 C459 1.503 . S
C452 C451 1.410 . S
C452 C453 1.392 . S
C452 C455 1.511 . S
C453 C449 1.376 . S
C453 C452 1.392 . S
C453 H465 0.929 . S
C454 C450 1.531 . S
C454 H466 0.960 . S
C454 H467 0.962 . S
C454 H468 0.960 . S
C455 C452 1.511 . S
C455 H469 0.961 . S
C455 H470 0.961 . S
C455 H471 0.961 . S
C456 C457 1.370 . S
C456 C458 1.363 . S
C456 H472 0.931 . S
C457 C456 1.370 . S
C457 C461 1.408 . S
C458 C456 1.363 . S
C458 C459 1.370 . S
C458 C462 1.524 . S
C459 C451 1.503 . S
C459 C458 1.370 . S
C459 C460 1.403 . S
C460 C459 1.403 . S
C460 C461 1.404 . S
C460 C463 1.539 . S
C461 C457 1.408 . S
C461 C460 1.404 . S
C461 H473 0.930 . S
C462 C458 1.524 . S
C462 H474 0.956 . S
C462 H475 0.961 . S
C462 H476 0.961 . S
C463 C460 1.539 . S
C463 H477 0.958 . S
C463 H478 0.961 . S
C463 H479 0.960 . S
H464 C448 0.931 . S
H465 C453 0.929 . S
H466 C454 0.960 . S
H467 C454 0.962 . S
H468 C454 0.960 . S
H469 C455 0.961 . S
H470 C455 0.961 . S
H471 C455 0.961 . S
H472 C456 0.931 . S
H473 C461 0.930 . S
H474 C462 0.956 . S
H475 C462 0.961 . S
H476 C462 0.961 . S
H477 C463 0.958 . S
H478 C463 0.961 . S
H479 C463 0.960 . S
C480 C481 1.391 . S
C480 C482 1.394 . S
C480 H496 0.931 1_455 S
C481 C480 1.391 . S
C481 C485 1.376 . S
C482 C480 1.394 . S
C482 C483 1.369 . S
C482 C486 1.531 . S
C483 C482 1.369 . S
C483 C484 1.410 . S
C483 C491 1.503 . S
C484 C483 1.410 . S
C484 C485 1.392 . S
C484 C487 1.511 . S
C485 C481 1.376 . S
C485 C484 1.392 . S
C485 H497 0.929 . S
C486 C482 1.531 . S
C486 H498 0.960 . S
C486 H499 0.962 . S
C486 H500 0.960 . S
C487 C484 1.511 . S
C487 H501 0.961 . S
C487 H502 0.961 . S
C487 H503 0.961 . S
C488 C489 1.370 . S
C488 C490 1.363 . S
C488 H504 0.931 . S
C489 C488 1.370 . S
C489 C493 1.408 . S
C490 C488 1.363 . S
C490 C491 1.370 . S
C490 C494 1.524 . S
C491 C483 1.503 . S
C491 C490 1.370 . S
C491 C492 1.403 . S
C492 C491 1.403 . S
C492 C493 1.404 . S
C492 C495 1.539 . S
C493 C489 1.408 . S
C493 C492 1.404 . S
C493 H505 0.930 . S
C494 C490 1.524 . S
C494 H506 0.956 . S
C494 H507 0.961 . S
C494 H508 0.961 . S
C495 C492 1.539 . S
C495 H509 0.958 . S
C495 H510 0.961 . S
C495 H511 0.960 . S
H496 C480 0.931 1_655 S
H497 C485 0.929 . S
H498 C486 0.960 . S
H499 C486 0.962 . S
H500 C486 0.960 . S
H501 C487 0.961 . S
H502 C487 0.961 . S
H503 C487 0.961 . S
H504 C488 0.931 . S
H505 C493 0.930 . S
H506 C494 0.956 . S
H507 C494 0.961 . S
H508 C494 0.961 . S
H509 C495 0.958 . S
H510 C495 0.961 . S
H511 C495 0.960 . S
C512 C513 1.391 . S
C512 C514 1.394 . S
C512 H528 0.931 . S
C513 C512 1.391 . S
C513 C517 1.376 . S
C514 C512 1.394 . S
C514 C515 1.369 . S
C514 C518 1.531 . S
C515 C514 1.369 . S
C515 C516 1.410 . S
C515 C523 1.503 . S
C516 C515 1.410 . S
C516 C517 1.392 . S
C516 C519 1.511 . S
C517 C513 1.376 . S
C517 C516 1.392 . S
C517 H529 0.929 . S
C518 C514 1.531 . S
C518 H530 0.960 . S
C518 H531 0.962 . S
C518 H532 0.960 . S
C519 C516 1.511 . S
C519 H533 0.961 . S
C519 H534 0.961 . S
C519 H535 0.961 . S
C520 C521 1.370 . S
C520 C522 1.363 . S
C520 H536 0.931 . S
C521 C520 1.370 . S
C521 C525 1.408 . S
C522 C520 1.363 . S
C522 C523 1.370 . S
C522 C526 1.524 . S
C523 C515 1.503 . S
C523 C522 1.370 . S
C523 C524 1.403 . S
C524 C523 1.403 . S
C524 C525 1.404 . S
C524 C527 1.539 . S
C525 C521 1.408 . S
C525 C524 1.404 . S
C525 H537 0.930 . S
C526 C522 1.524 . S
C526 H538 0.956 . S
C526 H539 0.961 . S
C526 H540 0.961 . S
C527 C524 1.539 . S
C527 H541 0.958 . S
C527 H542 0.961 . S
C527 H543 0.960 . S
H528 C512 0.931 . S
H529 C517 0.929 . S
H530 C518 0.960 . S
H531 C518 0.962 . S
H532 C518 0.960 . S
H533 C519 0.961 . S
H534 C519 0.961 . S
H535 C519 0.961 . S
H536 C520 0.931 . S
H537 C525 0.930 . S
H538 C526 0.956 . S
H539 C526 0.961 . S
H540 C526 0.961 . S
H541 C527 0.958 . S
H542 C527 0.961 . S
H543 C527 0.960 . S
C544 C545 1.391 . S
C544 C546 1.394 . S
C544 H560 0.931 . S
C545 C544 1.391 . S
C545 C549 1.376 . S
C546 C544 1.394 . S
C546 C547 1.369 . S
C546 C550 1.531 . S
C547 C546 1.369 . S
C547 C548 1.410 . S
C547 C555 1.503 . S
C548 C547 1.410 . S
C548 C549 1.392 . S
C548 C551 1.511 . S
C549 C545 1.376 . S
C549 C548 1.392 . S
C549 H561 0.929 . S
C550 C546 1.531 . S
C550 H562 0.960 . S
C550 H563 0.962 . S
C550 H564 0.960 . S
C551 C548 1.511 . S
C551 H565 0.961 . S
C551 H566 0.961 . S
C551 H567 0.961 . S
C552 C553 1.370 . S
C552 C554 1.363 . S
C552 H568 0.931 . S
C553 C552 1.370 . S
C553 C557 1.408 . S
C554 C552 1.363 . S
C554 C555 1.370 . S
C554 C558 1.524 . S
C555 C547 1.503 . S
C555 C554 1.370 . S
C555 C556 1.403 . S
C556 C555 1.403 . S
C556 C557 1.404 . S
C556 C559 1.539 . S
C557 C553 1.408 . S
C557 C556 1.404 . S
C557 H569 0.930 . S
C558 C554 1.524 . S
C558 H570 0.956 . S
C558 H571 0.961 . S
C558 H572 0.961 . S
C559 C556 1.539 . S
C559 H573 0.958 . S
C559 H574 0.961 . S
C559 H575 0.960 . S
H560 C544 0.931 . S
H561 C549 0.929 . S
H562 C550 0.960 . S
H563 C550 0.962 . S
H564 C550 0.960 . S
H565 C551 0.961 . S
H566 C551 0.961 . S
H567 C551 0.961 . S
H568 C552 0.931 . S
H569 C557 0.930 . S
H570 C558 0.956 . S
H571 C558 0.961 . S
H572 C558 0.961 . S
H573 C559 0.958 . S
H574 C559 0.961 . S
H575 C559 0.960 . S
C576 C577 1.391 . S
C576 C578 1.394 . S
C576 H592 0.931 . S
C577 C576 1.391 . S
C577 C581 1.376 . S
C578 C576 1.394 . S
C578 C579 1.369 . S
C578 C582 1.531 . S
C579 C578 1.369 . S
C579 C580 1.410 . S
C579 C587 1.503 . S
C580 C579 1.410 . S
C580 C581 1.392 . S
C580 C583 1.511 . S
C581 C577 1.376 . S
C581 C580 1.392 . S
C581 H593 0.929 . S
C582 C578 1.531 . S
C582 H594 0.960 . S
C582 H595 0.962 . S
C582 H596 0.960 . S
C583 C580 1.511 . S
C583 H597 0.961 . S
C583 H598 0.961 . S
C583 H599 0.961 . S
C584 C585 1.370 . S
C584 C586 1.363 . S
C584 H600 0.931 . S
C585 C584 1.370 . S
C585 C589 1.408 . S
C586 C584 1.363 . S
C586 C587 1.370 . S
C586 C590 1.524 . S
C587 C579 1.503 . S
C587 C586 1.370 . S
C587 C588 1.403 . S
C588 C587 1.403 . S
C588 C589 1.404 . S
C588 C591 1.539 . S
C589 C585 1.408 . S
C589 C588 1.404 . S
C589 H601 0.930 . S
C590 C586 1.524 . S
C590 H602 0.956 . S
C590 H603 0.961 . S
C590 H604 0.961 . S
C591 C588 1.539 . S
C591 H605 0.958 . S
C591 H606 0.961 . S
C591 H607 0.960 . S
H592 C576 0.931 . S
H593 C581 0.929 . S
H594 C582 0.960 . S
H595 C582 0.962 . S
H596 C582 0.960 . S
H597 C583 0.961 . S
H598 C583 0.961 . S
H599 C583 0.961 . S
H600 C584 0.931 . S
H601 C589 0.930 . S
H602 C590 0.956 . S
H603 C590 0.961 . S
H604 C590 0.961 . S
H605 C591 0.958 . S
H606 C591 0.961 . S
H607 C591 0.960 . S
C608 C609 1.391 . S
C608 C610 1.394 . S
C608 H624 0.931 . S
C609 C608 1.391 . S
C609 C613 1.376 . S
C610 C608 1.394 . S
C610 C611 1.369 . S
C610 C614 1.531 . S
C611 C610 1.369 . S
C611 C612 1.410 . S
C611 C619 1.503 . S
C612 C611 1.410 . S
C612 C613 1.392 . S
C612 C615 1.511 . S
C613 C609 1.376 . S
C613 C612 1.392 . S
C613 H625 0.929 . S
C614 C610 1.531 . S
C614 H626 0.960 . S
C614 H627 0.962 . S
C614 H628 0.960 . S
C615 C612 1.511 . S
C615 H629 0.961 . S
C615 H630 0.961 . S
C615 H631 0.961 . S
C616 C617 1.370 . S
C616 C618 1.363 . S
C616 H632 0.931 . S
C617 C616 1.370 . S
C617 C621 1.408 . S
C618 C616 1.363 . S
C618 C619 1.370 . S
C618 C622 1.524 . S
C619 C611 1.503 . S
C619 C618 1.370 . S
C619 C620 1.403 . S
C620 C619 1.403 . S
C620 C621 1.404 . S
C620 C623 1.539 . S
C621 C617 1.408 . S
C621 C620 1.404 . S
C621 H633 0.930 . S
C622 C618 1.524 . S
C622 H634 0.956 . S
C622 H635 0.961 . S
C622 H636 0.961 . S
C623 C620 1.539 . S
C623 H637 0.958 . S
C623 H638 0.961 . S
C623 H639 0.960 . S
H624 C608 0.931 . S
H625 C613 0.929 . S
H626 C614 0.960 . S
H627 C614 0.962 . S
H628 C614 0.960 . S
H629 C615 0.961 . S
H630 C615 0.961 . S
H631 C615 0.961 . S
H632 C616 0.931 . S
H633 C621 0.930 . S
H634 C622 0.956 . S
H635 C622 0.961 . S
H636 C622 0.961 . S
H637 C623 0.958 . S
H638 C623 0.961 . S
H639 C623 0.960 . S
C640 C641 1.391 . S
C640 C642 1.394 . S
C640 H656 0.931 . S
C641 C640 1.391 . S
C641 C645 1.376 . S
C642 C640 1.394 . S
C642 C643 1.369 . S
C642 C646 1.531 . S
C643 C642 1.369 . S
C643 C644 1.410 . S
C643 C651 1.503 . S
C644 C643 1.410 . S
C644 C645 1.392 . S
C644 C647 1.511 . S
C645 C641 1.376 . S
C645 C644 1.392 . S
C645 H657 0.929 . S
C646 C642 1.531 . S
C646 H658 0.960 . S
C646 H659 0.962 . S
C646 H660 0.960 . S
C647 C644 1.511 . S
C647 H661 0.961 . S
C647 H662 0.961 . S
C647 H663 0.961 . S
C648 C649 1.370 . S
C648 C650 1.363 . S
C648 H664 0.931 . S
C649 C648 1.370 . S
C649 C653 1.408 . S
C650 C648 1.363 . S
C650 C651 1.370 . S
C650 C654 1.524 . S
C651 C643 1.503 . S
C651 C650 1.370 . S
C651 C652 1.403 . S
C652 C651 1.403 . S
C652 C653 1.404 . S
C652 C655 1.539 . S
C653 C649 1.408 . S
C653 C652 1.404 . S
C653 H665 0.930 . S
C654 C650 1.524 . S
C654 H666 0.956 . S
C654 H667 0.961 . S
C654 H668 0.961 . S
C655 C652 1.539 . S
C655 H669 0.958 . S
C655 H670 0.961 . S
C655 H671 0.960 . S
H656 C640 0.931 . S
H657 C645 0.929 . S
H658 C646 0.960 . S
H659 C646 0.962 . S
H660 C646 0.960 . S
H661 C647 0.961 . S
H662 C647 0.961 . S
H663 C647 0.961 . S
H664 C648 0.931 . S
H665 C653 0.930 . S
H666 C654 0.956 . S
H667 C654 0.961 . S
H668 C654 0.961 . S
H669 C655 0.958 . S
H670 C655 0.961 . S
H671 C655 0.960 . S
C672 C673 1.391 . S
C672 C674 1.394 . S
C672 H688 0.931 . S
C673 C672 1.391 . S
C673 C677 1.376 . S
C674 C672 1.394 . S
C674 C675 1.369 . S
C674 C678 1.531 . S
C675 C674 1.369 . S
C675 C676 1.410 . S
C675 C683 1.503 . S
C676 C675 1.410 . S
C676 C677 1.392 . S
C676 C679 1.511 . S
C677 C673 1.376 . S
C677 C676 1.392 . S
C677 H689 0.929 . S
C678 C674 1.531 . S
C678 H690 0.960 . S
C678 H691 0.962 . S
C678 H692 0.960 . S
C679 C676 1.511 . S
C679 H693 0.961 . S
C679 H694 0.961 . S
C679 H695 0.961 . S
C680 C681 1.370 . S
C680 C682 1.363 . S
C680 H696 0.931 1_455 S
C681 C680 1.370 . S
C681 C685 1.408 . S
C682 C680 1.363 . S
C682 C683 1.370 . S
C682 C686 1.524 . S
C683 C675 1.503 . S
C683 C682 1.370 . S
C683 C684 1.403 . S
C684 C683 1.403 . S
C684 C685 1.404 . S
C684 C687 1.539 . S
C685 C681 1.408 . S
C685 C684 1.404 . S
C685 H697 0.930 . S
C686 C682 1.524 . S
C686 H698 0.956 . S
C686 H699 0.961 . S
C686 H700 0.961 . S
C687 C684 1.539 . S
C687 H701 0.958 . S
C687 H702 0.961 . S
C687 H703 0.960 . S
H688 C672 0.931 . S
H689 C677 0.929 . S
H690 C678 0.960 . S
H691 C678 0.962 . S
H692 C678 0.960 . S
H693 C679 0.961 . S
H694 C679 0.961 . S
H695 C679 0.961 . S
H696 C680 0.931 1_655 S
H697 C685 0.930 . S
H698 C686 0.956 . S
H699 C686 0.961 . S
H700 C686 0.961 . S
H701 C687 0.958 . S
H702 C687 0.961 . S
H703 C687 0.960 . S
C704 C705 1.391 . S
C704 C706 1.394 . S
C704 H720 0.931 . S
C705 C704 1.391 . S
C705 C709 1.376 . S
C706 C704 1.394 . S
C706 C707 1.369 . S
C706 C710 1.531 . S
C707 C706 1.369 . S
C707 C708 1.410 . S
C707 C715 1.503 . S
C708 C707 1.410 . S
C708 C709 1.392 . S
C708 C711 1.511 . S
C709 C705 1.376 . S
C709 C708 1.392 . S
C709 H721 0.929 . S
C710 C706 1.531 . S
C710 H722 0.960 . S
C710 H723 0.962 . S
C710 H724 0.960 . S
C711 C708 1.511 . S
C711 H725 0.961 . S
C711 H726 0.961 . S
C711 H727 0.961 . S
C712 C713 1.370 . S
C712 C714 1.363 . S
C712 H728 0.931 . S
C713 C712 1.370 . S
C713 C717 1.408 . S
C714 C712 1.363 . S
C714 C715 1.370 . S
C714 C718 1.524 . S
C715 C707 1.503 . S
C715 C714 1.370 . S
C715 C716 1.403 . S
C716 C715 1.403 . S
C716 C717 1.404 . S
C716 C719 1.539 . S
C717 C713 1.408 . S
C717 C716 1.404 . S
C717 H729 0.930 . S
C718 C714 1.524 . S
C718 H730 0.956 . S
C718 H731 0.961 . S
C718 H732 0.961 . S
C719 C716 1.539 . S
C719 H733 0.958 . S
C719 H734 0.961 . S
C719 H735 0.960 . S
H720 C704 0.931 . S
H721 C709 0.929 . S
H722 C710 0.960 . S
H723 C710 0.962 . S
H724 C710 0.960 . S
H725 C711 0.961 . S
H726 C711 0.961 . S
H727 C711 0.961 . S
H728 C712 0.931 . S
H729 C717 0.930 . S
H730 C718 0.956 . S
H731 C718 0.961 . S
H732 C718 0.961 . S
H733 C719 0.958 . S
H734 C719 0.961 . S
H735 C719 0.960 . S
C736 C737 1.391 . S
C736 C738 1.394 . S
C736 H752 0.931 . S
C737 C736 1.391 . S
C737 C741 1.376 . S
C738 C736 1.394 . S
C738 C739 1.369 . S
C738 C742 1.531 . S
C739 C738 1.369 . S
C739 C740 1.410 . S
C739 C747 1.503 . S
C740 C739 1.410 . S
C740 C741 1.392 . S
C740 C743 1.511 . S
C741 C737 1.376 . S
C741 C740 1.392 . S
C741 H753 0.929 . S
C742 C738 1.531 . S
C742 H754 0.960 . S
C742 H755 0.962 . S
C742 H756 0.960 . S
C743 C740 1.511 . S
C743 H757 0.961 . S
C743 H758 0.961 . S
C743 H759 0.961 . S
C744 C745 1.370 . S
C744 C746 1.363 . S
C744 H760 0.931 . S
C745 C744 1.370 . S
C745 C749 1.408 . S
C746 C744 1.363 . S
C746 C747 1.370 . S
C746 C750 1.524 . S
C747 C739 1.503 . S
C747 C746 1.370 . S
C747 C748 1.403 . S
C748 C747 1.403 . S
C748 C749 1.404 . S
C748 C751 1.539 . S
C749 C745 1.408 . S
C749 C748 1.404 . S
C749 H761 0.930 . S
C750 C746 1.524 . S
C750 H762 0.956 . S
C750 H763 0.961 . S
C750 H764 0.961 . S
C751 C748 1.539 . S
C751 H765 0.958 . S
C751 H766 0.961 . S
C751 H767 0.960 . S
H752 C736 0.931 . S
H753 C741 0.929 . S
H754 C742 0.960 . S
H755 C742 0.962 . S
H756 C742 0.960 . S
H757 C743 0.961 . S
H758 C743 0.961 . S
H759 C743 0.961 . S
H760 C744 0.931 . S
H761 C749 0.930 . S
H762 C750 0.956 . S
H763 C750 0.961 . S
H764 C750 0.961 . S
H765 C751 0.958 . S
H766 C751 0.961 . S
H767 C751 0.960 . S
C768 C769 1.391 . S
C768 C770 1.394 . S
C768 H784 0.931 . S
C769 C768 1.391 . S
C769 C773 1.376 . S
C770 C768 1.394 . S
C770 C771 1.369 . S
C770 C774 1.531 . S
C771 C770 1.369 . S
C771 C772 1.410 . S
C771 C779 1.503 . S
C772 C771 1.410 . S
C772 C773 1.392 . S
C772 C775 1.511 . S
C773 C769 1.376 . S
C773 C772 1.392 . S
C773 H785 0.929 . S
C774 C770 1.531 . S
C774 H786 0.960 . S
C774 H787 0.962 . S
C774 H788 0.960 . S
C775 C772 1.511 . S
C775 H789 0.961 . S
C775 H790 0.961 . S
C775 H791 0.961 . S
C776 C777 1.370 . S
C776 C778 1.363 . S
C776 H792 0.931 . S
C777 C776 1.370 . S
C777 C781 1.408 . S
C778 C776 1.363 . S
C778 C779 1.370 . S
C778 C782 1.524 . S
C779 C771 1.503 . S
C779 C778 1.370 . S
C779 C780 1.403 . S
C780 C779 1.403 . S
C780 C781 1.404 . S
C780 C783 1.539 . S
C781 C777 1.408 . S
C781 C780 1.404 . S
C781 H793 0.930 . S
C782 C778 1.524 . S
C782 H794 0.956 . S
C782 H795 0.961 . S
C782 H796 0.961 . S
C783 C780 1.539 . S
C783 H797 0.958 . S
C783 H798 0.961 . S
C783 H799 0.960 . S
H784 C768 0.931 . S
H785 C773 0.929 . S
H786 C774 0.960 . S
H787 C774 0.962 . S
H788 C774 0.960 . S
H789 C775 0.961 . S
H790 C775 0.961 . S
H791 C775 0.961 . S
H792 C776 0.931 . S
H793 C781 0.930 . S
H794 C782 0.956 . S
H795 C782 0.961 . S
H796 C782 0.961 . S
H797 C783 0.958 . S
H798 C783 0.961 . S
H799 C783 0.960 . S
C800 C801 1.391 . S
C800 C802 1.394 . S
C800 H816 0.931 . S
C801 C800 1.391 . S
C801 C805 1.376 . S
C802 C800 1.394 . S
C802 C803 1.369 . S
C802 C806 1.531 . S
C803 C802 1.369 . S
C803 C804 1.410 . S
C803 C811 1.503 . S
C804 C803 1.410 . S
C804 C805 1.392 . S
C804 C807 1.511 . S
C805 C801 1.376 . S
C805 C804 1.392 . S
C805 H817 0.929 . S
C806 C802 1.531 . S
C806 H818 0.960 . S
C806 H819 0.962 . S
C806 H820 0.960 . S
C807 C804 1.511 . S
C807 H821 0.961 . S
C807 H822 0.961 . S
C807 H823 0.961 . S
C808 C809 1.370 . S
C808 C810 1.363 . S
C808 H824 0.931 . S
C809 C808 1.370 . S
C809 C813 1.408 . S
C810 C808 1.363 . S
C810 C811 1.370 . S
C810 C814 1.524 . S
C811 C803 1.503 . S
C811 C810 1.370 . S
C811 C812 1.403 . S
C812 C811 1.403 . S
C812 C813 1.404 . S
C812 C815 1.539 . S
C813 C809 1.408 . S
C813 C812 1.404 . S
C813 H825 0.930 . S
C814 C810 1.524 . S
C814 H826 0.956 . S
C814 H827 0.961 . S
C814 H828 0.961 . S
C815 C812 1.539 . S
C815 H829 0.958 . S
C815 H830 0.961 . S
C815 H831 0.960 . S
H816 C800 0.931 . S
H817 C805 0.929 . S
H818 C806 0.960 . S
H819 C806 0.962 . S
H820 C806 0.960 . S
H821 C807 0.961 . S
H822 C807 0.961 . S
H823 C807 0.961 . S
H824 C808 0.931 . S
H825 C813 0.930 . S
H826 C814 0.956 . S
H827 C814 0.961 . S
H828 C814 0.961 . S
H829 C815 0.958 . S
H830 C815 0.961 . S
H831 C815 0.960 . S
C832 C833 1.391 . S
C832 C834 1.394 . S
C832 H848 0.931 . S
C833 C832 1.391 . S
C833 C837 1.376 . S
C834 C832 1.394 . S
C834 C835 1.369 . S
C834 C838 1.531 . S
C835 C834 1.369 . S
C835 C836 1.410 . S
C835 C843 1.503 . S
C836 C835 1.410 . S
C836 C837 1.392 . S
C836 C839 1.511 . S
C837 C833 1.376 . S
C837 C836 1.392 . S
C837 H849 0.929 . S
C838 C834 1.531 . S
C838 H850 0.960 . S
C838 H851 0.962 . S
C838 H852 0.960 . S
C839 C836 1.511 . S
C839 H853 0.961 . S
C839 H854 0.961 . S
C839 H855 0.961 . S
C840 C841 1.370 . S
C840 C842 1.363 . S
C840 H856 0.931 . S
C841 C840 1.370 . S
C841 C845 1.408 . S
C842 C840 1.363 . S
C842 C843 1.370 . S
C842 C846 1.524 . S
C843 C835 1.503 . S
C843 C842 1.370 . S
C843 C844 1.403 . S
C844 C843 1.403 . S
C844 C845 1.404 . S
C844 C847 1.539 . S
C845 C841 1.408 . S
C845 C844 1.404 . S
C845 H857 0.930 . S
C846 C842 1.524 . S
C846 H858 0.956 . S
C846 H859 0.961 . S
C846 H860 0.961 . S
C847 C844 1.539 . S
C847 H861 0.958 . S
C847 H862 0.961 . S
C847 H863 0.960 . S
H848 C832 0.931 . S
H849 C837 0.929 . S
H850 C838 0.960 . S
H851 C838 0.962 . S
H852 C838 0.960 . S
H853 C839 0.961 . S
H854 C839 0.961 . S
H855 C839 0.961 . S
H856 C840 0.931 . S
H857 C845 0.930 . S
H858 C846 0.956 . S
H859 C846 0.961 . S
H860 C846 0.961 . S
H861 C847 0.958 . S
H862 C847 0.961 . S
H863 C847 0.960 . S
C864 C865 1.391 . S
C864 C866 1.394 . S
C864 H880 0.931 . S
C865 C864 1.391 . S
C865 C869 1.376 . S
C866 C864 1.394 . S
C866 C867 1.369 . S
C866 C870 1.531 . S
C867 C866 1.369 . S
C867 C868 1.410 . S
C867 C875 1.503 . S
C868 C867 1.410 . S
C868 C869 1.392 . S
C868 C871 1.511 . S
C869 C865 1.376 . S
C869 C868 1.392 . S
C869 H881 0.929 . S
C870 C866 1.531 . S
C870 H882 0.960 . S
C870 H883 0.962 . S
C870 H884 0.960 . S
C871 C868 1.511 . S
C871 H885 0.961 . S
C871 H886 0.961 . S
C871 H887 0.961 . S
C872 C873 1.370 . S
C872 C874 1.363 . S
C872 H888 0.931 . S
C873 C872 1.370 . S
C873 C877 1.408 . S
C874 C872 1.363 . S
C874 C875 1.370 . S
C874 C878 1.524 . S
C875 C867 1.503 . S
C875 C874 1.370 . S
C875 C876 1.403 . S
C876 C875 1.403 . S
C876 C877 1.404 . S
C876 C879 1.539 . S
C877 C873 1.408 . S
C877 C876 1.404 . S
C877 H889 0.930 . S
C878 C874 1.524 . S
C878 H890 0.956 . S
C878 H891 0.961 . S
C878 H892 0.961 . S
C879 C876 1.539 . S
C879 H893 0.958 . S
C879 H894 0.961 . S
C879 H895 0.960 . S
H880 C864 0.931 . S
H881 C869 0.929 . S
H882 C870 0.960 . S
H883 C870 0.962 . S
H884 C870 0.960 . S
H885 C871 0.961 . S
H886 C871 0.961 . S
H887 C871 0.961 . S
H888 C872 0.931 . S
H889 C877 0.930 . S
H890 C878 0.956 . S
H891 C878 0.961 . S
H892 C878 0.961 . S
H893 C879 0.958 . S
H894 C879 0.961 . S
H895 C879 0.960 . S
C896 C897 1.391 . S
C896 C898 1.394 . S
C896 H912 0.931 . S
C897 C896 1.391 . S
C897 C901 1.376 . S
C898 C896 1.394 . S
C898 C899 1.369 . S
C898 C902 1.531 . S
C899 C898 1.369 . S
C899 C900 1.410 . S
C899 C907 1.503 . S
C900 C899 1.410 . S
C900 C901 1.392 . S
C900 C903 1.511 . S
C901 C897 1.376 . S
C901 C900 1.392 . S
C901 H913 0.929 . S
C902 C898 1.531 . S
C902 H914 0.960 . S
C902 H915 0.962 . S
C902 H916 0.960 . S
C903 C900 1.511 . S
C903 H917 0.961 . S
C903 H918 0.961 . S
C903 H919 0.961 . S
C904 C905 1.370 . S
C904 C906 1.363 . S
C904 H920 0.931 . S
C905 C904 1.370 . S
C905 C909 1.408 . S
C906 C904 1.363 . S
C906 C907 1.370 . S
C906 C910 1.524 . S
C907 C899 1.503 . S
C907 C906 1.370 . S
C907 C908 1.403 . S
C908 C907 1.403 . S
C908 C909 1.404 . S
C908 C911 1.539 . S
C909 C905 1.408 . S
C909 C908 1.404 . S
C909 H921 0.930 . S
C910 C906 1.524 . S
C910 H922 0.956 . S
C910 H923 0.961 . S
C910 H924 0.961 . S
C911 C908 1.539 . S
C911 H925 0.958 . S
C911 H926 0.961 . S
C911 H927 0.960 . S
H912 C896 0.931 . S
H913 C901 0.929 . S
H914 C902 0.960 . S
H915 C902 0.962 . S
H916 C902 0.960 . S
H917 C903 0.961 . S
H918 C903 0.961 . S
H919 C903 0.961 . S
H920 C904 0.931 . S
H921 C909 0.930 . S
H922 C910 0.956 . S
H923 C910 0.961 . S
H924 C910 0.961 . S
H925 C911 0.958 . S
H926 C911 0.961 . S
H927 C911 0.960 . S
C928 C929 1.391 . S
C928 C930 1.394 . S
C928 H944 0.931 . S
C929 C928 1.391 . S
C929 C933 1.376 . S
C930 C928 1.394 . S
C930 C931 1.369 . S
C930 C934 1.531 . S
C931 C930 1.369 . S
C931 C932 1.410 . S
C931 C939 1.503 . S
C932 C931 1.410 . S
C932 C933 1.392 . S
C932 C935 1.511 . S
C933 C929 1.376 . S
C933 C932 1.392 . S
C933 H945 0.929 . S
C934 C930 1.531 . S
C934 H946 0.960 . S
C934 H947 0.962 . S
C934 H948 0.960 . S
C935 C932 1.511 . S
C935 H949 0.961 . S
C935 H950 0.961 . S
C935 H951 0.961 . S
C936 C937 1.370 . S
C936 C938 1.363 . S
C936 H952 0.931 1_655 S
C937 C936 1.370 . S
C937 C941 1.408 . S
C938 C936 1.363 . S
C938 C939 1.370 . S
C938 C942 1.524 . S
C939 C931 1.503 . S
C939 C938 1.370 . S
C939 C940 1.403 . S
C940 C939 1.403 . S
C940 C941 1.404 . S
C940 C943 1.539 . S
C941 C937 1.408 . S
C941 C940 1.404 . S
C941 H953 0.930 . S
C942 C938 1.524 . S
C942 H954 0.956 . S
C942 H955 0.961 . S
C942 H956 0.961 . S
C943 C940 1.539 . S
C943 H957 0.958 . S
C943 H958 0.961 . S
C943 H959 0.960 . S
H944 C928 0.931 . S
H945 C933 0.929 . S
H946 C934 0.960 . S
H947 C934 0.962 . S
H948 C934 0.960 . S
H949 C935 0.961 . S
H950 C935 0.961 . S
H951 C935 0.961 . S
H952 C936 0.931 1_455 S
H953 C941 0.930 . S
H954 C942 0.956 . S
H955 C942 0.961 . S
H956 C942 0.961 . S
H957 C943 0.958 . S
H958 C943 0.961 . S
H959 C943 0.960 . S
C960 C961 1.391 . S
C960 C962 1.394 . S
C960 H976 0.931 . S
C961 C960 1.391 . S
C961 C965 1.376 . S
C962 C960 1.394 . S
C962 C963 1.369 . S
C962 C966 1.531 . S
C963 C962 1.369 . S
C963 C964 1.410 . S
C963 C971 1.503 . S
C964 C963 1.410 . S
C964 C965 1.392 . S
C964 C967 1.511 . S
C965 C961 1.376 . S
C965 C964 1.392 . S
C965 H977 0.929 . S
C966 C962 1.531 . S
C966 H978 0.960 . S
C966 H979 0.962 . S
C966 H980 0.960 . S
C967 C964 1.511 . S
C967 H981 0.961 . S
C967 H982 0.961 . S
C967 H983 0.961 . S
C968 C969 1.370 . S
C968 C970 1.363 . S
C968 H984 0.931 . S
C969 C968 1.370 . S
C969 C973 1.408 . S
C970 C968 1.363 . S
C970 C971 1.370 . S
C970 C974 1.524 . S
C971 C963 1.503 . S
C971 C970 1.370 . S
C971 C972 1.403 . S
C972 C971 1.403 . S
C972 C973 1.404 . S
C972 C975 1.539 . S
C973 C969 1.408 . S
C973 C972 1.404 . S
C973 H985 0.930 . S
C974 C970 1.524 . S
C974 H986 0.956 . S
C974 H987 0.961 . S
C974 H988 0.961 . S
C975 C972 1.539 . S
C975 H989 0.958 . S
C975 H990 0.961 . S
C975 H991 0.960 . S
H976 C960 0.931 . S
H977 C965 0.929 . S
H978 C966 0.960 . S
H979 C966 0.962 . S
H980 C966 0.960 . S
H981 C967 0.961 . S
H982 C967 0.961 . S
H983 C967 0.961 . S
H984 C968 0.931 . S
H985 C973 0.930 . S
H986 C974 0.956 . S
H987 C974 0.961 . S
H988 C974 0.961 . S
H989 C975 0.958 . S
H990 C975 0.961 . S
H991 C975 0.960 . S
C992 C993 1.391 . S
C992 C994 1.394 . S
C992 H1008 0.931 . S
C993 C992 1.391 . S
C993 C997 1.376 . S
C994 C992 1.394 . S
C994 C995 1.369 . S
C994 C998 1.531 . S
C995 C994 1.369 . S
C995 C996 1.410 . S
C995 C1003 1.503 . S
C996 C995 1.410 . S
C996 C997 1.392 . S
C996 C999 1.511 . S
C997 C993 1.376 . S
C997 C996 1.392 . S
C997 H1009 0.929 . S
C998 C994 1.531 . S
C998 H1010 0.960 . S
C998 H1011 0.962 . S
C998 H1012 0.960 . S
C999 C996 1.511 . S
C999 H1013 0.961 . S
C999 H1014 0.961 . S
C999 H1015 0.961 . S
C1000 C1001 1.370 . S
C1000 C1002 1.363 . S
C1000 H1016 0.931 . S
C1001 C1000 1.370 . S
C1001 C1005 1.408 . S
C1002 C1000 1.363 . S
C1002 C1003 1.370 . S
C1002 C1006 1.524 . S
C1003 C995 1.503 . S
C1003 C1002 1.370 . S
C1003 C1004 1.403 . S
C1004 C1003 1.403 . S
C1004 C1005 1.404 . S
C1004 C1007 1.539 . S
C1005 C1001 1.408 . S
C1005 C1004 1.404 . S
C1005 H1017 0.930 . S
C1006 C1002 1.524 . S
C1006 H1018 0.956 . S
C1006 H1019 0.961 . S
C1006 H1020 0.961 . S
C1007 C1004 1.539 . S
C1007 H1021 0.958 . S
C1007 H1022 0.961 . S
C1007 H1023 0.960 . S
H1008 C992 0.931 . S
H1009 C997 0.929 . S
H1010 C998 0.960 . S
H1011 C998 0.962 . S
H1012 C998 0.960 . S
H1013 C999 0.961 . S
H1014 C999 0.961 . S
H1015 C999 0.961 . S
H1016 C1000 0.931 . S
H1017 C1005 0.930 . S
H1018 C1006 0.956 . S
H1019 C1006 0.961 . S
H1020 C1006 0.961 . S
H1021 C1007 0.958 . S
H1022 C1007 0.961 . S
H1023 C1007 0.960 . S
C1024 C1025 1.391 . S
C1024 C1026 1.394 . S
C1024 H1040 0.931 . S
C1025 C1024 1.391 . S
C1025 C1029 1.376 . S
C1026 C1024 1.394 . S
C1026 C1027 1.369 . S
C1026 C1030 1.531 . S
C1027 C1026 1.369 . S
C1027 C1028 1.410 . S
C1027 C1035 1.503 . S
C1028 C1027 1.410 . S
C1028 C1029 1.392 . S
C1028 C1031 1.511 . S
C1029 C1025 1.376 . S
C1029 C1028 1.392 . S
C1029 H1041 0.929 . S
C1030 C1026 1.531 . S
C1030 H1042 0.960 . S
C1030 H1043 0.962 . S
C1030 H1044 0.960 . S
C1031 C1028 1.511 . S
C1031 H1045 0.961 . S
C1031 H1046 0.961 . S
C1031 H1047 0.961 . S
C1032 C1033 1.370 . S
C1032 C1034 1.363 . S
C1032 H1048 0.931 . S
C1033 C1032 1.370 . S
C1033 C1037 1.408 . S
C1034 C1032 1.363 . S
C1034 C1035 1.370 . S
C1034 C1038 1.524 . S
C1035 C1027 1.503 . S
C1035 C1034 1.370 . S
C1035 C1036 1.403 . S
C1036 C1035 1.403 . S
C1036 C1037 1.404 . S
C1036 C1039 1.539 . S
C1037 C1033 1.408 . S
C1037 C1036 1.404 . S
C1037 H1049 0.930 . S
C1038 C1034 1.524 . S
C1038 H1050 0.956 . S
C1038 H1051 0.961 . S
C1038 H1052 0.961 . S
C1039 C1036 1.539 . S
C1039 H1053 0.958 . S
C1039 H1054 0.961 . S
C1039 H1055 0.960 . S
H1040 C1024 0.931 . S
H1041 C1029 0.929 . S
H1042 C1030 0.960 . S
H1043 C1030 0.962 . S
H1044 C1030 0.960 . S
H1045 C1031 0.961 . S
H1046 C1031 0.961 . S
H1047 C1031 0.961 . S
H1048 C1032 0.931 . S
H1049 C1037 0.930 . S
H1050 C1038 0.956 . S
H1051 C1038 0.961 . S
H1052 C1038 0.961 . S
H1053 C1039 0.958 . S
H1054 C1039 0.961 . S
H1055 C1039 0.960 . S
C1056 C1057 1.391 . S
C1056 C1058 1.394 . S
C1056 H1072 0.931 . S
C1057 C1056 1.391 . S
C1057 C1061 1.376 . S
C1058 C1056 1.394 . S
C1058 C1059 1.369 . S
C1058 C1062 1.531 . S
C1059 C1058 1.369 . S
C1059 C1060 1.410 . S
C1059 C1067 1.503 . S
C1060 C1059 1.410 . S
C1060 C1061 1.392 . S
C1060 C1063 1.511 . S
C1061 C1057 1.376 . S
C1061 C1060 1.392 . S
C1061 H1073 0.929 . S
C1062 C1058 1.531 . S
C1062 H1074 0.960 . S
C1062 H1075 0.962 . S
C1062 H1076 0.960 . S
C1063 C1060 1.511 . S
C1063 H1077 0.961 . S
C1063 H1078 0.961 . S
C1063 H1079 0.961 . S
C1064 C1065 1.370 . S
C1064 C1066 1.363 . S
C1064 H1080 0.931 1_655 S
C1065 C1064 1.370 . S
C1065 C1069 1.408 . S
C1066 C1064 1.363 . S
C1066 C1067 1.370 . S
C1066 C1070 1.524 . S
C1067 C1059 1.503 . S
C1067 C1066 1.370 . S
C1067 C1068 1.403 . S
C1068 C1067 1.403 . S
C1068 C1069 1.404 . S
C1068 C1071 1.539 . S
C1069 C1065 1.408 . S
C1069 C1068 1.404 . S
C1069 H1081 0.930 . S
C1070 C1066 1.524 . S
C1070 H1082 0.956 . S
C1070 H1083 0.961 . S
C1070 H1084 0.961 . S
C1071 C1068 1.539 . S
C1071 H1085 0.958 . S
C1071 H1086 0.961 . S
C1071 H1087 0.960 . S
H1072 C1056 0.931 . S
H1073 C1061 0.929 . S
H1074 C1062 0.960 . S
H1075 C1062 0.962 . S
H1076 C1062 0.960 . S
H1077 C1063 0.961 . S
H1078 C1063 0.961 . S
H1079 C1063 0.961 . S
H1080 C1064 0.931 1_455 S
H1081 C1069 0.930 . S
H1082 C1070 0.956 . S
H1083 C1070 0.961 . S
H1084 C1070 0.961 . S
H1085 C1071 0.958 . S
H1086 C1071 0.961 . S
H1087 C1071 0.960 . S
C1088 C1089 1.391 . S
C1088 C1090 1.394 . S
C1088 H1104 0.931 . S
C1089 C1088 1.391 . S
C1089 C1093 1.376 . S
C1090 C1088 1.394 . S
C1090 C1091 1.369 . S
C1090 C1094 1.531 . S
C1091 C1090 1.369 . S
C1091 C1092 1.410 . S
C1091 C1099 1.503 . S
C1092 C1091 1.410 . S
C1092 C1093 1.392 . S
C1092 C1095 1.511 . S
C1093 C1089 1.376 . S
C1093 C1092 1.392 . S
C1093 H1105 0.929 . S
C1094 C1090 1.531 . S
C1094 H1106 0.960 . S
C1094 H1107 0.962 . S
C1094 H1108 0.960 . S
C1095 C1092 1.511 . S
C1095 H1109 0.961 . S
C1095 H1110 0.961 . S
C1095 H1111 0.961 . S
C1096 C1097 1.370 . S
C1096 C1098 1.363 . S
C1096 H1112 0.931 . S
C1097 C1096 1.370 . S
C1097 C1101 1.408 . S
C1098 C1096 1.363 . S
C1098 C1099 1.370 . S
C1098 C1102 1.524 . S
C1099 C1091 1.503 . S
C1099 C1098 1.370 . S
C1099 C1100 1.403 . S
C1100 C1099 1.403 . S
C1100 C1101 1.404 . S
C1100 C1103 1.539 . S
C1101 C1097 1.408 . S
C1101 C1100 1.404 . S
C1101 H1113 0.930 . S
C1102 C1098 1.524 . S
C1102 H1114 0.956 . S
C1102 H1115 0.961 . S
C1102 H1116 0.961 . S
C1103 C1100 1.539 . S
C1103 H1117 0.958 . S
C1103 H1118 0.961 . S
C1103 H1119 0.960 . S
H1104 C1088 0.931 . S
H1105 C1093 0.929 . S
H1106 C1094 0.960 . S
H1107 C1094 0.962 . S
H1108 C1094 0.960 . S
H1109 C1095 0.961 . S
H1110 C1095 0.961 . S
H1111 C1095 0.961 . S
H1112 C1096 0.931 . S
H1113 C1101 0.930 . S
H1114 C1102 0.956 . S
H1115 C1102 0.961 . S
H1116 C1102 0.961 . S
H1117 C1103 0.958 . S
H1118 C1103 0.961 . S
H1119 C1103 0.960 . S
C1120 C1121 1.391 . S
C1120 C1122 1.394 . S
C1120 H1136 0.931 1_655 S
C1121 C1120 1.391 . S
C1121 C1125 1.376 . S
C1122 C1120 1.394 . S
C1122 C1123 1.369 . S
C1122 C1126 1.531 . S
C1123 C1122 1.369 . S
C1123 C1124 1.410 . S
C1123 C1131 1.503 . S
C1124 C1123 1.410 . S
C1124 C1125 1.392 . S
C1124 C1127 1.511 . S
C1125 C1121 1.376 . S
C1125 C1124 1.392 . S
C1125 H1137 0.929 . S
C1126 C1122 1.531 . S
C1126 H1138 0.960 . S
C1126 H1139 0.962 . S
C1126 H1140 0.960 . S
C1127 C1124 1.511 . S
C1127 H1141 0.961 . S
C1127 H1142 0.961 . S
C1127 H1143 0.961 . S
C1128 C1129 1.370 . S
C1128 C1130 1.363 . S
C1128 H1144 0.931 . S
C1129 C1128 1.370 . S
C1129 C1133 1.408 . S
C1130 C1128 1.363 . S
C1130 C1131 1.370 . S
C1130 C1134 1.524 . S
C1131 C1123 1.503 . S
C1131 C1130 1.370 . S
C1131 C1132 1.403 . S
C1132 C1131 1.403 . S
C1132 C1133 1.404 . S
C1132 C1135 1.539 . S
C1133 C1129 1.408 . S
C1133 C1132 1.404 . S
C1133 H1145 0.930 . S
C1134 C1130 1.524 . S
C1134 H1146 0.956 . S
C1134 H1147 0.961 . S
C1134 H1148 0.961 . S
C1135 C1132 1.539 . S
C1135 H1149 0.958 . S
C1135 H1150 0.961 . S
C1135 H1151 0.960 . S
H1136 C1120 0.931 1_455 S
H1137 C1125 0.929 . S
H1138 C1126 0.960 . S
H1139 C1126 0.962 . S
H1140 C1126 0.960 . S
H1141 C1127 0.961 . S
H1142 C1127 0.961 . S
H1143 C1127 0.961 . S
H1144 C1128 0.931 . S
H1145 C1133 0.930 . S
H1146 C1134 0.956 . S
H1147 C1134 0.961 . S
H1148 C1134 0.961 . S
H1149 C1135 0.958 . S
H1150 C1135 0.961 . S
H1151 C1135 0.960 . S
C1152 C1153 1.391 . S
C1152 C1154 1.394 . S
C1152 H1168 0.931 . S
C1153 C1152 1.391 . S
C1153 C1157 1.376 . S
C1154 C1152 1.394 . S
C1154 C1155 1.369 . S
C1154 C1158 1.531 . S
C1155 C1154 1.369 . S
C1155 C1156 1.410 . S
C1155 C1163 1.503 . S
C1156 C1155 1.410 . S
C1156 C1157 1.392 . S
C1156 C1159 1.511 . S
C1157 C1153 1.376 . S
C1157 C1156 1.392 . S
C1157 H1169 0.929 . S
C1158 C1154 1.531 . S
C1158 H1170 0.960 . S
C1158 H1171 0.962 . S
C1158 H1172 0.960 . S
C1159 C1156 1.511 . S
C1159 H1173 0.961 . S
C1159 H1174 0.961 . S
C1159 H1175 0.961 . S
C1160 C1161 1.370 . S
C1160 C1162 1.363 . S
C1160 H1176 0.931 . S
C1161 C1160 1.370 . S
C1161 C1165 1.408 . S
C1162 C1160 1.363 . S
C1162 C1163 1.370 . S
C1162 C1166 1.524 . S
C1163 C1155 1.503 . S
C1163 C1162 1.370 . S
C1163 C1164 1.403 . S
C1164 C1163 1.403 . S
C1164 C1165 1.404 . S
C1164 C1167 1.539 . S
C1165 C1161 1.408 . S
C1165 C1164 1.404 . S
C1165 H1177 0.930 . S
C1166 C1162 1.524 . S
C1166 H1178 0.956 . S
C1166 H1179 0.961 . S
C1166 H1180 0.961 . S
C1167 C1164 1.539 . S
C1167 H1181 0.958 . S
C1167 H1182 0.961 . S
C1167 H1183 0.960 . S
H1168 C1152 0.931 . S
H1169 C1157 0.929 . S
H1170 C1158 0.960 . S
H1171 C1158 0.962 . S
H1172 C1158 0.960 . S
H1173 C1159 0.961 . S
H1174 C1159 0.961 . S
H1175 C1159 0.961 . S
H1176 C1160 0.931 . S
H1177 C1165 0.930 . S
H1178 C1166 0.956 . S
H1179 C1166 0.961 . S
H1180 C1166 0.961 . S
H1181 C1167 0.958 . S
H1182 C1167 0.961 . S
H1183 C1167 0.960 . S
C1184 C1185 1.391 . S
C1184 C1186 1.394 . S
C1184 H1200 0.931 . S
C1185 C1184 1.391 . S
C1185 C1189 1.376 . S
C1186 C1184 1.394 . S
C1186 C1187 1.369 . S
C1186 C1190 1.531 . S
C1187 C1186 1.369 . S
C1187 C1188 1.410 . S
C1187 C1195 1.503 . S
C1188 C1187 1.410 . S
C1188 C1189 1.392 . S
C1188 C1191 1.511 . S
C1189 C1185 1.376 . S
C1189 C1188 1.392 . S
C1189 H1201 0.929 . S
C1190 C1186 1.531 . S
C1190 H1202 0.960 . S
C1190 H1203 0.962 . S
C1190 H1204 0.960 . S
C1191 C1188 1.511 . S
C1191 H1205 0.961 . S
C1191 H1206 0.961 . S
C1191 H1207 0.961 . S
C1192 C1193 1.370 . S
C1192 C1194 1.363 . S
C1192 H1208 0.931 . S
C1193 C1192 1.370 . S
C1193 C1197 1.408 . S
C1194 C1192 1.363 . S
C1194 C1195 1.370 . S
C1194 C1198 1.524 . S
C1195 C1187 1.503 . S
C1195 C1194 1.370 . S
C1195 C1196 1.403 . S
C1196 C1195 1.403 . S
C1196 C1197 1.404 . S
C1196 C1199 1.539 . S
C1197 C1193 1.408 . S
C1197 C1196 1.404 . S
C1197 H1209 0.930 . S
C1198 C1194 1.524 . S
C1198 H1210 0.956 . S
C1198 H1211 0.961 . S
C1198 H1212 0.961 . S
C1199 C1196 1.539 . S
C1199 H1213 0.958 . S
C1199 H1214 0.961 . S
C1199 H1215 0.960 . S
H1200 C1184 0.931 . S
H1201 C1189 0.929 . S
H1202 C1190 0.960 . S
H1203 C1190 0.962 . S
H1204 C1190 0.960 . S
H1205 C1191 0.961 . S
H1206 C1191 0.961 . S
H1207 C1191 0.961 . S
H1208 C1192 0.931 . S
H1209 C1197 0.930 . S
H1210 C1198 0.956 . S
H1211 C1198 0.961 . S
H1212 C1198 0.961 . S
H1213 C1199 0.958 . S
H1214 C1199 0.961 . S
H1215 C1199 0.960 . S
C1216 C1217 1.391 . S
C1216 C1218 1.394 . S
C1216 H1232 0.931 . S
C1217 C1216 1.391 . S
C1217 C1221 1.376 . S
C1218 C1216 1.394 . S
C1218 C1219 1.369 . S
C1218 C1222 1.531 . S
C1219 C1218 1.369 . S
C1219 C1220 1.410 . S
C1219 C1227 1.503 . S
C1220 C1219 1.410 . S
C1220 C1221 1.392 . S
C1220 C1223 1.511 . S
C1221 C1217 1.376 . S
C1221 C1220 1.392 . S
C1221 H1233 0.929 . S
C1222 C1218 1.531 . S
C1222 H1234 0.960 . S
C1222 H1235 0.962 . S
C1222 H1236 0.960 . S
C1223 C1220 1.511 . S
C1223 H1237 0.961 . S
C1223 H1238 0.961 . S
C1223 H1239 0.961 . S
C1224 C1225 1.370 . S
C1224 C1226 1.363 . S
C1224 H1240 0.931 . S
C1225 C1224 1.370 . S
C1225 C1229 1.408 . S
C1226 C1224 1.363 . S
C1226 C1227 1.370 . S
C1226 C1230 1.524 . S
C1227 C1219 1.503 . S
C1227 C1226 1.370 . S
C1227 C1228 1.403 . S
C1228 C1227 1.403 . S
C1228 C1229 1.404 . S
C1228 C1231 1.539 . S
C1229 C1225 1.408 . S
C1229 C1228 1.404 . S
C1229 H1241 0.930 . S
C1230 C1226 1.524 . S
C1230 H1242 0.956 . S
C1230 H1243 0.961 . S
C1230 H1244 0.961 . S
C1231 C1228 1.539 . S
C1231 H1245 0.958 . S
C1231 H1246 0.961 . S
C1231 H1247 0.960 . S
H1232 C1216 0.931 . S
H1233 C1221 0.929 . S
H1234 C1222 0.960 . S
H1235 C1222 0.962 . S
H1236 C1222 0.960 . S
H1237 C1223 0.961 . S
H1238 C1223 0.961 . S
H1239 C1223 0.961 . S
H1240 C1224 0.931 . S
H1241 C1229 0.930 . S
H1242 C1230 0.956 . S
H1243 C1230 0.961 . S
H1244 C1230 0.961 . S
H1245 C1231 0.958 . S
H1246 C1231 0.961 . S
H1247 C1231 0.960 . S
C1248 C1249 1.391 . S
C1248 C1250 1.394 . S
C1248 H1264 0.931 . S
C1249 C1248 1.391 . S
C1249 C1253 1.376 . S
C1250 C1248 1.394 . S
C1250 C1251 1.369 . S
C1250 C1254 1.531 . S
C1251 C1250 1.369 . S
C1251 C1252 1.410 . S
C1251 C1259 1.503 . S
C1252 C1251 1.410 . S
C1252 C1253 1.392 . S
C1252 C1255 1.511 . S
C1253 C1249 1.376 . S
C1253 C1252 1.392 . S
C1253 H1265 0.929 . S
C1254 C1250 1.531 . S
C1254 H1266 0.960 . S
C1254 H1267 0.962 . S
C1254 H1268 0.960 . S
C1255 C1252 1.511 . S
C1255 H1269 0.961 . S
C1255 H1270 0.961 . S
C1255 H1271 0.961 . S
C1256 C1257 1.370 . S
C1256 C1258 1.363 . S
C1256 H1272 0.931 . S
C1257 C1256 1.370 . S
C1257 C1261 1.408 . S
C1258 C1256 1.363 . S
C1258 C1259 1.370 . S
C1258 C1262 1.524 . S
C1259 C1251 1.503 . S
C1259 C1258 1.370 . S
C1259 C1260 1.403 . S
C1260 C1259 1.403 . S
C1260 C1261 1.404 . S
C1260 C1263 1.539 . S
C1261 C1257 1.408 . S
C1261 C1260 1.404 . S
C1261 H1273 0.930 . S
C1262 C1258 1.524 . S
C1262 H1274 0.956 . S
C1262 H1275 0.961 . S
C1262 H1276 0.961 . S
C1263 C1260 1.539 . S
C1263 H1277 0.958 . S
C1263 H1278 0.961 . S
C1263 H1279 0.960 . S
H1264 C1248 0.931 . S
H1265 C1253 0.929 . S
H1266 C1254 0.960 . S
H1267 C1254 0.962 . S
H1268 C1254 0.960 . S
H1269 C1255 0.961 . S
H1270 C1255 0.961 . S
H1271 C1255 0.961 . S
H1272 C1256 0.931 . S
H1273 C1261 0.930 . S
H1274 C1262 0.956 . S
H1275 C1262 0.961 . S
H1276 C1262 0.961 . S
H1277 C1263 0.958 . S
H1278 C1263 0.961 . S
H1279 C1263 0.960 . S
C1280 C1281 1.391 . S
C1280 C1282 1.394 . S
C1280 H1296 0.931 . S
C1281 C1280 1.391 . S
C1281 C1285 1.376 . S
C1282 C1280 1.394 . S
C1282 C1283 1.369 . S
C1282 C1286 1.531 . S
C1283 C1282 1.369 . S
C1283 C1284 1.410 . S
C1283 C1291 1.503 . S
C1284 C1283 1.410 . S
C1284 C1285 1.392 . S
C1284 C1287 1.511 . S
C1285 C1281 1.376 . S
C1285 C1284 1.392 . S
C1285 H1297 0.929 . S
C1286 C1282 1.531 . S
C1286 H1298 0.960 . S
C1286 H1299 0.962 . S
C1286 H1300 0.960 . S
C1287 C1284 1.511 . S
C1287 H1301 0.961 . S
C1287 H1302 0.961 . S
C1287 H1303 0.961 . S
C1288 C1289 1.370 . S
C1288 C1290 1.363 . S
C1288 H1304 0.931 . S
C1289 C1288 1.370 . S
C1289 C1293 1.408 . S
C1290 C1288 1.363 . S
C1290 C1291 1.370 . S
C1290 C1294 1.524 . S
C1291 C1283 1.503 . S
C1291 C1290 1.370 . S
C1291 C1292 1.403 . S
C1292 C1291 1.403 . S
C1292 C1293 1.404 . S
C1292 C1295 1.539 . S
C1293 C1289 1.408 . S
C1293 C1292 1.404 . S
C1293 H1305 0.930 . S
C1294 C1290 1.524 . S
C1294 H1306 0.956 . S
C1294 H1307 0.961 . S
C1294 H1308 0.961 . S
C1295 C1292 1.539 . S
C1295 H1309 0.958 . S
C1295 H1310 0.961 . S
C1295 H1311 0.960 . S
H1296 C1280 0.931 . S
H1297 C1285 0.929 . S
H1298 C1286 0.960 . S
H1299 C1286 0.962 . S
H1300 C1286 0.960 . S
H1301 C1287 0.961 . S
H1302 C1287 0.961 . S
H1303 C1287 0.961 . S
H1304 C1288 0.931 . S
H1305 C1293 0.930 . S
H1306 C1294 0.956 . S
H1307 C1294 0.961 . S
H1308 C1294 0.961 . S
H1309 C1295 0.958 . S
H1310 C1295 0.961 . S
H1311 C1295 0.960 . S
C1312 C1313 1.391 . S
C1312 C1314 1.394 . S
C1312 H1328 0.931 1_455 S
C1313 C1312 1.391 . S
C1313 C1317 1.376 . S
C1314 C1312 1.394 . S
C1314 C1315 1.369 . S
C1314 C1318 1.531 . S
C1315 C1314 1.369 . S
C1315 C1316 1.410 . S
C1315 C1323 1.503 . S
C1316 C1315 1.410 . S
C1316 C1317 1.392 . S
C1316 C1319 1.511 . S
C1317 C1313 1.376 . S
C1317 C1316 1.392 . S
C1317 H1329 0.929 . S
C1318 C1314 1.531 . S
C1318 H1330 0.960 . S
C1318 H1331 0.962 . S
C1318 H1332 0.960 . S
C1319 C1316 1.511 . S
C1319 H1333 0.961 . S
C1319 H1334 0.961 . S
C1319 H1335 0.961 . S
C1320 C1321 1.370 . S
C1320 C1322 1.363 . S
C1320 H1336 0.931 . S
C1321 C1320 1.370 . S
C1321 C1325 1.408 . S
C1322 C1320 1.363 . S
C1322 C1323 1.370 . S
C1322 C1326 1.524 . S
C1323 C1315 1.503 . S
C1323 C1322 1.370 . S
C1323 C1324 1.403 . S
C1324 C1323 1.403 . S
C1324 C1325 1.404 . S
C1324 C1327 1.539 . S
C1325 C1321 1.408 . S
C1325 C1324 1.404 . S
C1325 H1337 0.930 . S
C1326 C1322 1.524 . S
C1326 H1338 0.956 . S
C1326 H1339 0.961 . S
C1326 H1340 0.961 . S
C1327 C1324 1.539 . S
C1327 H1341 0.958 . S
C1327 H1342 0.961 . S
C1327 H1343 0.960 . S
H1328 C1312 0.931 1_655 S
H1329 C1317 0.929 . S
H1330 C1318 0.960 . S
H1331 C1318 0.962 . S
H1332 C1318 0.960 . S
H1333 C1319 0.961 . S
H1334 C1319 0.961 . S
H1335 C1319 0.961 . S
H1336 C1320 0.931 . S
H1337 C1325 0.930 . S
H1338 C1326 0.956 . S
H1339 C1326 0.961 . S
H1340 C1326 0.961 . S
H1341 C1327 0.958 . S
H1342 C1327 0.961 . S
H1343 C1327 0.960 . S
C1344 C1345 1.391 . S
C1344 C1346 1.394 . S
C1344 H1360 0.931 . S
C1345 C1344 1.391 . S
C1345 C1349 1.376 . S
C1346 C1344 1.394 . S
C1346 C1347 1.369 . S
C1346 C1350 1.531 . S
C1347 C1346 1.369 . S
C1347 C1348 1.410 . S
C1347 C1355 1.503 . S
C1348 C1347 1.410 . S
C1348 C1349 1.392 . S
C1348 C1351 1.511 . S
C1349 C1345 1.376 . S
C1349 C1348 1.392 . S
C1349 H1361 0.929 . S
C1350 C1346 1.531 . S
C1350 H1362 0.960 . S
C1350 H1363 0.962 . S
C1350 H1364 0.960 . S
C1351 C1348 1.511 . S
C1351 H1365 0.961 . S
C1351 H1366 0.961 . S
C1351 H1367 0.961 . S
C1352 C1353 1.370 . S
C1352 C1354 1.363 . S
C1352 H1368 0.931 . S
C1353 C1352 1.370 . S
C1353 C1357 1.408 . S
C1354 C1352 1.363 . S
C1354 C1355 1.370 . S
C1354 C1358 1.524 . S
C1355 C1347 1.503 . S
C1355 C1354 1.370 . S
C1355 C1356 1.403 . S
C1356 C1355 1.403 . S
C1356 C1357 1.404 . S
C1356 C1359 1.539 . S
C1357 C1353 1.408 . S
C1357 C1356 1.404 . S
C1357 H1369 0.930 . S
C1358 C1354 1.524 . S
C1358 H1370 0.956 . S
C1358 H1371 0.961 . S
C1358 H1372 0.961 . S
C1359 C1356 1.539 . S
C1359 H1373 0.958 . S
C1359 H1374 0.961 . S
C1359 H1375 0.960 . S
H1360 C1344 0.931 . S
H1361 C1349 0.929 . S
H1362 C1350 0.960 . S
H1363 C1350 0.962 . S
H1364 C1350 0.960 . S
H1365 C1351 0.961 . S
H1366 C1351 0.961 . S
H1367 C1351 0.961 . S
H1368 C1352 0.931 . S
H1369 C1357 0.930 . S
H1370 C1358 0.956 . S
H1371 C1358 0.961 . S
H1372 C1358 0.961 . S
H1373 C1359 0.958 . S
H1374 C1359 0.961 . S
H1375 C1359 0.960 . S
C1376 C1377 1.391 . S
C1376 C1378 1.394 . S
C1376 H1392 0.931 . S
C1377 C1376 1.391 . S
C1377 C1381 1.376 . S
C1378 C1376 1.394 . S
C1378 C1379 1.369 . S
C1378 C1382 1.531 . S
C1379 C1378 1.369 . S
C1379 C1380 1.410 . S
C1379 C1387 1.503 . S
C1380 C1379 1.410 . S
C1380 C1381 1.392 . S
C1380 C1383 1.511 . S
C1381 C1377 1.376 . S
C1381 C1380 1.392 . S
C1381 H1393 0.929 1_455 S
C1382 C1378 1.531 . S
C1382 H1394 0.960 . S
C1382 H1395 0.962 . S
C1382 H1396 0.960 . S
C1383 C1380 1.511 . S
C1383 H1397 0.961 . S
C1383 H1398 0.961 . S
C1383 H1399 0.961 . S
C1384 C1385 1.370 . S
C1384 C1386 1.363 . S
C1384 H1400 0.931 . S
C1385 C1384 1.370 . S
C1385 C1389 1.408 . S
C1386 C1384 1.363 . S
C1386 C1387 1.370 . S
C1386 C1390 1.524 . S
C1387 C1379 1.503 . S
C1387 C1386 1.370 . S
C1387 C1388 1.403 . S
C1388 C1387 1.403 . S
C1388 C1389 1.404 . S
C1388 C1391 1.539 . S
C1389 C1385 1.408 . S
C1389 C1388 1.404 . S
C1389 H1401 0.930 . S
C1390 C1386 1.524 . S
C1390 H1402 0.956 . S
C1390 H1403 0.961 . S
C1390 H1404 0.961 . S
C1391 C1388 1.539 . S
C1391 H1405 0.958 . S
C1391 H1406 0.961 . S
C1391 H1407 0.960 . S
H1392 C1376 0.931 . S
H1393 C1381 0.929 1_655 S
H1394 C1382 0.960 . S
H1395 C1382 0.962 . S
H1396 C1382 0.960 . S
H1397 C1383 0.961 . S
H1398 C1383 0.961 . S
H1399 C1383 0.961 . S
H1400 C1384 0.931 . S
H1401 C1389 0.930 . S
H1402 C1390 0.956 . S
H1403 C1390 0.961 . S
H1404 C1390 0.961 . S
H1405 C1391 0.958 . S
H1406 C1391 0.961 . S
H1407 C1391 0.960 . S
C1408 C1409 1.391 . S
C1408 C1410 1.394 . S
C1408 H1424 0.931 . S
C1409 C1408 1.391 . S
C1409 C1413 1.376 . S
C1410 C1408 1.394 . S
C1410 C1411 1.369 . S
C1410 C1414 1.531 . S
C1411 C1410 1.369 . S
C1411 C1412 1.410 . S
C1411 C1419 1.503 . S
C1412 C1411 1.410 . S
C1412 C1413 1.392 . S
C1412 C1415 1.511 . S
C1413 C1409 1.376 . S
C1413 C1412 1.392 . S
C1413 H1425 0.929 . S
C1414 C1410 1.531 . S
C1414 H1426 0.960 . S
C1414 H1427 0.962 . S
C1414 H1428 0.960 . S
C1415 C1412 1.511 . S
C1415 H1429 0.961 . S
C1415 H1430 0.961 . S
C1415 H1431 0.961 . S
C1416 C1417 1.370 . S
C1416 C1418 1.363 . S
C1416 H1432 0.931 . S
C1417 C1416 1.370 . S
C1417 C1421 1.408 . S
C1418 C1416 1.363 . S
C1418 C1419 1.370 . S
C1418 C1422 1.524 . S
C1419 C1411 1.503 . S
C1419 C1418 1.370 . S
C1419 C1420 1.403 . S
C1420 C1419 1.403 . S
C1420 C1421 1.404 . S
C1420 C1423 1.539 . S
C1421 C1417 1.408 . S
C1421 C1420 1.404 . S
C1421 H1433 0.930 . S
C1422 C1418 1.524 . S
C1422 H1434 0.956 . S
C1422 H1435 0.961 . S
C1422 H1436 0.961 . S
C1423 C1420 1.539 . S
C1423 H1437 0.958 . S
C1423 H1438 0.961 . S
C1423 H1439 0.960 . S
H1424 C1408 0.931 . S
H1425 C1413 0.929 . S
H1426 C1414 0.960 . S
H1427 C1414 0.962 . S
H1428 C1414 0.960 . S
H1429 C1415 0.961 . S
H1430 C1415 0.961 . S
H1431 C1415 0.961 . S
H1432 C1416 0.931 . S
H1433 C1421 0.930 . S
H1434 C1422 0.956 . S
H1435 C1422 0.961 . S
H1436 C1422 0.961 . S
H1437 C1423 0.958 . S
H1438 C1423 0.961 . S
H1439 C1423 0.960 . S
C1440 C1441 1.391 . S
C1440 C1442 1.394 . S
C1440 H1456 0.931 . S
C1441 C1440 1.391 . S
C1441 C1445 1.376 . S
C1442 C1440 1.394 . S
C1442 C1443 1.369 . S
C1442 C1446 1.531 . S
C1443 C1442 1.369 . S
C1443 C1444 1.410 . S
C1443 C1451 1.503 . S
C1444 C1443 1.410 . S
C1444 C1445 1.392 . S
C1444 C1447 1.511 . S
C1445 C1441 1.376 . S
C1445 C1444 1.392 . S
C1445 H1457 0.929 . S
C1446 C1442 1.531 . S
C1446 H1458 0.960 . S
C1446 H1459 0.962 . S
C1446 H1460 0.960 . S
C1447 C1444 1.511 . S
C1447 H1461 0.961 . S
C1447 H1462 0.961 . S
C1447 H1463 0.961 . S
C1448 C1449 1.370 . S
C1448 C1450 1.363 . S
C1448 H1464 0.931 . S
C1449 C1448 1.370 . S
C1449 C1453 1.408 . S
C1450 C1448 1.363 . S
C1450 C1451 1.370 . S
C1450 C1454 1.524 . S
C1451 C1443 1.503 . S
C1451 C1450 1.370 . S
C1451 C1452 1.403 . S
C1452 C1451 1.403 . S
C1452 C1453 1.404 . S
C1452 C1455 1.539 . S
C1453 C1449 1.408 . S
C1453 C1452 1.404 . S
C1453 H1465 0.930 . S
C1454 C1450 1.524 . S
C1454 H1466 0.956 . S
C1454 H1467 0.961 . S
C1454 H1468 0.961 . S
C1455 C1452 1.539 . S
C1455 H1469 0.958 . S
C1455 H1470 0.961 . S
C1455 H1471 0.960 . S
H1456 C1440 0.931 . S
H1457 C1445 0.929 . S
H1458 C1446 0.960 . S
H1459 C1446 0.962 . S
H1460 C1446 0.960 . S
H1461 C1447 0.961 . S
H1462 C1447 0.961 . S
H1463 C1447 0.961 . S
H1464 C1448 0.931 . S
H1465 C1453 0.930 . S
H1466 C1454 0.956 . S
H1467 C1454 0.961 . S
H1468 C1454 0.961 . S
H1469 C1455 0.958 . S
H1470 C1455 0.961 . S
H1471 C1455 0.960 . S
C1472 C1473 1.391 . S
C1472 C1474 1.394 . S
C1472 H1488 0.931 . S
C1473 C1472 1.391 . S
C1473 C1477 1.376 . S
C1474 C1472 1.394 . S
C1474 C1475 1.369 . S
C1474 C1478 1.531 . S
C1475 C1474 1.369 . S
C1475 C1476 1.410 . S
C1475 C1483 1.503 . S
C1476 C1475 1.410 . S
C1476 C1477 1.392 . S
C1476 C1479 1.511 . S
C1477 C1473 1.376 . S
C1477 C1476 1.392 . S
C1477 H1489 0.929 . S
C1478 C1474 1.531 . S
C1478 H1490 0.960 . S
C1478 H1491 0.962 . S
C1478 H1492 0.960 . S
C1479 C1476 1.511 . S
C1479 H1493 0.961 . S
C1479 H1494 0.961 . S
C1479 H1495 0.961 . S
C1480 C1481 1.370 . S
C1480 C1482 1.363 . S
C1480 H1496 0.931 . S
C1481 C1480 1.370 . S
C1481 C1485 1.408 . S
C1482 C1480 1.363 . S
C1482 C1483 1.370 . S
C1482 C1486 1.524 . S
C1483 C1475 1.503 . S
C1483 C1482 1.370 . S
C1483 C1484 1.403 . S
C1484 C1483 1.403 . S
C1484 C1485 1.404 . S
C1484 C1487 1.539 . S
C1485 C1481 1.408 . S
C1485 C1484 1.404 . S
C1485 H1497 0.930 . S
C1486 C1482 1.524 . S
C1486 H1498 0.956 . S
C1486 H1499 0.961 . S
C1486 H1500 0.961 . S
C1487 C1484 1.539 . S
C1487 H1501 0.958 . S
C1487 H1502 0.961 . S
C1487 H1503 0.960 . S
H1488 C1472 0.931 . S
H1489 C1477 0.929 . S
H1490 C1478 0.960 . S
H1491 C1478 0.962 . S
H1492 C1478 0.960 . S
H1493 C1479 0.961 . S
H1494 C1479 0.961 . S
H1495 C1479 0.961 . S
H1496 C1480 0.931 . S
H1497 C1485 0.930 . S
H1498 C1486 0.956 . S
H1499 C1486 0.961 . S
H1500 C1486 0.961 . S
H1501 C1487 0.958 . S
H1502 C1487 0.961 . S
H1503 C1487 0.960 . S
C1504 C1505 1.391 . S
C1504 C1506 1.394 . S
C1504 H1520 0.931 . S
C1505 C1504 1.391 . S
C1505 C1509 1.376 . S
C1506 C1504 1.394 . S
C1506 C1507 1.369 . S
C1506 C1510 1.531 1_565 S
C1507 C1506 1.369 . S
C1507 C1508 1.410 1_655 S
C1507 C1515 1.503 1_665 S
C1508 C1507 1.410 1_455 S
C1508 C1509 1.392 1_455 S
C1508 C1511 1.511 . S
C1509 C1505 1.376 . S
C1509 C1508 1.392 1_655 S
C1509 H1521 0.929 1_655 S
C1510 C1506 1.531 1_545 S
C1510 H1522 0.960 . S
C1510 H1523 0.962 . S
C1510 H1524 0.960 . S
C1511 C1508 1.511 . S
C1511 H1525 0.961 . S
C1511 H1526 0.961 . S
C1511 H1527 0.961 . S
C1512 C1513 1.370 . S
C1512 C1514 1.363 . S
C1512 H1528 0.931 . S
C1513 C1512 1.370 . S
C1513 C1517 1.408 . S
C1514 C1512 1.363 . S
C1514 C1515 1.370 . S
C1514 C1518 1.524 1_545 S
C1515 C1507 1.503 1_445 S
C1515 C1514 1.370 . S
C1515 C1516 1.403 . S
C1516 C1515 1.403 . S
C1516 C1517 1.404 . S
C1516 C1519 1.539 1_455 S
C1517 C1513 1.408 . S
C1517 C1516 1.404 . S
C1517 H1529 0.930 . S
C1518 C1514 1.524 1_565 S
C1518 H1530 0.956 1_455 S
C1518 H1531 0.961 . S
C1518 H1532 0.961 . S
C1519 C1516 1.539 1_655 S
C1519 H1533 0.958 . S
C1519 H1534 0.961 1_655 S
C1519 H1535 0.960 . S
H1520 C1504 0.931 . S
H1521 C1509 0.929 1_455 S
H1522 C1510 0.960 . S
H1523 C1510 0.962 . S
H1524 C1510 0.960 . S
H1525 C1511 0.961 . S
H1526 C1511 0.961 . S
H1527 C1511 0.961 . S
H1528 C1512 0.931 . S
H1529 C1517 0.930 . S
H1530 C1518 0.956 1_655 S
H1531 C1518 0.961 . S
H1532 C1518 0.961 . S
H1533 C1519 0.958 . S
H1534 C1519 0.961 1_455 S
H1535 C1519 0.960 . S
C1536 C1537 1.391 . S
C1536 C1538 1.394 . S
C1536 H1552 0.931 . S
C1537 C1536 1.391 . S
C1537 C1541 1.376 . S
C1538 C1536 1.394 . S
C1538 C1539 1.369 . S
C1538 C1542 1.531 . S
C1539 C1538 1.369 . S
C1539 C1540 1.410 . S
C1539 C1547 1.503 . S
C1540 C1539 1.410 . S
C1540 C1541 1.392 . S
C1540 C1543 1.511 . S
C1541 C1537 1.376 . S
C1541 C1540 1.392 . S
C1541 H1553 0.929 . S
C1542 C1538 1.531 . S
C1542 H1554 0.960 . S
C1542 H1555 0.962 . S
C1542 H1556 0.960 . S
C1543 C1540 1.511 . S
C1543 H1557 0.961 . S
C1543 H1558 0.961 . S
C1543 H1559 0.961 . S
C1544 C1545 1.370 . S
C1544 C1546 1.363 . S
C1544 H1560 0.931 . S
C1545 C1544 1.370 . S
C1545 C1549 1.408 . S
C1546 C1544 1.363 . S
C1546 C1547 1.370 . S
C1546 C1550 1.524 . S
C1547 C1539 1.503 . S
C1547 C1546 1.370 . S
C1547 C1548 1.403 . S
C1548 C1547 1.403 . S
C1548 C1549 1.404 . S
C1548 C1551 1.539 . S
C1549 C1545 1.408 . S
C1549 C1548 1.404 . S
C1549 H1561 0.930 . S
C1550 C1546 1.524 . S
C1550 H1562 0.956 . S
C1550 H1563 0.961 . S
C1550 H1564 0.961 . S
C1551 C1548 1.539 . S
C1551 H1565 0.958 . S
C1551 H1566 0.961 . S
C1551 H1567 0.960 . S
H1552 C1536 0.931 . S
H1553 C1541 0.929 . S
H1554 C1542 0.960 . S
H1555 C1542 0.962 . S
H1556 C1542 0.960 . S
H1557 C1543 0.961 . S
H1558 C1543 0.961 . S
H1559 C1543 0.961 . S
H1560 C1544 0.931 . S
H1561 C1549 0.930 . S
H1562 C1550 0.956 . S
H1563 C1550 0.961 . S
H1564 C1550 0.961 . S
H1565 C1551 0.958 . S
H1566 C1551 0.961 . S
H1567 C1551 0.960 . S
C1568 C1569 1.391 1_556 S
C1568 C1570 1.394 . S
C1568 H1584 0.931 . S
C1569 C1568 1.391 1_554 S
C1569 C1573 1.376 . S
C1570 C1568 1.394 . S
C1570 C1571 1.369 1_556 S
C1570 C1574 1.531 . S
C1571 C1570 1.369 1_554 S
C1571 C1572 1.410 . S
C1571 C1579 1.503 1_544 S
C1572 C1571 1.410 . S
C1572 C1573 1.392 . S
C1572 C1575 1.511 1_545 S
C1573 C1569 1.376 . S
C1573 C1572 1.392 . S
C1573 H1585 0.929 . S
C1574 C1570 1.531 . S
C1574 H1586 0.960 . S
C1574 H1587 0.962 . S
C1574 H1588 0.960 . S
C1575 C1572 1.511 1_565 S
C1575 H1589 0.961 . S
C1575 H1590 0.961 . S
C1575 H1591 0.961 . S
C1576 C1577 1.370 . S
C1576 C1578 1.363 . S
C1576 H1592 0.931 . S
C1577 C1576 1.370 . S
C1577 C1581 1.408 . S
C1578 C1576 1.363 . S
C1578 C1579 1.370 . S
C1578 C1582 1.524 1_566 S
C1579 C1571 1.503 1_566 S
C1579 C1578 1.370 . S
C1579 C1580 1.403 . S
C1580 C1579 1.403 . S
C1580 C1581 1.404 . S
C1580 C1583 1.539 . S
C1581 C1577 1.408 . S
C1581 C1580 1.404 . S
C1581 H1593 0.930 . S
C1582 C1578 1.524 1_544 S
C1582 H1594 0.956 . S
C1582 H1595 0.961 . S
C1582 H1596 0.959 . S
C1583 C1580 1.539 . S
C1583 H1597 0.958 . S
C1583 H1598 0.961 . S
C1583 H1599 0.960 . S
H1584 C1568 0.931 . S
H1585 C1573 0.929 . S
H1586 C1574 0.960 . S
H1587 C1574 0.962 . S
H1588 C1574 0.960 . S
H1589 C1575 0.961 . S
H1590 C1575 0.961 . S
H1591 C1575 0.961 . S
H1592 C1576 0.931 . S
H1593 C1581 0.930 . S
H1594 C1582 0.956 . S
H1595 C1582 0.961 . S
H1596 C1582 0.959 . S
H1597 C1583 0.958 . S
H1598 C1583 0.961 . S
H1599 C1583 0.960 . S
C1600 C1601 1.391 . S
C1600 C1602 1.394 . S
C1600 H1616 0.931 . S
C1601 C1600 1.391 . S
C1601 C1605 1.376 . S
C1602 C1600 1.394 . S
C1602 C1603 1.369 . S
C1602 C1606 1.531 . S
C1603 C1602 1.369 . S
C1603 C1604 1.410 . S
C1603 C1611 1.503 . S
C1604 C1603 1.410 . S
C1604 C1605 1.392 . S
C1604 C1607 1.511 . S
C1605 C1601 1.376 . S
C1605 C1604 1.392 . S
C1605 H1617 0.929 . S
C1606 C1602 1.531 . S
C1606 H1618 0.960 . S
C1606 H1619 0.962 . S
C1606 H1620 0.960 . S
C1607 C1604 1.511 . S
C1607 H1621 0.961 . S
C1607 H1622 0.961 . S
C1607 H1623 0.961 . S
C1608 C1609 1.370 . S
C1608 C1610 1.363 . S
C1608 H1624 0.931 . S
C1609 C1608 1.370 . S
C1609 C1613 1.408 . S
C1610 C1608 1.363 . S
C1610 C1611 1.370 . S
C1610 C1614 1.524 . S
C1611 C1603 1.503 . S
C1611 C1610 1.370 . S
C1611 C1612 1.403 . S
C1612 C1611 1.403 . S
C1612 C1613 1.404 . S
C1612 C1615 1.539 . S
C1613 C1609 1.408 . S
C1613 C1612 1.404 . S
C1613 H1625 0.930 . S
C1614 C1610 1.524 . S
C1614 H1626 0.956 . S
C1614 H1627 0.961 . S
C1614 H1628 0.961 . S
C1615 C1612 1.539 . S
C1615 H1629 0.958 . S
C1615 H1630 0.961 . S
C1615 H1631 0.960 . S
H1616 C1600 0.931 . S
H1617 C1605 0.929 . S
H1618 C1606 0.960 . S
H1619 C1606 0.962 . S
H1620 C1606 0.960 . S
H1621 C1607 0.961 . S
H1622 C1607 0.961 . S
H1623 C1607 0.961 . S
H1624 C1608 0.931 . S
H1625 C1613 0.930 . S
H1626 C1614 0.956 . S
H1627 C1614 0.961 . S
H1628 C1614 0.961 . S
H1629 C1615 0.958 . S
H1630 C1615 0.961 . S
H1631 C1615 0.960 . S
C1632 C1633 1.391 . S
C1632 C1634 1.394 . S
C1632 H1648 0.931 . S
C1633 C1632 1.391 . S
C1633 C1637 1.376 . S
C1634 C1632 1.394 . S
C1634 C1635 1.369 . S
C1634 C1638 1.531 . S
C1635 C1634 1.369 . S
C1635 C1636 1.410 . S
C1635 C1643 1.503 1_565 S
C1636 C1635 1.410 . S
C1636 C1637 1.392 . S
C1636 C1639 1.511 1_565 S
C1637 C1633 1.376 . S
C1637 C1636 1.392 . S
C1637 H1649 0.929 . S
C1638 C1634 1.531 . S
C1638 H1650 0.960 . S
C1638 H1651 0.962 . S
C1638 H1652 0.960 . S
C1639 C1636 1.511 1_545 S
C1639 H1653 0.961 . S
C1639 H1654 0.961 . S
C1639 H1655 0.961 . S
C1640 C1641 1.370 . S
C1640 C1642 1.363 . S
C1640 H1656 0.931 . S
C1641 C1640 1.370 . S
C1641 C1645 1.408 . S
C1642 C1640 1.363 . S
C1642 C1643 1.370 . S
C1642 C1646 1.524 . S
C1643 C1635 1.503 1_545 S
C1643 C1642 1.370 . S
C1643 C1644 1.403 . S
C1644 C1643 1.403 . S
C1644 C1645 1.404 . S
C1644 C1647 1.539 . S
C1645 C1641 1.408 . S
C1645 C1644 1.404 . S
C1645 H1657 0.930 . S
C1646 C1642 1.524 . S
C1646 H1658 0.956 1_545 S
C1646 H1659 0.958 1_545 S
C1646 H1660 0.961 . S
C1647 C1644 1.539 . S
C1647 H1661 0.958 . S
C1647 H1662 0.961 . S
C1647 H1663 0.960 . S
H1648 C1632 0.931 . S
H1649 C1637 0.929 . S
H1650 C1638 0.960 . S
H1651 C1638 0.962 . S
H1652 C1638 0.960 . S
H1653 C1639 0.961 . S
H1654 C1639 0.961 . S
H1655 C1639 0.961 . S
H1656 C1640 0.931 . S
H1657 C1645 0.930 . S
H1658 C1646 0.956 1_565 S
H1659 C1646 0.958 1_565 S
H1660 C1646 0.961 . S
H1661 C1647 0.958 . S
H1662 C1647 0.961 . S
H1663 C1647 0.960 . S
C1664 C1665 1.391 . S
C1664 C1666 1.394 . S
C1664 H1680 0.931 . S
C1665 C1664 1.391 . S
C1665 C1669 1.376 . S
C1666 C1664 1.394 . S
C1666 C1667 1.369 . S
C1666 C1670 1.531 . S
C1667 C1666 1.369 . S
C1667 C1668 1.410 . S
C1667 C1675 1.503 . S
C1668 C1667 1.410 . S
C1668 C1669 1.392 . S
C1668 C1671 1.511 . S
C1669 C1665 1.376 . S
C1669 C1668 1.392 . S
C1669 H1681 0.929 . S
C1670 C1666 1.531 . S
C1670 H1682 0.960 . S
C1670 H1683 0.962 . S
C1670 H1684 0.960 . S
C1671 C1668 1.511 . S
C1671 H1685 0.961 . S
C1671 H1686 0.961 . S
C1671 H1687 0.961 . S
C1672 C1673 1.370 . S
C1672 C1674 1.363 . S
C1672 H1688 0.931 . S
C1673 C1672 1.370 . S
C1673 C1677 1.408 . S
C1674 C1672 1.363 . S
C1674 C1675 1.370 . S
C1674 C1678 1.524 . S
C1675 C1667 1.503 . S
C1675 C1674 1.370 . S
C1675 C1676 1.403 . S
C1676 C1675 1.403 . S
C1676 C1677 1.404 . S
C1676 C1679 1.539 . S
C1677 C1673 1.408 . S
C1677 C1676 1.404 . S
C1677 H1689 0.930 . S
C1678 C1674 1.524 . S
C1678 H1690 0.956 . S
C1678 H1691 0.961 . S
C1678 H1692 0.961 . S
C1679 C1676 1.539 . S
C1679 H1693 0.958 . S
C1679 H1694 0.961 . S
C1679 H1695 0.960 . S
H1680 C1664 0.931 . S
H1681 C1669 0.929 . S
H1682 C1670 0.960 . S
H1683 C1670 0.962 . S
H1684 C1670 0.960 . S
H1685 C1671 0.961 . S
H1686 C1671 0.961 . S
H1687 C1671 0.961 . S
H1688 C1672 0.931 . S
H1689 C1677 0.930 . S
H1690 C1678 0.956 . S
H1691 C1678 0.961 . S
H1692 C1678 0.961 . S
H1693 C1679 0.958 . S
H1694 C1679 0.961 . S
H1695 C1679 0.960 . S
C1696 C1697 1.384 1_554 S
C1696 C1698 1.396 . S
C1696 H1712 0.935 . S
C1697 C1696 1.384 1_556 S
C1697 C1701 1.376 . S
C1698 C1696 1.396 . S
C1698 C1699 1.369 1_554 S
C1698 C1702 1.531 . S
C1699 C1698 1.369 1_556 S
C1699 C1700 1.410 . S
C1699 C1707 1.503 1_646 S
C1700 C1699 1.410 . S
C1700 C1701 1.392 . S
C1700 C1703 1.512 1_655 S
C1701 C1697 1.376 . S
C1701 C1700 1.392 . S
C1701 H1713 0.929 . S
C1702 C1698 1.531 . S
C1702 H1714 0.960 1_545 S
C1702 H1715 0.962 . S
C1702 H1716 0.960 . S
C1703 C1700 1.512 1_455 S
C1703 H1717 0.962 . S
C1703 H1718 0.960 1_545 S
C1703 H1719 0.930 1_445 S
C1704 C1705 1.370 . S
C1704 C1706 1.363 . S
C1704 H1720 0.931 . S
C1705 C1704 1.370 . S
C1705 C1709 1.408 . S
C1706 C1704 1.363 . S
C1706 C1707 1.370 . S
C1706 C1710 1.524 1_565 S
C1707 C1699 1.503 1_464 S
C1707 C1706 1.370 . S
C1707 C1708 1.403 1_455 S
C1708 C1707 1.403 1_655 S
C1708 C1709 1.404 1_655 S
C1708 C1711 1.539 1_554 S
C1709 C1705 1.408 . S
C1709 C1708 1.404 1_455 S
C1709 H1721 0.930 1_455 S
C1710 C1706 1.524 1_545 S
C1710 H1722 0.956 . S
C1710 H1723 0.944 1_554 S
C1710 H1724 0.961 . S
C1711 C1708 1.539 1_556 S
C1711 H1725 0.958 1_556 S
C1711 H1726 0.961 . S
C1711 H1727 0.960 . S
H1712 C1696 0.935 . S
H1713 C1701 0.929 . S
H1714 C1702 0.960 1_565 S
H1715 C1702 0.962 . S
H1716 C1702 0.960 . S
H1717 C1703 0.962 . S
H1718 C1703 0.960 1_565 S
H1719 C1703 0.930 1_665 S
H1720 C1704 0.931 . S
H1721 C1709 0.930 1_655 S
H1722 C1710 0.956 . S
H1723 C1710 0.944 1_556 S
H1724 C1710 0.961 . S
H1725 C1711 0.958 1_554 S
H1726 C1711 0.961 . S
H1727 C1711 0.960 . S
C1728 C1729 1.391 . S
C1728 C1730 1.394 . S
C1728 H1744 0.931 . S
C1729 C1728 1.391 . S
C1729 C1733 1.376 . S
C1730 C1728 1.394 . S
C1730 C1731 1.369 . S
C1730 C1734 1.531 . S
C1731 C1730 1.369 . S
C1731 C1732 1.410 . S
C1731 C1739 1.503 . S
C1732 C1731 1.410 . S
C1732 C1733 1.392 . S
C1732 C1735 1.511 . S
C1733 C1729 1.376 . S
C1733 C1732 1.392 . S
C1733 H1745 0.929 . S
C1734 C1730 1.531 . S
C1734 H1746 0.960 . S
C1734 H1747 0.962 . S
C1734 H1748 0.960 . S
C1735 C1732 1.511 . S
C1735 H1749 0.961 . S
C1735 H1750 0.961 . S
C1735 H1751 0.961 . S
C1736 C1737 1.370 . S
C1736 C1738 1.363 . S
C1736 H1752 0.931 . S
C1737 C1736 1.370 . S
C1737 C1741 1.408 . S
C1738 C1736 1.363 . S
C1738 C1739 1.370 . S
C1738 C1742 1.524 . S
C1739 C1731 1.503 . S
C1739 C1738 1.370 . S
C1739 C1740 1.403 . S
C1740 C1739 1.403 . S
C1740 C1741 1.404 . S
C1740 C1743 1.539 . S
C1741 C1737 1.408 . S
C1741 C1740 1.404 . S
C1741 H1753 0.930 . S
C1742 C1738 1.524 . S
C1742 H1754 0.956 . S
C1742 H1755 0.961 . S
C1742 H1756 0.961 . S
C1743 C1740 1.539 . S
C1743 H1757 0.958 . S
C1743 H1758 0.961 . S
C1743 H1759 0.960 . S
H1744 C1728 0.931 . S
H1745 C1733 0.929 . S
H1746 C1734 0.960 . S
H1747 C1734 0.962 . S
H1748 C1734 0.960 . S
H1749 C1735 0.961 . S
H1750 C1735 0.961 . S
H1751 C1735 0.961 . S
H1752 C1736 0.931 . S
H1753 C1741 0.930 . S
H1754 C1742 0.956 . S
H1755 C1742 0.961 . S
H1756 C1742 0.961 . S
H1757 C1743 0.958 . S
H1758 C1743 0.961 . S
H1759 C1743 0.960 . S
C1760 C1761 1.391 . S
C1760 C1762 1.394 . S
C1760 H1776 0.931 . S
C1761 C1760 1.391 . S
C1761 C1765 1.376 . S
C1762 C1760 1.394 . S
C1762 C1763 1.369 . S
C1762 C1766 1.531 . S
C1763 C1762 1.369 . S
C1763 C1764 1.410 . S
C1763 C1771 1.503 . S
C1764 C1763 1.410 . S
C1764 C1765 1.392 . S
C1764 C1767 1.511 . S
C1765 C1761 1.376 . S
C1765 C1764 1.392 . S
C1765 H1777 0.929 . S
C1766 C1762 1.531 . S
C1766 H1778 0.960 . S
C1766 H1779 0.962 . S
C1766 H1780 0.960 . S
C1767 C1764 1.511 . S
C1767 H1781 0.961 . S
C1767 H1782 0.961 . S
C1767 H1783 0.961 . S
C1768 C1769 1.370 . S
C1768 C1770 1.363 . S
C1768 H1784 0.931 . S
C1769 C1768 1.370 . S
C1769 C1773 1.408 . S
C1770 C1768 1.363 . S
C1770 C1771 1.370 . S
C1770 C1774 1.524 . S
C1771 C1763 1.503 . S
C1771 C1770 1.370 . S
C1771 C1772 1.403 . S
C1772 C1771 1.403 . S
C1772 C1773 1.404 . S
C1772 C1775 1.539 . S
C1773 C1769 1.408 . S
C1773 C1772 1.404 . S
C1773 H1785 0.930 . S
C1774 C1770 1.524 . S
C1774 H1786 0.956 . S
C1774 H1787 0.961 . S
C1774 H1788 0.961 . S
C1775 C1772 1.539 . S
C1775 H1789 0.958 . S
C1775 H1790 0.961 . S
C1775 H1791 0.960 . S
H1776 C1760 0.931 . S
H1777 C1765 0.929 . S
H1778 C1766 0.960 . S
H1779 C1766 0.962 . S
H1780 C1766 0.960 . S
H1781 C1767 0.961 . S
H1782 C1767 0.961 . S
H1783 C1767 0.961 . S
H1784 C1768 0.931 . S
H1785 C1773 0.930 . S
H1786 C1774 0.956 . S
H1787 C1774 0.961 . S
H1788 C1774 0.961 . S
H1789 C1775 0.958 . S
H1790 C1775 0.961 . S
H1791 C1775 0.960 . S
C1792 C1793 1.391 . S
C1792 C1794 1.394 . S
C1792 H1808 0.931 . S
C1793 C1792 1.391 . S
C1793 C1797 1.376 . S
C1794 C1792 1.394 . S
C1794 C1795 1.369 . S
C1794 C1798 1.531 . S
C1795 C1794 1.369 . S
C1795 C1796 1.410 . S
C1795 C1803 1.503 . S
C1796 C1795 1.410 . S
C1796 C1797 1.392 . S
C1796 C1799 1.511 . S
C1797 C1793 1.376 . S
C1797 C1796 1.392 . S
C1797 H1809 0.929 . S
C1798 C1794 1.531 . S
C1798 H1810 0.960 . S
C1798 H1811 0.962 . S
C1798 H1812 0.960 . S
C1799 C1796 1.511 . S
C1799 H1813 0.961 . S
C1799 H1814 0.961 . S
C1799 H1815 0.961 . S
C1800 C1801 1.370 . S
C1800 C1802 1.363 . S
C1800 H1816 0.931 . S
C1801 C1800 1.370 . S
C1801 C1805 1.408 . S
C1802 C1800 1.363 . S
C1802 C1803 1.370 . S
C1802 C1806 1.524 . S
C1803 C1795 1.503 . S
C1803 C1802 1.370 . S
C1803 C1804 1.403 . S
C1804 C1803 1.403 . S
C1804 C1805 1.404 . S
C1804 C1807 1.539 . S
C1805 C1801 1.408 . S
C1805 C1804 1.404 . S
C1805 H1817 0.930 . S
C1806 C1802 1.524 . S
C1806 H1818 0.956 . S
C1806 H1819 0.961 . S
C1806 H1820 0.961 . S
C1807 C1804 1.539 . S
C1807 H1821 0.958 . S
C1807 H1822 0.961 . S
C1807 H1823 0.960 . S
H1808 C1792 0.931 . S
H1809 C1797 0.929 . S
H1810 C1798 0.960 . S
H1811 C1798 0.962 . S
H1812 C1798 0.960 . S
H1813 C1799 0.961 . S
H1814 C1799 0.961 . S
H1815 C1799 0.961 . S
H1816 C1800 0.931 . S
H1817 C1805 0.930 . S
H1818 C1806 0.956 . S
H1819 C1806 0.961 . S
H1820 C1806 0.961 . S
H1821 C1807 0.958 . S
H1822 C1807 0.961 . S
H1823 C1807 0.960 . S
C1824 C1825 1.391 . S
C1824 C1826 1.394 . S
C1824 H1840 0.931 . S
C1825 C1824 1.391 . S
C1825 C1829 1.376 . S
C1826 C1824 1.394 . S
C1826 C1827 1.369 . S
C1826 C1830 1.531 . S
C1827 C1826 1.369 . S
C1827 C1828 1.410 . S
C1827 C1835 1.503 . S
C1828 C1827 1.410 . S
C1828 C1829 1.392 . S
C1828 C1831 1.511 . S
C1829 C1825 1.376 . S
C1829 C1828 1.392 . S
C1829 H1841 0.929 . S
C1830 C1826 1.531 . S
C1830 H1842 0.960 . S
C1830 H1843 0.962 . S
C1830 H1844 0.960 . S
C1831 C1828 1.511 . S
C1831 H1845 0.961 . S
C1831 H1846 0.961 . S
C1831 H1847 0.961 . S
C1832 C1833 1.370 . S
C1832 C1834 1.363 . S
C1832 H1848 0.931 . S
C1833 C1832 1.370 . S
C1833 C1837 1.408 . S
C1834 C1832 1.363 . S
C1834 C1835 1.370 . S
C1834 C1838 1.524 . S
C1835 C1827 1.503 . S
C1835 C1834 1.370 . S
C1835 C1836 1.403 . S
C1836 C1835 1.403 . S
C1836 C1837 1.404 . S
C1836 C1839 1.539 . S
C1837 C1833 1.408 . S
C1837 C1836 1.404 . S
C1837 H1849 0.930 . S
C1838 C1834 1.524 . S
C1838 H1850 0.956 . S
C1838 H1851 0.961 . S
C1838 H1852 0.961 . S
C1839 C1836 1.539 . S
C1839 H1853 0.958 . S
C1839 H1854 0.961 . S
C1839 H1855 0.960 . S
H1840 C1824 0.931 . S
H1841 C1829 0.929 . S
H1842 C1830 0.960 . S
H1843 C1830 0.962 . S
H1844 C1830 0.960 . S
H1845 C1831 0.961 . S
H1846 C1831 0.961 . S
H1847 C1831 0.961 . S
H1848 C1832 0.931 . S
H1849 C1837 0.930 . S
H1850 C1838 0.956 . S
H1851 C1838 0.961 . S
H1852 C1838 0.961 . S
H1853 C1839 0.958 . S
H1854 C1839 0.961 . S
H1855 C1839 0.960 . S
C1856 C1857 1.391 . S
C1856 C1858 1.394 . S
C1856 H1872 0.931 . S
C1857 C1856 1.391 . S
C1857 C1861 1.376 . S
C1858 C1856 1.394 . S
C1858 C1859 1.369 . S
C1858 C1862 1.531 . S
C1859 C1858 1.369 . S
C1859 C1860 1.410 1_554 S
C1859 C1867 1.503 1_554 S
C1860 C1859 1.410 1_556 S
C1860 C1861 1.392 1_556 S
C1860 C1863 1.511 . S
C1861 C1857 1.376 . S
C1861 C1860 1.392 1_554 S
C1861 H1873 0.929 1_554 S
C1862 C1858 1.531 . S
C1862 H1874 0.960 . S
C1862 H1875 0.962 . S
C1862 H1876 0.960 . S
C1863 C1860 1.511 . S
C1863 H1877 0.961 . S
C1863 H1878 0.961 . S
C1863 H1879 0.961 . S
C1864 C1865 1.370 . S
C1864 C1866 1.363 . S
C1864 H1880 0.931 . S
C1865 C1864 1.370 . S
C1865 C1869 1.408 . S
C1866 C1864 1.363 . S
C1866 C1867 1.370 . S
C1866 C1870 1.524 . S
C1867 C1859 1.503 1_556 S
C1867 C1866 1.370 . S
C1867 C1868 1.403 1_556 S
C1868 C1867 1.403 1_554 S
C1868 C1869 1.404 1_554 S
C1868 C1871 1.539 . S
C1869 C1865 1.408 . S
C1869 C1868 1.404 1_556 S
C1869 H1881 0.930 . S
C1870 C1866 1.524 . S
C1870 H1882 0.956 . S
C1870 H1883 0.961 . S
C1870 H1884 0.961 . S
C1871 C1868 1.539 . S
C1871 H1885 0.958 . S
C1871 H1886 0.961 . S
C1871 H1887 0.960 . S
H1872 C1856 0.931 . S
H1873 C1861 0.929 1_556 S
H1874 C1862 0.960 . S
H1875 C1862 0.962 . S
H1876 C1862 0.960 . S
H1877 C1863 0.961 . S
H1878 C1863 0.961 . S
H1879 C1863 0.961 . S
H1880 C1864 0.931 . S
H1881 C1869 0.930 . S
H1882 C1870 0.956 . S
H1883 C1870 0.961 . S
H1884 C1870 0.961 . S
H1885 C1871 0.958 . S
H1886 C1871 0.961 . S
H1887 C1871 0.960 . S
C1888 C1889 1.391 . S
C1888 C1890 1.394 1_655 S
C1888 H1904 0.931 1_655 S
C1889 C1888 1.391 . S
C1889 C1893 1.376 . S
C1890 C1888 1.394 1_455 S
C1890 C1891 1.369 1_455 S
C1890 C1894 1.531 . S
C1891 C1890 1.369 1_655 S
C1891 C1892 1.410 . S
C1891 C1899 1.503 1_655 S
C1892 C1891 1.410 . S
C1892 C1893 1.392 . S
C1892 C1895 1.511 . S
C1893 C1889 1.376 . S
C1893 C1892 1.392 . S
C1893 H1905 0.929 . S
C1894 C1890 1.531 . S
C1894 H1906 0.960 . S
C1894 H1907 0.962 . S
C1894 H1908 0.960 . S
C1895 C1892 1.511 . S
C1895 H1909 0.961 . S
C1895 H1910 0.961 . S
C1895 H1911 0.961 . S
C1896 C1897 1.370 . S
C1896 C1898 1.363 . S
C1896 H1912 0.931 . S
C1897 C1896 1.370 . S
C1897 C1901 1.408 . S
C1898 C1896 1.363 . S
C1898 C1899 1.370 . S
C1898 C1902 1.524 . S
C1899 C1891 1.503 1_455 S
C1899 C1898 1.370 . S
C1899 C1900 1.403 . S
C1900 C1899 1.403 . S
C1900 C1901 1.404 . S
C1900 C1903 1.539 1_455 S
C1901 C1897 1.408 . S
C1901 C1900 1.404 . S
C1901 H1913 0.930 . S
C1902 C1898 1.524 . S
C1902 H1914 0.956 . S
C1902 H1915 0.961 1_455 S
C1902 H1916 0.961 . S
C1903 C1900 1.539 1_655 S
C1903 H1917 0.958 1_655 S
C1903 H1918 0.961 . S
C1903 H1919 0.960 . S
H1904 C1888 0.931 1_455 S
H1905 C1893 0.929 . S
H1906 C1894 0.960 . S
H1907 C1894 0.962 . S
H1908 C1894 0.960 . S
H1909 C1895 0.961 . S
H1910 C1895 0.961 . S
H1911 C1895 0.961 . S
H1912 C1896 0.931 . S
H1913 C1901 0.930 . S
H1914 C1902 0.956 . S
H1915 C1902 0.961 1_655 S
H1916 C1902 0.961 . S
H1917 C1903 0.958 1_455 S
H1918 C1903 0.961 . S
H1919 C1903 0.960 . S
C1920 C1921 1.391 . S
C1920 C1922 1.394 1_455 S
C1920 H1936 0.931 1_455 S
C1921 C1920 1.391 . S
C1921 C1925 1.376 . S
C1922 C1920 1.394 1_655 S
C1922 C1923 1.364 1_656 S
C1922 C1926 1.531 1_556 S
C1923 C1922 1.364 1_454 S
C1923 C1924 1.406 1_554 S
C1923 C1931 1.510 1_455 S
C1924 C1923 1.406 1_556 S
C1924 C1925 1.392 . S
C1924 C1927 1.511 1_556 S
C1925 C1921 1.376 . S
C1925 C1924 1.392 . S
C1925 H1937 0.929 . S
C1926 C1922 1.531 1_554 S
C1926 H1938 0.959 . S
C1926 H1939 0.963 1_554 S
C1926 H1940 0.960 . S
C1927 C1924 1.511 1_554 S
C1927 H1941 0.961 1_554 S
C1927 H1942 0.961 . S
C1927 H1943 0.961 . S
C1928 C1929 1.337 1_556 S
C1928 C1930 1.374 . S
C1928 H1944 0.954 . S
C1929 C1928 1.337 1_554 S
C1929 C1933 1.408 . S
C1930 C1928 1.374 . S
C1930 C1931 1.370 1_556 S
C1930 C1934 1.524 . S
C1931 C1923 1.510 1_655 S
C1931 C1930 1.370 1_554 S
C1931 C1932 1.403 . S
C1932 C1931 1.403 . S
C1932 C1933 1.404 . S
C1932 C1935 1.520 1_655 S
C1933 C1929 1.408 . S
C1933 C1932 1.404 . S
C1933 H1945 0.930 . S
C1934 C1930 1.524 . S
C1934 H1946 0.956 . S
C1934 H1947 0.961 1_655 S
C1934 H1948 0.961 . S
C1935 C1932 1.520 1_455 S
C1935 H1949 0.920 1_455 S
C1935 H1950 0.979 . S
C1935 H1951 1.004 . S
H1936 C1920 0.931 1_655 S
H1937 C1925 0.929 . S
H1938 C1926 0.959 . S
H1939 C1926 0.963 1_556 S
H1940 C1926 0.960 . S
H1941 C1927 0.961 1_556 S
H1942 C1927 0.961 . S
H1943 C1927 0.961 . S
H1944 C1928 0.954 . S
H1945 C1933 0.930 . S
H1946 C1934 0.956 . S
H1947 C1934 0.961 1_455 S
H1948 C1934 0.961 . S
H1949 C1935 0.920 1_655 S
H1950 C1935 0.979 . S
H1951 C1935 1.004 . S
C1952 C1953 1.391 . S
C1952 C1954 1.394 . S
C1952 H1968 0.931 . S
C1953 C1952 1.391 . S
C1953 C1957 1.376 . S
C1954 C1952 1.394 . S
C1954 C1955 1.369 . S
C1954 C1958 1.531 . S
C1955 C1954 1.369 . S
C1955 C1956 1.410 . S
C1955 C1963 1.503 . S
C1956 C1955 1.410 . S
C1956 C1957 1.392 . S
C1956 C1959 1.511 . S
C1957 C1953 1.376 . S
C1957 C1956 1.392 . S
C1957 H1969 0.929 . S
C1958 C1954 1.531 . S
C1958 H1970 0.960 . S
C1958 H1971 0.962 . S
C1958 H1972 0.960 . S
C1959 C1956 1.511 . S
C1959 H1973 0.961 . S
C1959 H1974 0.961 . S
C1959 H1975 0.961 . S
C1960 C1961 1.370 . S
C1960 C1962 1.363 . S
C1960 H1976 0.931 . S
C1961 C1960 1.370 . S
C1961 C1965 1.408 . S
C1962 C1960 1.363 . S
C1962 C1963 1.370 . S
C1962 C1966 1.524 . S
C1963 C1955 1.503 . S
C1963 C1962 1.370 . S
C1963 C1964 1.403 . S
C1964 C1963 1.403 . S
C1964 C1965 1.404 . S
C1964 C1967 1.539 . S
C1965 C1961 1.408 . S
C1965 C1964 1.404 . S
C1965 H1977 0.930 . S
C1966 C1962 1.524 . S
C1966 H1978 0.956 . S
C1966 H1979 0.961 . S
C1966 H1980 0.961 . S
C1967 C1964 1.539 . S
C1967 H1981 0.958 . S
C1967 H1982 0.961 . S
C1967 H1983 0.960 . S
H1968 C1952 0.931 . S
H1969 C1957 0.929 . S
H1970 C1958 0.960 . S
H1971 C1958 0.962 . S
H1972 C1958 0.960 . S
H1973 C1959 0.961 . S
H1974 C1959 0.961 . S
H1975 C1959 0.961 . S
H1976 C1960 0.931 . S
H1977 C1965 0.930 . S
H1978 C1966 0.956 . S
H1979 C1966 0.961 . S
H1980 C1966 0.961 . S
H1981 C1967 0.958 . S
H1982 C1967 0.961 . S
H1983 C1967 0.960 . S
C1984 C1985 1.391 . S
C1984 C1986 1.394 . S
C1984 H2000 0.931 . S
C1985 C1984 1.391 . S
C1985 C1989 1.376 . S
C1986 C1984 1.394 . S
C1986 C1987 1.369 . S
C1986 C1990 1.531 . S
C1987 C1986 1.369 . S
C1987 C1988 1.410 . S
C1987 C1995 1.503 . S
C1988 C1987 1.410 . S
C1988 C1989 1.392 . S
C1988 C1991 1.511 . S
C1989 C1985 1.376 . S
C1989 C1988 1.392 . S
C1989 H2001 0.929 . S
C1990 C1986 1.531 . S
C1990 H2002 0.960 . S
C1990 H2003 0.962 . S
C1990 H2004 0.960 . S
C1991 C1988 1.511 . S
C1991 H2005 0.961 . S
C1991 H2006 0.961 . S
C1991 H2007 0.961 . S
C1992 C1993 1.370 . S
C1992 C1994 1.363 . S
C1992 H2008 0.931 . S
C1993 C1992 1.370 . S
C1993 C1997 1.408 . S
C1994 C1992 1.363 . S
C1994 C1995 1.370 . S
C1994 C1998 1.524 . S
C1995 C1987 1.503 . S
C1995 C1994 1.370 . S
C1995 C1996 1.403 . S
C1996 C1995 1.403 . S
C1996 C1997 1.404 . S
C1996 C1999 1.539 . S
C1997 C1993 1.408 . S
C1997 C1996 1.404 . S
C1997 H2009 0.930 . S
C1998 C1994 1.524 . S
C1998 H2010 0.956 . S
C1998 H2011 0.961 . S
C1998 H2012 0.961 . S
C1999 C1996 1.539 . S
C1999 H2013 0.958 . S
C1999 H2014 0.961 . S
C1999 H2015 0.960 . S
H2000 C1984 0.931 . S
H2001 C1989 0.929 . S
H2002 C1990 0.960 . S
H2003 C1990 0.962 . S
H2004 C1990 0.960 . S
H2005 C1991 0.961 . S
H2006 C1991 0.961 . S
H2007 C1991 0.961 . S
H2008 C1992 0.931 . S
H2009 C1997 0.930 . S
H2010 C1998 0.956 . S
H2011 C1998 0.961 . S
H2012 C1998 0.961 . S
H2013 C1999 0.958 . S
H2014 C1999 0.961 . S
H2015 C1999 0.960 . S
C2016 C2017 1.391 . S
C2016 C2018 1.394 . S
C2016 H2032 0.931 . S
C2017 C2016 1.391 . S
C2017 C2021 1.376 . S
C2018 C2016 1.394 . S
C2018 C2019 1.369 . S
C2018 C2022 1.531 . S
C2019 C2018 1.369 . S
C2019 C2020 1.410 . S
C2019 C2027 1.503 . S
C2020 C2019 1.410 . S
C2020 C2021 1.392 . S
C2020 C2023 1.511 . S
C2021 C2017 1.376 . S
C2021 C2020 1.392 . S
C2021 H2033 0.929 . S
C2022 C2018 1.531 . S
C2022 H2034 0.960 . S
C2022 H2035 0.962 . S
C2022 H2036 0.960 . S
C2023 C2020 1.511 . S
C2023 H2037 0.961 . S
C2023 H2038 0.961 . S
C2023 H2039 0.961 . S
C2024 C2025 1.370 . S
C2024 C2026 1.363 . S
C2024 H2040 0.931 . S
C2025 C2024 1.370 . S
C2025 C2029 1.408 . S
C2026 C2024 1.363 . S
C2026 C2027 1.370 . S
C2026 C2030 1.524 . S
C2027 C2019 1.503 . S
C2027 C2026 1.370 . S
C2027 C2028 1.403 . S
C2028 C2027 1.403 . S
C2028 C2029 1.404 . S
C2028 C2031 1.539 . S
C2029 C2025 1.408 . S
C2029 C2028 1.404 . S
C2029 H2041 0.930 . S
C2030 C2026 1.524 . S
C2030 H2042 0.956 . S
C2030 H2043 0.961 . S
C2030 H2044 0.961 . S
C2031 C2028 1.539 . S
C2031 H2045 0.958 . S
C2031 H2046 0.961 . S
C2031 H2047 0.960 . S
H2032 C2016 0.931 . S
H2033 C2021 0.929 . S
H2034 C2022 0.960 . S
H2035 C2022 0.962 . S
H2036 C2022 0.960 . S
H2037 C2023 0.961 . S
H2038 C2023 0.961 . S
H2039 C2023 0.961 . S
H2040 C2024 0.931 . S
H2041 C2029 0.930 . S
H2042 C2030 0.956 . S
H2043 C2030 0.961 . S
H2044 C2030 0.961 . S
H2045 C2031 0.958 . S
H2046 C2031 0.961 . S
H2047 C2031 0.960 . S
C2048 C2049 1.391 . S
C2048 C2050 1.394 . S
C2048 H2064 0.931 . S
C2049 C2048 1.391 . S
C2049 C2053 1.376 . S
C2050 C2048 1.394 . S
C2050 C2051 1.369 . S
C2050 C2054 1.531 . S
C2051 C2050 1.369 . S
C2051 C2052 1.410 . S
C2051 C2059 1.503 . S
C2052 C2051 1.410 . S
C2052 C2053 1.392 . S
C2052 C2055 1.511 . S
C2053 C2049 1.376 . S
C2053 C2052 1.392 . S
C2053 H2065 0.929 . S
C2054 C2050 1.531 . S
C2054 H2066 0.960 . S
C2054 H2067 0.962 . S
C2054 H2068 0.960 . S
C2055 C2052 1.511 . S
C2055 H2069 0.961 . S
C2055 H2070 0.961 . S
C2055 H2071 0.961 . S
C2056 C2057 1.370 . S
C2056 C2058 1.363 . S
C2056 H2072 0.931 . S
C2057 C2056 1.370 . S
C2057 C2061 1.408 . S
C2058 C2056 1.363 . S
C2058 C2059 1.370 . S
C2058 C2062 1.524 . S
C2059 C2051 1.503 . S
C2059 C2058 1.370 . S
C2059 C2060 1.403 . S
C2060 C2059 1.403 . S
C2060 C2061 1.404 . S
C2060 C2063 1.539 . S
C2061 C2057 1.408 . S
C2061 C2060 1.404 . S
C2061 H2073 0.930 . S
C2062 C2058 1.524 . S
C2062 H2074 0.956 . S
C2062 H2075 0.961 . S
C2062 H2076 0.961 . S
C2063 C2060 1.539 . S
C2063 H2077 0.958 . S
C2063 H2078 0.961 . S
C2063 H2079 0.960 . S
H2064 C2048 0.931 . S
H2065 C2053 0.929 . S
H2066 C2054 0.960 . S
H2067 C2054 0.962 . S
H2068 C2054 0.960 . S
H2069 C2055 0.961 . S
H2070 C2055 0.961 . S
H2071 C2055 0.961 . S
H2072 C2056 0.931 . S
H2073 C2061 0.930 . S
H2074 C2062 0.956 . S
H2075 C2062 0.961 . S
H2076 C2062 0.961 . S
H2077 C2063 0.958 . S
H2078 C2063 0.961 . S
H2079 C2063 0.960 . S
C2080 C2081 1.391 . S
C2080 C2082 1.394 . S
C2080 H2096 0.931 . S
C2081 C2080 1.391 . S
C2081 C2085 1.376 . S
C2082 C2080 1.394 . S
C2082 C2083 1.369 . S
C2082 C2086 1.531 . S
C2083 C2082 1.369 . S
C2083 C2084 1.410 . S
C2083 C2091 1.503 . S
C2084 C2083 1.410 . S
C2084 C2085 1.392 . S
C2084 C2087 1.511 . S
C2085 C2081 1.376 . S
C2085 C2084 1.392 . S
C2085 H2097 0.929 . S
C2086 C2082 1.531 . S
C2086 H2098 0.960 . S
C2086 H2099 0.962 . S
C2086 H2100 0.960 . S
C2087 C2084 1.511 . S
C2087 H2101 0.961 . S
C2087 H2102 0.961 . S
C2087 H2103 0.961 . S
C2088 C2089 1.370 . S
C2088 C2090 1.363 . S
C2088 H2104 0.931 . S
C2089 C2088 1.370 . S
C2089 C2093 1.408 . S
C2090 C2088 1.363 . S
C2090 C2091 1.370 . S
C2090 C2094 1.524 . S
C2091 C2083 1.503 . S
C2091 C2090 1.370 . S
C2091 C2092 1.403 . S
C2092 C2091 1.403 . S
C2092 C2093 1.404 . S
C2092 C2095 1.539 . S
C2093 C2089 1.408 . S
C2093 C2092 1.404 . S
C2093 H2105 0.930 . S
C2094 C2090 1.524 . S
C2094 H2106 0.956 . S
C2094 H2107 0.961 . S
C2094 H2108 0.961 . S
C2095 C2092 1.539 . S
C2095 H2109 0.958 . S
C2095 H2110 0.961 . S
C2095 H2111 0.960 . S
H2096 C2080 0.931 . S
H2097 C2085 0.929 . S
H2098 C2086 0.960 . S
H2099 C2086 0.962 . S
H2100 C2086 0.960 . S
H2101 C2087 0.961 . S
H2102 C2087 0.961 . S
H2103 C2087 0.961 . S
H2104 C2088 0.931 . S
H2105 C2093 0.930 . S
H2106 C2094 0.956 . S
H2107 C2094 0.961 . S
H2108 C2094 0.961 . S
H2109 C2095 0.958 . S
H2110 C2095 0.961 . S
H2111 C2095 0.960 . S
C2112 C2113 1.391 . S
C2112 C2114 1.394 . S
C2112 H2128 0.931 . S
C2113 C2112 1.391 . S
C2113 C2117 1.376 . S
C2114 C2112 1.394 . S
C2114 C2115 1.369 . S
C2114 C2118 1.531 . S
C2115 C2114 1.369 . S
C2115 C2116 1.410 . S
C2115 C2123 1.503 . S
C2116 C2115 1.410 . S
C2116 C2117 1.392 . S
C2116 C2119 1.511 . S
C2117 C2113 1.376 . S
C2117 C2116 1.392 . S
C2117 H2129 0.929 . S
C2118 C2114 1.531 . S
C2118 H2130 0.960 . S
C2118 H2131 0.962 . S
C2118 H2132 0.960 . S
C2119 C2116 1.511 . S
C2119 H2133 0.961 . S
C2119 H2134 0.961 . S
C2119 H2135 0.961 . S
C2120 C2121 1.370 . S
C2120 C2122 1.363 . S
C2120 H2136 0.931 . S
C2121 C2120 1.370 . S
C2121 C2125 1.408 . S
C2122 C2120 1.363 . S
C2122 C2123 1.370 . S
C2122 C2126 1.524 . S
C2123 C2115 1.503 . S
C2123 C2122 1.370 . S
C2123 C2124 1.403 . S
C2124 C2123 1.403 . S
C2124 C2125 1.404 . S
C2124 C2127 1.539 . S
C2125 C2121 1.408 . S
C2125 C2124 1.404 . S
C2125 H2137 0.930 . S
C2126 C2122 1.524 . S
C2126 H2138 0.956 . S
C2126 H2139 0.961 . S
C2126 H2140 0.961 . S
C2127 C2124 1.539 . S
C2127 H2141 0.958 . S
C2127 H2142 0.961 . S
C2127 H2143 0.960 . S
H2128 C2112 0.931 . S
H2129 C2117 0.929 . S
H2130 C2118 0.960 . S
H2131 C2118 0.962 . S
H2132 C2118 0.960 . S
H2133 C2119 0.961 . S
H2134 C2119 0.961 . S
H2135 C2119 0.961 . S
H2136 C2120 0.931 . S
H2137 C2125 0.930 . S
H2138 C2126 0.956 . S
H2139 C2126 0.961 . S
H2140 C2126 0.961 . S
H2141 C2127 0.958 . S
H2142 C2127 0.961 . S
H2143 C2127 0.960 . S
C2144 C2145 1.391 . S
C2144 C2146 1.394 . S
C2144 H2160 0.931 . S
C2145 C2144 1.391 . S
C2145 C2149 1.376 . S
C2146 C2144 1.394 . S
C2146 C2147 1.369 . S
C2146 C2150 1.531 . S
C2147 C2146 1.369 . S
C2147 C2148 1.410 . S
C2147 C2155 1.503 . S
C2148 C2147 1.410 . S
C2148 C2149 1.392 . S
C2148 C2151 1.511 . S
C2149 C2145 1.376 . S
C2149 C2148 1.392 . S
C2149 H2161 0.929 . S
C2150 C2146 1.531 . S
C2150 H2162 0.960 . S
C2150 H2163 0.962 . S
C2150 H2164 0.960 . S
C2151 C2148 1.511 . S
C2151 H2165 0.961 . S
C2151 H2166 0.961 . S
C2151 H2167 0.961 . S
C2152 C2153 1.370 . S
C2152 C2154 1.363 . S
C2152 H2168 0.931 . S
C2153 C2152 1.370 . S
C2153 C2157 1.408 . S
C2154 C2152 1.363 . S
C2154 C2155 1.370 . S
C2154 C2158 1.524 . S
C2155 C2147 1.503 . S
C2155 C2154 1.370 . S
C2155 C2156 1.403 . S
C2156 C2155 1.403 . S
C2156 C2157 1.404 . S
C2156 C2159 1.539 . S
C2157 C2153 1.408 . S
C2157 C2156 1.404 . S
C2157 H2169 0.930 . S
C2158 C2154 1.524 . S
C2158 H2170 0.956 . S
C2158 H2171 0.961 . S
C2158 H2172 0.961 . S
C2159 C2156 1.539 . S
C2159 H2173 0.958 . S
C2159 H2174 0.961 . S
C2159 H2175 0.960 . S
H2160 C2144 0.931 . S
H2161 C2149 0.929 . S
H2162 C2150 0.960 . S
H2163 C2150 0.962 . S
H2164 C2150 0.960 . S
H2165 C2151 0.961 . S
H2166 C2151 0.961 . S
H2167 C2151 0.961 . S
H2168 C2152 0.931 . S
H2169 C2157 0.930 . S
H2170 C2158 0.956 . S
H2171 C2158 0.961 . S
H2172 C2158 0.961 . S
H2173 C2159 0.958 . S
H2174 C2159 0.961 . S
H2175 C2159 0.960 . S
C2176 C2177 1.391 . S
C2176 C2178 1.394 . S
C2176 H2192 0.931 . S
C2177 C2176 1.391 . S
C2177 C2181 1.376 . S
C2178 C2176 1.394 . S
C2178 C2179 1.369 . S
C2178 C2182 1.531 . S
C2179 C2178 1.369 . S
C2179 C2180 1.410 . S
C2179 C2187 1.503 . S
C2180 C2179 1.410 . S
C2180 C2181 1.392 . S
C2180 C2183 1.511 . S
C2181 C2177 1.376 . S
C2181 C2180 1.392 . S
C2181 H2193 0.929 . S
C2182 C2178 1.531 . S
C2182 H2194 0.960 . S
C2182 H2195 0.962 . S
C2182 H2196 0.960 . S
C2183 C2180 1.511 . S
C2183 H2197 0.961 . S
C2183 H2198 0.961 . S
C2183 H2199 0.961 . S
C2184 C2185 1.370 . S
C2184 C2186 1.363 . S
C2184 H2200 0.931 . S
C2185 C2184 1.370 . S
C2185 C2189 1.408 . S
C2186 C2184 1.363 . S
C2186 C2187 1.370 . S
C2186 C2190 1.524 . S
C2187 C2179 1.503 . S
C2187 C2186 1.370 . S
C2187 C2188 1.403 . S
C2188 C2187 1.403 . S
C2188 C2189 1.404 . S
C2188 C2191 1.539 . S
C2189 C2185 1.408 . S
C2189 C2188 1.404 . S
C2189 H2201 0.930 . S
C2190 C2186 1.524 . S
C2190 H2202 0.956 . S
C2190 H2203 0.961 . S
C2190 H2204 0.961 . S
C2191 C2188 1.539 . S
C2191 H2205 0.958 . S
C2191 H2206 0.961 . S
C2191 H2207 0.960 . S
H2192 C2176 0.931 . S
H2193 C2181 0.929 . S
H2194 C2182 0.960 . S
H2195 C2182 0.962 . S
H2196 C2182 0.960 . S
H2197 C2183 0.961 . S
H2198 C2183 0.961 . S
H2199 C2183 0.961 . S
H2200 C2184 0.931 . S
H2201 C2189 0.930 . S
H2202 C2190 0.956 . S
H2203 C2190 0.961 . S
H2204 C2190 0.961 . S
H2205 C2191 0.958 . S
H2206 C2191 0.961 . S
H2207 C2191 0.960 . S
C2208 C2209 1.391 . S
C2208 C2210 1.394 . S
C2208 H2224 0.931 . S
C2209 C2208 1.391 . S
C2209 C2213 1.376 . S
C2210 C2208 1.394 . S
C2210 C2211 1.369 . S
C2210 C2214 1.531 . S
C2211 C2210 1.369 . S
C2211 C2212 1.410 . S
C2211 C2219 1.503 . S
C2212 C2211 1.410 . S
C2212 C2213 1.392 . S
C2212 C2215 1.511 . S
C2213 C2209 1.376 . S
C2213 C2212 1.392 . S
C2213 H2225 0.929 . S
C2214 C2210 1.531 . S
C2214 H2226 0.960 . S
C2214 H2227 0.962 . S
C2214 H2228 0.960 . S
C2215 C2212 1.511 . S
C2215 H2229 0.961 . S
C2215 H2230 0.961 . S
C2215 H2231 0.961 . S
C2216 C2217 1.370 . S
C2216 C2218 1.363 . S
C2216 H2232 0.931 . S
C2217 C2216 1.370 . S
C2217 C2221 1.408 . S
C2218 C2216 1.363 . S
C2218 C2219 1.370 . S
C2218 C2222 1.524 . S
C2219 C2211 1.503 . S
C2219 C2218 1.370 . S
C2219 C2220 1.403 . S
C2220 C2219 1.403 . S
C2220 C2221 1.404 . S
C2220 C2223 1.539 . S
C2221 C2217 1.408 . S
C2221 C2220 1.404 . S
C2221 H2233 0.930 . S
C2222 C2218 1.524 . S
C2222 H2234 0.956 . S
C2222 H2235 0.961 . S
C2222 H2236 0.961 . S
C2223 C2220 1.539 . S
C2223 H2237 0.958 . S
C2223 H2238 0.961 . S
C2223 H2239 0.960 . S
H2224 C2208 0.931 . S
H2225 C2213 0.929 . S
H2226 C2214 0.960 . S
H2227 C2214 0.962 . S
H2228 C2214 0.960 . S
H2229 C2215 0.961 . S
H2230 C2215 0.961 . S
H2231 C2215 0.961 . S
H2232 C2216 0.931 . S
H2233 C2221 0.930 . S
H2234 C2222 0.956 . S
H2235 C2222 0.961 . S
H2236 C2222 0.961 . S
H2237 C2223 0.958 . S
H2238 C2223 0.961 . S
H2239 C2223 0.960 . S
C2240 C2241 1.391 . S
C2240 C2242 1.394 . S
C2240 H2256 0.931 . S
C2241 C2240 1.391 . S
C2241 C2245 1.376 . S
C2242 C2240 1.394 . S
C2242 C2243 1.369 . S
C2242 C2246 1.531 . S
C2243 C2242 1.369 . S
C2243 C2244 1.410 . S
C2243 C2251 1.503 . S
C2244 C2243 1.410 . S
C2244 C2245 1.392 . S
C2244 C2247 1.511 . S
C2245 C2241 1.376 . S
C2245 C2244 1.392 . S
C2245 H2257 0.929 . S
C2246 C2242 1.531 . S
C2246 H2258 0.960 . S
C2246 H2259 0.962 . S
C2246 H2260 0.960 . S
C2247 C2244 1.511 . S
C2247 H2261 0.961 . S
C2247 H2262 0.961 . S
C2247 H2263 0.961 . S
C2248 C2249 1.370 . S
C2248 C2250 1.363 . S
C2248 H2264 0.931 . S
C2249 C2248 1.370 . S
C2249 C2253 1.408 . S
C2250 C2248 1.363 . S
C2250 C2251 1.370 . S
C2250 C2254 1.524 . S
C2251 C2243 1.503 . S
C2251 C2250 1.370 . S
C2251 C2252 1.403 . S
C2252 C2251 1.403 . S
C2252 C2253 1.404 . S
C2252 C2255 1.539 . S
C2253 C2249 1.408 . S
C2253 C2252 1.404 . S
C2253 H2265 0.930 . S
C2254 C2250 1.524 . S
C2254 H2266 0.956 . S
C2254 H2267 0.961 . S
C2254 H2268 0.961 . S
C2255 C2252 1.539 . S
C2255 H2269 0.958 . S
C2255 H2270 0.961 . S
C2255 H2271 0.960 . S
H2256 C2240 0.931 . S
H2257 C2245 0.929 . S
H2258 C2246 0.960 . S
H2259 C2246 0.962 . S
H2260 C2246 0.960 . S
H2261 C2247 0.961 . S
H2262 C2247 0.961 . S
H2263 C2247 0.961 . S
H2264 C2248 0.931 . S
H2265 C2253 0.930 . S
H2266 C2254 0.956 . S
H2267 C2254 0.961 . S
H2268 C2254 0.961 . S
H2269 C2255 0.958 . S
H2270 C2255 0.961 . S
H2271 C2255 0.960 . S
C2272 C2273 1.391 . S
C2272 C2274 1.394 . S
C2272 H2288 0.931 . S
C2273 C2272 1.391 . S
C2273 C2277 1.376 . S
C2274 C2272 1.394 . S
C2274 C2275 1.369 . S
C2274 C2278 1.531 . S
C2275 C2274 1.369 . S
C2275 C2276 1.410 . S
C2275 C2283 1.503 . S
C2276 C2275 1.410 . S
C2276 C2277 1.392 . S
C2276 C2279 1.511 . S
C2277 C2273 1.376 . S
C2277 C2276 1.392 . S
C2277 H2289 0.929 . S
C2278 C2274 1.531 . S
C2278 H2290 0.960 . S
C2278 H2291 0.962 . S
C2278 H2292 0.960 . S
C2279 C2276 1.511 . S
C2279 H2293 0.961 . S
C2279 H2294 0.961 . S
C2279 H2295 0.961 . S
C2280 C2281 1.370 . S
C2280 C2282 1.363 . S
C2280 H2296 0.931 . S
C2281 C2280 1.370 . S
C2281 C2285 1.408 . S
C2282 C2280 1.363 . S
C2282 C2283 1.370 . S
C2282 C2286 1.524 . S
C2283 C2275 1.503 . S
C2283 C2282 1.370 . S
C2283 C2284 1.403 . S
C2284 C2283 1.403 . S
C2284 C2285 1.404 . S
C2284 C2287 1.539 . S
C2285 C2281 1.408 . S
C2285 C2284 1.404 . S
C2285 H2297 0.930 . S
C2286 C2282 1.524 . S
C2286 H2298 0.956 . S
C2286 H2299 0.961 . S
C2286 H2300 0.961 . S
C2287 C2284 1.539 . S
C2287 H2301 0.958 . S
C2287 H2302 0.961 . S
C2287 H2303 0.960 . S
H2288 C2272 0.931 . S
H2289 C2277 0.929 . S
H2290 C2278 0.960 . S
H2291 C2278 0.962 . S
H2292 C2278 0.960 . S
H2293 C2279 0.961 . S
H2294 C2279 0.961 . S
H2295 C2279 0.961 . S
H2296 C2280 0.931 . S
H2297 C2285 0.930 . S
H2298 C2286 0.956 . S
H2299 C2286 0.961 . S
H2300 C2286 0.961 . S
H2301 C2287 0.958 . S
H2302 C2287 0.961 . S
H2303 C2287 0.960 . S
C2304 C2305 1.391 . S
C2304 C2306 1.394 . S
C2304 H2320 0.931 . S
C2305 C2304 1.391 . S
C2305 C2309 1.376 . S
C2306 C2304 1.394 . S
C2306 C2307 1.369 . S
C2306 C2310 1.531 . S
C2307 C2306 1.369 . S
C2307 C2308 1.410 . S
C2307 C2315 1.503 . S
C2308 C2307 1.410 . S
C2308 C2309 1.392 . S
C2308 C2311 1.511 . S
C2309 C2305 1.376 . S
C2309 C2308 1.392 . S
C2309 H2321 0.929 . S
C2310 C2306 1.531 . S
C2310 H2322 0.960 . S
C2310 H2323 0.962 . S
C2310 H2324 0.960 . S
C2311 C2308 1.511 . S
C2311 H2325 0.961 . S
C2311 H2326 0.961 . S
C2311 H2327 0.961 . S
C2312 C2313 1.370 . S
C2312 C2314 1.363 . S
C2312 H2328 0.931 . S
C2313 C2312 1.370 . S
C2313 C2317 1.408 . S
C2314 C2312 1.363 . S
C2314 C2315 1.370 . S
C2314 C2318 1.524 . S
C2315 C2307 1.503 . S
C2315 C2314 1.370 . S
C2315 C2316 1.403 . S
C2316 C2315 1.403 . S
C2316 C2317 1.404 . S
C2316 C2319 1.539 . S
C2317 C2313 1.408 . S
C2317 C2316 1.404 . S
C2317 H2329 0.930 . S
C2318 C2314 1.524 . S
C2318 H2330 0.956 . S
C2318 H2331 0.961 . S
C2318 H2332 0.961 . S
C2319 C2316 1.539 . S
C2319 H2333 0.958 . S
C2319 H2334 0.961 . S
C2319 H2335 0.960 . S
H2320 C2304 0.931 . S
H2321 C2309 0.929 . S
H2322 C2310 0.960 . S
H2323 C2310 0.962 . S
H2324 C2310 0.960 . S
H2325 C2311 0.961 . S
H2326 C2311 0.961 . S
H2327 C2311 0.961 . S
H2328 C2312 0.931 . S
H2329 C2317 0.930 . S
H2330 C2318 0.956 . S
H2331 C2318 0.961 . S
H2332 C2318 0.961 . S
H2333 C2319 0.958 . S
H2334 C2319 0.961 . S
H2335 C2319 0.960 . S
C2336 C2337 1.391 . S
C2336 C2338 1.394 . S
C2336 H2352 0.931 . S
C2337 C2336 1.391 . S
C2337 C2341 1.376 . S
C2338 C2336 1.394 . S
C2338 C2339 1.369 . S
C2338 C2342 1.531 . S
C2339 C2338 1.369 . S
C2339 C2340 1.410 . S
C2339 C2347 1.503 . S
C2340 C2339 1.410 . S
C2340 C2341 1.392 . S
C2340 C2343 1.511 . S
C2341 C2337 1.376 . S
C2341 C2340 1.392 . S
C2341 H2353 0.929 . S
C2342 C2338 1.531 . S
C2342 H2354 0.960 . S
C2342 H2355 0.962 . S
C2342 H2356 0.960 . S
C2343 C2340 1.511 . S
C2343 H2357 0.961 . S
C2343 H2358 0.961 . S
C2343 H2359 0.961 . S
C2344 C2345 1.370 . S
C2344 C2346 1.363 . S
C2344 H2360 0.931 . S
C2345 C2344 1.370 . S
C2345 C2349 1.408 . S
C2346 C2344 1.363 . S
C2346 C2347 1.370 . S
C2346 C2350 1.524 . S
C2347 C2339 1.503 . S
C2347 C2346 1.370 . S
C2347 C2348 1.403 . S
C2348 C2347 1.403 . S
C2348 C2349 1.404 . S
C2348 C2351 1.539 . S
C2349 C2345 1.408 . S
C2349 C2348 1.404 . S
C2349 H2361 0.930 . S
C2350 C2346 1.524 . S
C2350 H2362 0.956 . S
C2350 H2363 0.961 . S
C2350 H2364 0.961 . S
C2351 C2348 1.539 . S
C2351 H2365 0.958 . S
C2351 H2366 0.961 . S
C2351 H2367 0.960 . S
H2352 C2336 0.931 . S
H2353 C2341 0.929 . S
H2354 C2342 0.960 . S
H2355 C2342 0.962 . S
H2356 C2342 0.960 . S
H2357 C2343 0.961 . S
H2358 C2343 0.961 . S
H2359 C2343 0.961 . S
H2360 C2344 0.931 . S
H2361 C2349 0.930 . S
H2362 C2350 0.956 . S
H2363 C2350 0.961 . S
H2364 C2350 0.961 . S
H2365 C2351 0.958 . S
H2366 C2351 0.961 . S
H2367 C2351 0.960 . S
C2368 C2369 1.391 . S
C2368 C2370 1.394 . S
C2368 H2384 0.931 . S
C2369 C2368 1.391 . S
C2369 C2373 1.376 . S
C2370 C2368 1.394 . S
C2370 C2371 1.369 . S
C2370 C2374 1.531 . S
C2371 C2370 1.369 . S
C2371 C2372 1.410 . S
C2371 C2379 1.503 . S
C2372 C2371 1.410 . S
C2372 C2373 1.392 . S
C2372 C2375 1.511 . S
C2373 C2369 1.376 . S
C2373 C2372 1.392 . S
C2373 H2385 0.929 . S
C2374 C2370 1.531 . S
C2374 H2386 0.960 . S
C2374 H2387 0.962 . S
C2374 H2388 0.960 . S
C2375 C2372 1.511 . S
C2375 H2389 0.961 . S
C2375 H2390 0.961 . S
C2375 H2391 0.961 . S
C2376 C2377 1.370 . S
C2376 C2378 1.363 . S
C2376 H2392 0.931 . S
C2377 C2376 1.370 . S
C2377 C2381 1.408 . S
C2378 C2376 1.363 . S
C2378 C2379 1.370 . S
C2378 C2382 1.524 . S
C2379 C2371 1.503 . S
C2379 C2378 1.370 . S
C2379 C2380 1.403 . S
C2380 C2379 1.403 . S
C2380 C2381 1.404 . S
C2380 C2383 1.539 . S
C2381 C2377 1.408 . S
C2381 C2380 1.404 . S
C2381 H2393 0.930 . S
C2382 C2378 1.524 . S
C2382 H2394 0.956 . S
C2382 H2395 0.961 . S
C2382 H2396 0.961 . S
C2383 C2380 1.539 . S
C2383 H2397 0.958 . S
C2383 H2398 0.961 . S
C2383 H2399 0.960 . S
H2384 C2368 0.931 . S
H2385 C2373 0.929 . S
H2386 C2374 0.960 . S
H2387 C2374 0.962 . S
H2388 C2374 0.960 . S
H2389 C2375 0.961 . S
H2390 C2375 0.961 . S
H2391 C2375 0.961 . S
H2392 C2376 0.931 . S
H2393 C2381 0.930 . S
H2394 C2382 0.956 . S
H2395 C2382 0.961 . S
H2396 C2382 0.961 . S
H2397 C2383 0.958 . S
H2398 C2383 0.961 . S
H2399 C2383 0.960 . S
C2400 C2401 1.391 . S
C2400 C2402 1.394 . S
C2400 H2416 0.931 . S
C2401 C2400 1.391 . S
C2401 C2405 1.376 . S
C2402 C2400 1.394 . S
C2402 C2403 1.369 . S
C2402 C2406 1.531 . S
C2403 C2402 1.369 . S
C2403 C2404 1.410 . S
C2403 C2411 1.503 . S
C2404 C2403 1.410 . S
C2404 C2405 1.392 . S
C2404 C2407 1.511 . S
C2405 C2401 1.376 . S
C2405 C2404 1.392 . S
C2405 H2417 0.929 . S
C2406 C2402 1.531 . S
C2406 H2418 0.960 . S
C2406 H2419 0.962 . S
C2406 H2420 0.960 . S
C2407 C2404 1.511 . S
C2407 H2421 0.961 . S
C2407 H2422 0.961 . S
C2407 H2423 0.961 . S
C2408 C2409 1.370 . S
C2408 C2410 1.363 . S
C2408 H2424 0.931 . S
C2409 C2408 1.370 . S
C2409 C2413 1.408 . S
C2410 C2408 1.363 . S
C2410 C2411 1.370 . S
C2410 C2414 1.524 . S
C2411 C2403 1.503 . S
C2411 C2410 1.370 . S
C2411 C2412 1.403 . S
C2412 C2411 1.403 . S
C2412 C2413 1.404 . S
C2412 C2415 1.539 . S
C2413 C2409 1.408 . S
C2413 C2412 1.404 . S
C2413 H2425 0.930 . S
C2414 C2410 1.524 . S
C2414 H2426 0.956 . S
C2414 H2427 0.961 . S
C2414 H2428 0.961 . S
C2415 C2412 1.539 . S
C2415 H2429 0.958 . S
C2415 H2430 0.961 . S
C2415 H2431 0.960 . S
H2416 C2400 0.931 . S
H2417 C2405 0.929 . S
H2418 C2406 0.960 . S
H2419 C2406 0.962 . S
H2420 C2406 0.960 . S
H2421 C2407 0.961 . S
H2422 C2407 0.961 . S
H2423 C2407 0.961 . S
H2424 C2408 0.931 . S
H2425 C2413 0.930 . S
H2426 C2414 0.956 . S
H2427 C2414 0.961 . S
H2428 C2414 0.961 . S
H2429 C2415 0.958 . S
H2430 C2415 0.961 . S
H2431 C2415 0.960 . S
C2432 C2433 1.391 . S
C2432 C2434 1.394 . S
C2432 H2448 0.931 . S
C2433 C2432 1.391 . S
C2433 C2437 1.376 . S
C2434 C2432 1.394 . S
C2434 C2435 1.369 . S
C2434 C2438 1.531 . S
C2435 C2434 1.369 . S
C2435 C2436 1.410 . S
C2435 C2443 1.503 . S
C2436 C2435 1.410 . S
C2436 C2437 1.392 . S
C2436 C2439 1.511 . S
C2437 C2433 1.376 . S
C2437 C2436 1.392 . S
C2437 H2449 0.929 . S
C2438 C2434 1.531 . S
C2438 H2450 0.960 . S
C2438 H2451 0.962 . S
C2438 H2452 0.960 . S
C2439 C2436 1.511 . S
C2439 H2453 0.961 . S
C2439 H2454 0.961 . S
C2439 H2455 0.961 . S
C2440 C2441 1.370 . S
C2440 C2442 1.363 . S
C2440 H2456 0.931 . S
C2441 C2440 1.370 . S
C2441 C2445 1.408 . S
C2442 C2440 1.363 . S
C2442 C2443 1.370 . S
C2442 C2446 1.524 . S
C2443 C2435 1.503 . S
C2443 C2442 1.370 . S
C2443 C2444 1.403 . S
C2444 C2443 1.403 . S
C2444 C2445 1.404 . S
C2444 C2447 1.539 . S
C2445 C2441 1.408 . S
C2445 C2444 1.404 . S
C2445 H2457 0.930 . S
C2446 C2442 1.524 . S
C2446 H2458 0.956 . S
C2446 H2459 0.961 . S
C2446 H2460 0.961 . S
C2447 C2444 1.539 . S
C2447 H2461 0.958 . S
C2447 H2462 0.961 . S
C2447 H2463 0.960 . S
H2448 C2432 0.931 . S
H2449 C2437 0.929 . S
H2450 C2438 0.960 . S
H2451 C2438 0.962 . S
H2452 C2438 0.960 . S
H2453 C2439 0.961 . S
H2454 C2439 0.961 . S
H2455 C2439 0.961 . S
H2456 C2440 0.931 . S
H2457 C2445 0.930 . S
H2458 C2446 0.956 . S
H2459 C2446 0.961 . S
H2460 C2446 0.961 . S
H2461 C2447 0.958 . S
H2462 C2447 0.961 . S
H2463 C2447 0.960 . S
C2464 C2465 1.391 . S
C2464 C2466 1.394 . S
C2464 H2480 0.931 . S
C2465 C2464 1.391 . S
C2465 C2469 1.376 . S
C2466 C2464 1.394 . S
C2466 C2467 1.369 . S
C2466 C2470 1.531 . S
C2467 C2466 1.369 . S
C2467 C2468 1.410 . S
C2467 C2475 1.503 . S
C2468 C2467 1.410 . S
C2468 C2469 1.392 . S
C2468 C2471 1.511 . S
C2469 C2465 1.376 . S
C2469 C2468 1.392 . S
C2469 H2481 0.929 . S
C2470 C2466 1.531 . S
C2470 H2482 0.960 . S
C2470 H2483 0.962 . S
C2470 H2484 0.960 . S
C2471 C2468 1.511 . S
C2471 H2485 0.961 . S
C2471 H2486 0.961 . S
C2471 H2487 0.961 . S
C2472 C2473 1.370 . S
C2472 C2474 1.363 . S
C2472 H2488 0.931 . S
C2473 C2472 1.370 . S
C2473 C2477 1.408 . S
C2474 C2472 1.363 . S
C2474 C2475 1.370 . S
C2474 C2478 1.524 . S
C2475 C2467 1.503 . S
C2475 C2474 1.370 . S
C2475 C2476 1.403 . S
C2476 C2475 1.403 . S
C2476 C2477 1.404 . S
C2476 C2479 1.539 . S
C2477 C2473 1.408 . S
C2477 C2476 1.404 . S
C2477 H2489 0.930 . S
C2478 C2474 1.524 . S
C2478 H2490 0.956 . S
C2478 H2491 0.961 . S
C2478 H2492 0.961 . S
C2479 C2476 1.539 . S
C2479 H2493 0.958 . S
C2479 H2494 0.961 . S
C2479 H2495 0.960 . S
H2480 C2464 0.931 . S
H2481 C2469 0.929 . S
H2482 C2470 0.960 . S
H2483 C2470 0.962 . S
H2484 C2470 0.960 . S
H2485 C2471 0.961 . S
H2486 C2471 0.961 . S
H2487 C2471 0.961 . S
H2488 C2472 0.931 . S
H2489 C2477 0.930 . S
H2490 C2478 0.956 . S
H2491 C2478 0.961 . S
H2492 C2478 0.961 . S
H2493 C2479 0.958 . S
H2494 C2479 0.961 . S
H2495 C2479 0.960 . S
C449 C135 1.493 . S
C457 C8 1.591 . S
C481 C22 1.593 1_455 S
C489 C373 1.509 . S
C513 C163 1.511 . S
C521 C36 1.592 . S
C545 C345 1.504 . S
C553 C50 1.592 . S
C577 C64 1.589 . S
C585 C219 1.504 . S
C609 C401 1.546 . S
C617 C78 1.587 . S
C641 C92 1.571 . S
C649 C191 1.520 . S
C673 C429 1.546 . S
C681 C106 1.590 1_455 S
C705 C23 1.481 . S
C713 C120 1.590 . S
C737 C134 1.582 1_655 S
C745 C261 1.501 . S
C769 C51 1.482 . S
C777 C148 1.585 . S
C801 C162 1.571 . S
C809 C233 1.523 . S
C833 C176 1.573 . S
C841 C107 1.507 . S
C865 C289 1.507 . S
C873 C190 1.582 . S
C897 C204 1.596 . S
C905 C79 1.515 . S
C929 C317 1.537 . S
C937 C218 1.590 1_655 S
C961 C359 1.533 . S
C969 C232 1.592 . S
C993 C149 1.525 . S
C1001 C246 1.582 . S
C1025 C260 1.582 . S
C1033 C387 1.530 . S
C1057 C121 1.537 . S
C1065 C274 1.592 1_655 S
C1089 C443 1.492 . S
C1097 C288 1.582 . S
C1121 C302 1.595 1_655 S
C1129 C177 1.523 . S
C1153 C415 1.477 . S
C1161 C316 1.584 . S
C1185 C205 1.488 . S
C1193 C330 1.582 . S
C1217 C247 1.547 . S
C1225 C344 1.586 . S
C1249 C358 1.596 . S
C1257 C37 1.510 . S
C1281 C372 1.596 . S
C1289 C275 1.516 . S
C1313 C386 1.570 1_455 S
C1321 C9 1.514 . S
C1345 C331 1.547 . S
C1353 C400 1.586 . S
C1377 C414 1.591 1_455 S
C1385 C65 1.526 . S
C1409 C428 1.572 . S
C1417 C303 1.509 . S
C1441 C442 1.596 . S
C1449 C93 1.516 . S
C1473 C342 1.451 . S
C1481 C6 1.446 . S
C1505 C20 1.446 . S
C1513 C132 1.449 . S
C1537 C34 1.453 . S
C1545 C370 1.446 . S
C1569 C48 1.453 . S
C1577 C160 1.446 . S
C1601 C62 1.449 . S
C1609 C398 1.447 . S
C1633 C76 1.452 . S
C1641 C188 1.446 . S
C1665 C426 1.438 . S
C1673 C90 1.452 . S
C1697 C104 1.451 . S
C1705 C216 1.447 . S
C1729 C118 1.446 . S
C1737 C230 1.448 . S
C1761 C146 1.438 . S
C1769 C258 1.452 . S
C1793 C286 1.441 . S
C1801 C174 1.451 . S
C1825 C314 1.441 . S
C1833 C202 1.451 . S
C1857 C244 1.437 . S
C1865 C356 1.452 . S
C1889 C384 1.445 . S
C1897 C272 1.448 . S
C1921 C300 1.448 . S
C1929 C412 1.447 . S
C1953 C440 1.442 . S
C1961 C328 1.451 . S
C1985 C301 1.311 . S
C1993 C7 1.308 . S
C2017 C315 1.333 . S
C2025 C21 1.320 . S
C2049 C35 1.277 . S
C2057 C329 1.296 . S
C2081 C287 1.276 . S
C2089 C49 1.296 . S
C2113 C273 1.295 . S
C2121 C63 1.302 . S
C2145 C231 1.328 . S
C2153 C77 1.319 . S
C2177 C91 1.334 . S
C2185 C245 1.320 . S
C2209 C259 1.300 . S
C2217 C105 1.309 . S
C2241 C413 1.276 . S
C2249 C119 1.296 . S
C2273 C427 1.300 . S
C2281 C133 1.307 . S
C2305 C441 1.328 . S
C2313 C147 1.317 . S
C2337 C161 1.276 . S
C2345 C399 1.296 . S
C2369 C385 1.284 . S
C2377 C175 1.299 . S
C2401 C343 1.313 . S
C2409 C189 1.310 . S
C2433 C357 1.333 . S
C2441 C203 1.320 . S
C2465 C371 1.314 . S
C2473 C217 1.311 . S
