# Generated by pormake.
# Topology wjx, (5)-cn, num edge types: 1
# Building blocks:
#     Node 0, Type 0, BuildingBlock: BEQFEK_clean_sbu_0, # of connection points: 5
#     Node 1, Type 0, BuildingBlock: BEQFEK_clean_sbu_0, # of connection points: 5
#     Node 2, Type 0, BuildingBlock: BEQFEK_clean_sbu_0, # of connection points: 5
#     Node 3, Type 0, BuildingBlock: BEQFEK_clean_sbu_0, # of connection points: 5
#     Node 4, Type 0, BuildingBlock: BEQFEK_clean_sbu_0, # of connection points: 5
#     Node 5, Type 0, BuildingBlock: BEQFEK_clean_sbu_0, # of connection points: 5
#     Node 6, Type 0, BuildingBlock: BEQFEK_clean_sbu_0, # of connection points: 5
#     Node 7, Type 0, BuildingBlock: BEQFEK_clean_sbu_0, # of connection points: 5
#     Node 8, Type 0, BuildingBlock: BEQFEK_clean_sbu_0, # of connection points: 5
#     Node 9, Type 0, BuildingBlock: BEQFEK_clean_sbu_0, # of connection points: 5
#     Node 10, Type 0, BuildingBlock: BEQFEK_clean_sbu_0, # of connection points: 5
#     Node 11, Type 0, BuildingBlock: BEQFEK_clean_sbu_0, # of connection points: 5
#     Edge 12, Type (0, 0), BuildingBlock: KIFKEQ_clean_linker_1, # of connection points: 2
#     Edge 13, Type (0, 0), BuildingBlock: KIFKEQ_clean_linker_1, # of connection points: 2
#     Edge 14, Type (0, 0), BuildingBlock: KIFKEQ_clean_linker_1, # of connection points: 2
#     Edge 15, Type (0, 0), BuildingBlock: KIFKEQ_clean_linker_1, # of connection points: 2
#     Edge 16, Type (0, 0), BuildingBlock: KIFKEQ_clean_linker_1, # of connection points: 2
#     Edge 17, Type (0, 0), BuildingBlock: KIFKEQ_clean_linker_1, # of connection points: 2
#     Edge 18, Type (0, 0), BuildingBlock: KIFKEQ_clean_linker_1, # of connection points: 2
#     Edge 19, Type (0, 0), BuildingBlock: KIFKEQ_clean_linker_1, # of connection points: 2
#     Edge 20, Type (0, 0), BuildingBlock: KIFKEQ_clean_linker_1, # of connection points: 2
#     Edge 21, Type (0, 0), BuildingBlock: KIFKEQ_clean_linker_1, # of connection points: 2
#     Edge 22, Type (0, 0), BuildingBlock: KIFKEQ_clean_linker_1, # of connection points: 2
#     Edge 23, Type (0, 0), BuildingBlock: KIFKEQ_clean_linker_1, # of connection points: 2
#     Edge 24, Type (0, 0), BuildingBlock: KIFKEQ_clean_linker_1, # of connection points: 2
#     Edge 25, Type (0, 0), BuildingBlock: KIFKEQ_clean_linker_1, # of connection points: 2
#     Edge 26, Type (0, 0), BuildingBlock: KIFKEQ_clean_linker_1, # of connection points: 2
#     Edge 27, Type (0, 0), BuildingBlock: KIFKEQ_clean_linker_1, # of connection points: 2
#     Edge 28, Type (0, 0), BuildingBlock: KIFKEQ_clean_linker_1, # of connection points: 2
#     Edge 29, Type (0, 0), BuildingBlock: KIFKEQ_clean_linker_1, # of connection points: 2
#     Edge 30, Type (0, 0), BuildingBlock: KIFKEQ_clean_linker_1, # of connection points: 2
#     Edge 31, Type (0, 0), BuildingBlock: KIFKEQ_clean_linker_1, # of connection points: 2
#     Edge 32, Type (0, 0), BuildingBlock: KIFKEQ_clean_linker_1, # of connection points: 2
#     Edge 33, Type (0, 0), BuildingBlock: KIFKEQ_clean_linker_1, # of connection points: 2
#     Edge 34, Type (0, 0), BuildingBlock: KIFKEQ_clean_linker_1, # of connection points: 2
#     Edge 35, Type (0, 0), BuildingBlock: KIFKEQ_clean_linker_1, # of connection points: 2
#     Edge 36, Type (0, 0), BuildingBlock: KIFKEQ_clean_linker_1, # of connection points: 2
#     Edge 37, Type (0, 0), BuildingBlock: KIFKEQ_clean_linker_1, # of connection points: 2
#     Edge 38, Type (0, 0), BuildingBlock: KIFKEQ_clean_linker_1, # of connection points: 2
#     Edge 39, Type (0, 0), BuildingBlock: KIFKEQ_clean_linker_1, # of connection points: 2
#     Edge 40, Type (0, 0), BuildingBlock: KIFKEQ_clean_linker_1, # of connection points: 2
#     Edge 41, Type (0, 0), BuildingBlock: KIFKEQ_clean_linker_1, # of connection points: 2
# Relax obj value: 0.081
# Max RMSD: 0.101
# Mean RMSD: 0.101
data_MOF--net-wjx--node1-BEQFEK_clean_sbu_0--edge1-KIFKEQ_clean_linker_1
_symmetry_space_group_name_H-M    P1
_symmetry_Int_Tables_number       1
_symmetry_cell_setting            triclinic
loop_
_symmetry_equiv_pos_as_xyz
'x, y, z'
_cell_length_a     74.666249
_cell_length_b     74.65714
_cell_length_c     19.482821
_cell_angle_alpha  90.003426
_cell_angle_beta   89.966994
_cell_angle_gamma 119.99505
loop_
_atom_site_label
_atom_site_type_symbol
_atom_site_fract_x
_atom_site_fract_y
_atom_site_fract_z
_atom_type_partial_charge
Co0 Co 0.11969 0.45574 0.18653 0.0
Co1 Co 0.11072 0.45799 0.03044 0.0
C2 C 0.07748 0.42872 0.12366 0.0
O3 O 0.08996 0.4357 0.17405 0.0
O4 O 0.08337 0.43524 0.06269 0.0
C5 C 0.11669 0.43643 0.31693 0.0
O6 O 0.1026 0.41961 0.28604 0.0
C7 C 0.10394 0.44857 0.88072 0.0
C8 C 0.11981 0.48044 0.83964 0.0
C9 C 0.10971 0.45987 0.81983 0.0
N10 N 0.11078 0.46199 0.93364 0.0
N11 N 0.12 0.48096 0.90848 0.0
C12 C 0.09158 0.42557 0.88888 0.0
H13 H 0.08339 0.42145 0.93887 0.0
H14 H 0.10203 0.41903 0.88762 0.0
H15 H 0.08025 0.41856 0.84641 0.0
C16 C 0.15291 0.44964 0.12734 0.0
N17 N 0.13614 0.45182 0.12087 0.0
N18 N 0.13284 0.45342 0.05533 0.0
C19 C 0.14773 0.45273 0.01817 0.0
C20 C 0.16078 0.45014 0.06242 0.0
C21 C 0.1621 0.44889 0.1947 0.0
H22 H 0.16579 0.46294 0.2248 0.0
H23 H 0.15053 0.43532 0.22435 0.0
H24 H 0.17632 0.44787 0.1878 0.0
O25 O 0.12379 0.484 0.17935 0.0
O26 O 0.11536 0.4844 0.07061 0.0
H27 H 0.15069 0.47021 0.9275 0.0
H28 H 0.16437 0.45597 0.92328 0.0
C29 C 0.15016 0.45559 0.94203 0.0
H30 H 0.13672 0.44261 0.91651 0.0
H31 H 0.12693 0.49434 0.93841 0.0
O32 O 0.12681 0.45296 0.28228 0.0
C33 C 0.12082 0.49307 0.12906 0.0
Co34 Co 0.66247 0.11803 0.51348 0.0
Co35 Co 0.65157 0.11063 0.35687 0.0
C36 C 0.64803 0.07659 0.44557 0.0
O37 O 0.65386 0.08869 0.49712 0.0
O38 O 0.64664 0.08287 0.38595 0.0
C39 C 0.67848 0.11462 0.64471 0.0
O40 O 0.68087 0.10019 0.61478 0.0
C41 C 0.65524 0.10552 0.20729 0.0
C42 C 0.64278 0.12482 0.16731 0.0
C43 C 0.65227 0.11379 0.14741 0.0
N44 N 0.64821 0.11185 0.2603 0.0
N45 N 0.64032 0.12291 0.2357 0.0
C46 C 0.66668 0.09394 0.21495 0.0
H47 H 0.6718 0.09462 0.26884 0.0
H48 H 0.68021 0.10036 0.17987 0.0
H49 H 0.65624 0.07753 0.20075 0.0
C50 C 0.70178 0.15206 0.4579 0.0
N51 N 0.68284 0.13538 0.44967 0.0
N52 N 0.67832 0.13251 0.38381 0.0
C53 C 0.69427 0.14752 0.3481 0.0
C54 C 0.70962 0.16033 0.39374 0.0
C55 C 0.71133 0.16066 0.52623 0.0
H56 H 0.70039 0.16314 0.55779 0.0
H57 H 0.71412 0.14922 0.55342 0.0
H58 H 0.72614 0.17546 0.52107 0.0
O59 O 0.63794 0.12157 0.50746 0.0
O60 O 0.62969 0.11495 0.39758 0.0
H61 H 0.68164 0.15141 0.25444 0.0
H62 H 0.70945 0.16329 0.25362 0.0
C63 C 0.69488 0.14976 0.27166 0.0
H64 H 0.6937 0.13576 0.24789 0.0
H65 H 0.6343 0.13017 0.26607 0.0
O66 O 0.67213 0.1247 0.60955 0.0
C67 C 0.62617 0.11944 0.45718 0.0
Co68 Co 0.54719 0.66472 0.85468 0.0
Co69 Co 0.54349 0.65342 0.69838 0.0
C70 C 0.57418 0.65023 0.78746 0.0
O71 O 0.56809 0.65624 0.83903 0.0
O72 O 0.56628 0.64862 0.72817 0.0
C73 C 0.56654 0.68086 0.98548 0.0
O74 O 0.58338 0.6834 0.95525 0.0
C75 C 0.55216 0.65562 0.54835 0.0
C76 C 0.52023 0.64152 0.50858 0.0
C77 C 0.5407 0.65089 0.48798 0.0
N78 N 0.53895 0.64971 0.6018 0.0
N79 N 0.51992 0.64107 0.57744 0.0
C80 C 0.57508 0.66503 0.55552 0.0
H81 H 0.5789 0.65991 0.60395 0.0
H82 H 0.58244 0.68212 0.55708 0.0
H83 H 0.58154 0.66072 0.51133 0.0
C84 C 0.55194 0.70371 0.79769 0.0
N85 N 0.54995 0.68485 0.79018 0.0
N86 N 0.54818 0.6801 0.7245 0.0
C87 C 0.54877 0.69577 0.68818 0.0
C88 C 0.55119 0.71122 0.73323 0.0
C89 C 0.55281 0.71339 0.86571 0.0
H90 H 0.53955 0.70237 0.89771 0.0
H91 H 0.56718 0.71656 0.89272 0.0
H92 H 0.55246 0.728 0.86012 0.0
O93 O 0.5192 0.63996 0.84947 0.0
O94 O 0.51742 0.6316 0.73963 0.0
H95 H 0.53151 0.68277 0.59602 0.0
H96 H 0.54816 0.71053 0.59277 0.0
C97 C 0.54671 0.69586 0.61178 0.0
H98 H 0.55902 0.69391 0.5876 0.0
H99 H 0.5067 0.63533 0.60797 0.0
O100 O 0.55011 0.67455 0.95042 0.0
C101 C 0.50953 0.62809 0.79941 0.0
Co102 Co 0.88223 0.54472 0.19349 0.0
Co103 Co 0.88957 0.54149 0.03672 0.0
C104 C 0.92384 0.57111 0.12681 0.0
O105 O 0.91174 0.5648 0.1783 0.0
O106 O 0.91745 0.56394 0.06678 0.0
C107 C 0.88598 0.56435 0.32372 0.0
O108 O 0.9004 0.581 0.29289 0.0
C109 C 0.8962 0.55039 0.8868 0.0
C110 C 0.8778 0.51855 0.8466 0.0
C111 C 0.88936 0.53901 0.82631 0.0
N112 N 0.88858 0.53715 0.94006 0.0
N113 N 0.87783 0.51817 0.91544 0.0
C114 C 0.91011 0.57325 0.89422 0.0
H115 H 0.91885 0.57688 0.943 0.0
H116 H 0.90069 0.58095 0.89515 0.0
H117 H 0.92105 0.57953 0.8504 0.0
C118 C 0.84843 0.55044 0.13784 0.0
N119 N 0.86513 0.54822 0.12959 0.0
N120 N 0.86808 0.54674 0.06368 0.0
C121 C 0.85315 0.54776 0.02794 0.0
C122 C 0.84024 0.55016 0.07363 0.0
C123 C 0.8396 0.55099 0.20622 0.0
H124 H 0.83729 0.53754 0.23729 0.0
H125 H 0.85083 0.5652 0.23393 0.0
H126 H 0.82468 0.55074 0.2011 0.0
O127 O 0.87851 0.51662 0.18728 0.0
O128 O 0.88433 0.51483 0.0766 0.0
H129 H 0.84835 0.53069 0.93499 0.0
H130 H 0.83803 0.54803 0.93303 0.0
C131 C 0.85096 0.54602 0.9515 0.0
H132 H 0.8654 0.55812 0.92755 0.0
H133 H 0.87005 0.50493 0.94577 0.0
O134 O 0.87562 0.54784 0.28927 0.0
C135 C 0.88007 0.50685 0.13627 0.0
Co136 Co 0.33763 0.88316 0.51219 0.0
Co137 Co 0.34899 0.89102 0.35592 0.0
C138 C 0.35233 0.92481 0.44601 0.0
O139 O 0.34627 0.91258 0.49724 0.0
O140 O 0.35392 0.91863 0.38644 0.0
C141 C 0.32139 0.88625 0.64298 0.0
O142 O 0.31869 0.90042 0.61259 0.0
C143 C 0.34669 0.8976 0.20598 0.0
C144 C 0.36108 0.88008 0.16574 0.0
C145 C 0.35155 0.89105 0.14543 0.0
N146 N 0.3527 0.89035 0.25924 0.0
N147 N 0.36152 0.88015 0.2346 0.0
C148 C 0.33708 0.91094 0.21349 0.0
H149 H 0.34198 0.91969 0.26233 0.0
H150 H 0.32001 0.9011 0.21438 0.0
H151 H 0.34146 0.92186 0.16973 0.0
C152 C 0.29854 0.84924 0.45489 0.0
N153 N 0.31746 0.86602 0.44752 0.0
N154 N 0.32225 0.86905 0.38186 0.0
C155 C 0.30656 0.85404 0.34542 0.0
C156 C 0.29103 0.84106 0.39037 0.0
C157 C 0.28878 0.84041 0.52283 0.0
H158 H 0.29968 0.83793 0.55463 0.0
H159 H 0.28582 0.85171 0.55015 0.0
H160 H 0.27405 0.82557 0.51708 0.0
O161 O 0.36225 0.87971 0.5063 0.0
O162 O 0.37073 0.88654 0.39662 0.0
H163 H 0.31979 0.84999 0.25341 0.0
H164 H 0.292 0.8385 0.25005 0.0
C165 C 0.30654 0.85186 0.26905 0.0
H166 H 0.30828 0.86602 0.24474 0.0
H167 H 0.36737 0.87272 0.26492 0.0
O168 O 0.32782 0.8762 0.608 0.0
C169 C 0.37413 0.88195 0.45619 0.0
Co170 Co 0.45562 0.33862 0.85241 0.0
Co171 Co 0.45917 0.34902 0.69553 0.0
C172 C 0.4286 0.3528 0.78337 0.0
O173 O 0.43483 0.34711 0.83539 0.0
O174 O 0.43634 0.35403 0.72393 0.0
C175 C 0.43615 0.32261 0.98363 0.0
O176 O 0.41927 0.32003 0.95358 0.0
C177 C 0.45022 0.34485 0.54624 0.0
C178 C 0.48192 0.3573 0.50567 0.0
C179 C 0.46136 0.34771 0.48622 0.0
N180 N 0.46366 0.35205 0.59894 0.0
N181 N 0.48258 0.35992 0.574 0.0
C182 C 0.42722 0.33337 0.5544 0.0
H183 H 0.42288 0.32828 0.60839 0.0
H184 H 0.42007 0.31981 0.51948 0.0
H185 H 0.42118 0.34377 0.54038 0.0
C186 C 0.45045 0.29918 0.7988 0.0
N187 N 0.45266 0.31806 0.78961 0.0
N188 N 0.45436 0.32238 0.72357 0.0
C189 C 0.45353 0.30635 0.68871 0.0
C190 C 0.45099 0.29116 0.73511 0.0
C191 C 0.44949 0.28986 0.86761 0.0
H192 H 0.46291 0.30091 0.89893 0.0
H193 H 0.43526 0.28716 0.89457 0.0
H194 H 0.44949 0.27504 0.86325 0.0
O195 O 0.48368 0.36319 0.84586 0.0
O196 O 0.48536 0.37107 0.73558 0.0
H197 H 0.4702 0.3188 0.59512 0.0
H198 H 0.45442 0.29097 0.59516 0.0
C199 C 0.45532 0.30554 0.61239 0.0
H200 H 0.44251 0.30658 0.58793 0.0
H201 H 0.4959 0.36606 0.60412 0.0
O202 O 0.45263 0.32916 0.94864 0.0
C203 C 0.49333 0.3748 0.79522 0.0
Co204 Co 0.54538 0.88338 0.47986 0.0
Co205 Co 0.54185 0.89056 0.63659 0.0
C206 C 0.57239 0.92472 0.54815 0.0
O207 O 0.56613 0.91269 0.49644 0.0
O208 O 0.56468 0.91835 0.60772 0.0
C209 C 0.56482 0.88678 0.34859 0.0
O210 O 0.58167 0.90114 0.37856 0.0
C211 C 0.55077 0.89551 0.78598 0.0
C212 C 0.51903 0.87641 0.82644 0.0
C213 C 0.53958 0.88731 0.846 0.0
N214 N 0.53736 0.88928 0.7332 0.0
N215 N 0.51842 0.87833 0.75809 0.0
C216 C 0.57377 0.90693 0.77795 0.0
H217 H 0.57812 0.90619 0.72397 0.0
H218 H 0.58084 0.90044 0.81287 0.0
H219 H 0.57988 0.92337 0.79209 0.0
C220 C 0.55062 0.84926 0.53455 0.0
N221 N 0.54838 0.86594 0.54322 0.0
N222 N 0.54667 0.86867 0.60916 0.0
C223 C 0.54752 0.85356 0.64447 0.0
C224 C 0.55009 0.84083 0.59847 0.0
C225 C 0.55163 0.84079 0.46599 0.0
H226 H 0.56583 0.85233 0.43885 0.0
H227 H 0.55173 0.82603 0.47079 0.0
H228 H 0.53818 0.83828 0.43458 0.0
O229 O 0.51732 0.87986 0.4862 0.0
O230 O 0.51566 0.88632 0.59626 0.0
H231 H 0.5465 0.83738 0.73842 0.0
H232 H 0.55857 0.86493 0.74511 0.0
C233 C 0.5457 0.85109 0.72082 0.0
H234 H 0.53086 0.84959 0.73793 0.0
H235 H 0.5051 0.87117 0.72792 0.0
O236 O 0.54836 0.87679 0.3837 0.0
C237 C 0.50767 0.88192 0.53665 0.0
Co238 Co 0.66353 0.54612 0.81859 0.0
Co239 Co 0.6523 0.54251 0.97492 0.0
C240 C 0.64925 0.57327 0.88548 0.0
O241 O 0.65519 0.56711 0.83392 0.0
O242 O 0.6476 0.56536 0.94481 0.0
C243 C 0.67988 0.56541 0.68778 0.0
O244 O 0.68275 0.58236 0.71815 0.0
C245 C 0.65492 0.5515 0.12474 0.0
C246 C 0.64 0.51959 0.16524 0.0
C247 C 0.64989 0.54012 0.18537 0.0
N248 N 0.64865 0.53818 0.0716 0.0
N249 N 0.63954 0.51917 0.09639 0.0
C250 C 0.66491 0.57447 0.11706 0.0
H251 H 0.66019 0.57845 0.06809 0.0
H252 H 0.68195 0.58143 0.11635 0.0
H253 H 0.66068 0.5812 0.16066 0.0
C254 C 0.70258 0.55103 0.87529 0.0
N255 N 0.68369 0.54893 0.88295 0.0
N256 N 0.67892 0.54705 0.94865 0.0
C257 C 0.69457 0.54755 0.9848 0.0
C258 C 0.71007 0.55016 0.93963 0.0
C259 C 0.71236 0.55215 0.80722 0.0
H260 H 0.71517 0.56641 0.78018 0.0
H261 H 0.72716 0.55218 0.81275 0.0
H262 H 0.70153 0.53877 0.7753 0.0
O263 O 0.63875 0.51813 0.82445 0.0
O264 O 0.6304 0.5164 0.93429 0.0
H265 H 0.70894 0.54587 0.0797 0.0
H266 H 0.69321 0.55772 0.08599 0.0
C267 C 0.69456 0.54514 0.06107 0.0
H268 H 0.68108 0.53015 0.07641 0.0
H269 H 0.63343 0.50586 0.06617 0.0
O270 O 0.67327 0.54892 0.72275 0.0
C271 C 0.62689 0.50847 0.8746 0.0
Co272 Co 0.11886 0.66248 0.1412 0.0
Co273 Co 0.11155 0.6527 0.29822 0.0
C274 C 0.07724 0.64767 0.20917 0.0
O275 O 0.08927 0.65279 0.15755 0.0
O276 O 0.0837 0.64758 0.26973 0.0
C277 C 0.11468 0.67802 0.01051 0.0
O278 O 0.10009 0.68002 0.04117 0.0
C279 C 0.10655 0.65674 0.44756 0.0
C280 C 0.12643 0.645 0.48794 0.0
C281 C 0.11504 0.65414 0.50749 0.0
N282 N 0.11308 0.64982 0.39479 0.0
N283 N 0.12451 0.64237 0.41963 0.0
C284 C 0.09454 0.66772 0.43958 0.0
H285 H 0.09514 0.67277 0.38563 0.0
H286 H 0.10065 0.68125 0.47455 0.0
H287 H 0.07817 0.657 0.45368 0.0
C288 C 0.1526 0.70235 0.19433 0.0
N289 N 0.13596 0.68344 0.20374 0.0
N290 N 0.13317 0.67936 0.26989 0.0
C291 C 0.14814 0.69558 0.30464 0.0
C292 C 0.16089 0.71064 0.25803 0.0
C293 C 0.16126 0.71137 0.12544 0.0
H294 H 0.14987 0.71402 0.09729 0.0
H295 H 0.17608 0.72618 0.12979 0.0
H296 H 0.16369 0.70016 0.09527 0.0
O297 O 0.12328 0.63859 0.14881 0.0
O298 O 0.11599 0.63068 0.25868 0.0
H299 H 0.15259 0.68378 0.39923 0.0
H300 H 0.16382 0.71153 0.3982 0.0
C301 C 0.15049 0.69667 0.38105 0.0
H302 H 0.13635 0.69519 0.40471 0.0
H303 H 0.13196 0.63652 0.38944 0.0
O304 O 0.12508 0.67191 0.04494 0.0
C305 C 0.12091 0.62702 0.19995 0.0
Co306 Co 0.455 0.1183 0.48271 0.0
Co307 Co 0.45849 0.1105 0.63897 0.0
C308 C 0.42809 0.07667 0.54904 0.0
O309 O 0.43424 0.08888 0.49779 0.0
O310 O 0.43584 0.08286 0.60858 0.0
C311 C 0.43564 0.11515 0.35202 0.0
O312 O 0.41878 0.10097 0.38249 0.0
C313 C 0.44964 0.1039 0.78895 0.0
C314 C 0.48154 0.12158 0.82904 0.0
C315 C 0.46105 0.1105 0.84944 0.0
N316 N 0.46289 0.11122 0.73563 0.0
N317 N 0.4819 0.12151 0.76018 0.0
C318 C 0.42671 0.09046 0.78156 0.0
H319 H 0.42289 0.08169 0.73277 0.0
H320 H 0.41939 0.10023 0.78062 0.0
H321 H 0.42021 0.07955 0.82538 0.0
C322 C 0.44983 0.15225 0.53988 0.0
N323 N 0.45195 0.13546 0.54731 0.0
N324 N 0.45367 0.13244 0.61299 0.0
C325 C 0.45297 0.14745 0.64938 0.0
C326 C 0.45047 0.16044 0.60438 0.0
C327 C 0.44899 0.1611 0.47188 0.0
H328 H 0.46231 0.16342 0.44002 0.0
H329 H 0.43467 0.14987 0.44469 0.0
H330 H 0.44926 0.17602 0.47754 0.0
O331 O 0.48307 0.12179 0.48851 0.0
O332 O 0.48472 0.11499 0.59821 0.0
H333 H 0.47019 0.15161 0.74154 0.0
H334 H 0.45365 0.16284 0.7448 0.0
C335 C 0.45502 0.14959 0.72578 0.0
H336 H 0.44267 0.13535 0.74994 0.0
H337 H 0.49516 0.129 0.72979 0.0
O338 O 0.45211 0.12522 0.38692 0.0
C339 C 0.49272 0.11958 0.53861 0.0
Co340 Co 0.34029 0.45738 0.80995 0.0
Co341 Co 0.34829 0.45932 0.96805 0.0
C342 C 0.35318 0.4295 0.88118 0.0
O343 O 0.34816 0.43623 0.8289 0.0
O344 O 0.35386 0.4368 0.94094 0.0
C345 C 0.32106 0.43852 0.67939 0.0
O346 O 0.30923 0.42145 0.71369 0.0
C347 C 0.34398 0.44942 0.1169 0.0
C348 C 0.35095 0.47974 0.15916 0.0
C349 C 0.34451 0.4595 0.1773 0.0
N350 N 0.34951 0.46309 0.06503 0.0
N351 N 0.35409 0.48125 0.09098 0.0
C352 C 0.33618 0.42683 0.10757 0.0
H353 H 0.32963 0.42183 0.05534 0.0
H354 H 0.32433 0.41762 0.14686 0.0
H355 H 0.3493 0.42393 0.1136 0.0
C356 C 0.30016 0.45256 0.85794 0.0
N357 N 0.31873 0.45413 0.86886 0.0
N358 N 0.32195 0.45437 0.93543 0.0
C359 C 0.30532 0.45265 0.9688 0.0
C360 C 0.2911 0.45164 0.92104 0.0
C361 C 0.29205 0.45359 0.78876 0.0
H362 H 0.30497 0.46422 0.75488 0.0
H363 H 0.28445 0.43795 0.76534 0.0
H364 H 0.28053 0.4588 0.79264 0.0
O365 O 0.36461 0.4852 0.82091 0.0
O366 O 0.37099 0.48605 0.93219 0.0
H367 H 0.31333 0.46699 0.06759 0.0
H368 H 0.28668 0.44684 0.06038 0.0
C369 C 0.30277 0.4516 0.04515 0.0
H370 H 0.30663 0.44019 0.0662 0.0
H371 H 0.35838 0.49448 0.06158 0.0
O372 O 0.33354 0.4549 0.71134 0.0
C373 C 0.37549 0.49449 0.87318 0.0
Co374 Co 0.88307 0.33762 0.14233 0.0
Co375 Co 0.88972 0.34759 0.29954 0.0
C376 C 0.92439 0.35252 0.21128 0.0
O377 O 0.91245 0.34694 0.15942 0.0
O378 O 0.91781 0.35309 0.27127 0.0
C379 C 0.88739 0.32218 0.01145 0.0
O380 O 0.90215 0.32042 0.04173 0.0
C381 C 0.89478 0.34363 0.44875 0.0
C382 C 0.87465 0.35505 0.48939 0.0
C383 C 0.88623 0.34611 0.50878 0.0
N384 N 0.88811 0.35043 0.39609 0.0
N385 N 0.87653 0.35769 0.42106 0.0
C386 C 0.90695 0.33282 0.44057 0.0
H387 H 0.90632 0.32774 0.38664 0.0
H388 H 0.90099 0.31932 0.47567 0.0
H389 H 0.92331 0.34367 0.45433 0.0
C390 C 0.84898 0.2979 0.19559 0.0
N391 N 0.86566 0.31678 0.20501 0.0
N392 N 0.86835 0.32087 0.27117 0.0
C393 C 0.85329 0.3047 0.30587 0.0
C394 C 0.84056 0.28966 0.25926 0.0
C395 C 0.84042 0.28885 0.12668 0.0
H396 H 0.838 0.30005 0.09635 0.0
H397 H 0.85185 0.28622 0.09871 0.0
H398 H 0.8256 0.27403 0.13099 0.0
O399 O 0.87929 0.36193 0.14887 0.0
O400 O 0.88468 0.36918 0.25988 0.0
H401 H 0.84846 0.31648 0.39992 0.0
H402 H 0.83753 0.28877 0.39941 0.0
C403 C 0.85079 0.30368 0.38224 0.0
H404 H 0.86495 0.30536 0.40634 0.0
H405 H 0.86894 0.36341 0.39097 0.0
O406 O 0.87688 0.32812 0.04616 0.0
C407 C 0.88064 0.37308 0.20015 0.0
H408 H 0.0479 0.4012 0.03543 0.0
H409 H 0.05716 0.42332 0.24439 0.0
H410 H 0.01107 0.37904 0.05828 0.0
H411 H 0.02041 0.40249 0.26617 0.0
H412 H 0.95389 0.35664 0.30444 0.0
H413 H 0.99087 0.37124 0.28385 0.0
H414 H 0.98196 0.38156 0.07108 0.0
H415 H 0.94523 0.36584 0.09085 0.0
C416 C 0.04203 0.40133 0.08619 0.0
C417 C 0.0554 0.41407 0.13792 0.0
C418 C 0.02087 0.38875 0.09934 0.0
C419 C 0.0125 0.38905 0.16402 0.0
C420 C 0.02611 0.40143 0.21612 0.0
C421 C 0.04728 0.41359 0.20344 0.0
C422 C 0.9599 0.3618 0.25318 0.0
C423 C 0.94664 0.36011 0.19941 0.0
C424 C 0.98114 0.37033 0.2413 0.0
C425 C 0.98965 0.3778 0.17571 0.0
C426 C 0.97616 0.37565 0.12191 0.0
C427 C 0.95498 0.36675 0.13344 0.0
H428 H 0.6267 0.04394 0.3578 0.0
H429 H 0.65345 0.05904 0.56094 0.0
H430 H 0.61126 0.00725 0.38419 0.0
H431 H 0.63849 0.02244 0.5866 0.0
H432 H 0.59553 0.94238 0.43319 0.0
H433 H 0.61704 0.979 0.40769 0.0
H434 H 0.60454 0.99401 0.60981 0.0
H435 H 0.58344 0.9573 0.63605 0.0
C436 C 0.62965 0.03946 0.40755 0.0
C437 C 0.64114 0.05445 0.45741 0.0
C438 C 0.62085 0.0184 0.42269 0.0
C439 C 0.62346 0.01185 0.48787 0.0
C440 C 0.63581 0.0269 0.53645 0.0
C441 C 0.6445 0.04792 0.52147 0.0
C442 C 0.59758 0.95346 0.47264 0.0
C443 C 0.5876 0.94687 0.53656 0.0
C444 C 0.60983 0.9745 0.45775 0.0
C445 C 0.61234 0.9895 0.50628 0.0
C446 C 0.60311 0.9829 0.57136 0.0
C447 C 0.59094 0.96182 0.58641 0.0
H448 H 0.6282 0.58467 0.97413 0.0
H449 H 0.6548 0.59652 0.77063 0.0
H450 H 0.61304 0.60621 0.94904 0.0
H451 H 0.64017 0.61854 0.7463 0.0
H452 H 0.58533 0.62903 0.69863 0.0
H453 H 0.60641 0.61336 0.72375 0.0
H454 H 0.6188 0.64023 0.92682 0.0
H455 H 0.59724 0.65538 0.90245 0.0
C456 C 0.63118 0.5922 0.92456 0.0
C457 C 0.64253 0.58867 0.8742 0.0
C458 C 0.62255 0.60466 0.91019 0.0
C459 C 0.62521 0.61399 0.84532 0.0
C460 C 0.63745 0.61127 0.79625 0.0
C461 C 0.64595 0.59872 0.81044 0.0
C462 C 0.59279 0.63185 0.74828 0.0
C463 C 0.58939 0.64328 0.79872 0.0
C464 C 0.60498 0.62293 0.76267 0.0
C465 C 0.61417 0.62536 0.82764 0.0
C466 C 0.61162 0.63768 0.87678 0.0
C467 C 0.59934 0.64648 0.86257 0.0
H468 H 0.04797 0.64513 0.3003 0.0
H469 H 0.05626 0.63278 0.08963 0.0
H470 H 0.01101 0.63043 0.27969 0.0
H471 H 0.01948 0.61692 0.07005 0.0
H472 H 0.95324 0.59693 0.03439 0.0
H473 H 0.99022 0.61915 0.05467 0.0
H474 H 0.98152 0.59898 0.26647 0.0
H475 H 0.94471 0.57812 0.24704 0.0
C476 C 0.04187 0.63924 0.24967 0.0
C477 C 0.05502 0.64006 0.19676 0.0
C478 C 0.02064 0.63065 0.2378 0.0
C479 C 0.012 0.62222 0.17319 0.0
C480 C 0.02538 0.62354 0.12007 0.0
C481 C 0.04659 0.63252 0.13151 0.0
C482 C 0.95929 0.59753 0.0854 0.0
C483 C 0.94607 0.58573 0.13896 0.0
C484 C 0.98053 0.61015 0.0971 0.0
C485 C 0.98912 0.61083 0.16223 0.0
C486 C 0.97567 0.59932 0.21597 0.0
C487 C 0.95445 0.58713 0.20465 0.0
H488 H 0.4052 0.05908 0.43354 0.0
H489 H 0.41689 0.04403 0.63673 0.0
H490 H 0.38363 0.02246 0.40799 0.0
H491 H 0.39577 0.00735 0.61042 0.0
H492 H 0.34696 0.94234 0.56157 0.0
H493 H 0.36192 0.97896 0.58716 0.0
H494 H 0.38921 0.99414 0.3847 0.0
H495 H 0.37373 0.95747 0.35836 0.0
C496 C 0.40305 0.04797 0.47303 0.0
C497 C 0.41293 0.05452 0.53708 0.0
C498 C 0.39077 0.02694 0.45813 0.0
C499 C 0.38813 0.0119 0.50675 0.0
C500 C 0.39728 0.01847 0.57189 0.0
C501 C 0.40948 0.03954 0.58697 0.0
C502 C 0.35591 0.95347 0.52209 0.0
C503 C 0.35928 0.94694 0.45802 0.0
C504 C 0.36461 0.9745 0.53701 0.0
C505 C 0.37698 0.98955 0.48839 0.0
C506 C 0.3796 0.983 0.42323 0.0
C507 C 0.37079 0.96194 0.40814 0.0
H508 H 0.37396 0.41792 0.97049 0.0
H509 H 0.34798 0.40649 0.76625 0.0
H510 H 0.38933 0.39653 0.94536 0.0
H511 H 0.36282 0.38466 0.74185 0.0
H512 H 0.41775 0.37429 0.6947 0.0
H513 H 0.39667 0.38998 0.71991 0.0
H514 H 0.38375 0.36261 0.92228 0.0
H515 H 0.40528 0.34743 0.89782 0.0
C516 C 0.37116 0.4105 0.92077 0.0
C517 C 0.35994 0.41412 0.8702 0.0
C518 C 0.37992 0.39815 0.90634 0.0
C519 C 0.37751 0.38901 0.84121 0.0
C520 C 0.36537 0.3918 0.79197 0.0
C521 C 0.35675 0.40423 0.8062 0.0
C522 C 0.41016 0.37136 0.74418 0.0
C523 C 0.41339 0.35978 0.7944 0.0
C524 C 0.39799 0.38031 0.75864 0.0
C525 C 0.38864 0.37774 0.82348 0.0
C526 C 0.39105 0.36527 0.87239 0.0
C527 C 0.40331 0.35645 0.8581 0.0
H528 H 0.1114 0.42621 0.76838 0.0
H529 H 0.10562 0.47876 0.70765 0.0
H530 H 0.1136 0.41854 0.64763 0.0
H531 H 0.10835 0.47137 0.58771 0.0
H532 H 0.14117 0.46995 0.39654 0.0
H533 H 0.13858 0.47337 0.51979 0.0
H534 H 0.09207 0.40881 0.53332 0.0
H535 H 0.09454 0.40525 0.40924 0.0
C536 C 0.10997 0.43575 0.72954 0.0
C537 C 0.10806 0.45297 0.7477 0.0
C538 C 0.11148 0.43148 0.6604 0.0
C539 C 0.11145 0.44455 0.60859 0.0
C540 C 0.1088 0.46127 0.62674 0.0
C541 C 0.10712 0.46542 0.69539 0.0
C542 C 0.13061 0.45635 0.42568 0.0
C543 C 0.11784 0.43739 0.39281 0.0
C544 C 0.12905 0.45837 0.49625 0.0
C545 C 0.11483 0.44145 0.53568 0.0
C546 C 0.10309 0.4221 0.50393 0.0
C547 C 0.10452 0.4201 0.43295 0.0
H548 H 0.6882 0.09335 0.73844 0.0
H549 H 0.67122 0.14069 0.72221 0.0
H550 H 0.68581 0.09415 0.86339 0.0
H551 H 0.6681 0.14095 0.84575 0.0
H552 H 0.67432 0.14784 0.06995 0.0
H553 H 0.6854 0.14972 0.95146 0.0
H554 H 0.65926 0.08333 0.94921 0.0
H555 H 0.64905 0.08175 0.06954 0.0
C556 C 0.68418 0.10408 0.76149 0.0
C557 C 0.6798 0.11689 0.72031 0.0
C558 C 0.68263 0.1044 0.83307 0.0
C559 C 0.67665 0.11752 0.86485 0.0
C560 C 0.67307 0.13086 0.82348 0.0
C561 C 0.67473 0.13063 0.75228 0.0
C562 C 0.67119 0.1337 0.04421 0.0
C563 C 0.66067 0.11463 0.07828 0.0
C564 C 0.67744 0.13474 0.97625 0.0
C565 C 0.6729 0.11664 0.94016 0.0
C566 C 0.66318 0.09761 0.97547 0.0
C567 C 0.65723 0.09664 0.04421 0.0
H568 H 0.57552 0.68515 0.43684 0.0
H569 H 0.52063 0.62884 0.37548 0.0
H570 H 0.58376 0.6949 0.31629 0.0
H571 H 0.52861 0.63889 0.25564 0.0
H572 H 0.53335 0.67398 0.06339 0.0
H573 H 0.52915 0.66807 0.1866 0.0
H574 H 0.59251 0.68212 0.20318 0.0
H575 H 0.59686 0.68806 0.07918 0.0
C576 C 0.56554 0.67456 0.39788 0.0
C577 C 0.54757 0.65602 0.4158 0.0
C578 C 0.57015 0.6803 0.32886 0.0
C579 C 0.55667 0.66777 0.27688 0.0
C580 C 0.53907 0.64901 0.2948 0.0
C581 C 0.53458 0.64321 0.36338 0.0
C582 C 0.54652 0.67614 0.09321 0.0
C583 C 0.56535 0.68119 0.06125 0.0
C584 C 0.54406 0.67263 0.16374 0.0
C585 C 0.56039 0.67423 0.20401 0.0
C586 C 0.57967 0.68071 0.17313 0.0
C587 C 0.58212 0.68411 0.10221 0.0
H588 H 0.89078 0.57421 0.77493 0.0
H589 H 0.89134 0.51881 0.71424 0.0
H590 H 0.88958 0.5825 0.6542 0.0
H591 H 0.8896 0.52685 0.59427 0.0
H592 H 0.85921 0.5317 0.40257 0.0
H593 H 0.86091 0.52778 0.52592 0.0
H594 H 0.91124 0.59072 0.54059 0.0
H595 H 0.90966 0.59478 0.4164 0.0
C596 C 0.89128 0.56413 0.73608 0.0
C597 C 0.89146 0.54598 0.75419 0.0
C598 C 0.89033 0.56877 0.66698 0.0
C599 C 0.88921 0.55516 0.61521 0.0
C600 C 0.89007 0.53742 0.63332 0.0
C601 C 0.89119 0.53289 0.70196 0.0
C602 C 0.87045 0.54485 0.43199 0.0
C603 C 0.88452 0.56345 0.39947 0.0
C604 C 0.87148 0.54255 0.50259 0.0
C605 C 0.88649 0.55882 0.54233 0.0
C606 C 0.89959 0.57792 0.5109 0.0
C607 C 0.89866 0.58021 0.43989 0.0
H608 H 0.31711 0.89127 0.0944 0.0
H609 H 0.37378 0.89343 0.03291 0.0
H610 H 0.30731 0.8896 0.97385 0.0
H611 H 0.36371 0.89123 0.91309 0.0
H612 H 0.32877 0.86035 0.72126 0.0
H613 H 0.33473 0.86229 0.84444 0.0
H614 H 0.31982 0.91103 0.86038 0.0
H615 H 0.31382 0.9092 0.7364 0.0
C616 C 0.32777 0.89201 0.05542 0.0
C617 C 0.34641 0.89281 0.07329 0.0
C618 C 0.32201 0.8908 0.98639 0.0
C619 C 0.33463 0.89 0.93439 0.0
C620 C 0.35351 0.89144 0.95227 0.0
C621 C 0.35932 0.89283 0.02084 0.0
C622 C 0.32643 0.87128 0.75093 0.0
C623 C 0.32112 0.88484 0.71878 0.0
C624 C 0.32997 0.87246 0.82145 0.0
C625 C 0.32814 0.8871 0.86153 0.0
C626 C 0.32141 0.89967 0.83048 0.0
C627 C 0.31798 0.8986 0.75956 0.0
H628 H 0.40504 0.31254 0.07727 0.0
H629 H 0.46942 0.32975 0.06104 0.0
H630 H 0.40809 0.31451 0.2023 0.0
H631 H 0.47265 0.33245 0.18462 0.0
H632 H 0.47328 0.32568 0.40828 0.0
H633 H 0.46401 0.31474 0.28973 0.0
H634 H 0.42375 0.34088 0.28878 0.0
H635 H 0.43244 0.35094 0.40914 0.0
C636 C 0.41976 0.31652 0.10033 0.0
C637 C 0.43701 0.32109 0.05915 0.0
C638 C 0.42155 0.31782 0.17194 0.0
C639 C 0.44063 0.32373 0.20372 0.0
C640 C 0.45761 0.32752 0.16233 0.0
C641 C 0.4558 0.32611 0.0911 0.0
C642 C 0.46224 0.32883 0.38282 0.0
C643 C 0.4537 0.33931 0.41723 0.0
C644 C 0.45698 0.32265 0.31484 0.0
C645 C 0.44343 0.32726 0.2791 0.0
C646 C 0.43411 0.33692 0.31478 0.0
C647 C 0.43913 0.34278 0.38354 0.0
H648 H 0.52749 0.85328 0.92368 0.0
H649 H 0.56856 0.91933 0.92341 0.0
H650 H 0.5367 0.85145 0.04216 0.0
H651 H 0.5772 0.91781 0.04374 0.0
H652 H 0.59589 0.90786 0.25489 0.0
H653 H 0.59278 0.90695 0.1299 0.0
H654 H 0.52818 0.86043 0.14759 0.0
H655 H 0.53148 0.86079 0.27114 0.0
C656 C 0.53856 0.86743 0.94926 0.0
C657 C 0.54718 0.88648 0.91502 0.0
C658 C 0.54379 0.86642 0.01722 0.0
C659 C 0.5574 0.88452 0.05312 0.0
C660 C 0.56679 0.90353 0.01762 0.0
C661 C 0.5618 0.90446 0.94888 0.0
C662 C 0.58114 0.89717 0.23184 0.0
C663 C 0.56391 0.88447 0.27302 0.0
C664 C 0.57932 0.89678 0.16024 0.0
C665 C 0.56022 0.88371 0.12847 0.0
C666 C 0.54324 0.87048 0.16986 0.0
C667 C 0.54509 0.87078 0.24107 0.0
H668 H 0.67214 0.53201 0.60965 0.0
H669 H 0.68793 0.59605 0.59426 0.0
H670 H 0.66626 0.52803 0.48643 0.0
H671 H 0.68203 0.59192 0.4702 0.0
H672 H 0.68467 0.57444 0.23628 0.0
H673 H 0.69446 0.58258 0.35684 0.0
H674 H 0.63746 0.52853 0.41772 0.0
H675 H 0.62741 0.52066 0.29789 0.0
C676 C 0.67468 0.54534 0.57992 0.0
C677 C 0.6802 0.56427 0.612 0.0
C678 C 0.67119 0.543 0.50938 0.0
C679 C 0.67329 0.55956 0.46921 0.0
C680 C 0.68024 0.57891 0.50019 0.0
C681 C 0.6836 0.58124 0.57114 0.0
C682 C 0.6739 0.5647 0.27528 0.0
C683 C 0.65509 0.54705 0.25745 0.0
C684 C 0.67965 0.56925 0.34431 0.0
C685 C 0.66684 0.55602 0.39634 0.0
C686 C 0.6478 0.53878 0.3785 0.0
C687 C 0.642 0.53436 0.30993 0.0
H688 H 0.1489 0.67706 0.58469 0.0
H689 H 0.08255 0.6498 0.58528 0.0
H690 H 0.15036 0.68774 0.70349 0.0
H691 H 0.08375 0.65961 0.70589 0.0
H692 H 0.09283 0.6874 0.91814 0.0
H693 H 0.09384 0.68578 0.793 0.0
H694 H 0.14187 0.6697 0.80811 0.0
H695 H 0.14137 0.67204 0.93185 0.0
C696 C 0.13461 0.67343 0.61051 0.0
C697 C 0.11559 0.66245 0.57648 0.0
C698 C 0.13542 0.67946 0.67862 0.0
C699 C 0.11715 0.6742 0.71483 0.0
C700 C 0.09814 0.66406 0.67951 0.0
C701 C 0.0974 0.65835 0.61062 0.0
C702 C 0.10385 0.6839 0.89451 0.0
C703 C 0.11694 0.67974 0.93499 0.0
C704 C 0.10431 0.68281 0.82283 0.0
C705 C 0.11786 0.67752 0.79031 0.0
C706 C 0.13146 0.67415 0.83102 0.0
C707 C 0.13108 0.67535 0.90232 0.0
H708 H 0.46885 0.14114 0.27363 0.0
H709 H 0.40515 0.0921 0.25873 0.0
H710 H 0.47289 0.13921 0.15042 0.0
H711 H 0.40933 0.09028 0.13473 0.0
H712 H 0.42631 0.1101 0.90067 0.0
H713 H 0.41815 0.1117 0.02128 0.0
H714 H 0.47307 0.11035 0.0817 0.0
H715 H 0.48097 0.10821 0.96182 0.0
C716 C 0.4556 0.13016 0.24401 0.0
C717 C 0.43676 0.11655 0.27623 0.0
C718 C 0.45797 0.12899 0.17347 0.0
C719 C 0.44154 0.11431 0.13345 0.0
C720 C 0.42226 0.10168 0.16458 0.0
C721 C 0.4199 0.10274 0.23551 0.0
C722 C 0.43625 0.1094 0.9396 0.0
C723 C 0.45415 0.10871 0.92161 0.0
C724 C 0.43169 0.11058 0.00865 0.0
C725 C 0.44514 0.11143 0.06057 0.0
C726 C 0.46263 0.11009 0.04258 0.0
C727 C 0.46708 0.10874 0.97398 0.0
H728 H 0.29028 0.41493 0.58766 0.0
H729 H 0.35498 0.46127 0.60129 0.0
H730 H 0.29322 0.41545 0.46152 0.0
H731 H 0.35795 0.46115 0.47667 0.0
H732 H 0.35771 0.43813 0.25573 0.0
H733 H 0.34976 0.42906 0.37773 0.0
H734 H 0.30716 0.45223 0.37461 0.0
H735 H 0.31561 0.46191 0.25378 0.0
C736 C 0.30509 0.42503 0.56377 0.0
C737 C 0.32234 0.43822 0.60393 0.0
C738 C 0.30676 0.42526 0.49205 0.0
C739 C 0.32586 0.43816 0.46013 0.0
C740 C 0.34315 0.45091 0.50043 0.0
C741 C 0.34136 0.45112 0.57155 0.0
C742 C 0.34632 0.44081 0.28096 0.0
C743 C 0.33731 0.45076 0.24614 0.0
C744 C 0.34179 0.43565 0.35032 0.0
C745 C 0.32778 0.43988 0.38483 0.0
C746 C 0.31781 0.44862 0.34865 0.0
C747 C 0.32273 0.45425 0.27997 0.0
H748 H 0.91892 0.3508 0.58602 0.0
H749 H 0.85251 0.32293 0.5864 0.0
H750 H 0.91794 0.34098 0.7065 0.0
H751 H 0.85126 0.31223 0.70507 0.0
H752 H 0.86031 0.32775 0.93352 0.0
H753 H 0.85964 0.33012 0.80985 0.0
H754 H 0.90821 0.31483 0.79335 0.0
H755 H 0.9094 0.31319 0.91844 0.0
C756 C 0.90411 0.34212 0.61155 0.0
C757 C 0.88583 0.33785 0.57773 0.0
C758 C 0.90348 0.3364 0.68036 0.0
C759 C 0.88452 0.32607 0.71592 0.0
C760 C 0.86617 0.32066 0.68003 0.0
C761 C 0.86685 0.32669 0.61199 0.0
C762 C 0.87069 0.32462 0.9037 0.0
C763 C 0.88503 0.32046 0.93596 0.0
C764 C 0.87021 0.32583 0.83243 0.0
C765 C 0.88391 0.3227 0.79135 0.0
C766 C 0.89766 0.31762 0.82347 0.0
C767 C 0.89822 0.31652 0.89511 0.0
H768 H 0.13468 0.51784 0.24317 0.0
H769 H 0.11195 0.51522 0.03725 0.0
H770 H 0.13695 0.55127 0.26033 0.0
H771 H 0.11361 0.54822 0.05515 0.0
H772 H 0.13426 0.61569 0.08564 0.0
H773 H 0.13649 0.58453 0.06898 0.0
H774 H 0.11435 0.56506 0.27585 0.0
H775 H 0.11274 0.59648 0.29324 0.0
C776 C 0.13017 0.52438 0.20156 0.0
C777 C 0.12307 0.51379 0.13891 0.0
C778 C 0.13136 0.5435 0.21154 0.0
C779 C 0.1254 0.55244 0.15924 0.0
C780 C 0.11863 0.54198 0.09624 0.0
C781 C 0.11754 0.52294 0.08613 0.0
C782 C 0.13 0.60484 0.12774 0.0
C783 C 0.12323 0.60856 0.19067 0.0
C784 C 0.13117 0.58689 0.11806 0.0
C785 C 0.12549 0.57219 0.17091 0.0
C786 C 0.11912 0.57615 0.23428 0.0
C787 C 0.11806 0.59413 0.24411 0.0
H788 H 0.59497 0.11094 0.36658 0.0
H789 H 0.61549 0.13279 0.57297 0.0
H790 H 0.56365 0.11251 0.38661 0.0
H791 H 0.58442 0.13504 0.59225 0.0
H792 H 0.51667 0.13283 0.42253 0.0
H793 H 0.54994 0.13499 0.40304 0.0
H794 H 0.54828 0.11257 0.60883 0.0
H795 H 0.51545 0.11108 0.62905 0.0
C796 C 0.59293 0.11632 0.41603 0.0
C797 C 0.6077 0.1216 0.46834 0.0
C798 C 0.57499 0.11736 0.42736 0.0
C799 C 0.57144 0.12386 0.49113 0.0
C800 C 0.58647 0.12962 0.54291 0.0
C801 C 0.60435 0.12844 0.53173 0.0
C802 C 0.52347 0.12849 0.46376 0.0
C803 C 0.51333 0.12171 0.52726 0.0
C804 C 0.54251 0.12962 0.45246 0.0
C805 C 0.5518 0.12387 0.50424 0.0
C806 C 0.54178 0.11741 0.56808 0.0
C807 C 0.52283 0.11642 0.57953 0.0
H808 H 0.48587 0.61683 0.91639 0.0
H809 H 0.48674 0.59713 0.70836 0.0
H810 H 0.45255 0.58566 0.93532 0.0
H811 H 0.45393 0.5658 0.72795 0.0
H812 H 0.38673 0.51966 0.76058 0.0
H813 H 0.41801 0.55289 0.74429 0.0
H814 H 0.43799 0.54912 0.94929 0.0
H815 H 0.40632 0.51619 0.96643 0.0
C816 C 0.47898 0.60586 0.87473 0.0
C817 C 0.48901 0.6095 0.81087 0.0
C818 C 0.45993 0.58792 0.88571 0.0
C819 C 0.45052 0.57317 0.83321 0.0
C820 C 0.4605 0.57695 0.76923 0.0
C821 C 0.47944 0.5949 0.75812 0.0
C822 C 0.39773 0.52596 0.80237 0.0
C823 C 0.39406 0.51518 0.86467 0.0
C824 C 0.41575 0.54499 0.79288 0.0
C825 C 0.43066 0.55364 0.84522 0.0
C826 C 0.42676 0.54306 0.90812 0.0
C827 C 0.40864 0.5241 0.91782 0.0
H828 H 0.88748 0.39562 0.08313 0.0
H829 H 0.86849 0.3919 0.29442 0.0
H830 H 0.88607 0.42721 0.06846 0.0
H831 H 0.86573 0.42278 0.279 0.0
H832 H 0.88655 0.49112 0.25386 0.0
H833 H 0.88545 0.45825 0.26872 0.0
H834 H 0.86596 0.4425 0.05748 0.0
H835 H 0.86841 0.476 0.04194 0.0
C836 C 0.88262 0.40138 0.1261 0.0
C837 C 0.87821 0.39137 0.18999 0.0
C838 C 0.88165 0.41946 0.11766 0.0
C839 C 0.87581 0.42775 0.17255 0.0
C840 C 0.87077 0.41726 0.23592 0.0
C841 C 0.87219 0.39943 0.24473 0.0
C842 C 0.88193 0.48055 0.21079 0.0
C843 C 0.87769 0.48617 0.14666 0.0
C844 C 0.88115 0.46159 0.21932 0.0
C845 C 0.87567 0.44757 0.16427 0.0
C846 C 0.87074 0.453 0.1007 0.0
C847 C 0.87197 0.47216 0.09182 0.0
H848 H 0.485 0.89043 0.62756 0.0
H849 H 0.48363 0.86867 0.42095 0.0
H850 H 0.45214 0.88892 0.60781 0.0
H851 H 0.45034 0.86648 0.40196 0.0
H852 H 0.40538 0.89049 0.36568 0.0
H853 H 0.4367 0.88898 0.38571 0.0
H854 H 0.41594 0.86651 0.59148 0.0
H855 H 0.38484 0.86869 0.57218 0.0
C856 C 0.47758 0.88508 0.57813 0.0
C857 C 0.48705 0.8798 0.52567 0.0
C858 C 0.45862 0.88408 0.56696 0.0
C859 C 0.44856 0.87762 0.50322 0.0
C860 C 0.45781 0.87186 0.45129 0.0
C861 C 0.47686 0.87301 0.4623 0.0
C862 C 0.40742 0.88513 0.41515 0.0
C863 C 0.39262 0.87983 0.46747 0.0
C864 C 0.42536 0.88413 0.42649 0.0
C865 C 0.42892 0.87765 0.49027 0.0
C866 C 0.41389 0.8719 0.54211 0.0
C867 C 0.39598 0.87304 0.53093 0.0
H868 H 0.61605 0.48452 0.75853 0.0
H869 H 0.59564 0.48586 0.96516 0.0
H870 H 0.58492 0.45123 0.73943 0.0
H871 H 0.56429 0.45304 0.94533 0.0
H872 H 0.51589 0.40588 0.70395 0.0
H873 H 0.54872 0.43731 0.72333 0.0
H874 H 0.5507 0.41692 0.9294 0.0
H875 H 0.51744 0.38576 0.91078 0.0
C876 C 0.60492 0.47775 0.79984 0.0
C877 C 0.60834 0.48791 0.8633 0.0
C878 C 0.58701 0.4587 0.78878 0.0
C879 C 0.57201 0.44943 0.84074 0.0
C880 C 0.57561 0.45951 0.90446 0.0
C881 C 0.59356 0.47845 0.91568 0.0
C882 C 0.52335 0.40804 0.75335 0.0
C883 C 0.51393 0.39334 0.80598 0.0
C884 C 0.54229 0.42603 0.76432 0.0
C885 C 0.55239 0.42973 0.82802 0.0
C886 C 0.5432 0.41477 0.88011 0.0
C887 C 0.52416 0.39683 0.86931 0.0
H888 H 0.28773 0.48045 0.99508 0.0
H889 H 0.2517 0.42404 0.88099 0.0
H890 H 0.25611 0.48012 0.02974 0.0
H891 H 0.21982 0.42364 0.91545 0.0
H892 H 0.16876 0.4184 0.06628 0.0
H893 H 0.20033 0.4189 0.02746 0.0
H894 H 0.22755 0.48371 0.9772 0.0
H895 H 0.19601 0.48304 0.01588 0.0
C896 C 0.27297 0.46808 0.97701 0.0
C897 C 0.272 0.45223 0.93574 0.0
C898 C 0.25491 0.46791 0.99662 0.0
C899 C 0.2355 0.45179 0.97564 0.0
C900 C 0.23457 0.43612 0.93303 0.0
C901 C 0.25273 0.43642 0.91281 0.0
C902 C 0.18163 0.43271 0.04738 0.0
C903 C 0.1802 0.45071 0.04415 0.0
C904 C 0.19954 0.43298 0.02458 0.0
C905 C 0.21635 0.45133 -0.001 0.0
C906 C 0.21491 0.46939 0.997 0.0
C907 C 0.19695 0.46905 0.01909 0.0
H908 H 0.83076 0.2498 0.23586 0.0
H909 H 0.80651 0.287 0.31816 0.0
H910 H 0.79892 0.21827 0.26998 0.0
H911 H 0.77481 0.25571 0.35259 0.0
H912 H 0.71295 0.19456 0.33373 0.0
H913 H 0.74457 0.2258 0.29826 0.0
H914 H 0.7811 0.20065 0.38069 0.0
H915 H 0.74925 0.16928 0.41578 0.0
C916 C 0.8185 0.25113 0.26074 0.0
C917 C 0.82091 0.27064 0.27458 0.0
C918 C 0.80042 0.23319 0.28081 0.0
C919 C 0.78443 0.23454 0.31427 0.0
C920 C 0.78678 0.25416 0.32653 0.0
C921 C 0.80488 0.27203 0.30702 0.0
C922 C 0.72779 0.19585 0.3445 0.0
C923 C 0.72884 0.17967 0.37723 0.0
C924 C 0.74585 0.21369 0.32441 0.0
C925 C 0.7653 0.21562 0.3364 0.0
C926 C 0.76631 0.19947 0.37002 0.0
C927 C 0.74819 0.18166 0.39065 0.0
H928 H 0.5809 0.83202 0.57713 0.0
H929 H 0.51895 0.80633 0.65637 0.0
H930 H 0.58126 0.80051 0.61114 0.0
H931 H 0.51919 0.77492 0.69067 0.0
H932 H 0.52018 0.71389 0.67105 0.0
H933 H 0.51991 0.7452 0.63584 0.0
H934 H 0.58099 0.78262 0.72165 0.0
H935 H 0.58118 0.75109 0.75644 0.0
C936 C 0.56735 0.81952 0.6014 0.0
C937 C 0.54991 0.82143 0.61437 0.0
C938 C 0.56759 0.80163 0.62137 0.0
C939 C 0.55028 0.78531 0.65386 0.0
C940 C 0.53269 0.78716 0.66536 0.0
C941 C 0.53255 0.80509 0.64596 0.0
C942 C 0.53347 0.72885 0.6825 0.0
C943 C 0.55072 0.73023 0.71615 0.0
C944 C 0.53331 0.74673 0.66262 0.0
C945 C 0.55047 0.76635 0.67572 0.0
C946 C 0.56766 0.7677 0.71014 0.0
C947 C 0.56772 0.74975 0.73056 0.0
H948 H 0.83052 0.58016 0.09894 0.0
H949 H 0.80648 0.51943 0.0109 0.0
H950 H 0.79888 0.58025 0.06503 0.0
H951 H 0.77496 0.51943 0.97667 0.0
H952 H 0.71307 0.51883 0.9978 0.0
H953 H 0.74455 0.51878 0.03243 0.0
H954 H 0.78147 0.58096 0.95422 0.0
H955 H 0.74979 0.58088 0.91982 0.0
C956 C 0.81837 0.56683 0.0727 0.0
C957 C 0.82079 0.54982 0.05725 0.0
C958 C 0.8004 0.56692 0.05281 0.0
C959 C 0.7845 0.54988 0.01792 0.0
C960 C 0.78687 0.53271 0.00385 0.0
C961 C 0.80487 0.53272 0.02317 0.0
C962 C 0.72797 0.5324 0.98784 0.0
C963 C 0.72918 0.54987 0.95643 0.0
C964 C 0.74594 0.53238 0.00741 0.0
C965 C 0.76546 0.5499 0.9963 0.0
C966 C 0.76663 0.56733 0.96415 0.0
C967 C 0.7486 0.56725 0.94398 0.0
H968 H 0.25126 0.83169 0.41209 0.0
H969 H 0.28812 0.80709 0.32954 0.0
H970 H 0.21962 0.80007 0.37752 0.0
H971 H 0.25668 0.77557 0.29469 0.0
H972 H 0.19512 0.7139 0.31764 0.0
H973 H 0.22667 0.74552 0.35094 0.0
H974 H 0.20185 0.78213 0.26674 0.0
H975 H 0.17019 0.75028 0.23362 0.0
C976 C 0.2525 0.81942 0.38685 0.0
C977 C 0.27195 0.82167 0.3732 0.0
C978 C 0.23449 0.80147 0.36657 0.0
C979 C 0.2357 0.7854 0.33311 0.0
C980 C 0.25526 0.78762 0.32071 0.0
C981 C 0.27321 0.80561 0.3404 0.0
C982 C 0.19655 0.72875 0.30596 0.0
C983 C 0.18039 0.72983 0.27331 0.0
C984 C 0.21457 0.74681 0.32479 0.0
C985 C 0.21668 0.76629 0.31169 0.0
C986 C 0.20053 0.76732 0.27816 0.0
C987 C 0.18255 0.7492 0.25871 0.0
H988 H 0.48214 0.28775 0.67737 0.0
H989 H 0.42031 0.25156 0.75772 0.0
H990 H 0.48201 0.25606 0.64445 0.0
H991 H 0.42007 0.21965 0.72505 0.0
H992 H 0.42031 0.17005 0.58102 0.0
H993 H 0.42034 0.20175 0.61498 0.0
H994 H 0.48147 0.22584 0.70083 0.0
H995 H 0.48135 0.19425 0.6665 0.0
C996 C 0.46859 0.27293 0.6883 0.0
C997 C 0.45122 0.27193 0.71981 0.0
C998 C 0.46851 0.25483 0.6697 0.0
C999 C 0.451 0.23539 0.68192 0.0
C1000 C 0.43369 0.23443 0.7143 0.0
C1001 C 0.43386 0.25259 0.73349 0.0
C1002 C 0.43373 0.18224 0.6068 0.0
C1003 C 0.4508 0.17986 0.62144 0.0
C1004 C 0.4337 0.20025 0.62672 0.0
C1005 C 0.45088 0.21622 0.66084 0.0
C1006 C 0.46808 0.21387 0.67428 0.0
C1007 C 0.46801 0.19583 0.65491 0.0
loop_
_geom_bond_atom_site_label_1
_geom_bond_atom_site_label_2
_geom_bond_distance
_geom_bond_site_symmetry_2
_ccdc_geom_bond_type
Co0 O3 1.970 . S
Co0 N17 1.989 . S
Co0 O25 1.967 . S
Co0 O32 1.920 . S
Co1 O4 1.966 . S
Co1 N10 2.022 1_554 S
Co1 N18 1.993 . S
Co1 O26 1.941 . S
C2 O3 1.258 . S
C2 O4 1.263 . S
O3 Co0 1.970 . S
O3 C2 1.258 . S
O4 Co1 1.966 . S
O4 C2 1.263 . S
C5 O6 1.235 . S
C5 O32 1.289 . S
O6 C5 1.235 . S
C7 C9 1.400 . S
C7 N10 1.351 . S
C7 C12 1.501 . S
C8 C9 1.387 . S
C8 N11 1.341 . S
C9 C7 1.400 . S
C9 C8 1.387 . S
N10 Co1 2.022 1_556 S
N10 C7 1.351 . S
N10 N11 1.365 . S
N11 C8 1.341 . S
N11 N10 1.365 . S
N11 H31 0.862 . S
C12 C7 1.501 . S
C12 H13 0.961 . S
C12 H14 0.961 . S
C12 H15 0.960 . S
H13 C12 0.961 . S
H14 C12 0.961 . S
H15 C12 0.960 . S
C16 N17 1.342 . S
C16 C20 1.401 . S
C16 C21 1.499 . S
N17 Co0 1.989 . S
N17 C16 1.342 . S
N17 N18 1.388 . S
N18 Co1 1.993 . S
N18 N17 1.388 . S
N18 C19 1.346 . S
C19 N18 1.346 . S
C19 C20 1.396 . S
C19 C29 1.510 1_554 S
C20 C16 1.401 . S
C20 C19 1.396 . S
C21 C16 1.499 . S
C21 H22 0.959 . S
C21 H23 0.960 . S
C21 H24 0.961 . S
H22 C21 0.959 . S
H23 C21 0.960 . S
H24 C21 0.961 . S
O25 Co0 1.967 . S
O25 C33 1.258 . S
O26 Co1 1.941 . S
O26 C33 1.266 . S
H27 C29 0.959 . S
H28 C29 0.961 . S
C29 C19 1.510 1_556 S
C29 H27 0.959 . S
C29 H28 0.961 . S
C29 H30 0.960 . S
H30 C29 0.960 . S
H31 N11 0.862 . S
O32 Co0 1.920 . S
O32 C5 1.289 . S
C33 O25 1.258 . S
C33 O26 1.266 . S
Co34 O37 1.970 . S
Co34 N51 1.989 . S
Co34 O59 1.967 . S
Co34 O66 1.920 . S
Co35 O38 1.966 . S
Co35 N44 2.022 . S
Co35 N52 1.993 . S
Co35 O60 1.941 . S
C36 O37 1.258 . S
C36 O38 1.263 . S
O37 Co34 1.970 . S
O37 C36 1.258 . S
O38 Co35 1.966 . S
O38 C36 1.263 . S
C39 O40 1.235 . S
C39 O66 1.289 . S
O40 C39 1.235 . S
C41 C43 1.400 . S
C41 N44 1.351 . S
C41 C46 1.501 . S
C42 C43 1.387 . S
C42 N45 1.341 . S
C43 C41 1.400 . S
C43 C42 1.387 . S
N44 Co35 2.022 . S
N44 C41 1.351 . S
N44 N45 1.365 . S
N45 C42 1.341 . S
N45 N44 1.365 . S
N45 H65 0.862 . S
C46 C41 1.501 . S
C46 H47 0.961 . S
C46 H48 0.961 . S
C46 H49 0.960 . S
H47 C46 0.961 . S
H48 C46 0.961 . S
H49 C46 0.960 . S
C50 N51 1.342 . S
C50 C54 1.401 . S
C50 C55 1.499 . S
N51 Co34 1.989 . S
N51 C50 1.342 . S
N51 N52 1.388 . S
N52 Co35 1.993 . S
N52 N51 1.388 . S
N52 C53 1.346 . S
C53 N52 1.346 . S
C53 C54 1.396 . S
C53 C63 1.510 . S
C54 C50 1.401 . S
C54 C53 1.396 . S
C55 C50 1.499 . S
C55 H56 0.959 . S
C55 H57 0.960 . S
C55 H58 0.961 . S
H56 C55 0.959 . S
H57 C55 0.960 . S
H58 C55 0.961 . S
O59 Co34 1.967 . S
O59 C67 1.258 . S
O60 Co35 1.941 . S
O60 C67 1.266 . S
H61 C63 0.959 . S
H62 C63 0.961 . S
C63 C53 1.510 . S
C63 H61 0.959 . S
C63 H62 0.961 . S
C63 H64 0.960 . S
H64 C63 0.960 . S
H65 N45 0.862 . S
O66 Co34 1.920 . S
O66 C39 1.289 . S
C67 O59 1.258 . S
C67 O60 1.266 . S
Co68 O71 1.970 . S
Co68 N85 1.989 . S
Co68 O93 1.967 . S
Co68 O100 1.920 . S
Co69 O72 1.966 . S
Co69 N78 2.022 . S
Co69 N86 1.993 . S
Co69 O94 1.941 . S
C70 O71 1.258 . S
C70 O72 1.263 . S
O71 Co68 1.970 . S
O71 C70 1.258 . S
O72 Co69 1.966 . S
O72 C70 1.263 . S
C73 O74 1.235 . S
C73 O100 1.289 . S
O74 C73 1.235 . S
C75 C77 1.400 . S
C75 N78 1.351 . S
C75 C80 1.501 . S
C76 C77 1.387 . S
C76 N79 1.341 . S
C77 C75 1.400 . S
C77 C76 1.387 . S
N78 Co69 2.022 . S
N78 C75 1.351 . S
N78 N79 1.365 . S
N79 C76 1.341 . S
N79 N78 1.365 . S
N79 H99 0.862 . S
C80 C75 1.501 . S
C80 H81 0.961 . S
C80 H82 0.961 . S
C80 H83 0.960 . S
H81 C80 0.961 . S
H82 C80 0.961 . S
H83 C80 0.960 . S
C84 N85 1.342 . S
C84 C88 1.401 . S
C84 C89 1.499 . S
N85 Co68 1.989 . S
N85 C84 1.342 . S
N85 N86 1.388 . S
N86 Co69 1.993 . S
N86 N85 1.388 . S
N86 C87 1.346 . S
C87 N86 1.346 . S
C87 C88 1.396 . S
C87 C97 1.510 . S
C88 C84 1.401 . S
C88 C87 1.396 . S
C89 C84 1.499 . S
C89 H90 0.959 . S
C89 H91 0.960 . S
C89 H92 0.961 . S
H90 C89 0.959 . S
H91 C89 0.960 . S
H92 C89 0.961 . S
O93 Co68 1.967 . S
O93 C101 1.258 . S
O94 Co69 1.941 . S
O94 C101 1.266 . S
H95 C97 0.959 . S
H96 C97 0.961 . S
C97 C87 1.510 . S
C97 H95 0.959 . S
C97 H96 0.961 . S
C97 H98 0.960 . S
H98 C97 0.960 . S
H99 N79 0.862 . S
O100 Co68 1.920 . S
O100 C73 1.289 . S
C101 O93 1.258 . S
C101 O94 1.266 . S
Co102 O105 1.970 . S
Co102 N119 1.989 . S
Co102 O127 1.967 . S
Co102 O134 1.920 . S
Co103 O106 1.966 . S
Co103 N112 2.022 1_554 S
Co103 N120 1.993 . S
Co103 O128 1.941 . S
C104 O105 1.258 . S
C104 O106 1.263 . S
O105 Co102 1.970 . S
O105 C104 1.258 . S
O106 Co103 1.966 . S
O106 C104 1.263 . S
C107 O108 1.235 . S
C107 O134 1.289 . S
O108 C107 1.235 . S
C109 C111 1.400 . S
C109 N112 1.351 . S
C109 C114 1.501 . S
C110 C111 1.387 . S
C110 N113 1.341 . S
C111 C109 1.400 . S
C111 C110 1.387 . S
N112 Co103 2.022 1_556 S
N112 C109 1.351 . S
N112 N113 1.365 . S
N113 C110 1.341 . S
N113 N112 1.365 . S
N113 H133 0.862 . S
C114 C109 1.501 . S
C114 H115 0.961 . S
C114 H116 0.961 . S
C114 H117 0.960 . S
H115 C114 0.961 . S
H116 C114 0.961 . S
H117 C114 0.960 . S
C118 N119 1.342 . S
C118 C122 1.401 . S
C118 C123 1.499 . S
N119 Co102 1.989 . S
N119 C118 1.342 . S
N119 N120 1.388 . S
N120 Co103 1.993 . S
N120 N119 1.388 . S
N120 C121 1.346 . S
C121 N120 1.346 . S
C121 C122 1.396 . S
C121 C131 1.510 1_554 S
C122 C118 1.401 . S
C122 C121 1.396 . S
C123 C118 1.499 . S
C123 H124 0.959 . S
C123 H125 0.960 . S
C123 H126 0.961 . S
H124 C123 0.959 . S
H125 C123 0.960 . S
H126 C123 0.961 . S
O127 Co102 1.967 . S
O127 C135 1.258 . S
O128 Co103 1.941 . S
O128 C135 1.266 . S
H129 C131 0.959 . S
H130 C131 0.961 . S
C131 C121 1.510 1_556 S
C131 H129 0.959 . S
C131 H130 0.961 . S
C131 H132 0.960 . S
H132 C131 0.960 . S
H133 N113 0.862 . S
O134 Co102 1.920 . S
O134 C107 1.289 . S
C135 O127 1.258 . S
C135 O128 1.266 . S
Co136 O139 1.970 . S
Co136 N153 1.989 . S
Co136 O161 1.967 . S
Co136 O168 1.920 . S
Co137 O140 1.966 . S
Co137 N146 2.022 . S
Co137 N154 1.993 . S
Co137 O162 1.941 . S
C138 O139 1.258 . S
C138 O140 1.263 . S
O139 Co136 1.970 . S
O139 C138 1.258 . S
O140 Co137 1.966 . S
O140 C138 1.263 . S
C141 O142 1.235 . S
C141 O168 1.289 . S
O142 C141 1.235 . S
C143 C145 1.400 . S
C143 N146 1.351 . S
C143 C148 1.501 . S
C144 C145 1.387 . S
C144 N147 1.341 . S
C145 C143 1.400 . S
C145 C144 1.387 . S
N146 Co137 2.022 . S
N146 C143 1.351 . S
N146 N147 1.365 . S
N147 C144 1.341 . S
N147 N146 1.365 . S
N147 H167 0.862 . S
C148 C143 1.501 . S
C148 H149 0.961 . S
C148 H150 0.961 . S
C148 H151 0.960 . S
H149 C148 0.961 . S
H150 C148 0.961 . S
H151 C148 0.960 . S
C152 N153 1.342 . S
C152 C156 1.401 . S
C152 C157 1.499 . S
N153 Co136 1.989 . S
N153 C152 1.342 . S
N153 N154 1.388 . S
N154 Co137 1.993 . S
N154 N153 1.388 . S
N154 C155 1.346 . S
C155 N154 1.346 . S
C155 C156 1.396 . S
C155 C165 1.510 . S
C156 C152 1.401 . S
C156 C155 1.396 . S
C157 C152 1.499 . S
C157 H158 0.959 . S
C157 H159 0.960 . S
C157 H160 0.961 . S
H158 C157 0.959 . S
H159 C157 0.960 . S
H160 C157 0.961 . S
O161 Co136 1.967 . S
O161 C169 1.258 . S
O162 Co137 1.941 . S
O162 C169 1.266 . S
H163 C165 0.959 . S
H164 C165 0.961 . S
C165 C155 1.510 . S
C165 H163 0.959 . S
C165 H164 0.961 . S
C165 H166 0.960 . S
H166 C165 0.960 . S
H167 N147 0.862 . S
O168 Co136 1.920 . S
O168 C141 1.289 . S
C169 O161 1.258 . S
C169 O162 1.266 . S
Co170 O173 1.970 . S
Co170 N187 1.989 . S
Co170 O195 1.967 . S
Co170 O202 1.920 . S
Co171 O174 1.966 . S
Co171 N180 2.022 . S
Co171 N188 1.993 . S
Co171 O196 1.941 . S
C172 O173 1.258 . S
C172 O174 1.263 . S
O173 Co170 1.970 . S
O173 C172 1.258 . S
O174 Co171 1.966 . S
O174 C172 1.263 . S
C175 O176 1.235 . S
C175 O202 1.289 . S
O176 C175 1.235 . S
C177 C179 1.400 . S
C177 N180 1.351 . S
C177 C182 1.501 . S
C178 C179 1.387 . S
C178 N181 1.341 . S
C179 C177 1.400 . S
C179 C178 1.387 . S
N180 Co171 2.022 . S
N180 C177 1.351 . S
N180 N181 1.365 . S
N181 C178 1.341 . S
N181 N180 1.365 . S
N181 H201 0.862 . S
C182 C177 1.501 . S
C182 H183 0.961 . S
C182 H184 0.961 . S
C182 H185 0.960 . S
H183 C182 0.961 . S
H184 C182 0.961 . S
H185 C182 0.960 . S
C186 N187 1.342 . S
C186 C190 1.401 . S
C186 C191 1.499 . S
N187 Co170 1.989 . S
N187 C186 1.342 . S
N187 N188 1.388 . S
N188 Co171 1.993 . S
N188 N187 1.388 . S
N188 C189 1.346 . S
C189 N188 1.346 . S
C189 C190 1.396 . S
C189 C199 1.510 . S
C190 C186 1.401 . S
C190 C189 1.396 . S
C191 C186 1.499 . S
C191 H192 0.959 . S
C191 H193 0.960 . S
C191 H194 0.961 . S
H192 C191 0.959 . S
H193 C191 0.960 . S
H194 C191 0.961 . S
O195 Co170 1.967 . S
O195 C203 1.258 . S
O196 Co171 1.941 . S
O196 C203 1.266 . S
H197 C199 0.959 . S
H198 C199 0.961 . S
C199 C189 1.510 . S
C199 H197 0.959 . S
C199 H198 0.961 . S
C199 H200 0.960 . S
H200 C199 0.960 . S
H201 N181 0.862 . S
O202 Co170 1.920 . S
O202 C175 1.289 . S
C203 O195 1.258 . S
C203 O196 1.266 . S
Co204 O207 1.970 . S
Co204 N221 1.989 . S
Co204 O229 1.967 . S
Co204 O236 1.920 . S
Co205 O208 1.966 . S
Co205 N214 2.022 . S
Co205 N222 1.993 . S
Co205 O230 1.941 . S
C206 O207 1.258 . S
C206 O208 1.263 . S
O207 Co204 1.970 . S
O207 C206 1.258 . S
O208 Co205 1.966 . S
O208 C206 1.263 . S
C209 O210 1.235 . S
C209 O236 1.289 . S
O210 C209 1.235 . S
C211 C213 1.400 . S
C211 N214 1.351 . S
C211 C216 1.501 . S
C212 C213 1.387 . S
C212 N215 1.341 . S
C213 C211 1.400 . S
C213 C212 1.387 . S
N214 Co205 2.022 . S
N214 C211 1.351 . S
N214 N215 1.365 . S
N215 C212 1.341 . S
N215 N214 1.365 . S
N215 H235 0.862 . S
C216 C211 1.501 . S
C216 H217 0.961 . S
C216 H218 0.961 . S
C216 H219 0.960 . S
H217 C216 0.961 . S
H218 C216 0.961 . S
H219 C216 0.960 . S
C220 N221 1.342 . S
C220 C224 1.401 . S
C220 C225 1.499 . S
N221 Co204 1.989 . S
N221 C220 1.342 . S
N221 N222 1.388 . S
N222 Co205 1.993 . S
N222 N221 1.388 . S
N222 C223 1.346 . S
C223 N222 1.346 . S
C223 C224 1.396 . S
C223 C233 1.510 . S
C224 C220 1.401 . S
C224 C223 1.396 . S
C225 C220 1.499 . S
C225 H226 0.959 . S
C225 H227 0.960 . S
C225 H228 0.961 . S
H226 C225 0.959 . S
H227 C225 0.960 . S
H228 C225 0.961 . S
O229 Co204 1.967 . S
O229 C237 1.258 . S
O230 Co205 1.941 . S
O230 C237 1.266 . S
H231 C233 0.959 . S
H232 C233 0.961 . S
C233 C223 1.510 . S
C233 H231 0.959 . S
C233 H232 0.961 . S
C233 H234 0.960 . S
H234 C233 0.960 . S
H235 N215 0.862 . S
O236 Co204 1.920 . S
O236 C209 1.289 . S
C237 O229 1.258 . S
C237 O230 1.266 . S
Co238 O241 1.970 . S
Co238 N255 1.989 . S
Co238 O263 1.967 . S
Co238 O270 1.920 . S
Co239 O242 1.966 . S
Co239 N248 2.022 1_556 S
Co239 N256 1.993 . S
Co239 O264 1.941 . S
C240 O241 1.258 . S
C240 O242 1.263 . S
O241 Co238 1.970 . S
O241 C240 1.258 . S
O242 Co239 1.966 . S
O242 C240 1.263 . S
C243 O244 1.235 . S
C243 O270 1.289 . S
O244 C243 1.235 . S
C245 C247 1.400 . S
C245 N248 1.351 . S
C245 C250 1.501 . S
C246 C247 1.387 . S
C246 N249 1.341 . S
C247 C245 1.400 . S
C247 C246 1.387 . S
N248 Co239 2.022 1_554 S
N248 C245 1.351 . S
N248 N249 1.365 . S
N249 C246 1.341 . S
N249 N248 1.365 . S
N249 H269 0.862 . S
C250 C245 1.501 . S
C250 H251 0.961 . S
C250 H252 0.961 . S
C250 H253 0.960 . S
H251 C250 0.961 . S
H252 C250 0.961 . S
H253 C250 0.960 . S
C254 N255 1.342 . S
C254 C258 1.401 . S
C254 C259 1.499 . S
N255 Co238 1.989 . S
N255 C254 1.342 . S
N255 N256 1.388 . S
N256 Co239 1.993 . S
N256 N255 1.388 . S
N256 C257 1.346 . S
C257 N256 1.346 . S
C257 C258 1.396 . S
C257 C267 1.510 1_556 S
C258 C254 1.401 . S
C258 C257 1.396 . S
C259 C254 1.499 . S
C259 H260 0.959 . S
C259 H261 0.960 . S
C259 H262 0.961 . S
H260 C259 0.959 . S
H261 C259 0.960 . S
H262 C259 0.961 . S
O263 Co238 1.967 . S
O263 C271 1.258 . S
O264 Co239 1.941 . S
O264 C271 1.266 . S
H265 C267 0.959 . S
H266 C267 0.961 . S
C267 C257 1.510 1_554 S
C267 H265 0.959 . S
C267 H266 0.961 . S
C267 H268 0.960 . S
H268 C267 0.960 . S
H269 N249 0.862 . S
O270 Co238 1.920 . S
O270 C243 1.289 . S
C271 O263 1.258 . S
C271 O264 1.266 . S
Co272 O275 1.970 . S
Co272 N289 1.989 . S
Co272 O297 1.967 . S
Co272 O304 1.920 . S
Co273 O276 1.966 . S
Co273 N282 2.022 . S
Co273 N290 1.993 . S
Co273 O298 1.941 . S
C274 O275 1.258 . S
C274 O276 1.263 . S
O275 Co272 1.970 . S
O275 C274 1.258 . S
O276 Co273 1.966 . S
O276 C274 1.263 . S
C277 O278 1.235 . S
C277 O304 1.289 . S
O278 C277 1.235 . S
C279 C281 1.400 . S
C279 N282 1.351 . S
C279 C284 1.501 . S
C280 C281 1.387 . S
C280 N283 1.341 . S
C281 C279 1.400 . S
C281 C280 1.387 . S
N282 Co273 2.022 . S
N282 C279 1.351 . S
N282 N283 1.365 . S
N283 C280 1.341 . S
N283 N282 1.365 . S
N283 H303 0.862 . S
C284 C279 1.501 . S
C284 H285 0.961 . S
C284 H286 0.961 . S
C284 H287 0.960 . S
H285 C284 0.961 . S
H286 C284 0.961 . S
H287 C284 0.960 . S
C288 N289 1.342 . S
C288 C292 1.401 . S
C288 C293 1.499 . S
N289 Co272 1.989 . S
N289 C288 1.342 . S
N289 N290 1.388 . S
N290 Co273 1.993 . S
N290 N289 1.388 . S
N290 C291 1.346 . S
C291 N290 1.346 . S
C291 C292 1.396 . S
C291 C301 1.510 . S
C292 C288 1.401 . S
C292 C291 1.396 . S
C293 C288 1.499 . S
C293 H294 0.959 . S
C293 H295 0.960 . S
C293 H296 0.961 . S
H294 C293 0.959 . S
H295 C293 0.960 . S
H296 C293 0.961 . S
O297 Co272 1.967 . S
O297 C305 1.258 . S
O298 Co273 1.941 . S
O298 C305 1.266 . S
H299 C301 0.959 . S
H300 C301 0.961 . S
C301 C291 1.510 . S
C301 H299 0.959 . S
C301 H300 0.961 . S
C301 H302 0.960 . S
H302 C301 0.960 . S
H303 N283 0.862 . S
O304 Co272 1.920 . S
O304 C277 1.289 . S
C305 O297 1.258 . S
C305 O298 1.266 . S
Co306 O309 1.970 . S
Co306 N323 1.989 . S
Co306 O331 1.967 . S
Co306 O338 1.920 . S
Co307 O310 1.966 . S
Co307 N316 2.022 . S
Co307 N324 1.993 . S
Co307 O332 1.941 . S
C308 O309 1.258 . S
C308 O310 1.263 . S
O309 Co306 1.970 . S
O309 C308 1.258 . S
O310 Co307 1.966 . S
O310 C308 1.263 . S
C311 O312 1.235 . S
C311 O338 1.289 . S
O312 C311 1.235 . S
C313 C315 1.400 . S
C313 N316 1.351 . S
C313 C318 1.501 . S
C314 C315 1.387 . S
C314 N317 1.341 . S
C315 C313 1.400 . S
C315 C314 1.387 . S
N316 Co307 2.022 . S
N316 C313 1.351 . S
N316 N317 1.365 . S
N317 C314 1.341 . S
N317 N316 1.365 . S
N317 H337 0.862 . S
C318 C313 1.501 . S
C318 H319 0.961 . S
C318 H320 0.961 . S
C318 H321 0.960 . S
H319 C318 0.961 . S
H320 C318 0.961 . S
H321 C318 0.960 . S
C322 N323 1.342 . S
C322 C326 1.401 . S
C322 C327 1.499 . S
N323 Co306 1.989 . S
N323 C322 1.342 . S
N323 N324 1.388 . S
N324 Co307 1.993 . S
N324 N323 1.388 . S
N324 C325 1.346 . S
C325 N324 1.346 . S
C325 C326 1.396 . S
C325 C335 1.510 . S
C326 C322 1.401 . S
C326 C325 1.396 . S
C327 C322 1.499 . S
C327 H328 0.959 . S
C327 H329 0.960 . S
C327 H330 0.961 . S
H328 C327 0.959 . S
H329 C327 0.960 . S
H330 C327 0.961 . S
O331 Co306 1.967 . S
O331 C339 1.258 . S
O332 Co307 1.941 . S
O332 C339 1.266 . S
H333 C335 0.959 . S
H334 C335 0.961 . S
C335 C325 1.510 . S
C335 H333 0.959 . S
C335 H334 0.961 . S
C335 H336 0.960 . S
H336 C335 0.960 . S
H337 N317 0.862 . S
O338 Co306 1.920 . S
O338 C311 1.289 . S
C339 O331 1.258 . S
C339 O332 1.266 . S
Co340 O343 1.970 . S
Co340 N357 1.989 . S
Co340 O365 1.967 . S
Co340 O372 1.920 . S
Co341 O344 1.966 . S
Co341 N350 2.022 1_556 S
Co341 N358 1.993 . S
Co341 O366 1.941 . S
C342 O343 1.258 . S
C342 O344 1.263 . S
O343 Co340 1.970 . S
O343 C342 1.258 . S
O344 Co341 1.966 . S
O344 C342 1.263 . S
C345 O346 1.235 . S
C345 O372 1.289 . S
O346 C345 1.235 . S
C347 C349 1.400 . S
C347 N350 1.351 . S
C347 C352 1.501 . S
C348 C349 1.387 . S
C348 N351 1.341 . S
C349 C347 1.400 . S
C349 C348 1.387 . S
N350 Co341 2.022 1_554 S
N350 C347 1.351 . S
N350 N351 1.365 . S
N351 C348 1.341 . S
N351 N350 1.365 . S
N351 H371 0.862 . S
C352 C347 1.501 . S
C352 H353 0.961 . S
C352 H354 0.961 . S
C352 H355 0.960 . S
H353 C352 0.961 . S
H354 C352 0.961 . S
H355 C352 0.960 . S
C356 N357 1.342 . S
C356 C360 1.401 . S
C356 C361 1.499 . S
N357 Co340 1.989 . S
N357 C356 1.342 . S
N357 N358 1.388 . S
N358 Co341 1.993 . S
N358 N357 1.388 . S
N358 C359 1.346 . S
C359 N358 1.346 . S
C359 C360 1.396 . S
C359 C369 1.510 1_556 S
C360 C356 1.401 . S
C360 C359 1.396 . S
C361 C356 1.499 . S
C361 H362 0.959 . S
C361 H363 0.960 . S
C361 H364 0.961 . S
H362 C361 0.959 . S
H363 C361 0.960 . S
H364 C361 0.961 . S
O365 Co340 1.967 . S
O365 C373 1.258 . S
O366 Co341 1.941 . S
O366 C373 1.266 . S
H367 C369 0.959 . S
H368 C369 0.961 . S
C369 C359 1.510 1_554 S
C369 H367 0.959 . S
C369 H368 0.961 . S
C369 H370 0.960 . S
H370 C369 0.960 . S
H371 N351 0.862 . S
O372 Co340 1.920 . S
O372 C345 1.289 . S
C373 O365 1.258 . S
C373 O366 1.266 . S
Co374 O377 1.970 . S
Co374 N391 1.989 . S
Co374 O399 1.967 . S
Co374 O406 1.920 . S
Co375 O378 1.966 . S
Co375 N384 2.022 . S
Co375 N392 1.993 . S
Co375 O400 1.941 . S
C376 O377 1.258 . S
C376 O378 1.263 . S
O377 Co374 1.970 . S
O377 C376 1.258 . S
O378 Co375 1.966 . S
O378 C376 1.263 . S
C379 O380 1.235 . S
C379 O406 1.289 . S
O380 C379 1.235 . S
C381 C383 1.400 . S
C381 N384 1.351 . S
C381 C386 1.501 . S
C382 C383 1.387 . S
C382 N385 1.341 . S
C383 C381 1.400 . S
C383 C382 1.387 . S
N384 Co375 2.022 . S
N384 C381 1.351 . S
N384 N385 1.365 . S
N385 C382 1.341 . S
N385 N384 1.365 . S
N385 H405 0.862 . S
C386 C381 1.501 . S
C386 H387 0.961 . S
C386 H388 0.961 . S
C386 H389 0.960 . S
H387 C386 0.961 . S
H388 C386 0.961 . S
H389 C386 0.960 . S
C390 N391 1.342 . S
C390 C394 1.401 . S
C390 C395 1.499 . S
N391 Co374 1.989 . S
N391 C390 1.342 . S
N391 N392 1.388 . S
N392 Co375 1.993 . S
N392 N391 1.388 . S
N392 C393 1.346 . S
C393 N392 1.346 . S
C393 C394 1.396 . S
C393 C403 1.510 . S
C394 C390 1.401 . S
C394 C393 1.396 . S
C395 C390 1.499 . S
C395 H396 0.959 . S
C395 H397 0.960 . S
C395 H398 0.961 . S
H396 C395 0.959 . S
H397 C395 0.960 . S
H398 C395 0.961 . S
O399 Co374 1.967 . S
O399 C407 1.258 . S
O400 Co375 1.941 . S
O400 C407 1.266 . S
H401 C403 0.959 . S
H402 C403 0.961 . S
C403 C393 1.510 . S
C403 H401 0.959 . S
C403 H402 0.961 . S
C403 H404 0.960 . S
H404 C403 0.960 . S
H405 N385 0.862 . S
O406 Co374 1.920 . S
O406 C379 1.289 . S
C407 O399 1.258 . S
C407 O400 1.266 . S
H408 C416 0.950 . S
H409 C421 0.950 . S
H410 C418 0.950 . S
H411 C420 0.950 . S
H412 C422 0.950 . S
H413 C424 0.950 . S
H414 C426 0.950 . S
H415 C427 0.950 . S
C416 H408 0.950 . S
C416 C417 1.386 . S
C416 C418 1.391 . S
C417 C416 1.386 . S
C417 C421 1.393 . S
C418 H410 0.950 . S
C418 C416 1.391 . S
C418 C419 1.400 . S
C419 C418 1.400 . S
C419 C420 1.398 . S
C419 C425 1.491 1_455 S
C420 H411 0.950 . S
C420 C419 1.398 . S
C420 C421 1.391 . S
C421 H409 0.950 . S
C421 C417 1.393 . S
C421 C420 1.391 . S
C422 H412 0.950 . S
C422 C423 1.386 . S
C422 C424 1.391 . S
C423 C422 1.386 . S
C423 C427 1.393 . S
C424 H413 0.950 . S
C424 C422 1.391 . S
C424 C425 1.400 . S
C425 C419 1.491 1_655 S
C425 C424 1.400 . S
C425 C426 1.398 . S
C426 H414 0.950 . S
C426 C425 1.398 . S
C426 C427 1.391 . S
C427 H415 0.950 . S
C427 C423 1.393 . S
C427 C426 1.391 . S
H428 C436 0.950 . S
H429 C441 0.950 . S
H430 C438 0.950 . S
H431 C440 0.950 . S
H432 C442 0.950 . S
H433 C444 0.950 . S
H434 C446 0.950 . S
H435 C447 0.950 . S
C436 H428 0.950 . S
C436 C437 1.386 . S
C436 C438 1.391 . S
C437 C436 1.386 . S
C437 C441 1.393 . S
C438 H430 0.950 . S
C438 C436 1.391 . S
C438 C439 1.400 . S
C439 C438 1.400 . S
C439 C440 1.398 . S
C439 C445 1.491 1_545 S
C440 H431 0.950 . S
C440 C439 1.398 . S
C440 C441 1.391 . S
C441 H429 0.950 . S
C441 C437 1.393 . S
C441 C440 1.391 . S
C442 H432 0.950 . S
C442 C443 1.386 . S
C442 C444 1.391 . S
C443 C442 1.386 . S
C443 C447 1.393 . S
C444 H433 0.950 . S
C444 C442 1.391 . S
C444 C445 1.400 . S
C445 C439 1.491 1_565 S
C445 C444 1.400 . S
C445 C446 1.398 . S
C446 H434 0.950 . S
C446 C445 1.398 . S
C446 C447 1.391 . S
C447 H435 0.950 . S
C447 C443 1.393 . S
C447 C446 1.391 . S
H448 C456 0.950 . S
H449 C461 0.950 . S
H450 C458 0.950 . S
H451 C460 0.950 . S
H452 C462 0.950 . S
H453 C464 0.950 . S
H454 C466 0.950 . S
H455 C467 0.950 . S
C456 H448 0.950 . S
C456 C457 1.386 . S
C456 C458 1.391 . S
C457 C456 1.386 . S
C457 C461 1.393 . S
C458 H450 0.950 . S
C458 C456 1.391 . S
C458 C459 1.400 . S
C459 C458 1.400 . S
C459 C460 1.398 . S
C459 C465 1.491 . S
C460 H451 0.950 . S
C460 C459 1.398 . S
C460 C461 1.391 . S
C461 H449 0.950 . S
C461 C457 1.393 . S
C461 C460 1.391 . S
C462 H452 0.950 . S
C462 C463 1.386 . S
C462 C464 1.391 . S
C463 C462 1.386 . S
C463 C467 1.393 . S
C464 H453 0.950 . S
C464 C462 1.391 . S
C464 C465 1.400 . S
C465 C459 1.491 . S
C465 C464 1.400 . S
C465 C466 1.398 . S
C466 H454 0.950 . S
C466 C465 1.398 . S
C466 C467 1.391 . S
C467 H455 0.950 . S
C467 C463 1.393 . S
C467 C466 1.391 . S
H468 C476 0.950 . S
H469 C481 0.950 . S
H470 C478 0.950 . S
H471 C480 0.950 . S
H472 C482 0.950 . S
H473 C484 0.950 . S
H474 C486 0.950 . S
H475 C487 0.950 . S
C476 H468 0.950 . S
C476 C477 1.386 . S
C476 C478 1.391 . S
C477 C476 1.386 . S
C477 C481 1.393 . S
C478 H470 0.950 . S
C478 C476 1.391 . S
C478 C479 1.400 . S
C479 C478 1.400 . S
C479 C480 1.398 . S
C479 C485 1.491 1_455 S
C480 H471 0.950 . S
C480 C479 1.398 . S
C480 C481 1.391 . S
C481 H469 0.950 . S
C481 C477 1.393 . S
C481 C480 1.391 . S
C482 H472 0.950 . S
C482 C483 1.386 . S
C482 C484 1.391 . S
C483 C482 1.386 . S
C483 C487 1.393 . S
C484 H473 0.950 . S
C484 C482 1.391 . S
C484 C485 1.400 . S
C485 C479 1.491 1_655 S
C485 C484 1.400 . S
C485 C486 1.398 . S
C486 H474 0.950 . S
C486 C485 1.398 . S
C486 C487 1.391 . S
C487 H475 0.950 . S
C487 C483 1.393 . S
C487 C486 1.391 . S
H488 C496 0.950 . S
H489 C501 0.950 . S
H490 C498 0.950 . S
H491 C500 0.950 . S
H492 C502 0.950 . S
H493 C504 0.950 . S
H494 C506 0.950 . S
H495 C507 0.950 . S
C496 H488 0.950 . S
C496 C497 1.386 . S
C496 C498 1.391 . S
C497 C496 1.386 . S
C497 C501 1.393 . S
C498 H490 0.950 . S
C498 C496 1.391 . S
C498 C499 1.400 . S
C499 C498 1.400 . S
C499 C500 1.398 . S
C499 C505 1.491 1_545 S
C500 H491 0.950 . S
C500 C499 1.398 . S
C500 C501 1.391 . S
C501 H489 0.950 . S
C501 C497 1.393 . S
C501 C500 1.391 . S
C502 H492 0.950 . S
C502 C503 1.386 . S
C502 C504 1.391 . S
C503 C502 1.386 . S
C503 C507 1.393 . S
C504 H493 0.950 . S
C504 C502 1.391 . S
C504 C505 1.400 . S
C505 C499 1.491 1_565 S
C505 C504 1.400 . S
C505 C506 1.398 . S
C506 H494 0.950 . S
C506 C505 1.398 . S
C506 C507 1.391 . S
C507 H495 0.950 . S
C507 C503 1.393 . S
C507 C506 1.391 . S
H508 C516 0.950 . S
H509 C521 0.950 . S
H510 C518 0.950 . S
H511 C520 0.950 . S
H512 C522 0.950 . S
H513 C524 0.950 . S
H514 C526 0.950 . S
H515 C527 0.950 . S
C516 H508 0.950 . S
C516 C517 1.386 . S
C516 C518 1.391 . S
C517 C516 1.386 . S
C517 C521 1.393 . S
C518 H510 0.950 . S
C518 C516 1.391 . S
C518 C519 1.400 . S
C519 C518 1.400 . S
C519 C520 1.398 . S
C519 C525 1.491 . S
C520 H511 0.950 . S
C520 C519 1.398 . S
C520 C521 1.391 . S
C521 H509 0.950 . S
C521 C517 1.393 . S
C521 C520 1.391 . S
C522 H512 0.950 . S
C522 C523 1.386 . S
C522 C524 1.391 . S
C523 C522 1.386 . S
C523 C527 1.393 . S
C524 H513 0.950 . S
C524 C522 1.391 . S
C524 C525 1.400 . S
C525 C519 1.491 . S
C525 C524 1.400 . S
C525 C526 1.398 . S
C526 H514 0.950 . S
C526 C525 1.398 . S
C526 C527 1.391 . S
C527 H515 0.950 . S
C527 C523 1.393 . S
C527 C526 1.391 . S
H528 C536 0.950 . S
H529 C541 0.950 . S
H530 C538 0.950 . S
H531 C540 0.950 . S
H532 C542 0.950 . S
H533 C544 0.950 . S
H534 C546 0.950 . S
H535 C547 0.950 . S
C536 H528 0.950 . S
C536 C537 1.386 . S
C536 C538 1.391 . S
C537 C536 1.386 . S
C537 C541 1.393 . S
C538 H530 0.950 . S
C538 C536 1.391 . S
C538 C539 1.400 . S
C539 C538 1.400 . S
C539 C540 1.398 . S
C539 C545 1.491 . S
C540 H531 0.950 . S
C540 C539 1.398 . S
C540 C541 1.391 . S
C541 H529 0.950 . S
C541 C537 1.393 . S
C541 C540 1.391 . S
C542 H532 0.950 . S
C542 C543 1.386 . S
C542 C544 1.391 . S
C543 C542 1.386 . S
C543 C547 1.393 . S
C544 H533 0.950 . S
C544 C542 1.391 . S
C544 C545 1.400 . S
C545 C539 1.491 . S
C545 C544 1.400 . S
C545 C546 1.398 . S
C546 H534 0.950 . S
C546 C545 1.398 . S
C546 C547 1.391 . S
C547 H535 0.950 . S
C547 C543 1.393 . S
C547 C546 1.391 . S
H548 C556 0.950 . S
H549 C561 0.950 . S
H550 C558 0.950 . S
H551 C560 0.950 . S
H552 C562 0.950 . S
H553 C564 0.950 . S
H554 C566 0.950 . S
H555 C567 0.950 . S
C556 H548 0.950 . S
C556 C557 1.386 . S
C556 C558 1.391 . S
C557 C556 1.386 . S
C557 C561 1.393 . S
C558 H550 0.950 . S
C558 C556 1.391 . S
C558 C559 1.400 . S
C559 C558 1.400 . S
C559 C560 1.398 . S
C559 C565 1.491 . S
C560 H551 0.950 . S
C560 C559 1.398 . S
C560 C561 1.391 . S
C561 H549 0.950 . S
C561 C557 1.393 . S
C561 C560 1.391 . S
C562 H552 0.950 . S
C562 C563 1.386 . S
C562 C564 1.391 1_554 S
C563 C562 1.386 . S
C563 C567 1.393 . S
C564 H553 0.950 . S
C564 C562 1.391 1_556 S
C564 C565 1.400 . S
C565 C559 1.491 . S
C565 C564 1.400 . S
C565 C566 1.398 . S
C566 H554 0.950 . S
C566 C565 1.398 . S
C566 C567 1.391 1_556 S
C567 H555 0.950 . S
C567 C563 1.393 . S
C567 C566 1.391 1_554 S
H568 C576 0.950 . S
H569 C581 0.950 . S
H570 C578 0.950 . S
H571 C580 0.950 . S
H572 C582 0.950 . S
H573 C584 0.950 . S
H574 C586 0.950 . S
H575 C587 0.950 . S
C576 H568 0.950 . S
C576 C577 1.386 . S
C576 C578 1.391 . S
C577 C576 1.386 . S
C577 C581 1.393 . S
C578 H570 0.950 . S
C578 C576 1.391 . S
C578 C579 1.400 . S
C579 C578 1.400 . S
C579 C580 1.398 . S
C579 C585 1.491 . S
C580 H571 0.950 . S
C580 C579 1.398 . S
C580 C581 1.391 . S
C581 H569 0.950 . S
C581 C577 1.393 . S
C581 C580 1.391 . S
C582 H572 0.950 . S
C582 C583 1.386 . S
C582 C584 1.391 . S
C583 C582 1.386 . S
C583 C587 1.393 . S
C584 H573 0.950 . S
C584 C582 1.391 . S
C584 C585 1.400 . S
C585 C579 1.491 . S
C585 C584 1.400 . S
C585 C586 1.398 . S
C586 H574 0.950 . S
C586 C585 1.398 . S
C586 C587 1.391 . S
C587 H575 0.950 . S
C587 C583 1.393 . S
C587 C586 1.391 . S
H588 C596 0.950 . S
H589 C601 0.950 . S
H590 C598 0.950 . S
H591 C600 0.950 . S
H592 C602 0.950 . S
H593 C604 0.950 . S
H594 C606 0.950 . S
H595 C607 0.950 . S
C596 H588 0.950 . S
C596 C597 1.386 . S
C596 C598 1.391 . S
C597 C596 1.386 . S
C597 C601 1.393 . S
C598 H590 0.950 . S
C598 C596 1.391 . S
C598 C599 1.400 . S
C599 C598 1.400 . S
C599 C600 1.398 . S
C599 C605 1.491 . S
C600 H591 0.950 . S
C600 C599 1.398 . S
C600 C601 1.391 . S
C601 H589 0.950 . S
C601 C597 1.393 . S
C601 C600 1.391 . S
C602 H592 0.950 . S
C602 C603 1.386 . S
C602 C604 1.391 . S
C603 C602 1.386 . S
C603 C607 1.393 . S
C604 H593 0.950 . S
C604 C602 1.391 . S
C604 C605 1.400 . S
C605 C599 1.491 . S
C605 C604 1.400 . S
C605 C606 1.398 . S
C606 H594 0.950 . S
C606 C605 1.398 . S
C606 C607 1.391 . S
C607 H595 0.950 . S
C607 C603 1.393 . S
C607 C606 1.391 . S
H608 C616 0.950 . S
H609 C621 0.950 . S
H610 C618 0.950 . S
H611 C620 0.950 . S
H612 C622 0.950 . S
H613 C624 0.950 . S
H614 C626 0.950 . S
H615 C627 0.950 . S
C616 H608 0.950 . S
C616 C617 1.386 . S
C616 C618 1.391 1_554 S
C617 C616 1.386 . S
C617 C621 1.393 . S
C618 H610 0.950 . S
C618 C616 1.391 1_556 S
C618 C619 1.400 . S
C619 C618 1.400 . S
C619 C620 1.398 . S
C619 C625 1.491 . S
C620 H611 0.950 . S
C620 C619 1.398 . S
C620 C621 1.391 1_556 S
C621 H609 0.950 . S
C621 C617 1.393 . S
C621 C620 1.391 1_554 S
C622 H612 0.950 . S
C622 C623 1.386 . S
C622 C624 1.391 . S
C623 C622 1.386 . S
C623 C627 1.393 . S
C624 H613 0.950 . S
C624 C622 1.391 . S
C624 C625 1.400 . S
C625 C619 1.491 . S
C625 C624 1.400 . S
C625 C626 1.398 . S
C626 H614 0.950 . S
C626 C625 1.398 . S
C626 C627 1.391 . S
C627 H615 0.950 . S
C627 C623 1.393 . S
C627 C626 1.391 . S
H628 C636 0.950 . S
H629 C641 0.950 . S
H630 C638 0.950 . S
H631 C640 0.950 . S
H632 C642 0.950 . S
H633 C644 0.950 . S
H634 C646 0.950 . S
H635 C647 0.950 . S
C636 H628 0.950 . S
C636 C637 1.386 . S
C636 C638 1.391 . S
C637 C636 1.386 . S
C637 C641 1.393 . S
C638 H630 0.950 . S
C638 C636 1.391 . S
C638 C639 1.400 . S
C639 C638 1.400 . S
C639 C640 1.398 . S
C639 C645 1.491 . S
C640 H631 0.950 . S
C640 C639 1.398 . S
C640 C641 1.391 . S
C641 H629 0.950 . S
C641 C637 1.393 . S
C641 C640 1.391 . S
C642 H632 0.950 . S
C642 C643 1.386 . S
C642 C644 1.391 . S
C643 C642 1.386 . S
C643 C647 1.393 . S
C644 H633 0.950 . S
C644 C642 1.391 . S
C644 C645 1.400 . S
C645 C639 1.491 . S
C645 C644 1.400 . S
C645 C646 1.398 . S
C646 H634 0.950 . S
C646 C645 1.398 . S
C646 C647 1.391 . S
C647 H635 0.950 . S
C647 C643 1.393 . S
C647 C646 1.391 . S
H648 C656 0.950 . S
H649 C661 0.950 . S
H650 C658 0.950 . S
H651 C660 0.950 . S
H652 C662 0.950 . S
H653 C664 0.950 . S
H654 C666 0.950 . S
H655 C667 0.950 . S
C656 H648 0.950 . S
C656 C657 1.386 . S
C656 C658 1.391 1_556 S
C657 C656 1.386 . S
C657 C661 1.393 . S
C658 H650 0.950 . S
C658 C656 1.391 1_554 S
C658 C659 1.400 . S
C659 C658 1.400 . S
C659 C660 1.398 . S
C659 C665 1.491 . S
C660 H651 0.950 . S
C660 C659 1.398 . S
C660 C661 1.391 1_554 S
C661 H649 0.950 . S
C661 C657 1.393 . S
C661 C660 1.391 1_556 S
C662 H652 0.950 . S
C662 C663 1.386 . S
C662 C664 1.391 . S
C663 C662 1.386 . S
C663 C667 1.393 . S
C664 H653 0.950 . S
C664 C662 1.391 . S
C664 C665 1.400 . S
C665 C659 1.491 . S
C665 C664 1.400 . S
C665 C666 1.398 . S
C666 H654 0.950 . S
C666 C665 1.398 . S
C666 C667 1.391 . S
C667 H655 0.950 . S
C667 C663 1.393 . S
C667 C666 1.391 . S
H668 C676 0.950 . S
H669 C681 0.950 . S
H670 C678 0.950 . S
H671 C680 0.950 . S
H672 C682 0.950 . S
H673 C684 0.950 . S
H674 C686 0.950 . S
H675 C687 0.950 . S
C676 H668 0.950 . S
C676 C677 1.386 . S
C676 C678 1.391 . S
C677 C676 1.386 . S
C677 C681 1.393 . S
C678 H670 0.950 . S
C678 C676 1.391 . S
C678 C679 1.400 . S
C679 C678 1.400 . S
C679 C680 1.398 . S
C679 C685 1.491 . S
C680 H671 0.950 . S
C680 C679 1.398 . S
C680 C681 1.391 . S
C681 H669 0.950 . S
C681 C677 1.393 . S
C681 C680 1.391 . S
C682 H672 0.950 . S
C682 C683 1.386 . S
C682 C684 1.391 . S
C683 C682 1.386 . S
C683 C687 1.393 . S
C684 H673 0.950 . S
C684 C682 1.391 . S
C684 C685 1.400 . S
C685 C679 1.491 . S
C685 C684 1.400 . S
C685 C686 1.398 . S
C686 H674 0.950 . S
C686 C685 1.398 . S
C686 C687 1.391 . S
C687 H675 0.950 . S
C687 C683 1.393 . S
C687 C686 1.391 . S
H688 C696 0.950 . S
H689 C701 0.950 . S
H690 C698 0.950 . S
H691 C700 0.950 . S
H692 C702 0.950 . S
H693 C704 0.950 . S
H694 C706 0.950 . S
H695 C707 0.950 . S
C696 H688 0.950 . S
C696 C697 1.386 . S
C696 C698 1.391 . S
C697 C696 1.386 . S
C697 C701 1.393 . S
C698 H690 0.950 . S
C698 C696 1.391 . S
C698 C699 1.400 . S
C699 C698 1.400 . S
C699 C700 1.398 . S
C699 C705 1.491 . S
C700 H691 0.950 . S
C700 C699 1.398 . S
C700 C701 1.391 . S
C701 H689 0.950 . S
C701 C697 1.393 . S
C701 C700 1.391 . S
C702 H692 0.950 . S
C702 C703 1.386 . S
C702 C704 1.391 . S
C703 C702 1.386 . S
C703 C707 1.393 . S
C704 H693 0.950 . S
C704 C702 1.391 . S
C704 C705 1.400 . S
C705 C699 1.491 . S
C705 C704 1.400 . S
C705 C706 1.398 . S
C706 H694 0.950 . S
C706 C705 1.398 . S
C706 C707 1.391 . S
C707 H695 0.950 . S
C707 C703 1.393 . S
C707 C706 1.391 . S
H708 C716 0.950 . S
H709 C721 0.950 . S
H710 C718 0.950 . S
H711 C720 0.950 . S
H712 C722 0.950 . S
H713 C724 0.950 . S
H714 C726 0.950 . S
H715 C727 0.950 . S
C716 H708 0.950 . S
C716 C717 1.386 . S
C716 C718 1.391 . S
C717 C716 1.386 . S
C717 C721 1.393 . S
C718 H710 0.950 . S
C718 C716 1.391 . S
C718 C719 1.400 . S
C719 C718 1.400 . S
C719 C720 1.398 . S
C719 C725 1.491 . S
C720 H711 0.950 . S
C720 C719 1.398 . S
C720 C721 1.391 . S
C721 H709 0.950 . S
C721 C717 1.393 . S
C721 C720 1.391 . S
C722 H712 0.950 . S
C722 C723 1.386 . S
C722 C724 1.391 1_556 S
C723 C722 1.386 . S
C723 C727 1.393 . S
C724 H713 0.950 . S
C724 C722 1.391 1_554 S
C724 C725 1.400 . S
C725 C719 1.491 . S
C725 C724 1.400 . S
C725 C726 1.398 . S
C726 H714 0.950 . S
C726 C725 1.398 . S
C726 C727 1.391 1_554 S
C727 H715 0.950 . S
C727 C723 1.393 . S
C727 C726 1.391 1_556 S
H728 C736 0.950 . S
H729 C741 0.950 . S
H730 C738 0.950 . S
H731 C740 0.950 . S
H732 C742 0.950 . S
H733 C744 0.950 . S
H734 C746 0.950 . S
H735 C747 0.950 . S
C736 H728 0.950 . S
C736 C737 1.386 . S
C736 C738 1.391 . S
C737 C736 1.386 . S
C737 C741 1.393 . S
C738 H730 0.950 . S
C738 C736 1.391 . S
C738 C739 1.400 . S
C739 C738 1.400 . S
C739 C740 1.398 . S
C739 C745 1.491 . S
C740 H731 0.950 . S
C740 C739 1.398 . S
C740 C741 1.391 . S
C741 H729 0.950 . S
C741 C737 1.393 . S
C741 C740 1.391 . S
C742 H732 0.950 . S
C742 C743 1.386 . S
C742 C744 1.391 . S
C743 C742 1.386 . S
C743 C747 1.393 . S
C744 H733 0.950 . S
C744 C742 1.391 . S
C744 C745 1.400 . S
C745 C739 1.491 . S
C745 C744 1.400 . S
C745 C746 1.398 . S
C746 H734 0.950 . S
C746 C745 1.398 . S
C746 C747 1.391 . S
C747 H735 0.950 . S
C747 C743 1.393 . S
C747 C746 1.391 . S
H748 C756 0.950 . S
H749 C761 0.950 . S
H750 C758 0.950 . S
H751 C760 0.950 . S
H752 C762 0.950 . S
H753 C764 0.950 . S
H754 C766 0.950 . S
H755 C767 0.950 . S
C756 H748 0.950 . S
C756 C757 1.386 . S
C756 C758 1.391 . S
C757 C756 1.386 . S
C757 C761 1.393 . S
C758 H750 0.950 . S
C758 C756 1.391 . S
C758 C759 1.400 . S
C759 C758 1.400 . S
C759 C760 1.398 . S
C759 C765 1.491 . S
C760 H751 0.950 . S
C760 C759 1.398 . S
C760 C761 1.391 . S
C761 H749 0.950 . S
C761 C757 1.393 . S
C761 C760 1.391 . S
C762 H752 0.950 . S
C762 C763 1.386 . S
C762 C764 1.391 . S
C763 C762 1.386 . S
C763 C767 1.393 . S
C764 H753 0.950 . S
C764 C762 1.391 . S
C764 C765 1.400 . S
C765 C759 1.491 . S
C765 C764 1.400 . S
C765 C766 1.398 . S
C766 H754 0.950 . S
C766 C765 1.398 . S
C766 C767 1.391 . S
C767 H755 0.950 . S
C767 C763 1.393 . S
C767 C766 1.391 . S
H768 C776 0.950 . S
H769 C781 0.950 . S
H770 C778 0.950 . S
H771 C780 0.950 . S
H772 C782 0.950 . S
H773 C784 0.950 . S
H774 C786 0.950 . S
H775 C787 0.950 . S
C776 H768 0.950 . S
C776 C777 1.386 . S
C776 C778 1.391 . S
C777 C776 1.386 . S
C777 C781 1.393 . S
C778 H770 0.950 . S
C778 C776 1.391 . S
C778 C779 1.400 . S
C779 C778 1.400 . S
C779 C780 1.398 . S
C779 C785 1.491 . S
C780 H771 0.950 . S
C780 C779 1.398 . S
C780 C781 1.391 . S
C781 H769 0.950 . S
C781 C777 1.393 . S
C781 C780 1.391 . S
C782 H772 0.950 . S
C782 C783 1.386 . S
C782 C784 1.391 . S
C783 C782 1.386 . S
C783 C787 1.393 . S
C784 H773 0.950 . S
C784 C782 1.391 . S
C784 C785 1.400 . S
C785 C779 1.491 . S
C785 C784 1.400 . S
C785 C786 1.398 . S
C786 H774 0.950 . S
C786 C785 1.398 . S
C786 C787 1.391 . S
C787 H775 0.950 . S
C787 C783 1.393 . S
C787 C786 1.391 . S
H788 C796 0.950 . S
H789 C801 0.950 . S
H790 C798 0.950 . S
H791 C800 0.950 . S
H792 C802 0.950 . S
H793 C804 0.950 . S
H794 C806 0.950 . S
H795 C807 0.950 . S
C796 H788 0.950 . S
C796 C797 1.386 . S
C796 C798 1.391 . S
C797 C796 1.386 . S
C797 C801 1.393 . S
C798 H790 0.950 . S
C798 C796 1.391 . S
C798 C799 1.400 . S
C799 C798 1.400 . S
C799 C800 1.398 . S
C799 C805 1.491 . S
C800 H791 0.950 . S
C800 C799 1.398 . S
C800 C801 1.391 . S
C801 H789 0.950 . S
C801 C797 1.393 . S
C801 C800 1.391 . S
C802 H792 0.950 . S
C802 C803 1.386 . S
C802 C804 1.391 . S
C803 C802 1.386 . S
C803 C807 1.393 . S
C804 H793 0.950 . S
C804 C802 1.391 . S
C804 C805 1.400 . S
C805 C799 1.491 . S
C805 C804 1.400 . S
C805 C806 1.398 . S
C806 H794 0.950 . S
C806 C805 1.398 . S
C806 C807 1.391 . S
C807 H795 0.950 . S
C807 C803 1.393 . S
C807 C806 1.391 . S
H808 C816 0.950 . S
H809 C821 0.950 . S
H810 C818 0.950 . S
H811 C820 0.950 . S
H812 C822 0.950 . S
H813 C824 0.950 . S
H814 C826 0.950 . S
H815 C827 0.950 . S
C816 H808 0.950 . S
C816 C817 1.386 . S
C816 C818 1.391 . S
C817 C816 1.386 . S
C817 C821 1.393 . S
C818 H810 0.950 . S
C818 C816 1.391 . S
C818 C819 1.400 . S
C819 C818 1.400 . S
C819 C820 1.398 . S
C819 C825 1.491 . S
C820 H811 0.950 . S
C820 C819 1.398 . S
C820 C821 1.391 . S
C821 H809 0.950 . S
C821 C817 1.393 . S
C821 C820 1.391 . S
C822 H812 0.950 . S
C822 C823 1.386 . S
C822 C824 1.391 . S
C823 C822 1.386 . S
C823 C827 1.393 . S
C824 H813 0.950 . S
C824 C822 1.391 . S
C824 C825 1.400 . S
C825 C819 1.491 . S
C825 C824 1.400 . S
C825 C826 1.398 . S
C826 H814 0.950 . S
C826 C825 1.398 . S
C826 C827 1.391 . S
C827 H815 0.950 . S
C827 C823 1.393 . S
C827 C826 1.391 . S
H828 C836 0.950 . S
H829 C841 0.950 . S
H830 C838 0.950 . S
H831 C840 0.950 . S
H832 C842 0.950 . S
H833 C844 0.950 . S
H834 C846 0.950 . S
H835 C847 0.950 . S
C836 H828 0.950 . S
C836 C837 1.386 . S
C836 C838 1.391 . S
C837 C836 1.386 . S
C837 C841 1.393 . S
C838 H830 0.950 . S
C838 C836 1.391 . S
C838 C839 1.400 . S
C839 C838 1.400 . S
C839 C840 1.398 . S
C839 C845 1.491 . S
C840 H831 0.950 . S
C840 C839 1.398 . S
C840 C841 1.391 . S
C841 H829 0.950 . S
C841 C837 1.393 . S
C841 C840 1.391 . S
C842 H832 0.950 . S
C842 C843 1.386 . S
C842 C844 1.391 . S
C843 C842 1.386 . S
C843 C847 1.393 . S
C844 H833 0.950 . S
C844 C842 1.391 . S
C844 C845 1.400 . S
C845 C839 1.491 . S
C845 C844 1.400 . S
C845 C846 1.398 . S
C846 H834 0.950 . S
C846 C845 1.398 . S
C846 C847 1.391 . S
C847 H835 0.950 . S
C847 C843 1.393 . S
C847 C846 1.391 . S
H848 C856 0.950 . S
H849 C861 0.950 . S
H850 C858 0.950 . S
H851 C860 0.950 . S
H852 C862 0.950 . S
H853 C864 0.950 . S
H854 C866 0.950 . S
H855 C867 0.950 . S
C856 H848 0.950 . S
C856 C857 1.386 . S
C856 C858 1.391 . S
C857 C856 1.386 . S
C857 C861 1.393 . S
C858 H850 0.950 . S
C858 C856 1.391 . S
C858 C859 1.400 . S
C859 C858 1.400 . S
C859 C860 1.398 . S
C859 C865 1.491 . S
C860 H851 0.950 . S
C860 C859 1.398 . S
C860 C861 1.391 . S
C861 H849 0.950 . S
C861 C857 1.393 . S
C861 C860 1.391 . S
C862 H852 0.950 . S
C862 C863 1.386 . S
C862 C864 1.391 . S
C863 C862 1.386 . S
C863 C867 1.393 . S
C864 H853 0.950 . S
C864 C862 1.391 . S
C864 C865 1.400 . S
C865 C859 1.491 . S
C865 C864 1.400 . S
C865 C866 1.398 . S
C866 H854 0.950 . S
C866 C865 1.398 . S
C866 C867 1.391 . S
C867 H855 0.950 . S
C867 C863 1.393 . S
C867 C866 1.391 . S
H868 C876 0.950 . S
H869 C881 0.950 . S
H870 C878 0.950 . S
H871 C880 0.950 . S
H872 C882 0.950 . S
H873 C884 0.950 . S
H874 C886 0.950 . S
H875 C887 0.950 . S
C876 H868 0.950 . S
C876 C877 1.386 . S
C876 C878 1.391 . S
C877 C876 1.386 . S
C877 C881 1.393 . S
C878 H870 0.950 . S
C878 C876 1.391 . S
C878 C879 1.400 . S
C879 C878 1.400 . S
C879 C880 1.398 . S
C879 C885 1.491 . S
C880 H871 0.950 . S
C880 C879 1.398 . S
C880 C881 1.391 . S
C881 H869 0.950 . S
C881 C877 1.393 . S
C881 C880 1.391 . S
C882 H872 0.950 . S
C882 C883 1.386 . S
C882 C884 1.391 . S
C883 C882 1.386 . S
C883 C887 1.393 . S
C884 H873 0.950 . S
C884 C882 1.391 . S
C884 C885 1.400 . S
C885 C879 1.491 . S
C885 C884 1.400 . S
C885 C886 1.398 . S
C886 H874 0.950 . S
C886 C885 1.398 . S
C886 C887 1.391 . S
C887 H875 0.950 . S
C887 C883 1.393 . S
C887 C886 1.391 . S
H888 C896 0.950 . S
H889 C901 0.950 . S
H890 C898 0.950 1_554 S
H891 C900 0.950 . S
H892 C902 0.950 . S
H893 C904 0.950 1_556 S
H894 C906 0.950 . S
H895 C907 0.950 . S
C896 H888 0.950 . S
C896 C897 1.386 . S
C896 C898 1.391 . S
C897 C896 1.386 . S
C897 C901 1.393 . S
C898 H890 0.950 1_556 S
C898 C896 1.391 . S
C898 C899 1.400 . S
C899 C898 1.400 . S
C899 C900 1.398 . S
C899 C905 1.491 1_556 S
C900 H891 0.950 . S
C900 C899 1.398 . S
C900 C901 1.391 . S
C901 H889 0.950 . S
C901 C897 1.393 . S
C901 C900 1.391 . S
C902 H892 0.950 . S
C902 C903 1.386 . S
C902 C904 1.391 . S
C903 C902 1.386 . S
C903 C907 1.393 . S
C904 H893 0.950 1_554 S
C904 C902 1.391 . S
C904 C905 1.400 . S
C905 C899 1.491 1_554 S
C905 C904 1.400 . S
C905 C906 1.398 . S
C906 H894 0.950 . S
C906 C905 1.398 . S
C906 C907 1.391 . S
C907 H895 0.950 . S
C907 C903 1.393 . S
C907 C906 1.391 . S
H908 C916 0.950 . S
H909 C921 0.950 . S
H910 C918 0.950 . S
H911 C920 0.950 . S
H912 C922 0.950 . S
H913 C924 0.950 . S
H914 C926 0.950 . S
H915 C927 0.950 . S
C916 H908 0.950 . S
C916 C917 1.386 . S
C916 C918 1.391 . S
C917 C916 1.386 . S
C917 C921 1.393 . S
C918 H910 0.950 . S
C918 C916 1.391 . S
C918 C919 1.400 . S
C919 C918 1.400 . S
C919 C920 1.398 . S
C919 C925 1.491 . S
C920 H911 0.950 . S
C920 C919 1.398 . S
C920 C921 1.391 . S
C921 H909 0.950 . S
C921 C917 1.393 . S
C921 C920 1.391 . S
C922 H912 0.950 . S
C922 C923 1.386 . S
C922 C924 1.391 . S
C923 C922 1.386 . S
C923 C927 1.393 . S
C924 H913 0.950 . S
C924 C922 1.391 . S
C924 C925 1.400 . S
C925 C919 1.491 . S
C925 C924 1.400 . S
C925 C926 1.398 . S
C926 H914 0.950 . S
C926 C925 1.398 . S
C926 C927 1.391 . S
C927 H915 0.950 . S
C927 C923 1.393 . S
C927 C926 1.391 . S
H928 C936 0.950 . S
H929 C941 0.950 . S
H930 C938 0.950 . S
H931 C940 0.950 . S
H932 C942 0.950 . S
H933 C944 0.950 . S
H934 C946 0.950 . S
H935 C947 0.950 . S
C936 H928 0.950 . S
C936 C937 1.386 . S
C936 C938 1.391 . S
C937 C936 1.386 . S
C937 C941 1.393 . S
C938 H930 0.950 . S
C938 C936 1.391 . S
C938 C939 1.400 . S
C939 C938 1.400 . S
C939 C940 1.398 . S
C939 C945 1.491 . S
C940 H931 0.950 . S
C940 C939 1.398 . S
C940 C941 1.391 . S
C941 H929 0.950 . S
C941 C937 1.393 . S
C941 C940 1.391 . S
C942 H932 0.950 . S
C942 C943 1.386 . S
C942 C944 1.391 . S
C943 C942 1.386 . S
C943 C947 1.393 . S
C944 H933 0.950 . S
C944 C942 1.391 . S
C944 C945 1.400 . S
C945 C939 1.491 . S
C945 C944 1.400 . S
C945 C946 1.398 . S
C946 H934 0.950 . S
C946 C945 1.398 . S
C946 C947 1.391 . S
C947 H935 0.950 . S
C947 C943 1.393 . S
C947 C946 1.391 . S
H948 C956 0.950 . S
H949 C961 0.950 . S
H950 C958 0.950 . S
H951 C960 0.950 . S
H952 C962 0.950 . S
H953 C964 0.950 . S
H954 C966 0.950 . S
H955 C967 0.950 . S
C956 H948 0.950 . S
C956 C957 1.386 . S
C956 C958 1.391 . S
C957 C956 1.386 . S
C957 C961 1.393 1_554 S
C958 H950 0.950 . S
C958 C956 1.391 . S
C958 C959 1.400 . S
C959 C958 1.400 . S
C959 C960 1.398 1_554 S
C959 C965 1.491 1_554 S
C960 H951 0.950 . S
C960 C959 1.398 1_556 S
C960 C961 1.391 . S
C961 H949 0.950 . S
C961 C957 1.393 1_556 S
C961 C960 1.391 . S
C962 H952 0.950 . S
C962 C963 1.386 . S
C962 C964 1.391 . S
C963 C962 1.386 . S
C963 C967 1.393 1_556 S
C964 H953 0.950 . S
C964 C962 1.391 . S
C964 C965 1.400 . S
C965 C959 1.491 1_556 S
C965 C964 1.400 . S
C965 C966 1.398 1_556 S
C966 H954 0.950 . S
C966 C965 1.398 1_554 S
C966 C967 1.391 . S
C967 H955 0.950 . S
C967 C963 1.393 1_554 S
C967 C966 1.391 . S
H968 C976 0.950 . S
H969 C981 0.950 . S
H970 C978 0.950 . S
H971 C980 0.950 . S
H972 C982 0.950 . S
H973 C984 0.950 . S
H974 C986 0.950 . S
H975 C987 0.950 . S
C976 H968 0.950 . S
C976 C977 1.386 . S
C976 C978 1.391 . S
C977 C976 1.386 . S
C977 C981 1.393 . S
C978 H970 0.950 . S
C978 C976 1.391 . S
C978 C979 1.400 . S
C979 C978 1.400 . S
C979 C980 1.398 . S
C979 C985 1.491 . S
C980 H971 0.950 . S
C980 C979 1.398 . S
C980 C981 1.391 . S
C981 H969 0.950 . S
C981 C977 1.393 . S
C981 C980 1.391 . S
C982 H972 0.950 . S
C982 C983 1.386 . S
C982 C984 1.391 . S
C983 C982 1.386 . S
C983 C987 1.393 . S
C984 H973 0.950 . S
C984 C982 1.391 . S
C984 C985 1.400 . S
C985 C979 1.491 . S
C985 C984 1.400 . S
C985 C986 1.398 . S
C986 H974 0.950 . S
C986 C985 1.398 . S
C986 C987 1.391 . S
C987 H975 0.950 . S
C987 C983 1.393 . S
C987 C986 1.391 . S
H988 C996 0.950 . S
H989 C1001 0.950 . S
H990 C998 0.950 . S
H991 C1000 0.950 . S
H992 C1002 0.950 . S
H993 C1004 0.950 . S
H994 C1006 0.950 . S
H995 C1007 0.950 . S
C996 H988 0.950 . S
C996 C997 1.386 . S
C996 C998 1.391 . S
C997 C996 1.386 . S
C997 C1001 1.393 . S
C998 H990 0.950 . S
C998 C996 1.391 . S
C998 C999 1.400 . S
C999 C998 1.400 . S
C999 C1000 1.398 . S
C999 C1005 1.491 . S
C1000 H991 0.950 . S
C1000 C999 1.398 . S
C1000 C1001 1.391 . S
C1001 H989 0.950 . S
C1001 C997 1.393 . S
C1001 C1000 1.391 . S
C1002 H992 0.950 . S
C1002 C1003 1.386 . S
C1002 C1004 1.391 . S
C1003 C1002 1.386 . S
C1003 C1007 1.393 . S
C1004 H993 0.950 . S
C1004 C1002 1.391 . S
C1004 C1005 1.400 . S
C1005 C999 1.491 . S
C1005 C1004 1.400 . S
C1005 C1006 1.398 . S
C1006 H994 0.950 . S
C1006 C1005 1.398 . S
C1006 C1007 1.391 . S
C1007 H995 0.950 . S
C1007 C1003 1.393 . S
C1007 C1006 1.391 . S
C417 C2 1.464 . S
C423 C376 1.463 . S
C437 C36 1.475 . S
C443 C206 1.476 . S
C457 C240 1.473 . S
C463 C70 1.468 . S
C477 C274 1.476 . S
C483 C104 1.474 . S
C497 C308 1.472 . S
C503 C138 1.475 . S
C517 C342 1.473 . S
C523 C172 1.469 . S
C537 C9 1.288 . S
C543 C5 1.349 . S
C557 C39 1.342 . S
C563 C43 1.256 . S
C577 C77 1.269 . S
C583 C73 1.347 1_554 S
C597 C111 1.278 . S
C603 C107 1.349 . S
C617 C145 1.277 . S
C623 C141 1.349 . S
C637 C175 1.342 1_554 S
C643 C179 1.256 . S
C657 C213 1.287 . S
C663 C209 1.346 . S
C677 C243 1.335 . S
C683 C247 1.257 . S
C697 C281 1.274 . S
C703 C277 1.339 1_556 S
C717 C311 1.335 . S
C723 C315 1.258 . S
C737 C345 1.347 . S
C743 C349 1.288 . S
C757 C383 1.255 . S
C763 C379 1.341 1_556 S
C777 C33 1.469 . S
C783 C305 1.464 . S
C797 C67 1.466 . S
C803 C339 1.465 . S
C817 C101 1.468 . S
C823 C373 1.465 . S
C837 C407 1.467 . S
C843 C135 1.465 . S
C857 C237 1.465 . S
C863 C169 1.467 . S
C877 C271 1.467 . S
C883 C203 1.468 . S
C897 C360 1.498 . S
C903 C20 1.497 . S
C917 C394 1.491 . S
C923 C54 1.490 . S
C937 C224 1.494 . S
C943 C88 1.491 . S
C957 C122 1.490 . S
C963 C258 1.492 . S
C977 C156 1.490 . S
C983 C292 1.492 . S
C997 C190 1.496 . S
C1003 C326 1.498 . S
