# Generated by pormake.
# Topology wjt, (5)-cn, num edge types: 1
# Building blocks:
#     Node 0, Type 0, BuildingBlock: BEQFEK_clean_sbu_0, # of connection points: 5
#     Node 1, Type 0, BuildingBlock: BEQFEK_clean_sbu_0, # of connection points: 5
#     Node 2, Type 0, BuildingBlock: BEQFEK_clean_sbu_0, # of connection points: 5
#     Node 3, Type 0, BuildingBlock: BEQFEK_clean_sbu_0, # of connection points: 5
#     Node 4, Type 0, BuildingBlock: BEQFEK_clean_sbu_0, # of connection points: 5
#     Node 5, Type 0, BuildingBlock: BEQFEK_clean_sbu_0, # of connection points: 5
#     Node 6, Type 0, BuildingBlock: BEQFEK_clean_sbu_0, # of connection points: 5
#     Node 7, Type 0, BuildingBlock: BEQFEK_clean_sbu_0, # of connection points: 5
#     Node 8, Type 0, BuildingBlock: BEQFEK_clean_sbu_0, # of connection points: 5
#     Node 9, Type 0, BuildingBlock: BEQFEK_clean_sbu_0, # of connection points: 5
#     Node 10, Type 0, BuildingBlock: BEQFEK_clean_sbu_0, # of connection points: 5
#     Node 11, Type 0, BuildingBlock: BEQFEK_clean_sbu_0, # of connection points: 5
#     Edge 12, Type (0, 0), BuildingBlock: ZUJKAS_clean_linker_0, # of connection points: 2
#     Edge 13, Type (0, 0), BuildingBlock: ZUJKAS_clean_linker_0, # of connection points: 2
#     Edge 14, Type (0, 0), BuildingBlock: ZUJKAS_clean_linker_0, # of connection points: 2
#     Edge 15, Type (0, 0), BuildingBlock: ZUJKAS_clean_linker_0, # of connection points: 2
#     Edge 16, Type (0, 0), BuildingBlock: ZUJKAS_clean_linker_0, # of connection points: 2
#     Edge 17, Type (0, 0), BuildingBlock: ZUJKAS_clean_linker_0, # of connection points: 2
#     Edge 18, Type (0, 0), BuildingBlock: ZUJKAS_clean_linker_0, # of connection points: 2
#     Edge 19, Type (0, 0), BuildingBlock: ZUJKAS_clean_linker_0, # of connection points: 2
#     Edge 20, Type (0, 0), BuildingBlock: ZUJKAS_clean_linker_0, # of connection points: 2
#     Edge 21, Type (0, 0), BuildingBlock: ZUJKAS_clean_linker_0, # of connection points: 2
#     Edge 22, Type (0, 0), BuildingBlock: ZUJKAS_clean_linker_0, # of connection points: 2
#     Edge 23, Type (0, 0), BuildingBlock: ZUJKAS_clean_linker_0, # of connection points: 2
#     Edge 24, Type (0, 0), BuildingBlock: ZUJKAS_clean_linker_0, # of connection points: 2
#     Edge 25, Type (0, 0), BuildingBlock: ZUJKAS_clean_linker_0, # of connection points: 2
#     Edge 26, Type (0, 0), BuildingBlock: ZUJKAS_clean_linker_0, # of connection points: 2
#     Edge 27, Type (0, 0), BuildingBlock: ZUJKAS_clean_linker_0, # of connection points: 2
#     Edge 28, Type (0, 0), BuildingBlock: ZUJKAS_clean_linker_0, # of connection points: 2
#     Edge 29, Type (0, 0), BuildingBlock: ZUJKAS_clean_linker_0, # of connection points: 2
#     Edge 30, Type (0, 0), BuildingBlock: ZUJKAS_clean_linker_0, # of connection points: 2
#     Edge 31, Type (0, 0), BuildingBlock: ZUJKAS_clean_linker_0, # of connection points: 2
#     Edge 32, Type (0, 0), BuildingBlock: ZUJKAS_clean_linker_0, # of connection points: 2
#     Edge 33, Type (0, 0), BuildingBlock: ZUJKAS_clean_linker_0, # of connection points: 2
#     Edge 34, Type (0, 0), BuildingBlock: ZUJKAS_clean_linker_0, # of connection points: 2
#     Edge 35, Type (0, 0), BuildingBlock: ZUJKAS_clean_linker_0, # of connection points: 2
#     Edge 36, Type (0, 0), BuildingBlock: ZUJKAS_clean_linker_0, # of connection points: 2
#     Edge 37, Type (0, 0), BuildingBlock: ZUJKAS_clean_linker_0, # of connection points: 2
#     Edge 38, Type (0, 0), BuildingBlock: ZUJKAS_clean_linker_0, # of connection points: 2
#     Edge 39, Type (0, 0), BuildingBlock: ZUJKAS_clean_linker_0, # of connection points: 2
#     Edge 40, Type (0, 0), BuildingBlock: ZUJKAS_clean_linker_0, # of connection points: 2
#     Edge 41, Type (0, 0), BuildingBlock: ZUJKAS_clean_linker_0, # of connection points: 2
# Relax obj value: 0.272
# Max RMSD: 0.176
# Mean RMSD: 0.176
data_MOF--net-wjt--node1-BEQFEK_clean_sbu_0--edge1-ZUJKAS_clean_linker_0
_symmetry_space_group_name_H-M    P1
_symmetry_Int_Tables_number       1
_symmetry_cell_setting            triclinic
loop_
_symmetry_equiv_pos_as_xyz
'x, y, z'
_cell_length_a     89.580063
_cell_length_b     89.567674
_cell_length_c     22.333235
_cell_angle_alpha  90.020976
_cell_angle_beta   89.958927
_cell_angle_gamma 119.98554
loop_
_atom_site_label
_atom_site_type_symbol
_atom_site_fract_x
_atom_site_fract_y
_atom_site_fract_z
_atom_type_partial_charge
Co0 Co 0.329 0.45319 0.27488 0.0
Co1 Co 0.34419 0.45803 0.14621 0.0
C2 C 0.3443 0.43218 0.2294 0.0
O3 O 0.33744 0.43671 0.26999 0.0
O4 O 0.34742 0.43912 0.17783 0.0
C5 C 0.3075 0.43228 0.3677 0.0
O6 O 0.30514 0.42007 0.3298 0.0
C7 C 0.34382 0.4483 0.02199 0.0
C8 C 0.35978 0.47357 0.97835 0.0
C9 C 0.34934 0.45612 0.96638 0.0
N10 N 0.35036 0.46063 0.06418 0.0
N11 N 0.36026 0.47564 0.03807 0.0
C12 C 0.331 0.42983 0.03524 0.0
H13 H 0.32569 0.42848 0.08109 0.0
H14 H 0.32032 0.42465 0.00223 0.0
H15 H 0.33752 0.42209 0.03231 0.0
C16 C 0.29865 0.44888 0.20741 0.0
N17 N 0.31461 0.45096 0.20969 0.0
N18 N 0.3211 0.4536 0.15525 0.0
C19 C 0.30955 0.45372 0.11666 0.0
C20 C 0.29493 0.45056 0.14843 0.0
C21 C 0.28788 0.44688 0.26132 0.0
H22 H 0.29589 0.4565 0.29573 0.0
H23 H 0.28309 0.43385 0.28062 0.0
H24 H 0.27671 0.4485 0.24998 0.0
O25 O 0.3491 0.47694 0.27828 0.0
O26 O 0.36014 0.47993 0.18702 0.0
H27 H 0.32576 0.46824 0.04313 0.0
H28 H 0.30317 0.46019 0.03004 0.0
C29 C 0.31261 0.45727 0.0509 0.0
H30 H 0.31131 0.4457 0.02821 0.0
H31 H 0.36656 0.4874 0.06072 0.0
O32 O 0.31657 0.44795 0.35172 0.0
C33 C 0.36052 0.48583 0.23924 0.0
Co34 Co 0.87435 0.33113 0.59918 0.0
Co35 Co 0.88698 0.34634 0.47183 0.0
C36 C 0.91135 0.34665 0.5634 0.0
O37 O 0.89923 0.33943 0.60126 0.0
O38 O 0.90849 0.35004 0.51084 0.0
C39 C 0.87159 0.30938 0.69364 0.0
O40 O 0.88131 0.30632 0.65737 0.0
C41 C 0.89831 0.34461 0.3518 0.0
C42 C 0.8903 0.36046 0.30023 0.0
C43 C 0.89692 0.34946 0.294 0.0
N44 N 0.8922 0.35189 0.38985 0.0
N45 N 0.88784 0.3617 0.35903 0.0
C46 C 0.90527 0.33326 0.37128 0.0
H47 H 0.91324 0.33864 0.41201 0.0
H48 H 0.89447 0.32029 0.3829 0.0
H49 H 0.91326 0.33208 0.33567 0.0
C50 C 0.84991 0.30053 0.52858 0.0
N51 N 0.86355 0.3166 0.53287 0.0
N52 N 0.86843 0.32313 0.47885 0.0
C53 C 0.85774 0.31148 0.43842 0.0
C54 C 0.84591 0.29672 0.4685 0.0
C55 C 0.84087 0.28925 0.58121 0.0
H56 H 0.84985 0.28611 0.60468 0.0
H57 H 0.82934 0.277 0.56781 0.0
H58 H 0.83709 0.2963 0.61302 0.0
O59 O 0.87069 0.35127 0.59755 0.0
O60 O 0.87997 0.36222 0.50684 0.0
H61 H 0.84397 0.30663 0.35458 0.0
H62 H 0.86626 0.3128 0.34805 0.0
C63 C 0.857 0.31515 0.37337 0.0
H64 H 0.86026 0.3287 0.36714 0.0
H65 H 0.8823 0.36848 0.37777 0.0
O66 O 0.86574 0.31893 0.67568 0.0
C67 C 0.87364 0.36258 0.55757 0.0
Co68 Co 0.54519 0.87481 0.94866 0.0
Co69 Co 0.54103 0.8861 0.82054 0.0
C70 C 0.56708 0.91115 0.90639 0.0
O71 O 0.56265 0.89948 0.94584 0.0
O72 O 0.55975 0.90779 0.85549 0.0
C73 C 0.56462 0.87214 0.04263 0.0
O74 O 0.57735 0.88139 0.00555 0.0
C75 C 0.5526 0.89765 0.69901 0.0
C76 C 0.52808 0.88647 0.64905 0.0
C77 C 0.54583 0.89508 0.64164 0.0
N78 N 0.53947 0.89031 0.73809 0.0
N79 N 0.52484 0.88407 0.70818 0.0
C80 C 0.5712 0.9067 0.71708 0.0
H81 H 0.57351 0.9167 0.75087 0.0
H82 H 0.57431 0.89741 0.7384 0.0
H83 H 0.57989 0.91306 0.67849 0.0
C84 C 0.54876 0.84854 0.87958 0.0
N85 N 0.54713 0.86268 0.88292 0.0
N86 N 0.54521 0.86722 0.82868 0.0
C87 C 0.5454 0.85593 0.78902 0.0
C88 C 0.54771 0.8438 0.81998 0.0
C89 C 0.54973 0.83894 0.93286 0.0
H90 H 0.54028 0.83786 0.96715 0.0
H91 H 0.5628 0.84627 0.95271 0.0
H92 H 0.54716 0.82586 0.92057 0.0
O93 O 0.52191 0.87229 0.95093 0.0
O94 O 0.51886 0.88027 0.85963 0.0
H95 H 0.53135 0.85704 0.7132 0.0
H96 H 0.54279 0.84556 0.699 0.0
C97 C 0.54328 0.85664 0.72275 0.0
H98 H 0.55441 0.86846 0.70476 0.0
H99 H 0.51266 0.87732 0.72782 0.0
O100 O 0.54922 0.86665 0.02545 0.0
C101 C 0.51306 0.87495 0.91216 0.0
Co102 Co 0.67 0.54751 0.27476 0.0
Co103 Co 0.65255 0.54033 0.14946 0.0
C104 C 0.65375 0.56742 0.23155 0.0
O105 O 0.66223 0.56446 0.27055 0.0
O106 O 0.64899 0.5589 0.18299 0.0
C107 C 0.69208 0.56851 0.36625 0.0
O108 O 0.69332 0.58078 0.33082 0.0
C109 C 0.65326 0.55085 0.02701 0.0
C110 C 0.63551 0.52647 0.98117 0.0
C111 C 0.64709 0.54378 0.97109 0.0
N112 N 0.64604 0.53824 0.06794 0.0
N113 N 0.63514 0.52375 0.0406 0.0
C114 C 0.66585 0.56928 0.04194 0.0
H115 H 0.67814 0.57046 0.05752 0.0
H116 H 0.66832 0.57787 0.00291 0.0
H117 H 0.6607 0.57355 0.07924 0.0
C118 C 0.69943 0.55149 0.20252 0.0
N119 N 0.68336 0.549 0.20761 0.0
N120 N 0.67578 0.54496 0.15493 0.0
C121 C 0.6866 0.54397 0.11506 0.0
C122 C 0.702 0.54841 0.14373 0.0
C123 C 0.71147 0.55527 0.25403 0.0
H124 H 0.70484 0.54555 0.28978 0.0
H125 H 0.71508 0.56811 0.27274 0.0
H126 H 0.72332 0.55515 0.24029 0.0
O127 O 0.6495 0.52382 0.28189 0.0
O128 O 0.63738 0.51867 0.19169 0.0
H129 H 0.66826 0.52762 0.04897 0.0
H130 H 0.69008 0.53269 0.03408 0.0
C131 C 0.68198 0.53782 0.05182 0.0
H132 H 0.68415 0.54877 0.02308 0.0
H133 H 0.62807 0.51187 0.0621 0.0
O134 O 0.68348 0.55291 0.34917 0.0
C135 C 0.63773 0.51396 0.24524 0.0
Co136 Co 0.12277 0.67092 0.61495 0.0
Co137 Co 0.11278 0.65365 0.48906 0.0
C138 C 0.08662 0.65476 0.56907 0.0
O139 O 0.09799 0.66267 0.60892 0.0
O140 O 0.09047 0.65047 0.51958 0.0
C141 C 0.1229 0.6922 0.70872 0.0
O142 O 0.11235 0.69403 0.67261 0.0
C143 C 0.1034 0.65262 0.36436 0.0
C144 C 0.11323 0.63674 0.32355 0.0
C145 C 0.10591 0.64679 0.30979 0.0
N146 N 0.10927 0.64657 0.40788 0.0
N147 N 0.1147 0.6367 0.38348 0.0
C148 C 0.09766 0.6655 0.37502 0.0
H149 H 0.1016 0.67129 0.42025 0.0
H150 H 0.1031 0.67582 0.34062 0.0
H151 H 0.0834 0.65889 0.37196 0.0
C152 C 0.14836 0.70049 0.54349 0.0
N153 N 0.13486 0.68437 0.54811 0.0
N154 N 0.13127 0.67698 0.49502 0.0
C155 C 0.14284 0.68809 0.45516 0.0
C156 C 0.15385 0.70336 0.48449 0.0
C157 C 0.15659 0.71233 0.59552 0.0
H158 H 0.15951 0.70551 0.63102 0.0
H159 H 0.14739 0.71596 0.61439 0.0
H160 H 0.16862 0.72417 0.58227 0.0
O161 O 0.12627 0.65078 0.62304 0.0
O162 O 0.11884 0.63835 0.5336 0.0
H163 H 0.14168 0.67077 0.38648 0.0
H164 H 0.15647 0.69316 0.37049 0.0
C165 C 0.14384 0.68402 0.39072 0.0
H166 H 0.13381 0.68501 0.36503 0.0
H167 H 0.12036 0.63081 0.40739 0.0
O168 O 0.13016 0.68393 0.69059 0.0
C169 C 0.12408 0.63883 0.58694 0.0
Co170 Co 0.45531 0.12435 0.93544 0.0
Co171 Co 0.45746 0.11173 0.8076 0.0
C172 C 0.43342 0.08739 0.89901 0.0
O173 O 0.43862 0.0994 0.93746 0.0
O174 O 0.43946 0.09035 0.84611 0.0
C175 C 0.43642 0.12729 0.02988 0.0
O176 O 0.42365 0.11775 0.99339 0.0
C177 C 0.4444 0.10047 0.68751 0.0
C178 C 0.4683 0.10875 0.63575 0.0
C179 C 0.45066 0.10199 0.62966 0.0
N180 N 0.4578 0.10664 0.72549 0.0
N181 N 0.472 0.11117 0.69454 0.0
C182 C 0.42607 0.0933 0.70709 0.0
H183 H 0.42347 0.08495 0.7468 0.0
H184 H 0.42386 0.10396 0.72045 0.0
H185 H 0.41693 0.08561 0.67101 0.0
C186 C 0.44913 0.14896 0.86565 0.0
N187 N 0.4516 0.13533 0.86953 0.0
N188 N 0.45305 0.13042 0.8153 0.0
C189 C 0.45185 0.14104 0.77516 0.0
C190 C 0.44902 0.15287 0.80565 0.0
C191 C 0.44709 0.15806 0.91852 0.0
H192 H 0.45768 0.16132 0.95085 0.0
H193 H 0.43474 0.14932 0.94119 0.0
H194 H 0.44697 0.16993 0.90542 0.0
O195 O 0.47905 0.12791 0.93323 0.0
O196 O 0.4802 0.1182 0.84274 0.0
H197 H 0.4661 0.13847 0.70234 0.0
H198 H 0.46001 0.15457 0.69062 0.0
C199 C 0.45577 0.14161 0.70969 0.0
H200 H 0.44401 0.13221 0.68548 0.0
H201 H 0.48431 0.11677 0.71321 0.0
O202 O 0.45182 0.13293 0.01217 0.0
C203 C 0.48712 0.1246 0.89312 0.0
Co204 Co 0.54758 0.67087 0.39049 0.0
Co205 Co 0.54002 0.65321 0.51588 0.0
C206 C 0.5673 0.65442 0.43517 0.0
O207 O 0.56438 0.66288 0.39592 0.0
O208 O 0.55874 0.64966 0.48373 0.0
C209 C 0.56829 0.69222 0.29573 0.0
O210 O 0.58084 0.69377 0.33038 0.0
C211 C 0.54901 0.65313 0.64024 0.0
C212 C 0.52376 0.63581 0.68192 0.0
C213 C 0.54099 0.64697 0.69519 0.0
N214 N 0.53701 0.64621 0.59714 0.0
N215 N 0.52202 0.63552 0.62204 0.0
C216 C 0.56724 0.66692 0.62862 0.0
H217 H 0.56865 0.67212 0.5826 0.0
H218 H 0.57143 0.67753 0.66163 0.0
H219 H 0.57579 0.66133 0.63309 0.0
C220 C 0.55204 0.70047 0.46349 0.0
N221 N 0.54902 0.68422 0.45786 0.0
N222 N 0.54515 0.67664 0.51061 0.0
C223 C 0.54507 0.68775 0.55127 0.0
C224 C 0.54976 0.70327 0.52305 0.0
C225 C 0.55704 0.71293 0.41262 0.0
H226 H 0.54644 0.70791 0.37934 0.0
H227 H 0.56859 0.71405 0.39012 0.0
H228 H 0.55997 0.7259 0.42788 0.0
O229 O 0.52388 0.65059 0.38275 0.0
O230 O 0.51851 0.63821 0.47239 0.0
H231 H 0.53283 0.69111 0.62944 0.0
H232 H 0.54892 0.68533 0.64453 0.0
C233 C 0.53828 0.68305 0.61387 0.0
H234 H 0.52805 0.66935 0.61618 0.0
H235 H 0.51044 0.62883 0.59851 0.0
O236 O 0.55288 0.68401 0.31499 0.0
C237 C 0.51391 0.63873 0.41886 0.0
Co238 Co 0.87492 0.5492 0.71307 0.0
Co239 Co 0.88513 0.54076 0.8364 0.0
C240 C 0.91121 0.56852 0.75718 0.0
O241 O 0.8998 0.56558 0.71797 0.0
O242 O 0.90733 0.55995 0.80575 0.0
C243 C 0.87464 0.5701 0.61792 0.0
O244 O 0.88637 0.58266 0.65074 0.0
C245 C 0.89423 0.54811 0.96167 0.0
C246 C 0.8867 0.52235 -0.00198 0.0
C247 C 0.89267 0.53934 0.01468 0.0
N248 N 0.8891 0.53674 0.91642 0.0
N249 N 0.88501 0.52145 0.9381 0.0
C250 C 0.89858 0.56646 0.954 0.0
H251 H 0.89457 0.56847 0.90913 0.0
H252 H 0.89228 0.57014 0.98922 0.0
H253 H 0.91273 0.57498 0.95806 0.0
C254 C 0.8502 0.55359 0.78883 0.0
N255 N 0.86326 0.55037 0.7817 0.0
N256 N 0.86682 0.54587 0.83348 0.0
C257 C 0.85565 0.54546 0.87491 0.0
C258 C 0.84498 0.55064 0.84829 0.0
C259 C 0.84312 0.55953 0.73951 0.0
H260 H 0.8358 0.54872 0.7079 0.0
H261 H 0.85389 0.57011 0.71445 0.0
H262 H 0.83458 0.5642 0.75689 0.0
O263 O 0.87121 0.52549 0.70225 0.0
O264 O 0.8787 0.51968 0.79014 0.0
H265 H 0.85701 0.52774 0.93666 0.0
H266 H 0.83993 0.53226 0.95182 0.0
C267 C 0.85347 0.53794 0.93637 0.0
H268 H 0.86177 0.54823 0.96834 0.0
H269 H 0.8802 0.51025 0.91242 0.0
O270 O 0.86691 0.55487 0.63895 0.0
C271 C 0.87332 0.51535 0.73673 0.0
Co272 Co 0.32714 0.87564 0.05452 0.0
Co273 Co 0.34364 0.88762 0.18056 0.0
C274 C 0.34271 0.91233 0.09221 0.0
O275 O 0.33493 0.9004 0.05402 0.0
O276 O 0.34684 0.90917 0.14315 0.0
C277 C 0.30514 0.87275 0.95997 0.0
O278 O 0.30244 0.88301 0.99476 0.0
C279 C 0.34189 0.89819 0.30126 0.0
C280 C 0.35843 0.89078 0.35138 0.0
C281 C 0.3469 0.89672 0.3587 0.0
N282 N 0.34956 0.89272 0.26235 0.0
N283 N 0.3598 0.88874 0.2923 0.0
C284 C 0.32986 0.90443 0.2829 0.0
H285 H 0.33469 0.91234 0.24178 0.0
H286 H 0.31701 0.89325 0.27248 0.0
H287 H 0.32856 0.91229 0.31873 0.0
C288 C 0.2972 0.85087 0.12755 0.0
N289 N 0.31329 0.86442 0.1219 0.0
N290 N 0.32051 0.86887 0.17507 0.0
C291 C 0.3094 0.85786 0.21613 0.0
C292 C 0.29418 0.84634 0.18763 0.0
C293 C 0.28509 0.84258 0.07619 0.0
H294 H 0.28321 0.85242 0.05281 0.0
H295 H 0.27232 0.83206 0.09095 0.0
H296 H 0.29086 0.83749 0.04383 0.0
O297 O 0.34774 0.87266 0.05215 0.0
O298 O 0.35947 0.88113 0.14236 0.0
H299 H 0.30609 0.84319 0.29688 0.0
H300 H 0.31161 0.86517 0.30833 0.0
C301 C 0.31403 0.85653 0.2796 0.0
H302 H 0.32777 0.86018 0.28273 0.0
H303 H 0.36691 0.88368 0.27276 0.0
O304 O 0.31448 0.86678 0.97901 0.0
C305 C 0.35946 0.87538 0.09015 0.0
Co306 Co 0.4527 0.32821 0.38036 0.0
Co307 Co 0.45527 0.34328 0.5084 0.0
C308 C 0.43083 0.34331 0.41837 0.0
O309 O 0.43594 0.33634 0.38021 0.0
O310 O 0.43704 0.34665 0.47105 0.0
C311 C 0.43339 0.30638 0.28627 0.0
O312 O 0.42075 0.30301 0.32368 0.0
C313 C 0.44332 0.34362 0.62948 0.0
C314 C 0.46777 0.35676 0.6799 0.0
C315 C 0.45001 0.34792 0.68696 0.0
N316 N 0.4565 0.34909 0.59073 0.0
N317 N 0.47109 0.35736 0.62092 0.0
C318 C 0.42475 0.33439 0.611 0.0
H319 H 0.42277 0.34204 0.57618 0.0
H320 H 0.42133 0.32177 0.59074 0.0
H321 H 0.41607 0.3325 0.64923 0.0
C322 C 0.44777 0.298 0.45016 0.0
N323 N 0.44954 0.31381 0.4464 0.0
N324 N 0.45079 0.32011 0.50063 0.0
C325 C 0.45002 0.30846 0.54074 0.0
C326 C 0.44803 0.29409 0.51005 0.0
C327 C 0.44757 0.28765 0.39724 0.0
H328 H 0.45734 0.29619 0.36406 0.0
H329 H 0.43472 0.28179 0.37562 0.0
H330 H 0.45019 0.27724 0.41043 0.0
O331 O 0.47626 0.34842 0.38087 0.0
O332 O 0.47791 0.3594 0.47148 0.0
H333 H 0.46347 0.32327 0.61797 0.0
H334 H 0.45141 0.30033 0.63145 0.0
C335 C 0.45148 0.31113 0.60716 0.0
H336 H 0.44034 0.31209 0.62345 0.0
H337 H 0.4833 0.36256 0.6016 0.0
O338 O 0.44884 0.31609 0.30339 0.0
C339 C 0.48455 0.35984 0.42055 0.0
Co340 Co 0.12311 0.45318 0.72353 0.0
Co341 Co 0.11111 0.45649 0.85119 0.0
C342 C 0.08621 0.43234 0.76077 0.0
O343 O 0.09812 0.43684 0.72223 0.0
O344 O 0.08943 0.43883 0.81301 0.0
C345 C 0.12562 0.43391 0.6292 0.0
O346 O 0.11581 0.42117 0.66541 0.0
C347 C 0.09992 0.4437 0.97146 0.0
C348 C 0.10846 0.46768 0.02293 0.0
C349 C 0.10158 0.45003 0.02925 0.0
N350 N 0.10614 0.45706 0.93329 0.0
N351 N 0.11082 0.47132 0.96406 0.0
C352 C 0.09265 0.42533 0.95211 0.0
H353 H 0.08453 0.4228 0.91183 0.0
H354 H 0.10328 0.42296 0.93981 0.0
H355 H 0.08472 0.41626 0.98802 0.0
C356 C 0.14753 0.44687 0.79379 0.0
N357 N 0.13402 0.44951 0.7897 0.0
N358 N 0.12936 0.45142 0.8438 0.0
C359 C 0.14003 0.45036 0.88402 0.0
C360 C 0.15163 0.44713 0.85377 0.0
C361 C 0.15646 0.44449 0.74109 0.0
H362 H 0.16004 0.45514 0.7087 0.0
H363 H 0.14748 0.43222 0.71838 0.0
H364 H 0.16812 0.44399 0.75439 0.0
O365 O 0.12702 0.47705 0.72441 0.0
O366 O 0.11828 0.47932 0.81544 0.0
H367 H 0.13804 0.46543 0.95517 0.0
H368 H 0.15401 0.45921 0.96752 0.0
C369 C 0.141 0.45492 0.949 0.0
H370 H 0.13163 0.44345 0.97461 0.0
H371 H 0.11649 0.48361 0.94522 0.0
O372 O 0.13153 0.44933 0.64707 0.0
C373 C 0.1244 0.48571 0.76418 0.0
Co374 Co 0.67168 0.12221 0.04949 0.0
Co375 Co 0.6542 0.11193 0.17477 0.0
C376 C 0.65617 0.0861 0.0959 0.0
O377 O 0.66387 0.09743 0.0557 0.0
O378 O 0.65177 0.0899 0.14521 0.0
C379 C 0.69336 0.12294 0.95562 0.0
O380 O 0.69526 0.11226 0.99085 0.0
C381 C 0.65257 0.10257 0.2999 0.0
C382 C 0.63513 0.11092 0.33772 0.0
C383 C 0.64566 0.10428 0.35343 0.0
N384 N 0.64665 0.10825 0.25534 0.0
N385 N 0.63592 0.11284 0.2779 0.0
C386 C 0.66599 0.09745 0.29101 0.0
H387 H 0.67222 0.10177 0.24653 0.0
H388 H 0.67592 0.10301 0.32665 0.0
H389 H 0.65975 0.0832 0.29315 0.0
C390 C 0.70073 0.14834 0.12122 0.0
N391 N 0.68481 0.13454 0.1165 0.0
N392 N 0.67732 0.13083 0.16942 0.0
C393 C 0.68816 0.14256 0.20937 0.0
C394 C 0.70338 0.15388 0.1802 0.0
C395 C 0.71251 0.1568 0.0692 0.0
H396 H 0.70544 0.15924 0.0333 0.0
H397 H 0.71668 0.14794 0.05095 0.0
H398 H 0.72404 0.16914 0.08215 0.0
O399 O 0.65131 0.1253 0.04021 0.0
O400 O 0.63859 0.11726 0.129 0.0
H401 H 0.67052 0.1406 0.27816 0.0
H402 H 0.69275 0.15582 0.29476 0.0
C403 C 0.68393 0.14321 0.2739 0.0
H404 H 0.68523 0.13329 0.2991 0.0
H405 H 0.6298 0.11807 0.25286 0.0
O406 O 0.68491 0.12993 0.97444 0.0
C407 C 0.63908 0.1226 0.07582 0.0
H408 H 0.29266 0.47602 0.09047 0.0
H409 H 0.26706 0.47399 0.04251 0.0
H410 H 0.23635 0.42189 0.10711 0.0
H411 H 0.26208 0.42377 0.15421 0.0
H412 H 0.24433 0.44281 0.95426 0.0
H413 H 0.21161 0.45227 0.15106 0.0
H414 H 0.23474 0.46156 0.14834 0.0
H415 H 0.22118 0.43879 0.15841 0.0
C416 C 0.28042 0.46417 0.09438 0.0
C417 C 0.27926 0.44993 0.12488 0.0
C418 C 0.26586 0.46305 0.06728 0.0
C419 C 0.24993 0.44779 0.07128 0.0
C420 C 0.24859 0.43377 0.10377 0.0
H421 H 0.14928 0.42451 0.93869 0.0
H422 H 0.173 0.42342 0.98946 0.0
C423 C 0.2632 0.43485 0.13058 0.0
C424 C 0.23493 0.4463 0.03877 0.0
H425 H 0.19808 0.44805 0.05733 0.0
C426 C 0.23415 0.4439 0.9766 0.0
C427 C 0.22173 0.44759 0.06847 0.0
C428 C 0.22223 0.45025 0.13527 0.0
C429 C 0.22041 0.44278 0.943 0.0
C430 C 0.20739 0.44458 0.97239 0.0
C431 C 0.20809 0.44672 0.03486 0.0
C432 C 0.1931 0.44461 0.93917 0.0
C433 C 0.21984 0.43941 0.87659 0.0
C434 C 0.19655 0.45688 0.89418 0.0
C435 C 0.18303 0.45737 0.86485 0.0
C436 C 0.16591 0.44572 0.88055 0.0
C437 C 0.16244 0.43349 0.92557 0.0
C438 C 0.17594 0.43291 0.95459 0.0
H439 H 0.22748 0.43315 0.86474 0.0
H440 H 0.2064 0.43108 0.86083 0.0
H441 H 0.22548 0.45185 0.85221 0.0
H442 H 0.2097 0.46636 0.88279 0.0
H443 H 0.18596 0.46719 0.83128 0.0
H444 H 0.73603 0.15937 0.18437 0.0
H445 H 0.76125 0.18363 0.23175 0.0
H446 H 0.73016 0.20613 0.2808 0.0
H447 H 0.70511 0.18213 0.23211 0.0
H448 H 0.76221 0.22989 0.23452 0.0
H449 H 0.7683 0.19009 0.41325 0.0
H450 H 0.76853 0.18293 0.33829 0.0
H451 H 0.74939 0.18221 0.36664 0.0
C452 C 0.7347 0.16958 0.2051 0.0
C453 C 0.7187 0.16887 0.20581 0.0
C454 C 0.74901 0.18332 0.23244 0.0
C455 C 0.74744 0.19645 0.26091 0.0
C456 C 0.73157 0.19602 0.25962 0.0
H457 H 0.81161 0.28214 0.49306 0.0
H458 H 0.78773 0.25728 0.44262 0.0
C459 C 0.7173 0.18233 0.23217 0.0
C460 C 0.7623 0.21067 0.29223 0.0
H461 H 0.79012 0.21951 0.40902 0.0
C462 C 0.76831 0.22763 0.27264 0.0
C463 C 0.77013 0.20764 0.34223 0.0
C464 C 0.7637 0.18976 0.36683 0.0
C465 C 0.78208 0.24165 0.30153 0.0
C466 C 0.78993 0.23858 0.35108 0.0
C467 C 0.784 0.22169 0.37074 0.0
C468 C 0.80427 0.25291 0.38333 0.0
C469 C 0.78821 0.2597 0.27929 0.0
C470 C 0.82133 0.25842 0.36671 0.0
C471 C 0.8349 0.2725 0.3955 0.0
C472 C 0.83156 0.28111 0.4415 0.0
C473 C 0.81446 0.27544 0.45853 0.0
C474 C 0.80088 0.26138 0.42963 0.0
H475 H 0.78104 0.25988 0.23897 0.0
H476 H 0.7866 0.26736 0.31519 0.0
H477 H 0.80215 0.26609 0.26832 0.0
H478 H 0.8241 0.25201 0.33088 0.0
H479 H 0.84802 0.27678 0.38151 0.0
H480 H 0.53364 0.72096 0.48959 0.0
H481 H 0.53429 0.74543 0.54213 0.0
H482 H 0.56911 0.74445 0.67317 0.0
H483 H 0.56854 0.72007 0.62076 0.0
H484 H 0.52804 0.74279 0.69081 0.0
H485 H 0.58769 0.79724 0.59244 0.0
H486 H 0.57397 0.7781 0.54937 0.0
H487 H 0.58674 0.77706 0.60911 0.0
C488 C 0.54165 0.72621 0.52897 0.0
C489 C 0.55115 0.71883 0.55109 0.0
C490 C 0.54194 0.74005 0.559 0.0
C491 C 0.55179 0.74667 0.61118 0.0
C492 C 0.56151 0.7395 0.63276 0.0
H493 H 0.57271 0.83524 0.83178 0.0
H494 H 0.57352 0.81076 0.78534 0.0
C495 C 0.56116 0.72563 0.60295 0.0
C496 C 0.55135 0.76059 0.64483 0.0
H497 H 0.57301 0.80415 0.66499 0.0
C498 C 0.53783 0.75623 0.68531 0.0
C499 C 0.5643 0.77797 0.63782 0.0
C500 C 0.57905 0.78304 0.59484 0.0
C501 C 0.53687 0.76892 0.71913 0.0
C502 C 0.5496 0.78643 0.71106 0.0
C503 C 0.56326 0.79072 0.67104 0.0
C504 C 0.54868 0.80055 0.74215 0.0
C505 C 0.52241 0.76344 0.7638 0.0
C506 C 0.53443 0.80283 0.73345 0.0
C507 C 0.53391 0.81664 0.76025 0.0
C508 C 0.54777 0.82856 0.79523 0.0
C509 C 0.56191 0.82616 0.80485 0.0
C510 C 0.56239 0.81228 0.77824 0.0
H511 H 0.51712 0.74979 0.77764 0.0
H512 H 0.52679 0.7717 0.80439 0.0
H513 H 0.51179 0.76459 0.74296 0.0
H514 H 0.52386 0.79413 0.70492 0.0
H515 H 0.52282 0.81819 0.75282 0.0
H516 H 0.81177 0.53716 0.80978 0.0
H517 H 0.78812 0.53825 0.86131 0.0
H518 H 0.82267 0.56752 0.00473 0.0
H519 H 0.84636 0.56667 0.95294 0.0
H520 H 0.79103 0.53822 0.04176 0.0
H521 H 0.78093 0.58032 0.88391 0.0
H522 H 0.78134 0.5623 0.85016 0.0
H523 H 0.80047 0.57912 0.88484 0.0
C524 C 0.81434 0.5441 0.8517 0.0
C525 C 0.83085 0.55195 0.8773 0.0
C526 C 0.80086 0.54468 0.8811 0.0
C527 C 0.80373 0.55312 0.93644 0.0
C528 C 0.82024 0.561 0.96194 0.0
H529 H 0.73342 0.5767 0.12857 0.0
H530 H 0.75888 0.57818 0.08089 0.0
C531 C 0.83371 0.56047 0.93248 0.0
C532 C 0.78937 0.55311 0.96906 0.0
H533 H 0.76008 0.56681 0.96079 0.0
C534 C 0.78429 0.54451 0.02425 0.0
C535 C 0.78077 0.5615 0.94624 0.0
C536 C 0.7862 0.57147 0.88828 0.0
C537 C 0.77053 0.54378 0.05677 0.0
C538 C 0.76161 0.55173 0.0331 0.0
C539 C 0.76692 0.56064 0.97853 0.0
C540 C 0.74655 0.55076 0.06392 0.0
C541 C 0.76572 0.53461 0.11634 0.0
C542 C 0.73128 0.53486 0.07006 0.0
C543 C 0.71682 0.53404 0.09704 0.0
C544 C 0.71744 0.54911 0.11784 0.0
C545 C 0.73276 0.56496 0.11261 0.0
C546 C 0.74721 0.5658 0.0854 0.0
H547 H 0.7762 0.53273 0.13452 0.0
H548 H 0.76264 0.54192 0.14955 0.0
H549 H 0.75408 0.52173 0.11063 0.0
H550 H 0.73048 0.52315 0.05314 0.0
H551 H 0.70511 0.52168 0.10117 0.0
H552 H 0.15759 0.73518 0.47234 0.0
H553 H 0.1814 0.7604 0.42279 0.0
H554 H 0.20701 0.73122 0.39001 0.0
H555 H 0.18324 0.70607 0.43957 0.0
H556 H 0.22843 0.76649 0.43761 0.0
H557 H 0.18991 0.76224 0.23613 0.0
H558 H 0.18053 0.76191 0.30776 0.0
H559 H 0.18363 0.74432 0.28667 0.0
C560 C 0.1684 0.73429 0.45482 0.0
C561 C 0.16866 0.7188 0.45888 0.0
C562 C 0.18189 0.74859 0.42641 0.0
C563 C 0.19579 0.74753 0.40215 0.0
C564 C 0.19632 0.73221 0.40819 0.0
H565 H 0.27708 0.81239 0.15497 0.0
H566 H 0.25263 0.78846 0.20679 0.0
C567 C 0.1828 0.71792 0.43628 0.0
C568 C 0.2097 0.76229 0.36964 0.0
H569 H 0.21844 0.78569 0.2407 0.0
C570 C 0.22627 0.77075 0.39467 0.0
C571 C 0.2068 0.7676 0.31336 0.0
C572 C 0.1893 0.75852 0.28391 0.0
C573 C 0.24004 0.78459 0.365 0.0
C574 C 0.23709 0.79004 0.3091 0.0
C575 C 0.22056 0.78148 0.28378 0.0
C576 C 0.25112 0.80454 0.27609 0.0
C577 C 0.25772 0.79316 0.39306 0.0
C578 C 0.25804 0.82143 0.2975 0.0
C579 C 0.27177 0.83506 0.26761 0.0
C580 C 0.27877 0.83199 0.21593 0.0
C581 C 0.27166 0.8151 0.19404 0.0
C582 C 0.25782 0.80146 0.22375 0.0
H583 H 0.25845 0.78561 0.43128 0.0
H584 H 0.2676 0.79493 0.35934 0.0
H585 H 0.26095 0.80611 0.40973 0.0
H586 H 0.25291 0.82403 0.33761 0.0
H587 H 0.27706 0.84801 0.2852 0.0
H588 H 0.47234 0.29347 0.58081 0.0
H589 H 0.47106 0.26832 0.6295 0.0
H590 H 0.42226 0.23521 0.54394 0.0
H591 H 0.42342 0.26046 0.49568 0.0
H592 H 0.44217 0.24431 0.70741 0.0
H593 H 0.4534 0.21308 0.51023 0.0
H594 H 0.45974 0.23566 0.51101 0.0
H595 H 0.43747 0.2196 0.50255 0.0
C596 C 0.46136 0.2808 0.57247 0.0
C597 C 0.44785 0.2788 0.5354 0.0
C598 C 0.46067 0.2665 0.60006 0.0
C599 C 0.44658 0.24998 0.59017 0.0
C600 C 0.43329 0.24788 0.55167 0.0
H601 H 0.42569 0.14997 0.72282 0.0
H602 H 0.42385 0.17335 0.67254 0.0
C603 C 0.43395 0.26223 0.52427 0.0
C604 C 0.44555 0.23509 0.62231 0.0
H605 H 0.44806 0.19865 0.60277 0.0
C606 C 0.44343 0.23428 0.68467 0.0
C607 C 0.44707 0.22205 0.59222 0.0
C608 C 0.44965 0.22258 0.52533 0.0
C609 C 0.44277 0.2207 0.71798 0.0
C610 C 0.44474 0.20785 0.68812 0.0
C611 C 0.4466 0.20854 0.62555 0.0
C612 C 0.44526 0.19376 0.72096 0.0
C613 C 0.43973 0.22011 0.78462 0.0
C614 C 0.45793 0.1975 0.76467 0.0
C615 C 0.45888 0.18418 0.79364 0.0
C616 C 0.44727 0.16696 0.77893 0.0
C617 C 0.43465 0.16321 0.73515 0.0
C618 C 0.43363 0.17651 0.70643 0.0
H619 H 0.43338 0.2276 0.79726 0.0
H620 H 0.43162 0.20665 0.80056 0.0
H621 H 0.4523 0.22588 0.80819 0.0
H622 H 0.46735 0.21073 0.77533 0.0
H623 H 0.46899 0.18733 0.82621 0.0
H624 H 0.48807 0.61347 0.4858 0.0
H625 H 0.46083 0.58942 0.45019 0.0
H626 H 0.47383 0.60842 0.26935 0.0
H627 H 0.50118 0.63258 0.30434 0.0
H628 H 0.43313 0.58992 0.37719 0.0
H629 H 0.46555 0.5577 0.26837 0.0
H630 H 0.476 0.57412 0.32498 0.0
H631 H 0.47361 0.58002 0.25033 0.0
C632 C 0.48513 0.61263 0.43845 0.0
C633 C 0.49689 0.62489 0.39783 0.0
C634 C 0.46953 0.59891 0.41829 0.0
C635 C 0.46546 0.59711 0.3572 0.0
C636 C 0.47687 0.60955 0.31666 0.0
H637 H 0.38426 0.5102 0.16397 0.0
H638 H 0.40875 0.53822 0.1906 0.0
C639 C 0.49246 0.62335 0.33679 0.0
C640 C 0.44959 0.58178 0.33584 0.0
H641 H 0.4354 0.54391 0.26069 0.0
C642 C 0.43356 0.57986 0.35147 0.0
C643 C 0.4503 0.56878 0.30229 0.0
C644 C 0.46725 0.57009 0.28566 0.0
C645 C 0.41811 0.5652 0.33418 0.0
C646 C 0.41881 0.55197 0.30177 0.0
C647 C 0.43489 0.55406 0.2855 0.0
C648 C 0.4031 0.53562 0.2855 0.0
C649 C 0.40124 0.56414 0.35013 0.0
C650 C 0.39175 0.52485 0.33002 0.0
C651 C 0.37765 0.50884 0.31491 0.0
C652 C 0.3748 0.5032 0.25506 0.0
C653 C 0.3861 0.51411 0.21053 0.0
C654 C 0.40011 0.53015 0.22563 0.0
H655 H 0.40288 0.57714 0.35764 0.0
H656 H 0.39148 0.55756 0.31443 0.0
H657 H 0.39623 0.55668 0.39222 0.0
H658 H 0.39406 0.5286 0.37669 0.0
H659 H 0.36927 0.50072 0.35035 0.0
H660 H 0.87237 0.48892 0.80086 0.0
H661 H 0.8691 0.46189 0.76247 0.0
H662 H 0.86384 0.47641 0.58311 0.0
H663 H 0.86707 0.50356 0.62095 0.0
H664 H 0.8406 0.43498 0.68467 0.0
H665 H 0.90629 0.46755 0.58346 0.0
H666 H 0.90025 0.47748 0.64183 0.0
H667 H 0.89243 0.47622 0.56705 0.0
C668 C 0.87041 0.48636 0.75325 0.0
C669 C 0.87011 0.49847 0.71389 0.0
C670 C 0.86849 0.47088 0.7315 0.0
C671 C 0.86637 0.46729 0.67005 0.0
C672 C 0.86558 0.47907 0.6307 0.0
H673 H 0.87421 0.38646 0.47977 0.0
H674 H 0.87028 0.41093 0.5032 0.0
C675 C 0.86739 0.49454 0.65245 0.0
C676 C 0.86575 0.45151 0.64721 0.0
H677 H 0.89 0.43743 0.57522 0.0
C678 C 0.85132 0.43546 0.66035 0.0
C679 C 0.87974 0.45227 0.61536 0.0
C680 C 0.89564 0.46926 0.60117 0.0
C681 C 0.85057 0.42004 0.64269 0.0
C682 C 0.86483 0.42077 0.61259 0.0
C683 C 0.87908 0.43689 0.59831 0.0
C684 C 0.86567 0.40507 0.5977 0.0
C685 C 0.83445 0.40317 0.65607 0.0
C686 C 0.86435 0.39362 0.64303 0.0
C687 C 0.86646 0.37954 0.62974 0.0
C688 C 0.87022 0.3768 0.57097 0.0
C689 C 0.87137 0.38821 0.52554 0.0
C690 C 0.86911 0.4022 0.53881 0.0
H691 H 0.82305 0.4049 0.66068 0.0
H692 H 0.83179 0.3935 0.62045 0.0
H693 H 0.83612 0.398 0.69912 0.0
H694 H 0.86217 0.39583 0.68907 0.0
H695 H 0.86563 0.37109 0.66589 0.0
H696 H 0.49866 0.86868 0.02393 0.0
H697 H 0.47125 0.86632 0.05312 0.0
H698 H 0.46137 0.87324 0.86929 0.0
H699 H 0.48882 0.87571 0.83939 0.0
H700 H 0.46275 0.89388 0.02573 0.0
H701 H 0.41601 0.82938 0.93335 0.0
H702 H 0.43803 0.83549 0.95095 0.0
H703 H 0.43336 0.8439 0.88518 0.0
C704 C 0.4906 0.86953 0.9895 0.0
C705 C 0.49597 0.87242 0.92929 0.0
C706 C 0.47496 0.86818 0.00633 0.0
C707 C 0.46429 0.86947 0.96326 0.0
C708 C 0.46938 0.87201 0.90302 0.0
H709 H 0.36794 0.87008 0.9774 0.0
H710 H 0.3932 0.86816 0.94755 0.0
C711 C 0.4851 0.8735 0.88613 0.0
C712 C 0.44838 0.8693 0.98199 0.0
H713 H 0.40449 0.84576 0.97488 0.0
C714 C 0.44999 0.88334 0.01493 0.0
C715 C 0.43184 0.85559 0.96717 0.0
C716 C 0.42957 0.84014 0.93251 0.0
C717 C 0.43543 0.8842 0.03287 0.0
C718 C 0.41881 0.87035 0.01894 0.0
C719 C 0.41723 0.8563 0.98579 0.0
C720 C 0.40295 0.8704 0.03768 0.0
C721 C 0.43803 0.90015 0.06504 0.0
C722 C 0.3998 0.87179 0.09841 0.0
C723 C 0.38548 0.87306 0.11559 0.0
C724 C 0.37387 0.87267 0.07239 0.0
C725 C 0.37664 0.87046 0.0118 0.0
C726 C 0.39107 0.86936 0.99464 0.0
H727 H 0.45112 0.91132 0.05696 0.0
H728 H 0.42836 0.90373 0.0507 0.0
H729 H 0.4366 0.89765 0.11394 0.0
H730 H 0.40854 0.87213 0.13253 0.0
H731 H 0.38361 0.87453 0.16269 0.0
H732 H 0.61455 0.48733 0.17598 0.0
H733 H 0.59005 0.46016 0.20928 0.0
H734 H 0.60434 0.4749 0.39337 0.0
H735 H 0.62923 0.50204 0.36042 0.0
H736 H 0.59372 0.44053 0.37244 0.0
H737 H 0.54686 0.45748 0.27808 0.0
H738 H 0.56187 0.45812 0.22349 0.0
H739 H 0.5695 0.473 0.2853 0.0
C740 C 0.61256 0.48479 0.22359 0.0
C741 C 0.62372 0.49695 0.26559 0.0
C742 C 0.5985 0.46928 0.24253 0.0
C743 C 0.59514 0.46572 0.30378 0.0
C744 C 0.60664 0.47748 0.34587 0.0
H745 H 0.50751 0.38489 0.49629 0.0
H746 H 0.53529 0.41001 0.47024 0.0
C747 C 0.62084 0.49297 0.32695 0.0
C748 C 0.57936 0.44995 0.32365 0.0
H749 H 0.53551 0.42859 0.31143 0.0
C750 C 0.58098 0.43795 0.35946 0.0
C751 C 0.56275 0.4467 0.30702 0.0
C752 C 0.56008 0.45958 0.27188 0.0
C753 C 0.5664 0.42253 0.37768 0.0
C754 C 0.54989 0.41916 0.35968 0.0
C755 C 0.54826 0.43122 0.32457 0.0
C756 C 0.53401 0.40318 0.37675 0.0
C757 C 0.56869 0.40979 0.41497 0.0
C758 C 0.52419 0.39107 0.33272 0.0
C759 C 0.50836 0.37671 0.34735 0.0
C760 C 0.50196 0.37432 0.40622 0.0
C761 C 0.51204 0.38635 0.45051 0.0
C762 C 0.52794 0.40066 0.43585 0.0
H763 H 0.58239 0.41309 0.41745 0.0
H764 H 0.56402 0.40963 0.46114 0.0
H765 H 0.56091 0.39659 0.39628 0.0
H766 H 0.52867 0.39291 0.28678 0.0
H767 H 0.50095 0.36774 0.31211 0.0
H768 H 0.13186 0.50156 0.65471 0.0
H769 H 0.13502 0.52952 0.62975 0.0
H770 H 0.12793 0.5377 0.81548 0.0
H771 H 0.1243 0.50953 0.84074 0.0
H772 H 0.10752 0.54364 0.74363 0.0
H773 H 0.17402 0.57806 0.65375 0.0
H774 H 0.16081 0.5578 0.6171 0.0
H775 H 0.16568 0.55822 0.6955 0.0
C776 C 0.13121 0.50939 0.69045 0.0
C777 C 0.1278 0.50328 0.74974 0.0
C778 C 0.13314 0.52545 0.67612 0.0
C779 C 0.13199 0.53583 0.72088 0.0
C780 C 0.12895 0.52993 0.78028 0.0
H781 H 0.13065 0.63265 0.70133 0.0
H782 H 0.13373 0.60843 0.7364 0.0
C783 C 0.12687 0.51382 0.79461 0.0
C784 C 0.13256 0.55218 0.70502 0.0
H785 H 0.15627 0.59041 0.63133 0.0
C786 C 0.11829 0.55396 0.71981 0.0
C787 C 0.14662 0.56564 0.67386 0.0
C788 C 0.16272 0.56493 0.65966 0.0
C789 C 0.11745 0.56858 0.70266 0.0
C790 C 0.13128 0.58178 0.67017 0.0
C791 C 0.14568 0.58019 0.65613 0.0
C792 C 0.13065 0.59704 0.64866 0.0
C793 C 0.10158 0.56963 0.71776 0.0
C794 C 0.12825 0.59876 0.5876 0.0
C795 C 0.12641 0.6125 0.56737 0.0
C796 C 0.12708 0.62486 0.60791 0.0
C797 C 0.13004 0.62336 0.66893 0.0
C798 C 0.13177 0.60953 0.68911 0.0
H799 H 0.09098 0.55723 0.73535 0.0
H800 H 0.10486 0.57971 0.75231 0.0
H801 H 0.09687 0.57333 0.67758 0.0
H802 H 0.12738 0.58922 0.55579 0.0
H803 H 0.12425 0.61331 0.52007 0.0
H804 H 0.60952 0.11518 0.13558 0.0
H805 H 0.58529 0.11783 0.0987 0.0
H806 H 0.61191 0.13837 0.93179 0.0
H807 H 0.63631 0.13573 0.96803 0.0
H808 H 0.59456 0.15642 0.99299 0.0
H809 H 0.55317 0.08578 0.95727 0.0
H810 H 0.56402 0.09239 0.02831 0.0
H811 H 0.57639 0.09628 0.96102 0.0
C812 C 0.61033 0.12036 0.09111 0.0
C813 C 0.62484 0.12514 0.05459 0.0
C814 C 0.59645 0.12183 0.07016 0.0
C815 C 0.59682 0.12816 0.01249 0.0
C816 C 0.61143 0.13342 0.97644 0.0
H817 H 0.50715 0.11673 0.82214 0.0
H818 H 0.53487 0.11927 0.84712 0.0
C819 C 0.62531 0.13186 -0.0028 0.0
C820 C 0.58167 0.12872 0.98941 0.0
H821 H 0.53985 0.10274 0.94713 0.0
C822 C 0.5826 0.14473 0.98258 0.0
C823 C 0.56622 0.11342 0.97541 0.0
C824 C 0.56481 0.09596 0.98035 0.0
C825 C 0.56822 0.14579 0.96352 0.0
C826 C 0.55259 0.13044 0.95142 0.0
C827 C 0.55184 0.11448 0.95673 0.0
C828 C 0.53667 0.13052 0.93438 0.0
C829 C 0.56984 0.16328 0.95631 0.0
C830 C 0.52857 0.13609 0.97516 0.0
C831 C 0.51267 0.1346 0.96121 0.0
C832 C 0.50458 0.12746 0.90622 0.0
C833 C 0.51299 0.12229 0.86489 0.0
C834 C 0.52884 0.12372 0.87902 0.0
H835 H 0.58353 0.17369 0.95328 0.0
H836 H 0.56292 0.16368 0.91564 0.0
H837 H 0.56396 0.16594 0.99568 0.0
H838 H 0.53429 0.14111 0.01855 0.0
H839 H 0.50656 0.1387 0.99409 0.0
H840 H 0.34439 0.41902 0.33946 0.0
H841 H 0.35637 0.4008 0.36655 0.0
H842 H 0.36813 0.39795 0.18101 0.0
H843 H 0.35664 0.41673 0.1535 0.0
H844 H 0.34925 0.36868 0.33712 0.0
H845 H 0.41483 0.41672 0.25804 0.0
H846 H 0.39766 0.42162 0.26409 0.0
H847 H 0.3986 0.40962 0.20098 0.0
C848 C 0.34942 0.41446 0.30419 0.0
C849 C 0.3498 0.41956 0.24434 0.0
C850 C 0.35624 0.404 0.31983 0.0
C851 C 0.36349 0.39833 0.27602 0.0
C852 C 0.36302 0.40258 0.21576 0.0
H853 H 0.4175 0.34087 0.30653 0.0
H854 H 0.39949 0.35248 0.27209 0.0
C855 C 0.35637 0.41323 0.20007 0.0
C856 C 0.37213 0.38861 0.29423 0.0
H857 H 0.41103 0.39023 0.29373 0.0
C858 C 0.36275 0.37337 0.32753 0.0
C859 C 0.3898 0.39485 0.28216 0.0
C860 C 0.40088 0.41168 0.24989 0.0
C861 C 0.37058 0.36419 0.3489 0.0
C862 C 0.38816 0.37043 0.33655 0.0
C863 C 0.39749 0.3855 0.30273 0.0
C864 C 0.39735 0.36175 0.35921 0.0
C865 C 0.36008 0.34789 0.38443 0.0
C866 C 0.40193 0.36302 0.41981 0.0
C867 C 0.41237 0.35653 0.43977 0.0
C868 C 0.41836 0.34865 0.3993 0.0
C869 C 0.41317 0.34688 0.33897 0.0
C870 C 0.40286 0.35348 0.31909 0.0
H871 H 0.34607 0.34342 0.38274 0.0
H872 H 0.36223 0.33747 0.36732 0.0
H873 H 0.36429 0.35025 0.4319 0.0
H874 H 0.39791 0.36955 0.45122 0.0
H875 H 0.41612 0.3581 0.48646 0.0
H876 H 0.07395 0.42074 0.64825 0.0
H877 H 0.04392 0.40336 0.61729 0.0
H878 H 0.02765 0.39865 0.8015 0.0
H879 H 0.05767 0.41653 0.83287 0.0
H880 H 0.01804 0.37096 0.64267 0.0
H881 H 0.00142 0.41942 0.7244 0.0
H882 H 0.02336 0.42383 0.71968 0.0
H883 H 0.00989 0.41164 0.78154 0.0
C884 C 0.06401 0.41594 0.68234 0.0
C885 C 0.06819 0.42025 0.743 0.0
C886 C 0.04685 0.40597 0.6645 0.0
C887 C 0.03354 0.40005 0.70693 0.0
C888 C 0.03771 0.4035 0.76786 0.0
H889 H 0.92237 0.34455 0.67542 0.0
H890 H 0.95202 0.35592 0.70922 0.0
C891 C 0.05487 0.41364 0.78574 0.0
C892 C 0.01534 0.39087 0.6869 0.0
H893 H 0.97843 0.39316 0.68794 0.0
C894 C 0.00937 0.3758 0.65253 0.0
C895 C 0.00411 0.39733 0.69936 0.0
C896 C 0.01003 0.41403 0.73274 0.0
C897 C 0.99239 0.36693 0.63087 0.0
C898 C 0.9812 0.37332 0.64394 0.0
C899 C 0.9871 0.38829 0.67844 0.0
C900 C 0.9633 0.36485 0.62172 0.0
C901 C 0.98642 0.35072 0.59457 0.0
C902 C 0.95991 0.36604 0.56114 0.0
C903 C 0.94296 0.35968 0.54156 0.0
C904 C 0.92917 0.35203 0.58239 0.0
C905 C 0.93266 0.35038 0.64273 0.0
C906 C 0.94958 0.35685 0.66223 0.0
H907 H 0.99579 0.34604 0.59603 0.0
H908 H 0.97374 0.34037 0.61117 0.0
H909 H 0.98473 0.35333 0.54721 0.0
H910 H 0.9704 0.37237 0.52942 0.0
H911 H 0.94072 0.36112 0.49481 0.0
H912 H 0.66521 0.07373 -0.00116 0.0
H913 H 0.65312 0.04365 0.96883 0.0
H914 H 0.62305 0.02721 0.13109 0.0
H915 H 0.63503 0.0573 0.16173 0.0
H916 H 0.65069 0.01299 0.03016 0.0
H917 H 0.58794 0.00972 0.98679 0.0
H918 H 0.60786 0.02989 0.99479 0.0
H919 H 0.59716 0.01723 0.05975 0.0
C920 C 0.65622 0.06374 0.0287 0.0
C921 C 0.6509 0.06794 0.08236 0.0
C922 C 0.64938 0.04656 0.01148 0.0
C923 C 0.63706 0.0333 0.04741 0.0
C924 C 0.63244 0.03734 0.10256 0.0
H925 H 0.58625 0.92268 0.00878 0.0
H926 H 0.60496 0.95253 0.03971 0.0
C927 C 0.63933 0.05453 0.12001 0.0
C928 C 0.62801 0.01541 0.02475 0.0
H929 H 0.58891 0.98411 0.97329 0.0
C930 C 0.63719 0.00662 0.01776 0.0
C931 C 0.61048 0.00734 0.0077 0.0
C932 C 0.60025 0.01651 0.01207 0.0
C933 C 0.62914 0.98973 0.99504 0.0
C934 C 0.61151 0.98153 0.97929 0.0
C935 C 0.60244 0.99046 0.98549 0.0
C936 C 0.60196 0.96354 0.95754 0.0
C937 C 0.63958 0.98087 0.98737 0.0
C938 C 0.59412 0.95984 0.90094 0.0
C939 C 0.58334 0.94278 0.88309 0.0
C940 C 0.58008 0.92911 0.9219 0.0
C941 C 0.58845 0.93288 0.97779 0.0
C942 C 0.59926 0.94995 0.99546 0.0
H943 H 0.65364 0.99023 0.98736 0.0
H944 H 0.63675 0.97176 0.02502 0.0
H945 H 0.63614 0.97339 0.945 0.0
H946 H 0.596 0.9702 0.87118 0.0
H947 H 0.57712 0.94034 0.83978 0.0
H948 H 0.56725 0.62558 0.47425 0.0
H949 H 0.58583 0.61458 0.44005 0.0
H950 H 0.61482 0.66018 0.33203 0.0
H951 H 0.59559 0.67072 0.36346 0.0
H952 H 0.60779 0.63402 0.26833 0.0
H953 H 0.63264 0.62469 0.48233 0.0
H954 H 0.60957 0.61309 0.48345 0.0
H955 H 0.62104 0.6363 0.4779 0.0
C956 C 0.5778 0.6334 0.4441 0.0
C957 C 0.58001 0.649 0.42154 0.0
C958 C 0.5885 0.62716 0.42484 0.0
C959 C 0.60197 0.63668 0.38421 0.0
C960 C 0.60456 0.6526 0.36342 0.0
H961 H 0.67009 0.59564 0.30349 0.0
H962 H 0.65966 0.61497 0.3349 0.0
C963 C 0.59359 0.65864 0.38153 0.0
C964 C 0.61235 0.62935 0.35945 0.0
H965 H 0.63356 0.60808 0.39855 0.0
C966 C 0.61368 0.62861 0.29692 0.0
C967 C 0.62037 0.62258 0.39642 0.0
C968 C 0.621 0.6244 0.4637 0.0
C969 C 0.62219 0.62072 0.27044 0.0
C970 C 0.6289 0.61265 0.30742 0.0
C971 C 0.62819 0.614 0.36995 0.0
C972 C 0.63617 0.60221 0.28269 0.0
C973 C 0.62399 0.62132 0.20315 0.0
C974 C 0.62662 0.58876 0.24205 0.0
C975 C 0.6328 0.578 0.22278 0.0
C976 C 0.64837 0.58014 0.24537 0.0
C977 C 0.65803 0.5937 0.28542 0.0
C978 C 0.65205 0.60472 0.30351 0.0
H979 H 0.62434 0.633 0.18449 0.0
H980 H 0.63585 0.6213 0.18891 0.0
H981 H 0.61264 0.60993 0.18348 0.0
H982 H 0.61407 0.58614 0.22681 0.0
H983 H 0.62497 0.56749 0.19258 0.0
H984 H 0.07443 0.66376 0.66654 0.0
H985 H 0.04446 0.65179 0.69729 0.0
H986 H 0.02762 0.62157 0.53544 0.0
H987 H 0.05766 0.63338 0.50418 0.0
H988 H 0.01479 0.65033 0.64091 0.0
H989 H 0.00866 0.58599 0.67509 0.0
H990 H 0.02924 0.60541 0.66612 0.0
H991 H 0.01586 0.59524 0.60201 0.0
C992 C 0.06438 0.65471 0.637 0.0
C993 C 0.06846 0.64933 0.58322 0.0
C994 C 0.04725 0.64794 0.65466 0.0
C995 C 0.0339 0.63562 0.61908 0.0
C996 C 0.03782 0.6309 0.56386 0.0
H997 H 0.92382 0.58952 0.65932 0.0
H998 H 0.9539 0.60742 0.62986 0.0
C999 C 0.05498 0.63771 0.546 0.0
C1000 C 0.01601 0.62693 0.64186 0.0
H1001 H 0.98359 0.58793 0.68972 0.0
C1002 C 0.00792 0.63669 0.65155 0.0
C1003 C 0.00728 0.60922 0.6568 0.0
C1004 C 0.0157 0.59833 0.65005 0.0
C1005 C 0.99112 0.62908 0.6748 0.0
C1006 C 0.98223 0.61126 0.68814 0.0
C1007 C 0.99045 0.60159 0.67933 0.0
C1008 C 0.96418 0.60214 0.70958 0.0
C1009 C 0.98311 0.64019 0.68563 0.0
C1010 C 0.95999 0.59327 0.76434 0.0
C1011 C 0.94276 0.58292 0.78132 0.0
C1012 C 0.92943 0.58114 0.74344 0.0
C1013 C 0.93374 0.59057 0.6896 0.0
C1014 C 0.95095 0.60092 0.67278 0.0
H1015 H 0.99303 0.65407 0.68858 0.0
H1016 H 0.97439 0.63857 0.64785 0.0
H1017 H 0.97539 0.63635 0.72751 0.0
H1018 H 0.97005 0.59401 0.79323 0.0
H1019 H 0.9399 0.57585 0.82306 0.0
H1020 H 0.42276 0.07536 0.01247 0.0
H1021 H 0.40443 0.04548 0.04384 0.0
H1022 H 0.39696 0.02918 0.85919 0.0
H1023 H 0.41576 0.05901 0.82736 0.0
H1024 H 0.37127 0.02091 0.02215 0.0
H1025 H 0.41601 0.0007 0.92994 0.0
H1026 H 0.42176 0.02302 0.93579 0.0
H1027 H 0.40848 0.00998 0.87493 0.0
C1028 C 0.41716 0.06545 0.9784 0.0
C1029 C 0.42093 0.06954 0.9174 0.0
C1030 C 0.40665 0.04837 -0.00353 0.0
C1031 C 0.39965 0.03508 0.95395 0.0
C1032 C 0.40263 0.0392 0.89284 0.0
H1033 H 0.33934 0.92402 0.98296 0.0
H1034 H 0.35143 0.95393 0.95096 0.0
C1035 C 0.4133 0.05627 0.87471 0.0
C1036 C 0.38981 0.01688 0.97389 0.0
H1037 H 0.38944 0.97861 0.96819 0.0
C1038 C 0.37524 0.01166 0.0104 0.0
C1039 C 0.39513 0.00488 0.95899 0.0
C1040 C 0.41129 0.00993 0.92328 0.0
C1041 C 0.36573 0.99467 0.03177 0.0
C1042 C 0.37096 0.9827 0.01612 0.0
C1043 C 0.38545 0.98787 0.97958 0.0
C1044 C 0.36182 0.96474 0.03786 0.0
C1045 C 0.3501 0.98951 0.07048 0.0
C1046 C 0.36352 0.961 0.09759 0.0
C1047 C 0.35675 0.9439 0.11609 0.0
C1048 C 0.34817 0.9303 0.07503 0.0
C1049 C 0.3459 0.93415 0.01578 0.0
C1050 C 0.35277 0.95123 -0.00268 0.0
H1051 H 0.34627 -0.00045 0.07128 0.0
H1052 H 0.33906 0.97722 0.05425 0.0
H1053 H 0.35297 0.98738 0.11701 0.0
H1054 H 0.37065 0.97133 0.12928 0.0
H1055 H 0.35869 0.94138 0.16203 0.0
H1056 H 0.29799 0.40185 0.42489 0.0
H1057 H 0.29728 0.39739 0.53316 0.0
H1058 H 0.30674 0.449 0.56258 0.0
H1059 H 0.30746 0.45357 0.45478 0.0
H1060 H 0.32708 0.41844 0.59814 0.0
H1061 H 0.27177 0.42145 0.69394 0.0
H1062 H 0.27265 0.41628 0.6162 0.0
H1063 H 0.28345 0.43839 0.64077 0.0
C1064 C 0.29935 0.41205 0.45442 0.0
C1065 C 0.30299 0.42815 0.43143 0.0
C1066 C 0.29895 0.40947 0.51624 0.0
C1067 C 0.30185 0.42282 0.55577 0.0
C1068 C 0.30416 0.43842 0.53285 0.0
H1069 H 0.34291 0.47201 0.87541 0.0
H1070 H 0.32961 0.45996 0.77911 0.0
C1071 C 0.3047 0.44107 0.47119 0.0
C1072 C 0.3055 0.42181 0.61966 0.0
H1073 H 0.29664 0.43085 0.75897 0.0
C1074 C 0.32016 0.42065 0.63374 0.0
C1075 C 0.29642 0.42466 0.66572 0.0
C1076 C 0.28009 0.42509 0.65347 0.0
C1077 C 0.3269 0.42384 0.69198 0.0
C1078 C 0.31852 0.42799 0.73716 0.0
C1079 C 0.3031 0.4278 0.724 0.0
C1080 C 0.32672 0.43486 0.79579 0.0
C1081 C 0.34361 0.42407 0.70365 0.0
C1082 C 0.32976 0.42478 0.83668 0.0
C1083 C 0.33763 0.43175 0.89172 0.0
C1084 C 0.34231 0.44879 0.90681 0.0
C1085 C 0.3395 0.45886 0.86513 0.0
C1086 C 0.33174 0.45195 0.81031 0.0
H1087 H 0.3497 0.42303 0.66171 0.0
H1088 H 0.35287 0.43612 0.72711 0.0
H1089 H 0.34109 0.41305 0.73294 0.0
H1090 H 0.32594 0.41154 0.82624 0.0
H1091 H 0.34002 0.42381 0.92225 0.0
H1092 H 0.9062 0.36527 0.18599 0.0
H1093 H 0.90254 0.35159 0.08819 0.0
H1094 H 0.88575 0.30261 0.17419 0.0
H1095 H 0.88843 0.31592 0.27155 0.0
H1096 H 0.91536 0.33245 0.03368 0.0
H1097 H 0.84452 0.29328 0.07137 0.0
H1098 H 0.85849 0.31076 0.12022 0.0
H1099 H 0.85788 0.29044 0.12472 0.0
C1100 C 0.90202 0.35165 0.18405 0.0
C1101 C 0.89788 0.34178 0.23661 0.0
C1102 C 0.89997 0.34386 0.12826 0.0
C1103 C 0.89367 0.32606 0.12411 0.0
C1104 C 0.89044 0.31633 0.17652 0.0
H1105 H 0.88554 0.29206 0.74996 0.0
H1106 H 0.88951 0.29091 0.85795 0.0
C1107 C 0.89233 0.32408 0.23235 0.0
C1108 C 0.8892 0.31769 0.06472 0.0
H1109 H 0.85474 0.29189 0.97623 0.0
C1110 C 0.90217 0.32333 0.02116 0.0
C1111 C 0.87192 0.30586 0.04888 0.0
C1112 C 0.85734 0.29978 0.09347 0.0
C1113 C 0.89822 0.31825 0.96122 0.0
C1114 C 0.88086 0.3069 0.94496 0.0
C1115 C 0.86803 0.30047 0.98917 0.0
C1116 C 0.87549 0.30394 0.88153 0.0
C1117 C 0.91249 0.32606 0.91526 0.0
C1118 C 0.86525 0.31051 0.85965 0.0
C1119 C 0.86279 0.31101 0.79827 0.0
C1120 C 0.87062 0.30503 0.75775 0.0
C1121 C 0.87955 0.297 0.78006 0.0
C1122 C 0.88191 0.29641 0.84167 0.0
H1123 H 0.92465 0.33668 0.93418 0.0
H1124 H 0.91516 0.31598 0.89828 0.0
H1125 H 0.90862 0.33118 0.87667 0.0
H1126 H 0.86007 0.31627 0.88982 0.0
H1127 H 0.85568 0.3171 0.78259 0.0
H1128 H 0.59563 0.88932 0.10039 0.0
H1129 H 0.60013 0.89315 0.20859 0.0
H1130 H 0.546 0.85784 0.23781 0.0
H1131 H 0.54143 0.85377 0.13022 0.0
H1132 H 0.58467 0.90747 0.27264 0.0
H1133 H 0.56762 0.84439 0.37093 0.0
H1134 H 0.57282 0.84919 0.29254 0.0
H1135 H 0.55137 0.84235 0.31936 0.0
C1136 C 0.58479 0.88194 0.12992 0.0
C1137 C 0.56813 0.87139 0.10679 0.0
C1138 C 0.58739 0.88418 0.19171 0.0
C1139 C 0.57343 0.87573 0.23119 0.0
C1140 C 0.55703 0.86424 0.20826 0.0
H1141 H 0.53873 0.90407 0.53389 0.0
H1142 H 0.54969 0.90175 0.43597 0.0
C1143 C 0.55441 0.86202 0.14663 0.0
C1144 C 0.57521 0.88079 0.29492 0.0
H1145 H 0.56315 0.86385 0.4349 0.0
C1146 C 0.58038 0.89802 0.3084 0.0
C1147 C 0.56984 0.86854 0.34158 0.0
C1148 C 0.56528 0.85013 0.3304 0.0
C1149 C 0.57905 0.90303 0.36671 0.0
C1150 C 0.57211 0.89041 0.41223 0.0
C1151 C 0.56822 0.87348 0.39969 0.0
C1152 C 0.56732 0.89404 0.47158 0.0
C1153 C 0.58461 0.92168 0.37859 0.0
C1154 C 0.57349 0.89037 0.52392 0.0
C1155 C 0.56714 0.89155 0.57971 0.0
C1156 C 0.55456 0.89653 0.58411 0.0
C1157 C 0.54867 0.90055 0.53175 0.0
C1158 C 0.555 0.89933 0.47592 0.0
H1159 H 0.5947 0.93033 0.34637 0.0
H1160 H 0.57337 0.9236 0.37305 0.0
H1161 H 0.58965 0.92552 0.42482 0.0
H1162 H 0.58276 0.88598 0.52142 0.0
H1163 H 0.57142 0.88764 0.61889 0.0
H1164 H 0.62951 0.54039 0.86815 0.0
H1165 H 0.64169 0.54925 0.76738 0.0
H1166 H 0.69301 0.57156 0.84058 0.0
H1167 H 0.68098 0.56341 0.94083 0.0
H1168 H 0.69256 0.59076 0.75079 0.0
H1169 H 0.65983 0.52219 0.68223 0.0
H1170 H 0.64478 0.52868 0.70584 0.0
H1171 H 0.65998 0.52869 0.75869 0.0
C1172 C 0.64338 0.54751 0.86259 0.0
C1173 C 0.65429 0.55131 0.91216 0.0
C1174 C 0.65032 0.55243 0.80518 0.0
C1175 C 0.66825 0.56068 0.79647 0.0
C1176 C 0.67915 0.56518 0.84628 0.0
H1177 H 0.70183 0.55134 0.4428 0.0
H1178 H 0.7013 0.55238 0.5522 0.0
C1179 C 0.67224 0.56055 0.90367 0.0
C1180 C 0.67561 0.5636 0.73549 0.0
H1181 H 0.67293 0.54289 0.60473 0.0
C1182 C 0.68839 0.5803 0.71885 0.0
C1183 C 0.6706 0.54984 0.69467 0.0
C1184 C 0.6582 0.53132 0.71144 0.0
C1185 C 0.69583 0.58369 0.66155 0.0
C1186 C 0.6899 0.57012 0.61937 0.0
C1187 C 0.67751 0.55336 0.63685 0.0
C1188 C 0.69516 0.57291 0.55559 0.0
C1189 C 0.71005 0.60172 0.6473 0.0
C1190 C 0.69292 0.58477 0.52126 0.0
C1191 C 0.69377 0.58454 0.45894 0.0
C1192 C 0.6963 0.57205 0.43005 0.0
C1193 C 0.69981 0.56104 0.46427 0.0
C1194 C 0.69945 0.56161 0.52664 0.0
H1195 H 0.71754 0.60831 0.68813 0.0
H1196 H 0.71903 0.60174 0.61299 0.0
H1197 H 0.70429 0.60936 0.63021 0.0
H1198 H 0.68916 0.5933 0.54213 0.0
H1199 H 0.69084 0.59305 0.43348 0.0
H1200 H 0.12978 0.65546 0.22252 0.0
H1201 H 0.13094 0.66862 0.12574 0.0
H1202 H 0.0828 0.66665 0.16421 0.0
H1203 H 0.0814 0.65312 0.26137 0.0
H1204 H 0.08551 0.6546 0.04776 0.0
H1205 H 0.14148 0.71877 0.0983 0.0
H1206 H 0.14506 0.70134 0.11757 0.0
H1207 H 0.12863 0.70359 0.15598 0.0
C1208 C 0.11937 0.6577 0.21028 0.0
C1209 C 0.10561 0.65349 0.24973 0.0
C1210 C 0.12017 0.66542 0.15536 0.0
C1211 C 0.10721 0.66903 0.13878 0.0
C1212 C 0.09309 0.66426 0.17696 0.0
H1213 H 0.10103 0.69976 0.7699 0.0
H1214 H 0.09661 0.69806 0.87842 0.0
C1215 C 0.09233 0.65659 0.2323 0.0
C1216 C 0.10827 0.67706 0.08008 0.0
H1217 H 0.13565 0.71135 0.99367 0.0
C1218 C 0.09619 0.6672 0.03608 0.0
C1219 C 0.12221 0.69352 0.06543 0.0
C1220 C 0.135 0.70501 0.11199 0.0
C1221 C 0.09846 0.67279 0.97642 0.0
C1222 C 0.11304 0.68877 0.96101 0.0
C1223 C 0.12451 0.69912 0.00578 0.0
C1224 C 0.11774 0.69364 0.8978 0.0
C1225 C 0.08593 0.66104 0.92962 0.0
C1226 C 0.1317 0.69274 0.87353 0.0
C1227 C 0.13428 0.69371 0.81176 0.0
C1228 C 0.12294 0.69564 0.77337 0.0
C1229 C 0.10994 0.69817 0.79828 0.0
C1230 C 0.10732 0.69712 0.8602 0.0
H1231 H 0.07653 0.64819 0.94808 0.0
H1232 H 0.07863 0.667 0.91122 0.0
H1233 H 0.09297 0.6592 0.892 0.0
H1234 H 0.13992 0.69014 0.90204 0.0
H1235 H 0.14451 0.69189 0.79393 0.0
H1236 H 0.45713 0.09273 0.52149 0.0
H1237 H 0.44706 0.09644 0.42388 0.0
H1238 H 0.41498 0.11328 0.51054 0.0
H1239 H 0.42563 0.11051 0.60775 0.0
H1240 H 0.41495 0.08364 0.36994 0.0
H1241 H 0.44698 0.15453 0.40746 0.0
H1242 H 0.45049 0.14051 0.45607 0.0
H1243 H 0.43081 0.14117 0.46101 0.0
C1244 C 0.44769 0.09692 0.51973 0.0
C1245 C 0.442 0.10105 0.57241 0.0
C1246 C 0.44193 0.099 0.46406 0.0
C1247 C 0.43045 0.10533 0.46015 0.0
C1248 C 0.42399 0.10856 0.51269 0.0
H1249 H 0.40509 0.11372 0.08569 0.0
H1250 H 0.39979 0.10985 0.19364 0.0
C1251 C 0.42986 0.10663 0.56841 0.0
C1252 C 0.42654 0.10983 0.40087 0.0
H1253 H 0.43551 0.14436 0.31222 0.0
C1254 C 0.41913 0.09686 0.35737 0.0
C1255 C 0.43211 0.12713 0.38497 0.0
C1256 C 0.44066 0.1417 0.42955 0.0
C1257 C 0.41806 0.10082 0.29741 0.0
C1258 C 0.42423 0.11822 0.28106 0.0
C1259 C 0.43068 0.13105 0.32523 0.0
C1260 C 0.42679 0.12358 0.21761 0.0
C1261 C 0.41151 0.08654 0.25151 0.0
C1262 C 0.44366 0.13362 0.19595 0.0
C1263 C 0.44674 0.13602 0.1346 0.0
C1264 C 0.43297 0.12832 0.0939 0.0
C1265 C 0.41598 0.11961 0.11595 0.0
C1266 C 0.41291 0.1173 0.17753 0.0
H1267 H 0.40977 0.07431 0.27056 0.0
H1268 H 0.39885 0.08405 0.23427 0.0
H1269 H 0.42055 0.0903 0.21307 0.0
H1270 H 0.45455 0.13868 0.22629 0.0
H1271 H 0.45996 0.14297 0.1191 0.0
H1272 H 0.59774 0.70118 0.23251 0.0
H1273 H 0.60034 0.70077 0.12361 0.0
H1274 H 0.54841 0.69131 0.10449 0.0
H1275 H 0.54572 0.69181 0.21293 0.0
H1276 H 0.57865 0.6706 0.06399 0.0
H1277 H 0.57321 0.72438 0.96662 0.0
H1278 H 0.57933 0.7243 0.04368 0.0
H1279 H 0.55697 0.71292 0.02223 0.0
C1280 C 0.58707 0.6996 0.20509 0.0
C1281 C 0.57143 0.69629 0.23129 0.0
C1282 C 0.5886 0.69935 0.14287 0.0
C1283 C 0.57461 0.69608 0.10604 0.0
C1284 C 0.55948 0.69416 0.13201 0.0
H1285 H 0.524 0.65222 0.78564 0.0
H1286 H 0.53537 0.66558 0.88265 0.0
C1287 C 0.55791 0.69432 0.1941 0.0
C1288 C 0.57453 0.69169 0.04219 0.0
H1289 H 0.56373 0.69915 0.90358 0.0
C1290 C 0.57584 0.67709 0.02848 0.0
C1291 C 0.57085 0.70018 -0.00379 0.0
C1292 C 0.57018 0.71643 0.00783 0.0
C1293 C 0.57224 0.66995 0.97082 0.0
C1294 C 0.56748 0.67783 0.92572 0.0
C1295 C 0.56726 0.69307 0.9385 0.0
C1296 C 0.56093 0.66952 0.86701 0.0
C1297 C 0.5724 0.6534 0.95966 0.0
C1298 C 0.5715 0.66707 0.82651 0.0
C1299 C 0.56495 0.65921 0.77114 0.0
C1300 C 0.54783 0.65392 0.7553 0.0
C1301 C 0.53724 0.65611 0.79658 0.0
C1302 C 0.54375 0.66389 0.85177 0.0
H1303 H 0.57355 0.64748 0.00183 0.0
H1304 H 0.56046 0.64392 0.93615 0.0
H1305 H 0.58352 0.6561 0.93062 0.0
H1306 H 0.58482 0.67138 0.83748 0.0
H1307 H 0.5733 0.65732 0.74089 0.0
H1308 H 0.91473 0.57108 0.06446 0.0
H1309 H 0.91299 0.58098 0.1653 0.0
H1310 H 0.86985 0.53076 0.20555 0.0
H1311 H 0.87123 0.52091 0.10503 0.0
H1312 H 0.8826 0.58026 0.22061 0.0
H1313 H 0.90525 0.54129 0.34229 0.0
H1314 H 0.90909 0.54601 0.26329 0.0
H1315 H 0.88848 0.52913 0.289 0.0
C1316 C 0.90478 0.56222 0.09458 0.0
C1317 C 0.89295 0.54529 0.07655 0.0
C1318 C 0.90387 0.56787 0.15216 0.0
C1319 C 0.89132 0.55656 0.19257 0.0
C1320 C 0.87973 0.53961 0.17502 0.0
H1321 H 0.85101 0.54754 0.53867 0.0
H1322 H 0.85479 0.54758 0.43042 0.0
C1323 C 0.88059 0.53399 0.11767 0.0
C1324 C 0.89004 0.56228 0.25328 0.0
H1325 H 0.89053 0.55237 0.40021 0.0
C1326 C 0.88459 0.57442 0.26008 0.0
C1327 C 0.89273 0.55464 0.30435 0.0
C1328 C 0.89937 0.54216 0.29959 0.0
C1329 C 0.88092 0.57845 0.31704 0.0
C1330 C 0.88277 0.5701 0.3676 0.0
C1331 C 0.88892 0.55855 0.3609 0.0
C1332 C 0.87798 0.57255 0.42835 0.0
C1333 C 0.87445 0.59101 0.32301 0.0
C1334 C 0.88934 0.58698 0.46214 0.0
C1335 C 0.88722 0.58701 0.52415 0.0
C1336 C 0.87385 0.57248 0.55287 0.0
C1337 C 0.86154 0.55883 0.51789 0.0
C1338 C 0.86364 0.55884 0.45606 0.0
H1339 H 0.87289 0.59578 0.27887 0.0
H1340 H 0.86187 0.58477 0.34674 0.0
H1341 H 0.88365 0.6022 0.35041 0.0
H1342 H 0.90055 0.5976 0.44133 0.0
H1343 H 0.8969 0.59775 0.54985 0.0
H1344 H 0.36256 0.90574 0.46709 0.0
H1345 H 0.34877 0.90179 0.56493 0.0
H1346 H 0.2997 0.88425 0.47879 0.0
H1347 H 0.31307 0.88711 0.38162 0.0
H1348 H 0.32967 0.91458 0.61817 0.0
H1349 H 0.29034 0.84363 0.58406 0.0
H1350 H 0.30773 0.85742 0.53452 0.0
H1351 H 0.28733 0.85665 0.52965 0.0
C1352 C 0.34887 0.90127 0.46904 0.0
C1353 C 0.33902 0.89707 0.41644 0.0
C1354 C 0.34103 0.89907 0.52484 0.0
C1355 C 0.32319 0.89254 0.52895 0.0
C1356 C 0.31344 0.88911 0.47652 0.0
H1357 H 0.28838 0.88686 0.90072 0.0
H1358 H 0.28754 0.89018 0.79219 0.0
C1359 C 0.32124 0.89113 0.42075 0.0
C1360 C 0.3148 0.88831 0.58833 0.0
H1361 H 0.2883 0.85434 0.67765 0.0
C1362 C 0.32041 0.90147 0.63113 0.0
C1363 C 0.30278 0.87113 0.60476 0.0
C1364 C 0.29675 0.85634 0.56111 0.0
C1365 C 0.31506 0.89782 0.69093 0.0
C1366 C 0.30343 0.88057 0.70778 0.0
C1367 C 0.29708 0.86755 0.66425 0.0
C1368 C 0.30006 0.87548 0.77142 0.0
C1369 C 0.32285 0.91228 0.73617 0.0
C1370 C 0.30616 0.86503 0.79507 0.0
C1371 C 0.30646 0.86291 0.85674 0.0
C1372 C 0.30075 0.87133 0.89578 0.0
C1373 C 0.29311 0.88043 0.87176 0.0
C1374 C 0.2927 0.88242 0.80984 0.0
H1375 H 0.33376 0.92423 0.71719 0.0
H1376 H 0.31288 0.91531 0.75143 0.0
H1377 H 0.32758 0.90842 0.7759 0.0
H1378 H 0.31176 0.85943 0.76605 0.0
H1379 H 0.31223 0.85564 0.87376 0.0
H1380 H 0.42392 0.31517 0.71045 0.0
H1381 H 0.41288 0.30239 0.80846 0.0
H1382 H 0.44673 0.35125 0.89251 0.0
H1383 H 0.45741 0.36428 0.79418 0.0
H1384 H 0.4331 0.29991 0.89317 0.0
H1385 H 0.40233 0.33517 0.9858 0.0
H1386 H 0.40683 0.33525 0.90688 0.0
H1387 H 0.42349 0.34965 0.95745 0.0
C1388 C 0.42842 0.32342 0.74947 0.0
C1389 C 0.44119 0.34089 0.74457 0.0
C1390 C 0.42225 0.31602 0.80556 0.0
C1391 C 0.42876 0.32592 0.85766 0.0
C1392 C 0.44117 0.34348 0.85279 0.0
H1393 H 0.45638 0.31159 0.19729 0.0
H1394 H 0.45147 0.31138 0.08996 0.0
C1395 C 0.44734 0.35089 0.79669 0.0
C1396 C 0.42432 0.31759 0.91719 0.0
H1397 H 0.41276 0.32238 0.05813 0.0
C1398 C 0.42828 0.30455 0.929 0.0
C1399 C 0.41775 0.3234 0.96358 0.0
C1400 C 0.41218 0.33651 0.95263 0.0
C1401 C 0.42706 0.2981 0.98707 0.0
C1402 C 0.42201 0.30507 0.03444 0.0
C1403 C 0.41681 0.31715 0.02181 0.0
C1404 C 0.42406 0.30175 0.0979 0.0
C1405 C 0.43169 0.28426 -0.00255 0.0
C1406 C 0.41021 0.2961 0.13797 0.0
C1407 C 0.413 0.29628 0.19958 0.0
C1408 C 0.42973 0.30236 0.22198 0.0
C1409 C 0.44335 0.30689 0.18147 0.0
C1410 C 0.44054 0.30666 0.11999 0.0
H1411 H 0.42925 0.27622 0.95675 0.0
H1412 H 0.44563 0.29041 0.00801 0.0
H1413 H 0.42427 0.27576 0.0354 0.0
H1414 H 0.39741 0.29234 0.12174 0.0
H1415 H 0.40223 0.29269 0.22962 0.0
H1416 H 0.14205 0.45751 0.54069 0.0
H1417 H 0.13788 0.45241 0.43337 0.0
H1418 H 0.10768 0.39763 0.4645 0.0
H1419 H 0.11141 0.40264 0.57261 0.0
H1420 H 0.14298 0.43322 0.34695 0.0
H1421 H 0.07317 0.40902 0.38773 0.0
H1422 H 0.08913 0.41927 0.44562 0.0
H1423 H 0.08235 0.39752 0.42355 0.0
C1424 C 0.13481 0.44434 0.52484 0.0
C1425 C 0.12669 0.43051 0.56516 0.0
C1426 C 0.13249 0.44144 0.4634 0.0
C1427 C 0.1221 0.42468 0.44126 0.0
C1428 C 0.1154 0.41069 0.48097 0.0
H1429 H 0.10967 0.42468 0.05113 0.0
H1430 H 0.11217 0.41381 0.14822 0.0
C1431 C 0.11763 0.41358 0.54265 0.0
C1432 C 0.11685 0.42242 0.37773 0.0
H1433 H 0.08267 0.41426 0.28852 0.0
C1434 C 0.12976 0.42874 0.33378 0.0
C1435 C 0.09956 0.41672 0.36117 0.0
C1436 C 0.08522 0.41034 0.40683 0.0
C1437 C 0.12603 0.43048 0.27409 0.0
C1438 C 0.10885 0.42537 0.258 0.0
C1439 C 0.09578 0.41809 0.30124 0.0
C1440 C 0.1046 0.42955 0.19875 0.0
C1441 C 0.14071 0.43889 0.22983 0.0
C1442 C 0.09858 0.44129 0.19494 0.0
C1443 C 0.09665 0.44719 0.1393 0.0
C1444 C 0.10061 0.44137 0.08656 0.0
C1445 C 0.10591 0.42902 0.09049 0.0
C1446 C 0.10769 0.42301 0.14615 0.0
H1447 H 0.15349 0.44494 0.25217 0.0
H1448 H 0.14001 0.42901 0.1982 0.0
H1449 H 0.13981 0.44892 0.20345 0.0
H1450 H 0.09613 0.4465 0.23516 0.0
H1451 H 0.09267 0.45679 0.13761 0.0
H1452 H 0.65478 0.08148 0.40091 0.0
H1453 H 0.66622 0.08241 0.50147 0.0
H1454 H 0.65955 0.12553 0.54636 0.0
H1455 H 0.64867 0.12509 0.44602 0.0
H1456 H 0.69644 0.11411 0.55901 0.0
H1457 H 0.63403 0.08756 0.67948 0.0
H1458 H 0.63543 0.08398 0.60052 0.0
H1459 H 0.638 0.10416 0.62611 0.0
C1460 C 0.65597 0.0913 0.4319 0.0
C1461 C 0.65114 0.10343 0.41514 0.0
C1462 C 0.66239 0.09172 0.48934 0.0
C1463 C 0.66372 0.10405 0.53089 0.0
C1464 C 0.65852 0.11587 0.51477 0.0
H1465 H 0.69382 0.14544 0.87274 0.0
H1466 H 0.69019 0.14057 0.76485 0.0
C1467 C 0.65223 0.11553 0.45753 0.0
C1468 C 0.67062 0.10491 0.59141 0.0
H1469 H 0.65956 0.10279 0.73834 0.0
C1470 C 0.68838 0.11132 0.59841 0.0
C1471 C 0.66 0.10121 0.64232 0.0
C1472 C 0.64077 0.09369 0.637 0.0
C1473 C 0.69594 0.11506 0.65557 0.0
C1474 C 0.68542 0.11228 0.70605 0.0
C1475 C 0.66757 0.10504 0.69911 0.0
C1476 C 0.69251 0.11768 0.76668 0.0
C1477 C 0.71514 0.12269 0.66189 0.0
C1478 C 0.69583 0.10684 0.80251 0.0
C1479 C 0.69796 0.10961 0.86429 0.0
C1480 C 0.6965 0.1231 0.89072 0.0
C1481 C 0.69483 0.13486 0.8537 0.0
C1482 C 0.69279 0.13212 0.7921 0.0
H1483 H 0.72157 0.12407 0.61805 0.0
H1484 H 0.72078 0.13556 0.68342 0.0
H1485 H 0.71787 0.11438 0.69148 0.0
H1486 H 0.69551 0.09556 0.78344 0.0
H1487 H 0.69924 0.10033 0.89165 0.0
loop_
_geom_bond_atom_site_label_1
_geom_bond_atom_site_label_2
_geom_bond_distance
_geom_bond_site_symmetry_2
_ccdc_geom_bond_type
Co0 O3 1.970 . S
Co0 N17 1.989 . S
Co0 O25 1.967 . S
Co0 O32 1.920 . S
Co1 O4 1.966 . S
Co1 N10 2.022 . S
Co1 N18 1.993 . S
Co1 O26 1.941 . S
C2 O3 1.258 . S
C2 O4 1.263 . S
O3 Co0 1.970 . S
O3 C2 1.258 . S
O4 Co1 1.966 . S
O4 C2 1.263 . S
C5 O6 1.235 . S
C5 O32 1.289 . S
O6 C5 1.235 . S
C7 C9 1.400 1_554 S
C7 N10 1.351 . S
C7 C12 1.501 . S
C8 C9 1.387 . S
C8 N11 1.341 1_556 S
C9 C7 1.400 1_556 S
C9 C8 1.387 . S
N10 Co1 2.022 . S
N10 C7 1.351 . S
N10 N11 1.365 . S
N11 C8 1.341 1_554 S
N11 N10 1.365 . S
N11 H31 0.862 . S
C12 C7 1.501 . S
C12 H13 0.961 . S
C12 H14 0.961 . S
C12 H15 0.960 . S
H13 C12 0.961 . S
H14 C12 0.961 . S
H15 C12 0.960 . S
C16 N17 1.342 . S
C16 C20 1.401 . S
C16 C21 1.499 . S
N17 Co0 1.989 . S
N17 C16 1.342 . S
N17 N18 1.388 . S
N18 Co1 1.993 . S
N18 N17 1.388 . S
N18 C19 1.346 . S
C19 N18 1.346 . S
C19 C20 1.396 . S
C19 C29 1.510 . S
C20 C16 1.401 . S
C20 C19 1.396 . S
C21 C16 1.499 . S
C21 H22 0.959 . S
C21 H23 0.960 . S
C21 H24 0.961 . S
H22 C21 0.959 . S
H23 C21 0.960 . S
H24 C21 0.961 . S
O25 Co0 1.967 . S
O25 C33 1.258 . S
O26 Co1 1.941 . S
O26 C33 1.266 . S
H27 C29 0.959 . S
H28 C29 0.961 . S
C29 C19 1.510 . S
C29 H27 0.959 . S
C29 H28 0.961 . S
C29 H30 0.960 . S
H30 C29 0.960 . S
H31 N11 0.862 . S
O32 Co0 1.920 . S
O32 C5 1.289 . S
C33 O25 1.258 . S
C33 O26 1.266 . S
Co34 O37 1.970 . S
Co34 N51 1.989 . S
Co34 O59 1.967 . S
Co34 O66 1.920 . S
Co35 O38 1.966 . S
Co35 N44 2.022 . S
Co35 N52 1.993 . S
Co35 O60 1.941 . S
C36 O37 1.258 . S
C36 O38 1.263 . S
O37 Co34 1.970 . S
O37 C36 1.258 . S
O38 Co35 1.966 . S
O38 C36 1.263 . S
C39 O40 1.235 . S
C39 O66 1.289 . S
O40 C39 1.235 . S
C41 C43 1.400 . S
C41 N44 1.351 . S
C41 C46 1.501 . S
C42 C43 1.387 . S
C42 N45 1.341 . S
C43 C41 1.400 . S
C43 C42 1.387 . S
N44 Co35 2.022 . S
N44 C41 1.351 . S
N44 N45 1.365 . S
N45 C42 1.341 . S
N45 N44 1.365 . S
N45 H65 0.862 . S
C46 C41 1.501 . S
C46 H47 0.961 . S
C46 H48 0.961 . S
C46 H49 0.960 . S
H47 C46 0.961 . S
H48 C46 0.961 . S
H49 C46 0.960 . S
C50 N51 1.342 . S
C50 C54 1.401 . S
C50 C55 1.499 . S
N51 Co34 1.989 . S
N51 C50 1.342 . S
N51 N52 1.388 . S
N52 Co35 1.993 . S
N52 N51 1.388 . S
N52 C53 1.346 . S
C53 N52 1.346 . S
C53 C54 1.396 . S
C53 C63 1.510 . S
C54 C50 1.401 . S
C54 C53 1.396 . S
C55 C50 1.499 . S
C55 H56 0.959 . S
C55 H57 0.960 . S
C55 H58 0.961 . S
H56 C55 0.959 . S
H57 C55 0.960 . S
H58 C55 0.961 . S
O59 Co34 1.967 . S
O59 C67 1.258 . S
O60 Co35 1.941 . S
O60 C67 1.266 . S
H61 C63 0.959 . S
H62 C63 0.961 . S
C63 C53 1.510 . S
C63 H61 0.959 . S
C63 H62 0.961 . S
C63 H64 0.960 . S
H64 C63 0.960 . S
H65 N45 0.862 . S
O66 Co34 1.920 . S
O66 C39 1.289 . S
C67 O59 1.258 . S
C67 O60 1.266 . S
Co68 O71 1.970 . S
Co68 N85 1.989 . S
Co68 O93 1.967 . S
Co68 O100 1.920 1_556 S
Co69 O72 1.966 . S
Co69 N78 2.022 . S
Co69 N86 1.993 . S
Co69 O94 1.941 . S
C70 O71 1.258 . S
C70 O72 1.263 . S
O71 Co68 1.970 . S
O71 C70 1.258 . S
O72 Co69 1.966 . S
O72 C70 1.263 . S
C73 O74 1.235 . S
C73 O100 1.289 . S
O74 C73 1.235 . S
C75 C77 1.400 . S
C75 N78 1.351 . S
C75 C80 1.501 . S
C76 C77 1.387 . S
C76 N79 1.341 . S
C77 C75 1.400 . S
C77 C76 1.387 . S
N78 Co69 2.022 . S
N78 C75 1.351 . S
N78 N79 1.365 . S
N79 C76 1.341 . S
N79 N78 1.365 . S
N79 H99 0.862 . S
C80 C75 1.501 . S
C80 H81 0.961 . S
C80 H82 0.961 . S
C80 H83 0.960 . S
H81 C80 0.961 . S
H82 C80 0.961 . S
H83 C80 0.960 . S
C84 N85 1.342 . S
C84 C88 1.401 . S
C84 C89 1.499 . S
N85 Co68 1.989 . S
N85 C84 1.342 . S
N85 N86 1.388 . S
N86 Co69 1.993 . S
N86 N85 1.388 . S
N86 C87 1.346 . S
C87 N86 1.346 . S
C87 C88 1.396 . S
C87 C97 1.510 . S
C88 C84 1.401 . S
C88 C87 1.396 . S
C89 C84 1.499 . S
C89 H90 0.959 . S
C89 H91 0.960 . S
C89 H92 0.961 . S
H90 C89 0.959 . S
H91 C89 0.960 . S
H92 C89 0.961 . S
O93 Co68 1.967 . S
O93 C101 1.258 . S
O94 Co69 1.941 . S
O94 C101 1.266 . S
H95 C97 0.959 . S
H96 C97 0.961 . S
C97 C87 1.510 . S
C97 H95 0.959 . S
C97 H96 0.961 . S
C97 H98 0.960 . S
H98 C97 0.960 . S
H99 N79 0.862 . S
O100 Co68 1.920 1_554 S
O100 C73 1.289 . S
C101 O93 1.258 . S
C101 O94 1.266 . S
Co102 O105 1.970 . S
Co102 N119 1.989 . S
Co102 O127 1.967 . S
Co102 O134 1.920 . S
Co103 O106 1.966 . S
Co103 N112 2.022 . S
Co103 N120 1.993 . S
Co103 O128 1.941 . S
C104 O105 1.258 . S
C104 O106 1.263 . S
O105 Co102 1.970 . S
O105 C104 1.258 . S
O106 Co103 1.966 . S
O106 C104 1.263 . S
C107 O108 1.235 . S
C107 O134 1.289 . S
O108 C107 1.235 . S
C109 C111 1.400 1_554 S
C109 N112 1.351 . S
C109 C114 1.501 . S
C110 C111 1.387 . S
C110 N113 1.341 1_556 S
C111 C109 1.400 1_556 S
C111 C110 1.387 . S
N112 Co103 2.022 . S
N112 C109 1.351 . S
N112 N113 1.365 . S
N113 C110 1.341 1_554 S
N113 N112 1.365 . S
N113 H133 0.862 . S
C114 C109 1.501 . S
C114 H115 0.961 . S
C114 H116 0.961 . S
C114 H117 0.960 . S
H115 C114 0.961 . S
H116 C114 0.961 . S
H117 C114 0.960 . S
C118 N119 1.342 . S
C118 C122 1.401 . S
C118 C123 1.499 . S
N119 Co102 1.989 . S
N119 C118 1.342 . S
N119 N120 1.388 . S
N120 Co103 1.993 . S
N120 N119 1.388 . S
N120 C121 1.346 . S
C121 N120 1.346 . S
C121 C122 1.396 . S
C121 C131 1.510 . S
C122 C118 1.401 . S
C122 C121 1.396 . S
C123 C118 1.499 . S
C123 H124 0.959 . S
C123 H125 0.960 . S
C123 H126 0.961 . S
H124 C123 0.959 . S
H125 C123 0.960 . S
H126 C123 0.961 . S
O127 Co102 1.967 . S
O127 C135 1.258 . S
O128 Co103 1.941 . S
O128 C135 1.266 . S
H129 C131 0.959 . S
H130 C131 0.961 . S
C131 C121 1.510 . S
C131 H129 0.959 . S
C131 H130 0.961 . S
C131 H132 0.960 . S
H132 C131 0.960 . S
H133 N113 0.862 . S
O134 Co102 1.920 . S
O134 C107 1.289 . S
C135 O127 1.258 . S
C135 O128 1.266 . S
Co136 O139 1.970 . S
Co136 N153 1.989 . S
Co136 O161 1.967 . S
Co136 O168 1.920 . S
Co137 O140 1.966 . S
Co137 N146 2.022 . S
Co137 N154 1.993 . S
Co137 O162 1.941 . S
C138 O139 1.258 . S
C138 O140 1.263 . S
O139 Co136 1.970 . S
O139 C138 1.258 . S
O140 Co137 1.966 . S
O140 C138 1.263 . S
C141 O142 1.235 . S
C141 O168 1.289 . S
O142 C141 1.235 . S
C143 C145 1.400 . S
C143 N146 1.351 . S
C143 C148 1.501 . S
C144 C145 1.387 . S
C144 N147 1.341 . S
C145 C143 1.400 . S
C145 C144 1.387 . S
N146 Co137 2.022 . S
N146 C143 1.351 . S
N146 N147 1.365 . S
N147 C144 1.341 . S
N147 N146 1.365 . S
N147 H167 0.862 . S
C148 C143 1.501 . S
C148 H149 0.961 . S
C148 H150 0.961 . S
C148 H151 0.960 . S
H149 C148 0.961 . S
H150 C148 0.961 . S
H151 C148 0.960 . S
C152 N153 1.342 . S
C152 C156 1.401 . S
C152 C157 1.499 . S
N153 Co136 1.989 . S
N153 C152 1.342 . S
N153 N154 1.388 . S
N154 Co137 1.993 . S
N154 N153 1.388 . S
N154 C155 1.346 . S
C155 N154 1.346 . S
C155 C156 1.396 . S
C155 C165 1.510 . S
C156 C152 1.401 . S
C156 C155 1.396 . S
C157 C152 1.499 . S
C157 H158 0.959 . S
C157 H159 0.960 . S
C157 H160 0.961 . S
H158 C157 0.959 . S
H159 C157 0.960 . S
H160 C157 0.961 . S
O161 Co136 1.967 . S
O161 C169 1.258 . S
O162 Co137 1.941 . S
O162 C169 1.266 . S
H163 C165 0.959 . S
H164 C165 0.961 . S
C165 C155 1.510 . S
C165 H163 0.959 . S
C165 H164 0.961 . S
C165 H166 0.960 . S
H166 C165 0.960 . S
H167 N147 0.862 . S
O168 Co136 1.920 . S
O168 C141 1.289 . S
C169 O161 1.258 . S
C169 O162 1.266 . S
Co170 O173 1.970 . S
Co170 N187 1.989 . S
Co170 O195 1.967 . S
Co170 O202 1.920 1_556 S
Co171 O174 1.966 . S
Co171 N180 2.022 . S
Co171 N188 1.993 . S
Co171 O196 1.941 . S
C172 O173 1.258 . S
C172 O174 1.263 . S
O173 Co170 1.970 . S
O173 C172 1.258 . S
O174 Co171 1.966 . S
O174 C172 1.263 . S
C175 O176 1.235 . S
C175 O202 1.289 . S
O176 C175 1.235 . S
C177 C179 1.400 . S
C177 N180 1.351 . S
C177 C182 1.501 . S
C178 C179 1.387 . S
C178 N181 1.341 . S
C179 C177 1.400 . S
C179 C178 1.387 . S
N180 Co171 2.022 . S
N180 C177 1.351 . S
N180 N181 1.365 . S
N181 C178 1.341 . S
N181 N180 1.365 . S
N181 H201 0.862 . S
C182 C177 1.501 . S
C182 H183 0.961 . S
C182 H184 0.961 . S
C182 H185 0.960 . S
H183 C182 0.961 . S
H184 C182 0.961 . S
H185 C182 0.960 . S
C186 N187 1.342 . S
C186 C190 1.401 . S
C186 C191 1.499 . S
N187 Co170 1.989 . S
N187 C186 1.342 . S
N187 N188 1.388 . S
N188 Co171 1.993 . S
N188 N187 1.388 . S
N188 C189 1.346 . S
C189 N188 1.346 . S
C189 C190 1.396 . S
C189 C199 1.510 . S
C190 C186 1.401 . S
C190 C189 1.396 . S
C191 C186 1.499 . S
C191 H192 0.959 . S
C191 H193 0.960 . S
C191 H194 0.961 . S
H192 C191 0.959 . S
H193 C191 0.960 . S
H194 C191 0.961 . S
O195 Co170 1.967 . S
O195 C203 1.258 . S
O196 Co171 1.941 . S
O196 C203 1.266 . S
H197 C199 0.959 . S
H198 C199 0.961 . S
C199 C189 1.510 . S
C199 H197 0.959 . S
C199 H198 0.961 . S
C199 H200 0.960 . S
H200 C199 0.960 . S
H201 N181 0.862 . S
O202 Co170 1.920 1_554 S
O202 C175 1.289 . S
C203 O195 1.258 . S
C203 O196 1.266 . S
Co204 O207 1.970 . S
Co204 N221 1.989 . S
Co204 O229 1.967 . S
Co204 O236 1.920 . S
Co205 O208 1.966 . S
Co205 N214 2.022 . S
Co205 N222 1.993 . S
Co205 O230 1.941 . S
C206 O207 1.258 . S
C206 O208 1.263 . S
O207 Co204 1.970 . S
O207 C206 1.258 . S
O208 Co205 1.966 . S
O208 C206 1.263 . S
C209 O210 1.235 . S
C209 O236 1.289 . S
O210 C209 1.235 . S
C211 C213 1.400 . S
C211 N214 1.351 . S
C211 C216 1.501 . S
C212 C213 1.387 . S
C212 N215 1.341 . S
C213 C211 1.400 . S
C213 C212 1.387 . S
N214 Co205 2.022 . S
N214 C211 1.351 . S
N214 N215 1.365 . S
N215 C212 1.341 . S
N215 N214 1.365 . S
N215 H235 0.862 . S
C216 C211 1.501 . S
C216 H217 0.961 . S
C216 H218 0.961 . S
C216 H219 0.960 . S
H217 C216 0.961 . S
H218 C216 0.961 . S
H219 C216 0.960 . S
C220 N221 1.342 . S
C220 C224 1.401 . S
C220 C225 1.499 . S
N221 Co204 1.989 . S
N221 C220 1.342 . S
N221 N222 1.388 . S
N222 Co205 1.993 . S
N222 N221 1.388 . S
N222 C223 1.346 . S
C223 N222 1.346 . S
C223 C224 1.396 . S
C223 C233 1.510 . S
C224 C220 1.401 . S
C224 C223 1.396 . S
C225 C220 1.499 . S
C225 H226 0.959 . S
C225 H227 0.960 . S
C225 H228 0.961 . S
H226 C225 0.959 . S
H227 C225 0.960 . S
H228 C225 0.961 . S
O229 Co204 1.967 . S
O229 C237 1.258 . S
O230 Co205 1.941 . S
O230 C237 1.266 . S
H231 C233 0.959 . S
H232 C233 0.961 . S
C233 C223 1.510 . S
C233 H231 0.959 . S
C233 H232 0.961 . S
C233 H234 0.960 . S
H234 C233 0.960 . S
H235 N215 0.862 . S
O236 Co204 1.920 . S
O236 C209 1.289 . S
C237 O229 1.258 . S
C237 O230 1.266 . S
Co238 O241 1.970 . S
Co238 N255 1.989 . S
Co238 O263 1.967 . S
Co238 O270 1.920 . S
Co239 O242 1.966 . S
Co239 N248 2.022 . S
Co239 N256 1.993 . S
Co239 O264 1.941 . S
C240 O241 1.258 . S
C240 O242 1.263 . S
O241 Co238 1.970 . S
O241 C240 1.258 . S
O242 Co239 1.966 . S
O242 C240 1.263 . S
C243 O244 1.235 . S
C243 O270 1.289 . S
O244 C243 1.235 . S
C245 C247 1.400 1_556 S
C245 N248 1.351 . S
C245 C250 1.501 . S
C246 C247 1.387 . S
C246 N249 1.341 1_554 S
C247 C245 1.400 1_554 S
C247 C246 1.387 . S
N248 Co239 2.022 . S
N248 C245 1.351 . S
N248 N249 1.365 . S
N249 C246 1.341 1_556 S
N249 N248 1.365 . S
N249 H269 0.862 . S
C250 C245 1.501 . S
C250 H251 0.961 . S
C250 H252 0.961 . S
C250 H253 0.960 . S
H251 C250 0.961 . S
H252 C250 0.961 . S
H253 C250 0.960 . S
C254 N255 1.342 . S
C254 C258 1.401 . S
C254 C259 1.499 . S
N255 Co238 1.989 . S
N255 C254 1.342 . S
N255 N256 1.388 . S
N256 Co239 1.993 . S
N256 N255 1.388 . S
N256 C257 1.346 . S
C257 N256 1.346 . S
C257 C258 1.396 . S
C257 C267 1.510 . S
C258 C254 1.401 . S
C258 C257 1.396 . S
C259 C254 1.499 . S
C259 H260 0.959 . S
C259 H261 0.960 . S
C259 H262 0.961 . S
H260 C259 0.959 . S
H261 C259 0.960 . S
H262 C259 0.961 . S
O263 Co238 1.967 . S
O263 C271 1.258 . S
O264 Co239 1.941 . S
O264 C271 1.266 . S
H265 C267 0.959 . S
H266 C267 0.961 . S
C267 C257 1.510 . S
C267 H265 0.959 . S
C267 H266 0.961 . S
C267 H268 0.960 . S
H268 C267 0.960 . S
H269 N249 0.862 . S
O270 Co238 1.920 . S
O270 C243 1.289 . S
C271 O263 1.258 . S
C271 O264 1.266 . S
Co272 O275 1.970 . S
Co272 N289 1.989 . S
Co272 O297 1.967 . S
Co272 O304 1.920 1_554 S
Co273 O276 1.966 . S
Co273 N282 2.022 . S
Co273 N290 1.993 . S
Co273 O298 1.941 . S
C274 O275 1.258 . S
C274 O276 1.263 . S
O275 Co272 1.970 . S
O275 C274 1.258 . S
O276 Co273 1.966 . S
O276 C274 1.263 . S
C277 O278 1.235 . S
C277 O304 1.289 . S
O278 C277 1.235 . S
C279 C281 1.400 . S
C279 N282 1.351 . S
C279 C284 1.501 . S
C280 C281 1.387 . S
C280 N283 1.341 . S
C281 C279 1.400 . S
C281 C280 1.387 . S
N282 Co273 2.022 . S
N282 C279 1.351 . S
N282 N283 1.365 . S
N283 C280 1.341 . S
N283 N282 1.365 . S
N283 H303 0.862 . S
C284 C279 1.501 . S
C284 H285 0.961 . S
C284 H286 0.961 . S
C284 H287 0.960 . S
H285 C284 0.961 . S
H286 C284 0.961 . S
H287 C284 0.960 . S
C288 N289 1.342 . S
C288 C292 1.401 . S
C288 C293 1.499 . S
N289 Co272 1.989 . S
N289 C288 1.342 . S
N289 N290 1.388 . S
N290 Co273 1.993 . S
N290 N289 1.388 . S
N290 C291 1.346 . S
C291 N290 1.346 . S
C291 C292 1.396 . S
C291 C301 1.510 . S
C292 C288 1.401 . S
C292 C291 1.396 . S
C293 C288 1.499 . S
C293 H294 0.959 . S
C293 H295 0.960 . S
C293 H296 0.961 . S
H294 C293 0.959 . S
H295 C293 0.960 . S
H296 C293 0.961 . S
O297 Co272 1.967 . S
O297 C305 1.258 . S
O298 Co273 1.941 . S
O298 C305 1.266 . S
H299 C301 0.959 . S
H300 C301 0.961 . S
C301 C291 1.510 . S
C301 H299 0.959 . S
C301 H300 0.961 . S
C301 H302 0.960 . S
H302 C301 0.960 . S
H303 N283 0.862 . S
O304 Co272 1.920 1_556 S
O304 C277 1.289 . S
C305 O297 1.258 . S
C305 O298 1.266 . S
Co306 O309 1.970 . S
Co306 N323 1.989 . S
Co306 O331 1.967 . S
Co306 O338 1.920 . S
Co307 O310 1.966 . S
Co307 N316 2.022 . S
Co307 N324 1.993 . S
Co307 O332 1.941 . S
C308 O309 1.258 . S
C308 O310 1.263 . S
O309 Co306 1.970 . S
O309 C308 1.258 . S
O310 Co307 1.966 . S
O310 C308 1.263 . S
C311 O312 1.235 . S
C311 O338 1.289 . S
O312 C311 1.235 . S
C313 C315 1.400 . S
C313 N316 1.351 . S
C313 C318 1.501 . S
C314 C315 1.387 . S
C314 N317 1.341 . S
C315 C313 1.400 . S
C315 C314 1.387 . S
N316 Co307 2.022 . S
N316 C313 1.351 . S
N316 N317 1.365 . S
N317 C314 1.341 . S
N317 N316 1.365 . S
N317 H337 0.862 . S
C318 C313 1.501 . S
C318 H319 0.961 . S
C318 H320 0.961 . S
C318 H321 0.960 . S
H319 C318 0.961 . S
H320 C318 0.961 . S
H321 C318 0.960 . S
C322 N323 1.342 . S
C322 C326 1.401 . S
C322 C327 1.499 . S
N323 Co306 1.989 . S
N323 C322 1.342 . S
N323 N324 1.388 . S
N324 Co307 1.993 . S
N324 N323 1.388 . S
N324 C325 1.346 . S
C325 N324 1.346 . S
C325 C326 1.396 . S
C325 C335 1.510 . S
C326 C322 1.401 . S
C326 C325 1.396 . S
C327 C322 1.499 . S
C327 H328 0.959 . S
C327 H329 0.960 . S
C327 H330 0.961 . S
H328 C327 0.959 . S
H329 C327 0.960 . S
H330 C327 0.961 . S
O331 Co306 1.967 . S
O331 C339 1.258 . S
O332 Co307 1.941 . S
O332 C339 1.266 . S
H333 C335 0.959 . S
H334 C335 0.961 . S
C335 C325 1.510 . S
C335 H333 0.959 . S
C335 H334 0.961 . S
C335 H336 0.960 . S
H336 C335 0.960 . S
H337 N317 0.862 . S
O338 Co306 1.920 . S
O338 C311 1.289 . S
C339 O331 1.258 . S
C339 O332 1.266 . S
Co340 O343 1.970 . S
Co340 N357 1.989 . S
Co340 O365 1.967 . S
Co340 O372 1.920 . S
Co341 O344 1.966 . S
Co341 N350 2.022 . S
Co341 N358 1.993 . S
Co341 O366 1.941 . S
C342 O343 1.258 . S
C342 O344 1.263 . S
O343 Co340 1.970 . S
O343 C342 1.258 . S
O344 Co341 1.966 . S
O344 C342 1.263 . S
C345 O346 1.235 . S
C345 O372 1.289 . S
O346 C345 1.235 . S
C347 C349 1.400 1_556 S
C347 N350 1.351 . S
C347 C352 1.501 . S
C348 C349 1.387 . S
C348 N351 1.341 1_554 S
C349 C347 1.400 1_554 S
C349 C348 1.387 . S
N350 Co341 2.022 . S
N350 C347 1.351 . S
N350 N351 1.365 . S
N351 C348 1.341 1_556 S
N351 N350 1.365 . S
N351 H371 0.862 . S
C352 C347 1.501 . S
C352 H353 0.961 . S
C352 H354 0.961 . S
C352 H355 0.960 . S
H353 C352 0.961 . S
H354 C352 0.961 . S
H355 C352 0.960 . S
C356 N357 1.342 . S
C356 C360 1.401 . S
C356 C361 1.499 . S
N357 Co340 1.989 . S
N357 C356 1.342 . S
N357 N358 1.388 . S
N358 Co341 1.993 . S
N358 N357 1.388 . S
N358 C359 1.346 . S
C359 N358 1.346 . S
C359 C360 1.396 . S
C359 C369 1.510 . S
C360 C356 1.401 . S
C360 C359 1.396 . S
C361 C356 1.499 . S
C361 H362 0.959 . S
C361 H363 0.960 . S
C361 H364 0.961 . S
H362 C361 0.959 . S
H363 C361 0.960 . S
H364 C361 0.961 . S
O365 Co340 1.967 . S
O365 C373 1.258 . S
O366 Co341 1.941 . S
O366 C373 1.266 . S
H367 C369 0.959 . S
H368 C369 0.961 . S
C369 C359 1.510 . S
C369 H367 0.959 . S
C369 H368 0.961 . S
C369 H370 0.960 . S
H370 C369 0.960 . S
H371 N351 0.862 . S
O372 Co340 1.920 . S
O372 C345 1.289 . S
C373 O365 1.258 . S
C373 O366 1.266 . S
Co374 O377 1.970 . S
Co374 N391 1.989 . S
Co374 O399 1.967 . S
Co374 O406 1.920 1_554 S
Co375 O378 1.966 . S
Co375 N384 2.022 . S
Co375 N392 1.993 . S
Co375 O400 1.941 . S
C376 O377 1.258 . S
C376 O378 1.263 . S
O377 Co374 1.970 . S
O377 C376 1.258 . S
O378 Co375 1.966 . S
O378 C376 1.263 . S
C379 O380 1.235 . S
C379 O406 1.289 . S
O380 C379 1.235 . S
C381 C383 1.400 . S
C381 N384 1.351 . S
C381 C386 1.501 . S
C382 C383 1.387 . S
C382 N385 1.341 . S
C383 C381 1.400 . S
C383 C382 1.387 . S
N384 Co375 2.022 . S
N384 C381 1.351 . S
N384 N385 1.365 . S
N385 C382 1.341 . S
N385 N384 1.365 . S
N385 H405 0.862 . S
C386 C381 1.501 . S
C386 H387 0.961 . S
C386 H388 0.961 . S
C386 H389 0.960 . S
H387 C386 0.961 . S
H388 C386 0.961 . S
H389 C386 0.960 . S
C390 N391 1.342 . S
C390 C394 1.401 . S
C390 C395 1.499 . S
N391 Co374 1.989 . S
N391 C390 1.342 . S
N391 N392 1.388 . S
N392 Co375 1.993 . S
N392 N391 1.388 . S
N392 C393 1.346 . S
C393 N392 1.346 . S
C393 C394 1.396 . S
C393 C403 1.510 . S
C394 C390 1.401 . S
C394 C393 1.396 . S
C395 C390 1.499 . S
C395 H396 0.959 . S
C395 H397 0.960 . S
C395 H398 0.961 . S
H396 C395 0.959 . S
H397 C395 0.960 . S
H398 C395 0.961 . S
O399 Co374 1.967 . S
O399 C407 1.258 . S
O400 Co375 1.941 . S
O400 C407 1.266 . S
H401 C403 0.959 . S
H402 C403 0.961 . S
C403 C393 1.510 . S
C403 H401 0.959 . S
C403 H402 0.961 . S
C403 H404 0.960 . S
H404 C403 0.960 . S
H405 N385 0.862 . S
O406 Co374 1.920 1_556 S
O406 C379 1.289 . S
C407 O399 1.258 . S
C407 O400 1.266 . S
H408 C416 0.929 . S
H409 C418 0.930 . S
H410 C420 0.930 . S
H411 C423 0.929 . S
H412 C426 0.930 . S
H413 C428 0.960 . S
H414 C428 0.960 . S
H415 C428 0.960 . S
C416 H408 0.929 . S
C416 C417 1.377 . S
C416 C418 1.384 . S
C417 C416 1.377 . S
C417 C423 1.390 . S
C418 H409 0.930 . S
C418 C416 1.384 . S
C418 C419 1.372 . S
C419 C418 1.372 . S
C419 C420 1.400 . S
C419 C424 1.490 . S
C420 H410 0.930 . S
C420 C419 1.400 . S
C420 C423 1.386 . S
H421 C437 0.930 . S
H422 C438 0.931 . S
C423 H411 0.929 . S
C423 C417 1.390 . S
C423 C420 1.386 . S
C424 C419 1.490 . S
C424 C426 1.395 1_554 S
C424 C427 1.403 . S
H425 C431 0.930 . S
C426 H412 0.930 . S
C426 C424 1.395 1_556 S
C426 C429 1.403 . S
C427 C424 1.403 . S
C427 C428 1.524 . S
C427 C431 1.400 . S
C428 H413 0.960 . S
C428 H414 0.960 . S
C428 H415 0.960 . S
C428 C427 1.524 . S
C429 C426 1.403 . S
C429 C430 1.392 . S
C429 C433 1.495 . S
C430 C429 1.392 . S
C430 C431 1.385 1_556 S
C430 C432 1.478 . S
C431 H425 0.930 . S
C431 C427 1.400 . S
C431 C430 1.385 1_554 S
C432 C430 1.478 . S
C432 C434 1.381 . S
C432 C438 1.383 . S
C433 C429 1.495 . S
C433 H439 0.959 . S
C433 H440 0.961 . S
C433 H441 0.960 . S
C434 C432 1.381 . S
C434 C435 1.394 . S
C434 H442 0.930 . S
C435 C434 1.394 . S
C435 C436 1.383 . S
C435 H443 0.929 . S
C436 C435 1.383 . S
C436 C437 1.377 . S
C437 H421 0.930 . S
C437 C436 1.377 . S
C437 C438 1.379 . S
C438 H422 0.931 . S
C438 C432 1.383 . S
C438 C437 1.379 . S
H439 C433 0.959 . S
H440 C433 0.961 . S
H441 C433 0.960 . S
H442 C434 0.930 . S
H443 C435 0.929 . S
H444 C452 0.929 . S
H445 C454 0.930 . S
H446 C456 0.930 . S
H447 C459 0.929 . S
H448 C462 0.930 . S
H449 C464 0.960 . S
H450 C464 0.960 . S
H451 C464 0.960 . S
C452 H444 0.929 . S
C452 C453 1.377 . S
C452 C454 1.384 . S
C453 C452 1.377 . S
C453 C459 1.390 . S
C454 H445 0.930 . S
C454 C452 1.384 . S
C454 C455 1.372 . S
C455 C454 1.372 . S
C455 C456 1.400 . S
C455 C460 1.490 . S
C456 H446 0.930 . S
C456 C455 1.400 . S
C456 C459 1.386 . S
H457 C473 0.930 . S
H458 C474 0.931 . S
C459 H447 0.929 . S
C459 C453 1.390 . S
C459 C456 1.386 . S
C460 C455 1.490 . S
C460 C462 1.395 . S
C460 C463 1.403 . S
H461 C467 0.930 . S
C462 H448 0.930 . S
C462 C460 1.395 . S
C462 C465 1.403 . S
C463 C460 1.403 . S
C463 C464 1.524 . S
C463 C467 1.400 . S
C464 H449 0.960 . S
C464 H450 0.960 . S
C464 H451 0.960 . S
C464 C463 1.524 . S
C465 C462 1.403 . S
C465 C466 1.392 . S
C465 C469 1.495 . S
C466 C465 1.392 . S
C466 C467 1.385 . S
C466 C468 1.478 . S
C467 H461 0.930 . S
C467 C463 1.400 . S
C467 C466 1.385 . S
C468 C466 1.478 . S
C468 C470 1.381 . S
C468 C474 1.383 . S
C469 C465 1.495 . S
C469 H475 0.959 . S
C469 H476 0.961 . S
C469 H477 0.960 . S
C470 C468 1.381 . S
C470 C471 1.394 . S
C470 H478 0.930 . S
C471 C470 1.394 . S
C471 C472 1.383 . S
C471 H479 0.929 . S
C472 C471 1.383 . S
C472 C473 1.377 . S
C473 H457 0.930 . S
C473 C472 1.377 . S
C473 C474 1.379 . S
C474 H458 0.931 . S
C474 C468 1.383 . S
C474 C473 1.379 . S
H475 C469 0.959 . S
H476 C469 0.961 . S
H477 C469 0.960 . S
H478 C470 0.930 . S
H479 C471 0.929 . S
H480 C488 0.929 . S
H481 C490 0.930 . S
H482 C492 0.930 . S
H483 C495 0.929 . S
H484 C498 0.930 . S
H485 C500 0.960 . S
H486 C500 0.960 . S
H487 C500 0.960 . S
C488 H480 0.929 . S
C488 C489 1.377 . S
C488 C490 1.384 . S
C489 C488 1.377 . S
C489 C495 1.390 . S
C490 H481 0.930 . S
C490 C488 1.384 . S
C490 C491 1.372 . S
C491 C490 1.372 . S
C491 C492 1.400 . S
C491 C496 1.490 . S
C492 H482 0.930 . S
C492 C491 1.400 . S
C492 C495 1.386 . S
H493 C509 0.930 . S
H494 C510 0.931 . S
C495 H483 0.929 . S
C495 C489 1.390 . S
C495 C492 1.386 . S
C496 C491 1.490 . S
C496 C498 1.395 . S
C496 C499 1.403 . S
H497 C503 0.930 . S
C498 H484 0.930 . S
C498 C496 1.395 . S
C498 C501 1.403 . S
C499 C496 1.403 . S
C499 C500 1.524 . S
C499 C503 1.400 . S
C500 H485 0.960 . S
C500 H486 0.960 . S
C500 H487 0.960 . S
C500 C499 1.524 . S
C501 C498 1.403 . S
C501 C502 1.392 . S
C501 C505 1.495 . S
C502 C501 1.392 . S
C502 C503 1.385 . S
C502 C504 1.478 . S
C503 H497 0.930 . S
C503 C499 1.400 . S
C503 C502 1.385 . S
C504 C502 1.478 . S
C504 C506 1.381 . S
C504 C510 1.383 . S
C505 C501 1.495 . S
C505 H511 0.959 . S
C505 H512 0.961 . S
C505 H513 0.960 . S
C506 C504 1.381 . S
C506 C507 1.394 . S
C506 H514 0.930 . S
C507 C506 1.394 . S
C507 C508 1.383 . S
C507 H515 0.929 . S
C508 C507 1.383 . S
C508 C509 1.377 . S
C509 H493 0.930 . S
C509 C508 1.377 . S
C509 C510 1.379 . S
C510 H494 0.931 . S
C510 C504 1.383 . S
C510 C509 1.379 . S
H511 C505 0.959 . S
H512 C505 0.961 . S
H513 C505 0.960 . S
H514 C506 0.930 . S
H515 C507 0.929 . S
H516 C524 0.929 . S
H517 C526 0.930 . S
H518 C528 0.930 . S
H519 C531 0.929 . S
H520 C534 0.930 . S
H521 C536 0.960 . S
H522 C536 0.960 . S
H523 C536 0.960 . S
C524 H516 0.929 . S
C524 C525 1.377 . S
C524 C526 1.384 . S
C525 C524 1.377 . S
C525 C531 1.390 . S
C526 H517 0.930 . S
C526 C524 1.384 . S
C526 C527 1.372 . S
C527 C526 1.372 . S
C527 C528 1.400 . S
C527 C532 1.490 . S
C528 H518 0.930 . S
C528 C527 1.400 . S
C528 C531 1.386 . S
H529 C545 0.930 . S
H530 C546 0.931 . S
C531 H519 0.929 . S
C531 C525 1.390 . S
C531 C528 1.386 . S
C532 C527 1.490 . S
C532 C534 1.395 1_556 S
C532 C535 1.403 . S
H533 C539 0.930 . S
C534 H520 0.930 . S
C534 C532 1.395 1_554 S
C534 C537 1.403 . S
C535 C532 1.403 . S
C535 C536 1.524 . S
C535 C539 1.400 . S
C536 H521 0.960 . S
C536 H522 0.960 . S
C536 H523 0.960 . S
C536 C535 1.524 . S
C537 C534 1.403 . S
C537 C538 1.392 . S
C537 C541 1.495 . S
C538 C537 1.392 . S
C538 C539 1.385 1_554 S
C538 C540 1.478 . S
C539 H533 0.930 . S
C539 C535 1.400 . S
C539 C538 1.385 1_556 S
C540 C538 1.478 . S
C540 C542 1.381 . S
C540 C546 1.383 . S
C541 C537 1.495 . S
C541 H547 0.959 . S
C541 H548 0.961 . S
C541 H549 0.960 . S
C542 C540 1.381 . S
C542 C543 1.394 . S
C542 H550 0.930 . S
C543 C542 1.394 . S
C543 C544 1.383 . S
C543 H551 0.929 . S
C544 C543 1.383 . S
C544 C545 1.377 . S
C545 H529 0.930 . S
C545 C544 1.377 . S
C545 C546 1.379 . S
C546 H530 0.931 . S
C546 C540 1.383 . S
C546 C545 1.379 . S
H547 C541 0.959 . S
H548 C541 0.961 . S
H549 C541 0.960 . S
H550 C542 0.930 . S
H551 C543 0.929 . S
H552 C560 0.929 . S
H553 C562 0.930 . S
H554 C564 0.930 . S
H555 C567 0.929 . S
H556 C570 0.930 . S
H557 C572 0.960 . S
H558 C572 0.960 . S
H559 C572 0.960 . S
C560 H552 0.929 . S
C560 C561 1.377 . S
C560 C562 1.384 . S
C561 C560 1.377 . S
C561 C567 1.390 . S
C562 H553 0.930 . S
C562 C560 1.384 . S
C562 C563 1.372 . S
C563 C562 1.372 . S
C563 C564 1.400 . S
C563 C568 1.490 . S
C564 H554 0.930 . S
C564 C563 1.400 . S
C564 C567 1.386 . S
H565 C581 0.930 . S
H566 C582 0.931 . S
C567 H555 0.929 . S
C567 C561 1.390 . S
C567 C564 1.386 . S
C568 C563 1.490 . S
C568 C570 1.395 . S
C568 C571 1.403 . S
H569 C575 0.930 . S
C570 H556 0.930 . S
C570 C568 1.395 . S
C570 C573 1.403 . S
C571 C568 1.403 . S
C571 C572 1.524 . S
C571 C575 1.400 . S
C572 H557 0.960 . S
C572 H558 0.960 . S
C572 H559 0.960 . S
C572 C571 1.524 . S
C573 C570 1.403 . S
C573 C574 1.392 . S
C573 C577 1.495 . S
C574 C573 1.392 . S
C574 C575 1.385 . S
C574 C576 1.478 . S
C575 H569 0.930 . S
C575 C571 1.400 . S
C575 C574 1.385 . S
C576 C574 1.478 . S
C576 C578 1.381 . S
C576 C582 1.383 . S
C577 C573 1.495 . S
C577 H583 0.959 . S
C577 H584 0.961 . S
C577 H585 0.960 . S
C578 C576 1.381 . S
C578 C579 1.394 . S
C578 H586 0.930 . S
C579 C578 1.394 . S
C579 C580 1.383 . S
C579 H587 0.929 . S
C580 C579 1.383 . S
C580 C581 1.377 . S
C581 H565 0.930 . S
C581 C580 1.377 . S
C581 C582 1.379 . S
C582 H566 0.931 . S
C582 C576 1.383 . S
C582 C581 1.379 . S
H583 C577 0.959 . S
H584 C577 0.961 . S
H585 C577 0.960 . S
H586 C578 0.930 . S
H587 C579 0.929 . S
H588 C596 0.929 . S
H589 C598 0.930 . S
H590 C600 0.930 . S
H591 C603 0.929 . S
H592 C606 0.930 . S
H593 C608 0.960 . S
H594 C608 0.960 . S
H595 C608 0.960 . S
C596 H588 0.929 . S
C596 C597 1.377 . S
C596 C598 1.384 . S
C597 C596 1.377 . S
C597 C603 1.390 . S
C598 H589 0.930 . S
C598 C596 1.384 . S
C598 C599 1.372 . S
C599 C598 1.372 . S
C599 C600 1.400 . S
C599 C604 1.490 . S
C600 H590 0.930 . S
C600 C599 1.400 . S
C600 C603 1.386 . S
H601 C617 0.930 . S
H602 C618 0.931 . S
C603 H591 0.929 . S
C603 C597 1.390 . S
C603 C600 1.386 . S
C604 C599 1.490 . S
C604 C606 1.395 . S
C604 C607 1.403 . S
H605 C611 0.930 . S
C606 H592 0.930 . S
C606 C604 1.395 . S
C606 C609 1.403 . S
C607 C604 1.403 . S
C607 C608 1.524 . S
C607 C611 1.400 . S
C608 H593 0.960 . S
C608 H594 0.960 . S
C608 H595 0.960 . S
C608 C607 1.524 . S
C609 C606 1.403 . S
C609 C610 1.392 . S
C609 C613 1.495 . S
C610 C609 1.392 . S
C610 C611 1.385 . S
C610 C612 1.478 . S
C611 H605 0.930 . S
C611 C607 1.400 . S
C611 C610 1.385 . S
C612 C610 1.478 . S
C612 C614 1.381 . S
C612 C618 1.383 . S
C613 C609 1.495 . S
C613 H619 0.959 . S
C613 H620 0.961 . S
C613 H621 0.960 . S
C614 C612 1.381 . S
C614 C615 1.394 . S
C614 H622 0.930 . S
C615 C614 1.394 . S
C615 C616 1.383 . S
C615 H623 0.929 . S
C616 C615 1.383 . S
C616 C617 1.377 . S
C617 H601 0.930 . S
C617 C616 1.377 . S
C617 C618 1.379 . S
C618 H602 0.931 . S
C618 C612 1.383 . S
C618 C617 1.379 . S
H619 C613 0.959 . S
H620 C613 0.961 . S
H621 C613 0.960 . S
H622 C614 0.930 . S
H623 C615 0.929 . S
H624 C632 0.929 . S
H625 C634 0.930 . S
H626 C636 0.930 . S
H627 C639 0.929 . S
H628 C642 0.930 . S
H629 C644 0.960 . S
H630 C644 0.960 . S
H631 C644 0.960 . S
C632 H624 0.929 . S
C632 C633 1.377 . S
C632 C634 1.384 . S
C633 C632 1.377 . S
C633 C639 1.390 . S
C634 H625 0.930 . S
C634 C632 1.384 . S
C634 C635 1.372 . S
C635 C634 1.372 . S
C635 C636 1.400 . S
C635 C640 1.490 . S
C636 H626 0.930 . S
C636 C635 1.400 . S
C636 C639 1.386 . S
H637 C653 0.930 . S
H638 C654 0.931 . S
C639 H627 0.929 . S
C639 C633 1.390 . S
C639 C636 1.386 . S
C640 C635 1.490 . S
C640 C642 1.395 . S
C640 C643 1.403 . S
H641 C647 0.930 . S
C642 H628 0.930 . S
C642 C640 1.395 . S
C642 C645 1.403 . S
C643 C640 1.403 . S
C643 C644 1.524 . S
C643 C647 1.400 . S
C644 H629 0.960 . S
C644 H630 0.960 . S
C644 H631 0.960 . S
C644 C643 1.524 . S
C645 C642 1.403 . S
C645 C646 1.392 . S
C645 C649 1.495 . S
C646 C645 1.392 . S
C646 C647 1.385 . S
C646 C648 1.478 . S
C647 H641 0.930 . S
C647 C643 1.400 . S
C647 C646 1.385 . S
C648 C646 1.478 . S
C648 C650 1.381 . S
C648 C654 1.383 . S
C649 C645 1.495 . S
C649 H655 0.959 . S
C649 H656 0.961 . S
C649 H657 0.960 . S
C650 C648 1.381 . S
C650 C651 1.394 . S
C650 H658 0.930 . S
C651 C650 1.394 . S
C651 C652 1.383 . S
C651 H659 0.929 . S
C652 C651 1.383 . S
C652 C653 1.377 . S
C653 H637 0.930 . S
C653 C652 1.377 . S
C653 C654 1.379 . S
C654 H638 0.931 . S
C654 C648 1.383 . S
C654 C653 1.379 . S
H655 C649 0.959 . S
H656 C649 0.961 . S
H657 C649 0.960 . S
H658 C650 0.930 . S
H659 C651 0.929 . S
H660 C668 0.929 . S
H661 C670 0.930 . S
H662 C672 0.930 . S
H663 C675 0.929 . S
H664 C678 0.930 . S
H665 C680 0.960 . S
H666 C680 0.960 . S
H667 C680 0.960 . S
C668 H660 0.929 . S
C668 C669 1.377 . S
C668 C670 1.384 . S
C669 C668 1.377 . S
C669 C675 1.390 . S
C670 H661 0.930 . S
C670 C668 1.384 . S
C670 C671 1.372 . S
C671 C670 1.372 . S
C671 C672 1.400 . S
C671 C676 1.490 . S
C672 H662 0.930 . S
C672 C671 1.400 . S
C672 C675 1.386 . S
H673 C689 0.930 . S
H674 C690 0.931 . S
C675 H663 0.929 . S
C675 C669 1.390 . S
C675 C672 1.386 . S
C676 C671 1.490 . S
C676 C678 1.395 . S
C676 C679 1.403 . S
H677 C683 0.930 . S
C678 H664 0.930 . S
C678 C676 1.395 . S
C678 C681 1.403 . S
C679 C676 1.403 . S
C679 C680 1.524 . S
C679 C683 1.400 . S
C680 H665 0.960 . S
C680 H666 0.960 . S
C680 H667 0.960 . S
C680 C679 1.524 . S
C681 C678 1.403 . S
C681 C682 1.392 . S
C681 C685 1.495 . S
C682 C681 1.392 . S
C682 C683 1.385 . S
C682 C684 1.478 . S
C683 H677 0.930 . S
C683 C679 1.400 . S
C683 C682 1.385 . S
C684 C682 1.478 . S
C684 C686 1.381 . S
C684 C690 1.383 . S
C685 C681 1.495 . S
C685 H691 0.959 . S
C685 H692 0.961 . S
C685 H693 0.960 . S
C686 C684 1.381 . S
C686 C687 1.394 . S
C686 H694 0.930 . S
C687 C686 1.394 . S
C687 C688 1.383 . S
C687 H695 0.929 . S
C688 C687 1.383 . S
C688 C689 1.377 . S
C689 H673 0.930 . S
C689 C688 1.377 . S
C689 C690 1.379 . S
C690 H674 0.931 . S
C690 C684 1.383 . S
C690 C689 1.379 . S
H691 C685 0.959 . S
H692 C685 0.961 . S
H693 C685 0.960 . S
H694 C686 0.930 . S
H695 C687 0.929 . S
H696 C704 0.929 . S
H697 C706 0.930 1_554 S
H698 C708 0.930 . S
H699 C711 0.929 . S
H700 C714 0.930 . S
H701 C716 0.960 . S
H702 C716 0.960 . S
H703 C716 0.960 . S
C704 H696 0.929 . S
C704 C705 1.377 . S
C704 C706 1.384 . S
C705 C704 1.377 . S
C705 C711 1.390 . S
C706 H697 0.930 1_556 S
C706 C704 1.384 . S
C706 C707 1.372 . S
C707 C706 1.372 . S
C707 C708 1.400 . S
C707 C712 1.490 . S
C708 H698 0.930 . S
C708 C707 1.400 . S
C708 C711 1.386 . S
H709 C725 0.930 . S
H710 C726 0.931 . S
C711 H699 0.929 . S
C711 C705 1.390 . S
C711 C708 1.386 . S
C712 C707 1.490 . S
C712 C714 1.395 1_556 S
C712 C715 1.403 . S
H713 C719 0.930 . S
C714 H700 0.930 . S
C714 C712 1.395 1_554 S
C714 C717 1.403 . S
C715 C712 1.403 . S
C715 C716 1.524 . S
C715 C719 1.400 . S
C716 H701 0.960 . S
C716 H702 0.960 . S
C716 H703 0.960 . S
C716 C715 1.524 . S
C717 C714 1.403 . S
C717 C718 1.392 . S
C717 C721 1.495 . S
C718 C717 1.392 . S
C718 C719 1.385 1_554 S
C718 C720 1.478 . S
C719 H713 0.930 . S
C719 C715 1.400 . S
C719 C718 1.385 1_556 S
C720 C718 1.478 . S
C720 C722 1.381 . S
C720 C726 1.383 . S
C721 C717 1.495 . S
C721 H727 0.959 . S
C721 H728 0.961 . S
C721 H729 0.960 . S
C722 C720 1.381 . S
C722 C723 1.394 . S
C722 H730 0.930 . S
C723 C722 1.394 . S
C723 C724 1.383 . S
C723 H731 0.929 . S
C724 C723 1.383 . S
C724 C725 1.377 . S
C725 H709 0.930 . S
C725 C724 1.377 . S
C725 C726 1.379 . S
C726 H710 0.931 . S
C726 C720 1.383 . S
C726 C725 1.379 . S
H727 C721 0.959 . S
H728 C721 0.961 . S
H729 C721 0.960 . S
H730 C722 0.930 . S
H731 C723 0.929 . S
H732 C740 0.929 . S
H733 C742 0.930 . S
H734 C744 0.930 . S
H735 C747 0.929 . S
H736 C750 0.930 . S
H737 C752 0.960 . S
H738 C752 0.960 . S
H739 C752 0.960 . S
C740 H732 0.929 . S
C740 C741 1.377 . S
C740 C742 1.384 . S
C741 C740 1.377 . S
C741 C747 1.390 . S
C742 H733 0.930 . S
C742 C740 1.384 . S
C742 C743 1.372 . S
C743 C742 1.372 . S
C743 C744 1.400 . S
C743 C748 1.490 . S
C744 H734 0.930 . S
C744 C743 1.400 . S
C744 C747 1.386 . S
H745 C761 0.930 . S
H746 C762 0.931 . S
C747 H735 0.929 . S
C747 C741 1.390 . S
C747 C744 1.386 . S
C748 C743 1.490 . S
C748 C750 1.395 . S
C748 C751 1.403 . S
H749 C755 0.930 . S
C750 H736 0.930 . S
C750 C748 1.395 . S
C750 C753 1.403 . S
C751 C748 1.403 . S
C751 C752 1.524 . S
C751 C755 1.400 . S
C752 H737 0.960 . S
C752 H738 0.960 . S
C752 H739 0.960 . S
C752 C751 1.524 . S
C753 C750 1.403 . S
C753 C754 1.392 . S
C753 C757 1.495 . S
C754 C753 1.392 . S
C754 C755 1.385 . S
C754 C756 1.478 . S
C755 H749 0.930 . S
C755 C751 1.400 . S
C755 C754 1.385 . S
C756 C754 1.478 . S
C756 C758 1.381 . S
C756 C762 1.383 . S
C757 C753 1.495 . S
C757 H763 0.959 . S
C757 H764 0.961 . S
C757 H765 0.960 . S
C758 C756 1.381 . S
C758 C759 1.394 . S
C758 H766 0.930 . S
C759 C758 1.394 . S
C759 C760 1.383 . S
C759 H767 0.929 . S
C760 C759 1.383 . S
C760 C761 1.377 . S
C761 H745 0.930 . S
C761 C760 1.377 . S
C761 C762 1.379 . S
C762 H746 0.931 . S
C762 C756 1.383 . S
C762 C761 1.379 . S
H763 C757 0.959 . S
H764 C757 0.961 . S
H765 C757 0.960 . S
H766 C758 0.930 . S
H767 C759 0.929 . S
H768 C776 0.929 . S
H769 C778 0.930 . S
H770 C780 0.930 . S
H771 C783 0.929 . S
H772 C786 0.930 . S
H773 C788 0.960 . S
H774 C788 0.960 . S
H775 C788 0.960 . S
C776 H768 0.929 . S
C776 C777 1.377 . S
C776 C778 1.384 . S
C777 C776 1.377 . S
C777 C783 1.390 . S
C778 H769 0.930 . S
C778 C776 1.384 . S
C778 C779 1.372 . S
C779 C778 1.372 . S
C779 C780 1.400 . S
C779 C784 1.490 . S
C780 H770 0.930 . S
C780 C779 1.400 . S
C780 C783 1.386 . S
H781 C797 0.930 . S
H782 C798 0.931 . S
C783 H771 0.929 . S
C783 C777 1.390 . S
C783 C780 1.386 . S
C784 C779 1.490 . S
C784 C786 1.395 . S
C784 C787 1.403 . S
H785 C791 0.930 . S
C786 H772 0.930 . S
C786 C784 1.395 . S
C786 C789 1.403 . S
C787 C784 1.403 . S
C787 C788 1.524 . S
C787 C791 1.400 . S
C788 H773 0.960 . S
C788 H774 0.960 . S
C788 H775 0.960 . S
C788 C787 1.524 . S
C789 C786 1.403 . S
C789 C790 1.392 . S
C789 C793 1.495 . S
C790 C789 1.392 . S
C790 C791 1.385 . S
C790 C792 1.478 . S
C791 H785 0.930 . S
C791 C787 1.400 . S
C791 C790 1.385 . S
C792 C790 1.478 . S
C792 C794 1.381 . S
C792 C798 1.383 . S
C793 C789 1.495 . S
C793 H799 0.959 . S
C793 H800 0.961 . S
C793 H801 0.960 . S
C794 C792 1.381 . S
C794 C795 1.394 . S
C794 H802 0.930 . S
C795 C794 1.394 . S
C795 C796 1.383 . S
C795 H803 0.929 . S
C796 C795 1.383 . S
C796 C797 1.377 . S
C797 H781 0.930 . S
C797 C796 1.377 . S
C797 C798 1.379 . S
C798 H782 0.931 . S
C798 C792 1.383 . S
C798 C797 1.379 . S
H799 C793 0.959 . S
H800 C793 0.961 . S
H801 C793 0.960 . S
H802 C794 0.930 . S
H803 C795 0.929 . S
H804 C812 0.929 . S
H805 C814 0.930 . S
H806 C816 0.930 1_556 S
H807 C819 0.929 . S
H808 C822 0.930 . S
H809 C824 0.960 . S
H810 C824 0.960 . S
H811 C824 0.960 . S
C812 H804 0.929 . S
C812 C813 1.377 . S
C812 C814 1.384 . S
C813 C812 1.377 . S
C813 C819 1.390 . S
C814 H805 0.930 . S
C814 C812 1.384 . S
C814 C815 1.372 . S
C815 C814 1.372 . S
C815 C816 1.400 . S
C815 C820 1.490 . S
C816 H806 0.930 1_554 S
C816 C815 1.400 . S
C816 C819 1.386 . S
H817 C833 0.930 . S
H818 C834 0.931 . S
C819 H807 0.929 . S
C819 C813 1.390 . S
C819 C816 1.386 . S
C820 C815 1.490 . S
C820 C822 1.395 1_554 S
C820 C823 1.403 . S
H821 C827 0.930 . S
C822 H808 0.930 . S
C822 C820 1.395 1_556 S
C822 C825 1.403 . S
C823 C820 1.403 . S
C823 C824 1.524 . S
C823 C827 1.400 . S
C824 H809 0.960 . S
C824 H810 0.960 . S
C824 H811 0.960 . S
C824 C823 1.524 . S
C825 C822 1.403 . S
C825 C826 1.392 . S
C825 C829 1.495 . S
C826 C825 1.392 . S
C826 C827 1.385 1_556 S
C826 C828 1.478 . S
C827 H821 0.930 . S
C827 C823 1.400 . S
C827 C826 1.385 1_554 S
C828 C826 1.478 . S
C828 C830 1.381 . S
C828 C834 1.383 . S
C829 C825 1.495 . S
C829 H835 0.959 . S
C829 H836 0.961 . S
C829 H837 0.960 . S
C830 C828 1.381 . S
C830 C831 1.394 . S
C830 H838 0.930 1_556 S
C831 C830 1.394 . S
C831 C832 1.383 . S
C831 H839 0.929 . S
C832 C831 1.383 . S
C832 C833 1.377 . S
C833 H817 0.930 . S
C833 C832 1.377 . S
C833 C834 1.379 . S
C834 H818 0.931 . S
C834 C828 1.383 . S
C834 C833 1.379 . S
H835 C829 0.959 . S
H836 C829 0.961 . S
H837 C829 0.960 . S
H838 C830 0.930 1_554 S
H839 C831 0.929 . S
H840 C848 0.929 . S
H841 C850 0.930 . S
H842 C852 0.930 . S
H843 C855 0.929 . S
H844 C858 0.930 . S
H845 C860 0.960 . S
H846 C860 0.960 . S
H847 C860 0.960 . S
C848 H840 0.929 . S
C848 C849 1.377 . S
C848 C850 1.384 . S
C849 C848 1.377 . S
C849 C855 1.390 . S
C850 H841 0.930 . S
C850 C848 1.384 . S
C850 C851 1.372 . S
C851 C850 1.372 . S
C851 C852 1.400 . S
C851 C856 1.490 . S
C852 H842 0.930 . S
C852 C851 1.400 . S
C852 C855 1.386 . S
H853 C869 0.930 . S
H854 C870 0.931 . S
C855 H843 0.929 . S
C855 C849 1.390 . S
C855 C852 1.386 . S
C856 C851 1.490 . S
C856 C858 1.395 . S
C856 C859 1.403 . S
H857 C863 0.930 . S
C858 H844 0.930 . S
C858 C856 1.395 . S
C858 C861 1.403 . S
C859 C856 1.403 . S
C859 C860 1.524 . S
C859 C863 1.400 . S
C860 H845 0.960 . S
C860 H846 0.960 . S
C860 H847 0.960 . S
C860 C859 1.524 . S
C861 C858 1.403 . S
C861 C862 1.392 . S
C861 C865 1.495 . S
C862 C861 1.392 . S
C862 C863 1.385 . S
C862 C864 1.478 . S
C863 H857 0.930 . S
C863 C859 1.400 . S
C863 C862 1.385 . S
C864 C862 1.478 . S
C864 C866 1.381 . S
C864 C870 1.383 . S
C865 C861 1.495 . S
C865 H871 0.959 . S
C865 H872 0.961 . S
C865 H873 0.960 . S
C866 C864 1.381 . S
C866 C867 1.394 . S
C866 H874 0.930 . S
C867 C866 1.394 . S
C867 C868 1.383 . S
C867 H875 0.929 . S
C868 C867 1.383 . S
C868 C869 1.377 . S
C869 H853 0.930 . S
C869 C868 1.377 . S
C869 C870 1.379 . S
C870 H854 0.931 . S
C870 C864 1.383 . S
C870 C869 1.379 . S
H871 C865 0.959 . S
H872 C865 0.961 . S
H873 C865 0.960 . S
H874 C866 0.930 . S
H875 C867 0.929 . S
H876 C884 0.929 . S
H877 C886 0.930 . S
H878 C888 0.930 . S
H879 C891 0.929 . S
H880 C894 0.930 . S
H881 C896 0.960 1_655 S
H882 C896 0.960 . S
H883 C896 0.960 . S
C884 H876 0.929 . S
C884 C885 1.377 . S
C884 C886 1.384 . S
C885 C884 1.377 . S
C885 C891 1.390 . S
C886 H877 0.930 . S
C886 C884 1.384 . S
C886 C887 1.372 . S
C887 C886 1.372 . S
C887 C888 1.400 . S
C887 C892 1.490 . S
C888 H878 0.930 . S
C888 C887 1.400 . S
C888 C891 1.386 . S
H889 C905 0.930 . S
H890 C906 0.931 . S
C891 H879 0.929 . S
C891 C885 1.390 . S
C891 C888 1.386 . S
C892 C887 1.490 . S
C892 C894 1.395 . S
C892 C895 1.403 . S
H893 C899 0.930 . S
C894 H880 0.930 . S
C894 C892 1.395 . S
C894 C897 1.403 1_455 S
C895 C892 1.403 . S
C895 C896 1.524 . S
C895 C899 1.400 1_455 S
C896 H881 0.960 1_455 S
C896 H882 0.960 . S
C896 H883 0.960 . S
C896 C895 1.524 . S
C897 C894 1.403 1_655 S
C897 C898 1.392 . S
C897 C901 1.495 . S
C898 C897 1.392 . S
C898 C899 1.385 . S
C898 C900 1.478 . S
C899 H893 0.930 . S
C899 C895 1.400 1_655 S
C899 C898 1.385 . S
C900 C898 1.478 . S
C900 C902 1.381 . S
C900 C906 1.383 . S
C901 C897 1.495 . S
C901 H907 0.959 1_655 S
C901 H908 0.961 . S
C901 H909 0.960 . S
C902 C900 1.381 . S
C902 C903 1.394 . S
C902 H910 0.930 . S
C903 C902 1.394 . S
C903 C904 1.383 . S
C903 H911 0.929 . S
C904 C903 1.383 . S
C904 C905 1.377 . S
C905 H889 0.930 . S
C905 C904 1.377 . S
C905 C906 1.379 . S
C906 H890 0.931 . S
C906 C900 1.383 . S
C906 C905 1.379 . S
H907 C901 0.959 1_455 S
H908 C901 0.961 . S
H909 C901 0.960 . S
H910 C902 0.930 . S
H911 C903 0.929 . S
H912 C920 0.929 . S
H913 C922 0.930 . S
H914 C924 0.930 . S
H915 C927 0.929 . S
H916 C930 0.930 . S
H917 C932 0.960 . S
H918 C932 0.960 . S
H919 C932 0.960 . S
C920 H912 0.929 . S
C920 C921 1.377 . S
C920 C922 1.384 . S
C921 C920 1.377 . S
C921 C927 1.390 . S
C922 H913 0.930 . S
C922 C920 1.384 . S
C922 C923 1.372 . S
C923 C922 1.372 . S
C923 C924 1.400 . S
C923 C928 1.490 . S
C924 H914 0.930 . S
C924 C923 1.400 . S
C924 C927 1.386 . S
H925 C941 0.930 . S
H926 C942 0.931 1_554 S
C927 H915 0.929 . S
C927 C921 1.390 . S
C927 C924 1.386 . S
C928 C923 1.490 . S
C928 C930 1.395 . S
C928 C931 1.403 1_554 S
H929 C935 0.930 . S
C930 H916 0.930 . S
C930 C928 1.395 . S
C930 C933 1.403 1_545 S
C931 C928 1.403 1_556 S
C931 C932 1.524 . S
C931 C935 1.400 1_545 S
C932 H917 0.960 . S
C932 H918 0.960 . S
C932 H919 0.960 . S
C932 C931 1.524 . S
C933 C930 1.403 1_565 S
C933 C934 1.392 1_554 S
C933 C937 1.495 . S
C934 C933 1.392 1_556 S
C934 C935 1.385 . S
C934 C936 1.478 . S
C935 H929 0.930 . S
C935 C931 1.400 1_565 S
C935 C934 1.385 . S
C936 C934 1.478 . S
C936 C938 1.381 . S
C936 C942 1.383 . S
C937 C933 1.495 . S
C937 H943 0.959 . S
C937 H944 0.961 . S
C937 H945 0.960 . S
C938 C936 1.381 . S
C938 C939 1.394 . S
C938 H946 0.930 . S
C939 C938 1.394 . S
C939 C940 1.383 . S
C939 H947 0.929 . S
C940 C939 1.383 . S
C940 C941 1.377 . S
C941 H925 0.930 . S
C941 C940 1.377 . S
C941 C942 1.379 . S
C942 H926 0.931 1_556 S
C942 C936 1.383 . S
C942 C941 1.379 . S
H943 C937 0.959 . S
H944 C937 0.961 . S
H945 C937 0.960 . S
H946 C938 0.930 . S
H947 C939 0.929 . S
H948 C956 0.929 . S
H949 C958 0.930 . S
H950 C960 0.930 . S
H951 C963 0.929 . S
H952 C966 0.930 . S
H953 C968 0.960 . S
H954 C968 0.960 . S
H955 C968 0.960 . S
C956 H948 0.929 . S
C956 C957 1.377 . S
C956 C958 1.384 . S
C957 C956 1.377 . S
C957 C963 1.390 . S
C958 H949 0.930 . S
C958 C956 1.384 . S
C958 C959 1.372 . S
C959 C958 1.372 . S
C959 C960 1.400 . S
C959 C964 1.490 . S
C960 H950 0.930 . S
C960 C959 1.400 . S
C960 C963 1.386 . S
H961 C977 0.930 . S
H962 C978 0.931 . S
C963 H951 0.929 . S
C963 C957 1.390 . S
C963 C960 1.386 . S
C964 C959 1.490 . S
C964 C966 1.395 . S
C964 C967 1.403 . S
H965 C971 0.930 . S
C966 H952 0.930 . S
C966 C964 1.395 . S
C966 C969 1.403 . S
C967 C964 1.403 . S
C967 C968 1.524 . S
C967 C971 1.400 . S
C968 H953 0.960 . S
C968 H954 0.960 . S
C968 H955 0.960 . S
C968 C967 1.524 . S
C969 C966 1.403 . S
C969 C970 1.392 . S
C969 C973 1.495 . S
C970 C969 1.392 . S
C970 C971 1.385 . S
C970 C972 1.478 . S
C971 H965 0.930 . S
C971 C967 1.400 . S
C971 C970 1.385 . S
C972 C970 1.478 . S
C972 C974 1.381 . S
C972 C978 1.383 . S
C973 C969 1.495 . S
C973 H979 0.959 . S
C973 H980 0.961 . S
C973 H981 0.960 . S
C974 C972 1.381 . S
C974 C975 1.394 . S
C974 H982 0.930 . S
C975 C974 1.394 . S
C975 C976 1.383 . S
C975 H983 0.929 . S
C976 C975 1.383 . S
C976 C977 1.377 . S
C977 H961 0.930 . S
C977 C976 1.377 . S
C977 C978 1.379 . S
C978 H962 0.931 . S
C978 C972 1.383 . S
C978 C977 1.379 . S
H979 C973 0.959 . S
H980 C973 0.961 . S
H981 C973 0.960 . S
H982 C974 0.930 . S
H983 C975 0.929 . S
H984 C992 0.929 . S
H985 C994 0.930 . S
H986 C996 0.930 . S
H987 C999 0.929 . S
H988 C1002 0.930 . S
H989 C1004 0.960 . S
H990 C1004 0.960 . S
H991 C1004 0.960 . S
C992 H984 0.929 . S
C992 C993 1.377 . S
C992 C994 1.384 . S
C993 C992 1.377 . S
C993 C999 1.390 . S
C994 H985 0.930 . S
C994 C992 1.384 . S
C994 C995 1.372 . S
C995 C994 1.372 . S
C995 C996 1.400 . S
C995 C1000 1.490 . S
C996 H986 0.930 . S
C996 C995 1.400 . S
C996 C999 1.386 . S
H997 C1013 0.930 . S
H998 C1014 0.931 . S
C999 H987 0.929 . S
C999 C993 1.390 . S
C999 C996 1.386 . S
C1000 C995 1.490 . S
C1000 C1002 1.395 . S
C1000 C1003 1.403 . S
H1001 C1007 0.930 . S
C1002 H988 0.930 . S
C1002 C1000 1.395 . S
C1002 C1005 1.403 1_455 S
C1003 C1000 1.403 . S
C1003 C1004 1.524 . S
C1003 C1007 1.400 1_455 S
C1004 H989 0.960 . S
C1004 H990 0.960 . S
C1004 H991 0.960 . S
C1004 C1003 1.524 . S
C1005 C1002 1.403 1_655 S
C1005 C1006 1.392 . S
C1005 C1009 1.495 . S
C1006 C1005 1.392 . S
C1006 C1007 1.385 . S
C1006 C1008 1.478 . S
C1007 H1001 0.930 . S
C1007 C1003 1.400 1_655 S
C1007 C1006 1.385 . S
C1008 C1006 1.478 . S
C1008 C1010 1.381 . S
C1008 C1014 1.383 . S
C1009 C1005 1.495 . S
C1009 H1015 0.959 . S
C1009 H1016 0.961 . S
C1009 H1017 0.960 . S
C1010 C1008 1.381 . S
C1010 C1011 1.394 . S
C1010 H1018 0.930 . S
C1011 C1010 1.394 . S
C1011 C1012 1.383 . S
C1011 H1019 0.929 . S
C1012 C1011 1.383 . S
C1012 C1013 1.377 . S
C1013 H997 0.930 . S
C1013 C1012 1.377 . S
C1013 C1014 1.379 . S
C1014 H998 0.931 . S
C1014 C1008 1.383 . S
C1014 C1013 1.379 . S
H1015 C1009 0.959 . S
H1016 C1009 0.961 . S
H1017 C1009 0.960 . S
H1018 C1010 0.930 . S
H1019 C1011 0.929 . S
H1020 C1028 0.929 . S
H1021 C1030 0.930 . S
H1022 C1032 0.930 . S
H1023 C1035 0.929 . S
H1024 C1038 0.930 . S
H1025 C1040 0.960 1_565 S
H1026 C1040 0.960 . S
H1027 C1040 0.960 . S
C1028 H1020 0.929 . S
C1028 C1029 1.377 . S
C1028 C1030 1.384 . S
C1029 C1028 1.377 . S
C1029 C1035 1.390 . S
C1030 H1021 0.930 . S
C1030 C1028 1.384 . S
C1030 C1031 1.372 . S
C1031 C1030 1.372 . S
C1031 C1032 1.400 . S
C1031 C1036 1.490 . S
C1032 H1022 0.930 . S
C1032 C1031 1.400 . S
C1032 C1035 1.386 . S
H1033 C1049 0.930 . S
H1034 C1050 0.931 . S
C1035 H1023 0.929 . S
C1035 C1029 1.390 . S
C1035 C1032 1.386 . S
C1036 C1031 1.490 . S
C1036 C1038 1.395 1_556 S
C1036 C1039 1.403 . S
H1037 C1043 0.930 . S
C1038 H1024 0.930 . S
C1038 C1036 1.395 1_554 S
C1038 C1041 1.352 1_545 S
C1039 C1036 1.403 . S
C1039 C1040 1.524 . S
C1039 C1043 1.400 1_545 S
C1040 H1025 0.960 1_545 S
C1040 H1026 0.960 . S
C1040 H1027 0.960 . S
C1040 C1039 1.524 . S
C1041 C1038 1.352 1_565 S
C1041 C1042 1.445 . S
C1041 C1045 1.496 . S
C1042 C1041 1.445 . S
C1042 C1043 1.385 1_554 S
C1042 C1044 1.478 . S
C1043 H1037 0.930 . S
C1043 C1039 1.400 1_565 S
C1043 C1042 1.385 1_556 S
C1044 C1042 1.478 . S
C1044 C1046 1.381 . S
C1044 C1050 1.383 . S
C1045 C1041 1.496 . S
C1045 H1051 0.959 1_565 S
C1045 H1052 0.961 . S
C1045 H1053 0.960 . S
C1046 C1044 1.381 . S
C1046 C1047 1.394 . S
C1046 H1054 0.930 . S
C1047 C1046 1.394 . S
C1047 C1048 1.383 . S
C1047 H1055 0.929 . S
C1048 C1047 1.383 . S
C1048 C1049 1.377 . S
C1049 H1033 0.930 . S
C1049 C1048 1.377 . S
C1049 C1050 1.379 . S
C1050 H1034 0.931 . S
C1050 C1044 1.383 . S
C1050 C1049 1.379 . S
H1051 C1045 0.959 1_545 S
H1052 C1045 0.961 . S
H1053 C1045 0.960 . S
H1054 C1046 0.930 . S
H1055 C1047 0.929 . S
H1056 C1064 0.929 . S
H1057 C1066 0.930 . S
H1058 C1068 0.930 . S
H1059 C1071 0.929 . S
H1060 C1074 0.930 . S
H1061 C1076 0.960 . S
H1062 C1076 0.960 . S
H1063 C1076 0.960 . S
C1064 H1056 0.929 . S
C1064 C1065 1.377 . S
C1064 C1066 1.384 . S
C1065 C1064 1.377 . S
C1065 C1071 1.390 . S
C1066 H1057 0.930 . S
C1066 C1064 1.384 . S
C1066 C1067 1.372 . S
C1067 C1066 1.372 . S
C1067 C1068 1.400 . S
C1067 C1072 1.490 . S
C1068 H1058 0.930 . S
C1068 C1067 1.400 . S
C1068 C1071 1.386 . S
H1069 C1085 0.930 . S
H1070 C1086 0.931 . S
C1071 H1059 0.929 . S
C1071 C1065 1.390 . S
C1071 C1068 1.386 . S
C1072 C1067 1.490 . S
C1072 C1074 1.395 . S
C1072 C1075 1.403 . S
H1073 C1079 0.930 . S
C1074 H1060 0.930 . S
C1074 C1072 1.395 . S
C1074 C1077 1.403 . S
C1075 C1072 1.403 . S
C1075 C1076 1.524 . S
C1075 C1079 1.400 . S
C1076 H1061 0.960 . S
C1076 H1062 0.960 . S
C1076 H1063 0.960 . S
C1076 C1075 1.524 . S
C1077 C1074 1.403 . S
C1077 C1078 1.392 . S
C1077 C1081 1.495 . S
C1078 C1077 1.392 . S
C1078 C1079 1.385 . S
C1078 C1080 1.478 . S
C1079 H1073 0.930 . S
C1079 C1075 1.400 . S
C1079 C1078 1.385 . S
C1080 C1078 1.478 . S
C1080 C1082 1.381 . S
C1080 C1086 1.383 . S
C1081 C1077 1.495 . S
C1081 H1087 0.959 . S
C1081 H1088 0.961 . S
C1081 H1089 0.960 . S
C1082 C1080 1.381 . S
C1082 C1083 1.394 . S
C1082 H1090 0.930 . S
C1083 C1082 1.394 . S
C1083 C1084 1.383 . S
C1083 H1091 0.929 . S
C1084 C1083 1.383 . S
C1084 C1085 1.377 . S
C1085 H1069 0.930 . S
C1085 C1084 1.377 . S
C1085 C1086 1.379 . S
C1086 H1070 0.931 . S
C1086 C1080 1.383 . S
C1086 C1085 1.379 . S
H1087 C1081 0.959 . S
H1088 C1081 0.961 . S
H1089 C1081 0.960 . S
H1090 C1082 0.930 . S
H1091 C1083 0.929 . S
H1092 C1100 0.929 . S
H1093 C1102 0.930 . S
H1094 C1104 0.930 . S
H1095 C1107 0.929 . S
H1096 C1110 0.930 . S
H1097 C1112 0.960 . S
H1098 C1112 0.960 . S
H1099 C1112 0.960 . S
C1100 H1092 0.929 . S
C1100 C1101 1.377 . S
C1100 C1102 1.384 . S
C1101 C1100 1.377 . S
C1101 C1107 1.390 . S
C1102 H1093 0.930 . S
C1102 C1100 1.384 . S
C1102 C1103 1.372 . S
C1103 C1102 1.372 . S
C1103 C1104 1.400 . S
C1103 C1108 1.490 . S
C1104 H1094 0.930 . S
C1104 C1103 1.400 . S
C1104 C1107 1.386 . S
H1105 C1121 0.930 . S
H1106 C1122 0.931 . S
C1107 H1095 0.929 . S
C1107 C1101 1.390 . S
C1107 C1104 1.386 . S
C1108 C1103 1.490 . S
C1108 C1110 1.395 . S
C1108 C1111 1.403 . S
H1109 C1115 0.930 . S
C1110 H1096 0.930 . S
C1110 C1108 1.395 . S
C1110 C1113 1.403 1_554 S
C1111 C1108 1.403 . S
C1111 C1112 1.524 . S
C1111 C1115 1.400 1_554 S
C1112 H1097 0.960 . S
C1112 H1098 0.960 . S
C1112 H1099 0.960 . S
C1112 C1111 1.524 . S
C1113 C1110 1.403 1_556 S
C1113 C1114 1.392 . S
C1113 C1117 1.495 . S
C1114 C1113 1.392 . S
C1114 C1115 1.385 . S
C1114 C1116 1.478 . S
C1115 H1109 0.930 . S
C1115 C1111 1.400 1_556 S
C1115 C1114 1.385 . S
C1116 C1114 1.478 . S
C1116 C1118 1.381 . S
C1116 C1122 1.383 . S
C1117 C1113 1.495 . S
C1117 H1123 0.959 . S
C1117 H1124 0.961 . S
C1117 H1125 0.960 . S
C1118 C1116 1.381 . S
C1118 C1119 1.394 . S
C1118 H1126 0.930 . S
C1119 C1118 1.394 . S
C1119 C1120 1.383 . S
C1119 H1127 0.929 . S
C1120 C1119 1.383 . S
C1120 C1121 1.377 . S
C1121 H1105 0.930 . S
C1121 C1120 1.377 . S
C1121 C1122 1.379 . S
C1122 H1106 0.931 . S
C1122 C1116 1.383 . S
C1122 C1121 1.379 . S
H1123 C1117 0.959 . S
H1124 C1117 0.961 . S
H1125 C1117 0.960 . S
H1126 C1118 0.930 . S
H1127 C1119 0.929 . S
H1128 C1136 0.929 . S
H1129 C1138 0.930 . S
H1130 C1140 0.930 . S
H1131 C1143 0.929 . S
H1132 C1146 0.930 . S
H1133 C1148 0.960 . S
H1134 C1148 0.960 . S
H1135 C1148 0.960 . S
C1136 H1128 0.929 . S
C1136 C1137 1.377 . S
C1136 C1138 1.384 . S
C1137 C1136 1.377 . S
C1137 C1143 1.390 . S
C1138 H1129 0.930 . S
C1138 C1136 1.384 . S
C1138 C1139 1.372 . S
C1139 C1138 1.372 . S
C1139 C1140 1.400 . S
C1139 C1144 1.490 . S
C1140 H1130 0.930 . S
C1140 C1139 1.400 . S
C1140 C1143 1.386 . S
H1141 C1157 0.930 . S
H1142 C1158 0.931 . S
C1143 H1131 0.929 . S
C1143 C1137 1.390 . S
C1143 C1140 1.386 . S
C1144 C1139 1.490 . S
C1144 C1146 1.395 . S
C1144 C1147 1.403 . S
H1145 C1151 0.930 . S
C1146 H1132 0.930 . S
C1146 C1144 1.395 . S
C1146 C1149 1.403 . S
C1147 C1144 1.403 . S
C1147 C1148 1.524 . S
C1147 C1151 1.400 . S
C1148 H1133 0.960 . S
C1148 H1134 0.960 . S
C1148 H1135 0.960 . S
C1148 C1147 1.524 . S
C1149 C1146 1.403 . S
C1149 C1150 1.392 . S
C1149 C1153 1.495 . S
C1150 C1149 1.392 . S
C1150 C1151 1.385 . S
C1150 C1152 1.478 . S
C1151 H1145 0.930 . S
C1151 C1147 1.400 . S
C1151 C1150 1.385 . S
C1152 C1150 1.478 . S
C1152 C1154 1.381 . S
C1152 C1158 1.383 . S
C1153 C1149 1.495 . S
C1153 H1159 0.959 . S
C1153 H1160 0.961 . S
C1153 H1161 0.960 . S
C1154 C1152 1.381 . S
C1154 C1155 1.394 . S
C1154 H1162 0.930 . S
C1155 C1154 1.394 . S
C1155 C1156 1.383 . S
C1155 H1163 0.929 . S
C1156 C1155 1.383 . S
C1156 C1157 1.377 . S
C1157 H1141 0.930 . S
C1157 C1156 1.377 . S
C1157 C1158 1.379 . S
C1158 H1142 0.931 . S
C1158 C1152 1.383 . S
C1158 C1157 1.379 . S
H1159 C1153 0.959 . S
H1160 C1153 0.961 . S
H1161 C1153 0.960 . S
H1162 C1154 0.930 . S
H1163 C1155 0.929 . S
H1164 C1172 0.929 . S
H1165 C1174 0.930 . S
H1166 C1176 0.930 . S
H1167 C1179 0.929 . S
H1168 C1182 0.930 . S
H1169 C1184 0.960 . S
H1170 C1184 0.960 . S
H1171 C1184 0.960 . S
C1172 H1164 0.929 . S
C1172 C1173 1.377 . S
C1172 C1174 1.384 . S
C1173 C1172 1.377 . S
C1173 C1179 1.390 . S
C1174 H1165 0.930 . S
C1174 C1172 1.384 . S
C1174 C1175 1.372 . S
C1175 C1174 1.372 . S
C1175 C1176 1.400 . S
C1175 C1180 1.490 . S
C1176 H1166 0.930 . S
C1176 C1175 1.400 . S
C1176 C1179 1.386 . S
H1177 C1193 0.930 . S
H1178 C1194 0.931 . S
C1179 H1167 0.929 . S
C1179 C1173 1.390 . S
C1179 C1176 1.386 . S
C1180 C1175 1.490 . S
C1180 C1182 1.395 . S
C1180 C1183 1.403 . S
H1181 C1187 0.930 . S
C1182 H1168 0.930 . S
C1182 C1180 1.395 . S
C1182 C1185 1.403 . S
C1183 C1180 1.403 . S
C1183 C1184 1.524 . S
C1183 C1187 1.400 . S
C1184 H1169 0.960 . S
C1184 H1170 0.960 . S
C1184 H1171 0.960 . S
C1184 C1183 1.524 . S
C1185 C1182 1.403 . S
C1185 C1186 1.392 . S
C1185 C1189 1.495 . S
C1186 C1185 1.392 . S
C1186 C1187 1.385 . S
C1186 C1188 1.478 . S
C1187 H1181 0.930 . S
C1187 C1183 1.400 . S
C1187 C1186 1.385 . S
C1188 C1186 1.478 . S
C1188 C1190 1.381 . S
C1188 C1194 1.383 . S
C1189 C1185 1.495 . S
C1189 H1195 0.959 . S
C1189 H1196 0.961 . S
C1189 H1197 0.960 . S
C1190 C1188 1.381 . S
C1190 C1191 1.394 . S
C1190 H1198 0.930 . S
C1191 C1190 1.394 . S
C1191 C1192 1.383 . S
C1191 H1199 0.929 . S
C1192 C1191 1.383 . S
C1192 C1193 1.377 . S
C1193 H1177 0.930 . S
C1193 C1192 1.377 . S
C1193 C1194 1.379 . S
C1194 H1178 0.931 . S
C1194 C1188 1.383 . S
C1194 C1193 1.379 . S
H1195 C1189 0.959 . S
H1196 C1189 0.961 . S
H1197 C1189 0.960 . S
H1198 C1190 0.930 . S
H1199 C1191 0.929 . S
H1200 C1208 0.929 . S
H1201 C1210 0.930 . S
H1202 C1212 0.930 . S
H1203 C1215 0.929 . S
H1204 C1218 0.930 . S
H1205 C1220 0.960 . S
H1206 C1220 0.960 . S
H1207 C1220 0.960 . S
C1208 H1200 0.929 . S
C1208 C1209 1.377 . S
C1208 C1210 1.384 . S
C1209 C1208 1.377 . S
C1209 C1215 1.390 . S
C1210 H1201 0.930 . S
C1210 C1208 1.384 . S
C1210 C1211 1.372 . S
C1211 C1210 1.372 . S
C1211 C1212 1.400 . S
C1211 C1216 1.490 . S
C1212 H1202 0.930 . S
C1212 C1211 1.400 . S
C1212 C1215 1.386 . S
H1213 C1229 0.930 . S
H1214 C1230 0.931 . S
C1215 H1203 0.929 . S
C1215 C1209 1.390 . S
C1215 C1212 1.386 . S
C1216 C1211 1.490 . S
C1216 C1218 1.395 . S
C1216 C1219 1.403 . S
H1217 C1223 0.930 . S
C1218 H1204 0.930 . S
C1218 C1216 1.395 . S
C1218 C1221 1.403 1_554 S
C1219 C1216 1.403 . S
C1219 C1220 1.524 . S
C1219 C1223 1.400 1_554 S
C1220 H1205 0.960 . S
C1220 H1206 0.960 . S
C1220 H1207 0.960 . S
C1220 C1219 1.524 . S
C1221 C1218 1.403 1_556 S
C1221 C1222 1.392 . S
C1221 C1225 1.495 . S
C1222 C1221 1.392 . S
C1222 C1223 1.385 . S
C1222 C1224 1.478 . S
C1223 H1217 0.930 . S
C1223 C1219 1.400 1_556 S
C1223 C1222 1.385 . S
C1224 C1222 1.478 . S
C1224 C1226 1.381 . S
C1224 C1230 1.383 . S
C1225 C1221 1.495 . S
C1225 H1231 0.959 . S
C1225 H1232 0.961 . S
C1225 H1233 0.960 . S
C1226 C1224 1.381 . S
C1226 C1227 1.394 . S
C1226 H1234 0.930 . S
C1227 C1226 1.394 . S
C1227 C1228 1.383 . S
C1227 H1235 0.929 . S
C1228 C1227 1.383 . S
C1228 C1229 1.377 . S
C1229 H1213 0.930 . S
C1229 C1228 1.377 . S
C1229 C1230 1.379 . S
C1230 H1214 0.931 . S
C1230 C1224 1.383 . S
C1230 C1229 1.379 . S
H1231 C1225 0.959 . S
H1232 C1225 0.961 . S
H1233 C1225 0.960 . S
H1234 C1226 0.930 . S
H1235 C1227 0.929 . S
H1236 C1244 0.929 . S
H1237 C1246 0.930 . S
H1238 C1248 0.930 . S
H1239 C1251 0.929 . S
H1240 C1254 0.930 . S
H1241 C1256 0.960 . S
H1242 C1256 0.960 . S
H1243 C1256 0.960 . S
C1244 H1236 0.929 . S
C1244 C1245 1.377 . S
C1244 C1246 1.384 . S
C1245 C1244 1.377 . S
C1245 C1251 1.390 . S
C1246 H1237 0.930 . S
C1246 C1244 1.384 . S
C1246 C1247 1.372 . S
C1247 C1246 1.372 . S
C1247 C1248 1.400 . S
C1247 C1252 1.490 . S
C1248 H1238 0.930 . S
C1248 C1247 1.400 . S
C1248 C1251 1.386 . S
H1249 C1265 0.930 . S
H1250 C1266 0.931 . S
C1251 H1239 0.929 . S
C1251 C1245 1.390 . S
C1251 C1248 1.386 . S
C1252 C1247 1.490 . S
C1252 C1254 1.395 . S
C1252 C1255 1.403 . S
H1253 C1259 0.930 . S
C1254 H1240 0.930 . S
C1254 C1252 1.395 . S
C1254 C1257 1.403 . S
C1255 C1252 1.403 . S
C1255 C1256 1.524 . S
C1255 C1259 1.400 . S
C1256 H1241 0.960 . S
C1256 H1242 0.960 . S
C1256 H1243 0.960 . S
C1256 C1255 1.524 . S
C1257 C1254 1.403 . S
C1257 C1258 1.392 . S
C1257 C1261 1.495 . S
C1258 C1257 1.392 . S
C1258 C1259 1.385 . S
C1258 C1260 1.478 . S
C1259 H1253 0.930 . S
C1259 C1255 1.400 . S
C1259 C1258 1.385 . S
C1260 C1258 1.478 . S
C1260 C1262 1.381 . S
C1260 C1266 1.383 . S
C1261 C1257 1.495 . S
C1261 H1267 0.959 . S
C1261 H1268 0.961 . S
C1261 H1269 0.960 . S
C1262 C1260 1.381 . S
C1262 C1263 1.394 . S
C1262 H1270 0.930 . S
C1263 C1262 1.394 . S
C1263 C1264 1.383 . S
C1263 H1271 0.929 . S
C1264 C1263 1.383 . S
C1264 C1265 1.377 . S
C1265 H1249 0.930 . S
C1265 C1264 1.377 . S
C1265 C1266 1.379 . S
C1266 H1250 0.931 . S
C1266 C1260 1.383 . S
C1266 C1265 1.379 . S
H1267 C1261 0.959 . S
H1268 C1261 0.961 . S
H1269 C1261 0.960 . S
H1270 C1262 0.930 . S
H1271 C1263 0.929 . S
H1272 C1280 0.929 . S
H1273 C1282 0.930 . S
H1274 C1284 0.930 . S
H1275 C1287 0.929 . S
H1276 C1290 0.930 . S
H1277 C1292 0.960 1_556 S
H1278 C1292 0.960 . S
H1279 C1292 0.960 . S
C1280 H1272 0.929 . S
C1280 C1281 1.377 . S
C1280 C1282 1.384 . S
C1281 C1280 1.377 . S
C1281 C1287 1.390 . S
C1282 H1273 0.930 . S
C1282 C1280 1.384 . S
C1282 C1283 1.372 . S
C1283 C1282 1.372 . S
C1283 C1284 1.400 . S
C1283 C1288 1.490 . S
C1284 H1274 0.930 . S
C1284 C1283 1.400 . S
C1284 C1287 1.386 . S
H1285 C1301 0.930 . S
H1286 C1302 0.931 . S
C1287 H1275 0.929 . S
C1287 C1281 1.390 . S
C1287 C1284 1.386 . S
C1288 C1283 1.490 . S
C1288 C1290 1.395 . S
C1288 C1291 1.403 . S
H1289 C1295 0.930 . S
C1290 H1276 0.930 . S
C1290 C1288 1.395 . S
C1290 C1293 1.403 1_554 S
C1291 C1288 1.403 . S
C1291 C1292 1.524 . S
C1291 C1295 1.400 1_554 S
C1292 H1277 0.960 1_554 S
C1292 H1278 0.960 . S
C1292 H1279 0.960 . S
C1292 C1291 1.524 . S
C1293 C1290 1.403 1_556 S
C1293 C1294 1.392 . S
C1293 C1297 1.495 . S
C1294 C1293 1.392 . S
C1294 C1295 1.385 . S
C1294 C1296 1.478 . S
C1295 H1289 0.930 . S
C1295 C1291 1.400 1_556 S
C1295 C1294 1.385 . S
C1296 C1294 1.478 . S
C1296 C1298 1.381 . S
C1296 C1302 1.383 . S
C1297 C1293 1.495 . S
C1297 H1303 0.959 . S
C1297 H1304 0.961 . S
C1297 H1305 0.960 . S
C1298 C1296 1.381 . S
C1298 C1299 1.394 . S
C1298 H1306 0.930 . S
C1299 C1298 1.394 . S
C1299 C1300 1.383 . S
C1299 H1307 0.929 . S
C1300 C1299 1.383 . S
C1300 C1301 1.377 . S
C1301 H1285 0.930 . S
C1301 C1300 1.377 . S
C1301 C1302 1.379 . S
C1302 H1286 0.931 . S
C1302 C1296 1.383 . S
C1302 C1301 1.379 . S
H1303 C1297 0.959 . S
H1304 C1297 0.961 . S
H1305 C1297 0.960 . S
H1306 C1298 0.930 . S
H1307 C1299 0.929 . S
H1308 C1316 0.929 . S
H1309 C1318 0.930 . S
H1310 C1320 0.930 . S
H1311 C1323 0.929 . S
H1312 C1326 0.930 . S
H1313 C1328 0.960 . S
H1314 C1328 0.960 . S
H1315 C1328 0.960 . S
C1316 H1308 0.929 . S
C1316 C1317 1.377 . S
C1316 C1318 1.384 . S
C1317 C1316 1.377 . S
C1317 C1323 1.390 . S
C1318 H1309 0.930 . S
C1318 C1316 1.384 . S
C1318 C1319 1.372 . S
C1319 C1318 1.372 . S
C1319 C1320 1.400 . S
C1319 C1324 1.490 . S
C1320 H1310 0.930 . S
C1320 C1319 1.400 . S
C1320 C1323 1.386 . S
H1321 C1337 0.930 . S
H1322 C1338 0.931 . S
C1323 H1311 0.929 . S
C1323 C1317 1.390 . S
C1323 C1320 1.386 . S
C1324 C1319 1.490 . S
C1324 C1326 1.395 . S
C1324 C1327 1.403 . S
H1325 C1331 0.930 . S
C1326 H1312 0.930 . S
C1326 C1324 1.395 . S
C1326 C1329 1.403 . S
C1327 C1324 1.403 . S
C1327 C1328 1.524 . S
C1327 C1331 1.400 . S
C1328 H1313 0.960 . S
C1328 H1314 0.960 . S
C1328 H1315 0.960 . S
C1328 C1327 1.524 . S
C1329 C1326 1.403 . S
C1329 C1330 1.392 . S
C1329 C1333 1.495 . S
C1330 C1329 1.392 . S
C1330 C1331 1.385 . S
C1330 C1332 1.478 . S
C1331 H1325 0.930 . S
C1331 C1327 1.400 . S
C1331 C1330 1.385 . S
C1332 C1330 1.478 . S
C1332 C1334 1.381 . S
C1332 C1338 1.383 . S
C1333 C1329 1.495 . S
C1333 H1339 0.959 . S
C1333 H1340 0.961 . S
C1333 H1341 0.960 . S
C1334 C1332 1.381 . S
C1334 C1335 1.394 . S
C1334 H1342 0.930 . S
C1335 C1334 1.394 . S
C1335 C1336 1.383 . S
C1335 H1343 0.929 . S
C1336 C1335 1.383 . S
C1336 C1337 1.377 . S
C1337 H1321 0.930 . S
C1337 C1336 1.377 . S
C1337 C1338 1.379 . S
C1338 H1322 0.931 . S
C1338 C1332 1.383 . S
C1338 C1337 1.379 . S
H1339 C1333 0.959 . S
H1340 C1333 0.961 . S
H1341 C1333 0.960 . S
H1342 C1334 0.930 . S
H1343 C1335 0.929 . S
H1344 C1352 0.929 . S
H1345 C1354 0.930 . S
H1346 C1356 0.930 . S
H1347 C1359 0.929 . S
H1348 C1362 0.930 . S
H1349 C1364 0.960 . S
H1350 C1364 0.960 . S
H1351 C1364 0.960 . S
C1352 H1344 0.929 . S
C1352 C1353 1.377 . S
C1352 C1354 1.384 . S
C1353 C1352 1.377 . S
C1353 C1359 1.390 . S
C1354 H1345 0.930 . S
C1354 C1352 1.384 . S
C1354 C1355 1.372 . S
C1355 C1354 1.372 . S
C1355 C1356 1.400 . S
C1355 C1360 1.490 . S
C1356 H1346 0.930 . S
C1356 C1355 1.400 . S
C1356 C1359 1.386 . S
H1357 C1373 0.930 . S
H1358 C1374 0.931 . S
C1359 H1347 0.929 . S
C1359 C1353 1.390 . S
C1359 C1356 1.386 . S
C1360 C1355 1.490 . S
C1360 C1362 1.395 . S
C1360 C1363 1.403 . S
H1361 C1367 0.930 . S
C1362 H1348 0.930 . S
C1362 C1360 1.395 . S
C1362 C1365 1.403 . S
C1363 C1360 1.403 . S
C1363 C1364 1.524 . S
C1363 C1367 1.400 . S
C1364 H1349 0.960 . S
C1364 H1350 0.960 . S
C1364 H1351 0.960 . S
C1364 C1363 1.524 . S
C1365 C1362 1.403 . S
C1365 C1366 1.392 . S
C1365 C1369 1.495 . S
C1366 C1365 1.392 . S
C1366 C1367 1.385 . S
C1366 C1368 1.478 . S
C1367 H1361 0.930 . S
C1367 C1363 1.400 . S
C1367 C1366 1.385 . S
C1368 C1366 1.478 . S
C1368 C1370 1.381 . S
C1368 C1374 1.383 . S
C1369 C1365 1.495 . S
C1369 H1375 0.959 . S
C1369 H1376 0.961 . S
C1369 H1377 0.960 . S
C1370 C1368 1.381 . S
C1370 C1371 1.394 . S
C1370 H1378 0.930 . S
C1371 C1370 1.394 . S
C1371 C1372 1.383 . S
C1371 H1379 0.929 . S
C1372 C1371 1.383 . S
C1372 C1373 1.377 . S
C1373 H1357 0.930 . S
C1373 C1372 1.377 . S
C1373 C1374 1.379 . S
C1374 H1358 0.931 . S
C1374 C1368 1.383 . S
C1374 C1373 1.379 . S
H1375 C1369 0.959 . S
H1376 C1369 0.961 . S
H1377 C1369 0.960 . S
H1378 C1370 0.930 . S
H1379 C1371 0.929 . S
H1380 C1388 0.929 . S
H1381 C1390 0.930 . S
H1382 C1392 0.930 . S
H1383 C1395 0.929 . S
H1384 C1398 0.930 . S
H1385 C1400 0.960 . S
H1386 C1400 0.960 . S
H1387 C1400 0.960 . S
C1388 H1380 0.929 . S
C1388 C1389 1.377 . S
C1388 C1390 1.384 . S
C1389 C1388 1.377 . S
C1389 C1395 1.390 . S
C1390 H1381 0.930 . S
C1390 C1388 1.384 . S
C1390 C1391 1.372 . S
C1391 C1390 1.372 . S
C1391 C1392 1.400 . S
C1391 C1396 1.490 . S
C1392 H1382 0.930 . S
C1392 C1391 1.400 . S
C1392 C1395 1.386 . S
H1393 C1409 0.930 . S
H1394 C1410 0.931 . S
C1395 H1383 0.929 . S
C1395 C1389 1.390 . S
C1395 C1392 1.386 . S
C1396 C1391 1.490 . S
C1396 C1398 1.395 . S
C1396 C1399 1.403 . S
H1397 C1403 0.930 . S
C1398 H1384 0.930 . S
C1398 C1396 1.395 . S
C1398 C1401 1.403 1_556 S
C1399 C1396 1.403 . S
C1399 C1400 1.524 . S
C1399 C1403 1.400 1_556 S
C1400 H1385 0.960 . S
C1400 H1386 0.960 . S
C1400 H1387 0.960 . S
C1400 C1399 1.524 . S
C1401 C1398 1.403 1_554 S
C1401 C1402 1.392 . S
C1401 C1405 1.495 . S
C1402 C1401 1.392 . S
C1402 C1403 1.385 . S
C1402 C1404 1.478 . S
C1403 H1397 0.930 . S
C1403 C1399 1.400 1_554 S
C1403 C1402 1.385 . S
C1404 C1402 1.478 . S
C1404 C1406 1.381 . S
C1404 C1410 1.383 . S
C1405 C1401 1.495 . S
C1405 H1411 0.959 1_554 S
C1405 H1412 0.961 . S
C1405 H1413 0.960 . S
C1406 C1404 1.381 . S
C1406 C1407 1.394 . S
C1406 H1414 0.930 . S
C1407 C1406 1.394 . S
C1407 C1408 1.383 . S
C1407 H1415 0.929 . S
C1408 C1407 1.383 . S
C1408 C1409 1.377 . S
C1409 H1393 0.930 . S
C1409 C1408 1.377 . S
C1409 C1410 1.379 . S
C1410 H1394 0.931 . S
C1410 C1404 1.383 . S
C1410 C1409 1.379 . S
H1411 C1405 0.959 1_556 S
H1412 C1405 0.961 . S
H1413 C1405 0.960 . S
H1414 C1406 0.930 . S
H1415 C1407 0.929 . S
H1416 C1424 0.929 . S
H1417 C1426 0.930 . S
H1418 C1428 0.930 . S
H1419 C1431 0.929 . S
H1420 C1434 0.930 . S
H1421 C1436 0.960 . S
H1422 C1436 0.960 . S
H1423 C1436 0.960 . S
C1424 H1416 0.929 . S
C1424 C1425 1.377 . S
C1424 C1426 1.384 . S
C1425 C1424 1.377 . S
C1425 C1431 1.390 . S
C1426 H1417 0.930 . S
C1426 C1424 1.384 . S
C1426 C1427 1.372 . S
C1427 C1426 1.372 . S
C1427 C1428 1.400 . S
C1427 C1432 1.490 . S
C1428 H1418 0.930 . S
C1428 C1427 1.400 . S
C1428 C1431 1.386 . S
H1429 C1445 0.930 . S
H1430 C1446 0.931 . S
C1431 H1419 0.929 . S
C1431 C1425 1.390 . S
C1431 C1428 1.386 . S
C1432 C1427 1.490 . S
C1432 C1434 1.395 . S
C1432 C1435 1.403 . S
H1433 C1439 0.930 . S
C1434 H1420 0.930 . S
C1434 C1432 1.395 . S
C1434 C1437 1.403 . S
C1435 C1432 1.403 . S
C1435 C1436 1.524 . S
C1435 C1439 1.400 . S
C1436 H1421 0.960 . S
C1436 H1422 0.960 . S
C1436 H1423 0.960 . S
C1436 C1435 1.524 . S
C1437 C1434 1.403 . S
C1437 C1438 1.392 . S
C1437 C1441 1.495 . S
C1438 C1437 1.392 . S
C1438 C1439 1.385 . S
C1438 C1440 1.478 . S
C1439 H1433 0.930 . S
C1439 C1435 1.400 . S
C1439 C1438 1.385 . S
C1440 C1438 1.478 . S
C1440 C1442 1.381 . S
C1440 C1446 1.383 . S
C1441 C1437 1.495 . S
C1441 H1447 0.959 . S
C1441 H1448 0.961 . S
C1441 H1449 0.960 . S
C1442 C1440 1.381 . S
C1442 C1443 1.394 . S
C1442 H1450 0.930 . S
C1443 C1442 1.394 . S
C1443 C1444 1.383 . S
C1443 H1451 0.929 . S
C1444 C1443 1.383 . S
C1444 C1445 1.377 . S
C1445 H1429 0.930 . S
C1445 C1444 1.377 . S
C1445 C1446 1.379 . S
C1446 H1430 0.931 . S
C1446 C1440 1.383 . S
C1446 C1445 1.379 . S
H1447 C1441 0.959 . S
H1448 C1441 0.961 . S
H1449 C1441 0.960 . S
H1450 C1442 0.930 . S
H1451 C1443 0.929 . S
H1452 C1460 0.929 . S
H1453 C1462 0.930 . S
H1454 C1464 0.930 . S
H1455 C1467 0.929 . S
H1456 C1470 0.930 . S
H1457 C1472 0.960 . S
H1458 C1472 0.960 . S
H1459 C1472 0.960 . S
C1460 H1452 0.929 . S
C1460 C1461 1.377 . S
C1460 C1462 1.384 . S
C1461 C1460 1.377 . S
C1461 C1467 1.390 . S
C1462 H1453 0.930 . S
C1462 C1460 1.384 . S
C1462 C1463 1.372 . S
C1463 C1462 1.372 . S
C1463 C1464 1.400 . S
C1463 C1468 1.490 . S
C1464 H1454 0.930 . S
C1464 C1463 1.400 . S
C1464 C1467 1.386 . S
H1465 C1481 0.930 . S
H1466 C1482 0.931 . S
C1467 H1455 0.929 . S
C1467 C1461 1.390 . S
C1467 C1464 1.386 . S
C1468 C1463 1.490 . S
C1468 C1470 1.395 . S
C1468 C1471 1.403 . S
H1469 C1475 0.930 . S
C1470 H1456 0.930 . S
C1470 C1468 1.395 . S
C1470 C1473 1.403 . S
C1471 C1468 1.403 . S
C1471 C1472 1.524 . S
C1471 C1475 1.400 . S
C1472 H1457 0.960 . S
C1472 H1458 0.960 . S
C1472 H1459 0.960 . S
C1472 C1471 1.524 . S
C1473 C1470 1.403 . S
C1473 C1474 1.392 . S
C1473 C1477 1.495 . S
C1474 C1473 1.392 . S
C1474 C1475 1.385 . S
C1474 C1476 1.478 . S
C1475 H1469 0.930 . S
C1475 C1471 1.400 . S
C1475 C1474 1.385 . S
C1476 C1474 1.478 . S
C1476 C1478 1.381 . S
C1476 C1482 1.383 . S
C1477 C1473 1.495 . S
C1477 H1483 0.959 . S
C1477 H1484 0.961 . S
C1477 H1485 0.960 . S
C1478 C1476 1.381 . S
C1478 C1479 1.394 . S
C1478 H1486 0.930 . S
C1479 C1478 1.394 . S
C1479 C1480 1.383 . S
C1479 H1487 0.929 . S
C1480 C1479 1.383 . S
C1480 C1481 1.377 . S
C1481 H1465 0.930 . S
C1481 C1480 1.377 . S
C1481 C1482 1.379 . S
C1482 H1466 0.931 . S
C1482 C1476 1.383 . S
C1482 C1481 1.379 . S
H1483 C1477 0.959 . S
H1484 C1477 0.961 . S
H1485 C1477 0.960 . S
H1486 C1478 0.930 . S
H1487 C1479 0.929 . S
C417 C20 1.567 . S
C436 C360 1.577 . S
C453 C394 1.566 . S
C472 C54 1.556 . S
C489 C224 1.569 . S
C508 C88 1.574 . S
C525 C258 1.569 . S
C544 C122 1.576 . S
C561 C156 1.567 . S
C580 C292 1.557 . S
C597 C326 1.567 . S
C616 C190 1.578 . S
C633 C237 1.427 . S
C652 C33 1.425 . S
C669 C271 1.428 . S
C688 C67 1.430 . S
C705 C101 1.429 . S
C724 C305 1.428 . S
C741 C135 1.429 . S
C760 C339 1.433 . S
C777 C373 1.426 . S
C796 C169 1.417 . S
C813 C407 1.429 . S
C832 C203 1.432 . S
C849 C2 1.468 . S
C868 C308 1.482 . S
C885 C342 1.467 . S
C904 C36 1.478 . S
C921 C376 1.467 . S
C940 C70 1.461 . S
C957 C206 1.472 . S
C976 C104 1.476 . S
C993 C138 1.467 . S
C1012 C240 1.464 . S
C1029 C172 1.470 . S
C1048 C274 1.482 . S
C1065 C5 0.736 . S
C1084 C9 0.750 . S
C1101 C43 0.729 . S
C1120 C39 0.716 . S
C1137 C73 0.741 . S
C1156 C77 0.787 . S
C1173 C111 0.732 . S
C1192 C107 0.708 . S
C1209 C145 0.732 . S
C1228 C141 0.726 . S
C1245 C179 0.725 . S
C1264 C175 0.697 . S
C1281 C209 0.735 . S
C1300 C213 0.744 . S
C1317 C247 0.741 . S
C1336 C243 0.733 . S
C1353 C281 0.729 . S
C1372 C277 0.702 . S
C1389 C315 0.750 . S
C1408 C311 0.759 . S
C1425 C345 0.729 . S
C1444 C349 0.670 . S
C1461 C383 0.744 . S
C1480 C379 0.740 . S
