# Generated by pormake.
# Topology yfw, (5)-cn, num edge types: 1
# Building blocks:
#     Node 0, Type 0, BuildingBlock: BEQFEK_clean_sbu_0, # of connection points: 5
#     Node 1, Type 0, BuildingBlock: BEQFEK_clean_sbu_0, # of connection points: 5
#     Node 2, Type 0, BuildingBlock: BEQFEK_clean_sbu_0, # of connection points: 5
#     Node 3, Type 0, BuildingBlock: BEQFEK_clean_sbu_0, # of connection points: 5
#     Node 4, Type 0, BuildingBlock: BEQFEK_clean_sbu_0, # of connection points: 5
#     Node 5, Type 0, BuildingBlock: BEQFEK_clean_sbu_0, # of connection points: 5
#     Node 6, Type 0, BuildingBlock: BEQFEK_clean_sbu_0, # of connection points: 5
#     Node 7, Type 0, BuildingBlock: BEQFEK_clean_sbu_0, # of connection points: 5
#     Node 8, Type 0, BuildingBlock: BEQFEK_clean_sbu_0, # of connection points: 5
#     Node 9, Type 0, BuildingBlock: BEQFEK_clean_sbu_0, # of connection points: 5
#     Node 10, Type 0, BuildingBlock: BEQFEK_clean_sbu_0, # of connection points: 5
#     Node 11, Type 0, BuildingBlock: BEQFEK_clean_sbu_0, # of connection points: 5
#     Node 12, Type 0, BuildingBlock: BEQFEK_clean_sbu_0, # of connection points: 5
#     Node 13, Type 0, BuildingBlock: BEQFEK_clean_sbu_0, # of connection points: 5
#     Node 14, Type 0, BuildingBlock: BEQFEK_clean_sbu_0, # of connection points: 5
#     Node 15, Type 0, BuildingBlock: BEQFEK_clean_sbu_0, # of connection points: 5
#     Edge 16, Type (0, 0), None
#     Edge 17, Type (0, 0), None
#     Edge 18, Type (0, 0), None
#     Edge 19, Type (0, 0), None
#     Edge 20, Type (0, 0), None
#     Edge 21, Type (0, 0), None
#     Edge 22, Type (0, 0), None
#     Edge 23, Type (0, 0), None
#     Edge 24, Type (0, 0), None
#     Edge 25, Type (0, 0), None
#     Edge 26, Type (0, 0), None
#     Edge 27, Type (0, 0), None
#     Edge 28, Type (0, 0), None
#     Edge 29, Type (0, 0), None
#     Edge 30, Type (0, 0), None
#     Edge 31, Type (0, 0), None
#     Edge 32, Type (0, 0), None
#     Edge 33, Type (0, 0), None
#     Edge 34, Type (0, 0), None
#     Edge 35, Type (0, 0), None
#     Edge 36, Type (0, 0), None
#     Edge 37, Type (0, 0), None
#     Edge 38, Type (0, 0), None
#     Edge 39, Type (0, 0), None
#     Edge 40, Type (0, 0), None
#     Edge 41, Type (0, 0), None
#     Edge 42, Type (0, 0), None
#     Edge 43, Type (0, 0), None
#     Edge 44, Type (0, 0), None
#     Edge 45, Type (0, 0), None
#     Edge 46, Type (0, 0), None
#     Edge 47, Type (0, 0), None
#     Edge 48, Type (0, 0), None
#     Edge 49, Type (0, 0), None
#     Edge 50, Type (0, 0), None
#     Edge 51, Type (0, 0), None
#     Edge 52, Type (0, 0), None
#     Edge 53, Type (0, 0), None
#     Edge 54, Type (0, 0), None
#     Edge 55, Type (0, 0), None
# Relax obj value: 0.054
# Max RMSD: 0.110
# Mean RMSD: 0.110
data_MOF--net-yfw--node1-BEQFEK_clean_sbu_0--edge1-none
_symmetry_space_group_name_H-M    P1
_symmetry_Int_Tables_number       1
_symmetry_cell_setting            triclinic
loop_
_symmetry_equiv_pos_as_xyz
'x, y, z'
_cell_length_a     29.241759
_cell_length_b     29.241124
_cell_length_c     13.607622
_cell_angle_alpha  90.00116
_cell_angle_beta   90.001202
_cell_angle_gamma 89.999533
loop_
_atom_site_label
_atom_site_type_symbol
_atom_site_fract_x
_atom_site_fract_y
_atom_site_fract_z
_atom_type_partial_charge
Co0 Co 0.12806 0.04012 0.03074 0.0
Co1 Co 0.22582 0.08451 0.04174 0.0
C2 C 0.14547 0.13273 0.12521 0.0
O3 O 0.1211 0.0977 0.10574 0.0
O4 O 0.18675 0.13625 0.09475 0.0
C5 C 0.029 0.02416 0.01187 0.0
O6 O 0.02373 0.06863 0.01916 0.0
C7 C 0.30507 0.13435 0.9572 0.0
C8 C 0.36126 0.0896 0.00706 0.0
C9 C 0.35151 0.12578 0.94467 0.0
N10 N 0.28812 0.10335 0.02131 0.0
N11 N 0.32226 0.07757 0.05247 0.0
C12 C 0.27641 0.16772 0.90117 0.0
H13 H 0.23959 0.15891 0.90761 0.0
H14 H 0.28681 0.1685 0.82274 0.0
H15 H 0.28193 0.20244 0.93186 0.0
C16 C 0.15106 0.03063 0.82558 0.0
N17 N 0.16089 0.04726 0.91477 0.0
N18 N 0.20413 0.0594 0.91886 0.0
C19 C 0.22392 0.04875 0.83151 0.0
C20 C 0.19068 0.03131 0.76916 0.0
C21 C 0.10648 1.00743 0.80284 0.0
H22 H 0.10367 0.976 0.84811 0.0
H23 H 0.07785 0.03046 0.8231 0.0
H24 H 0.10265 0.99749 0.72499 0.0
O25 O 0.16111 0.99848 0.11408 0.0
O26 O 0.22268 0.03879 0.1534 0.0
H27 H 0.29385 0.04159 0.87674 0.0
H28 H 0.28355 0.02687 0.75015 0.0
C29 C 0.27407 0.05067 0.81022 0.0
H30 H 0.28329 0.08562 0.78615 0.0
H31 H 0.31834 0.04962 0.09942 0.0
O32 O 0.06889 1.00712 0.01238 0.0
C33 C 0.19466 1.00621 0.17021 0.0
Co34 Co 0.97776 0.62807 0.2808 0.0
Co35 Co 0.93337 0.72581 0.29178 0.0
C36 C 0.88516 0.64546 0.37524 0.0
O37 O 0.92019 0.6211 0.35579 0.0
O38 O 0.88163 0.68675 0.34478 0.0
C39 C 0.99373 0.529 0.26186 0.0
O40 O 0.94926 0.52373 0.269 0.0
C41 C 0.88353 0.80507 0.20723 0.0
C42 C 0.92827 0.86126 0.25709 0.0
C43 C 0.89209 0.85151 0.1947 0.0
N44 N 0.91453 0.78812 0.27135 0.0
N45 N 0.9403 0.82226 0.30251 0.0
C46 C 0.85016 0.7764 0.1512 0.0
H47 H 0.85897 0.73959 0.15763 0.0
H48 H 0.84938 0.78681 0.07276 0.0
H49 H 0.81544 0.78192 0.18189 0.0
C50 C 0.98728 0.65106 0.07565 0.0
N51 N 0.97064 0.66088 0.16483 0.0
N52 N 0.95849 0.70413 0.16891 0.0
C53 C 0.96914 0.72392 0.08156 0.0
C54 C 0.98659 0.69067 0.01923 0.0
C55 C 0.01049 0.60648 0.05293 0.0
H56 H 0.0419 0.60367 0.09827 0.0
H57 H 0.98746 0.57785 0.07312 0.0
H58 H 0.02047 0.60267 0.9751 0.0
O59 O 0.01941 0.66112 0.36414 0.0
O60 O 0.97909 0.72268 0.40346 0.0
H61 H 0.97628 0.79385 0.12678 0.0
H62 H 0.99101 0.78355 0.00018 0.0
C63 C 0.96721 0.77407 0.06026 0.0
H64 H 0.93225 0.78328 0.03619 0.0
H65 H 0.96825 0.81834 0.34947 0.0
O66 O 0.01077 0.56889 0.26248 0.0
C67 C 0.01166 0.69466 0.42028 0.0
Co68 Co 0.38981 0.47776 0.53081 0.0
Co69 Co 0.29207 0.43336 0.54176 0.0
C70 C 0.37241 0.38515 0.62526 0.0
O71 O 0.39677 0.42019 0.60582 0.0
O72 O 0.33114 0.38162 0.59477 0.0
C73 C 0.48888 0.49373 0.51183 0.0
O74 O 0.49416 0.44925 0.51886 0.0
C75 C 0.21282 0.38352 0.45721 0.0
C76 C 0.15663 0.42828 0.50704 0.0
C77 C 0.16638 0.39209 0.44466 0.0
N78 N 0.22977 0.41452 0.52132 0.0
N79 N 0.19563 0.4403 0.55246 0.0
C80 C 0.24148 0.35014 0.40119 0.0
H81 H 0.27829 0.35895 0.40763 0.0
H82 H 0.23107 0.34935 0.32276 0.0
H83 H 0.23596 0.31543 0.4319 0.0
C84 C 0.36683 0.48726 0.32565 0.0
N85 N 0.35701 0.47063 0.41483 0.0
N86 N 0.31377 0.45847 0.41889 0.0
C87 C 0.29398 0.46912 0.33153 0.0
C88 C 0.32723 0.48657 0.26921 0.0
C89 C 0.41141 0.51048 0.30294 0.0
H90 H 0.41422 0.54189 0.34829 0.0
H91 H 0.44004 0.48745 0.32313 0.0
H92 H 0.41522 0.52047 0.22512 0.0
O93 O 0.35675 0.51941 0.61411 0.0
O94 O 0.29521 0.47908 0.65344 0.0
H95 H 0.22405 0.47627 0.37672 0.0
H96 H 0.23435 0.49098 0.25012 0.0
C97 C 0.24384 0.46719 0.31021 0.0
H98 H 0.23462 0.43222 0.28616 0.0
H99 H 0.19955 0.46826 0.59941 0.0
O100 O 0.44899 0.51077 0.51252 0.0
C101 C 0.32321 0.51166 0.67025 0.0
Co102 Co 0.54013 0.88982 0.78078 0.0
Co103 Co 0.58452 0.79206 0.79175 0.0
C104 C 0.63273 0.87241 0.87523 0.0
O105 O 0.5977 0.89678 0.85578 0.0
O106 O 0.63626 0.83113 0.84476 0.0
C107 C 0.52416 0.98888 0.76186 0.0
O108 O 0.56863 0.99415 0.76904 0.0
C109 C 0.63436 0.71281 0.7072 0.0
C110 C 0.58961 0.65662 0.75704 0.0
C111 C 0.62579 0.66637 0.69465 0.0
N112 N 0.60336 0.72976 0.77131 0.0
N113 N 0.57758 0.69562 0.80246 0.0
C114 C 0.66773 0.74148 0.65117 0.0
H115 H 0.65892 0.77829 0.65761 0.0
H116 H 0.66851 0.73107 0.57274 0.0
H117 H 0.70245 0.73596 0.68187 0.0
C118 C 0.53063 0.86682 0.57562 0.0
N119 N 0.54726 0.857 0.6648 0.0
N120 N 0.5594 0.81376 0.66888 0.0
C121 C 0.54876 0.79397 0.58152 0.0
C122 C 0.53131 0.82721 0.51919 0.0
C123 C 0.50742 0.9114 0.5529 0.0
H124 H 0.476 0.91421 0.59821 0.0
H125 H 0.53045 0.94004 0.57312 0.0
H126 H 0.49745 0.91522 0.47506 0.0
O127 O 0.49848 0.85676 0.86411 0.0
O128 O 0.5388 0.7952 0.90342 0.0
H129 H 0.5416 0.72404 0.62674 0.0
H130 H 0.52688 0.73433 0.50014 0.0
C131 C 0.55068 0.74382 0.56022 0.0
H132 H 0.58564 0.7346 0.53616 0.0
H133 H 0.54963 0.69954 0.84941 0.0
O134 O 0.50712 0.94899 0.76245 0.0
C135 C 0.50623 0.82322 0.92024 0.0
Co136 Co 0.88993 0.04018 0.53066 0.0
Co137 Co 0.79215 0.08451 0.54162 0.0
C138 C 0.87246 0.13276 0.62516 0.0
O139 O 0.89685 0.09775 0.6057 0.0
O140 O 0.83118 0.13627 0.59467 0.0
C141 C 0.98901 0.02425 0.51185 0.0
O142 O 0.99428 0.06872 0.51917 0.0
C143 C 0.71288 0.13432 0.45705 0.0
C144 C 0.65671 0.0895 0.50677 0.0
C145 C 0.66645 0.12571 0.44443 0.0
N146 N 0.72984 0.10331 0.52115 0.0
N147 N 0.69571 0.0775 0.55223 0.0
C148 C 0.74154 0.16772 0.40109 0.0
H149 H 0.77835 0.15892 0.40753 0.0
H150 H 0.73114 0.16852 0.32265 0.0
H151 H 0.736 0.20242 0.43184 0.0
C152 C 0.86694 0.03064 0.32549 0.0
N153 N 0.85711 0.04728 0.41467 0.0
N154 N 0.81386 0.05941 0.41875 0.0
C155 C 0.79408 0.04875 0.33139 0.0
C156 C 0.82733 0.03131 0.26906 0.0
C157 C 0.91153 1.00745 0.30279 0.0
H158 H 0.91435 0.97604 0.34812 0.0
H159 H 0.94015 0.03049 0.323 0.0
H160 H 0.91535 0.99747 0.22496 0.0
O161 O 0.85691 0.99851 0.614 0.0
O162 O 0.79531 0.03878 0.65329 0.0
H163 H 0.72416 0.04155 0.37658 0.0
H164 H 0.73446 0.02688 0.24996 0.0
C165 C 0.74393 0.05066 0.31008 0.0
H166 H 0.7347 0.08562 0.28607 0.0
H167 H 0.69964 0.04954 0.59916 0.0
O168 O 0.94913 1.0072 0.51233 0.0
C169 C 0.82336 1.00623 0.67012 0.0
Co170 Co 0.97771 0.38992 0.78066 0.0
Co171 Co 0.93337 0.29215 0.7916 0.0
C172 C 0.88513 0.37245 0.87516 0.0
O173 O 0.92014 0.39684 0.85571 0.0
O174 O 0.88161 0.33117 0.84465 0.0
C175 C 0.99365 0.48901 0.76188 0.0
O176 O 0.94918 0.49428 0.7692 0.0
C177 C 0.88359 0.21287 0.707 0.0
C178 C 0.92842 0.15671 0.75669 0.0
C179 C 0.89223 0.16645 0.69432 0.0
N180 N 0.91458 0.22983 0.77112 0.0
N181 N 0.9404 0.19571 0.80218 0.0
C182 C 0.85017 0.24152 0.65107 0.0
H183 H 0.85895 0.27834 0.65753 0.0
H184 H 0.84936 0.23113 0.57263 0.0
H185 H 0.81547 0.23596 0.68183 0.0
C186 C 0.98724 0.36694 0.57549 0.0
N187 N 0.9706 0.35711 0.66466 0.0
N188 N 0.95847 0.31386 0.66873 0.0
C189 C 0.96914 0.29408 0.58136 0.0
C190 C 0.98658 0.32733 0.51904 0.0
C191 C 0.01044 0.41153 0.5528 0.0
H192 H 0.04185 0.41434 0.59815 0.0
H193 H 0.9874 0.44016 0.57301 0.0
H194 H 0.02043 0.41536 0.47498 0.0
O195 O 0.01938 0.35689 0.86397 0.0
O196 O 0.9791 0.29531 0.90327 0.0
H197 H 0.97634 0.22415 0.62654 0.0
H198 H 0.991 0.23446 0.49991 0.0
C199 C 0.96723 0.24393 0.56005 0.0
H200 H 0.93226 0.2347 0.53604 0.0
H201 H 0.96836 0.19964 0.84913 0.0
O202 O 0.01069 0.44912 0.76235 0.0
C203 C 0.01166 0.32334 0.9201 0.0
Co204 Co 0.62797 0.47771 0.03064 0.0
Co205 Co 0.72574 0.43336 0.04158 0.0
C206 C 0.64544 0.38512 0.12517 0.0
O207 O 0.62106 0.42014 0.10572 0.0
O208 O 0.68672 0.3816 0.09464 0.0
C209 C 0.52888 0.49363 0.01184 0.0
O210 O 0.52362 0.44916 0.01912 0.0
C211 C 0.80502 0.38357 0.95699 0.0
C212 C 0.86118 0.42841 0.00668 0.0
C213 C 0.85144 0.39221 0.94431 0.0
N214 N 0.78806 0.41457 0.02111 0.0
N215 N 0.82218 0.4404 0.05217 0.0
C216 C 0.77637 0.35016 0.90106 0.0
H217 H 0.73955 0.35893 0.90752 0.0
H218 H 0.78676 0.34935 0.82262 0.0
H219 H 0.78193 0.31545 0.93182 0.0
C220 C 0.65093 0.48722 0.82547 0.0
N221 N 0.66077 0.47059 0.91464 0.0
N222 N 0.70402 0.45846 0.9187 0.0
C223 C 0.7238 0.46912 0.83134 0.0
C224 C 0.69054 0.48656 0.76902 0.0
C225 C 0.60635 0.51043 0.80278 0.0
H226 H 0.60354 0.54183 0.84813 0.0
H227 H 0.57772 0.48739 0.82299 0.0
H228 H 0.60252 0.52041 0.72496 0.0
O229 O 0.66101 0.51939 0.11393 0.0
O230 O 0.72258 0.4791 0.15325 0.0
H231 H 0.79372 0.47633 0.87651 0.0
H232 H 0.78341 0.49099 0.74989 0.0
C233 C 0.77394 0.46721 0.81002 0.0
H234 H 0.78318 0.43225 0.78602 0.0
H235 H 0.81824 0.46835 0.09911 0.0
O236 O 0.56877 0.51068 0.01234 0.0
C237 C 0.69455 0.51166 0.17007 0.0
Co238 Co 0.5402 0.12796 0.28069 0.0
Co239 Co 0.58452 0.22575 0.29164 0.0
C240 C 0.63278 0.14545 0.3752 0.0
O241 O 0.59777 0.12105 0.35575 0.0
O242 O 0.63628 0.18673 0.3447 0.0
C243 C 0.52427 0.02888 0.26188 0.0
O244 O 0.56874 0.02361 0.26917 0.0
C245 C 0.63431 0.30502 0.20702 0.0
C246 C 0.58949 0.36119 0.25672 0.0
C247 C 0.62568 0.35144 0.19433 0.0
N248 N 0.60332 0.28806 0.27115 0.0
N249 N 0.57751 0.32219 0.30222 0.0
C250 C 0.66772 0.27636 0.15107 0.0
H251 H 0.65894 0.23954 0.15755 0.0
H252 H 0.66851 0.28674 0.07263 0.0
H253 H 0.70243 0.28192 0.18181 0.0
C254 C 0.53067 0.15094 0.07552 0.0
N255 N 0.54731 0.16078 0.1647 0.0
N256 N 0.55942 0.20403 0.16876 0.0
C257 C 0.54875 0.22381 0.0814 0.0
C258 C 0.53132 0.19055 0.01908 0.0
C259 C 0.50747 0.10635 0.05283 0.0
H260 H 0.47607 0.10353 0.09818 0.0
H261 H 0.53052 0.07773 0.07304 0.0
H262 H 0.49749 0.10252 0.97501 0.0
O263 O 0.49853 0.16099 0.36401 0.0
O264 O 0.53879 0.22259 0.4033 0.0
H265 H 0.54154 0.29373 0.1266 0.0
H266 H 0.52686 0.28342 -1e-05 0.0
C267 C 0.55065 0.27396 0.0601 0.0
H268 H 0.58561 0.2832 0.03607 0.0
H269 H 0.54955 0.31827 0.34917 0.0
O270 O 0.50723 0.06877 0.26237 0.0
C271 C 0.50624 0.19454 0.42013 0.0
Co272 Co 0.62802 0.54011 0.53085 0.0
Co273 Co 0.72575 0.58451 0.54158 0.0
C274 C 0.64553 0.6327 0.62541 0.0
O275 O 0.62117 0.59764 0.60609 0.0
O276 O 0.68677 0.63627 0.5947 0.0
C277 C 0.52892 0.52419 0.51169 0.0
O278 O 0.52365 0.56869 0.51804 0.0
C279 C 0.80504 0.63431 0.45704 0.0
C280 C 0.86118 0.58941 0.50654 0.0
C281 C 0.85146 0.62565 0.44431 0.0
N282 N 0.78807 0.60327 0.52105 0.0
N283 N 0.82218 0.57741 0.552 0.0
C284 C 0.77641 0.6678 0.40127 0.0
H285 H 0.73959 0.65904 0.40771 0.0
H286 H 0.78679 0.66867 0.32282 0.0
H287 H 0.782 0.70247 0.43217 0.0
C288 C 0.65088 0.53057 0.32563 0.0
N289 N 0.66073 0.54727 0.41475 0.0
N290 N 0.70397 0.55944 0.41871 0.0
C291 C 0.72372 0.54878 0.33131 0.0
C292 C 0.69046 0.53124 0.26913 0.0
C293 C 0.60633 0.50728 0.30311 0.0
H294 H 0.60353 0.47596 0.34877 0.0
H295 H 0.57767 0.53033 0.32305 0.0
H296 H 0.60253 0.49711 0.22538 0.0
O297 O 0.66116 0.49835 0.61377 0.0
O298 O 0.72261 0.53878 0.65329 0.0
H299 H 0.79368 0.5416 0.37624 0.0
H300 H 0.78332 0.52708 0.24956 0.0
C301 C 0.77385 0.55077 0.30985 0.0
H302 H 0.78303 0.58578 0.28604 0.0
H303 H 0.81824 0.54942 0.59885 0.0
O304 O 0.5688 0.50714 0.51282 0.0
C305 C 0.69466 0.50614 0.66997 0.0
Co306 Co 0.47778 0.12803 0.78092 0.0
Co307 Co 0.43337 0.22575 0.79162 0.0
C308 C 0.38518 0.14553 0.87545 0.0
O309 O 0.42024 0.12117 0.85614 0.0
O310 O 0.38161 0.18676 0.84472 0.0
C311 C 0.4937 0.02892 0.76169 0.0
O312 O 0.44919 0.02365 0.76788 0.0
C313 C 0.38357 0.30504 0.70707 0.0
C314 C 0.42847 0.36118 0.75657 0.0
C315 C 0.39222 0.35145 0.69433 0.0
N316 N 0.4146 0.28807 0.77109 0.0
N317 N 0.44047 0.32218 0.80204 0.0
C318 C 0.35008 0.27641 0.65129 0.0
H319 H 0.35884 0.23958 0.65774 0.0
H320 H 0.34921 0.28678 0.57285 0.0
H321 H 0.31541 0.28199 0.68219 0.0
C322 C 0.48733 0.15088 0.5757 0.0
N323 N 0.47062 0.16073 0.66481 0.0
N324 N 0.45845 0.20397 0.66876 0.0
C325 C 0.46911 0.22372 0.58136 0.0
C326 C 0.48666 0.19046 0.51919 0.0
C327 C 0.51065 0.10633 0.55321 0.0
H328 H 0.54194 0.10354 0.59893 0.0
H329 H 0.48759 0.07767 0.57308 0.0
H330 H 0.52085 0.10255 0.4755 0.0
O331 O 0.51954 0.16117 0.86383 0.0
O332 O 0.47909 0.22261 0.90334 0.0
H333 H 0.47627 0.29368 0.62627 0.0
H334 H 0.49079 0.28332 0.4996 0.0
C335 C 0.4671 0.27385 0.55989 0.0
H336 H 0.43209 0.28301 0.53607 0.0
H337 H 0.46845 0.31824 0.84889 0.0
O338 O 0.51075 0.0688 0.76292 0.0
C339 C 0.51174 0.19467 0.92003 0.0
Co340 Co 0.88986 0.97778 0.03093 0.0
Co341 Co 0.79214 0.93335 0.0416 0.0
C342 C 0.87235 0.88518 0.12547 0.0
O343 O 0.8967 0.92024 0.10617 0.0
O344 O 0.83112 0.88159 0.09471 0.0
C345 C 0.98896 0.99369 0.01165 0.0
O346 O 0.99424 0.94918 0.01774 0.0
C347 C 0.71285 0.88356 0.95705 0.0
C348 C 0.65671 0.92848 0.00652 0.0
C349 C 0.66643 0.89222 0.9443 0.0
N350 N 0.72982 0.9146 0.02105 0.0
N351 N 0.69571 0.94047 0.05199 0.0
C352 C 0.74148 0.85006 0.90129 0.0
H353 H 0.7783 0.85882 0.90774 0.0
H354 H 0.7311 0.84918 0.82284 0.0
H355 H 0.73589 0.8154 0.93221 0.0
C356 C 0.86702 0.98732 0.8257 0.0
N357 N 0.85716 0.97061 0.91481 0.0
N358 N 0.81392 0.95843 0.91874 0.0
C359 C 0.79418 0.96909 0.83133 0.0
C360 C 0.82744 0.98664 0.76917 0.0
C361 C 0.91156 0.01064 0.80322 0.0
H362 H 0.91436 0.04193 0.84895 0.0
H363 H 0.94023 0.98758 0.82308 0.0
H364 H 0.91534 0.02085 0.72551 0.0
O365 O 0.8567 0.01954 0.1138 0.0
O366 O 0.79527 0.97908 0.15332 0.0
H367 H 0.72422 0.97625 0.87622 0.0
H368 H 0.73459 0.99076 0.74954 0.0
C369 C 0.74406 0.96708 0.80985 0.0
H370 H 0.73489 0.93207 0.78605 0.0
H371 H 0.69966 0.96846 0.09883 0.0
O372 O 0.94908 0.01074 0.01296 0.0
C373 C 0.82321 0.01174 0.17 0.0
Co374 Co 0.04011 0.38986 0.28089 0.0
Co375 Co 0.08452 0.29213 0.29159 0.0
C376 C 0.13271 0.37235 0.37543 0.0
O377 O 0.09765 0.3967 0.35612 0.0
O378 O 0.13628 0.33111 0.3447 0.0
C379 C 0.0242 0.48896 0.26169 0.0
O380 O 0.0687 0.49423 0.26792 0.0
C381 C 0.13432 0.21284 0.20703 0.0
C382 C 0.08941 0.1567 0.25652 0.0
C383 C 0.12566 0.16642 0.19429 0.0
N384 N 0.10328 0.22981 0.27105 0.0
N385 N 0.07742 0.1957 0.30199 0.0
C386 C 0.16781 0.24147 0.15127 0.0
H387 H 0.15905 0.2783 0.15772 0.0
H388 H 0.16868 0.23109 0.07282 0.0
H389 H 0.20248 0.23589 0.18217 0.0
C390 C 0.03057 0.36701 0.07567 0.0
N391 N 0.04727 0.35715 0.16478 0.0
N392 N 0.05945 0.31391 0.16873 0.0
C393 C 0.04879 0.29417 0.08133 0.0
C394 C 0.03124 0.32743 0.01916 0.0
C395 C 1.00726 0.41156 0.05317 0.0
H396 H 0.97596 0.41435 0.09887 0.0
H397 H 0.03032 0.44022 0.07307 0.0
H398 H 0.99707 0.41534 0.97546 0.0
O399 O 0.99835 0.35671 0.36379 0.0
O400 O 0.0388 0.29527 0.40331 0.0
H401 H 0.04162 0.2242 0.12623 0.0
H402 H 0.0271 0.23457 -0.00044 0.0
C403 C 0.05079 0.24404 0.05985 0.0
H404 H 0.08579 0.23487 0.03604 0.0
H405 H 0.04943 0.19964 0.34884 0.0
O406 O 1.00715 0.44908 0.26289 0.0
C407 C 1.00615 0.32321 0.41999 0.0
Co408 Co 0.38976 0.54003 0.03102 0.0
Co409 Co 0.29207 0.58452 0.04176 0.0
C410 C 0.37234 0.63266 0.12549 0.0
O411 O 0.39666 0.59758 0.10618 0.0
O412 O 0.3311 0.63626 0.09481 0.0
C413 C 0.48884 0.52409 0.01167 0.0
O414 O 0.49412 0.5686 0.01776 0.0
C415 C 0.2128 0.63437 0.95727 0.0
C416 C 0.15663 0.58954 0.00692 0.0
C417 C 0.16636 0.62578 0.94467 0.0
N418 N 0.22976 0.60333 0.02127 0.0
N419 N 0.19564 0.5775 0.0523 0.0
C420 C 0.24144 0.66782 0.90141 0.0
H421 H 0.27826 0.65902 0.90782 0.0
H422 H 0.23104 0.66867 0.82298 0.0
H423 H 0.2359 0.7025 0.93227 0.0
C424 C 0.36689 0.53052 0.82582 0.0
N425 N 0.35705 0.54722 0.91493 0.0
N426 N 0.31382 0.55942 0.9189 0.0
C427 C 0.29406 0.54878 0.8315 0.0
C428 C 0.3273 0.53122 0.76932 0.0
C429 C 0.41143 0.5072 0.80327 0.0
H430 H 0.41422 0.47589 0.84895 0.0
H431 H 0.4401 0.53024 0.82317 0.0
H432 H 0.4152 0.49702 0.72555 0.0
O433 O 0.35659 0.49831 0.11394 0.0
O434 O 0.29518 0.53881 0.15348 0.0
H435 H 0.22409 0.54168 0.87644 0.0
H436 H 0.23445 0.52711 0.74978 0.0
C437 C 0.24393 0.55081 0.81004 0.0
H438 H 0.23479 0.58582 0.78618 0.0
H439 H 0.19957 0.54951 0.09916 0.0
O440 O 0.44896 0.50704 0.013 0.0
C441 C 0.3231 0.50613 0.17015 0.0
Co442 Co 0.47785 0.88975 0.28102 0.0
Co443 Co 0.43336 0.79206 0.29174 0.0
C444 C 0.38523 0.87233 0.37549 0.0
O445 O 0.42031 0.89665 0.35619 0.0
O446 O 0.38162 0.83109 0.34478 0.0
C447 C 0.49381 0.98884 0.2617 0.0
O448 O 0.4493 0.99412 0.26778 0.0
C449 C 0.38353 0.71279 0.20722 0.0
C450 C 0.42838 0.65662 0.25684 0.0
C451 C 0.39215 0.66636 0.19456 0.0
N452 N 0.41457 0.72975 0.27124 0.0
N453 N 0.4404 0.69563 0.30226 0.0
C454 C 0.35007 0.74143 0.15139 0.0
H455 H 0.35885 0.77825 0.15782 0.0
H456 H 0.34921 0.73104 0.07295 0.0
H457 H 0.31539 0.73586 0.18226 0.0
C458 C 0.48737 0.86689 0.07581 0.0
N459 N 0.47067 0.85705 0.16492 0.0
N460 N 0.45846 0.81382 0.16888 0.0
C461 C 0.4691 0.79406 0.08148 0.0
C462 C 0.48667 0.82731 0.0193 0.0
C463 C 0.51069 0.91143 0.05329 0.0
H464 H 0.54199 0.91421 0.09897 0.0
H465 H 0.48765 0.9401 0.07318 0.0
H466 H 0.52088 0.9152 0.97557 0.0
O467 O 0.51958 0.85657 0.36392 0.0
O468 O 0.47907 0.79517 0.40346 0.0
H469 H 0.47621 0.72409 0.1264 0.0
H470 H 0.49077 0.73445 -0.00026 0.0
C471 C 0.46707 0.74393 0.06001 0.0
H472 H 0.43206 0.73479 0.03615 0.0
H473 H 0.46838 0.69957 0.34913 0.0
O474 O 0.51085 0.94895 0.26302 0.0
C475 C 0.51175 0.82309 0.42013 0.0
Co476 Co 0.12814 0.97785 0.531 0.0
Co477 Co 0.22583 0.93335 0.54172 0.0
C478 C 0.14556 0.88522 0.6255 0.0
O479 O 0.12125 0.92031 0.60619 0.0
O480 O 0.1868 0.88161 0.59478 0.0
C481 C 0.02905 0.99379 0.51166 0.0
O482 O 0.02378 0.94928 0.51771 0.0
C483 C 0.3051 0.88352 0.45721 0.0
C484 C 0.36126 0.92837 0.50683 0.0
C485 C 0.35153 0.89214 0.44455 0.0
N486 N 0.28814 0.91456 0.52122 0.0
N487 N 0.32225 0.94039 0.55224 0.0
C488 C 0.27646 0.85005 0.40138 0.0
H489 H 0.23964 0.85883 0.40781 0.0
H490 H 0.28685 0.8492 0.32294 0.0
H491 H 0.28203 0.81537 0.43225 0.0
C492 C 0.15099 0.98735 0.32579 0.0
N493 N 0.16084 0.97065 0.4149 0.0
N494 N 0.20407 0.95845 0.41886 0.0
C495 C 0.22382 0.96909 0.33145 0.0
C496 C 0.19057 0.98665 0.26928 0.0
C497 C 0.10645 0.01068 0.30327 0.0
H498 H 0.10367 0.04198 0.34895 0.0
H499 H 0.07778 0.98764 0.32316 0.0
H500 H 0.10268 0.02086 0.22555 0.0
O501 O 0.16132 0.01959 0.61388 0.0
O502 O 0.22271 0.97906 0.65344 0.0
H503 H 0.29379 0.9762 0.37638 0.0
H504 H 0.28343 0.99075 0.24972 0.0
C505 C 0.27394 0.96706 0.30998 0.0
H506 H 0.28309 0.93205 0.28613 0.0
H507 H 0.31832 0.96837 0.59912 0.0
O508 O 0.06894 0.01084 0.51301 0.0
C509 C 0.1948 0.01175 0.6701 0.0
Co510 Co 0.04006 0.62814 0.78105 0.0
Co511 Co 0.08454 0.72583 0.79178 0.0
C512 C 0.13268 0.64557 0.87553 0.0
O513 O 0.0976 0.62124 0.85623 0.0
O514 O 0.13628 0.68681 0.84484 0.0
C515 C 0.02411 0.52905 0.7617 0.0
O516 O 0.06862 0.52377 0.76775 0.0
C517 C 0.13437 0.8051 0.70723 0.0
C518 C 0.08953 0.86127 0.75687 0.0
C519 C 0.12575 0.85153 0.69458 0.0
N520 N 0.10333 0.78814 0.77127 0.0
N521 N 0.07751 0.82227 0.80229 0.0
C522 C 0.16782 0.77645 0.65139 0.0
H523 H 0.15904 0.73963 0.65785 0.0
H524 H 0.16866 0.78684 0.57295 0.0
H525 H 0.2025 0.78202 0.68224 0.0
C526 C 0.03054 0.65099 0.57584 0.0
N527 N 0.04724 0.66084 0.66496 0.0
N528 N 0.05944 0.70407 0.66891 0.0
C529 C 0.04879 0.72382 0.58152 0.0
C530 C 0.03123 0.69058 0.51934 0.0
C531 C 1.00722 0.60645 0.55332 0.0
H532 H 0.97592 0.60366 0.599 0.0
H533 H 0.03027 0.57778 0.57321 0.0
H534 H 0.99704 0.60268 0.4756 0.0
O535 O 0.99833 0.66131 0.86395 0.0
O536 O 0.03882 0.72272 0.90349 0.0
H537 H 0.04167 0.79379 0.62646 0.0
H538 H 0.0271 0.78344 0.49981 0.0
C539 C 0.0508 0.77396 0.56006 0.0
H540 H 0.08581 0.78311 0.53618 0.0
H541 H 0.04953 0.81834 0.84918 0.0
O542 O 1.00707 0.56893 0.76305 0.0
C543 C 1.00615 0.6948 0.92016 0.0
loop_
_geom_bond_atom_site_label_1
_geom_bond_atom_site_label_2
_geom_bond_distance
_geom_bond_site_symmetry_2
_ccdc_geom_bond_type
Co0 O3 1.970 . S
Co0 N17 1.989 1_554 S
Co0 O25 1.967 . S
Co0 O32 1.920 . S
Co1 O4 1.966 . S
Co1 N10 2.022 . S
Co1 N18 1.993 1_554 S
Co1 O26 1.941 . S
C2 O3 1.258 . S
C2 O4 1.263 . S
O3 Co0 1.970 . S
O3 C2 1.258 . S
O4 Co1 1.966 . S
O4 C2 1.263 . S
C5 O6 1.235 1_554 S
C5 O32 1.289 . S
O6 C5 1.235 1_556 S
C7 C9 1.400 . S
C7 N10 1.351 1_556 S
C7 C12 1.501 . S
C8 C9 1.387 . S
C8 N11 1.341 . S
C9 C7 1.400 . S
C9 C8 1.387 . S
N10 Co1 2.022 . S
N10 C7 1.351 1_554 S
N10 N11 1.365 1_554 S
N11 C8 1.341 . S
N11 N10 1.365 1_556 S
N11 H31 0.862 1_556 S
C12 C7 1.501 . S
C12 H13 0.961 1_556 S
C12 H14 0.961 . S
C12 H15 0.960 1_556 S
H13 C12 0.961 1_554 S
H14 C12 0.961 . S
H15 C12 0.960 1_554 S
C16 N17 1.342 1_565 S
C16 C20 1.401 . S
C16 C21 1.499 . S
N17 Co0 1.989 1_556 S
N17 C16 1.342 1_545 S
N17 N18 1.388 . S
N18 Co1 1.993 1_556 S
N18 N17 1.388 . S
N18 C19 1.346 . S
C19 N18 1.346 . S
C19 C20 1.396 1_545 S
C19 C29 1.510 . S
C20 C16 1.401 . S
C20 C19 1.396 1_565 S
C21 C16 1.499 . S
C21 H22 0.959 . S
C21 H23 0.960 . S
C21 H24 0.961 . S
H22 C21 0.959 . S
H23 C21 0.960 . S
H24 C21 0.961 . S
O25 Co0 1.967 . S
O25 C33 1.258 . S
O26 Co1 1.941 . S
O26 C33 1.266 . S
H27 C29 0.959 . S
H28 C29 0.961 . S
C29 C19 1.510 . S
C29 H27 0.959 . S
C29 H28 0.961 . S
C29 H30 0.960 . S
H30 C29 0.960 . S
H31 N11 0.862 1_554 S
O32 Co0 1.920 . S
O32 C5 1.289 . S
C33 O25 1.258 . S
C33 O26 1.266 . S
Co34 O37 1.970 . S
Co34 N51 1.989 . S
Co34 O59 1.967 . S
Co34 O66 1.920 . S
Co35 O38 1.966 . S
Co35 N44 2.022 . S
Co35 N52 1.993 . S
Co35 O60 1.941 . S
C36 O37 1.258 . S
C36 O38 1.263 . S
O37 Co34 1.970 . S
O37 C36 1.258 . S
O38 Co35 1.966 . S
O38 C36 1.263 . S
C39 O40 1.235 . S
C39 O66 1.289 . S
O40 C39 1.235 . S
C41 C43 1.400 . S
C41 N44 1.351 . S
C41 C46 1.501 . S
C42 C43 1.387 . S
C42 N45 1.341 . S
C43 C41 1.400 . S
C43 C42 1.387 . S
N44 Co35 2.022 . S
N44 C41 1.351 . S
N44 N45 1.365 . S
N45 C42 1.341 . S
N45 N44 1.365 . S
N45 H65 0.862 . S
C46 C41 1.501 . S
C46 H47 0.961 . S
C46 H48 0.961 . S
C46 H49 0.960 . S
H47 C46 0.961 . S
H48 C46 0.961 . S
H49 C46 0.960 . S
C50 N51 1.342 1_455 S
C50 C54 1.401 . S
C50 C55 1.499 . S
N51 Co34 1.989 . S
N51 C50 1.342 1_655 S
N51 N52 1.388 . S
N52 Co35 1.993 . S
N52 N51 1.388 . S
N52 C53 1.346 . S
C53 N52 1.346 . S
C53 C54 1.396 1_655 S
C53 C63 1.510 . S
C54 C50 1.401 . S
C54 C53 1.396 1_455 S
C55 C50 1.499 . S
C55 H56 0.959 . S
C55 H57 0.960 . S
C55 H58 0.961 . S
H56 C55 0.959 . S
H57 C55 0.960 . S
H58 C55 0.961 . S
O59 Co34 1.967 . S
O59 C67 1.258 . S
O60 Co35 1.941 . S
O60 C67 1.266 . S
H61 C63 0.959 . S
H62 C63 0.961 1_556 S
C63 C53 1.510 . S
C63 H61 0.959 . S
C63 H62 0.961 1_554 S
C63 H64 0.960 . S
H64 C63 0.960 . S
H65 N45 0.862 . S
O66 Co34 1.920 . S
O66 C39 1.289 . S
C67 O59 1.258 . S
C67 O60 1.266 . S
Co68 O71 1.970 . S
Co68 N85 1.989 . S
Co68 O93 1.967 . S
Co68 O100 1.920 . S
Co69 O72 1.966 . S
Co69 N78 2.022 . S
Co69 N86 1.993 . S
Co69 O94 1.941 . S
C70 O71 1.258 . S
C70 O72 1.263 . S
O71 Co68 1.970 . S
O71 C70 1.258 . S
O72 Co69 1.966 . S
O72 C70 1.263 . S
C73 O74 1.235 . S
C73 O100 1.289 . S
O74 C73 1.235 . S
C75 C77 1.400 . S
C75 N78 1.351 . S
C75 C80 1.501 . S
C76 C77 1.387 . S
C76 N79 1.341 . S
C77 C75 1.400 . S
C77 C76 1.387 . S
N78 Co69 2.022 . S
N78 C75 1.351 . S
N78 N79 1.365 . S
N79 C76 1.341 . S
N79 N78 1.365 . S
N79 H99 0.862 . S
C80 C75 1.501 . S
C80 H81 0.961 . S
C80 H82 0.961 . S
C80 H83 0.960 . S
H81 C80 0.961 . S
H82 C80 0.961 . S
H83 C80 0.960 . S
C84 N85 1.342 . S
C84 C88 1.401 . S
C84 C89 1.499 . S
N85 Co68 1.989 . S
N85 C84 1.342 . S
N85 N86 1.388 . S
N86 Co69 1.993 . S
N86 N85 1.388 . S
N86 C87 1.346 . S
C87 N86 1.346 . S
C87 C88 1.396 . S
C87 C97 1.510 . S
C88 C84 1.401 . S
C88 C87 1.396 . S
C89 C84 1.499 . S
C89 H90 0.959 . S
C89 H91 0.960 . S
C89 H92 0.961 . S
H90 C89 0.959 . S
H91 C89 0.960 . S
H92 C89 0.961 . S
O93 Co68 1.967 . S
O93 C101 1.258 . S
O94 Co69 1.941 . S
O94 C101 1.266 . S
H95 C97 0.959 . S
H96 C97 0.961 . S
C97 C87 1.510 . S
C97 H95 0.959 . S
C97 H96 0.961 . S
C97 H98 0.960 . S
H98 C97 0.960 . S
H99 N79 0.862 . S
O100 Co68 1.920 . S
O100 C73 1.289 . S
C101 O93 1.258 . S
C101 O94 1.266 . S
Co102 O105 1.970 . S
Co102 N119 1.989 . S
Co102 O127 1.967 . S
Co102 O134 1.920 . S
Co103 O106 1.966 . S
Co103 N112 2.022 . S
Co103 N120 1.993 . S
Co103 O128 1.941 . S
C104 O105 1.258 . S
C104 O106 1.263 . S
O105 Co102 1.970 . S
O105 C104 1.258 . S
O106 Co103 1.966 . S
O106 C104 1.263 . S
C107 O108 1.235 . S
C107 O134 1.289 . S
O108 C107 1.235 . S
C109 C111 1.400 . S
C109 N112 1.351 . S
C109 C114 1.501 . S
C110 C111 1.387 . S
C110 N113 1.341 . S
C111 C109 1.400 . S
C111 C110 1.387 . S
N112 Co103 2.022 . S
N112 C109 1.351 . S
N112 N113 1.365 . S
N113 C110 1.341 . S
N113 N112 1.365 . S
N113 H133 0.862 . S
C114 C109 1.501 . S
C114 H115 0.961 . S
C114 H116 0.961 . S
C114 H117 0.960 . S
H115 C114 0.961 . S
H116 C114 0.961 . S
H117 C114 0.960 . S
C118 N119 1.342 . S
C118 C122 1.401 . S
C118 C123 1.499 . S
N119 Co102 1.989 . S
N119 C118 1.342 . S
N119 N120 1.388 . S
N120 Co103 1.993 . S
N120 N119 1.388 . S
N120 C121 1.346 . S
C121 N120 1.346 . S
C121 C122 1.396 . S
C121 C131 1.510 . S
C122 C118 1.401 . S
C122 C121 1.396 . S
C123 C118 1.499 . S
C123 H124 0.959 . S
C123 H125 0.960 . S
C123 H126 0.961 . S
H124 C123 0.959 . S
H125 C123 0.960 . S
H126 C123 0.961 . S
O127 Co102 1.967 . S
O127 C135 1.258 . S
O128 Co103 1.941 . S
O128 C135 1.266 . S
H129 C131 0.959 . S
H130 C131 0.961 . S
C131 C121 1.510 . S
C131 H129 0.959 . S
C131 H130 0.961 . S
C131 H132 0.960 . S
H132 C131 0.960 . S
H133 N113 0.862 . S
O134 Co102 1.920 . S
O134 C107 1.289 . S
C135 O127 1.258 . S
C135 O128 1.266 . S
Co136 O139 1.970 . S
Co136 N153 1.989 . S
Co136 O161 1.967 . S
Co136 O168 1.920 . S
Co137 O140 1.966 . S
Co137 N146 2.022 . S
Co137 N154 1.993 . S
Co137 O162 1.941 . S
C138 O139 1.258 . S
C138 O140 1.263 . S
O139 Co136 1.970 . S
O139 C138 1.258 . S
O140 Co137 1.966 . S
O140 C138 1.263 . S
C141 O142 1.235 . S
C141 O168 1.289 . S
O142 C141 1.235 . S
C143 C145 1.400 . S
C143 N146 1.351 . S
C143 C148 1.501 . S
C144 C145 1.387 . S
C144 N147 1.341 . S
C145 C143 1.400 . S
C145 C144 1.387 . S
N146 Co137 2.022 . S
N146 C143 1.351 . S
N146 N147 1.365 . S
N147 C144 1.341 . S
N147 N146 1.365 . S
N147 H167 0.862 . S
C148 C143 1.501 . S
C148 H149 0.961 . S
C148 H150 0.961 . S
C148 H151 0.960 . S
H149 C148 0.961 . S
H150 C148 0.961 . S
H151 C148 0.960 . S
C152 N153 1.342 1_565 S
C152 C156 1.401 . S
C152 C157 1.499 . S
N153 Co136 1.989 . S
N153 C152 1.342 1_545 S
N153 N154 1.388 . S
N154 Co137 1.993 . S
N154 N153 1.388 . S
N154 C155 1.346 . S
C155 N154 1.346 . S
C155 C156 1.396 1_545 S
C155 C165 1.510 . S
C156 C152 1.401 . S
C156 C155 1.396 1_565 S
C157 C152 1.499 . S
C157 H158 0.959 . S
C157 H159 0.960 . S
C157 H160 0.961 . S
H158 C157 0.959 . S
H159 C157 0.960 . S
H160 C157 0.961 . S
O161 Co136 1.967 . S
O161 C169 1.258 . S
O162 Co137 1.941 . S
O162 C169 1.266 . S
H163 C165 0.959 . S
H164 C165 0.961 . S
C165 C155 1.510 . S
C165 H163 0.959 . S
C165 H164 0.961 . S
C165 H166 0.960 . S
H166 C165 0.960 . S
H167 N147 0.862 . S
O168 Co136 1.920 . S
O168 C141 1.289 . S
C169 O161 1.258 . S
C169 O162 1.266 . S
Co170 O173 1.970 . S
Co170 N187 1.989 . S
Co170 O195 1.967 . S
Co170 O202 1.920 . S
Co171 O174 1.966 . S
Co171 N180 2.022 . S
Co171 N188 1.993 . S
Co171 O196 1.941 . S
C172 O173 1.258 . S
C172 O174 1.263 . S
O173 Co170 1.970 . S
O173 C172 1.258 . S
O174 Co171 1.966 . S
O174 C172 1.263 . S
C175 O176 1.235 . S
C175 O202 1.289 . S
O176 C175 1.235 . S
C177 C179 1.400 . S
C177 N180 1.351 . S
C177 C182 1.501 . S
C178 C179 1.387 . S
C178 N181 1.341 . S
C179 C177 1.400 . S
C179 C178 1.387 . S
N180 Co171 2.022 . S
N180 C177 1.351 . S
N180 N181 1.365 . S
N181 C178 1.341 . S
N181 N180 1.365 . S
N181 H201 0.862 . S
C182 C177 1.501 . S
C182 H183 0.961 . S
C182 H184 0.961 . S
C182 H185 0.960 . S
H183 C182 0.961 . S
H184 C182 0.961 . S
H185 C182 0.960 . S
C186 N187 1.342 1_455 S
C186 C190 1.401 . S
C186 C191 1.499 . S
N187 Co170 1.989 . S
N187 C186 1.342 1_655 S
N187 N188 1.388 . S
N188 Co171 1.993 . S
N188 N187 1.388 . S
N188 C189 1.346 . S
C189 N188 1.346 . S
C189 C190 1.396 1_655 S
C189 C199 1.510 . S
C190 C186 1.401 . S
C190 C189 1.396 1_455 S
C191 C186 1.499 . S
C191 H192 0.959 . S
C191 H193 0.960 . S
C191 H194 0.961 . S
H192 C191 0.959 . S
H193 C191 0.960 . S
H194 C191 0.961 . S
O195 Co170 1.967 . S
O195 C203 1.258 . S
O196 Co171 1.941 . S
O196 C203 1.266 . S
H197 C199 0.959 . S
H198 C199 0.961 . S
C199 C189 1.510 . S
C199 H197 0.959 . S
C199 H198 0.961 . S
C199 H200 0.960 . S
H200 C199 0.960 . S
H201 N181 0.862 . S
O202 Co170 1.920 . S
O202 C175 1.289 . S
C203 O195 1.258 . S
C203 O196 1.266 . S
Co204 O207 1.970 . S
Co204 N221 1.989 1_554 S
Co204 O229 1.967 . S
Co204 O236 1.920 . S
Co205 O208 1.966 . S
Co205 N214 2.022 . S
Co205 N222 1.993 1_554 S
Co205 O230 1.941 . S
C206 O207 1.258 . S
C206 O208 1.263 . S
O207 Co204 1.970 . S
O207 C206 1.258 . S
O208 Co205 1.966 . S
O208 C206 1.263 . S
C209 O210 1.235 1_554 S
C209 O236 1.289 . S
O210 C209 1.235 1_556 S
C211 C213 1.400 . S
C211 N214 1.351 1_556 S
C211 C216 1.501 . S
C212 C213 1.387 . S
C212 N215 1.341 . S
C213 C211 1.400 . S
C213 C212 1.387 . S
N214 Co205 2.022 . S
N214 C211 1.351 1_554 S
N214 N215 1.365 1_554 S
N215 C212 1.341 . S
N215 N214 1.365 1_556 S
N215 H235 0.862 1_556 S
C216 C211 1.501 . S
C216 H217 0.961 1_556 S
C216 H218 0.961 . S
C216 H219 0.960 1_556 S
H217 C216 0.961 1_554 S
H218 C216 0.961 . S
H219 C216 0.960 1_554 S
C220 N221 1.342 . S
C220 C224 1.401 . S
C220 C225 1.499 . S
N221 Co204 1.989 1_556 S
N221 C220 1.342 . S
N221 N222 1.388 . S
N222 Co205 1.993 1_556 S
N222 N221 1.388 . S
N222 C223 1.346 . S
C223 N222 1.346 . S
C223 C224 1.396 . S
C223 C233 1.510 . S
C224 C220 1.401 . S
C224 C223 1.396 . S
C225 C220 1.499 . S
C225 H226 0.959 . S
C225 H227 0.960 . S
C225 H228 0.961 . S
H226 C225 0.959 . S
H227 C225 0.960 . S
H228 C225 0.961 . S
O229 Co204 1.967 . S
O229 C237 1.258 . S
O230 Co205 1.941 . S
O230 C237 1.266 . S
H231 C233 0.959 . S
H232 C233 0.961 . S
C233 C223 1.510 . S
C233 H231 0.959 . S
C233 H232 0.961 . S
C233 H234 0.960 . S
H234 C233 0.960 . S
H235 N215 0.862 1_554 S
O236 Co204 1.920 . S
O236 C209 1.289 . S
C237 O229 1.258 . S
C237 O230 1.266 . S
Co238 O241 1.970 . S
Co238 N255 1.989 . S
Co238 O263 1.967 . S
Co238 O270 1.920 . S
Co239 O242 1.966 . S
Co239 N248 2.022 . S
Co239 N256 1.993 . S
Co239 O264 1.941 . S
C240 O241 1.258 . S
C240 O242 1.263 . S
O241 Co238 1.970 . S
O241 C240 1.258 . S
O242 Co239 1.966 . S
O242 C240 1.263 . S
C243 O244 1.235 . S
C243 O270 1.289 . S
O244 C243 1.235 . S
C245 C247 1.400 . S
C245 N248 1.351 . S
C245 C250 1.501 . S
C246 C247 1.387 . S
C246 N249 1.341 . S
C247 C245 1.400 . S
C247 C246 1.387 . S
N248 Co239 2.022 . S
N248 C245 1.351 . S
N248 N249 1.365 . S
N249 C246 1.341 . S
N249 N248 1.365 . S
N249 H269 0.862 . S
C250 C245 1.501 . S
C250 H251 0.961 . S
C250 H252 0.961 . S
C250 H253 0.960 . S
H251 C250 0.961 . S
H252 C250 0.961 . S
H253 C250 0.960 . S
C254 N255 1.342 . S
C254 C258 1.401 . S
C254 C259 1.499 . S
N255 Co238 1.989 . S
N255 C254 1.342 . S
N255 N256 1.388 . S
N256 Co239 1.993 . S
N256 N255 1.388 . S
N256 C257 1.346 . S
C257 N256 1.346 . S
C257 C258 1.396 . S
C257 C267 1.510 . S
C258 C254 1.401 . S
C258 C257 1.396 . S
C259 C254 1.499 . S
C259 H260 0.959 . S
C259 H261 0.960 . S
C259 H262 0.961 . S
H260 C259 0.959 . S
H261 C259 0.960 . S
H262 C259 0.961 . S
O263 Co238 1.967 . S
O263 C271 1.258 . S
O264 Co239 1.941 . S
O264 C271 1.266 . S
H265 C267 0.959 . S
H266 C267 0.961 1_556 S
C267 C257 1.510 . S
C267 H265 0.959 . S
C267 H266 0.961 1_554 S
C267 H268 0.960 . S
H268 C267 0.960 . S
H269 N249 0.862 . S
O270 Co238 1.920 . S
O270 C243 1.289 . S
C271 O263 1.258 . S
C271 O264 1.266 . S
Co272 O275 1.970 . S
Co272 N289 1.989 . S
Co272 O297 1.967 . S
Co272 O304 1.920 . S
Co273 O276 1.966 . S
Co273 N282 2.022 . S
Co273 N290 1.993 . S
Co273 O298 1.941 . S
C274 O275 1.258 . S
C274 O276 1.263 . S
O275 Co272 1.970 . S
O275 C274 1.258 . S
O276 Co273 1.966 . S
O276 C274 1.263 . S
C277 O278 1.235 . S
C277 O304 1.289 . S
O278 C277 1.235 . S
C279 C281 1.400 . S
C279 N282 1.351 . S
C279 C284 1.501 . S
C280 C281 1.387 . S
C280 N283 1.341 . S
C281 C279 1.400 . S
C281 C280 1.387 . S
N282 Co273 2.022 . S
N282 C279 1.351 . S
N282 N283 1.365 . S
N283 C280 1.341 . S
N283 N282 1.365 . S
N283 H303 0.862 . S
C284 C279 1.501 . S
C284 H285 0.961 . S
C284 H286 0.961 . S
C284 H287 0.960 . S
H285 C284 0.961 . S
H286 C284 0.961 . S
H287 C284 0.960 . S
C288 N289 1.342 . S
C288 C292 1.401 . S
C288 C293 1.499 . S
N289 Co272 1.989 . S
N289 C288 1.342 . S
N289 N290 1.388 . S
N290 Co273 1.993 . S
N290 N289 1.388 . S
N290 C291 1.346 . S
C291 N290 1.346 . S
C291 C292 1.396 . S
C291 C301 1.510 . S
C292 C288 1.401 . S
C292 C291 1.396 . S
C293 C288 1.499 . S
C293 H294 0.959 . S
C293 H295 0.960 . S
C293 H296 0.961 . S
H294 C293 0.959 . S
H295 C293 0.960 . S
H296 C293 0.961 . S
O297 Co272 1.967 . S
O297 C305 1.258 . S
O298 Co273 1.941 . S
O298 C305 1.266 . S
H299 C301 0.959 . S
H300 C301 0.961 . S
C301 C291 1.510 . S
C301 H299 0.959 . S
C301 H300 0.961 . S
C301 H302 0.960 . S
H302 C301 0.960 . S
H303 N283 0.862 . S
O304 Co272 1.920 . S
O304 C277 1.289 . S
C305 O297 1.258 . S
C305 O298 1.266 . S
Co306 O309 1.970 . S
Co306 N323 1.989 . S
Co306 O331 1.967 . S
Co306 O338 1.920 . S
Co307 O310 1.966 . S
Co307 N316 2.022 . S
Co307 N324 1.993 . S
Co307 O332 1.941 . S
C308 O309 1.258 . S
C308 O310 1.263 . S
O309 Co306 1.970 . S
O309 C308 1.258 . S
O310 Co307 1.966 . S
O310 C308 1.263 . S
C311 O312 1.235 . S
C311 O338 1.289 . S
O312 C311 1.235 . S
C313 C315 1.400 . S
C313 N316 1.351 . S
C313 C318 1.501 . S
C314 C315 1.387 . S
C314 N317 1.341 . S
C315 C313 1.400 . S
C315 C314 1.387 . S
N316 Co307 2.022 . S
N316 C313 1.351 . S
N316 N317 1.365 . S
N317 C314 1.341 . S
N317 N316 1.365 . S
N317 H337 0.862 . S
C318 C313 1.501 . S
C318 H319 0.961 . S
C318 H320 0.961 . S
C318 H321 0.960 . S
H319 C318 0.961 . S
H320 C318 0.961 . S
H321 C318 0.960 . S
C322 N323 1.342 . S
C322 C326 1.401 . S
C322 C327 1.499 . S
N323 Co306 1.989 . S
N323 C322 1.342 . S
N323 N324 1.388 . S
N324 Co307 1.993 . S
N324 N323 1.388 . S
N324 C325 1.346 . S
C325 N324 1.346 . S
C325 C326 1.396 . S
C325 C335 1.510 . S
C326 C322 1.401 . S
C326 C325 1.396 . S
C327 C322 1.499 . S
C327 H328 0.959 . S
C327 H329 0.960 . S
C327 H330 0.961 . S
H328 C327 0.959 . S
H329 C327 0.960 . S
H330 C327 0.961 . S
O331 Co306 1.967 . S
O331 C339 1.258 . S
O332 Co307 1.941 . S
O332 C339 1.266 . S
H333 C335 0.959 . S
H334 C335 0.961 . S
C335 C325 1.510 . S
C335 H333 0.959 . S
C335 H334 0.961 . S
C335 H336 0.960 . S
H336 C335 0.960 . S
H337 N317 0.862 . S
O338 Co306 1.920 . S
O338 C311 1.289 . S
C339 O331 1.258 . S
C339 O332 1.266 . S
Co340 O343 1.970 . S
Co340 N357 1.989 1_554 S
Co340 O365 1.967 . S
Co340 O372 1.920 . S
Co341 O344 1.966 . S
Co341 N350 2.022 . S
Co341 N358 1.993 1_554 S
Co341 O366 1.941 . S
C342 O343 1.258 . S
C342 O344 1.263 . S
O343 Co340 1.970 . S
O343 C342 1.258 . S
O344 Co341 1.966 . S
O344 C342 1.263 . S
C345 O346 1.235 1_554 S
C345 O372 1.289 . S
O346 C345 1.235 1_556 S
C347 C349 1.400 . S
C347 N350 1.351 1_556 S
C347 C352 1.501 . S
C348 C349 1.387 . S
C348 N351 1.341 . S
C349 C347 1.400 . S
C349 C348 1.387 . S
N350 Co341 2.022 . S
N350 C347 1.351 1_554 S
N350 N351 1.365 1_554 S
N351 C348 1.341 . S
N351 N350 1.365 1_556 S
N351 H371 0.862 1_556 S
C352 C347 1.501 . S
C352 H353 0.961 1_556 S
C352 H354 0.961 . S
C352 H355 0.960 1_556 S
H353 C352 0.961 1_554 S
H354 C352 0.961 . S
H355 C352 0.960 1_554 S
C356 N357 1.342 1_545 S
C356 C360 1.401 . S
C356 C361 1.499 . S
N357 Co340 1.989 1_556 S
N357 C356 1.342 1_565 S
N357 N358 1.388 . S
N358 Co341 1.993 1_556 S
N358 N357 1.388 . S
N358 C359 1.346 . S
C359 N358 1.346 . S
C359 C360 1.396 1_565 S
C359 C369 1.510 . S
C360 C356 1.401 . S
C360 C359 1.396 1_545 S
C361 C356 1.499 . S
C361 H362 0.959 . S
C361 H363 0.960 . S
C361 H364 0.961 . S
H362 C361 0.959 . S
H363 C361 0.960 . S
H364 C361 0.961 . S
O365 Co340 1.967 . S
O365 C373 1.258 . S
O366 Co341 1.941 . S
O366 C373 1.266 . S
H367 C369 0.959 . S
H368 C369 0.961 . S
C369 C359 1.510 . S
C369 H367 0.959 . S
C369 H368 0.961 . S
C369 H370 0.960 . S
H370 C369 0.960 . S
H371 N351 0.862 1_554 S
O372 Co340 1.920 . S
O372 C345 1.289 . S
C373 O365 1.258 . S
C373 O366 1.266 . S
Co374 O377 1.970 . S
Co374 N391 1.989 . S
Co374 O399 1.967 . S
Co374 O406 1.920 . S
Co375 O378 1.966 . S
Co375 N384 2.022 . S
Co375 N392 1.993 . S
Co375 O400 1.941 . S
C376 O377 1.258 . S
C376 O378 1.263 . S
O377 Co374 1.970 . S
O377 C376 1.258 . S
O378 Co375 1.966 . S
O378 C376 1.263 . S
C379 O380 1.235 . S
C379 O406 1.289 . S
O380 C379 1.235 . S
C381 C383 1.400 . S
C381 N384 1.351 . S
C381 C386 1.501 . S
C382 C383 1.387 . S
C382 N385 1.341 . S
C383 C381 1.400 . S
C383 C382 1.387 . S
N384 Co375 2.022 . S
N384 C381 1.351 . S
N384 N385 1.365 . S
N385 C382 1.341 . S
N385 N384 1.365 . S
N385 H405 0.862 . S
C386 C381 1.501 . S
C386 H387 0.961 . S
C386 H388 0.961 . S
C386 H389 0.960 . S
H387 C386 0.961 . S
H388 C386 0.961 . S
H389 C386 0.960 . S
C390 N391 1.342 1_655 S
C390 C394 1.401 . S
C390 C395 1.499 . S
N391 Co374 1.989 . S
N391 C390 1.342 1_455 S
N391 N392 1.388 . S
N392 Co375 1.993 . S
N392 N391 1.388 . S
N392 C393 1.346 . S
C393 N392 1.346 . S
C393 C394 1.396 1_455 S
C393 C403 1.510 . S
C394 C390 1.401 . S
C394 C393 1.396 1_655 S
C395 C390 1.499 . S
C395 H396 0.959 . S
C395 H397 0.960 . S
C395 H398 0.961 . S
H396 C395 0.959 . S
H397 C395 0.960 . S
H398 C395 0.961 . S
O399 Co374 1.967 . S
O399 C407 1.258 . S
O400 Co375 1.941 . S
O400 C407 1.266 . S
H401 C403 0.959 . S
H402 C403 0.961 1_556 S
C403 C393 1.510 . S
C403 H401 0.959 . S
C403 H402 0.961 1_554 S
C403 H404 0.960 . S
H404 C403 0.960 . S
H405 N385 0.862 . S
O406 Co374 1.920 . S
O406 C379 1.289 . S
C407 O399 1.258 . S
C407 O400 1.266 . S
Co408 O411 1.970 . S
Co408 N425 1.989 1_554 S
Co408 O433 1.967 . S
Co408 O440 1.920 . S
Co409 O412 1.966 . S
Co409 N418 2.022 . S
Co409 N426 1.993 1_554 S
Co409 O434 1.941 . S
C410 O411 1.258 . S
C410 O412 1.263 . S
O411 Co408 1.970 . S
O411 C410 1.258 . S
O412 Co409 1.966 . S
O412 C410 1.263 . S
C413 O414 1.235 1_554 S
C413 O440 1.289 . S
O414 C413 1.235 1_556 S
C415 C417 1.400 . S
C415 N418 1.351 1_556 S
C415 C420 1.501 . S
C416 C417 1.387 . S
C416 N419 1.341 . S
C417 C415 1.400 . S
C417 C416 1.387 . S
N418 Co409 2.022 . S
N418 C415 1.351 1_554 S
N418 N419 1.365 1_554 S
N419 C416 1.341 . S
N419 N418 1.365 1_556 S
N419 H439 0.862 1_556 S
C420 C415 1.501 . S
C420 H421 0.961 1_556 S
C420 H422 0.961 . S
C420 H423 0.960 1_556 S
H421 C420 0.961 1_554 S
H422 C420 0.961 . S
H423 C420 0.960 1_554 S
C424 N425 1.342 . S
C424 C428 1.401 . S
C424 C429 1.499 . S
N425 Co408 1.989 1_556 S
N425 C424 1.342 . S
N425 N426 1.388 . S
N426 Co409 1.993 1_556 S
N426 N425 1.388 . S
N426 C427 1.346 . S
C427 N426 1.346 . S
C427 C428 1.396 . S
C427 C437 1.510 . S
C428 C424 1.401 . S
C428 C427 1.396 . S
C429 C424 1.499 . S
C429 H430 0.959 . S
C429 H431 0.960 . S
C429 H432 0.961 . S
H430 C429 0.959 . S
H431 C429 0.960 . S
H432 C429 0.961 . S
O433 Co408 1.967 . S
O433 C441 1.258 . S
O434 Co409 1.941 . S
O434 C441 1.266 . S
H435 C437 0.959 . S
H436 C437 0.961 . S
C437 C427 1.510 . S
C437 H435 0.959 . S
C437 H436 0.961 . S
C437 H438 0.960 . S
H438 C437 0.960 . S
H439 N419 0.862 1_554 S
O440 Co408 1.920 . S
O440 C413 1.289 . S
C441 O433 1.258 . S
C441 O434 1.266 . S
Co442 O445 1.970 . S
Co442 N459 1.989 . S
Co442 O467 1.967 . S
Co442 O474 1.920 . S
Co443 O446 1.966 . S
Co443 N452 2.022 . S
Co443 N460 1.993 . S
Co443 O468 1.941 . S
C444 O445 1.258 . S
C444 O446 1.263 . S
O445 Co442 1.970 . S
O445 C444 1.258 . S
O446 Co443 1.966 . S
O446 C444 1.263 . S
C447 O448 1.235 . S
C447 O474 1.289 . S
O448 C447 1.235 . S
C449 C451 1.400 . S
C449 N452 1.351 . S
C449 C454 1.501 . S
C450 C451 1.387 . S
C450 N453 1.341 . S
C451 C449 1.400 . S
C451 C450 1.387 . S
N452 Co443 2.022 . S
N452 C449 1.351 . S
N452 N453 1.365 . S
N453 C450 1.341 . S
N453 N452 1.365 . S
N453 H473 0.862 . S
C454 C449 1.501 . S
C454 H455 0.961 . S
C454 H456 0.961 . S
C454 H457 0.960 . S
H455 C454 0.961 . S
H456 C454 0.961 . S
H457 C454 0.960 . S
C458 N459 1.342 . S
C458 C462 1.401 . S
C458 C463 1.499 . S
N459 Co442 1.989 . S
N459 C458 1.342 . S
N459 N460 1.388 . S
N460 Co443 1.993 . S
N460 N459 1.388 . S
N460 C461 1.346 . S
C461 N460 1.346 . S
C461 C462 1.396 . S
C461 C471 1.510 . S
C462 C458 1.401 . S
C462 C461 1.396 . S
C463 C458 1.499 . S
C463 H464 0.959 . S
C463 H465 0.960 . S
C463 H466 0.961 . S
H464 C463 0.959 . S
H465 C463 0.960 . S
H466 C463 0.961 . S
O467 Co442 1.967 . S
O467 C475 1.258 . S
O468 Co443 1.941 . S
O468 C475 1.266 . S
H469 C471 0.959 . S
H470 C471 0.961 1_556 S
C471 C461 1.510 . S
C471 H469 0.959 . S
C471 H470 0.961 1_554 S
C471 H472 0.960 . S
H472 C471 0.960 . S
H473 N453 0.862 . S
O474 Co442 1.920 . S
O474 C447 1.289 . S
C475 O467 1.258 . S
C475 O468 1.266 . S
Co476 O479 1.970 . S
Co476 N493 1.989 . S
Co476 O501 1.967 . S
Co476 O508 1.920 . S
Co477 O480 1.966 . S
Co477 N486 2.022 . S
Co477 N494 1.993 . S
Co477 O502 1.941 . S
C478 O479 1.258 . S
C478 O480 1.263 . S
O479 Co476 1.970 . S
O479 C478 1.258 . S
O480 Co477 1.966 . S
O480 C478 1.263 . S
C481 O482 1.235 . S
C481 O508 1.289 . S
O482 C481 1.235 . S
C483 C485 1.400 . S
C483 N486 1.351 . S
C483 C488 1.501 . S
C484 C485 1.387 . S
C484 N487 1.341 . S
C485 C483 1.400 . S
C485 C484 1.387 . S
N486 Co477 2.022 . S
N486 C483 1.351 . S
N486 N487 1.365 . S
N487 C484 1.341 . S
N487 N486 1.365 . S
N487 H507 0.862 . S
C488 C483 1.501 . S
C488 H489 0.961 . S
C488 H490 0.961 . S
C488 H491 0.960 . S
H489 C488 0.961 . S
H490 C488 0.961 . S
H491 C488 0.960 . S
C492 N493 1.342 1_545 S
C492 C496 1.401 . S
C492 C497 1.499 . S
N493 Co476 1.989 . S
N493 C492 1.342 1_565 S
N493 N494 1.388 . S
N494 Co477 1.993 . S
N494 N493 1.388 . S
N494 C495 1.346 . S
C495 N494 1.346 . S
C495 C496 1.396 1_565 S
C495 C505 1.510 . S
C496 C492 1.401 . S
C496 C495 1.396 1_545 S
C497 C492 1.499 . S
C497 H498 0.959 . S
C497 H499 0.960 . S
C497 H500 0.961 . S
H498 C497 0.959 . S
H499 C497 0.960 . S
H500 C497 0.961 . S
O501 Co476 1.967 . S
O501 C509 1.258 . S
O502 Co477 1.941 . S
O502 C509 1.266 . S
H503 C505 0.959 . S
H504 C505 0.961 . S
C505 C495 1.510 . S
C505 H503 0.959 . S
C505 H504 0.961 . S
C505 H506 0.960 . S
H506 C505 0.960 . S
H507 N487 0.862 . S
O508 Co476 1.920 . S
O508 C481 1.289 . S
C509 O501 1.258 . S
C509 O502 1.266 . S
Co510 O513 1.970 . S
Co510 N527 1.989 . S
Co510 O535 1.967 . S
Co510 O542 1.920 . S
Co511 O514 1.966 . S
Co511 N520 2.022 . S
Co511 N528 1.993 . S
Co511 O536 1.941 . S
C512 O513 1.258 . S
C512 O514 1.263 . S
O513 Co510 1.970 . S
O513 C512 1.258 . S
O514 Co511 1.966 . S
O514 C512 1.263 . S
C515 O516 1.235 . S
C515 O542 1.289 . S
O516 C515 1.235 . S
C517 C519 1.400 . S
C517 N520 1.351 . S
C517 C522 1.501 . S
C518 C519 1.387 . S
C518 N521 1.341 . S
C519 C517 1.400 . S
C519 C518 1.387 . S
N520 Co511 2.022 . S
N520 C517 1.351 . S
N520 N521 1.365 . S
N521 C518 1.341 . S
N521 N520 1.365 . S
N521 H541 0.862 . S
C522 C517 1.501 . S
C522 H523 0.961 . S
C522 H524 0.961 . S
C522 H525 0.960 . S
H523 C522 0.961 . S
H524 C522 0.961 . S
H525 C522 0.960 . S
C526 N527 1.342 1_655 S
C526 C530 1.401 . S
C526 C531 1.499 . S
N527 Co510 1.989 . S
N527 C526 1.342 1_455 S
N527 N528 1.388 . S
N528 Co511 1.993 . S
N528 N527 1.388 . S
N528 C529 1.346 . S
C529 N528 1.346 . S
C529 C530 1.396 1_455 S
C529 C539 1.510 . S
C530 C526 1.401 . S
C530 C529 1.396 1_655 S
C531 C526 1.499 . S
C531 H532 0.959 . S
C531 H533 0.960 . S
C531 H534 0.961 . S
H532 C531 0.959 . S
H533 C531 0.960 . S
H534 C531 0.961 . S
O535 Co510 1.967 . S
O535 C543 1.258 . S
O536 Co511 1.941 . S
O536 C543 1.266 . S
H537 C539 0.959 . S
H538 C539 0.961 . S
C539 C529 1.510 . S
C539 H537 0.959 . S
C539 H538 0.961 . S
C539 H540 0.960 . S
H540 C539 0.960 . S
H541 N521 0.862 . S
O542 Co510 1.920 . S
O542 C515 1.289 . S
C543 O535 1.258 . S
C543 O536 1.266 . S
C345 C5 1.823 1_665 S
C39 C379 1.823 1_655 S
C277 C73 1.823 . S
C107 C311 1.823 1_565 S
C481 C141 1.823 1_465 S
C175 C515 1.823 1_655 S
C209 C413 1.823 . S
C447 C243 1.823 1_565 S
C496 C33 1.243 . S
C530 C67 1.244 . S
C101 C428 1.243 . S
C462 C135 1.243 1_554 S
C169 C360 1.243 . S
C203 C394 1.243 1_556 S
C292 C237 1.243 . S
C271 C326 1.243 . S
C224 C305 1.243 . S
C258 C339 1.243 1_554 S
C156 C373 1.243 . S
C407 C190 1.244 . S
C441 C88 1.243 . S
C475 C122 1.243 . S
C509 C20 1.243 . S
C54 C543 1.243 1_554 S
C383 C2 1.675 . S
C36 C281 1.675 . S
C70 C315 1.675 . S
C104 C349 1.674 . S
C179 C138 1.675 . S
C172 C213 1.674 . S
C247 C206 1.675 . S
C240 C145 1.674 . S
C111 C274 1.675 . S
C308 C9 1.674 . S
C342 C43 1.675 . S
C77 C376 1.675 . S
C451 C410 1.675 . S
C485 C444 1.674 . S
C478 C519 1.675 . S
C417 C512 1.674 . S
