# Generated by pormake.
# Topology sml, (6)-cn, num edge types: 1
# Building blocks:
#     Node 0, Type 0, BuildingBlock: PAMTUU_clean_sbu_0, # of connection points: 6
#     Node 1, Type 0, BuildingBlock: PAMTUU_clean_sbu_0, # of connection points: 6
#     Node 2, Type 0, BuildingBlock: PAMTUU_clean_sbu_0, # of connection points: 6
#     Node 3, Type 0, BuildingBlock: PAMTUU_clean_sbu_0, # of connection points: 6
#     Node 4, Type 0, BuildingBlock: PAMTUU_clean_sbu_0, # of connection points: 6
#     Node 5, Type 0, BuildingBlock: PAMTUU_clean_sbu_0, # of connection points: 6
#     Edge 6, Type (0, 0), BuildingBlock: KIFKEQ_clean_linker_1, # of connection points: 2
#     Edge 7, Type (0, 0), BuildingBlock: KIFKEQ_clean_linker_1, # of connection points: 2
#     Edge 8, Type (0, 0), BuildingBlock: KIFKEQ_clean_linker_1, # of connection points: 2
#     Edge 9, Type (0, 0), BuildingBlock: KIFKEQ_clean_linker_1, # of connection points: 2
#     Edge 10, Type (0, 0), BuildingBlock: KIFKEQ_clean_linker_1, # of connection points: 2
#     Edge 11, Type (0, 0), BuildingBlock: KIFKEQ_clean_linker_1, # of connection points: 2
#     Edge 12, Type (0, 0), BuildingBlock: KIFKEQ_clean_linker_1, # of connection points: 2
#     Edge 13, Type (0, 0), BuildingBlock: KIFKEQ_clean_linker_1, # of connection points: 2
#     Edge 14, Type (0, 0), BuildingBlock: KIFKEQ_clean_linker_1, # of connection points: 2
#     Edge 15, Type (0, 0), BuildingBlock: KIFKEQ_clean_linker_1, # of connection points: 2
#     Edge 16, Type (0, 0), BuildingBlock: KIFKEQ_clean_linker_1, # of connection points: 2
#     Edge 17, Type (0, 0), BuildingBlock: KIFKEQ_clean_linker_1, # of connection points: 2
#     Edge 18, Type (0, 0), BuildingBlock: KIFKEQ_clean_linker_1, # of connection points: 2
#     Edge 19, Type (0, 0), BuildingBlock: KIFKEQ_clean_linker_1, # of connection points: 2
#     Edge 20, Type (0, 0), BuildingBlock: KIFKEQ_clean_linker_1, # of connection points: 2
#     Edge 21, Type (0, 0), BuildingBlock: KIFKEQ_clean_linker_1, # of connection points: 2
#     Edge 22, Type (0, 0), BuildingBlock: KIFKEQ_clean_linker_1, # of connection points: 2
#     Edge 23, Type (0, 0), BuildingBlock: KIFKEQ_clean_linker_1, # of connection points: 2
# Relax obj value: 0.190
# Max RMSD: 0.232
# Mean RMSD: 0.232
data_MOF--net-sml--node1-PAMTUU_clean_sbu_0--edge1-KIFKEQ_clean_linker_1
_symmetry_space_group_name_H-M    P1
_symmetry_Int_Tables_number       1
_symmetry_cell_setting            triclinic
loop_
_symmetry_equiv_pos_as_xyz
'x, y, z'
_cell_length_a     33.712491
_cell_length_b     33.737319
_cell_length_c     25.279824
_cell_angle_alpha  89.777947
_cell_angle_beta   90.033428
_cell_angle_gamma 119.97462
loop_
_atom_site_label
_atom_site_type_symbol
_atom_site_fract_x
_atom_site_fract_y
_atom_site_fract_z
_atom_type_partial_charge
Tb0 Tb 0.2446 0.40961 0.10583 0.0
Tb1 Tb 0.1876 0.4129 0.99914 0.0
C2 C 0.29351 0.46169 1.00134 0.0
C3 C 0.27141 0.4062 0.24718 0.0
C4 C 0.24928 0.40417 0.35569 0.0
C5 C 0.28633 0.39871 0.33986 0.0
C6 C 0.29731 0.39982 0.28617 0.0
C7 C 0.2341 0.41116 0.26261 0.0
C8 C 0.22324 0.41031 0.31628 0.0
C9 C 0.28362 0.40804 0.19072 0.0
O10 O 0.21187 0.4478 0.12771 0.0
O11 O 0.20554 0.47407 0.04602 0.0
O12 O 0.13638 0.38485 0.06106 0.0
O13 O 0.17261 0.35861 0.11691 0.0
O14 O 0.18423 0.45289 0.93749 0.0
O15 O 0.13613 0.38044 0.94132 0.0
O16 O 0.18663 0.34803 0.99939 0.0
O17 O 0.25204 0.36745 0.04683 0.0
O18 O 0.29348 0.46429 0.05332 0.0
O19 O 0.25662 0.43322 0.97549 0.0
C20 C 0.2073 0.47706 0.09802 0.0
O21 O 0.25733 0.37173 0.16291 0.0
O22 O 0.29266 0.44543 0.16547 0.0
C23 C 0.13597 0.36002 0.10156 0.0
C24 C 0.16176 0.41326 0.8561 0.0
C25 C 0.1792 0.40775 0.74723 0.0
C26 C 0.13434 0.39237 0.76566 0.0
C27 C 0.12579 0.3952 0.81942 0.0
C28 C 0.20648 0.42793 0.83818 0.0
C29 C 0.21511 0.42536 0.78444 0.0
C30 C 0.15244 0.41748 0.91249 0.0
C31 C 0.22062 0.34139 1.0124 0.0
H32 H 0.30743 0.3944 0.36904 0.0
H33 H 0.32624 0.39596 0.2751 0.0
H34 H 0.21342 0.4158 0.23312 0.0
H35 H 0.19413 0.41399 0.32687 0.0
H36 H 0.10563 0.37783 0.73861 0.0
H37 H 0.091 0.38343 0.83232 0.0
H38 H 0.23491 0.44195 0.86562 0.0
H39 H 0.25017 0.43813 0.772 0.0
Tb40 Tb 0.80386 0.24922 0.42133 0.0
Tb41 Tb 0.74296 0.18502 0.31741 0.0
C42 C 0.79113 0.29143 0.31784 0.0
C43 C 0.82641 0.28132 0.56336 0.0
C44 C 0.80394 0.26189 0.67263 0.0
C45 C 0.8399 0.3049 0.65581 0.0
C46 C 0.85104 0.31437 0.60195 0.0
C47 C 0.78988 0.23876 0.57955 0.0
C48 C 0.77889 0.22909 0.63342 0.0
C49 C 0.83996 0.29089 0.50679 0.0
O50 O 0.73431 0.23715 0.42217 0.0
O51 O 0.69393 0.16749 0.38181 0.0
O52 O 0.75227 0.13817 0.36883 0.0
O53 O 0.76903 0.17853 0.44708 0.0
O54 O 0.69169 0.17117 0.26072 0.0
O55 O 0.73331 0.1394 0.25578 0.0
O56 O 0.81427 0.22073 0.29445 0.0
O57 O 0.85256 0.23965 0.37428 0.0
O58 O 0.82085 0.29652 0.35478 0.0
O59 O 0.75189 0.25321 0.31387 0.0
C60 C 0.69705 0.19707 0.41769 0.0
O61 O 0.84993 0.26242 0.48381 0.0
O62 O 0.81458 0.30051 0.47638 0.0
C63 C 0.75713 0.14076 0.42069 0.0
C64 C 0.71385 0.16112 0.1748 0.0
C65 C 0.73298 0.18523 0.06595 0.0
C66 C 0.68884 0.15175 0.08276 0.0
C67 C 0.67948 0.13978 0.13647 0.0
C68 C 0.75774 0.19514 0.15843 0.0
C69 C 0.76725 0.20688 0.1047 0.0
C70 C 0.70386 0.14732 0.23134 0.0
C71 C 0.85122 0.23308 0.32282 0.0
H72 H 0.8595 0.33154 0.68422 0.0
H73 H 0.8792 0.34753 0.59048 0.0
H74 H 0.77022 0.21272 0.55052 0.0
H75 H 0.75135 0.19542 0.64427 0.0
H76 H 0.66166 0.13404 0.05422 0.0
H77 H 0.64537 0.11349 0.14804 0.0
H78 H 0.7848 0.2125 0.1872 0.0
H79 H 0.80142 0.23325 0.09355 0.0
Tb80 Tb 0.55552 0.80769 0.74211 0.0
Tb81 Tb 0.55138 0.74373 0.63776 0.0
C82 C 0.49507 0.79411 0.64341 0.0
C83 C 0.55181 0.83343 0.88454 0.0
C84 C 0.54675 0.8097 0.9936 0.0
C85 C 0.55801 0.85427 0.97774 0.0
C86 C 0.56046 0.86591 0.92396 0.0
C87 C 0.54055 0.78893 0.89988 0.0
C88 C 0.53793 0.77716 0.95368 0.0
C89 C 0.55569 0.84661 0.82784 0.0
O90 O 0.49728 0.73893 0.74828 0.0
O91 O 0.5223 0.69622 0.70434 0.0
O92 O 0.61141 0.75579 0.68299 0.0
O93 O 0.59205 0.7727 0.76391 0.0
O94 O 0.51147 0.6926 0.58236 0.0
O95 O 0.58494 0.73122 0.57543 0.0
O96 O 0.58471 0.81414 0.6114 0.0
O97 O 0.61071 0.85438 0.68941 0.0
O98 O 0.5221 0.82397 0.67874 0.0
O99 O 0.49295 0.7544 0.63813 0.0
C100 C 0.49819 0.70075 0.7424 0.0
O101 O 0.59263 0.85318 0.80357 0.0
O102 O 0.51939 0.82307 0.79869 0.0
C103 C 0.61729 0.762 0.73439 0.0
C104 C 0.54318 0.71189 0.49551 0.0
C105 C 0.5416 0.73253 0.38648 0.0
C106 C 0.55467 0.70067 0.4027 0.0
C107 C 0.55542 0.69051 0.45647 0.0
C108 C 0.52986 0.74356 0.47974 0.0
C109 C 0.52885 0.75359 0.42587 0.0
C110 C 0.54672 0.70253 0.55227 0.0
C111 C 0.61133 0.85189 0.63738 0.0
H112 H 0.56582 0.8806 1.00687 0.0
H113 H 0.56954 0.90054 0.91315 0.0
H114 H 0.5339 0.76327 0.87019 0.0
H115 H 0.52857 0.74237 0.96391 0.0
H116 H 0.56412 0.68326 0.37376 0.0
H117 H 0.566 0.66614 0.4676 0.0
H118 H 0.5208 0.76098 0.50914 0.0
H119 H 0.51909 0.77866 0.41519 0.0
Tb120 Tb 0.77061 0.58129 0.05511 0.0
Tb121 Tb 0.82471 0.57606 0.9475 0.0
C122 C 0.71954 0.51623 0.95954 0.0
C123 C 0.74672 0.58601 0.19757 0.0
C124 C 0.76882 0.58808 0.30594 0.0
C125 C 0.73543 0.59896 0.28958 0.0
C126 C 0.72443 0.59779 0.23592 0.0
C127 C 0.78072 0.57604 0.21354 0.0
C128 C 0.79154 0.57691 0.26716 0.0
C129 C 0.73334 0.5827 0.14142 0.0
O130 O 0.81424 0.55489 0.07928 0.0
O131 O 0.81587 0.52102 1.00159 0.0
O132 O 0.87718 0.61456 1.00535 0.0
O133 O 0.83818 0.64221 0.05269 0.0
O134 O 0.8309 0.53611 0.8882 0.0
O135 O 0.87587 0.60936 0.88963 0.0
O136 O 0.811 0.63226 0.93621 0.0
O137 O 0.74996 0.61118 0.99281 0.0
O138 O 0.72373 0.51949 1.01133 0.0
O139 O 0.75306 0.54321 0.92805 0.0
C140 C 0.82001 0.52465 0.05348 0.0
O141 O 0.75754 0.61883 0.11211 0.0
O142 O 0.72559 0.54541 0.11734 0.0
C143 C 0.87645 0.64336 0.03955 0.0
C144 C 0.85245 0.5746 0.80589 0.0
C145 C 0.83523 0.57962 0.69706 0.0
C146 C 0.8791 0.59018 0.71472 0.0
C147 C 0.88754 0.58761 0.76853 0.0
C148 C 0.80878 0.56457 0.78876 0.0
C149 C 0.80021 0.56687 0.73494 0.0
C150 C 0.8618 0.57189 0.86246 0.0
C151 C 0.77503 0.63464 0.95205 0.0
H152 H 0.71699 0.60731 0.31837 0.0
H153 H 0.69804 0.60551 0.22443 0.0
H154 H 0.79856 0.56709 0.18459 0.0
H155 H 0.81785 0.56897 0.27824 0.0
H156 H 0.90716 0.60093 0.68704 0.0
H157 H 0.92157 0.59587 0.781 0.0
H158 H 0.78118 0.55466 0.81697 0.0
H159 H 0.76589 0.55793 0.72301 0.0
Tb160 Tb 0.18965 0.78199 0.39181 0.0
Tb161 Tb 0.24615 0.84346 0.28503 0.0
C162 C 0.20822 0.73806 0.29129 0.0
C163 C 0.16193 0.75609 0.53489 0.0
C164 C 0.18033 0.78004 0.64336 0.0
C165 C 0.15445 0.73389 0.62774 0.0
C166 C 0.14537 0.72213 0.57421 0.0
C167 C 0.18784 0.8022 0.54995 0.0
C168 C 0.19683 0.81406 0.60357 0.0
C169 C 0.15339 0.74273 0.47851 0.0
O170 O 0.25961 0.82772 0.41461 0.0
O171 O 0.29518 0.83559 0.33478 0.0
O172 O 0.25801 0.89156 0.34797 0.0
O173 O 0.1896 0.84629 0.38921 0.0
O174 O 0.29366 0.8569 0.22407 0.0
O175 O 0.25739 0.89431 0.22889 0.0
O176 O 0.17439 0.82495 0.27905 0.0
O177 O 0.13925 0.75907 0.32942 0.0
O178 O 0.20563 0.73813 0.34336 0.0
O179 O 0.21374 0.77268 0.26221 0.0
C180 C 0.2959 0.83662 0.38689 0.0
O181 O 0.13797 0.76389 0.44898 0.0
O182 O 0.18559 0.73899 0.45454 0.0
C183 C 0.22667 0.88618 0.38262 0.0
C184 C 0.27194 0.87582 0.14339 0.0
C185 C 0.25104 0.85625 0.03451 0.0
C186 C 0.29327 0.89346 0.05064 0.0
C187 C 0.30356 0.9031 0.10446 0.0
C188 C 0.22965 0.83881 0.12771 0.0
C189 C 0.21925 0.8292 0.07387 0.0
C190 C 0.28396 0.88526 0.20003 0.0
C191 C 0.13826 0.78552 0.29175 0.0
H192 H 0.14184 0.70662 0.65682 0.0
H193 H 0.12574 0.68633 0.56346 0.0
H194 H 0.20125 0.82904 0.52023 0.0
H195 H 0.21642 0.84995 0.61381 0.0
H196 H 0.31835 0.91544 0.02163 0.0
H197 H 0.33639 0.93179 0.11569 0.0
H198 H 0.20483 0.81708 0.15714 0.0
H199 H 0.18665 0.79998 0.06312 0.0
Tb200 Tb 0.40326 0.14578 0.78269 0.0
Tb201 Tb 0.3976 0.20112 0.6758 0.0
C202 C 0.45658 0.15413 0.67769 0.0
C203 C 0.40403 0.11793 0.92439 0.0
C204 C 0.39914 0.13612 0.03283 0.0
C205 C 0.39476 0.09417 0.01674 0.0
C206 C 0.39728 0.08525 0.96308 0.0
C207 C 0.40782 0.15959 0.94006 0.0
C208 C 0.40558 0.16867 0.9937 0.0
C209 C 0.40731 0.10851 0.86798 0.0
O210 O 0.43422 0.21704 0.80346 0.0
O211 O 0.45806 0.24875 0.72101 0.0
O212 O 0.3659 0.21949 0.73812 0.0
O213 O 0.34525 0.15671 0.79193 0.0
O214 O 0.43271 0.24721 0.61401 0.0
O215 O 0.35904 0.21218 0.61785 0.0
O216 O 0.33679 0.13387 0.68055 0.0
O217 O 0.36646 0.09439 0.72292 0.0
O218 O 0.45957 0.1573 0.72964 0.0
O219 O 0.42573 0.15902 0.6517 0.0
C220 C 0.46082 0.25163 0.77291 0.0
O221 O 0.37004 0.09409 0.84013 0.0
O222 O 0.4431 0.13975 0.84262 0.0
C223 C 0.34197 0.19251 0.77751 0.0
C224 C 0.39296 0.22503 0.53275 0.0
C225 C 0.39139 0.20376 0.42396 0.0
C226 C 0.37444 0.23216 0.44135 0.0
C227 C 0.3753 0.24269 0.49509 0.0
C228 C 0.40925 0.1961 0.51588 0.0
C229 C 0.4086 0.1857 0.46215 0.0
C230 C 0.39513 0.23773 0.58911 0.0
C231 C 0.33692 0.09568 0.69007 0.0
H232 H 0.3902 0.0685 0.04572 0.0
H233 H 0.39423 0.05288 0.95183 0.0
H234 H 0.41266 0.18519 0.91081 0.0
H235 H 0.40844 0.20103 1.00449 0.0
H236 H 0.36017 0.24609 0.41347 0.0
H237 H 0.36236 0.26489 0.50722 0.0
H238 H 0.42305 0.182 0.54418 0.0
H239 H 0.42251 0.16423 0.45051 0.0
H240 H 0.31495 0.25465 0.75426 0.0
H241 H 0.30502 0.15851 0.87453 0.0
H242 H 0.27596 0.28147 0.81295 0.0
H243 H 0.26601 0.18541 0.9329 0.0
H244 H 0.27676 0.30721 0.0359 0.0
H245 H 0.29709 0.26242 0.97806 0.0
H246 H 0.20072 0.25646 0.8613 0.0
H247 H 0.18021 0.30123 0.91897 0.0
C248 C 0.30383 0.23876 0.79282 0.0
C249 C 0.31336 0.20474 0.80989 0.0
C250 C 0.28124 0.25388 0.82623 0.0
C251 C 0.26818 0.23552 0.87742 0.0
C252 C 0.27601 0.20024 0.8937 0.0
C253 C 0.29817 0.18478 0.86014 0.0
C254 C 0.25926 0.29559 0.99835 0.0
C255 C 0.22719 0.30803 0.98182 0.0
C256 C 0.27071 0.26976 0.9654 0.0
C257 C 0.25061 0.25633 0.91518 0.0
C258 C 0.21689 0.26676 0.89972 0.0
C259 C 0.20503 0.29214 0.93291 0.0
H260 H 0.12592 0.3197 0.1986 0.0
H261 H 0.05074 0.3455 0.07765 0.0
H262 H 0.05742 0.28387 0.25401 0.0
H263 H 0.98274 0.31032 0.13331 0.0
H264 H 0.85792 0.20947 0.22197 0.0
H265 H 0.92673 0.23525 0.16931 0.0
H266 H 0.00965 0.30851 0.30394 0.0
H267 H 0.94035 0.2822 0.35736 0.0
C268 C 0.09472 0.31735 0.18357 0.0
C269 C 0.09375 0.33536 0.13357 0.0
C270 C 0.05564 0.29717 0.21556 0.0
C271 C 0.01475 0.29425 0.19801 0.0
C272 C 0.0136 0.31151 0.14765 0.0
C273 C 0.05266 0.3319 0.11584 0.0
C274 C 0.89078 0.23079 0.24067 0.0
C275 C 0.89363 0.24433 0.29374 0.0
C276 C 0.9302 0.24565 0.21033 0.0
C277 C 0.9735 0.27444 0.23224 0.0
C278 C 0.97667 0.28617 0.28606 0.0
C279 C 0.93703 0.2712 0.31661 0.0
H280 H 0.73727 0.05574 0.38544 0.0
H281 H 0.74573 0.13049 0.52751 0.0
H282 H 0.70928 0.98585 0.43791 0.0
H283 H 0.71609 0.06102 0.57905 0.0
H284 H 0.68428 0.93386 0.66916 0.0
H285 H 0.72706 0.00325 0.61591 0.0
H286 H 0.64121 0.93387 0.48136 0.0
H287 H 0.60031 0.86472 0.53342 0.0
C288 C 0.73332 0.05733 0.42776 0.0
C289 C 0.74353 0.09871 0.45207 0.0
C290 C 0.71702 0.01724 0.45788 0.0
C291 C 0.71005 0.01758 0.51283 0.0
C292 C 0.72165 0.05935 0.53714 0.0
C293 C 0.73839 0.09934 0.50726 0.0
C294 C 0.67496 0.93349 0.62807 0.0
C295 C 0.63893 0.89382 0.60564 0.0
C296 C 0.69931 0.97325 0.59753 0.0
C297 C 0.68763 0.97432 0.54418 0.0
C298 C 0.65198 0.93427 0.5218 0.0
C299 C 0.62818 0.89454 0.55199 0.0
H300 H 0.65321 0.7907 0.83219 0.0
H301 H 0.65583 0.71185 0.69924 0.0
H302 H 0.69888 0.76716 0.88351 0.0
H303 H 0.70106 0.68741 0.75139 0.0
H304 H 0.80481 0.67232 0.8536 0.0
H305 H 0.77411 0.71028 0.7983 0.0
H306 H 0.67914 0.69368 0.92275 0.0
H307 H 0.71008 0.6567 0.9781 0.0
C308 C 0.66386 0.76857 0.81374 0.0
C309 C 0.65033 0.75253 0.76191 0.0
C310 C 0.68994 0.75501 0.84326 0.0
C311 C 0.70289 0.72483 0.82183 0.0
C312 C 0.69172 0.71087 0.7689 0.0
C313 C 0.66572 0.72472 0.73909 0.0
C314 C 0.77788 0.67746 0.86944 0.0
C315 C 0.75986 0.66149 0.92029 0.0
C316 C 0.7601 0.69886 0.83758 0.0
C317 C 0.72428 0.705 0.85616 0.0
C318 C 0.70721 0.6901 0.90752 0.0
C319 C 0.72477 0.6686 0.93918 0.0
H320 H 0.11511 0.835 0.22559 0.0
H321 H 0.06901 0.69756 0.28218 0.0
H322 H 0.05173 0.80487 0.16224 0.0
H323 H 0.00644 0.66786 0.21844 0.0
H324 H 0.95205 0.63452 0.04806 0.0
H325 H 0.0143 0.67231 0.11131 0.0
H326 H 0.95684 0.75374 0.1667 0.0
H327 H 0.89357 0.7154 0.10375 0.0
C328 C 0.09118 0.79852 0.22495 0.0
C329 C 0.09704 0.76857 0.25865 0.0
C330 C 0.05505 0.78145 0.18886 0.0
C331 C 0.0249 0.73421 0.18543 0.0
C332 C 0.02973 0.70445 0.22028 0.0
C333 C 0.0653 0.7215 0.2569 0.0
C334 C 0.95296 0.66105 0.07292 0.0
C335 C 0.91778 0.67186 0.07113 0.0
C336 C 0.98839 0.68233 0.10934 0.0
C337 C 0.9897 0.7153 0.14397 0.0
C338 C 0.95622 0.72823 0.14028 0.0
C339 C 0.9202 0.70635 0.10434 0.0
H340 H 0.26137 0.07813 0.63305 0.0
H341 H 0.355 0.02819 0.66358 0.0
H342 H 0.23031 0.02668 0.55739 0.0
H343 H 0.32399 0.9771 0.58782 0.0
H344 H 0.31106 0.9567 0.40784 0.0
H345 H 0.3318 0.00291 0.48779 0.0
H346 H 0.18934 0.93865 0.5326 0.0
H347 H 0.16823 0.89195 0.4526 0.0
C348 C 0.27446 0.05534 0.6244 0.0
C349 C 0.31078 0.05731 0.65386 0.0
C350 C 0.25674 0.02607 0.58118 0.0
C351 C 0.27553 -0.00113 0.56655 0.0
C352 C 0.30958 -0.00154 0.59812 0.0
C353 C 0.32688 0.02725 0.64175 0.0
C354 C 0.28401 0.95312 0.434 0.0
C355 C 0.23802 0.92069 0.42404 0.0
C356 C 0.29597 0.97907 0.48006 0.0
C357 C 0.26213 0.97344 0.51649 0.0
C358 C 0.21593 0.94321 0.50507 0.0
C359 C 0.20396 0.91678 0.45928 0.0
H360 H 0.24202 0.38883 0.7014 0.0
H361 H 0.13792 0.4229 0.66161 0.0
H362 H 0.25902 0.38865 0.60791 0.0
H363 H 0.1531 0.42009 0.56805 0.0
H364 H 0.2246 0.46014 0.40705 0.0
H365 H 0.20756 0.46053 0.50064 0.0
H366 H 0.23096 0.34733 0.52793 0.0
H367 H 0.24871 0.34755 0.43443 0.0
C368 C 0.22265 0.39626 0.67283 0.0
C369 C 0.18861 0.40602 0.68955 0.0
C370 C 0.232 0.39551 0.61892 0.0
C371 C 0.20748 0.40431 0.57995 0.0
C372 C 0.1732 0.41373 0.59666 0.0
C373 C 0.16399 0.41468 0.65056 0.0
C374 C 0.22577 0.43509 0.43294 0.0
C375 C 0.23811 0.40385 0.41302 0.0
C376 C 0.21589 0.43523 0.48677 0.0
C377 C 0.21779 0.40395 0.52231 0.0
C378 C 0.22988 0.37252 0.50223 0.0
C379 C 0.24001 0.37256 0.44843 0.0
H380 H 0.68011 0.19648 0.9909 0.0
H381 H 0.80935 0.20073 1.00997 0.0
H382 H 0.69692 0.21554 0.89741 0.0
H383 H 0.82585 0.21867 0.91635 0.0
H384 H 0.86359 0.2911 0.75728 0.0
H385 H 0.84646 0.27457 0.85073 0.0
H386 H 0.70299 0.189 0.81384 0.0
H387 H 0.71977 0.20801 0.72058 0.0
C388 C 0.71198 0.20106 0.97508 0.0
C389 C 0.74335 0.19709 1.00835 0.0
C390 C 0.72165 0.2119 0.92115 0.0
C391 C 0.76288 0.21878 0.89854 0.0
C392 C 0.79414 0.21464 0.93197 0.0
C393 C 0.78463 0.20418 0.98595 0.0
C394 C 0.82821 0.26935 0.7689 0.0
C395 C 0.79319 0.25117 0.73059 0.0
C396 C 0.8184 0.25918 0.82287 0.0
C397 C 0.77323 0.23014 0.84062 0.0
C398 C 0.73817 0.21194 0.80233 0.0
C399 C 0.74795 0.22236 0.74834 0.0
H400 H 0.6048 0.74425 0.31028 0.0
H401 H 0.47929 0.7472 0.33162 0.0
H402 H 0.60542 0.76234 0.21687 0.0
H403 H 0.4795 0.76476 0.23785 0.0
H404 H 0.51636 0.83926 0.07789 0.0
H405 H 0.51573 0.82171 0.1715 0.0
H406 H 0.56984 0.73297 0.13438 0.0
H407 H 0.57271 0.75239 0.04111 0.0
C408 C 0.57698 0.74825 0.295 0.0
C409 C 0.54191 0.74402 0.32889 0.0
C410 C 0.57728 0.75861 0.2411 0.0
C411 C 0.54241 0.76494 0.21909 0.0
C412 C 0.50739 0.76088 0.25309 0.0
C413 C 0.50721 0.7507 0.30711 0.0
C414 C 0.52864 0.81639 0.08957 0.0
C415 C 0.54478 0.79753 0.05131 0.0
C416 C 0.52769 0.80576 0.14353 0.0
C417 C 0.54276 0.77583 0.16117 0.0
C418 C 0.55852 0.75665 0.12285 0.0
C419 C 0.55956 0.76734 0.06892 0.0
H420 H 0.78011 0.60853 0.65077 0.0
H421 H 0.86933 0.55512 0.61236 0.0
H422 H 0.7637 0.60987 0.55721 0.0
H423 H 0.85501 0.55898 0.51871 0.0
H424 H 0.78193 0.52473 0.35927 0.0
H425 H 0.7978 0.52292 0.45299 0.0
H426 H 0.79587 0.64879 0.47614 0.0
H427 H 0.77916 0.65003 0.38245 0.0
C428 C 0.79629 0.59706 0.62246 0.0
C429 C 0.82601 0.58159 0.63948 0.0
C430 C 0.78735 0.59845 0.56857 0.0
C431 C 0.80802 0.5846 0.53004 0.0
C432 C 0.83794 0.56938 0.54706 0.0
C433 C 0.8467 0.56778 0.60095 0.0
C434 C 0.78526 0.55222 0.38428 0.0
C435 C 0.77929 0.58755 0.36323 0.0
C436 C 0.79446 0.55125 0.43814 0.0
C437 C 0.79824 0.58574 0.47247 0.0
C438 C 0.79246 0.6212 0.45128 0.0
C439 C 0.78297 0.622 0.39744 0.0
H440 H 0.25938 0.84872 0.68815 0.0
H441 H 0.12411 0.73932 0.72934 0.0
H442 H 0.27571 0.86811 0.78135 0.0
H443 H 0.14129 0.75719 0.82261 0.0
H444 H 0.16954 0.82867 0.98285 0.0
H445 H 0.15249 0.81147 0.88922 0.0
H446 H 0.29139 0.84176 0.862 0.0
H447 H 0.30846 0.85937 0.95546 0.0
C448 C 0.23299 0.82881 0.71694 0.0
C449 C 0.19035 0.79235 0.70073 0.0
C450 C 0.24263 0.83957 0.77069 0.0
C451 C 0.20997 0.81418 0.81 0.0
C452 C 0.16723 0.77793 0.79375 0.0
C453 C 0.15756 0.76724 0.74002 0.0
C454 C 0.1964 0.83139 0.95699 0.0
C455 C 0.24045 0.84555 0.97699 0.0
C456 C 0.1866 0.82145 0.90311 0.0
C457 C 0.2205 0.82519 0.86757 0.0
C458 C 0.26453 0.83926 0.88768 0.0
C459 C 0.27436 0.84934 0.9415 0.0
H460 H 0.40826 0.2611 0.33876 0.0
H461 H 0.37532 0.12318 0.37794 0.0
H462 H 0.40836 0.24448 0.24524 0.0
H463 H 0.37799 0.10738 0.28456 0.0
H464 H 0.34116 0.07854 0.1096 0.0
H465 H 0.33847 0.09462 0.20306 0.0
H466 H 0.45118 0.2321 0.17961 0.0
H467 H 0.45324 0.21612 0.08605 0.0
C468 C 0.40092 0.22715 0.32757 0.0
C469 C 0.39167 0.19352 0.36635 0.0
C470 C 0.40164 0.21779 0.27372 0.0
C471 C 0.39335 0.17456 0.2569 0.0
C472 C 0.38403 0.1409 0.29567 0.0
C473 C 0.38312 0.15021 0.34952 0.0
C474 C 0.36553 0.11213 0.12445 0.0
C475 C 0.39739 0.14601 0.09012 0.0
C476 C 0.36407 0.12138 0.17821 0.0
C477 C 0.39462 0.16473 0.19933 0.0
C478 C 0.42651 0.19858 0.16489 0.0
C479 C 0.42778 0.1894 0.11108 0.0
H480 H 0.1808 0.53594 0.05712 0.0
H481 H 0.22621 0.50146 0.20116 0.0
H482 H 0.1755 0.59629 0.10428 0.0
H483 H 0.22253 0.56215 0.24729 0.0
H484 H 0.1786 0.65161 0.33041 0.0
H485 H 0.17289 0.58617 0.28257 0.0
H486 H 0.22471 0.6694 0.14142 0.0
H487 H 0.22875 0.73374 0.18828 0.0
C488 C 0.18981 0.54135 0.09864 0.0
C489 C 0.20392 0.51394 0.12527 0.0
C490 C 0.18691 0.57596 0.12569 0.0
C491 C 0.1985 0.58405 0.17971 0.0
C492 C 0.2124 0.55638 0.20612 0.0
C493 C 0.21489 0.52171 0.17935 0.0
C494 C 0.18858 0.65575 0.28914 0.0
C495 C 0.20424 0.69786 0.26329 0.0
C496 C 0.18544 0.61834 0.2617 0.0
C497 C 0.1984 0.62251 0.20806 0.0
C498 C 0.21361 0.6646 0.1823 0.0
C499 C 0.2163 0.7017 0.20947 0.0
H500 H 0.61387 0.11748 0.42531 0.0
H501 H 0.69752 0.24841 0.50066 0.0
H502 H 0.55539 0.09728 0.4938 0.0
H503 H 0.63944 0.22852 0.5679 0.0
H504 H 0.54391 0.17501 0.704 0.0
H505 H 0.60206 0.17785 0.64354 0.0
H506 H 0.50143 0.12267 0.51859 0.0
H507 H 0.4436 0.11887 0.57887 0.0
C508 C 0.61969 0.142 0.45615 0.0
C509 C 0.6601 0.18476 0.45699 0.0
C510 C 0.58633 0.13037 0.49548 0.0
C511 C 0.59297 0.16115 0.53657 0.0
C512 C 0.63359 0.20363 0.53751 0.0
C513 C 0.66665 0.21529 0.49829 0.0
C514 C 0.53407 0.16235 0.66406 0.0
C515 C 0.4895 0.14745 0.64592 0.0
C516 C 0.56737 0.16432 0.6293 0.0
C517 C 0.55648 0.15116 0.57602 0.0
C518 C 0.51098 0.13292 0.5593 0.0
C519 C 0.47791 0.13113 0.59383 0.0
H520 H 0.3128 0.44854 0.90091 0.0
H521 H 0.3648 0.5463 0.02853 0.0
H522 H 0.36844 0.50539 0.84079 0.0
H523 H 0.42166 0.60339 0.96817 0.0
H524 H 0.45152 0.70361 0.82874 0.0
H525 H 0.41154 0.64515 0.89517 0.0
H526 H 0.44821 0.55552 0.8141 0.0
H527 H 0.48852 0.61459 0.74646 0.0
C528 C 0.3369 0.48198 0.91645 0.0
C529 C 0.33394 0.49321 0.96932 0.0
C530 C 0.36909 0.5145 0.88195 0.0
C531 C 0.3991 0.55914 0.89941 0.0
C532 C 0.39843 0.56943 0.95331 0.0
C533 C 0.3662 0.53668 0.98804 0.0
C534 C 0.45122 0.67151 0.82471 0.0
C535 C 0.4729 0.66369 0.78169 0.0
C536 C 0.42871 0.63812 0.86346 0.0
C537 C 0.42697 0.59576 0.86034 0.0
C538 C 0.44883 0.58781 0.81754 0.0
C539 C 0.47177 0.62154 0.77871 0.0
H540 H 0.73823 0.28711 0.23435 0.0
H541 H 0.86853 0.37647 0.30849 0.0
H542 H 0.75487 0.34369 0.16607 0.0
H543 H 0.88554 0.43352 0.23878 0.0
H544 H 0.85707 0.54005 0.15165 0.0
H545 H 0.85697 0.48434 0.21268 0.0
H546 H 0.80321 0.38203 0.08981 0.0
H547 H 0.80223 0.43804 0.02859 0.0
C548 C 0.77058 0.3189 0.23619 0.0
C549 C 0.80182 0.32745 0.27753 0.0
C550 C 0.78039 0.35115 0.19634 0.0
C551 C 0.82171 0.39299 0.19656 0.0
C552 C 0.85328 0.40162 0.23762 0.0
C553 C 0.8435 0.36907 0.27764 0.0
C554 C 0.84588 0.50584 0.13728 0.0
C555 C 0.82883 0.49313 0.08555 0.0
C556 C 0.84624 0.47398 0.17227 0.0
C557 C 0.8295 0.42855 0.15643 0.0
C558 C 0.81561 0.41665 0.10345 0.0
C559 C 0.8154 0.44874 0.06823 0.0
H560 H 0.32109 0.87501 0.48375 0.0
H561 H 0.36183 0.81571 0.35891 0.0
H562 H 0.37589 0.8715 0.54329 0.0
H563 H 0.41765 0.81281 0.41864 0.0
H564 H 0.44082 0.74166 0.56282 0.0
H565 H 0.40301 0.76221 0.49557 0.0
H566 H 0.45556 0.8954 0.56661 0.0
H567 H 0.49362 0.87469 0.63485 0.0
C568 C 0.34275 0.86234 0.46864 0.0
C569 C 0.33684 0.845 0.41697 0.0
C570 C 0.37436 0.86059 0.50273 0.0
C571 C 0.40057 0.8412 0.48596 0.0
C572 C 0.3973 0.82725 0.43288 0.0
C573 C 0.36577 0.82933 0.39852 0.0
C574 C 0.44434 0.77535 0.56447 0.0
C575 C 0.46989 0.80636 0.60474 0.0
C576 C 0.42315 0.78736 0.52528 0.0
C577 C 0.42672 0.83063 0.52533 0.0
C578 C 0.45217 0.86175 0.56558 0.0
C579 C 0.47372 0.8498 0.60481 0.0
H580 H 0.68819 0.51867 0.86146 0.0
H581 H 0.65493 0.4342 1.00154 0.0
H582 H 0.62217 0.45811 0.8163 0.0
H583 H 0.58973 0.3725 0.95562 0.0
H584 H 0.45784 0.27898 0.87304 0.0
H585 H 0.51636 0.34592 0.91897 0.0
H586 H 0.60037 0.38657 0.77791 0.0
H587 H 0.5407 0.32042 0.73134 0.0
C588 C 0.66663 0.48704 0.88262 0.0
C589 C 0.67681 0.48093 0.9349 0.0
C590 C 0.62894 0.45219 0.85658 0.0
C591 C 0.60089 0.41011 0.88193 0.0
C592 C 0.61025 0.40462 0.93498 0.0
C593 C 0.64768 0.43986 0.96135 0.0
C594 C 0.48868 0.30248 0.85169 0.0
C595 C 0.4949 0.29438 0.79866 0.0
C596 C 0.52237 0.34072 0.87817 0.0
C597 C 0.56337 0.37149 0.85246 0.0
C598 C 0.56899 0.36399 0.79885 0.0
C599 C 0.53492 0.32598 0.7721 0.0
loop_
_geom_bond_atom_site_label_1
_geom_bond_atom_site_label_2
_geom_bond_distance
_geom_bond_site_symmetry_2
_ccdc_geom_bond_type
Tb0 C9 2.764 . S
Tb0 O10 2.325 . S
Tb0 O13 2.303 . S
Tb0 O17 2.322 . S
Tb0 O18 2.349 . S
Tb0 O21 2.415 . S
Tb0 O22 2.399 . S
Tb1 O11 2.322 1_556 S
Tb1 O12 2.342 1_556 S
Tb1 O14 2.415 . S
Tb1 O15 2.399 . S
Tb1 O16 2.325 . S
Tb1 O19 2.303 . S
Tb1 C30 2.764 . S
C2 O18 1.261 1_556 S
C2 O19 1.257 . S
C3 C6 1.358 . S
C3 C7 1.332 . S
C3 C9 1.504 . S
C4 C5 1.373 . S
C4 C8 1.308 . S
C5 C4 1.373 . S
C5 C6 1.429 . S
C5 H32 0.932 . S
C6 C3 1.358 . S
C6 C5 1.429 . S
C6 H33 0.930 . S
C7 C3 1.332 . S
C7 C8 1.394 . S
C7 H34 0.932 . S
C8 C4 1.308 . S
C8 C7 1.394 . S
C8 H35 0.929 . S
C9 Tb0 2.764 . S
C9 C3 1.504 . S
C9 O21 1.239 . S
C9 O22 1.263 . S
O10 Tb0 2.325 . S
O10 C20 1.236 . S
O11 Tb1 2.322 1_554 S
O11 C20 1.257 . S
O12 Tb1 2.342 1_554 S
O12 C23 1.274 . S
O13 Tb0 2.303 . S
O13 C23 1.257 . S
O14 Tb1 2.415 . S
O14 C30 1.239 . S
O15 Tb1 2.399 . S
O15 C30 1.263 . S
O16 Tb1 2.325 . S
O16 C31 1.236 . S
O17 Tb0 2.322 . S
O17 C31 1.257 1_554 S
O18 Tb0 2.349 . S
O18 C2 1.261 1_554 S
O19 Tb1 2.303 . S
O19 C2 1.257 . S
C20 O10 1.236 . S
C20 O11 1.257 . S
O21 Tb0 2.415 . S
O21 C9 1.239 . S
O22 Tb0 2.399 . S
O22 C9 1.263 . S
C23 O12 1.274 . S
C23 O13 1.257 . S
C24 C27 1.358 . S
C24 C28 1.332 . S
C24 C30 1.504 . S
C25 C26 1.373 . S
C25 C29 1.308 . S
C26 C25 1.373 . S
C26 C27 1.429 . S
C26 H36 0.932 . S
C27 C24 1.358 . S
C27 C26 1.429 . S
C27 H37 0.930 . S
C28 C24 1.332 . S
C28 C29 1.394 . S
C28 H38 0.932 . S
C29 C25 1.308 . S
C29 C28 1.394 . S
C29 H39 0.929 . S
C30 Tb1 2.764 . S
C30 O14 1.239 . S
C30 O15 1.263 . S
C30 C24 1.504 . S
C31 O16 1.236 . S
C31 O17 1.257 1_556 S
H32 C5 0.932 . S
H33 C6 0.930 . S
H34 C7 0.932 . S
H35 C8 0.929 . S
H36 C26 0.932 . S
H37 C27 0.930 . S
H38 C28 0.932 . S
H39 C29 0.929 . S
Tb40 C49 2.764 . S
Tb40 O50 2.325 . S
Tb40 O53 2.303 . S
Tb40 O57 2.322 . S
Tb40 O58 2.349 . S
Tb40 O61 2.415 . S
Tb40 O62 2.399 . S
Tb41 O51 2.322 . S
Tb41 O52 2.349 . S
Tb41 O54 2.415 . S
Tb41 O55 2.399 . S
Tb41 O56 2.325 . S
Tb41 O59 2.303 . S
Tb41 C70 2.764 . S
C42 O58 1.261 . S
C42 O59 1.257 . S
C43 C46 1.358 . S
C43 C47 1.332 . S
C43 C49 1.504 . S
C44 C45 1.373 . S
C44 C48 1.308 . S
C45 C44 1.373 . S
C45 C46 1.429 . S
C45 H72 0.932 . S
C46 C43 1.358 . S
C46 C45 1.429 . S
C46 H73 0.930 . S
C47 C43 1.332 . S
C47 C48 1.394 . S
C47 H74 0.932 . S
C48 C44 1.308 . S
C48 C47 1.394 . S
C48 H75 0.929 . S
C49 Tb40 2.764 . S
C49 C43 1.504 . S
C49 O61 1.239 . S
C49 O62 1.263 . S
O50 Tb40 2.325 . S
O50 C60 1.236 . S
O51 Tb41 2.322 . S
O51 C60 1.257 . S
O52 Tb41 2.349 . S
O52 C63 1.261 . S
O53 Tb40 2.303 . S
O53 C63 1.257 . S
O54 Tb41 2.415 . S
O54 C70 1.239 . S
O55 Tb41 2.399 . S
O55 C70 1.263 . S
O56 Tb41 2.325 . S
O56 C71 1.236 . S
O57 Tb40 2.322 . S
O57 C71 1.257 . S
O58 Tb40 2.349 . S
O58 C42 1.261 . S
O59 Tb41 2.303 . S
O59 C42 1.257 . S
C60 O50 1.236 . S
C60 O51 1.257 . S
O61 Tb40 2.415 . S
O61 C49 1.239 . S
O62 Tb40 2.399 . S
O62 C49 1.263 . S
C63 O52 1.261 . S
C63 O53 1.257 . S
C64 C67 1.358 . S
C64 C68 1.332 . S
C64 C70 1.504 . S
C65 C66 1.373 . S
C65 C69 1.308 . S
C66 C65 1.373 . S
C66 C67 1.429 . S
C66 H76 0.932 . S
C67 C64 1.358 . S
C67 C66 1.429 . S
C67 H77 0.930 . S
C68 C64 1.332 . S
C68 C69 1.394 . S
C68 H78 0.932 . S
C69 C65 1.308 . S
C69 C68 1.394 . S
C69 H79 0.929 . S
C70 Tb41 2.764 . S
C70 O54 1.239 . S
C70 O55 1.263 . S
C70 C64 1.504 . S
C71 O56 1.236 . S
C71 O57 1.257 . S
H72 C45 0.932 . S
H73 C46 0.930 . S
H74 C47 0.932 . S
H75 C48 0.929 . S
H76 C66 0.932 . S
H77 C67 0.930 . S
H78 C68 0.932 . S
H79 C69 0.929 . S
Tb80 C89 2.764 . S
Tb80 O90 2.325 . S
Tb80 O93 2.303 . S
Tb80 O97 2.322 . S
Tb80 O98 2.349 . S
Tb80 O101 2.415 . S
Tb80 O102 2.399 . S
Tb81 O91 2.322 . S
Tb81 O92 2.349 . S
Tb81 O94 2.415 . S
Tb81 O95 2.399 . S
Tb81 O96 2.325 . S
Tb81 O99 2.303 . S
Tb81 C110 2.764 . S
C82 O98 1.261 . S
C82 O99 1.257 . S
C83 C86 1.358 . S
C83 C87 1.332 . S
C83 C89 1.504 . S
C84 C85 1.373 1_554 S
C84 C88 1.308 1_554 S
C85 C84 1.373 1_556 S
C85 C86 1.429 . S
C85 H112 0.932 . S
C86 C83 1.358 . S
C86 C85 1.429 . S
C86 H113 0.930 . S
C87 C83 1.332 . S
C87 C88 1.394 . S
C87 H114 0.932 . S
C88 C84 1.308 1_556 S
C88 C87 1.394 . S
C88 H115 0.929 1_556 S
C89 Tb80 2.764 . S
C89 C83 1.504 . S
C89 O101 1.239 . S
C89 O102 1.263 . S
O90 Tb80 2.325 . S
O90 C100 1.236 . S
O91 Tb81 2.322 . S
O91 C100 1.257 . S
O92 Tb81 2.349 . S
O92 C103 1.261 . S
O93 Tb80 2.303 . S
O93 C103 1.257 . S
O94 Tb81 2.415 . S
O94 C110 1.239 . S
O95 Tb81 2.399 . S
O95 C110 1.263 . S
O96 Tb81 2.325 . S
O96 C111 1.236 . S
O97 Tb80 2.322 . S
O97 C111 1.257 . S
O98 Tb80 2.349 . S
O98 C82 1.261 . S
O99 Tb81 2.303 . S
O99 C82 1.257 . S
C100 O90 1.236 . S
C100 O91 1.257 . S
O101 Tb80 2.415 . S
O101 C89 1.239 . S
O102 Tb80 2.399 . S
O102 C89 1.263 . S
C103 O92 1.261 . S
C103 O93 1.257 . S
C104 C107 1.358 . S
C104 C108 1.332 . S
C104 C110 1.504 . S
C105 C106 1.373 . S
C105 C109 1.308 . S
C106 C105 1.373 . S
C106 C107 1.429 . S
C106 H116 0.932 . S
C107 C104 1.358 . S
C107 C106 1.429 . S
C107 H117 0.930 . S
C108 C104 1.332 . S
C108 C109 1.394 . S
C108 H118 0.932 . S
C109 C105 1.308 . S
C109 C108 1.394 . S
C109 H119 0.929 . S
C110 Tb81 2.764 . S
C110 O94 1.239 . S
C110 O95 1.263 . S
C110 C104 1.504 . S
C111 O96 1.236 . S
C111 O97 1.257 . S
H112 C85 0.932 . S
H113 C86 0.930 . S
H114 C87 0.932 . S
H115 C88 0.929 1_554 S
H116 C106 0.932 . S
H117 C107 0.930 . S
H118 C108 0.932 . S
H119 C109 0.929 . S
Tb120 C129 2.764 . S
Tb120 O130 2.325 . S
Tb120 O133 2.303 . S
Tb120 O137 2.322 . S
Tb120 O138 2.349 . S
Tb120 O141 2.415 . S
Tb120 O142 2.399 . S
Tb121 O131 2.322 1_556 S
Tb121 O132 2.342 1_556 S
Tb121 O134 2.415 . S
Tb121 O135 2.399 . S
Tb121 O136 2.325 . S
Tb121 O139 2.303 . S
Tb121 C150 2.764 . S
C122 O138 1.261 1_556 S
C122 O139 1.257 . S
C123 C126 1.358 . S
C123 C127 1.332 . S
C123 C129 1.504 . S
C124 C125 1.373 . S
C124 C128 1.308 . S
C125 C124 1.373 . S
C125 C126 1.429 . S
C125 H152 0.932 . S
C126 C123 1.358 . S
C126 C125 1.429 . S
C126 H153 0.930 . S
C127 C123 1.332 . S
C127 C128 1.394 . S
C127 H154 0.932 . S
C128 C124 1.308 . S
C128 C127 1.394 . S
C128 H155 0.929 . S
C129 Tb120 2.764 . S
C129 C123 1.504 . S
C129 O141 1.239 . S
C129 O142 1.263 . S
O130 Tb120 2.325 . S
O130 C140 1.236 . S
O131 Tb121 2.322 1_554 S
O131 C140 1.257 . S
O132 Tb121 2.342 1_554 S
O132 C143 1.274 . S
O133 Tb120 2.303 . S
O133 C143 1.257 . S
O134 Tb121 2.415 . S
O134 C150 1.239 . S
O135 Tb121 2.399 . S
O135 C150 1.263 . S
O136 Tb121 2.325 . S
O136 C151 1.236 . S
O137 Tb120 2.322 . S
O137 C151 1.257 1_554 S
O138 Tb120 2.349 . S
O138 C122 1.261 1_554 S
O139 Tb121 2.303 . S
O139 C122 1.257 . S
C140 O130 1.236 . S
C140 O131 1.257 . S
O141 Tb120 2.415 . S
O141 C129 1.239 . S
O142 Tb120 2.399 . S
O142 C129 1.263 . S
C143 O132 1.274 . S
C143 O133 1.257 . S
C144 C147 1.358 . S
C144 C148 1.332 . S
C144 C150 1.504 . S
C145 C146 1.373 . S
C145 C149 1.308 . S
C146 C145 1.373 . S
C146 C147 1.429 . S
C146 H156 0.932 . S
C147 C144 1.358 . S
C147 C146 1.429 . S
C147 H157 0.930 . S
C148 C144 1.332 . S
C148 C149 1.394 . S
C148 H158 0.932 . S
C149 C145 1.308 . S
C149 C148 1.394 . S
C149 H159 0.929 . S
C150 Tb121 2.764 . S
C150 O134 1.239 . S
C150 O135 1.263 . S
C150 C144 1.504 . S
C151 O136 1.236 . S
C151 O137 1.257 1_556 S
H152 C125 0.932 . S
H153 C126 0.930 . S
H154 C127 0.932 . S
H155 C128 0.929 . S
H156 C146 0.932 . S
H157 C147 0.930 . S
H158 C148 0.932 . S
H159 C149 0.929 . S
Tb160 C169 2.764 . S
Tb160 O170 2.325 . S
Tb160 O173 2.303 . S
Tb160 O177 2.322 . S
Tb160 O178 2.349 . S
Tb160 O181 2.415 . S
Tb160 O182 2.399 . S
Tb161 O171 2.322 . S
Tb161 O172 2.349 . S
Tb161 O174 2.415 . S
Tb161 O175 2.399 . S
Tb161 O176 2.325 . S
Tb161 O179 2.303 . S
Tb161 C190 2.764 . S
C162 O178 1.261 . S
C162 O179 1.257 . S
C163 C166 1.358 . S
C163 C167 1.332 . S
C163 C169 1.504 . S
C164 C165 1.373 . S
C164 C168 1.308 . S
C165 C164 1.373 . S
C165 C166 1.429 . S
C165 H192 0.932 . S
C166 C163 1.358 . S
C166 C165 1.429 . S
C166 H193 0.930 . S
C167 C163 1.332 . S
C167 C168 1.394 . S
C167 H194 0.932 . S
C168 C164 1.308 . S
C168 C167 1.394 . S
C168 H195 0.929 . S
C169 Tb160 2.764 . S
C169 C163 1.504 . S
C169 O181 1.239 . S
C169 O182 1.263 . S
O170 Tb160 2.325 . S
O170 C180 1.236 . S
O171 Tb161 2.322 . S
O171 C180 1.257 . S
O172 Tb161 2.349 . S
O172 C183 1.261 . S
O173 Tb160 2.303 . S
O173 C183 1.257 . S
O174 Tb161 2.415 . S
O174 C190 1.239 . S
O175 Tb161 2.399 . S
O175 C190 1.263 . S
O176 Tb161 2.325 . S
O176 C191 1.236 . S
O177 Tb160 2.322 . S
O177 C191 1.257 . S
O178 Tb160 2.349 . S
O178 C162 1.261 . S
O179 Tb161 2.303 . S
O179 C162 1.257 . S
C180 O170 1.236 . S
C180 O171 1.257 . S
O181 Tb160 2.415 . S
O181 C169 1.239 . S
O182 Tb160 2.399 . S
O182 C169 1.263 . S
C183 O172 1.261 . S
C183 O173 1.257 . S
C184 C187 1.358 . S
C184 C188 1.332 . S
C184 C190 1.504 . S
C185 C186 1.373 . S
C185 C189 1.308 . S
C186 C185 1.373 . S
C186 C187 1.429 . S
C186 H196 0.932 . S
C187 C184 1.358 . S
C187 C186 1.429 . S
C187 H197 0.930 . S
C188 C184 1.332 . S
C188 C189 1.394 . S
C188 H198 0.932 . S
C189 C185 1.308 . S
C189 C188 1.394 . S
C189 H199 0.929 . S
C190 Tb161 2.764 . S
C190 O174 1.239 . S
C190 O175 1.263 . S
C190 C184 1.504 . S
C191 O176 1.236 . S
C191 O177 1.257 . S
H192 C165 0.932 . S
H193 C166 0.930 . S
H194 C167 0.932 . S
H195 C168 0.929 . S
H196 C186 0.932 . S
H197 C187 0.930 . S
H198 C188 0.932 . S
H199 C189 0.929 . S
Tb200 C209 2.764 . S
Tb200 O210 2.325 . S
Tb200 O213 2.303 . S
Tb200 O217 2.322 . S
Tb200 O218 2.349 . S
Tb200 O221 2.415 . S
Tb200 O222 2.399 . S
Tb201 O211 2.322 . S
Tb201 O212 2.349 . S
Tb201 O214 2.415 . S
Tb201 O215 2.399 . S
Tb201 O216 2.325 . S
Tb201 O219 2.303 . S
Tb201 C230 2.764 . S
C202 O218 1.261 . S
C202 O219 1.257 . S
C203 C206 1.358 . S
C203 C207 1.332 . S
C203 C209 1.504 . S
C204 C205 1.373 1_554 S
C204 C208 1.308 1_554 S
C205 C204 1.373 1_556 S
C205 C206 1.429 . S
C205 H232 0.932 . S
C206 C203 1.358 . S
C206 C205 1.429 . S
C206 H233 0.930 . S
C207 C203 1.332 . S
C207 C208 1.394 . S
C207 H234 0.932 . S
C208 C204 1.308 1_556 S
C208 C207 1.394 . S
C208 H235 0.929 1_556 S
C209 Tb200 2.764 . S
C209 C203 1.504 . S
C209 O221 1.239 . S
C209 O222 1.263 . S
O210 Tb200 2.325 . S
O210 C220 1.236 . S
O211 Tb201 2.322 . S
O211 C220 1.257 . S
O212 Tb201 2.349 . S
O212 C223 1.261 . S
O213 Tb200 2.303 . S
O213 C223 1.257 . S
O214 Tb201 2.415 . S
O214 C230 1.239 . S
O215 Tb201 2.399 . S
O215 C230 1.263 . S
O216 Tb201 2.325 . S
O216 C231 1.236 . S
O217 Tb200 2.322 . S
O217 C231 1.257 . S
O218 Tb200 2.349 . S
O218 C202 1.261 . S
O219 Tb201 2.303 . S
O219 C202 1.257 . S
C220 O210 1.236 . S
C220 O211 1.257 . S
O221 Tb200 2.415 . S
O221 C209 1.239 . S
O222 Tb200 2.399 . S
O222 C209 1.263 . S
C223 O212 1.261 . S
C223 O213 1.257 . S
C224 C227 1.358 . S
C224 C228 1.332 . S
C224 C230 1.504 . S
C225 C226 1.373 . S
C225 C229 1.308 . S
C226 C225 1.373 . S
C226 C227 1.429 . S
C226 H236 0.932 . S
C227 C224 1.358 . S
C227 C226 1.429 . S
C227 H237 0.930 . S
C228 C224 1.332 . S
C228 C229 1.394 . S
C228 H238 0.932 . S
C229 C225 1.308 . S
C229 C228 1.394 . S
C229 H239 0.929 . S
C230 Tb201 2.764 . S
C230 O214 1.239 . S
C230 O215 1.263 . S
C230 C224 1.504 . S
C231 O216 1.236 . S
C231 O217 1.257 . S
H232 C205 0.932 . S
H233 C206 0.930 . S
H234 C207 0.932 . S
H235 C208 0.929 1_554 S
H236 C226 0.932 . S
H237 C227 0.930 . S
H238 C228 0.932 . S
H239 C229 0.929 . S
H240 C248 0.950 . S
H241 C253 0.950 . S
H242 C250 0.950 . S
H243 C252 0.950 . S
H244 C254 0.950 . S
H245 C256 0.950 . S
H246 C258 0.950 . S
H247 C259 0.950 . S
C248 H240 0.950 . S
C248 C249 1.386 . S
C248 C250 1.391 . S
C249 C248 1.386 . S
C249 C253 1.393 . S
C250 H242 0.950 . S
C250 C248 1.391 . S
C250 C251 1.400 . S
C251 C250 1.400 . S
C251 C252 1.398 . S
C251 C257 1.491 . S
C252 H243 0.950 . S
C252 C251 1.398 . S
C252 C253 1.391 . S
C253 H241 0.950 . S
C253 C249 1.393 . S
C253 C252 1.391 . S
C254 H244 0.950 . S
C254 C255 1.386 . S
C254 C256 1.391 . S
C255 C254 1.386 . S
C255 C259 1.393 . S
C256 H245 0.950 . S
C256 C254 1.391 . S
C256 C257 1.400 . S
C257 C251 1.491 . S
C257 C256 1.400 . S
C257 C258 1.398 . S
C258 H246 0.950 . S
C258 C257 1.398 . S
C258 C259 1.391 . S
C259 H247 0.950 . S
C259 C255 1.393 . S
C259 C258 1.391 . S
H260 C268 0.950 . S
H261 C273 0.950 . S
H262 C270 0.950 . S
H263 C272 0.950 1_655 S
H264 C274 0.950 . S
H265 C276 0.950 . S
H266 C278 0.950 1_455 S
H267 C279 0.950 . S
C268 H260 0.950 . S
C268 C269 1.386 . S
C268 C270 1.391 . S
C269 C268 1.386 . S
C269 C273 1.393 . S
C270 H262 0.950 . S
C270 C268 1.391 . S
C270 C271 1.400 . S
C271 C270 1.400 . S
C271 C272 1.398 . S
C271 C277 1.491 1_455 S
C272 H263 0.950 1_455 S
C272 C271 1.398 . S
C272 C273 1.391 . S
C273 H261 0.950 . S
C273 C269 1.393 . S
C273 C272 1.391 . S
C274 H264 0.950 . S
C274 C275 1.386 . S
C274 C276 1.391 . S
C275 C274 1.386 . S
C275 C279 1.393 . S
C276 H265 0.950 . S
C276 C274 1.391 . S
C276 C277 1.400 . S
C277 C271 1.491 1_655 S
C277 C276 1.400 . S
C277 C278 1.398 . S
C278 H266 0.950 1_655 S
C278 C277 1.398 . S
C278 C279 1.391 . S
C279 H267 0.950 . S
C279 C275 1.393 . S
C279 C278 1.391 . S
H280 C288 0.950 . S
H281 C293 0.950 . S
H282 C290 0.950 1_565 S
H283 C292 0.950 . S
H284 C294 0.950 . S
H285 C296 0.950 1_545 S
H286 C298 0.950 . S
H287 C299 0.950 . S
C288 H280 0.950 . S
C288 C289 1.386 . S
C288 C290 1.391 . S
C289 C288 1.386 . S
C289 C293 1.393 . S
C290 H282 0.950 1_545 S
C290 C288 1.391 . S
C290 C291 1.400 . S
C291 C290 1.400 . S
C291 C292 1.398 . S
C291 C297 1.491 1_545 S
C292 H283 0.950 . S
C292 C291 1.398 . S
C292 C293 1.391 . S
C293 H281 0.950 . S
C293 C289 1.393 . S
C293 C292 1.391 . S
C294 H284 0.950 . S
C294 C295 1.386 . S
C294 C296 1.391 . S
C295 C294 1.386 . S
C295 C299 1.393 . S
C296 H285 0.950 1_565 S
C296 C294 1.391 . S
C296 C297 1.400 . S
C297 C291 1.491 1_565 S
C297 C296 1.400 . S
C297 C298 1.398 . S
C298 H286 0.950 . S
C298 C297 1.398 . S
C298 C299 1.391 . S
C299 H287 0.950 . S
C299 C295 1.393 . S
C299 C298 1.391 . S
H300 C308 0.950 . S
H301 C313 0.950 . S
H302 C310 0.950 . S
H303 C312 0.950 . S
H304 C314 0.950 . S
H305 C316 0.950 . S
H306 C318 0.950 . S
H307 C319 0.950 . S
C308 H300 0.950 . S
C308 C309 1.386 . S
C308 C310 1.391 . S
C309 C308 1.386 . S
C309 C313 1.393 . S
C310 H302 0.950 . S
C310 C308 1.391 . S
C310 C311 1.400 . S
C311 C310 1.400 . S
C311 C312 1.398 . S
C311 C317 1.491 . S
C312 H303 0.950 . S
C312 C311 1.398 . S
C312 C313 1.391 . S
C313 H301 0.950 . S
C313 C309 1.393 . S
C313 C312 1.391 . S
C314 H304 0.950 . S
C314 C315 1.386 . S
C314 C316 1.391 . S
C315 C314 1.386 . S
C315 C319 1.393 . S
C316 H305 0.950 . S
C316 C314 1.391 . S
C316 C317 1.400 . S
C317 C311 1.491 . S
C317 C316 1.400 . S
C317 C318 1.398 . S
C318 H306 0.950 . S
C318 C317 1.398 . S
C318 C319 1.391 . S
C319 H307 0.950 . S
C319 C315 1.393 . S
C319 C318 1.391 . S
H320 C328 0.950 . S
H321 C333 0.950 . S
H322 C330 0.950 . S
H323 C332 0.950 . S
H324 C334 0.950 . S
H325 C336 0.950 . S
H326 C338 0.950 . S
H327 C339 0.950 . S
C328 H320 0.950 . S
C328 C329 1.386 . S
C328 C330 1.391 . S
C329 C328 1.386 . S
C329 C333 1.393 . S
C330 H322 0.950 . S
C330 C328 1.391 . S
C330 C331 1.400 . S
C331 C330 1.400 . S
C331 C332 1.398 . S
C331 C337 1.491 1_455 S
C332 H323 0.950 . S
C332 C331 1.398 . S
C332 C333 1.391 . S
C333 H321 0.950 . S
C333 C329 1.393 . S
C333 C332 1.391 . S
C334 H324 0.950 . S
C334 C335 1.386 . S
C334 C336 1.391 . S
C335 C334 1.386 . S
C335 C339 1.393 . S
C336 H325 0.950 . S
C336 C334 1.391 . S
C336 C337 1.400 . S
C337 C331 1.491 1_655 S
C337 C336 1.400 . S
C337 C338 1.398 . S
C338 H326 0.950 . S
C338 C337 1.398 . S
C338 C339 1.391 . S
C339 H327 0.950 . S
C339 C335 1.393 . S
C339 C338 1.391 . S
H340 C348 0.950 . S
H341 C353 0.950 . S
H342 C350 0.950 . S
H343 C352 0.950 . S
H344 C354 0.950 . S
H345 C356 0.950 1_545 S
H346 C358 0.950 . S
H347 C359 0.950 . S
C348 H340 0.950 . S
C348 C349 1.386 . S
C348 C350 1.391 . S
C349 C348 1.386 . S
C349 C353 1.393 . S
C350 H342 0.950 . S
C350 C348 1.391 . S
C350 C351 1.400 . S
C351 C350 1.400 . S
C351 C352 1.398 . S
C351 C357 1.491 1_545 S
C352 H343 0.950 . S
C352 C351 1.398 . S
C352 C353 1.391 . S
C353 H341 0.950 . S
C353 C349 1.393 . S
C353 C352 1.391 . S
C354 H344 0.950 . S
C354 C355 1.386 . S
C354 C356 1.391 . S
C355 C354 1.386 . S
C355 C359 1.393 . S
C356 H345 0.950 1_565 S
C356 C354 1.391 . S
C356 C357 1.400 . S
C357 C351 1.491 1_565 S
C357 C356 1.400 . S
C357 C358 1.398 . S
C358 H346 0.950 . S
C358 C357 1.398 . S
C358 C359 1.391 . S
C359 H347 0.950 . S
C359 C355 1.393 . S
C359 C358 1.391 . S
H360 C368 0.950 . S
H361 C373 0.950 . S
H362 C370 0.950 . S
H363 C372 0.950 . S
H364 C374 0.950 . S
H365 C376 0.950 . S
H366 C378 0.950 . S
H367 C379 0.950 . S
C368 H360 0.950 . S
C368 C369 1.386 . S
C368 C370 1.391 . S
C369 C368 1.386 . S
C369 C373 1.393 . S
C370 H362 0.950 . S
C370 C368 1.391 . S
C370 C371 1.400 . S
C371 C370 1.400 . S
C371 C372 1.398 . S
C371 C377 1.491 . S
C372 H363 0.950 . S
C372 C371 1.398 . S
C372 C373 1.391 . S
C373 H361 0.950 . S
C373 C369 1.393 . S
C373 C372 1.391 . S
C374 H364 0.950 . S
C374 C375 1.386 . S
C374 C376 1.391 . S
C375 C374 1.386 . S
C375 C379 1.393 . S
C376 H365 0.950 . S
C376 C374 1.391 . S
C376 C377 1.400 . S
C377 C371 1.491 . S
C377 C376 1.400 . S
C377 C378 1.398 . S
C378 H366 0.950 . S
C378 C377 1.398 . S
C378 C379 1.391 . S
C379 H367 0.950 . S
C379 C375 1.393 . S
C379 C378 1.391 . S
H380 C388 0.950 . S
H381 C393 0.950 . S
H382 C390 0.950 . S
H383 C392 0.950 . S
H384 C394 0.950 . S
H385 C396 0.950 . S
H386 C398 0.950 . S
H387 C399 0.950 . S
C388 H380 0.950 . S
C388 C389 1.386 . S
C388 C390 1.391 . S
C389 C388 1.386 . S
C389 C393 1.393 . S
C390 H382 0.950 . S
C390 C388 1.391 . S
C390 C391 1.400 . S
C391 C390 1.400 . S
C391 C392 1.398 . S
C391 C397 1.491 . S
C392 H383 0.950 . S
C392 C391 1.398 . S
C392 C393 1.391 . S
C393 H381 0.950 . S
C393 C389 1.393 . S
C393 C392 1.391 . S
C394 H384 0.950 . S
C394 C395 1.386 . S
C394 C396 1.391 . S
C395 C394 1.386 . S
C395 C399 1.393 . S
C396 H385 0.950 . S
C396 C394 1.391 . S
C396 C397 1.400 . S
C397 C391 1.491 . S
C397 C396 1.400 . S
C397 C398 1.398 . S
C398 H386 0.950 . S
C398 C397 1.398 . S
C398 C399 1.391 . S
C399 H387 0.950 . S
C399 C395 1.393 . S
C399 C398 1.391 . S
H400 C408 0.950 . S
H401 C413 0.950 . S
H402 C410 0.950 . S
H403 C412 0.950 . S
H404 C414 0.950 . S
H405 C416 0.950 . S
H406 C418 0.950 . S
H407 C419 0.950 . S
C408 H400 0.950 . S
C408 C409 1.386 . S
C408 C410 1.391 . S
C409 C408 1.386 . S
C409 C413 1.393 . S
C410 H402 0.950 . S
C410 C408 1.391 . S
C410 C411 1.400 . S
C411 C410 1.400 . S
C411 C412 1.398 . S
C411 C417 1.491 . S
C412 H403 0.950 . S
C412 C411 1.398 . S
C412 C413 1.391 . S
C413 H401 0.950 . S
C413 C409 1.393 . S
C413 C412 1.391 . S
C414 H404 0.950 . S
C414 C415 1.386 . S
C414 C416 1.391 . S
C415 C414 1.386 . S
C415 C419 1.393 . S
C416 H405 0.950 . S
C416 C414 1.391 . S
C416 C417 1.400 . S
C417 C411 1.491 . S
C417 C416 1.400 . S
C417 C418 1.398 . S
C418 H406 0.950 . S
C418 C417 1.398 . S
C418 C419 1.391 . S
C419 H407 0.950 . S
C419 C415 1.393 . S
C419 C418 1.391 . S
H420 C428 0.950 . S
H421 C433 0.950 . S
H422 C430 0.950 . S
H423 C432 0.950 . S
H424 C434 0.950 . S
H425 C436 0.950 . S
H426 C438 0.950 . S
H427 C439 0.950 . S
C428 H420 0.950 . S
C428 C429 1.386 . S
C428 C430 1.391 . S
C429 C428 1.386 . S
C429 C433 1.393 . S
C430 H422 0.950 . S
C430 C428 1.391 . S
C430 C431 1.400 . S
C431 C430 1.400 . S
C431 C432 1.398 . S
C431 C437 1.491 . S
C432 H423 0.950 . S
C432 C431 1.398 . S
C432 C433 1.391 . S
C433 H421 0.950 . S
C433 C429 1.393 . S
C433 C432 1.391 . S
C434 H424 0.950 . S
C434 C435 1.386 . S
C434 C436 1.391 . S
C435 C434 1.386 . S
C435 C439 1.393 . S
C436 H425 0.950 . S
C436 C434 1.391 . S
C436 C437 1.400 . S
C437 C431 1.491 . S
C437 C436 1.400 . S
C437 C438 1.398 . S
C438 H426 0.950 . S
C438 C437 1.398 . S
C438 C439 1.391 . S
C439 H427 0.950 . S
C439 C435 1.393 . S
C439 C438 1.391 . S
H440 C448 0.950 . S
H441 C453 0.950 . S
H442 C450 0.950 . S
H443 C452 0.950 . S
H444 C454 0.950 . S
H445 C456 0.950 . S
H446 C458 0.950 . S
H447 C459 0.950 . S
C448 H440 0.950 . S
C448 C449 1.386 . S
C448 C450 1.391 . S
C449 C448 1.386 . S
C449 C453 1.393 . S
C450 H442 0.950 . S
C450 C448 1.391 . S
C450 C451 1.400 . S
C451 C450 1.400 . S
C451 C452 1.398 . S
C451 C457 1.491 . S
C452 H443 0.950 . S
C452 C451 1.398 . S
C452 C453 1.391 . S
C453 H441 0.950 . S
C453 C449 1.393 . S
C453 C452 1.391 . S
C454 H444 0.950 . S
C454 C455 1.386 . S
C454 C456 1.391 . S
C455 C454 1.386 . S
C455 C459 1.393 . S
C456 H445 0.950 . S
C456 C454 1.391 . S
C456 C457 1.400 . S
C457 C451 1.491 . S
C457 C456 1.400 . S
C457 C458 1.398 . S
C458 H446 0.950 . S
C458 C457 1.398 . S
C458 C459 1.391 . S
C459 H447 0.950 . S
C459 C455 1.393 . S
C459 C458 1.391 . S
H460 C468 0.950 . S
H461 C473 0.950 . S
H462 C470 0.950 . S
H463 C472 0.950 . S
H464 C474 0.950 . S
H465 C476 0.950 . S
H466 C478 0.950 . S
H467 C479 0.950 . S
C468 H460 0.950 . S
C468 C469 1.386 . S
C468 C470 1.391 . S
C469 C468 1.386 . S
C469 C473 1.393 . S
C470 H462 0.950 . S
C470 C468 1.391 . S
C470 C471 1.400 . S
C471 C470 1.400 . S
C471 C472 1.398 . S
C471 C477 1.491 . S
C472 H463 0.950 . S
C472 C471 1.398 . S
C472 C473 1.391 . S
C473 H461 0.950 . S
C473 C469 1.393 . S
C473 C472 1.391 . S
C474 H464 0.950 . S
C474 C475 1.386 . S
C474 C476 1.391 . S
C475 C474 1.386 . S
C475 C479 1.393 . S
C476 H465 0.950 . S
C476 C474 1.391 . S
C476 C477 1.400 . S
C477 C471 1.491 . S
C477 C476 1.400 . S
C477 C478 1.398 . S
C478 H466 0.950 . S
C478 C477 1.398 . S
C478 C479 1.391 . S
C479 H467 0.950 . S
C479 C475 1.393 . S
C479 C478 1.391 . S
H480 C488 0.950 . S
H481 C493 0.950 . S
H482 C490 0.950 . S
H483 C492 0.950 . S
H484 C494 0.950 . S
H485 C496 0.950 . S
H486 C498 0.950 . S
H487 C499 0.950 . S
C488 H480 0.950 . S
C488 C489 1.386 . S
C488 C490 1.391 . S
C489 C488 1.386 . S
C489 C493 1.393 . S
C490 H482 0.950 . S
C490 C488 1.391 . S
C490 C491 1.400 . S
C491 C490 1.400 . S
C491 C492 1.398 . S
C491 C497 1.491 . S
C492 H483 0.950 . S
C492 C491 1.398 . S
C492 C493 1.391 . S
C493 H481 0.950 . S
C493 C489 1.393 . S
C493 C492 1.391 . S
C494 H484 0.950 . S
C494 C495 1.386 . S
C494 C496 1.391 . S
C495 C494 1.386 . S
C495 C499 1.393 . S
C496 H485 0.950 . S
C496 C494 1.391 . S
C496 C497 1.400 . S
C497 C491 1.491 . S
C497 C496 1.400 . S
C497 C498 1.398 . S
C498 H486 0.950 . S
C498 C497 1.398 . S
C498 C499 1.391 . S
C499 H487 0.950 . S
C499 C495 1.393 . S
C499 C498 1.391 . S
H500 C508 0.950 . S
H501 C513 0.950 . S
H502 C510 0.950 . S
H503 C512 0.950 . S
H504 C514 0.950 . S
H505 C516 0.950 . S
H506 C518 0.950 . S
H507 C519 0.950 . S
C508 H500 0.950 . S
C508 C509 1.386 . S
C508 C510 1.391 . S
C509 C508 1.386 . S
C509 C513 1.393 . S
C510 H502 0.950 . S
C510 C508 1.391 . S
C510 C511 1.400 . S
C511 C510 1.400 . S
C511 C512 1.398 . S
C511 C517 1.491 . S
C512 H503 0.950 . S
C512 C511 1.398 . S
C512 C513 1.391 . S
C513 H501 0.950 . S
C513 C509 1.393 . S
C513 C512 1.391 . S
C514 H504 0.950 . S
C514 C515 1.386 . S
C514 C516 1.391 . S
C515 C514 1.386 . S
C515 C519 1.393 . S
C516 H505 0.950 . S
C516 C514 1.391 . S
C516 C517 1.400 . S
C517 C511 1.491 . S
C517 C516 1.400 . S
C517 C518 1.398 . S
C518 H506 0.950 . S
C518 C517 1.398 . S
C518 C519 1.391 . S
C519 H507 0.950 . S
C519 C515 1.393 . S
C519 C518 1.391 . S
H520 C528 0.950 . S
H521 C533 0.950 . S
H522 C530 0.950 . S
H523 C532 0.950 . S
H524 C534 0.950 . S
H525 C536 0.950 . S
H526 C538 0.950 . S
H527 C539 0.950 . S
C528 H520 0.950 . S
C528 C529 1.386 . S
C528 C530 1.391 . S
C529 C528 1.386 . S
C529 C533 1.393 . S
C530 H522 0.950 . S
C530 C528 1.391 . S
C530 C531 1.400 . S
C531 C530 1.400 . S
C531 C532 1.398 . S
C531 C537 1.491 . S
C532 H523 0.950 . S
C532 C531 1.398 . S
C532 C533 1.391 . S
C533 H521 0.950 . S
C533 C529 1.393 . S
C533 C532 1.391 . S
C534 H524 0.950 . S
C534 C535 1.386 . S
C534 C536 1.391 . S
C535 C534 1.386 . S
C535 C539 1.393 . S
C536 H525 0.950 . S
C536 C534 1.391 . S
C536 C537 1.400 . S
C537 C531 1.491 . S
C537 C536 1.400 . S
C537 C538 1.398 . S
C538 H526 0.950 . S
C538 C537 1.398 . S
C538 C539 1.391 . S
C539 H527 0.950 . S
C539 C535 1.393 . S
C539 C538 1.391 . S
H540 C548 0.950 . S
H541 C553 0.950 . S
H542 C550 0.950 . S
H543 C552 0.950 . S
H544 C554 0.950 . S
H545 C556 0.950 . S
H546 C558 0.950 . S
H547 C559 0.950 . S
C548 H540 0.950 . S
C548 C549 1.386 . S
C548 C550 1.391 . S
C549 C548 1.386 . S
C549 C553 1.393 . S
C550 H542 0.950 . S
C550 C548 1.391 . S
C550 C551 1.400 . S
C551 C550 1.400 . S
C551 C552 1.398 . S
C551 C557 1.491 . S
C552 H543 0.950 . S
C552 C551 1.398 . S
C552 C553 1.391 . S
C553 H541 0.950 . S
C553 C549 1.393 . S
C553 C552 1.391 . S
C554 H544 0.950 . S
C554 C555 1.386 . S
C554 C556 1.391 . S
C555 C554 1.386 . S
C555 C559 1.393 . S
C556 H545 0.950 . S
C556 C554 1.391 . S
C556 C557 1.400 . S
C557 C551 1.491 . S
C557 C556 1.400 . S
C557 C558 1.398 . S
C558 H546 0.950 . S
C558 C557 1.398 . S
C558 C559 1.391 . S
C559 H547 0.950 . S
C559 C555 1.393 . S
C559 C558 1.391 . S
H560 C568 0.950 . S
H561 C573 0.950 . S
H562 C570 0.950 . S
H563 C572 0.950 . S
H564 C574 0.950 . S
H565 C576 0.950 . S
H566 C578 0.950 . S
H567 C579 0.950 . S
C568 H560 0.950 . S
C568 C569 1.386 . S
C568 C570 1.391 . S
C569 C568 1.386 . S
C569 C573 1.393 . S
C570 H562 0.950 . S
C570 C568 1.391 . S
C570 C571 1.400 . S
C571 C570 1.400 . S
C571 C572 1.398 . S
C571 C577 1.491 . S
C572 H563 0.950 . S
C572 C571 1.398 . S
C572 C573 1.391 . S
C573 H561 0.950 . S
C573 C569 1.393 . S
C573 C572 1.391 . S
C574 H564 0.950 . S
C574 C575 1.386 . S
C574 C576 1.391 . S
C575 C574 1.386 . S
C575 C579 1.393 . S
C576 H565 0.950 . S
C576 C574 1.391 . S
C576 C577 1.400 . S
C577 C571 1.491 . S
C577 C576 1.400 . S
C577 C578 1.398 . S
C578 H566 0.950 . S
C578 C577 1.398 . S
C578 C579 1.391 . S
C579 H567 0.950 . S
C579 C575 1.393 . S
C579 C578 1.391 . S
H580 C588 0.950 . S
H581 C593 0.945 1_554 S
H582 C590 0.950 . S
H583 C592 0.950 . S
H584 C594 0.950 . S
H585 C596 0.950 . S
H586 C598 0.950 . S
H587 C599 0.950 . S
C588 H580 0.950 . S
C588 C589 1.386 . S
C588 C590 1.391 . S
C589 C588 1.386 . S
C589 C593 1.393 . S
C590 H582 0.950 . S
C590 C588 1.391 . S
C590 C591 1.400 . S
C591 C590 1.400 . S
C591 C592 1.398 . S
C591 C597 1.491 . S
C592 H583 0.950 . S
C592 C591 1.398 . S
C592 C593 1.391 . S
C593 H581 0.945 1_556 S
C593 C589 1.393 . S
C593 C592 1.391 . S
C594 H584 0.950 . S
C594 C595 1.386 . S
C594 C596 1.391 . S
C595 C594 1.386 . S
C595 C599 1.393 . S
C596 H585 0.950 . S
C596 C594 1.391 . S
C596 C597 1.400 . S
C597 C591 1.491 . S
C597 C596 1.400 . S
C597 C598 1.398 . S
C598 H586 0.950 . S
C598 C597 1.398 . S
C598 C599 1.391 . S
C599 H587 0.950 . S
C599 C595 1.393 . S
C599 C598 1.391 . S
C249 C223 1.397 . S
C255 C31 1.401 . S
C269 C23 1.380 . S
C275 C71 1.411 . S
C289 C63 1.394 . S
C295 C111 1.405 . S
C309 C103 1.381 . S
C315 C151 1.409 . S
C329 C191 1.402 . S
C335 C143 1.396 . S
C349 C231 1.406 . S
C355 C183 1.388 . S
C369 C25 1.455 . S
C375 C4 1.455 . S
C389 C65 1.432 1_556 S
C395 C44 1.432 . S
C409 C105 1.452 . S
C415 C84 1.452 . S
C429 C145 1.454 . S
C435 C124 1.454 . S
C449 C164 1.426 . S
C455 C185 1.426 1_556 S
C469 C225 1.422 . S
C475 C204 1.422 . S
C489 C20 1.636 . S
C495 C162 1.643 . S
C509 C60 1.636 . S
C515 C202 1.645 . S
C529 C2 1.645 . S
C535 C100 1.638 . S
C549 C42 1.643 . S
C555 C140 1.631 . S
C569 C180 1.631 . S
C575 C82 1.647 . S
C589 C122 1.644 . S
C595 C220 1.638 . S
