# Generated by pormake.
# Topology mok, (4)-cn, num edge types: 1
# Building blocks:
#     Node 0, Type 0, BuildingBlock: CEKHIL_clean_sbu_0, # of connection points: 4
#     Node 1, Type 0, BuildingBlock: CEKHIL_clean_sbu_0, # of connection points: 4
#     Node 2, Type 0, BuildingBlock: CEKHIL_clean_sbu_0, # of connection points: 4
#     Node 3, Type 0, BuildingBlock: CEKHIL_clean_sbu_0, # of connection points: 4
#     Node 4, Type 0, BuildingBlock: CEKHIL_clean_sbu_0, # of connection points: 4
#     Node 5, Type 0, BuildingBlock: CEKHIL_clean_sbu_0, # of connection points: 4
#     Node 6, Type 0, BuildingBlock: CEKHIL_clean_sbu_0, # of connection points: 4
#     Node 7, Type 0, BuildingBlock: CEKHIL_clean_sbu_0, # of connection points: 4
#     Edge 8, Type (0, 0), BuildingBlock: MIFKUJ_clean_linker_0, # of connection points: 2
#     Edge 9, Type (0, 0), BuildingBlock: MIFKUJ_clean_linker_0, # of connection points: 2
#     Edge 10, Type (0, 0), BuildingBlock: MIFKUJ_clean_linker_0, # of connection points: 2
#     Edge 11, Type (0, 0), BuildingBlock: MIFKUJ_clean_linker_0, # of connection points: 2
#     Edge 12, Type (0, 0), BuildingBlock: MIFKUJ_clean_linker_0, # of connection points: 2
#     Edge 13, Type (0, 0), BuildingBlock: MIFKUJ_clean_linker_0, # of connection points: 2
#     Edge 14, Type (0, 0), BuildingBlock: MIFKUJ_clean_linker_0, # of connection points: 2
#     Edge 15, Type (0, 0), BuildingBlock: MIFKUJ_clean_linker_0, # of connection points: 2
#     Edge 16, Type (0, 0), BuildingBlock: MIFKUJ_clean_linker_0, # of connection points: 2
#     Edge 17, Type (0, 0), BuildingBlock: MIFKUJ_clean_linker_0, # of connection points: 2
#     Edge 18, Type (0, 0), BuildingBlock: MIFKUJ_clean_linker_0, # of connection points: 2
#     Edge 19, Type (0, 0), BuildingBlock: MIFKUJ_clean_linker_0, # of connection points: 2
#     Edge 20, Type (0, 0), BuildingBlock: MIFKUJ_clean_linker_0, # of connection points: 2
#     Edge 21, Type (0, 0), BuildingBlock: MIFKUJ_clean_linker_0, # of connection points: 2
#     Edge 22, Type (0, 0), BuildingBlock: MIFKUJ_clean_linker_0, # of connection points: 2
#     Edge 23, Type (0, 0), BuildingBlock: MIFKUJ_clean_linker_0, # of connection points: 2
# Relax obj value: 0.018
# Max RMSD: 0.041
# Mean RMSD: 0.041
data_MOF--net-mok--node1-CEKHIL_clean_sbu_0--edge1-MIFKUJ_clean_linker_0
_symmetry_space_group_name_H-M    P1
_symmetry_Int_Tables_number       1
_symmetry_cell_setting            triclinic
loop_
_symmetry_equiv_pos_as_xyz
'x, y, z'
_cell_length_a     69.414622
_cell_length_b     19.926425
_cell_length_c     35.256336
_cell_angle_alpha  90.003192
_cell_angle_beta   90.027025
_cell_angle_gamma 90.081197
loop_
_atom_site_label
_atom_site_type_symbol
_atom_site_fract_x
_atom_site_fract_y
_atom_site_fract_z
_atom_type_partial_charge
Co0 Co 0.61093 0.29393 0.01806 0.0
O1 O 0.58343 0.28071 0.01639 0.0
O2 O 0.60464 0.20569 0.99724 0.0
C3 C 0.61173 0.33456 0.07783 0.0
O4 O 0.64063 0.29056 0.01725 0.0
Co5 Co 0.62707 0.43909 0.02842 0.0
O6 O 0.65153 0.39066 0.03811 0.0
C7 C 0.60998 0.3984 0.95548 0.0
C8 C 0.58663 0.22154 0.0026 0.0
C9 C 0.6544 0.32977 0.02846 0.0
O10 O 0.61019 0.33641 0.96594 0.0
O11 O 0.61423 0.44714 0.97763 0.0
O12 O 0.61124 0.27018 0.07205 0.0
O13 O 0.60996 0.37115 0.04792 0.0
Co14 Co 0.40004 0.6962 0.01622 0.0
O15 O 0.4275 0.71093 0.01499 0.0
O16 O 0.40601 0.78452 0.99516 0.0
C17 C 0.39914 0.65644 0.07623 0.0
O18 O 0.37031 0.69842 0.01475 0.0
Co19 Co 0.38411 0.55116 0.02754 0.0
O20 O 0.35944 0.59864 0.03587 0.0
C21 C 0.40077 0.59061 0.95374 0.0
C22 C 0.42406 0.76964 0.00078 0.0
C23 C 0.3565 0.65915 0.02567 0.0
O24 O 0.40139 0.65261 0.96431 0.0
O25 O 0.39587 0.54271 0.97594 0.0
O26 O 0.39924 0.72075 0.0701 0.0
O27 O 0.40123 0.61949 0.04655 0.0
Co28 Co 0.6122 0.69666 0.50167 0.0
O29 O 0.58487 0.71333 0.50445 0.0
O30 O 0.60719 0.78667 0.5212 0.0
C31 C 0.61179 0.65354 0.44233 0.0
O32 O 0.64193 0.69665 0.50143 0.0
Co33 Co 0.62684 0.54961 0.49163 0.0
O34 O 0.65217 0.59347 0.48476 0.0
C35 C 0.61281 0.59543 0.56646 0.0
C36 C 0.58897 0.77264 0.51711 0.0
C37 C 0.6555 0.6547 0.49302 0.0
O38 O 0.61157 0.65647 0.5545 0.0
O39 O 0.61706 0.54589 0.54492 0.0
O40 O 0.61229 0.71811 0.44734 0.0
O41 O 0.60992 0.61837 0.47276 0.0
Co42 Co 0.40194 0.29831 0.50073 0.0
O43 O 0.42942 0.28505 0.49767 0.0
O44 O 0.40898 0.20939 0.51938 0.0
C45 C 0.39858 0.34207 0.44195 0.0
O46 O 0.37241 0.29417 0.50623 0.0
Co47 Co 0.38557 0.44385 0.49577 0.0
O48 O 0.36024 0.39804 0.49717 0.0
C49 C 0.40588 0.39978 0.56454 0.0
C50 C 0.42673 0.22546 0.51138 0.0
C51 C 0.3581 0.33539 0.50325 0.0
O52 O 0.40492 0.33827 0.5533 0.0
O53 O 0.40097 0.44949 0.5437 0.0
O54 O 0.39929 0.27739 0.44657 0.0
O55 O 0.40166 0.37707 0.47206 0.0
Co56 Co 0.11127 0.80831 0.01418 0.0
O57 O 0.08377 0.79467 0.01514 0.0
O58 O 0.10457 0.71979 0.99418 0.0
C59 C 0.11336 0.84947 0.0738 0.0
O60 O 0.14092 0.80474 0.01056 0.0
Co61 Co 0.12777 0.95321 0.02333 0.0
O62 O 0.15293 0.90688 0.02505 0.0
C63 C 0.11011 0.91209 0.95071 0.0
C64 C 0.0867 0.73548 0.00112 0.0
C65 C 0.15521 0.84515 0.0167 0.0
O66 O 0.10915 0.85055 0.96199 0.0
O67 O 0.11545 0.96041 0.97223 0.0
O68 O 0.11306 0.78503 0.06816 0.0
O69 O 0.11084 0.88582 0.04403 0.0
Co70 Co 0.90067 0.20495 0.01672 0.0
O71 O 0.92813 0.22008 0.01612 0.0
O72 O 0.90661 0.29508 0.99826 0.0
C73 C 0.89978 0.15946 0.0754 0.0
O74 O 0.87095 0.20683 0.01505 0.0
Co75 Co 0.88525 0.05821 0.02281 0.0
O76 O 0.85963 0.1018 0.02441 0.0
C77 C 0.90368 0.10488 0.95256 0.0
C78 C 0.92467 0.2799 0.00352 0.0
C79 C 0.85696 0.16442 0.01917 0.0
O80 O 0.90215 0.16629 0.96368 0.0
O81 O 0.89988 0.05462 0.97389 0.0
O82 O 0.8998 0.22429 0.07126 0.0
O83 O 0.9019 0.12548 0.04463 0.0
Co84 Co 0.11174 0.20624 0.49848 0.0
O85 O 0.08423 0.2188 0.49703 0.0
O86 O 0.10475 0.29455 0.51831 0.0
C87 C 0.1143 0.16445 0.43913 0.0
O88 O 0.14138 0.2104 0.50233 0.0
Co89 Co 0.1282 0.06106 0.49094 0.0
O90 O 0.15273 0.11012 0.4829 0.0
C91 C 0.10909 0.1029 0.56157 0.0
C92 C 0.08695 0.27814 0.51104 0.0
C93 C 0.15537 0.17125 0.49236 0.0
O94 O 0.10959 0.16467 0.55073 0.0
O95 O 0.11399 0.0538 0.54025 0.0
O96 O 0.1135 0.22894 0.44438 0.0
O97 O 0.11172 0.12847 0.46905 0.0
Co98 Co 0.90101 0.80234 0.50103 0.0
O99 O 0.92847 0.78779 0.50386 0.0
O100 O 0.90662 0.71398 0.52218 0.0
C101 C 0.90099 0.84213 0.441 0.0
O102 O 0.87127 0.79989 0.50095 0.0
Co103 Co 0.88524 0.9474 0.4885 0.0
O104 O 0.86043 0.90039 0.48096 0.0
C105 C 0.90019 0.90753 0.56372 0.0
C106 C 0.92475 0.72887 0.51756 0.0
C107 C 0.85746 0.83968 0.49078 0.0
O108 O 0.90154 0.84577 0.55303 0.0
O109 O 0.89554 0.95536 0.54128 0.0
O110 O 0.90102 0.77784 0.44712 0.0
O111 O 0.90264 0.87911 0.47078 0.0
H112 H 0.84017 0.27542 0.05195 0.0
H113 H 0.80551 0.30249 0.05381 0.0
H114 H 0.79338 0.13096 0.98319 0.0
H115 H 0.82767 0.10271 0.98229 0.0
H116 H 0.77352 0.25287 0.96128 0.0
H117 H 0.78449 0.11005 0.06854 0.0
H118 H 0.79803 0.07018 0.12912 0.0
H119 H 0.78006 0.25213 0.1838 0.0
H120 H 0.76663 0.29355 0.12336 0.0
H121 H 0.67119 0.22767 0.987 0.0
H122 H 0.70561 0.19869 0.98435 0.0
H123 H 0.71791 0.35019 0.06832 0.0
H124 H 0.68385 0.37903 0.07118 0.0
H125 H 0.73779 0.23754 0.08279 0.0
H126 H 0.72632 0.38002 0.97548 0.0
H127 H 0.71044 0.41529 0.9162 0.0
H128 H 0.72863 0.23322 0.86188 0.0
H129 H 0.74439 0.19639 0.92107 0.0
C130 C 0.8301 0.24418 0.03646 0.0
C131 C 0.83661 0.18706 0.01693 0.0
C132 C 0.81032 0.25934 0.03773 0.0
C133 C 0.79683 0.21851 0.01875 0.0
C134 C 0.80347 0.16314 0.99803 0.0
C135 C 0.82308 0.14708 0.99756 0.0
C136 C 0.77574 0.23211 0.02105 0.0
C137 C 0.76568 0.24901 0.9878 0.0
C138 C 0.76549 0.22784 0.05566 0.0
C139 C 0.77479 0.20528 0.0913 0.0
C140 C 0.78375 0.14212 0.09329 0.0
C141 C 0.7913 0.11906 0.12766 0.0
C142 C 0.78986 0.15855 0.16028 0.0
C143 C 0.78113 0.22159 0.1585 0.0
C144 C 0.77357 0.2449 0.1242 0.0
C145 C 0.68121 0.25413 0.00521 0.0
C146 C 0.67473 0.30595 0.0291 0.0
C147 C 0.70091 0.23795 0.00346 0.0
C148 C 0.71445 0.27289 0.02579 0.0
C149 C 0.70784 0.32266 0.05069 0.0
C150 C 0.6883 0.33922 0.05218 0.0
C151 C 0.73555 0.25889 0.02311 0.0
C152 C 0.74563 0.2418 0.05627 0.0
C153 C 0.7458 0.26315 0.98844 0.0
C154 C 0.73634 0.2851 0.95284 0.0
C155 C 0.72678 0.34722 0.951 0.0
C156 C 0.71783 0.36755 0.9174 0.0
C157 C 0.71847 0.32643 0.88532 0.0
C158 C 0.72811 0.26496 0.88677 0.0
C159 C 0.73706 0.24434 0.92033 0.0
H160 H 0.71154 0.34227 0.85932 0.0
H161 H 0.79537 0.14009 0.18701 0.0
H162 H 0.17006 0.71958 0.03228 0.0
H163 H 0.2043 0.68687 0.03244 0.0
H164 H 0.22004 0.88463 0.99362 0.0
H165 H 0.18622 0.91765 0.99396 0.0
H166 H 0.24026 0.782 0.95613 0.0
H167 H 0.22455 0.85281 0.08307 0.0
H168 H 0.206 0.85057 0.14269 0.0
H169 H 0.22159 0.6443 0.15982 0.0
H170 H 0.23999 0.64504 0.09993 0.0
H171 H 0.34129 0.77774 0.99742 0.0
H172 H 0.30718 0.81026 0.99476 0.0
H173 H 0.29138 0.62496 0.04984 0.0
H174 H 0.32504 0.59302 0.05333 0.0
H175 H 0.2709 0.72171 0.07858 0.0
H176 H 0.28646 0.64874 0.95252 0.0
H177 H 0.30455 0.64817 0.89234 0.0
H178 H 0.28896 0.85373 0.87272 0.0
H179 H 0.27098 0.85578 0.93309 0.0
C180 C 0.18083 0.75565 0.02335 0.0
C181 C 0.17543 0.82128 0.01334 0.0
C182 C 0.20038 0.73709 0.02361 0.0
C183 C 0.21477 0.78351 0.01325 0.0
C184 C 0.20926 0.84798 0.00172 0.0
C185 C 0.18988 0.86682 0.00211 0.0
C186 C 0.23564 0.76658 0.01586 0.0
C187 C 0.24701 0.76932 0.98294 0.0
C188 C 0.24443 0.74923 0.05072 0.0
C189 C 0.23345 0.74875 0.0868 0.0
C190 C 0.22387 0.80679 0.09937 0.0
C191 C 0.21341 0.80584 0.13324 0.0
C192 C 0.21257 0.74727 0.15497 0.0
C193 C 0.22222 0.68959 0.14291 0.0
C194 C 0.23267 0.69026 0.10902 0.0
C195 C 0.33056 0.7442 0.0092 0.0
C196 C 0.33605 0.68252 0.02535 0.0
C197 C 0.31102 0.76264 0.00745 0.0
C198 C 0.29657 0.71967 0.02167 0.0
C199 C 0.30213 0.65908 0.03862 0.0
C200 C 0.32152 0.64075 0.04041 0.0
C201 C 0.27564 0.7366 0.01873 0.0
C202 C 0.26422 0.73412 0.05167 0.0
C203 C 0.26679 0.75371 0.98381 0.0
C204 C 0.27756 0.75263 0.94751 0.0
C205 C 0.28702 0.69398 0.93552 0.0
C206 C 0.29723 0.69336 0.90135 0.0
C207 C 0.29796 0.75094 0.87878 0.0
C208 C 0.28842 0.80921 0.89028 0.0
C209 C 0.27821 0.81012 0.92445 0.0
H210 H 0.30586 0.75035 0.85233 0.0
H211 H 0.20447 0.74663 0.18119 0.0
H212 H 0.84282 0.71187 0.50326 0.0
H213 H 0.80871 0.67819 0.50517 0.0
H214 H 0.79175 0.88239 0.48271 0.0
H215 H 0.82531 0.91626 0.48076 0.0
H216 H 0.77043 0.82837 0.53962 0.0
H217 H 0.79064 0.76607 0.41314 0.0
H218 H 0.81088 0.70689 0.36642 0.0
H219 H 0.7943 0.51735 0.4144 0.0
H220 H 0.77415 0.57552 0.46174 0.0
H221 H 0.67101 0.7829 0.4917 0.0
H222 H 0.7053 0.81375 0.49212 0.0
H223 H 0.72074 0.60444 0.49901 0.0
H224 H 0.68694 0.57354 0.4973 0.0
H225 H 0.74327 0.65924 0.45132 0.0
H226 H 0.72305 0.71722 0.57717 0.0
H227 H 0.70315 0.77332 0.62562 0.0
H228 H 0.72006 0.9659 0.58216 0.0
H229 H 0.73988 0.91089 0.53313 0.0
C230 C 0.83182 0.7495 0.49869 0.0
C231 C 0.83697 0.81676 0.49174 0.0
C232 C 0.81232 0.73019 0.49972 0.0
C233 C 0.79762 0.77781 0.494 0.0
C234 C 0.80276 0.84476 0.48735 0.0
C235 C 0.82209 0.8639 0.48605 0.0
C236 C 0.77681 0.75885 0.49459 0.0
C237 C 0.76445 0.79173 0.52011 0.0
C238 C 0.76902 0.71012 0.46974 0.0
C239 C 0.78107 0.67517 0.44123 0.0
C240 C 0.79144 0.7118 0.41391 0.0
C241 C 0.80287 0.67844 0.38729 0.0
C242 C 0.80392 0.60841 0.38751 0.0
C243 C 0.7935 0.5716 0.4143 0.0
C244 C 0.78207 0.60473 0.44102 0.0
C245 C 0.68174 0.7436 0.49337 0.0
C246 C 0.67612 0.67577 0.49429 0.0
C247 C 0.70137 0.76123 0.49378 0.0
C248 C 0.71576 0.71145 0.49591 0.0
C249 C 0.71007 0.64393 0.4971 0.0
C250 C 0.6906 0.62636 0.49619 0.0
C251 C 0.73676 0.7287 0.49645 0.0
C252 C 0.74918 0.69563 0.47105 0.0
C253 C 0.74465 0.77672 0.52175 0.0
C254 C 0.73279 0.80993 0.55125 0.0
C255 C 0.72242 0.77153 0.57778 0.0
C256 C 0.71117 0.80312 0.60537 0.0
C257 C 0.7103 0.87313 0.6069 0.0
C258 C 0.72072 0.91168 0.58091 0.0
C259 C 0.73198 0.88032 0.55323 0.0
H260 H 0.70158 0.8975 0.62828 0.0
H261 H 0.81278 0.58268 0.36688 0.0
H262 H 0.17163 0.27446 0.5341 0.0
H263 H 0.20602 0.30317 0.53869 0.0
H264 H 0.21926 0.15115 0.45561 0.0
H265 H 0.18533 0.1215 0.45163 0.0
H266 H 0.24314 0.13983 0.51206 0.0
H267 H 0.22016 0.32568 0.43619 0.0
H268 H 0.19964 0.42371 0.42247 0.0
H269 H 0.22075 0.5225 0.52248 0.0
H270 H 0.24123 0.42469 0.53701 0.0
H271 H 0.34104 0.22541 0.47027 0.0
H272 H 0.30656 0.1978 0.46985 0.0
H273 H 0.29555 0.36337 0.54581 0.0
H274 H 0.32966 0.39306 0.54422 0.0
H275 H 0.27021 0.36819 0.4956 0.0
H276 H 0.29364 0.18491 0.57155 0.0
H277 H 0.314 0.08702 0.58649 0.0
H278 H 0.29192 0.98332 0.48891 0.0
H279 H 0.2716 0.0809 0.47315 0.0
C280 C 0.18187 0.24788 0.51649 0.0
C281 C 0.17569 0.19545 0.49267 0.0
C282 C 0.20155 0.26426 0.51912 0.0
C283 C 0.21537 0.22932 0.49748 0.0
C284 C 0.20904 0.1785 0.4729 0.0
C285 C 0.18954 0.16175 0.47058 0.0
C286 C 0.23648 0.24352 0.50086 0.0
C287 C 0.24907 0.18975 0.50809 0.0
C288 C 0.24431 0.30874 0.49674 0.0
C289 C 0.23207 0.36762 0.48788 0.0
C290 C 0.22032 0.36813 0.45538 0.0
C291 C 0.20871 0.42368 0.44744 0.0
C292 C 0.20885 0.47922 0.47164 0.0
C293 C 0.22064 0.47941 0.50378 0.0
C294 C 0.23226 0.42397 0.51187 0.0
C295 C 0.33125 0.25497 0.48735 0.0
C296 C 0.33801 0.31113 0.50741 0.0
C297 C 0.3115 0.23919 0.48721 0.0
C298 C 0.29824 0.27804 0.50812 0.0
C299 C 0.30527 0.33268 0.52921 0.0
C300 C 0.32484 0.34938 0.52854 0.0
C301 C 0.27699 0.2644 0.50676 0.0
C302 C 0.26434 0.31827 0.49984 0.0
C303 C 0.2691 0.19927 0.51143 0.0
C304 C 0.28123 0.14044 0.521 0.0
C305 C 0.29322 0.14138 0.55316 0.0
C306 C 0.30474 0.08593 0.56179 0.0
C307 C 0.30428 0.02905 0.53861 0.0
C308 C 0.29227 0.02743 0.50682 0.0
C309 C 0.28073 0.08275 0.49805 0.0
H310 H 0.31322 0.98619 0.54533 0.0
H311 H 0.19985 0.52216 0.46545 0.0
H312 H 0.62079 0.46413 0.09463 0.0
H313 H 0.62296 0.51591 0.1573 0.0
H314 H 0.60969 0.32572 0.20956 0.0
H315 H 0.60775 0.27308 0.14671 0.0
H316 H 0.58693 0.43504 0.23549 0.0
H317 H 0.65322 0.37884 0.21649 0.0
H318 H 0.68393 0.37527 0.18146 0.0
H319 H 0.68687 0.5905 0.18291 0.0
H320 H 0.65597 0.59543 0.21736 0.0
H321 H 0.60675 0.52171 0.42543 0.0
H322 H 0.60837 0.46816 0.36325 0.0
H323 H 0.6224 0.65846 0.31189 0.0
H324 H 0.62066 0.71288 0.37435 0.0
H325 H 0.64526 0.54938 0.28541 0.0
H326 H 0.57899 0.60682 0.30215 0.0
H327 H 0.54784 0.61248 0.33554 0.0
H328 H 0.54453 0.39729 0.33685 0.0
H329 H 0.57584 0.39033 0.30397 0.0
C330 C 0.6185 0.43312 0.11945 0.0
C331 C 0.61409 0.36454 0.11582 0.0
C332 C 0.6198 0.46278 0.15522 0.0
C333 C 0.61655 0.42456 0.18798 0.0
C334 C 0.61227 0.35595 0.18453 0.0
C335 C 0.61123 0.32597 0.1487 0.0
C336 C 0.61688 0.45716 0.2257 0.0
C337 C 0.59976 0.45907 0.24673 0.0
C338 C 0.63349 0.49027 0.23963 0.0
C339 C 0.65216 0.48752 0.21917 0.0
C340 C 0.66031 0.42545 0.20903 0.0
C341 C 0.67777 0.42317 0.18933 0.0
C342 C 0.68732 0.48262 0.17988 0.0
C343 C 0.67944 0.54448 0.1902 0.0
C344 C 0.66196 0.54705 0.20984 0.0
C345 C 0.61025 0.55225 0.40096 0.0
C346 C 0.61348 0.62159 0.40469 0.0
C347 C 0.61114 0.52155 0.36546 0.0
C348 C 0.61536 0.55946 0.33301 0.0
C349 C 0.6191 0.62843 0.33667 0.0
C350 C 0.61803 0.65942 0.37226 0.0
C351 C 0.61532 0.52687 0.29526 0.0
C352 C 0.63246 0.52513 0.2742 0.0
C353 C 0.59869 0.49415 0.28113 0.0
C354 C 0.57987 0.49805 0.30097 0.0
C355 C 0.57172 0.56068 0.30989 0.0
C356 C 0.55401 0.56414 0.32866 0.0
C357 C 0.54424 0.50528 0.33841 0.0
C358 C 0.55214 0.44284 0.32934 0.0
C359 C 0.56986 0.43911 0.31061 0.0
H360 H 0.53052 0.50805 0.35292 0.0
H361 H 0.70083 0.48075 0.16462 0.0
H362 H 0.39304 0.7214 0.14371 0.0
H363 H 0.38986 0.67054 0.20674 0.0
H364 H 0.3965 0.47373 0.15742 0.0
H365 H 0.39929 0.52393 0.09458 0.0
H366 H 0.36892 0.47213 0.20981 0.0
H367 H 0.43421 0.55441 0.20148 0.0
H368 H 0.45942 0.63999 0.1916 0.0
H369 H 0.43679 0.75604 0.28399 0.0
H370 H 0.41128 0.67151 0.2941 0.0
H371 H 0.3973 0.2825 0.37201 0.0
H372 H 0.39442 0.3383 0.31037 0.0
H373 H 0.38915 0.52979 0.36659 0.0
H374 H 0.39252 0.47463 0.42802 0.0
H375 H 0.41441 0.53822 0.31174 0.0
H376 H 0.35022 0.45131 0.32277 0.0
H377 H 0.32542 0.36438 0.33284 0.0
H378 H 0.34606 0.256 0.23578 0.0
H379 H 0.37116 0.34182 0.22544 0.0
C380 C 0.39372 0.6673 0.14636 0.0
C381 C 0.39652 0.62669 0.11427 0.0
C382 C 0.39196 0.63831 0.18236 0.0
C383 C 0.39317 0.56832 0.18685 0.0
C384 C 0.39551 0.52778 0.15467 0.0
C385 C 0.39718 0.55663 0.11876 0.0
C386 C 0.39254 0.537 0.22504 0.0
C387 C 0.37896 0.48618 0.23203 0.0
C388 C 0.40537 0.55625 0.25428 0.0
C389 C 0.42072 0.60703 0.24826 0.0
C390 C 0.43452 0.59844 0.21949 0.0
C391 C 0.44888 0.64671 0.21388 0.0
C392 C 0.44967 0.70352 0.23707 0.0
C393 C 0.43613 0.71208 0.266 0.0
C394 C 0.42173 0.664 0.27169 0.0
C395 C 0.39532 0.33639 0.37118 0.0
C396 C 0.39519 0.37421 0.4048 0.0
C397 C 0.3936 0.36823 0.33596 0.0
C398 C 0.39142 0.43828 0.33383 0.0
C399 C 0.39085 0.47577 0.3675 0.0
C400 C 0.39273 0.4441 0.4026 0.0
C401 C 0.39081 0.47309 0.29659 0.0
C402 C 0.40422 0.5245 0.28971 0.0
C403 C 0.37783 0.45425 0.26748 0.0
C404 C 0.36268 0.40273 0.27353 0.0
C405 C 0.34956 0.40869 0.30374 0.0
C406 C 0.33544 0.35966 0.30946 0.0
C407 C 0.3342 0.30463 0.28502 0.0
C408 C 0.34705 0.29861 0.25472 0.0
C409 C 0.36122 0.34748 0.24889 0.0
H410 H 0.32325 0.26671 0.2895 0.0
H411 H 0.46079 0.74082 0.23269 0.0
H412 H 0.39849 0.46692 0.92071 0.0
H413 H 0.40462 0.43687 0.85515 0.0
H414 H 0.41994 0.64199 0.83011 0.0
H415 H 0.41342 0.6733 0.89614 0.0
H416 H 0.39571 0.59421 0.77873 0.0
H417 H 0.45469 0.51502 0.83275 0.0
H418 H 0.4753 0.45348 0.87785 0.0
H419 H 0.44869 0.26771 0.84495 0.0
H420 H 0.42781 0.3282 0.79983 0.0
H421 H 0.4207 0.51673 0.59175 0.0
H422 H 0.42509 0.54897 0.6579 0.0
H423 H 0.40742 0.35112 0.69348 0.0
H424 H 0.40344 0.31779 0.62695 0.0
H425 H 0.43571 0.40032 0.73897 0.0
H426 H 0.37508 0.47954 0.68976 0.0
H427 H 0.3541 0.53958 0.64467 0.0
H428 H 0.38333 0.72443 0.66974 0.0
H429 H 0.40467 0.66525 0.71461 0.0
C430 C 0.40331 0.5059 0.90152 0.0
C431 C 0.40542 0.57277 0.91387 0.0
C432 C 0.40697 0.48833 0.86395 0.0
C433 C 0.41307 0.53683 0.83777 0.0
C434 C 0.41536 0.6036 0.84991 0.0
C435 C 0.41161 0.62142 0.88765 0.0
C436 C 0.41564 0.51824 0.79728 0.0
C437 C 0.40481 0.55278 0.76998 0.0
C438 C 0.42706 0.46283 0.78593 0.0
C439 C 0.43959 0.42626 0.81308 0.0
C440 C 0.45314 0.46111 0.83531 0.0
C441 C 0.4649 0.42639 0.86082 0.0
C442 C 0.46328 0.35676 0.86431 0.0
C443 C 0.44993 0.32166 0.84221 0.0
C444 C 0.43816 0.35612 0.8166 0.0
C445 C 0.41801 0.47966 0.6136 0.0
C446 C 0.41143 0.41496 0.60416 0.0
C447 C 0.42049 0.49826 0.65141 0.0
C448 C 0.41611 0.45302 0.68065 0.0
C449 C 0.41076 0.38698 0.67134 0.0
C450 C 0.40849 0.36798 0.63334 0.0
C451 C 0.41574 0.47622 0.72066 0.0
C452 C 0.42686 0.44235 0.74778 0.0
C453 C 0.40452 0.53211 0.73197 0.0
C454 C 0.3916 0.56785 0.70523 0.0
C455 C 0.37712 0.5329 0.68545 0.0
C456 C 0.36515 0.56679 0.65997 0.0
C457 C 0.36741 0.63574 0.65427 0.0
C458 C 0.38161 0.671 0.67413 0.0
C459 C 0.39364 0.63732 0.69961 0.0
H460 H 0.35813 0.66189 0.63452 0.0
H461 H 0.47238 0.32998 0.8841 0.0
H462 H 0.59261 0.51097 0.92846 0.0
H463 H 0.58941 0.5458 0.86213 0.0
H464 H 0.61566 0.36059 0.826 0.0
H465 H 0.61843 0.32444 0.89238 0.0
H466 H 0.63355 0.4913 0.80103 0.0
H467 H 0.57369 0.36928 0.80483 0.0
H468 H 0.54164 0.3397 0.82985 0.0
H469 H 0.52207 0.54103 0.81017 0.0
H470 H 0.55415 0.57215 0.78557 0.0
H471 H 0.62484 0.48443 0.60431 0.0
H472 H 0.62134 0.45849 0.67126 0.0
H473 H 0.59129 0.64506 0.68901 0.0
H474 H 0.5949 0.67233 0.62121 0.0
H475 H 0.57411 0.52415 0.72495 0.0
H476 H 0.63294 0.64628 0.71892 0.0
H477 H 0.66485 0.67786 0.69394 0.0
H478 H 0.6863 0.48086 0.71918 0.0
H479 H 0.65441 0.44767 0.74373 0.0
C480 C 0.59738 0.47715 0.90633 0.0
C481 C 0.60582 0.41508 0.9155 0.0
C482 C 0.59549 0.49705 0.86854 0.0
C483 C 0.60232 0.45575 0.83936 0.0
C484 C 0.61027 0.39295 0.84828 0.0
C485 C 0.61176 0.3723 0.88609 0.0
C486 C 0.60269 0.48077 0.79991 0.0
C487 C 0.62059 0.49778 0.78421 0.0
C488 C 0.58566 0.49169 0.77876 0.0
C489 C 0.56642 0.4733 0.79385 0.0
C490 C 0.56264 0.40751 0.80629 0.0
C491 C 0.54444 0.39038 0.82028 0.0
C492 C 0.52984 0.43851 0.82173 0.0
C493 C 0.53341 0.50383 0.80911 0.0
C494 C 0.55159 0.52123 0.79513 0.0
C495 C 0.61737 0.52012 0.6222 0.0
C496 C 0.61015 0.58061 0.60732 0.0
C497 C 0.61544 0.50513 0.66055 0.0
C498 C 0.60614 0.54993 0.685 0.0
C499 C 0.59852 0.60989 0.67043 0.0
C500 C 0.60068 0.6255 0.63184 0.0
C501 C 0.60502 0.53352 0.72587 0.0
C502 C 0.58704 0.51826 0.74191 0.0
C503 C 0.62196 0.5247 0.7476 0.0
C504 C 0.64121 0.54428 0.73284 0.0
C505 C 0.6444 0.60944 0.7188 0.0
C506 C 0.6625 0.62769 0.70478 0.0
C507 C 0.67758 0.58135 0.70488 0.0
C508 C 0.6746 0.51669 0.71907 0.0
C509 C 0.65651 0.49814 0.73307 0.0
H510 H 0.69159 0.59558 0.69404 0.0
H511 H 0.51575 0.42515 0.83253 0.0
H512 H 0.10784 0.9798 0.09323 0.0
H513 H 0.11118 0.03094 0.15562 0.0
H514 H 0.12912 0.84058 0.20207 0.0
H515 H 0.12505 0.78831 0.13954 0.0
H516 H 0.10405 0.89681 0.24712 0.0
H517 H 0.16149 0.97433 0.18596 0.0
H518 H 0.18047 0.02665 0.13475 0.0
H519 H 0.14999 0.21194 0.15045 0.0
H520 H 0.13064 0.16047 0.20142 0.0
H521 H 0.12682 0.03771 0.42467 0.0
H522 H 0.13046 0.98343 0.36309 0.0
H523 H 0.11241 0.16577 0.30745 0.0
H524 H 0.10965 0.2214 0.36922 0.0
H525 H 0.13995 0.10912 0.26804 0.0
H526 H 0.08088 0.02885 0.32518 0.0
H527 H 0.06138 0.97637 0.37562 0.0
H528 H 0.09482 0.79591 0.36671 0.0
H529 H 0.11466 0.84763 0.31652 0.0
C530 C 0.11262 0.94882 0.11666 0.0
C531 C 0.11623 0.88006 0.11152 0.0
C532 C 0.11464 0.97828 0.15232 0.0
C533 C 0.12077 0.94 0.18348 0.0
C534 C 0.12446 0.87122 0.1784 0.0
C535 C 0.12217 0.84142 0.14271 0.0
C536 C 0.12241 0.9714 0.2216 0.0
C537 C 0.11221 0.94253 0.25183 0.0
C538 C 0.13269 0.03198 0.22763 0.0
C539 C 0.14453 0.06338 0.19737 0.0
C540 C 0.15877 0.02613 0.17837 0.0
C541 C 0.1696 0.05565 0.14939 0.0
C542 C 0.16642 0.12254 0.13932 0.0
C543 C 0.15244 0.16013 0.15828 0.0
C544 C 0.14156 0.13084 0.18726 0.0
C545 C 0.12379 0.06645 0.39931 0.0
C546 C 0.11778 0.13361 0.40171 0.0
C547 C 0.12578 0.03523 0.3641 0.0
C548 C 0.12123 0.0699 0.33061 0.0
C549 C 0.1159 0.13783 0.33289 0.0
C550 C 0.11429 0.16955 0.36816 0.0
C551 C 0.12143 0.03482 0.29339 0.0
C552 C 0.13195 0.06304 0.26336 0.0
C553 C 0.11143 0.97364 0.28748 0.0
C554 C 0.09936 0.94232 0.31736 0.0
C555 C 0.08414 0.97811 0.33413 0.0
C556 C 0.07302 0.94849 0.36265 0.0
C557 C 0.07689 0.88291 0.37443 0.0
C558 C 0.09185 0.84673 0.3576 0.0
C559 C 0.10302 0.87614 0.3291 0.0
H560 H 0.06827 0.86009 0.39653 0.0
H561 H 0.1748 0.14528 0.11685 0.0
H562 H 0.8988 0.77708 0.37264 0.0
H563 H 0.89674 0.82827 0.30949 0.0
H564 H 0.8966 0.02518 0.36038 0.0
H565 H 0.89847 0.97462 0.42327 0.0
H566 H 0.87059 0.01708 0.30363 0.0
H567 H 0.93737 0.96202 0.32294 0.0
H568 H 0.9647 0.88734 0.33742 0.0
H569 H 0.95044 0.76417 0.24146 0.0
H570 H 0.92284 0.83767 0.22671 0.0
H571 H 0.89767 0.21811 0.1455 0.0
H572 H 0.89654 0.16141 0.20713 0.0
H573 H 0.89712 0.96911 0.15088 0.0
H574 H 0.89856 0.02527 0.08941 0.0
H575 H 0.92196 0.97126 0.20933 0.0
H576 H 0.85628 0.03304 0.1876 0.0
H577 H 0.83046 0.11276 0.17188 0.0
H578 H 0.84286 0.22558 0.2728 0.0
H579 H 0.86927 0.14762 0.28848 0.0
C580 C 0.89821 0.83123 0.37031 0.0
C581 C 0.89889 0.87184 0.40285 0.0
C582 C 0.89709 0.8604 0.33427 0.0
C583 C 0.8967 0.93057 0.33026 0.0
C584 C 0.89687 0.97098 0.36281 0.0
C585 C 0.89802 0.94195 0.39874 0.0
C586 C 0.8967 0.96236 0.29224 0.0
C587 C 0.88189 0.0075 0.28311 0.0
C588 C 0.91129 0.94899 0.26526 0.0
C589 C 0.92791 0.90489 0.27398 0.0
C590 C 0.93997 0.91869 0.30511 0.0
C591 C 0.95552 0.87664 0.31334 0.0
C592 C 0.95926 0.82092 0.29045 0.0
C593 C 0.94749 0.80727 0.25921 0.0
C594 C 0.9319 0.84912 0.25089 0.0
C595 C 0.89745 0.16378 0.14631 0.0
C596 C 0.89815 0.12614 0.11266 0.0
C597 C 0.89679 0.13144 0.1815 0.0
C598 C 0.89662 0.06099 0.18356 0.0
C599 C 0.89728 0.02346 0.14995 0.0
C600 C 0.898 0.05569 0.11485 0.0
C601 C 0.89589 0.02619 0.22073 0.0
C602 C 0.91057 0.98051 0.22972 0.0
C603 C 0.88122 0.03926 0.2476 0.0
C604 C 0.86489 0.08482 0.23901 0.0
C605 C 0.85359 0.07507 0.20634 0.0
C606 C 0.83884 0.12001 0.19742 0.0
C607 C 0.83499 0.17428 0.22133 0.0
C608 C 0.84587 0.18356 0.25428 0.0
C609 C 0.86076 0.13907 0.26316 0.0
H610 H 0.8236 0.20918 0.21435 0.0
H611 H 0.97131 0.78842 0.29687 0.0
H612 H 0.89098 0.02479 0.59891 0.0
H613 H 0.89621 0.05596 0.6646 0.0
H614 H 0.92255 0.86377 0.68623 0.0
H615 H 0.91691 0.83104 0.61997 0.0
H616 H 0.89793 0.89591 0.74107 0.0
H617 H 0.94994 0.00984 0.6797 0.0
H618 H 0.96519 0.0824 0.63163 0.0
H619 H 0.93104 0.24923 0.66907 0.0
H620 H 0.9154 0.17748 0.71704 0.0
H621 H 0.92226 0.99471 0.9259 0.0
H622 H 0.92665 0.96143 0.85987 0.0
H623 H 0.90027 0.14633 0.82312 0.0
H624 H 0.89649 0.18109 0.88944 0.0
H625 H 0.92858 0.11234 0.77626 0.0
H626 H 0.8742 0.99706 0.83181 0.0
H627 H 0.85795 0.92554 0.87913 0.0
H628 H 0.89576 0.76228 0.85162 0.0
H629 H 0.9124 0.83315 0.80445 0.0
C630 C 0.89802 0.98899 0.61739 0.0
C631 C 0.90365 0.92541 0.60399 0.0
C632 C 0.9011 0.00721 0.65503 0.0
C633 C 0.91018 0.9629 0.68018 0.0
C634 C 0.91567 0.89901 0.66718 0.0
C635 C 0.91243 0.88036 0.62936 0.0
C636 C 0.91305 0.9829 0.72036 0.0
C637 C 0.90501 0.9425 0.74882 0.0
C638 C 0.92187 0.0446 0.73042 0.0
C639 C 0.93142 0.08811 0.70185 0.0
C640 C 0.9456 0.0619 0.67755 0.0
C641 C 0.95433 0.10291 0.65033 0.0
C642 C 0.94907 0.17035 0.64726 0.0
C643 C 0.93511 0.19698 0.67148 0.0
C644 C 0.92633 0.15619 0.69873 0.0
C645 C 0.91765 0.02875 0.90373 0.0
C646 C 0.9088 0.09013 0.91276 0.0
C647 C 0.9201 0.00953 0.86601 0.0
C648 C 0.9133 0.05049 0.83656 0.0
C649 C 0.9055 0.11367 0.84542 0.0
C650 C 0.90335 0.13354 0.88327 0.0
C651 C 0.91325 0.02572 0.79682 0.0
C652 C 0.92176 0.06528 0.7685 0.0
C653 C 0.90478 0.9634 0.7868 0.0
C654 C 0.89466 0.9206 0.8149 0.0
C655 C 0.87912 0.94603 0.83603 0.0
C656 C 0.86983 0.90561 0.8628 0.0
C657 C 0.87585 0.83947 0.86845 0.0
C658 C 0.89113 0.81355 0.84725 0.0
C659 C 0.90049 0.8538 0.82048 0.0
H660 H 0.86865 0.80826 0.8892 0.0
H661 H 0.95583 0.202 0.62615 0.0
H662 H 0.09283 0.83309 0.89603 0.0
H663 H 0.08675 0.86275 0.82952 0.0
H664 H 0.112 0.05793 0.8484 0.0
H665 H 0.11754 0.02987 0.91438 0.0
H666 H 0.08154 0.07117 0.80594 0.0
H667 H 0.13722 0.92262 0.8068 0.0
H668 H 0.154 0.81614 0.82019 0.0
H669 H 0.11308 0.70948 0.75141 0.0
H670 H 0.09594 0.81531 0.73797 0.0
H671 H 0.11419 0.17969 0.62517 0.0
H672 H 0.109 0.14541 0.69102 0.0
H673 H 0.08582 0.95605 0.65257 0.0
H674 H 0.09185 0.98891 0.58697 0.0
H675 H 0.11042 0.93249 0.70409 0.0
H676 H 0.05759 0.08641 0.6956 0.0
H677 H 0.04151 0.19418 0.68219 0.0
H678 H 0.07713 0.29233 0.76496 0.0
H679 H 0.09362 0.18545 0.77848 0.0
C680 C 0.09698 0.88239 0.88599 0.0
C681 C 0.10573 0.92891 0.91061 0.0
C682 C 0.09354 0.89926 0.84796 0.0
C683 C 0.09909 0.96244 0.83382 0.0
C684 C 0.10749 0.00906 0.85858 0.0
C685 C 0.11072 0.99266 0.89644 0.0
C686 C 0.09697 0.98024 0.79309 0.0
C687 C 0.0879 0.04099 0.78361 0.0
C688 C 0.10481 0.94011 0.76384 0.0
C689 C 0.11519 0.87667 0.77175 0.0
C690 C 0.13174 0.87638 0.79474 0.0
C691 C 0.14132 0.81617 0.8023 0.0
C692 C 0.13457 0.75605 0.78675 0.0
C693 C 0.11826 0.75606 0.7635 0.0
C694 C 0.10862 0.81612 0.75588 0.0
C695 C 0.10769 0.13126 0.63082 0.0
C696 C 0.10353 0.08683 0.601 0.0
C697 C 0.10463 0.11173 0.66848 0.0
C698 C 0.09684 0.0482 0.67691 0.0
C699 C 0.09191 0.00512 0.64692 0.0
C700 C 0.09534 0.02402 0.60942 0.0
C701 C 0.09531 0.02433 0.7168 0.0
C702 C 0.10372 0.96235 0.72616 0.0
C703 C 0.0869 0.06354 0.7459 0.0
C704 C 0.07692 0.12789 0.73789 0.0
C705 C 0.06208 0.13105 0.71077 0.0
C706 C 0.05288 0.19199 0.70317 0.0
C707 C 0.05831 0.25005 0.72269 0.0
C708 C 0.07294 0.24731 0.74987 0.0
C709 C 0.0822 0.18655 0.75754 0.0
H710 H 0.05116 0.29714 0.71686 0.0
H711 H 0.14201 0.7095 0.79265 0.0
H712 H 0.42294 0.90743 0.99446 0.0
H713 H 0.45045 0.98433 0.98897 0.0
H714 H 0.48907 0.81502 0.98343 0.0
H715 H 0.46182 0.73877 0.99058 0.0
H716 H 0.50342 0.89797 0.02946 0.0
H717 H 0.47689 0.92343 0.90452 0.0
H718 H 0.45209 0.94809 0.85641 0.0
H719 H 0.44634 0.14835 0.8999 0.0
H720 H 0.47087 0.12454 0.94869 0.0
H721 H 0.5879 0.08677 0.98476 0.0
H722 H 0.56049 0.00946 0.97805 0.0
H723 H 0.52116 0.17306 0.99789 0.0
H724 H 0.54829 0.25012 0.00431 0.0
H725 H 0.50774 0.09263 0.94232 0.0
H726 H 0.53297 0.06422 0.06878 0.0
H727 H 0.55816 0.04025 0.11623 0.0
H728 H 0.56659 0.84457 0.06803 0.0
H729 H 0.54161 0.86776 0.01996 0.0
C730 C 0.43729 0.88677 0.99158 0.0
C731 C 0.44018 0.817 0.99305 0.0
C732 C 0.45306 0.93078 0.98828 0.0
C733 C 0.47201 0.90586 0.98548 0.0
C734 C 0.47472 0.83597 0.98576 0.0
C735 C 0.45907 0.79225 0.98972 0.0
C736 C 0.48915 0.9518 0.98444 0.0
C737 C 0.50442 0.93974 0.00983 0.0
C738 C 0.49048 0.00773 0.95964 0.0
C739 C 0.47558 0.02192 0.93054 0.0
C740 C 0.47021 0.97251 0.90407 0.0
C741 C 0.45621 0.98637 0.87664 0.0
C742 C 0.4476 0.04966 0.87518 0.0
C743 C 0.45298 0.09928 0.90112 0.0
C744 C 0.46694 0.08563 0.92866 0.0
C745 C 0.57341 0.1063 0.9873 0.0
C746 C 0.57033 0.1746 0.99529 0.0
C747 C 0.55773 0.06202 0.98364 0.0
C748 C 0.53868 0.08518 0.98789 0.0
C749 C 0.53564 0.15378 0.9945 0.0
C750 C 0.55124 0.19782 0.99831 0.0
C751 C 0.5219 0.03808 0.98701 0.0
C752 C 0.50671 0.05026 0.96154 0.0
C753 C 0.52062 0.98208 0.01158 0.0
C754 C 0.53558 0.96801 0.04054 0.0
C755 C 0.54031 0.01629 0.06813 0.0
C756 C 0.55452 0.00281 0.09516 0.0
C757 C 0.56401 0.941 0.09507 0.0
C758 C 0.55925 0.89247 0.06802 0.0
C759 C 0.54506 0.90573 0.04089 0.0
H760 H 0.57501 0.93065 0.11603 0.0
H761 H 0.43679 0.06032 0.85389 0.0
H762 H 0.55306 0.74626 0.54367 0.0
H763 H 0.52591 0.82336 0.54936 0.0
H764 H 0.56184 0.98589 0.50982 0.0
H765 H 0.58945 0.90914 0.50664 0.0
H766 H 0.53875 0.03456 0.55838 0.0
H767 H 0.52801 0.89107 0.45066 0.0
H768 H 0.52455 0.78309 0.41709 0.0
H769 H 0.47683 0.73043 0.48867 0.0
H770 H 0.48016 0.83778 0.52297 0.0
H771 H 0.46422 0.24688 0.4919 0.0
H772 H 0.49146 0.17077 0.49809 0.0
H773 H 0.4544 0.02188 0.54881 0.0
H774 H 0.42677 0.09789 0.54185 0.0
H775 H 0.47743 0.96557 0.49739 0.0
H776 H 0.48762 0.11649 0.60204 0.0
H777 H 0.49127 0.22729 0.63242 0.0
H778 H 0.54036 0.26946 0.56224 0.0
H779 H 0.53686 0.15926 0.5311 0.0
C780 C 0.55523 0.7987 0.53672 0.0
C781 C 0.57335 0.82165 0.52454 0.0
C782 C 0.53961 0.84275 0.53957 0.0
C783 C 0.54148 0.9104 0.52876 0.0
C784 C 0.55985 0.93399 0.51807 0.0
C785 C 0.57566 0.89015 0.51629 0.0
C786 C 0.52425 0.95582 0.52768 0.0
C787 C 0.52545 0.01958 0.54461 0.0
C788 C 0.50659 0.93642 0.51044 0.0
C789 C 0.50445 0.87217 0.48959 0.0
C790 C 0.51685 0.8563 0.45936 0.0
C791 C 0.5149 0.79523 0.4402 0.0
C792 C 0.50051 0.74986 0.4508 0.0
C793 C 0.48799 0.76558 0.48052 0.0
C794 C 0.48989 0.82654 0.4998 0.0
C795 C 0.4618 0.1981 0.50459 0.0
C796 C 0.44325 0.17869 0.51653 0.0
C797 C 0.47749 0.15461 0.50832 0.0
C798 C 0.47517 0.09075 0.52455 0.0
C799 C 0.45664 0.07098 0.53638 0.0
C800 C 0.44084 0.11452 0.53247 0.0
C801 C 0.49199 0.04417 0.52792 0.0
C802 C 0.49071 0.98028 0.51133 0.0
C803 C 0.50963 0.06382 0.54501 0.0
C804 C 0.51189 0.12978 0.56406 0.0
C805 C 0.49913 0.14954 0.59294 0.0
C806 C 0.50118 0.21222 0.61032 0.0
C807 C 0.51602 0.25543 0.59922 0.0
C808 C 0.52887 0.23596 0.5708 0.0
C809 C 0.52688 0.17335 0.55332 0.0
H810 H 0.51757 0.30395 0.61268 0.0
H811 H 0.49904 0.7026 0.43595 0.0
H812 H 0.08755 0.59982 0.9853 0.0
H813 H 0.05998 0.52286 0.98081 0.0
H814 H 0.02112 0.68875 0.99842 0.0
H815 H 0.04846 0.76493 0.00389 0.0
H816 H 0.01034 0.5912 0.04119 0.0
H817 H 0.02737 0.60804 0.90988 0.0
H818 H 0.04863 0.60233 0.85397 0.0
H819 H 0.05834 0.39266 0.87443 0.0
H820 H 0.03734 0.39733 0.93082 0.0
H821 H 0.92307 0.41743 0.99596 0.0
H822 H 0.95036 0.49571 0.99065 0.0
H823 H 0.98987 0.32898 0.99093 0.0
H824 H 0.96283 0.25096 0.99662 0.0
H825 H 0.99992 0.42669 0.93761 0.0
H826 H 0.98339 0.41259 0.07001 0.0
H827 H 0.96169 0.41918 0.12523 0.0
H828 H 0.95056 0.62674 0.10102 0.0
H829 H 0.97199 0.62108 0.04528 0.0
C830 C 0.07312 0.61986 0.98783 0.0
C831 C 0.07026 0.68856 0.99504 0.0
C832 C 0.05732 0.57584 0.98514 0.0
C833 C 0.03832 0.59977 0.98906 0.0
C834 C 0.03554 0.66864 0.99547 0.0
C835 C 0.05125 0.71233 0.99847 0.0
C836 C 0.02131 0.55336 0.98814 0.0
C837 C 0.00797 0.55608 0.01813 0.0
C838 C 0.01826 0.50615 0.95862 0.0
C839 C 0.03094 0.50322 0.92482 0.0
C840 C 0.03417 0.56085 0.90266 0.0
C841 C 0.04615 0.55777 0.87084 0.0
C842 C 0.05487 0.49721 0.86071 0.0
C843 C 0.0516 0.43956 0.88235 0.0
C844 C 0.03965 0.44238 0.91423 0.0
C845 C 0.93756 0.39751 0.99449 0.0
C846 C 0.94076 0.32796 0.9969 0.0
C847 C 0.95316 0.44227 0.99159 0.0
C848 C 0.97223 0.4183 0.99064 0.0
C849 C 0.97534 0.34877 0.99159 0.0
C850 C 0.95983 0.30422 0.995 0.0
C851 C 0.989 0.46533 0.99039 0.0
C852 C 1.0023 0.46236 0.96039 0.0
C853 C 0.99199 0.51267 0.01974 0.0
C854 C 0.97911 0.51619 0.05323 0.0
C855 C 0.97617 0.45946 0.07626 0.0
C856 C 0.96395 0.46306 0.10769 0.0
C857 C 0.9547 0.52329 0.11656 0.0
C858 C 0.9577 0.58009 0.09407 0.0
C859 C 0.96989 0.57672 0.06256 0.0
H860 H 0.94525 0.52599 0.14092 0.0
H861 H 0.06413 0.49492 0.83605 0.0
H862 H 0.08678 0.40591 0.54159 0.0
H863 H 0.05904 0.48169 0.54817 0.0
H864 H 0.02195 0.33035 0.49986 0.0
H865 H 0.04937 0.2551 0.49319 0.0
H866 H 0.01509 0.44842 0.46757 0.0
H867 H 0.02058 0.36486 0.59375 0.0
H868 H 0.03676 0.33844 0.65411 0.0
H869 H 0.04772 0.54801 0.67286 0.0
H870 H 0.03184 0.57561 0.61219 0.0
H871 H 0.92364 0.59119 0.51547 0.0
H872 H 0.95116 0.51384 0.51952 0.0
H873 H 0.98918 0.68075 0.541 0.0
H874 H 0.96193 0.75826 0.53579 0.0
H875 H 0.99537 0.55594 0.5884 0.0
H876 H 0.99026 0.63595 0.45918 0.0
H877 H 0.97301 0.65834 0.39936 0.0
H878 H 0.96013 0.44847 0.38787 0.0
H879 H 0.97707 0.42502 0.44802 0.0
C880 C 0.07269 0.38876 0.53259 0.0
C881 C 0.07035 0.32438 0.51684 0.0
C882 C 0.05681 0.43203 0.53646 0.0
C883 C 0.03831 0.4118 0.5246 0.0
C884 C 0.03602 0.34741 0.50911 0.0
C885 C 0.05177 0.30424 0.50544 0.0
C886 C 0.02135 0.45779 0.52723 0.0
C887 C 0.01071 0.47119 0.49415 0.0
C888 C 0.01564 0.48848 0.56172 0.0
C889 C 0.02523 0.47224 0.59819 0.0
C890 C 0.02661 0.40528 0.61055 0.0
C891 C 0.03569 0.39009 0.64487 0.0
C892 C 0.04332 0.44149 0.66728 0.0
C893 C 0.04183 0.50823 0.65544 0.0
C894 C 0.03278 0.52368 0.62108 0.0
C895 C 0.93781 0.6112 0.52168 0.0
C896 C 0.94063 0.6808 0.52523 0.0
C897 C 0.95353 0.56703 0.5239 0.0
C898 C 0.97224 0.59156 0.53053 0.0
C899 C 0.97489 0.66068 0.536 0.0
C900 C 0.9593 0.7049 0.53289 0.0
C901 C 0.98924 0.546 0.52883 0.0
C902 C 0.99984 0.53293 0.56195 0.0
C903 C 0.99485 0.51497 0.49449 0.0
C904 C 0.98471 0.52887 0.45832 0.0
C905 C 0.98357 0.59469 0.44411 0.0
C906 C 0.97389 0.60755 0.41011 0.0
C907 C 0.96542 0.55489 0.38989 0.0
C908 C 0.96666 0.48923 0.40361 0.0
C909 C 0.9763 0.47612 0.43764 0.0
H910 H 0.95794 0.56493 0.36356 0.0
H911 H 0.05034 0.42964 0.69386 0.0
loop_
_geom_bond_atom_site_label_1
_geom_bond_atom_site_label_2
_geom_bond_distance
_geom_bond_site_symmetry_2
_ccdc_geom_bond_type
Co0 O1 2.216 . S
Co0 O2 2.091 . S
Co0 O4 2.004 . S
Co0 O10 2.021 1_554 S
Co0 O12 2.137 . S
Co0 O13 2.244 . S
O1 Co0 2.216 . S
O1 C8 1.247 . S
O2 Co0 2.091 . S
O2 C8 1.261 . S
C3 O12 1.247 . S
C3 O13 1.272 . S
O4 Co0 2.004 . S
O4 C9 1.259 . S
Co5 O6 2.061 . S
Co5 O11 2.052 1_554 S
Co5 O13 2.135 . S
O6 Co5 2.061 . S
O6 C9 1.235 . S
C7 O10 1.238 . S
C7 O11 1.241 . S
C8 O1 1.247 . S
C8 O2 1.261 . S
C9 O4 1.259 . S
C9 O6 1.235 . S
O10 Co0 2.021 1_556 S
O10 C7 1.238 . S
O11 Co5 2.052 1_556 S
O11 C7 1.241 . S
O12 Co0 2.137 . S
O12 C3 1.247 . S
O13 Co0 2.244 . S
O13 C3 1.272 . S
O13 Co5 2.135 . S
Co14 O15 2.216 . S
Co14 O16 2.091 . S
Co14 O18 2.004 . S
Co14 O24 2.021 1_554 S
Co14 O26 2.137 . S
Co14 O27 2.244 . S
O15 Co14 2.216 . S
O15 C22 1.247 . S
O16 Co14 2.091 . S
O16 C22 1.261 . S
C17 O26 1.247 . S
C17 O27 1.272 . S
O18 Co14 2.004 . S
O18 C23 1.259 . S
Co19 O20 2.061 . S
Co19 O25 2.052 1_554 S
Co19 O27 2.135 . S
O20 Co19 2.061 . S
O20 C23 1.235 . S
C21 O24 1.238 . S
C21 O25 1.241 . S
C22 O15 1.247 . S
C22 O16 1.261 . S
C23 O18 1.259 . S
C23 O20 1.235 . S
O24 Co14 2.021 1_556 S
O24 C21 1.238 . S
O25 Co19 2.052 1_556 S
O25 C21 1.241 . S
O26 Co14 2.137 . S
O26 C17 1.247 . S
O27 Co14 2.244 . S
O27 C17 1.272 . S
O27 Co19 2.135 . S
Co28 O29 2.216 . S
Co28 O30 2.091 . S
Co28 O32 2.004 . S
Co28 O38 2.021 . S
Co28 O40 2.137 . S
Co28 O41 2.244 . S
O29 Co28 2.216 . S
O29 C36 1.247 . S
O30 Co28 2.091 . S
O30 C36 1.261 . S
C31 O40 1.247 . S
C31 O41 1.272 . S
O32 Co28 2.004 . S
O32 C37 1.259 . S
Co33 O34 2.061 . S
Co33 O39 2.052 . S
Co33 O41 2.135 . S
O34 Co33 2.061 . S
O34 C37 1.235 . S
C35 O38 1.238 . S
C35 O39 1.241 . S
C36 O29 1.247 . S
C36 O30 1.261 . S
C37 O32 1.259 . S
C37 O34 1.235 . S
O38 Co28 2.021 . S
O38 C35 1.238 . S
O39 Co33 2.052 . S
O39 C35 1.241 . S
O40 Co28 2.137 . S
O40 C31 1.247 . S
O41 Co28 2.244 . S
O41 C31 1.272 . S
O41 Co33 2.135 . S
Co42 O43 2.216 . S
Co42 O44 2.091 . S
Co42 O46 2.004 . S
Co42 O52 2.021 . S
Co42 O54 2.137 . S
Co42 O55 2.244 . S
O43 Co42 2.216 . S
O43 C50 1.247 . S
O44 Co42 2.091 . S
O44 C50 1.261 . S
C45 O54 1.247 . S
C45 O55 1.272 . S
O46 Co42 2.004 . S
O46 C51 1.259 . S
Co47 O48 2.061 . S
Co47 O53 2.052 . S
Co47 O55 2.135 . S
O48 Co47 2.061 . S
O48 C51 1.235 . S
C49 O52 1.238 . S
C49 O53 1.241 . S
C50 O43 1.247 . S
C50 O44 1.261 . S
C51 O46 1.259 . S
C51 O48 1.235 . S
O52 Co42 2.021 . S
O52 C49 1.238 . S
O53 Co47 2.052 . S
O53 C49 1.241 . S
O54 Co42 2.137 . S
O54 C45 1.247 . S
O55 Co42 2.244 . S
O55 C45 1.272 . S
O55 Co47 2.135 . S
Co56 O57 2.216 . S
Co56 O58 2.091 . S
Co56 O60 2.004 . S
Co56 O66 2.021 1_554 S
Co56 O68 2.137 . S
Co56 O69 2.244 . S
O57 Co56 2.216 . S
O57 C64 1.247 . S
O58 Co56 2.091 . S
O58 C64 1.261 . S
C59 O68 1.247 . S
C59 O69 1.272 . S
O60 Co56 2.004 . S
O60 C65 1.259 . S
Co61 O62 2.061 . S
Co61 O67 2.052 1_554 S
Co61 O69 2.135 . S
O62 Co61 2.061 . S
O62 C65 1.235 . S
C63 O66 1.238 . S
C63 O67 1.241 . S
C64 O57 1.247 . S
C64 O58 1.261 . S
C65 O60 1.259 . S
C65 O62 1.235 . S
O66 Co56 2.021 1_556 S
O66 C63 1.238 . S
O67 Co61 2.052 1_556 S
O67 C63 1.241 . S
O68 Co56 2.137 . S
O68 C59 1.247 . S
O69 Co56 2.244 . S
O69 C59 1.272 . S
O69 Co61 2.135 . S
Co70 O71 2.216 . S
Co70 O72 2.091 . S
Co70 O74 2.004 . S
Co70 O80 2.021 1_554 S
Co70 O82 2.137 . S
Co70 O83 2.244 . S
O71 Co70 2.216 . S
O71 C78 1.247 . S
O72 Co70 2.091 . S
O72 C78 1.261 . S
C73 O82 1.247 . S
C73 O83 1.272 . S
O74 Co70 2.004 . S
O74 C79 1.259 . S
Co75 O76 2.061 . S
Co75 O81 2.052 1_554 S
Co75 O83 2.135 . S
O76 Co75 2.061 . S
O76 C79 1.235 . S
C77 O80 1.238 . S
C77 O81 1.241 . S
C78 O71 1.247 . S
C78 O72 1.261 . S
C79 O74 1.259 . S
C79 O76 1.235 . S
O80 Co70 2.021 1_556 S
O80 C77 1.238 . S
O81 Co75 2.052 1_556 S
O81 C77 1.241 . S
O82 Co70 2.137 . S
O82 C73 1.247 . S
O83 Co70 2.244 . S
O83 C73 1.272 . S
O83 Co75 2.135 . S
Co84 O85 2.216 . S
Co84 O86 2.091 . S
Co84 O88 2.004 . S
Co84 O94 2.021 . S
Co84 O96 2.137 . S
Co84 O97 2.244 . S
O85 Co84 2.216 . S
O85 C92 1.247 . S
O86 Co84 2.091 . S
O86 C92 1.261 . S
C87 O96 1.247 . S
C87 O97 1.272 . S
O88 Co84 2.004 . S
O88 C93 1.259 . S
Co89 O90 2.061 . S
Co89 O95 2.052 . S
Co89 O97 2.135 . S
O90 Co89 2.061 . S
O90 C93 1.235 . S
C91 O94 1.238 . S
C91 O95 1.241 . S
C92 O85 1.247 . S
C92 O86 1.261 . S
C93 O88 1.259 . S
C93 O90 1.235 . S
O94 Co84 2.021 . S
O94 C91 1.238 . S
O95 Co89 2.052 . S
O95 C91 1.241 . S
O96 Co84 2.137 . S
O96 C87 1.247 . S
O97 Co84 2.244 . S
O97 C87 1.272 . S
O97 Co89 2.135 . S
Co98 O99 2.216 . S
Co98 O100 2.091 . S
Co98 O102 2.004 . S
Co98 O108 2.021 . S
Co98 O110 2.137 . S
Co98 O111 2.244 . S
O99 Co98 2.216 . S
O99 C106 1.247 . S
O100 Co98 2.091 . S
O100 C106 1.261 . S
C101 O110 1.247 . S
C101 O111 1.272 . S
O102 Co98 2.004 . S
O102 C107 1.259 . S
Co103 O104 2.061 . S
Co103 O109 2.052 . S
Co103 O111 2.135 . S
O104 Co103 2.061 . S
O104 C107 1.235 . S
C105 O108 1.238 . S
C105 O109 1.241 . S
C106 O99 1.247 . S
C106 O100 1.261 . S
C107 O102 1.259 . S
C107 O104 1.235 . S
O108 Co98 2.021 . S
O108 C105 1.238 . S
O109 Co103 2.052 . S
O109 C105 1.241 . S
O110 Co98 2.137 . S
O110 C101 1.247 . S
O111 Co98 2.244 . S
O111 C101 1.272 . S
O111 Co103 2.135 . S
H112 C130 0.951 . S
H113 C132 0.951 . S
H114 C134 0.950 . S
H115 C135 0.950 . S
H116 C137 0.950 . S
H117 C140 0.950 . S
H118 C141 0.950 . S
H119 C143 0.950 . S
H120 C144 0.950 . S
H121 C145 0.951 . S
H122 C147 0.951 . S
H123 C149 0.950 . S
H124 C150 0.950 . S
H125 C152 0.950 . S
H126 C155 0.950 . S
H127 C156 0.950 . S
H128 C158 0.950 . S
H129 C159 0.950 . S
C130 H112 0.951 . S
C130 C131 1.366 . S
C130 C132 1.388 . S
C131 C130 1.366 . S
C131 C135 1.385 1_554 S
C132 H113 0.951 . S
C132 C130 1.388 . S
C132 C133 1.366 . S
C133 C132 1.366 . S
C133 C134 1.414 1_554 S
C133 C136 1.499 . S
C134 H114 0.950 . S
C134 C133 1.414 1_556 S
C134 C135 1.374 . S
C135 H115 0.950 . S
C135 C131 1.385 1_556 S
C135 C134 1.374 . S
C136 C133 1.499 . S
C136 C137 1.373 1_554 S
C136 C138 1.389 . S
C137 H116 0.950 . S
C137 C136 1.373 1_556 S
C137 C153 1.377 . S
C138 C136 1.389 . S
C138 C139 1.524 . S
C138 C152 1.377 . S
C139 C138 1.524 . S
C139 C140 1.397 . S
C139 C144 1.363 . S
C140 H117 0.950 . S
C140 C139 1.397 . S
C140 C141 1.334 . S
C141 H118 0.950 . S
C141 C140 1.334 . S
C141 C142 1.287 . S
C142 C141 1.287 . S
C142 C143 1.524 . S
C142 H161 0.913 . S
C143 H119 0.950 . S
C143 C142 1.524 . S
C143 C144 1.415 . S
C144 H120 0.950 . S
C144 C139 1.363 . S
C144 C143 1.415 . S
C145 H121 0.951 . S
C145 C146 1.366 1_556 S
C145 C147 1.388 . S
C146 C145 1.366 1_554 S
C146 C150 1.385 . S
C147 H122 0.951 . S
C147 C145 1.388 . S
C147 C148 1.366 1_556 S
C148 C147 1.366 1_554 S
C148 C149 1.414 . S
C148 C151 1.499 . S
C149 H123 0.950 . S
C149 C148 1.414 . S
C149 C150 1.374 . S
C150 H124 0.950 . S
C150 C146 1.385 . S
C150 C149 1.374 . S
C151 C148 1.499 . S
C151 C152 1.373 . S
C151 C153 1.389 1_554 S
C152 H125 0.950 . S
C152 C138 1.377 . S
C152 C151 1.373 . S
C153 C137 1.377 . S
C153 C151 1.389 1_556 S
C153 C154 1.524 . S
C154 C153 1.524 . S
C154 C155 1.397 . S
C154 C159 1.363 . S
C155 H126 0.950 . S
C155 C154 1.397 . S
C155 C156 1.334 . S
C156 H127 0.950 . S
C156 C155 1.334 . S
C156 C157 1.287 . S
C157 C156 1.287 . S
C157 C158 1.524 . S
C157 H160 0.999 . S
C158 H128 0.950 . S
C158 C157 1.524 . S
C158 C159 1.415 . S
C159 H129 0.950 . S
C159 C154 1.363 . S
C159 C158 1.415 . S
H160 C157 0.999 . S
H161 C142 0.913 . S
H162 C180 0.951 . S
H163 C182 0.951 . S
H164 C184 0.950 . S
H165 C185 0.950 . S
H166 C187 0.950 . S
H167 C190 0.950 . S
H168 C191 0.950 . S
H169 C193 0.950 . S
H170 C194 0.950 . S
H171 C195 0.951 . S
H172 C197 0.951 . S
H173 C199 0.950 . S
H174 C200 0.950 . S
H175 C202 0.950 . S
H176 C205 0.950 . S
H177 C206 0.950 . S
H178 C208 0.950 . S
H179 C209 0.950 . S
C180 H162 0.951 . S
C180 C181 1.366 . S
C180 C182 1.388 . S
C181 C180 1.366 . S
C181 C185 1.385 1_554 S
C182 H163 0.951 . S
C182 C180 1.388 . S
C182 C183 1.366 . S
C183 C182 1.366 . S
C183 C184 1.414 1_554 S
C183 C186 1.499 . S
C184 H164 0.950 . S
C184 C183 1.414 1_556 S
C184 C185 1.374 . S
C185 H165 0.950 . S
C185 C181 1.385 1_556 S
C185 C184 1.374 . S
C186 C183 1.499 . S
C186 C187 1.373 1_554 S
C186 C188 1.389 . S
C187 H166 0.950 . S
C187 C186 1.373 1_556 S
C187 C203 1.377 . S
C188 C186 1.389 . S
C188 C189 1.524 . S
C188 C202 1.377 . S
C189 C188 1.524 . S
C189 C190 1.397 . S
C189 C194 1.363 . S
C190 H167 0.950 . S
C190 C189 1.397 . S
C190 C191 1.334 . S
C191 H168 0.950 . S
C191 C190 1.334 . S
C191 C192 1.287 . S
C192 C191 1.287 . S
C192 C193 1.524 . S
C192 H211 0.913 . S
C193 H169 0.950 . S
C193 C192 1.524 . S
C193 C194 1.415 . S
C194 H170 0.950 . S
C194 C189 1.363 . S
C194 C193 1.415 . S
C195 H171 0.951 . S
C195 C196 1.366 1_556 S
C195 C197 1.388 . S
C196 C195 1.366 1_554 S
C196 C200 1.385 . S
C197 H172 0.951 . S
C197 C195 1.388 . S
C197 C198 1.366 1_556 S
C198 C197 1.366 1_554 S
C198 C199 1.414 . S
C198 C201 1.499 . S
C199 H173 0.950 . S
C199 C198 1.414 . S
C199 C200 1.374 . S
C200 H174 0.950 . S
C200 C196 1.385 . S
C200 C199 1.374 . S
C201 C198 1.499 . S
C201 C202 1.373 . S
C201 C203 1.389 1_554 S
C202 H175 0.950 . S
C202 C188 1.377 . S
C202 C201 1.373 . S
C203 C187 1.377 . S
C203 C201 1.389 1_556 S
C203 C204 1.524 . S
C204 C203 1.524 . S
C204 C205 1.397 . S
C204 C209 1.363 . S
C205 H176 0.950 . S
C205 C204 1.397 . S
C205 C206 1.334 . S
C206 H177 0.950 . S
C206 C205 1.334 . S
C206 C207 1.287 . S
C207 C206 1.287 . S
C207 C208 1.524 . S
C207 H210 0.999 . S
C208 H178 0.950 . S
C208 C207 1.524 . S
C208 C209 1.415 . S
C209 H179 0.950 . S
C209 C204 1.363 . S
C209 C208 1.415 . S
H210 C207 0.999 . S
H211 C192 0.913 . S
H212 C230 0.951 . S
H213 C232 0.951 . S
H214 C234 0.950 . S
H215 C235 0.950 . S
H216 C237 0.950 . S
H217 C240 0.950 . S
H218 C241 0.950 . S
H219 C243 0.950 . S
H220 C244 0.950 . S
H221 C245 0.951 . S
H222 C247 0.951 . S
H223 C249 0.950 . S
H224 C250 0.950 . S
H225 C252 0.950 . S
H226 C255 0.950 . S
H227 C256 0.950 . S
H228 C258 0.950 . S
H229 C259 0.950 . S
C230 H212 0.951 . S
C230 C231 1.366 . S
C230 C232 1.388 . S
C231 C230 1.366 . S
C231 C235 1.385 . S
C232 H213 0.951 . S
C232 C230 1.388 . S
C232 C233 1.366 . S
C233 C232 1.366 . S
C233 C234 1.414 . S
C233 C236 1.499 . S
C234 H214 0.950 . S
C234 C233 1.414 . S
C234 C235 1.374 . S
C235 H215 0.950 . S
C235 C231 1.385 . S
C235 C234 1.374 . S
C236 C233 1.499 . S
C236 C237 1.373 . S
C236 C238 1.389 . S
C237 H216 0.950 . S
C237 C236 1.373 . S
C237 C253 1.377 . S
C238 C236 1.389 . S
C238 C239 1.524 . S
C238 C252 1.377 . S
C239 C238 1.524 . S
C239 C240 1.397 . S
C239 C244 1.363 . S
C240 H217 0.950 . S
C240 C239 1.397 . S
C240 C241 1.334 . S
C241 H218 0.950 . S
C241 C240 1.334 . S
C241 C242 1.287 . S
C242 C241 1.287 . S
C242 C243 1.524 . S
C242 H261 0.913 . S
C243 H219 0.950 . S
C243 C242 1.524 . S
C243 C244 1.415 . S
C244 H220 0.950 . S
C244 C239 1.363 . S
C244 C243 1.415 . S
C245 H221 0.951 . S
C245 C246 1.366 . S
C245 C247 1.388 . S
C246 C245 1.366 . S
C246 C250 1.385 . S
C247 H222 0.951 . S
C247 C245 1.388 . S
C247 C248 1.366 . S
C248 C247 1.366 . S
C248 C249 1.414 . S
C248 C251 1.499 . S
C249 H223 0.950 . S
C249 C248 1.414 . S
C249 C250 1.374 . S
C250 H224 0.950 . S
C250 C246 1.385 . S
C250 C249 1.374 . S
C251 C248 1.499 . S
C251 C252 1.373 . S
C251 C253 1.389 . S
C252 H225 0.950 . S
C252 C238 1.377 . S
C252 C251 1.373 . S
C253 C237 1.377 . S
C253 C251 1.389 . S
C253 C254 1.524 . S
C254 C253 1.524 . S
C254 C255 1.397 . S
C254 C259 1.363 . S
C255 H226 0.950 . S
C255 C254 1.397 . S
C255 C256 1.334 . S
C256 H227 0.950 . S
C256 C255 1.334 . S
C256 C257 1.287 . S
C257 C256 1.287 . S
C257 C258 1.524 . S
C257 H260 0.999 . S
C258 H228 0.950 . S
C258 C257 1.524 . S
C258 C259 1.415 . S
C259 H229 0.950 . S
C259 C254 1.363 . S
C259 C258 1.415 . S
H260 C257 0.999 . S
H261 C242 0.913 . S
H262 C280 0.951 . S
H263 C282 0.951 . S
H264 C284 0.950 . S
H265 C285 0.950 . S
H266 C287 0.950 . S
H267 C290 0.950 . S
H268 C291 0.950 . S
H269 C293 0.950 . S
H270 C294 0.950 . S
H271 C295 0.951 . S
H272 C297 0.951 . S
H273 C299 0.950 . S
H274 C300 0.950 . S
H275 C302 0.950 . S
H276 C305 0.950 . S
H277 C306 0.950 . S
H278 C308 0.950 1_565 S
H279 C309 0.950 . S
C280 H262 0.951 . S
C280 C281 1.366 . S
C280 C282 1.388 . S
C281 C280 1.366 . S
C281 C285 1.385 . S
C282 H263 0.951 . S
C282 C280 1.388 . S
C282 C283 1.366 . S
C283 C282 1.366 . S
C283 C284 1.414 . S
C283 C286 1.499 . S
C284 H264 0.950 . S
C284 C283 1.414 . S
C284 C285 1.374 . S
C285 H265 0.950 . S
C285 C281 1.385 . S
C285 C284 1.374 . S
C286 C283 1.499 . S
C286 C287 1.373 . S
C286 C288 1.389 . S
C287 H266 0.950 . S
C287 C286 1.373 . S
C287 C303 1.377 . S
C288 C286 1.389 . S
C288 C289 1.524 . S
C288 C302 1.377 . S
C289 C288 1.524 . S
C289 C290 1.397 . S
C289 C294 1.363 . S
C290 H267 0.950 . S
C290 C289 1.397 . S
C290 C291 1.334 . S
C291 H268 0.950 . S
C291 C290 1.334 . S
C291 C292 1.287 . S
C292 C291 1.287 . S
C292 C293 1.524 . S
C292 H311 0.913 . S
C293 H269 0.950 . S
C293 C292 1.524 . S
C293 C294 1.415 . S
C294 H270 0.950 . S
C294 C289 1.363 . S
C294 C293 1.415 . S
C295 H271 0.951 . S
C295 C296 1.366 . S
C295 C297 1.388 . S
C296 C295 1.366 . S
C296 C300 1.385 . S
C297 H272 0.951 . S
C297 C295 1.388 . S
C297 C298 1.366 . S
C298 C297 1.366 . S
C298 C299 1.414 . S
C298 C301 1.499 . S
C299 H273 0.950 . S
C299 C298 1.414 . S
C299 C300 1.374 . S
C300 H274 0.950 . S
C300 C296 1.385 . S
C300 C299 1.374 . S
C301 C298 1.499 . S
C301 C302 1.373 . S
C301 C303 1.389 . S
C302 H275 0.950 . S
C302 C288 1.377 . S
C302 C301 1.373 . S
C303 C287 1.377 . S
C303 C301 1.389 . S
C303 C304 1.524 . S
C304 C303 1.524 . S
C304 C305 1.397 . S
C304 C309 1.363 . S
C305 H276 0.950 . S
C305 C304 1.397 . S
C305 C306 1.334 . S
C306 H277 0.950 . S
C306 C305 1.334 . S
C306 C307 1.287 . S
C307 C306 1.287 . S
C307 C308 1.524 . S
C307 H310 0.999 1_545 S
C308 H278 0.950 1_545 S
C308 C307 1.524 . S
C308 C309 1.415 . S
C309 H279 0.950 . S
C309 C304 1.363 . S
C309 C308 1.415 . S
H310 C307 0.999 1_565 S
H311 C292 0.913 . S
H312 C330 0.951 . S
H313 C332 0.951 . S
H314 C334 0.950 . S
H315 C335 0.950 . S
H316 C337 0.950 . S
H317 C340 0.950 . S
H318 C341 0.950 . S
H319 C343 0.950 . S
H320 C344 0.950 . S
H321 C345 0.951 . S
H322 C347 0.951 . S
H323 C349 0.950 . S
H324 C350 0.950 . S
H325 C352 0.950 . S
H326 C355 0.950 . S
H327 C356 0.950 . S
H328 C358 0.950 . S
H329 C359 0.950 . S
C330 H312 0.951 . S
C330 C331 1.366 . S
C330 C332 1.388 . S
C331 C330 1.366 . S
C331 C335 1.385 . S
C332 H313 0.951 . S
C332 C330 1.388 . S
C332 C333 1.366 . S
C333 C332 1.366 . S
C333 C334 1.414 . S
C333 C336 1.499 . S
C334 H314 0.950 . S
C334 C333 1.414 . S
C334 C335 1.374 . S
C335 H315 0.950 . S
C335 C331 1.385 . S
C335 C334 1.374 . S
C336 C333 1.499 . S
C336 C337 1.373 . S
C336 C338 1.389 . S
C337 H316 0.950 . S
C337 C336 1.373 . S
C337 C353 1.377 . S
C338 C336 1.389 . S
C338 C339 1.524 . S
C338 C352 1.377 . S
C339 C338 1.524 . S
C339 C340 1.397 . S
C339 C344 1.363 . S
C340 H317 0.950 . S
C340 C339 1.397 . S
C340 C341 1.334 . S
C341 H318 0.950 . S
C341 C340 1.334 . S
C341 C342 1.287 . S
C342 C341 1.287 . S
C342 C343 1.524 . S
C342 H361 0.913 . S
C343 H319 0.950 . S
C343 C342 1.524 . S
C343 C344 1.415 . S
C344 H320 0.950 . S
C344 C339 1.363 . S
C344 C343 1.415 . S
C345 H321 0.951 . S
C345 C346 1.366 . S
C345 C347 1.388 . S
C346 C345 1.366 . S
C346 C350 1.385 . S
C347 H322 0.951 . S
C347 C345 1.388 . S
C347 C348 1.366 . S
C348 C347 1.366 . S
C348 C349 1.414 . S
C348 C351 1.499 . S
C349 H323 0.950 . S
C349 C348 1.414 . S
C349 C350 1.374 . S
C350 H324 0.950 . S
C350 C346 1.385 . S
C350 C349 1.374 . S
C351 C348 1.499 . S
C351 C352 1.373 . S
C351 C353 1.389 . S
C352 H325 0.950 . S
C352 C338 1.377 . S
C352 C351 1.373 . S
C353 C337 1.377 . S
C353 C351 1.389 . S
C353 C354 1.524 . S
C354 C353 1.524 . S
C354 C355 1.397 . S
C354 C359 1.363 . S
C355 H326 0.950 . S
C355 C354 1.397 . S
C355 C356 1.334 . S
C356 H327 0.950 . S
C356 C355 1.334 . S
C356 C357 1.287 . S
C357 C356 1.287 . S
C357 C358 1.524 . S
C357 H360 0.999 . S
C358 H328 0.950 . S
C358 C357 1.524 . S
C358 C359 1.415 . S
C359 H329 0.950 . S
C359 C354 1.363 . S
C359 C358 1.415 . S
H360 C357 0.999 . S
H361 C342 0.913 . S
H362 C380 0.951 . S
H363 C382 0.951 . S
H364 C384 0.950 . S
H365 C385 0.950 . S
H366 C387 0.950 . S
H367 C390 0.950 . S
H368 C391 0.950 . S
H369 C393 0.950 . S
H370 C394 0.950 . S
H371 C395 0.951 . S
H372 C397 0.951 . S
H373 C399 0.950 . S
H374 C400 0.950 . S
H375 C402 0.950 . S
H376 C405 0.950 . S
H377 C406 0.950 . S
H378 C408 0.950 . S
H379 C409 0.950 . S
C380 H362 0.951 . S
C380 C381 1.366 . S
C380 C382 1.388 . S
C381 C380 1.366 . S
C381 C385 1.385 . S
C382 H363 0.951 . S
C382 C380 1.388 . S
C382 C383 1.366 . S
C383 C382 1.366 . S
C383 C384 1.414 . S
C383 C386 1.499 . S
C384 H364 0.950 . S
C384 C383 1.414 . S
C384 C385 1.374 . S
C385 H365 0.950 . S
C385 C381 1.385 . S
C385 C384 1.374 . S
C386 C383 1.499 . S
C386 C387 1.373 . S
C386 C388 1.389 . S
C387 H366 0.950 . S
C387 C386 1.373 . S
C387 C403 1.377 . S
C388 C386 1.389 . S
C388 C389 1.524 . S
C388 C402 1.377 . S
C389 C388 1.524 . S
C389 C390 1.397 . S
C389 C394 1.363 . S
C390 H367 0.950 . S
C390 C389 1.397 . S
C390 C391 1.334 . S
C391 H368 0.950 . S
C391 C390 1.334 . S
C391 C392 1.287 . S
C392 C391 1.287 . S
C392 C393 1.524 . S
C392 H411 0.913 . S
C393 H369 0.950 . S
C393 C392 1.524 . S
C393 C394 1.415 . S
C394 H370 0.950 . S
C394 C389 1.363 . S
C394 C393 1.415 . S
C395 H371 0.951 . S
C395 C396 1.366 . S
C395 C397 1.388 . S
C396 C395 1.366 . S
C396 C400 1.385 . S
C397 H372 0.951 . S
C397 C395 1.388 . S
C397 C398 1.366 . S
C398 C397 1.366 . S
C398 C399 1.414 . S
C398 C401 1.499 . S
C399 H373 0.950 . S
C399 C398 1.414 . S
C399 C400 1.374 . S
C400 H374 0.950 . S
C400 C396 1.385 . S
C400 C399 1.374 . S
C401 C398 1.499 . S
C401 C402 1.373 . S
C401 C403 1.389 . S
C402 H375 0.950 . S
C402 C388 1.377 . S
C402 C401 1.373 . S
C403 C387 1.377 . S
C403 C401 1.389 . S
C403 C404 1.524 . S
C404 C403 1.524 . S
C404 C405 1.397 . S
C404 C409 1.363 . S
C405 H376 0.950 . S
C405 C404 1.397 . S
C405 C406 1.334 . S
C406 H377 0.950 . S
C406 C405 1.334 . S
C406 C407 1.287 . S
C407 C406 1.287 . S
C407 C408 1.524 . S
C407 H410 0.999 . S
C408 H378 0.950 . S
C408 C407 1.524 . S
C408 C409 1.415 . S
C409 H379 0.950 . S
C409 C404 1.363 . S
C409 C408 1.415 . S
H410 C407 0.999 . S
H411 C392 0.913 . S
H412 C430 0.951 . S
H413 C432 0.951 . S
H414 C434 0.950 . S
H415 C435 0.950 . S
H416 C437 0.950 . S
H417 C440 0.950 . S
H418 C441 0.950 . S
H419 C443 0.950 . S
H420 C444 0.950 . S
H421 C445 0.951 . S
H422 C447 0.951 . S
H423 C449 0.950 . S
H424 C450 0.950 . S
H425 C452 0.950 . S
H426 C455 0.950 . S
H427 C456 0.950 . S
H428 C458 0.950 . S
H429 C459 0.950 . S
C430 H412 0.951 . S
C430 C431 1.366 . S
C430 C432 1.388 . S
C431 C430 1.366 . S
C431 C435 1.385 . S
C432 H413 0.951 . S
C432 C430 1.388 . S
C432 C433 1.366 . S
C433 C432 1.366 . S
C433 C434 1.414 . S
C433 C436 1.499 . S
C434 H414 0.950 . S
C434 C433 1.414 . S
C434 C435 1.374 . S
C435 H415 0.950 . S
C435 C431 1.385 . S
C435 C434 1.374 . S
C436 C433 1.499 . S
C436 C437 1.373 . S
C436 C438 1.389 . S
C437 H416 0.950 . S
C437 C436 1.373 . S
C437 C453 1.377 . S
C438 C436 1.389 . S
C438 C439 1.524 . S
C438 C452 1.377 . S
C439 C438 1.524 . S
C439 C440 1.397 . S
C439 C444 1.363 . S
C440 H417 0.950 . S
C440 C439 1.397 . S
C440 C441 1.334 . S
C441 H418 0.950 . S
C441 C440 1.334 . S
C441 C442 1.287 . S
C442 C441 1.287 . S
C442 C443 1.524 . S
C442 H461 0.913 . S
C443 H419 0.950 . S
C443 C442 1.524 . S
C443 C444 1.415 . S
C444 H420 0.950 . S
C444 C439 1.363 . S
C444 C443 1.415 . S
C445 H421 0.951 . S
C445 C446 1.366 . S
C445 C447 1.388 . S
C446 C445 1.366 . S
C446 C450 1.385 . S
C447 H422 0.951 . S
C447 C445 1.388 . S
C447 C448 1.366 . S
C448 C447 1.366 . S
C448 C449 1.414 . S
C448 C451 1.499 . S
C449 H423 0.950 . S
C449 C448 1.414 . S
C449 C450 1.374 . S
C450 H424 0.950 . S
C450 C446 1.385 . S
C450 C449 1.374 . S
C451 C448 1.499 . S
C451 C452 1.373 . S
C451 C453 1.389 . S
C452 H425 0.950 . S
C452 C438 1.377 . S
C452 C451 1.373 . S
C453 C437 1.377 . S
C453 C451 1.389 . S
C453 C454 1.524 . S
C454 C453 1.524 . S
C454 C455 1.397 . S
C454 C459 1.363 . S
C455 H426 0.950 . S
C455 C454 1.397 . S
C455 C456 1.334 . S
C456 H427 0.950 . S
C456 C455 1.334 . S
C456 C457 1.287 . S
C457 C456 1.287 . S
C457 C458 1.524 . S
C457 H460 0.999 . S
C458 H428 0.950 . S
C458 C457 1.524 . S
C458 C459 1.415 . S
C459 H429 0.950 . S
C459 C454 1.363 . S
C459 C458 1.415 . S
H460 C457 0.999 . S
H461 C442 0.913 . S
H462 C480 0.951 . S
H463 C482 0.951 . S
H464 C484 0.950 . S
H465 C485 0.950 . S
H466 C487 0.950 . S
H467 C490 0.950 . S
H468 C491 0.950 . S
H469 C493 0.950 . S
H470 C494 0.950 . S
H471 C495 0.951 . S
H472 C497 0.951 . S
H473 C499 0.950 . S
H474 C500 0.950 . S
H475 C502 0.950 . S
H476 C505 0.950 . S
H477 C506 0.950 . S
H478 C508 0.950 . S
H479 C509 0.950 . S
C480 H462 0.951 . S
C480 C481 1.366 . S
C480 C482 1.388 . S
C481 C480 1.366 . S
C481 C485 1.385 . S
C482 H463 0.951 . S
C482 C480 1.388 . S
C482 C483 1.366 . S
C483 C482 1.366 . S
C483 C484 1.414 . S
C483 C486 1.499 . S
C484 H464 0.950 . S
C484 C483 1.414 . S
C484 C485 1.374 . S
C485 H465 0.950 . S
C485 C481 1.385 . S
C485 C484 1.374 . S
C486 C483 1.499 . S
C486 C487 1.373 . S
C486 C488 1.389 . S
C487 H466 0.950 . S
C487 C486 1.373 . S
C487 C503 1.377 . S
C488 C486 1.389 . S
C488 C489 1.524 . S
C488 C502 1.377 . S
C489 C488 1.524 . S
C489 C490 1.397 . S
C489 C494 1.363 . S
C490 H467 0.950 . S
C490 C489 1.397 . S
C490 C491 1.334 . S
C491 H468 0.950 . S
C491 C490 1.334 . S
C491 C492 1.287 . S
C492 C491 1.287 . S
C492 C493 1.524 . S
C492 H511 0.913 . S
C493 H469 0.950 . S
C493 C492 1.524 . S
C493 C494 1.415 . S
C494 H470 0.950 . S
C494 C489 1.363 . S
C494 C493 1.415 . S
C495 H471 0.951 . S
C495 C496 1.366 . S
C495 C497 1.388 . S
C496 C495 1.366 . S
C496 C500 1.385 . S
C497 H472 0.951 . S
C497 C495 1.388 . S
C497 C498 1.366 . S
C498 C497 1.366 . S
C498 C499 1.414 . S
C498 C501 1.499 . S
C499 H473 0.950 . S
C499 C498 1.414 . S
C499 C500 1.374 . S
C500 H474 0.950 . S
C500 C496 1.385 . S
C500 C499 1.374 . S
C501 C498 1.499 . S
C501 C502 1.373 . S
C501 C503 1.389 . S
C502 H475 0.950 . S
C502 C488 1.377 . S
C502 C501 1.373 . S
C503 C487 1.377 . S
C503 C501 1.389 . S
C503 C504 1.524 . S
C504 C503 1.524 . S
C504 C505 1.397 . S
C504 C509 1.363 . S
C505 H476 0.950 . S
C505 C504 1.397 . S
C505 C506 1.334 . S
C506 H477 0.950 . S
C506 C505 1.334 . S
C506 C507 1.287 . S
C507 C506 1.287 . S
C507 C508 1.524 . S
C507 H510 0.999 . S
C508 H478 0.950 . S
C508 C507 1.524 . S
C508 C509 1.415 . S
C509 H479 0.950 . S
C509 C504 1.363 . S
C509 C508 1.415 . S
H510 C507 0.999 . S
H511 C492 0.913 . S
H512 C530 0.951 . S
H513 C532 0.951 . S
H514 C534 0.950 . S
H515 C535 0.950 . S
H516 C537 0.950 . S
H517 C540 0.950 . S
H518 C541 0.950 . S
H519 C543 0.950 . S
H520 C544 0.950 . S
H521 C545 0.951 . S
H522 C547 0.951 . S
H523 C549 0.950 . S
H524 C550 0.950 . S
H525 C552 0.950 . S
H526 C555 0.950 . S
H527 C556 0.950 . S
H528 C558 0.950 . S
H529 C559 0.950 . S
C530 H512 0.951 . S
C530 C531 1.366 . S
C530 C532 1.388 . S
C531 C530 1.366 . S
C531 C535 1.385 . S
C532 H513 0.951 . S
C532 C530 1.388 . S
C532 C533 1.366 . S
C533 C532 1.366 . S
C533 C534 1.414 . S
C533 C536 1.499 . S
C534 H514 0.950 . S
C534 C533 1.414 . S
C534 C535 1.374 . S
C535 H515 0.950 . S
C535 C531 1.385 . S
C535 C534 1.374 . S
C536 C533 1.499 . S
C536 C537 1.373 . S
C536 C538 1.389 1_565 S
C537 H516 0.950 . S
C537 C536 1.373 . S
C537 C553 1.377 . S
C538 C536 1.389 1_545 S
C538 C539 1.524 . S
C538 C552 1.377 . S
C539 C538 1.524 . S
C539 C540 1.397 . S
C539 C544 1.363 . S
C540 H517 0.950 . S
C540 C539 1.397 . S
C540 C541 1.334 . S
C541 H518 0.950 . S
C541 C540 1.334 . S
C541 C542 1.287 . S
C542 C541 1.287 . S
C542 C543 1.524 . S
C542 H561 0.913 . S
C543 H519 0.950 . S
C543 C542 1.524 . S
C543 C544 1.415 . S
C544 H520 0.950 . S
C544 C539 1.363 . S
C544 C543 1.415 . S
C545 H521 0.951 . S
C545 C546 1.366 . S
C545 C547 1.388 . S
C546 C545 1.366 . S
C546 C550 1.385 . S
C547 H522 0.951 . S
C547 C545 1.388 . S
C547 C548 1.366 . S
C548 C547 1.366 . S
C548 C549 1.414 . S
C548 C551 1.499 . S
C549 H523 0.950 . S
C549 C548 1.414 . S
C549 C550 1.374 . S
C550 H524 0.950 . S
C550 C546 1.385 . S
C550 C549 1.374 . S
C551 C548 1.499 . S
C551 C552 1.373 . S
C551 C553 1.389 1_545 S
C552 H525 0.950 . S
C552 C538 1.377 . S
C552 C551 1.373 . S
C553 C537 1.377 . S
C553 C551 1.389 1_565 S
C553 C554 1.524 . S
C554 C553 1.524 . S
C554 C555 1.397 . S
C554 C559 1.363 . S
C555 H526 0.950 . S
C555 C554 1.397 . S
C555 C556 1.334 . S
C556 H527 0.950 . S
C556 C555 1.334 . S
C556 C557 1.287 . S
C557 C556 1.287 . S
C557 C558 1.524 . S
C557 H560 0.999 . S
C558 H528 0.950 . S
C558 C557 1.524 . S
C558 C559 1.415 . S
C559 H529 0.950 . S
C559 C554 1.363 . S
C559 C558 1.415 . S
H560 C557 0.999 . S
H561 C542 0.913 . S
H562 C580 0.951 . S
H563 C582 0.951 . S
H564 C584 0.950 1_545 S
H565 C585 0.950 . S
H566 C587 0.950 . S
H567 C590 0.950 . S
H568 C591 0.950 . S
H569 C593 0.950 . S
H570 C594 0.950 . S
H571 C595 0.951 . S
H572 C597 0.951 . S
H573 C599 0.950 1_565 S
H574 C600 0.950 . S
H575 C602 0.950 . S
H576 C605 0.950 . S
H577 C606 0.950 . S
H578 C608 0.950 . S
H579 C609 0.950 . S
C580 H562 0.951 . S
C580 C581 1.366 . S
C580 C582 1.388 . S
C581 C580 1.366 . S
C581 C585 1.385 . S
C582 H563 0.951 . S
C582 C580 1.388 . S
C582 C583 1.366 . S
C583 C582 1.366 . S
C583 C584 1.414 . S
C583 C586 1.499 . S
C584 H564 0.950 1_565 S
C584 C583 1.414 . S
C584 C585 1.374 . S
C585 H565 0.950 . S
C585 C581 1.385 . S
C585 C584 1.374 . S
C586 C583 1.499 . S
C586 C587 1.373 1_565 S
C586 C588 1.389 . S
C587 H566 0.950 . S
C587 C586 1.373 1_545 S
C587 C603 1.377 . S
C588 C586 1.389 . S
C588 C589 1.524 . S
C588 C602 1.377 . S
C589 C588 1.524 . S
C589 C590 1.397 . S
C589 C594 1.363 . S
C590 H567 0.950 . S
C590 C589 1.397 . S
C590 C591 1.334 . S
C591 H568 0.950 . S
C591 C590 1.334 . S
C591 C592 1.287 . S
C592 C591 1.287 . S
C592 C593 1.524 . S
C592 H611 0.913 . S
C593 H569 0.950 . S
C593 C592 1.524 . S
C593 C594 1.415 . S
C594 H570 0.950 . S
C594 C589 1.363 . S
C594 C593 1.415 . S
C595 H571 0.951 . S
C595 C596 1.366 . S
C595 C597 1.388 . S
C596 C595 1.366 . S
C596 C600 1.385 . S
C597 H572 0.951 . S
C597 C595 1.388 . S
C597 C598 1.366 . S
C598 C597 1.366 . S
C598 C599 1.414 . S
C598 C601 1.499 . S
C599 H573 0.950 1_545 S
C599 C598 1.414 . S
C599 C600 1.374 . S
C600 H574 0.950 . S
C600 C596 1.385 . S
C600 C599 1.374 . S
C601 C598 1.499 . S
C601 C602 1.373 1_545 S
C601 C603 1.389 . S
C602 H575 0.950 . S
C602 C588 1.377 . S
C602 C601 1.373 1_565 S
C603 C587 1.377 . S
C603 C601 1.389 . S
C603 C604 1.524 . S
C604 C603 1.524 . S
C604 C605 1.397 . S
C604 C609 1.363 . S
C605 H576 0.950 . S
C605 C604 1.397 . S
C605 C606 1.334 . S
C606 H577 0.950 . S
C606 C605 1.334 . S
C606 C607 1.287 . S
C607 C606 1.287 . S
C607 C608 1.524 . S
C607 H610 0.999 . S
C608 H578 0.950 . S
C608 C607 1.524 . S
C608 C609 1.415 . S
C609 H579 0.950 . S
C609 C604 1.363 . S
C609 C608 1.415 . S
H610 C607 0.999 . S
H611 C592 0.913 . S
H612 C630 0.951 . S
H613 C632 0.951 1_545 S
H614 C634 0.950 . S
H615 C635 0.950 . S
H616 C637 0.950 . S
H617 C640 0.950 . S
H618 C641 0.950 . S
H619 C643 0.950 . S
H620 C644 0.950 . S
H621 C645 0.951 . S
H622 C647 0.951 1_565 S
H623 C649 0.950 . S
H624 C650 0.950 . S
H625 C652 0.950 . S
H626 C655 0.950 . S
H627 C656 0.950 . S
H628 C658 0.950 . S
H629 C659 0.950 . S
C630 H612 0.951 . S
C630 C631 1.366 . S
C630 C632 1.388 . S
C631 C630 1.366 . S
C631 C635 1.385 . S
C632 H613 0.951 1_565 S
C632 C630 1.388 . S
C632 C633 1.366 . S
C633 C632 1.366 . S
C633 C634 1.414 . S
C633 C636 1.499 . S
C634 H614 0.950 . S
C634 C633 1.414 . S
C634 C635 1.374 . S
C635 H615 0.950 . S
C635 C631 1.385 . S
C635 C634 1.374 . S
C636 C633 1.499 . S
C636 C637 1.373 . S
C636 C638 1.389 1_565 S
C637 H616 0.950 . S
C637 C636 1.373 . S
C637 C653 1.377 . S
C638 C636 1.389 1_545 S
C638 C639 1.524 . S
C638 C652 1.377 . S
C639 C638 1.524 . S
C639 C640 1.397 . S
C639 C644 1.363 . S
C640 H617 0.950 . S
C640 C639 1.397 . S
C640 C641 1.334 . S
C641 H618 0.950 . S
C641 C640 1.334 . S
C641 C642 1.287 . S
C642 C641 1.287 . S
C642 C643 1.524 . S
C642 H661 0.913 . S
C643 H619 0.950 . S
C643 C642 1.524 . S
C643 C644 1.415 . S
C644 H620 0.950 . S
C644 C639 1.363 . S
C644 C643 1.415 . S
C645 H621 0.951 . S
C645 C646 1.366 . S
C645 C647 1.388 . S
C646 C645 1.366 . S
C646 C650 1.385 . S
C647 H622 0.951 1_545 S
C647 C645 1.388 . S
C647 C648 1.366 . S
C648 C647 1.366 . S
C648 C649 1.414 . S
C648 C651 1.499 . S
C649 H623 0.950 . S
C649 C648 1.414 . S
C649 C650 1.374 . S
C650 H624 0.950 . S
C650 C646 1.385 . S
C650 C649 1.374 . S
C651 C648 1.499 . S
C651 C652 1.373 . S
C651 C653 1.389 1_545 S
C652 H625 0.950 . S
C652 C638 1.377 . S
C652 C651 1.373 . S
C653 C637 1.377 . S
C653 C651 1.389 1_565 S
C653 C654 1.524 . S
C654 C653 1.524 . S
C654 C655 1.397 . S
C654 C659 1.363 . S
C655 H626 0.950 . S
C655 C654 1.397 . S
C655 C656 1.334 . S
C656 H627 0.950 . S
C656 C655 1.334 . S
C656 C657 1.287 . S
C657 C656 1.287 . S
C657 C658 1.524 . S
C657 H660 0.999 . S
C658 H628 0.950 . S
C658 C657 1.524 . S
C658 C659 1.415 . S
C659 H629 0.950 . S
C659 C654 1.363 . S
C659 C658 1.415 . S
H660 C657 0.999 . S
H661 C642 0.913 . S
H662 C680 0.951 . S
H663 C682 0.951 . S
H664 C684 0.950 1_545 S
H665 C685 0.950 . S
H666 C687 0.950 . S
H667 C690 0.950 . S
H668 C691 0.950 . S
H669 C693 0.950 . S
H670 C694 0.950 . S
H671 C695 0.951 . S
H672 C697 0.951 . S
H673 C699 0.950 1_565 S
H674 C700 0.950 . S
H675 C702 0.950 . S
H676 C705 0.950 . S
H677 C706 0.950 . S
H678 C708 0.950 . S
H679 C709 0.950 . S
C680 H662 0.951 . S
C680 C681 1.366 . S
C680 C682 1.388 . S
C681 C680 1.366 . S
C681 C685 1.385 . S
C682 H663 0.951 . S
C682 C680 1.388 . S
C682 C683 1.366 . S
C683 C682 1.366 . S
C683 C684 1.414 . S
C683 C686 1.499 . S
C684 H664 0.950 1_565 S
C684 C683 1.414 . S
C684 C685 1.374 . S
C685 H665 0.950 . S
C685 C681 1.385 . S
C685 C684 1.374 . S
C686 C683 1.499 . S
C686 C687 1.373 1_565 S
C686 C688 1.389 . S
C687 H666 0.950 . S
C687 C686 1.373 1_545 S
C687 C703 1.377 . S
C688 C686 1.389 . S
C688 C689 1.524 . S
C688 C702 1.377 . S
C689 C688 1.524 . S
C689 C690 1.397 . S
C689 C694 1.363 . S
C690 H667 0.950 . S
C690 C689 1.397 . S
C690 C691 1.334 . S
C691 H668 0.950 . S
C691 C690 1.334 . S
C691 C692 1.287 . S
C692 C691 1.287 . S
C692 C693 1.524 . S
C692 H711 0.913 . S
C693 H669 0.950 . S
C693 C692 1.524 . S
C693 C694 1.415 . S
C694 H670 0.950 . S
C694 C689 1.363 . S
C694 C693 1.415 . S
C695 H671 0.951 . S
C695 C696 1.366 . S
C695 C697 1.388 . S
C696 C695 1.366 . S
C696 C700 1.385 . S
C697 H672 0.951 . S
C697 C695 1.388 . S
C697 C698 1.366 . S
C698 C697 1.366 . S
C698 C699 1.414 . S
C698 C701 1.499 . S
C699 H673 0.950 1_545 S
C699 C698 1.414 . S
C699 C700 1.374 . S
C700 H674 0.950 . S
C700 C696 1.385 . S
C700 C699 1.374 . S
C701 C698 1.499 . S
C701 C702 1.373 1_545 S
C701 C703 1.389 . S
C702 H675 0.950 . S
C702 C688 1.377 . S
C702 C701 1.373 1_565 S
C703 C687 1.377 . S
C703 C701 1.389 . S
C703 C704 1.524 . S
C704 C703 1.524 . S
C704 C705 1.397 . S
C704 C709 1.363 . S
C705 H676 0.950 . S
C705 C704 1.397 . S
C705 C706 1.334 . S
C706 H677 0.950 . S
C706 C705 1.334 . S
C706 C707 1.287 . S
C707 C706 1.287 . S
C707 C708 1.524 . S
C707 H710 0.999 . S
C708 H678 0.950 . S
C708 C707 1.524 . S
C708 C709 1.415 . S
C709 H679 0.950 . S
C709 C704 1.363 . S
C709 C708 1.415 . S
H710 C707 0.999 . S
H711 C692 0.913 . S
H712 C730 0.951 . S
H713 C732 0.951 . S
H714 C734 0.950 . S
H715 C735 0.950 . S
H716 C737 0.950 . S
H717 C740 0.950 . S
H718 C741 0.950 1_565 S
H719 C743 0.950 . S
H720 C744 0.950 . S
H721 C745 0.952 . S
H722 C747 0.946 1_556 S
H723 C749 0.950 . S
H724 C750 0.950 . S
H725 C752 0.950 . S
H726 C755 0.950 . S
H727 C756 0.950 1_545 S
H728 C758 0.950 . S
H729 C759 0.950 . S
C730 H712 0.951 . S
C730 C731 1.366 . S
C730 C732 1.388 . S
C731 C730 1.366 . S
C731 C735 1.385 1_554 S
C732 H713 0.951 . S
C732 C730 1.388 . S
C732 C733 1.366 . S
C733 C732 1.366 . S
C733 C734 1.414 1_554 S
C733 C736 1.499 . S
C734 H714 0.950 . S
C734 C733 1.414 1_556 S
C734 C735 1.374 . S
C735 H715 0.950 . S
C735 C731 1.385 1_556 S
C735 C734 1.374 . S
C736 C733 1.499 . S
C736 C737 1.373 . S
C736 C738 1.389 1_564 S
C737 H716 0.950 . S
C737 C736 1.373 . S
C737 C753 1.377 . S
C738 C736 1.389 1_546 S
C738 C739 1.524 . S
C738 C752 1.377 . S
C739 C738 1.524 . S
C739 C740 1.397 1_545 S
C739 C744 1.363 . S
C740 H717 0.950 . S
C740 C739 1.397 1_565 S
C740 C741 1.334 1_565 S
C741 H718 0.950 1_545 S
C741 C740 1.334 1_545 S
C741 C742 1.287 . S
C742 C741 1.287 . S
C742 C743 1.524 . S
C742 H761 0.913 . S
C743 H719 0.950 . S
C743 C742 1.524 . S
C743 C744 1.415 . S
C744 H720 0.950 . S
C744 C739 1.363 . S
C744 C743 1.415 . S
C745 H721 0.952 . S
C745 C746 1.365 1_556 S
C745 C747 1.387 1_556 S
C746 C745 1.365 1_554 S
C746 C750 1.385 . S
C747 H722 0.946 1_554 S
C747 C745 1.387 1_554 S
C747 C748 1.371 . S
C748 C747 1.371 . S
C748 C749 1.414 . S
C748 C751 1.499 . S
C749 H723 0.950 . S
C749 C748 1.414 . S
C749 C750 1.374 . S
C750 H724 0.950 . S
C750 C746 1.385 . S
C750 C749 1.374 . S
C751 C748 1.499 . S
C751 C752 1.373 1_554 S
C751 C753 1.389 1_545 S
C752 H725 0.950 . S
C752 C738 1.377 . S
C752 C751 1.373 1_556 S
C753 C737 1.377 . S
C753 C751 1.389 1_565 S
C753 C754 1.524 . S
C754 C753 1.524 . S
C754 C755 1.397 1_565 S
C754 C759 1.363 . S
C755 H726 0.950 . S
C755 C754 1.397 1_545 S
C755 C756 1.334 1_545 S
C756 H727 0.950 1_565 S
C756 C755 1.334 1_565 S
C756 C757 1.287 . S
C757 C756 1.287 . S
C757 C758 1.524 . S
C757 H760 0.999 . S
C758 H728 0.950 . S
C758 C757 1.524 . S
C758 C759 1.415 . S
C759 H729 0.950 . S
C759 C754 1.363 . S
C759 C758 1.415 . S
H760 C757 0.999 . S
H761 C742 0.913 . S
H762 C780 0.951 . S
H763 C782 0.951 . S
H764 C784 0.950 . S
H765 C785 0.950 . S
H766 C787 0.950 . S
H767 C790 0.950 . S
H768 C791 0.950 . S
H769 C793 0.950 . S
H770 C794 0.950 . S
H771 C795 0.951 . S
H772 C797 0.951 . S
H773 C799 0.950 . S
H774 C800 0.950 . S
H775 C802 0.950 . S
H776 C805 0.950 . S
H777 C806 0.950 . S
H778 C808 0.950 . S
H779 C809 0.950 . S
C780 H762 0.951 . S
C780 C781 1.366 . S
C780 C782 1.388 . S
C781 C780 1.366 . S
C781 C785 1.385 . S
C782 H763 0.951 . S
C782 C780 1.388 . S
C782 C783 1.366 . S
C783 C782 1.366 . S
C783 C784 1.414 . S
C783 C786 1.499 . S
C784 H764 0.950 . S
C784 C783 1.414 . S
C784 C785 1.374 . S
C785 H765 0.950 . S
C785 C781 1.385 . S
C785 C784 1.374 . S
C786 C783 1.499 . S
C786 C787 1.373 1_565 S
C786 C788 1.389 . S
C787 H766 0.950 . S
C787 C786 1.373 1_545 S
C787 C803 1.377 . S
C788 C786 1.389 . S
C788 C789 1.524 . S
C788 C802 1.377 . S
C789 C788 1.524 . S
C789 C790 1.397 . S
C789 C794 1.363 . S
C790 H767 0.950 . S
C790 C789 1.397 . S
C790 C791 1.334 . S
C791 H768 0.950 . S
C791 C790 1.334 . S
C791 C792 1.287 . S
C792 C791 1.287 . S
C792 C793 1.524 . S
C792 H811 0.913 . S
C793 H769 0.950 . S
C793 C792 1.524 . S
C793 C794 1.415 . S
C794 H770 0.950 . S
C794 C789 1.363 . S
C794 C793 1.415 . S
C795 H771 0.951 . S
C795 C796 1.366 . S
C795 C797 1.388 . S
C796 C795 1.366 . S
C796 C800 1.385 . S
C797 H772 0.951 . S
C797 C795 1.388 . S
C797 C798 1.366 . S
C798 C797 1.366 . S
C798 C799 1.414 . S
C798 C801 1.499 . S
C799 H773 0.950 . S
C799 C798 1.414 . S
C799 C800 1.374 . S
C800 H774 0.950 . S
C800 C796 1.385 . S
C800 C799 1.374 . S
C801 C798 1.499 . S
C801 C802 1.373 1_545 S
C801 C803 1.389 . S
C802 H775 0.950 . S
C802 C788 1.377 . S
C802 C801 1.373 1_565 S
C803 C787 1.377 . S
C803 C801 1.389 . S
C803 C804 1.524 . S
C804 C803 1.524 . S
C804 C805 1.397 . S
C804 C809 1.363 . S
C805 H776 0.950 . S
C805 C804 1.397 . S
C805 C806 1.334 . S
C806 H777 0.950 . S
C806 C805 1.334 . S
C806 C807 1.287 . S
C807 C806 1.287 . S
C807 C808 1.524 . S
C807 H810 0.999 . S
C808 H778 0.950 . S
C808 C807 1.524 . S
C808 C809 1.415 . S
C809 H779 0.950 . S
C809 C804 1.363 . S
C809 C808 1.415 . S
H810 C807 0.999 . S
H811 C792 0.913 . S
H812 C830 0.955 . S
H813 C832 0.951 . S
H814 C834 0.950 . S
H815 C835 0.950 . S
H816 C837 0.950 . S
H817 C840 0.950 . S
H818 C841 0.950 . S
H819 C843 0.950 . S
H820 C844 0.950 . S
H821 C845 0.951 . S
H822 C847 0.951 . S
H823 C849 0.950 1_556 S
H824 C850 0.951 . S
H825 C852 0.950 . S
H826 C855 0.950 . S
H827 C856 0.950 . S
H828 C858 0.950 . S
H829 C859 0.950 . S
C830 H812 0.955 . S
C830 C831 1.361 1_556 S
C830 C832 1.388 . S
C831 C830 1.361 1_554 S
C831 C835 1.385 . S
C832 H813 0.951 . S
C832 C830 1.388 . S
C832 C833 1.366 1_556 S
C833 C832 1.366 1_554 S
C833 C834 1.414 . S
C833 C836 1.499 . S
C834 H814 0.950 . S
C834 C833 1.414 . S
C834 C835 1.374 . S
C835 H815 0.950 . S
C835 C831 1.385 . S
C835 C834 1.374 . S
C836 C833 1.499 . S
C836 C837 1.373 . S
C836 C838 1.389 1_554 S
C837 H816 0.950 . S
C837 C836 1.373 . S
C837 C853 1.377 1_455 S
C838 C836 1.389 1_556 S
C838 C839 1.524 . S
C838 C852 1.377 1_455 S
C839 C838 1.524 . S
C839 C840 1.397 . S
C839 C844 1.363 . S
C840 H817 0.950 . S
C840 C839 1.397 . S
C840 C841 1.334 . S
C841 H818 0.950 . S
C841 C840 1.334 . S
C841 C842 1.287 . S
C842 C841 1.287 . S
C842 C843 1.524 . S
C842 H861 0.913 . S
C843 H819 0.950 . S
C843 C842 1.524 . S
C843 C844 1.415 . S
C844 H820 0.950 . S
C844 C839 1.363 . S
C844 C843 1.415 . S
C845 H821 0.951 . S
C845 C846 1.366 . S
C845 C847 1.388 . S
C846 C845 1.366 . S
C846 C850 1.384 1_554 S
C847 H822 0.951 . S
C847 C845 1.388 . S
C847 C848 1.366 . S
C848 C847 1.366 . S
C848 C849 1.415 . S
C848 C851 1.499 . S
C849 H823 0.950 1_554 S
C849 C848 1.415 . S
C849 C850 1.374 1_554 S
C850 H824 0.951 . S
C850 C846 1.384 1_556 S
C850 C849 1.374 1_556 S
C851 C848 1.499 . S
C851 C852 1.373 1_554 S
C851 C853 1.389 . S
C852 H825 0.950 . S
C852 C838 1.377 1_655 S
C852 C851 1.373 1_556 S
C853 C837 1.377 1_655 S
C853 C851 1.389 . S
C853 C854 1.524 . S
C854 C853 1.524 . S
C854 C855 1.397 . S
C854 C859 1.363 . S
C855 H826 0.950 . S
C855 C854 1.397 . S
C855 C856 1.334 . S
C856 H827 0.950 . S
C856 C855 1.334 . S
C856 C857 1.287 . S
C857 C856 1.287 . S
C857 C858 1.524 . S
C857 H860 0.999 . S
C858 H828 0.950 . S
C858 C857 1.524 . S
C858 C859 1.415 . S
C859 H829 0.950 . S
C859 C854 1.363 . S
C859 C858 1.415 . S
H860 C857 0.999 . S
H861 C842 0.913 . S
H862 C880 0.951 . S
H863 C882 0.951 . S
H864 C884 0.950 . S
H865 C885 0.950 . S
H866 C887 0.950 . S
H867 C890 0.950 . S
H868 C891 0.950 . S
H869 C893 0.950 . S
H870 C894 0.950 . S
H871 C895 0.951 . S
H872 C897 0.951 . S
H873 C899 0.950 . S
H874 C900 0.950 . S
H875 C902 0.950 . S
H876 C905 0.950 . S
H877 C906 0.950 . S
H878 C908 0.950 . S
H879 C909 0.950 . S
C880 H862 0.951 . S
C880 C881 1.366 . S
C880 C882 1.388 . S
C881 C880 1.366 . S
C881 C885 1.385 . S
C882 H863 0.951 . S
C882 C880 1.388 . S
C882 C883 1.366 . S
C883 C882 1.366 . S
C883 C884 1.414 . S
C883 C886 1.499 . S
C884 H864 0.950 . S
C884 C883 1.414 . S
C884 C885 1.374 . S
C885 H865 0.950 . S
C885 C881 1.385 . S
C885 C884 1.374 . S
C886 C883 1.499 . S
C886 C887 1.373 . S
C886 C888 1.389 . S
C887 H866 0.950 . S
C887 C886 1.373 . S
C887 C903 1.377 1_455 S
C888 C886 1.389 . S
C888 C889 1.524 . S
C888 C902 1.377 1_455 S
C889 C888 1.524 . S
C889 C890 1.397 . S
C889 C894 1.363 . S
C890 H867 0.950 . S
C890 C889 1.397 . S
C890 C891 1.334 . S
C891 H868 0.950 . S
C891 C890 1.334 . S
C891 C892 1.287 . S
C892 C891 1.287 . S
C892 C893 1.524 . S
C892 H911 0.913 . S
C893 H869 0.950 . S
C893 C892 1.524 . S
C893 C894 1.415 . S
C894 H870 0.950 . S
C894 C889 1.363 . S
C894 C893 1.415 . S
C895 H871 0.951 . S
C895 C896 1.366 . S
C895 C897 1.388 . S
C896 C895 1.366 . S
C896 C900 1.385 . S
C897 H872 0.951 . S
C897 C895 1.388 . S
C897 C898 1.366 . S
C898 C897 1.366 . S
C898 C899 1.414 . S
C898 C901 1.499 . S
C899 H873 0.950 . S
C899 C898 1.414 . S
C899 C900 1.374 . S
C900 H874 0.950 . S
C900 C896 1.385 . S
C900 C899 1.374 . S
C901 C898 1.499 . S
C901 C902 1.373 . S
C901 C903 1.389 . S
C902 H875 0.950 . S
C902 C888 1.377 1_655 S
C902 C901 1.373 . S
C903 C887 1.377 1_655 S
C903 C901 1.389 . S
C903 C904 1.524 . S
C904 C903 1.524 . S
C904 C905 1.397 . S
C904 C909 1.363 . S
C905 H876 0.950 . S
C905 C904 1.397 . S
C905 C906 1.334 . S
C906 H877 0.950 . S
C906 C905 1.334 . S
C906 C907 1.287 . S
C907 C906 1.287 . S
C907 C908 1.524 . S
C907 H910 0.999 . S
C908 H878 0.950 . S
C908 C907 1.524 . S
C908 C909 1.415 . S
C909 H879 0.950 . S
C909 C904 1.363 . S
C909 C908 1.415 . S
H910 C907 0.999 . S
H911 C892 0.913 . S
C131 C79 1.481 . S
C146 C9 1.481 . S
C181 C65 1.481 . S
C196 C23 1.481 . S
C231 C107 1.481 . S
C246 C37 1.481 . S
C281 C93 1.480 . S
C296 C51 1.480 . S
C331 C3 1.373 . S
C346 C31 1.373 . S
C381 C17 1.373 . S
C396 C45 1.373 . S
C431 C21 1.354 . S
C446 C49 1.354 . S
C481 C7 1.353 . S
C496 C35 1.354 . S
C531 C59 1.372 . S
C546 C87 1.372 . S
C581 C101 1.372 . S
C596 C73 1.373 . S
C631 C105 1.354 . S
C646 C77 1.354 . S
C681 C63 1.354 . S
C696 C91 1.353 . S
C731 C22 1.497 . S
C746 C8 1.498 . S
C781 C36 1.498 . S
C796 C50 1.498 . S
C831 C64 1.497 . S
C846 C78 1.498 . S
C881 C92 1.498 . S
C896 C106 1.498 . S
