# Generated by pormake.
# Topology hcp, (12)-cn, num edge types: 1
# Building blocks:
#     Node 0, Type 0, BuildingBlock: BOTCEU_clean_sbu_0, # of connection points: 12
#     Node 1, Type 0, BuildingBlock: BOTCEU_clean_sbu_0, # of connection points: 12
#     Edge 2, Type (0, 0), BuildingBlock: UVAHIK_clean_linker_0, # of connection points: 2
#     Edge 3, Type (0, 0), BuildingBlock: UVAHIK_clean_linker_0, # of connection points: 2
#     Edge 4, Type (0, 0), BuildingBlock: UVAHIK_clean_linker_0, # of connection points: 2
#     Edge 5, Type (0, 0), BuildingBlock: UVAHIK_clean_linker_0, # of connection points: 2
#     Edge 6, Type (0, 0), BuildingBlock: UVAHIK_clean_linker_0, # of connection points: 2
#     Edge 7, Type (0, 0), BuildingBlock: UVAHIK_clean_linker_0, # of connection points: 2
#     Edge 8, Type (0, 0), BuildingBlock: UVAHIK_clean_linker_0, # of connection points: 2
#     Edge 9, Type (0, 0), BuildingBlock: UVAHIK_clean_linker_0, # of connection points: 2
#     Edge 10, Type (0, 0), BuildingBlock: UVAHIK_clean_linker_0, # of connection points: 2
#     Edge 11, Type (0, 0), BuildingBlock: UVAHIK_clean_linker_0, # of connection points: 2
#     Edge 12, Type (0, 0), BuildingBlock: UVAHIK_clean_linker_0, # of connection points: 2
#     Edge 13, Type (0, 0), BuildingBlock: UVAHIK_clean_linker_0, # of connection points: 2
# Relax obj value: 0.156
# Max RMSD: 0.245
# Mean RMSD: 0.245
data_MOF--net-hcp--node1-BOTCEU_clean_sbu_0--edge1-UVAHIK_clean_linker_0
_symmetry_space_group_name_H-M    P1
_symmetry_Int_Tables_number       1
_symmetry_cell_setting            triclinic
loop_
_symmetry_equiv_pos_as_xyz
'x, y, z'
_cell_length_a     31.205757
_cell_length_b     26.022609
_cell_length_c     50.450933
_cell_angle_alpha  97.126905
_cell_angle_beta   88.041687
_cell_angle_gamma 123.75329
loop_
_atom_site_label
_atom_site_type_symbol
_atom_site_fract_x
_atom_site_fract_y
_atom_site_fract_z
_atom_type_partial_charge
C0 C 0.40209 0.09656 0.26609 0.0
C1 C 0.40669 0.05359 0.27754 0.0
C2 C 0.4309 0.0842 0.3026 0.0
N3 N 0.42188 0.14827 0.28368 0.0
N4 N 0.43884 0.14092 0.30547 0.0
C5 C 0.37501 0.08654 0.24014 0.0
H6 H 0.3731 0.12688 0.23761 0.0
H7 H 0.33545 0.04362 0.2392 0.0
H8 H 0.39626 0.08036 0.22334 0.0
C9 C 0.44694 0.06057 0.32314 0.0
H10 H 0.479 0.10017 0.33626 0.0
H11 H 0.45886 0.03008 0.31328 0.0
H12 H 0.4141 0.03269 0.33575 0.0
C13 C 0.84041 0.39863 0.14104 0.0
C14 C 0.78123 0.4011 0.11953 0.0
C15 C 0.82834 0.40714 0.11631 0.0
N16 N 0.80244 0.38843 0.15754 0.0
N17 N 0.76754 0.39098 0.14489 0.0
H18 H 0.88646 0.36102 0.13632 0.0
H19 H 0.92259 0.44374 0.1448 0.0
H20 H 0.88668 0.39396 0.1702 0.0
C21 C 0.88671 0.3995 0.14874 0.0
H22 H 0.74816 0.37908 0.07977 0.0
H23 H 0.76984 0.45549 0.09593 0.0
H24 H 0.71096 0.38812 0.106 0.0
C25 C 0.75046 0.40597 0.09914 0.0
C26 C 0.39781 0.25432 0.33674 0.0
C27 C 0.52021 0.26242 0.25554 0.0
C28 C 0.6854 0.15922 0.32727 0.0
N29 N 0.71369 0.21991 0.32367 0.0
N30 N 0.73161 0.22537 0.29947 0.0
C31 C 0.68476 0.12464 0.30369 0.0
C32 C 0.71492 0.16866 0.28657 0.0
H33 H 0.67 0.17136 0.36873 0.0
H34 H 0.697 0.12581 0.36102 0.0
H35 H 0.63064 0.09216 0.35212 0.0
C36 C 0.66958 0.13607 0.35388 0.0
H37 H 0.74252 0.19652 0.2479 0.0
H38 H 0.70032 0.11272 0.24861 0.0
H39 H 0.76573 0.15538 0.26175 0.0
C40 C 0.73162 0.15767 0.25951 0.0
C41 C 0.34225 0.24259 0.23697 0.0
C42 C 0.32292 0.18628 0.27023 0.0
N43 N 0.38541 0.25098 0.24684 0.0
N44 N 0.37381 0.21763 0.26677 0.0
C45 C 0.30109 0.20115 0.2515 0.0
H46 H 0.32499 0.24365 0.19655 0.0
H47 H 0.31608 0.29345 0.22067 0.0
H48 H 0.38082 0.31585 0.21183 0.0
C49 C 0.34124 0.27632 0.21532 0.0
C50 C 0.29592 0.1416 0.29035 0.0
H51 H 0.25755 0.10158 0.2821 0.0
H52 H 0.28996 0.16556 0.30841 0.0
H53 H 0.3196 0.12485 0.29633 0.0
C54 C 0.85308 0.38647 0.3415 0.0
C55 C 0.66784 0.30978 0.31959 0.0
C56 C 0.64564 0.25075 0.13713 0.0
N57 N 0.65232 0.30005 0.15322 0.0
C58 C 0.59498 0.21469 0.12688 0.0
N59 N 0.60879 0.29699 0.15392 0.0
C60 C 0.57272 0.24567 0.13815 0.0
H61 H 0.71797 0.26303 0.14543 0.0
H62 H 0.70671 0.26735 0.11131 0.0
H63 H 0.67303 0.19264 0.12341 0.0
C64 C 0.6883 0.24273 0.12895 0.0
H65 H 0.50993 0.25691 0.14483 0.0
C66 C 0.52241 0.23412 0.12951 0.0
H67 H 0.52711 0.25366 0.11046 0.0
H68 H 0.49232 0.18343 0.12606 0.0
C69 C 0.71337 0.29419 0.42179 0.0
C70 C 0.77231 0.28841 0.39887 0.0
N71 N 0.70505 0.29218 0.39567 0.0
N72 N 0.74025 0.28869 0.38196 0.0
C73 C 0.75736 0.29373 0.42491 0.0
H74 H 0.65812 0.25208 0.45141 0.0
C75 C 0.68049 0.29746 0.44334 0.0
H76 H 0.65315 0.30665 0.4353 0.0
H77 H 0.70431 0.3336 0.46018 0.0
H78 H 0.82371 0.25865 0.40105 0.0
H79 H 0.85429 0.33877 0.39621 0.0
C80 C 0.81983 0.29096 0.39055 0.0
H81 H 0.81802 0.27774 0.36865 0.0
C82 C 0.71112 0.48657 0.15371 0.0
C83 C 0.69729 0.34543 0.21841 0.0
C84 C 0.91217 0.47284 0.24365 0.0
N85 N 0.86345 0.42954 0.23496 0.0
C86 C 0.9329 0.51995 0.22733 0.0
C87 C 0.89286 0.50192 0.20916 0.0
N88 N 0.85168 0.44641 0.21435 0.0
C89 C 0.93945 0.46611 0.26542 0.0
H90 H 0.91186 0.44011 0.28072 0.0
H91 H 0.95566 0.43932 0.25688 0.0
H92 H 0.97155 0.51251 0.27482 0.0
C93 C 0.89634 0.53286 0.18534 0.0
H94 H 0.8579 0.51044 0.17525 0.0
H95 H 0.91201 0.58275 0.1917 0.0
H96 H 0.92348 0.53081 0.17117 0.0
C97 C 0.41822 0.13835 0.38157 0.0
C98 C 0.43956 0.14589 0.40701 0.0
C99 C 0.48874 0.1994 0.40726 0.0
N100 N 0.45369 0.18556 0.36814 0.0
N101 N 0.49597 0.21997 0.38347 0.0
H102 H 0.33607 0.08494 0.38096 0.0
H103 H 0.3629 0.0401 0.37208 0.0
H104 H 0.36293 0.08754 0.34838 0.0
C105 C 0.36718 0.08457 0.36979 0.0
C106 C 0.53144 0.22324 0.42773 0.0
H107 H 0.52026 0.23572 0.44737 0.0
H108 H 0.53823 0.18642 0.43007 0.0
H109 H 0.56739 0.26482 0.42189 0.0
C110 C 0.78556 0.26228 0.19062 0.0
C111 C 0.77039 0.39332 0.27731 0.0
C112 C 0.53556 0.47001 0.22303 0.0
C113 C 0.51647 0.48398 0.2462 0.0
C114 C 0.48317 0.42669 0.25567 0.0
N115 N 0.51467 0.40849 0.21946 0.0
N116 N 0.4837 0.38247 0.23896 0.0
C117 C 0.57366 0.51429 0.20491 0.0
H118 H 0.56921 0.48991 0.18457 0.0
H119 H 0.56895 0.55329 0.20397 0.0
H120 H 0.61328 0.53385 0.21283 0.0
C121 C 0.45374 0.4147 0.28068 0.0
H122 H 0.44371 0.37005 0.28707 0.0
H123 H 0.4765 0.45373 0.29683 0.0
H124 H 0.41749 0.41143 0.27672 0.0
C125 C 0.86265 0.27019 0.28426 0.0
C126 C 0.89203 0.27076 0.26272 0.0
C127 C 0.88432 0.30059 0.24414 0.0
N128 N 0.83923 0.29791 0.27829 0.0
N129 N 0.85166 0.3153 0.2543 0.0
C130 C 0.85228 0.23788 0.30856 0.0
H131 H 0.88556 0.2669 0.3231 0.0
H132 H 0.84746 0.19223 0.30313 0.0
H133 H 0.81739 0.23113 0.31829 0.0
C134 C 0.90856 0.3167 0.21774 0.0
H135 H 0.94906 0.33014 0.21898 0.0
H136 H 0.88696 0.27553 0.20239 0.0
H137 H 0.9073 0.35524 0.21143 0.0
C138 C 0.42913 0.23276 0.18332 0.0
C139 C 0.62278 0.41031 0.22336 0.0
C140 C 0.58748 0.38106 0.39727 0.0
N141 N 0.59951 0.34337 0.38399 0.0
N142 N 0.64625 0.36061 0.39115 0.0
C143 C 0.62867 0.42502 0.41459 0.0
C144 C 0.66552 0.41037 0.41025 0.0
H145 H 0.51502 0.34681 0.41546 0.0
H146 H 0.53577 0.41115 0.39704 0.0
H147 H 0.51102 0.33431 0.37929 0.0
C148 C 0.53414 0.36747 0.3971 0.0
H149 H 0.73865 0.42244 0.41648 0.0
H150 H 0.73734 0.49115 0.42636 0.0
H151 H 0.70763 0.42901 0.44661 0.0
C152 C 0.71543 0.43975 0.42569 0.0
C153 C 0.57276 0.39772 0.12337 0.0
N154 N 0.57109 0.3815 0.14774 0.0
N155 N 0.53023 0.3741 0.15981 0.0
C156 C 0.53108 0.40236 0.1199 0.0
C157 C 0.50461 0.38652 0.14354 0.0
C158 C 0.61209 0.40574 0.10353 0.0
H159 H 0.64321 0.4559 0.10437 0.0
H160 H 0.59432 0.38873 0.08297 0.0
H161 H 0.62921 0.38015 0.10831 0.0
C162 C 0.45867 0.3881 0.15126 0.0
H163 H 0.46421 0.43181 0.14638 0.0
H164 H 0.42411 0.34844 0.13959 0.0
H165 H 0.45205 0.38434 0.1729 0.0
C166 C 0.57768 0.17067 0.37503 0.0
C167 C 0.55921 0.31837 0.32017 0.0
Cu168 Cu 0.42756 0.22314 0.28427 0.0
Cu169 Cu 0.46334 0.20643 0.3328 0.0
Cu170 Cu 0.74034 0.29502 0.34566 0.0
Cu171 Cu 0.78748 0.30384 0.29395 0.0
Cu172 Cu 0.71131 0.37718 0.16469 0.0
Cu173 Cu 0.61443 0.37055 0.16672 0.0
Cu174 Cu 0.81863 0.34789 0.24081 0.0
Cu175 Cu 0.79427 0.38171 0.19385 0.0
Cu176 Cu 0.52446 0.35693 0.19512 0.0
Cu177 Cu 0.45419 0.29721 0.23807 0.0
Cu178 Cu 0.55674 0.26447 0.36665 0.0
Cu179 Cu 0.66203 0.30331 0.37635 0.0
H180 H 0.41581 0.28717 0.35534 0.0
H181 H 0.36774 0.20735 0.34191 0.0
H182 H 0.3802 0.27109 0.3245 0.0
H183 H 0.51971 0.23144 0.26894 0.0
H184 H 0.5596 0.30492 0.25584 0.0
H185 H 0.50856 0.23741 0.23496 0.0
H186 H 0.87755 0.42837 0.33119 0.0
H187 H 0.87052 0.35903 0.34028 0.0
H188 H 0.85041 0.40144 0.3627 0.0
H189 H 0.68334 0.29315 0.30315 0.0
H190 H 0.67072 0.35214 0.31501 0.0
H191 H 0.62701 0.27211 0.32168 0.0
H192 H 0.68534 0.50352 0.15468 0.0
H193 H 0.71837 0.4775 0.13258 0.0
H194 H 0.7482 0.52256 0.16462 0.0
H195 H 0.70533 0.31205 0.22454 0.0
H196 H 0.65792 0.31902 0.20898 0.0
H197 H 0.69967 0.37673 0.2361 0.0
H198 H 0.74866 0.22988 0.17894 0.0
H199 H 0.81769 0.28419 0.17686 0.0
H200 H 0.79203 0.2356 0.20359 0.0
H201 H 0.78964 0.42822 0.26309 0.0
H202 H 0.72976 0.37877 0.27847 0.0
H203 H 0.79027 0.4148 0.29726 0.0
H204 H 0.39194 0.20678 0.19327 0.0
H205 H 0.42612 0.25818 0.16817 0.0
H206 H 0.43783 0.19916 0.17354 0.0
H207 H 0.60583 0.43426 0.23408 0.0
H208 H 0.62933 0.38601 0.23756 0.0
H209 H 0.6601 0.4455 0.21544 0.0
H210 H 0.58103 0.14097 0.35852 0.0
H211 H 0.60025 0.17696 0.39307 0.0
H212 H 0.53647 0.1472 0.37966 0.0
H213 H 0.58222 0.31811 0.30305 0.0
H214 H 0.52898 0.32425 0.31346 0.0
H215 H 0.585 0.35831 0.33529 0.0
O216 O 0.43478 0.25142 0.32258 0.0
O217 O 0.48649 0.27849 0.26405 0.0
O218 O 0.80477 0.35101 0.32938 0.0
O219 O 0.69537 0.32335 0.34288 0.0
O220 O 0.68824 0.43291 0.16541 0.0
O221 O 0.73256 0.3804 0.20054 0.0
O222 O 0.78288 0.30737 0.20618 0.0
O223 O 0.77246 0.34265 0.26865 0.0
O224 O 0.46759 0.27431 0.20197 0.0
O225 O 0.59 0.36811 0.20266 0.0
O226 O 0.59553 0.22751 0.36704 0.0
O227 O 0.53724 0.26365 0.33109 0.0
C228 C 0.07924 0.54128 0.76264 0.0
C229 C 0.0575 0.49344 0.77862 0.0
C230 C 0.0964 0.51117 0.79751 0.0
N231 N 0.12739 0.5847 0.77219 0.0
N232 N 0.13783 0.5672 0.79303 0.0
C233 C 0.05309 0.54858 0.74049 0.0
H234 H 0.08177 0.57688 0.72605 0.0
H235 H 0.03487 0.57313 0.74883 0.0
H236 H 0.02258 0.50233 0.73013 0.0
C237 C 0.09128 0.47962 0.82139 0.0
H238 H 0.12927 0.50113 0.83184 0.0
H239 H 0.07488 0.42953 0.81504 0.0
H240 H 0.0641 0.48249 0.83523 0.0
C241 C 0.56397 0.8792 0.62373 0.0
C242 C 0.49399 0.81675 0.59777 0.0
C243 C 0.54275 0.87102 0.59816 0.0
N244 N 0.52879 0.83173 0.63714 0.0
N245 N 0.48687 0.79638 0.6216 0.0
H246 H 0.64612 0.93313 0.62466 0.0
H247 H 0.61885 0.97769 0.63287 0.0
H248 H 0.6188 0.93108 0.65705 0.0
C249 C 0.61475 0.93349 0.63554 0.0
H250 H 0.46242 0.77782 0.55782 0.0
H251 H 0.44491 0.82856 0.57393 0.0
H252 H 0.41509 0.75099 0.58328 0.0
C253 C 0.45131 0.79183 0.57712 0.0
C254 C 0.20039 0.74955 0.81841 0.0
C255 C 0.225 0.6276 0.73188 0.0
C256 C 0.44551 0.5408 0.77934 0.0
N257 N 0.4651 0.602 0.78361 0.0
N258 N 0.49482 0.62967 0.76394 0.0
C259 C 0.46386 0.52866 0.75547 0.0
C260 C 0.49561 0.58674 0.74636 0.0
H261 H 0.4124 0.5191 0.81789 0.0
H262 H 0.42029 0.46067 0.79932 0.0
H263 H 0.36997 0.46937 0.7897 0.0
C264 C 0.4103 0.49506 0.7978 0.0
H265 H 0.53424 0.64601 0.71568 0.0
H266 H 0.50122 0.56274 0.70468 0.0
H267 H 0.5607 0.60349 0.72429 0.0
C268 C 0.5244 0.60069 0.72114 0.0
C269 C 0.12289 0.73888 0.72345 0.0
C270 C 0.10236 0.7092 0.76376 0.0
N271 N 0.14969 0.71595 0.73015 0.0
N272 N 0.13793 0.69894 0.75422 0.0
C273 C 0.09183 0.73531 0.74458 0.0
H274 H 0.09864 0.73311 0.68348 0.0
H275 H 0.12792 0.80903 0.70242 0.0
H276 H 0.16728 0.78068 0.6896 0.0
C277 C 0.12993 0.76752 0.69835 0.0
C278 C 0.0769 0.69044 0.78969 0.0
H279 H 0.03525 0.67179 0.78755 0.0
H280 H 0.09498 0.73185 0.8051 0.0
H281 H 0.08181 0.65497 0.79648 0.0
C282 C 0.54932 0.77714 0.8216 0.0
C283 C 0.35543 0.59583 0.78463 0.0
C284 C 0.3976 0.63388 0.60827 0.0
N285 N 0.38482 0.67127 0.62105 0.0
C286 C 0.35581 0.58712 0.59201 0.0
N287 N 0.33712 0.65141 0.61453 0.0
C288 C 0.31785 0.59991 0.59639 0.0
H289 H 0.46964 0.66951 0.5895 0.0
H290 H 0.45121 0.60655 0.6084 0.0
H291 H 0.47477 0.68356 0.62562 0.0
C292 C 0.45152 0.64931 0.6081 0.0
H293 H 0.24297 0.58369 0.59101 0.0
C294 C 0.26629 0.56621 0.58217 0.0
H295 H 0.27151 0.57248 0.56068 0.0
H296 H 0.24579 0.51556 0.58343 0.0
C297 C 0.41408 0.60706 0.88175 0.0
C298 C 0.48065 0.61951 0.85934 0.0
N299 N 0.41357 0.62427 0.85791 0.0
N300 N 0.45347 0.63245 0.8445 0.0
C301 C 0.4562 0.60251 0.88344 0.0
H302 H 0.34582 0.54798 0.90213 0.0
C303 C 0.37654 0.59828 0.90286 0.0
H304 H 0.35852 0.6237 0.89941 0.0
H305 H 0.39616 0.61494 0.92299 0.0
H306 H 0.52168 0.57507 0.85386 0.0
H307 H 0.56146 0.65836 0.86119 0.0
C308 C 0.52626 0.61886 0.84989 0.0
H309 H 0.53106 0.62351 0.82824 0.0
C310 C 0.40166 0.84097 0.62871 0.0
C311 C 0.42404 0.69743 0.6847 0.0
C312 C 0.57805 0.92076 0.73944 0.0
N313 N 0.55757 0.8686 0.72207 0.0
C314 C 0.57502 0.96438 0.72754 0.0
C315 C 0.5508 0.93356 0.70249 0.0
N316 N 0.54163 0.87624 0.7 0.0
C317 C 0.60535 0.93088 0.76532 0.0
H318 H 0.60366 0.88862 0.76881 0.0
H319 H 0.64619 0.97074 0.76519 0.0
H320 H 0.5869 0.9423 0.78207 0.0
C321 C 0.53611 0.95778 0.68158 0.0
H322 H 0.505 0.91854 0.66787 0.0
H323 H 0.52333 0.9876 0.69115 0.0
H324 H 0.56983 0.98666 0.66966 0.0
C325 C 0.1449 0.61195 0.86674 0.0
C326 C 0.15596 0.60252 0.89152 0.0
C327 C 0.20309 0.60848 0.88872 0.0
N328 N 0.1835 0.62268 0.85061 0.0
N329 N 0.21775 0.61948 0.86354 0.0
H330 H 0.09989 0.65095 0.87047 0.0
H331 H 0.06282 0.56793 0.86304 0.0
H332 H 0.09894 0.61555 0.83703 0.0
C333 C 0.09896 0.6114 0.85865 0.0
C334 C 0.23299 0.60262 0.90928 0.0
H335 H 0.23402 0.62801 0.92884 0.0
H336 H 0.21371 0.55275 0.91182 0.0
H337 H 0.27301 0.62146 0.90299 0.0
C338 C 0.58542 0.76489 0.66972 0.0
C339 C 0.46006 0.75459 0.75095 0.0
C340 C 0.29678 0.85267 0.67737 0.0
C341 C 0.29898 0.88885 0.70077 0.0
C342 C 0.2715 0.84638 0.71891 0.0
N343 N 0.27039 0.7927 0.68204 0.0
N344 N 0.255 0.78911 0.70675 0.0
C345 C 0.30892 0.87318 0.65016 0.0
H346 H 0.30787 0.83723 0.63547 0.0
H347 H 0.27981 0.88144 0.64369 0.0
H348 H 0.34728 0.91773 0.65067 0.0
C349 C 0.25656 0.859 0.74621 0.0
H350 H 0.24809 0.82199 0.75847 0.0
H351 H 0.28776 0.90533 0.75616 0.0
H352 H 0.22127 0.8591 0.74447 0.0
C353 C 0.63558 0.76999 0.76798 0.0
C354 C 0.67734 0.8134 0.75438 0.0
C355 C 0.65641 0.83124 0.73654 0.0
N356 N 0.59295 0.76328 0.75844 0.0
N357 N 0.60541 0.79955 0.73958 0.0
C358 C 0.63537 0.73175 0.78786 0.0
H359 H 0.65427 0.76208 0.80695 0.0
H360 H 0.65769 0.7117 0.78051 0.0
H361 H 0.59529 0.69387 0.79162 0.0
C362 C 0.68419 0.87755 0.71712 0.0
H363 H 0.72281 0.9163 0.72567 0.0
H364 H 0.68974 0.8546 0.69856 0.0
H365 H 0.66132 0.89594 0.71187 0.0
C366 C 0.13252 0.62042 0.66854 0.0
C367 C 0.3186 0.70559 0.68621 0.0
C368 C 0.34129 0.75796 0.87354 0.0
N369 N 0.33377 0.70901 0.85684 0.0
N370 N 0.37674 0.71087 0.85557 0.0
C371 C 0.39199 0.79248 0.88368 0.0
C372 C 0.41335 0.76097 0.87169 0.0
H373 H 0.2701 0.74885 0.86557 0.0
H374 H 0.2803 0.74148 0.89938 0.0
H375 H 0.31564 0.81734 0.88833 0.0
C376 C 0.29942 0.76721 0.8821 0.0
H377 H 0.47525 0.74832 0.86412 0.0
H378 H 0.49384 0.82117 0.88386 0.0
H379 H 0.45813 0.74976 0.89856 0.0
C380 C 0.46322 0.77075 0.87989 0.0
C381 C 0.2617 0.70738 0.58426 0.0
N382 N 0.27378 0.71458 0.61031 0.0
N383 N 0.23929 0.71821 0.62468 0.0
C384 C 0.21596 0.70443 0.582 0.0
C385 C 0.20394 0.71337 0.60833 0.0
C386 C 0.2924 0.70175 0.56201 0.0
H387 H 0.26774 0.65919 0.54781 0.0
H388 H 0.32489 0.70143 0.56997 0.0
H389 H 0.30801 0.7421 0.55064 0.0
C390 C 0.15603 0.70866 0.61769 0.0
H391 H 0.14926 0.73837 0.60693 0.0
H392 H 0.12238 0.65982 0.61311 0.0
H393 H 0.15956 0.72382 0.63949 0.0
C394 C 0.2726 0.52302 0.85583 0.0
C395 C 0.2929 0.67244 0.79184 0.0
Cu396 Cu 0.17178 0.66731 0.76749 0.0
Cu397 Cu 0.19373 0.63144 0.81452 0.0
Cu398 Cu 0.45608 0.65149 0.8097 0.0
Cu399 Cu 0.52394 0.71537 0.76637 0.0
Cu400 Cu 0.42607 0.75058 0.63813 0.0
Cu401 Cu 0.31985 0.70752 0.62912 0.0
Cu402 Cu 0.5522 0.79395 0.72164 0.0
Cu403 Cu 0.51877 0.81112 0.67256 0.0
Cu404 Cu 0.24318 0.71604 0.66114 0.0
Cu405 Cu 0.20133 0.7109 0.71411 0.0
Cu406 Cu 0.27451 0.63339 0.84437 0.0
Cu407 Cu 0.36912 0.63694 0.84118 0.0
H408 H 0.23559 0.78059 0.83154 0.0
H409 H 0.16623 0.72574 0.83079 0.0
H410 H 0.19588 0.77793 0.80551 0.0
H411 H 0.20578 0.59215 0.74588 0.0
H412 H 0.26641 0.64515 0.73179 0.0
H413 H 0.20712 0.60574 0.71155 0.0
H414 H 0.586 0.80504 0.81145 0.0
H415 H 0.55412 0.75196 0.83618 0.0
H416 H 0.53931 0.80895 0.83207 0.0
H417 H 0.36143 0.55755 0.78055 0.0
H418 H 0.36088 0.61739 0.76616 0.0
H419 H 0.31547 0.57603 0.79111 0.0
H420 H 0.39774 0.87059 0.645 0.0
H421 H 0.37833 0.83287 0.61067 0.0
H422 H 0.44287 0.86563 0.62394 0.0
H423 H 0.40421 0.69889 0.70307 0.0
H424 H 0.4543 0.68981 0.68941 0.0
H425 H 0.39542 0.6578 0.67028 0.0
H426 H 0.61534 0.81203 0.66467 0.0
H427 H 0.60291 0.7486 0.68233 0.0
H428 H 0.56833 0.732 0.65106 0.0
H429 H 0.45925 0.78488 0.73762 0.0
H430 H 0.42064 0.71267 0.75189 0.0
H431 H 0.4742 0.78089 0.77121 0.0
H432 H 0.11192 0.57896 0.6794 0.0
H433 H 0.11173 0.64397 0.67026 0.0
H434 H 0.13413 0.60512 0.64724 0.0
H435 H 0.3037 0.72292 0.70269 0.0
H436 H 0.31681 0.66423 0.6913 0.0
H437 H 0.35885 0.7437 0.68331 0.0
H438 H 0.29565 0.50235 0.85302 0.0
H439 H 0.27049 0.53504 0.87743 0.0
H440 H 0.23311 0.48872 0.847 0.0
H441 H 0.28387 0.70492 0.78569 0.0
H442 H 0.3313 0.69988 0.80241 0.0
H443 H 0.29389 0.64386 0.77399 0.0
O444 O 0.20516 0.70624 0.80271 0.0
O445 O 0.21952 0.67592 0.73992 0.0
O446 O 0.51083 0.73512 0.80304 0.0
O447 O 0.38971 0.63961 0.80449 0.0
O448 O 0.38557 0.78513 0.63723 0.0
O449 O 0.44521 0.75222 0.6739 0.0
O450 O 0.54757 0.76696 0.68331 0.0
O451 O 0.49247 0.7373 0.74126 0.0
O452 O 0.18165 0.66053 0.67936 0.0
O453 O 0.28935 0.68956 0.66333 0.0
O454 O 0.29538 0.57545 0.84326 0.0
O455 O 0.25622 0.63416 0.80846 0.0
C456 C 0.38606 0.82045 0.93198 0.0
C457 C 0.41227 0.83734 0.90819 0.0
C458 C 0.40609 0.86133 0.95562 0.0
C459 C 0.49587 0.0265 0.98165 0.0
H460 H 0.49268 0.96078 0.04718 0.0
C461 C 0.60192 0.18638 0.07877 0.0
C462 C 0.57559 0.16934 0.10251 0.0
C463 C 0.58244 0.14525 0.05518 0.0
C464 C 0.49333 0.97969 0.02911 0.0
H465 H 0.47961 0.9093 0.89011 0.0
H466 H 0.5153 0.98129 0.93168 0.0
H467 H 0.45789 0.89065 0.00542 0.0
H468 H 0.50858 0.09683 0.12056 0.0
H469 H 0.47379 0.02443 0.07908 0.0
H470 H 0.5312 0.1155 0.00533 0.0
C471 C 0.47891 0.93678 0.93199 0.0
C472 C 0.47345 0.93958 0.0052 0.0
C473 C 0.45879 0.89569 0.9083 0.0
C474 C 0.52953 0.11054 0.10242 0.0
C475 C 0.50992 0.06922 0.07877 0.0
C476 C 0.51572 0.0666 0.00556 0.0
C477 C 0.45286 0.91981 0.95592 0.0
C478 C 0.47446 0.96257 0.98123 0.0
C479 C 0.53604 0.08639 0.05486 0.0
C480 C 0.5147 0.04362 0.02954 0.0
H481 H 0.35055 0.77508 0.93242 0.0
H482 H 0.38489 0.84718 0.97366 0.0
H483 H 0.49649 0.0454 0.96358 0.0
H484 H 0.63701 0.23211 0.07829 0.0
H485 H 0.6037 0.15959 0.03717 0.0
C486 C 0.37498 0.5732 0.54472 0.0
C487 C 0.36113 0.5497 0.56938 0.0
C488 C 0.40217 0.55685 0.52696 0.0
C489 C 0.44851 0.452 0.5129 0.0
H490 H 0.56956 0.59852 0.4892 0.0
C491 C 0.608 0.43493 0.46198 0.0
C492 C 0.62289 0.4607 0.43783 0.0
C493 C 0.58089 0.45068 0.48012 0.0
C494 C 0.53586 0.55706 0.49551 0.0
H495 H 0.3609 0.48734 0.59403 0.0
H496 H 0.40705 0.45727 0.56284 0.0
H497 H 0.50449 0.60785 0.51307 0.0
H498 H 0.62497 0.52622 0.4145 0.0
H499 H 0.57871 0.55482 0.44621 0.0
H500 H 0.47972 0.40111 0.49523 0.0
C501 C 0.3971 0.48821 0.55704 0.0
C502 C 0.4983 0.56228 0.50903 0.0
C503 C 0.37012 0.50482 0.57482 0.0
C504 C 0.61489 0.50691 0.43331 0.0
C505 C 0.58787 0.52274 0.45141 0.0
C506 C 0.48602 0.44673 0.49931 0.0
C507 C 0.41585 0.51662 0.53358 0.0
C508 C 0.45407 0.5098 0.51784 0.0
C509 C 0.5682 0.49239 0.47436 0.0
C510 C 0.53022 0.4992 0.49043 0.0
H511 H 0.36945 0.60896 0.54039 0.0
H512 H 0.41521 0.57863 0.5088 0.0
H513 H 0.41483 0.41062 0.51928 0.0
H514 H 0.61275 0.39814 0.46559 0.0
H515 H 0.56725 0.4274 0.49788 0.0
C516 C 0.84397 0.39006 0.06801 0.0
C517 C 0.8614 0.42633 0.09307 0.0
C518 C 0.8756 0.40885 0.04609 0.0
C519 C 0.01229 0.51067 0.02885 0.0
H520 H 0.95381 0.4935 0.95917 0.0
C521 C 0.13937 0.61937 0.93964 0.0
C522 C 0.12232 0.58326 0.91454 0.0
C523 C 0.10744 0.60037 0.96143 0.0
C524 C 0.97067 0.49801 0.97843 0.0
H525 H 0.92452 0.5111 0.11496 0.0
H526 H 0.97992 0.54409 0.07681 0.0
H527 H 0.89808 0.45936 0.99707 0.0
H528 H 0.05948 0.49867 0.8924 0.0
H529 H 0.0035 0.46529 0.93035 0.0
H530 H 0.08487 0.54932 0.01023 0.0
C531 C 0.94235 0.50058 0.07406 0.0
C532 C 0.93869 0.47839 1.00016 0.0
C533 C 0.91072 0.48176 0.09591 0.0
C534 C 0.073 0.52786 0.9115 0.0
C535 C 0.04104 0.50882 0.93323 0.0
C536 C 0.04426 0.5303 0.00713 0.0
C537 C 0.92525 0.46433 0.04887 0.0
C538 C 0.95912 0.48454 0.02565 0.0
C539 C 0.05785 0.54482 0.95849 0.0
C540 C 0.02386 0.52424 0.98165 0.0
H541 H 0.80621 0.34677 0.06548 0.0
H542 H 0.86148 0.37944 0.02707 0.0
H543 H 0.02917 0.5152 0.04811 0.0
H544 H 0.17713 0.66265 0.94232 0.0
H545 H 0.12134 0.62963 0.98049 0.0
C546 C 0.54597 0.96413 0.58795 0.0
C547 C 0.55513 0.91751 0.57988 0.0
C548 C 0.5351 0.99081 0.56891 0.0
C549 C 0.47899 0.94766 0.4998 0.0
H550 H 0.51295 0.11646 0.50776 0.0
C551 C 0.4356 0.05237 0.41722 0.0
C552 C 0.42663 0.09916 0.42526 0.0
C553 C 0.4463 0.02559 0.4363 0.0
C554 C 0.50232 0.06878 0.50542 0.0
H555 H 0.56357 0.86539 0.54569 0.0
H556 H 0.54701 0.91372 0.51243 0.0
H557 H 0.54924 0.08632 0.53983 0.0
H558 H 0.41825 0.15143 0.4594 0.0
H559 H 0.43446 0.10291 0.49271 0.0
H560 H 0.43207 0.93012 0.4654 0.0
C561 C 0.54701 0.92887 0.53342 0.0
C562 C 0.52348 0.05161 0.52379 0.0
C563 C 0.55775 0.90219 0.55246 0.0
C564 C 0.42391 0.1145 0.45267 0.0
C565 C 0.43448 0.08772 0.47173 0.0
C566 C 0.45782 0.96483 0.48143 0.0
C567 C 0.53306 0.97132 0.54136 0.0
C568 C 0.51223 0.99081 0.52125 0.0
C569 C 0.44832 0.04515 0.46383 0.0
C570 C 0.46908 0.02564 0.48398 0.0
H571 H 0.54201 0.97534 0.60892 0.0
H572 H 0.52436 0.02308 0.57587 0.0
H573 H 0.46837 0.89998 0.49746 0.0
H574 H 0.4396 0.04114 0.39626 0.0
H575 H 0.45695 0.99323 0.42936 0.0
C576 C 0.47321 0.39125 0.08328 0.0
C577 C 0.52132 0.42547 0.09709 0.0
C578 C 0.46631 0.41064 0.06003 0.0
C579 C 0.52299 0.54681 0.02254 0.0
H580 H 0.45161 0.42153 0.96131 0.0
C581 C 0.51688 0.6132 0.91828 0.0
C582 C 0.46808 0.57869 0.90517 0.0
C583 C 0.52545 0.59352 0.94096 0.0
C584 C 0.47136 0.45703 0.97828 0.0
H585 H 0.599 0.50818 0.09861 0.0
H586 H 0.58735 0.54168 0.05802 0.0
H587 H 0.45957 0.39027 0.00352 0.0
H588 H 0.391 0.4951 0.90416 0.0
H589 H 0.40552 0.46108 0.94375 0.0
H590 H 0.53459 0.61354 0.99734 0.0
C591 C 0.55488 0.50001 0.06493 0.0
C592 C 0.4757 0.43907 1.00249 0.0
C593 C 0.56174 0.48052 0.08801 0.0
C594 C 0.42877 0.52293 0.91422 0.0
C595 C 0.43728 0.50316 0.93673 0.0
C596 C 0.51862 0.56477 0.99833 0.0
C597 C 0.50736 0.46481 0.05042 0.0
C598 C 0.50147 0.48374 0.02491 0.0
C599 C 0.4854 0.53877 0.95069 0.0
C600 C 0.49261 0.52006 0.97594 0.0
H601 H 0.44158 0.3485 0.08989 0.0
H602 H 0.42902 0.38298 0.04947 0.0
H603 H 0.54261 0.58228 0.03953 0.0
H604 H 0.54767 0.65649 0.91166 0.0
H605 H 0.56315 0.62153 0.9511 0.0
C606 C 0.81019 0.38679 0.45779 0.0
C607 C 0.79412 0.32554 0.44802 0.0
C608 C 0.85355 0.424 0.47486 0.0
C609 C 0.97623 0.44489 0.4862 0.0
H610 H -0.00557 0.57039 0.54347 0.0
C611 C 0.1612 0.60556 0.55245 0.0
C612 C 0.17644 0.6673 0.56032 0.0
C613 C 0.11598 0.5642 0.53709 0.0
C614 C 0.98995 0.53612 0.52724 0.0
H615 H 0.80879 0.25381 0.44925 0.0
H616 H 0.88564 0.3195 0.47933 0.0
H617 H 0.90808 0.49086 0.52444 0.0
H618 H 0.15797 0.73527 0.55762 0.0
H619 H 0.07804 0.66241 0.53051 0.0
H620 H 0.05816 0.49037 0.48893 0.0
C621 C 0.86439 0.33844 0.47372 0.0
C622 C 0.94058 0.49031 0.51658 0.0
C623 C 0.82048 0.30087 0.45672 0.0
C624 C 0.14704 0.68795 0.55153 0.0
C625 C 0.10134 0.64628 0.53628 0.0
C626 C 0.0256 0.49065 0.4969 0.0
C627 C 0.88217 0.40097 0.48219 0.0
C628 C 0.93333 0.4446 0.49581 0.0
C629 C 0.08473 0.58359 0.52967 0.0
C630 C 0.03291 0.53694 0.51736 0.0
H631 H 0.79167 0.4077 0.45062 0.0
H632 H 0.86678 0.47225 0.48066 0.0
H633 H 0.97186 0.41101 0.4698 0.0
H634 H 0.18209 0.58778 0.55983 0.0
H635 H 0.10373 0.51599 0.53263 0.0
C636 C 0.6134 0.01232 0.30286 0.0
C637 C 0.66562 0.05794 0.29982 0.0
C638 C 0.59525 0.94907 0.29887 0.0
C639 C 0.63026 0.84214 0.26632 0.0
H640 H 0.52695 0.72476 0.31091 0.0
C641 C 0.58353 0.59555 0.26123 0.0
C642 C 0.5312 0.54674 0.25821 0.0
C643 C 0.59815 0.6568 0.26862 0.0
C644 C 0.55554 0.757 0.2982 0.0
H645 H 0.74035 0.07419 0.29137 0.0
H646 H 0.70919 0.96419 0.2847 0.0
H647 H 0.55615 0.83449 0.31892 0.0
H648 H 0.45303 0.52269 0.26213 0.0
H649 H 0.47863 0.63049 0.2754 0.0
H650 H 0.63014 0.76511 0.2458 0.0
C651 C 0.68171 0.97664 0.2894 0.0
C652 C 0.5722 0.81979 0.30272 0.0
C653 C 0.69967 0.03967 0.29322 0.0
C654 C 0.49365 0.55966 0.26439 0.0
C655 C 0.50831 0.62123 0.27191 0.0
C656 C 0.61393 0.77973 0.26196 0.0
C657 C 0.62917 0.93043 0.29192 0.0
C658 C 0.61011 0.86324 0.28694 0.0
C659 C 0.56073 0.67058 0.27329 0.0
C660 C 0.57675 0.73654 0.27797 0.0
H661 H 0.58649 0.02558 0.30787 0.0
H662 H 0.55451 0.91483 0.30071 0.0
H663 H 0.65848 0.8738 0.25332 0.0
H664 H 0.61324 0.58654 0.25722 0.0
H665 H 0.63886 0.69364 0.27015 0.0
C666 C 0.05258 0.78735 0.76934 0.0
C667 C 0.05501 0.75373 0.74602 0.0
C668 C 0.01598 0.80235 0.77096 0.0
C669 C 0.89081 0.74939 0.74024 0.0
H670 H 0.91812 0.9073 0.77466 0.0
C671 C 0.74716 0.81339 0.72978 0.0
C672 C 0.72894 0.82488 0.75405 0.0
C673 C 0.79225 0.81469 0.72949 0.0
C674 C 0.91025 0.86307 0.76511 0.0
H675 H 0.02209 0.71004 0.70604 0.0
H676 H 0.95992 0.7386 0.70827 0.0
H677 H 0.98753 0.88926 0.77247 0.0
H678 H 0.74413 0.84999 0.79683 0.0
H679 H 0.82379 0.8519 0.79637 0.0
H680 H 0.81404 0.72352 0.73249 0.0
C681 C 0.98533 0.75227 0.72557 0.0
C682 C 0.94965 0.85261 0.76393 0.0
C683 C 0.02142 0.73673 0.7241 0.0
C684 C 0.7577 0.84082 0.77794 0.0
C685 C 0.80317 0.84238 0.77765 0.0
C686 C 0.85188 0.76009 0.74116 0.0
C687 C 0.98158 0.7842 0.74917 0.0
C688 C 0.9403 0.79581 0.75122 0.0
C689 C 0.81966 0.8273 0.75349 0.0
C690 C 0.86143 0.81712 0.75334 0.0
H691 H 0.07884 0.80191 0.78633 0.0
H692 H 0.0138 0.82671 0.78944 0.0
H693 H 0.88198 0.7045 0.73102 0.0
H694 H 0.72503 0.79967 0.71118 0.0
H695 H 0.80453 0.80308 0.71065 0.0
C696 C 0.37642 0.96411 0.24148 0.0
C697 C 0.37767 0.98607 0.26849 0.0
C698 C 0.33824 0.90275 0.23143 0.0
C699 C 0.22416 0.80512 0.21731 0.0
H700 H 0.16517 0.66046 0.25508 0.0
C701 C 0.0068 0.62969 0.22505 0.0
C702 C 0.98817 0.56669 0.22464 0.0
C703 C 0.05974 0.67397 0.2241 0.0
C704 C 0.18148 0.69995 0.24395 0.0
H705 H 0.34298 0.9599 0.30662 0.0
H706 H 0.27808 0.85282 0.28946 0.0
H707 H 0.25424 0.74797 0.2656 0.0
H708 H 0.00896 0.49937 0.22092 0.0
H709 H 0.10163 0.5769 0.21991 0.0
H710 H 0.15045 0.75864 0.19676 0.0
C711 C 0.30627 0.88269 0.27594 0.0
C712 C 0.23235 0.74999 0.25003 0.0
C713 C 0.34378 0.94414 0.28585 0.0
C714 C 0.02276 0.54809 0.22207 0.0
C715 C 0.0756 0.59225 0.22128 0.0
C716 C 0.17314 0.75532 0.2114 0.0
C717 C 0.30153 0.86236 0.24843 0.0
C718 C 0.25349 0.8039 0.23745 0.0
C719 C 0.09467 0.65571 0.22276 0.0
C720 C 0.15083 0.70328 0.22535 0.0
H721 H 0.40289 0.99533 0.22782 0.0
H722 H 0.33562 0.8879 0.21018 0.0
H723 H 0.23934 0.8464 0.20749 0.0
H724 H 0.9807 0.6449 0.22706 0.0
H725 H 0.07348 0.72273 0.22559 0.0
C726 C 0.39752 0.41731 0.73981 0.0
C727 C 0.44973 0.46652 0.74278 0.0
C728 C 0.38328 0.35619 0.73247 0.0
C729 C 0.42577 0.25585 0.70308 0.0
H730 H 0.32566 0.14111 0.74956 0.0
C731 C 0.36921 1.00104 0.69953 0.0
C732 C 0.31759 0.95545 0.70391 0.0
C733 C 0.38705 0.06422 0.70301 0.0
C734 C 0.35303 0.1721 0.73609 0.0
H735 H 0.5281 0.49141 0.73869 0.0
H736 H 0.50315 0.38374 0.7254 0.0
H737 H 0.35354 0.24964 0.75635 0.0
H738 H 0.24353 0.93921 0.71422 0.0
H739 H 0.27402 0.04899 0.71986 0.0
H740 H 0.42463 0.17783 0.68255 0.0
C741 C 0.47327 0.39264 0.72894 0.0
C742 C 0.36914 0.23448 0.74006 0.0
C743 C 0.48756 0.45413 0.73644 0.0
C744 C 0.28379 0.97371 0.71129 0.0
C745 C 0.3014 0.03667 0.71455 0.0
C746 C 0.40924 0.19303 0.69892 0.0
C747 C 0.42097 0.34288 0.72777 0.0
C748 C 0.40533 0.27698 0.72349 0.0
C749 C 0.35342 0.08293 0.71074 0.0
C750 C 0.37229 0.15021 0.71527 0.0
H751 H 0.36759 0.42589 0.74396 0.0
H752 H 0.34267 0.31904 0.7311 0.0
H753 H 0.45361 0.28755 0.68996 0.0
H754 H 0.39596 0.98784 0.6939 0.0
H755 H 0.42741 0.09839 0.70018 0.0
C756 C 0.21984 0.16193 0.22528 0.0
C757 C 0.24754 0.1836 0.24989 0.0
C758 C 0.17023 0.14951 0.22384 0.0
C759 C 0.06389 0.13287 0.26618 0.0
H760 H 0.04393 0.2104 0.21126 0.0
C761 C 0.95414 0.25052 0.28041 0.0
C762 C 0.92153 0.24186 0.25946 0.0
C763 C 0.98338 0.22492 0.27709 0.0
C764 C 0.04836 0.18733 0.22638 0.0
H765 H 0.24585 0.20926 0.29222 0.0
H766 H 0.16002 0.18855 0.28983 0.0
H767 H 0.11542 0.19729 0.20883 0.0
H768 H 0.89159 0.19705 0.21914 0.0
H769 H 0.94468 0.15453 0.21289 0.0
H770 H -0.00119 0.12718 0.28467 0.0
C771 C 0.17543 0.17917 0.2717 0.0
C772 C 0.0892 0.1796 0.22496 0.0
C773 C 0.22473 0.19127 0.2731 0.0
C774 C 0.91763 0.20594 0.23533 0.0
C775 C 0.94742 0.18102 0.23185 0.0
C776 C 0.02343 0.14126 0.26774 0.0
C777 C 0.14786 0.159 0.24701 0.0
C778 C 0.09859 0.15455 0.24543 0.0
C779 C 0.98083 0.19078 0.25265 0.0
C780 C 0.01655 0.17059 0.24836 0.0
H781 H 0.23668 0.15509 0.20718 0.0
H782 H 0.14976 0.13352 0.20457 0.0
H783 H 0.06946 0.11208 0.28192 0.0
H784 H 0.95835 0.27871 0.29907 0.0
H785 H 0.00959 0.234 0.29327 0.0
C786 C 0.98284 0.38351 0.77974 0.0
C787 C 0.00195 0.44676 0.78054 0.0
C788 C 0.92972 0.33942 0.78 0.0
C789 C 0.80929 0.31506 0.75889 0.0
H790 H 0.74784 0.16917 0.79604 0.0
C791 C 0.60866 0.05629 0.76266 0.0
C792 C 0.60662 0.03225 0.73589 0.0
C793 C 0.64876 0.11706 0.77225 0.0
C794 C 0.76411 0.21031 0.78599 0.0
H795 H 0.9817 0.51458 0.78428 0.0
H796 H 0.88878 0.43742 0.78397 0.0
H797 H 0.8374 0.25527 0.80684 0.0
H798 H 0.64245 0.05428 0.69772 0.0
H799 H 0.71052 0.16062 0.71403 0.0
H800 H 0.73692 0.26848 0.73694 0.0
C801 C 0.9146 0.42177 0.78283 0.0
C802 C 0.81546 0.25913 0.79195 0.0
C803 C 0.96759 0.46572 0.78279 0.0
C804 C 0.64208 0.07179 0.71827 0.0
C805 C 0.68146 0.13275 0.72769 0.0
C806 C 0.75813 0.26595 0.75272 0.0
C807 C 0.89511 0.35814 0.781 0.0
C808 C 0.83892 0.31104 0.77786 0.0
C809 C 0.68661 0.15487 0.755 0.0
C810 C 0.73563 0.21236 0.76564 0.0
H811 H 0.00878 0.36804 0.77802 0.0
H812 H 0.91562 0.29053 0.77829 0.0
H813 H 0.82653 0.35448 0.74764 0.0
H814 H 0.58115 0.02696 0.77652 0.0
H815 H 0.65177 0.13337 0.79336 0.0
loop_
_geom_bond_atom_site_label_1
_geom_bond_atom_site_label_2
_geom_bond_distance
_geom_bond_site_symmetry_2
_ccdc_geom_bond_type
C0 C1 1.388 . S
C0 N3 1.338 . S
C0 C5 1.503 . S
C1 C0 1.388 . S
C1 C2 1.396 . S
C2 C1 1.396 . S
C2 N4 1.348 . S
C2 C9 1.504 . S
N3 C0 1.338 . S
N3 N4 1.361 . S
N3 Cu168 1.924 . S
N4 C2 1.348 . S
N4 N3 1.361 . S
N4 Cu169 1.964 . S
C5 C0 1.503 . S
C5 H6 0.979 . S
C5 H7 0.979 . S
C5 H8 0.979 . S
H6 C5 0.979 . S
H7 C5 0.979 . S
H8 C5 0.979 . S
C9 C2 1.504 . S
C9 H10 0.981 . S
C9 H11 0.980 . S
C9 H12 0.979 . S
H10 C9 0.981 . S
H11 C9 0.980 . S
H12 C9 0.979 . S
C13 C15 1.402 . S
C13 N16 1.356 . S
C13 C21 1.481 . S
C14 C15 1.400 . S
C14 N17 1.325 . S
C14 C25 1.503 . S
C15 C13 1.402 . S
C15 C14 1.400 . S
N16 C13 1.356 . S
N16 N17 1.365 . S
N16 Cu175 1.941 . S
N17 C14 1.325 . S
N17 N16 1.365 . S
N17 Cu172 1.924 . S
H18 C21 0.980 . S
H19 C21 0.980 . S
H20 C21 0.980 . S
C21 C13 1.481 . S
C21 H18 0.980 . S
C21 H19 0.980 . S
C21 H20 0.980 . S
H22 C25 0.978 . S
H23 C25 0.978 . S
H24 C25 0.983 . S
C25 C14 1.503 . S
C25 H22 0.978 . S
C25 H23 0.978 . S
C25 H24 0.983 . S
C26 H180 0.979 . S
C26 H181 0.981 . S
C26 H182 0.981 . S
C26 O216 1.438 . S
C27 H183 0.980 . S
C27 H184 0.979 . S
C27 H185 0.980 . S
C27 O217 1.533 . S
C28 N29 1.338 . S
C28 C31 1.388 . S
C28 C36 1.503 . S
N29 C28 1.338 . S
N29 N30 1.361 . S
N29 Cu170 1.924 . S
N30 N29 1.361 . S
N30 C32 1.348 . S
N30 Cu171 1.964 . S
C31 C28 1.388 . S
C31 C32 1.396 . S
C32 N30 1.348 . S
C32 C31 1.396 . S
C32 C40 1.504 . S
H33 C36 0.979 . S
H34 C36 0.979 . S
H35 C36 0.979 . S
C36 C28 1.503 . S
C36 H33 0.979 . S
C36 H34 0.979 . S
C36 H35 0.979 . S
H37 C40 0.981 . S
H38 C40 0.980 . S
H39 C40 0.979 . S
C40 C32 1.504 . S
C40 H37 0.981 . S
C40 H38 0.980 . S
C40 H39 0.979 . S
C41 N43 1.356 . S
C41 C45 1.402 . S
C41 C49 1.481 . S
C42 N44 1.325 . S
C42 C45 1.400 . S
C42 C50 1.503 . S
N43 C41 1.356 . S
N43 N44 1.365 . S
N43 Cu177 1.941 . S
N44 C42 1.325 . S
N44 N43 1.365 . S
N44 Cu168 1.924 . S
C45 C41 1.402 . S
C45 C42 1.400 . S
H46 C49 0.980 . S
H47 C49 0.980 . S
H48 C49 0.980 . S
C49 C41 1.481 . S
C49 H46 0.980 . S
C49 H47 0.980 . S
C49 H48 0.980 . S
C50 C42 1.503 . S
C50 H51 0.978 . S
C50 H52 0.978 . S
C50 H53 0.983 . S
H51 C50 0.978 . S
H52 C50 0.978 . S
H53 C50 0.983 . S
C54 H186 0.979 . S
C54 H187 0.981 . S
C54 H188 0.981 . S
C54 O218 1.438 . S
C55 H189 0.980 . S
C55 H190 0.979 . S
C55 H191 0.980 . S
C55 O219 1.533 . S
C56 N57 1.338 . S
C56 C58 1.388 . S
C56 C64 1.503 . S
N57 C56 1.338 . S
N57 N59 1.361 . S
N57 Cu172 1.924 . S
C58 C56 1.388 . S
C58 C60 1.396 . S
N59 N57 1.361 . S
N59 C60 1.348 . S
N59 Cu173 1.964 . S
C60 C58 1.396 . S
C60 N59 1.348 . S
C60 C66 1.504 . S
H61 C64 0.979 . S
H62 C64 0.979 . S
H63 C64 0.979 . S
C64 C56 1.503 . S
C64 H61 0.979 . S
C64 H62 0.979 . S
C64 H63 0.979 . S
H65 C66 0.981 . S
C66 C60 1.504 . S
C66 H65 0.981 . S
C66 H67 0.979 . S
C66 H68 0.980 . S
H67 C66 0.979 . S
H68 C66 0.980 . S
C69 N71 1.356 . S
C69 C73 1.402 . S
C69 C75 1.481 . S
C70 N72 1.325 . S
C70 C73 1.400 . S
C70 C80 1.503 . S
N71 C69 1.356 . S
N71 N72 1.365 . S
N71 Cu179 1.941 . S
N72 C70 1.325 . S
N72 N71 1.365 . S
N72 Cu170 1.924 . S
C73 C69 1.402 . S
C73 C70 1.400 . S
H74 C75 0.980 . S
C75 C69 1.481 . S
C75 H74 0.980 . S
C75 H76 0.980 . S
C75 H77 0.980 . S
H76 C75 0.980 . S
H77 C75 0.980 . S
H78 C80 0.978 . S
H79 C80 0.978 . S
C80 C70 1.503 . S
C80 H78 0.978 . S
C80 H79 0.978 . S
C80 H81 0.983 . S
H81 C80 0.983 . S
C82 H192 0.979 . S
C82 H193 0.981 . S
C82 H194 0.981 . S
C82 O220 1.438 . S
C83 H195 0.980 . S
C83 H196 0.979 . S
C83 H197 0.980 . S
C83 O221 1.533 . S
C84 N85 1.338 . S
C84 C86 1.388 . S
C84 C89 1.503 . S
N85 C84 1.338 . S
N85 N88 1.361 . S
N85 Cu174 1.924 . S
C86 C84 1.388 . S
C86 C87 1.396 . S
C87 C86 1.396 . S
C87 N88 1.348 . S
C87 C93 1.504 . S
N88 N85 1.361 . S
N88 C87 1.348 . S
N88 Cu175 1.964 . S
C89 C84 1.503 . S
C89 H90 0.979 . S
C89 H91 0.979 . S
C89 H92 0.979 . S
H90 C89 0.979 . S
H91 C89 0.979 . S
H92 C89 0.979 . S
C93 C87 1.504 . S
C93 H94 0.981 . S
C93 H95 0.980 . S
C93 H96 0.979 . S
H94 C93 0.981 . S
H95 C93 0.980 . S
H96 C93 0.979 . S
C97 C98 1.402 . S
C97 N100 1.356 . S
C97 C105 1.481 . S
C98 C97 1.402 . S
C98 C99 1.400 . S
C99 C98 1.400 . S
C99 N101 1.325 . S
C99 C106 1.503 . S
N100 C97 1.356 . S
N100 N101 1.365 . S
N100 Cu169 1.941 . S
N101 C99 1.325 . S
N101 N100 1.365 . S
N101 Cu178 1.924 . S
H102 C105 0.980 . S
H103 C105 0.980 . S
H104 C105 0.980 . S
C105 C97 1.481 . S
C105 H102 0.980 . S
C105 H103 0.980 . S
C105 H104 0.980 . S
C106 C99 1.503 . S
C106 H107 0.978 . S
C106 H108 0.978 . S
C106 H109 0.983 . S
H107 C106 0.978 . S
H108 C106 0.978 . S
H109 C106 0.983 . S
C110 H198 0.979 . S
C110 H199 0.981 . S
C110 H200 0.981 . S
C110 O222 1.438 . S
C111 H201 0.980 . S
C111 H202 0.979 . S
C111 H203 0.980 . S
C111 O223 1.533 . S
C112 C113 1.388 . S
C112 N115 1.338 . S
C112 C117 1.503 . S
C113 C112 1.388 . S
C113 C114 1.396 . S
C114 C113 1.396 . S
C114 N116 1.348 . S
C114 C121 1.504 . S
N115 C112 1.338 . S
N115 N116 1.361 . S
N115 Cu176 1.924 . S
N116 C114 1.348 . S
N116 N115 1.361 . S
N116 Cu177 1.964 . S
C117 C112 1.503 . S
C117 H118 0.979 . S
C117 H119 0.979 . S
C117 H120 0.979 . S
H118 C117 0.979 . S
H119 C117 0.979 . S
H120 C117 0.979 . S
C121 C114 1.504 . S
C121 H122 0.981 . S
C121 H123 0.980 . S
C121 H124 0.979 . S
H122 C121 0.981 . S
H123 C121 0.980 . S
H124 C121 0.979 . S
C125 C126 1.402 . S
C125 N128 1.356 . S
C125 C130 1.481 . S
C126 C125 1.402 . S
C126 C127 1.400 . S
C127 C126 1.400 . S
C127 N129 1.325 . S
C127 C134 1.503 . S
N128 C125 1.356 . S
N128 N129 1.365 . S
N128 Cu171 1.941 . S
N129 C127 1.325 . S
N129 N128 1.365 . S
N129 Cu174 1.924 . S
C130 C125 1.481 . S
C130 H131 0.980 . S
C130 H132 0.980 . S
C130 H133 0.980 . S
H131 C130 0.980 . S
H132 C130 0.980 . S
H133 C130 0.980 . S
C134 C127 1.503 . S
C134 H135 0.978 1_655 S
C134 H136 0.989 . S
C134 H137 0.983 . S
H135 C134 0.978 1_455 S
H136 C134 0.989 . S
H137 C134 0.983 . S
C138 H204 0.979 . S
C138 H205 0.981 . S
C138 H206 0.981 . S
C138 O224 1.438 . S
C139 H207 0.980 . S
C139 H208 0.979 . S
C139 H209 0.980 . S
C139 O225 1.533 . S
C140 N141 1.338 . S
C140 C143 1.388 . S
C140 C148 1.503 . S
N141 C140 1.338 . S
N141 N142 1.361 . S
N141 Cu178 1.924 . S
N142 N141 1.361 . S
N142 C144 1.348 . S
N142 Cu179 1.964 . S
C143 C140 1.388 . S
C143 C144 1.396 . S
C144 N142 1.348 . S
C144 C143 1.396 . S
C144 C152 1.504 . S
H145 C148 0.979 . S
H146 C148 0.979 . S
H147 C148 0.979 . S
C148 C140 1.503 . S
C148 H145 0.979 . S
C148 H146 0.979 . S
C148 H147 0.979 . S
H149 C152 0.981 . S
H150 C152 0.980 . S
H151 C152 0.979 . S
C152 C144 1.504 . S
C152 H149 0.981 . S
C152 H150 0.980 . S
C152 H151 0.979 . S
C153 N154 1.356 . S
C153 C156 1.402 . S
C153 C158 1.481 . S
N154 C153 1.356 . S
N154 N155 1.365 . S
N154 Cu173 1.941 . S
N155 N154 1.365 . S
N155 C157 1.325 . S
N155 Cu176 1.924 . S
C156 C153 1.402 . S
C156 C157 1.400 . S
C157 N155 1.325 . S
C157 C156 1.400 . S
C157 C162 1.503 . S
C158 C153 1.481 . S
C158 H159 0.980 . S
C158 H160 0.980 . S
C158 H161 0.980 . S
H159 C158 0.980 . S
H160 C158 0.980 . S
H161 C158 0.980 . S
C162 C157 1.503 . S
C162 H163 0.978 . S
C162 H164 0.978 . S
C162 H165 0.983 . S
H163 C162 0.978 . S
H164 C162 0.978 . S
H165 C162 0.983 . S
C166 H210 0.979 . S
C166 H211 0.981 . S
C166 H212 0.981 . S
C166 O226 1.438 . S
C167 H213 0.980 . S
C167 H214 0.979 . S
C167 H215 0.980 . S
C167 O227 1.533 . S
Cu168 N3 1.924 . S
Cu168 N44 1.924 . S
Cu168 O216 1.923 . S
Cu168 O217 1.930 . S
Cu169 N4 1.964 . S
Cu169 N100 1.941 . S
Cu169 O216 1.905 . S
Cu169 O227 1.920 . S
Cu170 N29 1.924 . S
Cu170 N72 1.924 . S
Cu170 O218 1.923 . S
Cu170 O219 1.930 . S
Cu171 N30 1.964 . S
Cu171 N128 1.941 . S
Cu171 O218 1.905 . S
Cu171 O223 1.920 . S
Cu172 N17 1.924 . S
Cu172 N57 1.924 . S
Cu172 O220 1.923 . S
Cu172 O221 1.930 . S
Cu173 N59 1.964 . S
Cu173 N154 1.941 . S
Cu173 O220 1.905 . S
Cu173 O225 1.920 . S
Cu174 N85 1.924 . S
Cu174 N129 1.924 . S
Cu174 O222 1.923 . S
Cu174 O223 1.930 . S
Cu175 N16 1.941 . S
Cu175 N88 1.964 . S
Cu175 O221 1.920 . S
Cu175 O222 1.905 . S
Cu176 N115 1.924 . S
Cu176 N155 1.924 . S
Cu176 O224 1.923 . S
Cu176 O225 1.930 . S
Cu177 N43 1.941 . S
Cu177 N116 1.964 . S
Cu177 O217 1.920 . S
Cu177 O224 1.905 . S
Cu178 N101 1.924 . S
Cu178 N141 1.924 . S
Cu178 O226 1.923 . S
Cu178 O227 1.930 . S
Cu179 N71 1.941 . S
Cu179 N142 1.964 . S
Cu179 O219 1.920 . S
Cu179 O226 1.905 . S
H180 C26 0.979 . S
H181 C26 0.981 . S
H182 C26 0.981 . S
H183 C27 0.980 . S
H184 C27 0.979 . S
H185 C27 0.980 . S
H186 C54 0.979 . S
H187 C54 0.981 . S
H188 C54 0.981 . S
H189 C55 0.980 . S
H190 C55 0.979 . S
H191 C55 0.980 . S
H192 C82 0.979 . S
H193 C82 0.981 . S
H194 C82 0.981 . S
H195 C83 0.980 . S
H196 C83 0.979 . S
H197 C83 0.980 . S
H198 C110 0.979 . S
H199 C110 0.981 . S
H200 C110 0.981 . S
H201 C111 0.980 . S
H202 C111 0.979 . S
H203 C111 0.980 . S
H204 C138 0.979 . S
H205 C138 0.981 . S
H206 C138 0.981 . S
H207 C139 0.980 . S
H208 C139 0.979 . S
H209 C139 0.980 . S
H210 C166 0.979 . S
H211 C166 0.981 . S
H212 C166 0.981 . S
H213 C167 0.980 . S
H214 C167 0.979 . S
H215 C167 0.980 . S
O216 C26 1.438 . S
O216 Cu168 1.923 . S
O216 Cu169 1.905 . S
O217 C27 1.533 . S
O217 Cu168 1.930 . S
O217 Cu177 1.920 . S
O218 C54 1.438 . S
O218 Cu170 1.923 . S
O218 Cu171 1.905 . S
O219 C55 1.533 . S
O219 Cu170 1.930 . S
O219 Cu179 1.920 . S
O220 C82 1.438 . S
O220 Cu172 1.923 . S
O220 Cu173 1.905 . S
O221 C83 1.533 . S
O221 Cu172 1.930 . S
O221 Cu175 1.920 . S
O222 C110 1.438 . S
O222 Cu174 1.923 . S
O222 Cu175 1.905 . S
O223 C111 1.533 . S
O223 Cu171 1.920 . S
O223 Cu174 1.930 . S
O224 C138 1.438 . S
O224 Cu176 1.923 . S
O224 Cu177 1.905 . S
O225 C139 1.533 . S
O225 Cu173 1.920 . S
O225 Cu176 1.930 . S
O226 C166 1.438 . S
O226 Cu178 1.923 . S
O226 Cu179 1.905 . S
O227 C167 1.533 . S
O227 Cu169 1.920 . S
O227 Cu178 1.930 . S
C228 C229 1.388 . S
C228 N231 1.338 . S
C228 C233 1.503 . S
C229 C228 1.388 . S
C229 C230 1.396 . S
C230 C229 1.396 . S
C230 N232 1.348 . S
C230 C237 1.504 . S
N231 C228 1.338 . S
N231 N232 1.361 . S
N231 Cu396 1.924 . S
N232 C230 1.348 . S
N232 N231 1.361 . S
N232 Cu397 1.964 . S
C233 C228 1.503 . S
C233 H234 0.979 . S
C233 H235 0.979 . S
C233 H236 0.979 . S
H234 C233 0.979 . S
H235 C233 0.979 . S
H236 C233 0.979 . S
C237 C230 1.504 . S
C237 H238 0.981 . S
C237 H239 0.980 . S
C237 H240 0.979 . S
H238 C237 0.981 . S
H239 C237 0.980 . S
H240 C237 0.979 . S
C241 C243 1.402 . S
C241 N244 1.356 . S
C241 C249 1.481 . S
C242 C243 1.400 . S
C242 N245 1.325 . S
C242 C253 1.503 . S
C243 C241 1.402 . S
C243 C242 1.400 . S
N244 C241 1.356 . S
N244 N245 1.365 . S
N244 Cu403 1.941 . S
N245 C242 1.325 . S
N245 N244 1.365 . S
N245 Cu400 1.924 . S
H246 C249 0.980 . S
H247 C249 0.980 . S
H248 C249 0.980 . S
C249 C241 1.481 . S
C249 H246 0.980 . S
C249 H247 0.980 . S
C249 H248 0.980 . S
H250 C253 0.978 . S
H251 C253 0.978 . S
H252 C253 0.983 . S
C253 C242 1.503 . S
C253 H250 0.978 . S
C253 H251 0.978 . S
C253 H252 0.983 . S
C254 H408 0.979 . S
C254 H409 0.981 . S
C254 H410 0.981 . S
C254 O444 1.438 . S
C255 H411 0.980 . S
C255 H412 0.979 . S
C255 H413 0.980 . S
C255 O445 1.533 . S
C256 N257 1.338 . S
C256 C259 1.388 . S
C256 C264 1.503 . S
N257 C256 1.338 . S
N257 N258 1.361 . S
N257 Cu398 1.924 . S
N258 N257 1.361 . S
N258 C260 1.348 . S
N258 Cu399 1.964 . S
C259 C256 1.388 . S
C259 C260 1.396 . S
C260 N258 1.348 . S
C260 C259 1.396 . S
C260 C268 1.504 . S
H261 C264 0.979 . S
H262 C264 0.979 . S
H263 C264 0.979 . S
C264 C256 1.503 . S
C264 H261 0.979 . S
C264 H262 0.979 . S
C264 H263 0.979 . S
H265 C268 0.981 . S
H266 C268 0.980 . S
H267 C268 0.979 . S
C268 C260 1.504 . S
C268 H265 0.981 . S
C268 H266 0.980 . S
C268 H267 0.979 . S
C269 N271 1.356 . S
C269 C273 1.402 . S
C269 C277 1.481 . S
C270 N272 1.325 . S
C270 C273 1.400 . S
C270 C278 1.503 . S
N271 C269 1.356 . S
N271 N272 1.365 . S
N271 Cu405 1.941 . S
N272 C270 1.325 . S
N272 N271 1.365 . S
N272 Cu396 1.924 . S
C273 C269 1.402 . S
C273 C270 1.400 . S
H274 C277 0.980 . S
H275 C277 0.980 . S
H276 C277 0.980 . S
C277 C269 1.481 . S
C277 H274 0.980 . S
C277 H275 0.980 . S
C277 H276 0.980 . S
C278 C270 1.503 . S
C278 H279 0.978 1_455 S
C278 H280 0.989 . S
C278 H281 0.983 . S
H279 C278 0.978 1_655 S
H280 C278 0.989 . S
H281 C278 0.983 . S
C282 H414 0.979 . S
C282 H415 0.981 . S
C282 H416 0.981 . S
C282 O446 1.438 . S
C283 H417 0.980 . S
C283 H418 0.979 . S
C283 H419 0.980 . S
C283 O447 1.533 . S
C284 N285 1.338 . S
C284 C286 1.388 . S
C284 C292 1.503 . S
N285 C284 1.338 . S
N285 N287 1.361 . S
N285 Cu400 1.924 . S
C286 C284 1.388 . S
C286 C288 1.396 . S
N287 N285 1.361 . S
N287 C288 1.348 . S
N287 Cu401 1.964 . S
C288 C286 1.396 . S
C288 N287 1.348 . S
C288 C294 1.504 . S
H289 C292 0.979 . S
H290 C292 0.979 . S
H291 C292 0.979 . S
C292 C284 1.503 . S
C292 H289 0.979 . S
C292 H290 0.979 . S
C292 H291 0.979 . S
H293 C294 0.981 . S
C294 C288 1.504 . S
C294 H293 0.981 . S
C294 H295 0.979 . S
C294 H296 0.980 . S
H295 C294 0.979 . S
H296 C294 0.980 . S
C297 N299 1.356 . S
C297 C301 1.402 . S
C297 C303 1.481 . S
C298 N300 1.325 . S
C298 C301 1.400 . S
C298 C308 1.503 . S
N299 C297 1.356 . S
N299 N300 1.365 . S
N299 Cu407 1.941 . S
N300 C298 1.325 . S
N300 N299 1.365 . S
N300 Cu398 1.924 . S
C301 C297 1.402 . S
C301 C298 1.400 . S
H302 C303 0.980 . S
C303 C297 1.481 . S
C303 H302 0.980 . S
C303 H304 0.980 . S
C303 H305 0.980 . S
H304 C303 0.980 . S
H305 C303 0.980 . S
H306 C308 0.978 . S
H307 C308 0.978 . S
C308 C298 1.503 . S
C308 H306 0.978 . S
C308 H307 0.978 . S
C308 H309 0.983 . S
H309 C308 0.983 . S
C310 H420 0.979 . S
C310 H421 0.981 . S
C310 H422 0.981 . S
C310 O448 1.438 . S
C311 H423 0.980 . S
C311 H424 0.979 . S
C311 H425 0.980 . S
C311 O449 1.533 . S
C312 N313 1.338 . S
C312 C314 1.388 . S
C312 C317 1.503 . S
N313 C312 1.338 . S
N313 N316 1.361 . S
N313 Cu402 1.924 . S
C314 C312 1.388 . S
C314 C315 1.396 . S
C315 C314 1.396 . S
C315 N316 1.348 . S
C315 C321 1.504 . S
N316 N313 1.361 . S
N316 C315 1.348 . S
N316 Cu403 1.964 . S
C317 C312 1.503 . S
C317 H318 0.979 . S
C317 H319 0.979 . S
C317 H320 0.979 . S
H318 C317 0.979 . S
H319 C317 0.979 . S
H320 C317 0.979 . S
C321 C315 1.504 . S
C321 H322 0.981 . S
C321 H323 0.980 . S
C321 H324 0.979 . S
H322 C321 0.981 . S
H323 C321 0.980 . S
H324 C321 0.979 . S
C325 C326 1.402 . S
C325 N328 1.356 . S
C325 C333 1.481 . S
C326 C325 1.402 . S
C326 C327 1.400 . S
C327 C326 1.400 . S
C327 N329 1.325 . S
C327 C334 1.503 . S
N328 C325 1.356 . S
N328 N329 1.365 . S
N328 Cu397 1.941 . S
N329 C327 1.325 . S
N329 N328 1.365 . S
N329 Cu406 1.924 . S
H330 C333 0.980 . S
H331 C333 0.980 . S
H332 C333 0.980 . S
C333 C325 1.481 . S
C333 H330 0.980 . S
C333 H331 0.980 . S
C333 H332 0.980 . S
C334 C327 1.503 . S
C334 H335 0.978 . S
C334 H336 0.978 . S
C334 H337 0.983 . S
H335 C334 0.978 . S
H336 C334 0.978 . S
H337 C334 0.983 . S
C338 H426 0.979 . S
C338 H427 0.981 . S
C338 H428 0.981 . S
C338 O450 1.438 . S
C339 H429 0.980 . S
C339 H430 0.979 . S
C339 H431 0.980 . S
C339 O451 1.533 . S
C340 C341 1.388 . S
C340 N343 1.338 . S
C340 C345 1.503 . S
C341 C340 1.388 . S
C341 C342 1.396 . S
C342 C341 1.396 . S
C342 N344 1.348 . S
C342 C349 1.504 . S
N343 C340 1.338 . S
N343 N344 1.361 . S
N343 Cu404 1.924 . S
N344 C342 1.348 . S
N344 N343 1.361 . S
N344 Cu405 1.964 . S
C345 C340 1.503 . S
C345 H346 0.979 . S
C345 H347 0.979 . S
C345 H348 0.979 . S
H346 C345 0.979 . S
H347 C345 0.979 . S
H348 C345 0.979 . S
C349 C342 1.504 . S
C349 H350 0.981 . S
C349 H351 0.980 . S
C349 H352 0.979 . S
H350 C349 0.981 . S
H351 C349 0.980 . S
H352 C349 0.979 . S
C353 C354 1.402 . S
C353 N356 1.356 . S
C353 C358 1.481 . S
C354 C353 1.402 . S
C354 C355 1.400 . S
C355 C354 1.400 . S
C355 N357 1.325 . S
C355 C362 1.503 . S
N356 C353 1.356 . S
N356 N357 1.365 . S
N356 Cu399 1.941 . S
N357 C355 1.325 . S
N357 N356 1.365 . S
N357 Cu402 1.924 . S
C358 C353 1.481 . S
C358 H359 0.980 . S
C358 H360 0.980 . S
C358 H361 0.980 . S
H359 C358 0.980 . S
H360 C358 0.980 . S
H361 C358 0.980 . S
C362 C355 1.503 . S
C362 H363 0.978 . S
C362 H364 0.978 . S
C362 H365 0.983 . S
H363 C362 0.978 . S
H364 C362 0.978 . S
H365 C362 0.983 . S
C366 H432 0.979 . S
C366 H433 0.981 . S
C366 H434 0.981 . S
C366 O452 1.438 . S
C367 H435 0.980 . S
C367 H436 0.979 . S
C367 H437 0.980 . S
C367 O453 1.533 . S
C368 N369 1.338 . S
C368 C371 1.388 . S
C368 C376 1.503 . S
N369 C368 1.338 . S
N369 N370 1.361 . S
N369 Cu406 1.924 . S
N370 N369 1.361 . S
N370 C372 1.348 . S
N370 Cu407 1.964 . S
C371 C368 1.388 . S
C371 C372 1.396 . S
C372 N370 1.348 . S
C372 C371 1.396 . S
C372 C380 1.504 . S
H373 C376 0.979 . S
H374 C376 0.979 . S
H375 C376 0.979 . S
C376 C368 1.503 . S
C376 H373 0.979 . S
C376 H374 0.979 . S
C376 H375 0.979 . S
H377 C380 0.981 . S
H378 C380 0.980 . S
H379 C380 0.979 . S
C380 C372 1.504 . S
C380 H377 0.981 . S
C380 H378 0.980 . S
C380 H379 0.979 . S
C381 N382 1.356 . S
C381 C384 1.402 . S
C381 C386 1.481 . S
N382 C381 1.356 . S
N382 N383 1.365 . S
N382 Cu401 1.941 . S
N383 N382 1.365 . S
N383 C385 1.325 . S
N383 Cu404 1.924 . S
C384 C381 1.402 . S
C384 C385 1.400 . S
C385 N383 1.325 . S
C385 C384 1.400 . S
C385 C390 1.503 . S
C386 C381 1.481 . S
C386 H387 0.980 . S
C386 H388 0.980 . S
C386 H389 0.980 . S
H387 C386 0.980 . S
H388 C386 0.980 . S
H389 C386 0.980 . S
C390 C385 1.503 . S
C390 H391 0.978 . S
C390 H392 0.978 . S
C390 H393 0.983 . S
H391 C390 0.978 . S
H392 C390 0.978 . S
H393 C390 0.983 . S
C394 H438 0.979 . S
C394 H439 0.981 . S
C394 H440 0.981 . S
C394 O454 1.438 . S
C395 H441 0.980 . S
C395 H442 0.979 . S
C395 H443 0.980 . S
C395 O455 1.533 . S
Cu396 N231 1.924 . S
Cu396 N272 1.924 . S
Cu396 O444 1.923 . S
Cu396 O445 1.930 . S
Cu397 N232 1.964 . S
Cu397 N328 1.941 . S
Cu397 O444 1.905 . S
Cu397 O455 1.920 . S
Cu398 N257 1.924 . S
Cu398 N300 1.924 . S
Cu398 O446 1.923 . S
Cu398 O447 1.930 . S
Cu399 N258 1.964 . S
Cu399 N356 1.941 . S
Cu399 O446 1.905 . S
Cu399 O451 1.920 . S
Cu400 N245 1.924 . S
Cu400 N285 1.924 . S
Cu400 O448 1.923 . S
Cu400 O449 1.930 . S
Cu401 N287 1.964 . S
Cu401 N382 1.941 . S
Cu401 O448 1.905 . S
Cu401 O453 1.920 . S
Cu402 N313 1.924 . S
Cu402 N357 1.924 . S
Cu402 O450 1.923 . S
Cu402 O451 1.930 . S
Cu403 N244 1.941 . S
Cu403 N316 1.964 . S
Cu403 O449 1.920 . S
Cu403 O450 1.905 . S
Cu404 N343 1.924 . S
Cu404 N383 1.924 . S
Cu404 O452 1.923 . S
Cu404 O453 1.930 . S
Cu405 N271 1.941 . S
Cu405 N344 1.964 . S
Cu405 O445 1.920 . S
Cu405 O452 1.905 . S
Cu406 N329 1.924 . S
Cu406 N369 1.924 . S
Cu406 O454 1.923 . S
Cu406 O455 1.930 . S
Cu407 N299 1.941 . S
Cu407 N370 1.964 . S
Cu407 O447 1.920 . S
Cu407 O454 1.905 . S
H408 C254 0.979 . S
H409 C254 0.981 . S
H410 C254 0.981 . S
H411 C255 0.980 . S
H412 C255 0.979 . S
H413 C255 0.980 . S
H414 C282 0.979 . S
H415 C282 0.981 . S
H416 C282 0.981 . S
H417 C283 0.980 . S
H418 C283 0.979 . S
H419 C283 0.980 . S
H420 C310 0.979 . S
H421 C310 0.981 . S
H422 C310 0.981 . S
H423 C311 0.980 . S
H424 C311 0.979 . S
H425 C311 0.980 . S
H426 C338 0.979 . S
H427 C338 0.981 . S
H428 C338 0.981 . S
H429 C339 0.980 . S
H430 C339 0.979 . S
H431 C339 0.980 . S
H432 C366 0.979 . S
H433 C366 0.981 . S
H434 C366 0.981 . S
H435 C367 0.980 . S
H436 C367 0.979 . S
H437 C367 0.980 . S
H438 C394 0.979 . S
H439 C394 0.981 . S
H440 C394 0.981 . S
H441 C395 0.980 . S
H442 C395 0.979 . S
H443 C395 0.980 . S
O444 C254 1.438 . S
O444 Cu396 1.923 . S
O444 Cu397 1.905 . S
O445 C255 1.533 . S
O445 Cu396 1.930 . S
O445 Cu405 1.920 . S
O446 C282 1.438 . S
O446 Cu398 1.923 . S
O446 Cu399 1.905 . S
O447 C283 1.533 . S
O447 Cu398 1.930 . S
O447 Cu407 1.920 . S
O448 C310 1.438 . S
O448 Cu400 1.923 . S
O448 Cu401 1.905 . S
O449 C311 1.533 . S
O449 Cu400 1.930 . S
O449 Cu403 1.920 . S
O450 C338 1.438 . S
O450 Cu402 1.923 . S
O450 Cu403 1.905 . S
O451 C339 1.533 . S
O451 Cu399 1.920 . S
O451 Cu402 1.930 . S
O452 C366 1.438 . S
O452 Cu404 1.923 . S
O452 Cu405 1.905 . S
O453 C367 1.533 . S
O453 Cu401 1.920 . S
O453 Cu404 1.930 . S
O454 C394 1.438 . S
O454 Cu406 1.923 . S
O454 Cu407 1.905 . S
O455 C395 1.533 . S
O455 Cu397 1.920 . S
O455 Cu406 1.930 . S
C456 C457 1.349 . S
C456 C458 1.327 . S
C456 H481 0.950 . S
C457 C456 1.349 . S
C457 C473 1.349 . S
C458 C456 1.327 . S
C458 C477 1.429 . S
C458 H482 0.950 . S
C459 C476 1.574 1_556 S
C459 C478 1.368 1_545 S
C459 H483 0.949 . S
H460 C464 0.949 . S
C461 C462 1.349 . S
C461 C463 1.327 . S
C461 H484 0.950 . S
C462 C461 1.349 . S
C462 C474 1.349 . S
C463 C461 1.327 . S
C463 C479 1.429 . S
C463 H485 0.950 . S
C464 H460 0.949 . S
C464 C472 1.574 1_554 S
C464 C480 1.368 1_565 S
H465 C473 0.950 . S
H466 C471 0.950 . S
H467 C472 0.949 . S
H468 C474 0.950 . S
H469 C475 0.950 . S
H470 C476 0.949 . S
C471 H466 0.950 . S
C471 C473 1.327 . S
C471 C477 1.429 . S
C472 C464 1.574 1_556 S
C472 H467 0.949 . S
C472 C478 1.368 . S
C473 C457 1.349 . S
C473 H465 0.950 . S
C473 C471 1.327 . S
C474 C462 1.349 . S
C474 H468 0.950 . S
C474 C475 1.327 . S
C475 H469 0.950 . S
C475 C474 1.327 . S
C475 C479 1.429 . S
C476 C459 1.574 1_554 S
C476 H470 0.949 . S
C476 C480 1.368 . S
C477 C458 1.429 . S
C477 C471 1.429 . S
C477 C478 1.523 . S
C478 C459 1.368 1_565 S
C478 C472 1.368 . S
C478 C477 1.523 . S
C479 C463 1.429 . S
C479 C475 1.429 . S
C479 C480 1.523 . S
C480 C464 1.368 1_545 S
C480 C476 1.368 . S
C480 C479 1.523 . S
H481 C456 0.950 . S
H482 C458 0.950 . S
H483 C459 0.949 . S
H484 C461 0.950 . S
H485 C463 0.950 . S
C486 C487 1.349 . S
C486 C488 1.327 . S
C486 H511 0.950 . S
C487 C486 1.349 . S
C487 C503 1.349 . S
C488 C486 1.327 . S
C488 C507 1.429 . S
C488 H512 0.950 . S
C489 C506 1.574 . S
C489 C508 1.368 . S
C489 H513 0.949 . S
H490 C494 0.949 . S
C491 C492 1.349 . S
C491 C493 1.327 . S
C491 H514 0.950 . S
C492 C491 1.349 . S
C492 C504 1.349 . S
C493 C491 1.327 . S
C493 C509 1.429 . S
C493 H515 0.950 . S
C494 H490 0.949 . S
C494 C502 1.574 . S
C494 C510 1.368 . S
H495 C503 0.950 . S
H496 C501 0.950 . S
H497 C502 0.949 . S
H498 C504 0.950 . S
H499 C505 0.950 . S
H500 C506 0.949 . S
C501 H496 0.950 . S
C501 C503 1.327 . S
C501 C507 1.429 . S
C502 C494 1.574 . S
C502 H497 0.949 . S
C502 C508 1.368 . S
C503 C487 1.349 . S
C503 H495 0.950 . S
C503 C501 1.327 . S
C504 C492 1.349 . S
C504 H498 0.950 . S
C504 C505 1.327 . S
C505 H499 0.950 . S
C505 C504 1.327 . S
C505 C509 1.429 . S
C506 C489 1.574 . S
C506 H500 0.949 . S
C506 C510 1.368 . S
C507 C488 1.429 . S
C507 C501 1.429 . S
C507 C508 1.523 . S
C508 C489 1.368 . S
C508 C502 1.368 . S
C508 C507 1.523 . S
C509 C493 1.429 . S
C509 C505 1.429 . S
C509 C510 1.523 . S
C510 C494 1.368 . S
C510 C506 1.368 . S
C510 C509 1.523 . S
H511 C486 0.950 . S
H512 C488 0.950 . S
H513 C489 0.949 . S
H514 C491 0.950 . S
H515 C493 0.950 . S
C516 C517 1.349 . S
C516 C518 1.327 . S
C516 H541 0.950 . S
C517 C516 1.349 . S
C517 C533 1.349 . S
C518 C516 1.327 . S
C518 C537 1.429 . S
C518 H542 0.950 . S
C519 C536 1.574 1_554 S
C519 C538 1.368 1_455 S
C519 H543 0.949 . S
H520 C524 0.949 . S
C521 C522 1.349 . S
C521 C523 1.327 . S
C521 H544 0.950 . S
C522 C521 1.349 . S
C522 C534 1.349 . S
C523 C521 1.327 . S
C523 C539 1.429 . S
C523 H545 0.950 . S
C524 H520 0.949 . S
C524 C532 1.574 1_556 S
C524 C540 1.368 1_655 S
H525 C533 0.950 . S
H526 C531 0.950 1_455 S
H527 C532 0.949 . S
H528 C534 0.950 . S
H529 C535 0.950 1_655 S
H530 C536 0.949 . S
C531 H526 0.950 1_655 S
C531 C533 1.327 . S
C531 C537 1.429 . S
C532 C524 1.574 1_554 S
C532 H527 0.949 . S
C532 C538 1.368 . S
C533 C517 1.349 . S
C533 H525 0.950 . S
C533 C531 1.327 . S
C534 C522 1.349 . S
C534 H528 0.950 . S
C534 C535 1.327 . S
C535 H529 0.950 1_455 S
C535 C534 1.327 . S
C535 C539 1.429 . S
C536 C519 1.574 1_556 S
C536 H530 0.949 . S
C536 C540 1.368 . S
C537 C518 1.429 . S
C537 C531 1.429 . S
C537 C538 1.523 . S
C538 C519 1.368 1_655 S
C538 C532 1.368 . S
C538 C537 1.523 . S
C539 C523 1.429 . S
C539 C535 1.429 . S
C539 C540 1.523 . S
C540 C524 1.368 1_455 S
C540 C536 1.368 . S
C540 C539 1.523 . S
H541 C516 0.950 . S
H542 C518 0.950 . S
H543 C519 0.949 . S
H544 C521 0.950 . S
H545 C523 0.950 . S
C546 C547 1.349 . S
C546 C548 1.322 1_565 S
C546 H571 0.950 1_565 S
C547 C546 1.349 . S
C547 C563 1.349 . S
C548 C546 1.322 1_545 S
C548 C567 1.428 1_545 S
C548 H572 0.955 . S
C549 C566 1.574 . S
C549 C568 1.368 . S
C549 H573 0.949 . S
H550 C554 0.949 . S
C551 C552 1.349 . S
C551 C553 1.322 1_545 S
C551 H574 0.950 1_545 S
C552 C551 1.349 . S
C552 C564 1.349 . S
C553 C551 1.322 1_565 S
C553 C569 1.428 1_565 S
C553 H575 0.955 . S
C554 H550 0.949 . S
C554 C562 1.574 . S
C554 C570 1.368 . S
H555 C563 0.950 . S
H556 C561 0.950 . S
H557 C562 0.949 . S
H558 C564 0.950 . S
H559 C565 0.950 . S
H560 C566 0.949 . S
C561 H556 0.950 . S
C561 C563 1.327 . S
C561 C567 1.429 . S
C562 C554 1.574 . S
C562 H557 0.949 . S
C562 C568 1.368 1_545 S
C563 C547 1.349 . S
C563 H555 0.950 . S
C563 C561 1.327 . S
C564 C552 1.349 . S
C564 H558 0.950 . S
C564 C565 1.327 . S
C565 H559 0.950 . S
C565 C564 1.327 . S
C565 C569 1.429 . S
C566 C549 1.574 . S
C566 H560 0.949 . S
C566 C570 1.368 1_565 S
C567 C548 1.428 1_565 S
C567 C561 1.429 . S
C567 C568 1.523 . S
C568 C549 1.368 . S
C568 C562 1.368 1_565 S
C568 C567 1.523 . S
C569 C553 1.428 1_545 S
C569 C565 1.429 . S
C569 C570 1.523 . S
C570 C554 1.368 . S
C570 C566 1.368 1_545 S
C570 C569 1.523 . S
H571 C546 0.950 1_545 S
H572 C548 0.955 . S
H573 C549 0.949 . S
H574 C551 0.950 1_565 S
H575 C553 0.955 . S
C576 C577 1.349 . S
C576 C578 1.327 . S
C576 H601 0.950 . S
C577 C576 1.349 . S
C577 C593 1.349 . S
C578 C576 1.327 . S
C578 C597 1.429 . S
C578 H602 0.950 . S
C579 C596 1.574 1_554 S
C579 C598 1.368 . S
C579 H603 0.949 . S
H580 C584 0.949 . S
C581 C582 1.349 . S
C581 C583 1.327 . S
C581 H604 0.950 . S
C582 C581 1.349 . S
C582 C594 1.349 . S
C583 C581 1.327 . S
C583 C599 1.429 . S
C583 H605 0.950 . S
C584 H580 0.949 . S
C584 C592 1.574 1_556 S
C584 C600 1.368 . S
H585 C593 0.950 . S
H586 C591 0.950 . S
H587 C592 0.949 . S
H588 C594 0.950 . S
H589 C595 0.950 . S
H590 C596 0.949 . S
C591 H586 0.950 . S
C591 C593 1.327 . S
C591 C597 1.429 . S
C592 C584 1.574 1_554 S
C592 H587 0.949 . S
C592 C598 1.368 . S
C593 C577 1.349 . S
C593 H585 0.950 . S
C593 C591 1.327 . S
C594 C582 1.349 . S
C594 H588 0.950 . S
C594 C595 1.327 . S
C595 H589 0.950 . S
C595 C594 1.327 . S
C595 C599 1.429 . S
C596 C579 1.574 1_556 S
C596 H590 0.949 . S
C596 C600 1.368 . S
C597 C578 1.429 . S
C597 C591 1.429 . S
C597 C598 1.523 . S
C598 C579 1.368 . S
C598 C592 1.368 . S
C598 C597 1.523 . S
C599 C583 1.429 . S
C599 C595 1.429 . S
C599 C600 1.523 . S
C600 C584 1.368 . S
C600 C596 1.368 . S
C600 C599 1.523 . S
H601 C576 0.950 . S
H602 C578 0.950 . S
H603 C579 0.949 . S
H604 C581 0.950 . S
H605 C583 0.950 . S
C606 C607 1.349 . S
C606 C608 1.327 . S
C606 H631 0.950 . S
C607 C606 1.349 . S
C607 C623 1.349 . S
C608 C606 1.327 . S
C608 C627 1.429 . S
C608 H632 0.950 . S
C609 C626 1.574 1_655 S
C609 C628 1.368 . S
C609 H633 0.949 . S
H610 C614 0.949 . S
C611 C612 1.349 . S
C611 C613 1.327 . S
C611 H634 0.950 . S
C612 C611 1.349 . S
C612 C624 1.349 . S
C613 C611 1.327 . S
C613 C629 1.429 . S
C613 H635 0.950 . S
C614 H610 0.949 . S
C614 C622 1.574 1_455 S
C614 C630 1.368 . S
H615 C623 0.950 . S
H616 C621 0.950 . S
H617 C622 0.949 . S
H618 C624 0.950 . S
H619 C625 0.950 . S
H620 C626 0.949 . S
C621 H616 0.950 . S
C621 C623 1.327 . S
C621 C627 1.429 . S
C622 C614 1.574 1_655 S
C622 H617 0.949 . S
C622 C628 1.368 . S
C623 C607 1.349 . S
C623 H615 0.950 . S
C623 C621 1.327 . S
C624 C612 1.349 . S
C624 H618 0.950 . S
C624 C625 1.327 . S
C625 H619 0.950 . S
C625 C624 1.327 . S
C625 C629 1.429 . S
C626 C609 1.574 1_455 S
C626 H620 0.949 . S
C626 C630 1.368 . S
C627 C608 1.429 . S
C627 C621 1.429 . S
C627 C628 1.523 . S
C628 C609 1.368 . S
C628 C622 1.368 . S
C628 C627 1.523 . S
C629 C613 1.429 . S
C629 C625 1.429 . S
C629 C630 1.523 . S
C630 C614 1.368 . S
C630 C626 1.368 . S
C630 C629 1.523 . S
H631 C606 0.950 . S
H632 C608 0.950 . S
H633 C609 0.949 . S
H634 C611 0.950 . S
H635 C613 0.950 . S
C636 C637 1.349 . S
C636 C638 1.327 1_545 S
C636 H661 0.950 . S
C637 C636 1.349 . S
C637 C653 1.349 . S
C638 C636 1.327 1_565 S
C638 C657 1.429 . S
C638 H662 0.950 . S
C639 C656 1.574 . S
C639 C658 1.368 . S
C639 H663 0.949 . S
H640 C644 0.949 . S
C641 C642 1.349 . S
C641 C643 1.327 . S
C641 H664 0.950 . S
C642 C641 1.349 . S
C642 C654 1.349 . S
C643 C641 1.327 . S
C643 C659 1.429 . S
C643 H665 0.950 . S
C644 H640 0.949 . S
C644 C652 1.574 . S
C644 C660 1.368 . S
H645 C653 0.950 . S
H646 C651 0.950 . S
H647 C652 0.949 . S
H648 C654 0.950 . S
H649 C655 0.950 . S
H650 C656 0.949 . S
C651 H646 0.950 . S
C651 C653 1.327 1_565 S
C651 C657 1.429 . S
C652 C644 1.574 . S
C652 H647 0.949 . S
C652 C658 1.368 . S
C653 C637 1.349 . S
C653 H645 0.950 . S
C653 C651 1.327 1_545 S
C654 C642 1.349 . S
C654 H648 0.950 . S
C654 C655 1.327 . S
C655 H649 0.950 . S
C655 C654 1.327 . S
C655 C659 1.429 . S
C656 C639 1.574 . S
C656 H650 0.949 . S
C656 C660 1.368 . S
C657 C638 1.429 . S
C657 C651 1.429 . S
C657 C658 1.523 . S
C658 C639 1.368 . S
C658 C652 1.368 . S
C658 C657 1.523 . S
C659 C643 1.429 . S
C659 C655 1.429 . S
C659 C660 1.523 . S
C660 C644 1.368 . S
C660 C656 1.368 . S
C660 C659 1.523 . S
H661 C636 0.950 . S
H662 C638 0.950 . S
H663 C639 0.949 . S
H664 C641 0.950 . S
H665 C643 0.950 . S
C666 C667 1.349 . S
C666 C668 1.327 1_455 S
C666 H691 0.950 . S
C667 C666 1.349 . S
C667 C683 1.349 1_455 S
C668 C666 1.327 1_655 S
C668 C687 1.429 . S
C668 H692 0.950 . S
C669 C686 1.574 . S
C669 C688 1.368 . S
C669 H693 0.949 . S
H670 C674 0.949 . S
C671 C672 1.349 . S
C671 C673 1.327 . S
C671 H694 0.950 . S
C672 C671 1.349 . S
C672 C684 1.349 . S
C673 C671 1.327 . S
C673 C689 1.429 . S
C673 H695 0.950 . S
C674 H670 0.949 . S
C674 C682 1.574 . S
C674 C690 1.368 . S
H675 C683 0.936 1_455 S
H676 C681 0.950 . S
H677 C682 0.949 . S
H678 C684 0.950 . S
H679 C685 0.950 . S
H680 C686 0.949 . S
C681 H676 0.950 . S
C681 C683 1.327 . S
C681 C687 1.429 . S
C682 C674 1.574 . S
C682 H677 0.949 . S
C682 C688 1.368 . S
C683 C667 1.349 1_655 S
C683 H675 0.936 1_655 S
C683 C681 1.327 . S
C684 C672 1.349 . S
C684 H678 0.950 . S
C684 C685 1.327 . S
C685 H679 0.950 . S
C685 C684 1.327 . S
C685 C689 1.429 . S
C686 C669 1.574 . S
C686 H680 0.949 . S
C686 C690 1.368 . S
C687 C668 1.429 . S
C687 C681 1.429 . S
C687 C688 1.523 . S
C688 C669 1.368 . S
C688 C682 1.368 . S
C688 C687 1.523 . S
C689 C673 1.429 . S
C689 C685 1.429 . S
C689 C690 1.523 . S
C690 C674 1.368 . S
C690 C686 1.368 . S
C690 C689 1.523 . S
H691 C666 0.950 . S
H692 C668 0.950 . S
H693 C669 0.949 . S
H694 C671 0.950 . S
H695 C673 0.950 . S
C696 C697 1.349 1_565 S
C696 C698 1.327 . S
C696 H721 0.950 . S
C697 C696 1.349 1_545 S
C697 C713 1.349 . S
C698 C696 1.327 . S
C698 C717 1.429 . S
C698 H722 0.950 . S
C699 C716 1.574 . S
C699 C718 1.368 . S
C699 H723 0.949 . S
H700 C704 0.949 . S
C701 C702 1.349 . S
C701 C703 1.327 1_655 S
C701 H724 0.950 . S
C702 C701 1.349 . S
C702 C714 1.349 . S
C703 C701 1.327 1_455 S
C703 C719 1.429 . S
C703 H725 0.950 . S
C704 H700 0.949 . S
C704 C712 1.574 . S
C704 C720 1.368 . S
H705 C713 0.950 . S
H706 C711 0.950 . S
H707 C712 0.949 . S
H708 C714 0.950 . S
H709 C715 0.950 . S
H710 C716 0.949 . S
C711 H706 0.950 . S
C711 C713 1.327 1_565 S
C711 C717 1.429 . S
C712 C704 1.574 . S
C712 H707 0.949 . S
C712 C718 1.368 . S
C713 C697 1.349 . S
C713 H705 0.950 . S
C713 C711 1.327 1_545 S
C714 C702 1.349 . S
C714 H708 0.950 . S
C714 C715 1.327 1_655 S
C715 H709 0.950 . S
C715 C714 1.327 1_455 S
C715 C719 1.429 . S
C716 C699 1.574 . S
C716 H710 0.949 . S
C716 C720 1.368 . S
C717 C698 1.429 . S
C717 C711 1.429 . S
C717 C718 1.523 . S
C718 C699 1.368 . S
C718 C712 1.368 . S
C718 C717 1.523 . S
C719 C703 1.429 . S
C719 C715 1.429 . S
C719 C720 1.523 . S
C720 C704 1.368 . S
C720 C716 1.368 . S
C720 C719 1.523 . S
H721 C696 0.950 . S
H722 C698 0.950 . S
H723 C699 0.949 . S
H724 C701 0.950 . S
H725 C703 0.950 . S
C726 C727 1.349 . S
C726 C728 1.327 . S
C726 H751 0.950 . S
C727 C726 1.349 . S
C727 C743 1.349 . S
C728 C726 1.327 . S
C728 C747 1.429 . S
C728 H752 0.950 . S
C729 C746 1.574 . S
C729 C748 1.368 . S
C729 H753 0.949 . S
H730 C734 0.949 . S
C731 C732 1.349 . S
C731 C733 1.327 1_565 S
C731 H754 0.950 . S
C732 C731 1.349 . S
C732 C744 1.349 . S
C733 C731 1.327 1_545 S
C733 C749 1.429 . S
C733 H755 0.950 . S
C734 H730 0.949 . S
C734 C742 1.574 . S
C734 C750 1.368 . S
H735 C743 0.950 . S
H736 C741 0.950 . S
H737 C742 0.949 . S
H738 C744 0.950 . S
H739 C745 0.950 . S
H740 C746 0.949 . S
C741 H736 0.950 . S
C741 C743 1.327 . S
C741 C747 1.429 . S
C742 C734 1.574 . S
C742 H737 0.949 . S
C742 C748 1.368 . S
C743 C727 1.349 . S
C743 H735 0.950 . S
C743 C741 1.327 . S
C744 C732 1.349 . S
C744 H738 0.950 . S
C744 C745 1.327 1_565 S
C745 H739 0.950 . S
C745 C744 1.327 1_545 S
C745 C749 1.429 . S
C746 C729 1.574 . S
C746 H740 0.949 . S
C746 C750 1.368 . S
C747 C728 1.429 . S
C747 C741 1.429 . S
C747 C748 1.523 . S
C748 C729 1.368 . S
C748 C742 1.368 . S
C748 C747 1.523 . S
C749 C733 1.429 . S
C749 C745 1.429 . S
C749 C750 1.523 . S
C750 C734 1.368 . S
C750 C746 1.368 . S
C750 C749 1.523 . S
H751 C726 0.950 . S
H752 C728 0.950 . S
H753 C729 0.949 . S
H754 C731 0.950 . S
H755 C733 0.950 . S
C756 C757 1.349 . S
C756 C758 1.327 . S
C756 H781 0.950 . S
C757 C756 1.349 . S
C757 C773 1.349 . S
C758 C756 1.327 . S
C758 C777 1.429 . S
C758 H782 0.950 . S
C759 C776 1.574 . S
C759 C778 1.368 . S
C759 H783 0.949 . S
H760 C764 0.949 . S
C761 C762 1.349 . S
C761 C763 1.327 1_655 S
C761 H784 0.950 . S
C762 C761 1.349 . S
C762 C774 1.349 . S
C763 C761 1.327 1_455 S
C763 C779 1.429 . S
C763 H785 0.950 . S
C764 H760 0.949 . S
C764 C772 1.574 . S
C764 C780 1.368 . S
H765 C773 0.950 . S
H766 C771 0.950 . S
H767 C772 0.949 . S
H768 C774 0.950 . S
H769 C775 0.950 . S
H770 C776 0.949 . S
C771 H766 0.950 . S
C771 C773 1.327 . S
C771 C777 1.429 . S
C772 C764 1.574 . S
C772 H767 0.949 . S
C772 C778 1.368 . S
C773 C757 1.349 . S
C773 H765 0.950 . S
C773 C771 1.327 . S
C774 C762 1.349 . S
C774 H768 0.950 . S
C774 C775 1.327 1_655 S
C775 H769 0.950 . S
C775 C774 1.327 1_455 S
C775 C779 1.429 . S
C776 C759 1.574 . S
C776 H770 0.949 . S
C776 C780 1.368 . S
C777 C758 1.429 . S
C777 C771 1.429 . S
C777 C778 1.523 . S
C778 C759 1.368 . S
C778 C772 1.368 . S
C778 C777 1.523 . S
C779 C763 1.429 . S
C779 C775 1.429 . S
C779 C780 1.523 . S
C780 C764 1.368 . S
C780 C776 1.368 . S
C780 C779 1.523 . S
H781 C756 0.950 . S
H782 C758 0.950 . S
H783 C759 0.949 . S
H784 C761 0.950 . S
H785 C763 0.950 . S
C786 C787 1.349 . S
C786 C788 1.327 1_455 S
C786 H811 0.950 . S
C787 C786 1.349 . S
C787 C803 1.349 . S
C788 C786 1.327 1_655 S
C788 C807 1.429 . S
C788 H812 0.950 . S
C789 C806 1.574 . S
C789 C808 1.368 . S
C789 H813 0.949 . S
H790 C794 0.949 . S
C791 C792 1.349 1_545 S
C791 C793 1.327 . S
C791 H814 0.950 . S
C792 C791 1.349 1_565 S
C792 C804 1.349 . S
C793 C791 1.327 . S
C793 C809 1.429 . S
C793 H815 0.950 . S
C794 H790 0.949 . S
C794 C802 1.574 . S
C794 C810 1.368 . S
H795 C803 0.950 . S
H796 C801 0.950 . S
H797 C802 0.949 . S
H798 C804 0.950 . S
H799 C805 0.950 . S
H800 C806 0.949 . S
C801 H796 0.950 . S
C801 C803 1.327 1_655 S
C801 C807 1.429 . S
C802 C794 1.574 . S
C802 H797 0.949 . S
C802 C808 1.368 . S
C803 C787 1.349 . S
C803 H795 0.950 . S
C803 C801 1.327 1_455 S
C804 C792 1.349 . S
C804 H798 0.950 . S
C804 C805 1.327 1_565 S
C805 H799 0.950 . S
C805 C804 1.327 1_545 S
C805 C809 1.429 . S
C806 C789 1.574 . S
C806 H800 0.949 . S
C806 C810 1.368 . S
C807 C788 1.429 . S
C807 C801 1.429 . S
C807 C808 1.523 . S
C808 C789 1.368 . S
C808 C802 1.368 . S
C808 C807 1.523 . S
C809 C793 1.429 . S
C809 C805 1.429 . S
C809 C810 1.523 . S
C810 C794 1.368 . S
C810 C806 1.368 . S
C810 C809 1.523 . S
H811 C786 0.950 . S
H812 C788 0.950 . S
H813 C789 0.949 . S
H814 C791 0.950 . S
H815 C793 0.950 . S
C457 C371 1.617 . S
C462 C58 1.617 . S
C487 C286 3.595 . S
C492 C143 3.595 . S
C517 C15 1.635 . S
C522 C326 1.635 . S
C547 C243 2.849 . S
C552 C98 2.849 . S
C577 C156 1.645 . S
C582 C301 1.645 . S
C607 C73 0.807 . S
C612 C384 0.807 . S
C637 C31 1.279 . S
C642 C113 1.279 . S
C667 C273 0.716 . S
C672 C354 0.716 . S
C697 C1 1.373 . S
C702 C86 1.373 . S
C727 C259 1.279 . S
C732 C341 1.279 . S
C757 C45 0.716 . S
C762 C126 0.716 . S
C787 C229 1.373 . S
C792 C314 1.373 . S
