# Generated by pormake.
# Topology kag, (6)-cn, num edge types: 1
# Building blocks:
#     Node 0, Type 0, BuildingBlock: UKALOJ_clean_sbu_0, # of connection points: 6
#     Node 1, Type 0, BuildingBlock: UKALOJ_clean_sbu_0, # of connection points: 6
#     Node 2, Type 0, BuildingBlock: UKALOJ_clean_sbu_0, # of connection points: 6
#     Edge 3, Type (0, 0), BuildingBlock: UVAHIK_clean_linker_0, # of connection points: 2
#     Edge 4, Type (0, 0), BuildingBlock: UVAHIK_clean_linker_0, # of connection points: 2
#     Edge 5, Type (0, 0), BuildingBlock: UVAHIK_clean_linker_0, # of connection points: 2
#     Edge 6, Type (0, 0), BuildingBlock: UVAHIK_clean_linker_0, # of connection points: 2
#     Edge 7, Type (0, 0), BuildingBlock: UVAHIK_clean_linker_0, # of connection points: 2
#     Edge 8, Type (0, 0), BuildingBlock: UVAHIK_clean_linker_0, # of connection points: 2
#     Edge 9, Type (0, 0), BuildingBlock: UVAHIK_clean_linker_0, # of connection points: 2
#     Edge 10, Type (0, 0), BuildingBlock: UVAHIK_clean_linker_0, # of connection points: 2
#     Edge 11, Type (0, 0), BuildingBlock: UVAHIK_clean_linker_0, # of connection points: 2
# Relax obj value: 0.133
# Max RMSD: 0.168
# Mean RMSD: 0.168
data_MOF--net-kag--node1-UKALOJ_clean_sbu_0--edge1-UVAHIK_clean_linker_0
_symmetry_space_group_name_H-M    P1
_symmetry_Int_Tables_number       1
_symmetry_cell_setting            triclinic
loop_
_symmetry_equiv_pos_as_xyz
'x, y, z'
_cell_length_a     37.240682
_cell_length_b     37.186771
_cell_length_c     24.696595
_cell_angle_alpha  89.966779
_cell_angle_beta   90.067718
_cell_angle_gamma 120.10595
loop_
_atom_site_label
_atom_site_type_symbol
_atom_site_fract_x
_atom_site_fract_y
_atom_site_fract_z
_atom_type_partial_charge
Zn0 Zn -0.00316 0.43778 0.9656 0.0
O1 O 0.04089 0.50015 0.94812 0.0
C2 C 0.06271 0.41963 0.99374 0.0
Zn3 Zn 0.01014 0.44609 0.05412 0.0
C4 C 0.06058 0.52362 0.98771 0.0
O5 O 0.05409 0.50851 0.03525 0.0
C6 C 0.94442 0.36096 0.03219 0.0
O7 O 0.9657 0.46443 0.06635 0.0
O8 O 0.95255 0.45632 0.97911 0.0
N9 N 0.02844 0.45785 0.13331 0.0
C10 C 0.00788 0.44485 0.18069 0.0
C11 C 0.07158 0.48622 0.19939 0.0
N12 N 0.06798 0.4835 0.1451 0.0
N13 N 0.03435 0.46211 0.22278 0.0
C14 C -0.00058 0.43905 0.83909 0.0
C15 C 0.9359 0.39712 0.82007 0.0
N16 N 0.97869 0.42602 0.88636 0.0
N17 N 0.93926 0.40003 0.87436 0.0
N18 N 0.97317 0.42143 0.79687 0.0
H19 H 0.06162 0.46535 0.8712 0.0
H20 H 0.05238 0.49967 0.83016 0.0
H21 H 0.0577 0.45899 0.79853 0.0
C22 C 0.04547 0.46713 0.83457 0.0
C23 C 0.9618 0.41717 0.18552 0.0
H24 H 0.94991 0.42562 0.22163 0.0
H25 H 0.95461 0.38456 0.19013 0.0
H26 H 0.94562 0.41905 0.14897 0.0
O27 O 0.96528 0.38384 0.07167 0.0
O28 O 0.95217 0.37581 0.98452 0.0
C29 C 0.94592 0.46644 0.02562 0.0
O30 O 0.04181 0.42009 0.95335 0.0
O31 O 0.05515 0.42858 0.04045 0.0
Zn32 Zn 0.44155 0.01471 0.96836 0.0
O33 O 0.4601 0.97094 0.95163 0.0
C34 C 0.35669 0.94793 0.9939 0.0
Zn35 Zn 0.43456 0.00024 0.05666 0.0
C36 C 0.46281 0.95062 0.99122 0.0
O37 O 0.45311 0.95638 0.03845 0.0
C38 C 0.4159 0.06631 0.03404 0.0
O39 O 0.49725 0.04457 0.07053 0.0
O40 O 0.50441 0.05925 0.98371 0.0
N41 N 0.42691 0.98158 0.13587 0.0
C42 C 0.43439 0.0021 0.18333 0.0
C43 C 0.41142 0.93823 0.20186 0.0
N44 N 0.41259 0.94193 0.14758 0.0
N45 N 0.42474 0.9755 0.22537 0.0
C46 C 0.44151 0.01258 0.84175 0.0
C47 C 0.4635 0.07624 0.82294 0.0
N48 N 0.44903 0.03323 0.88911 0.0
N49 N 0.46275 0.07275 0.87724 0.0
N50 N 0.45049 0.03897 0.79959 0.0
H51 H 0.40559 0.95019 0.87364 0.0
H52 H 0.44894 0.9596 0.83224 0.0
H53 H 0.4028 0.95427 0.80106 0.0
C54 C 0.42337 0.96647 0.83701 0.0
C55 C 0.45314 0.04826 0.18833 0.0
H56 H 0.47363 0.06005 0.2244 0.0
H57 H 0.42789 0.05558 0.19318 0.0
H58 H 0.47115 0.0645 0.1518 0.0
O59 O 0.4171 0.04504 0.07354 0.0
O60 O 0.42394 0.05911 0.98661 0.0
C61 C 0.52009 0.06503 0.03089 0.0
O62 O 0.37892 0.9694 0.95437 0.0
O63 O 0.37217 0.95515 0.04125 0.0
Zn64 Zn 0.56361 0.57584 0.06157 0.0
O65 O 0.54524 0.51316 0.07511 0.0
C66 C 0.64845 0.59561 0.03868 0.0
Zn67 Zn 0.571 0.5694 0.97315 0.0
C68 C 0.54312 0.49058 0.0353 0.0
O69 O 0.55314 0.50655 0.98828 0.0
C70 C 0.58901 0.65398 0.99922 0.0
O71 O 0.50873 0.55018 0.95623 0.0
O72 O 0.50102 0.55702 0.04302 0.0
N73 N 0.58224 0.56219 0.89398 0.0
C74 C 0.56909 0.56956 0.84655 0.0
C75 C 0.61108 0.54811 0.82799 0.0
N76 N 0.60824 0.5488 0.88227 0.0
N77 N 0.58668 0.56082 0.80451 0.0
C78 C 0.56569 0.57592 0.18817 0.0
C79 C 0.52441 0.59825 0.20671 0.0
N80 N 0.55251 0.58324 0.14073 0.0
N81 N 0.52693 0.59715 0.15243 0.0
N82 N 0.54859 0.58527 0.2302 0.0
H83 H 0.58532 0.5376 0.22958 0.0
H84 H 0.62602 0.58318 0.19702 0.0
H85 H 0.59117 0.53913 0.15687 0.0
C86 C 0.5934 0.55761 0.1931 0.0
C87 C 0.54089 0.58732 0.84165 0.0
H88 H 0.5085 0.5615 0.83669 0.0
H89 H 0.54924 0.60793 0.80575 0.0
H90 H 0.54222 0.60501 0.8783 0.0
O91 O 0.5879 0.63183 0.95941 0.0
O92 O 0.58103 0.63837 0.0465 0.0
C93 C 0.48561 0.54725 0.99569 0.0
O94 O 0.62604 0.59346 0.07869 0.0
O95 O 0.63297 0.5879 0.99137 0.0
C96 C 0.00679 0.46461 0.71601 0.0
C97 C 0.98123 0.42553 0.7396 0.0
C98 C 0.01288 0.46837 0.65997 0.0
C99 C 0.96498 0.41448 0.53175 0.0
H100 H 0.07411 0.4879 0.47195 0.0
C101 C 0.00098 0.41845 0.30334 0.0
C102 C 0.02655 0.45767 0.28009 0.0
C103 C -0.00489 0.41434 0.35942 0.0
C104 C 0.04334 0.46761 0.488 0.0
H105 H 0.94159 0.35992 0.72343 0.0
H106 H 0.95239 0.36623 0.6255 0.0
H107 H 0.06496 0.48116 0.56989 0.0
H108 H 0.06647 0.52313 0.29685 0.0
H109 H 0.05602 0.51623 0.39482 0.0
H110 H 0.94334 0.40098 0.44986 0.0
C111 C 0.96761 0.39405 0.65013 0.0
C112 C 0.03811 0.46374 0.54413 0.0
C113 C 0.96157 0.39036 0.7061 0.0
C114 C 0.04647 0.4926 0.31393 0.0
C115 C 0.04065 0.48856 0.36993 0.0
C116 C 0.9702 0.41836 0.47561 0.0
C117 C -0.00678 0.43313 0.62635 0.0
C118 C -0.00113 0.43715 0.56666 0.0
C119 C 0.015 0.44936 0.39338 0.0
C120 C 0.00943 0.44502 0.45307 0.0
H121 H 0.02112 0.49239 0.74067 0.0
H122 H 0.03217 0.49902 0.64283 0.0
H123 H 0.9342 0.39421 0.5478 0.0
H124 H 0.98645 0.39083 0.27839 0.0
H125 H 0.9758 0.3836 0.37628 0.0
C126 C 0.44324 0.96325 0.31642 0.0
C127 C 0.42835 0.98331 0.28272 0.0
C128 C 0.44552 0.9693 0.37241 0.0
C129 C 0.44761 0.04067 0.47807 0.0
H130 H 0.4161 0.94631 0.57293 0.0
C131 C 0.43083 0.05066 0.70895 0.0
C132 C 0.44631 0.03093 0.74228 0.0
C133 C 0.42801 0.04443 0.65298 0.0
C134 C 0.42542 0.97306 0.54701 0.0
H135 H 0.40227 0.02385 0.28134 0.0
H136 H 0.40652 0.03486 0.37921 0.0
H137 H 0.41246 0.93654 0.47505 0.0
H138 H 0.47278 0.99073 0.74299 0.0
H139 H 0.46752 0.97934 0.64517 0.0
H140 H 0.46057 0.07719 0.55005 0.0
C141 C 0.4175 0.01527 0.36223 0.0
C142 C 0.42335 0.96747 0.49089 0.0
C143 C 0.41525 0.00919 0.30615 0.0
C144 C 0.45937 0.00514 0.71849 0.0
C145 C 0.45654 -0.00116 0.66245 0.0
C146 C 0.44965 0.04625 0.53419 0.0
C147 C 0.43258 -0.00469 0.39604 0.0
C148 C 0.43449 0.00123 0.45574 0.0
C149 C 0.44093 0.01852 0.62902 0.0
C150 C 0.43861 0.01251 0.56933 0.0
H151 H 0.45337 0.94303 0.29923 0.0
H152 H 0.45776 0.95384 0.39714 0.0
H153 H 0.45699 0.06744 0.45217 0.0
H154 H 0.4207 0.0708 0.7264 0.0
H155 H 0.4154 0.05967 0.62852 0.0
C156 C 0.6181 0.58071 0.714 0.0
C157 C 0.58282 0.56491 0.74718 0.0
C158 C 0.61469 0.58343 0.65802 0.0
C159 C 0.54567 0.58508 0.55171 0.0
H160 H 0.60891 0.55413 0.45728 0.0
C161 C 0.5179 0.56652 0.32118 0.0
C162 C 0.55288 0.58173 0.28755 0.0
C163 C 0.52174 0.56437 0.37718 0.0
C164 C 0.59141 0.56334 0.48307 0.0
H165 H 0.51604 0.53775 0.74762 0.0
H166 H 0.50992 0.54282 0.64976 0.0
H167 H 0.61513 0.55082 0.55521 0.0
H168 H 0.6196 0.60847 0.28623 0.0
H169 H 0.6265 0.60447 0.38415 0.0
H170 H 0.52194 0.5976 0.4796 0.0
C171 C 0.54044 0.55413 0.66718 0.0
C172 C 0.59497 0.56144 0.53921 0.0
C173 C 0.5439 0.55142 0.72324 0.0
C174 C 0.59196 0.59526 0.31103 0.0
C175 C 0.59587 0.59316 0.36711 0.0
C176 C 0.54212 0.587 0.49558 0.0
C177 C 0.5758 0.57007 0.63389 0.0
C178 C 0.57211 0.57225 0.57419 0.0
C179 C 0.5608 0.57778 0.40087 0.0
C180 C 0.56488 0.57607 0.46058 0.0
H181 H 0.64842 0.59118 0.73159 0.0
H182 H 0.6426 0.59628 0.63366 0.0
H183 H 0.52812 0.59423 0.57752 0.0
H184 H 0.48748 0.55604 0.30394 0.0
H185 H 0.49403 0.55189 0.40187 0.0
C186 C 0.12194 0.41398 0.03089 0.0
C187 C 0.09901 0.41424 0.98586 0.0
C188 C 0.16065 0.41737 0.02395 0.0
C189 C 0.24705 0.46471 0.92926 0.0
H190 H 0.29565 0.4209 0.02975 0.0
C191 C 0.42305 0.51943 0.9355 0.0
C192 C 0.44052 0.52923 0.98768 0.0
C193 C 0.38001 0.4993 0.92865 0.0
C194 C 0.28243 0.43329 1.00133 0.0
H195 H 0.09703 0.41468 0.89804 0.0
H196 H 0.16469 0.42022 0.88595 0.0
H197 H 0.22052 0.39147 0.02803 0.0
H198 H 0.42663 0.5262 0.07349 0.0
H199 H 0.35176 0.49132 0.06141 0.0
H200 H 0.30917 0.5073 0.90366 0.0
C201 C 0.15295 0.41812 0.92663 0.0
C202 C 0.23948 0.41644 1.00029 0.0
C203 C 0.1141 0.41467 0.93358 0.0
C204 C 0.41419 0.51912 0.03273 0.0
C205 C 0.37128 0.49873 0.0259 0.0
C206 C 0.29001 0.4814 0.93009 0.0
C207 C 0.17726 0.42103 0.97182 0.0
C208 C 0.22145 0.43292 0.96554 0.0
C209 C 0.35375 0.48827 0.97389 0.0
C210 C 0.30815 0.46676 0.96741 0.0
H211 H 0.11106 0.41345 0.07171 0.0
H212 H 0.17864 0.41987 0.05969 0.0
H213 H 0.23423 0.47848 0.90244 0.0
H214 H 0.44255 0.52677 0.9 0.0
H215 H 0.36722 0.49162 0.88811 0.0
C216 C 0.58242 0.10186 0.09109 0.0
C217 C 0.56515 0.09267 0.03876 0.0
C218 C 0.62542 0.12537 0.09813 0.0
C219 C 0.72333 0.15533 0.02792 0.0
H220 H 0.77117 0.25164 0.12224 0.0
C221 C 0.88536 0.29481 0.9972 0.0
C222 C 0.9078 0.31951 0.04159 0.0
C223 C 0.84628 0.25992 1.00458 0.0
C224 C 0.75845 0.22426 0.09677 0.0
H225 H 0.57935 0.10135 0.95289 0.0
H226 H 0.65424 0.1423 0.9653 0.0
H227 H 0.69615 0.20556 0.12033 0.0
H228 H 0.90844 0.32492 0.12907 0.0
H229 H 0.84014 0.26349 0.14207 0.0
H230 H 0.78542 0.17438 1.00341 0.0
C231 C 0.63455 0.13101 1.00079 0.0
C232 C 0.71544 0.19802 0.0955 0.0
C233 C 0.59165 0.10794 0.99373 0.0
C234 C 0.89179 0.30669 0.09401 0.0
C235 C 0.85254 0.27168 0.10143 0.0
C236 C 0.76632 0.18135 0.02947 0.0
C237 C 0.65187 0.13962 0.05299 0.0
C238 C 0.69745 0.16412 0.05978 0.0
C239 C 0.82875 0.24884 0.05657 0.0
C240 C 0.78428 0.21689 0.06258 0.0
H241 H 0.56277 0.0905 0.12659 0.0
H242 H 0.63804 0.13166 0.13881 0.0
H243 H 0.71022 0.12886 1.00081 0.0
H244 H 0.89693 0.30368 0.95627 0.0
H245 H 0.82876 0.24332 0.96904 0.0
C246 C 0.49041 0.91534 0.9317 0.0
C247 C 0.48053 0.92326 0.98365 0.0
C248 C 0.51026 0.89212 0.92547 0.0
C249 C 0.57568 0.86067 0.99963 0.0
H250 H 0.52987 0.76569 0.90312 0.0
C251 C 0.59433 0.71935 0.03428 0.0
C252 C 0.59405 0.6955 0.99005 0.0
C253 C 0.59085 0.75456 0.02611 0.0
C254 C 0.54381 0.79271 0.92928 0.0
H255 H 0.48311 0.9125 0.06964 0.0
H256 H 0.51755 0.87212 0.05863 0.0
H257 H 0.50162 0.81232 0.90232 0.0
H258 H 0.59334 0.69176 0.90231 0.0
H259 H 0.58766 0.75369 0.88806 0.0
H260 H 0.61712 0.84057 0.02771 0.0
C261 C 0.5104 0.88422 0.02284 0.0
C262 C 0.52745 0.81928 0.92893 0.0
C263 C 0.49027 0.90699 0.02905 0.0
C264 C 0.59338 0.70936 0.93727 0.0
C265 C 0.58984 0.74465 0.92908 0.0
C266 C 0.59221 0.83431 0.99975 0.0
C267 C 0.52097 0.87691 0.9711 0.0
C268 C 0.5423 0.85263 0.96543 0.0
C269 C 0.58709 0.76676 0.97349 0.0
C270 C 0.57548 0.7992 0.96593 0.0
H271 H 0.48333 0.92752 0.89595 0.0
H272 H 0.518 0.88678 0.88513 0.0
H273 H 0.58822 0.88672 0.02744 0.0
H274 H 0.59501 0.70963 0.07545 0.0
H275 H 0.58845 0.77061 0.06128 0.0
C276 C 0.90416 0.49501 0.98523 0.0
C277 C 0.91741 0.48288 0.03141 0.0
C278 C 0.8789 0.51251 0.99018 0.0
C279 C 0.84254 0.56312 0.08775 0.0
H280 H 0.75694 0.53332 0.9791 0.0
C281 C 0.70063 0.58973 0.09622 0.0
C282 C 0.68991 0.60057 0.0467 0.0
C283 C 0.73445 0.58317 0.09902 0.0
C284 C 0.78106 0.54235 1.00936 0.0
H285 H 0.91442 0.47929 0.11909 0.0
H286 H 0.86885 0.50864 0.1277 0.0
H287 H 0.80111 0.50281 0.9752 0.0
H288 H 0.70891 0.61808 0.9633 0.0
H289 H 0.76785 0.6069 0.96841 0.0
H290 H 0.82082 0.60167 0.12275 0.0
C291 C 0.87886 0.50549 0.08771 0.0
C292 C 0.80644 0.5249 1.00713 0.0
C293 C 0.90464 0.48836 0.08276 0.0
C294 C 0.71606 0.6091 1.00179 0.0
C295 C 0.74972 0.60262 1.00462 0.0
C296 C 0.81661 0.58027 0.09035 0.0
C297 C 0.8657 0.51775 0.0414 0.0
C298 C 0.83785 0.53541 0.04582 0.0
C299 C 0.75783 0.58747 0.05238 0.0
C300 C 0.78605 0.57039 0.05067 0.0
H301 H 0.91394 0.49175 0.94512 0.0
H302 H 0.87014 0.52242 0.95372 0.0
H303 H 0.86665 0.5721 0.11797 0.0
H304 H 0.68101 0.58297 0.13148 0.0
H305 H 0.74019 0.57154 0.13633 0.0
C306 C 0.09659 0.58629 0.92753 0.0
C307 C 0.08806 0.56876 0.9797 0.0
C308 C 0.11993 0.62944 0.92084 0.0
C309 C 0.15054 0.72696 0.99336 0.0
H310 H 0.24637 0.77598 0.89864 0.0
C311 C 0.29109 0.88778 0.02837 0.0
C312 C 0.3153 0.91129 0.98431 0.0
C313 C 0.25611 0.84885 0.02006 0.0
C314 C 0.21913 0.76293 0.92427 0.0
H315 H 0.0979 0.58271 0.06565 0.0
H316 H 0.13844 0.65761 0.05385 0.0
H317 H 0.19987 0.70086 0.8983 0.0
H318 H 0.31995 0.91391 0.89663 0.0
H319 H 0.25843 0.84586 0.88214 0.0
H320 H 0.17025 0.78874 0.02046 0.0
C321 C 0.12674 0.6381 0.0182 0.0
C322 C 0.19263 0.71987 0.9242 0.0
C323 C 0.10386 0.59514 0.02488 0.0
C324 C 0.30204 0.89643 0.93147 0.0
C325 C 0.26699 0.85734 0.92315 0.0
C326 C 0.17683 0.76997 0.9932 0.0
C327 C 0.13464 0.65571 0.96621 0.0
C328 C 0.15894 0.70143 0.9601 0.0
C329 C 0.2445 0.83256 0.96749 0.0
C330 C 0.21224 0.7883 0.96004 0.0
H331 H 0.08479 0.56676 0.89193 0.0
H332 H 0.12572 0.64229 0.88031 0.0
H333 H 0.12424 0.71351 0.02067 0.0
H334 H 0.30035 0.89842 0.06957 0.0
H335 H 0.23976 0.83049 0.05519 0.0
C336 C 0.51501 0.41918 0.9975 0.0
C337 C 0.52585 0.44547 0.04277 0.0
C338 C 0.49525 0.3762 1.00416 0.0
C339 C 0.48085 0.29493 0.09856 0.0
H340 H 0.38803 0.22485 1.0048 0.0
C341 C 0.41343 0.11847 0.09581 0.0
C342 C 0.41088 0.10277 0.04332 0.0
C343 C 0.41749 0.15761 0.10332 0.0
C344 C 0.41386 0.24397 0.03134 0.0
H345 H 0.52546 0.4474 0.1306 0.0
H346 H 0.49146 0.372 0.14212 0.0
H347 H 0.41758 0.3001 1.00276 0.0
H348 H 0.40684 0.11406 0.95791 0.0
H349 H 0.41431 0.18205 0.97084 0.0
H350 H 0.47861 0.23917 0.12526 0.0
C351 C 0.49804 0.38484 0.10157 0.0
C352 C 0.43077 0.287 0.0301 0.0
C353 C 0.51748 0.42792 0.09493 0.0
C354 C 0.40905 0.12539 0.99888 0.0
C355 C 0.41305 0.16437 1.00636 0.0
C356 C 0.46413 0.25188 0.09953 0.0
C357 C 0.48622 0.35859 0.05619 0.0
C358 C 0.46516 0.31292 0.06257 0.0
C359 C 0.41887 0.1816 0.05848 0.0
C360 C 0.43123 0.22603 0.06475 0.0
H361 H 0.52097 0.43171 0.95678 0.0
H362 H 0.48716 0.35668 0.9685 0.0
H363 H 0.50746 0.31425 0.12387 0.0
H364 H 0.41467 0.10166 0.1309 0.0
H365 H 0.42123 0.1698 0.14404 0.0
loop_
_geom_bond_atom_site_label_1
_geom_bond_atom_site_label_2
_geom_bond_distance
_geom_bond_site_symmetry_2
_ccdc_geom_bond_type
Zn0 O1 2.055 . S
Zn0 O8 2.046 1_455 S
Zn0 N16 2.036 . S
Zn0 O28 2.053 1_455 S
Zn0 O30 2.066 . S
O1 Zn0 2.055 . S
O1 C4 1.259 . S
C2 O30 1.256 . S
C2 O31 1.244 1_556 S
Zn3 O5 2.046 . S
Zn3 O7 2.055 1_455 S
Zn3 N9 2.036 . S
Zn3 O27 2.066 1_455 S
Zn3 O31 2.053 . S
C4 O1 1.259 . S
C4 O5 1.254 1_556 S
O5 Zn3 2.046 . S
O5 C4 1.254 1_554 S
C6 O27 1.256 . S
C6 O28 1.244 1_554 S
O7 Zn3 2.055 1_655 S
O7 C29 1.259 . S
O8 Zn0 2.046 1_655 S
O8 C29 1.254 1_556 S
N9 Zn3 2.036 . S
N9 C10 1.298 1_455 S
N9 N12 1.398 . S
C10 N9 1.298 1_655 S
C10 N13 1.367 1_655 S
C10 C23 1.481 . S
C11 N12 1.299 . S
C11 N13 1.379 . S
N12 N9 1.398 . S
N12 C11 1.299 . S
N13 C10 1.367 1_455 S
N13 C11 1.379 . S
C14 N16 1.298 . S
C14 N18 1.367 . S
C14 C22 1.481 . S
C15 N17 1.299 . S
C15 N18 1.379 1_655 S
N16 Zn0 2.036 . S
N16 C14 1.298 . S
N16 N17 1.398 1_455 S
N17 C15 1.299 . S
N17 N16 1.398 1_655 S
N18 C14 1.367 . S
N18 C15 1.379 1_455 S
H19 C22 0.980 . S
H20 C22 0.981 . S
H21 C22 0.981 . S
C22 C14 1.481 . S
C22 H19 0.980 . S
C22 H20 0.981 . S
C22 H21 0.981 . S
C23 C10 1.481 . S
C23 H24 0.980 . S
C23 H25 0.981 . S
C23 H26 0.981 . S
H24 C23 0.980 . S
H25 C23 0.981 . S
H26 C23 0.981 . S
O27 Zn3 2.066 1_655 S
O27 C6 1.256 . S
O28 Zn0 2.053 1_655 S
O28 C6 1.244 1_556 S
C29 O7 1.259 . S
C29 O8 1.254 1_554 S
O30 Zn0 2.066 . S
O30 C2 1.256 . S
O31 C2 1.244 1_554 S
O31 Zn3 2.053 . S
Zn32 O33 2.055 1_545 S
Zn32 O40 2.046 . S
Zn32 N48 2.036 . S
Zn32 O60 2.053 . S
Zn32 O62 2.066 1_545 S
O33 Zn32 2.055 1_565 S
O33 C36 1.259 . S
C34 O62 1.256 . S
C34 O63 1.244 1_556 S
Zn35 O37 2.046 1_545 S
Zn35 O39 2.055 . S
Zn35 N41 2.036 . S
Zn35 O59 2.066 . S
Zn35 O63 2.053 1_545 S
C36 O33 1.259 . S
C36 O37 1.254 1_556 S
O37 Zn35 2.046 1_565 S
O37 C36 1.254 1_554 S
C38 O59 1.256 . S
C38 O60 1.244 1_554 S
O39 Zn35 2.055 . S
O39 C61 1.259 . S
O40 Zn32 2.046 . S
O40 C61 1.254 1_556 S
N41 Zn35 2.036 . S
N41 C42 1.298 . S
N41 N44 1.398 1_545 S
C42 N41 1.298 . S
C42 N45 1.367 . S
C42 C55 1.481 . S
C43 N44 1.299 . S
C43 N45 1.379 1_565 S
N44 N41 1.398 1_565 S
N44 C43 1.299 . S
N45 C42 1.367 . S
N45 C43 1.379 1_545 S
C46 N48 1.298 1_565 S
C46 N50 1.367 1_565 S
C46 C54 1.481 . S
C47 N49 1.299 . S
C47 N50 1.379 . S
N48 Zn32 2.036 . S
N48 C46 1.298 1_545 S
N48 N49 1.398 . S
N49 C47 1.299 . S
N49 N48 1.398 . S
N50 C46 1.367 1_545 S
N50 C47 1.379 . S
H51 C54 0.980 . S
H52 C54 0.981 . S
H53 C54 0.981 . S
C54 C46 1.481 . S
C54 H51 0.980 . S
C54 H52 0.981 . S
C54 H53 0.981 . S
C55 C42 1.481 . S
C55 H56 0.980 . S
C55 H57 0.981 . S
C55 H58 0.981 . S
H56 C55 0.980 . S
H57 C55 0.981 . S
H58 C55 0.981 . S
O59 Zn35 2.066 . S
O59 C38 1.256 . S
O60 Zn32 2.053 . S
O60 C38 1.244 1_556 S
C61 O39 1.259 . S
C61 O40 1.254 1_554 S
O62 Zn32 2.066 1_565 S
O62 C34 1.256 . S
O63 C34 1.244 1_554 S
O63 Zn35 2.053 1_565 S
Zn64 O65 2.055 . S
Zn64 O72 2.046 . S
Zn64 N80 2.036 . S
Zn64 O92 2.053 . S
Zn64 O94 2.066 . S
O65 Zn64 2.055 . S
O65 C68 1.259 . S
C66 O94 1.256 . S
C66 O95 1.244 1_554 S
Zn67 O69 2.046 . S
Zn67 O71 2.055 . S
Zn67 N73 2.036 . S
Zn67 O91 2.066 . S
Zn67 O95 2.053 . S
C68 O65 1.259 . S
C68 O69 1.254 1_554 S
O69 Zn67 2.046 . S
O69 C68 1.254 1_556 S
C70 O91 1.256 . S
C70 O92 1.244 1_556 S
O71 Zn67 2.055 . S
O71 C93 1.259 . S
O72 Zn64 2.046 . S
O72 C93 1.254 1_554 S
N73 Zn67 2.036 . S
N73 C74 1.298 . S
N73 N76 1.398 . S
C74 N73 1.298 . S
C74 N77 1.367 . S
C74 C87 1.481 . S
C75 N76 1.299 . S
C75 N77 1.379 . S
N76 N73 1.398 . S
N76 C75 1.299 . S
N77 C74 1.367 . S
N77 C75 1.379 . S
C78 N80 1.298 . S
C78 N82 1.367 . S
C78 C86 1.481 . S
C79 N81 1.299 . S
C79 N82 1.379 . S
N80 Zn64 2.036 . S
N80 C78 1.298 . S
N80 N81 1.398 . S
N81 C79 1.299 . S
N81 N80 1.398 . S
N82 C78 1.367 . S
N82 C79 1.379 . S
H83 C86 0.980 . S
H84 C86 0.981 . S
H85 C86 0.981 . S
C86 C78 1.481 . S
C86 H83 0.980 . S
C86 H84 0.981 . S
C86 H85 0.981 . S
C87 C74 1.481 . S
C87 H88 0.980 . S
C87 H89 0.981 . S
C87 H90 0.981 . S
H88 C87 0.980 . S
H89 C87 0.981 . S
H90 C87 0.981 . S
O91 Zn67 2.066 . S
O91 C70 1.256 . S
O92 Zn64 2.053 . S
O92 C70 1.244 1_554 S
C93 O71 1.259 . S
C93 O72 1.254 1_556 S
O94 Zn64 2.066 . S
O94 C66 1.256 . S
O95 C66 1.244 1_556 S
O95 Zn67 2.053 . S
C96 C97 1.349 . S
C96 C98 1.327 . S
C96 H121 0.950 . S
C97 C96 1.349 . S
C97 C113 1.349 1_455 S
C98 C96 1.327 . S
C98 C117 1.429 . S
C98 H122 0.950 . S
C99 C116 1.574 . S
C99 C118 1.368 1_655 S
C99 H123 0.949 . S
H100 C104 0.949 . S
C101 C102 1.349 . S
C101 C103 1.327 . S
C101 H124 0.950 . S
C102 C101 1.349 . S
C102 C114 1.349 1_655 S
C103 C101 1.327 . S
C103 C119 1.429 1_655 S
C103 H125 0.950 . S
C104 H100 0.949 . S
C104 C112 1.574 . S
C104 C120 1.368 . S
H105 C113 0.950 . S
H106 C111 0.950 . S
H107 C112 0.949 . S
H108 C114 0.950 . S
H109 C115 0.950 . S
H110 C116 0.949 . S
C111 H106 0.950 . S
C111 C113 1.327 . S
C111 C117 1.429 1_655 S
C112 C104 1.574 . S
C112 H107 0.949 . S
C112 C118 1.368 . S
C113 C97 1.349 1_655 S
C113 H105 0.950 . S
C113 C111 1.327 . S
C114 C102 1.349 1_455 S
C114 H108 0.950 . S
C114 C115 1.327 . S
C115 H109 0.950 . S
C115 C114 1.327 . S
C115 C119 1.429 . S
C116 C99 1.574 . S
C116 H110 0.949 . S
C116 C120 1.368 1_655 S
C117 C98 1.429 . S
C117 C111 1.429 1_455 S
C117 C118 1.523 . S
C118 C99 1.368 1_455 S
C118 C112 1.368 . S
C118 C117 1.523 . S
C119 C103 1.429 1_455 S
C119 C115 1.429 . S
C119 C120 1.523 . S
C120 C104 1.368 . S
C120 C116 1.368 1_455 S
C120 C119 1.523 . S
H121 C96 0.950 . S
H122 C98 0.950 . S
H123 C99 0.949 . S
H124 C101 0.950 . S
H125 C103 0.950 . S
C126 C127 1.349 1_565 S
C126 C128 1.327 . S
C126 H151 0.950 . S
C127 C126 1.349 1_545 S
C127 C143 1.349 . S
C128 C126 1.327 . S
C128 C147 1.429 1_565 S
C128 H152 0.950 . S
C129 C146 1.574 . S
C129 C148 1.368 . S
C129 H153 0.949 . S
H130 C134 0.949 . S
C131 C132 1.349 1_545 S
C131 C133 1.327 . S
C131 H154 0.950 . S
C132 C131 1.349 1_565 S
C132 C144 1.349 . S
C133 C131 1.327 . S
C133 C149 1.429 . S
C133 H155 0.950 . S
C134 H130 0.949 . S
C134 C142 1.574 . S
C134 C150 1.368 1_565 S
H135 C143 0.950 . S
H136 C141 0.950 . S
H137 C142 0.949 . S
H138 C144 0.950 . S
H139 C145 0.950 . S
H140 C146 0.949 . S
C141 H136 0.950 . S
C141 C143 1.327 . S
C141 C147 1.429 . S
C142 C134 1.574 . S
C142 H137 0.949 . S
C142 C148 1.368 1_565 S
C143 C127 1.349 . S
C143 H135 0.950 . S
C143 C141 1.327 . S
C144 C132 1.349 . S
C144 H138 0.950 . S
C144 C145 1.327 . S
C145 H139 0.950 . S
C145 C144 1.327 . S
C145 C149 1.429 1_565 S
C146 C129 1.574 . S
C146 H140 0.949 . S
C146 C150 1.368 . S
C147 C128 1.429 1_545 S
C147 C141 1.429 . S
C147 C148 1.523 . S
C148 C129 1.368 . S
C148 C142 1.368 1_545 S
C148 C147 1.523 . S
C149 C133 1.429 . S
C149 C145 1.429 1_545 S
C149 C150 1.523 . S
C150 C134 1.368 1_545 S
C150 C146 1.368 . S
C150 C149 1.523 . S
H151 C126 0.950 . S
H152 C128 0.950 . S
H153 C129 0.949 . S
H154 C131 0.950 . S
H155 C133 0.950 . S
C156 C157 1.349 . S
C156 C158 1.327 . S
C156 H181 0.950 . S
C157 C156 1.349 . S
C157 C173 1.349 . S
C158 C156 1.327 . S
C158 C177 1.429 . S
C158 H182 0.950 . S
C159 C176 1.574 . S
C159 C178 1.368 . S
C159 H183 0.949 . S
H160 C164 0.949 . S
C161 C162 1.349 . S
C161 C163 1.327 . S
C161 H184 0.950 . S
C162 C161 1.349 . S
C162 C174 1.349 . S
C163 C161 1.327 . S
C163 C179 1.429 . S
C163 H185 0.950 . S
C164 H160 0.949 . S
C164 C172 1.574 . S
C164 C180 1.368 . S
H165 C173 0.950 . S
H166 C171 0.950 . S
H167 C172 0.949 . S
H168 C174 0.950 . S
H169 C175 0.950 . S
H170 C176 0.949 . S
C171 H166 0.950 . S
C171 C173 1.327 . S
C171 C177 1.429 . S
C172 C164 1.574 . S
C172 H167 0.949 . S
C172 C178 1.368 . S
C173 C157 1.349 . S
C173 H165 0.950 . S
C173 C171 1.327 . S
C174 C162 1.349 . S
C174 H168 0.950 . S
C174 C175 1.327 . S
C175 H169 0.950 . S
C175 C174 1.327 . S
C175 C179 1.429 . S
C176 C159 1.574 . S
C176 H170 0.949 . S
C176 C180 1.368 . S
C177 C158 1.429 . S
C177 C171 1.429 . S
C177 C178 1.523 . S
C178 C159 1.368 . S
C178 C172 1.368 . S
C178 C177 1.523 . S
C179 C163 1.429 . S
C179 C175 1.429 . S
C179 C180 1.523 . S
C180 C164 1.368 . S
C180 C176 1.368 . S
C180 C179 1.523 . S
H181 C156 0.950 . S
H182 C158 0.950 . S
H183 C159 0.949 . S
H184 C161 0.950 . S
H185 C163 0.950 . S
C186 C187 1.349 1_554 S
C186 C188 1.327 . S
C186 H211 0.950 . S
C187 C186 1.349 1_556 S
C187 C203 1.349 . S
C188 C186 1.327 . S
C188 C207 1.429 1_554 S
C188 H212 0.950 . S
C189 C206 1.574 . S
C189 C208 1.368 . S
C189 H213 0.949 . S
H190 C194 0.949 . S
C191 C192 1.349 . S
C191 C193 1.327 . S
C191 H214 0.950 . S
C192 C191 1.349 . S
C192 C204 1.349 1_556 S
C193 C191 1.327 . S
C193 C209 1.429 . S
C193 H215 0.950 . S
C194 H190 0.949 . S
C194 C202 1.574 . S
C194 C210 1.368 1_554 S
H195 C203 0.950 . S
H196 C201 0.950 . S
H197 C202 0.949 . S
H198 C204 0.950 . S
H199 C205 0.950 . S
H200 C206 0.949 . S
C201 H196 0.950 . S
C201 C203 1.327 . S
C201 C207 1.429 . S
C202 C194 1.574 . S
C202 H197 0.949 . S
C202 C208 1.368 1_554 S
C203 C187 1.349 . S
C203 H195 0.950 . S
C203 C201 1.327 . S
C204 C192 1.349 1_554 S
C204 H198 0.950 . S
C204 C205 1.327 . S
C205 H199 0.950 . S
C205 C204 1.327 . S
C205 C209 1.429 1_554 S
C206 C189 1.574 . S
C206 H200 0.949 . S
C206 C210 1.368 . S
C207 C188 1.429 1_556 S
C207 C201 1.429 . S
C207 C208 1.523 . S
C208 C189 1.368 . S
C208 C202 1.368 1_556 S
C208 C207 1.523 . S
C209 C193 1.429 . S
C209 C205 1.429 1_556 S
C209 C210 1.523 . S
C210 C194 1.368 1_556 S
C210 C206 1.368 . S
C210 C209 1.523 . S
H211 C186 0.950 . S
H212 C188 0.950 . S
H213 C189 0.949 . S
H214 C191 0.950 . S
H215 C193 0.950 . S
C216 C217 1.349 . S
C216 C218 1.327 . S
C216 H241 0.950 . S
C217 C216 1.349 . S
C217 C233 1.349 1_554 S
C218 C216 1.327 . S
C218 C237 1.429 . S
C218 H242 0.950 . S
C219 C236 1.574 . S
C219 C238 1.368 1_556 S
C219 H243 0.949 . S
H220 C224 0.949 . S
C221 C222 1.349 1_556 S
C221 C223 1.327 . S
C221 H244 0.950 . S
C222 C221 1.349 1_554 S
C222 C234 1.349 . S
C223 C221 1.327 . S
C223 C239 1.429 1_556 S
C223 H245 0.950 . S
C224 H220 0.949 . S
C224 C232 1.574 . S
C224 C240 1.368 . S
H225 C233 0.950 . S
H226 C231 0.950 . S
H227 C232 0.949 . S
H228 C234 0.950 . S
H229 C235 0.950 . S
H230 C236 0.949 . S
C231 H226 0.950 . S
C231 C233 1.327 . S
C231 C237 1.429 1_556 S
C232 C224 1.574 . S
C232 H227 0.949 . S
C232 C238 1.368 . S
C233 C217 1.349 1_556 S
C233 H225 0.950 . S
C233 C231 1.327 . S
C234 C222 1.349 . S
C234 H228 0.950 . S
C234 C235 1.327 . S
C235 H229 0.950 . S
C235 C234 1.327 . S
C235 C239 1.429 . S
C236 C219 1.574 . S
C236 H230 0.949 . S
C236 C240 1.368 1_556 S
C237 C218 1.429 . S
C237 C231 1.429 1_554 S
C237 C238 1.523 . S
C238 C219 1.368 1_554 S
C238 C232 1.368 . S
C238 C237 1.523 . S
C239 C223 1.429 1_554 S
C239 C235 1.429 . S
C239 C240 1.523 . S
C240 C224 1.368 . S
C240 C236 1.368 1_554 S
C240 C239 1.523 . S
H241 C216 0.950 . S
H242 C218 0.950 . S
H243 C219 0.949 . S
H244 C221 0.950 . S
H245 C223 0.950 . S
C246 C247 1.349 . S
C246 C248 1.327 . S
C246 H271 0.950 . S
C247 C246 1.349 . S
C247 C263 1.349 1_556 S
C248 C246 1.327 . S
C248 C267 1.429 . S
C248 H272 0.950 . S
C249 C266 1.574 . S
C249 C268 1.368 1_554 S
C249 H273 0.949 . S
H250 C254 0.949 . S
C251 C252 1.349 1_554 S
C251 C253 1.327 . S
C251 H274 0.950 . S
C252 C251 1.349 1_556 S
C252 C264 1.349 . S
C253 C251 1.327 . S
C253 C269 1.429 1_554 S
C253 H275 0.950 . S
C254 H250 0.949 . S
C254 C262 1.574 . S
C254 C270 1.368 . S
H255 C263 0.950 . S
H256 C261 0.950 . S
H257 C262 0.949 . S
H258 C264 0.950 . S
H259 C265 0.950 . S
H260 C266 0.949 . S
C261 H256 0.950 . S
C261 C263 1.327 . S
C261 C267 1.429 1_554 S
C262 C254 1.574 . S
C262 H257 0.949 . S
C262 C268 1.368 . S
C263 C247 1.349 1_554 S
C263 H255 0.950 . S
C263 C261 1.327 . S
C264 C252 1.349 . S
C264 H258 0.950 . S
C264 C265 1.327 . S
C265 H259 0.950 . S
C265 C264 1.327 . S
C265 C269 1.429 . S
C266 C249 1.574 . S
C266 H260 0.949 . S
C266 C270 1.368 1_554 S
C267 C248 1.429 . S
C267 C261 1.429 1_556 S
C267 C268 1.523 . S
C268 C249 1.368 1_556 S
C268 C262 1.368 . S
C268 C267 1.523 . S
C269 C253 1.429 1_556 S
C269 C265 1.429 . S
C269 C270 1.523 . S
C270 C254 1.368 . S
C270 C266 1.368 1_556 S
C270 C269 1.523 . S
H271 C246 0.950 . S
H272 C248 0.950 . S
H273 C249 0.949 . S
H274 C251 0.950 . S
H275 C253 0.950 . S
C276 C277 1.349 1_556 S
C276 C278 1.327 . S
C276 H301 0.950 . S
C277 C276 1.349 1_554 S
C277 C293 1.349 . S
C278 C276 1.327 . S
C278 C297 1.429 1_556 S
C278 H302 0.950 . S
C279 C296 1.574 . S
C279 C298 1.368 . S
C279 H303 0.949 . S
H280 C284 0.949 . S
C281 C282 1.349 . S
C281 C283 1.327 . S
C281 H304 0.950 . S
C282 C281 1.349 . S
C282 C294 1.349 1_554 S
C283 C281 1.327 . S
C283 C299 1.429 . S
C283 H305 0.950 . S
C284 H280 0.949 . S
C284 C292 1.574 . S
C284 C300 1.368 1_556 S
H285 C293 0.950 . S
H286 C291 0.950 . S
H287 C292 0.949 . S
H288 C294 0.950 . S
H289 C295 0.950 . S
H290 C296 0.949 . S
C291 H286 0.950 . S
C291 C293 1.327 . S
C291 C297 1.429 . S
C292 C284 1.574 . S
C292 H287 0.949 . S
C292 C298 1.368 1_556 S
C293 C277 1.349 . S
C293 H285 0.950 . S
C293 C291 1.327 . S
C294 C282 1.349 1_556 S
C294 H288 0.950 . S
C294 C295 1.327 . S
C295 H289 0.950 . S
C295 C294 1.327 . S
C295 C299 1.429 1_556 S
C296 C279 1.574 . S
C296 H290 0.949 . S
C296 C300 1.368 . S
C297 C278 1.429 1_554 S
C297 C291 1.429 . S
C297 C298 1.523 . S
C298 C279 1.368 . S
C298 C292 1.368 1_554 S
C298 C297 1.523 . S
C299 C283 1.429 . S
C299 C295 1.429 1_554 S
C299 C300 1.523 . S
C300 C284 1.368 1_554 S
C300 C296 1.368 . S
C300 C299 1.523 . S
H301 C276 0.950 . S
H302 C278 0.950 . S
H303 C279 0.949 . S
H304 C281 0.950 . S
H305 C283 0.950 . S
C306 C307 1.349 . S
C306 C308 1.327 . S
C306 H331 0.950 . S
C307 C306 1.349 . S
C307 C323 1.349 1_556 S
C308 C306 1.327 . S
C308 C327 1.429 . S
C308 H332 0.950 . S
C309 C326 1.574 . S
C309 C328 1.368 1_554 S
C309 H333 0.949 . S
H310 C314 0.949 . S
C311 C312 1.349 1_554 S
C311 C313 1.327 . S
C311 H334 0.950 . S
C312 C311 1.349 1_556 S
C312 C324 1.349 . S
C313 C311 1.327 . S
C313 C329 1.429 1_554 S
C313 H335 0.950 . S
C314 H310 0.949 . S
C314 C322 1.574 . S
C314 C330 1.368 . S
H315 C323 0.950 . S
H316 C321 0.950 . S
H317 C322 0.949 . S
H318 C324 0.950 . S
H319 C325 0.950 . S
H320 C326 0.949 . S
C321 H316 0.950 . S
C321 C323 1.327 . S
C321 C327 1.429 1_554 S
C322 C314 1.574 . S
C322 H317 0.949 . S
C322 C328 1.368 . S
C323 C307 1.349 1_554 S
C323 H315 0.950 . S
C323 C321 1.327 . S
C324 C312 1.349 . S
C324 H318 0.950 . S
C324 C325 1.327 . S
C325 H319 0.950 . S
C325 C324 1.327 . S
C325 C329 1.429 . S
C326 C309 1.574 . S
C326 H320 0.949 . S
C326 C330 1.368 1_554 S
C327 C308 1.429 . S
C327 C321 1.429 1_556 S
C327 C328 1.523 . S
C328 C309 1.368 1_556 S
C328 C322 1.368 . S
C328 C327 1.523 . S
C329 C313 1.429 1_556 S
C329 C325 1.429 . S
C329 C330 1.523 . S
C330 C314 1.368 . S
C330 C326 1.368 1_556 S
C330 C329 1.523 . S
H331 C306 0.950 . S
H332 C308 0.950 . S
H333 C309 0.949 . S
H334 C311 0.950 . S
H335 C313 0.950 . S
C336 C337 1.349 1_556 S
C336 C338 1.327 . S
C336 H361 0.950 . S
C337 C336 1.349 1_554 S
C337 C353 1.349 . S
C338 C336 1.327 . S
C338 C357 1.429 1_556 S
C338 H362 0.950 . S
C339 C356 1.574 . S
C339 C358 1.368 . S
C339 H363 0.949 . S
H340 C344 0.949 . S
C341 C342 1.349 . S
C341 C343 1.327 . S
C341 H364 0.950 . S
C342 C341 1.349 . S
C342 C354 1.349 1_554 S
C343 C341 1.327 . S
C343 C359 1.429 . S
C343 H365 0.950 . S
C344 H340 0.949 . S
C344 C352 1.574 . S
C344 C360 1.368 1_556 S
H345 C353 0.950 . S
H346 C351 0.950 . S
H347 C352 0.949 . S
H348 C354 0.950 . S
H349 C355 0.950 . S
H350 C356 0.949 . S
C351 H346 0.950 . S
C351 C353 1.327 . S
C351 C357 1.429 . S
C352 C344 1.574 . S
C352 H347 0.949 . S
C352 C358 1.368 1_556 S
C353 C337 1.349 . S
C353 H345 0.950 . S
C353 C351 1.327 . S
C354 C342 1.349 1_556 S
C354 H348 0.950 . S
C354 C355 1.327 . S
C355 H349 0.950 . S
C355 C354 1.327 . S
C355 C359 1.429 1_556 S
C356 C339 1.574 . S
C356 H350 0.949 . S
C356 C360 1.368 . S
C357 C338 1.429 1_554 S
C357 C351 1.429 . S
C357 C358 1.523 . S
C358 C339 1.368 . S
C358 C352 1.368 1_554 S
C358 C357 1.523 . S
C359 C343 1.429 . S
C359 C355 1.429 1_554 S
C359 C360 1.523 . S
C360 C344 1.368 1_554 S
C360 C356 1.368 . S
C360 C359 1.523 . S
H361 C336 0.950 . S
H362 C338 0.950 . S
H363 C339 0.949 . S
H364 C341 0.950 . S
H365 C343 0.950 . S
C97 N18 1.471 . S
C102 N13 1.471 1_655 S
C127 N45 1.471 . S
C132 N50 1.471 1_565 S
C157 N77 1.471 . S
C162 N82 1.471 . S
C187 C2 1.077 . S
C192 C93 1.081 . S
C217 C61 1.081 . S
C222 C6 1.077 . S
C247 C36 1.081 . S
C252 C70 1.077 . S
C277 C29 1.081 . S
C282 C66 1.077 . S
C307 C4 1.081 . S
C312 C34 1.077 . S
C337 C68 1.081 . S
C342 C38 1.077 . S
