# Generated by pormake.
# Topology smw, (6)-cn, num edge types: 1
# Building blocks:
#     Node 0, Type 0, BuildingBlock: IZENUY_clean_sbu_0, # of connection points: 6
#     Node 1, Type 0, BuildingBlock: IZENUY_clean_sbu_0, # of connection points: 6
#     Node 2, Type 0, BuildingBlock: IZENUY_clean_sbu_0, # of connection points: 6
#     Node 3, Type 0, BuildingBlock: IZENUY_clean_sbu_0, # of connection points: 6
#     Node 4, Type 0, BuildingBlock: IZENUY_clean_sbu_0, # of connection points: 6
#     Node 5, Type 0, BuildingBlock: IZENUY_clean_sbu_0, # of connection points: 6
#     Node 6, Type 0, BuildingBlock: IZENUY_clean_sbu_0, # of connection points: 6
#     Node 7, Type 0, BuildingBlock: IZENUY_clean_sbu_0, # of connection points: 6
#     Node 8, Type 0, BuildingBlock: IZENUY_clean_sbu_0, # of connection points: 6
#     Node 9, Type 0, BuildingBlock: IZENUY_clean_sbu_0, # of connection points: 6
#     Node 10, Type 0, BuildingBlock: IZENUY_clean_sbu_0, # of connection points: 6
#     Node 11, Type 0, BuildingBlock: IZENUY_clean_sbu_0, # of connection points: 6
#     Edge 12, Type (0, 0), BuildingBlock: TEMPAE_clean_linker_10, # of connection points: 2
#     Edge 13, Type (0, 0), BuildingBlock: TEMPAE_clean_linker_10, # of connection points: 2
#     Edge 14, Type (0, 0), BuildingBlock: TEMPAE_clean_linker_10, # of connection points: 2
#     Edge 15, Type (0, 0), BuildingBlock: TEMPAE_clean_linker_10, # of connection points: 2
#     Edge 16, Type (0, 0), BuildingBlock: TEMPAE_clean_linker_10, # of connection points: 2
#     Edge 17, Type (0, 0), BuildingBlock: TEMPAE_clean_linker_10, # of connection points: 2
#     Edge 18, Type (0, 0), BuildingBlock: TEMPAE_clean_linker_10, # of connection points: 2
#     Edge 19, Type (0, 0), BuildingBlock: TEMPAE_clean_linker_10, # of connection points: 2
#     Edge 20, Type (0, 0), BuildingBlock: TEMPAE_clean_linker_10, # of connection points: 2
#     Edge 21, Type (0, 0), BuildingBlock: TEMPAE_clean_linker_10, # of connection points: 2
#     Edge 22, Type (0, 0), BuildingBlock: TEMPAE_clean_linker_10, # of connection points: 2
#     Edge 23, Type (0, 0), BuildingBlock: TEMPAE_clean_linker_10, # of connection points: 2
#     Edge 24, Type (0, 0), BuildingBlock: TEMPAE_clean_linker_10, # of connection points: 2
#     Edge 25, Type (0, 0), BuildingBlock: TEMPAE_clean_linker_10, # of connection points: 2
#     Edge 26, Type (0, 0), BuildingBlock: TEMPAE_clean_linker_10, # of connection points: 2
#     Edge 27, Type (0, 0), BuildingBlock: TEMPAE_clean_linker_10, # of connection points: 2
#     Edge 28, Type (0, 0), BuildingBlock: TEMPAE_clean_linker_10, # of connection points: 2
#     Edge 29, Type (0, 0), BuildingBlock: TEMPAE_clean_linker_10, # of connection points: 2
#     Edge 30, Type (0, 0), BuildingBlock: TEMPAE_clean_linker_10, # of connection points: 2
#     Edge 31, Type (0, 0), BuildingBlock: TEMPAE_clean_linker_10, # of connection points: 2
#     Edge 32, Type (0, 0), BuildingBlock: TEMPAE_clean_linker_10, # of connection points: 2
#     Edge 33, Type (0, 0), BuildingBlock: TEMPAE_clean_linker_10, # of connection points: 2
#     Edge 34, Type (0, 0), BuildingBlock: TEMPAE_clean_linker_10, # of connection points: 2
#     Edge 35, Type (0, 0), BuildingBlock: TEMPAE_clean_linker_10, # of connection points: 2
#     Edge 36, Type (0, 0), BuildingBlock: TEMPAE_clean_linker_10, # of connection points: 2
#     Edge 37, Type (0, 0), BuildingBlock: TEMPAE_clean_linker_10, # of connection points: 2
#     Edge 38, Type (0, 0), BuildingBlock: TEMPAE_clean_linker_10, # of connection points: 2
#     Edge 39, Type (0, 0), BuildingBlock: TEMPAE_clean_linker_10, # of connection points: 2
#     Edge 40, Type (0, 0), BuildingBlock: TEMPAE_clean_linker_10, # of connection points: 2
#     Edge 41, Type (0, 0), BuildingBlock: TEMPAE_clean_linker_10, # of connection points: 2
#     Edge 42, Type (0, 0), BuildingBlock: TEMPAE_clean_linker_10, # of connection points: 2
#     Edge 43, Type (0, 0), BuildingBlock: TEMPAE_clean_linker_10, # of connection points: 2
#     Edge 44, Type (0, 0), BuildingBlock: TEMPAE_clean_linker_10, # of connection points: 2
#     Edge 45, Type (0, 0), BuildingBlock: TEMPAE_clean_linker_10, # of connection points: 2
#     Edge 46, Type (0, 0), BuildingBlock: TEMPAE_clean_linker_10, # of connection points: 2
#     Edge 47, Type (0, 0), BuildingBlock: TEMPAE_clean_linker_10, # of connection points: 2
# Relax obj value: 0.142
# Max RMSD: 0.113
# Mean RMSD: 0.113
data_MOF--net-smw--node1-IZENUY_clean_sbu_0--edge1-TEMPAE_clean_linker_10
_symmetry_space_group_name_H-M    P1
_symmetry_Int_Tables_number       1
_symmetry_cell_setting            triclinic
loop_
_symmetry_equiv_pos_as_xyz
'x, y, z'
_cell_length_a     57.674883
_cell_length_b     57.682759
_cell_length_c     20.282243
_cell_angle_alpha  89.963992
_cell_angle_beta   89.976322
_cell_angle_gamma 120.01001
loop_
_atom_site_label
_atom_site_type_symbol
_atom_site_fract_x
_atom_site_fract_y
_atom_site_fract_z
_atom_type_partial_charge
Fe0 Fe 0.48687 0.15603 0.99576 0.0
Fe1 Fe 0.46508 0.09575 0.00439 0.0
O2 O 0.45934 0.12308 0.00207 0.0
Fe3 Fe 0.42614 0.11729 0.00546 0.0
O4 O 0.43283 0.14595 0.95238 0.0
O5 O 0.47433 0.16161 0.9189 0.0
O6 O 0.50753 0.14658 0.94604 0.0
C7 C 0.50107 0.12616 0.91056 0.0
C8 C 0.45157 0.1616 0.08398 0.0
O9 O 0.48059 0.10403 0.92375 0.0
C10 C 0.42584 0.07936 0.09647 0.0
O11 O 0.50143 0.15267 0.07243 0.0
O12 O 0.49761 0.11403 0.04615 0.0
O13 O 0.43326 0.13741 0.07967 0.0
O14 O 0.47109 0.17136 0.04401 0.0
C15 C 0.41871 0.07609 0.92535 0.0
O16 O 0.44983 0.0859 0.08476 0.0
O17 O 0.4136 0.08759 0.05966 0.0
C18 C 0.50789 0.13496 0.08129 0.0
O19 O 0.43371 0.07214 0.96345 0.0
O20 O 0.41674 0.09683 0.93092 0.0
C21 C 0.45161 0.15952 0.91194 0.0
Fe22 Fe 0.33445 0.4851 0.00201 0.0
Fe23 Fe 0.37296 0.46333 0.99344 0.0
O24 O 0.33987 0.45755 0.99666 0.0
Fe25 Fe 0.31246 0.4243 0.99513 0.0
O26 O 0.29889 0.43087 0.92099 0.0
O27 O 0.30307 0.469 0.95499 0.0
O28 O 0.35194 0.49916 0.92447 0.0
C29 C 0.37607 0.5056 0.91496 0.0
C30 C 0.29618 0.45047 0.08789 0.0
O31 O 0.38693 0.49557 0.95028 0.0
C32 C 0.34688 0.41747 0.0746 0.0
O33 O 0.36484 0.50612 0.05037 0.0
O34 O 0.38063 0.47938 0.07338 0.0
O35 O 0.29081 0.43134 0.04856 0.0
O36 O 0.31677 0.47312 0.07967 0.0
C37 C 0.34957 0.42348 0.90325 0.0
O38 O 0.36555 0.43228 0.03556 0.0
O39 O 0.32409 0.41541 0.06973 0.0
C40 C 0.379 0.49991 0.08586 0.0
O41 O 0.3671 0.44753 0.91379 0.0
O42 O 0.32929 0.41146 0.9408 0.0
C43 C 0.29304 0.44919 0.91602 0.0
Fe44 Fe 0.89209 0.31061 0.00259 0.0
Fe45 Fe 0.85306 0.33235 0.00062 0.0
O46 O 0.88616 0.33795 0.99986 0.0
Fe47 Fe 0.91326 0.37119 0.99605 0.0
O48 O 0.93566 0.36306 0.95092 0.0
O49 O 0.91082 0.32058 0.92514 0.0
O50 O 0.86215 0.28814 0.95356 0.0
C51 C 0.84739 0.29296 0.9161 0.0
C52 C 0.93257 0.34997 0.08608 0.0
O53 O 0.8452 0.31347 0.92449 0.0
C54 C 0.87704 0.37536 0.08236 0.0
O55 O 0.87383 0.29836 0.08 0.0
O56 O 0.8391 0.30174 0.04999 0.0
O57 O 0.92615 0.3675 0.074 0.0
O58 O 0.92299 0.32855 0.05235 0.0
C59 C 0.87935 0.37498 0.90989 0.0
O60 O 0.85911 0.35106 0.07725 0.0
O61 O 0.89618 0.38581 0.04153 0.0
C62 C 0.84976 0.29237 0.08801 0.0
O63 O 0.86065 0.36185 0.95062 0.0
O64 O 0.90192 0.37679 0.91717 0.0
C65 C 0.93118 0.34327 0.91558 0.0
Fe66 Fe 0.54615 0.91027 0.00547 0.0
Fe67 Fe 0.58601 0.88982 0.99795 0.0
O68 O 0.55238 0.88318 0.00131 0.0
Fe69 Fe 0.52495 0.84996 0.00115 0.0
O70 O 0.5033 0.85826 0.95166 0.0
O71 O 0.5287 0.90114 0.92751 0.0
O72 O 0.57637 0.93402 0.96084 0.0
C73 C 0.59058 0.93043 0.91932 0.0
C74 C 0.50545 0.87218 0.08753 0.0
O75 O 0.59298 0.90987 0.92297 0.0
C76 C 0.56314 0.84682 0.08346 0.0
O77 O 0.56313 0.92053 0.08393 0.0
O78 O 0.59919 0.9197 0.05137 0.0
O79 O 0.51207 0.85467 0.07904 0.0
O80 O 0.51453 0.89236 0.05042 0.0
C81 C 0.55815 0.84526 0.91146 0.0
O82 O 0.5819 0.87033 0.07205 0.0
O83 O 0.54187 0.8361 0.04967 0.0
C84 C 0.58734 0.92703 0.09206 0.0
O85 O 0.57859 0.86111 0.9448 0.0
O86 O 0.5354 0.84222 0.92422 0.0
C87 C 0.50857 0.87845 0.91608 0.0
Fe88 Fe 0.63827 0.542 0.00147 0.0
Fe89 Fe 0.69854 0.58236 0.00206 0.0
O90 O 0.67173 0.54875 0.00404 0.0
Fe91 Fe 0.67811 0.52181 0.00811 0.0
O92 O 0.66036 0.5076 0.93085 0.0
O93 O 0.62487 0.50992 0.95899 0.0
O94 O 0.64372 0.55774 0.92145 0.0
C95 C 0.66105 0.58183 0.91052 0.0
C96 C 0.63372 0.50578 0.09378 0.0
O97 O 0.68086 0.59442 0.94889 0.0
C98 C 0.71621 0.55697 0.09325 0.0
O99 O 0.64502 0.57274 0.04377 0.0
O100 O 0.68668 0.59085 0.07693 0.0
O101 O 0.64836 0.50029 0.05799 0.0
O102 O 0.63093 0.52569 0.08116 0.0
C103 C 0.71866 0.55848 0.92127 0.0
O104 O 0.72088 0.5761 0.05454 0.0
O105 O 0.69612 0.53401 0.08502 0.0
C106 C 0.66358 0.58808 0.08243 0.0
O107 O 0.71234 0.57643 0.92725 0.0
O108 O 0.70915 0.53858 0.95995 0.0
C109 C 0.6361 0.50077 0.92242 0.0
Fe110 Fe 0.09875 0.63744 0.99781 0.0
Fe111 Fe 0.11964 0.69788 0.00654 0.0
O112 O 0.12579 0.67077 0.99952 0.0
Fe113 Fe 0.15903 0.67694 0.99431 0.0
O114 O 0.15081 0.64787 0.94176 0.0
O115 O 0.10833 0.63149 0.91719 0.0
O116 O 0.07558 0.64566 0.95649 0.0
C117 C 0.0796 0.66559 0.92196 0.0
C118 C 0.13723 0.63368 0.07619 0.0
O119 O 0.09999 0.68832 0.93078 0.0
C120 C 0.1631 0.71563 0.08712 0.0
O121 O 0.08738 0.64105 0.07815 0.0
O122 O 0.0894 0.6795 0.05807 0.0
O123 O 0.15503 0.65795 0.06947 0.0
O124 O 0.11691 0.62309 0.0391 0.0
C125 C 0.16251 0.71661 0.9147 0.0
O126 O 0.13881 0.70927 0.08268 0.0
O127 O 0.17357 0.70733 0.04529 0.0
C128 C 0.08073 0.65825 0.09198 0.0
O129 O 0.14885 0.72113 0.95642 0.0
O130 O 0.16488 0.69609 0.91918 0.0
C131 C 0.13087 0.63386 0.90494 0.0
Fe132 Fe 0.89266 0.5842 0.50566 0.0
Fe133 Fe 0.85339 0.52356 0.49747 0.0
O134 O 0.8866 0.55083 0.50356 0.0
Fe135 Fe 0.91377 0.54476 0.50739 0.0
O136 O 0.92415 0.56115 0.58631 0.0
O137 O 0.92247 0.59715 0.55938 0.0
O138 O 0.87262 0.57756 0.58004 0.0
C139 C 0.84833 0.55946 0.58457 0.0
C140 C 0.93353 0.59056 0.42555 0.0
O141 O 0.83838 0.53997 0.54458 0.0
C142 C 0.88279 0.50759 0.41527 0.0
O143 O 0.86399 0.57742 0.45264 0.0
O144 O 0.84835 0.53591 0.41985 0.0
O145 O 0.93723 0.57534 0.46352 0.0
O146 O 0.91307 0.59304 0.43112 0.0
C147 C 0.87457 0.50404 0.58743 0.0
O148 O 0.86226 0.50219 0.44919 0.0
O149 O 0.90523 0.52769 0.42852 0.0
C150 C 0.85052 0.5586 0.41237 0.0
O151 O 0.85621 0.50919 0.57473 0.0
O152 O 0.89547 0.5133 0.55256 0.0
C153 C 0.93083 0.58521 0.59667 0.0
Fe154 Fe 0.31242 0.89002 0.50339 0.0
Fe155 Fe 0.33394 0.85051 0.50464 0.0
O156 O 0.33962 0.8837 0.50258 0.0
Fe157 Fe 0.37301 0.91088 0.5 0.0
O158 O 0.36879 0.92332 0.57799 0.0
O159 O 0.33036 0.92091 0.55371 0.0
O160 O 0.29927 0.87194 0.58015 0.0
C161 C 0.29456 0.84853 0.59221 0.0
C162 C 0.34576 0.92904 0.41807 0.0
O163 O 0.30417 0.8373 0.55693 0.0
C164 C 0.37688 0.87717 0.41301 0.0
O165 O 0.28995 0.86031 0.45402 0.0
O166 O 0.31409 0.84146 0.4303 0.0
O167 O 0.36514 0.93351 0.45494 0.0
O168 O 0.32311 0.90857 0.4261 0.0
C169 C 0.37742 0.87461 0.58499 0.0
O170 O 0.36286 0.85784 0.45183 0.0
O171 O 0.37915 0.89989 0.42174 0.0
C172 C 0.29398 0.84414 0.42024 0.0
O173 O 0.35318 0.85685 0.58007 0.0
O174 O 0.38777 0.8939 0.5449 0.0
C175 C 0.35141 0.93005 0.58889 0.0
Fe176 Fe 0.48614 0.33101 0.50707 0.0
Fe177 Fe 0.46539 0.37047 0.50347 0.0
O178 O 0.45899 0.33708 0.5025 0.0
Fe179 Fe 0.42567 0.30989 0.49695 0.0
O180 O 0.43189 0.28713 0.54871 0.0
O181 O 0.47341 0.31237 0.58294 0.0
O182 O 0.50731 0.36038 0.55819 0.0
C183 C 0.50158 0.37441 0.59538 0.0
C184 C 0.45098 0.2914 0.4168 0.0
O185 O 0.48135 0.37679 0.58377 0.0
C186 C 0.42611 0.34929 0.4102 0.0
O187 O 0.50057 0.34946 0.43106 0.0
O188 O 0.49769 0.38454 0.46121 0.0
O189 O 0.43297 0.29765 0.42149 0.0
O190 O 0.47011 0.30036 0.45758 0.0
C191 C 0.41822 0.34282 0.58009 0.0
O192 O 0.45002 0.36652 0.42356 0.0
O193 O 0.41367 0.32796 0.44415 0.0
C194 C 0.50712 0.37372 0.42392 0.0
O195 O 0.43424 0.3626 0.54539 0.0
O196 O 0.41583 0.32004 0.57212 0.0
C197 C 0.45056 0.29189 0.58924 0.0
Fe198 Fe 0.11977 0.42488 0.50154 0.0
Fe199 Fe 0.1588 0.48558 0.49432 0.0
O200 O 0.12569 0.45816 0.49793 0.0
Fe201 Fe 0.09842 0.46414 0.49791 0.0
O202 O 0.08728 0.4483 0.57749 0.0
O203 O 0.08949 0.41222 0.55379 0.0
O204 O 0.13907 0.43159 0.57722 0.0
C205 C 0.16323 0.44981 0.58312 0.0
C206 C 0.07947 0.41785 0.4186 0.0
O207 O 0.17342 0.4695 0.54379 0.0
C208 C 0.13044 0.50072 0.40635 0.0
O209 O 0.14901 0.4317 0.45025 0.0
O210 O 0.16534 0.47347 0.41816 0.0
O211 O 0.07534 0.43313 0.45522 0.0
O212 O 0.10006 0.41573 0.4258 0.0
C213 C 0.1365 0.50593 0.57798 0.0
O214 O 0.15034 0.50663 0.4433 0.0
O215 O 0.10788 0.48046 0.41815 0.0
C216 C 0.16318 0.45076 0.41093 0.0
O217 O 0.15438 0.49962 0.57069 0.0
O218 O 0.11625 0.49631 0.54076 0.0
C219 C 0.08065 0.42428 0.58928 0.0
Fe220 Fe 0.67791 0.15614 0.50432 0.0
Fe221 Fe 0.63966 0.09595 0.49246 0.0
O222 O 0.67263 0.12322 0.49874 0.0
Fe223 Fe 0.69999 0.11729 0.49948 0.0
O224 O 0.72093 0.14557 0.55446 0.0
O225 O 0.69478 0.16152 0.58303 0.0
O226 O 0.64698 0.1463 0.55102 0.0
C227 C 0.63241 0.1256 0.58526 0.0
C228 C 0.72044 0.16208 0.42153 0.0
O229 O 0.63085 0.1035 0.5721 0.0
C230 C 0.66473 0.08098 0.40328 0.0
O231 O 0.66125 0.15316 0.42559 0.0
O232 O 0.62609 0.11447 0.44936 0.0
O233 O 0.71462 0.13793 0.42656 0.0
O234 O 0.70979 0.17168 0.45918 0.0
C235 C 0.66442 0.0753 0.57545 0.0
O236 O 0.64685 0.08712 0.41261 0.0
O237 O 0.68384 0.08806 0.44396 0.0
C238 C 0.6372 0.13553 0.41486 0.0
O239 O 0.64654 0.07193 0.53437 0.0
O240 O 0.68725 0.09613 0.57292 0.0
C241 C 0.71522 0.15936 0.59282 0.0
Fe242 Fe 0.58647 0.69713 0.50293 0.0
Fe243 Fe 0.52602 0.67656 0.49249 0.0
O244 O 0.55298 0.67031 0.49971 0.0
Fe245 Fe 0.5464 0.63702 0.50382 0.0
O246 O 0.56136 0.64267 0.58481 0.0
O247 O 0.59826 0.67956 0.5574 0.0
O248 O 0.57956 0.7105 0.57686 0.0
C249 C 0.56162 0.71689 0.58052 0.0
C250 C 0.59307 0.66233 0.42465 0.0
O251 O 0.54244 0.70792 0.53974 0.0
C252 C 0.51096 0.63183 0.40906 0.0
O253 O 0.58054 0.7195 0.44941 0.0
O254 O 0.53907 0.69424 0.41512 0.0
O255 O 0.57762 0.64386 0.46352 0.0
O256 O 0.59562 0.68537 0.42897 0.0
C257 C 0.50402 0.63485 0.57942 0.0
O258 O 0.50492 0.64637 0.44356 0.0
O259 O 0.53107 0.62963 0.42301 0.0
C260 C 0.56202 0.71456 0.4085 0.0
O261 O 0.51098 0.65912 0.56972 0.0
O262 O 0.51388 0.62366 0.54485 0.0
C263 C 0.58542 0.65994 0.5962 0.0
C264 C 0.46566 0.20756 0.12575 0.0
C265 C 0.44911 0.17971 0.13188 0.0
C266 C 0.46399 0.22519 0.17049 0.0
C267 C 0.4455 0.2148 0.22329 0.0
C268 C 0.42844 0.18675 0.22938 0.0
C269 C 0.43036 0.16953 0.1834 0.0
C270 C 0.48244 0.25496 0.16197 0.0
C271 C 0.40866 0.17493 0.2854 0.0
C272 C 0.46467 0.25938 0.37425 0.0
C273 C 0.44862 0.27123 0.36776 0.0
C274 C 0.46324 0.24048 0.32862 0.0
C275 C 0.44551 0.23332 0.27449 0.0
C276 C 0.42899 0.24492 0.26785 0.0
C277 C 0.43065 0.26366 0.31479 0.0
C278 C 0.48107 0.22848 0.33785 0.0
C279 C 0.41001 0.23794 0.21043 0.0
H280 H 0.48005 0.2157 0.08579 0.0
H281 H 0.41749 0.14807 0.18851 0.0
H282 H 0.4707 0.26541 0.16107 0.0
H283 H 0.49638 0.26298 0.20444 0.0
H284 H 0.49445 0.25988 0.11595 0.0
H285 H 0.39583 0.15285 0.2812 0.0
H286 H 0.41956 0.17962 0.333 0.0
H287 H 0.39561 0.18396 0.28689 0.0
H288 H 0.47846 0.26485 0.4153 0.0
H289 H 0.41819 0.2727 0.30939 0.0
H290 H 0.49532 0.23428 0.29602 0.0
H291 H 0.46888 0.20631 0.33814 0.0
H292 H 0.49273 0.23512 0.38442 0.0
H293 H 0.42153 0.24417 0.16364 0.0
H294 H 0.39771 0.24779 0.21383 0.0
H295 H 0.39644 0.21596 0.20791 0.0
C296 C 0.18924 0.4293 0.3717 0.0
C297 C 0.18045 0.44773 0.36158 0.0
C298 C 0.20765 0.42807 0.3284 0.0
C299 C 0.21704 0.44527 0.27286 0.0
C300 C 0.20747 0.46325 0.2612 0.0
C301 C 0.18955 0.46447 0.30605 0.0
C302 C 0.21772 0.40899 0.34326 0.0
C303 C 0.21651 0.48153 0.20185 0.0
C304 C 0.28405 0.46452 0.19315 0.0
C305 C 0.27619 0.44758 0.1381 0.0
C306 C 0.26507 0.46332 0.23859 0.0
C307 C 0.23749 0.44516 0.22796 0.0
C308 C 0.22947 0.42772 0.17297 0.0
C309 C 0.24894 0.42893 0.12912 0.0
C310 C 0.27452 0.48187 0.29733 0.0
C311 C 0.20027 0.40844 0.15915 0.0
H312 H 0.18248 0.41648 0.41486 0.0
H313 H 0.18271 0.47865 0.29778 0.0
H314 H 0.21417 0.39564 0.30052 0.0
H315 H 0.23966 0.42046 0.35178 0.0
H316 H 0.20792 0.39644 0.3874 0.0
H317 H 0.20595 0.49314 0.1977 0.0
H318 H 0.23833 0.49582 0.20504 0.0
H319 H 0.21297 0.46969 0.15609 0.0
H320 H 0.30509 0.47886 0.20056 0.0
H321 H 0.24269 0.41594 0.08635 0.0
H322 H 0.26629 0.47026 0.34349 0.0
H323 H 0.26704 0.4962 0.29366 0.0
H324 H 0.29671 0.49344 0.30107 0.0
H325 H 0.19067 0.39538 0.20254 0.0
H326 H 0.19738 0.3956 0.1156 0.0
H327 H 0.1897 0.41978 0.15016 0.0
C328 C 0.80459 0.26005 0.13281 0.0
C329 C 0.83255 0.27204 0.13759 0.0
C330 C 0.7876 0.2411 0.17906 0.0
C331 C 0.79873 0.23403 0.23217 0.0
C332 C 0.82692 0.24573 0.23704 0.0
C333 C 0.84353 0.26452 0.18941 0.0
C334 C 0.75767 0.22898 0.17162 0.0
C335 C 0.8395 0.23885 0.29334 0.0
C336 C 0.75325 0.20812 0.38175 0.0
C337 C 0.74161 0.18028 0.37486 0.0
C338 C 0.77275 0.22581 0.33735 0.0
C339 C 0.78066 0.21548 0.28409 0.0
C340 C 0.76948 0.18743 0.2776 0.0
C341 C 0.75018 0.17014 0.32329 0.0
C342 C 0.78428 0.25558 0.34637 0.0
C343 C 0.77722 0.17565 0.22108 0.0
H344 H 0.79583 0.26545 0.09259 0.0
H345 H 0.86509 0.27368 0.19346 0.0
H346 H 0.74775 0.20681 0.17142 0.0
H347 H 0.74955 0.23475 0.21418 0.0
H348 H 0.75218 0.23554 0.1256 0.0
H349 H 0.86161 0.24869 0.28845 0.0
H350 H 0.83471 0.24517 0.34065 0.0
H351 H 0.8311 0.21687 0.29601 0.0
H352 H 0.74704 0.2162 0.42187 0.0
H353 H 0.74132 0.14868 0.31763 0.0
H354 H 0.77794 0.26369 0.3049 0.0
H355 H 0.80648 0.26598 0.34573 0.0
H356 H 0.7777 0.26044 0.39328 0.0
H357 H 0.77042 0.18002 0.17392 0.0
H358 H 0.76828 0.15362 0.22575 0.0
H359 H 0.79931 0.18497 0.21826 0.0
C360 C 0.57978 0.76229 0.37666 0.0
C361 C 0.56576 0.73511 0.35949 0.0
C362 C 0.58125 0.78195 0.33316 0.0
C363 C 0.56916 0.7743 0.27018 0.0
C364 C 0.55595 0.74694 0.25165 0.0
C365 C 0.55397 0.72761 0.29705 0.0
C366 C 0.59469 0.81073 0.35574 0.0
C367 C 0.54344 0.73801 0.18435 0.0
C368 C 0.54526 0.81614 0.17952 0.0
C369 C 0.56618 0.83047 0.13489 0.0
C370 C 0.54652 0.79864 0.22555 0.0
C371 C 0.56881 0.79459 0.22519 0.0
C372 C 0.59015 0.80925 0.18042 0.0
C373 C 0.58877 0.82741 0.13641 0.0
C374 C 0.52375 0.78414 0.27381 0.0
C375 C 0.61387 0.80494 0.17718 0.0
H376 H 0.58858 0.76806 0.42537 0.0
H377 H 0.5432 0.70659 0.28375 0.0
H378 H 0.61046 0.82385 0.3202 0.0
H379 H 0.57977 0.81751 0.3575 0.0
H380 H 0.60388 0.8135 0.40534 0.0
H381 H 0.53628 0.71648 0.17534 0.0
H382 H 0.52619 0.74137 0.17952 0.0
H383 H 0.55811 0.75002 0.14541 0.0
H384 H 0.52782 0.81864 0.17827 0.0
H385 H 0.60478 0.83828 0.10118 0.0
H386 H 0.53161 0.78684 0.32485 0.0
H387 H 0.51302 0.76237 0.26316 0.0
H388 H 0.50912 0.79132 0.27153 0.0
H389 H 0.62347 0.80831 0.22627 0.0
H390 H 0.62911 0.81841 0.14088 0.0
H391 H 0.607 0.78389 0.16317 0.0
C392 C 0.72917 0.5433 0.19749 0.0
C393 C 0.73652 0.56034 0.14264 0.0
C394 C 0.74852 0.54485 0.24203 0.0
C395 C 0.77592 0.56348 0.23057 0.0
C396 C 0.78341 0.58102 0.17584 0.0
C397 C 0.76358 0.57944 0.13289 0.0
C398 C 0.73966 0.52619 0.30064 0.0
C399 C 0.81244 0.6008 0.1613 0.0
C400 C 0.82433 0.5798 0.37332 0.0
C401 C 0.83346 0.56167 0.36274 0.0
C402 C 0.80583 0.58087 0.33025 0.0
C403 C 0.79673 0.56382 0.27457 0.0
C404 C 0.80672 0.54625 0.26224 0.0
C405 C 0.82474 0.54517 0.3069 0.0
C406 C 0.79528 0.59951 0.3457 0.0
C407 C 0.79794 0.52815 0.20263 0.0
H408 H 0.70826 0.52861 0.20539 0.0
H409 H 0.76939 0.59249 0.0902 0.0
H410 H 0.74763 0.51228 0.2963 0.0
H411 H 0.74784 0.53778 0.34679 0.0
H412 H 0.71751 0.51416 0.30493 0.0
H413 H 0.81487 0.61366 0.11806 0.0
H414 H 0.82203 0.61383 0.20467 0.0
H415 H 0.82336 0.58987 0.15143 0.0
H416 H 0.83082 0.59243 0.41677 0.0
H417 H 0.83187 0.53123 0.29839 0.0
H418 H 0.77341 0.58765 0.35509 0.0
H419 H 0.79829 0.61273 0.30295 0.0
H420 H 0.80513 0.6122 0.38953 0.0
H421 H 0.77624 0.51341 0.20621 0.0
H422 H 0.80901 0.51707 0.19771 0.0
H423 H 0.80101 0.54004 0.15712 0.0
C424 C 0.27022 0.80063 0.36014 0.0
C425 C 0.27349 0.82602 0.37243 0.0
C426 C 0.25081 0.7829 0.3157 0.0
C427 C 0.23469 0.79099 0.2812 0.0
C428 C 0.23791 0.81664 0.2933 0.0
C429 C 0.25704 0.83373 0.33951 0.0
C430 C 0.24768 0.75554 0.30539 0.0
C431 C 0.2216 0.82625 0.25627 0.0
C432 C 0.20717 0.75434 0.11944 0.0
C433 C 0.18062 0.73576 0.13616 0.0
C434 C 0.22457 0.77318 0.16537 0.0
C435 C 0.21546 0.77296 0.23033 0.0
C436 C 0.18853 0.75442 0.24731 0.0
C437 C 0.17129 0.73626 0.19962 0.0
C438 C 0.25288 0.793 0.14464 0.0
C439 C 0.17824 0.75311 0.31643 0.0
H440 H 0.28264 0.79441 0.38608 0.0
H441 H 0.25957 0.85337 0.34874 0.0
H442 H 0.22649 0.73979 0.31303 0.0
H443 H 0.25306 0.75367 0.25394 0.0
H444 H 0.26048 0.75166 0.3393 0.0
H445 H 0.22615 0.84652 0.27219 0.0
H446 H 0.22568 0.82682 0.20264 0.0
H447 H 0.19992 0.81212 0.26354 0.0
H448 H 0.21433 0.75424 0.07004 0.0
H449 H 0.15078 0.72185 0.2126 0.0
H450 H 0.26716 0.78886 0.17157 0.0
H451 H 0.25777 0.81366 0.15746 0.0
H452 H 0.25607 0.79214 0.09087 0.0
H453 H 0.18941 0.74745 0.35129 0.0
H454 H 0.15654 0.73835 0.32099 0.0
H455 H 0.18171 0.77305 0.33176 0.0
C456 C 0.5708 0.73628 0.69396 0.0
C457 C 0.56446 0.7375 0.62793 0.0
C458 C 0.57123 0.7546 0.74035 0.0
C459 C 0.56607 0.77506 0.71947 0.0
C460 C 0.56091 0.77704 0.65205 0.0
C461 C 0.55971 0.75794 0.60731 0.0
C462 C 0.57609 0.75139 0.81203 0.0
C463 C 0.55609 0.79898 0.62737 0.0
C464 C 0.53744 0.80412 0.84136 0.0
C465 C 0.56033 0.82788 0.8609 0.0
C466 C 0.53915 0.78665 0.79614 0.0
C467 C 0.56429 0.79331 0.76855 0.0
C468 C 0.58743 0.81747 0.78716 0.0
C469 C 0.58522 0.83435 0.83367 0.0
C470 C 0.51404 0.76089 0.77837 0.0
C471 C 0.61447 0.82556 0.75764 0.0
H472 H 0.57431 0.72034 0.70976 0.0
H473 H 0.5551 0.759 0.55593 0.0
H474 H 0.59289 0.77033 0.83146 0.0
H475 H 0.55804 0.74683 0.84135 0.0
H476 H 0.58076 0.7351 0.81983 0.0
H477 H 0.55503 0.79928 0.5727 0.0
H478 H 0.537 0.79613 0.64783 0.0
H479 H 0.5723 0.81878 0.64443 0.0
H480 H 0.51815 0.79882 0.86253 0.0
H481 H 0.60297 0.85272 0.84833 0.0
H482 H 0.51682 0.74355 0.7889 0.0
H483 H 0.50998 0.76057 0.72484 0.0
H484 H 0.49622 0.75823 0.80594 0.0
H485 H 0.62014 0.81024 0.76908 0.0
H486 H 0.63041 0.84524 0.77631 0.0
H487 H 0.61353 0.82666 0.70316 0.0
C488 C 0.74687 0.57988 0.8202 0.0
C489 C 0.73917 0.56145 0.87229 0.0
C490 C 0.76566 0.58189 0.77282 0.0
C491 C 0.77719 0.56527 0.77809 0.0
C492 C 0.76998 0.54715 0.8315 0.0
C493 C 0.75103 0.54538 0.87758 0.0
C494 C 0.77268 0.60129 0.71627 0.0
C495 C 0.7819 0.52919 0.83934 0.0
C496 C 0.80249 0.54576 0.62708 0.0
C497 C 0.83038 0.56206 0.63292 0.0
C498 C 0.78502 0.54733 0.67263 0.0
C499 C 0.79559 0.56548 0.72601 0.0
C500 C 0.82369 0.58234 0.73173 0.0
C501 C 0.84076 0.58053 0.68494 0.0
C502 C 0.7552 0.52909 0.66438 0.0
C503 C 0.83573 0.60178 0.78826 0.0
H504 H 0.73782 0.59237 0.81568 0.0
H505 H 0.74548 0.53126 0.91795 0.0
H506 H 0.79469 0.6147 0.71343 0.0
H507 H 0.76621 0.59011 0.6691 0.0
H508 H 0.76305 0.61376 0.72098 0.0
H509 H 0.77534 0.51731 0.88564 0.0
H510 H 0.77593 0.51515 0.79709 0.0
H511 H 0.80408 0.54131 0.83923 0.0
H512 H 0.7942 0.53159 0.58677 0.0
H513 H 0.86225 0.59321 0.68989 0.0
H514 H 0.74487 0.54095 0.66465 0.0
H515 H 0.74719 0.51488 0.70638 0.0
H516 H 0.75013 0.51739 0.61788 0.0
H517 H 0.82676 0.61486 0.79101 0.0
H518 H 0.85781 0.61459 0.78363 0.0
H519 H 0.83116 0.59059 0.83545 0.0
C520 C 0.28158 0.81731 0.68719 0.0
C521 C 0.27553 0.83267 0.64466 0.0
C522 C 0.26283 0.80013 0.7337 0.0
C523 C 0.23707 0.7975 0.73584 0.0
C524 C 0.23102 0.8133 0.69345 0.0
C525 C 0.25055 0.83109 0.64899 0.0
C526 C 0.27041 0.78433 0.77946 0.0
C527 C 0.20356 0.8105 0.69289 0.0
C528 C 0.18314 0.73064 0.80339 0.0
C529 C 0.1796 0.73761 0.86716 0.0
C530 C 0.20087 0.7502 0.75909 0.0
C531 C 0.21616 0.77718 0.78007 0.0
C532 C 0.21245 0.78432 0.84442 0.0
C533 C 0.19385 0.76447 0.88689 0.0
C534 C 0.20366 0.74188 0.6903 0.0
C535 C 0.22899 0.81265 0.8694 0.0
H536 H 0.301 0.81868 0.68379 0.0
H537 H 0.24585 0.84278 0.61537 0.0
H538 H 0.26569 0.78664 0.83124 0.0
H539 H 0.25858 0.76273 0.76715 0.0
H540 H 0.29202 0.79071 0.77606 0.0
H541 H 0.20243 0.82503 0.65898 0.0
H542 H 0.18853 0.78994 0.6772 0.0
H543 H 0.19792 0.81344 0.74316 0.0
H544 H 0.17203 0.70983 0.78825 0.0
H545 H 0.19136 0.76975 0.93665 0.0
H546 H 0.22386 0.74432 0.68398 0.0
H547 H 0.20157 0.75489 0.65328 0.0
H548 H 0.1885 0.7207 0.67976 0.0
H549 H 0.25044 0.81837 0.87033 0.0
H550 H 0.22297 0.8151 0.9198 0.0
H551 H 0.22712 0.82679 0.83576 0.0
C552 C 0.42892 0.24427 0.62801 0.0
C553 C 0.44711 0.27151 0.63876 0.0
C554 C 0.42766 0.2246 0.67126 0.0
C555 C 0.4446 0.23242 0.72724 0.0
C556 C 0.46222 0.25996 0.73964 0.0
C557 C 0.46345 0.27913 0.69493 0.0
C558 C 0.40894 0.19544 0.65575 0.0
C559 C 0.48022 0.2692 0.79943 0.0
C560 C 0.42907 0.18422 0.87065 0.0
C561 C 0.44821 0.17626 0.86169 0.0
C562 C 0.42732 0.20212 0.82667 0.0
C563 C 0.44476 0.21189 0.77167 0.0
C564 C 0.46341 0.20308 0.76098 0.0
C565 C 0.46509 0.1856 0.80647 0.0
C566 C 0.4075 0.21138 0.84046 0.0
C567 C 0.48202 0.2126 0.70228 0.0
H568 H 0.41641 0.23825 0.58436 0.0
H569 H 0.47743 0.30017 0.70368 0.0
H570 H 0.42072 0.18535 0.64647 0.0
H571 H 0.39567 0.18526 0.69845 0.0
H572 H 0.39631 0.1927 0.61184 0.0
H573 H 0.49145 0.29135 0.80425 0.0
H574 H 0.46823 0.26048 0.84487 0.0
H575 H 0.49485 0.26208 0.79621 0.0
H576 H 0.41608 0.17725 0.91347 0.0
H577 H 0.47979 0.17937 0.79902 0.0
H578 H 0.39462 0.20795 0.79677 0.0
H579 H 0.41842 0.23323 0.85031 0.0
H580 H 0.3945 0.20096 0.88351 0.0
H581 H 0.47043 0.20917 0.65612 0.0
H582 H 0.4939 0.20231 0.6983 0.0
H583 H 0.49607 0.23446 0.70627 0.0
C584 C 0.20884 0.46335 0.62629 0.0
C585 C 0.18093 0.44714 0.632 0.0
C586 C 0.22618 0.4616 0.67181 0.0
C587 C 0.21546 0.44339 0.72508 0.0
C588 C 0.18733 0.4267 0.73088 0.0
C589 C 0.17038 0.42866 0.68403 0.0
C590 C 0.25604 0.47963 0.66346 0.0
C591 C 0.17515 0.40721 0.78738 0.0
C592 C 0.26409 0.42813 0.81622 0.0
C593 C 0.27234 0.44657 0.8683 0.0
C594 C 0.24504 0.42632 0.77002 0.0
C595 C 0.2338 0.44315 0.77651 0.0
C596 C 0.24153 0.46125 0.83001 0.0
C597 C 0.26075 0.46284 0.8749 0.0
C598 C 0.2375 0.40696 0.71327 0.0
C599 C 0.22992 0.47942 0.83906 0.0
H600 H 0.21727 0.47751 0.58594 0.0
H601 H 0.14886 0.41607 0.68883 0.0
H602 H 0.26422 0.4936 0.70582 0.0
H603 H 0.26615 0.46756 0.66289 0.0
H604 H 0.2612 0.4916 0.61732 0.0
H605 H 0.15303 0.39477 0.78321 0.0
H606 H 0.18374 0.39379 0.78948 0.0
H607 H 0.18007 0.41833 0.83468 0.0
H608 H 0.27291 0.41548 0.81075 0.0
H609 H 0.26673 0.47696 0.91533 0.0
H610 H 0.24397 0.41821 0.66614 0.0
H611 H 0.21544 0.39385 0.71093 0.0
H612 H 0.24682 0.39419 0.7173 0.0
H613 H 0.23598 0.4937 0.79723 0.0
H614 H 0.23666 0.49106 0.88565 0.0
H615 H 0.20773 0.46753 0.83918 0.0
C616 C 0.82045 0.28021 0.81226 0.0
C617 C 0.82968 0.27261 0.86753 0.0
C618 C 0.80249 0.26103 0.76762 0.0
C619 C 0.79298 0.2335 0.77937 0.0
C620 C 0.80236 0.22572 0.83493 0.0
C621 C 0.82085 0.24539 0.87792 0.0
C622 C 0.79347 0.27023 0.70817 0.0
C623 C 0.79231 0.19657 0.84993 0.0
C624 C 0.72652 0.1854 0.69816 0.0
C625 C 0.7348 0.17646 0.64359 0.0
C626 C 0.74517 0.20325 0.74397 0.0
C627 C 0.77285 0.21291 0.7341 0.0
C628 C 0.78129 0.20366 0.67957 0.0
C629 C 0.76215 0.18531 0.63541 0.0
C630 C 0.73529 0.21214 0.80229 0.0
C631 C 0.81061 0.21388 0.66652 0.0
H632 H 0.82735 0.30124 0.80384 0.0
H633 H 0.8277 0.23938 0.92095 0.0
H634 H 0.79731 0.26211 0.66246 0.0
H635 H 0.77159 0.26244 0.71096 0.0
H636 H 0.80384 0.2924 0.70423 0.0
H637 H 0.80179 0.19384 0.8947 0.0
H638 H 0.7703 0.18597 0.85738 0.0
H639 H 0.79631 0.18689 0.80764 0.0
H640 H 0.7054 0.17851 0.70488 0.0
H641 H 0.76872 0.1787 0.59296 0.0
H642 H 0.74257 0.2339 0.79856 0.0
H643 H 0.7434 0.20885 0.84875 0.0
H644 H 0.71308 0.20131 0.80549 0.0
H645 H 0.82106 0.23581 0.65785 0.0
H646 H 0.81385 0.20413 0.62303 0.0
H647 H 0.82006 0.21039 0.71014 0.0
C648 C 0.36191 0.9767 0.39396 0.0
C649 C 0.34943 0.95019 0.3717 0.0
C650 C 0.37034 0.99802 0.34956 0.0
C651 C 0.36686 0.99266 0.28112 0.0
C652 C 0.35274 0.96577 0.25868 0.0
C653 C 0.3439 0.94473 0.30458 0.0
C654 C 0.38479 0.02631 0.37575 0.0
C655 C 0.34893 0.95924 0.18607 0.0
C656 C 0.38417 0.05022 0.16214 0.0
C657 C 0.4108 0.05813 0.14609 0.0
C658 C 0.36945 0.02887 0.20598 0.0
C659 C 0.38157 0.01499 0.23362 0.0
C660 C 0.40843 0.02296 0.21774 0.0
C661 C 0.42274 0.04451 0.17473 0.0
C662 C 0.341 0.0212 0.2228 0.0
C663 C 0.42212 0.00863 0.24594 0.0
H664 H 0.36599 0.9808 0.44617 0.0
H665 H 0.33438 0.92416 0.28763 0.0
H666 H 0.40653 0.03556 0.36542 0.0
H667 H 0.3776 0.03868 0.35087 0.0
H668 H 0.38206 0.02698 0.42981 0.0
H669 H 0.33446 0.93773 0.17705 0.0
H670 H 0.34181 0.9715 0.16037 0.0
H671 H 0.36844 0.96413 0.16384 0.0
H672 H 0.37479 0.06063 0.14027 0.0
H673 H 0.44324 0.05032 0.16257 0.0
H674 H 0.33899 0.02272 0.27681 0.0
H675 H 0.32721 1.00006 0.20878 0.0
H676 H 0.33453 0.03409 0.19745 0.0
H677 H 0.42315 0.01051 0.30043 0.0
H678 H 0.44278 0.0167 0.22663 0.0
H679 H 0.41038 0.98697 0.23412 0.0
C680 C 0.42228 0.38279 0.33957 0.0
C681 C 0.41152 0.35615 0.36053 0.0
C682 C 0.40857 0.39018 0.29481 0.0
C683 C 0.3836 0.37041 0.26911 0.0
C684 C 0.37257 0.34345 0.28983 0.0
C685 C 0.38656 0.33667 0.33572 0.0
C686 C 0.42099 0.41922 0.27467 0.0
C687 C 0.34623 0.32175 0.26272 0.0
C688 C 0.34299 0.39826 0.18783 0.0
C689 C 0.35204 0.40126 0.12259 0.0
C690 C 0.35205 0.38698 0.23595 0.0
C691 C 0.37009 0.37808 0.2178 0.0
C692 C 0.37767 0.3794 0.15093 0.0
C693 C 0.36882 0.39123 0.10441 0.0
C694 C 0.34376 0.38627 0.30681 0.0
C695 C 0.39642 0.36973 0.129 0.0
H696 H 0.44138 0.39811 0.35886 0.0
H697 H 0.37808 0.31606 0.35165 0.0
H698 H 0.42556 0.42131 0.22114 0.0
H699 H 0.40668 0.42645 0.28349 0.0
H700 H 0.43978 0.43235 0.30195 0.0
H701 H 0.33995 0.30191 0.28526 0.0
H702 H 0.33034 0.32687 0.27147 0.0
H703 H 0.34788 0.32019 0.20859 0.0
H704 H 0.33018 0.40618 0.20203 0.0
H705 H 0.37565 0.39333 0.05377 0.0
H706 H 0.36118 0.40123 0.33571 0.0
H707 H 0.33722 0.36635 0.32894 0.0
H708 H 0.32729 0.39086 0.31172 0.0
H709 H 0.41682 0.3834 0.14826 0.0
H710 H 0.39761 0.36899 0.07443 0.0
H711 H 0.38987 0.34949 0.14915 0.0
C712 C 0.03148 0.39052 0.3893 0.0
C713 C 0.05834 0.40093 0.3712 0.0
C714 C 0.0109 0.3783 0.34281 0.0
C715 C 0.01738 0.37698 0.27615 0.0
C716 C 0.04437 0.386 0.2583 0.0
C717 C 0.0646 0.3977 0.30641 0.0
C718 C 0.9824 0.36852 0.36434 0.0
C719 C 0.05212 0.38517 0.18766 0.0
C720 C 0.9594 0.33659 0.15835 0.0
C721 C 0.95429 0.35643 0.13436 0.0
C722 C 0.98023 0.34294 0.20367 0.0
C723 C 0.99648 0.36979 0.22463 0.0
C724 C 0.9917 0.38992 0.1995 0.0
C725 C 0.9706 0.38298 0.15523 0.0
C726 C 0.98448 0.3209 0.23017 0.0
C727 C 0.00868 0.41886 0.22009 0.0
H728 H 0.02662 0.39277 0.43971 0.0
H729 H 0.0854 0.40587 0.29243 0.0
H730 H 0.97578 0.38234 0.34545 0.0
H731 H 0.96873 0.34841 0.34362 0.0
H732 H 0.98031 0.36749 0.41888 0.0
H733 H 0.07305 0.38929 0.18336 0.0
H734 H 0.03848 0.3654 0.16525 0.0
H735 H 0.05024 0.40047 0.15861 0.0
H736 H 0.94691 0.31604 0.14241 0.0
H737 H 0.96706 0.39854 0.13648 0.0
H738 H 0.9807 0.31881 0.28409 0.0
H739 H 0.00555 0.326 0.22253 0.0
H740 H 0.97107 0.30131 0.2064 0.0
H741 H 0.00607 0.42083 0.27361 0.0
H742 H 1.0034 0.4323 0.19288 0.0
H743 H 0.03018 0.42579 0.21157 0.0
C744 C 0.59043 0.94962 0.19876 0.0
C745 C 0.60298 0.94776 0.14152 0.0
C746 C 0.60376 0.97131 0.24193 0.0
C747 C 0.63006 0.99192 0.22657 0.0
C748 C 0.64324 0.9896 0.17021 0.0
C749 C 0.6296 0.96734 0.1286 0.0
C750 C 0.58923 0.97274 0.30238 0.0
C751 C 0.67109 0.01136 0.15171 0.0
C752 C 0.64509 0.05885 0.2962 0.0
C753 C 0.6598 0.06064 0.35277 0.0
C754 C 0.63668 0.03732 0.25248 0.0
C755 C 0.64262 0.0168 0.26662 0.0
C756 C 0.6585 0.01911 0.32215 0.0
C757 C 0.66716 0.04122 0.36432 0.0
C758 C 0.62031 0.03589 0.19291 0.0
C759 C 0.66488 0.99745 0.33938 0.0
H760 H 0.5699 0.93437 0.20897 0.0
H761 H 0.63927 0.96605 0.08401 0.0
H762 H 0.60199 0.97708 0.34677 0.0
H763 H 0.58485 0.98931 0.29676 0.0
H764 H 0.57003 0.95385 0.31079 0.0
H765 H 0.67956 0.00528 0.11043 0.0
H766 H 0.6705 0.02956 0.13659 0.0
H767 H 0.68475 0.0169 0.19464 0.0
H768 H 0.63955 0.07398 0.28704 0.0
H769 H 0.67835 0.04244 0.4084 0.0
H770 H 0.5994 0.01932 0.19926 0.0
H771 H 0.62842 0.03157 0.14791 0.0
H772 H 0.61994 0.05478 0.18512 0.0
H773 H 0.64628 0.97921 0.35522 0.0
H774 H 0.67981 0.0036 0.3798 0.0
H775 H 0.67266 0.99196 0.29566 0.0
C776 C 0.67673 0.62045 0.17798 0.0
C777 C 0.65785 0.60398 0.13081 0.0
C778 C 0.67022 0.63408 0.2257 0.0
C779 C 0.64424 0.63104 0.22635 0.0
C780 C 0.62554 0.61524 0.17736 0.0
C781 C 0.63255 0.60202 0.13042 0.0
C782 C 0.69077 0.65091 0.27687 0.0
C783 C 0.59755 0.61124 0.1762 0.0
C784 C 0.6099 0.63262 0.38387 0.0
C785 C 0.60926 0.65656 0.37736 0.0
C786 C 0.62264 0.62496 0.33705 0.0
C787 C 0.63521 0.6416 0.28189 0.0
C788 C 0.63594 0.66648 0.27659 0.0
C789 C 0.62293 0.67369 0.32445 0.0
C790 C 0.62124 0.59823 0.34482 0.0
C791 C 0.64931 0.68486 0.21875 0.0
H792 H 0.69635 0.62225 0.17855 0.0
H793 H 0.61779 0.58959 0.09401 0.0
H794 H 0.6921 0.6707 0.2815 0.0
H795 H 0.68459 0.64091 0.32562 0.0
H796 H 0.71094 0.65403 0.26487 0.0
H797 H 0.58605 0.59993 0.13208 0.0
H798 H 0.58647 0.60006 0.22087 0.0
H799 H 0.59834 0.63084 0.17694 0.0
H800 H 0.59977 0.61934 0.425 0.0
H801 H 0.62267 0.69226 0.31913 0.0
H802 H 0.64142 0.60053 0.33929 0.0
H803 H 0.60835 0.58438 0.30556 0.0
H804 H 0.61292 0.58882 0.39341 0.0
H805 H 0.66935 0.68722 0.20962 0.0
H806 H 0.65158 0.70496 0.2265 0.0
H807 H 0.63715 0.67599 0.1737 0.0
C808 C 0.98167 0.6171 0.39689 0.0
C809 C 0.95492 0.60694 0.37814 0.0
C810 C 1.00244 0.62899 0.35071 0.0
C811 C 0.99624 0.63017 0.28375 0.0
C812 C 0.96937 0.62124 0.26511 0.0
C813 C 0.94895 0.60992 0.31289 0.0
C814 C 0.03083 0.63873 0.37301 0.0
C815 C 0.96194 0.6219 0.19408 0.0
C816 C 0.05412 0.67111 0.16619 0.0
C817 C 0.05947 0.65149 0.14182 0.0
C818 C 0.03338 0.66451 0.2119 0.0
C819 C 0.01742 0.63762 0.23286 0.0
C820 C 0.02255 0.61772 0.20781 0.0
C821 C 0.04361 0.62492 0.16313 0.0
C822 C 0.02879 0.68633 0.23848 0.0
C823 C 0.00586 0.58875 0.22847 0.0
H824 H 0.98628 0.61502 0.44764 0.0
H825 H 0.92823 0.6019 0.29844 0.0
H826 H 0.03756 0.62497 0.35443 0.0
H827 H 0.04458 0.65888 0.35249 0.0
H828 H 0.03267 0.63967 0.4276 0.0
H829 H 0.94091 0.61736 0.18886 0.0
H830 H 0.97543 0.64177 0.17183 0.0
H831 H 0.9644 0.60686 0.1655 0.0
H832 H 0.06629 0.69168 0.14995 0.0
H833 H 0.04738 0.60955 0.14413 0.0
H834 H 0.0319 0.68798 0.29264 0.0
H835 H 0.0078 0.68125 0.22943 0.0
H836 H 0.04243 0.70611 0.21579 0.0
H837 H 0.00828 0.58683 0.28212 0.0
H838 H 0.01154 0.57552 0.20171 0.0
H839 H 0.98434 0.58152 0.21939 0.0
C840 C 0.63427 0.02889 0.61679 0.0
C841 C 0.65828 0.0534 0.62333 0.0
C842 C 0.62642 0.00848 0.66371 0.0
C843 C 0.64293 0.01245 0.71899 0.0
C844 C 0.66783 0.03658 0.72452 0.0
C845 C 0.67523 0.05683 0.67659 0.0
C846 C 0.59966 0.98318 0.65576 0.0
C847 C 0.68607 0.0415 0.78254 0.0
C848 C 0.60355 0.97508 0.87059 0.0
C849 C 0.60585 0.95194 0.87007 0.0
C850 C 0.6165 0.99535 0.8235 0.0
C851 C 0.63235 0.99267 0.7742 0.0
C852 C 0.63559 0.96985 0.77443 0.0
C853 C 0.62224 0.94969 0.8223 0.0
C854 C 0.61227 0.01918 0.82502 0.0
C855 C 0.65245 0.96635 0.72287 0.0
H856 H 0.62109 0.02577 0.57551 0.0
H857 H 0.69385 0.0756 0.68197 0.0
H858 H 0.60194 0.96528 0.66096 0.0
H859 H 0.5858 0.98213 0.69514 0.0
H860 H 0.59029 0.98221 0.60724 0.0
H861 H 0.70611 0.0595 0.77535 0.0
H862 H 0.67695 0.04439 0.82768 0.0
H863 H 0.68862 0.0239 0.79114 0.0
H864 H 0.59112 0.97725 0.90733 0.0
H865 H 0.62428 0.93201 0.8216 0.0
H866 H 0.60112 0.01911 0.78036 0.0
H867 H 0.6318 0.03809 0.82451 0.0
H868 H 0.60084 0.01915 0.86916 0.0
H869 H 0.6426 0.96295 0.67406 0.0
H870 H 0.65543 0.94916 0.73401 0.0
H871 H 0.67232 0.98479 0.71887 0.0
C872 C 0.63999 0.58338 0.80485 0.0
C873 C 0.65501 0.59664 0.86073 0.0
C874 C 0.63129 0.59624 0.76104 0.0
C875 C 0.63719 0.62272 0.77458 0.0
C876 C 0.65304 0.63649 0.82993 0.0
C877 C 0.66206 0.62335 0.87202 0.0
C878 C 0.61498 0.58113 0.70156 0.0
C879 C 0.65927 0.66453 0.84662 0.0
C880 C 0.62649 0.6602 0.63517 0.0
C881 C 0.59994 0.65376 0.64647 0.0
C882 C 0.63922 0.65081 0.67748 0.0
C883 C 0.62523 0.63521 0.73306 0.0
C884 C 0.59896 0.63 0.74667 0.0
C885 C 0.58648 0.63905 0.70263 0.0
C886 C 0.66703 0.65629 0.66068 0.0
C887 C 0.58364 0.614 0.80638 0.0
H888 H 0.63468 0.56276 0.79599 0.0
H889 H 0.67345 0.63354 0.91568 0.0
H890 H 0.59417 0.57714 0.70707 0.0
H891 H 0.6234 0.59334 0.65629 0.0
H892 H 0.61433 0.5617 0.6948 0.0
H893 H 0.67343 0.67313 0.88861 0.0
H894 H 0.66795 0.67791 0.80332 0.0
H895 H 0.64046 0.66429 0.85974 0.0
H896 H 0.63681 0.67133 0.59127 0.0
H897 H 0.56599 0.6342 0.71144 0.0
H898 H 0.66621 0.63722 0.64751 0.0
H899 H 0.68046 0.66466 0.70392 0.0
H900 H 0.67592 0.67043 0.61868 0.0
H901 H 0.57903 0.59298 0.80106 0.0
H902 H 0.56451 0.61398 0.81327 0.0
H903 H 0.59596 0.6222 0.8515 0.0
C904 C 0.96657 0.5892 0.67299 0.0
C905 C 0.95203 0.60049 0.64614 0.0
C906 C 0.98782 0.60362 0.71666 0.0
C907 C 0.9945 0.62989 0.73521 0.0
C908 C 0.97974 0.64137 0.70914 0.0
C909 C 0.95877 0.62659 0.66441 0.0
C910 C 1.00314 0.59065 0.74289 0.0
C911 C 0.98598 0.66912 0.72887 0.0
C912 C 0.0317 0.64807 0.89706 0.0
C913 C 0.05839 0.66201 0.87584 0.0
C914 C 0.01057 0.6396 0.8521 0.0
C915 C 0.01632 0.64455 0.78402 0.0
C916 C 0.0433 0.66013 0.76281 0.0
C917 C 0.06412 0.66896 0.80933 0.0
C918 C 0.98216 0.62358 0.87709 0.0
C919 C 0.05028 0.66553 0.69062 0.0
H920 H 0.9617 0.56913 0.65899 0.0
H921 H 0.94763 0.63544 0.64394 0.0
H922 H 0.02481 0.60349 0.73214 0.0
H923 H 1.00089 0.58849 0.79723 0.0
H924 H 0.99617 0.57054 0.72124 0.0
H925 H 0.97277 0.67526 0.70383 0.0
H926 H 0.98362 0.66993 0.78298 0.0
H927 H 0.0071 0.68386 0.71684 0.0
H928 H 0.02737 0.64286 0.94878 0.0
H929 H 0.08481 0.67957 0.79308 0.0
H930 H 0.97392 0.60216 0.86447 0.0
H931 H 0.96924 0.63032 0.85323 0.0
H932 H 0.98097 0.62522 0.93142 0.0
H933 H 0.04659 0.64676 0.66627 0.0
H934 H 0.0716 0.68098 0.68295 0.0
H935 H 0.03742 0.67214 0.66591 0.0
C936 C 0.33799 0.95647 0.6628 0.0
C937 C 0.35789 0.9518 0.63717 0.0
C938 C 0.34439 0.97709 0.70885 0.0
C939 C 0.37136 0.99366 0.72871 0.0
C940 C 0.39156 0.98943 0.70159 0.0
C941 C 0.38457 0.96848 0.65677 0.0
C942 C 0.32227 0.98074 0.73743 0.0
C943 C 0.42063 0.0068 0.72068 0.0
C944 C 0.39844 0.06126 0.81309 0.0
C945 C 0.40225 0.05491 0.87735 0.0
C946 C 0.38692 0.04123 0.76443 0.0
C947 C 0.37865 0.01429 0.7811 0.0
C948 C 0.38067 0.00766 0.84723 0.0
C949 C 0.39271 0.02807 0.89428 0.0
C950 C 0.38542 0.04918 0.69437 0.0
C951 C 0.37171 0.9792 0.86756 0.0
H952 H 0.31735 0.9437 0.64781 0.0
H953 H 0.40018 0.96533 0.63663 0.0
H954 H 0.32063 0.97665 0.7912 0.0
H955 H 0.32697 1.00175 0.731 0.0
H956 H 0.30257 0.96723 0.71424 0.0
H957 H 0.43408 1.00203 0.6918 0.0
H958 H 0.42706 0.02824 0.71316 0.0
H959 H 0.42321 0.00403 0.77378 0.0
H960 H 0.40594 0.08204 0.79991 0.0
H961 H 0.3954 0.02309 0.94422 0.0
H962 H 0.36555 0.03537 0.6726 0.0
H963 H 0.40068 0.04776 0.66406 0.0
H964 H 0.38912 0.06999 0.6911 0.0
H965 H 0.35147 0.96531 0.84777 0.0
H966 H 0.37126 0.97688 0.92201 0.0
H967 H 0.38564 0.97308 0.84682 0.0
C968 C 0.38164 0.41885 0.82961 0.0
C969 C 0.3555 0.40815 0.85407 0.0
C970 C 0.3884 0.40429 0.78625 0.0
C971 C 0.36843 0.3785 0.7656 0.0
C972 C 0.34191 0.36758 0.78944 0.0
C973 C 0.33578 0.38247 0.83393 0.0
C974 C 0.41701 0.41663 0.76247 0.0
C975 C 0.32003 0.34035 0.76747 0.0
C976 C 0.38868 0.36138 0.60424 0.0
C977 C 0.40051 0.34659 0.62555 0.0
C978 C 0.37586 0.3698 0.64881 0.0
C979 C 0.37553 0.36388 0.71662 0.0
C980 C 0.38592 0.34741 0.73775 0.0
C981 C 0.39811 0.33869 0.69157 0.0
C982 C 0.36459 0.38682 0.62391 0.0
C983 C 0.38623 0.34093 0.80971 0.0
H984 H 0.39712 0.43854 0.8453 0.0
H985 H 0.31554 0.37408 0.85265 0.0
H986 H 0.42494 0.40303 0.77325 0.0
H987 H 0.41781 0.41949 0.70826 0.0
H988 H 0.43039 0.43632 0.78583 0.0
H989 H 0.30054 0.3345 0.79144 0.0
H990 H 0.31749 0.34027 0.71323 0.0
H991 H 0.32565 0.32499 0.77894 0.0
H992 H 0.39038 0.36726 0.55284 0.0
H993 H 0.40743 0.32736 0.70787 0.0
H994 H 0.37811 0.40798 0.6383 0.0
H995 H 0.34472 0.38036 0.64629 0.0
H996 H 0.36251 0.38593 0.56937 0.0
H997 H 0.40144 0.35913 0.83582 0.0
H998 H 0.3912 0.32481 0.8169 0.0
H999 H 0.36657 0.3347 0.833 0.0
C1000 C 0.94618 0.34109 0.80119 0.0
C1001 C 0.95209 0.34695 0.86809 0.0
C1002 C 0.9669 0.35025 0.75415 0.0
C1003 C 0.99397 0.36515 0.77506 0.0
C1004 C 0.99986 0.36915 0.84324 0.0
C1005 C 0.97884 0.36029 0.88879 0.0
C1006 C 0.95977 0.34581 0.68192 0.0
C1007 C 0.02835 0.38449 0.86794 0.0
C1008 C 0.05149 0.38262 0.65532 0.0
C1009 C 0.05906 0.40908 0.63823 0.0
C1010 C 0.03017 0.36786 0.69932 0.0
C1011 C 0.01593 0.37975 0.72624 0.0
C1012 C 0.02343 0.40638 0.70894 0.0
C1013 C 0.04494 0.42072 0.66568 0.0
C1014 C 0.023 0.33967 0.71739 0.0
C1015 C 0.00873 0.41983 0.73625 0.0
H1016 H 0.92546 0.33102 0.78529 0.0
H1017 H 0.98334 0.36474 0.94074 0.0
H1018 H 0.96398 0.36502 0.65906 0.0
H1019 H 0.97219 0.33897 0.65589 0.0
H1020 H 0.9383 0.33088 0.6741 0.0
H1021 H 0.02958 0.38251 0.92214 0.0
H1022 H 0.04087 0.37743 0.84331 0.0
H1023 H 0.03704 0.40604 0.85595 0.0
H1024 H 0.06223 0.37342 0.63437 0.0
H1025 H 0.05042 0.44106 0.65265 0.0
H1026 H 1.00172 0.32557 0.70524 0.0
H1027 H 0.0253 0.33827 0.77132 0.0
H1028 H 0.03572 0.33313 0.69138 0.0
H1029 H 0.98704 0.40761 0.72518 0.0
H1030 H 0.01632 0.44023 0.71567 0.0
H1031 H 0.01088 0.42144 0.79066 0.0
C1032 C 0.5416 0.12352 0.1238 0.0
C1033 C 0.52961 0.13949 0.12804 0.0
C1034 C 0.56131 0.12634 0.16874 0.0
C1035 C 0.56919 0.14547 0.21996 0.0
C1036 C 0.55782 0.16228 0.22347 0.0
C1037 C 0.53823 0.15918 0.17725 0.0
C1038 C 0.57295 0.10807 0.16282 0.0
C1039 C 0.56557 0.18278 0.27758 0.0
C1040 C 0.59242 0.12531 0.37311 0.0
C1041 C 0.62042 0.14024 0.36721 0.0
C1042 C 0.57567 0.12786 0.32725 0.0
C1043 C 0.58707 0.14561 0.27334 0.0
C1044 C 0.61534 0.16143 0.26803 0.0
C1045 C 0.63173 0.15867 0.31532 0.0
C1046 C 0.54568 0.11073 0.3353 0.0
C1047 C 0.62824 0.18048 0.21106 0.0
H1048 H 0.53539 0.10848 0.08549 0.0
H1049 H 0.52914 0.17165 0.18081 0.0
H1050 H 0.59515 0.11992 0.16356 0.0
H1051 H 0.56653 0.09421 0.20558 0.0
H1052 H 0.56651 0.09597 0.11692 0.0
H1053 H 0.55702 0.19607 0.26973 0.0
H1054 H 0.55829 0.17244 0.32565 0.0
H1055 H 0.58767 0.19528 0.28095 0.0
H1056 H 0.58343 0.1113 0.41357 0.0
H1057 H 0.65332 0.1703 0.3105 0.0
H1058 H 0.53734 0.09605 0.29438 0.0
H1059 H 0.53615 0.12331 0.33288 0.0
H1060 H 0.54002 0.09957 0.38271 0.0
H1061 H 0.62425 0.16893 0.16463 0.0
H1062 H 0.65025 0.19317 0.21728 0.0
H1063 H 0.61946 0.19364 0.20553 0.0
C1064 C 0.40618 0.51049 0.18855 0.0
C1065 C 0.39735 0.51923 0.13473 0.0
C1066 C 0.42452 0.52888 0.23382 0.0
C1067 C 0.43468 0.55662 0.2238 0.0
C1068 C 0.42589 0.56552 0.16933 0.0
C1069 C 0.40705 0.54667 0.12586 0.0
C1070 C 0.43298 0.51866 0.2923 0.0
C1071 C 0.43673 0.59497 0.15635 0.0
C1072 C 0.46432 0.60423 0.368 0.0
C1073 C 0.49173 0.6136 0.35987 0.0
C1074 C 0.44549 0.58543 0.3244 0.0
C1075 C 0.45441 0.57637 0.27052 0.0
C1076 C 0.48214 0.58624 0.26121 0.0
C1077 C 0.50049 0.60451 0.30663 0.0
C1078 C 0.41605 0.57491 0.33667 0.0
C1079 C 0.49239 0.57748 0.20334 0.0
H1080 H 0.39859 0.48925 0.19547 0.0
H1081 H 0.40048 0.55347 0.08374 0.0
H1082 H 0.45488 0.52651 0.29059 0.0
H1083 H 0.42867 0.52598 0.33873 0.0
H1084 H 0.42259 0.49644 0.29392 0.0
H1085 H 0.42822 0.59856 0.11092 0.0
H1086 H 0.43218 0.60422 0.19862 0.0
H1087 H 0.45885 0.60534 0.1513 0.0
H1088 H 0.45749 0.61098 0.40971 0.0
H1089 H 0.52172 0.61185 0.30032 0.0
H1090 H 0.40547 0.55281 0.3422 0.0
H1091 H 0.40702 0.57945 0.29388 0.0
H1092 H 0.41244 0.58366 0.38162 0.0
H1093 H 0.48441 0.55557 0.20561 0.0
H1094 H 0.51461 0.58774 0.20204 0.0
H1095 H 0.48522 0.58169 0.15653 0.0
C1096 C 0.85642 0.4715 0.33342 0.0
C1097 C 0.88088 0.48817 0.36491 0.0
C1098 C 0.85397 0.45228 0.28722 0.0
C1099 C 0.87635 0.44921 0.27344 0.0
C1100 C 0.90105 0.46585 0.30554 0.0
C1101 C 0.90311 0.48536 0.35027 0.0
C1102 C 0.82753 0.43547 0.25263 0.0
C1103 C 0.92527 0.46292 0.29294 0.0
C1104 C 0.86582 0.38462 0.19502 0.0
C1105 C 0.87429 0.39306 0.13031 0.0
C1106 C 0.8661 0.40261 0.24228 0.0
C1107 C 0.87433 0.42934 0.22358 0.0
C1108 C 0.8817 0.43748 0.1574 0.0
C1109 C 0.88194 0.41936 0.11186 0.0
C1110 C 0.85858 0.39335 0.31265 0.0
C1111 C 0.8899 0.46553 0.13494 0.0
H1112 H 0.83922 0.47371 0.34441 0.0
H1113 H 0.92198 0.498 0.37502 0.0
H1114 H 0.83031 0.43847 0.19854 0.0
H1115 H 0.81993 0.41393 0.2624 0.0
H1116 H 0.81212 0.44046 0.26861 0.0
H1117 H 0.9426 0.47652 0.32424 0.0
H1118 H 0.92029 0.44198 0.30256 0.0
H1119 H 0.93135 0.46732 0.24047 0.0
H1120 H 0.86009 0.36433 0.20929 0.0
H1121 H 0.88824 0.42581 0.06152 0.0
H1122 H 0.8424 0.397 0.32964 0.0
H1123 H 0.8761 0.40505 0.34522 0.0
H1124 H 0.85178 0.37173 0.31872 0.0
H1125 H 0.87443 0.47067 0.14912 0.0
H1126 H 0.89296 0.46799 0.08073 0.0
H1127 H 0.90881 0.48011 0.15958 0.0
C1128 C 0.41882 0.89646 0.34617 0.0
C1129 C 0.39422 0.87424 0.36395 0.0
C1130 C 0.43631 0.89381 0.30285 0.0
C1131 C 0.42872 0.86845 0.27521 0.0
C1132 C 0.40376 0.84599 0.29234 0.0
C1133 C 0.38694 0.84909 0.33724 0.0
C1134 C 0.46296 0.91818 0.28675 0.0
C1135 C 0.39466 0.81881 0.26247 0.0
C1136 C 0.46405 0.87316 0.11425 0.0
C1137 C 0.48409 0.86772 0.13435 0.0
C1138 C 0.44498 0.87195 0.15897 0.0
C1139 C 0.44649 0.86596 0.22595 0.0
C1140 C 0.46624 0.85965 0.24617 0.0
C1141 C 0.48466 0.86024 0.19969 0.0
C1142 C 0.42383 0.87808 0.13493 0.0
C1143 C 0.46883 0.85372 0.31739 0.0
H1144 H 0.42471 0.91588 0.3674 0.0
H1145 H 0.36791 0.83189 0.35086 0.0
H1146 H 0.47946 0.91406 0.29706 0.0
H1147 H 0.46385 0.92295 0.2335 0.0
H1148 H 0.46651 0.93605 0.31547 0.0
H1149 H 0.37477 0.80333 0.28134 0.0
H1150 H 0.39347 0.81995 0.20806 0.0
H1151 H 0.40943 0.81235 0.27319 0.0
H1152 H 0.46352 0.87871 0.06339 0.0
H1153 H 0.50032 0.85622 0.21509 0.0
H1154 H 0.42758 0.89741 0.15591 0.0
H1155 H 0.40371 0.86241 0.15185 0.0
H1156 H 0.4236 0.87944 0.08031 0.0
H1157 H 0.4749 0.87193 0.34749 0.0
H1158 H 0.48389 0.84728 0.32422 0.0
H1159 H 0.44928 0.83784 0.33671 0.0
C1160 C 0.62492 0.46986 0.1751 0.0
C1161 C 0.61666 0.48629 0.14432 0.0
C1162 C 0.60844 0.45041 0.2212 0.0
C1163 C 0.58287 0.44693 0.23546 0.0
C1164 C 0.57436 0.46334 0.20406 0.0
C1165 C 0.59152 0.48307 0.15944 0.0
C1166 C 0.61847 0.43379 0.2551 0.0
C1167 C 0.54705 0.45995 0.21732 0.0
C1168 C 0.52867 0.38241 0.31297 0.0
C1169 C 0.52835 0.39095 0.37734 0.0
C1170 C 0.5468 0.40029 0.2662 0.0
C1171 C 0.56533 0.42693 0.28522 0.0
C1172 C 0.56599 0.43506 0.3513 0.0
C1173 C 0.54722 0.41706 0.39632 0.0
C1174 C 0.54523 0.3911 0.19585 0.0
C1175 C 0.58588 0.46305 0.37396 0.0
H1176 H 0.64443 0.47242 0.16357 0.0
H1177 H 0.58496 0.49553 0.13508 0.0
H1178 H 0.61883 0.4367 0.30925 0.0
H1179 H 0.60468 0.41223 0.24534 0.0
H1180 H 0.63889 0.43906 0.23857 0.0
H1181 H 0.54299 0.47342 0.18637 0.0
H1182 H 0.53129 0.43894 0.20772 0.0
H1183 H 0.54542 0.46421 0.26991 0.0
H1184 H 0.5139 0.36224 0.29844 0.0
H1185 H 0.54708 0.42351 0.44647 0.0
H1186 H 0.56521 0.39533 0.17855 0.0
H1187 H 0.53886 0.4024 0.16341 0.0
H1188 H 0.53084 0.36936 0.18999 0.0
H1189 H 0.60646 0.46835 0.35901 0.0
H1190 H 0.58547 0.46529 0.42829 0.0
H1191 H 0.58134 0.47764 0.35017 0.0
C1192 C 0.1109 0.52308 0.33937 0.0
C1193 C 0.13288 0.52007 0.3553 0.0
C1194 C 0.11353 0.54282 0.29464 0.0
C1195 C 0.13857 0.55944 0.26385 0.0
C1196 C 0.16069 0.55609 0.27876 0.0
C1197 C 0.15766 0.53666 0.32501 0.0
C1198 C 0.08957 0.54606 0.2808 0.0
C1199 C 0.18746 0.57288 0.24551 0.0
C1200 C 0.13374 0.59014 0.10313 0.0
C1201 C 0.14098 0.6162 0.1226 0.0
C1202 C 0.13414 0.57188 0.14797 0.0
C1203 C 0.1412 0.57966 0.21441 0.0
C1204 C 0.14925 0.60624 0.23398 0.0
C1205 C 0.14939 0.62438 0.1874 0.0
C1206 C 0.12617 0.544 0.12466 0.0
C1207 C 0.15641 0.61509 0.30468 0.0
H1208 H 0.0918 0.5105 0.36333 0.0
H1209 H 0.17465 0.53426 0.33714 0.0
H1210 H 0.09462 0.56698 0.2909 0.0
H1211 H 0.08401 0.54205 0.22799 0.0
H1212 H 0.07189 0.53235 0.31105 0.0
H1213 H 0.20255 0.56752 0.26196 0.0
H1214 H 0.18512 0.57029 0.19125 0.0
H1215 H 0.19522 0.59439 0.25601 0.0
H1216 H 0.12743 0.58393 0.05272 0.0
H1217 H 0.15475 0.6445 0.20238 0.0
H1218 H 0.10691 0.52929 0.1478 0.0
H1219 H 0.14138 0.53865 0.13986 0.0
H1220 H 0.1238 0.54201 0.07025 0.0
H1221 H 0.13858 0.6035 0.3365 0.0
H1222 H 0.16356 0.63676 0.31116 0.0
H1223 H 0.17218 0.61094 0.32224 0.0
C1224 C 0.48516 0.89811 0.85451 0.0
C1225 C 0.48876 0.87622 0.86686 0.0
C1226 C 0.46561 0.89602 0.81008 0.0
C1227 C 0.44983 0.87168 0.77587 0.0
C1228 C 0.45357 0.84957 0.78768 0.0
C1229 C 0.47278 0.852 0.83385 0.0
C1230 C 0.46185 0.91988 0.79976 0.0
C1231 C 0.43764 0.82357 0.75071 0.0
C1232 C 0.3858 0.8615 0.69601 0.0
C1233 C 0.39494 0.87154 0.63263 0.0
C1234 C 0.40335 0.86095 0.7432 0.0
C1235 C 0.43033 0.86994 0.72559 0.0
C1236 C 0.43921 0.87887 0.66057 0.0
C1237 C 0.42149 0.87992 0.61517 0.0
C1238 C 0.39336 0.85185 0.81249 0.0
C1239 C 0.4676 0.88795 0.63937 0.0
H1240 H 0.49726 0.91675 0.8807 0.0
H1241 H 0.47564 0.8351 0.84334 0.0
H1242 H 0.46684 0.92702 0.74812 0.0
H1243 H 0.44059 0.91404 0.80808 0.0
H1244 H 0.4746 0.93675 0.83322 0.0
H1245 H 0.44285 0.80824 0.766 0.0
H1246 H 0.41591 0.81543 0.75885 0.0
H1247 H 0.44135 0.82718 0.69698 0.0
H1248 H 0.36526 0.85513 0.70941 0.0
H1249 H 0.42845 0.88738 0.56577 0.0
H1250 H 0.40417 0.86885 0.84709 0.0
H1251 H 0.39754 0.83586 0.82795 0.0
H1252 H 0.37152 0.84423 0.81731 0.0
H1253 H 0.48165 0.90657 0.66592 0.0
H1254 H 0.47056 0.89191 0.58553 0.0
H1255 H 0.47303 0.87256 0.65227 0.0
C1256 C 0.62647 0.48051 0.8097 0.0
C1257 C 0.6191 0.47938 0.87585 0.0
C1258 C 0.60809 0.46259 0.76334 0.0
C1259 C 0.58211 0.44285 0.78435 0.0
C1260 C 0.57528 0.44079 0.85194 0.0
C1261 C 0.59373 0.45931 0.89665 0.0
C1262 C 0.61595 0.46564 0.69153 0.0
C1263 C 0.5481 0.41968 0.87675 0.0
C1264 C 0.52341 0.41568 0.66528 0.0
C1265 C 0.52121 0.39132 0.64611 0.0
C1266 C 0.54352 0.43289 0.70916 0.0
C1267 C 0.56148 0.42526 0.73561 0.0
C1268 C 0.55899 0.40044 0.71744 0.0
C1269 C 0.53906 0.3839 0.6724 0.0
C1270 C 0.54571 0.45935 0.72677 0.0
C1271 C 0.57728 0.39129 0.74586 0.0
H1272 H 0.646 0.49628 0.79368 0.0
H1273 H 0.58813 0.45844 0.94805 0.0
H1274 H 0.61223 0.44625 0.67112 0.0
H1275 H 0.60343 0.47173 0.66308 0.0
H1276 H 0.63735 0.48085 0.68378 0.0
H1277 H 0.54689 0.41923 0.93145 0.0
H1278 H 0.53247 0.42362 0.85706 0.0
H1279 H 0.54341 0.39959 0.85903 0.0
H1280 H 0.50987 0.42166 0.64455 0.0
H1281 H 0.53737 0.36502 0.65788 0.0
H1282 H 0.56613 0.476 0.71527 0.0
H1283 H 0.54251 0.46009 0.78048 0.0
H1284 H 0.53092 0.46278 0.69988 0.0
H1285 H 0.59842 0.40598 0.73383 0.0
H1286 H 0.57261 0.37134 0.72693 0.0
H1287 H 0.57552 0.39021 0.8004 0.0
C1288 C 0.13367 0.54642 0.60393 0.0
C1289 C 0.14034 0.52726 0.6242 0.0
C1290 C 0.13426 0.56532 0.64825 0.0
C1291 C 0.14091 0.56451 0.71502 0.0
C1292 C 0.14834 0.5456 0.73546 0.0
C1293 C 0.14833 0.52736 0.68937 0.0
C1294 C 0.12694 0.5856 0.62398 0.0
C1295 C 0.15504 0.54379 0.80651 0.0
C1296 C 0.15797 0.62444 0.82462 0.0
C1297 C 0.13315 0.61676 0.85408 0.0
C1298 C 0.16082 0.60772 0.77901 0.0
C1299 C 0.13846 0.58243 0.76386 0.0
C1300 C 0.11338 0.57454 0.79376 0.0
C1301 C 0.11095 0.59195 0.83786 0.0
C1302 C 0.18768 0.61717 0.74671 0.0
C1303 C 0.08915 0.54756 0.77969 0.0
H1304 H 0.12769 0.54644 0.55323 0.0
H1305 H 0.15326 0.51235 0.70499 0.0
H1306 H 0.1077 0.58147 0.64642 0.0
H1307 H 0.14238 0.60607 0.63918 0.0
H1308 H 0.12484 0.58521 0.56948 0.0
H1309 H 0.16173 0.52895 0.81375 0.0
H1310 H 0.17101 0.56359 0.82417 0.0
H1311 H 0.13713 0.53793 0.83773 0.0
H1312 H 0.17516 0.64366 0.83697 0.0
H1313 H 0.09181 0.58578 0.86116 0.0
H1314 H 0.18565 0.61742 0.69234 0.0
H1315 H 0.19497 0.6031 0.75803 0.0
H1316 H 0.20298 0.63753 0.76322 0.0
H1317 H 0.08389 0.54605 0.72667 0.0
H1318 H 0.07143 0.54398 0.80922 0.0
H1319 H 0.09373 0.53141 0.79059 0.0
C1320 C 0.60413 0.1441 0.62509 0.0
C1321 C 0.61374 0.12628 0.63374 0.0
C1322 C 0.58529 0.14412 0.66868 0.0
C1323 C 0.57643 0.12637 0.72308 0.0
C1324 C 0.58642 0.10863 0.73269 0.0
C1325 C 0.60473 0.10855 0.68729 0.0
C1326 C 0.57463 0.16289 0.65606 0.0
C1327 C 0.57788 0.08987 0.79106 0.0
C1328 C 0.54758 0.1448 0.86835 0.0
C1329 C 0.52008 0.12699 0.86078 0.0
C1330 C 0.56616 0.1446 0.82421 0.0
C1331 C 0.55693 0.12662 0.77035 0.0
C1332 C 0.52913 0.109 0.76159 0.0
C1333 C 0.51102 0.10916 0.8075 0.0
C1334 C 0.59569 0.16329 0.83588 0.0
C1335 C 0.51854 0.09 0.70381 0.0
H1336 H 0.61082 0.15759 0.58317 0.0
H1337 H 0.61225 0.09484 0.69403 0.0
H1338 H 0.55249 0.15131 0.65174 0.0
H1339 H 0.57951 0.17683 0.69819 0.0
H1340 H 0.58301 0.17487 0.61037 0.0
H1341 H 0.58801 0.07779 0.79217 0.0
H1342 H 0.58245 0.10147 0.83757 0.0
H1343 H 0.55592 0.07604 0.78975 0.0
H1344 H 0.55466 0.15838 0.91003 0.0
H1345 H 0.48974 0.09545 0.80156 0.0
H1346 H 0.6047 0.17685 0.79302 0.0
H1347 H 0.60608 0.15157 0.84093 0.0
H1348 H 0.59956 0.17566 0.8809 0.0
H1349 H 0.52561 0.10136 0.65693 0.0
H1350 H 0.49631 0.07818 0.70309 0.0
H1351 H 0.52637 0.07593 0.70559 0.0
C1352 C 0.46869 0.59008 0.6196 0.0
C1353 C 0.4823 0.61804 0.6266 0.0
C1354 C 0.44945 0.57326 0.66557 0.0
C1355 C 0.44368 0.58455 0.72066 0.0
C1356 C 0.45657 0.61281 0.72693 0.0
C1357 C 0.47567 0.62927 0.67956 0.0
C1358 C 0.43611 0.54329 0.65648 0.0
C1359 C 0.45104 0.62561 0.78511 0.0
C1360 C 0.38178 0.53602 0.81925 0.0
C1361 C 0.39303 0.5271 0.86731 0.0
C1362 C 0.39805 0.55555 0.77255 0.0
C1363 C 0.42621 0.56654 0.77434 0.0
C1364 C 0.43767 0.55829 0.82424 0.0
C1365 C 0.42101 0.53868 0.86973 0.0
C1366 C 0.38506 0.56371 0.7199 0.0
C1367 C 0.46758 0.56951 0.82828 0.0
H1368 H 0.47335 0.58117 0.57833 0.0
H1369 H 0.48606 0.65084 0.68525 0.0
H1370 H 0.44261 0.53456 0.69618 0.0
H1371 H 0.41405 0.53403 0.66021 0.0
H1372 H 0.44107 0.53777 0.60818 0.0
H1373 H 0.46048 0.64766 0.7794 0.0
H1374 H 0.42916 0.61697 0.79193 0.0
H1375 H 0.45892 0.62138 0.83066 0.0
H1376 H 0.36022 0.52727 0.81708 0.0
H1377 H 0.43002 0.53224 0.90708 0.0
H1378 H 0.3877 0.55662 0.67115 0.0
H1379 H 0.39482 0.58584 0.71721 0.0
H1380 H 0.36329 0.5553 0.72886 0.0
H1381 H 0.47449 0.56318 0.78438 0.0
H1382 H 0.47348 0.56266 0.87315 0.0
H1383 H 0.4782 0.59171 0.82828 0.0
C1384 C 0.8912 0.49315 0.68798 0.0
C1385 C 0.87129 0.48517 0.63987 0.0
C1386 C 0.89088 0.47469 0.73337 0.0
C1387 C 0.87066 0.44746 0.72877 0.0
C1388 C 0.85019 0.43941 0.68077 0.0
C1389 C 0.85056 0.45854 0.6372 0.0
C1390 C 0.91259 0.48424 0.78505 0.0
C1391 C 0.82868 0.41045 0.67349 0.0
C1392 C 0.88988 0.39873 0.80148 0.0
C1393 C 0.87619 0.39234 0.8617 0.0
C1394 C 0.88739 0.41586 0.75645 0.0
C1395 C 0.87151 0.42743 0.77319 0.0
C1396 C 0.85763 0.42095 0.83397 0.0
C1397 C 0.85985 0.40319 0.87711 0.0
C1398 C 0.90202 0.42186 0.69138 0.0
C1399 C 0.84119 0.4335 0.85446 0.0
H1400 H 0.90729 0.51382 0.68934 0.0
H1401 H 0.83551 0.45246 0.59891 0.0
H1402 H 0.90359 0.47767 0.83474 0.0
H1403 H 0.92539 0.47526 0.77597 0.0
H1404 H 0.92552 0.50638 0.78516 0.0
H1405 H 0.81371 0.40765 0.63524 0.0
H1406 H 0.83798 0.3983 0.65984 0.0
H1407 H 0.81814 0.40254 0.72104 0.0
H1408 H 0.90238 0.39021 0.78949 0.0
H1409 H 0.84948 0.39849 0.92408 0.0
H1410 H 0.91764 0.44331 0.68921 0.0
H1411 H 0.88792 0.41805 0.65013 0.0
H1412 H 0.91174 0.40961 0.68373 0.0
H1413 H 0.8543 0.45553 0.85817 0.0
H1414 H 0.83107 0.42579 0.90269 0.0
H1415 H 0.82576 0.42964 0.81671 0.0
loop_
_geom_bond_atom_site_label_1
_geom_bond_atom_site_label_2
_geom_bond_distance
_geom_bond_site_symmetry_2
_ccdc_geom_bond_type
Fe0 O2 1.918 . S
Fe0 O5 1.997 1_554 S
Fe0 O6 2.002 1_554 S
Fe0 O11 1.976 . S
Fe0 O14 1.996 . S
Fe1 O2 1.918 . S
Fe1 O9 1.997 1_554 S
Fe1 O12 1.996 . S
Fe1 O16 1.976 . S
Fe1 O19 2.002 1_554 S
O2 Fe0 1.918 . S
O2 Fe1 1.918 . S
O2 Fe3 1.918 . S
Fe3 O2 1.918 . S
Fe3 O4 2.002 1_554 S
Fe3 O13 1.976 . S
Fe3 O17 1.996 . S
Fe3 O20 1.997 1_554 S
O4 Fe3 2.002 1_556 S
O4 C21 1.295 . S
O5 Fe0 1.997 1_556 S
O5 C21 1.235 . S
O6 Fe0 2.002 1_556 S
O6 C7 1.295 . S
C7 O6 1.295 . S
C7 O9 1.235 . S
C8 O13 1.287 . S
C8 O14 1.255 . S
O9 Fe1 1.997 1_556 S
O9 C7 1.235 . S
C10 O16 1.287 . S
C10 O17 1.255 . S
O11 Fe0 1.976 . S
O11 C18 1.287 . S
O12 Fe1 1.996 . S
O12 C18 1.255 . S
O13 Fe3 1.976 . S
O13 C8 1.287 . S
O14 Fe0 1.996 . S
O14 C8 1.255 . S
C15 O19 1.295 . S
C15 O20 1.235 . S
O16 Fe1 1.976 . S
O16 C10 1.287 . S
O17 Fe3 1.996 . S
O17 C10 1.255 . S
C18 O11 1.287 . S
C18 O12 1.255 . S
O19 Fe1 2.002 1_556 S
O19 C15 1.295 . S
O20 Fe3 1.997 1_556 S
O20 C15 1.235 . S
C21 O4 1.295 . S
C21 O5 1.235 . S
Fe22 O24 1.918 . S
Fe22 O27 1.997 1_554 S
Fe22 O28 2.002 1_554 S
Fe22 O33 1.976 . S
Fe22 O36 1.996 . S
Fe23 O24 1.918 . S
Fe23 O31 1.997 1_554 S
Fe23 O34 1.996 . S
Fe23 O38 1.976 . S
Fe23 O41 2.002 1_554 S
O24 Fe22 1.918 . S
O24 Fe23 1.918 . S
O24 Fe25 1.918 . S
Fe25 O24 1.918 . S
Fe25 O26 2.002 1_554 S
Fe25 O35 1.976 . S
Fe25 O39 1.996 . S
Fe25 O42 1.997 1_554 S
O26 Fe25 2.002 1_556 S
O26 C43 1.295 . S
O27 Fe22 1.997 1_556 S
O27 C43 1.235 . S
O28 Fe22 2.002 1_556 S
O28 C29 1.295 . S
C29 O28 1.295 . S
C29 O31 1.235 . S
C30 O35 1.287 . S
C30 O36 1.255 . S
O31 Fe23 1.997 1_556 S
O31 C29 1.235 . S
C32 O38 1.287 . S
C32 O39 1.255 . S
O33 Fe22 1.976 . S
O33 C40 1.287 . S
O34 Fe23 1.996 . S
O34 C40 1.255 . S
O35 Fe25 1.976 . S
O35 C30 1.287 . S
O36 Fe22 1.996 . S
O36 C30 1.255 . S
C37 O41 1.295 . S
C37 O42 1.235 . S
O38 Fe23 1.976 . S
O38 C32 1.287 . S
O39 Fe25 1.996 . S
O39 C32 1.255 . S
C40 O33 1.287 . S
C40 O34 1.255 . S
O41 Fe23 2.002 1_556 S
O41 C37 1.295 . S
O42 Fe25 1.997 1_556 S
O42 C37 1.235 . S
C43 O26 1.295 . S
C43 O27 1.235 . S
Fe44 O46 1.918 . S
Fe44 O49 1.997 1_554 S
Fe44 O50 2.002 1_554 S
Fe44 O55 1.976 . S
Fe44 O58 1.996 . S
Fe45 O46 1.918 . S
Fe45 O53 1.997 1_554 S
Fe45 O56 1.996 . S
Fe45 O60 1.976 . S
Fe45 O63 2.002 1_554 S
O46 Fe44 1.918 . S
O46 Fe45 1.918 . S
O46 Fe47 1.918 . S
Fe47 O46 1.918 . S
Fe47 O48 2.002 1_554 S
Fe47 O57 1.976 . S
Fe47 O61 1.996 . S
Fe47 O64 1.997 1_554 S
O48 Fe47 2.002 1_556 S
O48 C65 1.295 . S
O49 Fe44 1.997 1_556 S
O49 C65 1.235 . S
O50 Fe44 2.002 1_556 S
O50 C51 1.295 . S
C51 O50 1.295 . S
C51 O53 1.235 . S
C52 O57 1.287 . S
C52 O58 1.255 . S
O53 Fe45 1.997 1_556 S
O53 C51 1.235 . S
C54 O60 1.287 . S
C54 O61 1.255 . S
O55 Fe44 1.976 . S
O55 C62 1.287 . S
O56 Fe45 1.996 . S
O56 C62 1.255 . S
O57 Fe47 1.976 . S
O57 C52 1.287 . S
O58 Fe44 1.996 . S
O58 C52 1.255 . S
C59 O63 1.295 . S
C59 O64 1.235 . S
O60 Fe45 1.976 . S
O60 C54 1.287 . S
O61 Fe47 1.996 . S
O61 C54 1.255 . S
C62 O55 1.287 . S
C62 O56 1.255 . S
O63 Fe45 2.002 1_556 S
O63 C59 1.295 . S
O64 Fe47 1.997 1_556 S
O64 C59 1.235 . S
C65 O48 1.295 . S
C65 O49 1.235 . S
Fe66 O68 1.918 . S
Fe66 O71 1.997 1_554 S
Fe66 O72 2.002 1_554 S
Fe66 O77 1.976 . S
Fe66 O80 1.996 . S
Fe67 O68 1.918 . S
Fe67 O75 1.997 1_554 S
Fe67 O78 1.996 . S
Fe67 O82 1.976 . S
Fe67 O85 2.002 1_554 S
O68 Fe66 1.918 . S
O68 Fe67 1.918 . S
O68 Fe69 1.918 . S
Fe69 O68 1.918 . S
Fe69 O70 2.002 1_554 S
Fe69 O79 1.976 . S
Fe69 O83 1.996 . S
Fe69 O86 1.997 1_554 S
O70 Fe69 2.002 1_556 S
O70 C87 1.295 . S
O71 Fe66 1.997 1_556 S
O71 C87 1.235 . S
O72 Fe66 2.002 1_556 S
O72 C73 1.295 . S
C73 O72 1.295 . S
C73 O75 1.235 . S
C74 O79 1.287 . S
C74 O80 1.255 . S
O75 Fe67 1.997 1_556 S
O75 C73 1.235 . S
C76 O82 1.287 . S
C76 O83 1.255 . S
O77 Fe66 1.976 . S
O77 C84 1.287 . S
O78 Fe67 1.996 . S
O78 C84 1.255 . S
O79 Fe69 1.976 . S
O79 C74 1.287 . S
O80 Fe66 1.996 . S
O80 C74 1.255 . S
C81 O85 1.295 . S
C81 O86 1.235 . S
O82 Fe67 1.976 . S
O82 C76 1.287 . S
O83 Fe69 1.996 . S
O83 C76 1.255 . S
C84 O77 1.287 . S
C84 O78 1.255 . S
O85 Fe67 2.002 1_556 S
O85 C81 1.295 . S
O86 Fe69 1.997 1_556 S
O86 C81 1.235 . S
C87 O70 1.295 . S
C87 O71 1.235 . S
Fe88 O90 1.918 . S
Fe88 O93 1.997 1_554 S
Fe88 O94 2.002 1_554 S
Fe88 O99 1.976 . S
Fe88 O102 1.996 . S
Fe89 O90 1.918 . S
Fe89 O97 1.997 1_554 S
Fe89 O100 1.996 . S
Fe89 O104 1.976 . S
Fe89 O107 2.002 1_554 S
O90 Fe88 1.918 . S
O90 Fe89 1.918 . S
O90 Fe91 1.918 . S
Fe91 O90 1.918 . S
Fe91 O92 2.002 1_554 S
Fe91 O101 1.976 . S
Fe91 O105 1.996 . S
Fe91 O108 1.997 1_554 S
O92 Fe91 2.002 1_556 S
O92 C109 1.295 . S
O93 Fe88 1.997 1_556 S
O93 C109 1.235 . S
O94 Fe88 2.002 1_556 S
O94 C95 1.295 . S
C95 O94 1.295 . S
C95 O97 1.235 . S
C96 O101 1.287 . S
C96 O102 1.255 . S
O97 Fe89 1.997 1_556 S
O97 C95 1.235 . S
C98 O104 1.287 . S
C98 O105 1.255 . S
O99 Fe88 1.976 . S
O99 C106 1.287 . S
O100 Fe89 1.996 . S
O100 C106 1.255 . S
O101 Fe91 1.976 . S
O101 C96 1.287 . S
O102 Fe88 1.996 . S
O102 C96 1.255 . S
C103 O107 1.295 . S
C103 O108 1.235 . S
O104 Fe89 1.976 . S
O104 C98 1.287 . S
O105 Fe91 1.996 . S
O105 C98 1.255 . S
C106 O99 1.287 . S
C106 O100 1.255 . S
O107 Fe89 2.002 1_556 S
O107 C103 1.295 . S
O108 Fe91 1.997 1_556 S
O108 C103 1.235 . S
C109 O92 1.295 . S
C109 O93 1.235 . S
Fe110 O112 1.918 . S
Fe110 O115 1.997 1_554 S
Fe110 O116 2.002 1_554 S
Fe110 O121 1.976 . S
Fe110 O124 1.996 . S
Fe111 O112 1.918 . S
Fe111 O119 1.997 1_554 S
Fe111 O122 1.996 . S
Fe111 O126 1.976 . S
Fe111 O129 2.002 1_554 S
O112 Fe110 1.918 . S
O112 Fe111 1.918 . S
O112 Fe113 1.918 . S
Fe113 O112 1.918 . S
Fe113 O114 2.002 1_554 S
Fe113 O123 1.976 . S
Fe113 O127 1.996 . S
Fe113 O130 1.997 1_554 S
O114 Fe113 2.002 1_556 S
O114 C131 1.295 . S
O115 Fe110 1.997 1_556 S
O115 C131 1.235 . S
O116 Fe110 2.002 1_556 S
O116 C117 1.295 . S
C117 O116 1.295 . S
C117 O119 1.235 . S
C118 O123 1.287 . S
C118 O124 1.255 . S
O119 Fe111 1.997 1_556 S
O119 C117 1.235 . S
C120 O126 1.287 . S
C120 O127 1.255 . S
O121 Fe110 1.976 . S
O121 C128 1.287 . S
O122 Fe111 1.996 . S
O122 C128 1.255 . S
O123 Fe113 1.976 . S
O123 C118 1.287 . S
O124 Fe110 1.996 . S
O124 C118 1.255 . S
C125 O129 1.295 . S
C125 O130 1.235 . S
O126 Fe111 1.976 . S
O126 C120 1.287 . S
O127 Fe113 1.996 . S
O127 C120 1.255 . S
C128 O121 1.287 . S
C128 O122 1.255 . S
O129 Fe111 2.002 1_556 S
O129 C125 1.295 . S
O130 Fe113 1.997 1_556 S
O130 C125 1.235 . S
C131 O114 1.295 . S
C131 O115 1.235 . S
Fe132 O134 1.918 . S
Fe132 O137 1.997 . S
Fe132 O138 2.002 . S
Fe132 O143 1.976 . S
Fe132 O146 1.996 . S
Fe133 O134 1.918 . S
Fe133 O141 1.997 . S
Fe133 O144 1.996 . S
Fe133 O148 1.976 . S
Fe133 O151 2.002 . S
O134 Fe132 1.918 . S
O134 Fe133 1.918 . S
O134 Fe135 1.918 . S
Fe135 O134 1.918 . S
Fe135 O136 2.002 . S
Fe135 O145 1.976 . S
Fe135 O149 1.996 . S
Fe135 O152 1.997 . S
O136 Fe135 2.002 . S
O136 C153 1.295 . S
O137 Fe132 1.997 . S
O137 C153 1.235 . S
O138 Fe132 2.002 . S
O138 C139 1.295 . S
C139 O138 1.295 . S
C139 O141 1.235 . S
C140 O145 1.287 . S
C140 O146 1.255 . S
O141 Fe133 1.997 . S
O141 C139 1.235 . S
C142 O148 1.287 . S
C142 O149 1.255 . S
O143 Fe132 1.976 . S
O143 C150 1.287 . S
O144 Fe133 1.996 . S
O144 C150 1.255 . S
O145 Fe135 1.976 . S
O145 C140 1.287 . S
O146 Fe132 1.996 . S
O146 C140 1.255 . S
C147 O151 1.295 . S
C147 O152 1.235 . S
O148 Fe133 1.976 . S
O148 C142 1.287 . S
O149 Fe135 1.996 . S
O149 C142 1.255 . S
C150 O143 1.287 . S
C150 O144 1.255 . S
O151 Fe133 2.002 . S
O151 C147 1.295 . S
O152 Fe135 1.997 . S
O152 C147 1.235 . S
C153 O136 1.295 . S
C153 O137 1.235 . S
Fe154 O156 1.918 . S
Fe154 O159 1.997 . S
Fe154 O160 2.002 . S
Fe154 O165 1.976 . S
Fe154 O168 1.996 . S
Fe155 O156 1.918 . S
Fe155 O163 1.997 . S
Fe155 O166 1.996 . S
Fe155 O170 1.976 . S
Fe155 O173 2.002 . S
O156 Fe154 1.918 . S
O156 Fe155 1.918 . S
O156 Fe157 1.918 . S
Fe157 O156 1.918 . S
Fe157 O158 2.002 . S
Fe157 O167 1.976 . S
Fe157 O171 1.996 . S
Fe157 O174 1.997 . S
O158 Fe157 2.002 . S
O158 C175 1.295 . S
O159 Fe154 1.997 . S
O159 C175 1.235 . S
O160 Fe154 2.002 . S
O160 C161 1.295 . S
C161 O160 1.295 . S
C161 O163 1.235 . S
C162 O167 1.287 . S
C162 O168 1.255 . S
O163 Fe155 1.997 . S
O163 C161 1.235 . S
C164 O170 1.287 . S
C164 O171 1.255 . S
O165 Fe154 1.976 . S
O165 C172 1.287 . S
O166 Fe155 1.996 . S
O166 C172 1.255 . S
O167 Fe157 1.976 . S
O167 C162 1.287 . S
O168 Fe154 1.996 . S
O168 C162 1.255 . S
C169 O173 1.295 . S
C169 O174 1.235 . S
O170 Fe155 1.976 . S
O170 C164 1.287 . S
O171 Fe157 1.996 . S
O171 C164 1.255 . S
C172 O165 1.287 . S
C172 O166 1.255 . S
O173 Fe155 2.002 . S
O173 C169 1.295 . S
O174 Fe157 1.997 . S
O174 C169 1.235 . S
C175 O158 1.295 . S
C175 O159 1.235 . S
Fe176 O178 1.918 . S
Fe176 O181 1.997 . S
Fe176 O182 2.002 . S
Fe176 O187 1.976 . S
Fe176 O190 1.996 . S
Fe177 O178 1.918 . S
Fe177 O185 1.997 . S
Fe177 O188 1.996 . S
Fe177 O192 1.976 . S
Fe177 O195 2.002 . S
O178 Fe176 1.918 . S
O178 Fe177 1.918 . S
O178 Fe179 1.918 . S
Fe179 O178 1.918 . S
Fe179 O180 2.002 . S
Fe179 O189 1.976 . S
Fe179 O193 1.996 . S
Fe179 O196 1.997 . S
O180 Fe179 2.002 . S
O180 C197 1.295 . S
O181 Fe176 1.997 . S
O181 C197 1.235 . S
O182 Fe176 2.002 . S
O182 C183 1.295 . S
C183 O182 1.295 . S
C183 O185 1.235 . S
C184 O189 1.287 . S
C184 O190 1.255 . S
O185 Fe177 1.997 . S
O185 C183 1.235 . S
C186 O192 1.287 . S
C186 O193 1.255 . S
O187 Fe176 1.976 . S
O187 C194 1.287 . S
O188 Fe177 1.996 . S
O188 C194 1.255 . S
O189 Fe179 1.976 . S
O189 C184 1.287 . S
O190 Fe176 1.996 . S
O190 C184 1.255 . S
C191 O195 1.295 . S
C191 O196 1.235 . S
O192 Fe177 1.976 . S
O192 C186 1.287 . S
O193 Fe179 1.996 . S
O193 C186 1.255 . S
C194 O187 1.287 . S
C194 O188 1.255 . S
O195 Fe177 2.002 . S
O195 C191 1.295 . S
O196 Fe179 1.997 . S
O196 C191 1.235 . S
C197 O180 1.295 . S
C197 O181 1.235 . S
Fe198 O200 1.918 . S
Fe198 O203 1.997 . S
Fe198 O204 2.002 . S
Fe198 O209 1.976 . S
Fe198 O212 1.996 . S
Fe199 O200 1.918 . S
Fe199 O207 1.997 . S
Fe199 O210 1.996 . S
Fe199 O214 1.976 . S
Fe199 O217 2.002 . S
O200 Fe198 1.918 . S
O200 Fe199 1.918 . S
O200 Fe201 1.918 . S
Fe201 O200 1.918 . S
Fe201 O202 2.002 . S
Fe201 O211 1.976 . S
Fe201 O215 1.996 . S
Fe201 O218 1.997 . S
O202 Fe201 2.002 . S
O202 C219 1.295 . S
O203 Fe198 1.997 . S
O203 C219 1.235 . S
O204 Fe198 2.002 . S
O204 C205 1.295 . S
C205 O204 1.295 . S
C205 O207 1.235 . S
C206 O211 1.287 . S
C206 O212 1.255 . S
O207 Fe199 1.997 . S
O207 C205 1.235 . S
C208 O214 1.287 . S
C208 O215 1.255 . S
O209 Fe198 1.976 . S
O209 C216 1.287 . S
O210 Fe199 1.996 . S
O210 C216 1.255 . S
O211 Fe201 1.976 . S
O211 C206 1.287 . S
O212 Fe198 1.996 . S
O212 C206 1.255 . S
C213 O217 1.295 . S
C213 O218 1.235 . S
O214 Fe199 1.976 . S
O214 C208 1.287 . S
O215 Fe201 1.996 . S
O215 C208 1.255 . S
C216 O209 1.287 . S
C216 O210 1.255 . S
O217 Fe199 2.002 . S
O217 C213 1.295 . S
O218 Fe201 1.997 . S
O218 C213 1.235 . S
C219 O202 1.295 . S
C219 O203 1.235 . S
Fe220 O222 1.918 . S
Fe220 O225 1.997 . S
Fe220 O226 2.002 . S
Fe220 O231 1.976 . S
Fe220 O234 1.996 . S
Fe221 O222 1.918 . S
Fe221 O229 1.997 . S
Fe221 O232 1.996 . S
Fe221 O236 1.976 . S
Fe221 O239 2.002 . S
O222 Fe220 1.918 . S
O222 Fe221 1.918 . S
O222 Fe223 1.918 . S
Fe223 O222 1.918 . S
Fe223 O224 2.002 . S
Fe223 O233 1.976 . S
Fe223 O237 1.996 . S
Fe223 O240 1.997 . S
O224 Fe223 2.002 . S
O224 C241 1.295 . S
O225 Fe220 1.997 . S
O225 C241 1.235 . S
O226 Fe220 2.002 . S
O226 C227 1.295 . S
C227 O226 1.295 . S
C227 O229 1.235 . S
C228 O233 1.287 . S
C228 O234 1.255 . S
O229 Fe221 1.997 . S
O229 C227 1.235 . S
C230 O236 1.287 . S
C230 O237 1.255 . S
O231 Fe220 1.976 . S
O231 C238 1.287 . S
O232 Fe221 1.996 . S
O232 C238 1.255 . S
O233 Fe223 1.976 . S
O233 C228 1.287 . S
O234 Fe220 1.996 . S
O234 C228 1.255 . S
C235 O239 1.295 . S
C235 O240 1.235 . S
O236 Fe221 1.976 . S
O236 C230 1.287 . S
O237 Fe223 1.996 . S
O237 C230 1.255 . S
C238 O231 1.287 . S
C238 O232 1.255 . S
O239 Fe221 2.002 . S
O239 C235 1.295 . S
O240 Fe223 1.997 . S
O240 C235 1.235 . S
C241 O224 1.295 . S
C241 O225 1.235 . S
Fe242 O244 1.918 . S
Fe242 O247 1.997 . S
Fe242 O248 2.002 . S
Fe242 O253 1.976 . S
Fe242 O256 1.996 . S
Fe243 O244 1.918 . S
Fe243 O251 1.997 . S
Fe243 O254 1.996 . S
Fe243 O258 1.976 . S
Fe243 O261 2.002 . S
O244 Fe242 1.918 . S
O244 Fe243 1.918 . S
O244 Fe245 1.918 . S
Fe245 O244 1.918 . S
Fe245 O246 2.002 . S
Fe245 O255 1.976 . S
Fe245 O259 1.996 . S
Fe245 O262 1.997 . S
O246 Fe245 2.002 . S
O246 C263 1.295 . S
O247 Fe242 1.997 . S
O247 C263 1.235 . S
O248 Fe242 2.002 . S
O248 C249 1.295 . S
C249 O248 1.295 . S
C249 O251 1.235 . S
C250 O255 1.287 . S
C250 O256 1.255 . S
O251 Fe243 1.997 . S
O251 C249 1.235 . S
C252 O258 1.287 . S
C252 O259 1.255 . S
O253 Fe242 1.976 . S
O253 C260 1.287 . S
O254 Fe243 1.996 . S
O254 C260 1.255 . S
O255 Fe245 1.976 . S
O255 C250 1.287 . S
O256 Fe242 1.996 . S
O256 C250 1.255 . S
C257 O261 1.295 . S
C257 O262 1.235 . S
O258 Fe243 1.976 . S
O258 C252 1.287 . S
O259 Fe245 1.996 . S
O259 C252 1.255 . S
C260 O253 1.287 . S
C260 O254 1.255 . S
O261 Fe243 2.002 . S
O261 C257 1.295 . S
O262 Fe245 1.997 . S
O262 C257 1.235 . S
C263 O246 1.295 . S
C263 O247 1.235 . S
C264 C265 1.391 . S
C264 C266 1.394 . S
C264 H280 0.931 . S
C265 C264 1.391 . S
C265 C269 1.376 . S
C266 C264 1.394 . S
C266 C267 1.369 . S
C266 C270 1.531 . S
C267 C266 1.369 . S
C267 C268 1.410 . S
C267 C275 1.503 . S
C268 C267 1.410 . S
C268 C269 1.392 . S
C268 C271 1.511 . S
C269 C265 1.376 . S
C269 C268 1.392 . S
C269 H281 0.929 . S
C270 C266 1.531 . S
C270 H282 0.960 . S
C270 H283 0.962 . S
C270 H284 0.960 . S
C271 C268 1.511 . S
C271 H285 0.961 . S
C271 H286 0.961 . S
C271 H287 0.961 . S
C272 C273 1.370 . S
C272 C274 1.363 . S
C272 H288 0.931 . S
C273 C272 1.370 . S
C273 C277 1.408 . S
C274 C272 1.363 . S
C274 C275 1.370 . S
C274 C278 1.524 . S
C275 C267 1.503 . S
C275 C274 1.370 . S
C275 C276 1.403 . S
C276 C275 1.403 . S
C276 C277 1.404 . S
C276 C279 1.539 . S
C277 C273 1.408 . S
C277 C276 1.404 . S
C277 H289 0.930 . S
C278 C274 1.524 . S
C278 H290 0.956 . S
C278 H291 0.961 . S
C278 H292 0.961 . S
C279 C276 1.539 . S
C279 H293 0.958 . S
C279 H294 0.961 . S
C279 H295 0.960 . S
H280 C264 0.931 . S
H281 C269 0.929 . S
H282 C270 0.960 . S
H283 C270 0.962 . S
H284 C270 0.960 . S
H285 C271 0.961 . S
H286 C271 0.961 . S
H287 C271 0.961 . S
H288 C272 0.931 . S
H289 C277 0.930 . S
H290 C278 0.956 . S
H291 C278 0.961 . S
H292 C278 0.961 . S
H293 C279 0.958 . S
H294 C279 0.961 . S
H295 C279 0.960 . S
C296 C297 1.391 . S
C296 C298 1.394 . S
C296 H312 0.931 . S
C297 C296 1.391 . S
C297 C301 1.376 . S
C298 C296 1.394 . S
C298 C299 1.369 . S
C298 C302 1.531 . S
C299 C298 1.369 . S
C299 C300 1.410 . S
C299 C307 1.503 . S
C300 C299 1.410 . S
C300 C301 1.392 . S
C300 C303 1.511 . S
C301 C297 1.376 . S
C301 C300 1.392 . S
C301 H313 0.929 . S
C302 C298 1.531 . S
C302 H314 0.960 . S
C302 H315 0.962 . S
C302 H316 0.960 . S
C303 C300 1.511 . S
C303 H317 0.961 . S
C303 H318 0.961 . S
C303 H319 0.961 . S
C304 C305 1.370 . S
C304 C306 1.363 . S
C304 H320 0.931 . S
C305 C304 1.370 . S
C305 C309 1.408 . S
C306 C304 1.363 . S
C306 C307 1.370 . S
C306 C310 1.524 . S
C307 C299 1.503 . S
C307 C306 1.370 . S
C307 C308 1.403 . S
C308 C307 1.403 . S
C308 C309 1.404 . S
C308 C311 1.539 . S
C309 C305 1.408 . S
C309 C308 1.404 . S
C309 H321 0.930 . S
C310 C306 1.524 . S
C310 H322 0.956 . S
C310 H323 0.961 . S
C310 H324 0.961 . S
C311 C308 1.539 . S
C311 H325 0.958 . S
C311 H326 0.961 . S
C311 H327 0.960 . S
H312 C296 0.931 . S
H313 C301 0.929 . S
H314 C302 0.960 . S
H315 C302 0.962 . S
H316 C302 0.960 . S
H317 C303 0.961 . S
H318 C303 0.961 . S
H319 C303 0.961 . S
H320 C304 0.931 . S
H321 C309 0.930 . S
H322 C310 0.956 . S
H323 C310 0.961 . S
H324 C310 0.961 . S
H325 C311 0.958 . S
H326 C311 0.961 . S
H327 C311 0.960 . S
C328 C329 1.391 . S
C328 C330 1.394 . S
C328 H344 0.931 . S
C329 C328 1.391 . S
C329 C333 1.376 . S
C330 C328 1.394 . S
C330 C331 1.369 . S
C330 C334 1.531 . S
C331 C330 1.369 . S
C331 C332 1.410 . S
C331 C339 1.503 . S
C332 C331 1.410 . S
C332 C333 1.392 . S
C332 C335 1.511 . S
C333 C329 1.376 . S
C333 C332 1.392 . S
C333 H345 0.929 . S
C334 C330 1.531 . S
C334 H346 0.960 . S
C334 H347 0.962 . S
C334 H348 0.960 . S
C335 C332 1.511 . S
C335 H349 0.961 . S
C335 H350 0.961 . S
C335 H351 0.961 . S
C336 C337 1.370 . S
C336 C338 1.363 . S
C336 H352 0.931 . S
C337 C336 1.370 . S
C337 C341 1.408 . S
C338 C336 1.363 . S
C338 C339 1.370 . S
C338 C342 1.524 . S
C339 C331 1.503 . S
C339 C338 1.370 . S
C339 C340 1.403 . S
C340 C339 1.403 . S
C340 C341 1.404 . S
C340 C343 1.539 . S
C341 C337 1.408 . S
C341 C340 1.404 . S
C341 H353 0.930 . S
C342 C338 1.524 . S
C342 H354 0.956 . S
C342 H355 0.961 . S
C342 H356 0.961 . S
C343 C340 1.539 . S
C343 H357 0.958 . S
C343 H358 0.961 . S
C343 H359 0.960 . S
H344 C328 0.931 . S
H345 C333 0.929 . S
H346 C334 0.960 . S
H347 C334 0.962 . S
H348 C334 0.960 . S
H349 C335 0.961 . S
H350 C335 0.961 . S
H351 C335 0.961 . S
H352 C336 0.931 . S
H353 C341 0.930 . S
H354 C342 0.956 . S
H355 C342 0.961 . S
H356 C342 0.961 . S
H357 C343 0.958 . S
H358 C343 0.961 . S
H359 C343 0.960 . S
C360 C361 1.391 . S
C360 C362 1.394 . S
C360 H376 0.931 . S
C361 C360 1.391 . S
C361 C365 1.376 . S
C362 C360 1.394 . S
C362 C363 1.369 . S
C362 C366 1.531 . S
C363 C362 1.369 . S
C363 C364 1.410 . S
C363 C371 1.503 . S
C364 C363 1.410 . S
C364 C365 1.392 . S
C364 C367 1.511 . S
C365 C361 1.376 . S
C365 C364 1.392 . S
C365 H377 0.929 . S
C366 C362 1.531 . S
C366 H378 0.960 . S
C366 H379 0.962 . S
C366 H380 0.960 . S
C367 C364 1.511 . S
C367 H381 0.961 . S
C367 H382 0.961 . S
C367 H383 0.961 . S
C368 C369 1.370 . S
C368 C370 1.363 . S
C368 H384 0.931 . S
C369 C368 1.370 . S
C369 C373 1.408 . S
C370 C368 1.363 . S
C370 C371 1.370 . S
C370 C374 1.524 . S
C371 C363 1.503 . S
C371 C370 1.370 . S
C371 C372 1.403 . S
C372 C371 1.403 . S
C372 C373 1.404 . S
C372 C375 1.539 . S
C373 C369 1.408 . S
C373 C372 1.404 . S
C373 H385 0.930 . S
C374 C370 1.524 . S
C374 H386 0.956 . S
C374 H387 0.961 . S
C374 H388 0.961 . S
C375 C372 1.539 . S
C375 H389 0.958 . S
C375 H390 0.961 . S
C375 H391 0.960 . S
H376 C360 0.931 . S
H377 C365 0.929 . S
H378 C366 0.960 . S
H379 C366 0.962 . S
H380 C366 0.960 . S
H381 C367 0.961 . S
H382 C367 0.961 . S
H383 C367 0.961 . S
H384 C368 0.931 . S
H385 C373 0.930 . S
H386 C374 0.956 . S
H387 C374 0.961 . S
H388 C374 0.961 . S
H389 C375 0.958 . S
H390 C375 0.961 . S
H391 C375 0.960 . S
C392 C393 1.391 . S
C392 C394 1.394 . S
C392 H408 0.931 . S
C393 C392 1.391 . S
C393 C397 1.376 . S
C394 C392 1.394 . S
C394 C395 1.369 . S
C394 C398 1.531 . S
C395 C394 1.369 . S
C395 C396 1.410 . S
C395 C403 1.503 . S
C396 C395 1.410 . S
C396 C397 1.392 . S
C396 C399 1.511 . S
C397 C393 1.376 . S
C397 C396 1.392 . S
C397 H409 0.929 . S
C398 C394 1.531 . S
C398 H410 0.960 . S
C398 H411 0.962 . S
C398 H412 0.960 . S
C399 C396 1.511 . S
C399 H413 0.961 . S
C399 H414 0.961 . S
C399 H415 0.961 . S
C400 C401 1.370 . S
C400 C402 1.363 . S
C400 H416 0.931 . S
C401 C400 1.370 . S
C401 C405 1.408 . S
C402 C400 1.363 . S
C402 C403 1.370 . S
C402 C406 1.524 . S
C403 C395 1.503 . S
C403 C402 1.370 . S
C403 C404 1.403 . S
C404 C403 1.403 . S
C404 C405 1.404 . S
C404 C407 1.539 . S
C405 C401 1.408 . S
C405 C404 1.404 . S
C405 H417 0.930 . S
C406 C402 1.524 . S
C406 H418 0.956 . S
C406 H419 0.961 . S
C406 H420 0.961 . S
C407 C404 1.539 . S
C407 H421 0.958 . S
C407 H422 0.961 . S
C407 H423 0.960 . S
H408 C392 0.931 . S
H409 C397 0.929 . S
H410 C398 0.960 . S
H411 C398 0.962 . S
H412 C398 0.960 . S
H413 C399 0.961 . S
H414 C399 0.961 . S
H415 C399 0.961 . S
H416 C400 0.931 . S
H417 C405 0.930 . S
H418 C406 0.956 . S
H419 C406 0.961 . S
H420 C406 0.961 . S
H421 C407 0.958 . S
H422 C407 0.961 . S
H423 C407 0.960 . S
C424 C425 1.391 . S
C424 C426 1.394 . S
C424 H440 0.931 . S
C425 C424 1.391 . S
C425 C429 1.376 . S
C426 C424 1.394 . S
C426 C427 1.369 . S
C426 C430 1.531 . S
C427 C426 1.369 . S
C427 C428 1.410 . S
C427 C435 1.503 . S
C428 C427 1.410 . S
C428 C429 1.392 . S
C428 C431 1.511 . S
C429 C425 1.376 . S
C429 C428 1.392 . S
C429 H441 0.929 . S
C430 C426 1.531 . S
C430 H442 0.960 . S
C430 H443 0.962 . S
C430 H444 0.960 . S
C431 C428 1.511 . S
C431 H445 0.961 . S
C431 H446 0.961 . S
C431 H447 0.961 . S
C432 C433 1.370 . S
C432 C434 1.363 . S
C432 H448 0.931 . S
C433 C432 1.370 . S
C433 C437 1.408 . S
C434 C432 1.363 . S
C434 C435 1.370 . S
C434 C438 1.524 . S
C435 C427 1.503 . S
C435 C434 1.370 . S
C435 C436 1.403 . S
C436 C435 1.403 . S
C436 C437 1.404 . S
C436 C439 1.539 . S
C437 C433 1.408 . S
C437 C436 1.404 . S
C437 H449 0.930 . S
C438 C434 1.524 . S
C438 H450 0.956 . S
C438 H451 0.961 . S
C438 H452 0.961 . S
C439 C436 1.539 . S
C439 H453 0.958 . S
C439 H454 0.961 . S
C439 H455 0.960 . S
H440 C424 0.931 . S
H441 C429 0.929 . S
H442 C430 0.960 . S
H443 C430 0.962 . S
H444 C430 0.960 . S
H445 C431 0.961 . S
H446 C431 0.961 . S
H447 C431 0.961 . S
H448 C432 0.931 . S
H449 C437 0.930 . S
H450 C438 0.956 . S
H451 C438 0.961 . S
H452 C438 0.961 . S
H453 C439 0.958 . S
H454 C439 0.961 . S
H455 C439 0.960 . S
C456 C457 1.391 . S
C456 C458 1.394 . S
C456 H472 0.931 . S
C457 C456 1.391 . S
C457 C461 1.376 . S
C458 C456 1.394 . S
C458 C459 1.369 . S
C458 C462 1.531 . S
C459 C458 1.369 . S
C459 C460 1.410 . S
C459 C467 1.503 . S
C460 C459 1.410 . S
C460 C461 1.392 . S
C460 C463 1.511 . S
C461 C457 1.376 . S
C461 C460 1.392 . S
C461 H473 0.929 . S
C462 C458 1.531 . S
C462 H474 0.960 . S
C462 H475 0.962 . S
C462 H476 0.960 . S
C463 C460 1.511 . S
C463 H477 0.961 . S
C463 H478 0.961 . S
C463 H479 0.961 . S
C464 C465 1.370 . S
C464 C466 1.363 . S
C464 H480 0.931 . S
C465 C464 1.370 . S
C465 C469 1.408 . S
C466 C464 1.363 . S
C466 C467 1.370 . S
C466 C470 1.524 . S
C467 C459 1.503 . S
C467 C466 1.370 . S
C467 C468 1.403 . S
C468 C467 1.403 . S
C468 C469 1.404 . S
C468 C471 1.539 . S
C469 C465 1.408 . S
C469 C468 1.404 . S
C469 H481 0.930 . S
C470 C466 1.524 . S
C470 H482 0.956 . S
C470 H483 0.961 . S
C470 H484 0.961 . S
C471 C468 1.539 . S
C471 H485 0.958 . S
C471 H486 0.961 . S
C471 H487 0.960 . S
H472 C456 0.931 . S
H473 C461 0.929 . S
H474 C462 0.960 . S
H475 C462 0.962 . S
H476 C462 0.960 . S
H477 C463 0.961 . S
H478 C463 0.961 . S
H479 C463 0.961 . S
H480 C464 0.931 . S
H481 C469 0.930 . S
H482 C470 0.956 . S
H483 C470 0.961 . S
H484 C470 0.961 . S
H485 C471 0.958 . S
H486 C471 0.961 . S
H487 C471 0.960 . S
C488 C489 1.391 . S
C488 C490 1.394 . S
C488 H504 0.931 . S
C489 C488 1.391 . S
C489 C493 1.376 . S
C490 C488 1.394 . S
C490 C491 1.369 . S
C490 C494 1.531 . S
C491 C490 1.369 . S
C491 C492 1.410 . S
C491 C499 1.503 . S
C492 C491 1.410 . S
C492 C493 1.392 . S
C492 C495 1.511 . S
C493 C489 1.376 . S
C493 C492 1.392 . S
C493 H505 0.929 . S
C494 C490 1.531 . S
C494 H506 0.960 . S
C494 H507 0.962 . S
C494 H508 0.960 . S
C495 C492 1.511 . S
C495 H509 0.961 . S
C495 H510 0.961 . S
C495 H511 0.961 . S
C496 C497 1.370 . S
C496 C498 1.363 . S
C496 H512 0.931 . S
C497 C496 1.370 . S
C497 C501 1.408 . S
C498 C496 1.363 . S
C498 C499 1.370 . S
C498 C502 1.524 . S
C499 C491 1.503 . S
C499 C498 1.370 . S
C499 C500 1.403 . S
C500 C499 1.403 . S
C500 C501 1.404 . S
C500 C503 1.539 . S
C501 C497 1.408 . S
C501 C500 1.404 . S
C501 H513 0.930 . S
C502 C498 1.524 . S
C502 H514 0.956 . S
C502 H515 0.961 . S
C502 H516 0.961 . S
C503 C500 1.539 . S
C503 H517 0.958 . S
C503 H518 0.961 . S
C503 H519 0.960 . S
H504 C488 0.931 . S
H505 C493 0.929 . S
H506 C494 0.960 . S
H507 C494 0.962 . S
H508 C494 0.960 . S
H509 C495 0.961 . S
H510 C495 0.961 . S
H511 C495 0.961 . S
H512 C496 0.931 . S
H513 C501 0.930 . S
H514 C502 0.956 . S
H515 C502 0.961 . S
H516 C502 0.961 . S
H517 C503 0.958 . S
H518 C503 0.961 . S
H519 C503 0.960 . S
C520 C521 1.391 . S
C520 C522 1.394 . S
C520 H536 0.931 . S
C521 C520 1.391 . S
C521 C525 1.376 . S
C522 C520 1.394 . S
C522 C523 1.369 . S
C522 C526 1.531 . S
C523 C522 1.369 . S
C523 C524 1.410 . S
C523 C531 1.503 . S
C524 C523 1.410 . S
C524 C525 1.392 . S
C524 C527 1.511 . S
C525 C521 1.376 . S
C525 C524 1.392 . S
C525 H537 0.929 . S
C526 C522 1.531 . S
C526 H538 0.960 . S
C526 H539 0.962 . S
C526 H540 0.960 . S
C527 C524 1.511 . S
C527 H541 0.961 . S
C527 H542 0.961 . S
C527 H543 0.961 . S
C528 C529 1.370 . S
C528 C530 1.363 . S
C528 H544 0.931 . S
C529 C528 1.370 . S
C529 C533 1.408 . S
C530 C528 1.363 . S
C530 C531 1.370 . S
C530 C534 1.524 . S
C531 C523 1.503 . S
C531 C530 1.370 . S
C531 C532 1.403 . S
C532 C531 1.403 . S
C532 C533 1.404 . S
C532 C535 1.539 . S
C533 C529 1.408 . S
C533 C532 1.404 . S
C533 H545 0.930 . S
C534 C530 1.524 . S
C534 H546 0.956 . S
C534 H547 0.961 . S
C534 H548 0.961 . S
C535 C532 1.539 . S
C535 H549 0.958 . S
C535 H550 0.961 . S
C535 H551 0.960 . S
H536 C520 0.931 . S
H537 C525 0.929 . S
H538 C526 0.960 . S
H539 C526 0.962 . S
H540 C526 0.960 . S
H541 C527 0.961 . S
H542 C527 0.961 . S
H543 C527 0.961 . S
H544 C528 0.931 . S
H545 C533 0.930 . S
H546 C534 0.956 . S
H547 C534 0.961 . S
H548 C534 0.961 . S
H549 C535 0.958 . S
H550 C535 0.961 . S
H551 C535 0.960 . S
C552 C553 1.391 . S
C552 C554 1.394 . S
C552 H568 0.931 . S
C553 C552 1.391 . S
C553 C557 1.376 . S
C554 C552 1.394 . S
C554 C555 1.369 . S
C554 C558 1.531 . S
C555 C554 1.369 . S
C555 C556 1.410 . S
C555 C563 1.503 . S
C556 C555 1.410 . S
C556 C557 1.392 . S
C556 C559 1.511 . S
C557 C553 1.376 . S
C557 C556 1.392 . S
C557 H569 0.929 . S
C558 C554 1.531 . S
C558 H570 0.960 . S
C558 H571 0.962 . S
C558 H572 0.960 . S
C559 C556 1.511 . S
C559 H573 0.961 . S
C559 H574 0.961 . S
C559 H575 0.961 . S
C560 C561 1.370 . S
C560 C562 1.363 . S
C560 H576 0.931 . S
C561 C560 1.370 . S
C561 C565 1.408 . S
C562 C560 1.363 . S
C562 C563 1.370 . S
C562 C566 1.524 . S
C563 C555 1.503 . S
C563 C562 1.370 . S
C563 C564 1.403 . S
C564 C563 1.403 . S
C564 C565 1.404 . S
C564 C567 1.539 . S
C565 C561 1.408 . S
C565 C564 1.404 . S
C565 H577 0.930 . S
C566 C562 1.524 . S
C566 H578 0.956 . S
C566 H579 0.961 . S
C566 H580 0.961 . S
C567 C564 1.539 . S
C567 H581 0.958 . S
C567 H582 0.961 . S
C567 H583 0.960 . S
H568 C552 0.931 . S
H569 C557 0.929 . S
H570 C558 0.960 . S
H571 C558 0.962 . S
H572 C558 0.960 . S
H573 C559 0.961 . S
H574 C559 0.961 . S
H575 C559 0.961 . S
H576 C560 0.931 . S
H577 C565 0.930 . S
H578 C566 0.956 . S
H579 C566 0.961 . S
H580 C566 0.961 . S
H581 C567 0.958 . S
H582 C567 0.961 . S
H583 C567 0.960 . S
C584 C585 1.391 . S
C584 C586 1.394 . S
C584 H600 0.931 . S
C585 C584 1.391 . S
C585 C589 1.376 . S
C586 C584 1.394 . S
C586 C587 1.369 . S
C586 C590 1.531 . S
C587 C586 1.369 . S
C587 C588 1.410 . S
C587 C595 1.503 . S
C588 C587 1.410 . S
C588 C589 1.392 . S
C588 C591 1.511 . S
C589 C585 1.376 . S
C589 C588 1.392 . S
C589 H601 0.929 . S
C590 C586 1.531 . S
C590 H602 0.960 . S
C590 H603 0.962 . S
C590 H604 0.960 . S
C591 C588 1.511 . S
C591 H605 0.961 . S
C591 H606 0.961 . S
C591 H607 0.961 . S
C592 C593 1.370 . S
C592 C594 1.363 . S
C592 H608 0.931 . S
C593 C592 1.370 . S
C593 C597 1.408 . S
C594 C592 1.363 . S
C594 C595 1.370 . S
C594 C598 1.524 . S
C595 C587 1.503 . S
C595 C594 1.370 . S
C595 C596 1.403 . S
C596 C595 1.403 . S
C596 C597 1.404 . S
C596 C599 1.539 . S
C597 C593 1.408 . S
C597 C596 1.404 . S
C597 H609 0.930 . S
C598 C594 1.524 . S
C598 H610 0.956 . S
C598 H611 0.961 . S
C598 H612 0.961 . S
C599 C596 1.539 . S
C599 H613 0.958 . S
C599 H614 0.961 . S
C599 H615 0.960 . S
H600 C584 0.931 . S
H601 C589 0.929 . S
H602 C590 0.960 . S
H603 C590 0.962 . S
H604 C590 0.960 . S
H605 C591 0.961 . S
H606 C591 0.961 . S
H607 C591 0.961 . S
H608 C592 0.931 . S
H609 C597 0.930 . S
H610 C598 0.956 . S
H611 C598 0.961 . S
H612 C598 0.961 . S
H613 C599 0.958 . S
H614 C599 0.961 . S
H615 C599 0.960 . S
C616 C617 1.391 . S
C616 C618 1.394 . S
C616 H632 0.931 . S
C617 C616 1.391 . S
C617 C621 1.376 . S
C618 C616 1.394 . S
C618 C619 1.369 . S
C618 C622 1.531 . S
C619 C618 1.369 . S
C619 C620 1.410 . S
C619 C627 1.503 . S
C620 C619 1.410 . S
C620 C621 1.392 . S
C620 C623 1.511 . S
C621 C617 1.376 . S
C621 C620 1.392 . S
C621 H633 0.929 . S
C622 C618 1.531 . S
C622 H634 0.960 . S
C622 H635 0.962 . S
C622 H636 0.960 . S
C623 C620 1.511 . S
C623 H637 0.961 . S
C623 H638 0.961 . S
C623 H639 0.961 . S
C624 C625 1.370 . S
C624 C626 1.363 . S
C624 H640 0.931 . S
C625 C624 1.370 . S
C625 C629 1.408 . S
C626 C624 1.363 . S
C626 C627 1.370 . S
C626 C630 1.524 . S
C627 C619 1.503 . S
C627 C626 1.370 . S
C627 C628 1.403 . S
C628 C627 1.403 . S
C628 C629 1.404 . S
C628 C631 1.539 . S
C629 C625 1.408 . S
C629 C628 1.404 . S
C629 H641 0.930 . S
C630 C626 1.524 . S
C630 H642 0.956 . S
C630 H643 0.961 . S
C630 H644 0.961 . S
C631 C628 1.539 . S
C631 H645 0.958 . S
C631 H646 0.961 . S
C631 H647 0.960 . S
H632 C616 0.931 . S
H633 C621 0.929 . S
H634 C622 0.960 . S
H635 C622 0.962 . S
H636 C622 0.960 . S
H637 C623 0.961 . S
H638 C623 0.961 . S
H639 C623 0.961 . S
H640 C624 0.931 . S
H641 C629 0.930 . S
H642 C630 0.956 . S
H643 C630 0.961 . S
H644 C630 0.961 . S
H645 C631 0.958 . S
H646 C631 0.961 . S
H647 C631 0.960 . S
C648 C649 1.391 . S
C648 C650 1.394 . S
C648 H664 0.931 . S
C649 C648 1.391 . S
C649 C653 1.376 . S
C650 C648 1.394 . S
C650 C651 1.369 . S
C650 C654 1.531 1_565 S
C651 C650 1.369 . S
C651 C652 1.410 . S
C651 C659 1.503 1_565 S
C652 C651 1.410 . S
C652 C653 1.392 . S
C652 C655 1.511 . S
C653 C649 1.376 . S
C653 C652 1.392 . S
C653 H665 0.929 . S
C654 C650 1.531 1_545 S
C654 H666 0.960 . S
C654 H667 0.962 . S
C654 H668 0.960 . S
C655 C652 1.511 . S
C655 H669 0.961 . S
C655 H670 0.961 . S
C655 H671 0.961 . S
C656 C657 1.370 . S
C656 C658 1.363 . S
C656 H672 0.931 . S
C657 C656 1.370 . S
C657 C661 1.408 . S
C658 C656 1.363 . S
C658 C659 1.370 . S
C658 C662 1.524 1_545 S
C659 C651 1.503 1_545 S
C659 C658 1.370 . S
C659 C660 1.403 . S
C660 C659 1.403 . S
C660 C661 1.404 . S
C660 C663 1.539 . S
C661 C657 1.408 . S
C661 C660 1.404 . S
C661 H673 0.930 . S
C662 C658 1.524 1_565 S
C662 H674 0.956 . S
C662 H675 0.961 . S
C662 H676 0.961 . S
C663 C660 1.539 . S
C663 H677 0.958 . S
C663 H678 0.961 . S
C663 H679 0.960 . S
H664 C648 0.931 . S
H665 C653 0.929 . S
H666 C654 0.960 . S
H667 C654 0.962 . S
H668 C654 0.960 . S
H669 C655 0.961 . S
H670 C655 0.961 . S
H671 C655 0.961 . S
H672 C656 0.931 . S
H673 C661 0.930 . S
H674 C662 0.956 . S
H675 C662 0.961 . S
H676 C662 0.961 . S
H677 C663 0.958 . S
H678 C663 0.961 . S
H679 C663 0.960 . S
C680 C681 1.391 . S
C680 C682 1.394 . S
C680 H696 0.931 . S
C681 C680 1.391 . S
C681 C685 1.376 . S
C682 C680 1.394 . S
C682 C683 1.369 . S
C682 C686 1.531 . S
C683 C682 1.369 . S
C683 C684 1.410 . S
C683 C691 1.503 . S
C684 C683 1.410 . S
C684 C685 1.392 . S
C684 C687 1.511 . S
C685 C681 1.376 . S
C685 C684 1.392 . S
C685 H697 0.929 . S
C686 C682 1.531 . S
C686 H698 0.960 . S
C686 H699 0.962 . S
C686 H700 0.960 . S
C687 C684 1.511 . S
C687 H701 0.961 . S
C687 H702 0.961 . S
C687 H703 0.961 . S
C688 C689 1.370 . S
C688 C690 1.363 . S
C688 H704 0.931 . S
C689 C688 1.370 . S
C689 C693 1.408 . S
C690 C688 1.363 . S
C690 C691 1.370 . S
C690 C694 1.524 . S
C691 C683 1.503 . S
C691 C690 1.370 . S
C691 C692 1.403 . S
C692 C691 1.403 . S
C692 C693 1.404 . S
C692 C695 1.539 . S
C693 C689 1.408 . S
C693 C692 1.404 . S
C693 H705 0.930 . S
C694 C690 1.524 . S
C694 H706 0.956 . S
C694 H707 0.961 . S
C694 H708 0.961 . S
C695 C692 1.539 . S
C695 H709 0.958 . S
C695 H710 0.961 . S
C695 H711 0.960 . S
H696 C680 0.931 . S
H697 C685 0.929 . S
H698 C686 0.960 . S
H699 C686 0.962 . S
H700 C686 0.960 . S
H701 C687 0.961 . S
H702 C687 0.961 . S
H703 C687 0.961 . S
H704 C688 0.931 . S
H705 C693 0.930 . S
H706 C694 0.956 . S
H707 C694 0.961 . S
H708 C694 0.961 . S
H709 C695 0.958 . S
H710 C695 0.961 . S
H711 C695 0.960 . S
C712 C713 1.391 . S
C712 C714 1.394 . S
C712 H728 0.931 . S
C713 C712 1.391 . S
C713 C717 1.376 . S
C714 C712 1.394 . S
C714 C715 1.369 . S
C714 C718 1.531 1_455 S
C715 C714 1.369 . S
C715 C716 1.410 . S
C715 C723 1.503 1_455 S
C716 C715 1.410 . S
C716 C717 1.392 . S
C716 C719 1.511 . S
C717 C713 1.376 . S
C717 C716 1.392 . S
C717 H729 0.929 . S
C718 C714 1.531 1_655 S
C718 H730 0.960 . S
C718 H731 0.962 1_655 S
C718 H732 0.960 . S
C719 C716 1.511 . S
C719 H733 0.961 . S
C719 H734 0.961 . S
C719 H735 0.961 . S
C720 C721 1.370 . S
C720 C722 1.363 . S
C720 H736 0.931 . S
C721 C720 1.370 . S
C721 C725 1.408 . S
C722 C720 1.363 . S
C722 C723 1.370 . S
C722 C726 1.524 1_655 S
C723 C715 1.503 1_655 S
C723 C722 1.370 . S
C723 C724 1.403 . S
C724 C723 1.403 . S
C724 C725 1.404 . S
C724 C727 1.539 . S
C725 C721 1.408 . S
C725 C724 1.404 . S
C725 H737 0.930 . S
C726 C722 1.524 1_455 S
C726 H738 0.956 . S
C726 H739 0.961 . S
C726 H740 0.961 . S
C727 C724 1.539 . S
C727 H741 0.958 . S
C727 H742 0.961 . S
C727 H743 0.960 . S
H728 C712 0.931 . S
H729 C717 0.929 . S
H730 C718 0.960 . S
H731 C718 0.962 1_455 S
H732 C718 0.960 . S
H733 C719 0.961 . S
H734 C719 0.961 . S
H735 C719 0.961 . S
H736 C720 0.931 . S
H737 C725 0.930 . S
H738 C726 0.956 . S
H739 C726 0.961 . S
H740 C726 0.961 . S
H741 C727 0.958 . S
H742 C727 0.961 . S
H743 C727 0.960 . S
C744 C745 1.391 . S
C744 C746 1.394 . S
C744 H760 0.931 . S
C745 C744 1.391 . S
C745 C749 1.376 . S
C746 C744 1.394 . S
C746 C747 1.369 . S
C746 C750 1.531 . S
C747 C746 1.369 . S
C747 C748 1.410 . S
C747 C755 1.503 1_565 S
C748 C747 1.410 . S
C748 C749 1.392 . S
C748 C751 1.511 1_565 S
C749 C745 1.376 . S
C749 C748 1.392 . S
C749 H761 0.929 . S
C750 C746 1.531 . S
C750 H762 0.960 . S
C750 H763 0.962 . S
C750 H764 0.960 . S
C751 C748 1.511 1_545 S
C751 H765 0.961 . S
C751 H766 0.961 . S
C751 H767 0.961 . S
C752 C753 1.370 . S
C752 C754 1.363 . S
C752 H768 0.931 . S
C753 C752 1.370 . S
C753 C757 1.408 . S
C754 C752 1.363 . S
C754 C755 1.370 . S
C754 C758 1.524 . S
C755 C747 1.503 1_545 S
C755 C754 1.370 . S
C755 C756 1.403 . S
C756 C755 1.403 . S
C756 C757 1.404 . S
C756 C759 1.539 1_545 S
C757 C753 1.408 . S
C757 C756 1.404 . S
C757 H769 0.930 . S
C758 C754 1.524 . S
C758 H770 0.956 . S
C758 H771 0.961 . S
C758 H772 0.961 . S
C759 C756 1.539 1_565 S
C759 H773 0.958 . S
C759 H774 0.961 . S
C759 H775 0.960 . S
H760 C744 0.931 . S
H761 C749 0.929 . S
H762 C750 0.960 . S
H763 C750 0.962 . S
H764 C750 0.960 . S
H765 C751 0.961 . S
H766 C751 0.961 . S
H767 C751 0.961 . S
H768 C752 0.931 . S
H769 C757 0.930 . S
H770 C758 0.956 . S
H771 C758 0.961 . S
H772 C758 0.961 . S
H773 C759 0.958 . S
H774 C759 0.961 . S
H775 C759 0.960 . S
C776 C777 1.391 . S
C776 C778 1.394 . S
C776 H792 0.931 . S
C777 C776 1.391 . S
C777 C781 1.376 . S
C778 C776 1.394 . S
C778 C779 1.369 . S
C778 C782 1.531 . S
C779 C778 1.369 . S
C779 C780 1.410 . S
C779 C787 1.503 . S
C780 C779 1.410 . S
C780 C781 1.392 . S
C780 C783 1.511 . S
C781 C777 1.376 . S
C781 C780 1.392 . S
C781 H793 0.929 . S
C782 C778 1.531 . S
C782 H794 0.960 . S
C782 H795 0.962 . S
C782 H796 0.960 . S
C783 C780 1.511 . S
C783 H797 0.961 . S
C783 H798 0.961 . S
C783 H799 0.961 . S
C784 C785 1.370 . S
C784 C786 1.363 . S
C784 H800 0.931 . S
C785 C784 1.370 . S
C785 C789 1.408 . S
C786 C784 1.363 . S
C786 C787 1.370 . S
C786 C790 1.524 . S
C787 C779 1.503 . S
C787 C786 1.370 . S
C787 C788 1.403 . S
C788 C787 1.403 . S
C788 C789 1.404 . S
C788 C791 1.539 . S
C789 C785 1.408 . S
C789 C788 1.404 . S
C789 H801 0.930 . S
C790 C786 1.524 . S
C790 H802 0.956 . S
C790 H803 0.961 . S
C790 H804 0.961 . S
C791 C788 1.539 . S
C791 H805 0.958 . S
C791 H806 0.961 . S
C791 H807 0.960 . S
H792 C776 0.931 . S
H793 C781 0.929 . S
H794 C782 0.960 . S
H795 C782 0.962 . S
H796 C782 0.960 . S
H797 C783 0.961 . S
H798 C783 0.961 . S
H799 C783 0.961 . S
H800 C784 0.931 . S
H801 C789 0.930 . S
H802 C790 0.956 . S
H803 C790 0.961 . S
H804 C790 0.961 . S
H805 C791 0.958 . S
H806 C791 0.961 . S
H807 C791 0.960 . S
C808 C809 1.391 . S
C808 C810 1.394 . S
C808 H824 0.931 . S
C809 C808 1.391 . S
C809 C813 1.376 . S
C810 C808 1.394 . S
C810 C811 1.369 . S
C810 C814 1.531 . S
C811 C810 1.369 . S
C811 C812 1.410 . S
C811 C819 1.503 1_655 S
C812 C811 1.410 . S
C812 C813 1.392 . S
C812 C815 1.511 . S
C813 C809 1.376 . S
C813 C812 1.392 . S
C813 H825 0.929 . S
C814 C810 1.531 . S
C814 H826 0.960 1_655 S
C814 H827 0.962 1_655 S
C814 H828 0.960 . S
C815 C812 1.511 . S
C815 H829 0.961 . S
C815 H830 0.961 . S
C815 H831 0.961 . S
C816 C817 1.370 . S
C816 C818 1.363 . S
C816 H832 0.931 . S
C817 C816 1.370 . S
C817 C821 1.408 . S
C818 C816 1.363 . S
C818 C819 1.370 . S
C818 C822 1.524 . S
C819 C811 1.503 1_455 S
C819 C818 1.370 . S
C819 C820 1.403 . S
C820 C819 1.403 . S
C820 C821 1.404 . S
C820 C823 1.539 1_455 S
C821 C817 1.408 . S
C821 C820 1.404 . S
C821 H833 0.930 . S
C822 C818 1.524 . S
C822 H834 0.956 . S
C822 H835 0.961 . S
C822 H836 0.961 . S
C823 C820 1.539 1_655 S
C823 H837 0.958 . S
C823 H838 0.961 . S
C823 H839 0.960 . S
H824 C808 0.931 . S
H825 C813 0.929 . S
H826 C814 0.960 1_455 S
H827 C814 0.962 1_455 S
H828 C814 0.960 . S
H829 C815 0.961 . S
H830 C815 0.961 . S
H831 C815 0.961 . S
H832 C816 0.931 . S
H833 C821 0.930 . S
H834 C822 0.956 . S
H835 C822 0.961 . S
H836 C822 0.961 . S
H837 C823 0.958 . S
H838 C823 0.961 . S
H839 C823 0.960 . S
C840 C841 1.391 . S
C840 C842 1.394 . S
C840 H856 0.931 . S
C841 C840 1.391 . S
C841 C845 1.376 . S
C842 C840 1.394 . S
C842 C843 1.369 . S
C842 C846 1.531 1_545 S
C843 C842 1.369 . S
C843 C844 1.410 . S
C843 C851 1.503 1_545 S
C844 C843 1.410 . S
C844 C845 1.392 . S
C844 C847 1.511 . S
C845 C841 1.376 . S
C845 C844 1.392 . S
C845 H857 0.929 . S
C846 C842 1.531 1_565 S
C846 H858 0.960 . S
C846 H859 0.962 . S
C846 H860 0.960 . S
C847 C844 1.511 . S
C847 H861 0.961 . S
C847 H862 0.961 . S
C847 H863 0.961 . S
C848 C849 1.370 . S
C848 C850 1.363 . S
C848 H864 0.931 . S
C849 C848 1.370 . S
C849 C853 1.408 . S
C850 C848 1.363 . S
C850 C851 1.370 . S
C850 C854 1.524 1_565 S
C851 C843 1.503 1_565 S
C851 C850 1.370 . S
C851 C852 1.403 . S
C852 C851 1.403 . S
C852 C853 1.404 . S
C852 C855 1.539 . S
C853 C849 1.408 . S
C853 C852 1.404 . S
C853 H865 0.930 . S
C854 C850 1.524 1_545 S
C854 H866 0.956 . S
C854 H867 0.961 . S
C854 H868 0.961 . S
C855 C852 1.539 . S
C855 H869 0.958 . S
C855 H870 0.961 . S
C855 H871 0.960 . S
H856 C840 0.931 . S
H857 C845 0.929 . S
H858 C846 0.960 . S
H859 C846 0.962 . S
H860 C846 0.960 . S
H861 C847 0.961 . S
H862 C847 0.961 . S
H863 C847 0.961 . S
H864 C848 0.931 . S
H865 C853 0.930 . S
H866 C854 0.956 . S
H867 C854 0.961 . S
H868 C854 0.961 . S
H869 C855 0.958 . S
H870 C855 0.961 . S
H871 C855 0.960 . S
C872 C873 1.391 . S
C872 C874 1.394 . S
C872 H888 0.931 . S
C873 C872 1.391 . S
C873 C877 1.376 . S
C874 C872 1.394 . S
C874 C875 1.369 . S
C874 C878 1.531 . S
C875 C874 1.369 . S
C875 C876 1.410 . S
C875 C883 1.503 . S
C876 C875 1.410 . S
C876 C877 1.392 . S
C876 C879 1.511 . S
C877 C873 1.376 . S
C877 C876 1.392 . S
C877 H889 0.929 . S
C878 C874 1.531 . S
C878 H890 0.960 . S
C878 H891 0.962 . S
C878 H892 0.960 . S
C879 C876 1.511 . S
C879 H893 0.961 . S
C879 H894 0.961 . S
C879 H895 0.961 . S
C880 C881 1.370 . S
C880 C882 1.363 . S
C880 H896 0.931 . S
C881 C880 1.370 . S
C881 C885 1.408 . S
C882 C880 1.363 . S
C882 C883 1.370 . S
C882 C886 1.524 . S
C883 C875 1.503 . S
C883 C882 1.370 . S
C883 C884 1.403 . S
C884 C883 1.403 . S
C884 C885 1.404 . S
C884 C887 1.539 . S
C885 C881 1.408 . S
C885 C884 1.404 . S
C885 H897 0.930 . S
C886 C882 1.524 . S
C886 H898 0.956 . S
C886 H899 0.961 . S
C886 H900 0.961 . S
C887 C884 1.539 . S
C887 H901 0.958 . S
C887 H902 0.961 . S
C887 H903 0.960 . S
H888 C872 0.931 . S
H889 C877 0.929 . S
H890 C878 0.960 . S
H891 C878 0.962 . S
H892 C878 0.960 . S
H893 C879 0.961 . S
H894 C879 0.961 . S
H895 C879 0.961 . S
H896 C880 0.931 . S
H897 C885 0.930 . S
H898 C886 0.956 . S
H899 C886 0.961 . S
H900 C886 0.961 . S
H901 C887 0.958 . S
H902 C887 0.961 . S
H903 C887 0.960 . S
C904 C905 1.391 . S
C904 C906 1.394 . S
C904 H920 0.931 . S
C905 C904 1.391 . S
C905 C909 1.376 . S
C906 C904 1.394 . S
C906 C907 1.369 . S
C906 C910 1.501 1_655 S
C907 C906 1.369 . S
C907 C908 1.410 . S
C907 C915 1.503 1_655 S
C908 C907 1.410 . S
C908 C909 1.392 . S
C908 C911 1.511 . S
C909 C905 1.376 . S
C909 C908 1.392 . S
C909 H921 0.929 . S
C910 C906 1.501 1_455 S
C910 H922 0.985 . S
C910 H923 0.960 1_455 S
C910 H924 0.976 1_455 S
C911 C908 1.511 . S
C911 H925 0.961 . S
C911 H926 0.961 . S
C911 H927 0.963 . S
C912 C913 1.370 . S
C912 C914 1.363 . S
C912 H928 0.931 . S
C913 C912 1.370 . S
C913 C917 1.408 . S
C914 C912 1.363 . S
C914 C915 1.370 . S
C914 C918 1.524 1_455 S
C915 C907 1.503 1_455 S
C915 C914 1.370 . S
C915 C916 1.403 . S
C916 C915 1.403 . S
C916 C917 1.404 . S
C916 C919 1.539 . S
C917 C913 1.408 . S
C917 C916 1.404 . S
C917 H929 0.930 . S
C918 C914 1.524 1_655 S
C918 H930 0.956 . S
C918 H931 0.961 . S
C918 H932 0.961 . S
C919 C916 1.539 . S
C919 H933 0.958 . S
C919 H934 0.961 . S
C919 H935 0.960 . S
H920 C904 0.931 . S
H921 C909 0.929 . S
H922 C910 0.985 . S
H923 C910 0.960 1_655 S
H924 C910 0.976 1_655 S
H925 C911 0.961 . S
H926 C911 0.961 . S
H927 C911 0.963 . S
H928 C912 0.931 . S
H929 C917 0.930 . S
H930 C918 0.956 . S
H931 C918 0.961 . S
H932 C918 0.961 . S
H933 C919 0.958 . S
H934 C919 0.961 . S
H935 C919 0.960 . S
C936 C937 1.391 . S
C936 C938 1.394 . S
C936 H952 0.931 . S
C937 C936 1.391 . S
C937 C941 1.376 . S
C938 C936 1.394 . S
C938 C939 1.369 . S
C938 C942 1.531 . S
C939 C938 1.369 . S
C939 C940 1.410 . S
C939 C947 1.503 1_565 S
C940 C939 1.410 . S
C940 C941 1.392 . S
C940 C943 1.511 . S
C941 C937 1.376 . S
C941 C940 1.392 . S
C941 H953 0.929 . S
C942 C938 1.531 . S
C942 H954 0.960 . S
C942 H955 0.962 . S
C942 H956 0.960 . S
C943 C940 1.511 . S
C943 H957 0.961 . S
C943 H958 0.961 1_565 S
C943 H959 0.961 . S
C944 C945 1.370 . S
C944 C946 1.363 . S
C944 H960 0.931 . S
C945 C944 1.370 . S
C945 C949 1.408 . S
C946 C944 1.363 . S
C946 C947 1.370 . S
C946 C950 1.524 . S
C947 C939 1.503 1_545 S
C947 C946 1.370 . S
C947 C948 1.403 . S
C948 C947 1.403 . S
C948 C949 1.404 . S
C948 C951 1.539 1_545 S
C949 C945 1.408 . S
C949 C948 1.404 . S
C949 H961 0.930 . S
C950 C946 1.524 . S
C950 H962 0.956 . S
C950 H963 0.961 . S
C950 H964 0.961 . S
C951 C948 1.539 1_565 S
C951 H965 0.958 . S
C951 H966 0.961 . S
C951 H967 0.960 . S
H952 C936 0.931 . S
H953 C941 0.929 . S
H954 C942 0.960 . S
H955 C942 0.962 . S
H956 C942 0.960 . S
H957 C943 0.961 . S
H958 C943 0.961 1_545 S
H959 C943 0.961 . S
H960 C944 0.931 . S
H961 C949 0.930 . S
H962 C950 0.956 . S
H963 C950 0.961 . S
H964 C950 0.961 . S
H965 C951 0.958 . S
H966 C951 0.961 . S
H967 C951 0.960 . S
C968 C969 1.391 . S
C968 C970 1.394 . S
C968 H984 0.931 . S
C969 C968 1.391 . S
C969 C973 1.376 . S
C970 C968 1.394 . S
C970 C971 1.369 . S
C970 C974 1.531 . S
C971 C970 1.369 . S
C971 C972 1.410 . S
C971 C979 1.503 . S
C972 C971 1.410 . S
C972 C973 1.392 . S
C972 C975 1.511 . S
C973 C969 1.376 . S
C973 C972 1.392 . S
C973 H985 0.929 . S
C974 C970 1.531 . S
C974 H986 0.960 . S
C974 H987 0.962 . S
C974 H988 0.960 . S
C975 C972 1.511 . S
C975 H989 0.961 . S
C975 H990 0.961 . S
C975 H991 0.961 . S
C976 C977 1.370 . S
C976 C978 1.363 . S
C976 H992 0.931 . S
C977 C976 1.370 . S
C977 C981 1.408 . S
C978 C976 1.363 . S
C978 C979 1.370 . S
C978 C982 1.524 . S
C979 C971 1.503 . S
C979 C978 1.370 . S
C979 C980 1.403 . S
C980 C979 1.403 . S
C980 C981 1.404 . S
C980 C983 1.539 . S
C981 C977 1.408 . S
C981 C980 1.404 . S
C981 H993 0.930 . S
C982 C978 1.524 . S
C982 H994 0.956 . S
C982 H995 0.961 . S
C982 H996 0.961 . S
C983 C980 1.539 . S
C983 H997 0.958 . S
C983 H998 0.961 . S
C983 H999 0.960 . S
H984 C968 0.931 . S
H985 C973 0.929 . S
H986 C974 0.960 . S
H987 C974 0.962 . S
H988 C974 0.960 . S
H989 C975 0.961 . S
H990 C975 0.961 . S
H991 C975 0.961 . S
H992 C976 0.931 . S
H993 C981 0.930 . S
H994 C982 0.956 . S
H995 C982 0.961 . S
H996 C982 0.961 . S
H997 C983 0.958 . S
H998 C983 0.961 . S
H999 C983 0.960 . S
C1000 C1001 1.391 . S
C1000 C1002 1.394 . S
C1000 H1016 0.931 . S
C1001 C1000 1.391 . S
C1001 C1005 1.376 . S
C1002 C1000 1.394 . S
C1002 C1003 1.369 . S
C1002 C1006 1.531 . S
C1003 C1002 1.369 . S
C1003 C1004 1.410 . S
C1003 C1011 1.503 1_655 S
C1004 C1003 1.410 . S
C1004 C1005 1.392 . S
C1004 C1007 1.543 . S
C1005 C1001 1.376 . S
C1005 C1004 1.392 . S
C1005 H1017 0.929 . S
C1006 C1002 1.531 . S
C1006 H1018 0.960 1_655 S
C1006 H1019 0.962 . S
C1006 H1020 0.960 . S
C1007 C1004 1.543 . S
C1007 H1021 0.967 . S
C1007 H1022 0.950 1_655 S
C1007 H1023 0.935 1_655 S
C1008 C1009 1.370 . S
C1008 C1010 1.363 . S
C1008 H1024 0.931 . S
C1009 C1008 1.370 . S
C1009 C1013 1.408 . S
C1010 C1008 1.363 . S
C1010 C1011 1.370 . S
C1010 C1014 1.524 1_455 S
C1011 C1003 1.503 1_455 S
C1011 C1010 1.370 . S
C1011 C1012 1.403 . S
C1012 C1011 1.403 . S
C1012 C1013 1.404 . S
C1012 C1015 1.539 . S
C1013 C1009 1.408 . S
C1013 C1012 1.404 . S
C1013 H1025 0.930 . S
C1014 C1010 1.524 1_655 S
C1014 H1026 0.956 . S
C1014 H1027 0.961 . S
C1014 H1028 0.961 . S
C1015 C1012 1.539 . S
C1015 H1029 0.958 . S
C1015 H1030 0.961 . S
C1015 H1031 0.960 . S
H1016 C1000 0.931 . S
H1017 C1005 0.929 . S
H1018 C1006 0.960 1_455 S
H1019 C1006 0.962 . S
H1020 C1006 0.960 . S
H1021 C1007 0.967 . S
H1022 C1007 0.950 1_455 S
H1023 C1007 0.935 1_455 S
H1024 C1008 0.931 . S
H1025 C1013 0.930 . S
H1026 C1014 0.956 . S
H1027 C1014 0.961 . S
H1028 C1014 0.961 . S
H1029 C1015 0.958 . S
H1030 C1015 0.961 . S
H1031 C1015 0.960 . S
C1032 C1033 1.391 . S
C1032 C1034 1.394 . S
C1032 H1048 0.931 . S
C1033 C1032 1.391 . S
C1033 C1037 1.376 . S
C1034 C1032 1.394 . S
C1034 C1035 1.369 . S
C1034 C1038 1.531 . S
C1035 C1034 1.369 . S
C1035 C1036 1.410 . S
C1035 C1043 1.503 . S
C1036 C1035 1.410 . S
C1036 C1037 1.392 . S
C1036 C1039 1.511 . S
C1037 C1033 1.376 . S
C1037 C1036 1.392 . S
C1037 H1049 0.929 . S
C1038 C1034 1.531 . S
C1038 H1050 0.960 . S
C1038 H1051 0.962 . S
C1038 H1052 0.960 . S
C1039 C1036 1.511 . S
C1039 H1053 0.961 . S
C1039 H1054 0.961 . S
C1039 H1055 0.961 . S
C1040 C1041 1.370 . S
C1040 C1042 1.363 . S
C1040 H1056 0.931 . S
C1041 C1040 1.370 . S
C1041 C1045 1.408 . S
C1042 C1040 1.363 . S
C1042 C1043 1.370 . S
C1042 C1046 1.524 . S
C1043 C1035 1.503 . S
C1043 C1042 1.370 . S
C1043 C1044 1.403 . S
C1044 C1043 1.403 . S
C1044 C1045 1.404 . S
C1044 C1047 1.539 . S
C1045 C1041 1.408 . S
C1045 C1044 1.404 . S
C1045 H1057 0.930 . S
C1046 C1042 1.524 . S
C1046 H1058 0.956 . S
C1046 H1059 0.961 . S
C1046 H1060 0.961 . S
C1047 C1044 1.539 . S
C1047 H1061 0.958 . S
C1047 H1062 0.961 . S
C1047 H1063 0.960 . S
H1048 C1032 0.931 . S
H1049 C1037 0.929 . S
H1050 C1038 0.960 . S
H1051 C1038 0.962 . S
H1052 C1038 0.960 . S
H1053 C1039 0.961 . S
H1054 C1039 0.961 . S
H1055 C1039 0.961 . S
H1056 C1040 0.931 . S
H1057 C1045 0.930 . S
H1058 C1046 0.956 . S
H1059 C1046 0.961 . S
H1060 C1046 0.961 . S
H1061 C1047 0.958 . S
H1062 C1047 0.961 . S
H1063 C1047 0.960 . S
C1064 C1065 1.391 . S
C1064 C1066 1.394 . S
C1064 H1080 0.931 . S
C1065 C1064 1.391 . S
C1065 C1069 1.376 . S
C1066 C1064 1.394 . S
C1066 C1067 1.369 . S
C1066 C1070 1.531 . S
C1067 C1066 1.369 . S
C1067 C1068 1.410 . S
C1067 C1075 1.503 . S
C1068 C1067 1.410 . S
C1068 C1069 1.392 . S
C1068 C1071 1.511 . S
C1069 C1065 1.376 . S
C1069 C1068 1.392 . S
C1069 H1081 0.929 . S
C1070 C1066 1.531 . S
C1070 H1082 0.960 . S
C1070 H1083 0.962 . S
C1070 H1084 0.960 . S
C1071 C1068 1.511 . S
C1071 H1085 0.961 . S
C1071 H1086 0.961 . S
C1071 H1087 0.961 . S
C1072 C1073 1.370 . S
C1072 C1074 1.363 . S
C1072 H1088 0.931 . S
C1073 C1072 1.370 . S
C1073 C1077 1.408 . S
C1074 C1072 1.363 . S
C1074 C1075 1.370 . S
C1074 C1078 1.524 . S
C1075 C1067 1.503 . S
C1075 C1074 1.370 . S
C1075 C1076 1.403 . S
C1076 C1075 1.403 . S
C1076 C1077 1.404 . S
C1076 C1079 1.539 . S
C1077 C1073 1.408 . S
C1077 C1076 1.404 . S
C1077 H1089 0.930 . S
C1078 C1074 1.524 . S
C1078 H1090 0.956 . S
C1078 H1091 0.961 . S
C1078 H1092 0.961 . S
C1079 C1076 1.539 . S
C1079 H1093 0.958 . S
C1079 H1094 0.961 . S
C1079 H1095 0.960 . S
H1080 C1064 0.931 . S
H1081 C1069 0.929 . S
H1082 C1070 0.960 . S
H1083 C1070 0.962 . S
H1084 C1070 0.960 . S
H1085 C1071 0.961 . S
H1086 C1071 0.961 . S
H1087 C1071 0.961 . S
H1088 C1072 0.931 . S
H1089 C1077 0.930 . S
H1090 C1078 0.956 . S
H1091 C1078 0.961 . S
H1092 C1078 0.961 . S
H1093 C1079 0.958 . S
H1094 C1079 0.961 . S
H1095 C1079 0.960 . S
C1096 C1097 1.391 . S
C1096 C1098 1.394 . S
C1096 H1112 0.931 . S
C1097 C1096 1.391 . S
C1097 C1101 1.376 . S
C1098 C1096 1.394 . S
C1098 C1099 1.369 . S
C1098 C1102 1.531 . S
C1099 C1098 1.369 . S
C1099 C1100 1.410 . S
C1099 C1107 1.503 . S
C1100 C1099 1.410 . S
C1100 C1101 1.392 . S
C1100 C1103 1.511 . S
C1101 C1097 1.376 . S
C1101 C1100 1.392 . S
C1101 H1113 0.929 . S
C1102 C1098 1.531 . S
C1102 H1114 0.960 . S
C1102 H1115 0.962 . S
C1102 H1116 0.960 . S
C1103 C1100 1.511 . S
C1103 H1117 0.961 . S
C1103 H1118 0.961 . S
C1103 H1119 0.961 . S
C1104 C1105 1.370 . S
C1104 C1106 1.363 . S
C1104 H1120 0.931 . S
C1105 C1104 1.370 . S
C1105 C1109 1.408 . S
C1106 C1104 1.363 . S
C1106 C1107 1.370 . S
C1106 C1110 1.524 . S
C1107 C1099 1.503 . S
C1107 C1106 1.370 . S
C1107 C1108 1.403 . S
C1108 C1107 1.403 . S
C1108 C1109 1.404 . S
C1108 C1111 1.539 . S
C1109 C1105 1.408 . S
C1109 C1108 1.404 . S
C1109 H1121 0.930 . S
C1110 C1106 1.524 . S
C1110 H1122 0.956 . S
C1110 H1123 0.961 . S
C1110 H1124 0.961 . S
C1111 C1108 1.539 . S
C1111 H1125 0.958 . S
C1111 H1126 0.961 . S
C1111 H1127 0.960 . S
H1112 C1096 0.931 . S
H1113 C1101 0.929 . S
H1114 C1102 0.960 . S
H1115 C1102 0.962 . S
H1116 C1102 0.960 . S
H1117 C1103 0.961 . S
H1118 C1103 0.961 . S
H1119 C1103 0.961 . S
H1120 C1104 0.931 . S
H1121 C1109 0.930 . S
H1122 C1110 0.956 . S
H1123 C1110 0.961 . S
H1124 C1110 0.961 . S
H1125 C1111 0.958 . S
H1126 C1111 0.961 . S
H1127 C1111 0.960 . S
C1128 C1129 1.391 . S
C1128 C1130 1.394 . S
C1128 H1144 0.931 . S
C1129 C1128 1.391 . S
C1129 C1133 1.376 . S
C1130 C1128 1.394 . S
C1130 C1131 1.369 . S
C1130 C1134 1.531 . S
C1131 C1130 1.369 . S
C1131 C1132 1.410 . S
C1131 C1139 1.503 . S
C1132 C1131 1.410 . S
C1132 C1133 1.392 . S
C1132 C1135 1.511 . S
C1133 C1129 1.376 . S
C1133 C1132 1.392 . S
C1133 H1145 0.929 . S
C1134 C1130 1.531 . S
C1134 H1146 0.960 . S
C1134 H1147 0.962 . S
C1134 H1148 0.960 . S
C1135 C1132 1.511 . S
C1135 H1149 0.961 . S
C1135 H1150 0.961 . S
C1135 H1151 0.961 . S
C1136 C1137 1.370 . S
C1136 C1138 1.363 . S
C1136 H1152 0.931 . S
C1137 C1136 1.370 . S
C1137 C1141 1.408 . S
C1138 C1136 1.363 . S
C1138 C1139 1.370 . S
C1138 C1142 1.524 . S
C1139 C1131 1.503 . S
C1139 C1138 1.370 . S
C1139 C1140 1.403 . S
C1140 C1139 1.403 . S
C1140 C1141 1.404 . S
C1140 C1143 1.539 . S
C1141 C1137 1.408 . S
C1141 C1140 1.404 . S
C1141 H1153 0.930 . S
C1142 C1138 1.524 . S
C1142 H1154 0.956 . S
C1142 H1155 0.961 . S
C1142 H1156 0.961 . S
C1143 C1140 1.539 . S
C1143 H1157 0.958 . S
C1143 H1158 0.961 . S
C1143 H1159 0.960 . S
H1144 C1128 0.931 . S
H1145 C1133 0.929 . S
H1146 C1134 0.960 . S
H1147 C1134 0.962 . S
H1148 C1134 0.960 . S
H1149 C1135 0.961 . S
H1150 C1135 0.961 . S
H1151 C1135 0.961 . S
H1152 C1136 0.931 . S
H1153 C1141 0.930 . S
H1154 C1142 0.956 . S
H1155 C1142 0.961 . S
H1156 C1142 0.961 . S
H1157 C1143 0.958 . S
H1158 C1143 0.961 . S
H1159 C1143 0.960 . S
C1160 C1161 1.391 . S
C1160 C1162 1.394 . S
C1160 H1176 0.931 . S
C1161 C1160 1.391 . S
C1161 C1165 1.376 . S
C1162 C1160 1.394 . S
C1162 C1163 1.369 . S
C1162 C1166 1.531 . S
C1163 C1162 1.369 . S
C1163 C1164 1.410 . S
C1163 C1171 1.503 . S
C1164 C1163 1.410 . S
C1164 C1165 1.392 . S
C1164 C1167 1.511 . S
C1165 C1161 1.376 . S
C1165 C1164 1.392 . S
C1165 H1177 0.929 . S
C1166 C1162 1.531 . S
C1166 H1178 0.960 . S
C1166 H1179 0.962 . S
C1166 H1180 0.960 . S
C1167 C1164 1.511 . S
C1167 H1181 0.961 . S
C1167 H1182 0.961 . S
C1167 H1183 0.961 . S
C1168 C1169 1.370 . S
C1168 C1170 1.363 . S
C1168 H1184 0.931 . S
C1169 C1168 1.370 . S
C1169 C1173 1.408 . S
C1170 C1168 1.363 . S
C1170 C1171 1.370 . S
C1170 C1174 1.524 . S
C1171 C1163 1.503 . S
C1171 C1170 1.370 . S
C1171 C1172 1.403 . S
C1172 C1171 1.403 . S
C1172 C1173 1.404 . S
C1172 C1175 1.539 . S
C1173 C1169 1.408 . S
C1173 C1172 1.404 . S
C1173 H1185 0.930 . S
C1174 C1170 1.524 . S
C1174 H1186 0.956 . S
C1174 H1187 0.961 . S
C1174 H1188 0.961 . S
C1175 C1172 1.539 . S
C1175 H1189 0.958 . S
C1175 H1190 0.961 . S
C1175 H1191 0.960 . S
H1176 C1160 0.931 . S
H1177 C1165 0.929 . S
H1178 C1166 0.960 . S
H1179 C1166 0.962 . S
H1180 C1166 0.960 . S
H1181 C1167 0.961 . S
H1182 C1167 0.961 . S
H1183 C1167 0.961 . S
H1184 C1168 0.931 . S
H1185 C1173 0.930 . S
H1186 C1174 0.956 . S
H1187 C1174 0.961 . S
H1188 C1174 0.961 . S
H1189 C1175 0.958 . S
H1190 C1175 0.961 . S
H1191 C1175 0.960 . S
C1192 C1193 1.391 . S
C1192 C1194 1.394 . S
C1192 H1208 0.931 . S
C1193 C1192 1.391 . S
C1193 C1197 1.376 . S
C1194 C1192 1.394 . S
C1194 C1195 1.369 . S
C1194 C1198 1.531 . S
C1195 C1194 1.369 . S
C1195 C1196 1.410 . S
C1195 C1203 1.503 . S
C1196 C1195 1.410 . S
C1196 C1197 1.392 . S
C1196 C1199 1.511 . S
C1197 C1193 1.376 . S
C1197 C1196 1.392 . S
C1197 H1209 0.929 . S
C1198 C1194 1.531 . S
C1198 H1210 0.960 . S
C1198 H1211 0.962 . S
C1198 H1212 0.960 . S
C1199 C1196 1.511 . S
C1199 H1213 0.961 . S
C1199 H1214 0.961 . S
C1199 H1215 0.961 . S
C1200 C1201 1.370 . S
C1200 C1202 1.363 . S
C1200 H1216 0.931 . S
C1201 C1200 1.370 . S
C1201 C1205 1.408 . S
C1202 C1200 1.363 . S
C1202 C1203 1.370 . S
C1202 C1206 1.524 . S
C1203 C1195 1.503 . S
C1203 C1202 1.370 . S
C1203 C1204 1.403 . S
C1204 C1203 1.403 . S
C1204 C1205 1.404 . S
C1204 C1207 1.539 . S
C1205 C1201 1.408 . S
C1205 C1204 1.404 . S
C1205 H1217 0.930 . S
C1206 C1202 1.524 . S
C1206 H1218 0.956 . S
C1206 H1219 0.961 . S
C1206 H1220 0.961 . S
C1207 C1204 1.539 . S
C1207 H1221 0.958 . S
C1207 H1222 0.961 . S
C1207 H1223 0.960 . S
H1208 C1192 0.931 . S
H1209 C1197 0.929 . S
H1210 C1198 0.960 . S
H1211 C1198 0.962 . S
H1212 C1198 0.960 . S
H1213 C1199 0.961 . S
H1214 C1199 0.961 . S
H1215 C1199 0.961 . S
H1216 C1200 0.931 . S
H1217 C1205 0.930 . S
H1218 C1206 0.956 . S
H1219 C1206 0.961 . S
H1220 C1206 0.961 . S
H1221 C1207 0.958 . S
H1222 C1207 0.961 . S
H1223 C1207 0.960 . S
C1224 C1225 1.391 . S
C1224 C1226 1.394 . S
C1224 H1240 0.931 . S
C1225 C1224 1.391 . S
C1225 C1229 1.376 . S
C1226 C1224 1.394 . S
C1226 C1227 1.369 . S
C1226 C1230 1.531 . S
C1227 C1226 1.369 . S
C1227 C1228 1.410 . S
C1227 C1235 1.503 . S
C1228 C1227 1.410 . S
C1228 C1229 1.392 . S
C1228 C1231 1.511 . S
C1229 C1225 1.376 . S
C1229 C1228 1.392 . S
C1229 H1241 0.929 . S
C1230 C1226 1.531 . S
C1230 H1242 0.960 . S
C1230 H1243 0.962 . S
C1230 H1244 0.960 . S
C1231 C1228 1.511 . S
C1231 H1245 0.961 . S
C1231 H1246 0.961 . S
C1231 H1247 0.961 . S
C1232 C1233 1.370 . S
C1232 C1234 1.363 . S
C1232 H1248 0.931 . S
C1233 C1232 1.370 . S
C1233 C1237 1.408 . S
C1234 C1232 1.363 . S
C1234 C1235 1.370 . S
C1234 C1238 1.524 . S
C1235 C1227 1.503 . S
C1235 C1234 1.370 . S
C1235 C1236 1.403 . S
C1236 C1235 1.403 . S
C1236 C1237 1.404 . S
C1236 C1239 1.539 . S
C1237 C1233 1.408 . S
C1237 C1236 1.404 . S
C1237 H1249 0.930 . S
C1238 C1234 1.524 . S
C1238 H1250 0.956 . S
C1238 H1251 0.961 . S
C1238 H1252 0.961 . S
C1239 C1236 1.539 . S
C1239 H1253 0.958 . S
C1239 H1254 0.961 . S
C1239 H1255 0.960 . S
H1240 C1224 0.931 . S
H1241 C1229 0.929 . S
H1242 C1230 0.960 . S
H1243 C1230 0.962 . S
H1244 C1230 0.960 . S
H1245 C1231 0.961 . S
H1246 C1231 0.961 . S
H1247 C1231 0.961 . S
H1248 C1232 0.931 . S
H1249 C1237 0.930 . S
H1250 C1238 0.956 . S
H1251 C1238 0.961 . S
H1252 C1238 0.961 . S
H1253 C1239 0.958 . S
H1254 C1239 0.961 . S
H1255 C1239 0.960 . S
C1256 C1257 1.391 . S
C1256 C1258 1.394 . S
C1256 H1272 0.931 . S
C1257 C1256 1.391 . S
C1257 C1261 1.376 . S
C1258 C1256 1.394 . S
C1258 C1259 1.369 . S
C1258 C1262 1.531 . S
C1259 C1258 1.369 . S
C1259 C1260 1.410 . S
C1259 C1267 1.503 . S
C1260 C1259 1.410 . S
C1260 C1261 1.392 . S
C1260 C1263 1.511 . S
C1261 C1257 1.376 . S
C1261 C1260 1.392 . S
C1261 H1273 0.929 . S
C1262 C1258 1.531 . S
C1262 H1274 0.960 . S
C1262 H1275 0.962 . S
C1262 H1276 0.960 . S
C1263 C1260 1.511 . S
C1263 H1277 0.961 . S
C1263 H1278 0.961 . S
C1263 H1279 0.961 . S
C1264 C1265 1.370 . S
C1264 C1266 1.363 . S
C1264 H1280 0.931 . S
C1265 C1264 1.370 . S
C1265 C1269 1.408 . S
C1266 C1264 1.363 . S
C1266 C1267 1.370 . S
C1266 C1270 1.524 . S
C1267 C1259 1.503 . S
C1267 C1266 1.370 . S
C1267 C1268 1.403 . S
C1268 C1267 1.403 . S
C1268 C1269 1.404 . S
C1268 C1271 1.539 . S
C1269 C1265 1.408 . S
C1269 C1268 1.404 . S
C1269 H1281 0.930 . S
C1270 C1266 1.524 . S
C1270 H1282 0.956 . S
C1270 H1283 0.961 . S
C1270 H1284 0.961 . S
C1271 C1268 1.539 . S
C1271 H1285 0.958 . S
C1271 H1286 0.961 . S
C1271 H1287 0.960 . S
H1272 C1256 0.931 . S
H1273 C1261 0.929 . S
H1274 C1262 0.960 . S
H1275 C1262 0.962 . S
H1276 C1262 0.960 . S
H1277 C1263 0.961 . S
H1278 C1263 0.961 . S
H1279 C1263 0.961 . S
H1280 C1264 0.931 . S
H1281 C1269 0.930 . S
H1282 C1270 0.956 . S
H1283 C1270 0.961 . S
H1284 C1270 0.961 . S
H1285 C1271 0.958 . S
H1286 C1271 0.961 . S
H1287 C1271 0.960 . S
C1288 C1289 1.391 . S
C1288 C1290 1.394 . S
C1288 H1304 0.931 . S
C1289 C1288 1.391 . S
C1289 C1293 1.376 . S
C1290 C1288 1.394 . S
C1290 C1291 1.369 . S
C1290 C1294 1.531 . S
C1291 C1290 1.369 . S
C1291 C1292 1.410 . S
C1291 C1299 1.503 . S
C1292 C1291 1.410 . S
C1292 C1293 1.392 . S
C1292 C1295 1.511 . S
C1293 C1289 1.376 . S
C1293 C1292 1.392 . S
C1293 H1305 0.929 . S
C1294 C1290 1.531 . S
C1294 H1306 0.960 . S
C1294 H1307 0.962 . S
C1294 H1308 0.960 . S
C1295 C1292 1.511 . S
C1295 H1309 0.961 . S
C1295 H1310 0.961 . S
C1295 H1311 0.961 . S
C1296 C1297 1.370 . S
C1296 C1298 1.363 . S
C1296 H1312 0.931 . S
C1297 C1296 1.370 . S
C1297 C1301 1.408 . S
C1298 C1296 1.363 . S
C1298 C1299 1.370 . S
C1298 C1302 1.524 . S
C1299 C1291 1.503 . S
C1299 C1298 1.370 . S
C1299 C1300 1.403 . S
C1300 C1299 1.403 . S
C1300 C1301 1.404 . S
C1300 C1303 1.539 . S
C1301 C1297 1.408 . S
C1301 C1300 1.404 . S
C1301 H1313 0.930 . S
C1302 C1298 1.524 . S
C1302 H1314 0.956 . S
C1302 H1315 0.961 . S
C1302 H1316 0.961 . S
C1303 C1300 1.539 . S
C1303 H1317 0.958 . S
C1303 H1318 0.961 . S
C1303 H1319 0.960 . S
H1304 C1288 0.931 . S
H1305 C1293 0.929 . S
H1306 C1294 0.960 . S
H1307 C1294 0.962 . S
H1308 C1294 0.960 . S
H1309 C1295 0.961 . S
H1310 C1295 0.961 . S
H1311 C1295 0.961 . S
H1312 C1296 0.931 . S
H1313 C1301 0.930 . S
H1314 C1302 0.956 . S
H1315 C1302 0.961 . S
H1316 C1302 0.961 . S
H1317 C1303 0.958 . S
H1318 C1303 0.961 . S
H1319 C1303 0.960 . S
C1320 C1321 1.391 . S
C1320 C1322 1.394 . S
C1320 H1336 0.931 . S
C1321 C1320 1.391 . S
C1321 C1325 1.376 . S
C1322 C1320 1.394 . S
C1322 C1323 1.369 . S
C1322 C1326 1.531 . S
C1323 C1322 1.369 . S
C1323 C1324 1.410 . S
C1323 C1331 1.503 . S
C1324 C1323 1.410 . S
C1324 C1325 1.392 . S
C1324 C1327 1.511 . S
C1325 C1321 1.376 . S
C1325 C1324 1.392 . S
C1325 H1337 0.929 . S
C1326 C1322 1.531 . S
C1326 H1338 0.960 . S
C1326 H1339 0.962 . S
C1326 H1340 0.960 . S
C1327 C1324 1.511 . S
C1327 H1341 0.961 . S
C1327 H1342 0.961 . S
C1327 H1343 0.961 . S
C1328 C1329 1.370 . S
C1328 C1330 1.363 . S
C1328 H1344 0.931 . S
C1329 C1328 1.370 . S
C1329 C1333 1.408 . S
C1330 C1328 1.363 . S
C1330 C1331 1.370 . S
C1330 C1334 1.524 . S
C1331 C1323 1.503 . S
C1331 C1330 1.370 . S
C1331 C1332 1.403 . S
C1332 C1331 1.403 . S
C1332 C1333 1.404 . S
C1332 C1335 1.539 . S
C1333 C1329 1.408 . S
C1333 C1332 1.404 . S
C1333 H1345 0.930 . S
C1334 C1330 1.524 . S
C1334 H1346 0.956 . S
C1334 H1347 0.961 . S
C1334 H1348 0.961 . S
C1335 C1332 1.539 . S
C1335 H1349 0.958 . S
C1335 H1350 0.961 . S
C1335 H1351 0.960 . S
H1336 C1320 0.931 . S
H1337 C1325 0.929 . S
H1338 C1326 0.960 . S
H1339 C1326 0.962 . S
H1340 C1326 0.960 . S
H1341 C1327 0.961 . S
H1342 C1327 0.961 . S
H1343 C1327 0.961 . S
H1344 C1328 0.931 . S
H1345 C1333 0.930 . S
H1346 C1334 0.956 . S
H1347 C1334 0.961 . S
H1348 C1334 0.961 . S
H1349 C1335 0.958 . S
H1350 C1335 0.961 . S
H1351 C1335 0.960 . S
C1352 C1353 1.391 . S
C1352 C1354 1.394 . S
C1352 H1368 0.931 . S
C1353 C1352 1.391 . S
C1353 C1357 1.376 . S
C1354 C1352 1.394 . S
C1354 C1355 1.369 . S
C1354 C1358 1.531 . S
C1355 C1354 1.369 . S
C1355 C1356 1.410 . S
C1355 C1363 1.503 . S
C1356 C1355 1.410 . S
C1356 C1357 1.392 . S
C1356 C1359 1.511 . S
C1357 C1353 1.376 . S
C1357 C1356 1.392 . S
C1357 H1369 0.929 . S
C1358 C1354 1.531 . S
C1358 H1370 0.960 . S
C1358 H1371 0.962 . S
C1358 H1372 0.960 . S
C1359 C1356 1.511 . S
C1359 H1373 0.961 . S
C1359 H1374 0.961 . S
C1359 H1375 0.961 . S
C1360 C1361 1.370 . S
C1360 C1362 1.363 . S
C1360 H1376 0.931 . S
C1361 C1360 1.370 . S
C1361 C1365 1.408 . S
C1362 C1360 1.363 . S
C1362 C1363 1.370 . S
C1362 C1366 1.524 . S
C1363 C1355 1.503 . S
C1363 C1362 1.370 . S
C1363 C1364 1.403 . S
C1364 C1363 1.403 . S
C1364 C1365 1.404 . S
C1364 C1367 1.539 . S
C1365 C1361 1.408 . S
C1365 C1364 1.404 . S
C1365 H1377 0.930 . S
C1366 C1362 1.524 . S
C1366 H1378 0.956 . S
C1366 H1379 0.961 . S
C1366 H1380 0.961 . S
C1367 C1364 1.539 . S
C1367 H1381 0.958 . S
C1367 H1382 0.961 . S
C1367 H1383 0.960 . S
H1368 C1352 0.931 . S
H1369 C1357 0.929 . S
H1370 C1358 0.960 . S
H1371 C1358 0.962 . S
H1372 C1358 0.960 . S
H1373 C1359 0.961 . S
H1374 C1359 0.961 . S
H1375 C1359 0.961 . S
H1376 C1360 0.931 . S
H1377 C1365 0.930 . S
H1378 C1366 0.956 . S
H1379 C1366 0.961 . S
H1380 C1366 0.961 . S
H1381 C1367 0.958 . S
H1382 C1367 0.961 . S
H1383 C1367 0.960 . S
C1384 C1385 1.391 . S
C1384 C1386 1.394 . S
C1384 H1400 0.931 . S
C1385 C1384 1.391 . S
C1385 C1389 1.376 . S
C1386 C1384 1.394 . S
C1386 C1387 1.369 . S
C1386 C1390 1.531 . S
C1387 C1386 1.369 . S
C1387 C1388 1.410 . S
C1387 C1395 1.503 . S
C1388 C1387 1.410 . S
C1388 C1389 1.392 . S
C1388 C1391 1.511 . S
C1389 C1385 1.376 . S
C1389 C1388 1.392 . S
C1389 H1401 0.929 . S
C1390 C1386 1.531 . S
C1390 H1402 0.960 . S
C1390 H1403 0.962 . S
C1390 H1404 0.960 . S
C1391 C1388 1.511 . S
C1391 H1405 0.961 . S
C1391 H1406 0.961 . S
C1391 H1407 0.961 . S
C1392 C1393 1.370 . S
C1392 C1394 1.363 . S
C1392 H1408 0.931 . S
C1393 C1392 1.370 . S
C1393 C1397 1.408 . S
C1394 C1392 1.363 . S
C1394 C1395 1.370 . S
C1394 C1398 1.524 . S
C1395 C1387 1.503 . S
C1395 C1394 1.370 . S
C1395 C1396 1.403 . S
C1396 C1395 1.403 . S
C1396 C1397 1.404 . S
C1396 C1399 1.539 . S
C1397 C1393 1.408 . S
C1397 C1396 1.404 . S
C1397 H1409 0.930 . S
C1398 C1394 1.524 . S
C1398 H1410 0.956 . S
C1398 H1411 0.961 . S
C1398 H1412 0.961 . S
C1399 C1396 1.539 . S
C1399 H1413 0.958 . S
C1399 H1414 0.961 . S
C1399 H1415 0.960 . S
H1400 C1384 0.931 . S
H1401 C1389 0.929 . S
H1402 C1390 0.960 . S
H1403 C1390 0.962 . S
H1404 C1390 0.960 . S
H1405 C1391 0.961 . S
H1406 C1391 0.961 . S
H1407 C1391 0.961 . S
H1408 C1392 0.931 . S
H1409 C1397 0.930 . S
H1410 C1398 0.956 . S
H1411 C1398 0.961 . S
H1412 C1398 0.961 . S
H1413 C1399 0.958 . S
H1414 C1399 0.961 . S
H1415 C1399 0.960 . S
C265 C8 1.156 . S
C273 C184 1.163 . S
C297 C216 1.171 . S
C305 C30 1.166 . S
C329 C62 1.155 . S
C337 C228 1.163 . S
C361 C260 1.172 . S
C369 C76 1.167 . S
C393 C98 1.151 . S
C401 C150 1.158 . S
C425 C172 1.164 . S
C433 C120 1.166 . S
C457 C249 1.284 . S
C465 C81 1.274 . S
C489 C103 1.269 . S
C497 C139 1.280 . S
C521 C161 1.286 . S
C529 C125 1.270 . S
C553 C197 1.274 . S
C561 C21 1.270 . S
C585 C205 1.283 . S
C593 C43 1.269 . S
C617 C51 1.286 . S
C625 C241 1.272 . S
C649 C162 1.229 . S
C657 C10 1.240 . S
C681 C186 1.257 . S
C689 C32 1.250 . S
C713 C206 1.232 . S
C721 C52 1.242 . S
C745 C84 1.255 . S
C753 C230 1.248 . S
C777 C106 1.256 . S
C785 C250 1.250 . S
C809 C140 1.239 . S
C817 C128 1.241 . S
C841 C235 1.326 . S
C849 C73 1.342 . S
C873 C95 1.323 . S
C881 C263 1.342 . S
C905 C153 1.318 . S
C913 C117 1.341 . S
C937 C175 1.344 . S
C945 C15 1.325 . S
C969 C37 1.340 . S
C977 C191 1.340 . S
C1001 C65 1.311 . S
C1009 C219 1.339 . S
C1033 C18 1.504 . S
C1041 C238 1.517 . S
C1065 C40 1.503 . S
C1073 C252 1.517 . S
C1097 C142 1.504 . S
C1105 C54 1.511 . S
C1129 C164 1.503 . S
C1137 C74 1.517 . S
C1161 C96 1.511 . S
C1169 C194 1.511 . S
C1193 C208 1.515 . S
C1201 C118 1.519 . S
C1225 C87 1.630 . S
C1233 C169 1.623 . S
C1257 C109 1.636 . S
C1265 C183 1.627 . S
C1289 C213 1.635 . S
C1297 C131 1.622 . S
C1321 C227 1.610 . S
C1329 C7 1.631 . S
C1353 C257 1.624 . S
C1361 C29 1.624 . S
C1385 C147 1.636 . S
C1393 C59 1.627 . S
