# Generated by pormake.
# Topology uog, (4)-cn, num edge types: 1
# Building blocks:
#     Node 0, Type 0, BuildingBlock: CEKHIL_clean_sbu_0, # of connection points: 4
#     Node 1, Type 0, BuildingBlock: CEKHIL_clean_sbu_0, # of connection points: 4
#     Node 2, Type 0, BuildingBlock: CEKHIL_clean_sbu_0, # of connection points: 4
#     Node 3, Type 0, BuildingBlock: CEKHIL_clean_sbu_0, # of connection points: 4
#     Node 4, Type 0, BuildingBlock: CEKHIL_clean_sbu_0, # of connection points: 4
#     Node 5, Type 0, BuildingBlock: CEKHIL_clean_sbu_0, # of connection points: 4
#     Edge 6, Type (0, 0), BuildingBlock: UKIBIB_clean_linker_0, # of connection points: 2
#     Edge 7, Type (0, 0), BuildingBlock: UKIBIB_clean_linker_0, # of connection points: 2
#     Edge 8, Type (0, 0), BuildingBlock: UKIBIB_clean_linker_0, # of connection points: 2
#     Edge 9, Type (0, 0), BuildingBlock: UKIBIB_clean_linker_0, # of connection points: 2
#     Edge 10, Type (0, 0), BuildingBlock: UKIBIB_clean_linker_0, # of connection points: 2
#     Edge 11, Type (0, 0), BuildingBlock: UKIBIB_clean_linker_0, # of connection points: 2
#     Edge 12, Type (0, 0), BuildingBlock: UKIBIB_clean_linker_0, # of connection points: 2
#     Edge 13, Type (0, 0), BuildingBlock: UKIBIB_clean_linker_0, # of connection points: 2
#     Edge 14, Type (0, 0), BuildingBlock: UKIBIB_clean_linker_0, # of connection points: 2
#     Edge 15, Type (0, 0), BuildingBlock: UKIBIB_clean_linker_0, # of connection points: 2
#     Edge 16, Type (0, 0), BuildingBlock: UKIBIB_clean_linker_0, # of connection points: 2
#     Edge 17, Type (0, 0), BuildingBlock: UKIBIB_clean_linker_0, # of connection points: 2
# Relax obj value: 0.072
# Max RMSD: 0.170
# Mean RMSD: 0.170
data_MOF--net-uog--node1-CEKHIL_clean_sbu_0--edge1-UKIBIB_clean_linker_0
_symmetry_space_group_name_H-M    P1
_symmetry_Int_Tables_number       1
_symmetry_cell_setting            triclinic
loop_
_symmetry_equiv_pos_as_xyz
'x, y, z'
_cell_length_a     38.621737
_cell_length_b     38.733118
_cell_length_c     58.759215
_cell_angle_alpha  89.91046
_cell_angle_beta   90.187173
_cell_angle_gamma 120.03061
loop_
_atom_site_label
_atom_site_type_symbol
_atom_site_fract_x
_atom_site_fract_y
_atom_site_fract_z
_atom_type_partial_charge
Co0 Co 0.59498 0.28748 0.14941 0.0
O1 O 0.60727 0.2451 0.15061 0.0
O2 O 0.54781 0.23679 0.14191 0.0
C3 C 0.62281 0.31343 0.18371 0.0
O4 O 0.57196 0.32527 0.14718 0.0
Co5 Co 0.66737 0.37178 0.14688 0.0
O6 O 0.62564 0.38572 0.14138 0.0
C7 C 0.64403 0.32265 0.10623 0.0
C8 C 0.57031 0.22104 0.14538 0.0
C9 C 0.58805 0.36303 0.14332 0.0
O10 O 0.61181 0.29732 0.11646 0.0
O11 O 0.67252 0.35267 0.1163 0.0
O12 O 0.58641 0.28426 0.18182 0.0
O13 O 0.64309 0.32378 0.16499 0.0
Co14 Co 0.30728 0.59752 0.48227 0.0
O15 O 0.36199 0.60948 0.48333 0.0
O16 O 0.31048 0.55097 0.47347 0.0
C17 C 0.30835 0.62289 0.51702 0.0
O18 O 0.24633 0.57381 0.48026 0.0
Co19 Co 0.29087 0.66655 0.48084 0.0
O20 O 0.23409 0.62477 0.47833 0.0
C21 C 0.31784 0.64592 0.43941 0.0
C22 C 0.34867 0.57282 0.47738 0.0
C23 C 0.22226 0.58767 0.47834 0.0
O24 O 0.31348 0.61481 0.44966 0.0
O25 O 0.31424 0.67314 0.44954 0.0
O26 O 0.3023 0.58721 0.51408 0.0
O27 O 0.31809 0.64492 0.49881 0.0
Co28 Co 0.70662 0.30525 0.81627 0.0
O29 O 0.74912 0.35985 0.81786 0.0
O30 O 0.75718 0.30889 0.80853 0.0
C31 C 0.67978 0.30647 0.85025 0.0
O32 O 0.66922 0.24451 0.81396 0.0
Co33 Co 0.62154 0.29132 0.81293 0.0
O34 O 0.60811 0.23594 0.80721 0.0
C35 C 0.67158 0.31889 0.77287 0.0
C36 C 0.773 0.34697 0.81231 0.0
C37 C 0.6316 0.2221 0.80967 0.0
O38 O 0.69694 0.31221 0.78328 0.0
O39 O 0.6412 0.3169 0.78269 0.0
O40 O 0.70949 0.29996 0.84882 0.0
O41 O 0.66954 0.31615 0.83136 0.0
Co42 Co 0.3991 0.70716 0.14953 0.0
O43 O 0.38673 0.74922 0.15138 0.0
O44 O 0.44579 0.75803 0.14155 0.0
C45 C 0.37158 0.68086 0.18375 0.0
O46 O 0.42199 0.66934 0.14675 0.0
Co47 Co 0.32574 0.62235 0.14741 0.0
O48 O 0.36777 0.60812 0.14451 0.0
C49 C 0.34948 0.67159 0.10642 0.0
C50 C 0.42333 0.7736 0.14574 0.0
C51 C 0.40553 0.63114 0.1445 0.0
O52 O 0.38152 0.69742 0.11667 0.0
O53 O 0.32126 0.6414 0.11653 0.0
O54 O 0.40802 0.71011 0.1821 0.0
O55 O 0.35151 0.67079 0.16495 0.0
Co56 Co 0.68854 0.39809 0.48255 0.0
O57 O 0.63391 0.38611 0.48486 0.0
O58 O 0.68464 0.44471 0.47458 0.0
C59 C 0.68831 0.37078 0.51668 0.0
O60 O 0.74915 0.42185 0.47942 0.0
Co61 Co 0.7049 0.32885 0.47958 0.0
O62 O 0.76124 0.37093 0.47628 0.0
C63 C 0.67504 0.34951 0.43945 0.0
C64 C 0.64668 0.42271 0.47899 0.0
C65 C 0.77303 0.40801 0.47668 0.0
O66 O 0.6804 0.38096 0.4498 0.0
O67 O 0.67874 0.32206 0.44924 0.0
O68 O 0.69524 0.40703 0.51487 0.0
O69 O 0.6784 0.35037 0.49795 0.0
Co70 Co 0.2868 0.68876 0.81625 0.0
O71 O 0.24426 0.63434 0.81802 0.0
O72 O 0.23629 0.6852 0.80816 0.0
C73 C 0.3137 0.68753 0.8502 0.0
O74 O 0.32474 0.74938 0.81347 0.0
Co75 Co 0.37227 0.70146 0.81385 0.0
O76 O 0.38693 0.75812 0.81295 0.0
C77 C 0.32165 0.67425 0.77341 0.0
C78 C 0.22042 0.64717 0.81219 0.0
C79 C 0.36309 0.77187 0.81208 0.0
O80 O 0.2965 0.68151 0.78343 0.0
O81 O 0.35199 0.67606 0.78333 0.0
O82 O 0.28411 0.69429 0.84886 0.0
O83 O 0.32357 0.67775 0.83133 0.0
C84 C 0.52021 0.15133 0.15648 0.0
C85 C 0.55499 0.17777 0.14458 0.0
C86 C 0.50739 0.1105 0.15705 0.0
C87 C 0.47299 0.8433 0.13338 0.0
C88 C 0.43819 0.81696 0.14528 0.0
C89 C 0.48639 0.88428 0.13319 0.0
H90 H 0.6043 0.18292 0.12449 0.0
H91 H 0.58079 0.11104 0.12469 0.0
H92 H 0.39023 0.8128 0.16651 0.0
H93 H 0.41419 0.88442 0.16636 0.0
C94 C 0.57702 0.16292 0.13348 0.0
C95 C 0.56377 0.12202 0.13368 0.0
C96 C 0.41708 0.83233 0.15703 0.0
C97 C 0.43071 0.87324 0.15702 0.0
C98 C 0.52892 0.09566 0.14548 0.0
C99 C 0.51518 0.05345 0.14559 0.0
C100 C 0.50393 0.0182 0.14558 0.0
C101 C 0.46539 0.89938 0.14508 0.0
C102 C 0.47938 0.94163 0.14514 0.0
C103 C 0.49074 0.9769 0.14535 0.0
H104 H 0.50357 0.16237 0.16578 0.0
H105 H 0.4807 0.09056 0.16652 0.0
H106 H 0.48958 0.83221 0.12408 0.0
H107 H 0.51318 0.90417 0.12379 0.0
C108 C 0.38784 0.54809 0.49828 0.0
C109 C 0.37551 0.55628 0.47745 0.0
C110 C 0.41524 0.53447 0.49872 0.0
C111 C 0.60753 0.4482 0.45826 0.0
C112 C 0.6192 0.43859 0.47881 0.0
C113 C 0.5795 0.46112 0.45823 0.0
H114 H 0.38263 0.55829 0.44092 0.0
H115 H 0.43104 0.53448 0.44165 0.0
H116 H 0.61081 0.43399 0.51534 0.0
H117 H 0.56256 0.45787 0.51533 0.0
C118 C 0.39125 0.55129 0.45708 0.0
C119 C 0.41892 0.53796 0.45753 0.0
C120 C 0.60244 0.44176 0.49932 0.0
C121 C 0.57488 0.45519 0.49932 0.0
C122 C 0.43094 0.52942 0.47834 0.0
C123 C 0.45936 0.51554 0.47873 0.0
C124 C 0.48315 0.50394 0.47887 0.0
C125 C 0.56325 0.46487 0.47877 0.0
C126 C 0.53479 0.47871 0.47878 0.0
C127 C 0.51097 0.49028 0.47884 0.0
H128 H 0.37634 0.55235 0.51419 0.0
H129 H 0.42431 0.52812 0.51494 0.0
H130 H 0.6195 0.44503 0.44225 0.0
H131 H 0.5705 0.46811 0.44219 0.0
C132 C 0.83605 0.3907 0.79132 0.0
C133 C 0.8163 0.37452 0.81192 0.0
C134 C 0.87697 0.41885 0.79127 0.0
C135 C 0.15751 0.60223 0.83251 0.0
C136 C 0.17712 0.61962 0.81201 0.0
C137 C 0.11658 0.57444 0.83258 0.0
H138 H 0.8225 0.37569 0.84858 0.0
H139 H 0.89457 0.42446 0.84845 0.0
H140 H 0.17069 0.62041 0.77547 0.0
H141 H 0.09862 0.57105 0.77553 0.0
C142 C 0.83757 0.38729 0.83249 0.0
C143 C 0.87849 0.41519 0.83243 0.0
C144 C 0.15569 0.60811 0.79149 0.0
C145 C 0.11481 0.57986 0.79152 0.0
C146 C 0.89835 0.43098 0.81182 0.0
C147 C 0.94062 0.45943 0.8118 0.0
C148 C 0.97599 0.48322 0.81194 0.0
C149 C 0.09509 0.56318 0.81208 0.0
C150 C 0.05283 0.53473 0.81215 0.0
C151 C 0.01746 0.51094 0.81211 0.0
H152 H 0.81977 0.38193 0.77536 0.0
H153 H 0.89187 0.43113 0.77523 0.0
H154 H 0.17385 0.61032 0.84847 0.0
H155 H 0.10179 0.5617 0.84859 0.0
C156 C 0.15566 0.53319 0.49222 0.0
C157 C 0.17886 0.5608 0.47533 0.0
C158 C 0.11389 0.51633 0.49212 0.0
C159 C 0.83828 0.46067 0.45989 0.0
C160 C 0.81658 0.43448 0.4777 0.0
C161 C 0.88003 0.47736 0.45893 0.0
H162 H 0.17691 0.59023 0.44439 0.0
H163 H 0.10413 0.56027 0.44407 0.0
H164 H 0.82078 0.40626 0.50854 0.0
H165 H 0.8932 0.43537 0.50687 0.0
C166 C 0.15958 0.56898 0.45756 0.0
C167 C 0.11811 0.55211 0.45743 0.0
C168 C 0.83711 0.42679 0.49487 0.0
C169 C 0.87835 0.44314 0.49384 0.0
C170 C 0.09521 0.52667 0.47503 0.0
C171 C 0.05301 0.51309 0.47589 0.0
C172 C 0.01797 0.50298 0.47547 0.0
C173 C 0.89992 0.46785 0.47571 0.0
C174 C 0.94213 0.48184 0.47428 0.0
C175 C 0.97717 0.49197 0.47461 0.0
H176 H 0.16988 0.52683 0.50624 0.0
H177 H 0.09642 0.4966 0.50584 0.0
H178 H 0.82294 0.46635 0.44619 0.0
H179 H 0.89651 0.49644 0.44476 0.0
C180 C 0.36612 0.83895 0.81658 0.0
C181 C 0.3825 0.81578 0.8088 0.0
C182 C 0.38948 0.88094 0.81631 0.0
C183 C 0.62804 0.15528 0.80235 0.0
C184 C 0.61148 0.17799 0.81064 0.0
C185 C 0.60435 0.11331 0.80154 0.0
H186 H 0.43443 0.81874 0.79251 0.0
H187 H 0.47445 0.89067 0.79268 0.0
H188 H 0.55849 0.17438 0.82578 0.0
H189 H 0.51816 0.10272 0.82394 0.0
C190 C 0.42114 0.83542 0.79929 0.0
C191 C 0.4442 0.87673 0.79924 0.0
C192 C 0.57201 0.15799 0.81888 0.0
C193 C 0.54876 0.11685 0.81794 0.0
C194 C 0.42899 0.89972 0.80816 0.0
C195 C 0.45526 0.94231 0.80925 0.0
C196 C 0.48096 0.97702 0.80891 0.0
C197 C 0.56443 0.09424 0.8091 0.0
C198 C 0.53834 0.05167 0.80787 0.0
C199 C 0.51254 0.01701 0.80815 0.0
H200 H 0.33632 0.82485 0.82373 0.0
H201 H 0.37722 0.89861 0.82302 0.0
H202 H 0.65832 0.16975 0.79587 0.0
H203 H 0.61682 0.0959 0.79473 0.0
C204 C 0.40779 0.56878 0.13924 0.0
C205 C 0.42926 0.61049 0.14248 0.0
C206 C 0.4268 0.54654 0.13911 0.0
C207 C 0.5862 0.42587 0.14509 0.0
C208 C 0.56453 0.38396 0.14296 0.0
C209 C 0.56732 0.44819 0.14461 0.0
H210 H 0.48889 0.66159 0.14691 0.0
H211 H 0.52279 0.62154 0.14618 0.0
H212 H 0.50487 0.33273 0.13898 0.0
H213 H 0.47119 0.37305 0.13824 0.0
C214 C 0.47126 0.6296 0.14461 0.0
C215 C 0.49059 0.60682 0.14425 0.0
C216 C 0.52257 0.36485 0.14063 0.0
C217 C 0.50339 0.38776 0.14015 0.0
C218 C 0.46803 0.56512 0.14179 0.0
C219 C 0.48559 0.53995 0.14218 0.0
C220 C 0.49371 0.51367 0.14204 0.0
C221 C 0.52605 0.42956 0.14209 0.0
C222 C 0.50851 0.45473 0.14167 0.0
C223 C 0.50042 0.48103 0.14175 0.0
H224 H 0.37561 0.55252 0.13719 0.0
H225 H 0.40892 0.51445 0.13712 0.0
H226 H 0.61836 0.44208 0.1473 0.0
H227 H 0.58526 0.48034 0.14624 0.0
C228 C 0.63163 0.29186 0.88222 0.0
C229 C 0.66963 0.31559 0.87265 0.0
C230 C 0.6263 0.29354 0.90574 0.0
C231 C 0.68389 0.34302 0.07024 0.0
C232 C 0.64731 0.31886 0.08139 0.0
C233 C 0.68635 0.34217 0.04655 0.0
H234 H 0.73055 0.36216 0.87916 0.0
H235 H 0.72114 0.36521 0.92007 0.0
H236 H 0.58481 0.27433 0.07637 0.0
H237 H 0.58942 0.27304 0.03486 0.0
C238 C 0.70108 0.34341 0.88633 0.0
C239 C 0.6958 0.34507 0.90966 0.0
C240 C 0.61347 0.29314 0.06835 0.0
C241 C 0.61599 0.29246 0.04464 0.0
C242 C 0.65886 0.31912 0.9196 0.0
C243 C 0.65567 0.31724 0.94407 0.0
C244 C 0.65507 0.31718 0.9646 0.0
C245 C 0.65232 0.31721 0.03366 0.0
C246 C 0.6543 0.31766 0.00917 0.0
C247 C 0.65505 0.31739 -0.01135 0.0
H248 H 0.60703 0.27017 0.87191 0.0
H249 H 0.59744 0.27354 0.91323 0.0
H250 H 0.71054 0.36306 0.07976 0.0
H251 H 0.71469 0.36144 0.0383 0.0
C252 C 0.35808 0.70279 0.22015 0.0
C253 C 0.3524 0.67104 0.20617 0.0
C254 C 0.3506 0.69704 0.2434 0.0
C255 C 0.31443 0.61447 0.40164 0.0
C256 C 0.32485 0.64893 0.41458 0.0
C257 C 0.31808 0.61673 0.37796 0.0
H258 H 0.33048 0.60755 0.2047 0.0
H259 H 0.31664 0.5972 0.24595 0.0
H260 H 0.34882 0.71282 0.41293 0.0
H261 H 0.35557 0.71666 0.37138 0.0
C262 C 0.33526 0.63244 0.21529 0.0
C263 C 0.32768 0.62664 0.23876 0.0
C264 C 0.34019 0.68579 0.4034 0.0
C265 C 0.34413 0.68803 0.37971 0.0
C266 C 0.33691 0.65934 0.25294 0.0
C267 C 0.33533 0.65549 0.27736 0.0
C268 C 0.33492 0.655 0.29788 0.0
C269 C 0.33254 0.65342 0.36691 0.0
C270 C 0.33413 0.65516 0.34243 0.0
C271 C 0.33504 0.65546 0.32191 0.0
H272 H 0.37073 0.73267 0.21328 0.0
H273 H 0.35747 0.7225 0.25407 0.0
H274 H 0.30236 0.58555 0.40971 0.0
H275 H 0.30898 0.58973 0.36826 0.0
C276 C 0.69762 0.31325 0.73496 0.0
C277 C 0.6756 0.32587 0.74807 0.0
C278 C 0.69818 0.31633 0.71125 0.0
C279 C 0.65373 0.35974 0.55331 0.0
C280 C 0.6785 0.35205 0.53931 0.0
C281 C 0.65197 0.35268 0.57663 0.0
H282 H 0.63787 0.3526 0.7467 0.0
H283 H 0.63946 0.35842 0.70515 0.0
H284 H 0.71776 0.32723 0.53807 0.0
H285 H 0.71405 0.314 0.57943 0.0
C286 C 0.65501 0.34254 0.73704 0.0
C287 C 0.65586 0.34587 0.71334 0.0
C288 C 0.69859 0.3335 0.54861 0.0
C289 C 0.69674 0.32631 0.57216 0.0
C290 C 0.67709 0.33238 0.70036 0.0
C291 C 0.67658 0.33406 0.67587 0.0
C292 C 0.67681 0.335 0.65534 0.0
C293 C 0.67459 0.33735 0.58629 0.0
C294 C 0.67668 0.33562 0.61075 0.0
C295 C 0.67688 0.33511 0.63129 0.0
H296 H 0.7134 0.29985 0.74293 0.0
H297 H 0.71459 0.30563 0.70141 0.0
H298 H 0.63755 0.37354 0.54637 0.0
H299 H 0.63442 0.36102 0.58724 0.0
C300 C 0.3613 0.70719 0.88281 0.0
C301 C 0.32518 0.67943 0.87249 0.0
C302 C 0.36638 0.70548 0.90635 0.0
C303 C 0.31149 0.64686 0.06983 0.0
C304 C 0.34603 0.67511 0.08151 0.0
C305 C 0.30928 0.64784 0.04613 0.0
H306 H 0.26768 0.62638 0.87767 0.0
H307 H 0.27676 0.62315 0.91875 0.0
H308 H 0.40505 0.72715 0.07729 0.0
H309 H 0.4008 0.72872 0.03573 0.0
C310 C 0.29575 0.64806 0.88544 0.0
C311 C 0.3008 0.64634 0.90885 0.0
C312 C 0.37796 0.70498 0.06891 0.0
C313 C 0.37565 0.70589 0.04516 0.0
C314 C 0.33545 0.6759 0.91953 0.0
C315 C 0.33774 0.67722 0.94405 0.0
C316 C 0.33846 0.67725 0.96458 0.0
C317 C 0.34148 0.6771 0.0337 0.0
C318 C 0.33988 0.67697 0.00917 0.0
C319 C 0.3389 0.67717 -0.01135 0.0
H320 H 0.38422 0.73169 0.87304 0.0
H321 H 0.39347 0.72838 0.91439 0.0
H322 H 0.28633 0.62344 0.07894 0.0
H323 H 0.28263 0.62538 0.03752 0.0
C324 C 0.68385 0.38149 0.40144 0.0
C325 C 0.66808 0.34665 0.41471 0.0
C326 C 0.68081 0.37896 0.37775 0.0
C327 C 0.63133 0.2903 0.22106 0.0
C328 C 0.64147 0.32257 0.20638 0.0
C329 C 0.63878 0.29641 0.24429 0.0
H330 H 0.63598 0.28204 0.41378 0.0
H331 H 0.62996 0.27775 0.37214 0.0
H332 H 0.67118 0.38696 0.20384 0.0
H333 H 0.68526 0.3979 0.24514 0.0
C334 C 0.6484 0.30929 0.40391 0.0
C335 C 0.64499 0.30681 0.3802 0.0
C336 C 0.6629 0.36164 0.21493 0.0
C337 C 0.67058 0.36781 0.23842 0.0
C338 C 0.66157 0.34166 0.36706 0.0
C339 C 0.65982 0.33947 0.3426 0.0
C340 C 0.65921 0.33935 0.32209 0.0
C341 C 0.65709 0.33498 0.25319 0.0
C342 C 0.65938 0.33979 0.27755 0.0
C343 C 0.65964 0.34019 0.29807 0.0
H344 H 0.69972 0.4107 0.40929 0.0
H345 H 0.69398 0.40613 0.36777 0.0
H346 H 0.61541 0.25995 0.21472 0.0
H347 H 0.62854 0.27079 0.2554 0.0
C348 C 0.33104 0.7036 0.73505 0.0
C349 C 0.31897 0.66972 0.74865 0.0
C350 C 0.33069 0.70053 0.71138 0.0
C351 C 0.29586 0.60712 0.55768 0.0
C352 C 0.30948 0.63664 0.54069 0.0
C353 C 0.29993 0.61693 0.58054 0.0
H354 H 0.29685 0.60622 0.74875 0.0
H355 H 0.29538 0.60057 0.70687 0.0
H356 H 0.33697 0.70037 0.53467 0.0
H357 H 0.34264 0.71767 0.57574 0.0
C358 C 0.30618 0.63259 0.7384 0.0
C359 C 0.30542 0.62943 0.71462 0.0
C360 C 0.32608 0.67686 0.5473 0.0
C361 C 0.32962 0.68674 0.57067 0.0
C362 C 0.31791 0.66351 0.70105 0.0
C363 C 0.31799 0.66114 0.67655 0.0
C364 C 0.31909 0.66208 0.65602 0.0
C365 C 0.31687 0.65654 0.58728 0.0
C366 C 0.32039 0.66447 0.61141 0.0
C367 C 0.32052 0.66455 0.63197 0.0
H368 H 0.34137 0.73255 0.74277 0.0
H369 H 0.34058 0.72712 0.70114 0.0
H370 H 0.2826 0.57583 0.55341 0.0
H371 H 0.28991 0.59324 0.59304 0.0
loop_
_geom_bond_atom_site_label_1
_geom_bond_atom_site_label_2
_geom_bond_distance
_geom_bond_site_symmetry_2
_ccdc_geom_bond_type
Co0 O1 2.216 . S
Co0 O2 2.091 . S
Co0 O4 2.004 . S
Co0 O10 2.021 . S
Co0 O12 2.137 . S
Co0 O13 2.244 . S
O1 Co0 2.216 . S
O1 C8 1.247 . S
O2 Co0 2.091 . S
O2 C8 1.261 . S
C3 O12 1.247 . S
C3 O13 1.272 . S
O4 Co0 2.004 . S
O4 C9 1.259 . S
Co5 O6 2.061 . S
Co5 O11 2.052 . S
Co5 O13 2.135 . S
O6 Co5 2.061 . S
O6 C9 1.235 . S
C7 O10 1.238 . S
C7 O11 1.241 . S
C8 O1 1.247 . S
C8 O2 1.261 . S
C9 O4 1.259 . S
C9 O6 1.235 . S
O10 Co0 2.021 . S
O10 C7 1.238 . S
O11 Co5 2.052 . S
O11 C7 1.241 . S
O12 Co0 2.137 . S
O12 C3 1.247 . S
O13 Co0 2.244 . S
O13 C3 1.272 . S
O13 Co5 2.135 . S
Co14 O15 2.216 . S
Co14 O16 2.091 . S
Co14 O18 2.004 . S
Co14 O24 2.021 . S
Co14 O26 2.137 . S
Co14 O27 2.244 . S
O15 Co14 2.216 . S
O15 C22 1.247 . S
O16 Co14 2.091 . S
O16 C22 1.261 . S
C17 O26 1.247 . S
C17 O27 1.272 . S
O18 Co14 2.004 . S
O18 C23 1.259 . S
Co19 O20 2.061 . S
Co19 O25 2.052 . S
Co19 O27 2.135 . S
O20 Co19 2.061 . S
O20 C23 1.235 . S
C21 O24 1.238 . S
C21 O25 1.241 . S
C22 O15 1.247 . S
C22 O16 1.261 . S
C23 O18 1.259 . S
C23 O20 1.235 . S
O24 Co14 2.021 . S
O24 C21 1.238 . S
O25 Co19 2.052 . S
O25 C21 1.241 . S
O26 Co14 2.137 . S
O26 C17 1.247 . S
O27 Co14 2.244 . S
O27 C17 1.272 . S
O27 Co19 2.135 . S
Co28 O29 2.216 . S
Co28 O30 2.091 . S
Co28 O32 2.004 . S
Co28 O38 2.021 . S
Co28 O40 2.137 . S
Co28 O41 2.244 . S
O29 Co28 2.216 . S
O29 C36 1.247 . S
O30 Co28 2.091 . S
O30 C36 1.261 . S
C31 O40 1.247 . S
C31 O41 1.272 . S
O32 Co28 2.004 . S
O32 C37 1.259 . S
Co33 O34 2.061 . S
Co33 O39 2.052 . S
Co33 O41 2.135 . S
O34 Co33 2.061 . S
O34 C37 1.235 . S
C35 O38 1.238 . S
C35 O39 1.241 . S
C36 O29 1.247 . S
C36 O30 1.261 . S
C37 O32 1.259 . S
C37 O34 1.235 . S
O38 Co28 2.021 . S
O38 C35 1.238 . S
O39 Co33 2.052 . S
O39 C35 1.241 . S
O40 Co28 2.137 . S
O40 C31 1.247 . S
O41 Co28 2.244 . S
O41 C31 1.272 . S
O41 Co33 2.135 . S
Co42 O43 2.216 . S
Co42 O44 2.091 . S
Co42 O46 2.004 . S
Co42 O52 2.021 . S
Co42 O54 2.137 . S
Co42 O55 2.244 . S
O43 Co42 2.216 . S
O43 C50 1.247 . S
O44 Co42 2.091 . S
O44 C50 1.261 . S
C45 O54 1.247 . S
C45 O55 1.272 . S
O46 Co42 2.004 . S
O46 C51 1.259 . S
Co47 O48 2.061 . S
Co47 O53 2.052 . S
Co47 O55 2.135 . S
O48 Co47 2.061 . S
O48 C51 1.235 . S
C49 O52 1.238 . S
C49 O53 1.241 . S
C50 O43 1.247 . S
C50 O44 1.261 . S
C51 O46 1.259 . S
C51 O48 1.235 . S
O52 Co42 2.021 . S
O52 C49 1.238 . S
O53 Co47 2.052 . S
O53 C49 1.241 . S
O54 Co42 2.137 . S
O54 C45 1.247 . S
O55 Co42 2.244 . S
O55 C45 1.272 . S
O55 Co47 2.135 . S
Co56 O57 2.216 . S
Co56 O58 2.091 . S
Co56 O60 2.004 . S
Co56 O66 2.021 . S
Co56 O68 2.137 . S
Co56 O69 2.244 . S
O57 Co56 2.216 . S
O57 C64 1.247 . S
O58 Co56 2.091 . S
O58 C64 1.261 . S
C59 O68 1.247 . S
C59 O69 1.272 . S
O60 Co56 2.004 . S
O60 C65 1.259 . S
Co61 O62 2.061 . S
Co61 O67 2.052 . S
Co61 O69 2.135 . S
O62 Co61 2.061 . S
O62 C65 1.235 . S
C63 O66 1.238 . S
C63 O67 1.241 . S
C64 O57 1.247 . S
C64 O58 1.261 . S
C65 O60 1.259 . S
C65 O62 1.235 . S
O66 Co56 2.021 . S
O66 C63 1.238 . S
O67 Co61 2.052 . S
O67 C63 1.241 . S
O68 Co56 2.137 . S
O68 C59 1.247 . S
O69 Co56 2.244 . S
O69 C59 1.272 . S
O69 Co61 2.135 . S
Co70 O71 2.216 . S
Co70 O72 2.091 . S
Co70 O74 2.004 . S
Co70 O80 2.021 . S
Co70 O82 2.137 . S
Co70 O83 2.244 . S
O71 Co70 2.216 . S
O71 C78 1.247 . S
O72 Co70 2.091 . S
O72 C78 1.261 . S
C73 O82 1.247 . S
C73 O83 1.272 . S
O74 Co70 2.004 . S
O74 C79 1.259 . S
Co75 O76 2.061 . S
Co75 O81 2.052 . S
Co75 O83 2.135 . S
O76 Co75 2.061 . S
O76 C79 1.235 . S
C77 O80 1.238 . S
C77 O81 1.241 . S
C78 O71 1.247 . S
C78 O72 1.261 . S
C79 O74 1.259 . S
C79 O76 1.235 . S
O80 Co70 2.021 . S
O80 C77 1.238 . S
O81 Co75 2.052 . S
O81 C77 1.241 . S
O82 Co70 2.137 . S
O82 C73 1.247 . S
O83 Co70 2.244 . S
O83 C73 1.272 . S
O83 Co75 2.135 . S
C84 C85 1.332 . S
C84 C86 1.345 . S
C84 H104 0.932 . S
C85 C84 1.332 . S
C85 C94 1.332 . S
C86 C84 1.345 . S
C86 C98 1.334 . S
C86 H105 0.928 . S
C87 C88 1.332 . S
C87 C89 1.345 . S
C87 H106 0.932 . S
C88 C87 1.332 . S
C88 C96 1.332 . S
C89 C87 1.345 . S
C89 C101 1.334 . S
C89 H107 0.928 . S
H90 C94 0.932 . S
H91 C95 0.928 . S
H92 C96 0.932 . S
H93 C97 0.928 . S
C94 C85 1.332 . S
C94 H90 0.932 . S
C94 C95 1.345 . S
C95 H91 0.928 . S
C95 C94 1.345 . S
C95 C98 1.334 . S
C96 C88 1.332 . S
C96 H92 0.932 . S
C96 C97 1.345 . S
C97 H93 0.928 . S
C97 C96 1.345 . S
C97 C101 1.334 . S
C98 C86 1.334 . S
C98 C95 1.334 . S
C98 C99 1.487 . S
C99 C98 1.487 . S
C99 C100 1.185 . S
C100 C99 1.185 . S
C100 C103 1.482 1_545 S
C101 C89 1.334 . S
C101 C97 1.334 . S
C101 C102 1.487 . S
C102 C101 1.487 . S
C102 C103 1.185 . S
C103 C100 1.482 1_565 S
C103 C102 1.185 . S
H104 C84 0.932 . S
H105 C86 0.928 . S
H106 C87 0.932 . S
H107 C89 0.928 . S
C108 C109 1.332 . S
C108 C110 1.345 . S
C108 H128 0.932 . S
C109 C108 1.332 . S
C109 C118 1.332 . S
C110 C108 1.345 . S
C110 C122 1.334 . S
C110 H129 0.928 . S
C111 C112 1.332 . S
C111 C113 1.345 . S
C111 H130 0.932 . S
C112 C111 1.332 . S
C112 C120 1.332 . S
C113 C111 1.345 . S
C113 C125 1.334 . S
C113 H131 0.928 . S
H114 C118 0.932 . S
H115 C119 0.928 . S
H116 C120 0.932 . S
H117 C121 0.928 . S
C118 C109 1.332 . S
C118 H114 0.932 . S
C118 C119 1.345 . S
C119 H115 0.928 . S
C119 C118 1.345 . S
C119 C122 1.334 . S
C120 C112 1.332 . S
C120 H116 0.932 . S
C120 C121 1.345 . S
C121 H117 0.928 . S
C121 C120 1.345 . S
C121 C125 1.334 . S
C122 C110 1.334 . S
C122 C119 1.334 . S
C122 C123 1.487 . S
C123 C122 1.487 . S
C123 C124 1.185 . S
C124 C123 1.185 . S
C124 C127 1.482 . S
C125 C113 1.334 . S
C125 C121 1.334 . S
C125 C126 1.487 . S
C126 C125 1.487 . S
C126 C127 1.185 . S
C127 C124 1.482 . S
C127 C126 1.185 . S
H128 C108 0.932 . S
H129 C110 0.928 . S
H130 C111 0.932 . S
H131 C113 0.928 . S
C132 C133 1.332 . S
C132 C134 1.345 . S
C132 H152 0.932 . S
C133 C132 1.332 . S
C133 C142 1.332 . S
C134 C132 1.345 . S
C134 C146 1.334 . S
C134 H153 0.928 . S
C135 C136 1.332 . S
C135 C137 1.345 . S
C135 H154 0.932 . S
C136 C135 1.332 . S
C136 C144 1.332 . S
C137 C135 1.345 . S
C137 C149 1.334 . S
C137 H155 0.928 . S
H138 C142 0.932 . S
H139 C143 0.928 . S
H140 C144 0.932 . S
H141 C145 0.928 . S
C142 C133 1.332 . S
C142 H138 0.932 . S
C142 C143 1.345 . S
C143 H139 0.928 . S
C143 C142 1.345 . S
C143 C146 1.334 . S
C144 C136 1.332 . S
C144 H140 0.932 . S
C144 C145 1.345 . S
C145 H141 0.928 . S
C145 C144 1.345 . S
C145 C149 1.334 . S
C146 C134 1.334 . S
C146 C143 1.334 . S
C146 C147 1.487 . S
C147 C146 1.487 . S
C147 C148 1.185 . S
C148 C147 1.185 . S
C148 C151 1.482 1_655 S
C149 C137 1.334 . S
C149 C145 1.334 . S
C149 C150 1.487 . S
C150 C149 1.487 . S
C150 C151 1.185 . S
C151 C148 1.482 1_455 S
C151 C150 1.185 . S
H152 C132 0.932 . S
H153 C134 0.928 . S
H154 C135 0.932 . S
H155 C137 0.928 . S
C156 C157 1.332 . S
C156 C158 1.345 . S
C156 H176 0.932 . S
C157 C156 1.332 . S
C157 C166 1.332 . S
C158 C156 1.345 . S
C158 C170 1.334 . S
C158 H177 0.928 . S
C159 C160 1.332 . S
C159 C161 1.345 . S
C159 H178 0.932 . S
C160 C159 1.332 . S
C160 C168 1.332 . S
C161 C159 1.345 . S
C161 C173 1.334 . S
C161 H179 0.928 . S
H162 C166 0.932 . S
H163 C167 0.928 . S
H164 C168 0.932 . S
H165 C169 0.928 . S
C166 C157 1.332 . S
C166 H162 0.932 . S
C166 C167 1.345 . S
C167 H163 0.928 . S
C167 C166 1.345 . S
C167 C170 1.334 . S
C168 C160 1.332 . S
C168 H164 0.932 . S
C168 C169 1.345 . S
C169 H165 0.928 . S
C169 C168 1.345 . S
C169 C173 1.334 . S
C170 C158 1.334 . S
C170 C167 1.334 . S
C170 C171 1.487 . S
C171 C170 1.487 . S
C171 C172 1.185 . S
C172 C171 1.185 . S
C172 C175 1.482 1_455 S
C173 C161 1.334 . S
C173 C169 1.334 . S
C173 C174 1.487 . S
C174 C173 1.487 . S
C174 C175 1.185 . S
C175 C172 1.482 1_655 S
C175 C174 1.185 . S
H176 C156 0.932 . S
H177 C158 0.928 . S
H178 C159 0.932 . S
H179 C161 0.928 . S
C180 C181 1.332 . S
C180 C182 1.345 . S
C180 H200 0.932 . S
C181 C180 1.332 . S
C181 C190 1.332 . S
C182 C180 1.345 . S
C182 C194 1.334 . S
C182 H201 0.928 . S
C183 C184 1.332 . S
C183 C185 1.345 . S
C183 H202 0.932 . S
C184 C183 1.332 . S
C184 C192 1.332 . S
C185 C183 1.345 . S
C185 C197 1.334 . S
C185 H203 0.928 . S
H186 C190 0.932 . S
H187 C191 0.928 . S
H188 C192 0.932 . S
H189 C193 0.928 . S
C190 C181 1.332 . S
C190 H186 0.932 . S
C190 C191 1.345 . S
C191 H187 0.928 . S
C191 C190 1.345 . S
C191 C194 1.334 . S
C192 C184 1.332 . S
C192 H188 0.932 . S
C192 C193 1.345 . S
C193 H189 0.928 . S
C193 C192 1.345 . S
C193 C197 1.334 . S
C194 C182 1.334 . S
C194 C191 1.334 . S
C194 C195 1.487 . S
C195 C194 1.487 . S
C195 C196 1.185 . S
C196 C195 1.185 . S
C196 C199 1.482 1_565 S
C197 C185 1.334 . S
C197 C193 1.334 . S
C197 C198 1.487 . S
C198 C197 1.487 . S
C198 C199 1.185 . S
C199 C196 1.482 1_545 S
C199 C198 1.185 . S
H200 C180 0.932 . S
H201 C182 0.928 . S
H202 C183 0.932 . S
H203 C185 0.928 . S
C204 C205 1.332 . S
C204 C206 1.345 . S
C204 H224 0.932 . S
C205 C204 1.332 . S
C205 C214 1.332 . S
C206 C204 1.345 . S
C206 C218 1.334 . S
C206 H225 0.928 . S
C207 C208 1.332 . S
C207 C209 1.345 . S
C207 H226 0.932 . S
C208 C207 1.332 . S
C208 C216 1.332 . S
C209 C207 1.345 . S
C209 C221 1.334 . S
C209 H227 0.928 . S
H210 C214 0.932 . S
H211 C215 0.928 . S
H212 C216 0.932 . S
H213 C217 0.928 . S
C214 C205 1.332 . S
C214 H210 0.932 . S
C214 C215 1.345 . S
C215 H211 0.928 . S
C215 C214 1.345 . S
C215 C218 1.334 . S
C216 C208 1.332 . S
C216 H212 0.932 . S
C216 C217 1.345 . S
C217 H213 0.928 . S
C217 C216 1.345 . S
C217 C221 1.334 . S
C218 C206 1.334 . S
C218 C215 1.334 . S
C218 C219 1.487 . S
C219 C218 1.487 . S
C219 C220 1.185 . S
C220 C219 1.185 . S
C220 C223 1.482 . S
C221 C209 1.334 . S
C221 C217 1.334 . S
C221 C222 1.487 . S
C222 C221 1.487 . S
C222 C223 1.185 . S
C223 C220 1.482 . S
C223 C222 1.185 . S
H224 C204 0.932 . S
H225 C206 0.928 . S
H226 C207 0.932 . S
H227 C209 0.928 . S
C228 C229 1.332 . S
C228 C230 1.345 . S
C228 H248 0.932 . S
C229 C228 1.332 . S
C229 C238 1.332 . S
C230 C228 1.345 . S
C230 C242 1.334 . S
C230 H249 0.928 . S
C231 C232 1.332 . S
C231 C233 1.345 . S
C231 H250 0.932 . S
C232 C231 1.332 . S
C232 C240 1.332 . S
C233 C231 1.345 . S
C233 C245 1.334 . S
C233 H251 0.928 . S
H234 C238 0.932 . S
H235 C239 0.928 . S
H236 C240 0.932 . S
H237 C241 0.928 . S
C238 C229 1.332 . S
C238 H234 0.932 . S
C238 C239 1.345 . S
C239 H235 0.928 . S
C239 C238 1.345 . S
C239 C242 1.334 . S
C240 C232 1.332 . S
C240 H236 0.932 . S
C240 C241 1.345 . S
C241 H237 0.928 . S
C241 C240 1.345 . S
C241 C245 1.334 . S
C242 C230 1.334 . S
C242 C239 1.334 . S
C242 C243 1.487 . S
C243 C242 1.487 . S
C243 C244 1.185 . S
C244 C243 1.185 . S
C244 C247 1.482 1_556 S
C245 C233 1.334 . S
C245 C241 1.334 . S
C245 C246 1.487 . S
C246 C245 1.487 . S
C246 C247 1.185 . S
C247 C244 1.482 1_554 S
C247 C246 1.185 . S
H248 C228 0.932 . S
H249 C230 0.928 . S
H250 C231 0.932 . S
H251 C233 0.928 . S
C252 C253 1.332 . S
C252 C254 1.345 . S
C252 H272 0.932 . S
C253 C252 1.332 . S
C253 C262 1.332 . S
C254 C252 1.345 . S
C254 C266 1.334 . S
C254 H273 0.928 . S
C255 C256 1.332 . S
C255 C257 1.345 . S
C255 H274 0.932 . S
C256 C255 1.332 . S
C256 C264 1.332 . S
C257 C255 1.345 . S
C257 C269 1.334 . S
C257 H275 0.928 . S
H258 C262 0.932 . S
H259 C263 0.928 . S
H260 C264 0.932 . S
H261 C265 0.928 . S
C262 C253 1.332 . S
C262 H258 0.932 . S
C262 C263 1.345 . S
C263 H259 0.928 . S
C263 C262 1.345 . S
C263 C266 1.334 . S
C264 C256 1.332 . S
C264 H260 0.932 . S
C264 C265 1.345 . S
C265 H261 0.928 . S
C265 C264 1.345 . S
C265 C269 1.334 . S
C266 C254 1.334 . S
C266 C263 1.334 . S
C266 C267 1.487 . S
C267 C266 1.487 . S
C267 C268 1.185 . S
C268 C267 1.185 . S
C268 C271 1.482 . S
C269 C257 1.334 . S
C269 C265 1.334 . S
C269 C270 1.487 . S
C270 C269 1.487 . S
C270 C271 1.185 . S
C271 C268 1.482 . S
C271 C270 1.185 . S
H272 C252 0.932 . S
H273 C254 0.928 . S
H274 C255 0.932 . S
H275 C257 0.928 . S
C276 C277 1.332 . S
C276 C278 1.345 . S
C276 H296 0.932 . S
C277 C276 1.332 . S
C277 C286 1.332 . S
C278 C276 1.345 . S
C278 C290 1.334 . S
C278 H297 0.928 . S
C279 C280 1.332 . S
C279 C281 1.345 . S
C279 H298 0.932 . S
C280 C279 1.332 . S
C280 C288 1.332 . S
C281 C279 1.345 . S
C281 C293 1.334 . S
C281 H299 0.928 . S
H282 C286 0.932 . S
H283 C287 0.928 . S
H284 C288 0.932 . S
H285 C289 0.928 . S
C286 C277 1.332 . S
C286 H282 0.932 . S
C286 C287 1.345 . S
C287 H283 0.928 . S
C287 C286 1.345 . S
C287 C290 1.334 . S
C288 C280 1.332 . S
C288 H284 0.932 . S
C288 C289 1.345 . S
C289 H285 0.928 . S
C289 C288 1.345 . S
C289 C293 1.334 . S
C290 C278 1.334 . S
C290 C287 1.334 . S
C290 C291 1.487 . S
C291 C290 1.487 . S
C291 C292 1.185 . S
C292 C291 1.185 . S
C292 C295 1.482 . S
C293 C281 1.334 . S
C293 C289 1.334 . S
C293 C294 1.487 . S
C294 C293 1.487 . S
C294 C295 1.185 . S
C295 C292 1.482 . S
C295 C294 1.185 . S
H296 C276 0.932 . S
H297 C278 0.928 . S
H298 C279 0.932 . S
H299 C281 0.928 . S
C300 C301 1.332 . S
C300 C302 1.345 . S
C300 H320 0.932 . S
C301 C300 1.332 . S
C301 C310 1.332 . S
C302 C300 1.345 . S
C302 C314 1.334 . S
C302 H321 0.928 . S
C303 C304 1.332 . S
C303 C305 1.345 . S
C303 H322 0.932 . S
C304 C303 1.332 . S
C304 C312 1.332 . S
C305 C303 1.345 . S
C305 C317 1.334 . S
C305 H323 0.928 . S
H306 C310 0.932 . S
H307 C311 0.928 . S
H308 C312 0.932 . S
H309 C313 0.928 . S
C310 C301 1.332 . S
C310 H306 0.932 . S
C310 C311 1.345 . S
C311 H307 0.928 . S
C311 C310 1.345 . S
C311 C314 1.334 . S
C312 C304 1.332 . S
C312 H308 0.932 . S
C312 C313 1.345 . S
C313 H309 0.928 . S
C313 C312 1.345 . S
C313 C317 1.334 . S
C314 C302 1.334 . S
C314 C311 1.334 . S
C314 C315 1.487 . S
C315 C314 1.487 . S
C315 C316 1.185 . S
C316 C315 1.185 . S
C316 C319 1.482 1_556 S
C317 C305 1.334 . S
C317 C313 1.334 . S
C317 C318 1.487 . S
C318 C317 1.487 . S
C318 C319 1.185 . S
C319 C316 1.482 1_554 S
C319 C318 1.185 . S
H320 C300 0.932 . S
H321 C302 0.928 . S
H322 C303 0.932 . S
H323 C305 0.928 . S
C324 C325 1.332 . S
C324 C326 1.345 . S
C324 H344 0.932 . S
C325 C324 1.332 . S
C325 C334 1.332 . S
C326 C324 1.345 . S
C326 C338 1.334 . S
C326 H345 0.928 . S
C327 C328 1.332 . S
C327 C329 1.345 . S
C327 H346 0.932 . S
C328 C327 1.332 . S
C328 C336 1.332 . S
C329 C327 1.345 . S
C329 C341 1.334 . S
C329 H347 0.928 . S
H330 C334 0.932 . S
H331 C335 0.928 . S
H332 C336 0.932 . S
H333 C337 0.928 . S
C334 C325 1.332 . S
C334 H330 0.932 . S
C334 C335 1.345 . S
C335 H331 0.928 . S
C335 C334 1.345 . S
C335 C338 1.334 . S
C336 C328 1.332 . S
C336 H332 0.932 . S
C336 C337 1.345 . S
C337 H333 0.928 . S
C337 C336 1.345 . S
C337 C341 1.334 . S
C338 C326 1.334 . S
C338 C335 1.334 . S
C338 C339 1.487 . S
C339 C338 1.487 . S
C339 C340 1.185 . S
C340 C339 1.185 . S
C340 C343 1.482 . S
C341 C329 1.334 . S
C341 C337 1.334 . S
C341 C342 1.487 . S
C342 C341 1.487 . S
C342 C343 1.185 . S
C343 C340 1.482 . S
C343 C342 1.185 . S
H344 C324 0.932 . S
H345 C326 0.928 . S
H346 C327 0.932 . S
H347 C329 0.928 . S
C348 C349 1.332 . S
C348 C350 1.345 . S
C348 H368 0.932 . S
C349 C348 1.332 . S
C349 C358 1.332 . S
C350 C348 1.345 . S
C350 C362 1.334 . S
C350 H369 0.928 . S
C351 C352 1.332 . S
C351 C353 1.345 . S
C351 H370 0.932 . S
C352 C351 1.332 . S
C352 C360 1.332 . S
C353 C351 1.345 . S
C353 C365 1.334 . S
C353 H371 0.928 . S
H354 C358 0.932 . S
H355 C359 0.928 . S
H356 C360 0.932 . S
H357 C361 0.928 . S
C358 C349 1.332 . S
C358 H354 0.932 . S
C358 C359 1.345 . S
C359 H355 0.928 . S
C359 C358 1.345 . S
C359 C362 1.334 . S
C360 C352 1.332 . S
C360 H356 0.932 . S
C360 C361 1.345 . S
C361 H357 0.928 . S
C361 C360 1.345 . S
C361 C365 1.334 . S
C362 C350 1.334 . S
C362 C359 1.334 . S
C362 C363 1.487 . S
C363 C362 1.487 . S
C363 C364 1.185 . S
C364 C363 1.185 . S
C364 C367 1.482 . S
C365 C353 1.334 . S
C365 C361 1.334 . S
C365 C366 1.487 . S
C366 C365 1.487 . S
C366 C367 1.185 . S
C367 C364 1.482 . S
C367 C366 1.185 . S
H368 C348 0.932 . S
H369 C350 0.928 . S
H370 C351 0.932 . S
H371 C353 0.928 . S
C85 C8 1.382 . S
C88 C50 1.382 . S
C109 C22 1.382 . S
C112 C64 1.382 . S
C133 C36 1.383 . S
C136 C78 1.383 . S
C157 C23 1.465 . S
C160 C65 1.465 . S
C181 C79 1.465 . S
C184 C37 1.465 . S
C205 C51 1.465 . S
C208 C9 1.465 . S
C229 C31 1.081 . S
C232 C7 1.098 . S
C253 C45 1.081 . S
C256 C21 1.098 . S
C277 C35 1.098 . S
C280 C59 1.081 . S
C301 C73 1.081 . S
C304 C49 1.098 . S
C325 C63 1.098 . S
C328 C3 1.081 . S
C349 C77 1.098 . S
C352 C17 1.081 . S
