# Generated by pormake.
# Topology xfu, (5)-cn, num edge types: 1
# Building blocks:
#     Node 0, Type 0, BuildingBlock: XOMCOT_clean_sbu_0, # of connection points: 5
#     Node 1, Type 0, BuildingBlock: XOMCOT_clean_sbu_0, # of connection points: 5
#     Node 2, Type 0, BuildingBlock: XOMCOT_clean_sbu_0, # of connection points: 5
#     Node 3, Type 0, BuildingBlock: XOMCOT_clean_sbu_0, # of connection points: 5
#     Node 4, Type 0, BuildingBlock: XOMCOT_clean_sbu_0, # of connection points: 5
#     Node 5, Type 0, BuildingBlock: XOMCOT_clean_sbu_0, # of connection points: 5
#     Node 6, Type 0, BuildingBlock: XOMCOT_clean_sbu_0, # of connection points: 5
#     Node 7, Type 0, BuildingBlock: XOMCOT_clean_sbu_0, # of connection points: 5
#     Edge 8, Type (0, 0), BuildingBlock: CIFDUS_clean_linker_0, # of connection points: 2
#     Edge 9, Type (0, 0), BuildingBlock: CIFDUS_clean_linker_0, # of connection points: 2
#     Edge 10, Type (0, 0), BuildingBlock: CIFDUS_clean_linker_0, # of connection points: 2
#     Edge 11, Type (0, 0), BuildingBlock: CIFDUS_clean_linker_0, # of connection points: 2
#     Edge 12, Type (0, 0), BuildingBlock: CIFDUS_clean_linker_0, # of connection points: 2
#     Edge 13, Type (0, 0), BuildingBlock: CIFDUS_clean_linker_0, # of connection points: 2
#     Edge 14, Type (0, 0), BuildingBlock: CIFDUS_clean_linker_0, # of connection points: 2
#     Edge 15, Type (0, 0), BuildingBlock: CIFDUS_clean_linker_0, # of connection points: 2
#     Edge 16, Type (0, 0), BuildingBlock: CIFDUS_clean_linker_0, # of connection points: 2
#     Edge 17, Type (0, 0), BuildingBlock: CIFDUS_clean_linker_0, # of connection points: 2
#     Edge 18, Type (0, 0), BuildingBlock: CIFDUS_clean_linker_0, # of connection points: 2
#     Edge 19, Type (0, 0), BuildingBlock: CIFDUS_clean_linker_0, # of connection points: 2
#     Edge 20, Type (0, 0), BuildingBlock: CIFDUS_clean_linker_0, # of connection points: 2
#     Edge 21, Type (0, 0), BuildingBlock: CIFDUS_clean_linker_0, # of connection points: 2
#     Edge 22, Type (0, 0), BuildingBlock: CIFDUS_clean_linker_0, # of connection points: 2
#     Edge 23, Type (0, 0), BuildingBlock: CIFDUS_clean_linker_0, # of connection points: 2
#     Edge 24, Type (0, 0), BuildingBlock: CIFDUS_clean_linker_0, # of connection points: 2
#     Edge 25, Type (0, 0), BuildingBlock: CIFDUS_clean_linker_0, # of connection points: 2
#     Edge 26, Type (0, 0), BuildingBlock: CIFDUS_clean_linker_0, # of connection points: 2
#     Edge 27, Type (0, 0), BuildingBlock: CIFDUS_clean_linker_0, # of connection points: 2
# Relax obj value: 0.379
# Max RMSD: 0.271
# Mean RMSD: 0.271
data_MOF--net-xfu--node1-XOMCOT_clean_sbu_0--edge1-CIFDUS_clean_linker_0
_symmetry_space_group_name_H-M    P1
_symmetry_Int_Tables_number       1
_symmetry_cell_setting            triclinic
loop_
_symmetry_equiv_pos_as_xyz
'x, y, z'
_cell_length_a     26.940444
_cell_length_b     26.9233
_cell_length_c     44.581686
_cell_angle_alpha  90.20961
_cell_angle_beta   90.043226
_cell_angle_gamma 89.821815
loop_
_atom_site_label
_atom_site_type_symbol
_atom_site_fract_x
_atom_site_fract_y
_atom_site_fract_z
_atom_type_partial_charge
Co0 Co 0.1077 0.24946 0.61888 0.0
C1 C 0.08636 0.16845 0.5767 0.0
C2 C 0.1296 0.14248 0.61403 0.0
C3 C 0.12148 0.10324 0.59472 0.0
N4 N 0.10729 0.1831 0.6027 0.0
N5 N 0.09445 0.11979 0.57126 0.0
H6 H 0.06563 0.19299 0.56213 0.0
H7 H 0.15099 0.14158 0.63455 0.0
C8 C 0.09446 0.23382 0.68575 0.0
O9 O 0.05992 0.26832 0.68732 0.0
N10 N 0.109 0.31687 0.63505 0.0
C11 C 0.08706 0.35781 0.62372 0.0
C12 C 0.09602 0.39739 0.64254 0.0
C13 C 0.13319 0.33302 0.65982 0.0
N14 N 0.12448 0.38169 0.66555 0.0
C15 C 0.01116 0.2745 0.59671 0.0
C16 C 0.95793 0.21439 0.63507 0.0
C17 C 0.93255 0.2432 0.614 0.0
C18 C 0.95963 0.27277 0.59426 0.0
C19 C 0.00965 0.21635 0.63626 0.0
N20 N 0.03553 0.24838 0.61844 0.0
H21 H 0.03145 0.29588 0.58047 0.0
H22 H 0.0286 0.1909 0.65097 0.0
H23 H 0.06629 0.35963 0.60312 0.0
H24 H 0.15556 0.30921 0.67389 0.0
O25 O 0.12027 0.27533 0.57889 0.0
O26 O 0.17752 0.2526 0.61216 0.0
O27 O 0.11287 0.22113 0.66048 0.0
C28 C 0.16688 0.26894 0.58557 0.0
H29 H 0.1355 0.06579 0.59735 0.0
H30 H 0.08241 0.43486 0.63941 0.0
H31 H 0.93803 0.1897 0.64992 0.0
H32 H 0.94109 0.29457 0.57718 0.0
Co33 Co 0.87539 0.63431 0.11938 0.0
C34 C 0.94367 0.58614 0.07794 0.0
C35 C 0.98397 0.61749 0.11498 0.0
C36 C 0.01743 0.59729 0.09481 0.0
N37 N 0.9379 0.61028 0.10419 0.0
N38 N 0.99186 0.5779 0.07146 0.0
H39 H 0.91293 0.57568 0.06365 0.0
H40 H 0.99267 0.63739 0.13543 0.0
C41 C 0.87947 0.60906 0.18517 0.0
O42 O 0.83544 0.58844 0.18308 0.0
N43 N 0.81128 0.65969 0.13348 0.0
C44 C 0.76954 0.6644 0.11678 0.0
C45 C 0.73289 0.68642 0.13367 0.0
C46 C 0.7996 0.68149 0.15997 0.0
N47 N 0.75181 0.69654 0.16086 0.0
C48 C 0.81442 0.55333 0.09865 0.0
C49 C 0.86357 0.48068 0.13093 0.0
C50 C 0.82488 0.46715 0.11181 0.0
C51 C 0.80035 0.50371 0.09526 0.0
C52 C 0.87704 0.53037 0.13318 0.0
N53 N 0.85133 0.56638 0.11814 0.0
H54 H 0.7973 0.58065 0.08446 0.0
H55 H 0.90949 0.53953 0.14625 0.0
H56 H 0.76572 0.65395 0.09352 0.0
H57 H 0.8253 0.68742 0.17821 0.0
O58 O 0.85801 0.65587 0.07919 0.0
O59 O 0.8972 0.70111 0.11357 0.0
O60 O 0.90053 0.62717 0.16197 0.0
C61 C 0.87862 0.69782 0.08674 0.0
H62 H 0.05747 0.59882 0.09658 0.0
H63 H 0.69496 0.69343 0.12681 0.0
H64 H 0.88445 0.45282 0.14311 0.0
H65 H 0.77139 0.49389 0.07946 0.0
Co66 Co 0.4772 0.35003 0.62025 0.0
C67 C 0.52143 0.42455 0.58027 0.0
C68 C 0.4905 0.45891 0.61929 0.0
C69 C 0.50373 0.4956 0.59932 0.0
N70 N 0.50266 0.41417 0.60761 0.0
N71 N 0.52274 0.47369 0.57463 0.0
H72 H 0.52979 0.39683 0.56362 0.0
H73 H 0.46956 0.46453 0.6397 0.0
C74 C 0.50926 0.39555 0.6797 0.0
O75 O 0.5495 0.41504 0.66809 0.0
N76 N 0.45051 0.2865 0.63213 0.0
C77 C 0.45364 0.2434 0.61672 0.0
C78 C 0.43309 0.2061 0.63379 0.0
C79 C 0.42799 0.27504 0.65815 0.0
N80 N 0.41751 0.22619 0.65987 0.0
C81 C 0.57208 0.31748 0.59743 0.0
C82 C 0.60907 0.28553 0.65184 0.0
C83 C 0.64118 0.28732 0.62711 0.0
C84 C 0.62147 0.30208 0.59935 0.0
C85 C 0.56032 0.30235 0.64899 0.0
N86 N 0.54345 0.32141 0.6225 0.0
H87 H 0.55705 0.32595 0.57572 0.0
H88 H 0.53622 0.30002 0.66826 0.0
H89 H 0.47116 0.23908 0.59504 0.0
H90 H 0.41995 0.30154 0.67573 0.0
O91 O 0.45963 0.33467 0.57892 0.0
O92 O 0.41191 0.37393 0.61214 0.0
O93 O 0.47907 0.37055 0.66364 0.0
C94 C 0.41761 0.35654 0.58516 0.0
H95 H 0.49611 0.53489 0.60179 0.0
H96 H 0.43202 0.16696 0.6282 0.0
H97 H 0.62145 0.27163 0.67334 0.0
H98 H 0.644 0.30304 0.57928 0.0
Co99 Co 0.7572 0.00203 0.11834 0.0
C100 C 0.66992 0.03283 0.08253 0.0
C101 C 0.65108 0.9755 0.11354 0.0
C102 C 0.61004 0.98551 0.09593 0.0
N103 N 0.68845 0.0059 0.10538 0.0
N104 N 0.62221 0.02185 0.0766 0.0
H105 H 0.69134 0.05729 0.06872 0.0
H106 H 0.65401 0.94684 0.13039 0.0
C107 C 0.69952 0.01474 0.17572 0.0
O108 O 0.67128 0.04836 0.16283 0.0
N109 N 0.82574 -0.00225 0.13059 0.0
C110 C 0.86442 0.01923 0.11661 0.0
C111 C 0.90625 0.01312 0.13398 0.0
C112 C 0.84444 0.9784 0.15603 0.0
N113 N 0.89353 0.98753 0.15873 0.0
C114 C 0.76567 0.10082 0.09507 0.0
C115 C 0.77452 0.14868 0.14961 0.0
C116 C 0.7721 0.17733 0.12341 0.0
C117 C 0.76832 0.15246 0.0958 0.0
C118 C 0.77044 0.09712 0.14782 0.0
N119 N 0.76281 0.07398 0.12089 0.0
H120 H 0.7665 0.08247 0.07356 0.0
H121 H 0.77499 0.07599 0.16812 0.0
H122 H 0.86198 0.03954 0.09578 0.0
H123 H 0.82227 0.96015 0.17291 0.0
O124 O 0.77776 0.9912 0.07697 0.0
O125 O 0.75653 0.93265 0.10957 0.0
O126 O 0.73574 -0.00469 0.16142 0.0
C127 C 0.77111 0.94433 0.08278 0.0
H128 H 0.57456 0.96682 0.09681 0.0
H129 H 0.94292 0.02727 0.12909 0.0
H130 H 0.78063 0.1657 0.17134 0.0
H131 H 0.7674 0.17239 0.07478 0.0
Co132 Co 0.99329 0.86461 0.37604 0.0
C133 C 0.02612 0.95093 0.41193 0.0
C134 C 0.98702 0.97407 0.37265 0.0
C135 C -0.00391 0.01531 0.39024 0.0
N136 N 0.00699 0.93367 0.38592 0.0
N137 N 0.02038 0.00046 0.41508 0.0
H138 H 0.04062 0.92753 0.42935 0.0
H139 H 0.96415 0.97337 0.35273 0.0
C140 C 0.01058 0.90804 0.31413 0.0
O141 O 0.04935 0.93359 0.32312 0.0
N142 N 0.97812 0.79632 0.36642 0.0
C143 C 0.00238 0.75539 0.37589 0.0
C144 C 0.98591 0.71517 0.35945 0.0
C145 C 0.94625 0.7804 0.34518 0.0
N146 N 0.95056 0.73113 0.34036 0.0
C147 C 0.09295 0.85149 0.39736 0.0
C148 C 0.13308 0.81921 0.34374 0.0
C149 C 0.16458 0.82534 0.36856 0.0
C150 C 0.14358 0.84133 0.39573 0.0
C151 C 0.08273 0.83092 0.34625 0.0
N152 N 0.06363 0.8491 0.37249 0.0
H153 H 0.07729 0.85986 0.41895 0.0
H154 H 0.05893 0.82381 0.32724 0.0
H155 H 0.03209 0.75528 0.39222 0.0
H156 H 0.92275 0.8048 0.33213 0.0
O157 O 0.98266 0.85016 0.41827 0.0
O158 O 0.92554 0.87659 0.3859 0.0
O159 O 0.98686 0.88051 0.33231 0.0
C160 C 0.93694 0.86358 0.41306 0.0
H161 H 0.98271 0.0526 0.38607 0.0
H162 H 0.00023 0.67759 0.36047 0.0
H163 H 0.14685 0.80461 0.32267 0.0
H164 H 0.16583 0.84614 0.41574 0.0
Co165 Co 0.27294 0.48761 0.88158 0.0
C166 C 0.19347 0.49156 0.92689 0.0
C167 C 0.16496 0.46093 0.88612 0.0
C168 C 0.12756 0.46099 0.90735 0.0
N169 N 0.20604 0.48186 0.89812 0.0
N170 N 0.14605 0.47999 0.93297 0.0
H171 H 0.21871 0.50579 0.94363 0.0
H172 H 0.16239 0.44455 0.86406 0.0
C173 C 0.21483 0.49075 0.8229 0.0
O174 O 0.18674 0.52749 0.83251 0.0
N175 N 0.33975 0.4926 0.86618 0.0
C176 C 0.37543 0.52325 0.87646 0.0
C177 C 0.41573 0.52024 0.85753 0.0
C178 C 0.35892 0.47073 0.84154 0.0
N179 N 0.40519 0.48723 0.83563 0.0
C180 C 0.25353 0.58784 0.90065 0.0
C181 C 0.27621 0.63216 0.84655 0.0
C182 C 0.26206 0.66175 0.87091 0.0
C183 C 0.25045 0.63927 0.89815 0.0
C184 C 0.27767 0.58063 0.84981 0.0
N185 N 0.26547 0.55893 0.8765 0.0
H186 H 0.24845 0.5718 0.9224 0.0
H187 H 0.29012 0.55824 0.8311 0.0
H188 H 0.37156 0.54761 0.89567 0.0
H189 H 0.33861 0.44516 0.8274 0.0
O190 O 0.30026 0.48558 0.92204 0.0
O191 O 0.28472 0.42043 0.89259 0.0
O192 O 0.24866 0.47264 0.8397 0.0
C193 C 0.29994 0.43756 0.91824 0.0
H194 H 0.09038 0.44657 0.90454 0.0
H195 H 0.44967 0.54145 0.85934 0.0
H196 H 0.28685 0.64877 0.82542 0.0
H197 H 0.24136 0.66148 0.91773 0.0
Co198 Co 0.6292 0.75552 0.38216 0.0
C199 C 0.60052 0.6823 0.42703 0.0
C200 C 0.63527 0.64663 0.3893 0.0
C201 C 0.6248 0.61115 0.41063 0.0
N202 N 0.61983 0.69105 0.39972 0.0
N203 N 0.60329 0.63386 0.43437 0.0
H204 H 0.58551 0.71108 0.44143 0.0
H205 H 0.65426 0.64066 0.36823 0.0
C206 C 0.61451 0.74145 0.31581 0.0
O207 O 0.58495 0.78038 0.31519 0.0
N208 N 0.63958 0.82111 0.3649 0.0
C209 C 0.61991 0.86487 0.37379 0.0
C210 C 0.63408 0.90125 0.35402 0.0
C211 C 0.66781 0.83233 0.3408 0.0
N212 N 0.66353 0.88061 0.33292 0.0
C213 C 0.53622 0.79358 0.40364 0.0
C214 C 0.47642 0.73929 0.36535 0.0
C215 C 0.45449 0.77192 0.38588 0.0
C216 C 0.48477 0.79854 0.40564 0.0
C217 C 0.52796 0.73462 0.3646 0.0
N218 N 0.55743 0.76387 0.38229 0.0
H219 H 0.55889 0.81283 0.41985 0.0
H220 H 0.54371 0.70633 0.35033 0.0
H221 H 0.5966 0.87067 0.39308 0.0
H222 H 0.6889 0.80503 0.32829 0.0
O223 O 0.64526 0.78233 0.42158 0.0
O224 O 0.69884 0.74959 0.38908 0.0
O225 O 0.6305 0.72475 0.34083 0.0
C226 C 0.69062 0.76925 0.41523 0.0
H227 H 0.63416 0.57208 0.40929 0.0
H228 H 0.62273 0.93982 0.35491 0.0
H229 H 0.45384 0.71653 0.35064 0.0
H230 H 0.46881 0.82299 0.42244 0.0
Co231 Co 0.33923 0.12465 0.8866 0.0
C232 C 0.41739 0.08468 0.92515 0.0
C233 C 0.44698 0.13696 0.89359 0.0
C234 C 0.48428 0.12302 0.91304 0.0
N235 N 0.40525 0.11291 0.90137 0.0
N236 N 0.46543 0.09023 0.9328 0.0
H237 H 0.39083 0.06297 0.9377 0.0
H238 H 0.44947 0.16443 0.87602 0.0
C239 C 0.35237 0.11425 0.81951 0.0
O240 O 0.3153 0.08267 0.81829 0.0
N241 N 0.27198 0.138 0.87235 0.0
C242 C 0.22885 0.12998 0.88706 0.0
C243 C 0.18991 0.14733 0.86997 0.0
C244 C 0.25843 0.16279 0.84735 0.0
N245 N 0.20877 0.16734 0.84488 0.0
C246 C 0.29603 0.02868 0.89805 0.0
C247 C 0.36158 0.97601 0.86227 0.0
C248 C 0.32418 0.95016 0.87737 0.0
C249 C 0.29148 0.97714 0.89579 0.0
C250 C 0.36517 0.02727 0.86552 0.0
N251 N 0.3312 0.05337 0.88203 0.0
H252 H 0.27249 0.04829 0.91357 0.0
H253 H 0.39589 0.04594 0.85493 0.0
H254 H 0.2254 0.11405 0.90912 0.0
H255 H 0.28406 0.17857 0.83143 0.0
O256 O 0.31643 0.13378 0.92774 0.0
O257 O 0.34534 0.19268 0.89757 0.0
O258 O 0.36657 0.13202 0.84472 0.0
C259 C 0.32823 0.18021 0.92368 0.0
H260 H 0.5219 0.13703 0.91322 0.0
H261 H 0.15081 0.14468 0.8753 0.0
H262 H 0.38809 0.95695 0.84803 0.0
H263 H 0.26348 0.95855 0.90902 0.0
H264 H 0.02763 0.96869 0.47235 0.0
H265 H 0.04033 0.09902 0.41686 0.0
H266 H 0.06301 0.14851 0.46089 0.0
H267 H 0.08208 0.15378 0.5149 0.0
H268 H 0.07161 0.02233 0.56951 0.0
H269 H 0.04651 0.97373 0.52574 0.0
C270 C 0.03604 0.0077 0.46963 0.0
C271 C 0.03277 0.02991 0.44114 0.0
C272 C 0.04973 0.03563 0.49489 0.0
C273 C 0.04228 0.08101 0.43849 0.0
C274 C 0.05552 0.10926 0.46364 0.0
C275 C 0.07382 0.11462 0.51725 0.0
C276 C 0.07875 0.09166 0.54542 0.0
C277 C 0.05962 0.08687 0.49193 0.0
C278 C 0.06867 0.0407 0.54802 0.0
C279 C 0.05408 0.01298 0.52305 0.0
H280 H 0.07984 0.53144 0.06396 0.0
H281 H 0.94809 0.57823 0.01663 0.0
H282 H 0.98223 0.54677 0.96973 0.0
H283 H 0.05232 0.51146 0.9412 0.0
H284 H 0.18507 0.4674 0.9881 0.0
H285 H 0.14805 0.49223 0.0359 0.0
C286 C 0.05866 0.53481 0.04339 0.0
C287 C 0.01151 0.5573 0.04397 0.0
C288 C 0.07881 0.51719 0.01628 0.0
C289 C 0.98421 0.56061 0.01709 0.0
C290 C 0.00384 0.54287 0.99011 0.0
C291 C 0.07259 0.50648 0.96199 0.0
C292 C 0.12136 0.48805 0.96118 0.0
C293 C 0.05136 0.52165 0.98935 0.0
C294 C 0.14765 0.48219 0.9882 0.0
C295 C 0.12652 0.49635 0.01551 0.0
H296 H 0.55448 0.56756 0.56602 0.0
H297 H 0.51754 0.43208 0.51903 0.0
H298 H 0.54036 0.46959 0.47165 0.0
H299 H 0.57041 0.54095 0.44304 0.0
H300 H 0.60523 0.67742 0.4892 0.0
H301 H 0.58258 0.63999 0.53707 0.0
C302 C 0.55107 0.5464 0.54541 0.0
C303 C 0.53501 0.49677 0.5464 0.0
C304 C 0.56359 0.5685 0.51791 0.0
C305 C 0.53105 0.46984 0.51935 0.0
C306 C 0.54368 0.49143 0.49203 0.0
C307 C 0.5733 0.56233 0.46361 0.0
C308 C 0.58944 0.61182 0.46253 0.0
C309 C 0.5602 0.54061 0.49104 0.0
C310 C 0.5923 0.63941 0.48934 0.0
C311 C 0.57964 0.61794 0.51677 0.0
H312 H 0.53094 0.13709 0.96804 0.0
H313 H 0.45223 -0.0007 0.95679 0.0
H314 H 0.49198 0.96592 1.00196 0.0
H315 H 0.55162 0.97551 0.04376 0.0
H316 H 0.62811 0.11484 0.05503 0.0
H317 H 0.58686 0.14812 0.01077 0.0
C318 C 0.52293 0.09961 0.97536 0.0
C319 C 0.48932 0.07041 0.95902 0.0
C320 C 0.54539 0.08108 1.00139 0.0
C321 C 0.47812 0.02235 0.9691 0.0
C322 C 0.50081 0.00332 0.99487 0.0
C323 C 0.55859 0.01334 0.03676 0.0
C324 C 0.5933 0.04245 0.05245 0.0
C325 C 0.53467 0.03234 0.01117 0.0
C326 C 0.60224 0.09138 0.04299 0.0
C327 C 0.57861 0.11051 0.01773 0.0
H328 H 0.23237 0.14946 0.78779 0.0
H329 H 0.12382 0.22123 0.84411 0.0
H330 H 0.07704 0.24765 0.79958 0.0
H331 H 0.0681 0.2507 0.74432 0.0
H332 H 0.17623 0.1746 0.68908 0.0
H333 H 0.22187 0.14936 0.73344 0.0
C334 C 0.1987 0.17129 0.79023 0.0
C335 C 0.18174 0.18403 0.819 0.0
C336 C 0.17174 0.18518 0.76473 0.0
C337 C 0.13745 0.21121 0.82206 0.0
C338 C 0.11081 0.22622 0.79665 0.0
C339 C 0.10135 0.22821 0.74203 0.0
C340 C 0.11853 0.21472 0.71331 0.0
C341 C 0.1276 0.21333 0.76782 0.0
C342 C 0.1618 0.1855 0.7108 0.0
C343 C 0.18823 0.17114 0.73619 0.0
H344 H 0.00042 0.6814 0.29804 0.0
H345 H 0.8537 0.72251 0.32709 0.0
H346 H 0.81758 0.68164 0.28283 0.0
H347 H 0.82889 0.63949 0.23425 0.0
H348 H 0.97651 0.60852 0.20199 0.0
H349 H 0.01166 0.63918 0.24926 0.0
C350 C 0.96055 0.68049 0.29475 0.0
C351 C 0.92944 0.70405 0.31572 0.0
C352 C 0.94054 0.6588 0.26874 0.0
C353 C 0.87795 0.70414 0.31115 0.0
C354 C 0.8575 0.6809 0.28593 0.0
C355 C 0.86864 0.63867 0.23784 0.0
C356 C 0.90012 0.62128 0.21494 0.0
C357 C 0.88852 0.65873 0.26436 0.0
C358 C 0.95167 0.62144 0.21949 0.0
C359 C 0.97171 0.63915 0.2464 0.0
H360 H 0.41041 0.39992 0.80684 0.0
H361 H 0.4655 0.54991 0.80549 0.0
H362 H 0.50836 0.53335 0.7581 0.0
H363 H 0.52318 0.4781 0.71442 0.0
H364 H 0.46725 0.32841 0.71648 0.0
H365 H 0.43195 0.3426 0.76606 0.0
C366 C 0.43202 0.42881 0.79619 0.0
C367 C 0.4344 0.4761 0.80942 0.0
C368 C 0.45619 0.4191 0.76895 0.0
C369 C 0.46329 0.51308 0.79577 0.0
C370 C 0.48757 0.50372 0.76859 0.0
C371 C 0.50414 0.44844 0.72607 0.0
C372 C 0.49681 0.40259 0.71164 0.0
C373 C 0.48345 0.45712 0.75463 0.0
C374 C 0.47207 0.36439 0.72687 0.0
C375 C 0.45204 0.37244 0.75527 0.0
H376 H 0.62123 0.95844 0.30447 0.0
H377 H 0.74156 0.85271 0.29813 0.0
H378 H 0.76421 0.88599 0.24914 0.0
H379 H 0.74794 0.94305 0.20742 0.0
H380 H 0.62721 0.04847 0.21384 0.0
H381 H 0.6072 0.01776 0.26385 0.0
C382 C 0.65304 0.94319 0.29276 0.0
C383 C 0.67965 0.90304 0.30518 0.0
C384 C 0.66571 0.96238 0.26455 0.0
C385 C 0.72009 0.88324 0.28912 0.0
C386 C 0.73316 0.90236 0.2611 0.0
C387 C 0.71745 0.95966 0.21979 0.0
C388 C 0.68907 -0.00194 0.20676 0.0
C389 C 0.70588 0.94157 0.24846 0.0
C390 C 0.64965 0.0189 0.22321 0.0
C391 C 0.63814 0.00131 0.25183 0.0
H392 H 0.02967 0.98061 0.27289 0.0
H393 H 0.94735 0.84504 0.28589 0.0
H394 H 0.90544 0.85659 0.23818 0.0
H395 H 0.88747 0.90796 0.19435 0.0
H396 H 0.96878 0.04348 0.18056 0.0
H397 H 0.01623 0.02887 0.22651 0.0
C398 C 0.00313 0.95328 0.26504 0.0
C399 C 0.99111 0.91253 0.28323 0.0
C400 C 0.97873 0.96023 0.23743 0.0
C401 C 0.95669 0.87731 0.27267 0.0
C402 C 0.93266 0.88377 0.2453 0.0
C403 C 0.91567 0.93416 0.20142 0.0
C404 C 0.92431 0.97685 0.1843 0.0
C405 C 0.94251 0.92565 0.22785 0.0
C406 C 0.96163 0.01014 0.19332 0.0
C407 C 0.98857 0.00196 0.21968 0.0
H408 H 0.14478 0.51551 0.78096 0.0
H409 H 0.26493 0.41274 0.79776 0.0
H410 H 0.24903 0.37136 0.75014 0.0
H411 H 0.19978 0.3625 0.7042 0.0
H412 H 0.07817 0.46368 0.68786 0.0
H413 H 0.09661 0.50767 0.73426 0.0
C414 C 0.16764 0.48422 0.77417 0.0
C415 C 0.20588 0.46738 0.79312 0.0
C416 C 0.15821 0.46019 0.74663 0.0
C417 C 0.23516 0.42672 0.78379 0.0
C418 C 0.2261 0.40284 0.75648 0.0
C419 C 0.17713 0.39402 0.71074 0.0
C420 C 0.13758 0.40943 0.69228 0.0
C421 C 0.18745 0.41895 0.73782 0.0
C422 C 0.1093 0.45108 0.70116 0.0
C423 C 0.11954 0.47619 0.72795 0.0
H424 H 0.61369 0.78537 0.26075 0.0
H425 H 0.6712 0.65832 0.30855 0.0
H426 H 0.72073 0.63473 0.26502 0.0
H427 H 0.74879 0.65067 0.21354 0.0
H428 H 0.69103 0.77591 0.16509 0.0
H429 H 0.64036 0.80005 0.20864 0.0
C430 C 0.63635 0.75204 0.26148 0.0
C431 C 0.63847 0.72356 0.28789 0.0
C432 C 0.66518 0.73883 0.2364 0.0
C433 C 0.66866 0.68085 0.28853 0.0
C434 C 0.69725 0.66742 0.26369 0.0
C435 C 0.72577 0.68372 0.21292 0.0
C436 C 0.72424 0.71228 0.18672 0.0
C437 C 0.69627 0.69645 0.23769 0.0
C438 C 0.69289 0.7539 0.18535 0.0
C439 C 0.66393 0.76744 0.21012 0.0
H440 H 0.32393 0.09579 0.76157 0.0
H441 H 0.4258 0.18304 0.81484 0.0
H442 H 0.4539 0.22592 0.77008 0.0
H443 H 0.44878 0.24014 0.71602 0.0
H444 H 0.34984 0.15248 0.66181 0.0
H445 H 0.32135 0.10799 0.70665 0.0
C446 C 0.35266 0.12376 0.76335 0.0
C447 C 0.37256 0.13612 0.79163 0.0
C448 C 0.36891 0.14844 0.73739 0.0
C449 C 0.40971 0.17266 0.79345 0.0
C450 C 0.42579 0.19741 0.76786 0.0
C451 C 0.42062 0.21164 0.71417 0.0
C452 C 0.40072 0.19998 0.68595 0.0
C453 C 0.40531 0.18598 0.73981 0.0
C454 C 0.36538 0.16198 0.68348 0.0
C455 C 0.34921 0.13668 0.70905 0.0
H456 H 0.86942 0.2691 0.65811 0.0
H457 H 0.87445 0.21744 0.5666 0.0
H458 H 0.78369 0.222 0.56341 0.0
H459 H 0.70384 0.24418 0.58607 0.0
H460 H 0.70051 0.30527 0.67588 0.0
H461 H 0.78937 0.2919 0.68066 0.0
C462 C 0.85036 0.25837 0.63764 0.0
C463 C 0.87797 0.24282 0.61266 0.0
C464 C 0.79859 0.26257 0.63573 0.0
C465 C 0.85348 0.22958 0.58604 0.0
C466 C 0.8018 0.23219 0.58425 0.0
C467 C 0.7224 0.2551 0.60662 0.0
C468 C 0.69501 0.2758 0.63052 0.0
C469 C 0.77404 0.24938 0.60883 0.0
C470 C 0.72003 0.28837 0.65723 0.0
C471 C 0.77114 0.28127 0.65993 0.0
H472 H 0.7759 0.40823 0.15032 0.0
H473 H 0.84981 0.40887 0.06472 0.0
H474 H 0.84017 0.31858 0.0606 0.0
H475 H 0.81557 0.23983 0.08301 0.0
H476 H 0.73557 0.23959 0.16705 0.0
H477 H 0.74387 0.32948 0.17052 0.0
C478 C 0.78908 0.38838 0.13063 0.0
C479 C 0.81325 0.41439 0.10777 0.0
C480 C 0.78314 0.33679 0.12843 0.0
C481 C 0.83068 0.38904 0.08236 0.0
C482 C 0.82545 0.33762 0.08014 0.0
C483 C 0.79883 0.25922 0.10181 0.0
C484 C 0.77529 0.23248 0.12483 0.0
C485 C 0.80232 0.31108 0.10325 0.0
C486 C 0.755 0.25878 0.1493 0.0
C487 C 0.75924 0.31034 0.1512 0.0
H488 H 0.39373 0.80033 0.34098 0.0
H489 H 0.39441 0.7556 0.43368 0.0
H490 H 0.30401 0.76507 0.43596 0.0
H491 H 0.22564 0.78675 0.41167 0.0
H492 H 0.22599 0.84004 0.32032 0.0
H493 H 0.31501 0.82495 0.31711 0.0
C494 C 0.37381 0.79253 0.36157 0.0
C495 C 0.40012 0.77725 0.38711 0.0
C496 C 0.32222 0.7992 0.36287 0.0
C497 C 0.37453 0.76762 0.41384 0.0
C498 C 0.32303 0.77291 0.41509 0.0
C499 C 0.24505 0.79591 0.39115 0.0
C500 C 0.21874 0.81473 0.36633 0.0
C501 C 0.29658 0.78903 0.38979 0.0
C502 C 0.24481 0.82479 0.33969 0.0
C503 C 0.29593 0.81664 0.33788 0.0
H504 H 0.24014 0.89409 0.87513 0.0
H505 H 0.40014 0.88259 0.87374 0.0
H506 H 0.39443 0.7928 0.86858 0.0
H507 H 0.34428 0.71692 0.86663 0.0
H508 H 0.1851 0.72705 0.87274 0.0
H509 H 0.18998 0.81807 0.87417 0.0
C510 C 0.27379 0.87197 0.874 0.0
C511 C 0.32045 0.8953 0.87464 0.0
C512 C 0.27034 0.82011 0.87184 0.0
C513 C 0.36365 0.86592 0.87269 0.0
C514 C 0.3605 0.81444 0.86996 0.0
C515 C 0.3108 0.73935 0.86788 0.0
C516 C 0.26443 0.71611 0.86919 0.0
C517 C 0.31411 0.79118 0.86962 0.0
C518 C 0.22107 0.74479 0.87144 0.0
C519 C 0.22393 0.79656 0.87237 0.0
H520 H 0.3835 0.27687 0.5555 0.0
H521 H 0.35397 0.4315 0.57283 0.0
H522 H 0.26564 0.41874 0.56359 0.0
H523 H 0.19762 0.35896 0.56845 0.0
H524 H 0.2279 0.20268 0.55931 0.0
H525 H 0.31428 0.22 0.54662 0.0
C526 C 0.35795 0.30813 0.55547 0.0
C527 C 0.37444 0.35472 0.56528 0.0
C528 C 0.30685 0.2996 0.55244 0.0
C529 C 0.34149 0.39518 0.56552 0.0
C530 C 0.29093 0.38773 0.56064 0.0
C531 C 0.22266 0.32915 0.56192 0.0
C532 C 0.20724 0.27983 0.56485 0.0
C533 C 0.27293 0.33937 0.55675 0.0
C534 C 0.23956 0.24099 0.55703 0.0
C535 C 0.28902 0.25089 0.55015 0.0
H536 H 0.79769 0.72759 0.05645 0.0
H537 H 0.94747 0.76948 0.07855 0.0
H538 H 0.92849 0.85624 0.0675 0.0
H539 H 0.86362 0.91998 0.06782 0.0
H540 H 0.7111 0.87781 0.05557 0.0
H541 H 0.73614 0.7921 0.04532 0.0
C542 C 0.82663 0.7555 0.05734 0.0
C543 C 0.87357 0.74283 0.06861 0.0
C544 C 0.81431 0.80568 0.0532 0.0
C545 C 0.91093 0.77893 0.0701 0.0
C546 C 0.89993 0.82853 0.06404 0.0
C547 C 0.83639 0.89244 0.06111 0.0
C548 C 0.78586 0.90454 0.06233 0.0
C549 C 0.85086 0.84264 0.05791 0.0
C550 C 0.75031 0.86888 0.05443 0.0
C551 C 0.76462 0.81978 0.04908 0.0
H552 H 0.72023 0.85752 0.43671 0.0
H553 H 0.75585 0.70163 0.43592 0.0
H554 H 0.84238 0.71991 0.44771 0.0
H555 H 0.90908 0.77996 0.4402 0.0
H556 H 0.87389 0.93522 0.43191 0.0
H557 H 0.78685 0.91858 0.44309 0.0
C558 C 0.74658 0.82773 0.44085 0.0
C559 C 0.73256 0.77856 0.43522 0.0
C560 C 0.79687 0.83883 0.4454 0.0
C561 C 0.76651 0.73983 0.44009 0.0
C562 C 0.81602 0.75033 0.44651 0.0
C563 C 0.88273 0.81027 0.44275 0.0
C564 C 0.89706 0.85844 0.43496 0.0
C565 C 0.83221 0.79973 0.44662 0.0
C566 C 0.86307 0.89776 0.43781 0.0
C567 C 0.81321 0.8881 0.44371 0.0
H568 H 0.39457 0.24506 0.94464 0.0
H569 H 0.24043 0.20459 0.94952 0.0
H570 H 0.21777 0.29089 0.95999 0.0
H571 H 0.24 0.37716 0.94844 0.0
H572 H 0.39329 0.41686 0.93673 0.0
H573 H 0.41889 0.33237 0.94944 0.0
C574 C 0.35641 0.25494 0.94984 0.0
C575 C 0.31897 0.21942 0.94576 0.0
C576 C 0.34368 0.30497 0.95388 0.0
C577 C 0.26967 0.2317 0.95254 0.0
C578 C 0.25672 0.28123 0.95798 0.0
C579 C 0.27908 0.36779 0.95057 0.0
C580 C 0.31487 0.40227 0.94134 0.0
C581 C 0.293 0.31843 0.9559 0.0
C582 C 0.36536 0.39056 0.94388 0.0
C583 C 0.37984 0.34201 0.95062 0.0
loop_
_geom_bond_atom_site_label_1
_geom_bond_atom_site_label_2
_geom_bond_distance
_geom_bond_site_symmetry_2
_ccdc_geom_bond_type
Co0 N4 2.148 . S
Co0 N10 2.128 . S
Co0 N20 2.194 . S
Co0 O25 2.351 . S
Co0 O26 2.155 . S
Co0 O27 2.096 . S
C1 N4 1.301 . S
C1 N5 1.328 . S
C1 H6 0.930 . S
C2 C3 1.333 . S
C2 N4 1.317 . S
C2 H7 0.930 . S
C3 C2 1.333 . S
C3 N5 1.350 . S
C3 H29 0.931 . S
N4 Co0 2.148 . S
N4 C1 1.301 . S
N4 C2 1.317 . S
N5 C1 1.328 . S
N5 C3 1.350 . S
H6 C1 0.930 . S
H7 C2 0.930 . S
C8 O9 1.224 . S
C8 O27 1.247 . S
O9 C8 1.224 . S
N10 Co0 2.128 . S
N10 C11 1.355 . S
N10 C13 1.311 . S
C11 N10 1.355 . S
C11 C12 1.363 . S
C11 H23 0.929 . S
C12 C11 1.363 . S
C12 N14 1.375 . S
C12 H30 0.931 . S
C13 N10 1.311 . S
C13 N14 1.347 . S
C13 H24 0.929 . S
N14 C12 1.375 . S
N14 C13 1.347 . S
C15 C18 1.365 1_455 S
C15 N20 1.328 . S
C15 H21 0.929 . S
C16 C17 1.362 . S
C16 C19 1.378 1_655 S
C16 H31 0.929 . S
C17 C16 1.362 . S
C17 C18 1.366 . S
C18 C15 1.365 1_655 S
C18 C17 1.366 . S
C18 H32 0.930 . S
C19 C16 1.378 1_455 S
C19 N20 1.315 . S
C19 H22 0.930 . S
N20 Co0 2.194 . S
N20 C15 1.328 . S
N20 C19 1.315 . S
H21 C15 0.929 . S
H22 C19 0.930 . S
H23 C11 0.929 . S
H24 C13 0.929 . S
O25 Co0 2.351 . S
O25 C28 1.244 . S
O26 Co0 2.155 . S
O26 C28 1.240 . S
O27 Co0 2.096 . S
O27 C8 1.247 . S
C28 O25 1.244 . S
C28 O26 1.240 . S
H29 C3 0.931 . S
H30 C12 0.931 . S
H31 C16 0.929 . S
H32 C18 0.930 . S
Co33 N37 2.148 . S
Co33 N43 2.128 . S
Co33 N53 2.194 . S
Co33 O58 2.351 . S
Co33 O59 2.155 . S
Co33 O60 2.096 . S
C34 N37 1.301 . S
C34 N38 1.328 . S
C34 H39 0.930 . S
C35 C36 1.333 . S
C35 N37 1.317 . S
C35 H40 0.930 . S
C36 C35 1.333 . S
C36 N38 1.350 . S
C36 H62 0.931 1_655 S
N37 Co33 2.148 . S
N37 C34 1.301 . S
N37 C35 1.317 . S
N38 C34 1.328 . S
N38 C36 1.350 . S
H39 C34 0.930 . S
H40 C35 0.930 . S
C41 O42 1.224 . S
C41 O60 1.247 . S
O42 C41 1.224 . S
N43 Co33 2.128 . S
N43 C44 1.355 . S
N43 C46 1.311 . S
C44 N43 1.355 . S
C44 C45 1.363 . S
C44 H56 0.929 . S
C45 C44 1.363 . S
C45 N47 1.375 . S
C45 H63 0.931 . S
C46 N43 1.311 . S
C46 N47 1.347 . S
C46 H57 0.929 . S
N47 C45 1.375 . S
N47 C46 1.347 . S
C48 C51 1.365 . S
C48 N53 1.328 . S
C48 H54 0.929 . S
C49 C50 1.362 . S
C49 C52 1.378 . S
C49 H64 0.929 . S
C50 C49 1.362 . S
C50 C51 1.366 . S
C51 C48 1.365 . S
C51 C50 1.366 . S
C51 H65 0.930 . S
C52 C49 1.378 . S
C52 N53 1.315 . S
C52 H55 0.930 . S
N53 Co33 2.194 . S
N53 C48 1.328 . S
N53 C52 1.315 . S
H54 C48 0.929 . S
H55 C52 0.930 . S
H56 C44 0.929 . S
H57 C46 0.929 . S
O58 Co33 2.351 . S
O58 C61 1.244 . S
O59 Co33 2.155 . S
O59 C61 1.240 . S
O60 Co33 2.096 . S
O60 C41 1.247 . S
C61 O58 1.244 . S
C61 O59 1.240 . S
H62 C36 0.931 1_455 S
H63 C45 0.931 . S
H64 C49 0.929 . S
H65 C51 0.930 . S
Co66 N70 2.148 . S
Co66 N76 2.128 . S
Co66 N86 2.194 . S
Co66 O91 2.351 . S
Co66 O92 2.155 . S
Co66 O93 2.096 . S
C67 N70 1.301 . S
C67 N71 1.328 . S
C67 H72 0.930 . S
C68 C69 1.333 . S
C68 N70 1.317 . S
C68 H73 0.930 . S
C69 C68 1.333 . S
C69 N71 1.350 . S
C69 H95 0.931 . S
N70 Co66 2.148 . S
N70 C67 1.301 . S
N70 C68 1.317 . S
N71 C67 1.328 . S
N71 C69 1.350 . S
H72 C67 0.930 . S
H73 C68 0.930 . S
C74 O75 1.224 . S
C74 O93 1.247 . S
O75 C74 1.224 . S
N76 Co66 2.128 . S
N76 C77 1.355 . S
N76 C79 1.311 . S
C77 N76 1.355 . S
C77 C78 1.363 . S
C77 H89 0.929 . S
C78 C77 1.363 . S
C78 N80 1.375 . S
C78 H96 0.931 . S
C79 N76 1.311 . S
C79 N80 1.347 . S
C79 H90 0.929 . S
N80 C78 1.375 . S
N80 C79 1.347 . S
C81 C84 1.365 . S
C81 N86 1.328 . S
C81 H87 0.929 . S
C82 C83 1.362 . S
C82 C85 1.378 . S
C82 H97 0.929 . S
C83 C82 1.362 . S
C83 C84 1.366 . S
C84 C81 1.365 . S
C84 C83 1.366 . S
C84 H98 0.930 . S
C85 C82 1.378 . S
C85 N86 1.315 . S
C85 H88 0.930 . S
N86 Co66 2.194 . S
N86 C81 1.328 . S
N86 C85 1.315 . S
H87 C81 0.929 . S
H88 C85 0.930 . S
H89 C77 0.929 . S
H90 C79 0.929 . S
O91 Co66 2.351 . S
O91 C94 1.244 . S
O92 Co66 2.155 . S
O92 C94 1.240 . S
O93 Co66 2.096 . S
O93 C74 1.247 . S
C94 O91 1.244 . S
C94 O92 1.240 . S
H95 C69 0.931 . S
H96 C78 0.931 . S
H97 C82 0.929 . S
H98 C84 0.930 . S
Co99 N103 2.149 . S
Co99 N109 2.128 . S
Co99 N119 2.200 . S
Co99 O124 2.350 1_545 S
Co99 O125 2.148 1_545 S
Co99 O126 2.092 1_545 S
C100 N103 1.301 . S
C100 N104 1.328 . S
C100 H105 0.930 . S
C101 C102 1.333 . S
C101 N103 1.317 . S
C101 H106 0.928 1_545 S
C102 C101 1.333 . S
C102 N104 1.350 . S
C102 H128 0.931 . S
N103 Co99 2.149 . S
N103 C100 1.301 . S
N103 C101 1.317 . S
N104 C100 1.328 . S
N104 C102 1.350 . S
H105 C100 0.930 . S
H106 C101 0.928 1_565 S
C107 O108 1.206 1_565 S
C107 O126 1.260 . S
O108 C107 1.206 1_545 S
N109 Co99 2.128 . S
N109 C110 1.354 . S
N109 C112 1.311 1_545 S
C110 N109 1.354 . S
C110 C111 1.363 . S
C110 H122 0.929 . S
C111 C110 1.363 . S
C111 N113 1.375 1_545 S
C111 H129 0.931 . S
C112 N109 1.311 1_565 S
C112 N113 1.347 . S
C112 H123 0.929 . S
N113 C111 1.375 1_565 S
N113 C112 1.347 . S
C114 C117 1.365 . S
C114 N119 1.328 . S
C114 H120 0.929 . S
C115 C116 1.362 . S
C115 C118 1.378 . S
C115 H130 0.929 . S
C116 C115 1.362 . S
C116 C117 1.366 . S
C117 C114 1.365 . S
C117 C116 1.366 . S
C117 H131 0.930 . S
C118 C115 1.378 . S
C118 N119 1.315 . S
C118 H121 0.930 . S
N119 Co99 2.200 . S
N119 C114 1.328 . S
N119 C118 1.315 . S
H120 C114 0.929 . S
H121 C118 0.930 . S
H122 C110 0.929 . S
H123 C112 0.929 . S
O124 Co99 2.350 1_565 S
O124 C127 1.244 . S
O125 Co99 2.148 1_565 S
O125 C127 1.240 . S
O126 Co99 2.092 1_565 S
O126 C107 1.260 . S
C127 O124 1.244 . S
C127 O125 1.240 . S
H128 C102 0.931 . S
H129 C111 0.931 . S
H130 C115 0.929 . S
H131 C117 0.930 . S
Co132 N136 2.148 1_655 S
Co132 N142 2.128 . S
Co132 N152 2.194 1_655 S
Co132 O157 2.351 . S
Co132 O158 2.155 . S
Co132 O159 2.096 . S
C133 N136 1.301 . S
C133 N137 1.328 . S
C133 H138 0.930 . S
C134 C135 1.333 . S
C134 N136 1.317 . S
C134 H139 0.930 1_455 S
C135 C134 1.333 . S
C135 N137 1.350 . S
C135 H161 0.931 1_565 S
N136 Co132 2.148 1_455 S
N136 C133 1.301 . S
N136 C134 1.317 . S
N137 C133 1.328 . S
N137 C135 1.350 . S
H138 C133 0.930 . S
H139 C134 0.930 1_655 S
C140 O141 1.224 1_655 S
C140 O159 1.247 . S
O141 C140 1.224 1_455 S
N142 Co132 2.128 . S
N142 C143 1.355 1_655 S
N142 C145 1.311 . S
C143 N142 1.355 1_455 S
C143 C144 1.363 . S
C143 H155 0.929 . S
C144 C143 1.363 . S
C144 N146 1.375 1_455 S
C144 H162 0.931 . S
C145 N142 1.311 . S
C145 N146 1.347 . S
C145 H156 0.929 . S
N146 C144 1.375 1_655 S
N146 C145 1.347 . S
C147 C150 1.365 . S
C147 N152 1.328 . S
C147 H153 0.929 . S
C148 C149 1.362 . S
C148 C151 1.378 . S
C148 H163 0.929 . S
C149 C148 1.362 . S
C149 C150 1.366 . S
C150 C147 1.365 . S
C150 C149 1.366 . S
C150 H164 0.930 . S
C151 C148 1.378 . S
C151 N152 1.315 . S
C151 H154 0.930 . S
N152 Co132 2.194 1_455 S
N152 C147 1.328 . S
N152 C151 1.315 . S
H153 C147 0.929 . S
H154 C151 0.930 . S
H155 C143 0.929 . S
H156 C145 0.929 . S
O157 Co132 2.351 . S
O157 C160 1.244 . S
O158 Co132 2.155 . S
O158 C160 1.240 . S
O159 Co132 2.096 . S
O159 C140 1.247 . S
C160 O157 1.244 . S
C160 O158 1.240 . S
H161 C135 0.931 1_545 S
H162 C144 0.931 . S
H163 C148 0.929 . S
H164 C150 0.930 . S
Co165 N169 2.148 . S
Co165 N175 2.128 . S
Co165 N185 2.194 . S
Co165 O190 2.351 . S
Co165 O191 2.155 . S
Co165 O192 2.096 . S
C166 N169 1.301 . S
C166 N170 1.328 . S
C166 H171 0.930 . S
C167 C168 1.333 . S
C167 N169 1.317 . S
C167 H172 0.930 . S
C168 C167 1.333 . S
C168 N170 1.350 . S
C168 H194 0.931 . S
N169 Co165 2.148 . S
N169 C166 1.301 . S
N169 C167 1.317 . S
N170 C166 1.328 . S
N170 C168 1.350 . S
H171 C166 0.930 . S
H172 C167 0.930 . S
C173 O174 1.224 . S
C173 O192 1.247 . S
O174 C173 1.224 . S
N175 Co165 2.128 . S
N175 C176 1.355 . S
N175 C178 1.311 . S
C176 N175 1.355 . S
C176 C177 1.363 . S
C176 H188 0.929 . S
C177 C176 1.363 . S
C177 N179 1.375 . S
C177 H195 0.931 . S
C178 N175 1.311 . S
C178 N179 1.347 . S
C178 H189 0.929 . S
N179 C177 1.375 . S
N179 C178 1.347 . S
C180 C183 1.365 . S
C180 N185 1.328 . S
C180 H186 0.929 . S
C181 C182 1.362 . S
C181 C184 1.378 . S
C181 H196 0.929 . S
C182 C181 1.362 . S
C182 C183 1.366 . S
C183 C180 1.365 . S
C183 C182 1.366 . S
C183 H197 0.930 . S
C184 C181 1.378 . S
C184 N185 1.315 . S
C184 H187 0.930 . S
N185 Co165 2.194 . S
N185 C180 1.328 . S
N185 C184 1.315 . S
H186 C180 0.929 . S
H187 C184 0.930 . S
H188 C176 0.929 . S
H189 C178 0.929 . S
O190 Co165 2.351 . S
O190 C193 1.244 . S
O191 Co165 2.155 . S
O191 C193 1.240 . S
O192 Co165 2.096 . S
O192 C173 1.247 . S
C193 O190 1.244 . S
C193 O191 1.240 . S
H194 C168 0.931 . S
H195 C177 0.931 . S
H196 C181 0.929 . S
H197 C183 0.930 . S
Co198 N202 2.148 . S
Co198 N208 2.128 . S
Co198 N218 2.194 . S
Co198 O223 2.351 . S
Co198 O224 2.155 . S
Co198 O225 2.096 . S
C199 N202 1.301 . S
C199 N203 1.328 . S
C199 H204 0.930 . S
C200 C201 1.333 . S
C200 N202 1.317 . S
C200 H205 0.930 . S
C201 C200 1.333 . S
C201 N203 1.350 . S
C201 H227 0.931 . S
N202 Co198 2.148 . S
N202 C199 1.301 . S
N202 C200 1.317 . S
N203 C199 1.328 . S
N203 C201 1.350 . S
H204 C199 0.930 . S
H205 C200 0.930 . S
C206 O207 1.224 . S
C206 O225 1.247 . S
O207 C206 1.224 . S
N208 Co198 2.128 . S
N208 C209 1.355 . S
N208 C211 1.311 . S
C209 N208 1.355 . S
C209 C210 1.363 . S
C209 H221 0.929 . S
C210 C209 1.363 . S
C210 N212 1.375 . S
C210 H228 0.931 . S
C211 N208 1.311 . S
C211 N212 1.347 . S
C211 H222 0.929 . S
N212 C210 1.375 . S
N212 C211 1.347 . S
C213 C216 1.365 . S
C213 N218 1.328 . S
C213 H219 0.929 . S
C214 C215 1.362 . S
C214 C217 1.378 . S
C214 H229 0.929 . S
C215 C214 1.362 . S
C215 C216 1.366 . S
C216 C213 1.365 . S
C216 C215 1.366 . S
C216 H230 0.930 . S
C217 C214 1.378 . S
C217 N218 1.315 . S
C217 H220 0.930 . S
N218 Co198 2.194 . S
N218 C213 1.328 . S
N218 C217 1.315 . S
H219 C213 0.929 . S
H220 C217 0.930 . S
H221 C209 0.929 . S
H222 C211 0.929 . S
O223 Co198 2.351 . S
O223 C226 1.244 . S
O224 Co198 2.155 . S
O224 C226 1.240 . S
O225 Co198 2.096 . S
O225 C206 1.247 . S
C226 O223 1.244 . S
C226 O224 1.240 . S
H227 C201 0.931 . S
H228 C210 0.931 . S
H229 C214 0.929 . S
H230 C216 0.930 . S
Co231 N235 2.148 . S
Co231 N241 2.128 . S
Co231 N251 2.194 . S
Co231 O256 2.351 . S
Co231 O257 2.155 . S
Co231 O258 2.096 . S
C232 N235 1.301 . S
C232 N236 1.328 . S
C232 H237 0.930 . S
C233 C234 1.333 . S
C233 N235 1.317 . S
C233 H238 0.930 . S
C234 C233 1.333 . S
C234 N236 1.350 . S
C234 H260 0.931 . S
N235 Co231 2.148 . S
N235 C232 1.301 . S
N235 C233 1.317 . S
N236 C232 1.328 . S
N236 C234 1.350 . S
H237 C232 0.930 . S
H238 C233 0.930 . S
C239 O240 1.224 . S
C239 O258 1.247 . S
O240 C239 1.224 . S
N241 Co231 2.128 . S
N241 C242 1.355 . S
N241 C244 1.311 . S
C242 N241 1.355 . S
C242 C243 1.363 . S
C242 H254 0.929 . S
C243 C242 1.363 . S
C243 N245 1.375 . S
C243 H261 0.931 . S
C244 N241 1.311 . S
C244 N245 1.347 . S
C244 H255 0.929 . S
N245 C243 1.375 . S
N245 C244 1.347 . S
C246 C249 1.365 1_545 S
C246 N251 1.328 . S
C246 H252 0.929 . S
C247 C248 1.362 . S
C247 C250 1.378 1_565 S
C247 H262 0.929 . S
C248 C247 1.362 . S
C248 C249 1.366 . S
C249 C246 1.365 1_565 S
C249 C248 1.366 . S
C249 H263 0.930 . S
C250 C247 1.378 1_545 S
C250 N251 1.315 . S
C250 H253 0.930 . S
N251 Co231 2.194 . S
N251 C246 1.328 . S
N251 C250 1.315 . S
H252 C246 0.929 . S
H253 C250 0.930 . S
H254 C242 0.929 . S
H255 C244 0.929 . S
O256 Co231 2.351 . S
O256 C259 1.244 . S
O257 Co231 2.155 . S
O257 C259 1.240 . S
O258 Co231 2.096 . S
O258 C239 1.247 . S
C259 O256 1.244 . S
C259 O257 1.240 . S
H260 C234 0.931 . S
H261 C243 0.931 . S
H262 C247 0.929 . S
H263 C249 0.930 . S
H264 C270 0.930 . S
H265 C273 0.930 . S
H266 C274 0.930 . S
H267 C275 0.930 . S
H268 C278 0.930 . S
H269 C279 0.930 . S
C270 H264 0.930 . S
C270 C271 1.355 . S
C270 C272 1.415 1_565 S
C271 C270 1.355 . S
C271 C273 1.419 1_565 S
C272 C270 1.415 1_545 S
C272 C277 1.425 . S
C272 C279 1.409 . S
C273 H265 0.930 . S
C273 C271 1.419 1_545 S
C273 C274 1.362 . S
C274 H266 0.930 . S
C274 C273 1.362 . S
C274 C277 1.409 . S
C275 H267 0.930 . S
C275 C276 1.355 . S
C275 C277 1.415 . S
C276 C275 1.355 . S
C276 C278 1.419 . S
C277 C272 1.425 . S
C277 C274 1.409 . S
C277 C275 1.415 . S
C278 H268 0.930 . S
C278 C276 1.419 . S
C278 C279 1.362 . S
C279 H269 0.930 . S
C279 C272 1.409 . S
C279 C278 1.362 . S
H280 C286 0.930 . S
H281 C289 0.930 . S
H282 C290 0.930 . S
H283 C291 0.930 . S
H284 C294 0.930 1_554 S
H285 C295 0.930 . S
C286 H280 0.930 . S
C286 C287 1.355 1_455 S
C286 C288 1.415 . S
C287 C286 1.355 1_655 S
C287 C289 1.419 1_554 S
C288 C286 1.415 . S
C288 C293 1.425 1_554 S
C288 C295 1.409 . S
C289 H281 0.930 . S
C289 C287 1.419 1_556 S
C289 C290 1.362 1_655 S
C290 H282 0.930 . S
C290 C289 1.362 1_455 S
C290 C293 1.409 . S
C291 H283 0.930 . S
C291 C292 1.355 . S
C291 C293 1.415 . S
C292 C291 1.355 . S
C292 C294 1.419 . S
C293 C288 1.425 1_556 S
C293 C290 1.409 . S
C293 C291 1.415 . S
C294 H284 0.930 1_556 S
C294 C292 1.419 . S
C294 C295 1.362 1_556 S
C295 H285 0.930 . S
C295 C288 1.409 . S
C295 C294 1.362 1_554 S
H296 C302 0.930 . S
H297 C305 0.930 . S
H298 C306 0.930 . S
H299 C307 0.930 . S
H300 C310 0.930 . S
H301 C311 0.930 . S
C302 H296 0.930 . S
C302 C303 1.355 . S
C302 C304 1.415 . S
C303 C302 1.355 . S
C303 C305 1.419 . S
C304 C302 1.415 . S
C304 C309 1.425 . S
C304 C311 1.409 . S
C305 H297 0.930 . S
C305 C303 1.419 . S
C305 C306 1.362 . S
C306 H298 0.930 . S
C306 C305 1.362 . S
C306 C309 1.409 . S
C307 H299 0.930 . S
C307 C308 1.355 . S
C307 C309 1.415 . S
C308 C307 1.355 . S
C308 C310 1.419 . S
C309 C304 1.425 . S
C309 C306 1.409 . S
C309 C307 1.415 . S
C310 H300 0.930 . S
C310 C308 1.419 . S
C310 C311 1.362 . S
C311 H301 0.930 . S
C311 C304 1.409 . S
C311 C310 1.362 . S
H312 C318 0.930 . S
H313 C321 0.930 . S
H314 C322 0.930 1_565 S
H315 C323 0.930 1_565 S
H316 C326 0.930 . S
H317 C327 0.930 . S
C318 H312 0.930 . S
C318 C319 1.355 . S
C318 C320 1.415 1_556 S
C319 C318 1.355 . S
C319 C321 1.419 . S
C320 C318 1.415 1_554 S
C320 C325 1.425 1_554 S
C320 C327 1.408 . S
C321 H313 0.930 . S
C321 C319 1.419 . S
C321 C322 1.362 . S
C322 H314 0.930 1_545 S
C322 C321 1.362 . S
C322 C325 1.409 . S
C323 H315 0.930 1_545 S
C323 C324 1.355 . S
C323 C325 1.415 1_554 S
C324 C323 1.355 . S
C324 C326 1.419 . S
C325 C320 1.425 1_556 S
C325 C322 1.409 . S
C325 C323 1.415 1_556 S
C326 H316 0.930 . S
C326 C324 1.419 . S
C326 C327 1.362 . S
C327 H317 0.930 . S
C327 C320 1.408 . S
C327 C326 1.362 . S
H328 C334 0.930 . S
H329 C337 0.930 . S
H330 C338 0.930 . S
H331 C339 0.930 . S
H332 C342 0.930 . S
H333 C343 0.930 . S
C334 H328 0.930 . S
C334 C335 1.355 . S
C334 C336 1.415 . S
C335 C334 1.355 . S
C335 C337 1.419 . S
C336 C334 1.415 . S
C336 C341 1.425 . S
C336 C343 1.409 . S
C337 H329 0.930 . S
C337 C335 1.419 . S
C337 C338 1.362 . S
C338 H330 0.930 . S
C338 C337 1.362 . S
C338 C341 1.409 . S
C339 H331 0.930 . S
C339 C340 1.355 . S
C339 C341 1.415 . S
C340 C339 1.355 . S
C340 C342 1.419 . S
C341 C336 1.425 . S
C341 C338 1.409 . S
C341 C339 1.415 . S
C342 H332 0.930 . S
C342 C340 1.419 . S
C342 C343 1.362 . S
C343 H333 0.930 . S
C343 C336 1.409 . S
C343 C342 1.362 . S
H344 C350 0.930 1_455 S
H345 C353 0.930 . S
H346 C354 0.930 . S
H347 C355 0.930 . S
H348 C358 0.930 . S
H349 C359 0.930 1_455 S
C350 H344 0.930 1_655 S
C350 C351 1.355 . S
C350 C352 1.415 . S
C351 C350 1.355 . S
C351 C353 1.419 . S
C352 C350 1.415 . S
C352 C357 1.425 . S
C352 C359 1.409 . S
C353 H345 0.930 . S
C353 C351 1.419 . S
C353 C354 1.362 . S
C354 H346 0.930 . S
C354 C353 1.362 . S
C354 C357 1.409 . S
C355 H347 0.930 . S
C355 C356 1.355 . S
C355 C357 1.415 . S
C356 C355 1.355 . S
C356 C358 1.419 . S
C357 C352 1.425 . S
C357 C354 1.409 . S
C357 C355 1.415 . S
C358 H348 0.930 . S
C358 C356 1.419 . S
C358 C359 1.362 . S
C359 H349 0.930 1_655 S
C359 C352 1.409 . S
C359 C358 1.362 . S
H360 C366 0.930 . S
H361 C369 0.930 . S
H362 C370 0.930 . S
H363 C371 0.930 . S
H364 C374 0.930 . S
H365 C375 0.930 . S
C366 H360 0.930 . S
C366 C367 1.355 . S
C366 C368 1.415 . S
C367 C366 1.355 . S
C367 C369 1.419 . S
C368 C366 1.415 . S
C368 C373 1.425 . S
C368 C375 1.409 . S
C369 H361 0.930 . S
C369 C367 1.419 . S
C369 C370 1.362 . S
C370 H362 0.930 . S
C370 C369 1.362 . S
C370 C373 1.409 . S
C371 H363 0.930 . S
C371 C372 1.355 . S
C371 C373 1.415 . S
C372 C371 1.355 . S
C372 C374 1.419 . S
C373 C368 1.425 . S
C373 C370 1.409 . S
C373 C371 1.415 . S
C374 H364 0.930 . S
C374 C372 1.419 . S
C374 C375 1.362 . S
C375 H365 0.930 . S
C375 C368 1.409 . S
C375 C374 1.362 . S
H376 C382 0.930 . S
H377 C385 0.930 . S
H378 C386 0.930 . S
H379 C387 0.930 . S
H380 C390 0.930 . S
H381 C391 0.930 . S
C382 H376 0.930 . S
C382 C383 1.355 . S
C382 C384 1.415 . S
C383 C382 1.355 . S
C383 C385 1.419 . S
C384 C382 1.415 . S
C384 C389 1.425 . S
C384 C391 1.409 1_565 S
C385 H377 0.930 . S
C385 C383 1.419 . S
C385 C386 1.362 . S
C386 H378 0.930 . S
C386 C385 1.362 . S
C386 C389 1.409 . S
C387 H379 0.930 . S
C387 C388 1.355 . S
C387 C389 1.415 . S
C388 C387 1.355 . S
C388 C390 1.419 1_565 S
C389 C384 1.425 . S
C389 C386 1.409 . S
C389 C387 1.415 . S
C390 H380 0.930 . S
C390 C388 1.419 1_545 S
C390 C391 1.362 . S
C391 H381 0.930 . S
C391 C384 1.409 1_545 S
C391 C390 1.362 . S
H392 C398 0.930 1_455 S
H393 C401 0.930 . S
H394 C402 0.930 . S
H395 C403 0.930 . S
H396 C406 0.930 . S
H397 C407 0.930 1_445 S
C398 H392 0.930 1_655 S
C398 C399 1.355 . S
C398 C400 1.415 . S
C399 C398 1.355 . S
C399 C401 1.419 . S
C400 C398 1.415 . S
C400 C405 1.425 . S
C400 C407 1.409 . S
C401 H393 0.930 . S
C401 C399 1.419 . S
C401 C402 1.362 . S
C402 H394 0.930 . S
C402 C401 1.362 . S
C402 C405 1.409 . S
C403 H395 0.930 . S
C403 C404 1.355 . S
C403 C405 1.415 . S
C404 C403 1.355 . S
C404 C406 1.419 1_565 S
C405 C400 1.425 . S
C405 C402 1.409 . S
C405 C403 1.415 . S
C406 H396 0.930 . S
C406 C404 1.419 1_545 S
C406 C407 1.362 1_545 S
C407 H397 0.930 1_665 S
C407 C400 1.409 . S
C407 C406 1.362 1_565 S
H408 C414 0.930 . S
H409 C417 0.930 . S
H410 C418 0.930 . S
H411 C419 0.930 . S
H412 C422 0.930 . S
H413 C423 0.930 . S
C414 H408 0.930 . S
C414 C415 1.355 . S
C414 C416 1.415 . S
C415 C414 1.355 . S
C415 C417 1.419 . S
C416 C414 1.415 . S
C416 C421 1.425 . S
C416 C423 1.409 . S
C417 H409 0.930 . S
C417 C415 1.419 . S
C417 C418 1.362 . S
C418 H410 0.930 . S
C418 C417 1.362 . S
C418 C421 1.409 . S
C419 H411 0.930 . S
C419 C420 1.355 . S
C419 C421 1.415 . S
C420 C419 1.355 . S
C420 C422 1.419 . S
C421 C416 1.425 . S
C421 C418 1.409 . S
C421 C419 1.415 . S
C422 H412 0.930 . S
C422 C420 1.419 . S
C422 C423 1.362 . S
C423 H413 0.930 . S
C423 C416 1.409 . S
C423 C422 1.362 . S
H424 C430 0.930 . S
H425 C433 0.930 . S
H426 C434 0.930 . S
H427 C435 0.930 . S
H428 C438 0.930 . S
H429 C439 0.930 . S
C430 H424 0.930 . S
C430 C431 1.355 . S
C430 C432 1.415 . S
C431 C430 1.355 . S
C431 C433 1.419 . S
C432 C430 1.415 . S
C432 C437 1.425 . S
C432 C439 1.409 . S
C433 H425 0.930 . S
C433 C431 1.419 . S
C433 C434 1.362 . S
C434 H426 0.930 . S
C434 C433 1.362 . S
C434 C437 1.409 . S
C435 H427 0.930 . S
C435 C436 1.355 . S
C435 C437 1.415 . S
C436 C435 1.355 . S
C436 C438 1.419 . S
C437 C432 1.425 . S
C437 C434 1.409 . S
C437 C435 1.415 . S
C438 H428 0.930 . S
C438 C436 1.419 . S
C438 C439 1.362 . S
C439 H429 0.930 . S
C439 C432 1.409 . S
C439 C438 1.362 . S
H440 C446 0.930 . S
H441 C449 0.930 . S
H442 C450 0.930 . S
H443 C451 0.930 . S
H444 C454 0.930 . S
H445 C455 0.930 . S
C446 H440 0.930 . S
C446 C447 1.355 . S
C446 C448 1.415 . S
C447 C446 1.355 . S
C447 C449 1.419 . S
C448 C446 1.415 . S
C448 C453 1.425 . S
C448 C455 1.409 . S
C449 H441 0.930 . S
C449 C447 1.419 . S
C449 C450 1.362 . S
C450 H442 0.930 . S
C450 C449 1.362 . S
C450 C453 1.409 . S
C451 H443 0.930 . S
C451 C452 1.355 . S
C451 C453 1.415 . S
C452 C451 1.355 . S
C452 C454 1.419 . S
C453 C448 1.425 . S
C453 C450 1.409 . S
C453 C451 1.415 . S
C454 H444 0.930 . S
C454 C452 1.419 . S
C454 C455 1.362 . S
C455 H445 0.930 . S
C455 C448 1.409 . S
C455 C454 1.362 . S
H456 C462 0.930 . S
H457 C465 0.930 . S
H458 C466 0.930 . S
H459 C467 0.930 . S
H460 C470 0.930 . S
H461 C471 0.930 . S
C462 H456 0.930 . S
C462 C463 1.355 . S
C462 C464 1.415 . S
C463 C462 1.355 . S
C463 C465 1.419 . S
C464 C462 1.415 . S
C464 C469 1.425 . S
C464 C471 1.409 . S
C465 H457 0.930 . S
C465 C463 1.419 . S
C465 C466 1.362 . S
C466 H458 0.930 . S
C466 C465 1.362 . S
C466 C469 1.409 . S
C467 H459 0.930 . S
C467 C468 1.355 . S
C467 C469 1.415 . S
C468 C467 1.355 . S
C468 C470 1.419 . S
C469 C464 1.425 . S
C469 C466 1.409 . S
C469 C467 1.415 . S
C470 H460 0.930 . S
C470 C468 1.419 . S
C470 C471 1.362 . S
C471 H461 0.930 . S
C471 C464 1.409 . S
C471 C470 1.362 . S
H472 C478 0.930 . S
H473 C481 0.930 . S
H474 C482 0.930 . S
H475 C483 0.930 . S
H476 C486 0.930 . S
H477 C487 0.930 . S
C478 H472 0.930 . S
C478 C479 1.355 . S
C478 C480 1.415 . S
C479 C478 1.355 . S
C479 C481 1.419 . S
C480 C478 1.415 . S
C480 C485 1.425 . S
C480 C487 1.409 . S
C481 H473 0.930 . S
C481 C479 1.419 . S
C481 C482 1.362 . S
C482 H474 0.930 . S
C482 C481 1.362 . S
C482 C485 1.409 . S
C483 H475 0.930 . S
C483 C484 1.355 . S
C483 C485 1.415 . S
C484 C483 1.355 . S
C484 C486 1.419 . S
C485 C480 1.425 . S
C485 C482 1.409 . S
C485 C483 1.415 . S
C486 H476 0.930 . S
C486 C484 1.419 . S
C486 C487 1.362 . S
C487 H477 0.930 . S
C487 C480 1.409 . S
C487 C486 1.362 . S
H488 C494 0.930 . S
H489 C497 0.930 . S
H490 C498 0.930 . S
H491 C499 0.930 . S
H492 C502 0.930 . S
H493 C503 0.930 . S
C494 H488 0.930 . S
C494 C495 1.355 . S
C494 C496 1.415 . S
C495 C494 1.355 . S
C495 C497 1.419 . S
C496 C494 1.415 . S
C496 C501 1.425 . S
C496 C503 1.409 . S
C497 H489 0.930 . S
C497 C495 1.419 . S
C497 C498 1.362 . S
C498 H490 0.930 . S
C498 C497 1.362 . S
C498 C501 1.409 . S
C499 H491 0.930 . S
C499 C500 1.355 . S
C499 C501 1.415 . S
C500 C499 1.355 . S
C500 C502 1.419 . S
C501 C496 1.425 . S
C501 C498 1.409 . S
C501 C499 1.415 . S
C502 H492 0.930 . S
C502 C500 1.419 . S
C502 C503 1.362 . S
C503 H493 0.930 . S
C503 C496 1.409 . S
C503 C502 1.362 . S
H504 C510 0.930 . S
H505 C513 0.930 . S
H506 C514 0.930 . S
H507 C515 0.930 . S
H508 C518 0.930 . S
H509 C519 0.930 . S
C510 H504 0.930 . S
C510 C511 1.355 . S
C510 C512 1.415 . S
C511 C510 1.355 . S
C511 C513 1.419 . S
C512 C510 1.415 . S
C512 C517 1.425 . S
C512 C519 1.409 . S
C513 H505 0.930 . S
C513 C511 1.419 . S
C513 C514 1.362 . S
C514 H506 0.930 . S
C514 C513 1.362 . S
C514 C517 1.409 . S
C515 H507 0.930 . S
C515 C516 1.355 . S
C515 C517 1.415 . S
C516 C515 1.355 . S
C516 C518 1.419 . S
C517 C512 1.425 . S
C517 C514 1.409 . S
C517 C515 1.415 . S
C518 H508 0.930 . S
C518 C516 1.419 . S
C518 C519 1.362 . S
C519 H509 0.930 . S
C519 C512 1.409 . S
C519 C518 1.362 . S
H520 C526 0.930 . S
H521 C529 0.930 . S
H522 C530 0.930 . S
H523 C531 0.930 . S
H524 C534 0.930 . S
H525 C535 0.930 . S
C526 H520 0.930 . S
C526 C527 1.355 . S
C526 C528 1.415 . S
C527 C526 1.355 . S
C527 C529 1.419 . S
C528 C526 1.415 . S
C528 C533 1.425 . S
C528 C535 1.409 . S
C529 H521 0.930 . S
C529 C527 1.419 . S
C529 C530 1.362 . S
C530 H522 0.930 . S
C530 C529 1.362 . S
C530 C533 1.409 . S
C531 H523 0.930 . S
C531 C532 1.355 . S
C531 C533 1.415 . S
C532 C531 1.355 . S
C532 C534 1.419 . S
C533 C528 1.425 . S
C533 C530 1.409 . S
C533 C531 1.415 . S
C534 H524 0.930 . S
C534 C532 1.419 . S
C534 C535 1.362 . S
C535 H525 0.930 . S
C535 C528 1.409 . S
C535 C534 1.362 . S
H536 C542 0.930 . S
H537 C545 0.930 . S
H538 C546 0.930 . S
H539 C547 0.930 . S
H540 C550 0.930 . S
H541 C551 0.930 . S
C542 H536 0.930 . S
C542 C543 1.355 . S
C542 C544 1.415 . S
C543 C542 1.355 . S
C543 C545 1.419 . S
C544 C542 1.415 . S
C544 C549 1.425 . S
C544 C551 1.409 . S
C545 H537 0.930 . S
C545 C543 1.419 . S
C545 C546 1.362 . S
C546 H538 0.930 . S
C546 C545 1.362 . S
C546 C549 1.409 . S
C547 H539 0.930 . S
C547 C548 1.355 . S
C547 C549 1.415 . S
C548 C547 1.355 . S
C548 C550 1.419 . S
C549 C544 1.425 . S
C549 C546 1.409 . S
C549 C547 1.415 . S
C550 H540 0.930 . S
C550 C548 1.419 . S
C550 C551 1.362 . S
C551 H541 0.930 . S
C551 C544 1.409 . S
C551 C550 1.362 . S
H552 C558 0.930 . S
H553 C561 0.930 . S
H554 C562 0.930 . S
H555 C563 0.930 . S
H556 C566 0.930 . S
H557 C567 0.930 . S
C558 H552 0.930 . S
C558 C559 1.355 . S
C558 C560 1.415 . S
C559 C558 1.355 . S
C559 C561 1.419 . S
C560 C558 1.415 . S
C560 C565 1.425 . S
C560 C567 1.409 . S
C561 H553 0.930 . S
C561 C559 1.419 . S
C561 C562 1.362 . S
C562 H554 0.930 . S
C562 C561 1.362 . S
C562 C565 1.409 . S
C563 H555 0.930 . S
C563 C564 1.355 . S
C563 C565 1.415 . S
C564 C563 1.355 . S
C564 C566 1.419 . S
C565 C560 1.425 . S
C565 C562 1.409 . S
C565 C563 1.415 . S
C566 H556 0.930 . S
C566 C564 1.419 . S
C566 C567 1.362 . S
C567 H557 0.930 . S
C567 C560 1.409 . S
C567 C566 1.362 . S
H568 C574 0.930 . S
H569 C577 0.930 . S
H570 C578 0.930 . S
H571 C579 0.930 . S
H572 C582 0.930 . S
H573 C583 0.930 . S
C574 H568 0.930 . S
C574 C575 1.355 . S
C574 C576 1.415 . S
C575 C574 1.355 . S
C575 C577 1.419 . S
C576 C574 1.415 . S
C576 C581 1.425 . S
C576 C583 1.409 . S
C577 H569 0.930 . S
C577 C575 1.419 . S
C577 C578 1.362 . S
C578 H570 0.930 . S
C578 C577 1.362 . S
C578 C581 1.409 . S
C579 H571 0.930 . S
C579 C580 1.355 . S
C579 C581 1.415 . S
C580 C579 1.355 . S
C580 C582 1.419 . S
C581 C576 1.425 . S
C581 C578 1.409 . S
C581 C579 1.415 . S
C582 H572 0.930 . S
C582 C580 1.419 . S
C582 C583 1.362 . S
C583 H573 0.930 . S
C583 C576 1.409 . S
C583 C582 1.362 . S
C271 N137 1.510 . S
C276 N5 1.510 . S
C287 N38 1.563 . S
C292 N170 1.563 . S
C303 N71 1.554 . S
C308 N203 1.554 . S
C319 N236 1.508 . S
C324 N104 1.508 . S
C335 N245 1.058 . S
C340 C8 1.091 . S
C351 N146 1.060 . S
C356 C41 1.097 . S
C367 N179 1.084 . S
C372 C74 1.054 . S
C383 N212 1.094 . S
C388 C107 1.061 . S
C399 C140 1.059 . S
C404 N113 1.078 . S
C415 C173 1.049 . S
C420 N14 1.093 . S
C431 C206 1.075 . S
C436 N47 1.066 . S
C447 C239 1.084 . S
C452 N80 1.061 . S
C463 C17 1.083 . S
C468 C83 1.081 . S
C479 C50 1.086 . S
C484 C116 1.082 . S
C495 C215 1.114 . S
C500 C149 1.102 . S
C511 C248 1.086 . S
C516 C182 1.082 . S
C527 C94 1.038 . S
C532 C28 0.982 . S
C543 C61 0.968 . S
C548 C127 1.094 . S
C559 C226 0.986 . S
C564 C160 1.032 . S
C575 C259 1.105 . S
C580 C193 0.972 . S
