# Generated by pormake.
# Topology sod, (4)-cn, num edge types: 1
# Building blocks:
#     Node 0, Type 0, BuildingBlock: UXUYUI_clean_sbu_0, # of connection points: 4
#     Node 1, Type 0, BuildingBlock: UXUYUI_clean_sbu_0, # of connection points: 4
#     Node 2, Type 0, BuildingBlock: UXUYUI_clean_sbu_0, # of connection points: 4
#     Node 3, Type 0, BuildingBlock: UXUYUI_clean_sbu_0, # of connection points: 4
#     Node 4, Type 0, BuildingBlock: UXUYUI_clean_sbu_0, # of connection points: 4
#     Node 5, Type 0, BuildingBlock: UXUYUI_clean_sbu_0, # of connection points: 4
#     Node 6, Type 0, BuildingBlock: UXUYUI_clean_sbu_0, # of connection points: 4
#     Node 7, Type 0, BuildingBlock: UXUYUI_clean_sbu_0, # of connection points: 4
#     Node 8, Type 0, BuildingBlock: UXUYUI_clean_sbu_0, # of connection points: 4
#     Node 9, Type 0, BuildingBlock: UXUYUI_clean_sbu_0, # of connection points: 4
#     Node 10, Type 0, BuildingBlock: UXUYUI_clean_sbu_0, # of connection points: 4
#     Node 11, Type 0, BuildingBlock: UXUYUI_clean_sbu_0, # of connection points: 4
#     Edge 12, Type (0, 0), BuildingBlock: XIVTED_clean_linker_0, # of connection points: 2
#     Edge 13, Type (0, 0), BuildingBlock: XIVTED_clean_linker_0, # of connection points: 2
#     Edge 14, Type (0, 0), BuildingBlock: XIVTED_clean_linker_0, # of connection points: 2
#     Edge 15, Type (0, 0), BuildingBlock: XIVTED_clean_linker_0, # of connection points: 2
#     Edge 16, Type (0, 0), BuildingBlock: XIVTED_clean_linker_0, # of connection points: 2
#     Edge 17, Type (0, 0), BuildingBlock: XIVTED_clean_linker_0, # of connection points: 2
#     Edge 18, Type (0, 0), BuildingBlock: XIVTED_clean_linker_0, # of connection points: 2
#     Edge 19, Type (0, 0), BuildingBlock: XIVTED_clean_linker_0, # of connection points: 2
#     Edge 20, Type (0, 0), BuildingBlock: XIVTED_clean_linker_0, # of connection points: 2
#     Edge 21, Type (0, 0), BuildingBlock: XIVTED_clean_linker_0, # of connection points: 2
#     Edge 22, Type (0, 0), BuildingBlock: XIVTED_clean_linker_0, # of connection points: 2
#     Edge 23, Type (0, 0), BuildingBlock: XIVTED_clean_linker_0, # of connection points: 2
#     Edge 24, Type (0, 0), BuildingBlock: XIVTED_clean_linker_0, # of connection points: 2
#     Edge 25, Type (0, 0), BuildingBlock: XIVTED_clean_linker_0, # of connection points: 2
#     Edge 26, Type (0, 0), BuildingBlock: XIVTED_clean_linker_0, # of connection points: 2
#     Edge 27, Type (0, 0), BuildingBlock: XIVTED_clean_linker_0, # of connection points: 2
#     Edge 28, Type (0, 0), BuildingBlock: XIVTED_clean_linker_0, # of connection points: 2
#     Edge 29, Type (0, 0), BuildingBlock: XIVTED_clean_linker_0, # of connection points: 2
#     Edge 30, Type (0, 0), BuildingBlock: XIVTED_clean_linker_0, # of connection points: 2
#     Edge 31, Type (0, 0), BuildingBlock: XIVTED_clean_linker_0, # of connection points: 2
#     Edge 32, Type (0, 0), BuildingBlock: XIVTED_clean_linker_0, # of connection points: 2
#     Edge 33, Type (0, 0), BuildingBlock: XIVTED_clean_linker_0, # of connection points: 2
#     Edge 34, Type (0, 0), BuildingBlock: XIVTED_clean_linker_0, # of connection points: 2
#     Edge 35, Type (0, 0), BuildingBlock: XIVTED_clean_linker_0, # of connection points: 2
# Relax obj value: 0.150
# Max RMSD: 0.167
# Mean RMSD: 0.167
data_MOF--net-sod--node1-UXUYUI_clean_sbu_0--edge1-XIVTED_clean_linker_0
_symmetry_space_group_name_H-M    P1
_symmetry_Int_Tables_number       1
_symmetry_cell_setting            triclinic
loop_
_symmetry_equiv_pos_as_xyz
'x, y, z'
_cell_length_a     62.678031
_cell_length_b     62.654454
_cell_length_c     62.644684
_cell_angle_alpha  89.975224
_cell_angle_beta   89.979501
_cell_angle_gamma 90.009338
loop_
_atom_site_label
_atom_site_type_symbol
_atom_site_fract_x
_atom_site_fract_y
_atom_site_fract_z
_atom_type_partial_charge
Li0 Li 0.97399 0.23167 0.49816 0.0
Li1 Li 0.99598 0.25859 0.5156 0.0
Li2 Li 0.99498 0.25554 0.47681 0.0
Li3 Li 0.01276 0.22879 0.49884 0.0
C4 C 0.95021 0.26612 0.49873 0.0
N5 N 0.90672 0.27046 0.50452 0.0
C6 C 0.94213 0.27283 0.51841 0.0
C7 C 0.93617 0.26172 0.48196 0.0
C8 C 0.92009 0.27493 0.52102 0.0
C9 C 0.91424 0.26396 0.48522 0.0
C10 C -6e-05 0.21151 0.53487 0.0
C11 C 0.0264 0.19547 0.55776 0.0
N12 N 0.01578 0.17657 0.55662 0.0
C13 C 0.98923 0.19197 0.53399 0.0
C14 C 0.01861 0.21334 0.54693 0.0
C15 C -0.00249 0.17448 0.54509 0.0
C16 C 0.94286 0.20326 0.48314 0.0
N17 N 0.94813 0.21613 0.49974 0.0
C18 C 0.9163 0.20648 0.51838 0.0
C19 C 0.93546 0.21779 0.51728 0.0
C20 C 0.91033 0.19313 0.50137 0.0
C21 C 0.92397 0.19156 0.48362 0.0
H22 H 0.95345 0.20188 0.46962 0.0
H23 H 0.94026 0.22793 0.53039 0.0
C24 C 0.9938 0.29936 0.53341 0.0
N25 N -0.00315 0.27846 0.53829 0.0
C26 C 0.99373 0.31471 0.54949 0.0
C27 C -0.00029 0.28669 0.57538 0.0
C28 C -0.00025 0.27187 0.55875 0.0
C29 C -0.00343 0.30844 0.57084 0.0
H30 H 0.9913 0.30404 0.51698 0.0
H31 H 0.00179 0.25509 0.56218 0.0
C32 C 0.99586 0.22094 0.45321 0.0
N33 N 0.00188 0.21635 0.40976 0.0
C34 C 0.01552 0.21399 0.44529 0.0
C35 C 0.97923 0.22545 0.43905 0.0
C36 C 0.01824 0.21177 0.42327 0.0
C37 C 0.98261 0.22309 0.41713 0.0
C38 C 0.0316 0.27607 0.50251 0.0
C39 C 0.03023 0.29567 0.49193 0.0
C40 C 0.04393 0.27435 0.52103 0.0
C41 C 0.04112 0.3133 0.50016 0.0
C42 C 0.05453 0.29237 0.52877 0.0
N43 N 0.05292 0.3113 0.51827 0.0
C44 C 0.97999 0.2847 0.44626 0.0
C45 C 0.01367 0.26956 0.43812 0.0
C46 C 0.98065 0.29705 0.42777 0.0
N47 N 0.99631 0.27127 0.45101 0.0
C48 C 0.01494 0.28151 0.41935 0.0
C49 C -0.00169 0.29558 0.41401 0.0
H50 H 0.96663 0.28614 0.45705 0.0
H51 H 0.0266 0.25901 0.44253 0.0
C52 C 0.03127 0.18806 0.49814 0.0
N53 N 0.03574 0.20921 0.49983 0.0
C54 C 0.04767 0.17306 0.49889 0.0
C55 C 0.07303 0.20196 0.50241 0.0
C56 C 0.05609 0.2164 0.5018 0.0
C57 C 0.06887 0.17997 0.50103 0.0
H58 H 0.01493 0.18288 0.49615 0.0
H59 H 0.05918 0.23333 0.50282 0.0
O60 O 0.97172 0.26366 0.49594 0.0
O61 O 0.9923 0.22872 0.52383 0.0
O62 O 0.99296 0.22347 0.47471 0.0
O63 O 0.02075 0.25872 0.49493 0.0
H64 H 0.95272 0.27618 0.53162 0.0
H65 H 0.94214 0.25635 0.46667 0.0
H66 H 0.91361 0.28003 0.53619 0.0
H67 H 0.90319 0.26046 0.47243 0.0
H68 H 0.04092 0.19661 0.56701 0.0
H69 H 0.9748 0.19024 0.52469 0.0
H70 H 0.02718 0.22832 0.54766 0.0
H71 H 0.98945 0.15923 0.54447 0.0
H72 H 0.90626 0.20826 0.53233 0.0
H73 H 0.92035 0.18106 0.47039 0.0
H74 H 0.99154 0.33131 0.54521 0.0
H75 H 0.00164 0.28112 0.59163 0.0
H76 H 0.0286 0.21051 0.45599 0.0
H77 H 0.96397 0.231 0.44489 0.0
H78 H 0.03339 0.20648 0.4169 0.0
H79 H 0.96993 0.22666 0.40598 0.0
H80 H 0.0207 0.29732 0.47763 0.0
H81 H 0.04504 0.25934 0.52949 0.0
H82 H 0.04012 0.32858 0.49219 0.0
H83 H 0.064 0.29131 0.54317 0.0
H84 H 0.96771 0.30805 0.42463 0.0
H85 H 0.0288 0.27975 0.40918 0.0
H86 H 0.04385 0.15626 0.49743 0.0
H87 H 0.08916 0.20789 0.50415 0.0
Li88 Li 0.73056 0.99622 0.51298 0.0
Li89 Li 0.75893 0.98176 0.49087 0.0
Li90 Li 0.75584 0.02063 0.49507 0.0
Li91 Li 0.73077 0.00077 0.47391 0.0
C92 C 0.76663 0.00868 0.53641 0.0
N93 N 0.77659 0.02915 0.57416 0.0
C94 C 0.78503 0.00307 0.54767 0.0
C95 C 0.75329 0.02471 0.54433 0.0
C96 C 0.78979 0.0136 0.56674 0.0
C97 C 0.7586 0.03487 0.56345 0.0
C98 C 0.72869 0.95245 0.49123 0.0
C99 C 0.73127 0.91849 0.47329 0.0
N100 N 0.73075 0.90841 0.49252 0.0
C101 C 0.72796 0.94175 0.5108 0.0
C102 C 0.73017 0.94074 0.47231 0.0
C103 C 0.7291 0.91948 0.51112 0.0
C104 C 0.69147 0.99528 0.53354 0.0
N105 N 0.71257 0.99168 0.53684 0.0
C106 C 0.70603 0.98206 0.57316 0.0
C107 C 0.72005 0.98493 0.55606 0.0
C108 C 0.68414 0.98594 0.5703 0.0
C109 C 0.6769 0.99254 0.55012 0.0
H110 H 0.686 0.00029 0.51796 0.0
H111 H 0.73687 0.98171 0.55811 0.0
C112 C 0.79066 0.95609 0.47133 0.0
N113 N 0.77879 0.95895 0.48925 0.0
C114 C 0.80562 0.93965 0.47029 0.0
C115 C 0.79599 0.92947 0.50626 0.0
C116 C 0.78131 0.94621 0.50664 0.0
C117 C 0.80844 0.9261 0.48792 0.0
H118 H 0.78878 0.96672 0.45793 0.0
H119 H 0.77204 0.94922 0.52089 0.0
C120 C 0.71503 0.04027 0.48749 0.0
N121 N 0.69605 0.07592 0.46975 0.0
C122 C 0.7259 0.05237 0.47223 0.0
C123 C 0.69453 0.04637 0.49381 0.0
C124 C 0.71604 0.07032 0.46343 0.0
C125 C 0.6852 0.06442 0.48464 0.0
C126 C 0.7638 0.00569 0.44717 0.0
C127 C 0.77068 0.02474 0.43777 0.0
C128 C 0.75878 0.98825 0.43421 0.0
C129 C 0.77219 0.02606 0.41555 0.0
C130 C 0.76047 0.9902 0.41206 0.0
N131 N 0.76708 0.00892 0.40327 0.0
C132 C 0.79152 0.04584 0.48882 0.0
C133 C 0.76436 0.06352 0.5084 0.0
C134 C 0.80425 0.06404 0.48929 0.0
N135 N 0.7719 0.04602 0.49799 0.0
C136 C 0.77677 0.08201 0.50962 0.0
C137 C 0.79685 0.08241 0.49971 0.0
H138 H 0.79715 0.03157 0.4809 0.0
H139 H 0.74867 0.06319 0.51557 0.0
C140 C 0.69655 0.98641 0.44937 0.0
N141 N 0.71207 0.00153 0.44988 0.0
C142 C 0.68231 0.9855 0.4323 0.0
C143 C 0.70016 0.01587 0.41659 0.0
C144 C 0.71392 0.01632 0.43408 0.0
C145 C 0.68409 0.00027 0.4155 0.0
H146 H 0.69517 0.97506 0.4623 0.0
H147 H 0.72621 0.02834 0.43483 0.0
O148 O 0.7619 -0.00144 0.51765 0.0
O149 O 0.72799 0.97426 0.49061 0.0
O150 O 0.72439 0.02264 0.49637 0.0
O151 O 0.76214 0.0041 0.46892 0.0
H152 H 0.79552 0.9907 0.54171 0.0
H153 H 0.73896 0.02925 0.53586 0.0
H154 H 0.80398 0.00943 0.57563 0.0
H155 H 0.74842 0.04729 0.56977 0.0
H156 H 0.73252 0.90924 0.45877 0.0
H157 H 0.72683 0.95053 0.5256 0.0
H158 H 0.7304 0.94873 0.45701 0.0
H159 H 0.72873 0.911 0.52616 0.0
H160 H 0.71222 0.97665 0.58837 0.0
H161 H 0.6602 0.9959 0.54726 0.0
H162 H 0.81486 0.93756 0.45583 0.0
H163 H 0.79795 0.91962 0.52033 0.0
H164 H 0.74172 0.04788 0.46711 0.0
H165 H 0.68592 0.03728 0.50571 0.0
H166 H 0.72427 0.07977 0.45154 0.0
H167 H 0.66933 0.06931 0.48937 0.0
H168 H 0.77467 0.03845 0.44745 0.0
H169 H 0.75347 0.9734 0.44119 0.0
H170 H 0.77738 0.04074 0.40808 0.0
H171 H 0.75651 0.97685 0.40187 0.0
H172 H 0.8198 0.06372 0.48173 0.0
H173 H 0.77062 0.09595 0.51778 0.0
H174 H 0.66989 0.97349 0.43243 0.0
H175 H 0.70231 0.02746 0.40395 0.0
Li176 Li 0.0144 0.76044 0.4988 0.0
Li177 Li 0.99155 0.73511 0.51581 0.0
Li178 Li 0.99576 0.73456 0.47766 0.0
Li179 Li 0.9764 0.76286 0.49445 0.0
C180 C 0.03639 0.72289 0.48958 0.0
N181 N 0.0735 0.71026 0.46938 0.0
C182 C 0.04774 0.7052 0.49704 0.0
C183 C 0.04391 0.73416 0.47184 0.0
C184 C 0.06647 0.69907 0.48662 0.0
C185 C 0.0627 0.72752 0.46185 0.0
C186 C 0.00294 0.77011 0.54017 0.0
C187 C 0.00674 0.79083 0.57239 0.0
N188 N 0.02338 0.77825 0.57839 0.0
C189 C 0.02008 0.75738 0.54666 0.0
C190 C 0.9962 0.78697 0.55312 0.0
C191 C 0.0302 0.76176 0.56603 0.0
C192 C 0.03612 0.79873 0.49776 0.0
N193 N 0.03909 0.77765 0.50183 0.0
C194 C 0.07581 0.78364 0.51017 0.0
C195 C 0.05835 0.76992 0.50821 0.0
C196 C 0.07315 0.8055 0.50606 0.0
C197 C 0.053 0.81305 0.49991 0.0
H198 H 0.02054 0.80438 0.49292 0.0
H199 H 0.06018 0.75318 0.5119 0.0
C200 C 0.99452 0.69663 0.53702 0.0
N201 N 0.98761 0.71698 0.53961 0.0
C202 C 0.99179 0.68172 0.55329 0.0
C203 C 0.97477 0.70902 0.57463 0.0
C204 C 0.97795 0.72347 0.55794 0.0
C205 C 0.98164 0.68777 0.57237 0.0
H206 H 0.00206 0.69198 0.52221 0.0
H207 H 0.97251 0.73976 0.55951 0.0
C208 C 0.98897 0.77088 0.45302 0.0
N209 N 0.96968 0.78177 0.41489 0.0
C210 C 0.97089 0.75982 0.44605 0.0
C211 C -0.00278 0.78748 0.44061 0.0
C212 C 0.96137 0.76557 0.42673 0.0
C213 C 0.98724 0.79274 0.42137 0.0
C214 C 0.94972 0.72848 0.50386 0.0
C215 C 0.93655 0.71191 0.49686 0.0
C216 C 0.94326 0.7412 0.52102 0.0
C217 C 0.9171 0.70832 0.50716 0.0
C218 C 0.9237 0.73711 0.53089 0.0
N219 N 0.91113 0.72089 0.52382 0.0
C220 C 0.98978 0.69559 0.45804 0.0
C221 C 0.00674 0.72072 0.43535 0.0
C222 C 0.99131 0.67986 0.44241 0.0
N223 N -0.00251 0.71549 0.45429 0.0
C224 C 0.00858 0.70545 0.41921 0.0
C225 C 0.00096 0.68465 0.42273 0.0
H226 H 0.98265 0.69192 0.47333 0.0
H227 H 0.013 0.73662 0.4329 0.0
C228 C 0.95787 0.80278 0.49884 0.0
N229 N 0.95386 0.78275 0.49162 0.0
C230 C 0.9422 0.81852 0.49749 0.0
C231 C 0.91856 0.79267 0.48127 0.0
C232 C 0.93475 0.77746 0.4828 0.0
C233 C 0.92221 0.81351 0.48869 0.0
H234 H 0.97327 0.80648 0.5057 0.0
H235 H 0.93207 0.76144 0.47698 0.0
O236 O 0.01792 0.72887 0.49959 0.0
O237 O 0.99272 0.76629 0.52126 0.0
O238 O -0.0014 0.76572 0.47192 0.0
O239 O 0.96883 0.73204 0.4939 0.0
H240 H 0.04212 0.6963 0.51075 0.0
H241 H 0.03543 0.74793 0.46585 0.0
H242 H 0.07541 0.68541 0.49222 0.0
H243 H 0.0687 0.7361 0.44812 0.0
H244 H 0.00169 0.80382 0.58257 0.0
H245 H 0.02554 0.74425 0.53693 0.0
H246 H 0.98296 0.79696 0.54831 0.0
H247 H 0.04348 0.75204 0.57125 0.0
H248 H 0.0911 0.77734 0.51519 0.0
H249 H 0.05042 0.82981 0.49652 0.0
H250 H -0.00226 0.66567 0.55097 0.0
H251 H 0.9667 0.71433 0.58896 0.0
H252 H 0.96427 0.74692 0.45539 0.0
H253 H 0.01119 0.7962 0.44581 0.0
H254 H 0.94738 0.75714 0.42114 0.0
H255 H 0.99346 0.80555 0.4116 0.0
H256 H 0.94133 0.70192 0.4836 0.0
H257 H 0.95317 0.75413 0.52666 0.0
H258 H 0.90675 0.69554 0.5019 0.0
H259 H 0.91851 0.74683 0.54418 0.0
H260 H 0.98496 0.66411 0.44568 0.0
H261 H 0.01634 0.70974 0.40437 0.0
H262 H 0.94558 0.83433 0.50359 0.0
H263 H 0.90345 0.78826 0.47415 0.0
Li264 Li 0.23396 0.01314 0.49924 0.0
Li265 Li 0.26097 0.99549 0.51972 0.0
Li266 Li 0.26135 0.99428 0.48003 0.0
Li267 Li 0.23353 0.97493 0.50124 0.0
C268 C 0.27313 0.03843 0.49481 0.0
N269 N 0.29014 0.07817 0.48594 0.0
C270 C 0.28105 0.05119 0.51131 0.0
C271 C 0.27412 0.0458 0.47376 0.0
C272 C 0.2895 0.07125 0.50651 0.0
C273 C 0.2827 0.06595 0.46961 0.0
C274 C 0.2245 0.00672 0.54266 0.0
C275 C 0.2047 0.01063 0.57543 0.0
N276 N 0.2138 0.03011 0.57847 0.0
C277 C 0.23364 0.02677 0.54609 0.0
C278 C 0.2099 -0.00143 0.55741 0.0
C279 C 0.22803 0.03835 0.56428 0.0
C280 C 0.19424 0.03161 0.50438 0.0
N281 N 0.21469 0.03681 0.49937 0.0
C282 C 0.20518 0.07358 0.49592 0.0
C283 C 0.2204 0.05733 0.4952 0.0
C284 C 0.18389 0.06865 0.50095 0.0
C285 C 0.17851 0.04729 0.50514 0.0
H286 H 0.19016 0.01517 0.5077 0.0
H287 H 0.23669 0.06123 0.49141 0.0
C288 C 0.2998 0.00314 0.53925 0.0
N289 N 0.27952 -0.00318 0.54347 0.0
C290 C 0.31464 0.00487 0.55572 0.0
C291 C 0.28747 0.99327 0.58057 0.0
C292 C 0.27315 0.99172 0.56358 0.0
C293 C 0.30853 1e-05 0.57675 0.0
H294 H 0.30442 0.00683 0.52302 0.0
H295 H 0.25698 0.98646 0.56645 0.0
C296 C 0.21355 0.00174 0.46439 0.0
N297 N 0.17964 0.02123 0.44401 0.0
C298 C 0.19318 0.99273 0.46542 0.0
C299 C 0.21672 0.02052 0.45274 0.0
C300 C 0.17623 0.00285 0.45506 0.0
C301 C 0.19936 0.03018 0.44264 0.0
C302 C 0.27104 0.95296 0.51301 0.0
C303 C 0.28832 0.94033 0.50679 0.0
C304 C 0.25994 0.94806 0.53173 0.0
C305 C 0.29419 0.9229 0.51941 0.0
C306 C 0.2663 0.93051 0.54392 0.0
N307 N 0.28315 0.9184 0.53756 0.0
C308 C 0.30042 0.98754 0.46037 0.0
C309 C 0.27328 -0.00152 0.43641 0.0
C310 C 0.31539 0.9873 0.44391 0.0
N311 N 0.27991 0.9932 0.45637 0.0
C312 C 0.28779 -0.0012 0.4195 0.0
C313 C 0.30925 0.99329 0.42315 0.0
H314 H 0.30515 0.98336 0.47645 0.0
H315 H 0.25683 0.00289 0.43372 0.0
C316 C 0.19624 0.95353 0.51154 0.0
N317 N 0.21587 0.95055 0.50291 0.0
C318 C 0.18205 0.9365 0.51326 0.0
C319 C 0.2088 0.91347 0.49765 0.0
C320 C 0.22238 0.93108 0.49595 0.0
C321 C 0.18824 0.91606 0.50634 0.0
H322 H 0.1915 0.96928 0.51678 0.0
H323 H 0.23814 0.9292 0.48915 0.0
O324 O 0.26501 0.01864 0.49922 0.0
O325 O 0.22968 0.99506 0.52494 0.0
O326 O 0.23025 0.99228 0.47482 0.0
O327 O 0.26524 0.97017 0.50088 0.0
H328 H 0.28071 0.04565 0.52768 0.0
H329 H 0.26822 0.03615 0.46078 0.0
H330 H 0.29561 0.08131 0.51914 0.0
H331 H 0.28346 0.07188 0.45341 0.0
H332 H 0.19344 0.00451 0.587 0.0
H333 H 0.24485 0.03335 0.53479 0.0
H334 H 0.2027 0.98305 0.55498 0.0
H335 H 0.23497 0.0539 0.56712 0.0
H336 H 0.21013 0.08985 0.49287 0.0
H337 H 0.16226 0.04265 0.50875 0.0
H338 H 0.3308 0.0097 0.55196 0.0
H339 H 0.28203 0.98949 0.59654 0.0
H340 H 0.19045 0.97812 0.47417 0.0
H341 H 0.23233 0.02779 0.45184 0.0
H342 H 0.16036 0.99611 0.45583 0.0
H343 H 0.20156 0.04484 0.43378 0.0
H344 H 0.29711 0.94396 0.49235 0.0
H345 H 0.24655 0.95767 0.53683 0.0
H346 H 0.30753 0.91297 0.51479 0.0
H347 H 0.25785 0.92652 0.55845 0.0
H348 H 0.33158 0.98246 0.44747 0.0
H349 H 0.28232 0.00377 0.40389 0.0
H350 H 0.16626 0.93948 0.5196 0.0
H351 H 0.21441 0.89802 0.49235 0.0
Li352 Li 0.49373 0.01763 0.22953 0.0
Li353 Li 0.4753 -0.0024 0.25759 0.0
Li354 Li 0.51421 -0.00129 0.25543 0.0
Li355 Li 0.49333 0.9787 0.22925 0.0
C356 C 0.50365 0.03209 0.27775 0.0
N357 N 0.5242 0.04892 0.31296 0.0
C358 C 0.49565 0.02838 0.29825 0.0
C359 C 0.52204 0.04447 0.27516 0.0
C360 C 0.50627 0.03702 0.31585 0.0
C361 C 0.53223 0.05278 0.29317 0.0
C362 C 0.4473 0.0 0.22584 0.0
C363 C 0.41227 0.98461 0.22996 0.0
N364 N 0.4034 0.00397 0.22575 0.0
C365 C 0.43785 0.01973 0.22149 0.0
C366 C 0.43443 0.98227 0.23003 0.0
C367 C 0.41562 0.02141 0.22152 0.0
C368 C 0.48417 0.03895 0.19149 0.0
N369 N 0.49242 0.04183 0.21134 0.0
C370 C 0.50018 0.07835 0.20366 0.0
C371 C 0.50016 0.06106 0.21772 0.0
C372 C 0.49182 0.07581 0.18303 0.0
C373 C 0.4836 0.05586 0.17702 0.0
H374 H 0.47823 0.02342 0.18686 0.0
H375 H 0.50653 0.06291 0.23361 0.0
C376 C 0.45194 0.9811 0.29191 0.0
N377 N 0.4521 -0.00304 0.27711 0.0
C378 C 0.4361 0.98045 0.30751 0.0
C379 C 0.42067 0.01237 0.29225 0.0
C380 C 0.43707 0.01261 0.27714 0.0
C381 C 0.42024 0.99623 0.30778 0.0
H382 H 0.46441 0.96921 0.29193 0.0
H383 H 0.43803 0.0255 0.26572 0.0
C384 C 0.52627 0.00644 0.20614 0.0
N385 N 0.54104 0.02524 0.16905 0.0
C386 C 0.52101 -0.00226 0.18629 0.0
C387 C 0.53914 0.02465 0.20713 0.0
C388 C 0.52864 0.00747 0.16772 0.0
C389 C 0.5464 0.03395 0.1882 0.0
C390 C 0.49722 0.95229 0.26214 0.0
C391 C 0.51716 0.94292 0.26561 0.0
C392 C 0.4792 0.93934 0.25983 0.0
C393 C 0.51875 0.92069 0.26656 0.0
C394 C 0.48147 0.91719 0.26084 0.0
N395 N 0.50103 0.9084 0.26415 0.0
C396 C 0.53629 0.9904 0.29289 0.0
C397 C 0.55811 0.00549 0.26586 0.0
C398 C 0.5534 0.98996 0.30705 0.0
N399 N 0.53893 -0.00189 0.27279 0.0
C400 C 0.57564 0.00562 0.27962 0.0
C401 C 0.57334 -0.00225 0.30048 0.0
H402 H 0.52077 0.98476 0.29794 0.0
H403 H 0.55974 0.01147 0.24977 0.0
C404 C 0.4756 0.95014 0.19926 0.0
N405 N 0.49287 0.95405 0.21173 0.0
C406 C 0.47511 0.93219 0.1861 0.0
C407 C 0.5102 0.92263 0.19892 0.0
C408 C 0.51014 0.94095 0.21156 0.0
C409 C 0.49254 0.91805 0.18586 0.0
H410 H 0.46232 0.96113 0.19929 0.0
H411 H 0.52389 0.94476 0.22125 0.0
O412 O 0.4938 0.0233 0.26035 0.0
O413 O 0.46904 -0.00195 0.22599 0.0
O414 O 0.5185 -0.00253 0.22448 0.0
O415 O 0.49535 0.97401 0.2609 0.0
H416 H 0.48151 0.0188 0.3006 0.0
H417 H 0.52871 0.04718 0.25947 0.0
H418 H 0.5003 0.0342 0.3318 0.0
H419 H 0.54659 0.06219 0.2914 0.0
H420 H 0.40212 0.97104 0.23328 0.0
H421 H 0.44753 0.03367 0.21838 0.0
H422 H 0.44148 0.96689 0.23342 0.0
H423 H 0.40808 0.0366 0.21828 0.0
H424 H 0.5065 0.09356 0.20889 0.0
H425 H 0.47722 0.05324 0.16117 0.0
H426 H 0.43628 0.96779 0.31929 0.0
H427 H 0.40887 0.025 0.29222 0.0
H428 H 0.51097 0.98375 0.18518 0.0
H429 H 0.54308 0.03181 0.22233 0.0
H430 H 0.52462 0.00096 0.15225 0.0
H431 H 0.55619 0.04815 0.18872 0.0
H432 H 0.53131 0.95266 0.26725 0.0
H433 H 0.46366 0.94633 0.25717 0.0
H434 H 0.5341 0.91322 0.26912 0.0
H435 H 0.46767 0.90698 0.25898 0.0
H436 H 0.55096 0.984 0.3231 0.0
H437 H 0.59084 0.01165 0.274 0.0
H438 H 0.46137 0.92972 0.17592 0.0
H439 H 0.52393 0.91217 0.1995 0.0
Li440 Li 0.97957 0.49447 0.23807 0.0
Li441 Li 0.00108 0.47131 0.26107 0.0
Li442 Li 0.00288 0.51136 0.26497 0.0
Li443 Li 0.01915 0.49275 0.23498 0.0
C444 C 0.95899 0.49402 0.27932 0.0
N445 N 0.91997 0.49862 0.29943 0.0
C446 C 0.94739 0.47603 0.28563 0.0
C447 C 0.95088 0.51436 0.28362 0.0
C448 C 0.92766 0.47868 0.29566 0.0
C449 C 0.9311 0.51635 0.2937 0.0
C450 C 0.9944 0.44903 0.22493 0.0
C451 C 0.00697 0.41272 0.22268 0.0
N452 N 0.98726 0.40641 0.21616 0.0
C453 C 0.97431 0.44221 0.21807 0.0
C454 C 0.01092 0.4342 0.22712 0.0
C455 C 0.97101 0.42058 0.21376 0.0
C456 C 0.95585 0.50653 0.2027 0.0
N457 N 0.95394 0.49716 0.22215 0.0
C458 C 0.91666 0.49146 0.21657 0.0
C459 C 0.93489 0.48956 0.22923 0.0
C460 C 0.91814 0.50117 0.19641 0.0
C461 C 0.93807 0.50879 0.18953 0.0
H462 H 0.97129 0.51207 0.19732 0.0
H463 H 0.93384 0.48169 0.24449 0.0
C464 C 0.01703 0.44241 0.29127 0.0
N465 N 0.00126 0.4453 0.27668 0.0
C466 C 0.01752 0.424 0.30379 0.0
C467 C 0.98569 0.41171 0.28581 0.0
C468 C 0.98572 0.43045 0.2738 0.0
C469 C 0.00163 0.40836 0.30124 0.0
H470 H 0.02902 0.45461 0.29347 0.0
H471 H 0.97316 0.43324 0.26233 0.0
C472 C 0.99384 0.53869 0.23015 0.0
N473 N 0.98053 0.57998 0.22209 0.0
C474 C 0.00742 0.55306 0.2198 0.0
C475 C 0.97339 0.54525 0.23611 0.0
C476 C 0.00044 0.57389 0.21596 0.0
C477 C 0.96697 0.5662 0.23197 0.0
C478 C 0.04803 0.49038 0.26503 0.0
C479 C 0.05903 0.50923 0.26956 0.0
C480 C 0.05937 0.47206 0.25929 0.0
C481 C 0.08127 0.50952 0.26799 0.0
C482 C 0.08159 0.473 0.25786 0.0
N483 N 0.09199 0.49156 0.26219 0.0
C484 C -0.00158 0.53051 0.305 0.0
C485 C 0.01408 0.55309 0.27898 0.0
C486 C -0.00067 0.54674 0.3202 0.0
N487 N 0.00543 0.53406 0.28479 0.0
C488 C 0.01529 0.56979 0.29367 0.0
C489 C 0.00772 0.56676 0.31457 0.0
H490 H 0.99189 0.5151 0.30924 0.0
H491 H 0.02016 0.55529 0.26301 0.0
C492 C 0.04562 0.47734 0.20192 0.0
N493 N 0.04229 0.49392 0.21548 0.0
C494 C 0.06238 0.47801 0.18729 0.0
C495 C 0.0719 0.5129 0.20076 0.0
C496 C 0.05498 0.51151 0.21518 0.0
C497 C 0.07573 0.49601 0.18653 0.0
H498 H 0.0351 0.4637 0.20227 0.0
H499 H 0.05195 0.52446 0.22617 0.0
O500 O 0.97845 0.49167 0.26964 0.0
O501 O -0.00209 0.47015 0.22926 0.0
O502 O 0.00052 0.51826 0.2341 0.0
O503 O 0.02625 0.4899 0.26605 0.0
H504 H 0.95345 0.46018 0.28267 0.0
H505 H 0.95983 0.52851 0.2795 0.0
H506 H 0.91846 0.46487 0.30046 0.0
H507 H 0.92464 0.53201 0.29706 0.0
H508 H 0.01957 0.40105 0.22445 0.0
H509 H 0.96138 0.45346 0.21614 0.0
H510 H 0.02657 0.43919 0.23241 0.0
H511 H 0.95552 0.41507 0.20852 0.0
H512 H 0.90161 0.4854 0.22251 0.0
H513 H 0.94005 0.51596 0.17393 0.0
H514 H 0.02987 0.42237 0.31576 0.0
H515 H 0.97325 0.40003 0.28309 0.0
H516 H 0.02323 0.54823 0.21485 0.0
H517 H 0.96247 0.53424 0.24358 0.0
H518 H 0.01083 0.5852 0.20808 0.0
H519 H 0.95118 0.57147 0.23653 0.0
H520 H 0.05049 0.52354 0.27406 0.0
H521 H 0.05109 0.45732 0.25584 0.0
H522 H 0.08999 0.52404 0.27133 0.0
H523 H 0.09058 0.45899 0.25329 0.0
H524 H 0.99315 0.54375 0.33607 0.0
H525 H 0.02228 0.58483 0.28878 0.0
H526 H 0.06456 0.46479 0.17637 0.0
H527 H 0.08193 0.52698 0.20082 0.0
Li528 Li 0.47968 0.99626 0.73637 0.0
Li529 Li 0.49974 0.97669 0.76374 0.0
Li530 Li 0.50222 0.01503 0.76207 0.0
Li531 Li 0.51779 0.99183 0.7347 0.0
C532 C 0.45811 0.98851 0.77505 0.0
N533 N 0.42118 0.96911 0.78941 0.0
C534 C 0.45267 0.96804 0.76795 0.0
C535 C 0.44476 -0.00093 0.78946 0.0
C536 C 0.43395 0.95852 0.77541 0.0
C537 C 0.42615 0.98901 0.79651 0.0
C538 C 0.50354 0.95611 0.71781 0.0
C539 C 0.53027 0.93149 0.70506 0.0
N540 N 0.52035 0.93084 0.68577 0.0
C541 C 0.49345 0.95493 0.69796 0.0
C542 C 0.52193 0.94404 0.72149 0.0
C543 C 0.50224 0.94215 0.68194 0.0
C544 C 0.45911 0.00242 0.69774 0.0
N545 N 0.45492 -0.00079 0.71878 0.0
C546 C 0.41739 0.00032 0.71208 0.0
C547 C 0.43452 -0.00132 0.72621 0.0
C548 C 0.42128 0.00289 0.69017 0.0
C549 C 0.44248 0.00424 0.68307 0.0
H550 H 0.47548 0.00325 0.69231 0.0
H551 H 0.43135 -0.00295 0.74301 0.0
C552 C 0.49463 0.95977 0.8045 0.0
N553 N 0.49832 0.95411 0.7839 0.0
C554 C 0.49334 0.94423 0.82035 0.0
C555 C 0.49928 0.91723 0.79341 0.0
C556 C 0.50049 0.93335 0.77805 0.0
C557 C 0.49575 0.92263 0.8149 0.0
H558 H 0.49266 0.97643 0.80858 0.0
H559 H 0.50312 0.9293 0.7615 0.0
C560 C 0.49127 0.03738 0.72562 0.0
N561 N 0.47108 0.07528 0.71561 0.0
C562 C 0.49878 0.04999 0.70883 0.0
C563 C 0.47344 0.04401 0.7373 0.0
C564 C 0.48837 0.06911 0.70402 0.0
C565 C 0.46348 0.06323 0.732 0.0
C566 C 0.53618 0.98583 0.78225 0.0
C567 C 0.53546 0.9962 0.80199 0.0
C568 C 0.54705 0.96642 0.78045 0.0
C569 C 0.5452 0.98676 0.81969 0.0
C570 C 0.55656 0.95748 0.79853 0.0
N571 N 0.55543 0.96773 0.81762 0.0
C572 C 0.49484 0.04012 0.79772 0.0
C573 C 0.51688 0.05698 0.77193 0.0
C574 C 0.49708 0.05739 0.8115 0.0
N575 N 0.5049 0.04012 0.77852 0.0
C576 C 0.51938 0.07476 0.78517 0.0
C577 C 0.50967 0.07488 0.80539 0.0
H578 H 0.48558 0.02639 0.80254 0.0
H579 H 0.52473 0.05644 0.75656 0.0
C580 C 0.53586 0.99235 0.694 0.0
N581 N 0.5405 0.98927 0.71495 0.0
C582 C 0.55175 0.99015 0.67857 0.0
C583 C 0.57696 0.98203 0.70666 0.0
C584 C 0.56054 0.98434 0.72155 0.0
C585 C 0.57262 0.98488 0.68483 0.0
H586 H 0.51976 0.99641 0.6893 0.0
H587 H 0.56376 0.98211 0.73834 0.0
O588 O 0.47658 -0.00193 0.76836 0.0
O589 O 0.49538 0.96887 0.73359 0.0
O590 O 0.50128 0.01856 0.73034 0.0
O591 O 0.5263 0.99461 0.76482 0.0
H592 H 0.4627 0.95959 0.75677 0.0
H593 H 0.44868 0.01491 0.7951 0.0
H594 H 0.42955 0.94271 0.77006 0.0
H595 H 0.41566 -0.00298 0.80764 0.0
H596 H 0.54464 0.92229 0.70764 0.0
H597 H 0.47892 0.96366 0.69494 0.0
H598 H 0.52985 0.94457 0.73676 0.0
H599 H 0.49465 0.94121 0.66646 0.0
H600 H 0.40126 -0.00031 0.71826 0.0
H601 H 0.44621 0.00615 0.66629 0.0
H602 H 0.49023 0.94908 0.83665 0.0
H603 H 0.50136 0.90077 0.78856 0.0
H604 H 0.51252 0.04502 0.6996 0.0
H605 H 0.46731 0.03445 0.7503 0.0
H606 H 0.49402 0.07904 0.69106 0.0
H607 H 0.44968 0.06856 0.7409 0.0
H608 H 0.52739 0.01131 0.80371 0.0
H609 H 0.54798 0.95822 0.76534 0.0
H610 H 0.54462 0.99456 0.83508 0.0
H611 H 0.56483 0.94237 0.79737 0.0
H612 H 0.48913 0.05701 0.82686 0.0
H613 H 0.52928 0.08794 0.77997 0.0
H614 H 0.54778 0.99284 0.66197 0.0
H615 H 0.59279 0.97781 0.71214 0.0
Li616 Li 0.99056 0.51783 0.73192 0.0
Li617 Li 0.97566 0.49601 0.76062 0.0
Li618 Li 0.01407 0.50021 0.75663 0.0
Li619 Li 0.99323 0.47898 0.73142 0.0
C620 C 0.98933 0.54373 0.76509 0.0
N621 N 0.98155 0.58706 0.76761 0.0
C622 C 0.96949 0.55116 0.77206 0.0
C623 C 0.00524 0.55833 0.75948 0.0
C624 C 0.96588 0.57314 0.77323 0.0
C625 C 0.00098 0.58017 0.76082 0.0
C626 C 0.95599 0.48763 0.71417 0.0
C627 C 0.93632 0.45791 0.69962 0.0
N628 N 0.93548 0.46801 0.68042 0.0
C629 C 0.95485 0.49776 0.69431 0.0
C630 C 0.94655 0.46759 0.7169 0.0
C631 C 0.94442 0.48757 0.67744 0.0
C632 C 0.00132 0.54425 0.69788 0.0
N633 N 0.98692 0.54192 0.71393 0.0
C634 C 0.96719 0.57215 0.70159 0.0
C635 C 0.96995 0.55531 0.71596 0.0
C636 C 0.9817 0.57469 0.68472 0.0
C637 C -0.00102 0.56058 0.683 0.0
H638 H 0.01436 0.53311 0.69632 0.0
H639 H 0.95835 0.55265 0.72843 0.0
C640 C 0.95806 0.50142 0.8012 0.0
N641 N 0.95377 0.49378 0.78138 0.0
C642 C 0.94295 0.49965 0.81743 0.0
C643 C 0.91929 0.48203 0.79256 0.0
C644 C 0.93482 0.48434 0.77674 0.0
C645 C 0.92326 0.48973 0.81327 0.0
H646 H 0.9733 0.50887 0.80437 0.0
H647 H 0.93185 0.47839 0.76085 0.0
C648 C 0.03691 0.49965 0.72124 0.0
N649 N 0.0805 0.49807 0.71487 0.0
C650 C 0.04671 0.48044 0.71553 0.0
C651 C 0.04925 0.51809 0.72356 0.0
C652 C 0.06877 0.47997 0.7124 0.0
C653 C 0.07128 0.51695 0.72033 0.0
C654 C 0.99207 0.46307 0.77996 0.0
C655 C 0.00171 0.46816 0.79942 0.0
C656 C 0.97559 0.44803 0.77941 0.0
C657 C 0.99462 0.45817 0.81806 0.0
C658 C 0.96893 0.43844 0.79841 0.0
N659 N 0.9785 0.44367 0.81718 0.0
C660 C 0.04389 0.5186 0.78485 0.0
C661 C 0.05415 0.48526 0.77025 0.0
C662 C 0.06234 0.51926 0.79728 0.0
N663 N 0.04017 0.50176 0.77175 0.0
C664 C 0.07293 0.48537 0.78217 0.0
C665 C 0.07711 0.5024 0.79618 0.0
H666 H 0.03224 0.53123 0.78614 0.0
H667 H 0.05051 0.47183 0.76005 0.0
C668 C 0.99552 0.46009 0.69144 0.0
N669 N 0.99405 0.45544 0.71256 0.0
C670 C 0.99535 0.44379 0.67635 0.0
C671 C 0.99301 0.41809 0.7051 0.0
C672 C 0.99306 0.43497 0.71967 0.0
C673 C 0.99394 0.42247 0.68312 0.0
H674 H -0.00338 0.47655 0.68634 0.0
H675 H 0.99216 0.43177 0.73659 0.0
O676 O 0.99315 0.52228 0.76371 0.0
O677 O 0.9665 0.49717 0.73076 0.0
O678 O 0.01536 0.50041 0.72462 0.0
O679 O -0.00162 0.4731 0.76162 0.0
H680 H 0.95693 0.54011 0.77631 0.0
H681 H 0.02066 0.55285 0.754 0.0
H682 H 0.95057 0.57912 0.77852 0.0
H683 H 0.01311 0.59165 0.75643 0.0
H684 H 0.92915 0.44231 0.70145 0.0
H685 H 0.96207 0.51324 0.69187 0.0
H686 H 0.94754 0.45937 0.73205 0.0
H687 H 0.9435 0.49518 0.66197 0.0
H688 H 0.95352 0.58261 0.70319 0.0
H689 H 0.0105 0.56211 0.6702 0.0
H690 H 0.94661 0.50619 0.83299 0.0
H691 H 0.90449 0.47403 0.78865 0.0
H692 H 0.03743 0.466 0.71374 0.0
H693 H 0.04191 0.53308 0.72794 0.0
H694 H 0.07659 0.4652 0.70808 0.0
H695 H 0.08104 0.53107 0.72218 0.0
H696 H 0.01438 0.47986 0.80017 0.0
H697 H 0.96778 0.4441 0.76453 0.0
H698 H 0.00187 0.46203 0.83325 0.0
H699 H 0.95608 0.42691 0.79825 0.0
H700 H 0.06458 0.53248 0.80817 0.0
H701 H 0.08391 0.47212 0.78061 0.0
H702 H -0.00354 0.4478 0.65957 0.0
H703 H 0.99186 0.40186 0.71093 0.0
Li704 Li 0.23054 0.4975 0.01098 0.0
Li705 Li 0.25651 0.47556 0.98957 0.0
Li706 Li 0.25987 0.51373 0.99174 0.0
Li707 Li 0.23252 0.49846 0.97066 0.0
C708 C 0.2786 0.49908 0.0267 0.0
N709 N 0.31444 0.51337 0.04795 0.0
C710 C 0.29888 0.49282 0.01987 0.0
C711 C 0.27651 0.51248 0.0444 0.0
C712 C 0.31682 0.50026 0.03081 0.0
C713 C 0.29484 0.51956 0.05492 0.0
C714 C 0.22087 0.4529 0.99227 0.0
C715 C 0.22067 0.417 0.97834 0.0
N716 N 0.21413 0.40963 -0.00231 0.0
C717 C 0.21401 0.44498 0.01197 0.0
C718 C 0.22409 0.43882 0.97526 0.0
C719 C 0.21073 0.42306 0.01441 0.0
C720 C 0.19231 0.50572 0.03244 0.0
N721 N 0.21249 0.49829 0.03502 0.0
C722 C 0.20608 0.49122 0.07192 0.0
C723 C 0.21961 0.49109 0.0542 0.0
C724 C 0.18513 0.49889 0.06978 0.0
C725 C 0.1783 0.50627 0.04973 0.0
H726 H 0.18712 0.51117 0.0169 0.0
H727 H 0.23571 0.48508 0.05567 0.0
C728 C 0.2859 0.44587 0.97336 0.0
N729 N 0.27199 0.44954 0.98956 0.0
C730 C 0.2983 0.42741 0.97319 0.0
C731 C 0.28196 0.41687 0.00653 0.0
C732 C 0.26994 0.43564 0.0061 0.0
C733 C 0.29647 0.41261 0.98995 0.0
H734 H 0.28779 0.45753 0.96081 0.0
H735 H 0.25915 0.43924 0.01907 0.0
C736 C 0.22969 0.54404 0.99314 0.0
N737 N 0.23061 0.58797 -0.00308 0.0
C738 C 0.23777 0.55657 0.97654 0.0
C739 C 0.22197 0.55386 0.01163 0.0
C740 C 0.23815 0.57875 0.97878 0.0
C741 C 0.22258 0.5761 0.01324 0.0
C742 C 0.26444 0.49663 0.94463 0.0
C743 C 0.27 0.51571 0.93445 0.0
C744 C 0.25916 0.47876 0.93236 0.0
C745 C 0.2701 0.5166 0.91217 0.0
C746 C 0.2594 0.48031 0.91011 0.0
N747 N 0.26482 0.49904 0.90056 0.0
C748 C 0.29861 0.53364 0.98168 0.0
C749 C 0.2794 0.55157 0.00886 0.0
C750 C 0.31503 0.54859 0.98289 0.0
N751 N 0.28106 0.53559 0.99426 0.0
C752 C 0.29544 0.56692 0.01059 0.0
C753 C 0.31352 0.56558 -0.00258 0.0
H754 H 0.29997 0.52032 0.97082 0.0
H755 H 0.26581 0.55223 0.01943 0.0
C756 C 0.20086 0.48442 0.94238 0.0
N757 N 0.21493 0.50052 0.94591 0.0
C758 C 0.18771 0.48471 0.92445 0.0
C759 C 0.20365 0.51826 0.91406 0.0
C760 C 0.21636 0.5174 0.93234 0.0
C761 C 0.18906 0.50174 0.90991 0.0
H762 H 0.1997 0.47139 0.9536 0.0
H763 H 0.22748 0.53013 0.93554 0.0
O764 O 0.2609 0.49243 0.01585 0.0
O765 O 0.22439 0.47431 0.98964 0.0
O766 O 0.22913 0.5223 0.99128 0.0
O767 O 0.26401 0.49547 0.96647 0.0
H768 H 0.30074 0.48254 0.00611 0.0
H769 H 0.26091 0.5176 0.04976 0.0
H770 H 0.33263 0.49567 0.02563 0.0
H771 H 0.29349 0.53005 0.06856 0.0
H772 H 0.22324 0.40592 0.96535 0.0
H773 H 0.21133 0.4556 0.02529 0.0
H774 H 0.2293 0.44464 0.95988 0.0
H775 H 0.20551 0.41671 0.0296 0.0
H776 H 0.212 0.48551 0.08712 0.0
H777 H 0.16218 0.51201 0.04734 0.0
H778 H 0.30968 0.42512 0.96038 0.0
H779 H 0.27997 0.4059 0.01975 0.0
H780 H 0.2441 0.54926 0.96228 0.0
H781 H 0.21574 0.54443 0.02468 0.0
H782 H 0.24452 0.58863 0.96612 0.0
H783 H 0.21674 0.58391 0.02748 0.0
H784 H 0.27387 0.52981 0.94361 0.0
H785 H 0.25477 0.4639 0.93991 0.0
H786 H 0.27426 0.53129 0.9041 0.0
H787 H 0.25523 0.46663 0.90044 0.0
H788 H 0.32867 0.54694 0.9724 0.0
H789 H 0.29388 0.57945 0.02239 0.0
H790 H 0.17636 0.47187 0.92224 0.0
H791 H 0.20538 0.53163 0.90325 0.0
Li792 Li 0.5125 0.26464 0.99485 0.0
Li793 Li 0.49311 0.23515 0.01123 0.0
Li794 Li 0.49752 0.23619 0.97246 0.0
Li795 Li 0.47291 0.26002 0.99037 0.0
C796 C 0.53959 0.23072 0.98514 0.0
N797 N 0.57845 0.22395 0.96545 0.0
C798 C 0.55305 0.21444 0.99226 0.0
C799 C 0.54588 0.24355 0.96799 0.0
C800 C 0.57265 0.21128 0.98211 0.0
C801 C 0.56559 0.23988 0.95826 0.0
C802 C 0.48897 0.26721 0.03832 0.0
C803 C 0.46998 0.2627 0.07151 0.0
N804 N 0.48784 0.2685 0.08239 0.0
C805 C 0.50708 0.27332 0.04981 0.0
C806 C 0.4702 0.26205 0.04922 0.0
C807 C 0.50621 0.27381 0.07209 0.0
C808 C 0.53067 0.30498 0.9904 0.0
N809 N 0.53456 0.285 -0.00216 0.0
C810 C 0.56994 0.29482 0.00801 0.0
C811 C 0.55359 0.27974 0.00682 0.0
C812 C 0.56658 0.3155 -3e-05 0.0
C813 C 0.54654 0.32055 0.99127 0.0
H814 H 0.51525 0.30874 0.98364 0.0
H815 H 0.55613 0.26376 0.01285 0.0
C816 C 0.47724 0.2015 0.03636 0.0
N817 N 0.49272 0.21663 0.03522 0.0
C818 C 0.47657 0.18738 0.05355 0.0
C819 C 0.50791 0.20455 0.06806 0.0
C820 C 0.50809 0.21821 0.05043 0.0
C821 C 0.49198 0.18882 0.06978 0.0
H822 H 0.46559 0.20015 0.02375 0.0
H823 H 0.52053 0.23006 0.04885 0.0
C824 C 0.49134 0.27298 0.94782 0.0
N825 N 0.48466 0.28351 0.90551 0.0
C826 C 0.47436 0.26394 0.93657 0.0
C827 C 0.50505 0.28725 0.9375 0.0
C828 C 0.47121 0.26949 0.91521 0.0
C829 C 0.50137 0.29241 0.91612 0.0
C830 C 0.45082 0.22372 0.98546 0.0
C831 C 0.44418 0.21628 0.96549 0.0
C832 C 0.43585 0.22627 0.0018 0.0
C833 C 0.42261 0.21177 0.96215 0.0
C834 C 0.41442 0.22161 -0.00218 0.0
N835 N 0.4083 0.21453 0.97824 0.0
C836 C 0.49768 0.19762 0.95162 0.0
C837 C 0.51172 0.22525 0.92989 0.0
C838 C 0.50119 0.18267 0.93556 0.0
N839 N 0.50276 0.21845 0.94848 0.0
C840 C 0.51547 0.21081 0.91331 0.0
C841 C 0.51021 0.18918 0.9161 0.0
H842 H 0.49085 0.19265 0.96669 0.0
H843 H 0.51621 0.24178 0.92797 0.0
C844 C 0.44502 0.29184 0.00366 0.0
N845 N 0.44697 0.27601 0.98897 0.0
C846 C 0.42678 0.30455 0.00418 0.0
C847 C 0.41279 0.28457 0.97433 0.0
C848 C 0.43137 0.27228 0.97434 0.0
C849 C 0.41032 0.30099 0.98939 0.0
H850 H 0.45775 0.29475 0.01491 0.0
H851 H 0.43318 0.25975 0.9627 0.0
O852 O 0.5203 0.23386 0.99488 0.0
O853 O 0.48959 0.26637 0.01652 0.0
O854 O 0.49492 0.2675 0.96864 0.0
O855 O 0.47189 0.22819 0.98906 0.0
H856 H 0.54838 0.20435 0.0055 0.0
H857 H 0.53569 0.25622 0.96225 0.0
H858 H 0.58323 0.19873 0.98745 0.0
H859 H 0.57064 0.24969 0.94497 0.0
H860 H 0.45561 0.25861 0.08016 0.0
H861 H 0.5217 0.27745 0.04162 0.0
H862 H 0.45599 0.25754 0.04056 0.0
H863 H 0.52014 0.27836 0.08119 0.0
H864 H 0.58518 0.2902 0.01472 0.0
H865 H 0.54312 0.3364 0.98527 0.0
H866 H 0.46434 0.17518 0.05383 0.0
H867 H 0.52005 0.20637 0.0802 0.0
H868 H 0.46405 0.25241 0.94412 0.0
H869 H 0.51847 0.29416 0.94587 0.0
H870 H 0.45816 0.26254 0.9063 0.0
H871 H 0.51184 0.30344 0.90794 0.0
H872 H 0.4555 0.21416 0.95264 0.0
H873 H 0.44071 0.23188 0.01737 0.0
H874 H 0.41724 0.20612 0.94675 0.0
H875 H 0.40266 0.22363 0.0103 0.0
H876 H 0.49665 0.16622 0.9383 0.0
H877 H 0.52273 0.21641 0.89866 0.0
H878 H 0.42581 0.31732 0.01578 0.0
H879 H 0.40045 0.28114 0.96273 0.0
Li880 Li 0.73785 0.51827 0.00154 0.0
Li881 Li 0.76178 0.49715 0.02383 0.0
Li882 Li 0.76423 0.4957 0.985 0.0
Li883 Li 0.73432 0.47962 0.00424 0.0
C884 C 0.77274 0.54169 0.00443 0.0
N885 N 0.77818 0.58542 0.00614 0.0
C886 C 0.77703 0.55169 0.0239 0.0
C887 C 0.77133 0.55392 0.98581 0.0
C888 C 0.77973 0.57382 0.02444 0.0
C889 C 0.77408 0.57601 0.98702 0.0
C890 C 0.71227 0.49475 0.03625 0.0
C891 C 0.69234 0.46991 0.05789 0.0
N892 N 0.67401 0.48034 0.05278 0.0
C893 C 0.69325 0.50527 0.03126 0.0
C894 C 0.71185 0.47698 0.04975 0.0
C895 C 0.67407 0.49773 0.03978 0.0
C896 C 0.71048 0.54817 0.98203 0.0
N897 N 0.72255 0.54424 -0.00041 0.0
C898 C 0.71139 0.57696 0.01559 0.0
C899 C 0.72309 0.55805 0.01629 0.0
C900 C 0.69852 0.58143 -0.00225 0.0
C901 C 0.69825 0.56672 0.98078 0.0
H902 H 0.70994 0.53665 0.96922 0.0
H903 H 0.73244 0.55424 0.03028 0.0
C904 C 0.79964 0.50267 0.04605 0.0
N905 N 0.7787 0.49781 0.04881 0.0
C906 C 0.81323 0.50389 0.06358 0.0
C907 C 0.7835 0.49482 0.0865 0.0
C908 C 0.77041 0.49394 0.06848 0.0
C909 C 0.80518 0.5 0.08413 0.0
H910 H 0.80572 0.5057 0.03017 0.0
H911 H 0.75365 0.49029 0.07019 0.0
C912 C 0.73265 0.49437 0.95689 0.0
N913 N 0.73271 0.48709 0.91339 0.0
C914 C 0.72654 0.47448 0.94886 0.0
C915 C 0.73866 0.5106 0.94279 0.0
C916 C 0.72669 0.47111 0.92681 0.0
C917 C 0.73864 0.50658 0.92086 0.0
C918 C 0.78059 0.46109 0.01575 0.0
C919 C 0.8015 0.46229 0.00808 0.0
C920 C 0.77637 0.45005 0.03469 0.0
C921 C 0.8179 0.45252 0.0196 0.0
C922 C 0.79321 0.44055 0.04576 0.0
N923 N 0.81345 0.44197 0.03806 0.0
C924 C 0.79919 0.50786 0.95989 0.0
C925 C 0.7824 0.47595 0.9484 0.0
C926 C 0.81424 0.50627 0.94359 0.0
N927 N 0.7836 0.49292 0.96188 0.0
C928 C 0.79694 0.47391 0.93163 0.0
C929 C 0.81316 0.48916 0.92919 0.0
H930 H 0.80011 0.52088 0.97114 0.0
H931 H 0.77028 0.46392 0.95078 0.0
C932 C 0.69405 0.46213 -0.00318 0.0
N933 N 0.71394 0.45727 0.00393 0.0
C934 C 0.67816 0.44657 0.9965 0.0
C935 C 0.70357 0.42123 0.0107 0.0
C936 C 0.71901 0.43731 0.0107 0.0
C937 C 0.68283 0.4258 0.00351 0.0
H938 H 0.69055 0.47817 0.99148 0.0
H939 H 0.73502 0.43386 0.01606 0.0
O940 O 0.76979 0.52007 0.00359 0.0
O941 O 0.73115 0.50159 0.02769 0.0
O942 O 0.73281 0.49794 0.97843 0.0
O943 O 0.76439 0.47101 0.00499 0.0
H944 H 0.77801 0.54253 0.0385 0.0
H945 H 0.768 0.54645 0.97062 0.0
H946 H 0.78295 0.58178 0.03941 0.0
H947 H 0.77293 0.58568 0.97275 0.0
H948 H 0.69176 0.45606 0.0682 0.0
H949 H 0.69324 0.51898 0.02077 0.0
H950 H 0.72639 0.46849 0.05357 0.0
H951 H 0.65922 0.50566 0.03598 0.0
H952 H 0.71233 0.58785 0.02896 0.0
H953 H 0.68821 0.56913 0.96694 0.0
H954 H 0.82991 0.50764 0.06105 0.0
H955 H 0.77669 0.49187 0.10212 0.0
H956 H 0.72196 0.46169 0.95951 0.0
H957 H 0.74343 0.52608 0.94874 0.0
H958 H 0.7221 0.45576 0.92037 0.0
H959 H 0.74337 0.51896 0.90978 0.0
H960 H 0.80508 0.47083 0.99351 0.0
H961 H 0.76032 0.4492 0.041 0.0
H962 H 0.83417 0.4534 0.01391 0.0
H963 H 0.79021 0.43212 0.06054 0.0
H964 H 0.82651 0.51836 0.94218 0.0
H965 H 0.79583 0.46033 0.92099 0.0
H966 H 0.66232 0.45084 0.99107 0.0
H967 H 0.7079 0.40535 0.01598 0.0
Li968 Li 0.5004 0.75537 0.01928 0.0
Li969 Li 0.48413 0.72636 -0.00099 0.0
Li970 Li 0.52204 0.7321 -0.00067 0.0
Li971 Li 0.49875 0.75743 0.98088 0.0
C972 C 0.51439 0.70711 0.03157 0.0
N973 N 0.53758 0.67222 0.04545 0.0
C974 C 0.50866 0.68652 0.02516 0.0
C975 C 0.53181 0.7099 0.04523 0.0
C976 C 0.52059 0.6691 0.03232 0.0
C977 C 0.54337 0.69208 0.052 0.0
C978 C 0.45588 0.75915 0.99019 0.0
C979 C 0.43331 0.75167 0.95992 0.0
N980 N 0.41792 0.7644 0.96842 0.0
C981 C 0.43985 0.77215 -0.00139 0.0
C982 C 0.45262 0.74882 0.97068 0.0
C983 C 0.42076 0.7746 0.98736 0.0
C984 C 0.48809 0.79198 0.04106 0.0
N985 N 0.49727 0.77255 0.04391 0.0
C986 C 0.50345 0.77993 0.08077 0.0
C987 C 0.50455 0.76613 0.06332 0.0
C988 C 0.49433 0.80023 0.0782 0.0
C989 C 0.48632 0.80612 0.05813 0.0
H990 H 0.48253 0.7966 0.02537 0.0
H991 H 0.51165 0.75053 0.06512 0.0
C992 C 0.46189 0.69018 0.98422 0.0
N993 N 0.46169 0.70632 -0.00132 0.0
C994 C 0.44558 0.67504 0.98415 0.0
C995 C 0.42906 0.69364 0.01368 0.0
C996 C 0.44574 0.70838 0.01322 0.0
C997 C 0.42892 0.67662 -0.00092 0.0
H998 H 0.47486 0.68898 0.97291 0.0
H999 H 0.44611 0.72142 0.02453 0.0
C1000 C 0.53347 0.77976 0.01025 0.0
N1001 N 0.55223 0.81268 0.0329 0.0
C1002 C 0.53338 0.80052 0.00207 0.0
C1003 C 0.54356 0.77571 0.02972 0.0
C1004 C 0.54284 0.81696 0.0138 0.0
C1005 C 0.5528 0.79256 0.04101 0.0
C1006 C 0.5154 0.72439 0.95589 0.0
C1007 C 0.53374 0.73683 0.95306 0.0
C1008 C 0.50956 0.7097 0.94014 0.0
C1009 C 0.54587 0.73437 0.93451 0.0
C1010 C 0.52211 0.70774 0.92181 0.0
N1011 N 0.53985 0.72001 0.9194 0.0
C1012 C 0.54788 0.69731 0.98893 0.0
C1013 C 0.56683 0.72552 0.0056 0.0
C1014 C 0.56636 0.68504 0.98778 0.0
N1015 N 0.54841 0.71709 -0.00218 0.0
C1016 C 0.58565 0.71362 0.00512 0.0
C1017 C 0.58548 0.69312 0.99612 0.0
H1018 H 0.53298 0.69096 0.98299 0.0
H1019 H 0.56689 0.74134 0.01237 0.0
C1020 C 0.48957 0.79731 0.96405 0.0
N1021 N 0.49421 0.77701 0.958 0.0
C1022 C 0.48728 0.81336 0.94879 0.0
C1023 C 0.49304 0.78703 0.92121 0.0
C1024 C 0.49523 0.7715 0.93703 0.0
C1025 C 0.48947 0.80837 0.92705 0.0
H1026 H 0.48802 0.80108 0.98083 0.0
H1027 H 0.49794 0.75517 0.93241 0.0
O1028 O 0.50327 0.72442 0.02419 0.0
O1029 O 0.47464 0.75668 0.00108 0.0
O1030 O 0.52397 0.76349 -0.00087 0.0
O1031 O 0.50332 0.72623 0.97402 0.0
H1032 H 0.49532 0.68399 0.01456 0.0
H1033 H 0.53659 0.72566 0.05032 0.0
H1034 H 0.5164 0.65311 0.02736 0.0
H1035 H 0.557 0.69405 0.06241 0.0
H1036 H 0.43057 0.74378 0.94482 0.0
H1037 H 0.44216 0.78027 0.01369 0.0
H1038 H 0.46482 0.73871 0.96387 0.0
H1039 H 0.40821 0.78462 0.9937 0.0
H1040 H 0.50967 0.77485 0.09608 0.0
H1041 H 0.47937 0.82174 0.05554 0.0
H1042 H 0.44595 0.66232 0.97246 0.0
H1043 H 0.41664 0.69532 0.02559 0.0
H1044 H 0.5263 0.80393 0.98674 0.0
H1045 H 0.54387 0.75977 0.03629 0.0
H1046 H 0.54278 0.83311 0.00768 0.0
H1047 H 0.56037 0.78965 0.05625 0.0
H1048 H 0.53862 0.74828 0.96497 0.0
H1049 H 0.49544 0.69995 0.94202 0.0
H1050 H 0.56007 0.7439 0.93213 0.0
H1051 H 0.51774 0.69646 0.9095 0.0
H1052 H 0.56559 0.66917 0.98096 0.0
H1053 H 0.60018 0.72036 0.01161 0.0
H1054 H 0.48397 0.82951 0.95398 0.0
H1055 H 0.49476 0.78245 0.90463 0.0
H1056 H 0.03362 0.31569 0.39753 0.0
H1057 H 0.96661 0.38823 0.31821 0.0
H1058 H 0.9661 0.3072 0.38669 0.0
H1059 H 0.03544 0.38493 0.31659 0.0
H1060 H 0.96615 0.35834 0.34305 0.0
H1061 H 0.03484 0.34072 0.36771 0.0
C1062 C 0.01909 0.31882 0.38872 0.0
C1063 C -0.00033 0.30942 0.3948 0.0
C1064 C 0.98136 0.36403 0.33712 0.0
C1065 C 0.00092 0.33845 0.36088 0.0
C1066 C 0.98164 0.38106 0.3228 0.0
C1067 C 0.00112 0.38925 0.3153 0.0
C1068 C 0.00067 0.35522 0.34423 0.0
C1069 C 0.02006 0.37947 0.32224 0.0
C1070 C 0.0198 0.33323 0.37175 0.0
C1071 C 0.98134 0.3144 0.38291 0.0
N1072 N 0.01937 0.3631 0.33645 0.0
N1073 N 0.98237 0.32871 0.36666 0.0
H1074 H 0.66751 0.96488 0.3957 0.0
H1075 H 0.60072 0.03059 0.30915 0.0
H1076 H 0.6667 0.03379 0.39311 0.0
H1077 H 0.58695 0.9653 0.32615 0.0
H1078 H 0.62926 0.03109 0.33592 0.0
H1079 H 0.64185 0.96393 0.36644 0.0
C1080 C 0.6619 0.97983 0.38907 0.0
C1081 C 0.66918 -0.00054 0.39708 0.0
C1082 C 0.62003 0.01664 0.33371 0.0
C1083 C 0.64011 -0.00159 0.36323 0.0
C1084 C 0.60388 0.01631 0.31838 0.0
C1085 C 0.59146 -0.0021 0.31557 0.0
C1086 C 0.62389 -0.00164 0.3461 0.0
C1087 C 0.59604 0.97988 0.32803 0.0
C1088 C 0.64734 0.97925 0.37227 0.0
C1089 C 0.66174 0.01827 0.38738 0.0
N1090 N 0.6119 0.98055 0.34276 0.0
N1091 N 0.64758 0.01728 0.37099 0.0
H1092 H 0.01813 0.56458 0.357 0.0
H1093 H 0.99492 0.68825 0.37948 0.0
H1094 H -0.00129 0.60912 0.30813 0.0
H1095 H 0.01237 0.64286 0.4283 0.0
H1096 H -0.00199 0.65999 0.35272 0.0
H1097 H 0.01757 0.59351 0.38305 0.0
C1098 C 0.01369 0.58044 0.35175 0.0
C1099 C 0.00834 0.5844 0.33036 0.0
C1100 C 0.00119 0.65623 0.36928 0.0
C1101 C 0.00784 0.61769 0.3601 0.0
C1102 C -0.00046 0.67238 0.38455 0.0
C1103 C 0.00326 0.66788 0.40618 0.0
C1104 C 0.00666 0.63545 0.37569 0.0
C1105 C 0.00899 0.64697 0.41186 0.0
C1106 C 0.01348 0.59699 0.36662 0.0
C1107 C 0.00313 0.60537 0.32441 0.0
N1108 N 0.01047 0.63155 0.39673 0.0
N1109 N 0.00292 0.62121 0.33922 0.0
H1110 H 0.3036 0.98374 0.38054 0.0
H1111 H 0.42644 0.99288 0.35065 0.0
H1112 H 0.35149 0.00482 0.42547 0.0
H1113 H 0.37694 -0.00038 0.30333 0.0
H1114 H 0.39919 0.99254 0.37864 0.0
H1115 H 0.3303 0.98529 0.35213 0.0
C1116 C 0.31963 0.98882 0.38448 0.0
C1117 C 0.32523 0.99408 0.40557 0.0
C1118 C 0.39429 0.99414 0.36214 0.0
C1119 C 0.35592 0.99538 0.37314 0.0
C1120 C 0.40979 0.99421 0.3462 0.0
C1121 C 0.40385 0.99624 0.32473 0.0
C1122 C 0.37268 0.99577 0.35653 0.0
C1123 C 0.38211 -0.00187 0.31975 0.0
C1124 C 0.33487 0.9896 0.36824 0.0
C1125 C 0.34644 0.00015 0.40964 0.0
N1126 N 0.36724 -0.00231 0.33556 0.0
N1127 N 0.36101 0.0005 0.39361 0.0
H1128 H 0.98157 0.56978 0.64164 0.0
H1129 H 0.98498 0.69374 0.61578 0.0
H1130 H 0.97487 0.61745 0.69081 0.0
H1131 H 0.97082 0.6456 0.56853 0.0
H1132 H 0.98197 0.66655 0.64368 0.0
H1133 H 0.97877 0.5977 0.61459 0.0
C1134 C 0.97945 0.58619 0.64669 0.0
C1135 C 0.9786 0.59143 0.66841 0.0
C1136 C 0.97936 0.66203 0.6272 0.0
C1137 C 0.97547 0.62346 0.63762 0.0
C1138 C 0.981 0.67754 0.61126 0.0
C1139 C 0.97843 0.67192 0.5897 0.0
C1140 C 0.97531 0.64074 0.62152 0.0
C1141 C 0.9735 0.6506 0.58484 0.0
C1142 C 0.97774 0.60209 0.63128 0.0
C1143 C 0.97557 0.61284 0.67417 0.0
N1144 N 0.9723 0.63579 0.60059 0.0
N1145 N 0.97435 0.62817 0.65884 0.0
H1146 H 0.38552 0.97786 0.68939 0.0
H1147 H 0.33897 0.03083 0.58289 0.0
H1148 H 0.4164 0.02944 0.65573 0.0
H1149 H 0.31369 0.97323 0.61107 0.0
H1150 H 0.36557 0.03255 0.61127 0.0
H1151 H 0.35695 0.97819 0.66286 0.0
C1152 C 0.38617 0.9894 0.67652 0.0
C1153 C 0.40339 0.00361 0.67472 0.0
C1154 C 0.35418 0.01956 0.61127 0.0
C1155 C 0.37087 0.00393 0.6442 0.0
C1156 C 0.33904 0.0185 0.595 0.0
C1157 C 0.32415 0.00177 0.59448 0.0
C1158 C 0.35442 0.00381 0.62721 0.0
C1159 C 0.32472 0.98652 0.61091 0.0
C1160 C 0.36994 0.98948 0.66131 0.0
C1161 C 0.40357 0.01802 0.65756 0.0
N1162 N 0.33965 0.98788 0.62656 0.0
N1163 N 0.38756 0.0178 0.64295 0.0
H1164 H 0.02148 0.31057 0.60687 0.0
H1165 H 0.97074 0.42078 0.64631 0.0
H1166 H 0.9699 0.34285 0.57454 0.0
H1167 H 0.01572 0.38452 0.68378 0.0
H1168 H 0.97088 0.39257 0.61947 0.0
H1169 H 0.0201 0.33754 0.63504 0.0
C1170 C 0.00978 0.32324 0.60575 0.0
C1171 C 0.99585 0.32449 0.58824 0.0
C1172 C 0.98068 0.39072 0.63358 0.0
C1173 C 0.99436 0.35552 0.62029 0.0
C1174 C 0.98069 0.40687 0.64885 0.0
C1175 C 0.99333 0.40502 0.66722 0.0
C1176 C 0.99352 0.3726 0.63662 0.0
C1177 C 0.00564 0.3865 0.66989 0.0
C1178 C 0.00906 0.33867 0.6218 0.0
C1179 C 0.98121 0.34144 0.58751 0.0
N1180 N 0.00553 0.37104 0.65467 0.0
N1181 N 0.9809 0.35629 0.60326 0.0
H1182 H 0.57033 0.96585 0.64554 0.0
H1183 H 0.68929 -0.00184 0.612 0.0
H1184 H 0.614 -0.00102 0.68725 0.0
H1185 H 0.64421 0.96821 0.56942 0.0
H1186 H 0.66303 0.99585 0.64078 0.0
H1187 H 0.59817 0.96419 0.61834 0.0
C1188 C 0.58577 0.97281 0.64897 0.0
C1189 C 0.58978 0.98273 0.66865 0.0
C1190 C 0.65892 0.9897 0.62516 0.0
C1191 C 0.62182 0.98071 0.63763 0.0
C1192 C 0.67395 0.99089 0.60876 0.0
C1193 C 0.66888 0.98349 0.58823 0.0
C1194 C 0.63867 0.98101 0.62102 0.0
C1195 C 0.64866 0.97444 0.5849 0.0
C1196 C 0.60171 0.97175 0.63347 0.0
C1197 C 0.61024 0.99105 0.67237 0.0
N1198 N 0.63429 0.97353 0.60109 0.0
N1199 N 0.62546 0.98996 0.65696 0.0
H1200 H 0.38833 0.31665 0.95489 0.0
H1201 H 0.31616 0.39463 0.02471 0.0
H1202 H 0.38841 0.31693 0.02382 0.0
H1203 H 0.3089 0.38707 0.95658 0.0
H1204 H 0.34147 0.36508 0.02488 0.0
H1205 H 0.3582 0.34129 0.95524 0.0
C1206 C 0.38186 0.32166 0.97011 0.0
C1207 C 0.39107 0.31481 0.98936 0.0
C1208 C 0.33421 0.36977 0.00991 0.0
C1209 C 0.35674 0.34335 0.98986 0.0
C1210 C 0.31962 0.38658 0.00982 0.0
C1211 C 0.31047 0.39349 0.99057 0.0
C1212 C 0.33982 0.35986 0.99061 0.0
C1213 C 0.31588 0.38259 0.97174 0.0
C1214 C 0.3647 0.33584 0.9703 0.0
C1215 C 0.38214 0.32212 0.00859 0.0
N1216 N 0.33032 0.36644 0.97221 0.0
N1217 N 0.36558 0.3361 0.00834 0.0
H1218 H 0.35671 0.55904 0.99598 0.0
H1219 H 0.386 0.68313 0.00455 0.0
H1220 H 0.30959 0.60892 0.00203 0.0
H1221 H 0.43254 0.6333 0.99484 0.0
H1222 H 0.35785 0.65612 0.00526 0.0
H1223 H 0.38479 0.586 -0.00309 0.0
C1224 C 0.35227 0.57568 -0.00258 0.0
C1225 C 0.33075 0.58174 -0.0012 0.0
C1226 C 0.37422 0.6511 0.00298 0.0
C1227 C 0.36286 0.61271 9e-05 0.0
C1228 C 0.3903 0.6665 0.00268 0.0
C1229 C 0.41165 0.66046 -0.00043 0.0
C1230 C 0.37952 0.62949 0.00023 0.0
C1231 C 0.41627 0.6387 -0.00304 0.0
C1232 C 0.36832 0.59106 -0.00194 0.0
C1233 C 0.32597 0.60351 0.0011 0.0
N1234 N 0.40035 0.62402 -0.00264 0.0
N1235 N 0.34189 0.61821 0.0016 0.0
H1236 H 0.57708 0.34431 0.96882 0.0
H1237 H 0.67441 0.39541 0.03392 0.0
H1238 H 0.59572 0.32337 0.03177 0.0
H1239 H 0.65327 0.41795 0.97234 0.0
H1240 H 0.64647 0.36815 0.03308 0.0
H1241 H 0.60544 0.37092 0.96965 0.0
C1242 C 0.58705 0.3454 0.98289 0.0
C1243 C 0.58393 0.33163 0.0003 0.0
C1244 C 0.64796 0.37906 0.01975 0.0
C1245 C 0.6167 0.36194 0.00124 0.0
C1246 C 0.66397 0.39454 0.02017 0.0
C1247 C 0.66615 0.40901 0.00319 0.0
C1248 C 0.63405 0.37799 0.0022 0.0
C1249 C 0.652 0.40733 0.98591 0.0
C1250 C 0.60335 0.36052 0.9833 0.0
C1251 C 0.59767 0.3335 0.01791 0.0
N1252 N 0.63658 0.39211 0.98586 0.0
N1253 N 0.61343 0.3484 0.01794 0.0
H1254 H 0.68766 0.60637 0.96321 0.0
H1255 H 0.61188 0.68441 0.02961 0.0
H1256 H 0.67746 0.60048 0.0312 0.0
H1257 H 0.60287 0.67136 0.96263 0.0
H1258 H 0.64206 0.65951 0.02999 0.0
H1259 H 0.66221 0.6359 0.96247 0.0
C1260 C 0.68015 0.61124 0.97799 0.0
C1261 C 0.68462 0.60067 -0.00273 0.0
C1262 C 0.63357 0.66226 0.01519 0.0
C1263 C 0.6559 0.63481 0.99652 0.0
C1264 C 0.61649 0.67652 0.01494 0.0
C1265 C 0.60489 0.67977 0.99609 0.0
C1266 C 0.6392 0.65143 0.99639 0.0
C1267 C 0.61133 0.66906 0.97752 0.0
C1268 C 0.66573 0.62819 0.97754 0.0
C1269 C 0.67478 0.60819 0.01598 0.0
N1270 N 0.62808 0.65532 0.97813 0.0
N1271 N 0.66084 0.62475 0.01512 0.0
H1272 H 0.47065 0.80744 0.88745 0.0
H1273 H 0.51291 0.92361 0.85504 0.0
H1274 H 0.50741 0.84809 0.92917 0.0
H1275 H 0.47599 0.88359 0.81285 0.0
H1276 H 0.51038 0.89625 0.88261 0.0
H1277 H 0.47182 0.83524 0.86005 0.0
C1278 C 0.47897 0.8222 0.89085 0.0
C1279 C 0.48896 0.82543 0.91064 0.0
C1280 C 0.50281 0.89343 0.86733 0.0
C1281 C 0.49029 0.85733 0.87942 0.0
C1282 C 0.50416 0.9091 0.85161 0.0
C1283 C 0.4946 0.90591 0.83161 0.0
C1284 C 0.49181 0.87437 0.86308 0.0
C1285 C 0.4838 0.88662 0.82795 0.0
C1286 C 0.47956 0.83809 0.87524 0.0
C1287 C 0.49925 0.84499 0.91427 0.0
N1288 N 0.48268 0.87158 0.84355 0.0
N1289 N 0.4997 0.86015 0.8988 0.0
H1290 H 0.16956 0.53665 0.89185 0.0
H1291 H 0.09517 0.46781 0.81609 0.0
H1292 H 0.17621 0.46842 0.88454 0.0
H1293 H 0.10212 0.53608 0.80925 0.0
H1294 H 0.12459 0.46775 0.84143 0.0
H1295 H 0.14464 0.53698 0.86192 0.0
C1296 C 0.16602 0.52177 0.88382 0.0
C1297 C 0.17491 0.50244 0.8909 0.0
C1298 C 0.11981 0.48272 0.83424 0.0
C1299 C 0.14603 0.5027 0.85687 0.0
C1300 C 0.10305 0.48277 0.81962 0.0
C1301 C 0.09602 0.502 0.81049 0.0
C1302 C 0.12949 0.50206 0.84003 0.0
C1303 C 0.10667 0.52092 0.81616 0.0
C1304 C 0.1517 0.52197 0.86678 0.0
C1305 C 0.16941 0.48363 0.88 0.0
N1306 N 0.12275 0.52049 0.8307 0.0
N1307 N 0.1552 0.48421 0.86367 0.0
H1308 H 0.50739 0.11792 0.79738 0.0
H1309 H 0.52602 0.14874 0.91998 0.0
H1310 H 0.51967 0.07241 0.84759 0.0
H1311 H 0.50292 0.1936 0.87307 0.0
H1312 H 0.52885 0.12168 0.8922 0.0
H1313 H 0.51073 0.14694 0.8235 0.0
C1314 C 0.51099 0.11408 0.81385 0.0
C1315 C 0.51301 0.09277 0.82044 0.0
C1316 C 0.52325 0.13746 0.88793 0.0
C1317 C 0.51684 0.1257 0.85026 0.0
C1318 C 0.52155 0.1529 0.90381 0.0
C1319 C 0.51391 0.17336 0.8989 0.0
C1320 C 0.51725 0.14245 0.86692 0.0
C1321 C 0.5089 0.17802 0.87755 0.0
C1322 C 0.5128 0.1306 0.82874 0.0
C1323 C 0.51761 0.08861 0.84194 0.0
N1324 N 0.51047 0.16261 0.86235 0.0
N1325 N 0.5193 0.10491 0.85608 0.0
H1326 H 0.92968 0.48154 0.85586 0.0
H1327 H 0.80605 0.48132 0.88682 0.0
H1328 H 0.87961 0.49296 0.80986 0.0
H1329 H 0.85643 0.49259 0.93234 0.0
H1330 H 0.8328 0.47966 0.85826 0.0
H1331 H 0.90285 0.47995 0.88403 0.0
C1332 C 0.91308 0.4838 0.85164 0.0
C1333 C 0.90698 0.48762 0.83041 0.0
C1334 C 0.83796 0.48245 0.87451 0.0
C1335 C 0.87614 0.48533 0.86262 0.0
C1336 C 0.82276 0.48327 0.89079 0.0
C1337 C 0.82909 0.48722 0.91189 0.0
C1338 C 0.85962 0.48529 0.87948 0.0
C1339 C 0.8509 0.48978 0.91621 0.0
C1340 C 0.89777 0.48276 0.86775 0.0
C1341 C 0.88511 0.4898 0.82592 0.0
N1342 N 0.8654 0.48873 0.90015 0.0
N1343 N 0.87049 0.48865 0.8419 0.0
H1344 H 0.52476 0.10276 0.1734 0.0
H1345 H 0.45715 0.17232 0.09069 0.0
H1346 H 0.45904 0.08956 0.15782 0.0
H1347 H 0.52606 0.17059 0.09063 0.0
H1348 H 0.45693 0.14572 0.11914 0.0
H1349 H 0.52481 0.13166 0.147 0.0
C1350 C 0.51031 0.10609 0.16453 0.0
C1351 C 0.49189 0.09377 0.1677 0.0
C1352 C 0.47209 0.15122 0.11291 0.0
C1353 C 0.49181 0.12668 0.13761 0.0
C1354 C 0.47225 0.16634 0.09658 0.0
C1355 C 0.49166 0.17363 0.08803 0.0
C1356 C 0.49146 0.14344 0.12096 0.0
C1357 C 0.5107 0.16566 0.0968 0.0
C1358 C 0.51038 0.12246 0.14941 0.0
C1359 C 0.47363 0.09857 0.15567 0.0
N1360 N 0.51012 0.15097 0.11276 0.0
N1361 N 0.47403 0.11469 0.14118 0.0
H1362 H 0.90637 0.53457 0.17076 0.0
H1363 H 0.80813 0.47236 0.11792 0.0
H1364 H 0.88693 0.4712 0.18964 0.0
H1365 H 0.83471 0.53079 0.09293 0.0
H1366 H 0.83362 0.47391 0.14752 0.0
H1367 H 0.877 0.53555 0.14522 0.0
C1368 C 0.89591 0.52086 0.16955 0.0
C1369 C 0.89927 0.50268 0.1822 0.0
C1370 C 0.83379 0.48644 0.13561 0.0
C1371 C 0.86548 0.50377 0.15311 0.0
C1372 C 0.81918 0.48562 0.1188 0.0
C1373 C 0.81947 0.50137 0.10288 0.0
C1374 C 0.84866 0.50319 0.13652 0.0
C1375 C 0.83421 0.51812 0.10469 0.0
C1376 C 0.87908 0.52147 0.15503 0.0
C1377 C 0.88488 0.4856 0.18031 0.0
N1378 N 0.84826 0.51855 0.12116 0.0
N1379 N 0.8687 0.4865 0.16591 0.0
H1380 H 0.5273 0.81196 0.10402 0.0
H1381 H 0.45858 0.89254 0.17457 0.0
H1382 H 0.46042 0.82347 0.09268 0.0
H1383 H 0.52643 0.89992 0.1646 0.0
H1384 H 0.45871 0.86254 0.14969 0.0
H1385 H 0.52686 0.83936 0.13197 0.0
C1386 C 0.51249 0.8201 0.10763 0.0
C1387 C 0.49388 0.81558 0.09607 0.0
C1388 C 0.47355 0.87073 0.15307 0.0
C1389 C 0.49325 0.84674 0.12786 0.0
C1390 C 0.4735 0.88796 0.16717 0.0
C1391 C 0.49251 0.89901 0.17165 0.0
C1392 C 0.49276 0.86426 0.14361 0.0
C1393 C 0.51142 0.89183 0.16195 0.0
C1394 C 0.51228 0.83578 0.12343 0.0
C1395 C 0.47512 0.82667 0.10116 0.0
N1396 N 0.51106 0.87492 0.1484 0.0
N1397 N 0.47526 0.84175 0.11674 0.0
H1398 H 0.17928 0.46745 0.09961 0.0
H1399 H 0.08716 0.53031 0.16197 0.0
H1400 H 0.15718 0.53024 0.08189 0.0
H1401 H 0.10383 0.46469 0.17465 0.0
H1402 H 0.11496 0.5317 0.13465 0.0
H1403 H 0.15389 0.46728 0.12923 0.0
C1404 C 0.16921 0.48127 0.10207 0.0
C1405 C 0.1703 0.49886 0.08823 0.0
C1406 C 0.11258 0.51701 0.14344 0.0
C1407 C 0.14109 0.49871 0.12198 0.0
C1408 C 0.09681 0.51625 0.15914 0.0
C1409 C 0.09314 0.49733 0.17056 0.0
C1410 C 0.12484 0.49874 0.13917 0.0
C1411 C 0.10594 0.47951 0.16603 0.0
C1412 C 0.15463 0.48111 0.1189 0.0
C1413 C 0.15667 0.51623 0.09201 0.0
N1414 N 0.1212 0.48065 0.15067 0.0
N1415 N 0.14263 0.51571 0.10851 0.0
H1416 H 0.80473 0.88493 0.50227 0.0
H1417 H 0.92614 0.85521 0.47634 0.0
H1418 H 0.84919 0.9283 0.47245 0.0
H1419 H 0.87978 0.80922 0.49824 0.0
H1420 H 0.89826 0.88243 0.47559 0.0
H1421 H 0.83216 0.85714 0.5018 0.0
C1422 C 0.82028 0.8886 0.49567 0.0
C1423 C 0.8247 0.90894 0.48739 0.0
C1424 C 0.89415 0.86637 0.48049 0.0
C1425 C 0.85609 0.87725 0.48672 0.0
C1426 C 0.91008 0.85086 0.48103 0.0
C1427 C 0.90527 0.82995 0.48743 0.0
C1428 C 0.87325 0.86098 0.48653 0.0
C1429 C 0.88413 0.82511 0.49304 0.0
C1430 C 0.83588 0.87272 0.49529 0.0
C1431 C 0.84502 0.91277 0.47878 0.0
N1432 N 0.86891 0.84055 0.49256 0.0
N1433 N 0.85998 0.8971 0.47875 0.0
H1434 H 0.89272 0.17275 0.53605 0.0
H1435 H 0.81508 0.10244 0.46583 0.0
H1436 H 0.88257 0.18404 0.46879 0.0
H1437 H 0.80902 0.10611 0.53429 0.0
H1438 H 0.83996 0.13246 0.46671 0.0
H1439 H 0.86198 0.14876 0.53622 0.0
C1440 C 0.88387 0.17047 0.52138 0.0
C1441 C 0.89046 0.18024 0.5023 0.0
C1442 C 0.83303 0.12689 0.48154 0.0
C1443 C 0.85554 0.15247 0.50235 0.0
C1444 C 0.81893 0.10973 0.48103 0.0
C1445 C 0.81019 0.1018 0.50003 0.0
C1446 C 0.83873 0.13593 0.50123 0.0
C1447 C 0.81546 0.11185 0.51931 0.0
C1448 C 0.86637 0.1567 0.52149 0.0
C1449 C 0.87845 0.17645 0.48376 0.0
N1450 N 0.82967 0.12826 0.51947 0.0
N1451 N 0.86175 0.16268 0.4842 0.0
H1452 H 0.07436 0.84286 0.52826 0.0
H1453 H 0.18327 0.88255 0.47831 0.0
H1454 H 0.11284 0.80211 0.48833 0.0
H1455 H 0.15847 0.9078 0.53752 0.0
H1456 H 0.15671 0.85407 0.47992 0.0
H1457 H 0.10382 0.86849 0.52988 0.0
C1458 C 0.08907 0.83933 0.51989 0.0
C1459 C 0.09124 0.82046 0.5081 0.0
C1460 C 0.15724 0.86579 0.49261 0.0
C1461 C 0.12482 0.84965 0.5097 0.0
C1462 C 0.17247 0.88203 0.49179 0.0
C1463 C 0.17308 0.89782 0.50771 0.0
C1464 C 0.1423 0.8655 0.50929 0.0
C1465 C 0.15833 0.89638 0.52457 0.0
C1466 C 0.10588 0.85386 0.5209 0.0
C1467 C 0.11064 0.81649 0.49766 0.0
N1468 N 0.14343 0.88066 0.52479 0.0
N1469 N 0.12665 0.8311 0.49849 0.0
H1470 H 0.10697 0.1817 0.47975 0.0
H1471 H 0.15064 0.07247 0.52919 0.0
H1472 H 0.07089 0.14263 0.52353 0.0
H1473 H 0.17942 0.10358 0.47479 0.0
H1474 H 0.12301 0.09987 0.5297 0.0
H1475 H 0.13563 0.15518 0.48034 0.0
C1476 C 0.10517 0.1676 0.48959 0.0
C1477 C 0.08654 0.16431 0.50158 0.0
C1478 C 0.13538 0.10069 0.51766 0.0
C1479 C 0.11915 0.13392 0.50227 0.0
C1480 C 0.15112 0.08499 0.51727 0.0
C1481 C 0.16736 0.0856 0.50183 0.0
C1482 C 0.1359 0.11726 0.50259 0.0
C1483 C 0.16738 0.10255 0.48713 0.0
C1484 C 0.12145 0.15242 0.48982 0.0
C1485 C 0.0849 0.14566 0.51387 0.0
N1486 N 0.15189 0.11769 0.48786 0.0
N1487 N 0.10102 0.13118 0.51393 0.0
loop_
_geom_bond_atom_site_label_1
_geom_bond_atom_site_label_2
_geom_bond_distance
_geom_bond_site_symmetry_2
_ccdc_geom_bond_type
Li0 N17 1.990 . S
Li0 O60 1.956 . S
Li0 O61 1.972 . S
Li0 O62 1.950 1_655 S
Li1 N25 1.991 . S
Li1 O60 1.955 1_455 S
Li1 O61 1.956 1_455 S
Li1 O63 1.976 . S
Li2 N47 1.991 . S
Li2 O60 1.967 . S
Li2 O62 1.956 1_655 S
Li2 O63 1.964 1_655 S
Li3 N53 1.990 . S
Li3 O61 1.959 1_455 S
Li3 O62 1.981 . S
Li3 O63 1.956 . S
C4 C6 1.348 . S
C4 C7 1.356 . S
C4 O60 1.325 . S
N5 C8 1.314 . S
N5 C9 1.279 . S
C6 C4 1.348 . S
C6 C8 1.353 . S
C6 H64 0.929 . S
C7 C4 1.356 . S
C7 C9 1.358 . S
C7 H65 0.930 . S
C8 N5 1.314 . S
C8 C6 1.353 . S
C8 H66 0.930 . S
C9 N5 1.279 . S
C9 C7 1.358 . S
C9 H67 0.930 . S
C10 C13 1.345 1_455 S
C10 C14 1.359 . S
C10 O61 1.325 1_455 S
C11 N12 1.279 . S
C11 C14 1.358 . S
C11 H68 0.930 . S
N12 C11 1.279 . S
N12 C15 1.314 1_455 S
C13 C10 1.345 1_655 S
C13 C15 1.353 . S
C13 H69 0.929 . S
C14 C10 1.359 . S
C14 C11 1.358 . S
C14 H70 0.930 . S
C15 N12 1.314 1_655 S
C15 C13 1.353 . S
C15 H71 0.930 . S
C16 N17 1.314 . S
C16 C21 1.353 . S
C16 H22 0.930 . S
N17 Li0 1.990 . S
N17 C16 1.314 . S
N17 C19 1.279 . S
C18 C19 1.358 . S
C18 C20 1.356 . S
C18 H72 0.930 . S
C19 N17 1.279 . S
C19 C18 1.358 . S
C19 H23 0.930 . S
C20 C18 1.356 . S
C20 C21 1.348 . S
C21 C16 1.353 . S
C21 C20 1.348 . S
C21 H73 0.929 . S
H22 C16 0.930 . S
H23 C19 0.930 . S
C24 N25 1.314 . S
C24 C26 1.353 . S
C24 H30 0.930 . S
N25 Li1 1.991 . S
N25 C24 1.314 . S
N25 C28 1.279 1_455 S
C26 C24 1.353 . S
C26 C29 1.346 . S
C26 H74 0.929 . S
C27 C28 1.358 . S
C27 C29 1.357 1_655 S
C27 H75 0.930 . S
C28 N25 1.279 1_655 S
C28 C27 1.358 . S
C28 H31 0.930 . S
C29 C26 1.346 . S
C29 C27 1.357 1_455 S
H30 C24 0.930 . S
H31 C28 0.930 . S
C32 C34 1.345 . S
C32 C35 1.359 1_455 S
C32 O62 1.325 . S
N33 C36 1.277 1_655 S
N33 C37 1.316 . S
C34 C32 1.345 . S
C34 C36 1.353 . S
C34 H76 0.929 . S
C35 C32 1.359 1_655 S
C35 C37 1.358 . S
C35 H77 0.930 . S
C36 N33 1.277 1_455 S
C36 C34 1.353 . S
C36 H78 0.930 . S
C37 N33 1.316 . S
C37 C35 1.358 . S
C37 H79 0.930 . S
C38 C39 1.348 . S
C38 C40 1.356 . S
C38 O63 1.325 . S
C39 C38 1.348 . S
C39 C41 1.353 . S
C39 H80 0.929 . S
C40 C38 1.356 . S
C40 C42 1.358 . S
C40 H81 0.930 . S
C41 C39 1.353 . S
C41 N43 1.314 . S
C41 H82 0.930 . S
C42 C40 1.358 . S
C42 N43 1.279 . S
C42 H83 0.930 . S
N43 C41 1.314 . S
N43 C42 1.279 . S
C44 C46 1.353 . S
C44 N47 1.314 . S
C44 H50 0.930 . S
C45 N47 1.279 1_455 S
C45 C48 1.358 . S
C45 H51 0.930 . S
C46 C44 1.353 . S
C46 C49 1.346 1_655 S
C46 H84 0.929 . S
N47 Li2 1.991 . S
N47 C44 1.314 . S
N47 C45 1.279 1_655 S
C48 C45 1.358 . S
C48 C49 1.357 . S
C48 H85 0.930 . S
C49 C46 1.346 1_455 S
C49 C48 1.357 . S
H50 C44 0.930 . S
H51 C45 0.930 . S
C52 N53 1.314 . S
C52 C54 1.353 . S
C52 H58 0.930 . S
N53 Li3 1.990 . S
N53 C52 1.314 . S
N53 C56 1.279 . S
C54 C52 1.353 . S
C54 C57 1.348 . S
C54 H86 0.929 . S
C55 C56 1.358 . S
C55 C57 1.356 . S
C55 H87 0.930 . S
C56 N53 1.279 . S
C56 C55 1.358 . S
C56 H59 0.930 . S
C57 C54 1.348 . S
C57 C55 1.356 . S
H58 C52 0.930 . S
H59 C56 0.930 . S
O60 Li0 1.956 . S
O60 Li1 1.955 1_655 S
O60 Li2 1.967 . S
O60 C4 1.325 . S
O61 Li0 1.972 . S
O61 Li1 1.956 1_655 S
O61 Li3 1.959 1_655 S
O61 C10 1.325 1_655 S
O62 Li0 1.950 1_455 S
O62 Li2 1.956 1_455 S
O62 Li3 1.981 . S
O62 C32 1.325 . S
O63 Li1 1.976 . S
O63 Li2 1.964 1_455 S
O63 Li3 1.956 . S
O63 C38 1.325 . S
H64 C6 0.929 . S
H65 C7 0.930 . S
H66 C8 0.930 . S
H67 C9 0.930 . S
H68 C11 0.930 . S
H69 C13 0.929 . S
H70 C14 0.930 . S
H71 C15 0.930 . S
H72 C18 0.930 . S
H73 C21 0.929 . S
H74 C26 0.929 . S
H75 C27 0.930 . S
H76 C34 0.929 . S
H77 C35 0.930 . S
H78 C36 0.930 . S
H79 C37 0.930 . S
H80 C39 0.929 . S
H81 C40 0.930 . S
H82 C41 0.930 . S
H83 C42 0.930 . S
H84 C46 0.929 . S
H85 C48 0.930 . S
H86 C54 0.929 . S
H87 C55 0.930 . S
Li88 N105 1.991 . S
Li88 O148 1.956 1_545 S
Li88 O149 1.955 1_545 S
Li88 O150 1.976 . S
Li89 N113 1.990 . S
Li89 O148 1.972 . S
Li89 O149 1.956 . S
Li89 O151 1.950 1_565 S
Li90 N135 1.990 . S
Li90 O148 1.959 1_545 S
Li90 O150 1.956 . S
Li90 O151 1.981 . S
Li91 N141 1.991 . S
Li91 O149 1.967 . S
Li91 O150 1.964 1_565 S
Li91 O151 1.956 1_565 S
C92 C94 1.345 1_545 S
C92 C95 1.359 . S
C92 O148 1.325 1_545 S
N93 C96 1.314 1_545 S
N93 C97 1.279 . S
C94 C92 1.345 1_565 S
C94 C96 1.353 . S
C94 H152 0.929 . S
C95 C92 1.359 . S
C95 C97 1.358 . S
C95 H153 0.930 . S
C96 N93 1.314 1_565 S
C96 C94 1.353 . S
C96 H154 0.930 . S
C97 N93 1.279 . S
C97 C95 1.358 . S
C97 H155 0.930 . S
C98 C101 1.348 . S
C98 C102 1.356 . S
C98 O149 1.325 . S
C99 N100 1.279 . S
C99 C102 1.358 . S
C99 H156 0.930 . S
N100 C99 1.279 . S
N100 C103 1.314 . S
C101 C98 1.348 . S
C101 C103 1.353 . S
C101 H157 0.929 . S
C102 C98 1.356 . S
C102 C99 1.358 . S
C102 H158 0.930 . S
C103 N100 1.314 . S
C103 C101 1.353 . S
C103 H159 0.930 . S
C104 N105 1.314 . S
C104 C109 1.353 . S
C104 H110 0.930 . S
N105 Li88 1.991 . S
N105 C104 1.314 . S
N105 C107 1.279 1_545 S
C106 C107 1.358 . S
C106 C108 1.357 1_565 S
C106 H160 0.930 . S
C107 N105 1.279 1_565 S
C107 C106 1.358 . S
C107 H111 0.930 . S
C108 C106 1.357 1_545 S
C108 C109 1.346 . S
C109 C104 1.353 . S
C109 C108 1.346 . S
C109 H161 0.929 . S
H110 C104 0.930 . S
H111 C107 0.930 . S
C112 N113 1.314 . S
C112 C114 1.353 . S
C112 H118 0.930 . S
N113 Li89 1.990 . S
N113 C112 1.314 . S
N113 C116 1.279 . S
C114 C112 1.353 . S
C114 C117 1.348 . S
C114 H162 0.929 . S
C115 C116 1.358 . S
C115 C117 1.356 . S
C115 H163 0.930 . S
C116 N113 1.279 . S
C116 C115 1.358 . S
C116 H119 0.930 . S
C117 C114 1.348 . S
C117 C115 1.356 . S
H118 C112 0.930 . S
H119 C116 0.930 . S
C120 C122 1.348 . S
C120 C123 1.356 . S
C120 O150 1.325 . S
N121 C124 1.314 . S
N121 C125 1.279 . S
C122 C120 1.348 . S
C122 C124 1.353 . S
C122 H164 0.929 . S
C123 C120 1.356 . S
C123 C125 1.358 . S
C123 H165 0.930 . S
C124 N121 1.314 . S
C124 C122 1.353 . S
C124 H166 0.930 . S
C125 N121 1.279 . S
C125 C123 1.358 . S
C125 H167 0.930 . S
C126 C127 1.345 . S
C126 C128 1.359 1_545 S
C126 O151 1.325 . S
C127 C126 1.345 . S
C127 C129 1.353 . S
C127 H168 0.929 . S
C128 C126 1.359 1_565 S
C128 C130 1.358 . S
C128 H169 0.930 . S
C129 C127 1.353 . S
C129 N131 1.277 1_545 S
C129 H170 0.930 . S
C130 C128 1.358 . S
C130 N131 1.316 . S
C130 H171 0.930 . S
N131 C129 1.277 1_565 S
N131 C130 1.316 . S
C132 C134 1.353 . S
C132 N135 1.314 . S
C132 H138 0.930 . S
C133 N135 1.279 . S
C133 C136 1.358 . S
C133 H139 0.930 . S
C134 C132 1.353 . S
C134 C137 1.348 . S
C134 H172 0.929 . S
N135 Li90 1.990 . S
N135 C132 1.314 . S
N135 C133 1.279 . S
C136 C133 1.358 . S
C136 C137 1.356 . S
C136 H173 0.930 . S
C137 C134 1.348 . S
C137 C136 1.356 . S
H138 C132 0.930 . S
H139 C133 0.930 . S
C140 N141 1.314 . S
C140 C142 1.353 . S
C140 H146 0.930 . S
N141 Li91 1.991 . S
N141 C140 1.314 . S
N141 C144 1.279 1_565 S
C142 C140 1.353 . S
C142 C145 1.346 1_565 S
C142 H174 0.929 . S
C143 C144 1.358 . S
C143 C145 1.357 . S
C143 H175 0.930 . S
C144 N141 1.279 1_545 S
C144 C143 1.358 . S
C144 H147 0.930 . S
C145 C142 1.346 1_545 S
C145 C143 1.357 . S
H146 C140 0.930 . S
H147 C144 0.930 . S
O148 Li88 1.956 1_565 S
O148 Li89 1.972 . S
O148 Li90 1.959 1_565 S
O148 C92 1.325 1_565 S
O149 Li88 1.955 1_565 S
O149 Li89 1.956 . S
O149 Li91 1.967 . S
O149 C98 1.325 . S
O150 Li88 1.976 . S
O150 Li90 1.956 . S
O150 Li91 1.964 1_545 S
O150 C120 1.325 . S
O151 Li89 1.950 1_545 S
O151 Li90 1.981 . S
O151 Li91 1.956 1_545 S
O151 C126 1.325 . S
H152 C94 0.929 . S
H153 C95 0.930 . S
H154 C96 0.930 . S
H155 C97 0.930 . S
H156 C99 0.930 . S
H157 C101 0.929 . S
H158 C102 0.930 . S
H159 C103 0.930 . S
H160 C106 0.930 . S
H161 C109 0.929 . S
H162 C114 0.929 . S
H163 C115 0.930 . S
H164 C122 0.929 . S
H165 C123 0.930 . S
H166 C124 0.930 . S
H167 C125 0.930 . S
H168 C127 0.929 . S
H169 C128 0.930 . S
H170 C129 0.930 . S
H171 C130 0.930 . S
H172 C134 0.929 . S
H173 C136 0.930 . S
H174 C142 0.929 . S
H175 C143 0.930 . S
Li176 N193 1.990 . S
Li176 O236 1.956 . S
Li176 O237 1.981 . S
Li176 O238 1.959 1_455 S
Li177 N201 1.991 . S
Li177 O236 1.964 1_655 S
Li177 O237 1.956 1_655 S
Li177 O239 1.967 . S
Li178 N223 1.991 . S
Li178 O236 1.976 . S
Li178 O238 1.956 1_455 S
Li178 O239 1.955 1_455 S
Li179 N229 1.990 . S
Li179 O237 1.950 1_655 S
Li179 O238 1.973 . S
Li179 O239 1.956 . S
C180 C182 1.348 . S
C180 C183 1.356 . S
C180 O236 1.325 . S
N181 C184 1.314 . S
N181 C185 1.279 . S
C182 C180 1.348 . S
C182 C184 1.353 . S
C182 H240 0.929 . S
C183 C180 1.356 . S
C183 C185 1.358 . S
C183 H241 0.930 . S
C184 N181 1.314 . S
C184 C182 1.353 . S
C184 H242 0.930 . S
C185 N181 1.279 . S
C185 C183 1.358 . S
C185 H243 0.930 . S
C186 C189 1.345 . S
C186 C190 1.359 1_455 S
C186 O237 1.325 . S
C187 N188 1.316 . S
C187 C190 1.358 . S
C187 H244 0.930 . S
N188 C187 1.316 . S
N188 C191 1.277 1_655 S
C189 C186 1.345 . S
C189 C191 1.353 . S
C189 H245 0.929 . S
C190 C186 1.359 1_655 S
C190 C187 1.358 . S
C190 H246 0.930 . S
C191 N188 1.277 1_455 S
C191 C189 1.353 . S
C191 H247 0.930 . S
C192 N193 1.314 . S
C192 C197 1.353 . S
C192 H198 0.930 . S
N193 Li176 1.990 . S
N193 C192 1.314 . S
N193 C195 1.279 . S
C194 C195 1.358 . S
C194 C196 1.356 . S
C194 H248 0.930 . S
C195 N193 1.279 . S
C195 C194 1.358 . S
C195 H199 0.930 . S
C196 C194 1.356 . S
C196 C197 1.348 . S
C197 C192 1.353 . S
C197 C196 1.348 . S
C197 H249 0.929 . S
H198 C192 0.930 . S
H199 C195 0.930 . S
C200 N201 1.314 . S
C200 C202 1.353 . S
C200 H206 0.930 . S
N201 Li177 1.991 . S
N201 C200 1.314 . S
N201 C204 1.279 1_655 S
C202 C200 1.353 . S
C202 C205 1.346 1_655 S
C202 H250 0.929 . S
C203 C204 1.358 . S
C203 C205 1.357 . S
C203 H251 0.930 . S
C204 N201 1.279 1_455 S
C204 C203 1.358 . S
C204 H207 0.930 . S
C205 C202 1.346 1_455 S
C205 C203 1.357 . S
H206 C200 0.930 . S
H207 C204 0.930 . S
C208 C210 1.345 1_455 S
C208 C211 1.359 . S
C208 O238 1.325 1_455 S
N209 C212 1.314 1_455 S
N209 C213 1.279 . S
C210 C208 1.345 1_655 S
C210 C212 1.353 . S
C210 H252 0.929 . S
C211 C208 1.359 . S
C211 C213 1.358 . S
C211 H253 0.930 . S
C212 N209 1.314 1_655 S
C212 C210 1.353 . S
C212 H254 0.930 . S
C213 N209 1.279 . S
C213 C211 1.358 . S
C213 H255 0.930 . S
C214 C215 1.348 . S
C214 C216 1.356 . S
C214 O239 1.325 . S
C215 C214 1.348 . S
C215 C217 1.353 . S
C215 H256 0.929 . S
C216 C214 1.356 . S
C216 C218 1.358 . S
C216 H257 0.930 . S
C217 C215 1.353 . S
C217 N219 1.314 . S
C217 H258 0.930 . S
C218 C216 1.358 . S
C218 N219 1.279 . S
C218 H259 0.930 . S
N219 C217 1.314 . S
N219 C218 1.279 . S
C220 C222 1.353 . S
C220 N223 1.314 . S
C220 H226 0.930 . S
C221 N223 1.279 1_655 S
C221 C224 1.358 . S
C221 H227 0.930 . S
C222 C220 1.353 . S
C222 C225 1.346 . S
C222 H260 0.929 . S
N223 Li178 1.991 . S
N223 C220 1.314 . S
N223 C221 1.279 1_455 S
C224 C221 1.358 . S
C224 C225 1.357 1_655 S
C224 H261 0.930 . S
C225 C222 1.346 . S
C225 C224 1.357 1_455 S
H226 C220 0.930 . S
H227 C221 0.930 . S
C228 N229 1.314 . S
C228 C230 1.353 . S
C228 H234 0.930 . S
N229 Li179 1.990 . S
N229 C228 1.314 . S
N229 C232 1.279 . S
C230 C228 1.353 . S
C230 C233 1.348 . S
C230 H262 0.929 . S
C231 C232 1.358 . S
C231 C233 1.356 . S
C231 H263 0.930 . S
C232 N229 1.279 . S
C232 C231 1.358 . S
C232 H235 0.930 . S
C233 C230 1.348 . S
C233 C231 1.356 . S
H234 C228 0.930 . S
H235 C232 0.930 . S
O236 Li176 1.956 . S
O236 Li177 1.964 1_455 S
O236 Li178 1.976 . S
O236 C180 1.325 . S
O237 Li176 1.981 . S
O237 Li177 1.956 1_455 S
O237 Li179 1.950 1_455 S
O237 C186 1.325 . S
O238 Li176 1.959 1_655 S
O238 Li178 1.956 1_655 S
O238 Li179 1.973 . S
O238 C208 1.325 1_655 S
O239 Li177 1.967 . S
O239 Li178 1.955 1_655 S
O239 Li179 1.956 . S
O239 C214 1.325 . S
H240 C182 0.929 . S
H241 C183 0.930 . S
H242 C184 0.930 . S
H243 C185 0.930 . S
H244 C187 0.930 . S
H245 C189 0.929 . S
H246 C190 0.930 . S
H247 C191 0.930 . S
H248 C194 0.930 . S
H249 C197 0.929 . S
H250 C202 0.929 . S
H251 C203 0.930 . S
H252 C210 0.929 . S
H253 C211 0.930 . S
H254 C212 0.930 . S
H255 C213 0.930 . S
H256 C215 0.929 . S
H257 C216 0.930 . S
H258 C217 0.930 . S
H259 C218 0.930 . S
H260 C222 0.929 . S
H261 C224 0.930 . S
H262 C230 0.929 . S
H263 C231 0.930 . S
Li264 N281 1.990 . S
Li264 O324 1.956 . S
Li264 O325 1.981 . S
Li264 O326 1.959 1_545 S
Li265 N289 1.991 . S
Li265 O324 1.964 1_565 S
Li265 O325 1.956 1_565 S
Li265 O327 1.967 . S
Li266 N311 1.991 . S
Li266 O324 1.976 . S
Li266 O326 1.956 1_545 S
Li266 O327 1.955 1_545 S
Li267 N317 1.990 . S
Li267 O325 1.950 1_565 S
Li267 O326 1.973 . S
Li267 O327 1.956 . S
C268 C270 1.348 . S
C268 C271 1.356 . S
C268 O324 1.325 . S
N269 C272 1.314 . S
N269 C273 1.279 . S
C270 C268 1.348 . S
C270 C272 1.353 . S
C270 H328 0.929 . S
C271 C268 1.356 . S
C271 C273 1.358 . S
C271 H329 0.930 . S
C272 N269 1.314 . S
C272 C270 1.353 . S
C272 H330 0.930 . S
C273 N269 1.279 . S
C273 C271 1.358 . S
C273 H331 0.930 . S
C274 C277 1.345 . S
C274 C278 1.359 1_545 S
C274 O325 1.325 . S
C275 N276 1.316 . S
C275 C278 1.358 . S
C275 H332 0.930 . S
N276 C275 1.316 . S
N276 C279 1.277 1_565 S
C277 C274 1.345 . S
C277 C279 1.353 . S
C277 H333 0.929 . S
C278 C274 1.359 1_565 S
C278 C275 1.358 . S
C278 H334 0.930 . S
C279 N276 1.277 1_545 S
C279 C277 1.353 . S
C279 H335 0.930 . S
C280 N281 1.314 . S
C280 C285 1.353 . S
C280 H286 0.930 . S
N281 Li264 1.990 . S
N281 C280 1.314 . S
N281 C283 1.279 . S
C282 C283 1.358 . S
C282 C284 1.356 . S
C282 H336 0.930 . S
C283 N281 1.279 . S
C283 C282 1.358 . S
C283 H287 0.930 . S
C284 C282 1.356 . S
C284 C285 1.348 . S
C285 C280 1.353 . S
C285 C284 1.348 . S
C285 H337 0.929 . S
H286 C280 0.930 . S
H287 C283 0.930 . S
C288 N289 1.314 . S
C288 C290 1.353 . S
C288 H294 0.930 . S
N289 Li265 1.991 . S
N289 C288 1.314 . S
N289 C292 1.279 1_565 S
C290 C288 1.353 . S
C290 C293 1.346 1_565 S
C290 H338 0.929 . S
C291 C292 1.358 . S
C291 C293 1.357 . S
C291 H339 0.930 . S
C292 N289 1.279 1_545 S
C292 C291 1.358 . S
C292 H295 0.930 . S
C293 C290 1.346 1_545 S
C293 C291 1.357 . S
H294 C288 0.930 . S
H295 C292 0.930 . S
C296 C298 1.345 1_545 S
C296 C299 1.359 . S
C296 O326 1.325 1_545 S
N297 C300 1.314 1_545 S
N297 C301 1.279 . S
C298 C296 1.345 1_565 S
C298 C300 1.353 . S
C298 H340 0.929 . S
C299 C296 1.359 . S
C299 C301 1.358 . S
C299 H341 0.930 . S
C300 N297 1.314 1_565 S
C300 C298 1.353 . S
C300 H342 0.930 . S
C301 N297 1.279 . S
C301 C299 1.358 . S
C301 H343 0.930 . S
C302 C303 1.348 . S
C302 C304 1.356 . S
C302 O327 1.325 . S
C303 C302 1.348 . S
C303 C305 1.353 . S
C303 H344 0.929 . S
C304 C302 1.356 . S
C304 C306 1.358 . S
C304 H345 0.930 . S
C305 C303 1.353 . S
C305 N307 1.314 . S
C305 H346 0.930 . S
C306 C304 1.358 . S
C306 N307 1.279 . S
C306 H347 0.930 . S
N307 C305 1.314 . S
N307 C306 1.279 . S
C308 C310 1.353 . S
C308 N311 1.314 . S
C308 H314 0.930 . S
C309 N311 1.279 1_565 S
C309 C312 1.358 . S
C309 H315 0.930 . S
C310 C308 1.353 . S
C310 C313 1.346 . S
C310 H348 0.929 . S
N311 Li266 1.991 . S
N311 C308 1.314 . S
N311 C309 1.279 1_545 S
C312 C309 1.358 . S
C312 C313 1.357 1_565 S
C312 H349 0.930 . S
C313 C310 1.346 . S
C313 C312 1.357 1_545 S
H314 C308 0.930 . S
H315 C309 0.930 . S
C316 N317 1.314 . S
C316 C318 1.353 . S
C316 H322 0.930 . S
N317 Li267 1.990 . S
N317 C316 1.314 . S
N317 C320 1.279 . S
C318 C316 1.353 . S
C318 C321 1.348 . S
C318 H350 0.929 . S
C319 C320 1.358 . S
C319 C321 1.356 . S
C319 H351 0.930 . S
C320 N317 1.279 . S
C320 C319 1.358 . S
C320 H323 0.930 . S
C321 C318 1.348 . S
C321 C319 1.356 . S
H322 C316 0.930 . S
H323 C320 0.930 . S
O324 Li264 1.956 . S
O324 Li265 1.964 1_545 S
O324 Li266 1.976 . S
O324 C268 1.325 . S
O325 Li264 1.981 . S
O325 Li265 1.956 1_545 S
O325 Li267 1.950 1_545 S
O325 C274 1.325 . S
O326 Li264 1.959 1_565 S
O326 Li266 1.956 1_565 S
O326 Li267 1.973 . S
O326 C296 1.325 1_565 S
O327 Li265 1.967 . S
O327 Li266 1.955 1_565 S
O327 Li267 1.956 . S
O327 C302 1.325 . S
H328 C270 0.929 . S
H329 C271 0.930 . S
H330 C272 0.930 . S
H331 C273 0.930 . S
H332 C275 0.930 . S
H333 C277 0.929 . S
H334 C278 0.930 . S
H335 C279 0.930 . S
H336 C282 0.930 . S
H337 C285 0.929 . S
H338 C290 0.929 . S
H339 C291 0.930 . S
H340 C298 0.929 . S
H341 C299 0.930 . S
H342 C300 0.930 . S
H343 C301 0.930 . S
H344 C303 0.929 . S
H345 C304 0.930 . S
H346 C305 0.930 . S
H347 C306 0.930 . S
H348 C310 0.929 . S
H349 C312 0.930 . S
H350 C318 0.929 . S
H351 C319 0.930 . S
Li352 N369 1.990 . S
Li352 O412 1.956 . S
Li352 O413 1.981 . S
Li352 O414 1.959 1_545 S
Li353 N377 1.991 . S
Li353 O412 1.964 1_565 S
Li353 O413 1.956 1_565 S
Li353 O415 1.967 . S
Li354 N399 1.991 . S
Li354 O412 1.976 . S
Li354 O414 1.956 1_545 S
Li354 O415 1.955 1_545 S
Li355 N405 1.990 . S
Li355 O413 1.950 1_565 S
Li355 O414 1.973 . S
Li355 O415 1.956 . S
C356 C358 1.348 . S
C356 C359 1.356 . S
C356 O412 1.325 . S
N357 C360 1.314 . S
N357 C361 1.279 . S
C358 C356 1.348 . S
C358 C360 1.353 . S
C358 H416 0.929 . S
C359 C356 1.356 . S
C359 C361 1.358 . S
C359 H417 0.930 . S
C360 N357 1.314 . S
C360 C358 1.353 . S
C360 H418 0.930 . S
C361 N357 1.279 . S
C361 C359 1.358 . S
C361 H419 0.930 . S
C362 C365 1.345 . S
C362 C366 1.359 1_545 S
C362 O413 1.325 . S
C363 N364 1.317 . S
C363 C366 1.358 . S
C363 H420 0.930 . S
N364 C363 1.317 . S
N364 C367 1.277 1_565 S
C365 C362 1.345 . S
C365 C367 1.353 . S
C365 H421 0.929 . S
C366 C362 1.359 1_565 S
C366 C363 1.358 . S
C366 H422 0.930 . S
C367 N364 1.277 1_545 S
C367 C365 1.353 . S
C367 H423 0.930 . S
C368 N369 1.314 . S
C368 C373 1.353 . S
C368 H374 0.930 . S
N369 Li352 1.990 . S
N369 C368 1.314 . S
N369 C371 1.279 . S
C370 C371 1.358 . S
C370 C372 1.356 . S
C370 H424 0.930 . S
C371 N369 1.279 . S
C371 C370 1.358 . S
C371 H375 0.930 . S
C372 C370 1.356 . S
C372 C373 1.348 . S
C373 C368 1.353 . S
C373 C372 1.348 . S
C373 H425 0.929 . S
H374 C368 0.930 . S
H375 C371 0.930 . S
C376 N377 1.314 . S
C376 C378 1.353 . S
C376 H382 0.930 . S
N377 Li353 1.991 . S
N377 C376 1.314 . S
N377 C380 1.279 1_565 S
C378 C376 1.353 . S
C378 C381 1.346 1_565 S
C378 H426 0.929 . S
C379 C380 1.358 . S
C379 C381 1.357 . S
C379 H427 0.930 . S
C380 N377 1.279 1_545 S
C380 C379 1.358 . S
C380 H383 0.930 . S
C381 C378 1.346 1_545 S
C381 C379 1.357 . S
H382 C376 0.930 . S
H383 C380 0.930 . S
C384 C386 1.345 1_545 S
C384 C387 1.359 . S
C384 O414 1.325 1_545 S
N385 C388 1.314 1_545 S
N385 C389 1.279 . S
C386 C384 1.345 1_565 S
C386 C388 1.353 . S
C386 H428 0.929 . S
C387 C384 1.359 . S
C387 C389 1.358 . S
C387 H429 0.930 . S
C388 N385 1.314 1_565 S
C388 C386 1.353 . S
C388 H430 0.930 . S
C389 N385 1.279 . S
C389 C387 1.358 . S
C389 H431 0.930 . S
C390 C391 1.348 . S
C390 C392 1.356 . S
C390 O415 1.325 . S
C391 C390 1.348 . S
C391 C393 1.353 . S
C391 H432 0.929 . S
C392 C390 1.356 . S
C392 C394 1.358 . S
C392 H433 0.930 . S
C393 C391 1.353 . S
C393 N395 1.314 . S
C393 H434 0.930 . S
C394 C392 1.358 . S
C394 N395 1.279 . S
C394 H435 0.930 . S
N395 C393 1.314 . S
N395 C394 1.279 . S
C396 C398 1.353 . S
C396 N399 1.314 . S
C396 H402 0.930 . S
C397 N399 1.279 1_565 S
C397 C400 1.358 . S
C397 H403 0.930 . S
C398 C396 1.353 . S
C398 C401 1.346 . S
C398 H436 0.929 . S
N399 Li354 1.991 . S
N399 C396 1.314 . S
N399 C397 1.279 1_545 S
C400 C397 1.358 . S
C400 C401 1.357 1_565 S
C400 H437 0.930 . S
C401 C398 1.346 . S
C401 C400 1.357 1_545 S
H402 C396 0.930 . S
H403 C397 0.930 . S
C404 N405 1.314 . S
C404 C406 1.353 . S
C404 H410 0.930 . S
N405 Li355 1.990 . S
N405 C404 1.314 . S
N405 C408 1.279 . S
C406 C404 1.353 . S
C406 C409 1.348 . S
C406 H438 0.929 . S
C407 C408 1.358 . S
C407 C409 1.356 . S
C407 H439 0.930 . S
C408 N405 1.279 . S
C408 C407 1.358 . S
C408 H411 0.930 . S
C409 C406 1.348 . S
C409 C407 1.356 . S
H410 C404 0.930 . S
H411 C408 0.930 . S
O412 Li352 1.956 . S
O412 Li353 1.964 1_545 S
O412 Li354 1.976 . S
O412 C356 1.325 . S
O413 Li352 1.981 . S
O413 Li353 1.956 1_545 S
O413 Li355 1.950 1_545 S
O413 C362 1.325 . S
O414 Li352 1.959 1_565 S
O414 Li354 1.956 1_565 S
O414 Li355 1.973 . S
O414 C384 1.325 1_565 S
O415 Li353 1.967 . S
O415 Li354 1.955 1_565 S
O415 Li355 1.956 . S
O415 C390 1.325 . S
H416 C358 0.929 . S
H417 C359 0.930 . S
H418 C360 0.930 . S
H419 C361 0.930 . S
H420 C363 0.930 . S
H421 C365 0.929 . S
H422 C366 0.930 . S
H423 C367 0.930 . S
H424 C370 0.930 . S
H425 C373 0.929 . S
H426 C378 0.929 . S
H427 C379 0.930 . S
H428 C386 0.929 . S
H429 C387 0.930 . S
H430 C388 0.930 . S
H431 C389 0.930 . S
H432 C391 0.929 . S
H433 C392 0.930 . S
H434 C393 0.930 . S
H435 C394 0.930 . S
H436 C398 0.929 . S
H437 C400 0.930 . S
H438 C406 0.929 . S
H439 C407 0.930 . S
Li440 N457 1.990 . S
Li440 O500 1.956 . S
Li440 O501 1.973 . S
Li440 O502 1.950 1_655 S
Li441 N465 1.991 . S
Li441 O500 1.955 1_455 S
Li441 O501 1.956 1_455 S
Li441 O503 1.976 . S
Li442 N487 1.991 . S
Li442 O500 1.967 . S
Li442 O502 1.956 1_655 S
Li442 O503 1.964 1_655 S
Li443 N493 1.990 . S
Li443 O501 1.959 1_455 S
Li443 O502 1.981 . S
Li443 O503 1.956 . S
C444 C446 1.348 . S
C444 C447 1.356 . S
C444 O500 1.325 . S
N445 C448 1.314 . S
N445 C449 1.279 . S
C446 C444 1.348 . S
C446 C448 1.353 . S
C446 H504 0.929 . S
C447 C444 1.356 . S
C447 C449 1.358 . S
C447 H505 0.930 . S
C448 N445 1.314 . S
C448 C446 1.353 . S
C448 H506 0.930 . S
C449 N445 1.279 . S
C449 C447 1.358 . S
C449 H507 0.930 . S
C450 C453 1.345 1_455 S
C450 C454 1.359 . S
C450 O501 1.325 1_455 S
C451 N452 1.279 . S
C451 C454 1.358 . S
C451 H508 0.930 . S
N452 C451 1.279 . S
N452 C455 1.314 1_455 S
C453 C450 1.345 1_655 S
C453 C455 1.353 . S
C453 H509 0.929 . S
C454 C450 1.359 . S
C454 C451 1.358 . S
C454 H510 0.930 . S
C455 N452 1.314 1_655 S
C455 C453 1.353 . S
C455 H511 0.930 . S
C456 N457 1.314 . S
C456 C461 1.353 . S
C456 H462 0.930 . S
N457 Li440 1.990 . S
N457 C456 1.314 . S
N457 C459 1.279 . S
C458 C459 1.358 . S
C458 C460 1.356 . S
C458 H512 0.930 . S
C459 N457 1.279 . S
C459 C458 1.358 . S
C459 H463 0.930 . S
C460 C458 1.356 . S
C460 C461 1.348 . S
C461 C456 1.353 . S
C461 C460 1.348 . S
C461 H513 0.929 . S
H462 C456 0.930 . S
H463 C459 0.930 . S
C464 N465 1.314 . S
C464 C466 1.353 . S
C464 H470 0.930 . S
N465 Li441 1.991 . S
N465 C464 1.314 . S
N465 C468 1.279 1_455 S
C466 C464 1.353 . S
C466 C469 1.346 . S
C466 H514 0.929 . S
C467 C468 1.358 . S
C467 C469 1.357 1_655 S
C467 H515 0.930 . S
C468 N465 1.279 1_655 S
C468 C467 1.358 . S
C468 H471 0.930 . S
C469 C466 1.346 . S
C469 C467 1.357 1_455 S
H470 C464 0.930 . S
H471 C468 0.930 . S
C472 C474 1.345 . S
C472 C475 1.359 1_455 S
C472 O502 1.325 . S
N473 C476 1.277 1_655 S
N473 C477 1.316 . S
C474 C472 1.345 . S
C474 C476 1.353 . S
C474 H516 0.929 . S
C475 C472 1.359 1_655 S
C475 C477 1.358 . S
C475 H517 0.930 . S
C476 N473 1.277 1_455 S
C476 C474 1.353 . S
C476 H518 0.930 . S
C477 N473 1.316 . S
C477 C475 1.358 . S
C477 H519 0.930 . S
C478 C479 1.348 . S
C478 C480 1.356 . S
C478 O503 1.325 . S
C479 C478 1.348 . S
C479 C481 1.353 . S
C479 H520 0.929 . S
C480 C478 1.356 . S
C480 C482 1.358 . S
C480 H521 0.930 . S
C481 C479 1.353 . S
C481 N483 1.314 . S
C481 H522 0.930 . S
C482 C480 1.358 . S
C482 N483 1.279 . S
C482 H523 0.930 . S
N483 C481 1.314 . S
N483 C482 1.279 . S
C484 C486 1.353 . S
C484 N487 1.314 . S
C484 H490 0.930 . S
C485 N487 1.279 1_455 S
C485 C488 1.358 . S
C485 H491 0.930 . S
C486 C484 1.353 . S
C486 C489 1.346 1_655 S
C486 H524 0.929 . S
N487 Li442 1.991 . S
N487 C484 1.314 . S
N487 C485 1.279 1_655 S
C488 C485 1.358 . S
C488 C489 1.357 . S
C488 H525 0.930 . S
C489 C486 1.346 1_455 S
C489 C488 1.357 . S
H490 C484 0.930 . S
H491 C485 0.930 . S
C492 N493 1.314 . S
C492 C494 1.353 . S
C492 H498 0.930 . S
N493 Li443 1.990 . S
N493 C492 1.314 . S
N493 C496 1.279 . S
C494 C492 1.353 . S
C494 C497 1.348 . S
C494 H526 0.929 . S
C495 C496 1.358 . S
C495 C497 1.356 . S
C495 H527 0.930 . S
C496 N493 1.279 . S
C496 C495 1.358 . S
C496 H499 0.930 . S
C497 C494 1.348 . S
C497 C495 1.356 . S
H498 C492 0.930 . S
H499 C496 0.930 . S
O500 Li440 1.956 . S
O500 Li441 1.955 1_655 S
O500 Li442 1.967 . S
O500 C444 1.325 . S
O501 Li440 1.973 . S
O501 Li441 1.956 1_655 S
O501 Li443 1.959 1_655 S
O501 C450 1.325 1_655 S
O502 Li440 1.950 1_455 S
O502 Li442 1.956 1_455 S
O502 Li443 1.981 . S
O502 C472 1.325 . S
O503 Li441 1.976 . S
O503 Li442 1.964 1_455 S
O503 Li443 1.956 . S
O503 C478 1.325 . S
H504 C446 0.929 . S
H505 C447 0.930 . S
H506 C448 0.930 . S
H507 C449 0.930 . S
H508 C451 0.930 . S
H509 C453 0.929 . S
H510 C454 0.930 . S
H511 C455 0.930 . S
H512 C458 0.930 . S
H513 C461 0.929 . S
H514 C466 0.929 . S
H515 C467 0.930 . S
H516 C474 0.929 . S
H517 C475 0.930 . S
H518 C476 0.930 . S
H519 C477 0.930 . S
H520 C479 0.929 . S
H521 C480 0.930 . S
H522 C481 0.930 . S
H523 C482 0.930 . S
H524 C486 0.929 . S
H525 C488 0.930 . S
H526 C494 0.929 . S
H527 C495 0.930 . S
Li528 N545 1.991 . S
Li528 O588 1.956 1_545 S
Li528 O589 1.955 1_545 S
Li528 O590 1.976 . S
Li529 N553 1.990 . S
Li529 O588 1.973 . S
Li529 O589 1.956 . S
Li529 O591 1.950 1_565 S
Li530 N575 1.990 . S
Li530 O588 1.959 1_545 S
Li530 O590 1.956 . S
Li530 O591 1.981 . S
Li531 N581 1.991 . S
Li531 O589 1.967 . S
Li531 O590 1.964 1_565 S
Li531 O591 1.956 1_565 S
C532 C534 1.345 1_545 S
C532 C535 1.359 . S
C532 O588 1.325 1_545 S
N533 C536 1.314 1_545 S
N533 C537 1.279 . S
C534 C532 1.345 1_565 S
C534 C536 1.353 . S
C534 H592 0.929 . S
C535 C532 1.359 . S
C535 C537 1.358 . S
C535 H593 0.930 . S
C536 N533 1.314 1_565 S
C536 C534 1.353 . S
C536 H594 0.930 . S
C537 N533 1.279 . S
C537 C535 1.358 . S
C537 H595 0.930 . S
C538 C541 1.348 . S
C538 C542 1.356 . S
C538 O589 1.325 . S
C539 N540 1.279 . S
C539 C542 1.358 . S
C539 H596 0.930 . S
N540 C539 1.279 . S
N540 C543 1.314 . S
C541 C538 1.348 . S
C541 C543 1.353 . S
C541 H597 0.929 . S
C542 C538 1.356 . S
C542 C539 1.358 . S
C542 H598 0.930 . S
C543 N540 1.314 . S
C543 C541 1.353 . S
C543 H599 0.930 . S
C544 N545 1.314 . S
C544 C549 1.353 . S
C544 H550 0.930 . S
N545 Li528 1.991 . S
N545 C544 1.314 . S
N545 C547 1.279 1_545 S
C546 C547 1.358 . S
C546 C548 1.357 1_565 S
C546 H600 0.930 . S
C547 N545 1.279 1_565 S
C547 C546 1.358 . S
C547 H551 0.930 . S
C548 C546 1.357 1_545 S
C548 C549 1.346 . S
C549 C544 1.353 . S
C549 C548 1.346 . S
C549 H601 0.929 . S
H550 C544 0.930 . S
H551 C547 0.930 . S
C552 N553 1.314 . S
C552 C554 1.353 . S
C552 H558 0.930 . S
N553 Li529 1.990 . S
N553 C552 1.314 . S
N553 C556 1.279 . S
C554 C552 1.353 . S
C554 C557 1.348 . S
C554 H602 0.929 . S
C555 C556 1.358 . S
C555 C557 1.356 . S
C555 H603 0.930 . S
C556 N553 1.279 . S
C556 C555 1.358 . S
C556 H559 0.930 . S
C557 C554 1.348 . S
C557 C555 1.356 . S
H558 C552 0.930 . S
H559 C556 0.930 . S
C560 C562 1.348 . S
C560 C563 1.356 . S
C560 O590 1.325 . S
N561 C564 1.314 . S
N561 C565 1.279 . S
C562 C560 1.348 . S
C562 C564 1.353 . S
C562 H604 0.929 . S
C563 C560 1.356 . S
C563 C565 1.358 . S
C563 H605 0.930 . S
C564 N561 1.314 . S
C564 C562 1.353 . S
C564 H606 0.930 . S
C565 N561 1.279 . S
C565 C563 1.358 . S
C565 H607 0.930 . S
C566 C567 1.345 . S
C566 C568 1.359 1_545 S
C566 O591 1.325 . S
C567 C566 1.345 . S
C567 C569 1.353 . S
C567 H608 0.929 . S
C568 C566 1.359 1_565 S
C568 C570 1.358 . S
C568 H609 0.930 . S
C569 C567 1.353 . S
C569 N571 1.277 1_545 S
C569 H610 0.930 . S
C570 C568 1.358 . S
C570 N571 1.316 . S
C570 H611 0.930 . S
N571 C569 1.277 1_565 S
N571 C570 1.316 . S
C572 C574 1.353 . S
C572 N575 1.314 . S
C572 H578 0.930 . S
C573 N575 1.279 . S
C573 C576 1.358 . S
C573 H579 0.930 . S
C574 C572 1.353 . S
C574 C577 1.348 . S
C574 H612 0.929 . S
N575 Li530 1.990 . S
N575 C572 1.314 . S
N575 C573 1.279 . S
C576 C573 1.358 . S
C576 C577 1.356 . S
C576 H613 0.930 . S
C577 C574 1.348 . S
C577 C576 1.356 . S
H578 C572 0.930 . S
H579 C573 0.930 . S
C580 N581 1.314 . S
C580 C582 1.353 . S
C580 H586 0.930 . S
N581 Li531 1.991 . S
N581 C580 1.314 . S
N581 C584 1.279 1_565 S
C582 C580 1.353 . S
C582 C585 1.346 1_565 S
C582 H614 0.929 . S
C583 C584 1.358 . S
C583 C585 1.357 . S
C583 H615 0.930 . S
C584 N581 1.279 1_545 S
C584 C583 1.358 . S
C584 H587 0.930 . S
C585 C582 1.346 1_545 S
C585 C583 1.357 . S
H586 C580 0.930 . S
H587 C584 0.930 . S
O588 Li528 1.956 1_565 S
O588 Li529 1.973 . S
O588 Li530 1.959 1_565 S
O588 C532 1.325 1_565 S
O589 Li528 1.955 1_565 S
O589 Li529 1.956 . S
O589 Li531 1.967 . S
O589 C538 1.325 . S
O590 Li528 1.976 . S
O590 Li530 1.956 . S
O590 Li531 1.964 1_545 S
O590 C560 1.325 . S
O591 Li529 1.950 1_545 S
O591 Li530 1.981 . S
O591 Li531 1.956 1_545 S
O591 C566 1.325 . S
H592 C534 0.929 . S
H593 C535 0.930 . S
H594 C536 0.930 . S
H595 C537 0.930 . S
H596 C539 0.930 . S
H597 C541 0.929 . S
H598 C542 0.930 . S
H599 C543 0.930 . S
H600 C546 0.930 . S
H601 C549 0.929 . S
H602 C554 0.929 . S
H603 C555 0.930 . S
H604 C562 0.929 . S
H605 C563 0.930 . S
H606 C564 0.930 . S
H607 C565 0.930 . S
H608 C567 0.929 . S
H609 C568 0.930 . S
H610 C569 0.930 . S
H611 C570 0.930 . S
H612 C574 0.929 . S
H613 C576 0.930 . S
H614 C582 0.929 . S
H615 C583 0.930 . S
Li616 N633 1.991 . S
Li616 O676 1.956 1_455 S
Li616 O677 1.955 1_455 S
Li616 O678 1.976 . S
Li617 N641 1.990 . S
Li617 O676 1.973 . S
Li617 O677 1.956 . S
Li617 O679 1.950 1_655 S
Li618 N663 1.990 . S
Li618 O676 1.959 1_455 S
Li618 O678 1.956 . S
Li618 O679 1.981 . S
Li619 N669 1.991 . S
Li619 O677 1.967 . S
Li619 O678 1.964 1_655 S
Li619 O679 1.956 1_655 S
C620 C622 1.345 1_455 S
C620 C623 1.359 . S
C620 O676 1.325 1_455 S
N621 C624 1.314 1_455 S
N621 C625 1.279 . S
C622 C620 1.345 1_655 S
C622 C624 1.353 . S
C622 H680 0.929 . S
C623 C620 1.359 . S
C623 C625 1.358 . S
C623 H681 0.930 . S
C624 N621 1.314 1_655 S
C624 C622 1.353 . S
C624 H682 0.930 . S
C625 N621 1.279 . S
C625 C623 1.358 . S
C625 H683 0.930 . S
C626 C629 1.348 . S
C626 C630 1.356 . S
C626 O677 1.325 . S
C627 N628 1.279 . S
C627 C630 1.358 . S
C627 H684 0.930 . S
N628 C627 1.279 . S
N628 C631 1.314 . S
C629 C626 1.348 . S
C629 C631 1.353 . S
C629 H685 0.929 . S
C630 C626 1.356 . S
C630 C627 1.358 . S
C630 H686 0.930 . S
C631 N628 1.314 . S
C631 C629 1.353 . S
C631 H687 0.930 . S
C632 N633 1.314 . S
C632 C637 1.353 . S
C632 H638 0.930 . S
N633 Li616 1.991 . S
N633 C632 1.314 . S
N633 C635 1.279 1_455 S
C634 C635 1.358 . S
C634 C636 1.357 1_655 S
C634 H688 0.930 . S
C635 N633 1.279 1_655 S
C635 C634 1.358 . S
C635 H639 0.930 . S
C636 C634 1.357 1_455 S
C636 C637 1.346 . S
C637 C632 1.353 . S
C637 C636 1.346 . S
C637 H689 0.929 . S
H638 C632 0.930 . S
H639 C635 0.930 . S
C640 N641 1.314 . S
C640 C642 1.353 . S
C640 H646 0.930 . S
N641 Li617 1.990 . S
N641 C640 1.314 . S
N641 C644 1.279 . S
C642 C640 1.353 . S
C642 C645 1.348 . S
C642 H690 0.929 . S
C643 C644 1.358 . S
C643 C645 1.356 . S
C643 H691 0.930 . S
C644 N641 1.279 . S
C644 C643 1.358 . S
C644 H647 0.930 . S
C645 C642 1.348 . S
C645 C643 1.356 . S
H646 C640 0.930 . S
H647 C644 0.930 . S
C648 C650 1.348 . S
C648 C651 1.356 . S
C648 O678 1.325 . S
N649 C652 1.314 . S
N649 C653 1.279 . S
C650 C648 1.348 . S
C650 C652 1.353 . S
C650 H692 0.929 . S
C651 C648 1.356 . S
C651 C653 1.358 . S
C651 H693 0.930 . S
C652 N649 1.314 . S
C652 C650 1.353 . S
C652 H694 0.930 . S
C653 N649 1.279 . S
C653 C651 1.358 . S
C653 H695 0.930 . S
C654 C655 1.345 . S
C654 C656 1.359 1_455 S
C654 O679 1.325 . S
C655 C654 1.345 . S
C655 C657 1.353 . S
C655 H696 0.929 . S
C656 C654 1.359 1_655 S
C656 C658 1.358 . S
C656 H697 0.930 . S
C657 C655 1.353 . S
C657 N659 1.277 1_455 S
C657 H698 0.930 . S
C658 C656 1.358 . S
C658 N659 1.317 . S
C658 H699 0.930 . S
N659 C657 1.277 1_655 S
N659 C658 1.317 . S
C660 C662 1.353 . S
C660 N663 1.314 . S
C660 H666 0.930 . S
C661 N663 1.279 . S
C661 C664 1.358 . S
C661 H667 0.930 . S
C662 C660 1.353 . S
C662 C665 1.348 . S
C662 H700 0.929 . S
N663 Li618 1.990 . S
N663 C660 1.314 . S
N663 C661 1.279 . S
C664 C661 1.358 . S
C664 C665 1.356 . S
C664 H701 0.930 . S
C665 C662 1.348 . S
C665 C664 1.356 . S
H666 C660 0.930 . S
H667 C661 0.930 . S
C668 N669 1.314 . S
C668 C670 1.353 . S
C668 H674 0.930 . S
N669 Li619 1.991 . S
N669 C668 1.314 . S
N669 C672 1.279 1_655 S
C670 C668 1.353 . S
C670 C673 1.346 1_655 S
C670 H702 0.929 . S
C671 C672 1.358 . S
C671 C673 1.357 . S
C671 H703 0.930 . S
C672 N669 1.279 1_455 S
C672 C671 1.358 . S
C672 H675 0.930 . S
C673 C670 1.346 1_455 S
C673 C671 1.357 . S
H674 C668 0.930 . S
H675 C672 0.930 . S
O676 Li616 1.956 1_655 S
O676 Li617 1.973 . S
O676 Li618 1.959 1_655 S
O676 C620 1.325 1_655 S
O677 Li616 1.955 1_655 S
O677 Li617 1.956 . S
O677 Li619 1.967 . S
O677 C626 1.325 . S
O678 Li616 1.976 . S
O678 Li618 1.956 . S
O678 Li619 1.964 1_455 S
O678 C648 1.325 . S
O679 Li617 1.950 1_455 S
O679 Li618 1.981 . S
O679 Li619 1.956 1_455 S
O679 C654 1.325 . S
H680 C622 0.929 . S
H681 C623 0.930 . S
H682 C624 0.930 . S
H683 C625 0.930 . S
H684 C627 0.930 . S
H685 C629 0.929 . S
H686 C630 0.930 . S
H687 C631 0.930 . S
H688 C634 0.930 . S
H689 C637 0.929 . S
H690 C642 0.929 . S
H691 C643 0.930 . S
H692 C650 0.929 . S
H693 C651 0.930 . S
H694 C652 0.930 . S
H695 C653 0.930 . S
H696 C655 0.929 . S
H697 C656 0.930 . S
H698 C657 0.930 . S
H699 C658 0.930 . S
H700 C662 0.929 . S
H701 C664 0.930 . S
H702 C670 0.929 . S
H703 C671 0.930 . S
Li704 N721 1.990 . S
Li704 O764 1.956 . S
Li704 O765 1.981 . S
Li704 O766 1.959 1_554 S
Li705 N729 1.991 . S
Li705 O764 1.964 1_556 S
Li705 O765 1.956 1_556 S
Li705 O767 1.967 . S
Li706 N751 1.991 . S
Li706 O764 1.976 . S
Li706 O766 1.956 1_554 S
Li706 O767 1.955 1_554 S
Li707 N757 1.990 . S
Li707 O765 1.950 1_556 S
Li707 O766 1.973 . S
Li707 O767 1.956 . S
C708 C710 1.348 . S
C708 C711 1.356 . S
C708 O764 1.325 . S
N709 C712 1.314 . S
N709 C713 1.279 . S
C710 C708 1.348 . S
C710 C712 1.353 . S
C710 H768 0.929 . S
C711 C708 1.356 . S
C711 C713 1.358 . S
C711 H769 0.930 . S
C712 N709 1.314 . S
C712 C710 1.353 . S
C712 H770 0.930 . S
C713 N709 1.279 . S
C713 C711 1.358 . S
C713 H771 0.930 . S
C714 C717 1.345 . S
C714 C718 1.359 1_554 S
C714 O765 1.325 . S
C715 N716 1.317 . S
C715 C718 1.358 . S
C715 H772 0.930 . S
N716 C715 1.317 . S
N716 C719 1.277 1_556 S
C717 C714 1.345 . S
C717 C719 1.353 . S
C717 H773 0.929 . S
C718 C714 1.359 1_556 S
C718 C715 1.358 . S
C718 H774 0.930 . S
C719 N716 1.277 1_554 S
C719 C717 1.353 . S
C719 H775 0.930 . S
C720 N721 1.314 . S
C720 C725 1.353 . S
C720 H726 0.930 . S
N721 Li704 1.990 . S
N721 C720 1.314 . S
N721 C723 1.279 . S
C722 C723 1.358 . S
C722 C724 1.356 . S
C722 H776 0.930 . S
C723 N721 1.279 . S
C723 C722 1.358 . S
C723 H727 0.930 . S
C724 C722 1.356 . S
C724 C725 1.348 . S
C725 C720 1.353 . S
C725 C724 1.348 . S
C725 H777 0.929 . S
H726 C720 0.930 . S
H727 C723 0.930 . S
C728 N729 1.314 . S
C728 C730 1.353 . S
C728 H734 0.930 . S
N729 Li705 1.991 . S
N729 C728 1.314 . S
N729 C732 1.279 1_556 S
C730 C728 1.353 . S
C730 C733 1.346 1_556 S
C730 H778 0.929 . S
C731 C732 1.358 . S
C731 C733 1.357 . S
C731 H779 0.930 . S
C732 N729 1.279 1_554 S
C732 C731 1.358 . S
C732 H735 0.930 . S
C733 C730 1.346 1_554 S
C733 C731 1.357 . S
H734 C728 0.930 . S
H735 C732 0.930 . S
C736 C738 1.345 1_554 S
C736 C739 1.359 . S
C736 O766 1.325 1_554 S
N737 C740 1.314 1_554 S
N737 C741 1.279 . S
C738 C736 1.345 1_556 S
C738 C740 1.353 . S
C738 H780 0.929 . S
C739 C736 1.359 . S
C739 C741 1.358 . S
C739 H781 0.930 . S
C740 N737 1.314 1_556 S
C740 C738 1.353 . S
C740 H782 0.930 . S
C741 N737 1.279 . S
C741 C739 1.358 . S
C741 H783 0.930 . S
C742 C743 1.348 . S
C742 C744 1.356 . S
C742 O767 1.325 . S
C743 C742 1.348 . S
C743 C745 1.353 . S
C743 H784 0.929 . S
C744 C742 1.356 . S
C744 C746 1.358 . S
C744 H785 0.930 . S
C745 C743 1.353 . S
C745 N747 1.314 . S
C745 H786 0.930 . S
C746 C744 1.358 . S
C746 N747 1.279 . S
C746 H787 0.930 . S
N747 C745 1.314 . S
N747 C746 1.279 . S
C748 C750 1.353 . S
C748 N751 1.314 . S
C748 H754 0.930 . S
C749 N751 1.279 1_556 S
C749 C752 1.358 . S
C749 H755 0.930 . S
C750 C748 1.353 . S
C750 C753 1.346 . S
C750 H788 0.929 . S
N751 Li706 1.991 . S
N751 C748 1.314 . S
N751 C749 1.279 1_554 S
C752 C749 1.358 . S
C752 C753 1.357 1_556 S
C752 H789 0.930 . S
C753 C750 1.346 . S
C753 C752 1.357 1_554 S
H754 C748 0.930 . S
H755 C749 0.930 . S
C756 N757 1.314 . S
C756 C758 1.353 . S
C756 H762 0.930 . S
N757 Li707 1.990 . S
N757 C756 1.314 . S
N757 C760 1.279 . S
C758 C756 1.353 . S
C758 C761 1.348 . S
C758 H790 0.929 . S
C759 C760 1.358 . S
C759 C761 1.356 . S
C759 H791 0.930 . S
C760 N757 1.279 . S
C760 C759 1.358 . S
C760 H763 0.930 . S
C761 C758 1.348 . S
C761 C759 1.356 . S
H762 C756 0.930 . S
H763 C760 0.930 . S
O764 Li704 1.956 . S
O764 Li705 1.964 1_554 S
O764 Li706 1.976 . S
O764 C708 1.325 . S
O765 Li704 1.981 . S
O765 Li705 1.956 1_554 S
O765 Li707 1.950 1_554 S
O765 C714 1.325 . S
O766 Li704 1.959 1_556 S
O766 Li706 1.956 1_556 S
O766 Li707 1.973 . S
O766 C736 1.325 1_556 S
O767 Li705 1.967 . S
O767 Li706 1.955 1_556 S
O767 Li707 1.956 . S
O767 C742 1.325 . S
H768 C710 0.929 . S
H769 C711 0.930 . S
H770 C712 0.930 . S
H771 C713 0.930 . S
H772 C715 0.930 . S
H773 C717 0.929 . S
H774 C718 0.930 . S
H775 C719 0.930 . S
H776 C722 0.930 . S
H777 C725 0.929 . S
H778 C730 0.929 . S
H779 C731 0.930 . S
H780 C738 0.929 . S
H781 C739 0.930 . S
H782 C740 0.930 . S
H783 C741 0.930 . S
H784 C743 0.929 . S
H785 C744 0.930 . S
H786 C745 0.930 . S
H787 C746 0.930 . S
H788 C750 0.929 . S
H789 C752 0.930 . S
H790 C758 0.929 . S
H791 C759 0.930 . S
Li792 N809 1.991 . S
Li792 O852 1.956 1_556 S
Li792 O853 1.964 1_556 S
Li792 O854 1.967 . S
Li793 N817 1.990 . S
Li793 O852 1.981 . S
Li793 O853 1.956 . S
Li793 O855 1.959 1_554 S
Li794 N839 1.990 . S
Li794 O852 1.950 1_556 S
Li794 O854 1.956 . S
Li794 O855 1.973 . S
Li795 N845 1.991 . S
Li795 O853 1.976 . S
Li795 O854 1.955 1_554 S
Li795 O855 1.956 1_554 S
C796 C798 1.345 . S
C796 C799 1.359 1_554 S
C796 O852 1.325 . S
N797 C800 1.277 1_556 S
N797 C801 1.316 . S
C798 C796 1.345 . S
C798 C800 1.353 . S
C798 H856 0.929 . S
C799 C796 1.359 1_556 S
C799 C801 1.358 . S
C799 H857 0.930 . S
C800 N797 1.277 1_554 S
C800 C798 1.353 . S
C800 H858 0.930 . S
C801 N797 1.316 . S
C801 C799 1.358 . S
C801 H859 0.930 . S
C802 C805 1.348 . S
C802 C806 1.356 . S
C802 O853 1.325 . S
C803 N804 1.279 . S
C803 C806 1.358 . S
C803 H860 0.930 . S
N804 C803 1.279 . S
N804 C807 1.314 . S
C805 C802 1.348 . S
C805 C807 1.353 . S
C805 H861 0.929 . S
C806 C802 1.356 . S
C806 C803 1.358 . S
C806 H862 0.930 . S
C807 N804 1.314 . S
C807 C805 1.353 . S
C807 H863 0.930 . S
C808 N809 1.314 . S
C808 C813 1.353 . S
C808 H814 0.930 . S
N809 Li792 1.991 . S
N809 C808 1.314 . S
N809 C811 1.279 1_556 S
C810 C811 1.358 . S
C810 C812 1.357 . S
C810 H864 0.930 . S
C811 N809 1.279 1_554 S
C811 C810 1.358 . S
C811 H815 0.930 . S
C812 C810 1.357 . S
C812 C813 1.346 1_554 S
C813 C808 1.353 . S
C813 C812 1.346 1_556 S
C813 H865 0.929 . S
H814 C808 0.930 . S
H815 C811 0.930 . S
C816 N817 1.314 . S
C816 C818 1.353 . S
C816 H822 0.930 . S
N817 Li793 1.990 . S
N817 C816 1.314 . S
N817 C820 1.279 . S
C818 C816 1.353 . S
C818 C821 1.348 . S
C818 H866 0.929 . S
C819 C820 1.358 . S
C819 C821 1.356 . S
C819 H867 0.930 . S
C820 N817 1.279 . S
C820 C819 1.358 . S
C820 H823 0.930 . S
C821 C818 1.348 . S
C821 C819 1.356 . S
H822 C816 0.930 . S
H823 C820 0.930 . S
C824 C826 1.348 . S
C824 C827 1.356 . S
C824 O854 1.325 . S
N825 C828 1.314 . S
N825 C829 1.279 . S
C826 C824 1.348 . S
C826 C828 1.353 . S
C826 H868 0.929 . S
C827 C824 1.356 . S
C827 C829 1.358 . S
C827 H869 0.930 . S
C828 N825 1.314 . S
C828 C826 1.353 . S
C828 H870 0.930 . S
C829 N825 1.279 . S
C829 C827 1.358 . S
C829 H871 0.930 . S
C830 C831 1.345 1_554 S
C830 C832 1.359 . S
C830 O855 1.325 1_554 S
C831 C830 1.345 1_556 S
C831 C833 1.353 . S
C831 H872 0.929 . S
C832 C830 1.359 . S
C832 C834 1.358 . S
C832 H873 0.930 . S
C833 C831 1.353 . S
C833 N835 1.314 1_556 S
C833 H874 0.930 . S
C834 C832 1.358 . S
C834 N835 1.279 . S
C834 H875 0.930 . S
N835 C833 1.314 1_554 S
N835 C834 1.279 . S
C836 C838 1.353 . S
C836 N839 1.314 . S
C836 H842 0.930 . S
C837 N839 1.279 . S
C837 C840 1.358 . S
C837 H843 0.930 . S
C838 C836 1.353 . S
C838 C841 1.348 . S
C838 H876 0.929 . S
N839 Li794 1.990 . S
N839 C836 1.314 . S
N839 C837 1.279 . S
C840 C837 1.358 . S
C840 C841 1.356 . S
C840 H877 0.930 . S
C841 C838 1.348 . S
C841 C840 1.356 . S
H842 C836 0.930 . S
H843 C837 0.930 . S
C844 N845 1.314 . S
C844 C846 1.353 . S
C844 H850 0.930 . S
N845 Li795 1.991 . S
N845 C844 1.314 . S
N845 C848 1.279 1_554 S
C846 C844 1.353 . S
C846 C849 1.346 . S
C846 H878 0.929 . S
C847 C848 1.358 . S
C847 C849 1.357 1_556 S
C847 H879 0.930 . S
C848 N845 1.279 1_556 S
C848 C847 1.358 . S
C848 H851 0.930 . S
C849 C846 1.346 . S
C849 C847 1.357 1_554 S
H850 C844 0.930 . S
H851 C848 0.930 . S
O852 Li792 1.956 1_554 S
O852 Li793 1.981 . S
O852 Li794 1.950 1_554 S
O852 C796 1.325 . S
O853 Li792 1.964 1_554 S
O853 Li793 1.956 . S
O853 Li795 1.976 . S
O853 C802 1.325 . S
O854 Li792 1.967 . S
O854 Li794 1.956 . S
O854 Li795 1.955 1_556 S
O854 C824 1.325 . S
O855 Li793 1.959 1_556 S
O855 Li794 1.973 . S
O855 Li795 1.956 1_556 S
O855 C830 1.325 1_556 S
H856 C798 0.929 . S
H857 C799 0.930 . S
H858 C800 0.930 . S
H859 C801 0.930 . S
H860 C803 0.930 . S
H861 C805 0.929 . S
H862 C806 0.930 . S
H863 C807 0.930 . S
H864 C810 0.930 . S
H865 C813 0.929 . S
H866 C818 0.929 . S
H867 C819 0.930 . S
H868 C826 0.929 . S
H869 C827 0.930 . S
H870 C828 0.930 . S
H871 C829 0.930 . S
H872 C831 0.929 . S
H873 C832 0.930 . S
H874 C833 0.930 . S
H875 C834 0.930 . S
H876 C838 0.929 . S
H877 C840 0.930 . S
H878 C846 0.929 . S
H879 C847 0.930 . S
Li880 N897 1.991 . S
Li880 O940 1.956 1_556 S
Li880 O941 1.964 1_556 S
Li880 O942 1.967 . S
Li881 N905 1.990 . S
Li881 O940 1.981 . S
Li881 O941 1.956 . S
Li881 O943 1.959 1_554 S
Li882 N927 1.990 . S
Li882 O940 1.950 1_556 S
Li882 O942 1.956 . S
Li882 O943 1.973 . S
Li883 N933 1.991 . S
Li883 O941 1.976 . S
Li883 O942 1.955 1_554 S
Li883 O943 1.956 1_554 S
C884 C886 1.345 . S
C884 C887 1.359 1_554 S
C884 O940 1.325 . S
N885 C888 1.277 1_556 S
N885 C889 1.316 . S
C886 C884 1.345 . S
C886 C888 1.353 . S
C886 H944 0.929 . S
C887 C884 1.359 1_556 S
C887 C889 1.358 . S
C887 H945 0.930 . S
C888 N885 1.277 1_554 S
C888 C886 1.353 . S
C888 H946 0.930 . S
C889 N885 1.316 . S
C889 C887 1.358 . S
C889 H947 0.930 . S
C890 C893 1.348 . S
C890 C894 1.356 . S
C890 O941 1.325 . S
C891 N892 1.279 . S
C891 C894 1.358 . S
C891 H948 0.930 . S
N892 C891 1.279 . S
N892 C895 1.314 . S
C893 C890 1.348 . S
C893 C895 1.353 . S
C893 H949 0.929 . S
C894 C890 1.356 . S
C894 C891 1.358 . S
C894 H950 0.930 . S
C895 N892 1.314 . S
C895 C893 1.353 . S
C895 H951 0.930 . S
C896 N897 1.314 . S
C896 C901 1.353 . S
C896 H902 0.930 . S
N897 Li880 1.991 . S
N897 C896 1.314 . S
N897 C899 1.279 1_556 S
C898 C899 1.358 . S
C898 C900 1.357 . S
C898 H952 0.930 . S
C899 N897 1.279 1_554 S
C899 C898 1.358 . S
C899 H903 0.930 . S
C900 C898 1.357 . S
C900 C901 1.346 1_554 S
C901 C896 1.353 . S
C901 C900 1.346 1_556 S
C901 H953 0.929 . S
H902 C896 0.930 . S
H903 C899 0.930 . S
C904 N905 1.314 . S
C904 C906 1.353 . S
C904 H910 0.930 . S
N905 Li881 1.990 . S
N905 C904 1.314 . S
N905 C908 1.279 . S
C906 C904 1.353 . S
C906 C909 1.348 . S
C906 H954 0.929 . S
C907 C908 1.358 . S
C907 C909 1.356 . S
C907 H955 0.930 . S
C908 N905 1.279 . S
C908 C907 1.358 . S
C908 H911 0.930 . S
C909 C906 1.348 . S
C909 C907 1.356 . S
H910 C904 0.930 . S
H911 C908 0.930 . S
C912 C914 1.348 . S
C912 C915 1.356 . S
C912 O942 1.325 . S
N913 C916 1.314 . S
N913 C917 1.279 . S
C914 C912 1.348 . S
C914 C916 1.353 . S
C914 H956 0.929 . S
C915 C912 1.356 . S
C915 C917 1.358 . S
C915 H957 0.930 . S
C916 N913 1.314 . S
C916 C914 1.353 . S
C916 H958 0.930 . S
C917 N913 1.279 . S
C917 C915 1.358 . S
C917 H959 0.930 . S
C918 C919 1.345 1_554 S
C918 C920 1.359 . S
C918 O943 1.325 1_554 S
C919 C918 1.345 1_556 S
C919 C921 1.353 . S
C919 H960 0.929 . S
C920 C918 1.359 . S
C920 C922 1.358 . S
C920 H961 0.930 . S
C921 C919 1.353 . S
C921 N923 1.314 1_556 S
C921 H962 0.930 . S
C922 C920 1.358 . S
C922 N923 1.279 . S
C922 H963 0.930 . S
N923 C921 1.314 1_554 S
N923 C922 1.279 . S
C924 C926 1.353 . S
C924 N927 1.314 . S
C924 H930 0.930 . S
C925 N927 1.279 . S
C925 C928 1.358 . S
C925 H931 0.930 . S
C926 C924 1.353 . S
C926 C929 1.348 . S
C926 H964 0.929 . S
N927 Li882 1.990 . S
N927 C924 1.314 . S
N927 C925 1.279 . S
C928 C925 1.358 . S
C928 C929 1.356 . S
C928 H965 0.930 . S
C929 C926 1.348 . S
C929 C928 1.356 . S
H930 C924 0.930 . S
H931 C925 0.930 . S
C932 N933 1.314 . S
C932 C934 1.353 . S
C932 H938 0.930 . S
N933 Li883 1.991 . S
N933 C932 1.314 . S
N933 C936 1.279 1_554 S
C934 C932 1.353 . S
C934 C937 1.346 . S
C934 H966 0.929 . S
C935 C936 1.358 . S
C935 C937 1.357 1_556 S
C935 H967 0.930 . S
C936 N933 1.279 1_556 S
C936 C935 1.358 . S
C936 H939 0.930 . S
C937 C934 1.346 . S
C937 C935 1.357 1_554 S
H938 C932 0.930 . S
H939 C936 0.930 . S
O940 Li880 1.956 1_554 S
O940 Li881 1.981 . S
O940 Li882 1.950 1_554 S
O940 C884 1.325 . S
O941 Li880 1.964 1_554 S
O941 Li881 1.956 . S
O941 Li883 1.976 . S
O941 C890 1.325 . S
O942 Li880 1.967 . S
O942 Li882 1.956 . S
O942 Li883 1.955 1_556 S
O942 C912 1.325 . S
O943 Li881 1.959 1_556 S
O943 Li882 1.973 . S
O943 Li883 1.956 1_556 S
O943 C918 1.325 1_556 S
H944 C886 0.929 . S
H945 C887 0.930 . S
H946 C888 0.930 . S
H947 C889 0.930 . S
H948 C891 0.930 . S
H949 C893 0.929 . S
H950 C894 0.930 . S
H951 C895 0.930 . S
H952 C898 0.930 . S
H953 C901 0.929 . S
H954 C906 0.929 . S
H955 C907 0.930 . S
H956 C914 0.929 . S
H957 C915 0.930 . S
H958 C916 0.930 . S
H959 C917 0.930 . S
H960 C919 0.929 . S
H961 C920 0.930 . S
H962 C921 0.930 . S
H963 C922 0.930 . S
H964 C926 0.929 . S
H965 C928 0.930 . S
H966 C934 0.929 . S
H967 C935 0.930 . S
Li968 N985 1.990 . S
Li968 O1028 1.956 . S
Li968 O1029 1.981 . S
Li968 O1030 1.959 1_554 S
Li969 N993 1.991 . S
Li969 O1028 1.964 1_556 S
Li969 O1029 1.956 1_556 S
Li969 O1031 1.967 . S
Li970 N1015 1.991 . S
Li970 O1028 1.976 . S
Li970 O1030 1.956 1_554 S
Li970 O1031 1.955 1_554 S
Li971 N1021 1.990 . S
Li971 O1029 1.950 1_556 S
Li971 O1030 1.973 . S
Li971 O1031 1.956 . S
C972 C974 1.348 . S
C972 C975 1.356 . S
C972 O1028 1.325 . S
N973 C976 1.314 . S
N973 C977 1.279 . S
C974 C972 1.348 . S
C974 C976 1.353 . S
C974 H1032 0.929 . S
C975 C972 1.356 . S
C975 C977 1.358 . S
C975 H1033 0.930 . S
C976 N973 1.314 . S
C976 C974 1.353 . S
C976 H1034 0.930 . S
C977 N973 1.279 . S
C977 C975 1.358 . S
C977 H1035 0.930 . S
C978 C981 1.345 . S
C978 C982 1.359 1_554 S
C978 O1029 1.325 . S
C979 N980 1.316 . S
C979 C982 1.358 . S
C979 H1036 0.930 . S
N980 C979 1.316 . S
N980 C983 1.277 1_556 S
C981 C978 1.345 . S
C981 C983 1.353 . S
C981 H1037 0.929 . S
C982 C978 1.359 1_556 S
C982 C979 1.358 . S
C982 H1038 0.930 . S
C983 N980 1.277 1_554 S
C983 C981 1.353 . S
C983 H1039 0.930 . S
C984 N985 1.314 . S
C984 C989 1.353 . S
C984 H990 0.930 . S
N985 Li968 1.990 . S
N985 C984 1.314 . S
N985 C987 1.279 . S
C986 C987 1.358 . S
C986 C988 1.356 . S
C986 H1040 0.930 . S
C987 N985 1.279 . S
C987 C986 1.358 . S
C987 H991 0.930 . S
C988 C986 1.356 . S
C988 C989 1.348 . S
C989 C984 1.353 . S
C989 C988 1.348 . S
C989 H1041 0.929 . S
H990 C984 0.930 . S
H991 C987 0.930 . S
C992 N993 1.314 . S
C992 C994 1.353 . S
C992 H998 0.930 . S
N993 Li969 1.991 . S
N993 C992 1.314 . S
N993 C996 1.279 1_556 S
C994 C992 1.353 . S
C994 C997 1.346 1_556 S
C994 H1042 0.929 . S
C995 C996 1.358 . S
C995 C997 1.357 . S
C995 H1043 0.930 . S
C996 N993 1.279 1_554 S
C996 C995 1.358 . S
C996 H999 0.930 . S
C997 C994 1.346 1_554 S
C997 C995 1.357 . S
H998 C992 0.930 . S
H999 C996 0.930 . S
C1000 C1002 1.345 1_554 S
C1000 C1003 1.359 . S
C1000 O1030 1.325 1_554 S
N1001 C1004 1.314 1_554 S
N1001 C1005 1.279 . S
C1002 C1000 1.345 1_556 S
C1002 C1004 1.353 . S
C1002 H1044 0.929 . S
C1003 C1000 1.359 . S
C1003 C1005 1.358 . S
C1003 H1045 0.930 . S
C1004 N1001 1.314 1_556 S
C1004 C1002 1.353 . S
C1004 H1046 0.930 . S
C1005 N1001 1.279 . S
C1005 C1003 1.358 . S
C1005 H1047 0.930 . S
C1006 C1007 1.348 . S
C1006 C1008 1.356 . S
C1006 O1031 1.325 . S
C1007 C1006 1.348 . S
C1007 C1009 1.353 . S
C1007 H1048 0.929 . S
C1008 C1006 1.356 . S
C1008 C1010 1.358 . S
C1008 H1049 0.930 . S
C1009 C1007 1.353 . S
C1009 N1011 1.314 . S
C1009 H1050 0.930 . S
C1010 C1008 1.358 . S
C1010 N1011 1.279 . S
C1010 H1051 0.930 . S
N1011 C1009 1.314 . S
N1011 C1010 1.279 . S
C1012 C1014 1.353 . S
C1012 N1015 1.314 . S
C1012 H1018 0.930 . S
C1013 N1015 1.279 1_556 S
C1013 C1016 1.358 . S
C1013 H1019 0.930 . S
C1014 C1012 1.353 . S
C1014 C1017 1.346 . S
C1014 H1052 0.929 . S
N1015 Li970 1.991 . S
N1015 C1012 1.314 . S
N1015 C1013 1.279 1_554 S
C1016 C1013 1.358 . S
C1016 C1017 1.357 1_556 S
C1016 H1053 0.930 . S
C1017 C1014 1.346 . S
C1017 C1016 1.357 1_554 S
H1018 C1012 0.930 . S
H1019 C1013 0.930 . S
C1020 N1021 1.314 . S
C1020 C1022 1.353 . S
C1020 H1026 0.930 . S
N1021 Li971 1.990 . S
N1021 C1020 1.314 . S
N1021 C1024 1.279 . S
C1022 C1020 1.353 . S
C1022 C1025 1.348 . S
C1022 H1054 0.929 . S
C1023 C1024 1.358 . S
C1023 C1025 1.356 . S
C1023 H1055 0.930 . S
C1024 N1021 1.279 . S
C1024 C1023 1.358 . S
C1024 H1027 0.930 . S
C1025 C1022 1.348 . S
C1025 C1023 1.356 . S
H1026 C1020 0.930 . S
H1027 C1024 0.930 . S
O1028 Li968 1.956 . S
O1028 Li969 1.964 1_554 S
O1028 Li970 1.976 . S
O1028 C972 1.325 . S
O1029 Li968 1.981 . S
O1029 Li969 1.956 1_554 S
O1029 Li971 1.950 1_554 S
O1029 C978 1.325 . S
O1030 Li968 1.959 1_556 S
O1030 Li970 1.956 1_556 S
O1030 Li971 1.973 . S
O1030 C1000 1.325 1_556 S
O1031 Li969 1.967 . S
O1031 Li970 1.955 1_556 S
O1031 Li971 1.956 . S
O1031 C1006 1.325 . S
H1032 C974 0.929 . S
H1033 C975 0.930 . S
H1034 C976 0.930 . S
H1035 C977 0.930 . S
H1036 C979 0.930 . S
H1037 C981 0.929 . S
H1038 C982 0.930 . S
H1039 C983 0.930 . S
H1040 C986 0.930 . S
H1041 C989 0.929 . S
H1042 C994 0.929 . S
H1043 C995 0.930 . S
H1044 C1002 0.929 . S
H1045 C1003 0.930 . S
H1046 C1004 0.930 . S
H1047 C1005 0.930 . S
H1048 C1007 0.929 . S
H1049 C1008 0.930 . S
H1050 C1009 0.930 . S
H1051 C1010 0.930 . S
H1052 C1014 0.929 . S
H1053 C1016 0.930 . S
H1054 C1022 0.929 . S
H1055 C1023 0.930 . S
H1056 C1062 0.930 . S
H1057 C1066 0.930 . S
H1058 C1071 0.929 . S
H1059 C1069 0.929 . S
H1060 C1064 0.929 . S
H1061 C1070 0.929 . S
C1062 H1056 0.930 . S
C1062 C1063 1.394 . S
C1062 C1070 1.378 . S
C1063 C1062 1.394 . S
C1063 C1071 1.406 1_455 S
C1064 H1060 0.929 . S
C1064 C1066 1.378 . S
C1064 C1068 1.365 . S
C1065 C1068 1.461 1_455 S
C1065 C1070 1.373 . S
C1065 N1073 1.404 1_455 S
C1066 H1057 0.930 . S
C1066 C1064 1.378 . S
C1066 C1067 1.386 . S
C1067 C1066 1.386 . S
C1067 C1069 1.414 1_655 S
C1068 C1064 1.365 . S
C1068 C1065 1.461 1_655 S
C1068 N1072 1.412 1_655 S
C1069 H1059 0.929 . S
C1069 C1067 1.414 1_455 S
C1069 N1072 1.384 . S
C1070 H1061 0.929 . S
C1070 C1062 1.378 . S
C1070 C1065 1.373 . S
C1071 H1058 0.929 . S
C1071 C1063 1.406 1_655 S
C1071 N1073 1.384 . S
N1072 C1068 1.412 1_455 S
N1072 C1069 1.384 . S
N1073 C1065 1.404 1_655 S
N1073 C1071 1.384 . S
H1074 C1080 0.930 . S
H1075 C1084 0.930 . S
H1076 C1089 0.929 . S
H1077 C1087 0.929 . S
H1078 C1082 0.929 . S
H1079 C1088 0.929 . S
C1080 H1074 0.930 . S
C1080 C1081 1.371 1_565 S
C1080 C1088 1.378 . S
C1081 C1080 1.371 1_545 S
C1081 C1089 1.429 . S
C1082 H1078 0.929 . S
C1082 C1084 1.378 . S
C1082 C1086 1.375 . S
C1083 C1086 1.461 1_565 S
C1083 C1088 1.366 . S
C1083 N1091 1.411 1_565 S
C1084 H1075 0.930 . S
C1084 C1082 1.378 . S
C1084 C1085 1.370 . S
C1085 C1084 1.370 . S
C1085 C1087 1.430 1_545 S
C1086 C1082 1.375 . S
C1086 C1083 1.461 1_545 S
C1086 N1090 1.402 1_545 S
C1087 H1077 0.929 . S
C1087 C1085 1.430 1_565 S
C1087 N1090 1.384 . S
C1088 H1079 0.929 . S
C1088 C1080 1.378 . S
C1088 C1083 1.366 . S
C1089 H1076 0.929 . S
C1089 C1081 1.429 . S
C1089 N1091 1.384 . S
N1090 C1086 1.402 1_565 S
N1090 C1087 1.384 . S
N1091 C1083 1.411 1_545 S
N1091 C1089 1.384 . S
H1092 C1098 0.930 . S
H1093 C1102 0.930 . S
H1094 C1107 0.929 . S
H1095 C1105 0.929 . S
H1096 C1100 0.929 . S
H1097 C1106 0.929 . S
C1098 H1092 0.930 . S
C1098 C1099 1.386 . S
C1098 C1106 1.378 . S
C1099 C1098 1.386 . S
C1099 C1107 1.414 1_455 S
C1100 H1096 0.929 . S
C1100 C1102 1.378 . S
C1100 C1104 1.358 . S
C1101 C1104 1.461 1_455 S
C1101 C1106 1.365 . S
C1101 N1109 1.412 1_455 S
C1102 H1093 0.930 . S
C1102 C1100 1.378 . S
C1102 C1103 1.380 . S
C1103 C1102 1.380 . S
C1103 C1105 1.420 1_655 S
C1104 C1100 1.358 . S
C1104 C1101 1.461 1_655 S
C1104 N1108 1.419 1_655 S
C1105 H1095 0.929 . S
C1105 C1103 1.420 1_455 S
C1105 N1108 1.384 . S
C1106 H1097 0.929 . S
C1106 C1098 1.378 . S
C1106 C1101 1.365 . S
C1107 H1094 0.929 . S
C1107 C1099 1.414 1_655 S
C1107 N1109 1.384 . S
N1108 C1104 1.419 1_455 S
N1108 C1105 1.384 . S
N1109 C1101 1.412 1_655 S
N1109 C1107 1.384 . S
H1110 C1116 0.930 . S
H1111 C1120 0.930 . S
H1112 C1125 0.929 . S
H1113 C1123 0.929 . S
H1114 C1118 0.929 . S
H1115 C1124 0.929 . S
C1116 H1110 0.930 . S
C1116 C1117 1.389 . S
C1116 C1124 1.378 . S
C1117 C1116 1.389 . S
C1117 C1125 1.411 1_565 S
C1118 H1114 0.929 . S
C1118 C1120 1.378 . S
C1118 C1122 1.377 . S
C1119 C1122 1.461 1_565 S
C1119 C1124 1.368 . S
C1119 N1127 1.409 1_565 S
C1120 H1111 0.930 . S
C1120 C1118 1.378 . S
C1120 C1121 1.397 . S
C1121 C1120 1.397 . S
C1121 C1123 1.403 1_545 S
C1122 C1118 1.377 . S
C1122 C1119 1.461 1_545 S
C1122 N1126 1.401 1_545 S
C1123 H1113 0.929 . S
C1123 C1121 1.403 1_565 S
C1123 N1126 1.384 . S
C1124 H1115 0.929 . S
C1124 C1116 1.378 . S
C1124 C1119 1.368 . S
C1125 H1112 0.929 . S
C1125 C1117 1.411 1_545 S
C1125 N1127 1.384 . S
N1126 C1122 1.401 1_565 S
N1126 C1123 1.384 . S
N1127 C1119 1.409 1_545 S
N1127 C1125 1.384 . S
H1128 C1134 0.930 . S
H1129 C1138 0.930 . S
H1130 C1143 0.929 . S
H1131 C1141 0.929 . S
H1132 C1136 0.929 . S
H1133 C1142 0.929 . S
C1134 H1128 0.930 . S
C1134 C1135 1.373 . S
C1134 C1142 1.378 . S
C1135 C1134 1.373 . S
C1135 C1143 1.427 1_655 S
C1136 H1132 0.929 . S
C1136 C1138 1.378 . S
C1136 C1140 1.356 . S
C1137 C1140 1.462 1_655 S
C1137 C1142 1.352 . S
C1137 N1145 1.425 1_655 S
C1138 H1129 0.930 . S
C1138 C1136 1.378 . S
C1138 C1139 1.377 . S
C1139 C1138 1.377 . S
C1139 C1141 1.423 1_455 S
C1140 C1136 1.356 . S
C1140 C1137 1.462 1_455 S
C1140 N1144 1.421 1_455 S
C1141 H1131 0.929 . S
C1141 C1139 1.423 1_655 S
C1141 N1144 1.384 . S
C1142 H1133 0.929 . S
C1142 C1134 1.378 . S
C1142 C1137 1.352 . S
C1143 H1130 0.929 . S
C1143 C1135 1.427 1_455 S
C1143 N1145 1.384 . S
N1144 C1140 1.421 1_655 S
N1144 C1141 1.384 . S
N1145 C1137 1.425 1_455 S
N1145 C1143 1.384 . S
H1146 C1152 0.930 . S
H1147 C1156 0.930 . S
H1148 C1161 0.929 . S
H1149 C1159 0.929 . S
H1150 C1154 0.929 . S
H1151 C1160 0.929 . S
C1152 H1146 0.930 . S
C1152 C1153 1.386 . S
C1152 C1160 1.378 . S
C1153 C1152 1.386 . S
C1153 C1161 1.414 1_565 S
C1154 H1150 0.929 . S
C1154 C1156 1.378 . S
C1154 C1158 1.373 . S
C1155 C1158 1.461 1_565 S
C1155 C1160 1.365 . S
C1155 N1163 1.413 1_565 S
C1156 H1147 0.930 . S
C1156 C1154 1.378 . S
C1156 C1157 1.394 . S
C1157 C1156 1.394 . S
C1157 C1159 1.406 1_545 S
C1158 C1154 1.373 . S
C1158 C1155 1.461 1_545 S
C1158 N1162 1.404 1_545 S
C1159 H1149 0.929 . S
C1159 C1157 1.406 1_565 S
C1159 N1162 1.384 . S
C1160 H1151 0.929 . S
C1160 C1152 1.378 . S
C1160 C1155 1.365 . S
C1161 H1148 0.929 . S
C1161 C1153 1.414 1_545 S
C1161 N1163 1.384 . S
N1162 C1158 1.404 1_565 S
N1162 C1159 1.384 . S
N1163 C1155 1.413 1_545 S
N1163 C1161 1.384 . S
H1164 C1170 0.930 . S
H1165 C1174 0.930 . S
H1166 C1179 0.929 . S
H1167 C1177 0.929 . S
H1168 C1172 0.929 . S
H1169 C1178 0.929 . S
C1170 H1164 0.930 . S
C1170 C1171 1.365 . S
C1170 C1178 1.378 . S
C1171 C1170 1.365 . S
C1171 C1179 1.435 1_455 S
C1172 H1168 0.929 . S
C1172 C1174 1.378 . S
C1172 C1176 1.354 . S
C1173 C1176 1.462 1_455 S
C1173 C1178 1.360 . S
C1173 N1181 1.417 1_455 S
C1174 H1165 0.930 . S
C1174 C1172 1.378 . S
C1174 C1175 1.365 1_655 S
C1175 C1174 1.365 1_455 S
C1175 C1177 1.435 . S
C1176 C1172 1.354 . S
C1176 C1173 1.462 1_655 S
C1176 N1180 1.423 1_655 S
C1177 H1167 0.929 . S
C1177 C1175 1.435 . S
C1177 N1180 1.384 . S
C1178 H1169 0.929 . S
C1178 C1170 1.378 . S
C1178 C1173 1.360 . S
C1179 H1166 0.929 . S
C1179 C1171 1.435 1_655 S
C1179 N1181 1.384 . S
N1180 C1176 1.423 1_455 S
N1180 C1177 1.384 . S
N1181 C1173 1.417 1_655 S
N1181 C1179 1.384 . S
H1182 C1188 0.930 . S
H1183 C1192 0.930 . S
H1184 C1197 0.929 . S
H1185 C1195 0.929 . S
H1186 C1190 0.929 . S
H1187 C1196 0.929 . S
C1188 H1182 0.930 . S
C1188 C1189 1.364 1_565 S
C1188 C1196 1.378 . S
C1189 C1188 1.364 1_545 S
C1189 C1197 1.436 . S
C1190 H1186 0.929 . S
C1190 C1192 1.378 . S
C1190 C1194 1.356 . S
C1191 C1194 1.462 1_565 S
C1191 C1196 1.351 . S
C1191 N1199 1.426 1_565 S
C1192 H1183 0.930 . S
C1192 C1190 1.378 . S
C1192 C1193 1.369 1_545 S
C1193 C1192 1.369 1_565 S
C1193 C1195 1.431 . S
C1194 C1190 1.356 . S
C1194 C1191 1.462 1_545 S
C1194 N1198 1.421 1_545 S
C1195 H1185 0.929 . S
C1195 C1193 1.431 . S
C1195 N1198 1.384 . S
C1196 H1187 0.929 . S
C1196 C1188 1.378 . S
C1196 C1191 1.351 . S
C1197 H1184 0.929 . S
C1197 C1189 1.436 . S
C1197 N1199 1.384 . S
N1198 C1194 1.421 1_565 S
N1198 C1195 1.384 . S
N1199 C1191 1.426 1_545 S
N1199 C1197 1.384 . S
H1200 C1206 0.930 . S
H1201 C1210 0.930 . S
H1202 C1215 0.929 . S
H1203 C1213 0.929 . S
H1204 C1208 0.929 . S
H1205 C1214 0.929 . S
C1206 H1200 0.930 . S
C1206 C1207 1.398 . S
C1206 C1214 1.378 . S
C1207 C1206 1.398 . S
C1207 C1215 1.401 1_556 S
C1208 H1204 0.929 . S
C1208 C1210 1.378 . S
C1208 C1212 1.390 . S
C1209 C1212 1.460 1_556 S
C1209 C1214 1.379 . S
C1209 N1217 1.398 1_556 S
C1210 H1201 0.930 . S
C1210 C1208 1.378 . S
C1210 C1211 1.409 . S
C1211 C1210 1.409 . S
C1211 C1213 1.390 1_554 S
C1212 C1208 1.390 . S
C1212 C1209 1.460 1_554 S
C1212 N1216 1.388 1_554 S
C1213 H1203 0.929 . S
C1213 C1211 1.390 1_556 S
C1213 N1216 1.384 . S
C1214 H1205 0.929 . S
C1214 C1206 1.378 . S
C1214 C1209 1.379 . S
C1215 H1202 0.929 . S
C1215 C1207 1.401 1_554 S
C1215 N1217 1.384 . S
N1216 C1212 1.388 1_556 S
N1216 C1213 1.384 . S
N1217 C1209 1.398 1_554 S
N1217 C1215 1.384 . S
H1218 C1224 0.930 . S
H1219 C1228 0.930 . S
H1220 C1233 0.929 . S
H1221 C1231 0.929 . S
H1222 C1226 0.929 . S
H1223 C1232 0.929 . S
C1224 H1218 0.930 . S
C1224 C1225 1.368 . S
C1224 C1232 1.378 . S
C1225 C1224 1.368 . S
C1225 C1233 1.433 1_554 S
C1226 H1222 0.929 . S
C1226 C1228 1.378 . S
C1226 C1230 1.360 . S
C1227 C1230 1.462 1_554 S
C1227 C1232 1.368 . S
C1227 N1235 1.409 1_554 S
C1228 H1219 0.930 . S
C1228 C1226 1.378 . S
C1228 C1229 1.367 1_556 S
C1229 C1228 1.367 1_554 S
C1229 C1231 1.433 . S
C1230 C1226 1.360 . S
C1230 C1227 1.462 1_556 S
C1230 N1234 1.417 1_556 S
C1231 H1221 0.929 . S
C1231 C1229 1.433 . S
C1231 N1234 1.384 . S
C1232 H1223 0.929 . S
C1232 C1224 1.378 . S
C1232 C1227 1.368 . S
C1233 H1220 0.929 . S
C1233 C1225 1.433 1_556 S
C1233 N1235 1.384 . S
N1234 C1230 1.417 1_554 S
N1234 C1231 1.384 . S
N1235 C1227 1.409 1_556 S
N1235 C1233 1.384 . S
H1236 C1242 0.930 . S
H1237 C1246 0.930 . S
H1238 C1251 0.929 . S
H1239 C1249 0.929 . S
H1240 C1244 0.929 . S
H1241 C1250 0.929 . S
C1242 H1236 0.930 . S
C1242 C1243 1.365 1_556 S
C1242 C1250 1.378 . S
C1243 C1242 1.365 1_554 S
C1243 C1251 1.435 . S
C1244 H1240 0.929 . S
C1244 C1246 1.378 . S
C1244 C1248 1.361 . S
C1245 C1248 1.462 1_556 S
C1245 C1250 1.354 . S
C1245 N1253 1.423 1_556 S
C1246 H1237 0.930 . S
C1246 C1244 1.378 . S
C1246 C1247 1.365 . S
C1247 C1246 1.365 . S
C1247 C1249 1.435 1_554 S
C1248 C1244 1.361 . S
C1248 C1245 1.462 1_554 S
C1248 N1252 1.417 1_554 S
C1249 H1239 0.929 . S
C1249 C1247 1.435 1_556 S
C1249 N1252 1.384 . S
C1250 H1241 0.929 . S
C1250 C1242 1.378 . S
C1250 C1245 1.354 . S
C1251 H1238 0.929 . S
C1251 C1243 1.435 . S
C1251 N1253 1.384 . S
N1252 C1248 1.417 1_556 S
N1252 C1249 1.384 . S
N1253 C1245 1.423 1_554 S
N1253 C1251 1.384 . S
H1254 C1260 0.930 . S
H1255 C1264 0.930 . S
H1256 C1269 0.929 . S
H1257 C1267 0.929 . S
H1258 C1262 0.929 . S
H1259 C1268 0.929 . S
C1260 H1254 0.930 . S
C1260 C1261 1.367 1_556 S
C1260 C1268 1.378 . S
C1261 C1260 1.367 1_554 S
C1261 C1269 1.433 . S
C1262 H1258 0.929 . S
C1262 C1264 1.378 . S
C1262 C1266 1.368 . S
C1263 C1266 1.462 1_556 S
C1263 C1268 1.359 . S
C1263 N1271 1.418 1_556 S
C1264 H1255 0.930 . S
C1264 C1262 1.378 . S
C1264 C1265 1.367 . S
C1265 C1264 1.367 . S
C1265 C1267 1.433 1_554 S
C1266 C1262 1.368 . S
C1266 C1263 1.462 1_554 S
C1266 N1270 1.409 1_554 S
C1267 H1257 0.929 . S
C1267 C1265 1.433 1_556 S
C1267 N1270 1.384 . S
C1268 H1259 0.929 . S
C1268 C1260 1.378 . S
C1268 C1263 1.359 . S
C1269 H1256 0.929 . S
C1269 C1261 1.433 . S
C1269 N1271 1.384 . S
N1270 C1266 1.409 1_556 S
N1270 C1267 1.384 . S
N1271 C1263 1.418 1_554 S
N1271 C1269 1.384 . S
H1272 C1278 0.930 . S
H1273 C1282 0.930 . S
H1274 C1287 0.929 . S
H1275 C1285 0.929 . S
H1276 C1280 0.929 . S
H1277 C1286 0.929 . S
C1278 H1272 0.930 . S
C1278 C1279 1.367 . S
C1278 C1286 1.378 . S
C1279 C1278 1.367 . S
C1279 C1287 1.433 . S
C1280 H1276 0.929 . S
C1280 C1282 1.378 . S
C1280 C1284 1.350 . S
C1281 C1284 1.463 . S
C1281 C1286 1.350 . S
C1281 N1289 1.427 . S
C1282 H1273 0.930 . S
C1282 C1280 1.378 . S
C1282 C1283 1.367 . S
C1283 C1282 1.367 . S
C1283 C1285 1.433 . S
C1284 C1280 1.350 . S
C1284 C1281 1.463 . S
C1284 N1288 1.427 . S
C1285 H1275 0.929 . S
C1285 C1283 1.433 . S
C1285 N1288 1.384 . S
C1286 H1277 0.929 . S
C1286 C1278 1.378 . S
C1286 C1281 1.350 . S
C1287 H1274 0.929 . S
C1287 C1279 1.433 . S
C1287 N1289 1.384 . S
N1288 C1284 1.427 . S
N1288 C1285 1.384 . S
N1289 C1281 1.427 . S
N1289 C1287 1.384 . S
H1290 C1296 0.930 . S
H1291 C1300 0.930 . S
H1292 C1305 0.929 . S
H1293 C1303 0.929 . S
H1294 C1298 0.929 . S
H1295 C1304 0.929 . S
C1296 H1290 0.930 . S
C1296 C1297 1.367 . S
C1296 C1304 1.378 . S
C1297 C1296 1.367 . S
C1297 C1305 1.433 . S
C1298 H1294 0.929 . S
C1298 C1300 1.378 . S
C1298 C1302 1.350 . S
C1299 C1302 1.463 . S
C1299 C1304 1.350 . S
C1299 N1307 1.427 . S
C1300 H1291 0.930 . S
C1300 C1298 1.378 . S
C1300 C1301 1.367 . S
C1301 C1300 1.367 . S
C1301 C1303 1.433 . S
C1302 C1298 1.350 . S
C1302 C1299 1.463 . S
C1302 N1306 1.427 . S
C1303 H1293 0.929 . S
C1303 C1301 1.433 . S
C1303 N1306 1.384 . S
C1304 H1295 0.929 . S
C1304 C1296 1.378 . S
C1304 C1299 1.350 . S
C1305 H1292 0.929 . S
C1305 C1297 1.433 . S
C1305 N1307 1.384 . S
N1306 C1302 1.427 . S
N1306 C1303 1.384 . S
N1307 C1299 1.427 . S
N1307 C1305 1.384 . S
H1308 C1314 0.930 . S
H1309 C1318 0.930 . S
H1310 C1323 0.929 . S
H1311 C1321 0.929 . S
H1312 C1316 0.929 . S
H1313 C1322 0.929 . S
C1314 H1308 0.930 . S
C1314 C1315 1.367 . S
C1314 C1322 1.378 . S
C1315 C1314 1.367 . S
C1315 C1323 1.433 . S
C1316 H1312 0.929 . S
C1316 C1318 1.378 . S
C1316 C1320 1.350 . S
C1317 C1320 1.463 . S
C1317 C1322 1.350 . S
C1317 N1325 1.427 . S
C1318 H1309 0.930 . S
C1318 C1316 1.378 . S
C1318 C1319 1.367 . S
C1319 C1318 1.367 . S
C1319 C1321 1.433 . S
C1320 C1316 1.350 . S
C1320 C1317 1.463 . S
C1320 N1324 1.427 . S
C1321 H1311 0.929 . S
C1321 C1319 1.433 . S
C1321 N1324 1.384 . S
C1322 H1313 0.929 . S
C1322 C1314 1.378 . S
C1322 C1317 1.350 . S
C1323 H1310 0.929 . S
C1323 C1315 1.433 . S
C1323 N1325 1.384 . S
N1324 C1320 1.427 . S
N1324 C1321 1.384 . S
N1325 C1317 1.427 . S
N1325 C1323 1.384 . S
H1326 C1332 0.930 . S
H1327 C1336 0.930 . S
H1328 C1341 0.929 . S
H1329 C1339 0.929 . S
H1330 C1334 0.929 . S
H1331 C1340 0.929 . S
C1332 H1326 0.930 . S
C1332 C1333 1.367 . S
C1332 C1340 1.378 . S
C1333 C1332 1.367 . S
C1333 C1341 1.433 . S
C1334 H1330 0.929 . S
C1334 C1336 1.378 . S
C1334 C1338 1.350 . S
C1335 C1338 1.463 . S
C1335 C1340 1.350 . S
C1335 N1343 1.427 . S
C1336 H1327 0.930 . S
C1336 C1334 1.378 . S
C1336 C1337 1.367 . S
C1337 C1336 1.367 . S
C1337 C1339 1.433 . S
C1338 C1334 1.350 . S
C1338 C1335 1.463 . S
C1338 N1342 1.427 . S
C1339 H1329 0.929 . S
C1339 C1337 1.433 . S
C1339 N1342 1.384 . S
C1340 H1331 0.929 . S
C1340 C1332 1.378 . S
C1340 C1335 1.350 . S
C1341 H1328 0.929 . S
C1341 C1333 1.433 . S
C1341 N1343 1.384 . S
N1342 C1338 1.427 . S
N1342 C1339 1.384 . S
N1343 C1335 1.427 . S
N1343 C1341 1.384 . S
H1344 C1350 0.930 . S
H1345 C1354 0.930 . S
H1346 C1359 0.929 . S
H1347 C1357 0.929 . S
H1348 C1352 0.929 . S
H1349 C1358 0.929 . S
C1350 H1344 0.930 . S
C1350 C1351 1.367 . S
C1350 C1358 1.378 . S
C1351 C1350 1.367 . S
C1351 C1359 1.433 . S
C1352 H1348 0.929 . S
C1352 C1354 1.378 . S
C1352 C1356 1.350 . S
C1353 C1356 1.463 . S
C1353 C1358 1.350 . S
C1353 N1361 1.427 . S
C1354 H1345 0.930 . S
C1354 C1352 1.378 . S
C1354 C1355 1.367 . S
C1355 C1354 1.367 . S
C1355 C1357 1.433 . S
C1356 C1352 1.350 . S
C1356 C1353 1.463 . S
C1356 N1360 1.427 . S
C1357 H1347 0.929 . S
C1357 C1355 1.433 . S
C1357 N1360 1.384 . S
C1358 H1349 0.929 . S
C1358 C1350 1.378 . S
C1358 C1353 1.350 . S
C1359 H1346 0.929 . S
C1359 C1351 1.433 . S
C1359 N1361 1.384 . S
N1360 C1356 1.427 . S
N1360 C1357 1.384 . S
N1361 C1353 1.427 . S
N1361 C1359 1.384 . S
H1362 C1368 0.930 . S
H1363 C1372 0.930 . S
H1364 C1377 0.929 . S
H1365 C1375 0.929 . S
H1366 C1370 0.929 . S
H1367 C1376 0.929 . S
C1368 H1362 0.930 . S
C1368 C1369 1.367 . S
C1368 C1376 1.378 . S
C1369 C1368 1.367 . S
C1369 C1377 1.433 . S
C1370 H1366 0.929 . S
C1370 C1372 1.378 . S
C1370 C1374 1.350 . S
C1371 C1374 1.463 . S
C1371 C1376 1.350 . S
C1371 N1379 1.427 . S
C1372 H1363 0.930 . S
C1372 C1370 1.378 . S
C1372 C1373 1.367 . S
C1373 C1372 1.367 . S
C1373 C1375 1.433 . S
C1374 C1370 1.350 . S
C1374 C1371 1.463 . S
C1374 N1378 1.427 . S
C1375 H1365 0.929 . S
C1375 C1373 1.433 . S
C1375 N1378 1.384 . S
C1376 H1367 0.929 . S
C1376 C1368 1.378 . S
C1376 C1371 1.350 . S
C1377 H1364 0.929 . S
C1377 C1369 1.433 . S
C1377 N1379 1.384 . S
N1378 C1374 1.427 . S
N1378 C1375 1.384 . S
N1379 C1371 1.427 . S
N1379 C1377 1.384 . S
H1380 C1386 0.930 . S
H1381 C1390 0.930 . S
H1382 C1395 0.929 . S
H1383 C1393 0.929 . S
H1384 C1388 0.929 . S
H1385 C1394 0.929 . S
C1386 H1380 0.930 . S
C1386 C1387 1.367 . S
C1386 C1394 1.378 . S
C1387 C1386 1.367 . S
C1387 C1395 1.433 . S
C1388 H1384 0.929 . S
C1388 C1390 1.378 . S
C1388 C1392 1.350 . S
C1389 C1392 1.463 . S
C1389 C1394 1.350 . S
C1389 N1397 1.427 . S
C1390 H1381 0.930 . S
C1390 C1388 1.378 . S
C1390 C1391 1.367 . S
C1391 C1390 1.367 . S
C1391 C1393 1.433 . S
C1392 C1388 1.350 . S
C1392 C1389 1.463 . S
C1392 N1396 1.427 . S
C1393 H1383 0.929 . S
C1393 C1391 1.433 . S
C1393 N1396 1.384 . S
C1394 H1385 0.929 . S
C1394 C1386 1.378 . S
C1394 C1389 1.350 . S
C1395 H1382 0.929 . S
C1395 C1387 1.433 . S
C1395 N1397 1.384 . S
N1396 C1392 1.427 . S
N1396 C1393 1.384 . S
N1397 C1389 1.427 . S
N1397 C1395 1.384 . S
H1398 C1404 0.930 . S
H1399 C1408 0.930 . S
H1400 C1413 0.929 . S
H1401 C1411 0.929 . S
H1402 C1406 0.929 . S
H1403 C1412 0.929 . S
C1404 H1398 0.930 . S
C1404 C1405 1.367 . S
C1404 C1412 1.378 . S
C1405 C1404 1.367 . S
C1405 C1413 1.433 . S
C1406 H1402 0.929 . S
C1406 C1408 1.378 . S
C1406 C1410 1.350 . S
C1407 C1410 1.463 . S
C1407 C1412 1.350 . S
C1407 N1415 1.427 . S
C1408 H1399 0.930 . S
C1408 C1406 1.378 . S
C1408 C1409 1.367 . S
C1409 C1408 1.367 . S
C1409 C1411 1.433 . S
C1410 C1406 1.350 . S
C1410 C1407 1.463 . S
C1410 N1414 1.427 . S
C1411 H1401 0.929 . S
C1411 C1409 1.433 . S
C1411 N1414 1.384 . S
C1412 H1403 0.929 . S
C1412 C1404 1.378 . S
C1412 C1407 1.350 . S
C1413 H1400 0.929 . S
C1413 C1405 1.433 . S
C1413 N1415 1.384 . S
N1414 C1410 1.427 . S
N1414 C1411 1.384 . S
N1415 C1407 1.427 . S
N1415 C1413 1.384 . S
H1416 C1422 0.930 . S
H1417 C1426 0.930 . S
H1418 C1431 0.929 . S
H1419 C1429 0.929 . S
H1420 C1424 0.929 . S
H1421 C1430 0.929 . S
C1422 H1416 0.930 . S
C1422 C1423 1.367 . S
C1422 C1430 1.378 . S
C1423 C1422 1.367 . S
C1423 C1431 1.433 . S
C1424 H1420 0.929 . S
C1424 C1426 1.378 . S
C1424 C1428 1.350 . S
C1425 C1428 1.463 . S
C1425 C1430 1.350 . S
C1425 N1433 1.427 . S
C1426 H1417 0.930 . S
C1426 C1424 1.378 . S
C1426 C1427 1.367 . S
C1427 C1426 1.367 . S
C1427 C1429 1.433 . S
C1428 C1424 1.350 . S
C1428 C1425 1.463 . S
C1428 N1432 1.427 . S
C1429 H1419 0.929 . S
C1429 C1427 1.433 . S
C1429 N1432 1.384 . S
C1430 H1421 0.929 . S
C1430 C1422 1.378 . S
C1430 C1425 1.350 . S
C1431 H1418 0.929 . S
C1431 C1423 1.433 . S
C1431 N1433 1.384 . S
N1432 C1428 1.427 . S
N1432 C1429 1.384 . S
N1433 C1425 1.427 . S
N1433 C1431 1.384 . S
H1434 C1440 0.930 . S
H1435 C1444 0.930 . S
H1436 C1449 0.929 . S
H1437 C1447 0.929 . S
H1438 C1442 0.929 . S
H1439 C1448 0.929 . S
C1440 H1434 0.930 . S
C1440 C1441 1.367 . S
C1440 C1448 1.378 . S
C1441 C1440 1.367 . S
C1441 C1449 1.433 . S
C1442 H1438 0.929 . S
C1442 C1444 1.378 . S
C1442 C1446 1.350 . S
C1443 C1446 1.463 . S
C1443 C1448 1.350 . S
C1443 N1451 1.427 . S
C1444 H1435 0.930 . S
C1444 C1442 1.378 . S
C1444 C1445 1.367 . S
C1445 C1444 1.367 . S
C1445 C1447 1.433 . S
C1446 C1442 1.350 . S
C1446 C1443 1.463 . S
C1446 N1450 1.427 . S
C1447 H1437 0.929 . S
C1447 C1445 1.433 . S
C1447 N1450 1.384 . S
C1448 H1439 0.929 . S
C1448 C1440 1.378 . S
C1448 C1443 1.350 . S
C1449 H1436 0.929 . S
C1449 C1441 1.433 . S
C1449 N1451 1.384 . S
N1450 C1446 1.427 . S
N1450 C1447 1.384 . S
N1451 C1443 1.427 . S
N1451 C1449 1.384 . S
H1452 C1458 0.930 . S
H1453 C1462 0.930 . S
H1454 C1467 0.929 . S
H1455 C1465 0.929 . S
H1456 C1460 0.929 . S
H1457 C1466 0.929 . S
C1458 H1452 0.930 . S
C1458 C1459 1.367 . S
C1458 C1466 1.378 . S
C1459 C1458 1.367 . S
C1459 C1467 1.433 . S
C1460 H1456 0.929 . S
C1460 C1462 1.378 . S
C1460 C1464 1.350 . S
C1461 C1464 1.463 . S
C1461 C1466 1.350 . S
C1461 N1469 1.427 . S
C1462 H1453 0.930 . S
C1462 C1460 1.378 . S
C1462 C1463 1.367 . S
C1463 C1462 1.367 . S
C1463 C1465 1.433 . S
C1464 C1460 1.350 . S
C1464 C1461 1.463 . S
C1464 N1468 1.427 . S
C1465 H1455 0.929 . S
C1465 C1463 1.433 . S
C1465 N1468 1.384 . S
C1466 H1457 0.929 . S
C1466 C1458 1.378 . S
C1466 C1461 1.350 . S
C1467 H1454 0.929 . S
C1467 C1459 1.433 . S
C1467 N1469 1.384 . S
N1468 C1464 1.427 . S
N1468 C1465 1.384 . S
N1469 C1461 1.427 . S
N1469 C1467 1.384 . S
H1470 C1476 0.930 . S
H1471 C1480 0.930 . S
H1472 C1485 0.929 . S
H1473 C1483 0.929 . S
H1474 C1478 0.929 . S
H1475 C1484 0.929 . S
C1476 H1470 0.930 . S
C1476 C1477 1.367 . S
C1476 C1484 1.378 . S
C1477 C1476 1.367 . S
C1477 C1485 1.433 . S
C1478 H1474 0.929 . S
C1478 C1480 1.378 . S
C1478 C1482 1.350 . S
C1479 C1482 1.463 . S
C1479 C1484 1.350 . S
C1479 N1487 1.427 . S
C1480 H1471 0.930 . S
C1480 C1478 1.378 . S
C1480 C1481 1.367 . S
C1481 C1480 1.367 . S
C1481 C1483 1.433 . S
C1482 C1478 1.350 . S
C1482 C1479 1.463 . S
C1482 N1486 1.427 . S
C1483 H1473 0.929 . S
C1483 C1481 1.433 . S
C1483 N1486 1.384 . S
C1484 H1475 0.929 . S
C1484 C1476 1.378 . S
C1484 C1479 1.350 . S
C1485 H1472 0.929 . S
C1485 C1477 1.433 . S
C1485 N1487 1.384 . S
N1486 C1482 1.427 . S
N1486 C1483 1.384 . S
N1487 C1479 1.427 . S
N1487 C1485 1.384 . S
C1063 C49 1.216 . S
C1067 C469 1.219 1_655 S
C1081 C145 1.216 . S
C1085 C401 1.218 . S
C1099 C489 1.216 . S
C1103 C225 1.220 1_655 S
C1117 C313 1.219 1_565 S
C1121 C381 1.216 . S
C1135 C636 1.215 1_655 S
C1139 C205 1.220 . S
C1153 C548 1.219 1_565 S
C1157 C293 1.216 . S
C1171 C29 1.219 . S
C1175 C673 1.215 . S
C1189 C585 1.215 . S
C1193 C108 1.220 1_565 S
C1207 C849 1.218 1_556 S
C1211 C733 1.217 . S
C1225 C753 1.216 . S
C1229 C997 1.219 . S
C1243 C812 1.216 . S
C1247 C937 1.219 . S
C1261 C900 1.216 . S
C1265 C1017 1.219 . S
C1279 C1025 1.219 . S
C1283 C557 1.220 . S
C1297 C761 1.218 . S
C1301 C665 1.219 . S
C1315 C577 1.219 . S
C1319 C841 1.217 . S
C1333 C645 1.215 . S
C1337 C929 1.224 . S
C1351 C372 1.220 . S
C1355 C821 1.211 . S
C1369 C460 1.216 . S
C1373 C909 1.218 . S
C1387 C988 1.219 . S
C1391 C409 1.216 . S
C1405 C724 1.219 . S
C1409 C497 1.214 . S
C1423 C117 1.220 . S
C1427 C233 1.218 . S
C1441 C20 1.219 . S
C1445 C137 1.217 . S
C1459 C196 1.217 . S
C1463 C321 1.220 . S
C1477 C57 1.220 . S
C1481 C284 1.213 . S
