# Generated by pormake.
# Topology ske, (6)-cn, num edge types: 1
# Building blocks:
#     Node 0, Type 0, BuildingBlock: MIFKUJ_clean_sbu_0, # of connection points: 6
#     Node 1, Type 0, BuildingBlock: MIFKUJ_clean_sbu_0, # of connection points: 6
#     Node 2, Type 0, BuildingBlock: MIFKUJ_clean_sbu_0, # of connection points: 6
#     Node 3, Type 0, BuildingBlock: MIFKUJ_clean_sbu_0, # of connection points: 6
#     Node 4, Type 0, BuildingBlock: MIFKUJ_clean_sbu_0, # of connection points: 6
#     Node 5, Type 0, BuildingBlock: MIFKUJ_clean_sbu_0, # of connection points: 6
#     Node 6, Type 0, BuildingBlock: MIFKUJ_clean_sbu_0, # of connection points: 6
#     Node 7, Type 0, BuildingBlock: MIFKUJ_clean_sbu_0, # of connection points: 6
#     Edge 8, Type (0, 0), BuildingBlock: XUDNAN_clean_linker_2, # of connection points: 2
#     Edge 9, Type (0, 0), BuildingBlock: XUDNAN_clean_linker_2, # of connection points: 2
#     Edge 10, Type (0, 0), BuildingBlock: XUDNAN_clean_linker_2, # of connection points: 2
#     Edge 11, Type (0, 0), BuildingBlock: XUDNAN_clean_linker_2, # of connection points: 2
#     Edge 12, Type (0, 0), BuildingBlock: XUDNAN_clean_linker_2, # of connection points: 2
#     Edge 13, Type (0, 0), BuildingBlock: XUDNAN_clean_linker_2, # of connection points: 2
#     Edge 14, Type (0, 0), BuildingBlock: XUDNAN_clean_linker_2, # of connection points: 2
#     Edge 15, Type (0, 0), BuildingBlock: XUDNAN_clean_linker_2, # of connection points: 2
#     Edge 16, Type (0, 0), BuildingBlock: XUDNAN_clean_linker_2, # of connection points: 2
#     Edge 17, Type (0, 0), BuildingBlock: XUDNAN_clean_linker_2, # of connection points: 2
#     Edge 18, Type (0, 0), BuildingBlock: XUDNAN_clean_linker_2, # of connection points: 2
#     Edge 19, Type (0, 0), BuildingBlock: XUDNAN_clean_linker_2, # of connection points: 2
#     Edge 20, Type (0, 0), BuildingBlock: XUDNAN_clean_linker_2, # of connection points: 2
#     Edge 21, Type (0, 0), BuildingBlock: XUDNAN_clean_linker_2, # of connection points: 2
#     Edge 22, Type (0, 0), BuildingBlock: XUDNAN_clean_linker_2, # of connection points: 2
#     Edge 23, Type (0, 0), BuildingBlock: XUDNAN_clean_linker_2, # of connection points: 2
#     Edge 24, Type (0, 0), BuildingBlock: XUDNAN_clean_linker_2, # of connection points: 2
#     Edge 25, Type (0, 0), BuildingBlock: XUDNAN_clean_linker_2, # of connection points: 2
#     Edge 26, Type (0, 0), BuildingBlock: XUDNAN_clean_linker_2, # of connection points: 2
#     Edge 27, Type (0, 0), BuildingBlock: XUDNAN_clean_linker_2, # of connection points: 2
#     Edge 28, Type (0, 0), BuildingBlock: XUDNAN_clean_linker_2, # of connection points: 2
#     Edge 29, Type (0, 0), BuildingBlock: XUDNAN_clean_linker_2, # of connection points: 2
#     Edge 30, Type (0, 0), BuildingBlock: XUDNAN_clean_linker_2, # of connection points: 2
#     Edge 31, Type (0, 0), BuildingBlock: XUDNAN_clean_linker_2, # of connection points: 2
# Relax obj value: 0.137
# Max RMSD: 0.177
# Mean RMSD: 0.156
data_MOF--net-ske--node1-MIFKUJ_clean_sbu_0--edge1-XUDNAN_clean_linker_2
_symmetry_space_group_name_H-M    P1
_symmetry_Int_Tables_number       1
_symmetry_cell_setting            triclinic
loop_
_symmetry_equiv_pos_as_xyz
'x, y, z'
_cell_length_a     71.30639
_cell_length_b     28.159027
_cell_length_c     17.358085
_cell_angle_alpha  91.118507
_cell_angle_beta   90.171136
_cell_angle_gamma 84.62896
loop_
_atom_site_label
_atom_site_type_symbol
_atom_site_fract_x
_atom_site_fract_y
_atom_site_fract_z
_atom_type_partial_charge
Zn0 Zn 0.15953 0.23728 0.59415 0.0
Zn1 Zn 0.1156 0.23832 0.44855 0.0
C2 C 0.14821 0.24454 0.75082 0.0
O3 O 0.15905 0.27971 0.74784 0.0
C4 C 0.11352 0.20276 0.29168 0.0
O5 O 0.10424 0.17049 0.32462 0.0
O6 O 0.18713 0.22863 0.62143 0.0
O7 O 0.15471 0.19165 0.50633 0.0
O8 O 0.12508 0.17661 0.4952 0.0
C9 C 0.19396 0.18658 0.63699 0.0
O10 O 0.183 0.15164 0.63202 0.0
O11 O 0.14559 0.22048 0.68959 0.0
C12 C 0.07563 0.26896 0.42777 0.0
O13 O 0.08101 0.28838 0.36427 0.0
O14 O 0.0879 0.24725 0.47091 0.0
O15 O 0.12785 0.29349 0.494 0.0
O16 O 0.15195 0.30651 0.56927 0.0
O17 O 0.11987 0.23529 0.33337 0.0
C18 C 0.14189 0.16381 0.51484 0.0
C19 C 0.1379 0.32214 0.5286 0.0
Zn20 Zn 0.89929 0.26067 0.48263 0.0
Zn21 Zn 0.85898 0.24948 0.62409 0.0
C22 C 0.89584 0.25378 0.31536 0.0
O23 O 0.90437 0.21099 0.326 0.0
C24 C 0.86719 0.29731 0.76463 0.0
O25 O 0.85411 0.32796 0.7359 0.0
O26 O 0.92739 0.25871 0.49421 0.0
O27 O 0.88796 0.3101 0.55832 0.0
O28 O 0.85747 0.30683 0.55524 0.0
C29 C 0.93773 0.28149 0.45146 0.0
O30 O 0.92996 0.30796 0.39634 0.0
O31 O 0.89205 0.28109 0.3737 0.0
C32 C 0.82991 0.21953 0.71842 0.0
O33 O 0.84445 0.1956 0.75086 0.0
O34 O 0.83253 0.24436 0.65974 0.0
O35 O 0.86807 0.18552 0.57523 0.0
O36 O 0.89233 0.19332 0.4974 0.0
O37 O 0.87311 0.26091 0.72389 0.0
C38 C 0.87171 0.32899 0.54105 0.0
C39 C 0.88097 0.16765 0.5298 0.0
Zn40 Zn 0.15066 0.73831 0.3893 0.0
Zn41 Zn 0.10867 0.74911 0.53316 0.0
C42 C 0.13849 0.70067 0.24827 0.0
O43 O 0.14803 0.66347 0.27875 0.0
C44 C 0.11114 0.74985 0.69797 0.0
O45 O 0.10581 0.79512 0.68673 0.0
O46 O 0.1777 0.72484 0.35535 0.0
O47 O 0.14793 0.80233 0.44578 0.0
O48 O 0.12362 0.80603 0.52684 0.0
C49 C 0.18939 0.7557 0.34641 0.0
O50 O 0.18437 0.80068 0.36392 0.0
O51 O 0.1363 0.73938 0.2878 0.0
C52 C 0.06862 0.74228 0.51854 0.0
O53 O 0.07414 0.69655 0.51232 0.0
O54 O 0.08094 0.77185 0.52706 0.0
O55 O 0.11469 0.69846 0.45128 0.0
O56 O 0.1453 0.68093 0.45097 0.0
O57 O 0.11339 0.72168 0.6397 0.0
C58 C 0.13741 0.82443 0.49662 0.0
C59 C 0.12887 0.66884 0.46297 0.0
Zn60 Zn 0.8479 0.76036 0.35406 0.0
Zn61 Zn 0.89473 0.74973 0.48143 0.0
C62 C 0.85779 0.73653 0.19412 0.0
O63 O 0.85517 0.693 0.2148 0.0
C64 C 0.88683 0.7356 0.64011 0.0
O65 O 0.89333 0.69207 0.61928 0.0
O66 O 0.81977 0.754 0.35018 0.0
O67 O 0.86096 0.69713 0.3925 0.0
O68 O 0.88769 0.68339 0.45839 0.0
C69 C 0.81221 0.72567 0.39423 0.0
O70 O 0.82268 0.70248 0.44621 0.0
O71 O 0.85584 0.77026 0.24408 0.0
C72 C 0.93009 0.78605 0.51298 0.0
O73 O 0.91875 0.81937 0.54713 0.0
O74 O 0.92308 0.7512 0.47951 0.0
O75 O 0.8828 0.79405 0.40279 0.0
O76 O 0.85323 0.82007 0.41473 0.0
O77 O 0.8857 0.76811 0.58986 0.0
C78 C 0.8734 0.66846 0.42471 0.0
C79 C 0.87043 0.82655 0.42542 0.0
Zn80 Zn 0.64807 0.7334 0.15232 0.0
Zn81 Zn 0.60814 0.74849 0.98726 0.0
C82 C 0.63212 0.75842 0.29659 0.0
O83 O 0.64359 0.79204 0.29038 0.0
C84 C 0.59758 0.7281 0.83333 0.0
O85 O 0.58815 0.69677 0.86798 0.0
O86 O 0.67491 0.72907 0.19267 0.0
O87 O 0.64572 0.6757 0.08477 0.0
O88 O 0.62231 0.68401 0.99935 0.0
C89 C 0.68046 0.69726 0.24079 0.0
O90 O 0.66864 0.66702 0.26256 0.0
O91 O 0.63125 0.72808 0.24209 0.0
C92 C 0.57157 0.79074 0.99554 0.0
O93 O 0.58117 0.82306 0.96438 0.0
O94 O 0.58052 0.75213 0.01759 0.0
O95 O 0.61987 0.80674 0.02448 0.0
O96 O 0.64261 0.79956 0.11258 0.0
O97 O 0.60733 0.75491 0.87337 0.0
C98 C 0.63577 0.65915 0.03164 0.0
C99 C 0.63195 0.82458 0.06731 0.0
Zn100 Zn 0.39982 0.74045 0.01393 0.0
Zn101 Zn 0.35558 0.75088 0.15545 0.0
C102 C 0.39359 0.73856 0.85001 0.0
O103 O 0.4046 0.69867 0.85566 0.0
C104 C 0.35905 0.79076 0.30655 0.0
O105 O 0.34697 0.82334 0.27633 0.0
O106 O 0.42829 0.74263 0.01189 0.0
O107 O 0.38953 0.78521 0.09809 0.0
O108 O 0.35983 0.81101 0.09898 0.0
C109 C 0.43391 0.77866 0.97879 0.0
O110 O 0.42132 0.80915 0.94667 0.0
O111 O 0.3892 0.76287 0.91095 0.0
C112 C 0.31791 0.71852 0.13609 0.0
O113 O 0.32616 0.68712 0.08723 0.0
O114 O 0.32752 0.74897 0.16865 0.0
O115 O 0.36694 0.68794 0.1058 0.0
O116 O 0.39215 0.67353 0.03042 0.0
O117 O 0.36565 0.75573 0.26432 0.0
C118 C 0.37662 0.81754 0.08154 0.0
C119 C 0.37826 0.65904 0.06665 0.0
Zn120 Zn 0.65984 0.22916 0.89372 0.0
Zn121 Zn 0.61335 0.23979 0.04789 0.0
C122 C 0.6587 0.19807 0.74152 0.0
O123 O 0.66862 0.16166 0.77259 0.0
C124 C 0.61698 0.24895 0.21136 0.0
O125 O 0.615 0.2949 0.19792 0.0
O126 O 0.68754 0.23386 0.90617 0.0
O127 O 0.64396 0.28105 0.95564 0.0
O128 O 0.62105 0.30629 0.0362 0.0
C129 C 0.69638 0.25797 0.85971 0.0
O130 O 0.68688 0.28325 0.80724 0.0
O131 O 0.65331 0.23427 0.78322 0.0
C132 C 0.57405 0.26037 0.05167 0.0
O133 O 0.57917 0.287 0.10955 0.0
O134 O 0.58668 0.23569 0.01289 0.0
O135 O 0.63211 0.20042 0.98645 0.0
O136 O 0.65457 0.16204 0.92208 0.0
O137 O 0.61627 0.21934 0.15582 0.0
C138 C 0.63463 0.31496 0.99251 0.0
C139 C 0.64061 0.16091 0.96632 0.0
Zn140 Zn 0.35535 0.23501 0.87014 0.0
Zn141 Zn 0.39735 0.25192 0.00872 0.0
C142 C 0.36075 0.28009 0.72631 0.0
O143 O 0.3482 0.31127 0.7588 0.0
C144 C 0.39344 0.24646 0.17474 0.0
O145 O 0.40216 0.20391 0.16133 0.0
O146 O 0.3283 0.2247 0.84541 0.0
O147 O 0.3668 0.173 0.91863 0.0
O148 O 0.39137 0.18396 0.99415 0.0
C149 C 0.32475 0.18398 0.81929 0.0
O150 O 0.33863 0.15009 0.81163 0.0
O151 O 0.36708 0.24391 0.76465 0.0
C152 C 0.43605 0.27362 0.03799 0.0
O153 O 0.42872 0.30191 0.09333 0.0
O154 O 0.42536 0.25014 0.99643 0.0
O155 O 0.38562 0.29686 0.92977 0.0
O156 O 0.355 0.29638 0.93534 0.0
O157 O 0.38979 0.27404 0.11816 0.0
C158 C 0.38021 0.15679 0.96234 0.0
C159 C 0.36968 0.31785 0.9472 0.0
H160 H 0.21869 0.25161 0.68062 0.0
H161 H 0.21387 0.09966 0.65222 0.0
H162 H 0.24658 0.08274 0.69757 0.0
H163 H 0.26697 0.2498 0.61916 0.0
H164 H 0.27282 0.29424 0.68909 0.0
H165 H 0.24905 0.29453 0.6536 0.0
H166 H 0.23683 0.29079 0.79359 0.0
H167 H 0.26057 0.29029 0.8295 0.0
H168 H 0.24632 0.24335 0.85473 0.0
H169 H 0.27982 0.08208 0.74382 0.0
H170 H 0.31148 0.0977 0.78977 0.0
H171 H 0.2946 0.24995 0.79219 0.0
C172 C 0.22455 0.21479 0.68359 0.0
C173 C 0.21374 0.17694 0.6626 0.0
C174 C 0.22186 0.12925 0.66799 0.0
C175 C 0.24044 0.11925 0.69368 0.0
C176 C 0.25067 0.15731 0.71428 0.0
C177 C 0.24304 0.20412 0.70977 0.0
C178 C 0.25705 0.23835 0.73626 0.0
C179 C 0.26175 0.27116 0.6706 0.0
C180 C 0.24975 0.2674 0.80778 0.0
C181 C 0.27378 0.20342 0.75592 0.0
C182 C 0.26978 0.15688 0.7426 0.0
C183 C 0.28311 0.11835 0.75476 0.0
C184 C 0.30105 0.12761 0.78079 0.0
C185 C 0.30549 0.17501 0.79484 0.0
C186 C 0.29158 0.21331 0.78268 0.0
H187 H 0.7196 0.29324 0.75381 0.0
H188 H 0.72016 0.20807 0.95986 0.0
H189 H 0.7546 0.19058 0.94795 0.0
H190 H 0.75272 0.21781 0.64979 0.0
H191 H 0.76388 0.26505 0.60506 0.0
H192 H 0.73953 0.2745 0.63323 0.0
H193 H 0.74659 0.34831 0.71612 0.0
H194 H 0.77095 0.33946 0.68746 0.0
H195 H 0.76486 0.34231 0.78825 0.0
H196 H 0.78858 0.17788 0.90862 0.0
H197 H 0.81999 0.17413 0.84815 0.0
H198 H 0.79705 0.26722 0.66749 0.0
C199 C 0.72698 0.27162 0.79729 0.0
C200 C 0.71719 0.2521 0.85786 0.0
C201 C 0.72737 0.22352 0.91303 0.0
C202 C 0.74693 0.21333 0.90673 0.0
C203 C 0.75608 0.23213 0.84515 0.0
C204 C 0.74648 0.26102 0.79179 0.0
C205 C 0.75952 0.27523 0.7294 0.0
C206 C 0.75355 0.25704 0.64968 0.0
C207 C 0.76054 0.32955 0.73041 0.0
C208 C 0.7779 0.24921 0.75537 0.0
C209 C 0.77564 0.22469 0.82237 0.0
C210 C 0.79056 0.19722 0.85645 0.0
C211 C 0.80833 0.19516 0.82148 0.0
C212 C 0.81098 0.22036 0.75309 0.0
C213 C 0.7955 0.24757 0.71975 0.0
H214 H 0.29466 0.78688 0.2126 0.0
H215 H 0.2962 0.64475 0.10984 0.0
H216 H 0.26359 0.63871 0.1535 0.0
H217 H 0.26805 0.76501 0.37933 0.0
H218 H 0.25448 0.82234 0.37988 0.0
H219 H 0.27785 0.81596 0.33959 0.0
H220 H 0.2648 0.85022 0.21059 0.0
H221 H 0.2414 0.85702 0.25064 0.0
H222 H 0.24595 0.82303 0.16251 0.0
H223 H 0.23147 0.6466 0.21344 0.0
H224 H 0.201 0.67015 0.27668 0.0
H225 H 0.21987 0.80844 0.33647 0.0
C226 C 0.28811 0.75457 0.19893 0.0
C227 C 0.29798 0.71622 0.15791 0.0
C228 C 0.28888 0.67466 0.14085 0.0
C229 C 0.27039 0.67081 0.16568 0.0
C230 C 0.26114 0.70904 0.20674 0.0
C231 C 0.26959 0.75036 0.22245 0.0
C232 C 0.25644 0.78645 0.26672 0.0
C233 C 0.2647 0.7981 0.34609 0.0
C234 C 0.25188 0.83186 0.2198 0.0
C235 C 0.23935 0.75873 0.27424 0.0
C236 C 0.24241 0.71408 0.23959 0.0
C237 C 0.22885 0.68159 0.24031 0.0
C238 C 0.21162 0.69527 0.27669 0.0
C239 C 0.20801 0.7412 0.31142 0.0
C240 C 0.22214 0.77318 0.31018 0.0
H241 H 0.70921 0.75208 0.20471 0.0
H242 H 0.69548 0.63682 0.35091 0.0
H243 H 0.72736 0.63285 0.40722 0.0
H244 H 0.7572 0.70591 0.16627 0.0
H245 H 0.7661 0.76376 0.16823 0.0
H246 H 0.7421 0.758 0.13973 0.0
H247 H 0.73039 0.82003 0.24523 0.0
H248 H 0.75436 0.82585 0.27423 0.0
H249 H 0.7374 0.81024 0.34396 0.0
H250 H 0.76055 0.64147 0.44858 0.0
H251 H 0.7933 0.66023 0.46908 0.0
H252 H 0.78589 0.76927 0.2952 0.0
C253 C 0.7129 0.726 0.24857 0.0
C254 C 0.69978 0.6948 0.27343 0.0
C255 C 0.70523 0.66112 0.33084 0.0
C256 C 0.72332 0.65861 0.36332 0.0
C257 C 0.73586 0.68995 0.33778 0.0
C258 C 0.73095 0.72288 0.28152 0.0
C259 C 0.74721 0.75203 0.26387 0.0
C260 C 0.75352 0.74445 0.17952 0.0
C261 C 0.74202 0.80518 0.28298 0.0
C262 C 0.76202 0.73024 0.31893 0.0
C263 C 0.75512 0.69464 0.36122 0.0
C264 C 0.76612 0.66927 0.41581 0.0
C265 C 0.78471 0.6803 0.42715 0.0
C266 C 0.79221 0.71628 0.3839 0.0
C267 C 0.7806 0.74163 0.32929 0.0
H268 H 0.15606 0.88948 0.4177 0.0
H269 H 0.12658 0.86995 0.63151 0.0
H270 H 0.13005 0.95331 0.6697 0.0
H271 H 0.18858 0.97692 0.49566 0.0
H272 H 0.18663 0.01123 0.40894 0.0
H273 H 0.18498 0.94771 0.40416 0.0
H274 H 0.15263 0.96162 0.3357 0.0
H275 H 0.15423 0.02491 0.34002 0.0
H276 H 0.13409 0.00039 0.38065 0.0
H277 H 0.13208 0.04024 0.67627 0.0
H278 H 0.13161 0.126 0.64783 0.0
H279 H 0.16014 0.09097 0.43161 0.0
C280 C 0.15082 0.90243 0.47348 0.0
C281 C 0.14112 0.87317 0.52178 0.0
C282 C 0.13403 0.89172 0.59348 0.0
C283 C 0.13608 0.93894 0.61604 0.0
C284 C 0.14532 0.96723 0.56645 0.0
C285 C 0.15261 0.94977 0.49664 0.0
C286 C 0.15985 0.98922 0.45007 0.0
C287 C 0.18129 0.98075 0.43908 0.0
C288 C 0.14958 -0.00567 0.37205 0.0
C289 C 0.15469 0.03186 0.50304 0.0
C290 C 0.14667 0.01813 0.57062 0.0
C291 C 0.13882 0.05139 0.62475 0.0
C292 C 0.13864 0.09991 0.60837 0.0
C293 C 0.14636 0.11454 0.53893 0.0
C294 C 0.15489 0.0803 0.48652 0.0
H295 H 0.89649 0.3977 0.54959 0.0
H296 H 0.84126 0.37065 0.46314 0.0
H297 H 0.8366 0.45314 0.41565 0.0
H298 H 0.88296 0.51467 0.61976 0.0
H299 H 0.90483 0.53799 0.59531 0.0
H300 H 0.90451 0.4757 0.61605 0.0
H301 H 0.91991 0.45299 0.48371 0.0
H302 H 0.9203 0.51529 0.46256 0.0
H303 H 0.90895 0.47656 0.39703 0.0
H304 H 0.83755 0.53949 0.38168 0.0
H305 H 0.84321 0.62411 0.36986 0.0
H306 H 0.89732 0.59564 0.48377 0.0
C307 C 0.88353 0.40891 0.51967 0.0
C308 C 0.86927 0.37767 0.50958 0.0
C309 C 0.85236 0.39398 0.47143 0.0
C310 C 0.84963 0.4407 0.44402 0.0
C311 C 0.86388 0.47077 0.45572 0.0
C312 C 0.88046 0.45561 0.49299 0.0
C313 C 0.89301 0.49586 0.50274 0.0
C314 C 0.89652 0.50668 0.58855 0.0
C315 C 0.91165 0.48448 0.45887 0.0
C316 C 0.88084 0.53617 0.46575 0.0
C317 C 0.86419 0.52084 0.43818 0.0
C318 C 0.85056 0.55187 0.4029 0.0
C319 C 0.85391 0.59996 0.39652 0.0
C320 C 0.87069 0.6168 0.42608 0.0
C321 C 0.88436 0.58409 0.46038 0.0
H322 H 0.84838 0.90343 0.48851 0.0
H323 H 0.90509 0.85863 0.40895 0.0
H324 H 0.91414 0.93981 0.4328 0.0
H325 H 0.84446 0.0167 0.40415 0.0
H326 H 0.83171 0.04741 0.48272 0.0
H327 H 0.82985 0.98477 0.46556 0.0
H328 H 0.84055 0.96687 0.6056 0.0
H329 H 0.84231 0.02957 0.62342 0.0
H330 H 0.86235 0.98709 0.64033 0.0
H331 H 0.91636 0.02696 0.45253 0.0
H332 H 0.91233 0.11382 0.47729 0.0
H333 H 0.85457 0.10311 0.5486 0.0
C334 C 0.86277 0.91057 0.47726 0.0
C335 C 0.87605 0.87442 0.44739 0.0
C336 C 0.8947 0.88539 0.43281 0.0
C337 C 0.89998 0.93154 0.44582 0.0
C338 C 0.8865 0.96649 0.4739 0.0
C339 C 0.86834 0.95656 0.49044 0.0
C340 C 0.85651 0.00119 0.51835 0.0
C341 C 0.83964 0.01321 0.46446 0.0
C342 C 0.85005 -0.00415 0.6019 0.0
C343 C 0.87076 0.03781 0.51313 0.0
C344 C 0.88795 0.01693 0.48723 0.0
C345 C 0.90305 0.04366 0.47386 0.0
C346 C 0.90058 0.09305 0.48771 0.0
C347 C 0.88318 0.11532 0.5153 0.0
C348 C 0.86812 0.0871 0.52845 0.0
H349 H 0.15521 0.59824 0.51177 0.0
H350 H 0.09662 0.62482 0.44309 0.0
H351 H 0.09241 0.53972 0.45838 0.0
H352 H 0.16436 0.48685 0.415 0.0
H353 H 0.17925 0.45984 0.48933 0.0
H354 H 0.17752 0.52347 0.47748 0.0
H355 H 0.1675 0.53635 0.62029 0.0
H356 H 0.16926 0.4727 0.63273 0.0
H357 H 0.14758 0.5083 0.65562 0.0
H358 H 0.09504 0.45167 0.47085 0.0
H359 H 0.10385 0.36579 0.48701 0.0
H360 H 0.16051 0.39542 0.5522 0.0
C361 C 0.14146 0.58619 0.50061 0.0
C362 C 0.12621 0.61824 0.47648 0.0
C363 C 0.10844 0.60111 0.46245 0.0
C364 C 0.10592 0.55277 0.47069 0.0
C365 C 0.12126 0.52208 0.49373 0.0
C366 C 0.13864 0.53804 0.50926 0.0
C367 C 0.15287 0.49723 0.53185 0.0
C368 C 0.16947 0.49152 0.47501 0.0
C369 C 0.1597 0.50406 0.61508 0.0
C370 C 0.14084 0.45573 0.52496 0.0
C371 C 0.12267 0.471 0.50284 0.0
C372 C 0.10916 0.43928 0.48904 0.0
C373 C 0.11434 0.39055 0.49806 0.0
C374 C 0.13284 0.37395 0.52118 0.0
C375 C 0.1462 0.40712 0.53538 0.0
H376 H 0.63853 0.58439 0.12804 0.0
H377 H 0.63947 0.6204 0.88671 0.0
H378 H 0.64326 0.53434 0.85071 0.0
H379 H 0.6706 0.47374 0.11951 0.0
H380 H 0.65655 0.44391 0.18614 0.0
H381 H 0.65714 0.50771 0.19297 0.0
H382 H 0.62072 0.51885 0.18238 0.0
H383 H 0.62003 0.45523 0.1755 0.0
H384 H 0.6093 0.49265 0.10133 0.0
H385 H 0.64604 0.44418 0.84189 0.0
H386 H 0.64272 0.35814 0.85909 0.0
H387 H 0.63592 0.3829 0.10505 0.0
C388 C 0.64002 0.57395 0.06779 0.0
C389 C 0.63918 0.60847 0.00997 0.0
C390 C 0.64038 0.59405 0.93154 0.0
C391 C 0.64261 0.54543 0.91077 0.0
C392 C 0.64321 0.51202 0.96923 0.0
C393 C 0.64164 0.52572 0.04611 0.0
C394 C 0.64019 0.4833 0.09714 0.0
C395 C 0.65713 0.47679 0.15218 0.0
C396 C 0.62145 0.48779 0.14166 0.0
C397 C 0.64085 0.44365 0.03697 0.0
C398 C 0.64318 0.46066 0.96376 0.0
C399 C 0.64419 0.43048 0.89891 0.0
C400 C 0.64235 0.38181 0.90914 0.0
C401 C 0.63896 0.36445 0.98322 0.0
C402 C 0.63843 0.39562 0.04782 0.0
H403 H 0.35267 0.89018 0.02164 0.0
H404 H 0.41096 0.85319 0.08668 0.0
H405 H 0.4184 0.93438 0.05564 0.0
H406 H 0.36249 0.96926 0.86209 0.0
H407 H 0.34228 0.01077 0.88333 0.0
H408 H 0.34178 0.94848 0.90452 0.0
H409 H 0.33348 0.97085 0.04661 0.0
H410 H 0.33405 0.0331 0.02601 0.0
H411 H 0.34864 0.00655 0.10166 0.0
H412 H 0.41894 0.02121 0.03057 0.0
H413 H 0.41312 0.10703 0.0046 0.0
H414 H 0.35465 0.08877 0.95166 0.0
C415 C 0.36706 0.89898 0.02817 0.0
C416 C 0.38129 0.86503 0.05581 0.0
C417 C 0.39989 0.87817 0.06437 0.0
C418 C 0.40424 0.92435 0.04725 0.0
C419 C 0.38986 0.95712 0.02131 0.0
C420 C 0.37168 0.94499 0.01095 0.0
C421 C 0.35874 0.98762 0.9848 0.0
C422 C 0.35086 0.97848 0.90387 0.0
C423 C 0.34279 0.00026 0.04327 0.0
C424 C 0.37241 0.02582 0.98379 0.0
C425 C 0.39027 0.00732 0.00512 0.0
C426 C 0.40508 0.03597 0.01278 0.0
C427 C 0.40159 0.08478 0.99825 0.0
C428 C 0.38345 0.1047 0.97565 0.0
C429 C 0.36872 0.07455 0.96776 0.0
H430 H 0.39423 0.38548 0.92372 0.0
H431 H 0.34174 0.36318 0.03717 0.0
H432 H 0.33916 0.44684 0.08551 0.0
H433 H 0.41196 0.46581 0.06685 0.0
H434 H 0.42151 0.50298 0.99626 0.0
H435 H 0.41985 0.44062 0.97497 0.0
H436 H 0.4005 0.46269 0.85208 0.0
H437 H 0.40211 0.52506 0.87294 0.0
H438 H 0.37937 0.50295 0.85996 0.0
H439 H 0.34246 0.53279 0.12185 0.0
H440 H 0.34975 0.61624 0.13514 0.0
H441 H 0.39899 0.58466 0.98977 0.0
C442 C 0.38229 0.39808 0.95942 0.0
C443 C 0.36823 0.36772 0.9773 0.0
C444 C 0.35265 0.3858 0.02288 0.0
C445 C 0.35112 0.43319 0.05078 0.0
C446 C 0.36517 0.46226 0.03172 0.0
C447 C 0.38036 0.44554 0.98643 0.0
C448 C 0.39292 0.48489 0.97055 0.0
C449 C 0.41273 0.47285 0.00418 0.0
C450 C 0.39376 0.49446 0.88373 0.0
C451 C 0.38241 0.52644 0.01391 0.0
C452 C 0.36658 0.51239 0.04956 0.0
C453 C 0.35473 0.54424 0.0936 0.0
C454 C 0.35898 0.59179 0.10049 0.0
C455 C 0.37479 0.60762 0.06248 0.0
C456 C 0.38674 0.57406 0.01925 0.0
H457 H 0.63457 0.0808 0.88526 0.0
H458 H 0.63754 0.13883 0.1173 0.0
H459 H 0.63459 0.05863 0.16988 0.0
H460 H 0.59986 -0.0053 0.92934 0.0
H461 H 0.61058 0.95065 0.86229 0.0
H462 H 0.61151 0.01321 0.84448 0.0
H463 H 0.64789 -0.00039 0.83488 0.0
H464 H 0.6471 0.93723 0.85385 0.0
H465 H 0.66115 0.97291 0.91413 0.0
H466 H 0.63585 0.97043 0.19493 0.0
H467 H 0.63611 0.88241 0.19244 0.0
H468 H 0.6295 0.8834 0.94407 0.0
C469 C 0.63414 0.07658 0.94712 0.0
C470 C 0.63602 0.11555 0.99772 0.0
C471 C 0.63565 0.10927 0.0782 0.0
C472 C 0.63417 0.06388 0.10828 0.0
C473 C 0.63271 0.02575 0.05675 0.0
C474 C 0.6322 0.03187 0.9779 0.0
C475 C 0.63072 0.98512 0.93488 0.0
C476 C 0.61205 0.98598 0.89012 0.0
C477 C 0.64773 0.97303 0.8813 0.0
C478 C 0.63105 0.95143 1.00169 0.0
C479 C 0.6324 0.97544 0.07148 0.0
C480 C 0.63439 0.95136 0.14083 0.0
C481 C 0.63469 0.90149 0.13883 0.0
C482 C 0.63269 0.87656 0.06814 0.0
C483 C 0.63079 0.90188 0.9989 0.0
H484 H 0.13119 0.26583 0.20478 0.0
H485 H 0.10233 0.13695 0.18689 0.0
H486 H 0.10715 0.13477 0.04597 0.0
H487 H 0.11286 0.31845 0.02824 0.0
H488 H 0.13454 0.34298 0.0048 0.0
H489 H 0.12848 0.33486 0.10404 0.0
H490 H 0.16021 0.28381 0.12459 0.0
H491 H 0.16638 0.29186 0.02552 0.0
H492 H 0.16629 0.23255 0.06268 0.0
H493 H 0.11561 0.14608 0.90649 0.0
H494 H 0.12757 0.16926 0.78044 0.0
H495 H 0.15083 0.29057 0.89042 0.0
C496 C 0.12584 0.23716 0.17133 0.0
C497 C 0.11637 0.20155 0.20704 0.0
C498 C 0.10961 0.16467 0.16096 0.0
C499 C 0.11226 0.16314 0.08079 0.0
C500 C 0.12165 0.19881 0.04748 0.0
C501 C 0.12833 0.23512 0.09132 0.0
C502 C 0.13819 0.26873 0.04166 0.0
C503 C 0.1279 0.31924 0.04489 0.0
C504 C 0.159 0.26924 0.06501 0.0
C505 C 0.1362 0.24537 0.96312 0.0
C506 C 0.12653 0.20524 0.96752 0.0
C507 C 0.12316 0.17753 0.90236 0.0
C508 C 0.12999 0.191 0.83097 0.0
C509 C 0.14014 0.23173 0.82539 0.0
C510 C 0.14312 0.25928 0.89254 0.0
H511 H 0.90059 0.20263 0.17898 0.0
H512 H 0.88038 0.34223 0.27229 0.0
H513 H 0.87269 0.36973 0.14068 0.0
H514 H 0.92146 0.24362 0.00507 0.0
H515 H 0.91436 0.19507 0.94596 0.0
H516 H 0.91883 0.18661 0.04722 0.0
H517 H 0.88542 0.15926 0.06443 0.0
H518 H 0.8809 0.16735 0.96321 0.0
H519 H 0.8652 0.19745 0.03345 0.0
H520 H 0.86634 0.38142 0.99926 0.0
H521 H 0.86077 0.37574 0.85917 0.0
H522 H 0.88525 0.22867 0.85713 0.0
C523 C 0.89463 0.23907 0.17184 0.0
C524 C 0.89114 0.27029 0.23621 0.0
C525 C 0.8832 0.31761 0.22409 0.0
C526 C 0.87883 0.33362 0.14945 0.0
C527 C 0.88248 0.30196 0.08736 0.0
C528 C 0.89015 0.25563 0.09774 0.0
C529 C 0.89215 0.22836 0.02145 0.0
C530 C 0.91294 0.21249 0.00391 0.0
C531 C 0.8802 0.18559 0.02061 0.0
C532 C 0.8843 0.2665 0.96653 0.0
C533 C 0.87888 0.30873 0.00576 0.0
C534 C 0.87064 0.34862 0.96793 0.0
C535 C 0.86755 0.34504 0.88823 0.0
C536 C 0.87269 0.3019 0.84686 0.0
C537 C 0.88143 0.26239 0.88671 0.0
H538 H 0.12559 0.77481 0.15411 0.0
H539 H 0.13833 0.62102 0.15635 0.0
H540 H 0.13165 0.61651 0.01717 0.0
H541 H 0.08742 0.77621 0.01078 0.0
H542 H 0.09414 0.82928 0.96597 0.0
H543 H 0.0986 0.8201 0.06707 0.0
H544 H 0.13395 0.83003 0.04547 0.0
H545 H 0.12962 0.83887 0.9443 0.0
H546 H 0.147 0.79247 0.97508 0.0
H547 H 0.12568 0.62892 0.87585 0.0
H548 H 0.11966 0.65746 0.7435 0.0
H549 H 0.11064 0.80297 0.83253 0.0
C550 C 0.12663 0.74011 0.12563 0.0
C551 C 0.13243 0.69825 0.16645 0.0
C552 C 0.13389 0.65362 0.12657 0.0
C553 C 0.13013 0.65064 0.04737 0.0
C554 C 0.12485 0.69259 0.00851 0.0
C555 C 0.12296 0.73646 0.0463 0.0
C556 C 0.11776 0.77625 0.99028 0.0
C557 C 0.09832 0.80197 0.00969 0.0
C558 C 0.13299 0.81147 0.98871 0.0
C559 C 0.11726 0.74792 0.91517 0.0
C560 C 0.12135 0.6997 0.92697 0.0
C561 C 0.12229 0.66657 0.86597 0.0
C562 C 0.11889 0.68313 0.79093 0.0
C563 C 0.11459 0.73241 0.77743 0.0
C564 C 0.11375 0.76503 0.84075 0.0
H565 H 0.8822 0.67174 0.75368 0.0
H566 H 0.87962 0.82358 0.71096 0.0
H567 H 0.87217 0.84061 0.84852 0.0
H568 H 0.8436 0.67845 0.88892 0.0
H569 H 0.85449 0.63161 0.94795 0.0
H570 H 0.85954 0.63181 0.84636 0.0
H571 H 0.89523 0.62927 0.87656 0.0
H572 H 0.89029 0.6293 0.97823 0.0
H573 H 0.90371 0.67438 0.93929 0.0
H574 H 0.86595 0.84058 0.99234 0.0
H575 H 0.85972 0.82386 0.12863 0.0
H576 H 0.86566 0.67191 0.07538 0.0
C577 C 0.88004 0.70863 0.77307 0.0
C578 C 0.88156 0.74636 0.72156 0.0
C579 C 0.8785 0.7941 0.74931 0.0
C580 C 0.87431 0.8041 0.82738 0.0
C581 C 0.87309 0.76598 0.87672 0.0
C582 C 0.87571 0.71921 0.85043 0.0
C583 C 0.87341 0.68466 0.91479 0.0
C584 C 0.85677 0.65489 0.89852 0.0
C585 C 0.89175 0.65252 0.92798 0.0
C586 C 0.86924 0.71924 0.98174 0.0
C587 C 0.86918 0.76598 0.95875 0.0
C588 C 0.86588 0.80412 0.01084 0.0
C589 C 0.8624 0.79423 0.08822 0.0
C590 C 0.86215 0.74657 0.11283 0.0
C591 C 0.86568 0.70874 0.05855 0.0
H592 H 0.6359 0.80689 0.43254 0.0
H593 H 0.60557 0.69663 0.32425 0.0
H594 H 0.59084 0.68205 0.44904 0.0
H595 H 0.64722 0.74609 0.59994 0.0
H596 H 0.64468 0.79777 0.66328 0.0
H597 H 0.65078 0.80417 0.56384 0.0
H598 H 0.622 0.86649 0.54663 0.0
H599 H 0.61586 0.86051 0.64638 0.0
H600 H 0.59883 0.85131 0.57192 0.0
H601 H 0.58198 0.674 0.58753 0.0
H602 H 0.57969 0.67314 0.72949 0.0
H603 H 0.61611 0.78823 0.7459 0.0
C604 C 0.62582 0.78045 0.4346 0.0
C605 C 0.62181 0.75304 0.36879 0.0
C606 C 0.60881 0.71814 0.37409 0.0
C607 C 0.60033 0.7097 0.44459 0.0
C608 C 0.60495 0.73661 0.50886 0.0
C609 C 0.61732 0.77144 0.5044 0.0
C610 C 0.62115 0.79267 0.58286 0.0
C611 C 0.6422 0.78466 0.60367 0.0
C612 C 0.61403 0.8459 0.58718 0.0
C613 C 0.60939 0.76343 0.63242 0.0
C614 C 0.59997 0.73168 0.58872 0.0
C615 C 0.58907 0.69915 0.62235 0.0
C616 C 0.5879 0.69885 0.70295 0.0
C617 C 0.5977 0.73065 0.74864 0.0
C618 C 0.60835 0.76367 0.71257 0.0
H619 H 0.39917 0.6927 0.70975 0.0
H620 H 0.37292 0.82284 0.81682 0.0
H621 H 0.36216 0.85138 0.68895 0.0
H622 H 0.41525 0.74629 0.53797 0.0
H623 H 0.41042 0.69687 0.47578 0.0
H624 H 0.41625 0.68687 0.57557 0.0
H625 H 0.38531 0.64697 0.59401 0.0
H626 H 0.37943 0.65665 0.49424 0.0
H627 H 0.36315 0.67902 0.56858 0.0
H628 H 0.35399 0.86533 0.54946 0.0
H629 H 0.34825 0.86296 0.40929 0.0
H630 H 0.37988 0.72367 0.39298 0.0
C631 C 0.39118 0.72725 0.70643 0.0
C632 C 0.3869 0.75554 0.77346 0.0
C633 C 0.37635 0.80047 0.76641 0.0
C634 C 0.37022 0.81705 0.69398 0.0
C635 C 0.37473 0.7883 0.62911 0.0
C636 C 0.38493 0.7443 0.63467 0.0
C637 C 0.38763 0.72001 0.55623 0.0
C638 C 0.40864 0.71206 0.53517 0.0
C639 C 0.37832 0.67288 0.55311 0.0
C640 C 0.37731 0.75716 0.50562 0.0
C641 C 0.37002 0.79633 0.54879 0.0
C642 C 0.35966 0.8349 0.51507 0.0
C643 C 0.35649 0.8332 0.4353 0.0
C644 C 0.36364 0.79319 0.3899 0.0
C645 C 0.37433 0.75492 0.42582 0.0
H646 H 0.61971 0.30191 0.34405 0.0
H647 H 0.62533 0.15636 0.25325 0.0
H648 H 0.63623 0.12742 0.3801 0.0
H649 H 0.66025 0.29226 0.4608 0.0
H650 H 0.64992 0.32873 0.53897 0.0
H651 H 0.64151 0.33815 0.44207 0.0
H652 H 0.60752 0.32643 0.4855 0.0
H653 H 0.61579 0.31744 0.58277 0.0
H654 H 0.60307 0.27291 0.53499 0.0
H655 H 0.64871 0.11489 0.51292 0.0
H656 H 0.65955 0.11893 0.6479 0.0
H657 H 0.64487 0.27218 0.65272 0.0
C658 C 0.62302 0.26391 0.35105 0.0
C659 C 0.62179 0.23144 0.28881 0.0
C660 C 0.62624 0.18195 0.30017 0.0
C661 C 0.63244 0.16511 0.37194 0.0
C662 C 0.63391 0.19819 0.43164 0.0
C663 C 0.6291 0.24644 0.42238 0.0
C664 C 0.63222 0.27449 0.49565 0.0
C665 C 0.64685 0.31052 0.48361 0.0
C666 C 0.61354 0.29926 0.52655 0.0
C667 C 0.6398 0.23447 0.54709 0.0
C668 C 0.64072 0.19078 0.50901 0.0
C669 C 0.64789 0.14879 0.54378 0.0
C670 C 0.6541 0.15148 0.62013 0.0
C671 C 0.65294 0.19582 0.66048 0.0
C672 C 0.64575 0.23775 0.62333 0.0
H673 H 0.39793 0.19389 0.30657 0.0
H674 H 0.37644 0.33322 0.22449 0.0
H675 H 0.36711 0.35789 0.35745 0.0
H676 H 0.36155 0.18267 0.44448 0.0
H677 H 0.37704 0.15305 0.51443 0.0
H678 H 0.38257 0.14699 0.41338 0.0
H679 H 0.41517 0.17764 0.43974 0.0
H680 H 0.40971 0.18396 0.54091 0.0
H681 H 0.41644 0.23434 0.4886 0.0
H682 H 0.35932 0.36663 0.49899 0.0
H683 H 0.35311 0.35859 0.63757 0.0
H684 H 0.37979 0.21357 0.6284 0.0
C685 C 0.39134 0.22971 0.31645 0.0
C686 C 0.38797 0.26166 0.25479 0.0
C687 C 0.37921 0.30809 0.27052 0.0
C688 C 0.37388 0.32246 0.34597 0.0
C689 C 0.37741 0.29005 0.40527 0.0
C690 C 0.38592 0.24462 0.39137 0.0
C691 C 0.3877 0.21627 0.46499 0.0
C692 C 0.37655 0.17214 0.45893 0.0
C693 C 0.40849 0.20224 0.48471 0.0
C694 C 0.37876 0.25276 0.52254 0.0
C695 C 0.37297 0.29512 0.48685 0.0
C696 C 0.36388 0.3337 0.52752 0.0
C697 C 0.36041 0.32875 0.60639 0.0
C698 C 0.36602 0.28553 0.64427 0.0
C699 C 0.37551 0.24726 0.60155 0.0
H700 H 0.04515 0.30559 0.34306 0.0
H701 H 0.06041 0.23393 0.55678 0.0
H702 H 0.0268 0.23166 0.58748 0.0
H703 H 1.00392 0.37809 0.41745 0.0
H704 H 0.99055 0.37232 0.33001 0.0
H705 H 0.01587 0.37018 0.32606 0.0
H706 H 0.01717 0.28822 0.25474 0.0
H707 H 0.99188 0.29003 0.25868 0.0
H708 H 0.00621 0.24 0.29764 0.0
H709 H 0.9918 0.2335 0.59249 0.0
H710 H 0.95739 0.2413 0.57293 0.0
H711 H 0.96467 0.31263 0.3569 0.0
C712 C 0.04144 0.28984 0.39666 0.0
C713 C 0.05544 0.26998 0.44751 0.0
C714 C 0.04996 0.2494 0.51686 0.0
C715 C 0.0309 0.24794 0.5349 0.0
C716 C 0.01747 0.26733 0.48319 0.0
C717 C 0.02245 0.28808 0.41566 0.0
C718 C 0.00519 0.30527 0.36924 0.0
C719 C 1.0038 0.3597 0.36019 0.0
C720 C 0.00512 0.27932 0.29042 0.0
C721 C 0.98977 0.29059 0.42103 0.0
C722 C 0.99718 0.26876 0.48642 0.0
C723 C 0.98579 0.25084 0.5418 0.0
C724 C 0.96627 0.25534 0.53005 0.0
C725 C 0.95833 0.27772 0.46354 0.0
C726 C 0.97029 0.29571 0.40862 0.0
H727 H 0.95832 0.71541 0.47831 0.0
H728 H 0.94848 0.86388 0.55184 0.0
H729 H 0.98279 0.86952 0.55746 0.0
H730 H 0.99797 0.68665 0.60082 0.0
H731 H 0.01045 0.64698 0.53164 0.0
H732 H 0.9851 0.65514 0.52984 0.0
H733 H 0.98593 0.67964 0.38685 0.0
H734 H 0.01129 0.67154 0.38821 0.0
H735 H 0.99939 0.72784 0.36004 0.0
H736 H 0.01819 0.859 0.55616 0.0
H737 H 0.05216 0.83209 0.55272 0.0
H738 H 0.039 0.68989 0.48373 0.0
C739 C 0.96338 0.74921 0.49498 0.0
C740 C 0.95071 0.78926 0.51438 0.0
C741 C 0.95791 0.83269 0.53682 0.0
C742 C 0.97738 0.83631 0.53999 0.0
C743 C 0.9895 0.79612 0.52095 0.0
C744 C 0.9828 0.75334 0.49918 0.0
C745 C 0.99885 0.71509 0.48425 0.0
C746 C 0.99804 0.67352 0.53997 0.0
C747 C 0.99886 0.69751 0.39981 0.0
C748 C 0.0156 0.74303 0.5013 0.0
C749 C 0.0099 0.78979 0.5218 0.0
C750 C 0.02283 0.82245 0.54017 0.0
C751 C 0.0421 0.80684 0.53794 0.0
C752 C 0.04827 0.75888 0.51808 0.0
C753 C 0.03476 0.72675 0.49933 0.0
H754 H 0.54593 0.72744 0.03752 0.0
H755 H 0.54987 0.87056 0.95362 0.0
H756 H 0.51543 0.88233 0.94271 0.0
H757 H 0.50825 0.69884 0.91534 0.0
H758 H 0.49647 0.66667 0.98663 0.0
H759 H 0.52158 0.66938 0.99202 0.0
H760 H 0.51829 0.70408 0.13112 0.0
H761 H 0.49317 0.70117 0.12635 0.0
H762 H 0.50255 0.75694 0.14976 0.0
H763 H 0.48114 0.87814 0.93347 0.0
H764 H 0.44815 0.8597 0.93301 0.0
H765 H 0.46517 0.71981 0.02513 0.0
C766 C 0.53951 0.76145 0.01792 0.0
C767 C 0.55069 0.79808 0.99652 0.0
C768 C 0.54171 0.84191 0.97046 0.0
C769 C 0.52211 0.84902 0.96394 0.0
C770 C 0.51154 0.81211 0.98413 0.0
C771 C 0.51981 0.76932 0.01127 0.0
C772 C 0.50496 0.7355 0.0278 0.0
C773 C 0.508 0.6899 0.97743 0.0
C774 C 0.50473 0.72374 0.11388 0.0
C775 C 0.48717 0.76587 0.00463 0.0
C776 C 0.49141 0.80988 0.97962 0.0
C777 C 0.47759 0.84394 0.95343 0.0
C778 C 0.45886 0.83297 0.95316 0.0
C779 C 0.454 0.78831 0.97909 0.0
C780 C 0.46841 0.75433 0.00527 0.0
H781 H 0.46359 0.31144 0.12426 0.0
H782 H 0.45506 0.22246 0.9223 0.0
H783 H 0.4894 0.21094 0.90187 0.0
H784 H 0.50282 0.36903 0.04946 0.0
H785 H 0.51497 0.36912 0.14066 0.0
H786 H 0.48965 0.37149 0.13817 0.0
H787 H 0.4908 0.29658 0.22312 0.0
H788 H 0.51612 0.29395 0.22581 0.0
H789 H 0.50474 0.24286 0.19236 0.0
H790 H 0.52471 0.20731 0.90515 0.0
H791 H 0.55853 0.21212 0.93221 0.0
H792 H 0.54389 0.30342 0.13172 0.0
C793 C 0.46892 0.28979 0.07543 0.0
C794 C 0.45662 0.26794 0.02483 0.0
C795 C 0.4642 0.2396 0.9619 0.0
C796 C 0.48369 0.23285 0.94971 0.0
C797 C 0.49542 0.25466 1.00092 0.0
C798 C 0.48834 0.28257 0.06249 0.0
C799 C 0.50402 0.30113 0.10997 0.0
C800 C 0.50279 0.35595 0.10949 0.0
C801 C 0.50391 0.2825 0.1927 0.0
C802 C 0.52101 0.27922 0.0655 0.0
C803 C 0.51576 0.25257 1.00278 0.0
C804 C 0.52901 0.22824 0.95393 0.0
C805 C 0.54818 0.23115 0.96978 0.0
C806 C 0.55386 0.25823 0.03391 0.0
C807 C 0.54003 0.28263 0.082 0.0
loop_
_geom_bond_atom_site_label_1
_geom_bond_atom_site_label_2
_geom_bond_distance
_geom_bond_site_symmetry_2
_ccdc_geom_bond_type
Zn0 O6 1.969 . S
Zn0 O7 1.965 . S
Zn0 O11 2.024 . S
Zn0 O16 1.969 . S
Zn1 O8 1.969 . S
Zn1 O14 1.969 . S
Zn1 O15 1.965 . S
Zn1 O17 2.024 . S
C2 O3 1.229 . S
C2 O11 1.058 . S
O3 C2 1.229 . S
C4 O5 1.229 . S
C4 O17 1.058 . S
O5 C4 1.229 . S
O6 Zn0 1.969 . S
O6 C9 1.267 . S
O7 Zn0 1.965 . S
O7 C18 1.260 . S
O8 Zn1 1.969 . S
O8 C18 1.258 . S
C9 O6 1.267 . S
C9 O10 1.228 . S
O10 C9 1.228 . S
O11 Zn0 2.024 . S
O11 C2 1.058 . S
C12 O13 1.228 . S
C12 O14 1.267 . S
O13 C12 1.228 . S
O14 Zn1 1.969 . S
O14 C12 1.267 . S
O15 Zn1 1.965 . S
O15 C19 1.260 . S
O16 Zn0 1.969 . S
O16 C19 1.258 . S
O17 Zn1 2.024 . S
O17 C4 1.058 . S
C18 O7 1.260 . S
C18 O8 1.258 . S
C19 O15 1.260 . S
C19 O16 1.258 . S
Zn20 O26 1.969 . S
Zn20 O27 1.965 . S
Zn20 O31 2.024 . S
Zn20 O36 1.969 . S
Zn21 O28 1.969 . S
Zn21 O34 1.969 . S
Zn21 O35 1.965 . S
Zn21 O37 2.024 . S
C22 O23 1.229 . S
C22 O31 1.058 . S
O23 C22 1.229 . S
C24 O25 1.229 . S
C24 O37 1.058 . S
O25 C24 1.229 . S
O26 Zn20 1.969 . S
O26 C29 1.267 . S
O27 Zn20 1.965 . S
O27 C38 1.260 . S
O28 Zn21 1.969 . S
O28 C38 1.258 . S
C29 O26 1.267 . S
C29 O30 1.228 . S
O30 C29 1.228 . S
O31 Zn20 2.024 . S
O31 C22 1.058 . S
C32 O33 1.228 . S
C32 O34 1.267 . S
O33 C32 1.228 . S
O34 Zn21 1.969 . S
O34 C32 1.267 . S
O35 Zn21 1.965 . S
O35 C39 1.260 . S
O36 Zn20 1.969 . S
O36 C39 1.258 . S
O37 Zn21 2.024 . S
O37 C24 1.058 . S
C38 O27 1.260 . S
C38 O28 1.258 . S
C39 O35 1.260 . S
C39 O36 1.258 . S
Zn40 O46 1.969 . S
Zn40 O47 1.965 . S
Zn40 O51 2.024 . S
Zn40 O56 1.969 . S
Zn41 O48 1.969 . S
Zn41 O54 1.969 . S
Zn41 O55 1.965 . S
Zn41 O57 2.024 . S
C42 O43 1.229 . S
C42 O51 1.058 . S
O43 C42 1.229 . S
C44 O45 1.229 . S
C44 O57 1.058 . S
O45 C44 1.229 . S
O46 Zn40 1.969 . S
O46 C49 1.267 . S
O47 Zn40 1.965 . S
O47 C58 1.260 . S
O48 Zn41 1.969 . S
O48 C58 1.258 . S
C49 O46 1.267 . S
C49 O50 1.228 . S
O50 C49 1.228 . S
O51 Zn40 2.024 . S
O51 C42 1.058 . S
C52 O53 1.228 . S
C52 O54 1.267 . S
O53 C52 1.228 . S
O54 Zn41 1.969 . S
O54 C52 1.267 . S
O55 Zn41 1.965 . S
O55 C59 1.260 . S
O56 Zn40 1.969 . S
O56 C59 1.258 . S
O57 Zn41 2.024 . S
O57 C44 1.058 . S
C58 O47 1.260 . S
C58 O48 1.258 . S
C59 O55 1.260 . S
C59 O56 1.258 . S
Zn60 O66 1.969 . S
Zn60 O67 1.965 . S
Zn60 O71 2.024 . S
Zn60 O76 1.969 . S
Zn61 O68 1.969 . S
Zn61 O74 1.969 . S
Zn61 O75 1.965 . S
Zn61 O77 2.024 . S
C62 O63 1.229 . S
C62 O71 1.058 . S
O63 C62 1.229 . S
C64 O65 1.229 . S
C64 O77 1.058 . S
O65 C64 1.229 . S
O66 Zn60 1.969 . S
O66 C69 1.267 . S
O67 Zn60 1.965 . S
O67 C78 1.260 . S
O68 Zn61 1.969 . S
O68 C78 1.258 . S
C69 O66 1.267 . S
C69 O70 1.228 . S
O70 C69 1.228 . S
O71 Zn60 2.024 . S
O71 C62 1.058 . S
C72 O73 1.228 . S
C72 O74 1.267 . S
O73 C72 1.228 . S
O74 Zn61 1.969 . S
O74 C72 1.267 . S
O75 Zn61 1.965 . S
O75 C79 1.260 . S
O76 Zn60 1.969 . S
O76 C79 1.258 . S
O77 Zn61 2.024 . S
O77 C64 1.058 . S
C78 O67 1.260 . S
C78 O68 1.258 . S
C79 O75 1.260 . S
C79 O76 1.258 . S
Zn80 O86 1.969 . S
Zn80 O87 1.965 . S
Zn80 O91 2.024 . S
Zn80 O96 1.969 . S
Zn81 O88 1.969 . S
Zn81 O94 1.969 . S
Zn81 O95 1.965 1_556 S
Zn81 O97 2.024 . S
C82 O83 1.229 . S
C82 O91 1.058 . S
O83 C82 1.229 . S
C84 O85 1.229 . S
C84 O97 1.058 . S
O85 C84 1.229 . S
O86 Zn80 1.969 . S
O86 C89 1.267 . S
O87 Zn80 1.965 . S
O87 C98 1.260 1_554 S
O88 Zn81 1.969 . S
O88 C98 1.258 . S
C89 O86 1.267 . S
C89 O90 1.228 . S
O90 C89 1.228 . S
O91 Zn80 2.024 . S
O91 C82 1.058 . S
C92 O93 1.228 . S
C92 O94 1.267 . S
O93 C92 1.228 . S
O94 Zn81 1.969 . S
O94 C92 1.267 . S
O95 Zn81 1.965 1_554 S
O95 C99 1.260 . S
O96 Zn80 1.969 . S
O96 C99 1.258 . S
O97 Zn81 2.024 . S
O97 C84 1.058 . S
C98 O87 1.260 1_556 S
C98 O88 1.258 . S
C99 O95 1.260 . S
C99 O96 1.258 . S
Zn100 O106 1.969 . S
Zn100 O107 1.965 1_556 S
Zn100 O111 2.024 . S
Zn100 O116 1.969 . S
Zn101 O108 1.969 . S
Zn101 O114 1.969 . S
Zn101 O115 1.965 . S
Zn101 O117 2.024 . S
C102 O103 1.229 . S
C102 O111 1.058 . S
O103 C102 1.229 . S
C104 O105 1.229 . S
C104 O117 1.058 . S
O105 C104 1.229 . S
O106 Zn100 1.969 . S
O106 C109 1.267 . S
O107 Zn100 1.965 1_554 S
O107 C118 1.260 . S
O108 Zn101 1.969 . S
O108 C118 1.258 . S
C109 O106 1.267 . S
C109 O110 1.228 . S
O110 C109 1.228 . S
O111 Zn100 2.024 . S
O111 C102 1.058 . S
C112 O113 1.228 . S
C112 O114 1.267 . S
O113 C112 1.228 . S
O114 Zn101 1.969 . S
O114 C112 1.267 . S
O115 Zn101 1.965 . S
O115 C119 1.260 1_554 S
O116 Zn100 1.969 . S
O116 C119 1.258 . S
O117 Zn101 2.024 . S
O117 C104 1.058 . S
C118 O107 1.260 . S
C118 O108 1.258 . S
C119 O115 1.260 1_556 S
C119 O116 1.258 . S
Zn120 O126 1.969 . S
Zn120 O127 1.965 . S
Zn120 O131 2.024 . S
Zn120 O136 1.969 . S
Zn121 O128 1.969 . S
Zn121 O134 1.969 . S
Zn121 O135 1.965 1_554 S
Zn121 O137 2.024 . S
C122 O123 1.229 . S
C122 O131 1.058 . S
O123 C122 1.229 . S
C124 O125 1.229 . S
C124 O137 1.058 . S
O125 C124 1.229 . S
O126 Zn120 1.969 . S
O126 C129 1.267 . S
O127 Zn120 1.965 . S
O127 C138 1.260 1_556 S
O128 Zn121 1.969 . S
O128 C138 1.258 . S
C129 O126 1.267 . S
C129 O130 1.228 . S
O130 C129 1.228 . S
O131 Zn120 2.024 . S
O131 C122 1.058 . S
C132 O133 1.228 . S
C132 O134 1.267 . S
O133 C132 1.228 . S
O134 Zn121 1.969 . S
O134 C132 1.267 . S
O135 Zn121 1.965 1_556 S
O135 C139 1.260 . S
O136 Zn120 1.969 . S
O136 C139 1.258 . S
O137 Zn121 2.024 . S
O137 C124 1.058 . S
C138 O127 1.260 1_554 S
C138 O128 1.258 . S
C139 O135 1.260 . S
C139 O136 1.258 . S
Zn140 O146 1.969 . S
Zn140 O147 1.965 . S
Zn140 O151 2.024 . S
Zn140 O156 1.969 . S
Zn141 O148 1.969 . S
Zn141 O154 1.969 . S
Zn141 O155 1.965 1_554 S
Zn141 O157 2.024 . S
C142 O143 1.229 . S
C142 O151 1.058 . S
O143 C142 1.229 . S
C144 O145 1.229 . S
C144 O157 1.058 . S
O145 C144 1.229 . S
O146 Zn140 1.969 . S
O146 C149 1.267 . S
O147 Zn140 1.965 . S
O147 C158 1.260 1_556 S
O148 Zn141 1.969 . S
O148 C158 1.258 . S
C149 O146 1.267 . S
C149 O150 1.228 . S
O150 C149 1.228 . S
O151 Zn140 2.024 . S
O151 C142 1.058 . S
C152 O153 1.228 . S
C152 O154 1.267 . S
O153 C152 1.228 . S
O154 Zn141 1.969 . S
O154 C152 1.267 . S
O155 Zn141 1.965 1_556 S
O155 C159 1.260 . S
O156 Zn140 1.969 . S
O156 C159 1.258 . S
O157 Zn141 2.024 . S
O157 C144 1.058 . S
C158 O147 1.260 1_554 S
C158 O148 1.258 . S
C159 O155 1.260 . S
C159 O156 1.258 . S
H160 C172 0.930 . S
H161 C174 0.930 . S
H162 C175 0.930 . S
H163 C179 0.959 . S
H164 C179 0.959 . S
H165 C179 0.961 . S
H166 C180 0.960 . S
H167 C180 0.961 . S
H168 C180 0.959 . S
H169 C183 0.929 . S
H170 C184 0.931 . S
H171 C186 0.930 . S
C172 H160 0.930 . S
C172 C173 1.399 . S
C172 C177 1.399 . S
C173 C172 1.399 . S
C173 C174 1.376 . S
C174 H161 0.930 . S
C174 C173 1.376 . S
C174 C175 1.388 . S
C175 H162 0.930 . S
C175 C174 1.388 . S
C175 C176 1.390 . S
C176 C175 1.390 . S
C176 C177 1.394 . S
C176 C182 1.465 . S
C177 C172 1.399 . S
C177 C176 1.394 . S
C177 C178 1.516 . S
C178 C177 1.516 . S
C178 C179 1.502 . S
C178 C180 1.561 . S
C178 C181 1.526 . S
C179 H163 0.959 . S
C179 H164 0.959 . S
C179 H165 0.961 . S
C179 C178 1.502 . S
C180 H166 0.960 . S
C180 H167 0.961 . S
C180 H168 0.959 . S
C180 C178 1.561 . S
C181 C178 1.526 . S
C181 C182 1.396 . S
C181 C186 1.390 . S
C182 C176 1.465 . S
C182 C181 1.396 . S
C182 C183 1.399 . S
C183 H169 0.929 . S
C183 C182 1.399 . S
C183 C184 1.385 . S
C184 H170 0.931 . S
C184 C183 1.385 . S
C184 C185 1.389 . S
C185 C184 1.389 . S
C185 C186 1.387 . S
C186 H171 0.930 . S
C186 C181 1.390 . S
C186 C185 1.387 . S
H187 C199 0.930 . S
H188 C201 0.930 . S
H189 C202 0.930 . S
H190 C206 0.959 . S
H191 C206 0.959 . S
H192 C206 0.961 . S
H193 C207 0.960 . S
H194 C207 0.961 . S
H195 C207 0.959 . S
H196 C210 0.929 . S
H197 C211 0.931 . S
H198 C213 0.930 . S
C199 H187 0.930 . S
C199 C200 1.399 . S
C199 C204 1.399 . S
C200 C199 1.399 . S
C200 C201 1.376 . S
C201 H188 0.930 . S
C201 C200 1.376 . S
C201 C202 1.388 . S
C202 H189 0.930 . S
C202 C201 1.388 . S
C202 C203 1.390 . S
C203 C202 1.390 . S
C203 C204 1.394 . S
C203 C209 1.465 . S
C204 C199 1.399 . S
C204 C203 1.394 . S
C204 C205 1.516 . S
C205 C204 1.516 . S
C205 C206 1.502 . S
C205 C207 1.561 . S
C205 C208 1.526 . S
C206 H190 0.959 . S
C206 H191 0.959 . S
C206 H192 0.961 . S
C206 C205 1.502 . S
C207 H193 0.960 . S
C207 H194 0.961 . S
C207 H195 0.959 . S
C207 C205 1.561 . S
C208 C205 1.526 . S
C208 C209 1.396 . S
C208 C213 1.390 . S
C209 C203 1.465 . S
C209 C208 1.396 . S
C209 C210 1.399 . S
C210 H196 0.929 . S
C210 C209 1.399 . S
C210 C211 1.385 . S
C211 H197 0.931 . S
C211 C210 1.385 . S
C211 C212 1.389 . S
C212 C211 1.389 . S
C212 C213 1.387 . S
C213 H198 0.930 . S
C213 C208 1.390 . S
C213 C212 1.387 . S
H214 C226 0.930 . S
H215 C228 0.930 . S
H216 C229 0.930 . S
H217 C233 0.959 . S
H218 C233 0.959 . S
H219 C233 0.961 . S
H220 C234 0.960 . S
H221 C234 0.961 . S
H222 C234 0.959 . S
H223 C237 0.929 . S
H224 C238 0.931 . S
H225 C240 0.930 . S
C226 H214 0.930 . S
C226 C227 1.399 . S
C226 C231 1.399 . S
C227 C226 1.399 . S
C227 C228 1.376 . S
C228 H215 0.930 . S
C228 C227 1.376 . S
C228 C229 1.388 . S
C229 H216 0.930 . S
C229 C228 1.388 . S
C229 C230 1.390 . S
C230 C229 1.390 . S
C230 C231 1.394 . S
C230 C236 1.465 . S
C231 C226 1.399 . S
C231 C230 1.394 . S
C231 C232 1.516 . S
C232 C231 1.516 . S
C232 C233 1.502 . S
C232 C234 1.561 . S
C232 C235 1.526 . S
C233 H217 0.959 . S
C233 H218 0.959 . S
C233 H219 0.961 . S
C233 C232 1.502 . S
C234 H220 0.960 . S
C234 H221 0.961 . S
C234 H222 0.959 . S
C234 C232 1.561 . S
C235 C232 1.526 . S
C235 C236 1.396 . S
C235 C240 1.390 . S
C236 C230 1.465 . S
C236 C235 1.396 . S
C236 C237 1.399 . S
C237 H223 0.929 . S
C237 C236 1.399 . S
C237 C238 1.385 . S
C238 H224 0.931 . S
C238 C237 1.385 . S
C238 C239 1.389 . S
C239 C238 1.389 . S
C239 C240 1.387 . S
C240 H225 0.930 . S
C240 C235 1.390 . S
C240 C239 1.387 . S
H241 C253 0.930 . S
H242 C255 0.930 . S
H243 C256 0.930 . S
H244 C260 0.959 . S
H245 C260 0.959 . S
H246 C260 0.961 . S
H247 C261 0.960 . S
H248 C261 0.961 . S
H249 C261 0.959 . S
H250 C264 0.929 . S
H251 C265 0.931 . S
H252 C267 0.930 . S
C253 H241 0.930 . S
C253 C254 1.399 . S
C253 C258 1.399 . S
C254 C253 1.399 . S
C254 C255 1.376 . S
C255 H242 0.930 . S
C255 C254 1.376 . S
C255 C256 1.388 . S
C256 H243 0.930 . S
C256 C255 1.388 . S
C256 C257 1.390 . S
C257 C256 1.390 . S
C257 C258 1.394 . S
C257 C263 1.465 . S
C258 C253 1.399 . S
C258 C257 1.394 . S
C258 C259 1.516 . S
C259 C258 1.516 . S
C259 C260 1.502 . S
C259 C261 1.561 . S
C259 C262 1.526 . S
C260 H244 0.959 . S
C260 H245 0.959 . S
C260 H246 0.961 . S
C260 C259 1.502 . S
C261 H247 0.960 . S
C261 H248 0.961 . S
C261 H249 0.959 . S
C261 C259 1.561 . S
C262 C259 1.526 . S
C262 C263 1.396 . S
C262 C267 1.390 . S
C263 C257 1.465 . S
C263 C262 1.396 . S
C263 C264 1.399 . S
C264 H250 0.929 . S
C264 C263 1.399 . S
C264 C265 1.385 . S
C265 H251 0.931 . S
C265 C264 1.385 . S
C265 C266 1.389 . S
C266 C265 1.389 . S
C266 C267 1.387 . S
C267 H252 0.930 . S
C267 C262 1.390 . S
C267 C266 1.387 . S
H268 C280 0.930 . S
H269 C282 0.930 . S
H270 C283 0.930 . S
H271 C287 0.959 . S
H272 C287 0.959 1_545 S
H273 C287 0.961 . S
H274 C288 0.960 1_565 S
H275 C288 0.961 . S
H276 C288 0.959 . S
H277 C291 0.929 . S
H278 C292 0.931 . S
H279 C294 0.930 . S
C280 H268 0.930 . S
C280 C281 1.399 . S
C280 C285 1.399 . S
C281 C280 1.399 . S
C281 C282 1.376 . S
C282 H269 0.930 . S
C282 C281 1.376 . S
C282 C283 1.388 . S
C283 H270 0.930 . S
C283 C282 1.388 . S
C283 C284 1.390 . S
C284 C283 1.390 . S
C284 C285 1.394 . S
C284 C290 1.465 1_565 S
C285 C280 1.399 . S
C285 C284 1.394 . S
C285 C286 1.516 . S
C286 C285 1.516 . S
C286 C287 1.502 . S
C286 C288 1.561 1_565 S
C286 C289 1.526 1_565 S
C287 H271 0.959 . S
C287 H272 0.959 1_565 S
C287 H273 0.961 . S
C287 C286 1.502 . S
C288 H274 0.960 1_545 S
C288 H275 0.961 . S
C288 H276 0.959 . S
C288 C286 1.561 1_545 S
C289 C286 1.526 1_545 S
C289 C290 1.396 . S
C289 C294 1.390 . S
C290 C284 1.465 1_545 S
C290 C289 1.396 . S
C290 C291 1.399 . S
C291 H277 0.929 . S
C291 C290 1.399 . S
C291 C292 1.385 . S
C292 H278 0.931 . S
C292 C291 1.385 . S
C292 C293 1.389 . S
C293 C292 1.389 . S
C293 C294 1.387 . S
C294 H279 0.930 . S
C294 C289 1.390 . S
C294 C293 1.387 . S
H295 C307 0.930 . S
H296 C309 0.930 . S
H297 C310 0.930 . S
H298 C314 0.959 . S
H299 C314 0.959 . S
H300 C314 0.961 . S
H301 C315 0.960 . S
H302 C315 0.961 . S
H303 C315 0.959 . S
H304 C318 0.929 . S
H305 C319 0.931 . S
H306 C321 0.930 . S
C307 H295 0.930 . S
C307 C308 1.399 . S
C307 C312 1.399 . S
C308 C307 1.399 . S
C308 C309 1.376 . S
C309 H296 0.930 . S
C309 C308 1.376 . S
C309 C310 1.388 . S
C310 H297 0.930 . S
C310 C309 1.388 . S
C310 C311 1.390 . S
C311 C310 1.390 . S
C311 C312 1.394 . S
C311 C317 1.465 . S
C312 C307 1.399 . S
C312 C311 1.394 . S
C312 C313 1.516 . S
C313 C312 1.516 . S
C313 C314 1.502 . S
C313 C315 1.561 . S
C313 C316 1.526 . S
C314 H298 0.959 . S
C314 H299 0.959 . S
C314 H300 0.961 . S
C314 C313 1.502 . S
C315 H301 0.960 . S
C315 H302 0.961 . S
C315 H303 0.959 . S
C315 C313 1.561 . S
C316 C313 1.526 . S
C316 C317 1.396 . S
C316 C321 1.390 . S
C317 C311 1.465 . S
C317 C316 1.396 . S
C317 C318 1.399 . S
C318 H304 0.929 . S
C318 C317 1.399 . S
C318 C319 1.385 . S
C319 H305 0.931 . S
C319 C318 1.385 . S
C319 C320 1.389 . S
C320 C319 1.389 . S
C320 C321 1.387 . S
C321 H306 0.930 . S
C321 C316 1.390 . S
C321 C320 1.387 . S
H322 C334 0.930 . S
H323 C336 0.930 . S
H324 C337 0.930 . S
H325 C341 0.959 . S
H326 C341 0.959 . S
H327 C341 0.961 1_565 S
H328 C342 0.981 . S
H329 C342 0.943 1_545 S
H330 C342 0.956 1_545 S
H331 C345 0.929 . S
H332 C346 0.931 . S
H333 C348 0.930 . S
C334 H322 0.930 . S
C334 C335 1.399 . S
C334 C339 1.399 . S
C335 C334 1.399 . S
C335 C336 1.376 . S
C336 H323 0.930 . S
C336 C335 1.376 . S
C336 C337 1.388 . S
C337 H324 0.930 . S
C337 C336 1.388 . S
C337 C338 1.390 . S
C338 C337 1.390 . S
C338 C339 1.394 . S
C338 C344 1.465 1_565 S
C339 C334 1.399 . S
C339 C338 1.394 . S
C339 C340 1.516 1_565 S
C340 C339 1.516 1_545 S
C340 C341 1.502 . S
C340 C342 1.561 1_545 S
C340 C343 1.526 . S
C341 H325 0.959 . S
C341 H326 0.959 . S
C341 H327 0.961 1_545 S
C341 C340 1.502 . S
C342 H328 0.981 . S
C342 H329 0.943 1_565 S
C342 H330 0.956 1_565 S
C342 C340 1.561 1_565 S
C343 C340 1.526 . S
C343 C344 1.396 . S
C343 C348 1.390 . S
C344 C338 1.465 1_545 S
C344 C343 1.396 . S
C344 C345 1.399 . S
C345 H331 0.929 . S
C345 C344 1.399 . S
C345 C346 1.385 . S
C346 H332 0.931 . S
C346 C345 1.385 . S
C346 C347 1.389 . S
C347 C346 1.389 . S
C347 C348 1.387 . S
C348 H333 0.930 . S
C348 C343 1.390 . S
C348 C347 1.387 . S
H349 C361 0.930 . S
H350 C363 0.930 . S
H351 C364 0.930 . S
H352 C368 0.959 . S
H353 C368 0.959 . S
H354 C368 0.961 . S
H355 C369 0.960 . S
H356 C369 0.961 . S
H357 C369 0.959 . S
H358 C372 0.929 . S
H359 C373 0.931 . S
H360 C375 0.930 . S
C361 H349 0.930 . S
C361 C362 1.399 . S
C361 C366 1.399 . S
C362 C361 1.399 . S
C362 C363 1.376 . S
C363 H350 0.930 . S
C363 C362 1.376 . S
C363 C364 1.388 . S
C364 H351 0.930 . S
C364 C363 1.388 . S
C364 C365 1.390 . S
C365 C364 1.390 . S
C365 C366 1.394 . S
C365 C371 1.465 . S
C366 C361 1.399 . S
C366 C365 1.394 . S
C366 C367 1.516 . S
C367 C366 1.516 . S
C367 C368 1.502 . S
C367 C369 1.561 . S
C367 C370 1.526 . S
C368 H352 0.959 . S
C368 H353 0.959 . S
C368 H354 0.961 . S
C368 C367 1.502 . S
C369 H355 0.960 . S
C369 H356 0.961 . S
C369 H357 0.959 . S
C369 C367 1.561 . S
C370 C367 1.526 . S
C370 C371 1.396 . S
C370 C375 1.390 . S
C371 C365 1.465 . S
C371 C370 1.396 . S
C371 C372 1.399 . S
C372 H358 0.929 . S
C372 C371 1.399 . S
C372 C373 1.385 . S
C373 H359 0.931 . S
C373 C372 1.385 . S
C373 C374 1.389 . S
C374 C373 1.389 . S
C374 C375 1.387 . S
C375 H360 0.930 . S
C375 C370 1.390 . S
C375 C374 1.387 . S
H376 C388 0.930 . S
H377 C390 0.930 . S
H378 C391 0.930 . S
H379 C395 0.959 . S
H380 C395 0.959 . S
H381 C395 0.961 . S
H382 C396 0.960 . S
H383 C396 0.961 . S
H384 C396 0.959 . S
H385 C399 0.929 . S
H386 C400 0.931 . S
H387 C402 0.930 . S
C388 H376 0.930 . S
C388 C389 1.399 . S
C388 C393 1.399 . S
C389 C388 1.399 . S
C389 C390 1.376 1_554 S
C390 H377 0.930 . S
C390 C389 1.376 1_556 S
C390 C391 1.388 . S
C391 H378 0.930 . S
C391 C390 1.388 . S
C391 C392 1.390 . S
C392 C391 1.390 . S
C392 C393 1.394 1_556 S
C392 C398 1.465 . S
C393 C388 1.399 . S
C393 C392 1.394 1_554 S
C393 C394 1.516 . S
C394 C393 1.516 . S
C394 C395 1.502 . S
C394 C396 1.561 . S
C394 C397 1.526 . S
C395 H379 0.959 . S
C395 H380 0.959 . S
C395 H381 0.961 . S
C395 C394 1.502 . S
C396 H382 0.960 . S
C396 H383 0.961 . S
C396 H384 0.959 . S
C396 C394 1.561 . S
C397 C394 1.526 . S
C397 C398 1.396 1_554 S
C397 C402 1.390 . S
C398 C392 1.465 . S
C398 C397 1.396 1_556 S
C398 C399 1.399 . S
C399 H385 0.929 . S
C399 C398 1.399 . S
C399 C400 1.385 . S
C400 H386 0.931 . S
C400 C399 1.385 . S
C400 C401 1.389 . S
C401 C400 1.389 . S
C401 C402 1.387 1_556 S
C402 H387 0.930 . S
C402 C397 1.390 . S
C402 C401 1.387 1_554 S
H403 C415 0.930 . S
H404 C417 0.930 . S
H405 C418 0.930 . S
H406 C422 0.959 . S
H407 C422 0.959 . S
H408 C422 0.961 1_565 S
H409 C423 0.960 1_565 S
H410 C423 0.961 . S
H411 C423 0.959 . S
H412 C426 0.929 . S
H413 C427 0.931 . S
H414 C429 0.930 . S
C415 H403 0.930 . S
C415 C416 1.399 . S
C415 C420 1.399 . S
C416 C415 1.399 . S
C416 C417 1.376 1_554 S
C417 H404 0.930 . S
C417 C416 1.376 1_556 S
C417 C418 1.388 . S
C418 H405 0.930 . S
C418 C417 1.388 . S
C418 C419 1.390 . S
C419 C418 1.390 . S
C419 C420 1.394 1_556 S
C419 C425 1.465 1_565 S
C420 C415 1.399 . S
C420 C419 1.394 1_554 S
C420 C421 1.516 1_565 S
C421 C420 1.516 1_545 S
C421 C422 1.502 . S
C421 C423 1.561 . S
C421 C424 1.526 . S
C422 H406 0.959 . S
C422 H407 0.959 . S
C422 H408 0.961 1_545 S
C422 C421 1.502 . S
C423 H409 0.960 1_545 S
C423 H410 0.961 . S
C423 H411 0.959 . S
C423 C421 1.561 . S
C424 C421 1.526 . S
C424 C425 1.396 1_554 S
C424 C429 1.390 . S
C425 C419 1.465 1_545 S
C425 C424 1.396 1_556 S
C425 C426 1.399 . S
C426 H412 0.929 . S
C426 C425 1.399 . S
C426 C427 1.385 . S
C427 H413 0.931 . S
C427 C426 1.385 . S
C427 C428 1.389 . S
C428 C427 1.389 . S
C428 C429 1.387 1_556 S
C429 H414 0.930 . S
C429 C424 1.390 . S
C429 C428 1.387 1_554 S
H430 C442 0.930 . S
H431 C444 0.930 . S
H432 C445 0.930 . S
H433 C449 0.959 . S
H434 C449 0.959 . S
H435 C449 0.961 . S
H436 C450 0.960 . S
H437 C450 0.961 . S
H438 C450 0.959 . S
H439 C453 0.929 . S
H440 C454 0.931 . S
H441 C456 0.930 . S
C442 H430 0.930 . S
C442 C443 1.399 . S
C442 C447 1.399 . S
C443 C442 1.399 . S
C443 C444 1.376 1_556 S
C444 H431 0.930 . S
C444 C443 1.376 1_554 S
C444 C445 1.388 . S
C445 H432 0.930 . S
C445 C444 1.388 . S
C445 C446 1.390 . S
C446 C445 1.390 . S
C446 C447 1.394 1_554 S
C446 C452 1.465 . S
C447 C442 1.399 . S
C447 C446 1.394 1_556 S
C447 C448 1.516 . S
C448 C447 1.516 . S
C448 C449 1.502 . S
C448 C450 1.561 . S
C448 C451 1.526 . S
C449 H433 0.959 . S
C449 H434 0.959 . S
C449 H435 0.961 . S
C449 C448 1.502 . S
C450 H436 0.960 . S
C450 H437 0.961 . S
C450 H438 0.959 . S
C450 C448 1.561 . S
C451 C448 1.526 . S
C451 C452 1.396 1_556 S
C451 C456 1.390 . S
C452 C446 1.465 . S
C452 C451 1.396 1_554 S
C452 C453 1.399 . S
C453 H439 0.929 . S
C453 C452 1.399 . S
C453 C454 1.385 . S
C454 H440 0.931 . S
C454 C453 1.385 . S
C454 C455 1.389 . S
C455 C454 1.389 . S
C455 C456 1.387 1_554 S
C456 H441 0.930 . S
C456 C451 1.390 . S
C456 C455 1.387 1_556 S
H457 C469 0.930 . S
H458 C471 0.930 . S
H459 C472 0.930 . S
H460 C476 0.960 . S
H461 C476 0.959 . S
H462 C476 0.961 1_545 S
H463 C477 0.960 1_545 S
H464 C477 0.961 . S
H465 C477 0.959 . S
H466 C480 0.929 . S
H467 C481 0.931 . S
H468 C483 0.930 . S
C469 H457 0.930 . S
C469 C470 1.399 . S
C469 C474 1.399 . S
C470 C469 1.399 . S
C470 C471 1.376 1_556 S
C471 H458 0.930 . S
C471 C470 1.376 1_554 S
C471 C472 1.388 . S
C472 H459 0.930 . S
C472 C471 1.388 . S
C472 C473 1.390 . S
C473 C472 1.390 . S
C473 C474 1.394 1_554 S
C473 C479 1.465 1_545 S
C474 C469 1.399 . S
C474 C473 1.394 1_556 S
C474 C475 1.516 1_545 S
C475 C474 1.516 1_565 S
C475 C476 1.502 . S
C475 C477 1.561 . S
C475 C478 1.526 . S
C476 H460 0.960 . S
C476 H461 0.959 . S
C476 H462 0.961 1_565 S
C476 C475 1.502 . S
C477 H463 0.960 1_565 S
C477 H464 0.961 . S
C477 H465 0.959 . S
C477 C475 1.561 . S
C478 C475 1.526 . S
C478 C479 1.396 1_556 S
C478 C483 1.390 . S
C479 C473 1.465 1_565 S
C479 C478 1.396 1_554 S
C479 C480 1.399 . S
C480 H466 0.929 . S
C480 C479 1.399 . S
C480 C481 1.385 . S
C481 H467 0.931 . S
C481 C480 1.385 . S
C481 C482 1.389 . S
C482 C481 1.389 . S
C482 C483 1.387 1_554 S
C483 H468 0.930 . S
C483 C478 1.390 . S
C483 C482 1.387 1_556 S
H484 C496 0.930 . S
H485 C498 0.930 . S
H486 C499 0.930 . S
H487 C503 0.960 . S
H488 C503 0.963 . S
H489 C503 0.957 1_554 S
H490 C504 0.960 . S
H491 C504 0.961 1_556 S
H492 C504 0.959 . S
H493 C507 0.929 . S
H494 C508 0.931 . S
H495 C510 0.930 . S
C496 H484 0.930 . S
C496 C497 1.399 . S
C496 C501 1.399 . S
C497 C496 1.399 . S
C497 C498 1.376 . S
C498 H485 0.930 . S
C498 C497 1.376 . S
C498 C499 1.388 . S
C499 H486 0.930 . S
C499 C498 1.388 . S
C499 C500 1.390 . S
C500 C499 1.390 . S
C500 C501 1.394 . S
C500 C506 1.465 1_554 S
C501 C496 1.399 . S
C501 C500 1.394 . S
C501 C502 1.516 . S
C502 C501 1.516 . S
C502 C503 1.501 1_554 S
C502 C504 1.561 . S
C502 C505 1.526 1_554 S
C503 H487 0.960 . S
C503 H488 0.963 . S
C503 H489 0.957 1_556 S
C503 C502 1.501 1_556 S
C504 H490 0.960 . S
C504 H491 0.961 1_554 S
C504 H492 0.959 . S
C504 C502 1.561 . S
C505 C502 1.526 1_556 S
C505 C506 1.396 . S
C505 C510 1.390 . S
C506 C500 1.465 1_556 S
C506 C505 1.396 . S
C506 C507 1.399 . S
C507 H493 0.929 . S
C507 C506 1.399 . S
C507 C508 1.385 . S
C508 H494 0.931 . S
C508 C507 1.385 . S
C508 C509 1.389 . S
C509 C508 1.389 . S
C509 C510 1.387 . S
C510 H495 0.930 . S
C510 C505 1.390 . S
C510 C509 1.387 . S
H511 C523 0.930 . S
H512 C525 0.930 . S
H513 C526 0.930 . S
H514 C530 0.959 . S
H515 C530 0.959 . S
H516 C530 0.961 1_554 S
H517 C531 0.960 . S
H518 C531 0.961 1_556 S
H519 C531 0.959 . S
H520 C534 0.929 . S
H521 C535 0.931 . S
H522 C537 0.930 . S
C523 H511 0.930 . S
C523 C524 1.399 . S
C523 C528 1.399 . S
C524 C523 1.399 . S
C524 C525 1.376 . S
C525 H512 0.930 . S
C525 C524 1.376 . S
C525 C526 1.388 . S
C526 H513 0.930 . S
C526 C525 1.388 . S
C526 C527 1.390 . S
C527 C526 1.390 . S
C527 C528 1.394 . S
C527 C533 1.465 1_554 S
C528 C523 1.399 . S
C528 C527 1.394 . S
C528 C529 1.516 . S
C529 C528 1.516 . S
C529 C530 1.502 1_554 S
C529 C531 1.561 . S
C529 C532 1.526 1_554 S
C530 H514 0.959 . S
C530 H515 0.959 . S
C530 H516 0.961 1_556 S
C530 C529 1.502 1_556 S
C531 H517 0.960 . S
C531 H518 0.961 1_554 S
C531 H519 0.959 . S
C531 C529 1.561 . S
C532 C529 1.526 1_556 S
C532 C533 1.396 . S
C532 C537 1.390 . S
C533 C527 1.465 1_556 S
C533 C532 1.396 . S
C533 C534 1.399 . S
C534 H520 0.929 . S
C534 C533 1.399 . S
C534 C535 1.385 . S
C535 H521 0.931 . S
C535 C534 1.385 . S
C535 C536 1.389 . S
C536 C535 1.389 . S
C536 C537 1.387 . S
C537 H522 0.930 . S
C537 C532 1.390 . S
C537 C536 1.387 . S
H538 C550 0.930 . S
H539 C552 0.930 . S
H540 C553 0.930 . S
H541 C557 0.959 . S
H542 C557 0.959 1_556 S
H543 C557 0.961 . S
H544 C558 0.960 1_554 S
H545 C558 0.961 . S
H546 C558 0.959 . S
H547 C561 0.929 . S
H548 C562 0.931 . S
H549 C564 0.930 . S
C550 H538 0.930 . S
C550 C551 1.399 . S
C550 C555 1.399 . S
C551 C550 1.399 . S
C551 C552 1.376 . S
C552 H539 0.930 . S
C552 C551 1.376 . S
C552 C553 1.388 . S
C553 H540 0.930 . S
C553 C552 1.388 . S
C553 C554 1.390 . S
C554 C553 1.390 . S
C554 C555 1.394 . S
C554 C560 1.465 1_554 S
C555 C550 1.399 . S
C555 C554 1.394 . S
C555 C556 1.516 1_554 S
C556 C555 1.516 1_556 S
C556 C557 1.502 1_556 S
C556 C558 1.561 . S
C556 C559 1.526 . S
C557 H541 0.959 . S
C557 H542 0.959 1_554 S
C557 H543 0.961 . S
C557 C556 1.502 1_554 S
C558 H544 0.960 1_556 S
C558 H545 0.961 . S
C558 H546 0.959 . S
C558 C556 1.561 . S
C559 C556 1.526 . S
C559 C560 1.396 . S
C559 C564 1.390 . S
C560 C554 1.465 1_556 S
C560 C559 1.396 . S
C560 C561 1.399 . S
C561 H547 0.929 . S
C561 C560 1.399 . S
C561 C562 1.385 . S
C562 H548 0.931 . S
C562 C561 1.385 . S
C562 C563 1.389 . S
C563 C562 1.389 . S
C563 C564 1.387 . S
C564 H549 0.930 . S
C564 C559 1.390 . S
C564 C563 1.387 . S
H565 C577 0.930 . S
H566 C579 0.930 . S
H567 C580 0.930 . S
H568 C584 0.959 . S
H569 C584 0.959 1_554 S
H570 C584 0.961 . S
H571 C585 0.960 . S
H572 C585 0.961 1_554 S
H573 C585 0.959 . S
H574 C588 0.929 . S
H575 C589 0.931 . S
H576 C591 0.930 . S
C577 H565 0.930 . S
C577 C578 1.399 . S
C577 C582 1.399 . S
C578 C577 1.399 . S
C578 C579 1.376 . S
C579 H566 0.930 . S
C579 C578 1.376 . S
C579 C580 1.388 . S
C580 H567 0.930 . S
C580 C579 1.388 . S
C580 C581 1.390 . S
C581 C580 1.390 . S
C581 C582 1.394 . S
C581 C587 1.465 1_556 S
C582 C577 1.399 . S
C582 C581 1.394 . S
C582 C583 1.516 . S
C583 C582 1.516 . S
C583 C584 1.502 . S
C583 C585 1.561 . S
C583 C586 1.526 1_556 S
C584 H568 0.959 . S
C584 H569 0.959 1_556 S
C584 H570 0.961 . S
C584 C583 1.502 . S
C585 H571 0.960 . S
C585 H572 0.961 1_556 S
C585 H573 0.959 . S
C585 C583 1.561 . S
C586 C583 1.526 1_554 S
C586 C587 1.396 . S
C586 C591 1.390 . S
C587 C581 1.465 1_554 S
C587 C586 1.396 . S
C587 C588 1.399 . S
C588 H574 0.929 . S
C588 C587 1.399 . S
C588 C589 1.385 . S
C589 H575 0.931 . S
C589 C588 1.385 . S
C589 C590 1.389 . S
C590 C589 1.389 . S
C590 C591 1.387 . S
C591 H576 0.930 . S
C591 C586 1.390 . S
C591 C590 1.387 . S
H592 C604 0.930 . S
H593 C606 0.930 . S
H594 C607 0.930 . S
H595 C611 0.959 . S
H596 C611 0.959 . S
H597 C611 0.961 . S
H598 C612 0.960 . S
H599 C612 0.961 . S
H600 C612 0.959 . S
H601 C615 0.929 . S
H602 C616 0.931 . S
H603 C618 0.930 . S
C604 H592 0.930 . S
C604 C605 1.399 . S
C604 C609 1.399 . S
C605 C604 1.399 . S
C605 C606 1.376 . S
C606 H593 0.930 . S
C606 C605 1.376 . S
C606 C607 1.388 . S
C607 H594 0.930 . S
C607 C606 1.388 . S
C607 C608 1.390 . S
C608 C607 1.390 . S
C608 C609 1.394 . S
C608 C614 1.465 . S
C609 C604 1.399 . S
C609 C608 1.394 . S
C609 C610 1.516 . S
C610 C609 1.516 . S
C610 C611 1.502 . S
C610 C612 1.561 . S
C610 C613 1.526 . S
C611 H595 0.959 . S
C611 H596 0.959 . S
C611 H597 0.961 . S
C611 C610 1.502 . S
C612 H598 0.960 . S
C612 H599 0.961 . S
C612 H600 0.959 . S
C612 C610 1.561 . S
C613 C610 1.526 . S
C613 C614 1.396 . S
C613 C618 1.390 . S
C614 C608 1.465 . S
C614 C613 1.396 . S
C614 C615 1.399 . S
C615 H601 0.929 . S
C615 C614 1.399 . S
C615 C616 1.385 . S
C616 H602 0.931 . S
C616 C615 1.385 . S
C616 C617 1.389 . S
C617 C616 1.389 . S
C617 C618 1.387 . S
C618 H603 0.930 . S
C618 C613 1.390 . S
C618 C617 1.387 . S
H619 C631 0.930 . S
H620 C633 0.930 . S
H621 C634 0.930 . S
H622 C638 0.959 . S
H623 C638 0.959 . S
H624 C638 0.961 . S
H625 C639 0.960 . S
H626 C639 0.961 . S
H627 C639 0.959 . S
H628 C642 0.929 . S
H629 C643 0.931 . S
H630 C645 0.930 . S
C631 H619 0.930 . S
C631 C632 1.399 . S
C631 C636 1.399 . S
C632 C631 1.399 . S
C632 C633 1.376 . S
C633 H620 0.930 . S
C633 C632 1.376 . S
C633 C634 1.388 . S
C634 H621 0.930 . S
C634 C633 1.388 . S
C634 C635 1.390 . S
C635 C634 1.390 . S
C635 C636 1.394 . S
C635 C641 1.465 . S
C636 C631 1.399 . S
C636 C635 1.394 . S
C636 C637 1.516 . S
C637 C636 1.516 . S
C637 C638 1.502 . S
C637 C639 1.561 . S
C637 C640 1.526 . S
C638 H622 0.959 . S
C638 H623 0.959 . S
C638 H624 0.961 . S
C638 C637 1.502 . S
C639 H625 0.960 . S
C639 H626 0.961 . S
C639 H627 0.959 . S
C639 C637 1.561 . S
C640 C637 1.526 . S
C640 C641 1.396 . S
C640 C645 1.390 . S
C641 C635 1.465 . S
C641 C640 1.396 . S
C641 C642 1.399 . S
C642 H628 0.929 . S
C642 C641 1.399 . S
C642 C643 1.385 . S
C643 H629 0.931 . S
C643 C642 1.385 . S
C643 C644 1.389 . S
C644 C643 1.389 . S
C644 C645 1.387 . S
C645 H630 0.930 . S
C645 C640 1.390 . S
C645 C644 1.387 . S
H646 C658 0.930 . S
H647 C660 0.930 . S
H648 C661 0.930 . S
H649 C665 0.959 . S
H650 C665 0.959 . S
H651 C665 0.961 . S
H652 C666 0.960 . S
H653 C666 0.961 . S
H654 C666 0.959 . S
H655 C669 0.929 . S
H656 C670 0.931 . S
H657 C672 0.930 . S
C658 H646 0.930 . S
C658 C659 1.399 . S
C658 C663 1.399 . S
C659 C658 1.399 . S
C659 C660 1.376 . S
C660 H647 0.930 . S
C660 C659 1.376 . S
C660 C661 1.388 . S
C661 H648 0.930 . S
C661 C660 1.388 . S
C661 C662 1.390 . S
C662 C661 1.390 . S
C662 C663 1.394 . S
C662 C668 1.465 . S
C663 C658 1.399 . S
C663 C662 1.394 . S
C663 C664 1.516 . S
C664 C663 1.516 . S
C664 C665 1.502 . S
C664 C666 1.561 . S
C664 C667 1.526 . S
C665 H649 0.959 . S
C665 H650 0.959 . S
C665 H651 0.961 . S
C665 C664 1.502 . S
C666 H652 0.960 . S
C666 H653 0.961 . S
C666 H654 0.959 . S
C666 C664 1.561 . S
C667 C664 1.526 . S
C667 C668 1.396 . S
C667 C672 1.390 . S
C668 C662 1.465 . S
C668 C667 1.396 . S
C668 C669 1.399 . S
C669 H655 0.929 . S
C669 C668 1.399 . S
C669 C670 1.385 . S
C670 H656 0.931 . S
C670 C669 1.385 . S
C670 C671 1.389 . S
C671 C670 1.389 . S
C671 C672 1.387 . S
C672 H657 0.930 . S
C672 C667 1.390 . S
C672 C671 1.387 . S
H673 C685 0.930 . S
H674 C687 0.930 . S
H675 C688 0.930 . S
H676 C692 0.959 . S
H677 C692 0.959 . S
H678 C692 0.961 . S
H679 C693 0.960 . S
H680 C693 0.961 . S
H681 C693 0.959 . S
H682 C696 0.929 . S
H683 C697 0.931 . S
H684 C699 0.930 . S
C685 H673 0.930 . S
C685 C686 1.399 . S
C685 C690 1.399 . S
C686 C685 1.399 . S
C686 C687 1.376 . S
C687 H674 0.930 . S
C687 C686 1.376 . S
C687 C688 1.388 . S
C688 H675 0.930 . S
C688 C687 1.388 . S
C688 C689 1.390 . S
C689 C688 1.390 . S
C689 C690 1.394 . S
C689 C695 1.465 . S
C690 C685 1.399 . S
C690 C689 1.394 . S
C690 C691 1.516 . S
C691 C690 1.516 . S
C691 C692 1.502 . S
C691 C693 1.561 . S
C691 C694 1.526 . S
C692 H676 0.959 . S
C692 H677 0.959 . S
C692 H678 0.961 . S
C692 C691 1.502 . S
C693 H679 0.960 . S
C693 H680 0.961 . S
C693 H681 0.959 . S
C693 C691 1.561 . S
C694 C691 1.526 . S
C694 C695 1.396 . S
C694 C699 1.390 . S
C695 C689 1.465 . S
C695 C694 1.396 . S
C695 C696 1.399 . S
C696 H682 0.929 . S
C696 C695 1.399 . S
C696 C697 1.385 . S
C697 H683 0.931 . S
C697 C696 1.385 . S
C697 C698 1.389 . S
C698 C697 1.389 . S
C698 C699 1.387 . S
C699 H684 0.930 . S
C699 C694 1.390 . S
C699 C698 1.387 . S
H700 C712 0.930 . S
H701 C714 0.930 . S
H702 C715 0.930 . S
H703 C719 0.959 . S
H704 C719 0.959 . S
H705 C719 0.961 1_455 S
H706 C720 0.974 . S
H707 C720 0.948 1_655 S
H708 C720 0.960 . S
H709 C723 0.929 . S
H710 C724 0.931 . S
H711 C726 0.930 . S
C712 H700 0.930 . S
C712 C713 1.399 . S
C712 C717 1.399 . S
C713 C712 1.399 . S
C713 C714 1.376 . S
C714 H701 0.930 . S
C714 C713 1.376 . S
C714 C715 1.388 . S
C715 H702 0.930 . S
C715 C714 1.388 . S
C715 C716 1.390 . S
C716 C715 1.390 . S
C716 C717 1.394 . S
C716 C722 1.465 1_455 S
C717 C712 1.399 . S
C717 C716 1.394 . S
C717 C718 1.516 1_455 S
C718 C717 1.516 1_655 S
C718 C719 1.502 . S
C718 C720 1.561 1_655 S
C718 C721 1.526 . S
C719 H703 0.959 . S
C719 H704 0.959 . S
C719 H705 0.961 1_655 S
C719 C718 1.502 . S
C720 H706 0.974 . S
C720 H707 0.948 1_455 S
C720 H708 0.960 . S
C720 C718 1.561 1_455 S
C721 C718 1.526 . S
C721 C722 1.396 . S
C721 C726 1.390 . S
C722 C716 1.465 1_655 S
C722 C721 1.396 . S
C722 C723 1.399 . S
C723 H709 0.929 . S
C723 C722 1.399 . S
C723 C724 1.385 . S
C724 H710 0.931 . S
C724 C723 1.385 . S
C724 C725 1.389 . S
C725 C724 1.389 . S
C725 C726 1.387 . S
C726 H711 0.930 . S
C726 C721 1.390 . S
C726 C725 1.387 . S
H727 C739 0.930 . S
H728 C741 0.930 . S
H729 C742 0.930 . S
H730 C746 0.959 . S
H731 C746 0.959 . S
H732 C746 0.961 1_655 S
H733 C747 0.942 1_655 S
H734 C747 0.977 . S
H735 C747 0.956 . S
H736 C750 0.929 . S
H737 C751 0.931 . S
H738 C753 0.930 . S
C739 H727 0.930 . S
C739 C740 1.399 . S
C739 C744 1.399 . S
C740 C739 1.399 . S
C740 C741 1.376 . S
C741 H728 0.930 . S
C741 C740 1.376 . S
C741 C742 1.388 . S
C742 H729 0.930 . S
C742 C741 1.388 . S
C742 C743 1.390 . S
C743 C742 1.390 . S
C743 C744 1.394 . S
C743 C749 1.465 1_655 S
C744 C739 1.399 . S
C744 C743 1.394 . S
C744 C745 1.470 1_655 S
C745 C744 1.470 1_455 S
C745 C746 1.502 . S
C745 C747 1.562 . S
C745 C748 1.574 . S
C746 H730 0.959 . S
C746 H731 0.959 . S
C746 H732 0.961 1_455 S
C746 C745 1.502 . S
C747 H733 0.942 1_455 S
C747 H734 0.977 . S
C747 H735 0.956 . S
C747 C745 1.562 . S
C748 C745 1.574 . S
C748 C749 1.396 . S
C748 C753 1.390 . S
C749 C743 1.465 1_455 S
C749 C748 1.396 . S
C749 C750 1.399 . S
C750 H736 0.929 . S
C750 C749 1.399 . S
C750 C751 1.385 . S
C751 H737 0.931 . S
C751 C750 1.385 . S
C751 C752 1.389 . S
C752 C751 1.389 . S
C752 C753 1.387 . S
C753 H738 0.930 . S
C753 C748 1.390 . S
C753 C752 1.387 . S
H754 C766 0.930 1_554 S
H755 C768 0.930 . S
H756 C769 0.930 . S
H757 C773 0.959 . S
H758 C773 0.959 . S
H759 C773 0.961 . S
H760 C774 0.960 . S
H761 C774 0.961 . S
H762 C774 0.959 . S
H763 C777 0.929 . S
H764 C778 0.931 . S
H765 C780 0.930 1_554 S
C766 H754 0.930 1_556 S
C766 C767 1.399 . S
C766 C771 1.399 . S
C767 C766 1.399 . S
C767 C768 1.376 . S
C768 H755 0.930 . S
C768 C767 1.376 . S
C768 C769 1.388 . S
C769 H756 0.930 . S
C769 C768 1.388 . S
C769 C770 1.390 . S
C770 C769 1.390 . S
C770 C771 1.394 . S
C770 C776 1.465 . S
C771 C766 1.399 . S
C771 C770 1.394 . S
C771 C772 1.516 1_556 S
C772 C771 1.516 1_554 S
C772 C773 1.502 . S
C772 C774 1.561 . S
C772 C775 1.526 1_554 S
C773 H757 0.959 . S
C773 H758 0.959 . S
C773 H759 0.961 . S
C773 C772 1.502 . S
C774 H760 0.960 . S
C774 H761 0.961 . S
C774 H762 0.959 . S
C774 C772 1.561 . S
C775 C772 1.526 1_556 S
C775 C776 1.396 . S
C775 C780 1.390 . S
C776 C770 1.465 . S
C776 C775 1.396 . S
C776 C777 1.399 . S
C777 H763 0.929 . S
C777 C776 1.399 . S
C777 C778 1.385 . S
C778 H764 0.931 . S
C778 C777 1.385 . S
C778 C779 1.389 . S
C779 C778 1.389 . S
C779 C780 1.387 . S
C780 H765 0.930 1_556 S
C780 C775 1.390 . S
C780 C779 1.387 . S
H781 C793 0.930 . S
H782 C795 0.930 1_556 S
H783 C796 0.930 1_556 S
H784 C800 0.959 . S
H785 C800 0.959 . S
H786 C800 0.961 . S
H787 C801 0.960 . S
H788 C801 0.961 . S
H789 C801 0.959 . S
H790 C804 0.929 1_556 S
H791 C805 0.931 1_556 S
H792 C807 0.930 . S
C793 H781 0.930 . S
C793 C794 1.399 . S
C793 C798 1.399 . S
C794 C793 1.399 . S
C794 C795 1.376 . S
C795 H782 0.930 1_554 S
C795 C794 1.376 . S
C795 C796 1.388 . S
C796 H783 0.930 1_554 S
C796 C795 1.388 . S
C796 C797 1.390 . S
C797 C796 1.390 . S
C797 C798 1.394 . S
C797 C803 1.465 . S
C798 C793 1.399 . S
C798 C797 1.394 . S
C798 C799 1.516 . S
C799 C798 1.516 . S
C799 C800 1.502 . S
C799 C801 1.561 . S
C799 C802 1.526 . S
C800 H784 0.959 . S
C800 H785 0.959 . S
C800 H786 0.961 . S
C800 C799 1.502 . S
C801 H787 0.960 . S
C801 H788 0.961 . S
C801 H789 0.959 . S
C801 C799 1.561 . S
C802 C799 1.526 . S
C802 C803 1.396 . S
C802 C807 1.390 . S
C803 C797 1.465 . S
C803 C802 1.396 . S
C803 C804 1.399 . S
C804 H790 0.929 1_554 S
C804 C803 1.399 . S
C804 C805 1.385 . S
C805 H791 0.931 1_554 S
C805 C804 1.385 . S
C805 C806 1.389 . S
C806 C805 1.389 . S
C806 C807 1.387 . S
C807 H792 0.930 . S
C807 C802 1.390 . S
C807 C806 1.387 . S
C173 C9 1.658 . S
C185 C149 1.669 . S
C200 C129 1.687 . S
C212 C32 1.629 . S
C227 C112 1.687 . S
C239 C49 1.629 . S
C254 C89 1.659 . S
C266 C69 1.669 . S
C281 C58 1.452 . S
C293 C18 1.478 . S
C308 C38 1.206 . S
C320 C78 1.201 . S
C335 C79 1.782 . S
C347 C39 1.759 . S
C362 C59 1.500 . S
C374 C19 1.524 . S
C389 C98 1.435 1_554 S
C401 C138 1.491 1_556 S
C416 C118 1.204 . S
C428 C158 1.197 1_556 S
C443 C159 1.798 . S
C455 C119 1.801 1_554 S
C470 C139 1.522 . S
C482 C99 1.478 . S
C497 C4 1.484 . S
C509 C2 1.444 . S
C524 C22 1.484 . S
C536 C24 1.435 . S
C551 C42 1.424 . S
C563 C44 1.480 . S
C578 C64 1.433 . S
C590 C62 1.464 . S
C605 C82 1.485 . S
C617 C84 1.443 . S
C632 C102 1.480 . S
C644 C104 1.441 . S
C659 C124 1.438 . S
C671 C122 1.463 . S
C686 C144 1.446 . S
C698 C142 1.451 . S
C713 C12 1.952 . S
C725 C29 1.952 . S
C740 C72 1.914 . S
C752 C52 1.922 . S
C767 C92 1.942 . S
C779 C109 1.936 . S
C794 C152 1.930 . S
C806 C132 1.924 . S
