# Generated by pormake.
# Topology sma, (6)-cn, num edge types: 1
# Building blocks:
#     Node 0, Type 0, BuildingBlock: BETFEN_clean_sbu_0, # of connection points: 6
#     Node 1, Type 0, BuildingBlock: BETFEN_clean_sbu_0, # of connection points: 6
#     Node 2, Type 0, BuildingBlock: BETFEN_clean_sbu_0, # of connection points: 6
#     Edge 3, Type (0, 0), BuildingBlock: CIFDUS_clean_linker_0, # of connection points: 2
#     Edge 4, Type (0, 0), BuildingBlock: CIFDUS_clean_linker_0, # of connection points: 2
#     Edge 5, Type (0, 0), BuildingBlock: CIFDUS_clean_linker_0, # of connection points: 2
#     Edge 6, Type (0, 0), BuildingBlock: CIFDUS_clean_linker_0, # of connection points: 2
#     Edge 7, Type (0, 0), BuildingBlock: CIFDUS_clean_linker_0, # of connection points: 2
#     Edge 8, Type (0, 0), BuildingBlock: CIFDUS_clean_linker_0, # of connection points: 2
#     Edge 9, Type (0, 0), BuildingBlock: CIFDUS_clean_linker_0, # of connection points: 2
#     Edge 10, Type (0, 0), BuildingBlock: CIFDUS_clean_linker_0, # of connection points: 2
#     Edge 11, Type (0, 0), BuildingBlock: CIFDUS_clean_linker_0, # of connection points: 2
# Relax obj value: 0.139
# Max RMSD: 0.264
# Mean RMSD: 0.203
data_MOF--net-sma--node1-BETFEN_clean_sbu_0--edge1-CIFDUS_clean_linker_0
_symmetry_space_group_name_H-M    P1
_symmetry_Int_Tables_number       1
_symmetry_cell_setting            triclinic
loop_
_symmetry_equiv_pos_as_xyz
'x, y, z'
_cell_length_a     28.117285
_cell_length_b     37.808302
_cell_length_c     12.100155
_cell_angle_alpha  91.00117
_cell_angle_beta   95.304275
_cell_angle_gamma 96.818818
loop_
_atom_site_label
_atom_site_type_symbol
_atom_site_fract_x
_atom_site_fract_y
_atom_site_fract_z
_atom_type_partial_charge
Pr0 Pr 0.07453 0.48814 0.02719 0.0
Pr1 Pr 0.09426 0.57043 -0.02548 0.0
C2 C 0.06531 0.42321 0.11873 0.0
C3 C 1.02841 0.39381 0.14434 0.0
C4 C 1.03651 0.3584 0.12516 0.0
C5 C 1.00286 0.32998 0.15021 0.0
C6 C 0.96011 0.33619 0.19551 0.0
C7 C 0.95194 0.37184 0.21397 0.0
C8 C 0.98566 0.40031 0.18864 0.0
C9 C 0.06182 0.50394 0.80686 0.0
C10 C 0.97803 0.53 -0.03194 0.0
C11 C 0.10649 0.64086 0.93408 0.0
C12 C 0.137 0.67248 -0.01119 0.0
C13 C 0.1426 0.67724 0.10523 0.0
C14 C 0.17091 0.70729 0.15611 0.0
C15 C 0.1948 0.73335 0.09222 0.0
C16 C 0.18932 0.72836 -0.02433 0.0
C17 C 0.16075 0.69838 0.92478 0.0
C18 C 0.10669 0.55257 0.19444 0.0
C19 C 0.18918 0.52423 -0.01612 0.0
O20 O 0.06864 0.45316 0.17675 0.0
O21 O 0.07178 0.42792 0.01401 0.0
O22 O 0.09489 0.5187 0.87531 0.0
O23 O 1.03555 0.47783 0.84902 0.0
O24 O 1.00778 0.55677 0.93207 0.0
O25 O 0.99519 0.50279 0.01952 0.0
O26 O 0.12823 0.61765 0.8821 0.0
O27 O 0.0721 0.62576 -0.01054 0.0
O28 O 0.07303 0.53969 0.12526 0.0
O29 O 0.13518 0.577 0.1524 0.0
O30 O 0.16092 0.49778 0.0256 0.0
O31 O 0.17149 0.55365 0.94936 0.0
H32 H 0.06909 0.35268 0.09073 0.0
H33 H 1.01022 0.30308 0.13281 0.0
H34 H 0.9198 0.37781 0.24972 0.0
H35 H 0.97839 0.42736 0.20424 0.0
H36 H 0.12517 0.65766 0.15733 0.0
H37 H 0.17472 0.70978 0.24587 0.0
H38 H 0.20667 0.7479 0.92336 0.0
H39 H 0.1571 0.69548 0.83506 0.0
Pr40 Pr 0.62327 0.04493 0.53223 0.0
Pr41 Pr 0.5142 1.02112 0.57301 0.0
C42 C 0.70915 0.06324 0.45227 0.0
C43 C 0.74071 0.09591 0.42528 0.0
C44 C 0.78322 0.10692 0.49373 0.0
C45 C 0.81435 0.13677 0.46838 0.0
C46 C 0.80421 0.15646 0.37307 0.0
C47 C 0.76131 0.14569 0.30502 0.0
C48 C 0.73001 0.11577 0.33062 0.0
C49 C 0.60215 0.05164 0.74841 0.0
C50 C 0.5536 0.10813 0.56694 0.0
C51 C 0.42154 0.99781 0.59759 0.0
C52 C 0.39063 0.96539 0.55057 0.0
C53 C 0.34037 0.96428 0.53793 0.0
C54 C 0.31136 0.93447 0.48723 0.0
C55 C 0.33191 0.90501 0.44731 0.0
C56 C 0.38243 0.90629 0.46057 0.0
C57 C 0.41136 0.93607 0.51137 0.0
C58 C 0.5397 1.01449 0.35879 0.0
C59 C 0.58841 0.95936 0.59527 0.0
O60 O 0.66923 0.054 0.38822 0.0
O61 O 0.70443 0.05763 0.55742 0.0
O62 O 0.58549 0.02623 0.68238 0.0
O63 O 0.63378 0.07409 0.70621 0.0
O64 O 0.5228 0.08402 0.61085 0.0
O65 O 0.58995 0.09869 0.51547 0.0
O66 O 0.45698 0.9928 0.67176 0.0
O67 O 0.4343 1.02173 0.52562 0.0
O68 O 0.55252 0.04058 0.42395 0.0
O69 O 0.51209 0.98997 0.40276 0.0
O70 O 0.61998 0.98117 0.54486 0.0
O71 O 0.54842 0.97012 0.62572 0.0
H72 H 0.79266 0.09223 0.56702 0.0
H73 H 0.84649 0.14445 0.524 0.0
H74 H 0.75244 0.15985 0.23035 0.0
H75 H 0.69772 0.10802 0.2755 0.0
H76 H 0.32351 0.9867 0.56601 0.0
H77 H 0.27276 0.93485 0.47738 0.0
H78 H 0.39973 0.88411 0.43252 0.0
H79 H 0.4501 0.93631 0.51923 0.0
Pr80 Pr 0.57513 0.49794 0.84409 0.0
Pr81 Pr 0.58844 0.58538 0.90161 0.0
C82 C 0.57506 0.43173 0.75283 0.0
C83 C 0.56036 0.39235 0.74458 0.0
C84 C 0.56514 0.37048 0.83698 0.0
C85 C 0.55722 0.33306 0.82416 0.0
C86 C 0.54465 0.31637 0.71846 0.0
C87 C 0.53867 0.33847 0.62675 0.0
C88 C 0.54642 0.37582 0.6397 0.0
C89 C 0.57379 0.51843 0.0592 0.0
C90 C 0.68848 0.54616 0.89306 0.0
C91 C 0.58574 0.65471 0.95929 0.0
C92 C 0.59532 0.69166 0.91898 0.0
C93 C 0.5977 0.69878 0.80554 0.0
C94 C 0.5995 0.73401 0.76801 0.0
C95 C 0.59836 0.76279 0.84298 0.0
C96 C 0.59825 0.75551 0.95687 0.0
C97 C 0.59678 0.72051 -0.00581 0.0
C98 C 0.59434 0.56396 0.68834 0.0
C99 C 0.47694 0.53627 0.89833 0.0
O100 O 0.54536 0.45388 0.71431 0.0
O101 O 0.60453 0.4449 0.83771 0.0
O102 O 0.59934 0.53445 -0.00773 0.0
O103 O 0.5533 0.48718 0.02247 0.0
O104 O 0.66919 0.57366 0.93325 0.0
O105 O 0.66088 0.51741 0.84602 0.0
O106 O 0.54968 0.63427 0.90639 0.0
O107 O 0.62221 0.63742 -0.00883 0.0
O108 O 0.56615 0.54885 0.75153 0.0
O109 O 0.61486 0.59475 0.72671 0.0
O110 O 0.4926 0.50771 0.85349 0.0
O111 O 0.50699 0.56526 0.93164 0.0
H112 H 0.57627 0.38223 0.91894 0.0
H113 H 0.56267 0.31722 0.89688 0.0
H114 H 0.52831 0.32693 0.54428 0.0
H115 H 0.54283 0.39185 0.56672 0.0
H116 H 0.59635 0.677 0.74552 0.0
H117 H 0.59926 0.73851 0.67983 0.0
H118 H 0.59784 0.77694 0.01726 0.0
H119 H 0.59484 0.71585 0.08185 0.0
H120 H 0.26363 0.57589 0.94228 0.0
H121 H 0.23486 0.46333 -0.00389 0.0
H122 H 0.31863 0.45607 -0.02965 0.0
H123 H 0.40219 0.48177 0.93234 0.0
H124 H 0.43013 0.59516 0.8902 0.0
H125 H 0.34624 0.60155 0.91072 0.0
C126 C 0.27544 0.54967 0.94859 0.0
C127 C 0.24183 0.52024 -0.02876 0.0
C128 C 0.32445 0.54567 0.93521 0.0
C129 C 0.25905 0.48668 -0.02064 0.0
C130 C 0.30736 0.48244 0.96417 0.0
C131 C 0.38994 0.50786 0.92705 0.0
C132 C 0.42357 0.53791 0.90896 0.0
C133 C 0.34073 0.51171 0.94181 0.0
C134 C 0.4061 0.57141 0.90418 0.0
C135 C 0.35765 0.57519 0.91591 0.0
H136 H 0.78505 0.22067 0.28568 0.0
H137 H 0.9026 0.16178 0.3937 0.0
H138 H 0.9603 0.21177 0.35117 0.0
H139 H 0.9781 0.27235 0.28421 0.0
H140 H 0.86122 0.33089 0.16923 0.0
H141 H 0.80307 0.28117 0.21391 0.0
C142 C 0.82326 0.21859 0.29905 0.0
C143 C 0.83911 0.18731 0.34393 0.0
C144 C 0.85665 0.24757 0.27352 0.0
C145 C 0.889 0.18556 0.3615 0.0
C146 C 0.92221 0.21415 0.33643 0.0
C147 C 0.93993 0.27421 0.26761 0.0
C148 C 0.92441 0.30562 0.22318 0.0
C149 C 0.90652 0.24531 0.29259 0.0
C150 C 0.87456 0.30746 0.20469 0.0
C151 C 0.84114 0.27884 0.22956 0.0
H152 H 0.54183 0.9167 0.73881 0.0
H153 H 0.65663 0.91847 0.52518 0.0
H154 H 0.66956 0.85766 0.57972 0.0
H155 H 0.6477 0.80345 0.69045 0.0
H156 H 0.53381 0.80509 0.9058 0.0
H157 H 0.52124 0.86481 0.84797 0.0
C158 C 0.56972 0.90398 0.70321 0.0
C159 C 0.59798 0.92243 0.62693 0.0
C160 C 0.5772 0.86935 0.73581 0.0
C161 C 0.63422 0.90517 0.58378 0.0
C162 C 0.64156 0.87028 0.61501 0.0
C163 C 0.62011 0.81691 0.72437 0.0
C164 C 0.59201 0.7996 0.80353 0.0
C165 C 0.6132 0.85198 0.69117 0.0
C166 C 0.55653 0.81769 0.84653 0.0
C167 C 0.5491 0.85191 0.813 0.0
H168 H 0.74802 0.49184 0.89452 0.0
H169 H 0.75392 0.60626 0.91189 0.0
H170 H 0.84176 0.61214 0.93027 0.0
H171 H 0.91907 0.58506 0.94638 0.0
H172 H 0.91252 0.47054 0.94201 0.0
H173 H 0.82492 0.46483 0.91384 0.0
C174 C 0.76839 0.51811 0.90164 0.0
C175 C 0.74324 0.54852 0.90116 0.0
C176 C 0.81984 0.52146 0.91504 0.0
C177 C 0.77131 0.58218 0.91207 0.0
C178 C 0.82205 0.58566 0.92256 0.0
C179 C 0.89858 0.55884 0.93854 0.0
C180 C 0.9235 0.5283 0.94627 0.0
C181 C 0.84707 0.55554 0.92483 0.0
C182 C 0.89529 0.49469 0.93707 0.0
C183 C 0.84469 0.49131 0.92069 0.0
H184 H 0.34843 0.86446 0.26669 0.0
H185 H 0.24489 0.87337 0.50461 0.0
H186 H 0.19375 0.822 0.41657 0.0
H187 H 0.17796 0.7741 0.27192 0.0
H188 H 0.28211 0.76458 0.03597 0.0
H189 H 0.33303 0.81622 0.12325 0.0
C190 C 0.31491 0.85504 0.30018 0.0
C191 C 0.30084 0.87315 0.3927 0.0
C192 C 0.28547 0.8252 0.24909 0.0
C193 C 0.25667 0.86057 0.43295 0.0
C194 C 0.22739 0.83092 0.3829 0.0
C195 C 0.21196 0.78309 0.23993 0.0
C196 C 0.22582 0.76521 0.14676 0.0
C197 C 0.24136 0.81297 0.29089 0.0
C198 C 0.26988 0.77787 0.10617 0.0
C199 C 0.2993 0.80739 0.15663 0.0
H200 H 0.57287 0.27669 0.54942 0.0
H201 H 0.50485 0.26511 0.85406 0.0
H202 H 0.49879 0.2002 0.8325 0.0
H203 H 0.51507 0.14587 0.7289 0.0
H204 H 0.58449 0.15904 0.42631 0.0
H205 H 0.58664 0.22342 0.44438 0.0
C206 C 0.55602 0.26012 0.61057 0.0
C207 C 0.53936 0.2763 0.70336 0.0
C208 C 0.55272 0.22263 0.59785 0.0
C209 C 0.51861 0.25383 0.78236 0.0
C210 C 0.51484 0.21651 0.76974 0.0
C211 C 0.53 0.16282 0.66617 0.0
C212 C 0.54946 0.14725 0.57606 0.0
C213 C 0.53203 0.20046 0.67805 0.0
C214 C 0.56933 0.16995 0.49671 0.0
C215 C 0.57068 0.20698 0.50696 0.0
H216 H 0.12602 0.54772 0.71047 0.0
H217 H 0.99686 0.47375 0.64127 0.0
H218 H 1.00051 0.48193 0.44177 0.0
H219 H 1.04104 0.5097 0.29037 0.0
H220 H 0.17138 0.58241 0.36029 0.0
H221 H 0.16708 0.57471 0.55951 0.0
C222 C 0.09854 0.53349 0.65172 0.0
C223 C 0.06127 0.51017 0.68891 0.0
C224 C 0.10144 0.53782 0.53886 0.0
C225 C 1.02582 0.49183 0.6131 0.0
C226 C 1.02801 0.49639 0.49979 0.0
C227 C 0.06876 0.52356 0.34928 0.0
C228 C 0.10656 0.54642 0.31229 0.0
C229 C 0.06589 0.51911 0.46221 0.0
C230 C 0.1421 0.56459 0.38825 0.0
C231 C 0.13953 0.56033 0.50144 0.0
H232 H 0.58831 0.06779 0.25833 0.0
H233 H 0.51103 0.96239 0.20098 0.0
H234 H 0.52295 0.96541 0.00342 0.0
H235 H 0.5541 0.99839 0.84974 0.0
H236 H 0.63295 0.10327 0.90705 0.0
H237 H 0.62136 0.10023 0.10499 0.0
C238 C 0.57451 0.04535 0.2027 0.0
C239 C 0.54902 1.01488 0.24274 0.0
C240 C 0.58139 0.04737 0.0906 0.0
C241 C 0.53085 0.98603 0.17077 0.0
C242 C 0.53751 0.98781 0.05844 0.0
C243 C 0.56862 1.02065 0.90549 0.0
C244 C 0.59418 0.05105 0.86528 0.0
C245 C 0.56239 1.01845 0.0178 0.0
C246 C 0.61311 0.07967 0.93745 0.0
C247 C 0.60659 0.07789 0.04994 0.0
H248 H 0.59214 0.60207 0.50773 0.0
H249 H 0.60413 0.49689 0.62878 0.0
H250 H 0.59265 0.47179 0.43908 0.0
H251 H 0.57737 0.4806 0.24061 0.0
H252 H 0.57124 0.58666 0.11933 0.0
H253 H 0.58131 0.61134 0.30898 0.0
C254 C 0.59297 0.57381 0.49145 0.0
C255 C 0.59729 0.55069 0.5786 0.0
C256 C 0.58646 0.56007 0.38376 0.0
C257 C 0.59869 0.51428 0.5601 0.0
C258 C 0.59244 0.50019 0.45274 0.0
C259 C 0.57748 0.50896 0.25679 0.0
C260 C 0.57309 0.53205 0.16954 0.0
C261 C 0.58521 0.52282 0.36435 0.0
C262 C 0.57434 0.56882 0.18794 0.0
C263 C 0.58045 0.58284 0.29531 0.0
loop_
_geom_bond_atom_site_label_1
_geom_bond_atom_site_label_2
_geom_bond_distance
_geom_bond_site_symmetry_2
_ccdc_geom_bond_type
Pr0 C2 2.880 1_455 S
Pr0 O20 2.562 1_455 S
Pr0 O21 2.490 1_455 S
Pr0 O22 2.695 1_554 S
Pr0 O23 2.512 1_554 S
Pr0 O25 2.437 1_455 S
Pr0 O28 2.436 . S
Pr0 O30 2.438 . S
Pr1 C11 2.880 . S
Pr1 O22 2.436 1_554 S
Pr1 O24 2.438 1_455 S
Pr1 O26 2.562 . S
Pr1 O27 2.490 . S
Pr1 O28 2.695 . S
Pr1 O29 2.512 . S
Pr1 O31 2.437 . S
C2 Pr0 2.880 1_655 S
C2 C3 1.491 . S
C2 O20 1.254 . S
C2 O21 1.225 . S
C3 C2 1.491 . S
C3 C4 1.392 . S
C3 C8 1.356 . S
C4 C3 1.392 . S
C4 C5 1.368 . S
C4 H32 0.929 1_554 S
C5 C4 1.368 . S
C5 C6 1.386 . S
C5 H33 0.929 1_554 S
C6 C5 1.386 . S
C6 C7 1.373 . S
C7 C6 1.373 . S
C7 C8 1.409 . S
C7 H34 0.931 . S
C8 C3 1.356 . S
C8 C7 1.409 . S
C8 H35 0.930 . S
C9 O22 1.270 . S
C9 O23 1.248 . S
C10 O24 1.267 . S
C10 O25 1.278 . S
C11 Pr1 2.880 . S
C11 C12 1.491 . S
C11 O26 1.254 . S
C11 O27 1.225 . S
C12 C11 1.491 . S
C12 C13 1.392 . S
C12 C17 1.356 . S
C13 C12 1.392 . S
C13 C14 1.368 . S
C13 H36 0.929 . S
C14 C13 1.368 . S
C14 C15 1.386 . S
C14 H37 0.929 . S
C15 C14 1.386 . S
C15 C16 1.373 . S
C16 C15 1.373 . S
C16 C17 1.409 . S
C16 H38 0.931 1_554 S
C17 C12 1.356 . S
C17 C16 1.409 . S
C17 H39 0.930 1_554 S
C18 O28 1.270 . S
C18 O29 1.248 . S
C19 O30 1.267 . S
C19 O31 1.278 . S
O20 Pr0 2.562 1_655 S
O20 C2 1.254 . S
O21 Pr0 2.490 1_655 S
O21 C2 1.225 . S
O22 Pr0 2.695 1_556 S
O22 Pr1 2.436 1_556 S
O22 C9 1.270 . S
O23 Pr0 2.512 1_556 S
O23 C9 1.248 . S
O24 Pr1 2.438 1_655 S
O24 C10 1.267 . S
O25 Pr0 2.437 1_655 S
O25 C10 1.278 . S
O26 Pr1 2.562 . S
O26 C11 1.254 . S
O27 Pr1 2.490 . S
O27 C11 1.225 . S
O28 Pr0 2.436 . S
O28 Pr1 2.695 . S
O28 C18 1.270 . S
O29 Pr1 2.512 . S
O29 C18 1.248 . S
O30 Pr0 2.438 . S
O30 C19 1.267 . S
O31 Pr1 2.437 . S
O31 C19 1.278 . S
H32 C4 0.929 1_556 S
H33 C5 0.929 1_556 S
H34 C7 0.931 . S
H35 C8 0.930 . S
H36 C13 0.929 . S
H37 C14 0.929 . S
H38 C16 0.931 1_556 S
H39 C17 0.930 1_556 S
Pr40 C42 2.880 . S
Pr40 O60 2.562 . S
Pr40 O61 2.490 . S
Pr40 O62 2.695 . S
Pr40 O63 2.512 . S
Pr40 O65 2.437 . S
Pr40 O68 2.436 . S
Pr40 O70 2.438 1_545 S
Pr41 C51 2.880 . S
Pr41 O62 2.436 1_565 S
Pr41 O64 2.438 1_565 S
Pr41 O66 2.562 . S
Pr41 O67 2.490 . S
Pr41 O68 2.695 1_565 S
Pr41 O69 2.512 . S
Pr41 O71 2.437 . S
C42 Pr40 2.880 . S
C42 C43 1.491 . S
C42 O60 1.254 . S
C42 O61 1.225 . S
C43 C42 1.491 . S
C43 C44 1.392 . S
C43 C48 1.356 . S
C44 C43 1.392 . S
C44 C45 1.368 . S
C44 H72 0.929 . S
C45 C44 1.368 . S
C45 C46 1.386 . S
C45 H73 0.929 . S
C46 C45 1.386 . S
C46 C47 1.373 . S
C47 C46 1.373 . S
C47 C48 1.409 . S
C47 H74 0.931 . S
C48 C43 1.356 . S
C48 C47 1.409 . S
C48 H75 0.930 . S
C49 O62 1.270 . S
C49 O63 1.248 . S
C50 O64 1.267 . S
C50 O65 1.278 . S
C51 Pr41 2.880 . S
C51 C52 1.491 . S
C51 O66 1.254 . S
C51 O67 1.225 . S
C52 C51 1.491 . S
C52 C53 1.392 . S
C52 C57 1.356 . S
C53 C52 1.392 . S
C53 C54 1.368 . S
C53 H76 0.929 . S
C54 C53 1.368 . S
C54 C55 1.386 . S
C54 H77 0.929 . S
C55 C54 1.386 . S
C55 C56 1.373 . S
C56 C55 1.373 . S
C56 C57 1.409 . S
C56 H78 0.931 . S
C57 C52 1.356 . S
C57 C56 1.409 . S
C57 H79 0.930 . S
C58 O68 1.270 . S
C58 O69 1.248 1_545 S
C59 O70 1.267 . S
C59 O71 1.278 . S
O60 Pr40 2.562 . S
O60 C42 1.254 . S
O61 Pr40 2.490 . S
O61 C42 1.225 . S
O62 Pr40 2.695 . S
O62 Pr41 2.436 1_545 S
O62 C49 1.270 . S
O63 Pr40 2.512 . S
O63 C49 1.248 . S
O64 Pr41 2.438 1_545 S
O64 C50 1.267 . S
O65 Pr40 2.437 . S
O65 C50 1.278 . S
O66 Pr41 2.562 . S
O66 C51 1.254 . S
O67 Pr41 2.490 . S
O67 C51 1.225 . S
O68 Pr40 2.436 . S
O68 Pr41 2.695 1_545 S
O68 C58 1.270 . S
O69 Pr41 2.512 . S
O69 C58 1.248 1_565 S
O70 Pr40 2.438 1_565 S
O70 C59 1.267 . S
O71 Pr41 2.437 . S
O71 C59 1.278 . S
H72 C44 0.929 . S
H73 C45 0.929 . S
H74 C47 0.931 . S
H75 C48 0.930 . S
H76 C53 0.929 . S
H77 C54 0.929 . S
H78 C56 0.931 . S
H79 C57 0.930 . S
Pr80 C82 2.880 . S
Pr80 O100 2.562 . S
Pr80 O101 2.490 . S
Pr80 O102 2.695 . S
Pr80 O103 2.512 1_556 S
Pr80 O105 2.437 . S
Pr80 O108 2.436 . S
Pr80 O110 2.438 . S
Pr81 C91 2.880 . S
Pr81 O102 2.436 . S
Pr81 O104 2.438 . S
Pr81 O106 2.562 . S
Pr81 O107 2.490 . S
Pr81 O108 2.695 . S
Pr81 O109 2.512 . S
Pr81 O111 2.437 . S
C82 Pr80 2.880 . S
C82 C83 1.491 . S
C82 O100 1.254 . S
C82 O101 1.225 . S
C83 C82 1.491 . S
C83 C84 1.392 . S
C83 C88 1.356 . S
C84 C83 1.392 . S
C84 C85 1.368 . S
C84 H112 0.929 . S
C85 C84 1.368 . S
C85 C86 1.386 . S
C85 H113 0.929 . S
C86 C85 1.386 . S
C86 C87 1.373 . S
C87 C86 1.373 . S
C87 C88 1.409 . S
C87 H114 0.931 . S
C88 C83 1.356 . S
C88 C87 1.409 . S
C88 H115 0.930 . S
C89 O102 1.270 1_554 S
C89 O103 1.248 . S
C90 O104 1.267 . S
C90 O105 1.278 . S
C91 Pr81 2.880 . S
C91 C92 1.491 . S
C91 O106 1.254 . S
C91 O107 1.225 . S
C92 C91 1.491 . S
C92 C93 1.392 . S
C92 C97 1.356 . S
C93 C92 1.392 . S
C93 C94 1.368 . S
C93 H116 0.929 . S
C94 C93 1.368 . S
C94 C95 1.386 . S
C94 H117 0.929 . S
C95 C94 1.386 . S
C95 C96 1.373 . S
C96 C95 1.373 . S
C96 C97 1.409 . S
C96 H118 0.931 1_556 S
C97 C92 1.356 . S
C97 C96 1.409 . S
C97 H119 0.930 1_556 S
C98 O108 1.270 . S
C98 O109 1.248 . S
C99 O110 1.267 . S
C99 O111 1.278 . S
O100 Pr80 2.562 . S
O100 C82 1.254 . S
O101 Pr80 2.490 . S
O101 C82 1.225 . S
O102 Pr80 2.695 . S
O102 Pr81 2.436 . S
O102 C89 1.270 1_556 S
O103 Pr80 2.512 1_554 S
O103 C89 1.248 . S
O104 Pr81 2.438 . S
O104 C90 1.267 . S
O105 Pr80 2.437 . S
O105 C90 1.278 . S
O106 Pr81 2.562 . S
O106 C91 1.254 . S
O107 Pr81 2.490 . S
O107 C91 1.225 . S
O108 Pr80 2.436 . S
O108 Pr81 2.695 . S
O108 C98 1.270 . S
O109 Pr81 2.512 . S
O109 C98 1.248 . S
O110 Pr80 2.438 . S
O110 C99 1.267 . S
O111 Pr81 2.437 . S
O111 C99 1.278 . S
H112 C84 0.929 . S
H113 C85 0.929 . S
H114 C87 0.931 . S
H115 C88 0.930 . S
H116 C93 0.929 . S
H117 C94 0.929 . S
H118 C96 0.931 1_554 S
H119 C97 0.930 1_554 S
H120 C126 0.930 . S
H121 C129 0.930 . S
H122 C130 0.930 . S
H123 C131 0.930 . S
H124 C134 0.930 . S
H125 C135 0.930 . S
C126 H120 0.930 . S
C126 C127 1.355 1_556 S
C126 C128 1.415 . S
C127 C126 1.355 1_554 S
C127 C129 1.419 . S
C128 C126 1.415 . S
C128 C133 1.425 1_556 S
C128 C135 1.409 . S
C129 H121 0.930 . S
C129 C127 1.419 . S
C129 C130 1.362 . S
C130 H122 0.930 . S
C130 C129 1.362 . S
C130 C133 1.409 . S
C131 H123 0.930 . S
C131 C132 1.355 1_554 S
C131 C133 1.415 . S
C132 C131 1.355 1_556 S
C132 C134 1.419 . S
C133 C128 1.425 1_554 S
C133 C130 1.409 . S
C133 C131 1.415 . S
C134 H124 0.930 . S
C134 C132 1.419 . S
C134 C135 1.362 . S
C135 H125 0.930 . S
C135 C128 1.409 . S
C135 C134 1.362 . S
H136 C142 0.930 . S
H137 C145 0.930 . S
H138 C146 0.930 . S
H139 C147 0.930 . S
H140 C150 0.930 . S
H141 C151 0.930 . S
C142 H136 0.930 . S
C142 C143 1.355 . S
C142 C144 1.415 . S
C143 C142 1.355 . S
C143 C145 1.419 . S
C144 C142 1.415 . S
C144 C149 1.425 . S
C144 C151 1.409 . S
C145 H137 0.930 . S
C145 C143 1.419 . S
C145 C146 1.362 . S
C146 H138 0.930 . S
C146 C145 1.362 . S
C146 C149 1.409 . S
C147 H139 0.930 . S
C147 C148 1.355 . S
C147 C149 1.415 . S
C148 C147 1.355 . S
C148 C150 1.419 . S
C149 C144 1.425 . S
C149 C146 1.409 . S
C149 C147 1.415 . S
C150 H140 0.930 . S
C150 C148 1.419 . S
C150 C151 1.362 . S
C151 H141 0.930 . S
C151 C144 1.409 . S
C151 C150 1.362 . S
H152 C158 0.930 . S
H153 C161 0.930 . S
H154 C162 0.930 . S
H155 C163 0.930 . S
H156 C166 0.930 . S
H157 C167 0.930 . S
C158 H152 0.930 . S
C158 C159 1.355 . S
C158 C160 1.415 . S
C159 C158 1.355 . S
C159 C161 1.419 . S
C160 C158 1.415 . S
C160 C165 1.425 . S
C160 C167 1.409 . S
C161 H153 0.930 . S
C161 C159 1.419 . S
C161 C162 1.362 . S
C162 H154 0.930 . S
C162 C161 1.362 . S
C162 C165 1.409 . S
C163 H155 0.930 . S
C163 C164 1.355 . S
C163 C165 1.415 . S
C164 C163 1.355 . S
C164 C166 1.419 . S
C165 C160 1.425 . S
C165 C162 1.409 . S
C165 C163 1.415 . S
C166 H156 0.930 . S
C166 C164 1.419 . S
C166 C167 1.362 . S
C167 H157 0.930 . S
C167 C160 1.409 . S
C167 C166 1.362 . S
H168 C174 0.930 . S
H169 C177 0.930 . S
H170 C178 0.930 . S
H171 C179 0.930 . S
H172 C182 0.930 . S
H173 C183 0.930 . S
C174 H168 0.930 . S
C174 C175 1.355 . S
C174 C176 1.415 . S
C175 C174 1.355 . S
C175 C177 1.419 1_556 S
C176 C174 1.415 . S
C176 C181 1.425 1_556 S
C176 C183 1.409 . S
C177 H169 0.930 . S
C177 C175 1.419 1_554 S
C177 C178 1.362 . S
C178 H170 0.930 . S
C178 C177 1.362 . S
C178 C181 1.409 . S
C179 H171 0.930 . S
C179 C180 1.355 . S
C179 C181 1.415 . S
C180 C179 1.355 . S
C180 C182 1.419 1_554 S
C181 C176 1.425 1_554 S
C181 C178 1.409 . S
C181 C179 1.415 . S
C182 H172 0.930 . S
C182 C180 1.419 1_556 S
C182 C183 1.362 . S
C183 H173 0.930 . S
C183 C176 1.409 . S
C183 C182 1.362 . S
H184 C190 0.930 . S
H185 C193 0.930 . S
H186 C194 0.930 . S
H187 C195 0.930 . S
H188 C198 0.930 . S
H189 C199 0.930 . S
C190 H184 0.930 . S
C190 C191 1.355 . S
C190 C192 1.415 . S
C191 C190 1.355 . S
C191 C193 1.419 . S
C192 C190 1.415 . S
C192 C197 1.425 . S
C192 C199 1.409 . S
C193 H185 0.930 . S
C193 C191 1.419 . S
C193 C194 1.362 . S
C194 H186 0.930 . S
C194 C193 1.362 . S
C194 C197 1.409 . S
C195 H187 0.930 . S
C195 C196 1.355 . S
C195 C197 1.415 . S
C196 C195 1.355 . S
C196 C198 1.419 . S
C197 C192 1.425 . S
C197 C194 1.409 . S
C197 C195 1.415 . S
C198 H188 0.930 . S
C198 C196 1.419 . S
C198 C199 1.362 . S
C199 H189 0.930 . S
C199 C192 1.409 . S
C199 C198 1.362 . S
H200 C206 0.930 . S
H201 C209 0.930 . S
H202 C210 0.930 . S
H203 C211 0.930 . S
H204 C214 0.930 . S
H205 C215 0.930 . S
C206 H200 0.930 . S
C206 C207 1.355 . S
C206 C208 1.415 . S
C207 C206 1.355 . S
C207 C209 1.419 . S
C208 C206 1.415 . S
C208 C213 1.425 . S
C208 C215 1.409 . S
C209 H201 0.930 . S
C209 C207 1.419 . S
C209 C210 1.362 . S
C210 H202 0.930 . S
C210 C209 1.362 . S
C210 C213 1.409 . S
C211 H203 0.930 . S
C211 C212 1.355 . S
C211 C213 1.415 . S
C212 C211 1.355 . S
C212 C214 1.419 . S
C213 C208 1.425 . S
C213 C210 1.409 . S
C213 C211 1.415 . S
C214 H204 0.930 . S
C214 C212 1.419 . S
C214 C215 1.362 . S
C215 H205 0.930 . S
C215 C208 1.409 . S
C215 C214 1.362 . S
H216 C222 0.930 . S
H217 C225 0.930 . S
H218 C226 0.930 . S
H219 C227 0.930 . S
H220 C230 0.930 . S
H221 C231 0.930 . S
C222 H216 0.930 . S
C222 C223 1.355 . S
C222 C224 1.415 . S
C223 C222 1.355 . S
C223 C225 1.419 . S
C224 C222 1.415 . S
C224 C229 1.425 . S
C224 C231 1.409 . S
C225 H217 0.930 . S
C225 C223 1.419 . S
C225 C226 1.362 . S
C226 H218 0.930 . S
C226 C225 1.362 . S
C226 C229 1.409 . S
C227 H219 0.930 . S
C227 C228 1.355 . S
C227 C229 1.415 . S
C228 C227 1.355 . S
C228 C230 1.419 . S
C229 C224 1.425 . S
C229 C226 1.409 . S
C229 C227 1.415 . S
C230 H220 0.930 . S
C230 C228 1.419 . S
C230 C231 1.362 . S
C231 H221 0.930 . S
C231 C224 1.409 . S
C231 C230 1.362 . S
H232 C238 0.930 . S
H233 C241 0.930 . S
H234 C242 0.930 . S
H235 C243 0.928 1_565 S
H236 C246 0.930 . S
H237 C247 0.930 1_554 S
C238 H232 0.930 . S
C238 C239 1.355 . S
C238 C240 1.415 . S
C239 C238 1.355 . S
C239 C241 1.419 . S
C240 C238 1.415 . S
C240 C245 1.425 . S
C240 C247 1.409 1_554 S
C241 H233 0.930 . S
C241 C239 1.419 . S
C241 C242 1.362 . S
C242 H234 0.930 . S
C242 C241 1.362 . S
C242 C245 1.409 . S
C243 H235 0.928 1_545 S
C243 C244 1.355 . S
C243 C245 1.415 1_556 S
C244 C243 1.355 . S
C244 C246 1.419 . S
C245 C240 1.425 . S
C245 C242 1.409 . S
C245 C243 1.415 1_554 S
C246 H236 0.930 . S
C246 C244 1.419 . S
C246 C247 1.362 . S
C247 H237 0.930 1_556 S
C247 C240 1.409 1_556 S
C247 C246 1.362 . S
H248 C254 0.930 . S
H249 C257 0.930 . S
H250 C258 0.930 . S
H251 C259 0.930 . S
H252 C262 0.930 . S
H253 C263 0.930 . S
C254 H248 0.930 . S
C254 C255 1.355 . S
C254 C256 1.415 . S
C255 C254 1.355 . S
C255 C257 1.419 . S
C256 C254 1.415 . S
C256 C261 1.425 . S
C256 C263 1.409 . S
C257 H249 0.930 . S
C257 C255 1.419 . S
C257 C258 1.362 . S
C258 H250 0.930 . S
C258 C257 1.362 . S
C258 C261 1.409 . S
C259 H251 0.930 . S
C259 C260 1.355 . S
C259 C261 1.415 . S
C260 C259 1.355 . S
C260 C262 1.419 . S
C261 C256 1.425 . S
C261 C258 1.409 . S
C261 C259 1.415 . S
C262 H252 0.930 . S
C262 C260 1.419 . S
C262 C263 1.362 . S
C263 H253 0.930 . S
C263 C256 1.409 . S
C263 C262 1.362 . S
C127 C19 2.969 . S
C132 C99 2.913 . S
C143 C46 1.580 . S
C148 C6 1.584 . S
C159 C59 2.635 . S
C164 C95 2.490 . S
C175 C90 2.607 . S
C180 C10 2.657 . S
C191 C55 1.583 . S
C196 C15 1.578 . S
C207 C86 2.208 . S
C212 C50 2.225 . S
C223 C9 0.561 . S
C228 C18 0.561 . S
C239 C58 0.575 . S
C244 C49 0.575 . S
C255 C98 0.715 . S
C260 C89 0.715 . S
