# Generated by pormake.
# Topology wje, (4)-cn, num edge types: 1
# Building blocks:
#     Node 0, Type 0, BuildingBlock: NAHDIM_clean_sbu_0, # of connection points: 4
#     Node 1, Type 0, BuildingBlock: NAHDIM_clean_sbu_0, # of connection points: 4
#     Node 2, Type 0, BuildingBlock: NAHDIM_clean_sbu_0, # of connection points: 4
#     Node 3, Type 0, BuildingBlock: NAHDIM_clean_sbu_0, # of connection points: 4
#     Node 4, Type 0, BuildingBlock: NAHDIM_clean_sbu_0, # of connection points: 4
#     Node 5, Type 0, BuildingBlock: NAHDIM_clean_sbu_0, # of connection points: 4
#     Node 6, Type 0, BuildingBlock: NAHDIM_clean_sbu_0, # of connection points: 4
#     Node 7, Type 0, BuildingBlock: NAHDIM_clean_sbu_0, # of connection points: 4
#     Node 8, Type 0, BuildingBlock: NAHDIM_clean_sbu_0, # of connection points: 4
#     Node 9, Type 0, BuildingBlock: NAHDIM_clean_sbu_0, # of connection points: 4
#     Node 10, Type 0, BuildingBlock: NAHDIM_clean_sbu_0, # of connection points: 4
#     Node 11, Type 0, BuildingBlock: NAHDIM_clean_sbu_0, # of connection points: 4
#     Edge 12, Type (0, 0), BuildingBlock: KIFKEQ_clean_linker_1, # of connection points: 2
#     Edge 13, Type (0, 0), BuildingBlock: KIFKEQ_clean_linker_1, # of connection points: 2
#     Edge 14, Type (0, 0), BuildingBlock: KIFKEQ_clean_linker_1, # of connection points: 2
#     Edge 15, Type (0, 0), BuildingBlock: KIFKEQ_clean_linker_1, # of connection points: 2
#     Edge 16, Type (0, 0), BuildingBlock: KIFKEQ_clean_linker_1, # of connection points: 2
#     Edge 17, Type (0, 0), BuildingBlock: KIFKEQ_clean_linker_1, # of connection points: 2
#     Edge 18, Type (0, 0), BuildingBlock: KIFKEQ_clean_linker_1, # of connection points: 2
#     Edge 19, Type (0, 0), BuildingBlock: KIFKEQ_clean_linker_1, # of connection points: 2
#     Edge 20, Type (0, 0), BuildingBlock: KIFKEQ_clean_linker_1, # of connection points: 2
#     Edge 21, Type (0, 0), BuildingBlock: KIFKEQ_clean_linker_1, # of connection points: 2
#     Edge 22, Type (0, 0), BuildingBlock: KIFKEQ_clean_linker_1, # of connection points: 2
#     Edge 23, Type (0, 0), BuildingBlock: KIFKEQ_clean_linker_1, # of connection points: 2
#     Edge 24, Type (0, 0), BuildingBlock: KIFKEQ_clean_linker_1, # of connection points: 2
#     Edge 25, Type (0, 0), BuildingBlock: KIFKEQ_clean_linker_1, # of connection points: 2
#     Edge 26, Type (0, 0), BuildingBlock: KIFKEQ_clean_linker_1, # of connection points: 2
#     Edge 27, Type (0, 0), BuildingBlock: KIFKEQ_clean_linker_1, # of connection points: 2
#     Edge 28, Type (0, 0), BuildingBlock: KIFKEQ_clean_linker_1, # of connection points: 2
#     Edge 29, Type (0, 0), BuildingBlock: KIFKEQ_clean_linker_1, # of connection points: 2
#     Edge 30, Type (0, 0), BuildingBlock: KIFKEQ_clean_linker_1, # of connection points: 2
#     Edge 31, Type (0, 0), BuildingBlock: KIFKEQ_clean_linker_1, # of connection points: 2
#     Edge 32, Type (0, 0), BuildingBlock: KIFKEQ_clean_linker_1, # of connection points: 2
#     Edge 33, Type (0, 0), BuildingBlock: KIFKEQ_clean_linker_1, # of connection points: 2
#     Edge 34, Type (0, 0), BuildingBlock: KIFKEQ_clean_linker_1, # of connection points: 2
#     Edge 35, Type (0, 0), BuildingBlock: KIFKEQ_clean_linker_1, # of connection points: 2
# Relax obj value: 0.167
# Max RMSD: 0.138
# Mean RMSD: 0.138
data_MOF--net-wje--node1-NAHDIM_clean_sbu_0--edge1-KIFKEQ_clean_linker_1
_symmetry_space_group_name_H-M    P1
_symmetry_Int_Tables_number       1
_symmetry_cell_setting            triclinic
loop_
_symmetry_equiv_pos_as_xyz
'x, y, z'
_cell_length_a     42.218829
_cell_length_b     42.302109
_cell_length_c     36.579052
_cell_angle_alpha  90.059667
_cell_angle_beta   90.090303
_cell_angle_gamma 119.8372
loop_
_atom_site_label
_atom_site_type_symbol
_atom_site_fract_x
_atom_site_fract_y
_atom_site_fract_z
_atom_type_partial_charge
C0 C 0.30729 0.04147 0.22266 0.0
O1 O 0.29957 0.01055 0.20683 0.0
O2 O 0.27925 0.95791 0.27782 0.0
Zn3 Zn 0.31908 0.00912 0.288 0.0
O4 O 0.36832 0.01241 0.28299 0.0
C5 C 0.27726 0.00201 0.35162 0.0
O6 O 0.25043 0.98542 0.32803 0.0
O7 O 0.31589 0.04614 0.25632 0.0
C8 C 0.38856 0.01866 0.31093 0.0
O9 O 0.37748 0.0239 0.34272 0.0
C10 C 0.27971 0.9345 0.29929 0.0
O11 O 0.3087 0.94438 0.31986 0.0
O12 O 0.31008 0.01723 0.34041 0.0
C13 C 0.25163 0.32172 0.56388 0.0
O14 O 0.27658 0.31877 0.54519 0.0
O15 O 0.2959 0.27899 0.62082 0.0
Zn16 Zn 0.30035 0.32846 0.61999 0.0
O17 O 0.34437 0.36609 0.5925 0.0
C18 C 0.33327 0.34073 0.68811 0.0
O19 O 0.35277 0.3312 0.66781 0.0
O20 O 0.25532 0.32593 0.59834 0.0
C21 C 0.37328 0.36499 0.58548 0.0
O22 O 0.37553 0.33622 0.59484 0.0
C23 C 0.30069 0.26029 0.59662 0.0
O24 O 0.30926 0.27277 0.5631 0.0
O25 O 0.30733 0.34321 0.67318 0.0
C26 C 0.94226 0.2372 0.89406 0.0
O27 O 0.97411 0.24383 0.88144 0.0
O28 O 0.03069 0.29101 0.93286 0.0
Zn29 Zn 0.98668 0.29637 0.94389 0.0
O30 O -0.00587 0.34581 0.92977 0.0
C31 C 0.00336 0.29247 0.02045 0.0
O32 O 0.0316 0.29144 0.00687 0.0
O33 O 0.94117 0.25638 0.92026 0.0
C34 C 0.01521 0.37226 0.95038 0.0
O35 O 0.03203 0.36622 0.97742 0.0
C36 C 0.06205 0.31747 0.92506 0.0
O37 O 0.06584 0.34962 0.91826 0.0
O38 O 0.98001 0.29311 -0.00116 0.0
C39 C 0.67239 0.93588 0.23742 0.0
O40 O 0.68538 0.96815 0.22234 0.0
O41 O 0.71409 0.01945 0.28603 0.0
Zn42 Zn 0.66655 0.9746 0.29878 0.0
O43 O 0.62321 0.98154 0.2891 0.0
C44 C 0.69 -0.00507 0.37303 0.0
O45 O 0.71058 0.02629 0.35687 0.0
O46 O 0.66195 0.93161 0.27054 0.0
C47 C 0.61978 0.00467 0.30842 0.0
O48 O 0.64501 0.02391 0.33278 0.0
C49 C 0.71799 0.04975 0.27533 0.0
O50 O 0.68922 0.05149 0.26452 0.0
O51 O 0.66862 0.96733 0.3537 0.0
C52 C 0.71687 0.6732 0.56758 0.0
O53 O 0.69115 0.67571 0.54982 0.0
O54 O 0.65993 0.69719 0.62966 0.0
Zn55 Zn 0.66458 0.65242 0.62494 0.0
O56 O 0.62244 0.61124 0.59816 0.0
C57 C 0.6365 0.63524 0.69548 0.0
O58 O 0.61146 0.6392 0.67809 0.0
O59 O 0.71189 0.6638 0.60099 0.0
C60 C 0.59177 0.60933 0.59292 0.0
O61 O 0.58697 0.63621 0.60393 0.0
C62 C 0.65199 0.71564 0.60801 0.0
O63 O 0.6458 0.70663 0.57329 0.0
O64 O 0.66337 0.63763 0.67746 0.0
C65 C 0.04171 0.72304 0.89752 0.0
O66 O 0.00874 0.70281 0.88399 0.0
O67 O 0.96222 0.6685 0.95413 0.0
Zn68 Zn 0.01201 0.6735 0.95854 0.0
O69 O 0.01121 0.62643 0.94528 0.0
C70 C 0.01418 0.70264 0.03035 0.0
O71 O -0.00044 0.71967 0.0134 0.0
O72 O 0.04918 0.7154 0.9288 0.0
C73 C 0.01021 0.60592 0.97122 0.0
O74 O 0.00883 0.61549 0.00506 0.0
C75 C 0.93774 0.64532 0.97516 0.0
O76 O 0.94484 0.6231 0.99391 0.0
O77 O 0.0245 0.68399 0.0118 0.0
C78 C 0.93149 0.68819 0.4322 0.0
O79 O 0.96079 0.69351 0.44999 0.0
O80 O 0.01556 0.71496 0.37392 0.0
Zn81 Zn 0.96541 0.67086 0.37331 0.0
O82 O 0.96394 0.62542 0.39234 0.0
C83 C 0.98081 0.66213 0.30229 0.0
O84 O 0.00652 0.66085 0.32139 0.0
O85 O 0.9279 0.679 0.39871 0.0
C86 C -0.00816 0.62286 0.40055 0.0
O87 O 0.02438 0.65195 0.39887 0.0
C88 C 0.04163 0.73266 0.39615 0.0
O89 O 0.03821 0.72301 0.43067 0.0
O90 O 0.95556 0.66409 0.31926 0.0
C91 C 0.23935 0.93082 0.75356 0.0
O92 O 0.26229 0.96192 0.76926 0.0
O93 O 0.28819 0.01367 0.69555 0.0
Zn94 Zn 0.28373 0.96429 0.68951 0.0
O95 O 0.33232 0.9683 0.7019 0.0
C96 C 0.25048 0.96255 0.6219 0.0
O97 O 0.23477 0.97587 0.64302 0.0
O98 O 0.24337 0.9261 0.71997 0.0
C99 C 0.35354 0.96952 0.67663 0.0
O100 O 0.34269 0.96621 0.64247 0.0
C101 C 0.31237 0.03819 0.67528 0.0
O102 O 0.33431 0.03053 0.6567 0.0
O103 O 0.27154 0.95253 0.63619 0.0
C104 C 0.32014 0.25364 0.08441 0.0
O105 O 0.31108 0.27567 0.10078 0.0
O106 O 0.29802 0.31324 0.03157 0.0
Zn107 Zn 0.34338 0.30925 0.03093 0.0
O108 O 0.38508 0.35136 0.05697 0.0
C109 C 0.35657 0.34004 0.96177 0.0
O110 O 0.35325 0.36399 0.98186 0.0
O111 O 0.33458 0.26204 0.0529 0.0
C112 C 0.38425 0.37984 0.06649 0.0
O113 O 0.3545 0.38168 0.06068 0.0
C114 C 0.26754 0.28596 0.02273 0.0
O115 O 0.26501 0.25391 0.01875 0.0
O116 O 0.35528 0.31255 0.97738 0.0
C117 C 0.04376 0.32262 0.4279 0.0
O118 O 0.01184 0.31095 0.44349 0.0
O119 O 0.96141 0.28172 0.37583 0.0
Zn120 Zn 0.00538 0.3313 0.36831 0.0
O121 O -0.00174 0.3725 0.38639 0.0
C122 C 0.98636 0.31867 0.2927 0.0
O123 O 0.95379 0.30138 0.30751 0.0
O124 O 0.04798 0.33319 0.39485 0.0
C125 C 0.97806 0.38216 0.36962 0.0
O126 O 0.96022 0.3641 0.34032 0.0
C127 C 0.92921 0.27476 0.38336 0.0
O128 O 0.92362 0.30144 0.3932 0.0
O129 O 0.01422 0.33532 0.31339 0.0
C130 C 0.70889 0.03949 0.78073 0.0
O131 O 0.68079 0.01714 0.80076 0.0
O132 O 0.65377 0.94833 0.72645 0.0
Zn133 Zn 0.6624 -0.00107 0.7191 0.0
O134 O 0.61685 0.00043 0.73147 0.0
C135 C 0.68783 -0.00622 0.6482 0.0
O136 O 0.70151 0.97687 0.66693 0.0
O137 O 0.70668 0.03643 0.74615 0.0
C138 C 0.61139 0.02416 0.71597 0.0
O139 O 0.63723 0.04889 0.69526 0.0
C140 C 0.62772 0.92432 0.70728 0.0
O141 O 0.60623 0.93351 0.6899 0.0
O142 O 0.6712 0.00755 0.665 0.0
C143 C 0.6686 0.72753 0.0983 0.0
O144 O 0.67057 0.70182 0.11653 0.0
O145 O 0.71 0.68269 0.0379 0.0
Zn146 Zn 0.66115 0.67995 0.0401 0.0
O147 O 0.62294 0.63511 0.0662 0.0
C148 C 0.6487 0.6503 0.97017 0.0
O149 O 0.65876 0.63011 0.98857 0.0
O150 O 0.66484 0.72469 0.06376 0.0
C151 C 0.62443 0.60612 0.07106 0.0
O152 O 0.65355 0.60493 0.06058 0.0
C153 C 0.7287 0.67709 0.06151 0.0
O154 O 0.71709 0.66945 0.09539 0.0
O155 O 0.6461 0.67526 0.98704 0.0
H156 H 0.29062 0.04159 0.15019 0.0
H157 H 0.32301 0.10854 0.24756 0.0
H158 H 0.29085 0.09117 0.11575 0.0
H159 H 0.32394 0.15806 0.2131 0.0
H160 H 0.289 0.22769 0.15101 0.0
H161 H 0.28314 0.17475 0.1833 0.0
H162 H 0.33448 0.15186 0.09293 0.0
H163 H 0.33967 0.20446 0.06021 0.0
C164 C 0.29779 0.06684 0.16424 0.0
C165 C 0.30679 0.07109 0.20161 0.0
C166 C 0.2981 0.09529 0.14446 0.0
C167 C 0.30734 0.12854 0.1617 0.0
C168 C 0.31612 0.13262 0.19911 0.0
C169 C 0.31582 0.10426 0.21882 0.0
C170 C 0.29886 0.21127 0.1379 0.0
C171 C 0.31501 0.22043 0.10313 0.0
C172 C 0.29566 0.18101 0.15651 0.0
C173 C 0.30859 0.15924 0.14081 0.0
C174 C 0.32394 0.16788 0.10564 0.0
C175 C 0.32711 0.19815 0.08699 0.0
H176 H 0.23365 0.30759 0.49179 0.0
H177 H 0.19918 0.33461 0.59258 0.0
H178 H 0.18322 0.30763 0.45963 0.0
H179 H 0.14915 0.33562 0.5601 0.0
H180 H 0.04208 0.29678 0.49674 0.0
H181 H 0.09179 0.29607 0.52998 0.0
H182 H 0.1642 0.34952 0.4391 0.0
H183 H 0.11427 0.34934 0.40549 0.0
C184 C 0.21538 0.31369 0.50709 0.0
C185 C 0.22046 0.32114 0.54475 0.0
C186 C 0.18658 0.31395 0.48857 0.0
C187 C 0.16225 0.32185 0.50721 0.0
C188 C 0.16716 0.32904 0.54498 0.0
C189 C 0.19592 0.32862 0.56357 0.0
C190 C 0.06862 0.3084 0.48386 0.0
C191 C 0.07418 0.32298 0.44841 0.0
C192 C 0.09718 0.30818 0.50301 0.0
C193 C 0.13198 0.32265 0.48719 0.0
C194 C 0.13759 0.33759 0.45187 0.0
C195 C 0.10901 0.33768 0.43267 0.0
H196 H 0.77164 0.08903 0.7467 0.0
H197 H 0.72338 0.05454 0.85373 0.0
H198 H 0.82768 0.13625 0.77462 0.0
H199 H 0.7799 0.10156 0.88173 0.0
H200 H 0.8721 0.21621 0.91402 0.0
H201 H 0.81574 0.16804 0.88715 0.0
H202 H 0.87853 0.14263 0.81164 0.0
H203 H 0.93489 0.19119 0.83802 0.0
C204 C 0.77301 0.09141 0.77622 0.0
C205 C 0.74299 0.068 0.79799 0.0
C206 C 0.80527 0.11836 0.79223 0.0
C207 C 0.80831 0.12261 0.8304 0.0
C208 C 0.77828 0.09923 0.85221 0.0
C209 C 0.74597 0.07218 0.83618 0.0
C210 C 0.8739 0.20035 0.89168 0.0
C211 C 0.90802 0.20765 0.87807 0.0
C212 C 0.84158 0.17258 0.87645 0.0
C213 C 0.84264 0.15153 0.84724 0.0
C214 C 0.87677 0.15868 0.8338 0.0
C215 C 0.90908 0.18642 0.84905 0.0
H216 H 0.65783 0.78156 0.0704 0.0
H217 H 0.68168 0.7438 0.17088 0.0
H218 H 0.65766 0.83151 0.10362 0.0
H219 H 0.68251 0.79418 0.20382 0.0
H220 H 0.64327 0.86482 0.25871 0.0
H221 H 0.64182 0.8147 0.22445 0.0
H222 H 0.69772 0.88774 0.13472 0.0
H223 H 0.69825 0.93762 0.16857 0.0
C224 C 0.6633 0.78406 0.09951 0.0
C225 C 0.66967 0.75864 0.118 0.0
C226 C 0.66337 0.8128 0.11854 0.0
C227 C 0.66994 0.81682 0.15644 0.0
C228 C 0.67669 0.79156 0.17478 0.0
C229 C 0.67646 0.76278 0.15582 0.0
C230 C 0.65515 0.87017 0.23163 0.0
C231 C 0.67091 0.90524 0.21641 0.0
C232 C 0.65453 0.84147 0.21206 0.0
C233 C 0.66982 0.8472 0.17687 0.0
C234 C 0.68531 0.88224 0.16155 0.0
C235 C 0.68579 0.91091 0.18107 0.0
H236 H 0.86367 0.66935 0.40613 0.0
H237 H 0.93224 0.71184 0.50196 0.0
H238 H 0.81344 0.66871 0.43921 0.0
H239 H 0.88224 0.71226 0.53478 0.0
H240 H 0.77141 0.66229 0.59366 0.0
H241 H 0.82451 0.66907 0.56074 0.0
H242 H 0.79173 0.70622 0.4655 0.0
H243 H 0.73803 0.69838 0.49809 0.0
C244 C 0.86819 0.67902 0.43413 0.0
C245 C 0.90189 0.69043 0.45149 0.0
C246 C 0.83941 0.67887 0.45305 0.0
C247 C 0.84373 0.69034 0.48973 0.0
C248 C 0.87778 0.70267 0.50677 0.0
C249 C 0.90652 0.70262 0.48789 0.0
C250 C 0.77563 0.67209 0.56576 0.0
C251 C 0.75036 0.67954 0.54841 0.0
C252 C 0.80624 0.67622 0.54694 0.0
C253 C 0.81237 0.6881 0.5104 0.0
C254 C 0.78753 0.69643 0.4934 0.0
C255 C 0.75683 0.69211 0.51216 0.0
H256 H 0.18778 0.86362 0.72898 0.0
H257 H 0.22334 0.93099 0.82604 0.0
H258 H 0.13965 0.81422 0.76397 0.0
H259 H 0.17464 0.88165 0.86092 0.0
H260 H 0.11194 0.7705 0.91832 0.0
H261 H 0.1589 0.82127 0.88362 0.0
H262 H 0.08239 0.79761 0.79509 0.0
H263 H 0.0355 0.74635 0.82954 0.0
C264 C 0.18521 0.86799 0.75774 0.0
C265 C 0.20949 0.90124 0.77474 0.0
C266 C 0.15744 0.83972 0.77774 0.0
C267 C 0.1533 0.844 0.81522 0.0
C268 C 0.17739 0.87735 0.83218 0.0
C269 C 0.20518 0.90569 0.81214 0.0
C270 C 0.10508 0.77612 0.89147 0.0
C271 C 0.06999 0.75429 0.87664 0.0
C272 C 0.13195 0.80539 0.87169 0.0
C273 C 0.12438 0.81349 0.83661 0.0
C274 C 0.08921 0.79181 0.82188 0.0
C275 C 0.06229 0.76254 0.84169 0.0
H276 H 0.43571 0.02804 0.36623 0.0
H277 H 0.42015 0.00858 0.24982 0.0
H278 H 0.49203 0.02589 0.36293 0.0
H279 H 0.47728 0.00721 0.24642 0.0
H280 H 0.55814 0.96404 0.26723 0.0
H281 H 0.50287 0.96895 0.2658 0.0
H282 H 0.55343 0.06088 0.33962 0.0
H283 H 0.60809 0.05551 0.34172 0.0
C284 C 0.44447 0.02362 0.33983 0.0
C285 C 0.42344 0.01853 0.30828 0.0
C286 C 0.47692 0.0226 0.33791 0.0
C287 C 0.48927 0.01659 0.30437 0.0
C288 C 0.46833 0.01159 0.27271 0.0
C289 C 0.43573 0.01258 0.27464 0.0
C290 C 0.5575 0.98544 0.28293 0.0
C291 C 0.58734 0.00914 0.30488 0.0
C292 C 0.52591 0.98836 0.28197 0.0
C293 C 0.52364 0.01508 0.30288 0.0
C294 C 0.55402 0.03953 0.32377 0.0
C295 C 0.58545 0.03655 0.32482 0.0
H296 H 0.59285 0.55094 0.56201 0.0
H297 H 0.51977 0.58981 0.59424 0.0
H298 H 0.54058 0.49119 0.5485 0.0
H299 H 0.46779 0.53003 0.58228 0.0
H300 H 0.37605 0.42358 0.55131 0.0
H301 H 0.42986 0.48309 0.54163 0.0
H302 H 0.49804 0.4422 0.5847 0.0
H303 H 0.44448 0.38249 0.59272 0.0
C304 C 0.56561 0.54683 0.56587 0.0
C305 C 0.56043 0.57495 0.57965 0.0
C306 C 0.53565 0.51252 0.5583 0.0
C307 C 0.49989 0.50553 0.56471 0.0
C308 C 0.49481 0.53438 0.57653 0.0
C309 C 0.52472 0.56873 0.58369 0.0
C310 C 0.40267 0.42718 0.55791 0.0
C311 C 0.40604 0.39857 0.57327 0.0
C312 C 0.4335 0.46133 0.55258 0.0
C313 C 0.46829 0.46776 0.56306 0.0
C314 C 0.47181 0.43832 0.57601 0.0
C315 C 0.44102 0.40402 0.58082 0.0
H316 H 0.01471 0.56143 0.02173 0.0
H317 H 0.0092 0.57423 0.90503 0.0
H318 H 0.01852 0.50684 0.01162 0.0
H319 H 0.01326 0.51895 0.89492 0.0
H320 H 0.97493 0.39211 0.90678 0.0
H321 H 0.97559 0.45035 0.90777 0.0
H322 H 0.06426 0.49254 0.98576 0.0
H323 H 0.0634 0.43468 0.98521 0.0
C324 C 0.01436 0.55264 0.99383 0.0
C325 C 0.01179 0.57231 0.96416 0.0
C326 C 0.01681 0.52143 0.98806 0.0
C327 C 0.01667 0.50891 0.95248 0.0
C328 C 0.01346 0.52807 0.92265 0.0
C329 C 0.01124 0.55969 0.92844 0.0
C330 C -0.00508 0.41405 0.92367 0.0
C331 C 0.01869 0.40862 0.9464 0.0
C332 C -0.00463 0.44739 0.92412 0.0
C333 C 0.01957 0.4757 0.94731 0.0
C334 C 0.0448 0.47091 0.9682 0.0
C335 C 0.04434 0.43776 0.9678 0.0
H336 H 0.0462 0.60619 0.40949 0.0
H337 H 0.92877 0.5571 0.40371 0.0
H338 H 0.04018 0.54587 0.4085 0.0
H339 H 0.9228 0.49677 0.4034 0.0
H340 H 0.93537 0.40782 0.34157 0.0
H341 H 0.93679 0.46448 0.35656 0.0
H342 H 0.01836 0.48718 0.43954 0.0
H343 H 0.01737 0.43048 0.42413 0.0
C344 C 0.01907 0.58254 0.40878 0.0
C345 C 0.988 0.58648 0.40611 0.0
C346 C 0.01562 0.54793 0.40841 0.0
C347 C 0.98102 0.51656 0.40542 0.0
C348 C 0.94986 0.52046 0.40504 0.0
C349 C 0.9533 0.55504 0.40539 0.0
C350 C 0.95336 0.42466 0.36327 0.0
C351 C 0.9765 0.4148 0.38141 0.0
C352 C 0.95396 0.45704 0.37208 0.0
C353 C 0.97774 0.48037 0.39922 0.0
C354 C 2e-05 0.46993 0.41825 0.0
C355 C -0.00067 0.4374 0.40951 0.0
H356 H 0.55109 0.97468 0.75394 0.0
H357 H 0.58825 0.06455 0.67819 0.0
H358 H 0.48853 0.96279 0.74708 0.0
H359 H 0.52584 0.05267 0.67157 0.0
H360 H 0.40842 0.98491 0.62845 0.0
H361 H 0.47108 0.0009 0.64194 0.0
H362 H 0.447 0.98924 0.75744 0.0
H363 H 0.38386 0.97308 0.74399 0.0
C364 C 0.54603 -0.00773 0.73632 0.0
C365 C 0.5746 0.02032 0.71629 0.0
C366 C 0.51022 0.9855 0.73249 0.0
C367 C 0.5023 0.0065 0.70841 0.0
C368 C 0.53111 0.03566 0.68984 0.0
C369 C 0.56689 0.04258 0.69383 0.0
C370 C 0.41634 0.98562 0.65675 0.0
C371 C 0.39113 0.97772 0.68515 0.0
C372 C 0.45236 -0.00489 0.66447 0.0
C373 C 0.46399 -0.00333 0.70076 0.0
C374 C 0.43872 0.9882 0.72922 0.0
C375 C 0.40265 0.97901 0.7215 0.0
H376 H 0.44583 0.38271 0.09393 0.0
H377 H 0.3994 0.45042 0.06637 0.0
H378 H 0.5045 0.437 0.10606 0.0
H379 H 0.4582 0.50458 0.07661 0.0
H380 H 0.56418 0.60009 0.10525 0.0
H381 H 0.50592 0.54462 0.11493 0.0
H382 H 0.55105 0.48101 0.06967 0.0
H383 H 0.60946 0.5361 0.0618 0.0
C384 C 0.44812 0.40923 0.09075 0.0
C385 C 0.41816 0.41234 0.07881 0.0
C386 C 0.4818 0.44037 0.09747 0.0
C387 C 0.48641 0.47531 0.0918 0.0
C388 C 0.45577 0.47826 0.08175 0.0
C389 C 0.42198 0.44713 0.0756 0.0
C390 C 0.56176 0.57411 0.09811 0.0
C391 C 0.59123 0.57246 0.08237 0.0
C392 C 0.5283 0.54232 0.10341 0.0
C393 C 0.52343 0.50826 0.09254 0.0
C394 C 0.55369 0.50656 0.0788 0.0
C395 C 0.58727 0.53828 0.07404 0.0
H396 H 0.05797 0.75278 0.32495 0.0
H397 H 0.10487 0.77799 0.43354 0.0
H398 H 0.11566 0.79852 0.29941 0.0
H399 H 0.1628 0.82482 0.40777 0.0
H400 H 0.27055 0.88094 0.34682 0.0
H401 H 0.21314 0.83128 0.36976 0.0
H402 H 0.15367 0.86368 0.29702 0.0
H403 H 0.211 0.91279 0.27351 0.0
C404 C 0.08052 0.76832 0.34351 0.0
C405 C 0.07673 0.76178 0.38141 0.0
C406 C 0.11363 0.79468 0.32876 0.0
C407 C 0.14384 0.81534 0.35149 0.0
C408 C 0.14014 0.80896 0.38945 0.0
C409 C 0.1069 0.78238 0.40427 0.0
C410 C 0.24523 0.87707 0.33524 0.0
C411 C 0.24536 0.90088 0.30836 0.0
C412 C 0.21233 0.84887 0.34873 0.0
C413 C 0.17884 0.84382 0.3356 0.0
C414 C 0.179 0.86665 0.30757 0.0
C415 C 0.21189 0.89481 0.29403 0.0
H416 H 0.31567 0.21536 0.55493 0.0
H417 H 0.28439 0.2286 0.66392 0.0
H418 H 0.3181 0.16161 0.57528 0.0
H419 H 0.28759 0.17564 0.68424 0.0
H420 H 0.26207 0.05714 0.69738 0.0
H421 H 0.25746 0.10979 0.67758 0.0
H422 H 0.35663 0.14832 0.61501 0.0
H423 H 0.3609 0.09552 0.63421 0.0
C424 C 0.30917 0.20675 0.58312 0.0
C425 C 0.29993 0.22632 0.60776 0.0
C426 C 0.31085 0.17616 0.59486 0.0
C427 C 0.30327 0.16453 0.63145 0.0
C428 C 0.29325 0.18366 0.65582 0.0
C429 C 0.29159 0.21416 0.64413 0.0
C430 C 0.28311 0.07709 0.67978 0.0
C431 C 0.31181 0.07213 0.66733 0.0
C432 C 0.28046 0.10722 0.66839 0.0
C433 C 0.30647 0.133 0.64439 0.0
C434 C 0.33573 0.12855 0.63287 0.0
C435 C 0.33837 0.09846 0.64421 0.0
H436 H 0.27392 0.34681 0.99104 0.0
H437 H 0.19442 0.23757 0.02353 0.0
H438 H 0.22613 0.3544 0.96276 0.0
H439 H 0.14579 0.24583 -0.00237 0.0
H440 H 0.06792 0.25614 0.92206 0.0
H441 H 0.11852 0.24902 0.94415 0.0
H442 H 0.17793 0.3636 0.97248 0.0
H443 H 0.12856 0.37086 0.94802 0.0
C444 C 0.24596 0.32472 0.99295 0.0
C445 C 0.23775 0.29168 0.00969 0.0
C446 C 0.21842 0.32906 0.97674 0.0
C447 C 0.18182 0.30076 0.9777 0.0
C448 C 0.17364 0.26798 0.99542 0.0
C449 C 0.20139 0.26333 0.01078 0.0
C450 C 0.09225 0.27986 0.93227 0.0
C451 C 0.09444 0.31405 0.93313 0.0
C452 C 0.12108 0.27575 0.94548 0.0
C453 C 0.15234 0.30559 0.96074 0.0
C454 C 0.15476 0.34002 0.9605 0.0
C455 C 0.12634 0.34425 0.94646 0.0
H456 H 0.85602 0.2517 0.38684 0.0
H457 H 0.93256 0.21829 0.3512 0.0
H458 H 0.80634 0.19754 0.35814 0.0
H459 H 0.88341 0.16525 0.32152 0.0
H460 H 0.78016 0.05516 0.30406 0.0
H461 H 0.83062 0.10827 0.33228 0.0
H462 H 0.78405 0.17411 0.29761 0.0
H463 H 0.73255 0.1204 0.27043 0.0
C464 C 0.86221 0.23267 0.37324 0.0
C465 C 0.89827 0.23939 0.37132 0.0
C466 C 0.83383 0.2019 0.35633 0.0
C467 C 0.84095 0.17731 0.33703 0.0
C468 C 0.87683 0.18341 0.33632 0.0
C469 C 0.90508 0.21393 0.35341 0.0
C470 C 0.78087 0.08104 0.3019 0.0
C471 C 0.75211 0.08343 0.2852 0.0
C472 C 0.80991 0.11158 0.31813 0.0
C473 C 0.81115 0.14539 0.31772 0.0
C474 C 0.78345 0.14826 0.2992 0.0
C475 C 0.75421 0.11758 0.28313 0.0
H476 H 0.65764 0.73613 0.67938 0.0
H477 H 0.63512 0.76212 0.57157 0.0
H478 H 0.64854 0.7837 0.70559 0.0
H479 H 0.62671 0.81056 0.598 0.0
H480 H 0.58027 0.87074 0.66124 0.0
H481 H 0.58475 0.81913 0.63791 0.0
H482 H 0.679 0.84973 0.70664 0.0
H483 H 0.67422 0.90095 0.73045 0.0
C484 C 0.65098 0.75216 0.66116 0.0
C485 C 0.64725 0.74541 0.62327 0.0
C486 C 0.64586 0.77953 0.67627 0.0
C487 C 0.63695 0.80091 0.65391 0.0
C488 C 0.63311 0.79418 0.61601 0.0
C489 C 0.6382 0.76666 0.60082 0.0
C490 C 0.6016 0.86613 0.67183 0.0
C491 C 0.62697 0.89003 0.69764 0.0
C492 C 0.60437 0.83677 0.65815 0.0
C493 C 0.63248 0.83063 0.67008 0.0
C494 C 0.65689 0.8536 0.69705 0.0
C495 C 0.65414 0.88298 0.71071 0.0
H496 H 0.75671 0.68832 0.99263 0.0
H497 H 0.77308 0.66016 0.10191 0.0
H498 H 0.80593 0.67959 0.97036 0.0
H499 H 0.82324 0.65227 0.07958 0.0
H500 H 0.8815 0.60119 0.02014 0.0
H501 H 0.8317 0.61 0.04106 0.0
H502 H 0.87136 0.70571 0.97304 0.0
H503 H 0.92075 0.69647 0.9515 0.0
C504 C 0.77111 0.68068 0.01206 0.0
C505 C 0.76087 0.67484 0.04911 0.0
C506 C 0.79947 0.67581 -0.00076 0.0
C507 C 0.8184 0.66506 0.02312 0.0
C508 C 0.80875 0.65998 0.06036 0.0
C509 C 0.78025 0.66482 0.07323 0.0
C510 C 0.87935 0.62386 0.00928 0.0
C511 C 0.90509 0.64813 0.98414 0.0
C512 C 0.85103 0.62914 0.0216 0.0
C513 C 0.84782 0.65881 0.00908 0.0
C514 C 0.87292 0.68244 0.98307 0.0
C515 C 0.90123 0.67713 0.97068 0.0
H516 H 0.2194 0.94552 0.38504 0.0
H517 H 0.31852 0.04692 0.40703 0.0
H518 H 0.20968 0.93412 0.45085 0.0
H519 H 0.30798 0.03581 0.47294 0.0
H520 H 0.23596 0.009 0.58378 0.0
H521 H 0.24015 0.01885 0.51763 0.0
H522 H 0.2658 0.93286 0.50344 0.0
H523 H 0.26273 0.92349 0.56987 0.0
C524 C 0.23865 0.9657 0.40394 0.0
C525 C 0.26961 -0.00275 0.39109 0.0
C526 C 0.23318 0.95901 0.44142 0.0
C527 C 0.25811 0.98416 0.4665 0.0
C528 C 0.28844 0.01619 0.45382 0.0
C529 C 0.29441 0.02251 0.41631 0.0
C530 C 0.24197 0.99181 0.56655 0.0
C531 C 0.24892 0.96537 0.58187 0.0
C532 C 0.24453 -0.00237 0.52886 0.0
C533 C 0.25325 0.97656 0.50591 0.0
C534 C 0.25892 0.94926 0.5209 0.0
C535 C 0.25717 0.94396 0.55872 0.0
H536 H 0.36209 0.29518 0.91123 0.0
H537 H 0.35264 0.392 0.92123 0.0
H538 H 0.35843 0.29814 0.84481 0.0
H539 H 0.3493 0.39503 0.85496 0.0
H540 H 0.29631 0.35669 0.73995 0.0
H541 H 0.3047 0.35875 0.80626 0.0
H542 H 0.3934 0.3366 0.79244 0.0
H543 H 0.38496 0.33423 0.72653 0.0
C544 C 0.35964 0.31729 0.89927 0.0
C545 C 0.35758 0.34328 0.92151 0.0
C546 C 0.35765 0.31905 0.86125 0.0
C547 C 0.3534 0.34674 0.84473 0.0
C548 C 0.35209 0.37312 0.86694 0.0
C549 C 0.35427 0.37149 0.9049 0.0
C550 C 0.31778 0.35258 0.75108 0.0
C551 C 0.33979 0.34509 0.72799 0.0
C552 C 0.32267 0.35388 0.78901 0.0
C553 C 0.34955 0.34756 0.8045 0.0
C554 C 0.37211 0.34101 0.78132 0.0
C555 C 0.36735 0.33987 0.74352 0.0
H556 H 0.04888 0.34998 0.2512 0.0
H557 H 0.93146 0.28319 0.24354 0.0
H558 H 0.05343 0.34484 0.18499 0.0
H559 H 0.93609 0.27741 0.17813 0.0
H560 H 0.95332 0.30343 0.05724 0.0
H561 H 0.95072 0.31245 0.12269 0.0
H562 H 0.04462 0.2989 0.13942 0.0
H563 H 0.04778 0.29073 0.07383 0.0
C564 C 0.02411 0.33428 0.23544 0.0
C565 C -0.01015 0.31705 0.25263 0.0
C566 C 0.0267 0.33114 0.1976 0.0
C567 C -0.00491 0.31072 0.1763 0.0
C568 C 0.96092 0.2938 0.19358 0.0
C569 C 0.95832 0.29697 0.23122 0.0
C570 C 0.97333 0.30223 0.07487 0.0
C571 C 0.00065 0.2962 0.06034 0.0
C572 C 0.97181 0.30735 0.11241 0.0
C573 C -0.00252 0.3064 0.13628 0.0
C574 C 0.02477 0.30032 0.12173 0.0
C575 C 0.02635 0.29529 0.08416 0.0
H576 H 0.65711 0.93448 0.4173 0.0
H577 H 0.72322 0.05199 0.42004 0.0
H578 H 0.65664 0.93348 0.4844 0.0
H579 H 0.72248 0.05081 0.4864 0.0
H580 H 0.67343 0.03536 0.6015 0.0
H581 H 0.67342 0.03403 0.53476 0.0
H582 H 0.70365 0.95041 0.53703 0.0
H583 H 0.70385 0.95175 0.60384 0.0
C584 C 0.67155 0.95998 0.43214 0.0
C585 C 0.69013 -0.00673 0.41337 0.0
C586 C 0.67138 0.9594 0.47043 0.0
C587 C 0.68934 -0.00789 0.49043 0.0
C588 C 0.70806 0.02525 0.47163 0.0
C589 C 0.70861 0.02582 0.43357 0.0
C590 C 0.68019 0.01679 0.58778 0.0
C591 C 0.68891 -0.00613 0.60787 0.0
C592 C 0.68023 0.01607 0.54963 0.0
C593 C 0.68853 -0.0079 0.53085 0.0
C594 C 0.6969 0.96893 0.55089 0.0
C595 C 0.69734 0.96998 0.58908 0.0
H596 H 0.65648 0.60181 0.92762 0.0
H597 H 0.62916 0.68756 0.92219 0.0
H598 H 0.65134 0.59532 0.8615 0.0
H599 H 0.62432 0.68116 0.85565 0.0
H600 H 0.58552 0.63538 0.74097 0.0
H601 H 0.58621 0.63699 0.8075 0.0
H602 H 0.68594 0.63201 0.80805 0.0
H603 H 0.68519 0.63011 0.7413 0.0
C604 C 0.64922 0.61922 0.91235 0.0
C605 C 0.64333 0.64532 0.93018 0.0
C606 C 0.6465 0.61559 0.8744 0.0
C607 C 0.63764 0.63784 0.85339 0.0
C608 C 0.63092 0.66342 0.87121 0.0
C609 C 0.63382 0.66719 0.90927 0.0
C610 C 0.60746 0.63429 0.75522 0.0
C611 C 0.6354 0.63272 0.73582 0.0
C612 C 0.60795 0.63549 0.79335 0.0
C613 C 0.63624 0.63491 0.81296 0.0
C614 C 0.66362 0.63224 0.79365 0.0
C615 C 0.66324 0.63123 0.75543 0.0
H616 H 0.93414 0.6671 0.25326 0.0
H617 H 0.03621 0.66685 0.26064 0.0
H618 H 0.94318 0.67781 0.18746 0.0
H619 H 0.04576 0.67868 0.19564 0.0
H620 H 0.033 0.66158 0.0728 0.0
H621 H 0.02328 0.65029 0.13796 0.0
H622 H 0.98167 0.72508 0.1446 0.0
H623 H -0.0097 0.7355 0.07886 0.0
C624 C 0.95839 0.66921 0.24086 0.0
C625 C 0.98437 0.66601 0.26215 0.0
C626 C 0.96377 0.67571 0.20325 0.0
C627 C -0.00472 0.67926 0.1863 0.0
C628 C 0.02095 0.6756 0.20765 0.0
C629 C 0.01549 0.66892 0.24504 0.0
C630 C 0.02211 0.67593 0.08815 0.0
C631 C 0.01245 0.69948 0.07061 0.0
C632 C 0.01658 0.66949 0.1256 0.0
C633 C 0.00154 0.68666 0.14652 0.0
C634 C -0.00729 0.71093 0.12916 0.0
C635 C -0.00194 0.71723 0.09157 0.0
loop_
_geom_bond_atom_site_label_1
_geom_bond_atom_site_label_2
_geom_bond_distance
_geom_bond_site_symmetry_2
_ccdc_geom_bond_type
C0 O1 1.160 . S
C0 O7 1.185 . S
O1 C0 1.160 . S
O2 Zn3 1.899 1_565 S
O2 C10 1.284 . S
Zn3 O2 1.899 1_545 S
Zn3 O4 2.032 . S
Zn3 O7 2.086 . S
Zn3 O12 1.977 . S
O4 Zn3 2.032 . S
O4 C8 1.278 1_545 S
C5 O6 1.203 1_545 S
C5 O12 1.267 . S
O6 C5 1.203 1_565 S
O7 C0 1.185 . S
O7 Zn3 2.086 . S
C8 O4 1.278 1_565 S
C8 O9 1.211 . S
O9 C8 1.211 . S
C10 O2 1.284 . S
C10 O11 1.273 . S
O11 C10 1.273 . S
O12 Zn3 1.977 . S
O12 C5 1.267 . S
C13 O14 1.160 . S
C13 O20 1.185 . S
O14 C13 1.160 . S
O15 Zn16 1.899 . S
O15 C23 1.284 . S
Zn16 O15 1.899 . S
Zn16 O17 2.032 . S
Zn16 O20 2.086 . S
Zn16 O25 1.977 . S
O17 Zn16 2.032 . S
O17 C21 1.278 . S
C18 O19 1.203 . S
C18 O25 1.267 . S
O19 C18 1.203 . S
O20 C13 1.185 . S
O20 Zn16 2.086 . S
C21 O17 1.278 . S
C21 O22 1.211 . S
O22 C21 1.211 . S
C23 O15 1.284 . S
C23 O24 1.273 . S
O24 C23 1.273 . S
O25 Zn16 1.977 . S
O25 C18 1.267 . S
C26 O27 1.160 . S
C26 O33 1.185 . S
O27 C26 1.160 . S
O28 Zn29 1.899 1_455 S
O28 C36 1.284 . S
Zn29 O28 1.899 1_655 S
Zn29 O30 2.032 . S
Zn29 O33 2.086 . S
Zn29 O38 1.977 1_556 S
O30 Zn29 2.032 . S
O30 C34 1.278 1_655 S
C31 O32 1.203 1_655 S
C31 O38 1.267 . S
O32 C31 1.203 1_455 S
O33 C26 1.185 . S
O33 Zn29 2.086 . S
C34 O30 1.278 1_455 S
C34 O35 1.211 . S
O35 C34 1.211 . S
C36 O28 1.284 . S
C36 O37 1.273 . S
O37 C36 1.273 . S
O38 Zn29 1.977 1_554 S
O38 C31 1.267 . S
C39 O40 1.160 . S
C39 O46 1.185 . S
O40 C39 1.160 . S
O41 Zn42 1.899 1_545 S
O41 C49 1.284 . S
Zn42 O41 1.899 1_565 S
Zn42 O43 2.032 . S
Zn42 O46 2.086 . S
Zn42 O51 1.977 . S
O43 Zn42 2.032 . S
O43 C47 1.278 1_565 S
C44 O45 1.203 1_565 S
C44 O51 1.267 . S
O45 C44 1.203 1_545 S
O46 C39 1.185 . S
O46 Zn42 2.086 . S
C47 O43 1.278 1_545 S
C47 O48 1.211 . S
O48 C47 1.211 . S
C49 O41 1.284 . S
C49 O50 1.273 . S
O50 C49 1.273 . S
O51 Zn42 1.977 . S
O51 C44 1.267 . S
C52 O53 1.160 . S
C52 O59 1.185 . S
O53 C52 1.160 . S
O54 Zn55 1.899 . S
O54 C62 1.284 . S
Zn55 O54 1.899 . S
Zn55 O56 2.032 . S
Zn55 O59 2.086 . S
Zn55 O64 1.977 . S
O56 Zn55 2.032 . S
O56 C60 1.278 . S
C57 O58 1.203 . S
C57 O64 1.267 . S
O58 C57 1.203 . S
O59 C52 1.185 . S
O59 Zn55 2.086 . S
C60 O56 1.278 . S
C60 O61 1.211 . S
O61 C60 1.211 . S
C62 O54 1.284 . S
C62 O63 1.273 . S
O63 C62 1.273 . S
O64 Zn55 1.977 . S
O64 C57 1.267 . S
C65 O66 1.160 . S
C65 O72 1.185 . S
O66 C65 1.160 . S
O67 Zn68 1.899 1_655 S
O67 C75 1.284 . S
Zn68 O67 1.899 1_455 S
Zn68 O69 2.032 . S
Zn68 O72 2.086 . S
Zn68 O77 1.977 1_556 S
O69 Zn68 2.032 . S
O69 C73 1.278 1_455 S
C70 O71 1.203 1_455 S
C70 O77 1.267 . S
O71 C70 1.203 1_655 S
O72 C65 1.185 . S
O72 Zn68 2.086 . S
C73 O69 1.278 1_655 S
C73 O74 1.211 . S
O74 C73 1.211 . S
C75 O67 1.284 . S
C75 O76 1.273 . S
O76 C75 1.273 . S
O77 Zn68 1.977 1_554 S
O77 C70 1.267 . S
C78 O79 1.160 . S
C78 O85 1.185 . S
O79 C78 1.160 . S
O80 Zn81 1.899 1_455 S
O80 C88 1.284 . S
Zn81 O80 1.899 1_655 S
Zn81 O82 2.032 . S
Zn81 O85 2.086 . S
Zn81 O90 1.977 . S
O82 Zn81 2.032 . S
O82 C86 1.278 1_655 S
C83 O84 1.203 1_655 S
C83 O90 1.267 . S
O84 C83 1.203 1_455 S
O85 C78 1.185 . S
O85 Zn81 2.086 . S
C86 O82 1.278 1_455 S
C86 O87 1.211 . S
O87 C86 1.211 . S
C88 O80 1.284 . S
C88 O89 1.273 . S
O89 C88 1.273 . S
O90 Zn81 1.977 . S
O90 C83 1.267 . S
C91 O92 1.160 . S
C91 O98 1.185 . S
O92 C91 1.160 . S
O93 Zn94 1.899 1_545 S
O93 C101 1.284 . S
Zn94 O93 1.899 1_565 S
Zn94 O95 2.032 . S
Zn94 O98 2.086 . S
Zn94 O103 1.977 . S
O95 Zn94 2.032 . S
O95 C99 1.278 1_565 S
C96 O97 1.203 1_565 S
C96 O103 1.267 . S
O97 C96 1.203 1_545 S
O98 C91 1.185 . S
O98 Zn94 2.086 . S
C99 O95 1.278 1_545 S
C99 O100 1.211 . S
O100 C99 1.211 . S
C101 O93 1.284 . S
C101 O102 1.273 . S
O102 C101 1.273 . S
O103 Zn94 1.977 . S
O103 C96 1.267 . S
C104 O105 1.160 . S
C104 O111 1.185 . S
O105 C104 1.160 . S
O106 Zn107 1.899 . S
O106 C114 1.284 . S
Zn107 O106 1.899 . S
Zn107 O108 2.032 . S
Zn107 O111 2.086 . S
Zn107 O116 1.977 1_554 S
O108 Zn107 2.032 . S
O108 C112 1.278 . S
C109 O110 1.203 . S
C109 O116 1.267 . S
O110 C109 1.203 . S
O111 C104 1.185 . S
O111 Zn107 2.086 . S
C112 O108 1.278 . S
C112 O113 1.211 . S
O113 C112 1.211 . S
C114 O106 1.284 . S
C114 O115 1.273 . S
O115 C114 1.273 . S
O116 Zn107 1.977 1_556 S
O116 C109 1.267 . S
C117 O118 1.160 . S
C117 O124 1.185 . S
O118 C117 1.160 . S
O119 Zn120 1.899 1_655 S
O119 C127 1.284 . S
Zn120 O119 1.899 1_455 S
Zn120 O121 2.032 . S
Zn120 O124 2.086 . S
Zn120 O129 1.977 . S
O121 Zn120 2.032 . S
O121 C125 1.278 1_455 S
C122 O123 1.203 1_455 S
C122 O129 1.267 . S
O123 C122 1.203 1_655 S
O124 C117 1.185 . S
O124 Zn120 2.086 . S
C125 O121 1.278 1_655 S
C125 O126 1.211 . S
O126 C125 1.211 . S
C127 O119 1.284 . S
C127 O128 1.273 . S
O128 C127 1.273 . S
O129 Zn120 1.977 . S
O129 C122 1.267 . S
C130 O131 1.160 . S
C130 O137 1.185 . S
O131 C130 1.160 . S
O132 Zn133 1.899 1_565 S
O132 C140 1.284 . S
Zn133 O132 1.899 1_545 S
Zn133 O134 2.032 . S
Zn133 O137 2.086 . S
Zn133 O142 1.977 . S
O134 Zn133 2.032 . S
O134 C138 1.278 1_545 S
C135 O136 1.203 1_545 S
C135 O142 1.267 . S
O136 C135 1.203 1_565 S
O137 C130 1.185 . S
O137 Zn133 2.086 . S
C138 O134 1.278 1_565 S
C138 O139 1.211 . S
O139 C138 1.211 . S
C140 O132 1.284 . S
C140 O141 1.273 . S
O141 C140 1.273 . S
O142 Zn133 1.977 . S
O142 C135 1.267 . S
C143 O144 1.160 . S
C143 O150 1.185 . S
O144 C143 1.160 . S
O145 Zn146 1.899 . S
O145 C153 1.284 . S
Zn146 O145 1.899 . S
Zn146 O147 2.032 . S
Zn146 O150 2.086 . S
Zn146 O155 1.977 1_554 S
O147 Zn146 2.032 . S
O147 C151 1.278 . S
C148 O149 1.203 . S
C148 O155 1.267 . S
O149 C148 1.203 . S
O150 C143 1.185 . S
O150 Zn146 2.086 . S
C151 O147 1.278 . S
C151 O152 1.211 . S
O152 C151 1.211 . S
C153 O145 1.284 . S
C153 O154 1.273 . S
O154 C153 1.273 . S
O155 Zn146 1.977 1_556 S
O155 C148 1.267 . S
H156 C164 0.950 . S
H157 C169 0.950 . S
H158 C166 0.950 . S
H159 C168 0.950 . S
H160 C170 0.950 . S
H161 C172 0.950 . S
H162 C174 0.950 . S
H163 C175 0.950 . S
C164 H156 0.950 . S
C164 C165 1.386 . S
C164 C166 1.391 . S
C165 C164 1.386 . S
C165 C169 1.393 . S
C166 H158 0.950 . S
C166 C164 1.391 . S
C166 C167 1.400 . S
C167 C166 1.400 . S
C167 C168 1.398 . S
C167 C173 1.491 . S
C168 H159 0.950 . S
C168 C167 1.398 . S
C168 C169 1.391 . S
C169 H157 0.950 . S
C169 C165 1.393 . S
C169 C168 1.391 . S
C170 H160 0.950 . S
C170 C171 1.386 . S
C170 C172 1.391 . S
C171 C170 1.386 . S
C171 C175 1.393 . S
C172 H161 0.950 . S
C172 C170 1.391 . S
C172 C173 1.400 . S
C173 C167 1.491 . S
C173 C172 1.400 . S
C173 C174 1.398 . S
C174 H162 0.950 . S
C174 C173 1.398 . S
C174 C175 1.391 . S
C175 H163 0.950 . S
C175 C171 1.393 . S
C175 C174 1.391 . S
H176 C184 0.950 . S
H177 C189 0.950 . S
H178 C186 0.950 . S
H179 C188 0.950 . S
H180 C190 0.950 . S
H181 C192 0.950 . S
H182 C194 0.950 . S
H183 C195 0.950 . S
C184 H176 0.950 . S
C184 C185 1.386 . S
C184 C186 1.391 . S
C185 C184 1.386 . S
C185 C189 1.393 . S
C186 H178 0.950 . S
C186 C184 1.391 . S
C186 C187 1.400 . S
C187 C186 1.400 . S
C187 C188 1.398 . S
C187 C193 1.491 . S
C188 H179 0.950 . S
C188 C187 1.398 . S
C188 C189 1.391 . S
C189 H177 0.950 . S
C189 C185 1.393 . S
C189 C188 1.391 . S
C190 H180 0.950 . S
C190 C191 1.386 . S
C190 C192 1.391 . S
C191 C190 1.386 . S
C191 C195 1.393 . S
C192 H181 0.950 . S
C192 C190 1.391 . S
C192 C193 1.400 . S
C193 C187 1.491 . S
C193 C192 1.400 . S
C193 C194 1.398 . S
C194 H182 0.950 . S
C194 C193 1.398 . S
C194 C195 1.391 . S
C195 H183 0.950 . S
C195 C191 1.393 . S
C195 C194 1.391 . S
H196 C204 0.950 . S
H197 C209 0.950 . S
H198 C206 0.950 . S
H199 C208 0.950 . S
H200 C210 0.950 . S
H201 C212 0.950 . S
H202 C214 0.950 . S
H203 C215 0.950 . S
C204 H196 0.950 . S
C204 C205 1.386 . S
C204 C206 1.391 . S
C205 C204 1.386 . S
C205 C209 1.393 . S
C206 H198 0.950 . S
C206 C204 1.391 . S
C206 C207 1.400 . S
C207 C206 1.400 . S
C207 C208 1.398 . S
C207 C213 1.491 . S
C208 H199 0.950 . S
C208 C207 1.398 . S
C208 C209 1.391 . S
C209 H197 0.950 . S
C209 C205 1.393 . S
C209 C208 1.391 . S
C210 H200 0.950 . S
C210 C211 1.386 . S
C210 C212 1.391 . S
C211 C210 1.386 . S
C211 C215 1.393 . S
C212 H201 0.950 . S
C212 C210 1.391 . S
C212 C213 1.400 . S
C213 C207 1.491 . S
C213 C212 1.400 . S
C213 C214 1.398 . S
C214 H202 0.950 . S
C214 C213 1.398 . S
C214 C215 1.391 . S
C215 H203 0.950 . S
C215 C211 1.393 . S
C215 C214 1.391 . S
H216 C224 0.950 . S
H217 C229 0.950 . S
H218 C226 0.950 . S
H219 C228 0.950 . S
H220 C230 0.950 . S
H221 C232 0.950 . S
H222 C234 0.950 . S
H223 C235 0.950 . S
C224 H216 0.950 . S
C224 C225 1.386 . S
C224 C226 1.391 . S
C225 C224 1.386 . S
C225 C229 1.393 . S
C226 H218 0.950 . S
C226 C224 1.391 . S
C226 C227 1.400 . S
C227 C226 1.400 . S
C227 C228 1.398 . S
C227 C233 1.491 . S
C228 H219 0.950 . S
C228 C227 1.398 . S
C228 C229 1.391 . S
C229 H217 0.950 . S
C229 C225 1.393 . S
C229 C228 1.391 . S
C230 H220 0.950 . S
C230 C231 1.386 . S
C230 C232 1.391 . S
C231 C230 1.386 . S
C231 C235 1.393 . S
C232 H221 0.950 . S
C232 C230 1.391 . S
C232 C233 1.400 . S
C233 C227 1.491 . S
C233 C232 1.400 . S
C233 C234 1.398 . S
C234 H222 0.950 . S
C234 C233 1.398 . S
C234 C235 1.391 . S
C235 H223 0.950 . S
C235 C231 1.393 . S
C235 C234 1.391 . S
H236 C244 0.950 . S
H237 C249 0.950 . S
H238 C246 0.950 . S
H239 C248 0.950 . S
H240 C250 0.950 . S
H241 C252 0.950 . S
H242 C254 0.950 . S
H243 C255 0.950 . S
C244 H236 0.950 . S
C244 C245 1.386 . S
C244 C246 1.391 . S
C245 C244 1.386 . S
C245 C249 1.393 . S
C246 H238 0.950 . S
C246 C244 1.391 . S
C246 C247 1.400 . S
C247 C246 1.400 . S
C247 C248 1.398 . S
C247 C253 1.491 . S
C248 H239 0.950 . S
C248 C247 1.398 . S
C248 C249 1.391 . S
C249 H237 0.950 . S
C249 C245 1.393 . S
C249 C248 1.391 . S
C250 H240 0.950 . S
C250 C251 1.386 . S
C250 C252 1.391 . S
C251 C250 1.386 . S
C251 C255 1.393 . S
C252 H241 0.950 . S
C252 C250 1.391 . S
C252 C253 1.400 . S
C253 C247 1.491 . S
C253 C252 1.400 . S
C253 C254 1.398 . S
C254 H242 0.950 . S
C254 C253 1.398 . S
C254 C255 1.391 . S
C255 H243 0.950 . S
C255 C251 1.393 . S
C255 C254 1.391 . S
H256 C264 0.950 . S
H257 C269 0.950 . S
H258 C266 0.950 . S
H259 C268 0.950 . S
H260 C270 0.950 . S
H261 C272 0.950 . S
H262 C274 0.950 . S
H263 C275 0.950 . S
C264 H256 0.950 . S
C264 C265 1.386 . S
C264 C266 1.391 . S
C265 C264 1.386 . S
C265 C269 1.393 . S
C266 H258 0.950 . S
C266 C264 1.391 . S
C266 C267 1.400 . S
C267 C266 1.400 . S
C267 C268 1.398 . S
C267 C273 1.491 . S
C268 H259 0.950 . S
C268 C267 1.398 . S
C268 C269 1.391 . S
C269 H257 0.950 . S
C269 C265 1.393 . S
C269 C268 1.391 . S
C270 H260 0.950 . S
C270 C271 1.386 . S
C270 C272 1.391 . S
C271 C270 1.386 . S
C271 C275 1.393 . S
C272 H261 0.950 . S
C272 C270 1.391 . S
C272 C273 1.400 . S
C273 C267 1.491 . S
C273 C272 1.400 . S
C273 C274 1.398 . S
C274 H262 0.950 . S
C274 C273 1.398 . S
C274 C275 1.391 . S
C275 H263 0.950 . S
C275 C271 1.393 . S
C275 C274 1.391 . S
H276 C284 0.950 . S
H277 C289 0.950 . S
H278 C286 0.950 . S
H279 C288 0.950 . S
H280 C290 0.950 . S
H281 C292 0.950 . S
H282 C294 0.950 . S
H283 C295 0.950 . S
C284 H276 0.950 . S
C284 C285 1.386 . S
C284 C286 1.391 . S
C285 C284 1.386 . S
C285 C289 1.393 1_565 S
C286 H278 0.950 . S
C286 C284 1.391 . S
C286 C287 1.400 . S
C287 C286 1.400 . S
C287 C288 1.398 1_565 S
C287 C293 1.491 1_565 S
C288 H279 0.950 . S
C288 C287 1.398 1_545 S
C288 C289 1.391 . S
C289 H277 0.950 . S
C289 C285 1.393 1_545 S
C289 C288 1.391 . S
C290 H280 0.950 . S
C290 C291 1.386 . S
C290 C292 1.391 . S
C291 C290 1.386 . S
C291 C295 1.393 1_545 S
C292 H281 0.950 . S
C292 C290 1.391 . S
C292 C293 1.400 . S
C293 C287 1.491 1_545 S
C293 C292 1.400 . S
C293 C294 1.398 1_545 S
C294 H282 0.950 . S
C294 C293 1.398 1_565 S
C294 C295 1.391 . S
C295 H283 0.950 . S
C295 C291 1.393 1_565 S
C295 C294 1.391 . S
H296 C304 0.950 . S
H297 C309 0.950 . S
H298 C306 0.950 . S
H299 C308 0.950 . S
H300 C310 0.950 . S
H301 C312 0.950 . S
H302 C314 0.950 . S
H303 C315 0.950 . S
C304 H296 0.950 . S
C304 C305 1.386 . S
C304 C306 1.391 . S
C305 C304 1.386 . S
C305 C309 1.393 . S
C306 H298 0.950 . S
C306 C304 1.391 . S
C306 C307 1.400 . S
C307 C306 1.400 . S
C307 C308 1.398 . S
C307 C313 1.491 . S
C308 H299 0.950 . S
C308 C307 1.398 . S
C308 C309 1.391 . S
C309 H297 0.950 . S
C309 C305 1.393 . S
C309 C308 1.391 . S
C310 H300 0.950 . S
C310 C311 1.386 . S
C310 C312 1.391 . S
C311 C310 1.386 . S
C311 C315 1.393 . S
C312 H301 0.950 . S
C312 C310 1.391 . S
C312 C313 1.400 . S
C313 C307 1.491 . S
C313 C312 1.400 . S
C313 C314 1.398 . S
C314 H302 0.950 . S
C314 C313 1.398 . S
C314 C315 1.391 . S
C315 H303 0.950 . S
C315 C311 1.393 . S
C315 C314 1.391 . S
H316 C324 0.950 . S
H317 C329 0.950 . S
H318 C326 0.950 . S
H319 C328 0.950 . S
H320 C330 0.950 . S
H321 C332 0.950 . S
H322 C334 0.950 . S
H323 C335 0.950 . S
C324 H316 0.950 . S
C324 C325 1.386 1_455 S
C324 C326 1.391 . S
C325 C324 1.386 1_655 S
C325 C329 1.393 . S
C326 H318 0.950 . S
C326 C324 1.391 . S
C326 C327 1.400 1_455 S
C327 C326 1.400 1_655 S
C327 C328 1.398 . S
C327 C333 1.491 1_655 S
C328 H319 0.950 . S
C328 C327 1.398 . S
C328 C329 1.391 . S
C329 H317 0.950 . S
C329 C325 1.393 . S
C329 C328 1.391 . S
C330 H320 0.950 . S
C330 C331 1.386 1_655 S
C330 C332 1.391 . S
C331 C330 1.386 1_455 S
C331 C335 1.393 . S
C332 H321 0.950 . S
C332 C330 1.391 . S
C332 C333 1.400 1_655 S
C333 C327 1.491 1_455 S
C333 C332 1.400 1_455 S
C333 C334 1.398 . S
C334 H322 0.950 . S
C334 C333 1.398 . S
C334 C335 1.391 . S
C335 H323 0.950 . S
C335 C331 1.393 . S
C335 C334 1.391 . S
H336 C344 0.950 . S
H337 C349 0.950 . S
H338 C346 0.950 . S
H339 C348 0.950 . S
H340 C350 0.950 . S
H341 C352 0.950 . S
H342 C354 0.950 . S
H343 C355 0.950 . S
C344 H336 0.950 . S
C344 C345 1.386 . S
C344 C346 1.391 . S
C345 C344 1.386 . S
C345 C349 1.393 1_455 S
C346 H338 0.950 . S
C346 C344 1.391 . S
C346 C347 1.416 . S
C347 C346 1.416 . S
C347 C348 1.366 1_455 S
C347 C353 1.525 1_455 S
C348 H339 0.950 . S
C348 C347 1.366 1_655 S
C348 C349 1.391 . S
C349 H337 0.950 . S
C349 C345 1.393 1_655 S
C349 C348 1.391 . S
C350 H340 0.950 . S
C350 C351 1.386 . S
C350 C352 1.391 . S
C351 C350 1.386 . S
C351 C355 1.393 1_655 S
C352 H341 0.950 . S
C352 C350 1.391 . S
C352 C353 1.416 . S
C353 C347 1.525 1_655 S
C353 C352 1.416 . S
C353 C354 1.366 1_655 S
C354 H342 0.950 . S
C354 C353 1.366 1_455 S
C354 C355 1.391 . S
C355 H343 0.950 . S
C355 C351 1.393 1_455 S
C355 C354 1.391 . S
H356 C364 0.950 . S
H357 C369 0.950 . S
H358 C366 0.950 . S
H359 C368 0.950 . S
H360 C370 0.950 . S
H361 C372 0.950 . S
H362 C374 0.950 . S
H363 C375 0.950 . S
C364 H356 0.950 . S
C364 C365 1.386 . S
C364 C366 1.391 . S
C365 C364 1.386 . S
C365 C369 1.393 1_565 S
C366 H358 0.950 . S
C366 C364 1.391 . S
C366 C367 1.398 . S
C367 C366 1.398 . S
C367 C368 1.398 1_565 S
C367 C373 1.494 1_565 S
C368 H359 0.950 . S
C368 C367 1.398 1_545 S
C368 C369 1.391 . S
C369 H357 0.950 . S
C369 C365 1.393 1_545 S
C369 C368 1.391 . S
C370 H360 0.950 . S
C370 C371 1.386 . S
C370 C372 1.391 . S
C371 C370 1.386 . S
C371 C375 1.393 1_545 S
C372 H361 0.950 . S
C372 C370 1.391 . S
C372 C373 1.398 . S
C373 C367 1.494 1_545 S
C373 C372 1.398 . S
C373 C374 1.398 1_545 S
C374 H362 0.950 . S
C374 C373 1.398 1_565 S
C374 C375 1.391 . S
C375 H363 0.950 . S
C375 C371 1.393 1_565 S
C375 C374 1.391 . S
H376 C384 0.950 . S
H377 C389 0.950 . S
H378 C386 0.950 . S
H379 C388 0.950 . S
H380 C390 0.950 . S
H381 C392 0.950 . S
H382 C394 0.950 . S
H383 C395 0.950 . S
C384 H376 0.950 . S
C384 C385 1.386 . S
C384 C386 1.391 . S
C385 C384 1.386 . S
C385 C389 1.393 . S
C386 H378 0.950 . S
C386 C384 1.391 . S
C386 C387 1.400 . S
C387 C386 1.400 . S
C387 C388 1.398 . S
C387 C393 1.491 . S
C388 H379 0.950 . S
C388 C387 1.398 . S
C388 C389 1.391 . S
C389 H377 0.950 . S
C389 C385 1.393 . S
C389 C388 1.391 . S
C390 H380 0.950 . S
C390 C391 1.386 . S
C390 C392 1.391 . S
C391 C390 1.386 . S
C391 C395 1.393 . S
C392 H381 0.950 . S
C392 C390 1.391 . S
C392 C393 1.400 . S
C393 C387 1.491 . S
C393 C392 1.400 . S
C393 C394 1.398 . S
C394 H382 0.950 . S
C394 C393 1.398 . S
C394 C395 1.391 . S
C395 H383 0.950 . S
C395 C391 1.393 . S
C395 C394 1.391 . S
H396 C404 0.950 . S
H397 C409 0.950 . S
H398 C406 0.950 . S
H399 C408 0.950 . S
H400 C410 0.950 . S
H401 C412 0.950 . S
H402 C414 0.950 . S
H403 C415 0.950 . S
C404 H396 0.950 . S
C404 C405 1.386 . S
C404 C406 1.391 . S
C405 C404 1.386 . S
C405 C409 1.393 . S
C406 H398 0.950 . S
C406 C404 1.391 . S
C406 C407 1.400 . S
C407 C406 1.400 . S
C407 C408 1.398 . S
C407 C413 1.491 . S
C408 H399 0.950 . S
C408 C407 1.398 . S
C408 C409 1.391 . S
C409 H397 0.950 . S
C409 C405 1.393 . S
C409 C408 1.391 . S
C410 H400 0.950 . S
C410 C411 1.386 . S
C410 C412 1.391 . S
C411 C410 1.386 . S
C411 C415 1.393 . S
C412 H401 0.950 . S
C412 C410 1.391 . S
C412 C413 1.400 . S
C413 C407 1.491 . S
C413 C412 1.400 . S
C413 C414 1.398 . S
C414 H402 0.950 . S
C414 C413 1.398 . S
C414 C415 1.391 . S
C415 H403 0.950 . S
C415 C411 1.393 . S
C415 C414 1.391 . S
H416 C424 0.950 . S
H417 C429 0.950 . S
H418 C426 0.950 . S
H419 C428 0.950 . S
H420 C430 0.950 . S
H421 C432 0.950 . S
H422 C434 0.950 . S
H423 C435 0.950 . S
C424 H416 0.950 . S
C424 C425 1.386 . S
C424 C426 1.391 . S
C425 C424 1.386 . S
C425 C429 1.393 . S
C426 H418 0.950 . S
C426 C424 1.391 . S
C426 C427 1.400 . S
C427 C426 1.400 . S
C427 C428 1.398 . S
C427 C433 1.491 . S
C428 H419 0.950 . S
C428 C427 1.398 . S
C428 C429 1.391 . S
C429 H417 0.950 . S
C429 C425 1.393 . S
C429 C428 1.391 . S
C430 H420 0.950 . S
C430 C431 1.386 . S
C430 C432 1.391 . S
C431 C430 1.386 . S
C431 C435 1.393 . S
C432 H421 0.950 . S
C432 C430 1.391 . S
C432 C433 1.400 . S
C433 C427 1.491 . S
C433 C432 1.400 . S
C433 C434 1.398 . S
C434 H422 0.950 . S
C434 C433 1.398 . S
C434 C435 1.391 . S
C435 H423 0.950 . S
C435 C431 1.393 . S
C435 C434 1.391 . S
H436 C444 0.950 1_556 S
H437 C449 0.950 . S
H438 C446 0.950 . S
H439 C448 0.950 . S
H440 C450 0.950 1_554 S
H441 C452 0.950 . S
H442 C454 0.950 . S
H443 C455 0.950 . S
C444 H436 0.950 1_554 S
C444 C445 1.386 . S
C444 C446 1.391 1_554 S
C445 C444 1.386 . S
C445 C449 1.393 . S
C446 H438 0.950 . S
C446 C444 1.391 1_556 S
C446 C447 1.400 1_556 S
C447 C446 1.400 1_554 S
C447 C448 1.398 . S
C447 C453 1.491 1_554 S
C448 H439 0.950 . S
C448 C447 1.398 . S
C448 C449 1.391 . S
C449 H437 0.950 . S
C449 C445 1.393 . S
C449 C448 1.391 . S
C450 H440 0.950 1_556 S
C450 C451 1.386 . S
C450 C452 1.391 1_556 S
C451 C450 1.386 . S
C451 C455 1.393 . S
C452 H441 0.950 . S
C452 C450 1.391 1_554 S
C452 C453 1.400 1_554 S
C453 C447 1.491 1_556 S
C453 C452 1.400 1_556 S
C453 C454 1.398 . S
C454 H442 0.950 . S
C454 C453 1.398 . S
C454 C455 1.391 . S
C455 H443 0.950 . S
C455 C451 1.393 . S
C455 C454 1.391 . S
H456 C464 0.950 . S
H457 C469 0.950 . S
H458 C466 0.950 . S
H459 C468 0.950 . S
H460 C470 0.950 . S
H461 C472 0.950 . S
H462 C474 0.950 . S
H463 C475 0.950 . S
C464 H456 0.950 . S
C464 C465 1.386 . S
C464 C466 1.391 . S
C465 C464 1.386 . S
C465 C469 1.393 . S
C466 H458 0.950 . S
C466 C464 1.391 . S
C466 C467 1.400 . S
C467 C466 1.400 . S
C467 C468 1.398 . S
C467 C473 1.491 . S
C468 H459 0.950 . S
C468 C467 1.398 . S
C468 C469 1.391 . S
C469 H457 0.950 . S
C469 C465 1.393 . S
C469 C468 1.391 . S
C470 H460 0.950 . S
C470 C471 1.386 . S
C470 C472 1.391 . S
C471 C470 1.386 . S
C471 C475 1.393 . S
C472 H461 0.950 . S
C472 C470 1.391 . S
C472 C473 1.400 . S
C473 C467 1.491 . S
C473 C472 1.400 . S
C473 C474 1.398 . S
C474 H462 0.950 . S
C474 C473 1.398 . S
C474 C475 1.391 . S
C475 H463 0.950 . S
C475 C471 1.393 . S
C475 C474 1.391 . S
H476 C484 0.950 . S
H477 C489 0.950 . S
H478 C486 0.950 . S
H479 C488 0.950 . S
H480 C490 0.950 . S
H481 C492 0.950 . S
H482 C494 0.950 . S
H483 C495 0.950 . S
C484 H476 0.950 . S
C484 C485 1.386 . S
C484 C486 1.391 . S
C485 C484 1.386 . S
C485 C489 1.393 . S
C486 H478 0.950 . S
C486 C484 1.391 . S
C486 C487 1.400 . S
C487 C486 1.400 . S
C487 C488 1.398 . S
C487 C493 1.491 . S
C488 H479 0.950 . S
C488 C487 1.398 . S
C488 C489 1.391 . S
C489 H477 0.950 . S
C489 C485 1.393 . S
C489 C488 1.391 . S
C490 H480 0.950 . S
C490 C491 1.386 . S
C490 C492 1.391 . S
C491 C490 1.386 . S
C491 C495 1.393 . S
C492 H481 0.950 . S
C492 C490 1.391 . S
C492 C493 1.400 . S
C493 C487 1.491 . S
C493 C492 1.400 . S
C493 C494 1.398 . S
C494 H482 0.950 . S
C494 C493 1.398 . S
C494 C495 1.391 . S
C495 H483 0.950 . S
C495 C491 1.393 . S
C495 C494 1.391 . S
H496 C504 0.950 1_556 S
H497 C509 0.950 . S
H498 C506 0.950 . S
H499 C508 0.950 . S
H500 C510 0.950 1_554 S
H501 C512 0.950 . S
H502 C514 0.950 . S
H503 C515 0.950 . S
C504 H496 0.950 1_554 S
C504 C505 1.386 . S
C504 C506 1.391 1_554 S
C505 C504 1.386 . S
C505 C509 1.393 . S
C506 H498 0.950 . S
C506 C504 1.391 1_556 S
C506 C507 1.400 1_556 S
C507 C506 1.400 1_554 S
C507 C508 1.398 . S
C507 C513 1.491 1_554 S
C508 H499 0.950 . S
C508 C507 1.398 . S
C508 C509 1.391 . S
C509 H497 0.950 . S
C509 C505 1.393 . S
C509 C508 1.391 . S
C510 H500 0.950 1_556 S
C510 C511 1.386 . S
C510 C512 1.391 1_556 S
C511 C510 1.386 . S
C511 C515 1.393 . S
C512 H501 0.950 . S
C512 C510 1.391 1_554 S
C512 C513 1.400 1_554 S
C513 C507 1.491 1_556 S
C513 C512 1.400 1_556 S
C513 C514 1.398 . S
C514 H502 0.950 . S
C514 C513 1.398 . S
C514 C515 1.391 . S
C515 H503 0.950 . S
C515 C511 1.393 . S
C515 C514 1.391 . S
H516 C524 0.950 . S
H517 C529 0.950 . S
H518 C526 0.950 . S
H519 C528 0.950 . S
H520 C530 0.950 . S
H521 C532 0.950 . S
H522 C534 0.950 . S
H523 C535 0.950 . S
C524 H516 0.950 . S
C524 C525 1.386 1_565 S
C524 C526 1.391 . S
C525 C524 1.386 1_545 S
C525 C529 1.393 . S
C526 H518 0.950 . S
C526 C524 1.391 . S
C526 C527 1.400 1_565 S
C527 C526 1.400 1_545 S
C527 C528 1.398 . S
C527 C533 1.491 1_545 S
C528 H519 0.950 . S
C528 C527 1.398 . S
C528 C529 1.391 . S
C529 H517 0.950 . S
C529 C525 1.393 . S
C529 C528 1.391 . S
C530 H520 0.950 . S
C530 C531 1.386 1_545 S
C530 C532 1.391 . S
C531 C530 1.386 1_565 S
C531 C535 1.393 . S
C532 H521 0.950 . S
C532 C530 1.391 . S
C532 C533 1.400 1_545 S
C533 C527 1.491 1_565 S
C533 C532 1.400 1_565 S
C533 C534 1.398 . S
C534 H522 0.950 . S
C534 C533 1.398 . S
C534 C535 1.391 . S
C535 H523 0.950 . S
C535 C531 1.393 . S
C535 C534 1.391 . S
H536 C544 0.950 . S
H537 C549 0.950 . S
H538 C546 0.950 . S
H539 C548 0.950 . S
H540 C550 0.950 . S
H541 C552 0.950 . S
H542 C554 0.950 . S
H543 C555 0.950 . S
C544 H536 0.950 . S
C544 C545 1.386 . S
C544 C546 1.391 . S
C545 C544 1.386 . S
C545 C549 1.393 . S
C546 H538 0.950 . S
C546 C544 1.391 . S
C546 C547 1.400 . S
C547 C546 1.400 . S
C547 C548 1.398 . S
C547 C553 1.491 . S
C548 H539 0.950 . S
C548 C547 1.398 . S
C548 C549 1.391 . S
C549 H537 0.950 . S
C549 C545 1.393 . S
C549 C548 1.391 . S
C550 H540 0.950 . S
C550 C551 1.386 . S
C550 C552 1.391 . S
C551 C550 1.386 . S
C551 C555 1.393 . S
C552 H541 0.950 . S
C552 C550 1.391 . S
C552 C553 1.400 . S
C553 C547 1.491 . S
C553 C552 1.400 . S
C553 C554 1.398 . S
C554 H542 0.950 . S
C554 C553 1.398 . S
C554 C555 1.391 . S
C555 H543 0.950 . S
C555 C551 1.393 . S
C555 C554 1.391 . S
H556 C564 0.950 . S
H557 C569 0.950 . S
H558 C566 0.950 . S
H559 C568 0.950 . S
H560 C570 0.950 . S
H561 C572 0.950 . S
H562 C574 0.950 . S
H563 C575 0.950 . S
C564 H556 0.950 . S
C564 C565 1.386 . S
C564 C566 1.391 . S
C565 C564 1.386 . S
C565 C569 1.393 1_455 S
C566 H558 0.950 . S
C566 C564 1.391 . S
C566 C567 1.400 . S
C567 C566 1.400 . S
C567 C568 1.398 1_455 S
C567 C573 1.491 1_455 S
C568 H559 0.950 . S
C568 C567 1.398 1_655 S
C568 C569 1.391 . S
C569 H557 0.950 . S
C569 C565 1.393 1_655 S
C569 C568 1.391 . S
C570 H560 0.950 . S
C570 C571 1.386 . S
C570 C572 1.391 . S
C571 C570 1.386 . S
C571 C575 1.393 1_655 S
C572 H561 0.950 . S
C572 C570 1.391 . S
C572 C573 1.400 . S
C573 C567 1.491 1_655 S
C573 C572 1.400 . S
C573 C574 1.398 1_655 S
C574 H562 0.950 . S
C574 C573 1.398 1_455 S
C574 C575 1.391 . S
C575 H563 0.950 . S
C575 C571 1.393 1_455 S
C575 C574 1.391 . S
H576 C584 0.950 . S
H577 C589 0.950 . S
H578 C586 0.950 . S
H579 C588 0.950 . S
H580 C590 0.950 . S
H581 C592 0.950 . S
H582 C594 0.950 . S
H583 C595 0.950 . S
C584 H576 0.950 . S
C584 C585 1.386 . S
C584 C586 1.391 . S
C585 C584 1.386 . S
C585 C589 1.393 1_565 S
C586 H578 0.950 . S
C586 C584 1.391 . S
C586 C587 1.400 . S
C587 C586 1.400 . S
C587 C588 1.398 1_565 S
C587 C593 1.491 1_565 S
C588 H579 0.950 . S
C588 C587 1.398 1_545 S
C588 C589 1.391 . S
C589 H577 0.950 . S
C589 C585 1.393 1_545 S
C589 C588 1.391 . S
C590 H580 0.950 . S
C590 C591 1.386 . S
C590 C592 1.391 . S
C591 C590 1.386 . S
C591 C595 1.393 1_545 S
C592 H581 0.950 . S
C592 C590 1.391 . S
C592 C593 1.400 . S
C593 C587 1.491 1_545 S
C593 C592 1.400 . S
C593 C594 1.398 1_545 S
C594 H582 0.950 . S
C594 C593 1.398 1_565 S
C594 C595 1.391 . S
C595 H583 0.950 . S
C595 C591 1.393 1_565 S
C595 C594 1.391 . S
H596 C604 0.950 . S
H597 C609 0.950 . S
H598 C606 0.950 . S
H599 C608 0.950 . S
H600 C610 0.950 . S
H601 C612 0.950 . S
H602 C614 0.950 . S
H603 C615 0.950 . S
C604 H596 0.950 . S
C604 C605 1.386 . S
C604 C606 1.391 . S
C605 C604 1.386 . S
C605 C609 1.393 . S
C606 H598 0.950 . S
C606 C604 1.391 . S
C606 C607 1.400 . S
C607 C606 1.400 . S
C607 C608 1.398 . S
C607 C613 1.491 . S
C608 H599 0.950 . S
C608 C607 1.398 . S
C608 C609 1.391 . S
C609 H597 0.950 . S
C609 C605 1.393 . S
C609 C608 1.391 . S
C610 H600 0.950 . S
C610 C611 1.386 . S
C610 C612 1.391 . S
C611 C610 1.386 . S
C611 C615 1.393 . S
C612 H601 0.950 . S
C612 C610 1.391 . S
C612 C613 1.400 . S
C613 C607 1.491 . S
C613 C612 1.400 . S
C613 C614 1.398 . S
C614 H602 0.950 . S
C614 C613 1.398 . S
C614 C615 1.391 . S
C615 H603 0.950 . S
C615 C611 1.393 . S
C615 C614 1.391 . S
H616 C624 0.950 . S
H617 C629 0.950 . S
H618 C626 0.950 . S
H619 C628 0.950 . S
H620 C630 0.950 . S
H621 C632 0.950 . S
H622 C634 0.950 . S
H623 C635 0.950 . S
C624 H616 0.950 . S
C624 C625 1.386 . S
C624 C626 1.391 . S
C625 C624 1.386 . S
C625 C629 1.393 1_655 S
C626 H618 0.950 . S
C626 C624 1.391 . S
C626 C627 1.400 . S
C627 C626 1.400 . S
C627 C628 1.398 1_655 S
C627 C633 1.491 1_655 S
C628 H619 0.950 . S
C628 C627 1.398 1_455 S
C628 C629 1.391 . S
C629 H617 0.950 . S
C629 C625 1.393 1_455 S
C629 C628 1.391 . S
C630 H620 0.950 . S
C630 C631 1.386 . S
C630 C632 1.391 . S
C631 C630 1.386 . S
C631 C635 1.393 1_455 S
C632 H621 0.950 . S
C632 C630 1.391 . S
C632 C633 1.400 . S
C633 C627 1.491 1_455 S
C633 C632 1.400 . S
C633 C634 1.398 1_455 S
C634 H622 0.950 . S
C634 C633 1.398 1_655 S
C634 C635 1.391 . S
C635 H623 0.950 . S
C635 C631 1.393 1_655 S
C635 C634 1.391 . S
C165 C0 1.717 . S
C171 C104 1.728 . S
C185 C13 1.720 . S
C191 C117 1.730 . S
C205 C130 1.729 . S
C211 C26 1.721 . S
C225 C143 1.731 . S
C231 C39 1.717 . S
C245 C78 1.729 . S
C251 C52 1.716 . S
C265 C91 1.731 . S
C271 C65 1.717 . S
C285 C8 1.345 . S
C291 C47 1.317 . S
C305 C60 1.318 . S
C311 C21 1.345 . S
C325 C73 1.326 . S
C331 C34 1.339 . S
C345 C86 1.346 . S
C351 C125 1.316 . S
C365 C138 1.332 . S
C371 C99 1.325 . S
C385 C112 1.316 . S
C391 C151 1.346 . S
C405 C88 1.003 . S
C411 C10 0.993 . S
C425 C23 0.968 . S
C431 C101 0.976 . S
C445 C114 0.993 . S
C451 C36 0.978 . S
C465 C127 0.973 . S
C471 C49 0.968 . S
C485 C62 1.004 . S
C491 C140 0.995 . S
C505 C153 1.002 . S
C511 C75 0.991 . S
C525 C5 0.965 . S
C531 C96 0.967 . S
C545 C109 0.921 . S
C551 C18 0.919 . S
C565 C122 0.942 . S
C571 C31 0.937 . S
C585 C44 0.925 . S
C591 C135 0.922 . S
C605 C148 0.920 . S
C611 C57 0.923 . S
C625 C83 0.938 . S
C631 C70 0.933 . S
