# Generated by pormake.
# Topology rob, (6)-cn, num edge types: 1
# Building blocks:
#     Node 0, Type 0, BuildingBlock: BETDIP_clean_sbu_0, # of connection points: 6
#     Node 1, Type 0, BuildingBlock: BETDIP_clean_sbu_0, # of connection points: 6
#     Node 2, Type 0, BuildingBlock: BETDIP_clean_sbu_0, # of connection points: 6
#     Node 3, Type 0, BuildingBlock: BETDIP_clean_sbu_0, # of connection points: 6
#     Edge 4, Type (0, 0), BuildingBlock: UVAHIK_clean_linker_0, # of connection points: 2
#     Edge 5, Type (0, 0), BuildingBlock: UVAHIK_clean_linker_0, # of connection points: 2
#     Edge 6, Type (0, 0), BuildingBlock: UVAHIK_clean_linker_0, # of connection points: 2
#     Edge 7, Type (0, 0), BuildingBlock: UVAHIK_clean_linker_0, # of connection points: 2
#     Edge 8, Type (0, 0), BuildingBlock: UVAHIK_clean_linker_0, # of connection points: 2
#     Edge 9, Type (0, 0), BuildingBlock: UVAHIK_clean_linker_0, # of connection points: 2
#     Edge 10, Type (0, 0), BuildingBlock: UVAHIK_clean_linker_0, # of connection points: 2
#     Edge 11, Type (0, 0), BuildingBlock: UVAHIK_clean_linker_0, # of connection points: 2
#     Edge 12, Type (0, 0), BuildingBlock: UVAHIK_clean_linker_0, # of connection points: 2
#     Edge 13, Type (0, 0), BuildingBlock: UVAHIK_clean_linker_0, # of connection points: 2
#     Edge 14, Type (0, 0), BuildingBlock: UVAHIK_clean_linker_0, # of connection points: 2
#     Edge 15, Type (0, 0), BuildingBlock: UVAHIK_clean_linker_0, # of connection points: 2
# Relax obj value: 0.033
# Max RMSD: 0.130
# Mean RMSD: 0.130
data_MOF--net-rob--node1-BETDIP_clean_sbu_0--edge1-UVAHIK_clean_linker_0
_symmetry_space_group_name_H-M    P1
_symmetry_Int_Tables_number       1
_symmetry_cell_setting            triclinic
loop_
_symmetry_equiv_pos_as_xyz
'x, y, z'
_cell_length_a     18.343637
_cell_length_b     32.57271
_cell_length_c     45.00926
_cell_angle_alpha  95.367567
_cell_angle_beta   90.045244
_cell_angle_gamma 90.007028
loop_
_atom_site_label
_atom_site_type_symbol
_atom_site_fract_x
_atom_site_fract_y
_atom_site_fract_z
_atom_type_partial_charge
Tb0 Tb 0.17579 0.27724 0.02832 0.0
Tb1 Tb 0.3234 0.2523 1.00394 0.0
C2 C 0.05823 0.28143 0.05736 0.0
C3 C 0.04021 0.28488 0.08936 0.0
C4 C 0.96839 0.2786 0.0985 0.0
C5 C 0.9512 0.28075 0.1289 0.0
C6 C 0.00592 0.28857 0.1506 0.0
C7 C 0.07779 0.29504 0.14135 0.0
C8 C 0.09459 0.29372 0.11098 0.0
C9 C 0.2647 0.33846 0.02 0.0
C10 C 0.30608 0.25443 0.07221 0.0
C11 C 0.44104 0.24908 0.97516 0.0
C12 C 0.46061 0.25104 0.94353 0.0
C13 C 0.42949 0.28056 0.9265 0.0
C14 C 0.44588 0.28051 0.89615 0.0
C15 C 0.49422 0.25117 0.88229 0.0
C16 C 0.52602 0.22204 0.89953 0.0
C17 C 0.50924 0.22196 0.92982 0.0
C18 C 0.23455 0.1912 0.01265 0.0
C19 C 0.19313 0.27366 0.95991 0.0
O20 O 0.08847 0.24668 0.04686 0.0
O21 O 0.09072 0.31339 0.04776 0.0
O22 O 0.28158 0.30484 0.02983 0.0
O23 O 0.19479 0.33984 0.01617 0.0
O24 O 0.23514 0.25811 0.06735 0.0
O25 O 0.35427 0.25644 0.05059 0.0
O26 O 0.41547 0.2829 0.98946 0.0
O27 O 0.40442 0.21639 0.98112 0.0
O28 O 0.21775 0.22468 1.0026 0.0
O29 O 0.30454 0.18984 0.0165 0.0
O30 O 0.26429 0.27185 0.96499 0.0
O31 O 0.14516 0.27054 0.98151 0.0
H32 H 0.92568 0.27182 0.08213 0.0
H33 H 0.89543 0.27548 0.13547 0.0
H34 H 0.12081 0.30157 0.15762 0.0
H35 H 0.15004 0.29958 0.10442 0.0
H36 H 0.39207 0.30352 0.93656 0.0
H37 H 0.42114 0.30366 0.8836 0.0
H38 H 0.56286 0.19876 0.88947 0.0
H39 H 0.53366 0.19883 0.94251 0.0
Tb40 Tb 0.67415 0.77755 0.02877 0.0
Tb41 Tb 0.82305 0.7532 1.00493 0.0
C42 C 0.55649 0.78019 0.05754 0.0
C43 C 0.53722 0.77885 0.0893 0.0
C44 C 0.56824 0.74957 0.10657 0.0
C45 C 0.55197 0.75012 0.13697 0.0
C46 C 0.50386 0.77972 0.15068 0.0
C47 C 0.47222 0.80864 0.1332 0.0
C48 C 0.48887 0.80822 0.10285 0.0
C49 C 0.76125 0.83906 0.01937 0.0
C50 C 0.80466 0.75754 0.07336 0.0
C51 C 0.94068 0.75024 0.97614 0.0
C52 C 0.95998 0.75191 0.94441 0.0
C53 C 0.92908 0.78145 0.92732 0.0
C54 C 0.94536 0.78122 0.89694 0.0
C55 C 0.99331 0.75166 0.88307 0.0
C56 C 0.02483 0.72248 0.90036 0.0
C57 C 0.0082 0.7226 0.93069 0.0
C58 C 0.7357 0.6918 0.01448 0.0
C59 C 0.69269 0.77362 0.9604 0.0
O60 O 0.58319 0.74636 0.04365 0.0
O61 O 0.59178 0.81307 0.05104 0.0
O62 O 0.77905 0.80597 0.02978 0.0
O63 O 0.69121 0.8398 0.01551 0.0
O64 O 0.73359 0.76004 0.06824 0.0
O65 O 0.85306 0.75926 0.05175 0.0
O66 O 0.91463 0.78406 0.99027 0.0
O67 O 0.90474 0.71745 0.98239 0.0
O68 O 0.71823 0.72482 1.0039 0.0
O69 O 0.80571 0.69107 0.01844 0.0
O70 O 0.76376 0.77111 0.96553 0.0
O71 O 0.64427 0.77167 0.98197 0.0
H72 H 0.6055 0.7264 0.09667 0.0
H73 H 0.57659 0.72711 0.14969 0.0
H74 H 0.43557 0.83213 0.14311 0.0
H75 H 0.4645 0.83118 0.08999 0.0
H76 H 0.89189 0.80456 0.93735 0.0
H77 H 0.92083 0.80441 0.88437 0.0
H78 H 0.06134 0.69902 0.89032 0.0
H79 H 0.03245 0.69945 0.94341 0.0
Tb80 Tb 0.17465 0.75534 0.50524 0.0
Tb81 Tb 0.324 0.77816 0.52899 0.0
C82 C 0.05712 0.75497 0.47647 0.0
C83 C 0.03981 0.75342 0.44443 0.0
C84 C 0.9756 0.77169 0.43518 0.0
C85 C 0.95963 0.77168 0.40479 0.0
C86 C 0.00772 0.75339 0.38304 0.0
C87 C 0.07229 0.73521 0.39249 0.0
C88 C 0.08819 0.73525 0.42289 0.0
C89 C 0.26085 0.69278 0.51299 0.0
C90 C 0.30489 0.77554 0.46059 0.0
C91 C 0.44206 0.77967 0.5575 0.0
C92 C 0.46149 0.77785 0.5892 0.0
C93 C 0.42999 0.74854 0.6063 0.0
C94 C 0.44604 0.74881 0.6367 0.0
C95 C 0.49439 0.77818 0.65057 0.0
C96 C 0.52664 0.80707 0.63326 0.0
C97 C 0.51023 0.80692 0.60291 0.0
C98 C 0.23727 0.84044 0.52091 0.0
C99 C 0.19379 0.75783 0.5735 0.0
O100 O 0.08935 0.78872 0.48778 0.0
O101 O 0.08674 0.7218 0.48558 0.0
O102 O 0.27908 0.72629 0.5033 0.0
O103 O 0.19082 0.6922 0.5168 0.0
O104 O 0.23396 0.77254 0.4657 0.0
O105 O 0.35349 0.77353 0.48212 0.0
O106 O 0.41454 0.74616 0.54346 0.0
O107 O 0.40738 0.81289 0.55128 0.0
O108 O 0.21965 0.80708 0.53093 0.0
O109 O 0.30718 0.84099 0.51668 0.0
O110 O 0.26489 0.75942 0.56822 0.0
O111 O 0.14534 0.76127 0.55211 0.0
H112 H 0.93804 0.78627 0.45148 0.0
H113 H 0.91006 0.78659 0.39835 0.0
H114 H 0.11024 0.72052 0.37641 0.0
H115 H 0.1384 0.72118 0.42955 0.0
H116 H 0.39241 0.72561 0.59627 0.0
H117 H 0.42097 0.72584 0.6493 0.0
H118 H 0.5635 0.83037 0.64332 0.0
H119 H 0.53495 0.82989 0.59018 0.0
Tb120 Tb 0.67316 0.25251 0.50429 0.0
Tb121 Tb 0.82123 0.27875 0.52794 0.0
C122 C 0.55615 0.24922 0.4751 0.0
C123 C 0.53865 0.24937 0.44309 0.0
C124 C 0.57522 0.27567 0.42501 0.0
C125 C 0.5598 0.27432 0.3945 0.0
C126 C 0.50739 0.24671 0.38142 0.0
C127 C 0.47083 0.22051 0.39964 0.0
C128 C 0.48636 0.22185 0.43015 0.0
C129 C 0.76248 0.19206 0.51362 0.0
C130 C 0.8026 0.2736 0.4595 0.0
C131 C 0.93815 0.28211 0.55724 0.0
C132 C 0.95512 0.28224 0.58927 0.0
C133 C 0.01979 0.26409 0.59818 0.0
C134 C 0.03588 0.26314 0.62849 0.0
C135 C 0.98749 0.28037 0.65054 0.0
C136 C 0.92237 0.29833 0.64144 0.0
C137 C 0.90635 0.29924 0.61112 0.0
C138 C 0.7316 0.33919 0.51866 0.0
C139 C 0.69183 0.25723 0.57263 0.0
O140 O 0.58304 0.2834 0.4884 0.0
O141 O 0.59039 0.21651 0.48263 0.0
O142 O 0.7791 0.22534 0.50316 0.0
O143 O 0.69249 0.19052 0.51751 0.0
O144 O 0.73198 0.26898 0.46452 0.0
O145 O 0.85141 0.2739 0.48116 0.0
O146 O 0.91074 0.24775 0.54453 0.0
O147 O 0.90427 0.31466 0.54919 0.0
O148 O 0.71536 0.30587 0.52911 0.0
O149 O 0.8016 0.34087 0.51495 0.0
O150 O 0.76261 0.26106 0.56751 0.0
O151 O 0.6431 0.25812 0.55104 0.0
H152 H 0.61593 0.29723 0.43438 0.0
H153 H 0.58838 0.29527 0.38125 0.0
H154 H 0.43093 0.19846 0.39025 0.0
H155 H 0.45793 0.20109 0.44362 0.0
H156 H 0.05772 0.25042 0.58166 0.0
H157 H 0.08589 0.24842 0.63464 0.0
H158 H 0.88414 0.31221 0.65773 0.0
H159 H 0.85577 0.31321 0.60476 0.0
C160 C 0.6147 0.65736 1.0058 0.0
C161 C 0.68663 0.65622 0.01637 0.0
C162 C 0.5692 0.62302 1.00646 0.0
C163 C 0.54693 0.52547 0.04178 0.0
H164 H 0.42275 0.49525 0.97345 0.0
C165 C 0.3866 0.37197 0.02867 0.0
C166 C 0.31454 0.37374 0.01832 0.0
C167 C 0.43281 0.40605 0.02807 0.0
C168 C 0.45654 0.50349 0.99284 0.0
H169 H 0.76738 0.61858 0.03612 0.0
H170 H 0.68829 0.55836 0.03702 0.0
H171 H 0.50089 0.55581 0.97375 0.0
H172 H 0.23431 0.4122 0.99905 0.0
H173 H 0.31463 0.47186 0.99819 0.0
H174 H 0.50255 0.4731 0.06085 0.0
C175 C 0.66658 0.58591 0.02855 0.0
C176 C 0.5013 0.53826 0.99303 0.0
C177 C 0.71204 0.62029 0.02789 0.0
C178 C 0.28971 0.41 1.0071 0.0
C179 C 0.33588 0.44407 1.00646 0.0
C180 C 0.50219 0.49067 0.04157 0.0
C181 C 0.59472 0.58674 0.01765 0.0
C182 C 0.54697 0.54975 0.01753 0.0
C183 C 0.40789 0.44261 0.0171 0.0
C184 C 0.45635 0.47928 0.01712 0.0
H185 H 0.59378 0.68463 0.99667 0.0
H186 H 0.5139 0.62494 0.99827 0.0
H187 H 0.58065 0.53374 0.06118 0.0
H188 H 0.40707 0.34441 0.03755 0.0
H189 H 0.4882 0.4037 0.03609 0.0
C190 C 0.28354 0.62076 0.52555 0.0
C191 C 0.30946 0.6569 0.51448 0.0
C192 C 0.32872 0.58623 0.52607 0.0
C193 C 0.49431 0.53863 0.49095 0.0
H194 H 0.49226 0.47329 0.55867 0.0
C195 C 0.70588 0.41043 0.50526 0.0
C196 C 0.68139 0.37427 0.51673 0.0
C197 C 0.65952 0.44439 0.50447 0.0
C198 C 0.49283 0.49088 0.5394 0.0
H199 H 0.40287 0.68547 0.49536 0.0
H200 H 0.48221 0.62546 0.49664 0.0
H201 H 0.41415 0.53388 0.55886 0.0
H202 H 0.5892 0.34502 0.5362 0.0
H203 H 0.50767 0.40406 0.5344 0.0
H204 H 0.57299 0.49566 0.47149 0.0
C205 C 0.42675 0.62353 0.50462 0.0
C206 C 0.44809 0.52567 0.53954 0.0
C207 C 0.38155 0.65804 0.50414 0.0
C208 C 0.60942 0.37248 0.52713 0.0
C209 C 0.56298 0.40645 0.52634 0.0
C210 C 0.53901 0.50383 0.49081 0.0
C211 C 0.40078 0.5871 0.51545 0.0
C212 C 0.44838 0.55004 0.51534 0.0
C213 C 0.58759 0.44293 0.51516 0.0
C214 C 0.53897 0.47955 0.51506 0.0
H215 H 0.22808 0.61903 0.5336 0.0
H216 H 0.30669 0.55857 0.53425 0.0
H217 H 0.49499 0.55627 0.47172 0.0
H218 H 0.76122 0.41266 0.49717 0.0
H219 H 0.68061 0.47211 0.49605 0.0
C220 C 0.20945 0.11959 0.02543 0.0
C221 C 0.18451 0.15607 0.01455 0.0
C222 C 0.16298 0.08568 0.02623 0.0
C223 C 0.99503 0.03999 0.99199 0.0
H224 H 0.99782 0.97436 0.05955 0.0
C225 C 0.78476 0.91071 1.00615 0.0
C226 C 0.8103 0.87464 0.01745 0.0
C227 C 0.83035 0.94504 1.00543 0.0
C228 C 0.99698 0.99205 0.04034 0.0
H229 H 0.09142 0.18599 0.99622 0.0
H230 H 0.00986 0.12694 0.9979 0.0
H231 H 0.0766 0.03464 0.05962 0.0
H232 H 0.90348 0.84596 0.03671 0.0
H233 H 0.98356 0.90551 0.03497 0.0
H234 H 0.91557 0.99732 0.97267 0.0
C235 C 0.06554 0.1243 1.0055 0.0
C236 C 0.0421 0.02666 0.04041 0.0
C237 C 0.11204 0.15823 1.00476 0.0
C238 C 0.88245 0.87332 0.02774 0.0
C239 C 0.92807 0.9076 0.02701 0.0
C240 C 0.94995 1.00534 0.99191 0.0
C241 C 0.09057 0.08752 0.0161 0.0
C242 C 0.04176 0.05103 0.01622 0.0
C243 C 0.90246 0.944 0.01604 0.0
C244 C 0.95044 0.98089 0.01606 0.0
H245 H 0.26515 0.1171 0.03307 0.0
H246 H 0.18427 0.05771 0.03421 0.0
H247 H 0.99423 0.05771 0.9728 0.0
H248 H 0.72926 0.91256 0.99814 0.0
H249 H 0.80856 0.97269 0.99715 0.0
C250 C 0.88478 0.1589 0.50544 0.0
C251 C 0.81269 0.157 0.51568 0.0
C252 C 0.9314 0.12505 0.50637 0.0
C253 C 0.95586 0.02796 0.54212 0.0
H254 H 0.08185 0.99818 0.47437 0.0
C255 C 0.11612 0.87466 0.52959 0.0
C256 C 0.18822 0.8761 0.5193 0.0
C257 C 0.07037 0.90891 0.52895 0.0
C258 C 0.04761 1.00632 0.49361 0.0
H259 H 0.73281 0.1185 0.53509 0.0
H260 H 0.81379 0.05921 0.53647 0.0
H261 H 0.00279 0.05833 0.47423 0.0
H262 H 0.26906 0.91423 0.50011 0.0
H263 H 0.18949 0.97426 0.4992 0.0
H264 H 0.00059 0.97592 0.56147 0.0
C265 C 0.83479 0.08696 0.52806 0.0
C266 C 0.0023 0.04086 0.49355 0.0
C267 C 0.78823 0.12081 0.52712 0.0
C268 C 0.21361 0.91228 0.50812 0.0
C269 C 0.16787 0.94655 0.50746 0.0
C270 C 0.00115 0.99343 0.54217 0.0
C271 C 0.90686 0.08855 0.51753 0.0
C272 C 0.95579 0.05209 0.51779 0.0
C273 C 0.09578 0.94537 0.51801 0.0
C274 C 0.04753 0.98214 0.5179 0.0
H275 H 0.90501 0.18639 0.4964 0.0
H276 H 0.9868 0.12755 0.49844 0.0
H277 H 0.92158 0.03607 0.56135 0.0
H278 H 0.09517 0.84717 0.53841 0.0
H279 H 0.01491 0.90673 0.53688 0.0
C280 C 0.4183 0.24064 0.33876 0.0
C281 C 0.49056 0.24539 0.34896 0.0
C282 C 0.40222 0.23942 0.30834 0.0
C283 C 0.47384 0.26954 0.23694 0.0
H284 H 0.32881 0.19236 0.20272 0.0
C285 C 0.40564 0.25323 0.11058 0.0
C286 C 0.33134 0.24985 0.10304 0.0
C287 C 0.42856 0.25053 0.14002 0.0
C288 C 0.36898 0.21436 0.21196 0.0
H289 H 0.60276 0.25209 0.33493 0.0
H290 H 0.57453 0.2502 0.2818 0.0
H291 H 0.36224 0.192 0.2551 0.0
H292 H 0.22319 0.23975 0.12048 0.0
H293 H 0.26275 0.23596 0.17165 0.0
H294 H 0.4799 0.29224 0.19387 0.0
C295 C 0.53023 0.24785 0.29745 0.0
C296 C 0.38815 0.21414 0.242 0.0
C297 C 0.54637 0.24898 0.32792 0.0
C298 C 0.28074 0.24297 0.12549 0.0
C299 C 0.30357 0.24031 0.15486 0.0
C300 C 0.45456 0.26981 0.20687 0.0
C301 C 0.45794 0.24299 0.2873 0.0
C302 C 0.44024 0.24201 0.25496 0.0
C303 C 0.37772 0.24424 0.16255 0.0
C304 C 0.4013 0.2425 0.19409 0.0
H305 H 0.37381 0.23854 0.35435 0.0
H306 H 0.34581 0.2364 0.30134 0.0
H307 H 0.51359 0.29171 0.24629 0.0
H308 H 0.44612 0.25844 0.09383 0.0
H309 H 0.48618 0.25318 0.1451 0.0
C310 C 0.41491 0.78729 0.19327 0.0
C311 C 0.48668 0.78051 0.18305 0.0
C312 C 0.3986 0.7883 0.22366 0.0
C313 C 0.46872 0.75606 0.29514 0.0
H314 H 0.32614 0.83464 0.32937 0.0
C315 C 0.40372 0.77589 0.42186 0.0
C316 C 0.3295 0.77903 0.42953 0.0
C317 C 0.42598 0.7777 0.39224 0.0
C318 C 0.36568 0.8123 0.32012 0.0
H319 H 0.59783 0.76994 0.19691 0.0
H320 H 0.56947 0.77192 0.25001 0.0
H321 H 0.35938 0.83462 0.27698 0.0
H322 H 0.22065 0.78727 0.41203 0.0
H323 H 0.25932 0.79006 0.36063 0.0
H324 H 0.47479 0.73376 0.33839 0.0
C325 C 0.52551 0.77581 0.23444 0.0
C326 C 0.38467 0.81222 0.29004 0.0
C327 C 0.5418 0.77468 0.20399 0.0
C328 C 0.27825 0.78459 0.40698 0.0
C329 C 0.30048 0.78652 0.37747 0.0
C330 C 0.44985 0.75623 0.32529 0.0
C331 C 0.45368 0.78269 0.24467 0.0
C332 C 0.43586 0.78382 0.27706 0.0
C333 C 0.37456 0.78294 0.36969 0.0
C334 C 0.39753 0.78408 0.33805 0.0
H335 H 0.37098 0.79123 0.17769 0.0
H336 H 0.34246 0.79286 0.23062 0.0
H337 H 0.50768 0.73342 0.28584 0.0
H338 H 0.44465 0.77161 0.43864 0.0
H339 H 0.48353 0.77525 0.38702 0.0
C340 C 0.59308 0.77487 0.92198 0.0
C341 C 0.66759 0.77701 0.92937 0.0
C342 C 0.57029 0.77683 0.89242 0.0
C343 C 0.63053 0.8107 0.82022 0.0
H344 H 0.48728 0.73249 0.78592 0.0
C345 C 0.58274 0.78525 0.6934 0.0
C346 C 0.51104 0.77882 0.68297 0.0
C347 C 0.59851 0.78629 0.72384 0.0
C348 C 0.52658 0.75495 0.79523 0.0
H349 H 0.77628 0.78319 0.91136 0.0
H350 H 0.73679 0.78661 0.86016 0.0
H351 H 0.51984 0.73288 0.83855 0.0
H352 H 0.39945 0.76885 0.69647 0.0
H353 H 0.42687 0.77093 0.74968 0.0
H354 H 0.63751 0.83281 0.77705 0.0
C355 C 0.69583 0.78377 0.87718 0.0
C356 C 0.54524 0.75515 0.82541 0.0
C357 C 0.71854 0.78157 0.90659 0.0
C358 C 0.45543 0.77333 0.70374 0.0
C359 C 0.47118 0.77451 0.73424 0.0
C360 C 0.6117 0.81062 0.79012 0.0
C361 C 0.62148 0.78129 0.86969 0.0
C362 C 0.59811 0.78269 0.83815 0.0
C363 C 0.54293 0.78111 0.74469 0.0
C364 C 0.56017 0.7824 0.77713 0.0
H365 H 0.55231 0.77132 0.93894 0.0
H366 H 0.51255 0.77515 0.8874 0.0
H367 H 0.67052 0.8328 0.82948 0.0
H368 H 0.62701 0.78891 0.67796 0.0
H369 H 0.65461 0.79059 0.73098 0.0
C370 C 0.71894 0.24849 0.6262 0.0
C371 C 0.66748 0.25373 0.60369 0.0
C372 C 0.6969 0.24646 0.65571 0.0
C373 C 0.54747 0.27597 0.70793 0.0
H374 H 0.63891 0.19767 0.75604 0.0
C375 C 0.45609 0.25652 0.82908 0.0
C376 C 0.51137 0.25083 0.84998 0.0
C377 C 0.47232 0.25566 0.79865 0.0
C378 C 0.61335 0.22004 0.74303 0.0
H379 H 0.55216 0.26048 0.59459 0.0
H380 H 0.51359 0.25666 0.64623 0.0
H381 H 0.67195 0.19793 0.70364 0.0
H382 H 0.62724 0.24069 0.85532 0.0
H383 H 0.65568 0.23955 0.80241 0.0
H384 H 0.48958 0.29847 0.74743 0.0
C385 C 0.57116 0.25454 0.64099 0.0
C386 C 0.63223 0.22012 0.71296 0.0
C387 C 0.59324 0.25645 0.61137 0.0
C388 C 0.58323 0.24451 0.83976 0.0
C389 C 0.59948 0.24378 0.80939 0.0
C390 C 0.52873 0.27599 0.73806 0.0
C391 C 0.62279 0.24961 0.6635 0.0
C392 C 0.6 0.24831 0.69511 0.0
C393 C 0.54423 0.24919 0.78842 0.0
C394 C 0.56194 0.24825 0.75606 0.0
H395 H 0.77655 0.24608 0.62112 0.0
H396 H 0.73819 0.24315 0.67255 0.0
H397 H 0.52225 0.2984 0.69487 0.0
H398 H 0.39999 0.26091 0.83619 0.0
H399 H 0.42826 0.2594 0.7831 0.0
C400 C 0.90396 0.75854 0.1121 0.0
C401 C 0.82969 0.75502 0.10449 0.0
C402 C 0.92637 0.7582 0.14185 0.0
C403 C 0.85464 0.77579 0.21905 0.0
H404 H 0.03004 0.71896 0.24043 0.0
C405 C 0.91837 0.74673 0.34049 0.0
C406 C 0.9903 0.75321 0.35069 0.0
C407 C 0.90146 0.74719 0.31026 0.0
C408 C 0.98133 0.73534 0.23478 0.0
H409 H 0.72121 0.74721 0.12224 0.0
H410 H 0.76 0.74585 0.17363 0.0
H411 H 0.99583 0.71887 0.18793 0.0
H412 H 0.10096 0.76532 0.33685 0.0
H413 H 0.07138 0.76574 0.28395 0.0
H414 H 0.83967 0.79192 0.26581 0.0
C415 C 0.80099 0.74983 0.15683 0.0
C416 C 0.96174 0.73533 0.20469 0.0
C417 C 0.7787 0.75032 0.12722 0.0
C418 C 0.04513 0.75969 0.32975 0.0
C419 C 0.02821 0.75998 0.29943 0.0
C420 C 0.87404 0.77566 0.24905 0.0
C421 C 0.87499 0.75425 0.16463 0.0
C422 C 0.89774 0.75525 0.19648 0.0
C423 C 0.95606 0.754 0.28938 0.0
C424 C 0.93723 0.75515 0.25731 0.0
H425 H 0.94474 0.76231 0.09518 0.0
H426 H 0.98374 0.762 0.14708 0.0
H427 H 0.80591 0.79227 0.21356 0.0
H428 H 0.87502 0.74081 0.35585 0.0
H429 H 0.84557 0.74172 0.30317 0.0
C430 C 0.89374 0.2943 0.42198 0.0
C431 C 0.82654 0.27647 0.42836 0.0
C432 C 0.91473 0.29762 0.39237 0.0
C433 C 0.83843 0.29159 0.31487 0.0
H434 H 0.04201 0.28248 0.29238 0.0
C435 C 0.93003 0.31371 0.19487 0.0
C436 C 0.98815 0.28964 0.1828 0.0
C437 C 0.91273 0.31435 0.22517 0.0
C438 C 0.98475 0.28461 0.29811 0.0
H439 H 0.72968 0.2469 0.40872 0.0
H440 H 0.76706 0.25106 0.35747 0.0
H441 H 0.00726 0.27755 0.34397 0.0
H442 H 0.07357 0.24715 0.19274 0.0
H443 H 0.04171 0.24668 0.24528 0.0
H444 H 0.81529 0.29617 0.26884 0.0
C445 C 0.80275 0.26406 0.37507 0.0
C446 C 0.96485 0.28249 0.32795 0.0
C447 C 0.78137 0.26141 0.40458 0.0
C448 C 0.0288 0.26625 0.20158 0.0
C449 C 0.0107 0.26626 0.23177 0.0
C450 C 0.85816 0.293 0.285 0.0
C451 C 0.86946 0.28253 0.36846 0.0
C452 C 0.89132 0.28581 0.33677 0.0
C453 C 0.95225 0.29026 0.24404 0.0
C454 C 0.93161 0.28949 0.27612 0.0
H455 H 0.9295 0.3064 0.43987 0.0
H456 H 0.96595 0.31261 0.38831 0.0
H457 H 0.78139 0.29512 0.32069 0.0
H458 H 0.89844 0.33244 0.18092 0.0
H459 H 0.86853 0.33402 0.23376 0.0
C460 C 0.07714 0.28668 0.69301 0.0
C461 C 0.00527 0.27984 0.68283 0.0
C462 C 0.09432 0.28585 0.7232 0.0
C463 C 0.01447 0.29599 0.79877 0.0
H464 H 0.19222 0.24098 0.81961 0.0
C465 C 0.09357 0.27214 0.92123 0.0
C466 C 0.16773 0.27652 0.92884 0.0
C467 C 0.07094 0.27264 0.8915 0.0
C468 C 0.14281 0.25692 0.81422 0.0
H469 H 0.89507 0.26661 0.69665 0.0
H470 H 0.92511 0.26553 0.74945 0.0
H471 H 0.15809 0.24149 0.7674 0.0
H472 H 0.27571 0.28608 0.91115 0.0
H473 H 0.23652 0.28762 0.85982 0.0
H474 H -0.00038 0.31173 0.84569 0.0
C475 C 0.96802 0.27187 0.73401 0.0
C476 C 0.1232 0.25715 0.78425 0.0
C477 C 0.95083 0.27253 0.70373 0.0
C478 C 0.21834 0.28226 0.90617 0.0
C479 C 0.19582 0.28287 0.87659 0.0
C480 C 0.03425 0.29589 0.82884 0.0
C481 C 0.04008 0.2783 0.74406 0.0
C482 C 0.05916 0.27698 0.77612 0.0
C483 C 0.12198 0.27757 0.86876 0.0
C484 C 0.09906 0.27666 0.83692 0.0
H485 H 0.1202 0.29323 0.6777 0.0
H486 H 0.15012 0.29168 0.73027 0.0
H487 H 0.9651 0.31186 0.79324 0.0
H488 H 0.05309 0.26755 0.93811 0.0
H489 H 0.0137 0.26816 0.88626 0.0
C490 C 0.09438 0.75716 0.612 0.0
C491 C 0.16876 0.75425 0.60452 0.0
C492 C 0.07165 0.75512 0.64154 0.0
C493 C 0.13104 0.72 0.71358 0.0
H494 H 0.98932 0.7989 0.74806 0.0
C495 C 0.08211 0.7443 0.84043 0.0
C496 C 0.01042 0.75117 0.85071 0.0
C497 C 0.09832 0.74348 0.81004 0.0
C498 C 0.02818 0.77625 0.7387 0.0
H499 H 0.27725 0.74656 0.62237 0.0
H500 H 0.23789 0.74305 0.67356 0.0
H501 H 0.0223 0.79882 0.69553 0.0
H502 H 0.89931 0.76214 0.83698 0.0
H503 H 0.9275 0.76047 0.78388 0.0
H504 H 0.13714 0.69739 0.75662 0.0
C505 C 0.19695 0.74655 0.65662 0.0
C506 C 0.0471 0.77623 0.70857 0.0
C507 C 0.21962 0.7488 0.6272 0.0
C508 C 0.95529 0.75731 0.82984 0.0
C509 C 0.97148 0.75636 0.79939 0.0
C510 C 0.11197 0.71991 0.74364 0.0
C511 C 0.12274 0.74984 0.6642 0.0
C512 C 0.09938 0.7484 0.69575 0.0
C513 C 0.04322 0.74935 0.78909 0.0
C514 C 0.06093 0.74834 0.7567 0.0
H515 H 0.05366 0.76138 0.59512 0.0
H516 H 0.014 0.75739 0.64661 0.0
H517 H 0.17054 0.69767 0.70427 0.0
H518 H 0.12606 0.74014 0.85595 0.0
H519 H 0.15442 0.73883 0.80303 0.0
loop_
_geom_bond_atom_site_label_1
_geom_bond_atom_site_label_2
_geom_bond_distance
_geom_bond_site_symmetry_2
_ccdc_geom_bond_type
Tb0 C2 2.809 . S
Tb0 O20 2.484 . S
Tb0 O21 2.440 . S
Tb0 O22 2.658 1_554 S
Tb0 O23 2.409 . S
Tb0 O24 2.378 . S
Tb0 O28 2.325 . S
Tb0 O31 2.341 1_554 S
Tb1 C11 2.809 . S
Tb1 O22 2.325 . S
Tb1 O25 2.341 1_556 S
Tb1 O26 2.484 . S
Tb1 O27 2.440 . S
Tb1 O28 2.658 1_556 S
Tb1 O29 2.409 . S
Tb1 O30 2.378 . S
C2 Tb0 2.809 . S
C2 C3 1.514 . S
C2 O20 1.248 . S
C2 O21 1.266 . S
C3 C2 1.514 . S
C3 C4 1.359 . S
C3 C8 1.348 . S
C4 C3 1.359 . S
C4 C5 1.380 . S
C4 H32 0.929 . S
C5 C4 1.380 . S
C5 C6 1.347 . S
C5 H33 0.931 . S
C6 C5 1.347 . S
C6 C7 1.369 . S
C7 C6 1.369 . S
C7 C8 1.408 . S
C7 H34 0.930 . S
C8 C3 1.348 . S
C8 C7 1.408 . S
C8 H35 0.930 . S
C9 O22 1.281 1_554 S
C9 O23 1.254 . S
C10 O24 1.236 . S
C10 O25 1.266 . S
C11 Tb1 2.809 . S
C11 C12 1.514 . S
C11 O26 1.248 . S
C11 O27 1.266 . S
C12 C11 1.514 . S
C12 C13 1.359 . S
C12 C17 1.348 . S
C13 C12 1.359 . S
C13 C14 1.380 . S
C13 H36 0.929 . S
C14 C13 1.380 . S
C14 C15 1.347 . S
C14 H37 0.931 . S
C15 C14 1.347 . S
C15 C16 1.369 . S
C16 C15 1.369 . S
C16 C17 1.408 . S
C16 H38 0.930 . S
C17 C12 1.348 . S
C17 C16 1.408 . S
C17 H39 0.930 . S
C18 O28 1.281 . S
C18 O29 1.254 1_554 S
C19 O30 1.236 . S
C19 O31 1.266 . S
O20 Tb0 2.484 . S
O20 C2 1.248 . S
O21 Tb0 2.440 . S
O21 C2 1.266 . S
O22 Tb0 2.658 1_556 S
O22 Tb1 2.325 . S
O22 C9 1.281 1_556 S
O23 Tb0 2.409 . S
O23 C9 1.254 . S
O24 Tb0 2.378 . S
O24 C10 1.236 . S
O25 Tb1 2.341 1_554 S
O25 C10 1.266 . S
O26 Tb1 2.484 . S
O26 C11 1.248 . S
O27 Tb1 2.440 . S
O27 C11 1.266 . S
O28 Tb0 2.325 . S
O28 Tb1 2.658 1_554 S
O28 C18 1.281 . S
O29 Tb1 2.409 . S
O29 C18 1.254 1_556 S
O30 Tb1 2.378 . S
O30 C19 1.236 . S
O31 Tb0 2.341 1_556 S
O31 C19 1.266 . S
H32 C4 0.929 . S
H33 C5 0.931 . S
H34 C7 0.930 . S
H35 C8 0.930 . S
H36 C13 0.929 . S
H37 C14 0.931 . S
H38 C16 0.930 . S
H39 C17 0.930 . S
Tb40 C42 2.809 . S
Tb40 O60 2.484 . S
Tb40 O61 2.440 . S
Tb40 O62 2.658 1_554 S
Tb40 O63 2.409 . S
Tb40 O64 2.378 . S
Tb40 O68 2.325 . S
Tb40 O71 2.341 1_554 S
Tb41 C51 2.809 . S
Tb41 O62 2.325 . S
Tb41 O65 2.341 1_556 S
Tb41 O66 2.484 . S
Tb41 O67 2.440 . S
Tb41 O68 2.658 1_556 S
Tb41 O69 2.409 . S
Tb41 O70 2.378 . S
C42 Tb40 2.809 . S
C42 C43 1.514 . S
C42 O60 1.248 . S
C42 O61 1.266 . S
C43 C42 1.514 . S
C43 C44 1.359 . S
C43 C48 1.348 . S
C44 C43 1.359 . S
C44 C45 1.380 . S
C44 H72 0.929 . S
C45 C44 1.380 . S
C45 C46 1.347 . S
C45 H73 0.931 . S
C46 C45 1.347 . S
C46 C47 1.369 . S
C47 C46 1.369 . S
C47 C48 1.408 . S
C47 H74 0.930 . S
C48 C43 1.348 . S
C48 C47 1.408 . S
C48 H75 0.930 . S
C49 O62 1.281 1_554 S
C49 O63 1.254 . S
C50 O64 1.236 . S
C50 O65 1.266 . S
C51 Tb41 2.809 . S
C51 C52 1.514 . S
C51 O66 1.248 . S
C51 O67 1.266 . S
C52 C51 1.514 . S
C52 C53 1.359 . S
C52 C57 1.348 . S
C53 C52 1.359 . S
C53 C54 1.380 . S
C53 H76 0.929 . S
C54 C53 1.380 . S
C54 C55 1.347 . S
C54 H77 0.931 . S
C55 C54 1.347 . S
C55 C56 1.369 . S
C56 C55 1.369 . S
C56 C57 1.408 . S
C56 H78 0.930 . S
C57 C52 1.348 . S
C57 C56 1.408 . S
C57 H79 0.930 . S
C58 O68 1.281 . S
C58 O69 1.254 1_554 S
C59 O70 1.236 . S
C59 O71 1.266 . S
O60 Tb40 2.484 . S
O60 C42 1.248 . S
O61 Tb40 2.440 . S
O61 C42 1.266 . S
O62 Tb40 2.658 1_556 S
O62 Tb41 2.325 . S
O62 C49 1.281 1_556 S
O63 Tb40 2.409 . S
O63 C49 1.254 . S
O64 Tb40 2.378 . S
O64 C50 1.236 . S
O65 Tb41 2.341 1_554 S
O65 C50 1.266 . S
O66 Tb41 2.484 . S
O66 C51 1.248 . S
O67 Tb41 2.440 . S
O67 C51 1.266 . S
O68 Tb40 2.325 . S
O68 Tb41 2.658 1_554 S
O68 C58 1.281 . S
O69 Tb41 2.409 . S
O69 C58 1.254 1_556 S
O70 Tb41 2.378 . S
O70 C59 1.236 . S
O71 Tb40 2.341 1_556 S
O71 C59 1.266 . S
H72 C44 0.929 . S
H73 C45 0.931 . S
H74 C47 0.930 . S
H75 C48 0.930 . S
H76 C53 0.929 . S
H77 C54 0.931 . S
H78 C56 0.930 . S
H79 C57 0.930 . S
Tb80 C82 2.809 . S
Tb80 O100 2.484 . S
Tb80 O101 2.440 . S
Tb80 O102 2.658 . S
Tb80 O103 2.409 . S
Tb80 O104 2.378 . S
Tb80 O108 2.325 . S
Tb80 O111 2.341 . S
Tb81 C91 2.809 . S
Tb81 O102 2.325 . S
Tb81 O105 2.341 . S
Tb81 O106 2.484 . S
Tb81 O107 2.440 . S
Tb81 O108 2.658 . S
Tb81 O109 2.409 . S
Tb81 O110 2.378 . S
C82 Tb80 2.809 . S
C82 C83 1.514 . S
C82 O100 1.248 . S
C82 O101 1.266 . S
C83 C82 1.514 . S
C83 C84 1.359 . S
C83 C88 1.348 . S
C84 C83 1.359 . S
C84 C85 1.380 . S
C84 H112 0.929 . S
C85 C84 1.380 . S
C85 C86 1.347 . S
C85 H113 0.931 . S
C86 C85 1.347 . S
C86 C87 1.369 . S
C87 C86 1.369 . S
C87 C88 1.408 . S
C87 H114 0.930 . S
C88 C83 1.348 . S
C88 C87 1.408 . S
C88 H115 0.930 . S
C89 O102 1.281 . S
C89 O103 1.254 . S
C90 O104 1.236 . S
C90 O105 1.266 . S
C91 Tb81 2.809 . S
C91 C92 1.514 . S
C91 O106 1.248 . S
C91 O107 1.266 . S
C92 C91 1.514 . S
C92 C93 1.359 . S
C92 C97 1.348 . S
C93 C92 1.359 . S
C93 C94 1.380 . S
C93 H116 0.929 . S
C94 C93 1.380 . S
C94 C95 1.347 . S
C94 H117 0.931 . S
C95 C94 1.347 . S
C95 C96 1.369 . S
C96 C95 1.369 . S
C96 C97 1.408 . S
C96 H118 0.930 . S
C97 C92 1.348 . S
C97 C96 1.408 . S
C97 H119 0.930 . S
C98 O108 1.281 . S
C98 O109 1.254 . S
C99 O110 1.236 . S
C99 O111 1.266 . S
O100 Tb80 2.484 . S
O100 C82 1.248 . S
O101 Tb80 2.440 . S
O101 C82 1.266 . S
O102 Tb80 2.658 . S
O102 Tb81 2.325 . S
O102 C89 1.281 . S
O103 Tb80 2.409 . S
O103 C89 1.254 . S
O104 Tb80 2.378 . S
O104 C90 1.236 . S
O105 Tb81 2.341 . S
O105 C90 1.266 . S
O106 Tb81 2.484 . S
O106 C91 1.248 . S
O107 Tb81 2.440 . S
O107 C91 1.266 . S
O108 Tb80 2.325 . S
O108 Tb81 2.658 . S
O108 C98 1.281 . S
O109 Tb81 2.409 . S
O109 C98 1.254 . S
O110 Tb81 2.378 . S
O110 C99 1.236 . S
O111 Tb80 2.341 . S
O111 C99 1.266 . S
H112 C84 0.929 . S
H113 C85 0.931 . S
H114 C87 0.930 . S
H115 C88 0.930 . S
H116 C93 0.929 . S
H117 C94 0.931 . S
H118 C96 0.930 . S
H119 C97 0.930 . S
Tb120 C122 2.809 . S
Tb120 O140 2.484 . S
Tb120 O141 2.440 . S
Tb120 O142 2.658 . S
Tb120 O143 2.409 . S
Tb120 O144 2.378 . S
Tb120 O148 2.325 . S
Tb120 O151 2.341 . S
Tb121 C131 2.809 . S
Tb121 O142 2.325 . S
Tb121 O145 2.341 . S
Tb121 O146 2.484 . S
Tb121 O147 2.440 . S
Tb121 O148 2.658 . S
Tb121 O149 2.409 . S
Tb121 O150 2.378 . S
C122 Tb120 2.809 . S
C122 C123 1.514 . S
C122 O140 1.248 . S
C122 O141 1.266 . S
C123 C122 1.514 . S
C123 C124 1.359 . S
C123 C128 1.348 . S
C124 C123 1.359 . S
C124 C125 1.380 . S
C124 H152 0.929 . S
C125 C124 1.380 . S
C125 C126 1.347 . S
C125 H153 0.931 . S
C126 C125 1.347 . S
C126 C127 1.369 . S
C127 C126 1.369 . S
C127 C128 1.408 . S
C127 H154 0.930 . S
C128 C123 1.348 . S
C128 C127 1.408 . S
C128 H155 0.930 . S
C129 O142 1.281 . S
C129 O143 1.254 . S
C130 O144 1.236 . S
C130 O145 1.266 . S
C131 Tb121 2.809 . S
C131 C132 1.514 . S
C131 O146 1.248 . S
C131 O147 1.266 . S
C132 C131 1.514 . S
C132 C133 1.359 . S
C132 C137 1.348 . S
C133 C132 1.359 . S
C133 C134 1.380 . S
C133 H156 0.929 . S
C134 C133 1.380 . S
C134 C135 1.347 . S
C134 H157 0.931 . S
C135 C134 1.347 . S
C135 C136 1.369 . S
C136 C135 1.369 . S
C136 C137 1.408 . S
C136 H158 0.930 . S
C137 C132 1.348 . S
C137 C136 1.408 . S
C137 H159 0.930 . S
C138 O148 1.281 . S
C138 O149 1.254 . S
C139 O150 1.236 . S
C139 O151 1.266 . S
O140 Tb120 2.484 . S
O140 C122 1.248 . S
O141 Tb120 2.440 . S
O141 C122 1.266 . S
O142 Tb120 2.658 . S
O142 Tb121 2.325 . S
O142 C129 1.281 . S
O143 Tb120 2.409 . S
O143 C129 1.254 . S
O144 Tb120 2.378 . S
O144 C130 1.236 . S
O145 Tb121 2.341 . S
O145 C130 1.266 . S
O146 Tb121 2.484 . S
O146 C131 1.248 . S
O147 Tb121 2.440 . S
O147 C131 1.266 . S
O148 Tb120 2.325 . S
O148 Tb121 2.658 . S
O148 C138 1.281 . S
O149 Tb121 2.409 . S
O149 C138 1.254 . S
O150 Tb121 2.378 . S
O150 C139 1.236 . S
O151 Tb120 2.341 . S
O151 C139 1.266 . S
H152 C124 0.929 . S
H153 C125 0.931 . S
H154 C127 0.930 . S
H155 C128 0.930 . S
H156 C133 0.929 . S
H157 C134 0.931 . S
H158 C136 0.930 . S
H159 C137 0.930 . S
C160 C161 1.349 . S
C160 C162 1.327 . S
C160 H185 0.950 . S
C161 C160 1.349 . S
C161 C177 1.349 1_554 S
C162 C160 1.327 . S
C162 C181 1.429 . S
C162 H186 0.950 . S
C163 C180 1.574 . S
C163 C182 1.368 1_556 S
C163 H187 0.949 . S
H164 C168 0.949 . S
C165 C166 1.349 1_556 S
C165 C167 1.327 . S
C165 H188 0.950 . S
C166 C165 1.349 1_554 S
C166 C178 1.349 . S
C167 C165 1.327 . S
C167 C183 1.429 1_556 S
C167 H189 0.950 . S
C168 H164 0.949 . S
C168 C176 1.574 . S
C168 C184 1.368 . S
H169 C177 0.950 . S
H170 C175 0.950 . S
H171 C176 0.949 . S
H172 C178 0.950 . S
H173 C179 0.950 . S
H174 C180 0.949 . S
C175 H170 0.950 . S
C175 C177 1.327 . S
C175 C181 1.429 1_556 S
C176 C168 1.574 . S
C176 H171 0.949 . S
C176 C182 1.368 . S
C177 C161 1.349 1_556 S
C177 H169 0.950 . S
C177 C175 1.327 . S
C178 C166 1.349 . S
C178 H172 0.950 . S
C178 C179 1.327 . S
C179 H173 0.950 . S
C179 C178 1.327 . S
C179 C183 1.429 . S
C180 C163 1.574 . S
C180 H174 0.949 . S
C180 C184 1.368 1_556 S
C181 C162 1.429 . S
C181 C175 1.429 1_554 S
C181 C182 1.523 . S
C182 C163 1.368 1_554 S
C182 C176 1.368 . S
C182 C181 1.523 . S
C183 C167 1.429 1_554 S
C183 C179 1.429 . S
C183 C184 1.523 . S
C184 C168 1.368 . S
C184 C180 1.368 1_554 S
C184 C183 1.523 . S
H185 C160 0.950 . S
H186 C162 0.950 . S
H187 C163 0.949 . S
H188 C165 0.950 . S
H189 C167 0.950 . S
C190 C191 1.349 . S
C190 C192 1.327 . S
C190 H215 0.950 . S
C191 C190 1.349 . S
C191 C207 1.349 . S
C192 C190 1.327 . S
C192 C211 1.429 . S
C192 H216 0.950 . S
C193 C210 1.574 . S
C193 C212 1.368 . S
C193 H217 0.949 . S
H194 C198 0.949 . S
C195 C196 1.349 . S
C195 C197 1.327 . S
C195 H218 0.950 . S
C196 C195 1.349 . S
C196 C208 1.349 . S
C197 C195 1.327 . S
C197 C213 1.429 . S
C197 H219 0.950 . S
C198 H194 0.949 . S
C198 C206 1.574 . S
C198 C214 1.368 . S
H199 C207 0.950 . S
H200 C205 0.950 . S
H201 C206 0.949 . S
H202 C208 0.950 . S
H203 C209 0.950 . S
H204 C210 0.949 . S
C205 H200 0.950 . S
C205 C207 1.327 . S
C205 C211 1.429 . S
C206 C198 1.574 . S
C206 H201 0.949 . S
C206 C212 1.368 . S
C207 C191 1.349 . S
C207 H199 0.950 . S
C207 C205 1.327 . S
C208 C196 1.349 . S
C208 H202 0.950 . S
C208 C209 1.327 . S
C209 H203 0.950 . S
C209 C208 1.327 . S
C209 C213 1.429 . S
C210 C193 1.574 . S
C210 H204 0.949 . S
C210 C214 1.368 . S
C211 C192 1.429 . S
C211 C205 1.429 . S
C211 C212 1.523 . S
C212 C193 1.368 . S
C212 C206 1.368 . S
C212 C211 1.523 . S
C213 C197 1.429 . S
C213 C209 1.429 . S
C213 C214 1.523 . S
C214 C198 1.368 . S
C214 C210 1.368 . S
C214 C213 1.523 . S
H215 C190 0.950 . S
H216 C192 0.950 . S
H217 C193 0.949 . S
H218 C195 0.950 . S
H219 C197 0.950 . S
C220 C221 1.349 1_556 S
C220 C222 1.327 . S
C220 H245 0.950 . S
C221 C220 1.349 1_554 S
C221 C237 1.349 . S
C222 C220 1.327 . S
C222 C241 1.429 1_556 S
C222 H246 0.950 . S
C223 C240 1.574 1_545 S
C223 C242 1.368 1_655 S
C223 H247 0.949 . S
H224 C228 0.949 . S
C225 C226 1.349 . S
C225 C227 1.327 . S
C225 H248 0.950 . S
C226 C225 1.349 . S
C226 C238 1.349 1_554 S
C227 C225 1.327 . S
C227 C243 1.429 . S
C227 H249 0.950 . S
C228 H224 0.949 . S
C228 C236 1.574 1_565 S
C228 C244 1.368 1_456 S
H229 C237 0.950 . S
H230 C235 0.950 . S
H231 C236 0.949 . S
H232 C238 0.950 . S
H233 C239 0.950 . S
H234 C240 0.949 . S
C235 H230 0.950 . S
C235 C237 1.327 . S
C235 C241 1.429 . S
C236 C228 1.574 1_545 S
C236 H231 0.949 . S
C236 C242 1.368 1_556 S
C237 C221 1.349 . S
C237 H229 0.950 . S
C237 C235 1.327 . S
C238 C226 1.349 1_556 S
C238 H232 0.950 . S
C238 C239 1.327 . S
C239 H233 0.950 . S
C239 C238 1.327 . S
C239 C243 1.429 1_556 S
C240 C223 1.574 1_565 S
C240 H234 0.949 . S
C240 C244 1.368 . S
C241 C222 1.429 1_554 S
C241 C235 1.429 . S
C241 C242 1.523 . S
C242 C223 1.368 1_455 S
C242 C236 1.368 1_554 S
C242 C241 1.523 . S
C243 C227 1.429 . S
C243 C239 1.429 1_554 S
C243 C244 1.523 . S
C244 C228 1.368 1_654 S
C244 C240 1.368 . S
C244 C243 1.523 . S
H245 C220 0.950 . S
H246 C222 0.950 . S
H247 C223 0.949 . S
H248 C225 0.950 . S
H249 C227 0.950 . S
C250 C251 1.349 . S
C250 C252 1.327 . S
C250 H275 0.950 . S
C251 C250 1.349 . S
C251 C267 1.349 . S
C252 C250 1.327 . S
C252 C271 1.429 . S
C252 H276 0.950 . S
C253 C270 1.574 1_545 S
C253 C272 1.368 . S
C253 H277 0.949 . S
H254 C258 0.949 . S
C255 C256 1.349 . S
C255 C257 1.327 . S
C255 H278 0.950 . S
C256 C255 1.349 . S
C256 C268 1.349 . S
C257 C255 1.327 . S
C257 C273 1.429 . S
C257 H279 0.950 . S
C258 H254 0.949 . S
C258 C266 1.574 1_565 S
C258 C274 1.368 . S
H259 C267 0.950 . S
H260 C265 0.950 . S
H261 C266 0.949 . S
H262 C268 0.950 . S
H263 C269 0.950 . S
H264 C270 0.949 . S
C265 H260 0.950 . S
C265 C267 1.327 . S
C265 C271 1.429 . S
C266 C258 1.574 1_545 S
C266 H261 0.949 . S
C266 C272 1.368 1_455 S
C267 C251 1.349 . S
C267 H259 0.950 . S
C267 C265 1.327 . S
C268 C256 1.349 . S
C268 H262 0.950 . S
C268 C269 1.327 . S
C269 H263 0.950 . S
C269 C268 1.327 . S
C269 C273 1.429 . S
C270 C253 1.574 1_565 S
C270 H264 0.949 . S
C270 C274 1.368 1_655 S
C271 C252 1.429 . S
C271 C265 1.429 . S
C271 C272 1.523 . S
C272 C253 1.368 . S
C272 C266 1.368 1_655 S
C272 C271 1.523 . S
C273 C257 1.429 . S
C273 C269 1.429 . S
C273 C274 1.523 . S
C274 C258 1.368 . S
C274 C270 1.368 1_455 S
C274 C273 1.523 . S
H275 C250 0.950 . S
H276 C252 0.950 . S
H277 C253 0.949 . S
H278 C255 0.950 . S
H279 C257 0.950 . S
C280 C281 1.349 . S
C280 C282 1.327 . S
C280 H305 0.950 . S
C281 C280 1.349 . S
C281 C297 1.349 . S
C282 C280 1.327 . S
C282 C301 1.429 . S
C282 H306 0.950 . S
C283 C300 1.574 . S
C283 C302 1.368 . S
C283 H307 0.949 . S
H284 C288 0.949 . S
C285 C286 1.349 . S
C285 C287 1.327 . S
C285 H308 0.950 . S
C286 C285 1.349 . S
C286 C298 1.349 . S
C287 C285 1.327 . S
C287 C303 1.429 . S
C287 H309 0.950 . S
C288 H284 0.949 . S
C288 C296 1.574 . S
C288 C304 1.368 . S
H289 C297 0.950 . S
H290 C295 0.950 . S
H291 C296 0.949 . S
H292 C298 0.950 . S
H293 C299 0.950 . S
H294 C300 0.949 . S
C295 H290 0.950 . S
C295 C297 1.327 . S
C295 C301 1.429 . S
C296 C288 1.574 . S
C296 H291 0.949 . S
C296 C302 1.368 . S
C297 C281 1.349 . S
C297 H289 0.950 . S
C297 C295 1.327 . S
C298 C286 1.349 . S
C298 H292 0.950 . S
C298 C299 1.327 . S
C299 H293 0.950 . S
C299 C298 1.327 . S
C299 C303 1.429 . S
C300 C283 1.574 . S
C300 H294 0.949 . S
C300 C304 1.368 . S
C301 C282 1.429 . S
C301 C295 1.429 . S
C301 C302 1.523 . S
C302 C283 1.368 . S
C302 C296 1.368 . S
C302 C301 1.523 . S
C303 C287 1.429 . S
C303 C299 1.429 . S
C303 C304 1.523 . S
C304 C288 1.368 . S
C304 C300 1.368 . S
C304 C303 1.523 . S
H305 C280 0.950 . S
H306 C282 0.950 . S
H307 C283 0.949 . S
H308 C285 0.950 . S
H309 C287 0.950 . S
C310 C311 1.349 . S
C310 C312 1.327 . S
C310 H335 0.950 . S
C311 C310 1.349 . S
C311 C327 1.349 . S
C312 C310 1.327 . S
C312 C331 1.429 . S
C312 H336 0.950 . S
C313 C330 1.574 . S
C313 C332 1.368 . S
C313 H337 0.949 . S
H314 C318 0.949 . S
C315 C316 1.349 . S
C315 C317 1.327 . S
C315 H338 0.950 . S
C316 C315 1.349 . S
C316 C328 1.349 . S
C317 C315 1.327 . S
C317 C333 1.429 . S
C317 H339 0.950 . S
C318 H314 0.949 . S
C318 C326 1.574 . S
C318 C334 1.368 . S
H319 C327 0.950 . S
H320 C325 0.950 . S
H321 C326 0.949 . S
H322 C328 0.950 . S
H323 C329 0.950 . S
H324 C330 0.949 . S
C325 H320 0.950 . S
C325 C327 1.327 . S
C325 C331 1.429 . S
C326 C318 1.574 . S
C326 H321 0.949 . S
C326 C332 1.368 . S
C327 C311 1.349 . S
C327 H319 0.950 . S
C327 C325 1.327 . S
C328 C316 1.349 . S
C328 H322 0.950 . S
C328 C329 1.327 . S
C329 H323 0.950 . S
C329 C328 1.327 . S
C329 C333 1.429 . S
C330 C313 1.574 . S
C330 H324 0.949 . S
C330 C334 1.368 . S
C331 C312 1.429 . S
C331 C325 1.429 . S
C331 C332 1.523 . S
C332 C313 1.368 . S
C332 C326 1.368 . S
C332 C331 1.523 . S
C333 C317 1.429 . S
C333 C329 1.429 . S
C333 C334 1.523 . S
C334 C318 1.368 . S
C334 C330 1.368 . S
C334 C333 1.523 . S
H335 C310 0.950 . S
H336 C312 0.950 . S
H337 C313 0.949 . S
H338 C315 0.950 . S
H339 C317 0.950 . S
C340 C341 1.349 . S
C340 C342 1.327 . S
C340 H365 0.950 . S
C341 C340 1.349 . S
C341 C357 1.349 . S
C342 C340 1.327 . S
C342 C361 1.429 . S
C342 H366 0.950 . S
C343 C360 1.574 . S
C343 C362 1.368 . S
C343 H367 0.949 . S
H344 C348 0.949 . S
C345 C346 1.349 . S
C345 C347 1.327 . S
C345 H368 0.950 . S
C346 C345 1.349 . S
C346 C358 1.349 . S
C347 C345 1.327 . S
C347 C363 1.429 . S
C347 H369 0.950 . S
C348 H344 0.949 . S
C348 C356 1.574 . S
C348 C364 1.368 . S
H349 C357 0.950 . S
H350 C355 0.950 . S
H351 C356 0.949 . S
H352 C358 0.950 . S
H353 C359 0.950 . S
H354 C360 0.949 . S
C355 H350 0.950 . S
C355 C357 1.327 . S
C355 C361 1.429 . S
C356 C348 1.574 . S
C356 H351 0.949 . S
C356 C362 1.368 . S
C357 C341 1.349 . S
C357 H349 0.950 . S
C357 C355 1.327 . S
C358 C346 1.349 . S
C358 H352 0.950 . S
C358 C359 1.327 . S
C359 H353 0.950 . S
C359 C358 1.327 . S
C359 C363 1.429 . S
C360 C343 1.574 . S
C360 H354 0.949 . S
C360 C364 1.368 . S
C361 C342 1.429 . S
C361 C355 1.429 . S
C361 C362 1.523 . S
C362 C343 1.368 . S
C362 C356 1.368 . S
C362 C361 1.523 . S
C363 C347 1.429 . S
C363 C359 1.429 . S
C363 C364 1.523 . S
C364 C348 1.368 . S
C364 C360 1.368 . S
C364 C363 1.523 . S
H365 C340 0.950 . S
H366 C342 0.950 . S
H367 C343 0.949 . S
H368 C345 0.950 . S
H369 C347 0.950 . S
C370 C371 1.349 . S
C370 C372 1.327 . S
C370 H395 0.950 . S
C371 C370 1.349 . S
C371 C387 1.349 . S
C372 C370 1.327 . S
C372 C391 1.429 . S
C372 H396 0.950 . S
C373 C390 1.574 . S
C373 C392 1.368 . S
C373 H397 0.949 . S
H374 C378 0.949 . S
C375 C376 1.349 . S
C375 C377 1.327 . S
C375 H398 0.950 . S
C376 C375 1.349 . S
C376 C388 1.349 . S
C377 C375 1.327 . S
C377 C393 1.429 . S
C377 H399 0.950 . S
C378 H374 0.949 . S
C378 C386 1.574 . S
C378 C394 1.368 . S
H379 C387 0.950 . S
H380 C385 0.950 . S
H381 C386 0.949 . S
H382 C388 0.950 . S
H383 C389 0.950 . S
H384 C390 0.949 . S
C385 H380 0.950 . S
C385 C387 1.327 . S
C385 C391 1.429 . S
C386 C378 1.574 . S
C386 H381 0.949 . S
C386 C392 1.368 . S
C387 C371 1.349 . S
C387 H379 0.950 . S
C387 C385 1.327 . S
C388 C376 1.349 . S
C388 H382 0.950 . S
C388 C389 1.327 . S
C389 H383 0.950 . S
C389 C388 1.327 . S
C389 C393 1.429 . S
C390 C373 1.574 . S
C390 H384 0.949 . S
C390 C394 1.368 . S
C391 C372 1.429 . S
C391 C385 1.429 . S
C391 C392 1.523 . S
C392 C373 1.368 . S
C392 C386 1.368 . S
C392 C391 1.523 . S
C393 C377 1.429 . S
C393 C389 1.429 . S
C393 C394 1.523 . S
C394 C378 1.368 . S
C394 C390 1.368 . S
C394 C393 1.523 . S
H395 C370 0.950 . S
H396 C372 0.950 . S
H397 C373 0.949 . S
H398 C375 0.950 . S
H399 C377 0.950 . S
C400 C401 1.349 . S
C400 C402 1.327 . S
C400 H425 0.950 . S
C401 C400 1.349 . S
C401 C417 1.349 . S
C402 C400 1.327 . S
C402 C421 1.429 . S
C402 H426 0.950 . S
C403 C420 1.574 . S
C403 C422 1.368 . S
C403 H427 0.949 . S
H404 C408 0.949 1_455 S
C405 C406 1.349 1_655 S
C405 C407 1.327 . S
C405 H428 0.950 . S
C406 C405 1.349 1_455 S
C406 C418 1.349 . S
C407 C405 1.327 . S
C407 C423 1.429 . S
C407 H429 0.950 . S
C408 H404 0.949 1_655 S
C408 C416 1.574 . S
C408 C424 1.368 . S
H409 C417 0.950 . S
H410 C415 0.950 . S
H411 C416 0.949 . S
H412 C418 0.950 . S
H413 C419 0.950 . S
H414 C420 0.949 . S
C415 H410 0.950 . S
C415 C417 1.327 . S
C415 C421 1.429 . S
C416 C408 1.574 . S
C416 H411 0.949 . S
C416 C422 1.368 . S
C417 C401 1.349 . S
C417 H409 0.950 . S
C417 C415 1.327 . S
C418 C406 1.349 . S
C418 H412 0.950 . S
C418 C419 1.327 . S
C419 H413 0.950 . S
C419 C418 1.327 . S
C419 C423 1.429 1_455 S
C420 C403 1.574 . S
C420 H414 0.949 . S
C420 C424 1.368 . S
C421 C402 1.429 . S
C421 C415 1.429 . S
C421 C422 1.523 . S
C422 C403 1.368 . S
C422 C416 1.368 . S
C422 C421 1.523 . S
C423 C407 1.429 . S
C423 C419 1.429 1_655 S
C423 C424 1.523 . S
C424 C408 1.368 . S
C424 C420 1.368 . S
C424 C423 1.523 . S
H425 C400 0.950 . S
H426 C402 0.950 . S
H427 C403 0.949 . S
H428 C405 0.950 . S
H429 C407 0.950 . S
C430 C431 1.349 . S
C430 C432 1.327 . S
C430 H455 0.950 . S
C431 C430 1.349 . S
C431 C447 1.349 . S
C432 C430 1.327 . S
C432 C451 1.429 . S
C432 H456 0.950 . S
C433 C450 1.574 . S
C433 C452 1.368 . S
C433 H457 0.949 . S
H434 C438 0.949 1_455 S
C435 C436 1.349 1_655 S
C435 C437 1.327 . S
C435 H458 0.950 . S
C436 C435 1.349 1_455 S
C436 C448 1.349 . S
C437 C435 1.327 . S
C437 C453 1.429 . S
C437 H459 0.950 . S
C438 H434 0.949 1_655 S
C438 C446 1.574 . S
C438 C454 1.368 . S
H439 C447 0.950 . S
H440 C445 0.950 . S
H441 C446 0.949 . S
H442 C448 0.950 . S
H443 C449 0.950 . S
H444 C450 0.949 . S
C445 H440 0.950 . S
C445 C447 1.327 . S
C445 C451 1.429 . S
C446 C438 1.574 . S
C446 H441 0.949 . S
C446 C452 1.368 . S
C447 C431 1.349 . S
C447 H439 0.950 . S
C447 C445 1.327 . S
C448 C436 1.349 . S
C448 H442 0.950 . S
C448 C449 1.327 . S
C449 H443 0.950 . S
C449 C448 1.327 . S
C449 C453 1.429 1_455 S
C450 C433 1.574 . S
C450 H444 0.949 . S
C450 C454 1.368 . S
C451 C432 1.429 . S
C451 C445 1.429 . S
C451 C452 1.523 . S
C452 C433 1.368 . S
C452 C446 1.368 . S
C452 C451 1.523 . S
C453 C437 1.429 . S
C453 C449 1.429 1_655 S
C453 C454 1.523 . S
C454 C438 1.368 . S
C454 C450 1.368 . S
C454 C453 1.523 . S
H455 C430 0.950 . S
H456 C432 0.950 . S
H457 C433 0.949 . S
H458 C435 0.950 . S
H459 C437 0.950 . S
C460 C461 1.349 1_455 S
C460 C462 1.327 . S
C460 H485 0.950 . S
C461 C460 1.349 1_655 S
C461 C477 1.349 . S
C462 C460 1.327 . S
C462 C481 1.429 . S
C462 H486 0.950 . S
C463 C480 1.574 . S
C463 C482 1.368 . S
C463 H487 0.949 1_455 S
H464 C468 0.949 . S
C465 C466 1.349 . S
C465 C467 1.327 . S
C465 H488 0.950 . S
C466 C465 1.349 . S
C466 C478 1.349 . S
C467 C465 1.327 . S
C467 C483 1.429 . S
C467 H489 0.950 . S
C468 H464 0.949 . S
C468 C476 1.574 . S
C468 C484 1.368 . S
H469 C477 0.950 . S
H470 C475 0.950 . S
H471 C476 0.949 . S
H472 C478 0.950 . S
H473 C479 0.950 . S
H474 C480 0.949 . S
C475 H470 0.950 . S
C475 C477 1.327 . S
C475 C481 1.429 1_655 S
C476 C468 1.574 . S
C476 H471 0.949 . S
C476 C482 1.368 . S
C477 C461 1.349 . S
C477 H469 0.950 . S
C477 C475 1.327 . S
C478 C466 1.349 . S
C478 H472 0.950 . S
C478 C479 1.327 . S
C479 H473 0.950 . S
C479 C478 1.327 . S
C479 C483 1.429 . S
C480 C463 1.574 . S
C480 H474 0.949 . S
C480 C484 1.368 . S
C481 C462 1.429 . S
C481 C475 1.429 1_455 S
C481 C482 1.523 . S
C482 C463 1.368 . S
C482 C476 1.368 . S
C482 C481 1.523 . S
C483 C467 1.429 . S
C483 C479 1.429 . S
C483 C484 1.523 . S
C484 C468 1.368 . S
C484 C480 1.368 . S
C484 C483 1.523 . S
H485 C460 0.950 . S
H486 C462 0.950 . S
H487 C463 0.949 1_655 S
H488 C465 0.950 . S
H489 C467 0.950 . S
C490 C491 1.349 . S
C490 C492 1.327 . S
C490 H515 0.950 . S
C491 C490 1.349 . S
C491 C507 1.349 . S
C492 C490 1.327 . S
C492 C511 1.429 . S
C492 H516 0.950 . S
C493 C510 1.574 . S
C493 C512 1.368 . S
C493 H517 0.949 . S
H494 C498 0.949 1_655 S
C495 C496 1.349 1_455 S
C495 C497 1.327 . S
C495 H518 0.950 . S
C496 C495 1.349 1_655 S
C496 C508 1.349 . S
C497 C495 1.327 . S
C497 C513 1.429 . S
C497 H519 0.950 . S
C498 H494 0.949 1_455 S
C498 C506 1.574 . S
C498 C514 1.368 . S
H499 C507 0.950 . S
H500 C505 0.950 . S
H501 C506 0.949 . S
H502 C508 0.950 . S
H503 C509 0.950 . S
H504 C510 0.949 . S
C505 H500 0.950 . S
C505 C507 1.327 . S
C505 C511 1.429 . S
C506 C498 1.574 . S
C506 H501 0.949 . S
C506 C512 1.368 . S
C507 C491 1.349 . S
C507 H499 0.950 . S
C507 C505 1.327 . S
C508 C496 1.349 . S
C508 H502 0.950 . S
C508 C509 1.327 . S
C509 H503 0.950 . S
C509 C508 1.327 . S
C509 C513 1.429 1_655 S
C510 C493 1.574 . S
C510 H504 0.949 . S
C510 C514 1.368 . S
C511 C492 1.429 . S
C511 C505 1.429 . S
C511 C512 1.523 . S
C512 C493 1.368 . S
C512 C506 1.368 . S
C512 C511 1.523 . S
C513 C497 1.429 . S
C513 C509 1.429 1_455 S
C513 C514 1.523 . S
C514 C498 1.368 . S
C514 C510 1.368 . S
C514 C513 1.523 . S
H515 C490 0.950 . S
H516 C492 0.950 . S
H517 C493 0.949 . S
H518 C495 0.950 . S
H519 C497 0.950 . S
C161 C58 1.493 . S
C166 C9 1.493 . S
C191 C89 1.493 . S
C196 C138 1.493 . S
C221 C18 1.493 . S
C226 C49 1.493 . S
C251 C129 1.493 . S
C256 C98 1.493 . S
C281 C126 1.213 . S
C286 C10 1.209 . S
C311 C46 1.213 . S
C316 C90 1.209 . S
C341 C59 1.209 . S
C346 C95 1.213 . S
C371 C139 1.209 . S
C376 C15 1.213 . S
C401 C50 1.209 . S
C406 C86 1.213 . S
C431 C130 1.209 . S
C436 C6 1.213 . S
C461 C135 1.213 . S
C466 C19 1.209 . S
C491 C99 1.209 . S
C496 C55 1.213 . S
