# Generated by pormake.
# Topology unc, (4)-cn, num edge types: 1
# Building blocks:
#     Node 0, Type 0, BuildingBlock: CEKHIL_clean_sbu_0, # of connection points: 4
#     Node 1, Type 0, BuildingBlock: CEKHIL_clean_sbu_0, # of connection points: 4
#     Node 2, Type 0, BuildingBlock: CEKHIL_clean_sbu_0, # of connection points: 4
#     Node 3, Type 0, BuildingBlock: CEKHIL_clean_sbu_0, # of connection points: 4
#     Edge 4, Type (0, 0), BuildingBlock: ZUJKAS_clean_linker_0, # of connection points: 2
#     Edge 5, Type (0, 0), BuildingBlock: ZUJKAS_clean_linker_0, # of connection points: 2
#     Edge 6, Type (0, 0), BuildingBlock: ZUJKAS_clean_linker_0, # of connection points: 2
#     Edge 7, Type (0, 0), BuildingBlock: ZUJKAS_clean_linker_0, # of connection points: 2
#     Edge 8, Type (0, 0), BuildingBlock: ZUJKAS_clean_linker_0, # of connection points: 2
#     Edge 9, Type (0, 0), BuildingBlock: ZUJKAS_clean_linker_0, # of connection points: 2
#     Edge 10, Type (0, 0), BuildingBlock: ZUJKAS_clean_linker_0, # of connection points: 2
#     Edge 11, Type (0, 0), BuildingBlock: ZUJKAS_clean_linker_0, # of connection points: 2
# Relax obj value: 0.004
# Max RMSD: 0.040
# Mean RMSD: 0.040
data_MOF--net-unc--node1-CEKHIL_clean_sbu_0--edge1-ZUJKAS_clean_linker_0
_symmetry_space_group_name_H-M    P1
_symmetry_Int_Tables_number       1
_symmetry_cell_setting            triclinic
loop_
_symmetry_equiv_pos_as_xyz
'x, y, z'
_cell_length_a     38.516671
_cell_length_b     38.4842
_cell_length_c     28.585846
_cell_angle_alpha  89.949005
_cell_angle_beta   90.075317
_cell_angle_gamma 92.815883
loop_
_atom_site_label
_atom_site_type_symbol
_atom_site_fract_x
_atom_site_fract_y
_atom_site_fract_z
_atom_type_partial_charge
Co0 Co 0.0347 0.70656 0.98254 0.0
O1 O 0.02304 0.74235 0.93899 0.0
O2 O 0.99615 0.732 0.00622 0.0
C3 C 0.03806 0.66394 0.92848 0.0
O4 O 0.03834 0.67097 0.03536 0.0
Co5 Co 0.10527 0.67175 0.97596 0.0
O6 O 0.08361 0.63791 0.02085 0.0
C7 C 0.10283 0.74245 0.01548 0.0
C8 C 0.99854 0.75003 0.96771 0.0
C9 C 0.05666 0.6446 0.04438 0.0
O10 O 0.06935 0.73987 0.01463 0.0
O11 O 0.1218 0.71923 0.99823 0.0
O12 O 0.00823 0.6718 0.94557 0.0
O13 O 0.06431 0.68382 0.94153 0.0
Co14 Co 0.36615 0.03758 0.31187 0.0
O15 O 0.32944 0.04891 0.35412 0.0
O16 O 0.34132 0.07633 0.28752 0.0
C17 C 0.40789 0.0341 0.36726 0.0
O18 O 0.40258 0.03433 0.26022 0.0
Co19 Co 0.40141 0.96718 0.31925 0.0
O20 O 0.4356 0.98906 0.27513 0.0
C21 C 0.33144 0.96941 0.27701 0.0
C22 C 0.32251 0.07366 0.32525 0.0
C23 C 0.42905 0.01611 0.2516 0.0
O24 O 0.33352 0.00292 0.27855 0.0
O25 O 0.35465 0.95055 0.29464 0.0
O26 O 0.40015 0.064 0.3501 0.0
O27 O 0.38832 0.00782 0.3535 0.0
Co28 Co 0.03889 0.36525 0.48264 0.0
O29 O 0.05048 0.3287 0.44026 0.0
O30 O 0.07761 0.34044 0.50711 0.0
C31 C 0.03546 0.4072 0.4275 0.0
O32 O 0.03526 0.40153 0.53447 0.0
Co33 Co 0.96833 0.40009 0.47481 0.0
O34 O 0.98974 0.4342 0.5195 0.0
C35 C 0.97077 0.32993 0.51643 0.0
C36 C 0.07511 0.32171 0.46926 0.0
C37 C 0.01677 0.42781 0.54316 0.0
O38 O 0.00426 0.33236 0.51553 0.0
O39 O 0.95186 0.353 0.49855 0.0
O40 O 0.06532 0.39951 0.44481 0.0
O41 O 0.00924 0.38744 0.44091 0.0
Co42 Co 0.70714 0.03489 0.81221 0.0
O43 O 0.74296 0.02356 0.85588 0.0
O44 O 0.73266 0.99623 0.78892 0.0
C45 C 0.6646 0.03838 0.8663 0.0
O46 O 0.67152 0.03809 0.75937 0.0
Co47 Co 0.672 0.10534 0.8181 0.0
O48 O 0.6381 0.08313 0.77375 0.0
C49 C 0.74258 0.10301 0.77829 0.0
C50 C 0.75064 0.99885 0.82746 0.0
C51 C 0.64495 0.05613 0.75038 0.0
O52 O 0.7403 0.06951 0.7798 0.0
O53 O 0.71921 0.12197 0.79515 0.0
O54 O 0.67255 0.00847 0.84943 0.0
O55 O 0.68434 0.06466 0.85299 0.0
H56 H 0.08277 0.58179 0.06549 0.0
H57 H 0.07024 0.5451 0.1334 0.0
H58 H 0.99721 0.61787 0.1833 0.0
H59 H 0.00972 0.65522 0.11505 0.0
H60 H 0.04601 0.59632 0.25199 0.0
H61 H 0.98193 0.48358 0.16074 0.0
H62 H 0.02274 0.49766 0.135 0.0
H63 H 0.9871 0.52617 0.1343 0.0
C64 C 0.06382 0.59005 0.0906 0.0
C65 C 0.04723 0.62155 0.08464 0.0
C66 C 0.05655 0.56885 0.12935 0.0
C67 C 0.03248 0.5785 0.16309 0.0
C68 C 0.01572 0.60984 0.15744 0.0
H69 H 0.97639 0.42713 0.38378 0.0
H70 H 0.97166 0.47195 0.32343 0.0
C71 C 0.02283 0.63108 0.11836 0.0
C72 C 0.02628 0.55631 0.20503 0.0
H73 H 0.00363 0.47293 0.23782 0.0
C74 C 0.03624 0.56949 0.24908 0.0
C75 C 0.01312 0.52146 0.2013 0.0
C76 C 1.00027 0.50642 0.15536 0.0
C77 C 0.03509 0.54817 0.28908 0.0
C78 C 0.02412 0.51267 0.28471 0.0
C79 C 0.01241 0.50004 0.24111 0.0
C80 C 0.02638 0.48766 0.32412 0.0
C81 C 0.04597 0.56378 0.33553 0.0
C82 C 0.05869 0.48159 0.34459 0.0
C83 C 0.06146 0.45602 0.37899 0.0
C84 C 0.032 0.43581 0.3934 0.0
C85 C 0.99956 0.44228 0.37344 0.0
C86 C 0.99681 0.46787 0.33896 0.0
H87 H 0.04302 0.59236 0.33597 0.0
H88 H 0.03052 0.55182 0.36466 0.0
H89 H 0.07379 0.55909 0.34182 0.0
H90 H 0.082 0.49595 0.33299 0.0
H91 H 0.08684 0.45159 0.39355 0.0
H92 H 0.45199 0.08554 0.40175 0.0
H93 H 0.49624 0.08062 0.46241 0.0
H94 H 0.47257 0.97011 0.4712 0.0
H95 H 0.42787 0.9749 0.41073 0.0
H96 H 0.47347 1.00187 0.55707 0.0
H97 H 0.59268 0.04184 0.45914 0.0
H98 H 0.55936 0.07255 0.4534 0.0
H99 H 0.55221 0.02927 0.43038 0.0
C100 C 0.45647 0.0601 0.41616 0.0
C101 C 0.4364 0.03061 0.40149 0.0
C102 C 0.48197 0.05729 0.45062 0.0
C103 C 0.48812 0.02491 0.47089 0.0
C104 C 0.46845 0.99532 0.45582 0.0
H105 H 0.65589 0.00921 0.67974 0.0
H106 H 0.61853 0.99627 0.61161 0.0
C107 C 0.44292 0.9981 0.42127 0.0
C108 C 0.51311 0.0226 0.51029 0.0
H109 H 0.59662 0.04475 0.54314 0.0
C110 C 0.50052 0.01075 0.55383 0.0
C111 C 0.54855 0.0337 0.50598 0.0
C112 C 0.56412 0.04472 0.45958 0.0
C113 C 0.52192 0.01146 0.59366 0.0
C114 C 0.55669 0.02479 0.59 0.0
C115 C 0.56984 0.03486 0.546 0.0
C116 C 0.57883 0.03111 0.63198 0.0
C117 C 0.50694 0.99846 0.63954 0.0
C118 C 0.56898 0.05506 0.66579 0.0
C119 C 0.59018 0.06258 0.70446 0.0
C120 C 0.62188 0.04635 0.71027 0.0
C121 C 0.63159 0.02203 0.67653 0.0
C122 C 0.61034 0.01468 0.63752 0.0
H123 H 0.48427 0.97993 0.63405 0.0
H124 H 0.52675 0.98545 0.66066 0.0
H125 H 0.49794 0.02085 0.65989 0.0
H126 H 0.54509 0.06851 0.66181 0.0
H127 H 0.58177 0.08144 0.7296 0.0
H128 H 0.09718 0.64341 0.88565 0.0
H129 H 0.10157 0.59966 0.82392 0.0
H130 H 0.99094 0.57711 0.83133 0.0
H131 H 0.98639 0.62041 0.89334 0.0
H132 H 0.03023 0.51719 0.82308 0.0
H133 H 0.06775 0.61757 0.68983 0.0
H134 H 0.09479 0.61694 0.74108 0.0
H135 H 0.05036 0.62855 0.7462 0.0
C136 C 0.07383 0.62892 0.87438 0.0
C137 C 0.04137 0.63559 0.89402 0.0
C138 C 0.07638 0.60405 0.83899 0.0
C139 C 0.0465 0.58554 0.82252 0.0
C140 C 0.01431 0.59119 0.8434 0.0
H141 H 0.98834 0.48919 0.56582 0.0
H142 H 1.00003 0.52547 0.6343 0.0
C143 C 0.01174 0.616 0.87877 0.0
C144 C 0.04824 0.56142 0.78216 0.0
H145 H 0.06269 0.55948 0.66432 0.0
C146 C 0.03768 0.52629 0.78843 0.0
C147 C 0.0577 0.5735 0.73694 0.0
C148 C 0.06805 0.61122 0.72775 0.0
C149 C 0.03563 0.50304 0.75049 0.0
C150 C 0.04471 0.51523 0.7052 0.0
C151 C 0.05603 0.55017 0.69915 0.0
C152 C 0.03925 0.4932 0.66297 0.0
C153 C 0.02232 0.46602 0.75874 0.0
C154 C 0.0579 0.46319 0.65584 0.0
C155 C 0.05129 0.4422 0.61641 0.0
C156 C 0.02588 0.45088 0.5835 0.0
C157 C 0.00794 0.48147 0.59043 0.0
C158 C 0.01463 0.50237 0.62959 0.0
H159 H 0.01092 0.46234 0.79419 0.0
H160 H 1.0023 0.45814 0.73231 0.0
H161 H 0.04412 0.4484 0.75523 0.0
H162 H 0.07741 0.45593 0.68085 0.0
H163 H 0.06565 0.41891 0.61217 0.0
H164 H 0.41982 0.06503 0.18272 0.0
H165 H 0.45679 0.0772 0.11417 0.0
H166 H 0.52703 1.00049 0.16082 0.0
H167 H 0.49079 0.9884 0.22919 0.0
H168 H 0.56046 0.06341 0.13059 0.0
H169 H 0.46363 0.01057 1.00102 0.0
H170 H 0.44947 0.04376 0.03988 0.0
H171 H 0.45956 1.00205 0.06293 0.0
C172 C 0.44325 0.05092 0.17855 0.0
C173 C 0.45214 0.02555 0.21143 0.0
C174 C 0.46422 0.05776 0.13919 0.0
C175 C 0.4944 0.0394 0.1321 0.0
C176 C 0.50379 0.01486 0.1655 0.0
H177 H 0.6214 0.98664 0.90188 0.0
H178 H 0.57826 0.99124 0.96398 0.0
C179 C 0.48292 0.00794 0.20459 0.0
C180 C 0.51633 0.04499 0.08983 0.0
H181 H 0.51826 0.03024 0.97201 0.0
C182 C 0.55117 0.0566 0.09579 0.0
C183 C 0.50416 0.03571 0.0446 0.0
C184 C 0.46725 0.02208 0.03643 0.0
C185 C 0.57443 0.05835 0.05797 0.0
C186 C 0.56239 0.04867 0.01281 0.0
C187 C 0.52733 0.03785 0.00662 0.0
C188 C 0.58647 0.0469 0.97245 0.0
C189 C 0.61207 0.069 0.06707 0.0
C190 C 0.6048 0.07682 0.95576 0.0
C191 C 0.6296 0.07424 0.92031 0.0
C192 C 0.63635 0.04171 0.90083 0.0
C193 C 0.61694 0.01204 0.91632 0.0
C194 C 0.5922 0.01464 0.95174 0.0
H195 H 0.61845 0.0689 0.10499 0.0
H196 H 0.6295 0.05135 0.04873 0.0
H197 H 0.61759 0.09574 0.05357 0.0
H198 H 0.60034 0.10206 0.97068 0.0
H199 H 0.64396 0.09762 0.90886 0.0
H200 H 0.31877 0.89939 0.26588 0.0
H201 H 0.27222 0.86956 0.22181 0.0
H202 H 0.22938 0.96793 0.18813 0.0
H203 H 0.27648 0.99842 0.23189 0.0
H204 H 0.20026 0.86923 0.23267 0.0
H205 H 0.24175 0.92271 0.05936 0.0
H206 H 0.26936 0.92621 0.11036 0.0
H207 H 0.23337 0.9538 0.10436 0.0
C208 C 0.2995 0.91489 0.24931 0.0
C209 C 0.30167 0.95146 0.25226 0.0
C210 C 0.27279 0.89768 0.22416 0.0
C211 C 0.24755 0.91649 0.2012 0.0
C212 C 0.24893 0.95292 0.20493 0.0
H213 H 0.07386 0.79255 0.06975 0.0
H214 H 0.1045 0.83938 0.11382 0.0
C215 C 0.2758 0.97029 0.23016 0.0
C216 C 0.22051 0.8974 0.1728 0.0
H217 H 0.19518 0.88098 0.06003 0.0
C218 C 0.19872 0.87214 0.19499 0.0
C219 C 0.21876 0.90113 0.1236 0.0
C220 C 0.24215 0.92722 0.09775 0.0
C221 C 0.17619 0.84961 0.1692 0.0
C222 C 0.17513 0.85272 0.11992 0.0
C223 C 0.19593 0.87884 0.09785 0.0
C224 C 0.15573 0.82661 0.09046 0.0
C225 C 0.15514 0.8214 0.19463 0.0
C226 C 0.17426 0.80462 0.06166 0.0
C227 C 0.15695 0.77795 0.03649 0.0
C228 C 0.12058 0.77272 0.03932 0.0
C229 C 0.10188 0.79569 0.06686 0.0
C230 C 0.11933 0.82238 0.09225 0.0
H231 H 0.16306 0.81914 0.23186 0.0
H232 H 0.12725 0.82734 0.1936 0.0
H233 H 0.1579 0.79586 0.17732 0.0
H234 H 0.20235 0.80748 0.05968 0.0
H235 H 0.17225 0.76103 0.01543 0.0
H236 H 0.31745 0.14012 0.29274 0.0
H237 H 0.27666 0.18311 0.31854 0.0
H238 H 0.22554 0.10588 0.40763 0.0
H239 H 0.26734 0.06356 0.38388 0.0
H240 H 0.21047 0.18911 0.31294 0.0
H241 H 0.24221 0.18076 0.50093 0.0
H242 H 0.26718 0.15986 0.45676 0.0
H243 H 0.22745 0.13911 0.47866 0.0
C244 C 0.29743 0.13237 0.31775 0.0
C245 C 0.29578 0.09863 0.33668 0.0
C246 C 0.27416 0.15696 0.33258 0.0
C247 C 0.24855 0.14814 0.36618 0.0
C248 C 0.24583 0.11384 0.38317 0.0
H249 H 0.06508 0.26661 0.41042 0.0
H250 H 0.1073 0.2247 0.38678 0.0
C251 C 0.26952 0.08952 0.36915 0.0
C252 C 0.22445 0.1746 0.38301 0.0
H253 H 0.19011 0.20915 0.48184 0.0
C254 C 0.20626 0.19365 0.34989 0.0
C255 C 0.21943 0.18131 0.43124 0.0
C256 C 0.24042 0.16445 0.46887 0.0
C257 C 0.18268 0.21846 0.36354 0.0
C258 C 0.17586 0.22339 0.41176 0.0
C259 C 0.19473 0.20501 0.44488 0.0
C260 C 0.14946 0.24756 0.42856 0.0
C261 C 0.16604 0.23966 0.32594 0.0
C262 C 0.15825 0.27312 0.46229 0.0
C263 C 0.1337 0.29646 0.47704 0.0
C264 C 0.10005 0.29492 0.45791 0.0
C265 C 0.09098 0.26871 0.42531 0.0
C266 C 0.11525 0.24496 0.41136 0.0
H267 H 0.18243 0.24147 0.29398 0.0
H268 H 0.1407 0.22681 0.31591 0.0
H269 H 0.16153 0.26643 0.33817 0.0
H270 H 0.18434 0.27552 0.47649 0.0
H271 H 0.14142 0.31644 0.50216 0.0
H272 H 0.75868 0.17291 0.77333 0.0
H273 H 0.80531 0.2027 0.72929 0.0
H274 H 0.84204 0.10402 0.68478 0.0
H275 H 0.79496 0.07366 0.72857 0.0
H276 H 0.87821 0.19869 0.73444 0.0
H277 H 0.82538 0.15627 0.5611 0.0
H278 H 0.80009 0.15211 0.61409 0.0
H279 H 0.8337 0.12257 0.60267 0.0
C280 C 0.77666 0.15735 0.75441 0.0
C281 C 0.77274 0.12078 0.75424 0.0
C282 C 0.80344 0.17451 0.72933 0.0
C283 C 0.82689 0.15563 0.70329 0.0
C284 C 0.82389 0.11911 0.70409 0.0
H285 H 0.99988 0.27739 0.5665 0.0
H286 H 0.96933 0.23051 0.61058 0.0
C287 C 0.79704 0.10182 0.72934 0.0
C288 C 0.85349 0.17472 0.67426 0.0
H289 H 0.87405 0.19541 0.56107 0.0
C290 C 0.87773 0.19762 0.69652 0.0
C291 C 0.85257 0.1734 0.62481 0.0
C292 C 0.82645 0.14999 0.59901 0.0
C293 C 0.90019 0.2202 0.67069 0.0
C294 C 0.89862 0.21954 0.62123 0.0
C295 C 0.87531 0.19569 0.59898 0.0
C296 C 0.91784 0.24609 0.59222 0.0
C297 C 0.92405 0.2459 0.69651 0.0
C298 C 0.89908 0.26972 0.56616 0.0
C299 C 0.91635 0.29634 0.54087 0.0
C300 C 0.9529 0.29997 0.54088 0.0
C301 C 0.97174 0.27554 0.56587 0.0
C302 C 0.95433 0.24882 0.59129 0.0
H303 H 0.91793 0.24692 0.73445 0.0
H304 H 0.95129 0.23822 0.69272 0.0
H305 H 0.92229 0.2724 0.68156 0.0
H306 H 0.87092 0.26807 0.56628 0.0
H307 H 0.90087 0.31443 0.52192 0.0
H308 H 0.77038 0.94164 0.77848 0.0
H309 H 0.81284 0.89953 0.80246 0.0
H310 H 0.83329 0.95773 0.9292 0.0
H311 H 0.79147 0.99996 0.90535 0.0
H312 H 0.8932 0.93817 0.88611 0.0
H313 H 0.79855 0.82545 0.90471 0.0
H314 H 0.79835 0.84619 0.84839 0.0
H315 H 0.78527 0.86962 0.89925 0.0
C316 C 0.78404 0.94551 0.81135 0.0
C317 C 0.77745 0.97409 0.84006 0.0
C318 C 0.80809 0.92128 0.82519 0.0
C319 C 0.82582 0.92516 0.86803 0.0
C320 C 0.8198 0.95409 0.89614 0.0
H321 H 0.94158 0.76958 0.0172 0.0
H322 H 0.89993 0.8129 0.99444 0.0
C323 C 0.79584 0.97823 0.8824 0.0
C324 C 0.85096 0.89944 0.88368 0.0
H325 H 0.8582 0.81402 0.91331 0.0
C326 C 0.88554 0.91102 0.89207 0.0
C327 C 0.84081 0.86415 0.89223 0.0
C328 C 0.80367 0.85055 0.88614 0.0
C329 C 0.91036 0.88822 0.90804 0.0
C330 C 0.90048 0.85271 0.91519 0.0
C331 C 0.86578 0.8412 0.90755 0.0
C332 C 0.92598 0.827 0.92963 0.0
C333 C 0.94685 0.90246 0.91778 0.0
C334 C 0.95427 0.82042 0.90066 0.0
C335 C 0.97803 0.79585 0.91358 0.0
C336 C 0.97394 0.77712 0.95567 0.0
C337 C 0.94556 0.7837 0.98471 0.0
C338 C 0.9217 0.80834 0.97168 0.0
H339 H 0.94779 0.9311 0.92298 0.0
H340 H 0.95779 0.89012 0.94931 0.0
H341 H 0.96368 0.89684 0.88752 0.0
H342 H 0.95773 0.83399 0.86766 0.0
H343 H 0.99944 0.79128 0.8902 0.0
loop_
_geom_bond_atom_site_label_1
_geom_bond_atom_site_label_2
_geom_bond_distance
_geom_bond_site_symmetry_2
_ccdc_geom_bond_type
Co0 O1 2.216 1_554 S
Co0 O2 2.091 1_455 S
Co0 O4 2.004 . S
Co0 O10 2.021 . S
Co0 O12 2.135 1_454 S
Co0 O13 2.244 1_554 S
O1 Co0 2.216 1_556 S
O1 C8 1.247 1_455 S
O2 Co0 2.091 1_655 S
O2 C8 1.261 1_554 S
C3 O12 1.237 1_455 S
C3 O13 1.272 . S
O4 Co0 2.004 . S
O4 C9 1.259 . S
Co5 O6 2.061 . S
Co5 O11 2.052 . S
Co5 O13 2.135 1_554 S
O6 Co5 2.061 . S
O6 C9 1.235 . S
C7 O10 1.238 . S
C7 O11 1.241 . S
C8 O1 1.247 1_655 S
C8 O2 1.261 1_556 S
C9 O4 1.259 . S
C9 O6 1.235 . S
O10 Co0 2.021 . S
O10 C7 1.238 . S
O11 Co5 2.052 . S
O11 C7 1.241 . S
O12 Co0 2.135 1_656 S
O12 C3 1.237 1_655 S
O13 Co0 2.244 1_556 S
O13 C3 1.272 . S
O13 Co5 2.135 1_556 S
Co14 O15 2.216 . S
Co14 O16 2.091 . S
Co14 O18 2.004 . S
Co14 O24 2.021 . S
Co14 O26 2.137 . S
Co14 O27 2.244 . S
O15 Co14 2.216 . S
O15 C22 1.247 . S
O16 Co14 2.091 . S
O16 C22 1.261 . S
C17 O26 1.247 . S
C17 O27 1.272 . S
O18 Co14 2.004 . S
O18 C23 1.259 . S
Co19 O20 2.061 1_565 S
Co19 O25 2.052 . S
Co19 O27 2.135 1_565 S
O20 Co19 2.061 1_545 S
O20 C23 1.235 . S
C21 O24 1.238 1_565 S
C21 O25 1.241 . S
C22 O15 1.247 . S
C22 O16 1.261 . S
C23 O18 1.259 . S
C23 O20 1.235 . S
O24 Co14 2.021 . S
O24 C21 1.238 1_545 S
O25 Co19 2.052 . S
O25 C21 1.241 . S
O26 Co14 2.137 . S
O26 C17 1.247 . S
O27 Co14 2.244 . S
O27 C17 1.272 . S
O27 Co19 2.135 1_545 S
Co28 O29 2.216 . S
Co28 O30 2.091 . S
Co28 O32 2.004 . S
Co28 O38 2.021 . S
Co28 O40 2.137 . S
Co28 O41 2.244 . S
O29 Co28 2.216 . S
O29 C36 1.247 . S
O30 Co28 2.091 . S
O30 C36 1.261 . S
C31 O40 1.247 . S
C31 O41 1.272 . S
O32 Co28 2.004 . S
O32 C37 1.259 . S
Co33 O34 2.061 1_655 S
Co33 O39 2.052 . S
Co33 O41 2.135 1_655 S
O34 Co33 2.061 1_455 S
O34 C37 1.235 . S
C35 O38 1.238 1_655 S
C35 O39 1.241 . S
C36 O29 1.247 . S
C36 O30 1.261 . S
C37 O32 1.259 . S
C37 O34 1.235 . S
O38 Co28 2.021 . S
O38 C35 1.238 1_455 S
O39 Co33 2.052 . S
O39 C35 1.241 . S
O40 Co28 2.137 . S
O40 C31 1.247 . S
O41 Co28 2.244 . S
O41 C31 1.272 . S
O41 Co33 2.135 1_455 S
Co42 O43 2.216 . S
Co42 O44 2.091 1_545 S
Co42 O46 2.004 . S
Co42 O52 2.021 . S
Co42 O54 2.135 1_545 S
Co42 O55 2.244 . S
O43 Co42 2.216 . S
O43 C50 1.247 1_545 S
O44 Co42 2.091 1_565 S
O44 C50 1.261 . S
C45 O54 1.237 1_545 S
C45 O55 1.272 . S
O46 Co42 2.004 . S
O46 C51 1.259 . S
Co47 O48 2.061 . S
Co47 O53 2.052 . S
Co47 O55 2.135 . S
O48 Co47 2.061 . S
O48 C51 1.235 . S
C49 O52 1.238 . S
C49 O53 1.241 . S
C50 O43 1.247 1_565 S
C50 O44 1.261 . S
C51 O46 1.259 . S
C51 O48 1.235 . S
O52 Co42 2.021 . S
O52 C49 1.238 . S
O53 Co47 2.052 . S
O53 C49 1.241 . S
O54 Co42 2.135 1_565 S
O54 C45 1.237 1_565 S
O55 Co42 2.244 . S
O55 C45 1.272 . S
O55 Co47 2.135 . S
H56 C64 0.929 . S
H57 C66 0.930 . S
H58 C68 0.930 . S
H59 C71 0.929 . S
H60 C74 0.930 . S
H61 C76 0.960 1_655 S
H62 C76 0.960 . S
H63 C76 0.960 1_655 S
C64 H56 0.929 . S
C64 C65 1.377 . S
C64 C66 1.384 . S
C65 C64 1.377 . S
C65 C71 1.390 1_455 S
C66 H57 0.930 . S
C66 C64 1.384 . S
C66 C67 1.372 . S
C67 C66 1.372 . S
C67 C68 1.400 1_455 S
C67 C72 1.490 . S
C68 H58 0.930 . S
C68 C67 1.400 1_655 S
C68 C71 1.386 . S
H69 C85 0.930 1_655 S
H70 C86 0.931 1_655 S
C71 H59 0.929 . S
C71 C65 1.390 1_655 S
C71 C68 1.386 . S
C72 C67 1.490 . S
C72 C74 1.395 . S
C72 C75 1.403 . S
H73 C79 0.930 . S
C74 H60 0.930 . S
C74 C72 1.395 . S
C74 C77 1.403 . S
C75 C72 1.403 . S
C75 C76 1.524 . S
C75 C79 1.400 . S
C76 H61 0.960 1_455 S
C76 H62 0.960 . S
C76 H63 0.960 1_455 S
C76 C75 1.524 . S
C77 C74 1.403 . S
C77 C78 1.392 . S
C77 C81 1.495 . S
C78 C77 1.392 . S
C78 C79 1.385 . S
C78 C80 1.478 . S
C79 H73 0.930 . S
C79 C75 1.400 . S
C79 C78 1.385 . S
C80 C78 1.478 . S
C80 C82 1.381 . S
C80 C86 1.383 . S
C81 C77 1.495 . S
C81 H87 0.959 . S
C81 H88 0.961 . S
C81 H89 0.960 . S
C82 C80 1.381 . S
C82 C83 1.394 . S
C82 H90 0.930 . S
C83 C82 1.394 . S
C83 C84 1.383 . S
C83 H91 0.929 . S
C84 C83 1.383 . S
C84 C85 1.377 . S
C85 H69 0.930 1_455 S
C85 C84 1.377 . S
C85 C86 1.379 . S
C86 H70 0.931 1_455 S
C86 C80 1.383 . S
C86 C85 1.379 . S
H87 C81 0.959 . S
H88 C81 0.961 . S
H89 C81 0.960 . S
H90 C82 0.930 . S
H91 C83 0.929 . S
H92 C100 0.929 . S
H93 C102 0.930 . S
H94 C104 0.930 1_565 S
H95 C107 0.929 1_565 S
H96 C110 0.930 . S
H97 C112 0.960 . S
H98 C112 0.960 . S
H99 C112 0.960 . S
C100 H92 0.929 . S
C100 C101 1.377 . S
C100 C102 1.384 . S
C101 C100 1.377 . S
C101 C107 1.390 . S
C102 H93 0.930 . S
C102 C100 1.384 . S
C102 C103 1.372 . S
C103 C102 1.372 . S
C103 C104 1.400 . S
C103 C108 1.490 . S
C104 H94 0.930 1_545 S
C104 C103 1.400 . S
C104 C107 1.386 . S
H105 C121 0.903 1_565 S
H106 C122 0.931 1_565 S
C107 H95 0.929 1_545 S
C107 C101 1.390 . S
C107 C104 1.386 . S
C108 C103 1.490 . S
C108 C110 1.395 . S
C108 C111 1.403 . S
H109 C115 0.930 . S
C110 H96 0.930 . S
C110 C108 1.395 . S
C110 C113 1.403 . S
C111 C108 1.403 . S
C111 C112 1.524 . S
C111 C115 1.400 . S
C112 H97 0.960 . S
C112 H98 0.960 . S
C112 H99 0.960 . S
C112 C111 1.524 . S
C113 C110 1.403 . S
C113 C114 1.392 . S
C113 C117 1.495 . S
C114 C113 1.392 . S
C114 C115 1.385 . S
C114 C116 1.478 . S
C115 H109 0.930 . S
C115 C111 1.400 . S
C115 C114 1.385 . S
C116 C114 1.478 . S
C116 C118 1.381 . S
C116 C122 1.383 . S
C117 C113 1.495 . S
C117 H123 0.959 . S
C117 H124 0.961 1_545 S
C117 H125 0.960 . S
C118 C116 1.381 . S
C118 C119 1.394 . S
C118 H126 0.930 . S
C119 C118 1.394 . S
C119 C120 1.383 . S
C119 H127 0.929 . S
C120 C119 1.383 . S
C120 C121 1.401 . S
C121 H105 0.903 1_545 S
C121 C120 1.401 . S
C121 C122 1.382 . S
C122 H106 0.931 1_545 S
C122 C116 1.383 . S
C122 C121 1.382 . S
H123 C117 0.959 . S
H124 C117 0.961 1_565 S
H125 C117 0.960 . S
H126 C118 0.930 . S
H127 C119 0.929 . S
H128 C136 0.929 . S
H129 C138 0.930 . S
H130 C140 0.930 . S
H131 C143 0.915 1_655 S
H132 C146 0.930 . S
H133 C148 0.960 . S
H134 C148 0.960 . S
H135 C148 0.960 . S
C136 H128 0.929 . S
C136 C137 1.377 . S
C136 C138 1.384 . S
C137 C136 1.377 . S
C137 C143 1.390 . S
C138 H129 0.930 . S
C138 C136 1.384 . S
C138 C139 1.372 . S
C139 C138 1.372 . S
C139 C140 1.400 . S
C139 C144 1.490 . S
C140 H130 0.930 . S
C140 C139 1.400 . S
C140 C143 1.386 . S
H141 C157 0.920 1_655 S
H142 C158 0.931 1_655 S
C143 H131 0.915 1_455 S
C143 C137 1.390 . S
C143 C140 1.386 . S
C144 C139 1.490 . S
C144 C146 1.395 . S
C144 C147 1.403 . S
H145 C151 0.930 . S
C146 H132 0.930 . S
C146 C144 1.395 . S
C146 C149 1.403 . S
C147 C144 1.403 . S
C147 C148 1.524 . S
C147 C151 1.400 . S
C148 H133 0.960 . S
C148 H134 0.960 . S
C148 H135 0.960 . S
C148 C147 1.524 . S
C149 C146 1.403 . S
C149 C150 1.392 . S
C149 C153 1.495 . S
C150 C149 1.392 . S
C150 C151 1.385 . S
C150 C152 1.478 . S
C151 H145 0.930 . S
C151 C147 1.400 . S
C151 C150 1.385 . S
C152 C150 1.478 . S
C152 C154 1.381 . S
C152 C158 1.383 . S
C153 C149 1.495 . S
C153 H159 0.959 . S
C153 H160 0.961 1_455 S
C153 H161 0.960 . S
C154 C152 1.381 . S
C154 C155 1.394 . S
C154 H162 0.930 . S
C155 C154 1.394 . S
C155 C156 1.383 . S
C155 H163 0.929 . S
C156 C155 1.383 . S
C156 C157 1.377 . S
C157 H141 0.920 1_455 S
C157 C156 1.377 . S
C157 C158 1.379 . S
C158 H142 0.931 1_455 S
C158 C152 1.383 . S
C158 C157 1.379 . S
H159 C153 0.959 . S
H160 C153 0.961 1_655 S
H161 C153 0.960 . S
H162 C154 0.930 . S
H163 C155 0.929 . S
H164 C172 0.929 . S
H165 C174 0.930 . S
H166 C176 0.930 1_565 S
H167 C179 0.929 1_565 S
H168 C182 0.930 . S
H169 C184 0.960 . S
H170 C184 0.960 . S
H171 C184 0.960 . S
C172 H164 0.929 . S
C172 C173 1.377 . S
C172 C174 1.384 . S
C173 C172 1.377 . S
C173 C179 1.390 . S
C174 H165 0.930 . S
C174 C172 1.384 . S
C174 C175 1.372 . S
C175 C174 1.372 . S
C175 C176 1.400 . S
C175 C180 1.490 . S
C176 H166 0.930 1_545 S
C176 C175 1.400 . S
C176 C179 1.386 . S
H177 C193 0.930 1_565 S
H178 C194 0.931 1_565 S
C179 H167 0.929 1_545 S
C179 C173 1.390 . S
C179 C176 1.386 . S
C180 C175 1.490 . S
C180 C182 1.395 . S
C180 C183 1.401 1_554 S
H181 C187 0.930 . S
C182 H168 0.930 . S
C182 C180 1.395 . S
C182 C185 1.403 . S
C183 C180 1.401 1_556 S
C183 C184 1.524 . S
C183 C187 1.401 . S
C184 H169 0.960 . S
C184 H170 0.960 . S
C184 H171 0.960 . S
C184 C183 1.524 . S
C185 C182 1.403 . S
C185 C186 1.392 1_554 S
C185 C189 1.495 . S
C186 C185 1.392 1_556 S
C186 C187 1.385 . S
C186 C188 1.478 . S
C187 H181 0.930 . S
C187 C183 1.401 . S
C187 C186 1.385 . S
C188 C186 1.478 . S
C188 C190 1.381 . S
C188 C194 1.383 . S
C189 C185 1.495 . S
C189 H195 0.959 . S
C189 H196 0.961 . S
C189 H197 0.960 . S
C190 C188 1.381 . S
C190 C191 1.394 . S
C190 H198 0.930 . S
C191 C190 1.394 . S
C191 C192 1.383 . S
C191 H199 0.929 . S
C192 C191 1.383 . S
C192 C193 1.377 . S
C193 H177 0.930 1_545 S
C193 C192 1.377 . S
C193 C194 1.379 . S
C194 H178 0.931 1_545 S
C194 C188 1.383 . S
C194 C193 1.379 . S
H195 C189 0.959 . S
H196 C189 0.961 . S
H197 C189 0.960 . S
H198 C190 0.930 . S
H199 C191 0.929 . S
H200 C208 0.929 . S
H201 C210 0.930 . S
H202 C212 0.930 . S
H203 C215 0.929 . S
H204 C218 0.930 . S
H205 C220 0.960 . S
H206 C220 0.960 . S
H207 C220 0.960 . S
C208 H200 0.929 . S
C208 C209 1.377 . S
C208 C210 1.384 . S
C209 C208 1.377 . S
C209 C215 1.390 . S
C210 H201 0.930 . S
C210 C208 1.384 . S
C210 C211 1.372 . S
C211 C210 1.372 . S
C211 C212 1.400 . S
C211 C216 1.490 . S
C212 H202 0.930 . S
C212 C211 1.400 . S
C212 C215 1.386 . S
H213 C229 0.930 . S
H214 C230 0.931 . S
C215 H203 0.929 . S
C215 C209 1.390 . S
C215 C212 1.386 . S
C216 C211 1.490 . S
C216 C218 1.395 . S
C216 C219 1.403 . S
H217 C223 0.930 . S
C218 H204 0.930 . S
C218 C216 1.395 . S
C218 C221 1.403 . S
C219 C216 1.403 . S
C219 C220 1.524 . S
C219 C223 1.400 . S
C220 H205 0.960 . S
C220 H206 0.960 . S
C220 H207 0.960 . S
C220 C219 1.524 . S
C221 C218 1.403 . S
C221 C222 1.392 . S
C221 C225 1.495 . S
C222 C221 1.392 . S
C222 C223 1.385 . S
C222 C224 1.478 . S
C223 H217 0.930 . S
C223 C219 1.400 . S
C223 C222 1.385 . S
C224 C222 1.478 . S
C224 C226 1.381 . S
C224 C230 1.383 . S
C225 C221 1.495 . S
C225 H231 0.959 . S
C225 H232 0.961 . S
C225 H233 0.960 . S
C226 C224 1.381 . S
C226 C227 1.394 . S
C226 H234 0.930 . S
C227 C226 1.394 . S
C227 C228 1.383 . S
C227 H235 0.929 . S
C228 C227 1.383 . S
C228 C229 1.377 . S
C229 H213 0.930 . S
C229 C228 1.377 . S
C229 C230 1.379 . S
C230 H214 0.931 . S
C230 C224 1.383 . S
C230 C229 1.379 . S
H231 C225 0.959 . S
H232 C225 0.961 . S
H233 C225 0.960 . S
H234 C226 0.930 . S
H235 C227 0.929 . S
H236 C244 0.929 . S
H237 C246 0.930 . S
H238 C248 0.930 . S
H239 C251 0.929 . S
H240 C254 0.930 . S
H241 C256 0.960 . S
H242 C256 0.960 . S
H243 C256 0.960 . S
C244 H236 0.929 . S
C244 C245 1.377 . S
C244 C246 1.384 . S
C245 C244 1.377 . S
C245 C251 1.390 . S
C246 H237 0.930 . S
C246 C244 1.384 . S
C246 C247 1.372 . S
C247 C246 1.372 . S
C247 C248 1.400 . S
C247 C252 1.490 . S
C248 H238 0.930 . S
C248 C247 1.400 . S
C248 C251 1.386 . S
H249 C265 0.930 . S
H250 C266 0.931 . S
C251 H239 0.929 . S
C251 C245 1.390 . S
C251 C248 1.386 . S
C252 C247 1.490 . S
C252 C254 1.395 . S
C252 C255 1.403 . S
H253 C259 0.930 . S
C254 H240 0.930 . S
C254 C252 1.395 . S
C254 C257 1.403 . S
C255 C252 1.403 . S
C255 C256 1.524 . S
C255 C259 1.400 . S
C256 H241 0.960 . S
C256 H242 0.960 . S
C256 H243 0.960 . S
C256 C255 1.524 . S
C257 C254 1.403 . S
C257 C258 1.392 . S
C257 C261 1.495 . S
C258 C257 1.392 . S
C258 C259 1.385 . S
C258 C260 1.478 . S
C259 H253 0.930 . S
C259 C255 1.400 . S
C259 C258 1.385 . S
C260 C258 1.478 . S
C260 C262 1.381 . S
C260 C266 1.383 . S
C261 C257 1.495 . S
C261 H267 0.959 . S
C261 H268 0.961 . S
C261 H269 0.960 . S
C262 C260 1.381 . S
C262 C263 1.394 . S
C262 H270 0.930 . S
C263 C262 1.394 . S
C263 C264 1.383 . S
C263 H271 0.929 . S
C264 C263 1.383 . S
C264 C265 1.377 . S
C265 H249 0.930 . S
C265 C264 1.377 . S
C265 C266 1.379 . S
C266 H250 0.931 . S
C266 C260 1.383 . S
C266 C265 1.379 . S
H267 C261 0.959 . S
H268 C261 0.961 . S
H269 C261 0.960 . S
H270 C262 0.930 . S
H271 C263 0.929 . S
H272 C280 0.929 . S
H273 C282 0.930 . S
H274 C284 0.930 . S
H275 C287 0.929 . S
H276 C290 0.930 . S
H277 C292 0.960 . S
H278 C292 0.960 . S
H279 C292 0.960 . S
C280 H272 0.929 . S
C280 C281 1.377 . S
C280 C282 1.384 . S
C281 C280 1.377 . S
C281 C287 1.390 . S
C282 H273 0.930 . S
C282 C280 1.384 . S
C282 C283 1.372 . S
C283 C282 1.372 . S
C283 C284 1.400 . S
C283 C288 1.490 . S
C284 H274 0.930 . S
C284 C283 1.400 . S
C284 C287 1.386 . S
H285 C301 0.930 . S
H286 C302 0.931 . S
C287 H275 0.929 . S
C287 C281 1.390 . S
C287 C284 1.386 . S
C288 C283 1.490 . S
C288 C290 1.395 . S
C288 C291 1.403 . S
H289 C295 0.930 . S
C290 H276 0.930 . S
C290 C288 1.395 . S
C290 C293 1.403 . S
C291 C288 1.403 . S
C291 C292 1.524 . S
C291 C295 1.400 . S
C292 H277 0.960 . S
C292 H278 0.960 . S
C292 H279 0.960 . S
C292 C291 1.524 . S
C293 C290 1.403 . S
C293 C294 1.392 . S
C293 C297 1.495 . S
C294 C293 1.392 . S
C294 C295 1.385 . S
C294 C296 1.478 . S
C295 H289 0.930 . S
C295 C291 1.400 . S
C295 C294 1.385 . S
C296 C294 1.478 . S
C296 C298 1.381 . S
C296 C302 1.383 . S
C297 C293 1.495 . S
C297 H303 0.959 . S
C297 H304 0.961 . S
C297 H305 0.960 . S
C298 C296 1.381 . S
C298 C299 1.394 . S
C298 H306 0.930 . S
C299 C298 1.394 . S
C299 C300 1.383 . S
C299 H307 0.929 . S
C300 C299 1.383 . S
C300 C301 1.377 . S
C301 H285 0.930 . S
C301 C300 1.377 . S
C301 C302 1.379 . S
C302 H286 0.931 . S
C302 C296 1.383 . S
C302 C301 1.379 . S
H303 C297 0.959 . S
H304 C297 0.961 . S
H305 C297 0.960 . S
H306 C298 0.930 . S
H307 C299 0.929 . S
H308 C316 0.929 . S
H309 C318 0.930 . S
H310 C320 0.930 . S
H311 C323 0.929 . S
H312 C326 0.930 . S
H313 C328 0.960 . S
H314 C328 0.960 . S
H315 C328 0.960 . S
C316 H308 0.929 . S
C316 C317 1.377 . S
C316 C318 1.384 . S
C317 C316 1.377 . S
C317 C323 1.390 . S
C318 H309 0.930 . S
C318 C316 1.384 . S
C318 C319 1.372 . S
C319 C318 1.372 . S
C319 C320 1.400 . S
C319 C324 1.490 . S
C320 H310 0.930 . S
C320 C319 1.400 . S
C320 C323 1.386 . S
H321 C337 0.930 1_554 S
H322 C338 0.931 . S
C323 H311 0.929 . S
C323 C317 1.390 . S
C323 C320 1.386 . S
C324 C319 1.490 . S
C324 C326 1.395 . S
C324 C327 1.403 . S
H325 C331 0.930 . S
C326 H312 0.930 . S
C326 C324 1.395 . S
C326 C329 1.403 . S
C327 C324 1.403 . S
C327 C328 1.524 . S
C327 C331 1.400 . S
C328 H313 0.960 . S
C328 H314 0.960 . S
C328 H315 0.960 . S
C328 C327 1.524 . S
C329 C326 1.403 . S
C329 C330 1.392 . S
C329 C333 1.495 . S
C330 C329 1.392 . S
C330 C331 1.385 . S
C330 C332 1.478 . S
C331 H325 0.930 . S
C331 C327 1.400 . S
C331 C330 1.385 . S
C332 C330 1.478 . S
C332 C334 1.381 . S
C332 C338 1.383 . S
C333 C329 1.495 . S
C333 H339 0.959 . S
C333 H340 0.961 . S
C333 H341 0.960 . S
C334 C332 1.381 . S
C334 C335 1.394 . S
C334 H342 0.930 . S
C335 C334 1.394 . S
C335 C336 1.383 . S
C335 H343 0.929 . S
C336 C335 1.383 . S
C336 C337 1.377 . S
C337 H321 0.930 1_556 S
C337 C336 1.377 . S
C337 C338 1.379 . S
C338 H322 0.931 . S
C338 C332 1.383 . S
C338 C337 1.379 . S
H339 C333 0.959 . S
H340 C333 0.961 . S
H341 C333 0.960 . S
H342 C334 0.930 . S
H343 C335 0.929 . S
C65 C9 1.375 . S
C84 C31 1.386 . S
C101 C17 1.392 . S
C120 C51 1.371 . S
C137 C3 1.395 . S
C156 C37 1.378 . S
C173 C23 1.383 . S
C192 C45 1.391 . S
C209 C21 1.463 . S
C228 C7 1.440 . S
C245 C22 1.483 . S
C264 C36 1.478 . S
C281 C49 1.458 . S
C300 C35 1.466 . S
C317 C50 1.484 . S
C336 C8 1.483 . S
