# Generated by pormake.
# Topology ukf, (4)-cn, num edge types: 1
# Building blocks:
#     Node 0, Type 0, BuildingBlock: ESEHIV_clean_sbu_0, # of connection points: 4
#     Node 1, Type 0, BuildingBlock: ESEHIV_clean_sbu_0, # of connection points: 4
#     Node 2, Type 0, BuildingBlock: ESEHIV_clean_sbu_0, # of connection points: 4
#     Node 3, Type 0, BuildingBlock: ESEHIV_clean_sbu_0, # of connection points: 4
#     Node 4, Type 0, BuildingBlock: ESEHIV_clean_sbu_0, # of connection points: 4
#     Node 5, Type 0, BuildingBlock: ESEHIV_clean_sbu_0, # of connection points: 4
#     Node 6, Type 0, BuildingBlock: ESEHIV_clean_sbu_0, # of connection points: 4
#     Node 7, Type 0, BuildingBlock: ESEHIV_clean_sbu_0, # of connection points: 4
#     Node 8, Type 0, BuildingBlock: ESEHIV_clean_sbu_0, # of connection points: 4
#     Node 9, Type 0, BuildingBlock: ESEHIV_clean_sbu_0, # of connection points: 4
#     Node 10, Type 0, BuildingBlock: ESEHIV_clean_sbu_0, # of connection points: 4
#     Node 11, Type 0, BuildingBlock: ESEHIV_clean_sbu_0, # of connection points: 4
#     Edge 12, Type (0, 0), None
#     Edge 13, Type (0, 0), None
#     Edge 14, Type (0, 0), None
#     Edge 15, Type (0, 0), None
#     Edge 16, Type (0, 0), None
#     Edge 17, Type (0, 0), None
#     Edge 18, Type (0, 0), None
#     Edge 19, Type (0, 0), None
#     Edge 20, Type (0, 0), None
#     Edge 21, Type (0, 0), None
#     Edge 22, Type (0, 0), None
#     Edge 23, Type (0, 0), None
#     Edge 24, Type (0, 0), None
#     Edge 25, Type (0, 0), None
#     Edge 26, Type (0, 0), None
#     Edge 27, Type (0, 0), None
#     Edge 28, Type (0, 0), None
#     Edge 29, Type (0, 0), None
#     Edge 30, Type (0, 0), None
#     Edge 31, Type (0, 0), None
#     Edge 32, Type (0, 0), None
#     Edge 33, Type (0, 0), None
#     Edge 34, Type (0, 0), None
#     Edge 35, Type (0, 0), None
# Relax obj value: 0.071
# Max RMSD: 0.304
# Mean RMSD: 0.303
data_MOF--net-ukf--node1-ESEHIV_clean_sbu_0--edge1-none
_symmetry_space_group_name_H-M    P1
_symmetry_Int_Tables_number       1
_symmetry_cell_setting            triclinic
loop_
_symmetry_equiv_pos_as_xyz
'x, y, z'
_cell_length_a     18.573049
_cell_length_b     18.931313
_cell_length_c     32.608084
_cell_angle_alpha  91.6227
_cell_angle_beta   88.213359
_cell_angle_gamma 118.70378
loop_
_atom_site_label
_atom_site_type_symbol
_atom_site_fract_x
_atom_site_fract_y
_atom_site_fract_z
_atom_type_partial_charge
Cu0 Cu 0.51319 0.28114 0.07517 0.0
N1 N 0.42648 0.17938 0.06189 0.0
N2 N 0.34763 0.06654 0.02699 0.0
C3 C 0.40558 0.14451 0.02443 0.0
C4 C 0.3306 0.05134 0.0672 0.0
C5 C 0.37903 0.12148 0.08869 0.0
O6 O 0.61748 0.28648 0.05959 0.0
C7 C 0.53194 0.25642 0.15708 0.0
O8 O 0.55003 0.20237 0.14095 0.0
H9 H 0.43496 0.17419 0.99616 0.0
H10 H 0.38179 0.12876 0.1217 0.0
N11 N 0.50211 0.36346 0.05114 0.0
N12 N 0.53104 0.48827 0.03567 0.0
C13 C 0.56187 0.44008 0.0465 0.0
C14 C 0.43151 0.36351 0.04282 0.0
C15 C 0.44919 0.44093 0.03335 0.0
C16 C 0.6384 0.28049 0.02274 0.0
O17 O 0.58958 0.27286 0.99273 0.0
H18 H 0.62547 0.46093 0.05374 0.0
H19 H 0.37108 0.31182 0.04577 0.0
O20 O 0.51327 0.2976 0.13387 0.0
H21 H 0.28827 0.99349 0.08004 0.0
H22 H 0.40544 0.46131 0.02683 0.0
Cu23 Cu 0.27993 0.47599 0.40713 0.0
N24 N 0.17721 0.45861 0.38986 0.0
N25 N 0.07496 0.48501 0.37719 0.0
C26 C 0.15637 0.51642 0.38298 0.0
C27 C 1.04318 0.40456 0.38023 0.0
C28 C 0.10662 0.38846 0.38797 0.0
O29 O 0.28721 0.49627 0.46613 0.0
C30 C 0.38057 0.57457 0.34229 0.0
O31 O 0.33632 0.51278 0.3183 0.0
H32 H 0.19925 0.58019 0.38458 0.0
H33 H 0.10114 0.33009 0.3938 0.0
N34 N 0.29893 0.38775 0.39759 0.0
N35 N 0.33462 0.30045 0.36854 0.0
C36 C 0.30327 0.35057 0.36227 0.0
C37 C 0.32774 0.35905 0.42664 0.0
C38 C 0.35042 0.30573 0.40879 0.0
C39 C 0.27745 0.55207 0.4836 0.0
O40 O 0.26102 0.59936 0.46159 0.0
H41 H 0.28915 0.36364 0.33244 0.0
H42 H 0.33636 0.37937 0.45832 0.0
O43 O 0.36566 0.57068 0.38072 0.0
H44 H 0.97872 0.36091 0.37854 0.0
H45 H 0.37947 0.27592 0.42374 0.0
Cu46 Cu 0.81221 0.29259 0.75037 0.0
N47 N 0.92023 0.31507 0.73673 0.0
N48 N 1.03695 0.35409 0.70046 0.0
C49 C 0.95422 0.31954 0.69901 0.0
C50 C 1.05615 0.372 0.74021 0.0
C51 C 0.98405 0.34794 0.76248 0.0
O52 O 0.79353 0.37275 0.72437 0.0
C53 C 0.82133 0.2703 0.83515 0.0
O54 O 0.84577 0.21854 0.82269 0.0
H55 H 0.91981 0.30308 0.671 0.0
H56 H 0.97915 0.35869 0.79491 0.0
N57 N 0.73252 0.18796 0.73542 0.0
N58 N 0.60934 0.08215 0.72395 0.0
C59 C 0.65246 0.16302 0.72869 0.0
C60 C 0.73984 0.12046 0.73482 0.0
C61 C 0.66367 0.05481 0.7278 0.0
C62 C 0.78538 0.37361 0.68591 0.0
O63 O 0.78397 0.31542 0.66248 0.0
H64 H 0.62595 0.20296 0.72913 0.0
H65 H 0.79609 0.11889 0.7406 0.0
O66 O 0.80319 0.30743 0.809 0.0
H67 H 0.11769 0.40328 0.75205 0.0
H68 H 0.64922 0.9922 0.72643 0.0
Cu69 Cu 0.59481 0.7935 0.05288 0.0
N70 N 0.69701 0.88563 0.05161 0.0
N71 N 0.79395 1.01032 0.03766 0.0
C72 C 0.71477 0.95476 0.03285 0.0
C73 C 0.8276 0.97559 0.06026 0.0
C74 C 0.76713 0.89844 0.0691 0.0
O75 O 0.52984 0.80821 0.01218 0.0
C76 C 0.5723 0.75916 0.13682 0.0
O77 O 0.62775 0.7361 0.12908 0.0
H78 H 0.67085 0.9636 0.01572 0.0
H79 H 0.77378 0.85468 0.08694 0.0
N80 N 0.6047 0.70164 0.03973 0.0
N81 N 0.57449 0.57294 0.03322 0.0
C82 C 0.54474 0.62442 0.04141 0.0
C83 C 0.67407 0.69831 0.02983 0.0
C84 C 0.65566 0.61864 0.02607 0.0
C85 C 0.45239 0.77798 0.01472 0.0
O86 O 0.41171 0.73209 0.0458 0.0
H87 H 0.48168 0.60652 0.05013 0.0
H88 H 0.73423 0.75014 0.02652 0.0
O89 O 0.54746 0.78494 0.10776 0.0
H90 H 0.89077 1.00385 0.06983 0.0
H91 H 0.69841 0.59609 0.01924 0.0
Cu92 Cu 0.82768 0.54761 0.40287 0.0
N93 N 0.92894 0.55879 0.38399 0.0
N94 N 1.0306 0.52812 0.37492 0.0
C95 C 0.94983 0.49962 0.38335 0.0
C96 C 0.06199 0.60808 0.36981 0.0
C97 C 0.99887 0.62682 0.37539 0.0
O98 O 0.82387 0.54201 0.46189 0.0
C99 C 0.7235 0.42861 0.34613 0.0
O100 O 0.7677 0.48009 0.31762 0.0
H101 H 0.90767 0.43798 0.39132 0.0
H102 H 1.00437 0.68635 0.37529 0.0
N103 N 0.8078 0.63284 0.39026 0.0
N104 N 0.76974 0.71239 0.35878 0.0
C105 C 0.80095 0.66114 0.3538 0.0
C106 C 0.7802 0.66792 0.41859 0.0
C107 C 0.75593 0.71646 0.39924 0.0
C108 C 0.8165 0.48103 0.48075 0.0
O109 O 0.81408 0.41942 0.46011 0.0
H110 H 0.81289 0.64062 0.32436 0.0
H111 H 0.77347 0.65514 0.45102 0.0
O112 O 0.73963 0.44669 0.38369 0.0
H113 H 0.12608 0.65024 0.36409 0.0
H114 H 0.72744 0.74951 0.41341 0.0
Cu115 Cu 0.30519 0.83132 0.73247 0.0
N116 N 0.21 0.81859 0.70746 0.0
N117 N 0.09606 0.76468 0.67072 0.0
C118 C 0.1713 0.77179 0.67481 0.0
C119 C 0.08599 0.80781 0.70164 0.0
C120 C 0.15684 0.84137 0.72425 0.0
O121 O 0.32533 0.74301 0.71551 0.0
C122 C 0.31166 0.80659 0.81895 0.0
O123 O 0.37332 0.79254 0.8107 0.0
H124 H 0.19497 0.7393 0.65607 0.0
H125 H 0.16728 0.87655 0.7523 0.0
N126 N 0.39589 0.93206 0.72119 0.0
N127 N 0.52357 0.03534 0.71903 0.0
C128 C 0.47619 0.95612 0.72687 0.0
C129 C 0.39304 0.99826 0.70931 0.0
C130 C 0.47181 0.06227 0.70802 0.0
C131 C 0.34124 0.73259 0.67831 0.0
O132 O 0.35004 0.7856 0.65077 0.0
H133 H 0.49881 0.91721 0.73792 0.0
H134 H 0.33717 1.00023 0.70309 0.0
O135 O 0.27855 0.82463 0.79047 0.0
H136 H 1.03115 0.81304 0.70786 0.0
H137 H 0.48941 0.12368 0.70017 0.0
Cu138 Cu 0.81121 0.55014 0.60358 0.0
N139 N 0.73184 0.57841 0.62174 0.0
N140 N 0.60702 0.56537 0.63331 0.0
C141 C 0.6512 0.52647 0.62696 0.0
C142 C 0.6613 0.64463 0.63208 0.0
C143 C 0.73863 0.65248 0.62501 0.0
O144 O 0.80319 0.53534 0.54479 0.0
C145 C 0.78748 0.44428 0.66746 0.0
O146 O 0.79323 0.50433 0.69085 0.0
H147 H 0.6251 0.46183 0.62356 0.0
H148 H 0.79517 0.70808 0.62046 0.0
N149 N 0.91949 0.62932 0.61303 0.0
N150 N 1.03773 0.71666 0.64138 0.0
C151 C 0.9552 0.6753 0.64649 0.0
C152 C 0.98169 0.64289 0.58643 0.0
C153 C 1.05481 0.69644 0.60389 0.0
C154 C 0.81303 0.48117 0.52559 0.0
O155 O 0.82448 0.42856 0.54585 0.0
H156 H 0.92226 0.67525 0.67446 0.0
H157 H 0.97448 0.61319 0.55685 0.0
O158 O 0.7921 0.45114 0.62874 0.0
H159 H 0.64597 0.69298 0.6347 0.0
H160 H 0.11569 0.71746 0.59061 0.0
Cu161 Cu 0.27214 0.79296 0.9467 0.0
N162 N 0.28586 0.89575 0.95924 0.0
N163 N 0.31964 1.00961 0.99449 0.0
C164 C 0.2961 0.93037 0.99682 0.0
C165 C 0.32461 1.02594 0.9543 0.0
C166 C 0.30365 0.95546 0.93259 0.0
O167 O 0.33195 0.76774 0.98606 0.0
C168 C 0.27912 0.80162 0.86095 0.0
O169 O 0.21353 0.81004 0.86727 0.0
H170 H 0.29243 0.89963 0.02492 0.0
H171 H 0.30659 0.94981 0.89963 0.0
N172 N 0.16263 0.71297 0.95121 0.0
N173 N 1.05698 0.59215 0.96393 0.0
C174 C 0.13797 0.64094 0.96839 0.0
C175 C 0.09427 0.70955 0.93594 0.0
C176 C 1.0286 0.63414 0.94344 0.0
C177 C 0.40926 0.79678 0.9835 0.0
O178 O 0.45064 0.84533 0.95339 0.0
H179 H 0.17903 0.62367 0.98253 0.0
H180 H 0.09236 0.75783 0.91994 0.0
O181 O 0.31453 0.79193 0.89136 0.0
H182 H 0.34553 0.08498 0.94159 0.0
H183 H 0.96554 0.61203 0.9347 0.0
Cu184 Cu 0.54126 0.22942 0.28363 0.0
N185 N 0.44304 0.22628 0.30285 0.0
N186 N 0.36075 0.26247 0.33829 0.0
C187 C 0.43072 0.25733 0.33849 0.0
C188 C 0.32706 0.23381 0.30152 0.0
C189 C 0.37778 0.21086 0.2798 0.0
O190 O 0.63301 0.33279 0.29815 0.0
C191 C 0.53196 0.26787 0.20163 0.0
O192 O 0.52334 0.3277 0.2179 0.0
H193 H 0.47463 0.28132 0.36282 0.0
H194 H 0.37027 0.18931 0.24832 0.0
N195 N 0.55835 0.14629 0.30276 0.0
N196 N 0.55296 1.02596 0.30316 0.0
C197 C 0.51295 0.06704 0.2941 0.0
C198 C 0.62926 0.1549 0.31756 0.0
C199 C 0.62602 0.08059 0.31798 0.0
C200 C 0.65522 0.34994 0.33516 0.0
O201 O 0.61663 0.29666 0.36385 0.0
H202 H 0.45506 0.04139 0.27845 0.0
H203 H 0.68231 0.21198 0.32459 0.0
O204 O 0.53991 0.21917 0.2246 0.0
H205 H 0.27185 0.23238 0.29074 0.0
H206 H 0.67474 0.06838 0.32656 0.0
Cu207 Cu 0.30831 0.52819 0.60921 0.0
N208 N 0.39383 0.51114 0.62641 0.0
N209 N 0.52053 0.53 0.63528 0.0
C210 C 0.47475 0.56445 0.62504 0.0
C211 C 0.46706 0.45247 0.64342 0.0
C212 C 0.38868 0.44109 0.63803 0.0
O213 O 0.30685 0.52269 0.54955 0.0
C214 C 0.33888 0.65661 0.66537 0.0
O215 O 0.34171 0.60868 0.69284 0.0
H216 H 0.49944 0.62581 0.61485 0.0
H217 H 0.33199 0.38501 0.64091 0.0
N218 N 0.20548 0.44798 0.62819 0.0
N219 N 0.09276 0.37767 0.66674 0.0
C220 C 0.17183 0.43666 0.66634 0.0
C221 C 0.14551 0.394 0.60407 0.0
C222 C 0.07566 0.35061 0.62775 0.0
C223 C 0.28232 0.56227 0.52846 0.0
O224 O 0.25934 0.61089 0.54698 0.0
H225 H 0.20324 0.47287 0.69279 0.0
H226 H 0.15146 0.38841 0.57119 0.0
O227 O 0.32623 0.6337 0.628 0.0
H228 H 0.48344 0.40713 0.65166 0.0
H229 H 1.01683 0.3042 0.6171 0.0
Cu230 Cu 0.84108 0.278 0.96335 0.0
N231 N 0.85657 0.20081 0.99045 0.0
N232 N 0.83436 0.0883 0.02113 0.0
C233 C 0.79935 0.12915 1.00504 0.0
C234 C 0.91605 0.13513 0.01646 0.0
C235 C 0.9295 0.20436 0.99718 0.0
O236 O 0.73529 0.26989 0.97737 0.0
C237 C 0.81747 0.28728 0.87908 0.0
O238 O 0.78518 0.33257 0.89177 0.0
H239 H 0.73392 0.10739 1.00354 0.0
H240 H 0.98844 0.25344 0.988 0.0
N241 N 0.92378 0.38083 0.9779 0.0
N242 N 1.01206 0.51202 0.97711 0.0
C243 C 0.94835 0.45062 0.95816 0.0
C244 C 0.97305 0.39973 0.0105 0.0
C245 C 1.02844 0.48076 0.00981 0.0
C246 C 0.71733 0.28265 0.01375 0.0
O247 O 0.76999 0.29856 0.04313 0.0
H248 H 0.92193 0.45592 0.93007 0.0
H249 H 0.96937 0.35738 0.0331 0.0
O250 O 0.8462 0.25891 0.90495 0.0
H251 H 0.96231 0.11957 0.02524 0.0
H252 H 0.07669 0.51409 0.03148 0.0
Cu253 Cu 0.56004 0.74965 0.26683 0.0
N254 N 0.65878 0.76804 0.29023 0.0
N255 N 0.74288 0.74407 0.32778 0.0
C256 C 0.66886 0.74085 0.32628 0.0
C257 C 0.78132 0.77388 0.29178 0.0
C258 C 0.72931 0.78916 0.26871 0.0
O259 O 0.47194 0.64988 0.28808 0.0
C260 C 0.54506 0.76136 0.1794 0.0
O261 O 0.49587 0.79162 0.18817 0.0
H262 H 0.62094 0.71279 0.34937 0.0
H263 H 0.73961 0.80836 0.23715 0.0
N264 N 0.5303 0.82998 0.27843 0.0
N265 N 0.52762 0.94425 0.2938 0.0
C266 C 0.57537 0.90843 0.28913 0.0
C267 C 0.45229 0.81663 0.27675 0.0
C268 C 0.45041 0.88707 0.286 0.0
C269 C 0.44701 0.64855 0.32499 0.0
O270 O 0.48155 0.71414 0.34793 0.0
H271 H 0.64127 0.93859 0.29262 0.0
H272 H 0.40027 0.75927 0.26889 0.0
O273 O 0.57465 0.73932 0.20798 0.0
H274 H 0.84073 0.78081 0.28236 0.0
H275 H 0.3968 0.8956 0.28692 0.0
loop_
_geom_bond_atom_site_label_1
_geom_bond_atom_site_label_2
_geom_bond_distance
_geom_bond_site_symmetry_2
_ccdc_geom_bond_type
Cu0 N1 1.999 . S
Cu0 O6 1.974 . S
Cu0 N11 1.985 . S
Cu0 O20 1.959 . S
N1 Cu0 1.999 . S
N1 C3 1.263 . S
N1 C5 1.389 . S
N2 C3 1.358 . S
N2 C4 1.400 . S
C3 N1 1.263 . S
C3 N2 1.358 . S
C3 H9 0.930 . S
C4 N2 1.400 . S
C4 C5 1.351 . S
C4 H21 0.930 1_545 S
C5 N1 1.389 . S
C5 C4 1.351 . S
C5 H10 0.930 . S
O6 Cu0 1.974 . S
O6 C16 1.282 1_554 S
C7 O8 1.261 . S
C7 O20 1.251 . S
O8 C7 1.261 . S
H9 C3 0.930 . S
H10 C5 0.930 . S
N11 Cu0 1.985 . S
N11 C13 1.335 . S
N11 C14 1.390 . S
N12 C13 1.345 . S
N12 C15 1.336 . S
C13 N11 1.335 . S
C13 N12 1.345 . S
C13 H18 0.930 . S
C14 N11 1.390 . S
C14 C15 1.346 . S
C14 H19 0.930 . S
C15 N12 1.336 . S
C15 C14 1.346 . S
C15 H22 0.929 . S
C16 O6 1.282 1_556 S
C16 O17 1.216 1_556 S
O17 C16 1.216 1_554 S
H18 C13 0.930 . S
H19 C14 0.930 . S
O20 Cu0 1.959 . S
O20 C7 1.251 . S
H21 C4 0.930 1_565 S
H22 C15 0.929 . S
Cu23 N24 1.999 . S
Cu23 O29 1.974 . S
Cu23 N34 1.985 . S
Cu23 O43 1.959 . S
N24 Cu23 1.999 . S
N24 C26 1.263 . S
N24 C28 1.389 . S
N25 C26 1.358 . S
N25 C27 1.400 . S
C26 N24 1.263 . S
C26 N25 1.358 . S
C26 H32 0.930 . S
C27 N25 1.400 . S
C27 C28 1.351 . S
C27 H44 0.930 . S
C28 N24 1.389 . S
C28 C27 1.351 . S
C28 H33 0.930 . S
O29 Cu23 1.974 . S
O29 C39 1.282 . S
C30 O31 1.261 . S
C30 O43 1.251 . S
O31 C30 1.261 . S
H32 C26 0.930 . S
H33 C28 0.930 . S
N34 Cu23 1.985 . S
N34 C36 1.335 . S
N34 C37 1.390 . S
N35 C36 1.345 . S
N35 C38 1.336 . S
C36 N34 1.335 . S
C36 N35 1.345 . S
C36 H41 0.930 . S
C37 N34 1.390 . S
C37 C38 1.346 . S
C37 H42 0.930 . S
C38 N35 1.336 . S
C38 C37 1.346 . S
C38 H45 0.929 . S
C39 O29 1.282 . S
C39 O40 1.216 . S
O40 C39 1.216 . S
H41 C36 0.930 . S
H42 C37 0.930 . S
O43 Cu23 1.959 . S
O43 C30 1.251 . S
H44 C27 0.930 . S
H45 C38 0.929 . S
Cu46 N47 1.999 . S
Cu46 O52 1.974 . S
Cu46 N57 1.985 . S
Cu46 O66 1.959 . S
N47 Cu46 1.999 . S
N47 C49 1.263 . S
N47 C51 1.389 . S
N48 C49 1.358 . S
N48 C50 1.400 . S
C49 N47 1.263 . S
C49 N48 1.358 . S
C49 H55 0.930 . S
C50 N48 1.400 . S
C50 C51 1.351 . S
C50 H67 0.930 1_655 S
C51 N47 1.389 . S
C51 C50 1.351 . S
C51 H56 0.930 . S
O52 Cu46 1.974 . S
O52 C62 1.282 . S
C53 O54 1.261 . S
C53 O66 1.251 . S
O54 C53 1.261 . S
H55 C49 0.930 . S
H56 C51 0.930 . S
N57 Cu46 1.985 . S
N57 C59 1.335 . S
N57 C60 1.390 . S
N58 C59 1.345 . S
N58 C61 1.336 . S
C59 N57 1.335 . S
C59 N58 1.345 . S
C59 H64 0.930 . S
C60 N57 1.390 . S
C60 C61 1.346 . S
C60 H65 0.930 . S
C61 N58 1.336 . S
C61 C60 1.346 . S
C61 H68 0.929 . S
C62 O52 1.282 . S
C62 O63 1.216 . S
O63 C62 1.216 . S
H64 C59 0.930 . S
H65 C60 0.930 . S
O66 Cu46 1.959 . S
O66 C53 1.251 . S
H67 C50 0.930 1_455 S
H68 C61 0.929 . S
Cu69 N70 1.999 . S
Cu69 O75 1.974 . S
Cu69 N80 1.985 . S
Cu69 O89 1.959 . S
N70 Cu69 1.999 . S
N70 C72 1.263 . S
N70 C74 1.389 . S
N71 C72 1.358 . S
N71 C73 1.400 . S
C72 N70 1.263 . S
C72 N71 1.358 . S
C72 H78 0.930 . S
C73 N71 1.400 . S
C73 C74 1.351 . S
C73 H90 0.930 1_565 S
C74 N70 1.389 . S
C74 C73 1.351 . S
C74 H79 0.930 . S
O75 Cu69 1.974 . S
O75 C85 1.282 1_554 S
C76 O77 1.261 . S
C76 O89 1.251 . S
O77 C76 1.261 . S
H78 C72 0.930 . S
H79 C74 0.930 . S
N80 Cu69 1.985 . S
N80 C82 1.335 . S
N80 C83 1.390 . S
N81 C82 1.345 . S
N81 C84 1.336 . S
C82 N80 1.335 . S
C82 N81 1.345 . S
C82 H87 0.930 . S
C83 N80 1.390 . S
C83 C84 1.346 . S
C83 H88 0.930 . S
C84 N81 1.336 . S
C84 C83 1.346 . S
C84 H91 0.929 . S
C85 O75 1.282 1_556 S
C85 O86 1.216 1_556 S
O86 C85 1.216 1_554 S
H87 C82 0.930 . S
H88 C83 0.930 . S
O89 Cu69 1.959 . S
O89 C76 1.251 . S
H90 C73 0.930 1_545 S
H91 C84 0.929 . S
Cu92 N93 1.999 . S
Cu92 O98 1.974 . S
Cu92 N103 1.985 . S
Cu92 O112 1.959 . S
N93 Cu92 1.999 . S
N93 C95 1.263 . S
N93 C97 1.389 . S
N94 C95 1.358 . S
N94 C96 1.400 . S
C95 N93 1.263 . S
C95 N94 1.358 . S
C95 H101 0.930 . S
C96 N94 1.400 . S
C96 C97 1.351 . S
C96 H113 0.930 . S
C97 N93 1.389 . S
C97 C96 1.351 . S
C97 H102 0.930 . S
O98 Cu92 1.974 . S
O98 C108 1.282 . S
C99 O100 1.261 . S
C99 O112 1.251 . S
O100 C99 1.261 . S
H101 C95 0.930 . S
H102 C97 0.930 . S
N103 Cu92 1.985 . S
N103 C105 1.335 . S
N103 C106 1.390 . S
N104 C105 1.345 . S
N104 C107 1.336 . S
C105 N103 1.335 . S
C105 N104 1.345 . S
C105 H110 0.930 . S
C106 N103 1.390 . S
C106 C107 1.346 . S
C106 H111 0.930 . S
C107 N104 1.336 . S
C107 C106 1.346 . S
C107 H114 0.929 . S
C108 O98 1.282 . S
C108 O109 1.216 . S
O109 C108 1.216 . S
H110 C105 0.930 . S
H111 C106 0.930 . S
O112 Cu92 1.959 . S
O112 C99 1.251 . S
H113 C96 0.930 . S
H114 C107 0.929 . S
Cu115 N116 1.999 . S
Cu115 O121 1.974 . S
Cu115 N126 1.985 . S
Cu115 O135 1.959 . S
N116 Cu115 1.999 . S
N116 C118 1.263 . S
N116 C120 1.389 . S
N117 C118 1.358 . S
N117 C119 1.400 . S
C118 N116 1.263 . S
C118 N117 1.358 . S
C118 H124 0.930 . S
C119 N117 1.400 . S
C119 C120 1.351 . S
C119 H136 0.930 1_455 S
C120 N116 1.389 . S
C120 C119 1.351 . S
C120 H125 0.930 . S
O121 Cu115 1.974 . S
O121 C131 1.282 . S
C122 O123 1.261 . S
C122 O135 1.251 . S
O123 C122 1.261 . S
H124 C118 0.930 . S
H125 C120 0.930 . S
N126 Cu115 1.985 . S
N126 C128 1.335 . S
N126 C129 1.390 . S
N127 C128 1.345 . S
N127 C130 1.336 . S
C128 N126 1.335 . S
C128 N127 1.345 . S
C128 H133 0.930 . S
C129 N126 1.390 . S
C129 C130 1.346 . S
C129 H134 0.930 . S
C130 N127 1.336 . S
C130 C129 1.346 . S
C130 H137 0.929 . S
C131 O121 1.282 . S
C131 O132 1.216 . S
O132 C131 1.216 . S
H133 C128 0.930 . S
H134 C129 0.930 . S
O135 Cu115 1.959 . S
O135 C122 1.251 . S
H136 C119 0.930 1_655 S
H137 C130 0.929 . S
Cu138 N139 1.999 . S
Cu138 O144 1.974 . S
Cu138 N149 1.985 . S
Cu138 O158 1.959 . S
N139 Cu138 1.999 . S
N139 C141 1.263 . S
N139 C143 1.389 . S
N140 C141 1.358 . S
N140 C142 1.400 . S
C141 N139 1.263 . S
C141 N140 1.358 . S
C141 H147 0.930 . S
C142 N140 1.400 . S
C142 C143 1.351 . S
C142 H159 0.930 . S
C143 N139 1.389 . S
C143 C142 1.351 . S
C143 H148 0.930 . S
O144 Cu138 1.974 . S
O144 C154 1.282 . S
C145 O146 1.261 . S
C145 O158 1.251 . S
O146 C145 1.261 . S
H147 C141 0.930 . S
H148 C143 0.930 . S
N149 Cu138 1.985 . S
N149 C151 1.335 . S
N149 C152 1.390 . S
N150 C151 1.345 . S
N150 C153 1.336 . S
C151 N149 1.335 . S
C151 N150 1.345 . S
C151 H156 0.930 . S
C152 N149 1.390 . S
C152 C153 1.346 . S
C152 H157 0.930 . S
C153 N150 1.336 . S
C153 C152 1.346 . S
C153 H160 0.929 1_655 S
C154 O144 1.282 . S
C154 O155 1.216 . S
O155 C154 1.216 . S
H156 C151 0.930 . S
H157 C152 0.930 . S
O158 Cu138 1.959 . S
O158 C145 1.251 . S
H159 C142 0.930 . S
H160 C153 0.929 1_455 S
Cu161 N162 1.999 . S
Cu161 O167 1.974 . S
Cu161 N172 1.985 . S
Cu161 O181 1.959 . S
N162 Cu161 1.999 . S
N162 C164 1.263 . S
N162 C166 1.389 . S
N163 C164 1.358 . S
N163 C165 1.400 . S
C164 N162 1.263 . S
C164 N163 1.358 . S
C164 H170 0.930 . S
C165 N163 1.400 . S
C165 C166 1.351 . S
C165 H182 0.930 1_565 S
C166 N162 1.389 . S
C166 C165 1.351 . S
C166 H171 0.930 . S
O167 Cu161 1.974 . S
O167 C177 1.282 1_556 S
C168 O169 1.261 . S
C168 O181 1.251 . S
O169 C168 1.261 . S
H170 C164 0.930 . S
H171 C166 0.930 . S
N172 Cu161 1.985 . S
N172 C174 1.335 . S
N172 C175 1.390 . S
N173 C174 1.345 . S
N173 C176 1.336 . S
C174 N172 1.335 . S
C174 N173 1.345 . S
C174 H179 0.930 . S
C175 N172 1.390 . S
C175 C176 1.346 . S
C175 H180 0.930 . S
C176 N173 1.336 . S
C176 C175 1.346 . S
C176 H183 0.929 . S
C177 O167 1.282 1_554 S
C177 O178 1.216 1_554 S
O178 C177 1.216 1_556 S
H179 C174 0.930 . S
H180 C175 0.930 . S
O181 Cu161 1.959 . S
O181 C168 1.251 . S
H182 C165 0.930 1_545 S
H183 C176 0.929 . S
Cu184 N185 1.999 . S
Cu184 O190 1.974 . S
Cu184 N195 1.985 . S
Cu184 O204 1.959 . S
N185 Cu184 1.999 . S
N185 C187 1.263 . S
N185 C189 1.389 . S
N186 C187 1.358 . S
N186 C188 1.400 . S
C187 N185 1.263 . S
C187 N186 1.358 . S
C187 H193 0.930 . S
C188 N186 1.400 . S
C188 C189 1.351 . S
C188 H205 0.930 . S
C189 N185 1.389 . S
C189 C188 1.351 . S
C189 H194 0.930 . S
O190 Cu184 1.974 . S
O190 C200 1.282 . S
C191 O192 1.261 . S
C191 O204 1.251 . S
O192 C191 1.261 . S
H193 C187 0.930 . S
H194 C189 0.930 . S
N195 Cu184 1.985 . S
N195 C197 1.335 . S
N195 C198 1.390 . S
N196 C197 1.345 . S
N196 C199 1.336 . S
C197 N195 1.335 . S
C197 N196 1.345 . S
C197 H202 0.930 . S
C198 N195 1.390 . S
C198 C199 1.346 . S
C198 H203 0.930 . S
C199 N196 1.336 . S
C199 C198 1.346 . S
C199 H206 0.929 . S
C200 O190 1.282 . S
C200 O201 1.216 . S
O201 C200 1.216 . S
H202 C197 0.930 . S
H203 C198 0.930 . S
O204 Cu184 1.959 . S
O204 C191 1.251 . S
H205 C188 0.930 . S
H206 C199 0.929 . S
Cu207 N208 1.999 . S
Cu207 O213 1.974 . S
Cu207 N218 1.985 . S
Cu207 O227 1.959 . S
N208 Cu207 1.999 . S
N208 C210 1.263 . S
N208 C212 1.389 . S
N209 C210 1.358 . S
N209 C211 1.400 . S
C210 N208 1.263 . S
C210 N209 1.358 . S
C210 H216 0.930 . S
C211 N209 1.400 . S
C211 C212 1.351 . S
C211 H228 0.930 . S
C212 N208 1.389 . S
C212 C211 1.351 . S
C212 H217 0.930 . S
O213 Cu207 1.974 . S
O213 C223 1.282 . S
C214 O215 1.261 . S
C214 O227 1.251 . S
O215 C214 1.261 . S
H216 C210 0.930 . S
H217 C212 0.930 . S
N218 Cu207 1.985 . S
N218 C220 1.335 . S
N218 C221 1.390 . S
N219 C220 1.345 . S
N219 C222 1.336 . S
C220 N218 1.335 . S
C220 N219 1.345 . S
C220 H225 0.930 . S
C221 N218 1.390 . S
C221 C222 1.346 . S
C221 H226 0.930 . S
C222 N219 1.336 . S
C222 C221 1.346 . S
C222 H229 0.929 1_455 S
C223 O213 1.282 . S
C223 O224 1.216 . S
O224 C223 1.216 . S
H225 C220 0.930 . S
H226 C221 0.930 . S
O227 Cu207 1.959 . S
O227 C214 1.251 . S
H228 C211 0.930 . S
H229 C222 0.929 1_655 S
Cu230 N231 1.999 . S
Cu230 O236 1.974 . S
Cu230 N241 1.985 . S
Cu230 O250 1.959 . S
N231 Cu230 1.999 . S
N231 C233 1.263 . S
N231 C235 1.389 . S
N232 C233 1.358 . S
N232 C234 1.400 . S
C233 N231 1.263 . S
C233 N232 1.358 . S
C233 H239 0.930 . S
C234 N232 1.400 . S
C234 C235 1.351 . S
C234 H251 0.930 1_545 S
C235 N231 1.389 . S
C235 C234 1.351 . S
C235 H240 0.930 . S
O236 Cu230 1.974 . S
O236 C246 1.282 1_556 S
C237 O238 1.261 . S
C237 O250 1.251 . S
O238 C237 1.261 . S
H239 C233 0.930 . S
H240 C235 0.930 . S
N241 Cu230 1.985 . S
N241 C243 1.335 . S
N241 C244 1.390 . S
N242 C243 1.345 . S
N242 C245 1.336 . S
C243 N241 1.335 . S
C243 N242 1.345 . S
C243 H248 0.930 . S
C244 N241 1.390 . S
C244 C245 1.346 . S
C244 H249 0.930 . S
C245 N242 1.336 . S
C245 C244 1.346 . S
C245 H252 0.929 . S
C246 O236 1.282 1_554 S
C246 O247 1.216 1_554 S
O247 C246 1.216 1_556 S
H248 C243 0.930 . S
H249 C244 0.930 . S
O250 Cu230 1.959 . S
O250 C237 1.251 . S
H251 C234 0.930 1_565 S
H252 C245 0.929 . S
Cu253 N254 1.999 . S
Cu253 O259 1.974 . S
Cu253 N264 1.985 . S
Cu253 O273 1.959 . S
N254 Cu253 1.999 . S
N254 C256 1.263 . S
N254 C258 1.389 . S
N255 C256 1.358 . S
N255 C257 1.400 . S
C256 N254 1.263 . S
C256 N255 1.358 . S
C256 H262 0.930 . S
C257 N255 1.400 . S
C257 C258 1.351 . S
C257 H274 0.930 . S
C258 N254 1.389 . S
C258 C257 1.351 . S
C258 H263 0.930 . S
O259 Cu253 1.974 . S
O259 C269 1.282 . S
C260 O261 1.261 . S
C260 O273 1.251 . S
O261 C260 1.261 . S
H262 C256 0.930 . S
H263 C258 0.930 . S
N264 Cu253 1.985 . S
N264 C266 1.335 . S
N264 C267 1.390 . S
N265 C266 1.345 . S
N265 C268 1.336 . S
C266 N264 1.335 . S
C266 N265 1.345 . S
C266 H271 0.930 . S
C267 N264 1.390 . S
C267 C268 1.346 . S
C267 H272 0.930 . S
C268 N265 1.336 . S
C268 C267 1.346 . S
C268 H275 0.929 . S
C269 O259 1.282 . S
C269 O270 1.216 . S
O270 C269 1.216 . S
H271 C266 0.930 . S
H272 C267 0.930 . S
O273 Cu253 1.959 . S
O273 C260 1.251 . S
H274 C257 0.930 . S
H275 C268 0.929 . S
N163 N2 2.471 1_566 S
N35 N186 2.609 . S
N48 N219 2.609 1_655 S
N71 N232 2.471 1_564 S
N255 N104 2.609 . S
N150 N117 2.609 1_655 S
C246 C16 2.131 1_554 S
C30 C269 2.240 . S
C62 C145 2.240 . S
C177 C85 2.131 1_554 S
C200 C99 2.240 . S
C214 C131 2.240 . S
C7 C191 2.042 . S
C39 C223 1.930 . S
C237 C53 2.042 . S
C76 C260 2.042 . S
C154 C108 1.930 . S
C168 C122 2.042 . S
N81 N12 2.659 . S
N94 N25 2.241 1_655 S
N58 N127 2.747 1_545 S
N140 N209 2.242 . S
N173 N242 2.658 1_455 S
N265 N196 2.747 1_565 S
