# Generated by pormake.
# Topology sma, (6)-cn, num edge types: 1
# Building blocks:
#     Node 0, Type 0, BuildingBlock: UKALOJ_clean_sbu_0, # of connection points: 6
#     Node 1, Type 0, BuildingBlock: UKALOJ_clean_sbu_0, # of connection points: 6
#     Node 2, Type 0, BuildingBlock: UKALOJ_clean_sbu_0, # of connection points: 6
#     Edge 3, Type (0, 0), BuildingBlock: MIFKUJ_clean_linker_0, # of connection points: 2
#     Edge 4, Type (0, 0), BuildingBlock: MIFKUJ_clean_linker_0, # of connection points: 2
#     Edge 5, Type (0, 0), BuildingBlock: MIFKUJ_clean_linker_0, # of connection points: 2
#     Edge 6, Type (0, 0), BuildingBlock: MIFKUJ_clean_linker_0, # of connection points: 2
#     Edge 7, Type (0, 0), BuildingBlock: MIFKUJ_clean_linker_0, # of connection points: 2
#     Edge 8, Type (0, 0), BuildingBlock: MIFKUJ_clean_linker_0, # of connection points: 2
#     Edge 9, Type (0, 0), BuildingBlock: MIFKUJ_clean_linker_0, # of connection points: 2
#     Edge 10, Type (0, 0), BuildingBlock: MIFKUJ_clean_linker_0, # of connection points: 2
#     Edge 11, Type (0, 0), BuildingBlock: MIFKUJ_clean_linker_0, # of connection points: 2
# Relax obj value: 0.509
# Max RMSD: 0.333
# Mean RMSD: 0.333
data_MOF--net-sma--node1-UKALOJ_clean_sbu_0--edge1-MIFKUJ_clean_linker_0
_symmetry_space_group_name_H-M    P1
_symmetry_Int_Tables_number       1
_symmetry_cell_setting            triclinic
loop_
_symmetry_equiv_pos_as_xyz
'x, y, z'
_cell_length_a     35.237713
_cell_length_b     35.210549
_cell_length_c     22.582832
_cell_angle_alpha  89.680585
_cell_angle_beta   89.853519
_cell_angle_gamma 120.1736
loop_
_atom_site_label
_atom_site_type_symbol
_atom_site_fract_x
_atom_site_fract_y
_atom_site_fract_z
_atom_type_partial_charge
Zn0 Zn 1.01602 0.51936 0.10806 0.0
O1 O 0.0744 0.58672 0.10946 0.0
C2 C 0.08331 0.49289 0.10488 0.0
Zn3 Zn 0.02875 0.50696 0.19547 0.0
C4 C 0.08772 0.60057 0.16165 0.0
O5 O 0.071 0.574 0.20441 0.0
C6 C 0.95466 0.42594 0.15647 0.0
O7 O 0.9709 0.51425 0.22311 0.0
O8 O 0.97907 0.54515 0.13606 0.0
N9 N 0.04468 0.49869 0.27858 0.0
C10 C 0.05676 0.52541 0.32565 0.0
C11 C 0.06974 0.47382 0.34623 0.0
N12 N 0.05268 0.46661 0.29137 0.0
N13 N 0.07334 0.51097 0.36812 0.0
C14 C 0.0291 0.55092 0.97917 0.0
C15 C 0.96372 0.52186 0.94648 0.0
N16 N 1.00186 0.52786 0.02405 0.0
N17 N 0.9612 0.50994 0.00388 0.0
N18 N 1.00598 0.54832 0.93064 0.0
H19 H 0.09024 0.56053 0.01624 0.0
H20 H 0.09161 0.60922 0.98876 0.0
H21 H 0.09179 0.57031 0.93804 0.0
C22 C 0.07839 0.57368 0.98096 0.0
C23 C 0.05035 0.56427 0.33115 0.0
H24 H 0.08134 0.59464 0.3193 0.0
H25 H 0.04172 0.5674 0.37741 0.0
H26 H 0.02418 0.56134 0.30132 0.0
O27 O 0.98683 0.43983 0.19132 0.0
O28 O 0.95581 0.45191 0.11553 0.0
C29 C 0.95986 0.53447 0.18561 0.0
O30 O 0.05336 0.49337 0.07477 0.0
O31 O 0.08429 0.50005 0.16044 0.0
Zn32 Zn 0.51148 0.02253 0.53847 0.0
O33 O 0.58082 0.08097 0.54572 0.0
C34 C 0.50822 0.09462 0.48618 0.0
Zn35 Zn 0.53043 0.02384 0.45052 0.0
C36 C 0.6092 0.08592 0.50591 0.0
O37 O 0.59698 0.05832 0.46466 0.0
C38 C 0.43435 0.96485 0.46707 0.0
O39 O 0.53086 0.96105 0.46302 0.0
O40 O 0.53122 0.97728 0.55581 0.0
N41 N 0.54278 0.02505 0.36346 0.0
C42 C 0.52915 0.99144 0.32544 0.0
C43 C 0.56608 0.05078 0.27581 0.0
N44 N 0.56589 0.06196 0.33277 0.0
N45 N 0.54389 1.00674 0.27067 0.0
C46 C 0.51079 1.00818 0.67269 0.0
C47 C 0.45087 1.00497 0.69784 0.0
N48 N 0.49615 0.02012 0.62521 0.0
N49 N 0.45912 0.01848 0.641 0.0
N50 N 0.48252 0.99772 0.71837 0.0
H51 H 0.57727 0.03273 0.64241 0.0
H52 H 0.5487 0.976 0.66562 0.0
H53 H 0.56793 0.01821 0.72041 0.0
C54 C 0.55378 1.00905 0.67535 0.0
C55 C 0.49903 0.94369 0.34031 0.0
H56 H 0.47903 0.93887 0.38024 0.0
H57 H 0.51905 0.92787 0.34777 0.0
H58 H 0.47644 0.92655 0.30307 0.0
O59 O 0.46371 0.98991 0.43069 0.0
O60 O 0.44463 0.96701 0.52158 0.0
C61 C 0.53237 0.95202 0.51742 0.0
O62 O 0.4896 0.0661 0.5263 0.0
O63 O 0.53067 0.08819 0.44678 0.0
Zn64 Zn 0.51418 0.51189 0.8826 0.0
O65 O 0.50906 0.44667 0.87947 0.0
C66 C 0.60974 0.54265 0.8851 0.0
Zn67 Zn 0.54129 0.52828 0.79759 0.0
C68 C 0.50858 0.43438 0.82602 0.0
O69 O 0.51677 0.46152 0.78413 0.0
C70 C 0.54536 0.60618 0.84023 0.0
O71 O 0.47576 0.52081 0.77166 0.0
O72 O 0.45111 0.48325 0.85391 0.0
N73 N 0.56543 0.54047 0.71458 0.0
C74 C 0.561 0.56315 0.6697 0.0
C75 C 0.6089 0.54635 0.64333 0.0
N76 N 0.59521 0.5301 0.69828 0.0
N77 N 0.588 0.56733 0.62473 0.0
C78 C 0.5075 0.503 0.01844 0.0
C79 C 0.46121 0.52362 0.03497 0.0
N80 N 0.49015 0.50432 0.96605 0.0
N81 N 0.46052 0.51604 0.97661 0.0
N82 N 0.49075 0.51607 0.0623 0.0
H83 H 0.54844 0.47788 0.98564 0.0
H84 H 0.53233 0.46603 0.06215 0.0
H85 H 0.57311 0.5205 0.04174 0.0
C86 C 0.54256 0.49128 0.02669 0.0
C87 C 0.53238 0.5834 0.67101 0.0
H88 H 0.49999 0.55998 0.65186 0.0
H89 H 0.54741 0.61418 0.64441 0.0
H90 H 0.52678 0.59079 0.71647 0.0
O91 O 0.56713 0.5951 0.80747 0.0
O92 O 0.51812 0.57764 0.87693 0.0
C93 C 0.4435 0.4974 0.80669 0.0
O94 O 0.57867 0.5409 0.91558 0.0
O95 O 0.60357 0.53502 0.82977 0.0
H96 H 0.08266 0.47259 0.98881 0.0
H97 H 0.14028 0.47319 0.92987 0.0
H98 H 0.22187 0.50463 0.08463 0.0
H99 H 0.16363 0.50524 0.14471 0.0
H100 H 0.2714 0.55185 -0.00366 0.0
H101 H 0.16811 0.39879 0.01612 0.0
H102 H 0.09571 0.33116 0.01289 0.0
H103 H 0.08785 0.34952 0.82613 0.0
H104 H 0.16002 0.41751 0.82836 0.0
H105 H 0.36644 0.42517 0.83303 0.0
H106 H 0.30292 0.42508 0.87446 0.0
H107 H 0.35558 0.55973 0.81773 0.0
H108 H 0.42144 0.56056 0.77965 0.0
H109 H 0.23874 0.43151 0.85605 0.0
H110 H 0.32476 0.61419 0.91096 0.0
H111 H 0.39971 0.67769 0.92079 0.0
H112 H 0.44685 0.59169 0.97436 0.0
H113 H 0.37207 0.52763 0.96539 0.0
C114 C 0.11257 0.47922 0.01104 0.0
C115 C 0.11801 0.4885 0.07215 0.0
C116 C 0.14582 0.47952 0.97681 0.0
C117 C 0.1858 0.48852 0.00225 0.0
C118 C 0.19146 0.49752 0.0635 0.0
C119 C 0.15793 0.49741 0.09811 0.0
C120 C 0.22131 0.48894 0.96432 0.0
C121 C 0.2642 0.52533 0.96598 0.0
C122 C 0.21257 0.4546 0.92418 0.0
C123 C 0.16926 0.41354 0.92256 0.0
C124 C 0.1508 0.38857 0.97444 0.0
C125 C 0.10983 0.35013 0.97277 0.0
C126 C 0.08713 0.33613 0.91938 0.0
C127 C 0.10543 0.36045 0.86749 0.0
C128 C 0.14639 0.39893 0.86892 0.0
C129 C 0.36383 0.45435 0.82726 0.0
C130 C 0.39927 0.49289 0.80319 0.0
C131 C 0.32736 0.45444 0.85164 0.0
C132 C 0.32458 0.4929 0.85184 0.0
C133 C 0.35734 0.52997 0.8207 0.0
C134 C 0.39463 0.53016 0.79725 0.0
C135 C 0.28924 0.49407 0.88853 0.0
C136 C 0.24612 0.45806 0.88642 0.0
C137 C 0.2982 0.52804 0.92955 0.0
C138 C 0.34295 0.5662 0.93704 0.0
C139 C 0.35109 0.60889 0.9252 0.0
C140 C 0.39352 0.64492 0.93053 0.0
C141 C 0.42799 0.63866 0.94814 0.0
C142 C 0.42007 0.59638 0.96075 0.0
C143 C 0.3777 0.56022 0.95554 0.0
H144 H 0.46085 0.66657 0.95196 0.0
H145 H 0.05541 0.30636 0.91818 0.0
H146 H 0.69355 0.10217 0.49683 0.0
H147 H 0.7526 0.16138 0.43816 0.0
H148 H 0.67332 0.2218 0.4155 0.0
H149 H 0.61445 0.16228 0.47198 0.0
H150 H 0.7021 0.21316 0.31104 0.0
H151 H 0.77004 0.27137 0.49743 0.0
H152 H 0.79891 0.27021 0.59635 0.0
H153 H 0.8907 0.23837 0.51863 0.0
H154 H 0.86196 0.23875 0.41925 0.0
H155 H 0.86898 0.40784 0.15933 0.0
H156 H 0.80976 0.35137 0.22091 0.0
H157 H 0.89051 0.29449 0.2599 0.0
H158 H 0.94998 0.35183 0.2007 0.0
H159 H 0.86026 0.30304 0.35814 0.0
H160 H 0.79101 0.24279 0.17171 0.0
H161 H 0.76189 0.24367 0.07283 0.0
H162 H 0.67246 0.27884 0.15021 0.0
H163 H 0.70141 0.27867 0.24952 0.0
C164 C 0.68971 0.12939 0.48217 0.0
C165 C 0.6499 0.12858 0.49281 0.0
C166 C 0.72337 0.16309 0.44775 0.0
C167 C 0.7179 0.19665 0.42215 0.0
C168 C 0.67891 0.19682 0.43482 0.0
C169 C 0.64549 0.16329 0.4693 0.0
C170 C 0.75086 0.22925 0.37851 0.0
C171 C 0.73661 0.23325 0.32177 0.0
C172 C 0.79622 0.25498 0.39127 0.0
C173 C 0.81353 0.25465 0.45095 0.0
C174 C 0.79612 0.26374 0.50147 0.0
C175 C 0.81252 0.26331 0.55762 0.0
C176 C 0.84654 0.25411 0.56379 0.0
C177 C 0.86431 0.24543 0.51379 0.0
C178 C 0.848 0.24579 0.45754 0.0
C179 C 0.87344 0.38231 0.1792 0.0
C180 C 0.91422 0.38426 0.17439 0.0
C181 C 0.83953 0.34998 0.21499 0.0
C182 C 0.84523 0.31822 0.24595 0.0
C183 C 0.88495 0.31852 0.23748 0.0
C184 C 0.91887 0.35105 0.20262 0.0
C185 C 0.81169 0.28671 0.29018 0.0
C186 C 0.82579 0.28295 0.3472 0.0
C187 C 0.7662 0.26112 0.27758 0.0
C188 C 0.7487 0.26116 0.21796 0.0
C189 C 0.76536 0.25103 0.16758 0.0
C190 C 0.74884 0.25134 0.11147 0.0
C191 C 0.71544 0.26143 0.10522 0.0
C192 C 0.69838 0.2711 0.1551 0.0
C193 C 0.7148 0.27085 0.21132 0.0
H194 H 0.7027 0.26167 0.06174 0.0
H195 H 0.8592 0.2538 0.6073 0.0
H196 H 0.48481 0.90463 0.611 0.0
H197 H 0.48507 0.84341 0.66066 0.0
H198 H 0.57207 0.84283 0.52671 0.0
H199 H 0.57169 0.90512 0.47546 0.0
H200 H 0.49283 0.75064 0.58156 0.0
H201 H 0.63391 0.88276 0.63858 0.0
H202 H 0.67098 0.96289 0.65442 0.0
H203 H 0.57293 0.94399 0.78275 0.0
H204 H 0.53614 0.86365 0.76915 0.0
H205 H 0.61181 0.6793 0.78847 0.0
H206 H 0.6061 0.73568 0.73241 0.0
H207 H 0.47269 0.68216 0.79299 0.0
H208 H 0.47774 0.62429 0.84798 0.0
H209 H 0.57662 0.80039 0.76923 0.0
H210 H 0.43224 0.66428 0.7016 0.0
H211 H 0.3935 0.58701 0.66913 0.0
H212 H 0.49756 0.6158 0.54552 0.0
H213 H 0.53806 0.69248 0.5802 0.0
C214 C 0.50359 0.89123 0.59121 0.0
C215 C 0.52871 0.91026 0.53949 0.0
C216 C 0.50346 0.85593 0.61971 0.0
C217 C 0.52867 0.83849 0.5978 0.0
C218 C 0.55212 0.85561 0.5443 0.0
C219 C 0.55196 0.89119 0.51505 0.0
C220 C 0.53392 0.80644 0.6357 0.0
C221 C 0.51132 0.76152 0.62236 0.0
C222 C 0.55777 0.82025 0.68913 0.0
C223 C 0.58281 0.86744 0.70356 0.0
C224 C 0.62092 0.89576 0.67119 0.0
C225 C 0.64178 0.94114 0.67969 0.0
C226 C 0.62444 0.95848 0.71995 0.0
C227 C 0.58654 0.93042 0.75224 0.0
C228 C 0.56597 0.88498 0.74469 0.0
C229 C 0.58151 0.68008 0.79127 0.0
C230 C 0.54528 0.6472 0.82318 0.0
C231 C 0.57821 0.71223 0.75862 0.0
C232 C 0.53862 0.71257 0.75682 0.0
C233 C 0.50328 0.68193 0.79221 0.0
C234 C 0.50649 0.6494 0.82488 0.0
C235 C 0.53454 0.74405 0.71606 0.0
C236 C 0.55788 0.78922 0.72866 0.0
C237 C 0.5114 0.73031 0.66182 0.0
C238 C 0.48834 0.68376 0.64392 0.0
C239 C 0.44725 0.6538 0.66849 0.0
C240 C 0.42501 0.61012 0.64976 0.0
C241 C 0.44315 0.59642 0.60546 0.0
C242 C 0.48367 0.62631 0.5801 0.0
C243 C 0.50645 0.66974 0.59966 0.0
H244 H 0.42576 0.56269 0.59066 0.0
H245 H 0.64021 0.99366 0.72594 0.0
H246 H 0.67442 0.5247 0.84756 0.0
H247 H 0.73287 0.5258 0.90822 0.0
H248 H 0.68997 0.57116 0.05713 0.0
H249 H 0.63593 0.57497 -0.00438 0.0
H250 H 0.76767 0.60702 0.06904 0.0
H251 H 0.66471 0.4571 0.03212 0.0
H252 H 0.61872 0.3913 0.97242 0.0
H253 H 0.73425 0.40109 0.89316 0.0
H254 H 0.78093 0.4674 0.95173 0.0
H255 H 0.87422 0.47216 0.21103 0.0
H256 H 0.81027 0.47456 0.17247 0.0
H257 H 0.89495 0.61014 0.12132 0.0
H258 H 0.95741 0.60808 0.16215 0.0
H259 H 0.79114 0.4796 0.06817 0.0
H260 H 0.84725 0.66657 0.09157 0.0
H261 H 0.87853 0.72416 0.16769 0.0
H262 H 0.83234 0.62547 0.30447 0.0
H263 H 0.80037 0.5673 0.22925 0.0
C264 C 0.67834 0.53598 0.89285 0.0
C265 C 0.64968 0.54888 0.91689 0.0
C266 C 0.71134 0.53585 0.92806 0.0
C267 C 0.71566 0.54747 0.98853 0.0
C268 C 0.68804 0.56202 0.01121 0.0
C269 C 0.65632 0.56349 0.97585 0.0
C270 C 0.74826 0.54453 0.02888 0.0
C271 C 0.77259 0.57901 0.06861 0.0
C272 C 0.75413 0.50748 0.03085 0.0
C273 C 0.72628 0.46748 -0.00417 0.0
C274 C 0.68029 0.44537 0.00167 0.0
C275 C 0.6541 0.40798 0.96806 0.0
C276 C 0.67355 0.39209 0.9289 0.0
C277 C 0.71923 0.41349 0.92342 0.0
C278 C 0.74558 0.45098 0.95682 0.0
C279 C 0.87856 0.50312 0.1949 0.0
C280 C 0.92092 0.54012 0.19064 0.0
C281 C 0.84207 0.5043 0.17143 0.0
C282 C 0.84716 0.54253 0.14323 0.0
C283 C 0.88909 0.58036 0.14363 0.0
C284 C 0.92513 0.5793 0.1676 0.0
C285 C 0.81055 0.5422 0.10815 0.0
C286 C 0.78583 0.50737 0.069 0.0
C287 C 0.80222 0.57767 0.10925 0.0
C288 C 0.82186 0.61257 0.15467 0.0
C289 C 0.84371 0.65715 0.13788 0.0
C290 C 0.86158 0.6899 0.18088 0.0
C291 C 0.85757 0.67848 0.24086 0.0
C292 C 0.83562 0.63427 0.25798 0.0
C293 C 0.81774 0.6014 0.21517 0.0
H294 H 0.87139 0.70388 0.27407 0.0
H295 H 0.65322 0.36315 0.9029 0.0
H296 H 0.37855 0.87945 0.5051 0.0
H297 H 0.31836 0.82089 0.44777 0.0
H298 H 0.33631 0.91531 0.3121 0.0
H299 H 0.3952 0.97332 0.36919 0.0
H300 H 0.25332 0.86042 0.32233 0.0
H301 H 0.38145 0.84899 0.29987 0.0
H302 H 0.44428 0.84177 0.33239 0.0
H303 H 0.35615 0.71635 0.41145 0.0
H304 H 0.2927 0.72296 0.37986 0.0
H305 H 0.172 0.65059 0.11712 0.0
H306 H 0.23173 0.71797 0.16204 0.0
H307 H 0.13961 0.7178 0.28834 0.0
H308 H 0.08069 0.65173 0.24347 0.0
H309 H 0.26451 0.72937 0.27225 0.0
H310 H 0.16724 0.81781 0.33177 0.0
H311 H 0.1106 0.83043 0.28729 0.0
H312 H 0.148 0.81147 0.1137 0.0
H313 H 0.20523 0.79932 0.15704 0.0
C314 C 0.36858 0.88783 0.46405 0.0
C315 C 0.39153 0.93113 0.44198 0.0
C316 C 0.33463 0.85424 0.43074 0.0
C317 C 0.32309 0.86337 0.3748 0.0
C318 C 0.34434 0.9071 0.35479 0.0
C319 C 0.37808 0.94039 0.38774 0.0
C320 C 0.29041 0.82769 0.33557 0.0
C321 C 0.25572 0.83168 0.31181 0.0
C322 C 0.29427 0.7909 0.31931 0.0
C323 C 0.33231 0.78664 0.33797 0.0
C324 C 0.37545 0.81999 0.32454 0.0
C325 C 0.41118 0.816 0.34274 0.0
C326 C 0.40422 0.77872 0.37416 0.0
C327 C 0.36148 0.74524 0.38719 0.0
C328 C 0.32561 0.74905 0.36905 0.0
C329 C 0.16443 0.66607 0.15296 0.0
C330 C 0.12154 0.64638 0.17609 0.0
C331 C 0.19864 0.70413 0.17929 0.0
C332 C 0.19037 0.72331 0.22871 0.0
C333 C 0.14707 0.7044 0.2499 0.0
C334 C 0.11325 0.66658 0.224 0.0
C335 C 0.22662 0.76145 0.26081 0.0
C336 C 0.26206 0.75804 0.28302 0.0
C337 C 0.22434 0.79955 0.27414 0.0
C338 C 0.19026 0.80728 0.24775 0.0
C339 C 0.1635 0.81653 0.2841 0.0
C340 C 0.13126 0.82355 0.25908 0.0
C341 C 0.12562 0.82162 0.19773 0.0
C342 C 0.15229 0.81279 0.16123 0.0
C343 C 0.18458 0.80576 0.18601 0.0
H344 H 0.10063 0.82705 0.17846 0.0
H345 H 0.43193 0.77571 0.38828 0.0
H346 H 0.44058 0.37356 0.76272 0.0
H347 H 0.43949 0.31475 0.70441 0.0
H348 H 0.5609 0.34045 0.78498 0.0
H349 H 0.56187 0.39968 0.84352 0.0
H350 H 0.56699 0.34043 0.6664 0.0
H351 H 0.46353 0.24265 0.80964 0.0
H352 H 0.39724 0.21088 0.87275 0.0
H353 H 0.31612 0.17745 0.7183 0.0
H354 H 0.382 0.20958 0.65423 0.0
H355 H 0.57329 0.15693 0.5503 0.0
H356 H 0.5726 0.21571 0.60452 0.0
H357 H 0.45009 0.18455 0.52245 0.0
H358 H 0.45151 0.12542 0.46646 0.0
H359 H 0.44391 0.18821 0.63944 0.0
H360 H 0.5479 0.28512 0.49598 0.0
H361 H 0.61444 0.31571 0.43346 0.0
H362 H 0.69485 0.35041 0.58873 0.0
H363 H 0.62874 0.31947 0.65224 0.0
C364 C 0.46591 0.36522 0.77012 0.0
C365 C 0.50055 0.39033 0.80914 0.0
C366 C 0.46552 0.33178 0.73624 0.0
C367 C 0.50007 0.32279 0.73999 0.0
C368 C 0.53375 0.34651 0.78117 0.0
C369 C 0.53392 0.37986 0.81552 0.0
C370 C 0.50275 0.29159 0.69736 0.0
C371 C 0.54031 0.30692 0.66126 0.0
C372 C 0.46746 0.24821 0.68876 0.0
C373 C 0.42776 0.22893 0.72714 0.0
C374 C 0.43159 0.22888 0.78913 0.0
C375 C 0.39408 0.21073 0.82508 0.0
C376 C 0.3525 0.19227 0.79956 0.0
C377 C 0.34835 0.19182 0.73801 0.0
C378 C 0.38577 0.20995 0.70185 0.0
C379 C 0.5481 0.16479 0.53972 0.0
C380 C 0.51428 0.13846 0.50019 0.0
C381 C 0.54707 0.19795 0.57229 0.0
C382 C 0.51168 0.20549 0.5673 0.0
C383 C 0.47813 0.17995 0.52679 0.0
C384 C 0.47933 0.14667 0.49383 0.0
C385 C 0.5082 0.23702 0.60852 0.0
C386 C 0.47052 0.22178 0.64437 0.0
C387 C 0.5434 0.2805 0.61692 0.0
C388 C 0.5833 0.29965 0.57888 0.0
C389 C 0.57975 0.29902 0.51681 0.0
C390 C 0.6174 0.31646 0.48119 0.0
C391 C 0.65884 0.3349 0.5071 0.0
C392 C 0.66272 0.33608 0.56872 0.0
C393 C 0.62517 0.31866 0.60455 0.0
H394 H 0.68795 0.34834 0.47944 0.0
H395 H 0.3235 0.17822 0.82747 0.0
H396 H 0.99315 0.49597 0.83899 0.0
H397 H 0.03413 0.51764 0.74524 0.0
H398 H 0.09986 0.65347 0.79835 0.0
H399 H 0.05918 0.63134 0.89323 0.0
H400 H 0.05984 0.62633 0.67169 0.0
H401 H 0.16554 0.63013 0.79906 0.0
H402 H 0.19936 0.61045 0.87998 0.0
H403 H 0.16342 0.48823 0.79522 0.0
H404 H 0.1284 0.50657 0.71434 0.0
H405 H 0.13127 0.59639 0.39084 0.0
H406 H 0.15057 0.63003 0.48911 0.0
H407 H 0.07668 0.5015 0.56991 0.0
H408 H 0.05647 0.46815 0.47184 0.0
H409 H 0.15466 0.562 0.63338 0.0
H410 H 0.0198 0.55394 0.54095 0.0
H411 H 0.98758 0.57421 0.45817 0.0
H412 H 0.08653 0.70985 0.47748 0.0
H413 H 0.11913 0.69024 0.56054 0.0
C414 C 1.01557 0.53044 0.82977 0.0
C415 C 0.0231 0.56216 0.87225 0.0
C416 C 0.03931 0.54274 0.77701 0.0
C417 C 0.07043 0.58697 0.76594 0.0
C418 C 0.07625 0.61918 0.80682 0.0
C419 C 0.05292 0.60669 0.86026 0.0
C420 C 0.09596 0.59822 0.71072 0.0
C421 C 0.08217 0.61412 0.66349 0.0
C422 C 0.12517 0.58242 0.7006 0.0
C423 C 0.14424 0.56982 0.75045 0.0
C424 C 0.16424 0.59875 0.79797 0.0
C425 C 0.18376 0.58789 0.8438 0.0
C426 C 0.18374 0.54824 0.84254 0.0
C427 C 0.16358 0.51903 0.79595 0.0
C428 C 0.14389 0.52967 0.75005 0.0
C429 C 0.1193 0.57551 0.42975 0.0
C430 C 0.09085 0.52999 0.42447 0.0
C431 C 0.13093 0.59463 0.48557 0.0
C432 C 0.11462 0.56821 0.53641 0.0
C433 C 0.08968 0.52236 0.53098 0.0
C434 C 0.0779 0.50335 0.47525 0.0
C435 C 0.11629 0.58753 0.59458 0.0
C436 C 0.13476 0.5769 0.64212 0.0
C437 C 0.09199 0.60881 0.60522 0.0
C438 C 0.07186 0.62068 0.55654 0.0
C439 C 0.03452 0.58807 0.52752 0.0
C440 C 1.01622 0.59943 0.48065 0.0
C441 C 0.03504 0.64328 0.46251 0.0
C442 C 0.07201 0.67591 0.49153 0.0
C443 C 0.09033 0.66472 0.53859 0.0
H444 H 0.02096 0.65198 0.42601 0.0
H445 H 0.19953 0.54028 0.87753 0.0
H446 H 0.49926 0.01645 0.18275 0.0
H447 H 0.47244 0.97169 0.09369 0.0
H448 H 0.5314 0.89587 0.15078 0.0
H449 H 0.5579 0.94093 0.24092 0.0
H450 H 0.55701 0.93337 0.0392 0.0
H451 H 0.42516 0.83486 0.12811 0.0
H452 H 0.36078 0.80681 0.19434 0.0
H453 H 0.31488 0.88131 0.09837 0.0
H454 H 0.37898 0.91004 0.0316 0.0
H455 H 0.49509 0.92846 0.73284 0.0
H456 H 0.49313 0.89211 0.82676 0.0
H457 H 0.45824 0.97742 0.91858 0.0
H458 H 0.46165 0.01472 0.82509 0.0
H459 H 0.41005 0.88541 0.95493 0.0
H460 H 0.55969 1.00714 0.90957 0.0
H461 H 0.6313 0.04573 0.85824 0.0
H462 H 0.64742 0.93371 0.8838 0.0
H463 H 0.57534 0.89409 0.9342 0.0
C464 C 0.50635 0.99021 0.17595 0.0
C465 C 0.53091 0.98216 0.21729 0.0
C466 C 0.4903 0.96406 0.12611 0.0
C467 C 0.49894 0.92969 0.11674 0.0
C468 C 0.52362 0.92158 0.15815 0.0
C469 C 0.53918 0.94751 0.20869 0.0
C470 C 0.48868 0.90871 0.05839 0.0
C471 C 0.5245 0.92067 0.02055 0.0
C472 C 0.44616 0.89169 0.03479 0.0
C473 C 0.40697 0.87444 0.07439 0.0
C474 C 0.40143 0.84539 0.1211 0.0
C475 C 0.36495 0.82937 0.15883 0.0
C476 C 0.3338 0.84232 0.15065 0.0
C477 C 0.33898 0.8712 0.10454 0.0
C478 C 0.37531 0.88719 0.0665 0.0
C479 C 0.48802 0.94002 0.77334 0.0
C480 C 0.48053 0.97567 0.77269 0.0
C481 C 0.48604 0.91867 0.82648 0.0
C482 C 0.47578 0.93232 0.87915 0.0
C483 C 0.46604 0.96639 0.87803 0.0
C484 C 0.46839 0.98792 0.82509 0.0
C485 C 0.47924 0.91481 0.93678 0.0
C486 C 0.44194 0.89502 0.97356 0.0
C487 C 0.5206 0.92512 0.95974 0.0
C488 C 0.56168 0.94726 0.92431 0.0
C489 C 0.57802 0.99036 0.90303 0.0
C490 C 0.61888 1.01258 0.87459 0.0
C491 C 0.64397 0.99225 0.86795 0.0
C492 C 0.62802 0.94946 0.88913 0.0
C493 C 0.58705 0.92702 0.91728 0.0
H494 H 0.67566 1.00955 0.8461 0.0
H495 H 0.30566 0.82999 0.17999 0.0
H496 H 0.66359 0.62341 0.56938 0.0
H497 H 0.67141 0.65145 0.46743 0.0
H498 H 0.53017 0.58146 0.4509 0.0
H499 H 0.52281 0.55422 0.55172 0.0
H500 H 0.65006 0.60336 0.3763 0.0
H501 H 0.49139 0.61937 0.35806 0.0
H502 H 0.45874 0.65688 0.4117 0.0
H503 H 0.58443 0.74741 0.485 0.0
H504 H 0.61801 0.71068 0.43158 0.0
H505 H 0.50888 0.4813 0.15717 0.0
H506 H 0.55192 0.5215 0.24374 0.0
H507 H 0.56976 0.64259 0.16885 0.0
H508 H 0.52645 0.60216 0.08274 0.0
H509 H 0.54434 0.63607 0.27669 0.0
H510 H 0.6686 0.63882 0.19506 0.0
H511 H 0.71473 0.61528 0.14292 0.0
H512 H 0.67278 0.50693 0.26424 0.0
H513 H 0.62763 0.53089 0.31852 0.0
C514 C 0.63448 0.61513 0.54391 0.0
C515 C 0.59263 0.58731 0.56796 0.0
C516 C 0.63888 0.63128 0.48619 0.0
C517 C 0.60139 0.61937 0.45195 0.0
C518 C 0.55959 0.59255 0.477 0.0
C519 C 0.55528 0.5767 0.53451 0.0
C520 C 0.60485 0.62728 0.38744 0.0
C521 C 0.62776 0.61158 0.35432 0.0
C522 C 0.5776 0.64013 0.35823 0.0
C523 C 0.55732 0.6623 0.39046 0.0
C524 C 0.51222 0.64752 0.38514 0.0
C525 C 0.49349 0.66857 0.41571 0.0
C526 C 0.51953 0.70461 0.45152 0.0
C527 C 0.56432 0.71955 0.45711 0.0
C528 C 0.58318 0.6985 0.4269 0.0
C529 C 0.5223 0.51647 0.15942 0.0
C530 C 0.51411 0.5387 0.11428 0.0
C531 C 0.54733 0.53956 0.2082 0.0
C532 C 0.56482 0.58526 0.21208 0.0
C533 C 0.5569 0.60749 0.16652 0.0
C534 C 0.53178 0.58437 0.11794 0.0
C535 C 0.58627 0.60818 0.26727 0.0
C536 C 0.5681 0.62978 0.29827 0.0
C537 C 0.6192 0.60245 0.2941 0.0
C538 C 0.6445 0.58644 0.26046 0.0
C539 C 0.66894 0.60976 0.21029 0.0
C540 C 0.69509 0.59646 0.18054 0.0
C541 C 0.69623 0.55925 0.19973 0.0
C542 C 0.67172 0.53565 0.24928 0.0
C543 C 0.64618 0.54931 0.27989 0.0
H544 H 0.71623 0.54879 0.17644 0.0
H545 H 0.50498 0.72084 0.47517 0.0
loop_
_geom_bond_atom_site_label_1
_geom_bond_atom_site_label_2
_geom_bond_distance
_geom_bond_site_symmetry_2
_ccdc_geom_bond_type
Zn0 O1 2.055 . S
Zn0 O8 2.046 1_455 S
Zn0 N16 2.036 . S
Zn0 O28 2.053 1_455 S
Zn0 O30 2.066 . S
O1 Zn0 2.055 . S
O1 C4 1.259 . S
C2 O30 1.256 . S
C2 O31 1.244 . S
Zn3 O5 2.046 . S
Zn3 O7 2.055 1_455 S
Zn3 N9 2.036 . S
Zn3 O27 2.066 1_455 S
Zn3 O31 2.053 . S
C4 O1 1.259 . S
C4 O5 1.254 . S
O5 Zn3 2.046 . S
O5 C4 1.254 . S
C6 O27 1.256 . S
C6 O28 1.244 . S
O7 Zn3 2.055 1_655 S
O7 C29 1.259 . S
O8 Zn0 2.046 1_655 S
O8 C29 1.254 . S
N9 Zn3 2.036 . S
N9 C10 1.298 1_455 S
N9 N12 1.398 . S
C10 N9 1.298 1_655 S
C10 N13 1.367 1_655 S
C10 C23 1.481 . S
C11 N12 1.299 . S
C11 N13 1.379 . S
N12 N9 1.398 . S
N12 C11 1.299 . S
N13 C10 1.367 1_455 S
N13 C11 1.379 . S
C14 N16 1.298 1_556 S
C14 N18 1.367 . S
C14 C22 1.481 . S
C15 N17 1.299 . S
C15 N18 1.379 1_655 S
N16 Zn0 2.036 . S
N16 C14 1.298 1_554 S
N16 N17 1.398 1_454 S
N17 C15 1.299 . S
N17 N16 1.398 1_656 S
N18 C14 1.367 . S
N18 C15 1.379 1_455 S
H19 C22 0.980 1_554 S
H20 C22 0.981 . S
H21 C22 0.981 . S
C22 C14 1.481 . S
C22 H19 0.980 1_556 S
C22 H20 0.981 . S
C22 H21 0.981 . S
C23 C10 1.481 . S
C23 H24 0.980 . S
C23 H25 0.981 . S
C23 H26 0.981 . S
H24 C23 0.980 . S
H25 C23 0.981 . S
H26 C23 0.981 . S
O27 Zn3 2.066 1_655 S
O27 C6 1.256 . S
O28 Zn0 2.053 1_655 S
O28 C6 1.244 . S
C29 O7 1.259 . S
C29 O8 1.254 . S
O30 Zn0 2.066 . S
O30 C2 1.256 . S
O31 C2 1.244 . S
O31 Zn3 2.053 . S
Zn32 O33 2.055 . S
Zn32 O40 2.046 1_545 S
Zn32 N48 2.036 . S
Zn32 O60 2.053 1_545 S
Zn32 O62 2.066 . S
O33 Zn32 2.055 . S
O33 C36 1.259 . S
C34 O62 1.256 . S
C34 O63 1.244 . S
Zn35 O37 2.046 . S
Zn35 O39 2.055 1_545 S
Zn35 N41 2.036 . S
Zn35 O59 2.066 1_545 S
Zn35 O63 2.053 . S
C36 O33 1.259 . S
C36 O37 1.254 . S
O37 Zn35 2.046 . S
O37 C36 1.254 . S
C38 O59 1.256 . S
C38 O60 1.244 . S
O39 Zn35 2.055 1_565 S
O39 C61 1.259 . S
O40 Zn32 2.046 1_565 S
O40 C61 1.254 . S
N41 Zn35 2.036 . S
N41 C42 1.298 1_545 S
N41 N44 1.398 . S
C42 N41 1.298 1_565 S
C42 N45 1.367 1_565 S
C42 C55 1.481 . S
C43 N44 1.299 . S
C43 N45 1.379 . S
N44 N41 1.398 . S
N44 C43 1.299 . S
N45 C42 1.367 1_545 S
N45 C43 1.379 . S
C46 N48 1.298 . S
C46 N50 1.367 . S
C46 C54 1.481 . S
C47 N49 1.299 . S
C47 N50 1.379 1_565 S
N48 Zn32 2.036 . S
N48 C46 1.298 . S
N48 N49 1.398 1_545 S
N49 C47 1.299 . S
N49 N48 1.398 1_565 S
N50 C46 1.367 . S
N50 C47 1.379 1_545 S
H51 C54 0.980 . S
H52 C54 0.981 . S
H53 C54 0.981 . S
C54 C46 1.481 . S
C54 H51 0.980 . S
C54 H52 0.981 . S
C54 H53 0.981 . S
C55 C42 1.481 . S
C55 H56 0.980 . S
C55 H57 0.981 . S
C55 H58 0.981 . S
H56 C55 0.980 . S
H57 C55 0.981 . S
H58 C55 0.981 . S
O59 Zn35 2.066 1_565 S
O59 C38 1.256 . S
O60 Zn32 2.053 1_565 S
O60 C38 1.244 . S
C61 O39 1.259 . S
C61 O40 1.254 . S
O62 Zn32 2.066 . S
O62 C34 1.256 . S
O63 C34 1.244 . S
O63 Zn35 2.053 . S
Zn64 O65 2.055 . S
Zn64 O72 2.046 . S
Zn64 N80 2.036 . S
Zn64 O92 2.053 . S
Zn64 O94 2.066 . S
O65 Zn64 2.055 . S
O65 C68 1.259 . S
C66 O94 1.256 . S
C66 O95 1.244 . S
Zn67 O69 2.046 . S
Zn67 O71 2.055 . S
Zn67 N73 2.036 . S
Zn67 O91 2.066 . S
Zn67 O95 2.053 . S
C68 O65 1.259 . S
C68 O69 1.254 . S
O69 Zn67 2.046 . S
O69 C68 1.254 . S
C70 O91 1.256 . S
C70 O92 1.244 . S
O71 Zn67 2.055 . S
O71 C93 1.259 . S
O72 Zn64 2.046 . S
O72 C93 1.254 . S
N73 Zn67 2.036 . S
N73 C74 1.298 . S
N73 N76 1.398 . S
C74 N73 1.298 . S
C74 N77 1.367 . S
C74 C87 1.481 . S
C75 N76 1.299 . S
C75 N77 1.379 . S
N76 N73 1.398 . S
N76 C75 1.299 . S
N77 C74 1.367 . S
N77 C75 1.379 . S
C78 N80 1.298 1_554 S
C78 N82 1.367 . S
C78 C86 1.481 . S
C79 N81 1.299 . S
C79 N82 1.379 . S
N80 Zn64 2.036 . S
N80 C78 1.298 1_556 S
N80 N81 1.398 1_556 S
N81 C79 1.299 . S
N81 N80 1.398 1_554 S
N82 C78 1.367 . S
N82 C79 1.379 . S
H83 C86 0.980 1_556 S
H84 C86 0.981 . S
H85 C86 0.981 . S
C86 C78 1.481 . S
C86 H83 0.980 1_554 S
C86 H84 0.981 . S
C86 H85 0.981 . S
C87 C74 1.481 . S
C87 H88 0.980 . S
C87 H89 0.981 . S
C87 H90 0.981 . S
H88 C87 0.980 . S
H89 C87 0.981 . S
H90 C87 0.981 . S
O91 Zn67 2.066 . S
O91 C70 1.256 . S
O92 Zn64 2.053 . S
O92 C70 1.244 . S
C93 O71 1.259 . S
C93 O72 1.254 . S
O94 Zn64 2.066 . S
O94 C66 1.256 . S
O95 C66 1.244 . S
O95 Zn67 2.053 . S
H96 C114 0.951 . S
H97 C116 0.951 1_556 S
H98 C118 0.950 . S
H99 C119 0.950 . S
H100 C121 0.950 . S
H101 C124 0.950 . S
H102 C125 0.950 . S
H103 C127 0.950 . S
H104 C128 0.950 . S
H105 C129 0.951 . S
H106 C131 0.951 . S
H107 C133 0.950 . S
H108 C134 0.950 . S
H109 C136 0.950 . S
H110 C139 0.950 . S
H111 C140 0.950 . S
H112 C142 0.950 . S
H113 C143 0.950 . S
C114 H96 0.951 . S
C114 C115 1.366 . S
C114 C116 1.388 . S
C115 C114 1.366 . S
C115 C119 1.385 . S
C116 H97 0.951 1_554 S
C116 C114 1.388 . S
C116 C117 1.366 . S
C117 C116 1.366 . S
C117 C118 1.414 . S
C117 C120 1.499 . S
C118 H98 0.950 . S
C118 C117 1.414 . S
C118 C119 1.374 . S
C119 H99 0.950 . S
C119 C115 1.385 . S
C119 C118 1.374 . S
C120 C117 1.499 . S
C120 C121 1.373 . S
C120 C122 1.389 1_554 S
C121 H100 0.950 . S
C121 C120 1.373 . S
C121 C137 1.377 1_554 S
C122 C120 1.389 1_556 S
C122 C123 1.524 . S
C122 C136 1.377 . S
C123 C122 1.524 . S
C123 C124 1.397 1_556 S
C123 C128 1.363 . S
C124 H101 0.950 . S
C124 C123 1.397 1_554 S
C124 C125 1.334 . S
C125 H102 0.950 . S
C125 C124 1.334 . S
C125 C126 1.287 1_554 S
C126 C125 1.287 1_556 S
C126 C127 1.524 . S
C126 H145 0.913 . S
C127 H103 0.950 . S
C127 C126 1.524 . S
C127 C128 1.415 . S
C128 H104 0.950 . S
C128 C123 1.363 . S
C128 C127 1.415 . S
C129 H105 0.951 . S
C129 C130 1.366 . S
C129 C131 1.388 . S
C130 C129 1.366 . S
C130 C134 1.385 . S
C131 H106 0.951 . S
C131 C129 1.388 . S
C131 C132 1.366 . S
C132 C131 1.366 . S
C132 C133 1.414 . S
C132 C135 1.499 . S
C133 H107 0.950 . S
C133 C132 1.414 . S
C133 C134 1.374 . S
C134 H108 0.950 . S
C134 C130 1.385 . S
C134 C133 1.374 . S
C135 C132 1.499 . S
C135 C136 1.373 . S
C135 C137 1.389 . S
C136 H109 0.950 . S
C136 C122 1.377 . S
C136 C135 1.373 . S
C137 C121 1.377 1_556 S
C137 C135 1.389 . S
C137 C138 1.524 1_556 S
C138 C137 1.524 1_554 S
C138 C139 1.397 1_554 S
C138 C143 1.363 . S
C139 H110 0.950 . S
C139 C138 1.397 1_556 S
C139 C140 1.334 . S
C140 H111 0.950 . S
C140 C139 1.334 . S
C140 C141 1.287 1_556 S
C141 C140 1.287 1_554 S
C141 C142 1.524 . S
C141 H144 0.999 . S
C142 H112 0.950 . S
C142 C141 1.524 . S
C142 C143 1.415 . S
C143 H113 0.950 . S
C143 C138 1.363 . S
C143 C142 1.415 . S
H144 C141 0.999 . S
H145 C126 0.913 . S
H146 C164 0.951 . S
H147 C166 0.951 . S
H148 C168 0.950 . S
H149 C169 0.950 . S
H150 C171 0.950 . S
H151 C174 0.950 . S
H152 C175 0.950 . S
H153 C177 0.950 . S
H154 C178 0.950 . S
H155 C179 0.951 . S
H156 C181 0.951 . S
H157 C183 0.950 . S
H158 C184 0.950 . S
H159 C186 0.950 . S
H160 C189 0.950 . S
H161 C190 0.950 . S
H162 C192 0.950 . S
H163 C193 0.950 . S
C164 H146 0.951 . S
C164 C165 1.366 . S
C164 C166 1.388 . S
C165 C164 1.366 . S
C165 C169 1.385 . S
C166 H147 0.951 . S
C166 C164 1.388 . S
C166 C167 1.366 . S
C167 C166 1.366 . S
C167 C168 1.414 . S
C167 C170 1.499 . S
C168 H148 0.950 . S
C168 C167 1.414 . S
C168 C169 1.374 . S
C169 H149 0.950 . S
C169 C165 1.385 . S
C169 C168 1.374 . S
C170 C167 1.499 . S
C170 C171 1.373 . S
C170 C172 1.389 . S
C171 H150 0.950 . S
C171 C170 1.373 . S
C171 C187 1.377 . S
C172 C170 1.389 . S
C172 C173 1.524 . S
C172 C186 1.377 . S
C173 C172 1.524 . S
C173 C174 1.397 . S
C173 C178 1.363 . S
C174 H151 0.950 . S
C174 C173 1.397 . S
C174 C175 1.334 . S
C175 H152 0.950 . S
C175 C174 1.334 . S
C175 C176 1.287 . S
C176 C175 1.287 . S
C176 C177 1.524 . S
C176 H195 0.913 . S
C177 H153 0.950 . S
C177 C176 1.524 . S
C177 C178 1.415 . S
C178 H154 0.950 . S
C178 C173 1.363 . S
C178 C177 1.415 . S
C179 H155 0.951 . S
C179 C180 1.366 . S
C179 C181 1.388 . S
C180 C179 1.366 . S
C180 C184 1.385 . S
C181 H156 0.951 . S
C181 C179 1.388 . S
C181 C182 1.366 . S
C182 C181 1.366 . S
C182 C183 1.414 . S
C182 C185 1.499 . S
C183 H157 0.950 . S
C183 C182 1.414 . S
C183 C184 1.374 . S
C184 H158 0.950 . S
C184 C180 1.385 . S
C184 C183 1.374 . S
C185 C182 1.499 . S
C185 C186 1.373 . S
C185 C187 1.389 . S
C186 H159 0.950 . S
C186 C172 1.377 . S
C186 C185 1.373 . S
C187 C171 1.377 . S
C187 C185 1.389 . S
C187 C188 1.524 . S
C188 C187 1.524 . S
C188 C189 1.397 . S
C188 C193 1.363 . S
C189 H160 0.950 . S
C189 C188 1.397 . S
C189 C190 1.334 . S
C190 H161 0.950 . S
C190 C189 1.334 . S
C190 C191 1.287 . S
C191 C190 1.287 . S
C191 C192 1.524 . S
C191 H194 0.999 . S
C192 H162 0.950 . S
C192 C191 1.524 . S
C192 C193 1.415 . S
C193 H163 0.950 . S
C193 C188 1.363 . S
C193 C192 1.415 . S
H194 C191 0.999 . S
H195 C176 0.913 . S
H196 C214 0.951 . S
H197 C216 0.951 . S
H198 C218 0.950 . S
H199 C219 0.950 . S
H200 C221 0.950 . S
H201 C224 0.950 . S
H202 C225 0.950 . S
H203 C227 0.950 . S
H204 C228 0.950 . S
H205 C229 0.951 . S
H206 C231 0.951 . S
H207 C233 0.950 . S
H208 C234 0.950 . S
H209 C236 0.950 . S
H210 C239 0.950 . S
H211 C240 0.950 . S
H212 C242 0.950 . S
H213 C243 0.950 . S
C214 H196 0.951 . S
C214 C215 1.366 . S
C214 C216 1.388 . S
C215 C214 1.366 . S
C215 C219 1.385 . S
C216 H197 0.951 . S
C216 C214 1.388 . S
C216 C217 1.366 . S
C217 C216 1.366 . S
C217 C218 1.414 . S
C217 C220 1.499 . S
C218 H198 0.950 . S
C218 C217 1.414 . S
C218 C219 1.374 . S
C219 H199 0.950 . S
C219 C215 1.385 . S
C219 C218 1.374 . S
C220 C217 1.499 . S
C220 C221 1.373 . S
C220 C222 1.389 . S
C221 H200 0.950 . S
C221 C220 1.373 . S
C221 C237 1.377 . S
C222 C220 1.389 . S
C222 C223 1.524 . S
C222 C236 1.377 . S
C223 C222 1.524 . S
C223 C224 1.397 . S
C223 C228 1.363 . S
C224 H201 0.950 . S
C224 C223 1.397 . S
C224 C225 1.334 . S
C225 H202 0.950 . S
C225 C224 1.334 . S
C225 C226 1.287 . S
C226 C225 1.287 . S
C226 C227 1.524 . S
C226 H245 0.913 . S
C227 H203 0.950 . S
C227 C226 1.524 . S
C227 C228 1.415 . S
C228 H204 0.950 . S
C228 C223 1.363 . S
C228 C227 1.415 . S
C229 H205 0.951 . S
C229 C230 1.366 . S
C229 C231 1.388 . S
C230 C229 1.366 . S
C230 C234 1.385 . S
C231 H206 0.951 . S
C231 C229 1.388 . S
C231 C232 1.366 . S
C232 C231 1.366 . S
C232 C233 1.414 . S
C232 C235 1.499 . S
C233 H207 0.950 . S
C233 C232 1.414 . S
C233 C234 1.374 . S
C234 H208 0.950 . S
C234 C230 1.385 . S
C234 C233 1.374 . S
C235 C232 1.499 . S
C235 C236 1.373 . S
C235 C237 1.389 . S
C236 H209 0.950 . S
C236 C222 1.377 . S
C236 C235 1.373 . S
C237 C221 1.377 . S
C237 C235 1.389 . S
C237 C238 1.524 . S
C238 C237 1.524 . S
C238 C239 1.397 . S
C238 C243 1.363 . S
C239 H210 0.950 . S
C239 C238 1.397 . S
C239 C240 1.334 . S
C240 H211 0.950 . S
C240 C239 1.334 . S
C240 C241 1.287 . S
C241 C240 1.287 . S
C241 C242 1.524 . S
C241 H244 0.999 . S
C242 H212 0.950 . S
C242 C241 1.524 . S
C242 C243 1.415 . S
C243 H213 0.950 . S
C243 C238 1.363 . S
C243 C242 1.415 . S
H244 C241 0.999 . S
H245 C226 0.913 . S
H246 C264 0.951 . S
H247 C266 0.951 . S
H248 C268 0.950 1_554 S
H249 C269 0.950 . S
H250 C271 0.950 . S
H251 C274 0.950 . S
H252 C275 0.950 . S
H253 C277 0.950 . S
H254 C278 0.950 . S
H255 C279 0.951 . S
H256 C281 0.951 . S
H257 C283 0.950 . S
H258 C284 0.950 . S
H259 C286 0.950 . S
H260 C289 0.950 . S
H261 C290 0.950 . S
H262 C292 0.950 . S
H263 C293 0.950 . S
C264 H246 0.951 . S
C264 C265 1.366 . S
C264 C266 1.388 . S
C265 C264 1.366 . S
C265 C269 1.385 . S
C266 H247 0.951 . S
C266 C264 1.388 . S
C266 C267 1.366 . S
C267 C266 1.366 . S
C267 C268 1.414 . S
C267 C270 1.499 . S
C268 H248 0.950 1_556 S
C268 C267 1.414 . S
C268 C269 1.374 . S
C269 H249 0.950 . S
C269 C265 1.385 . S
C269 C268 1.374 . S
C270 C267 1.499 . S
C270 C271 1.373 1_556 S
C270 C272 1.389 . S
C271 H250 0.950 . S
C271 C270 1.373 1_554 S
C271 C287 1.377 . S
C272 C270 1.389 . S
C272 C273 1.524 . S
C272 C286 1.377 . S
C273 C272 1.524 . S
C273 C274 1.397 . S
C273 C278 1.363 . S
C274 H251 0.950 . S
C274 C273 1.397 . S
C274 C275 1.334 . S
C275 H252 0.950 . S
C275 C274 1.334 . S
C275 C276 1.287 . S
C276 C275 1.287 . S
C276 C277 1.524 . S
C276 H295 0.913 . S
C277 H253 0.950 . S
C277 C276 1.524 . S
C277 C278 1.415 . S
C278 H254 0.950 . S
C278 C273 1.363 . S
C278 C277 1.415 . S
C279 H255 0.951 . S
C279 C280 1.366 . S
C279 C281 1.388 . S
C280 C279 1.366 . S
C280 C284 1.385 . S
C281 H256 0.951 . S
C281 C279 1.388 . S
C281 C282 1.366 . S
C282 C281 1.366 . S
C282 C283 1.414 . S
C282 C285 1.499 . S
C283 H257 0.950 . S
C283 C282 1.414 . S
C283 C284 1.374 . S
C284 H258 0.950 . S
C284 C280 1.385 . S
C284 C283 1.374 . S
C285 C282 1.499 . S
C285 C286 1.373 1_554 S
C285 C287 1.389 . S
C286 H259 0.950 . S
C286 C272 1.377 . S
C286 C285 1.373 1_556 S
C287 C271 1.377 . S
C287 C285 1.389 . S
C287 C288 1.524 . S
C288 C287 1.524 . S
C288 C289 1.397 . S
C288 C293 1.363 . S
C289 H260 0.950 . S
C289 C288 1.397 . S
C289 C290 1.334 . S
C290 H261 0.950 . S
C290 C289 1.334 . S
C290 C291 1.287 . S
C291 C290 1.287 . S
C291 C292 1.524 . S
C291 H294 0.999 . S
C292 H262 0.950 . S
C292 C291 1.524 . S
C292 C293 1.415 . S
C293 H263 0.950 . S
C293 C288 1.363 . S
C293 C292 1.415 . S
H294 C291 0.999 . S
H295 C276 0.913 . S
H296 C314 0.951 . S
H297 C316 0.951 . S
H298 C318 0.950 . S
H299 C319 0.950 . S
H300 C321 0.950 . S
H301 C324 0.950 . S
H302 C325 0.950 . S
H303 C327 0.950 . S
H304 C328 0.950 . S
H305 C329 0.951 . S
H306 C331 0.951 . S
H307 C333 0.950 . S
H308 C334 0.950 . S
H309 C336 0.950 . S
H310 C339 0.950 . S
H311 C340 0.950 . S
H312 C342 0.950 . S
H313 C343 0.950 . S
C314 H296 0.951 . S
C314 C315 1.366 . S
C314 C316 1.388 . S
C315 C314 1.366 . S
C315 C319 1.385 . S
C316 H297 0.951 . S
C316 C314 1.388 . S
C316 C317 1.366 . S
C317 C316 1.366 . S
C317 C318 1.414 . S
C317 C320 1.499 . S
C318 H298 0.950 . S
C318 C317 1.414 . S
C318 C319 1.374 . S
C319 H299 0.950 . S
C319 C315 1.385 . S
C319 C318 1.374 . S
C320 C317 1.499 . S
C320 C321 1.373 . S
C320 C322 1.389 . S
C321 H300 0.950 . S
C321 C320 1.373 . S
C321 C337 1.377 . S
C322 C320 1.389 . S
C322 C323 1.524 . S
C322 C336 1.377 . S
C323 C322 1.524 . S
C323 C324 1.397 . S
C323 C328 1.363 . S
C324 H301 0.950 . S
C324 C323 1.397 . S
C324 C325 1.334 . S
C325 H302 0.950 . S
C325 C324 1.334 . S
C325 C326 1.287 . S
C326 C325 1.287 . S
C326 C327 1.524 . S
C326 H345 0.913 . S
C327 H303 0.950 . S
C327 C326 1.524 . S
C327 C328 1.415 . S
C328 H304 0.950 . S
C328 C323 1.363 . S
C328 C327 1.415 . S
C329 H305 0.951 . S
C329 C330 1.366 . S
C329 C331 1.388 . S
C330 C329 1.366 . S
C330 C334 1.385 . S
C331 H306 0.951 . S
C331 C329 1.388 . S
C331 C332 1.366 . S
C332 C331 1.366 . S
C332 C333 1.414 . S
C332 C335 1.499 . S
C333 H307 0.950 . S
C333 C332 1.414 . S
C333 C334 1.374 . S
C334 H308 0.950 . S
C334 C330 1.385 . S
C334 C333 1.374 . S
C335 C332 1.499 . S
C335 C336 1.373 . S
C335 C337 1.389 . S
C336 H309 0.950 . S
C336 C322 1.377 . S
C336 C335 1.373 . S
C337 C321 1.377 . S
C337 C335 1.389 . S
C337 C338 1.524 . S
C338 C337 1.524 . S
C338 C339 1.397 . S
C338 C343 1.363 . S
C339 H310 0.950 . S
C339 C338 1.397 . S
C339 C340 1.334 . S
C340 H311 0.950 . S
C340 C339 1.334 . S
C340 C341 1.287 . S
C341 C340 1.287 . S
C341 C342 1.524 . S
C341 H344 0.999 . S
C342 H312 0.950 . S
C342 C341 1.524 . S
C342 C343 1.415 . S
C343 H313 0.950 . S
C343 C338 1.363 . S
C343 C342 1.415 . S
H344 C341 0.999 . S
H345 C326 0.913 . S
H346 C364 0.951 . S
H347 C366 0.951 . S
H348 C368 0.950 . S
H349 C369 0.950 . S
H350 C371 0.950 . S
H351 C374 0.950 . S
H352 C375 0.950 . S
H353 C377 0.950 . S
H354 C378 0.950 . S
H355 C379 0.951 . S
H356 C381 0.951 . S
H357 C383 0.950 . S
H358 C384 0.950 . S
H359 C386 0.950 . S
H360 C389 0.950 . S
H361 C390 0.950 . S
H362 C392 0.950 . S
H363 C393 0.950 . S
C364 H346 0.951 . S
C364 C365 1.366 . S
C364 C366 1.388 . S
C365 C364 1.366 . S
C365 C369 1.385 . S
C366 H347 0.951 . S
C366 C364 1.388 . S
C366 C367 1.366 . S
C367 C366 1.366 . S
C367 C368 1.414 . S
C367 C370 1.499 . S
C368 H348 0.950 . S
C368 C367 1.414 . S
C368 C369 1.374 . S
C369 H349 0.950 . S
C369 C365 1.385 . S
C369 C368 1.374 . S
C370 C367 1.499 . S
C370 C371 1.373 . S
C370 C372 1.389 . S
C371 H350 0.950 . S
C371 C370 1.373 . S
C371 C387 1.377 . S
C372 C370 1.389 . S
C372 C373 1.524 . S
C372 C386 1.377 . S
C373 C372 1.524 . S
C373 C374 1.397 . S
C373 C378 1.363 . S
C374 H351 0.950 . S
C374 C373 1.397 . S
C374 C375 1.334 . S
C375 H352 0.950 . S
C375 C374 1.334 . S
C375 C376 1.287 . S
C376 C375 1.287 . S
C376 C377 1.524 . S
C376 H395 0.913 . S
C377 H353 0.950 . S
C377 C376 1.524 . S
C377 C378 1.415 . S
C378 H354 0.950 . S
C378 C373 1.363 . S
C378 C377 1.415 . S
C379 H355 0.951 . S
C379 C380 1.366 . S
C379 C381 1.388 . S
C380 C379 1.366 . S
C380 C384 1.385 . S
C381 H356 0.951 . S
C381 C379 1.388 . S
C381 C382 1.366 . S
C382 C381 1.366 . S
C382 C383 1.414 . S
C382 C385 1.499 . S
C383 H357 0.950 . S
C383 C382 1.414 . S
C383 C384 1.374 . S
C384 H358 0.950 . S
C384 C380 1.385 . S
C384 C383 1.374 . S
C385 C382 1.499 . S
C385 C386 1.373 . S
C385 C387 1.389 . S
C386 H359 0.950 . S
C386 C372 1.377 . S
C386 C385 1.373 . S
C387 C371 1.377 . S
C387 C385 1.389 . S
C387 C388 1.524 . S
C388 C387 1.524 . S
C388 C389 1.397 . S
C388 C393 1.363 . S
C389 H360 0.950 . S
C389 C388 1.397 . S
C389 C390 1.334 . S
C390 H361 0.950 . S
C390 C389 1.334 . S
C390 C391 1.287 . S
C391 C390 1.287 . S
C391 C392 1.524 . S
C391 H394 0.999 . S
C392 H362 0.950 . S
C392 C391 1.524 . S
C392 C393 1.415 . S
C393 H363 0.950 . S
C393 C388 1.363 . S
C393 C392 1.415 . S
H394 C391 0.999 . S
H395 C376 0.913 . S
H396 C414 0.951 . S
H397 C416 0.951 . S
H398 C418 0.950 . S
H399 C419 0.950 . S
H400 C421 0.950 . S
H401 C424 0.950 . S
H402 C425 0.950 . S
H403 C427 0.950 . S
H404 C428 0.950 . S
H405 C429 0.951 . S
H406 C431 0.951 . S
H407 C433 0.950 . S
H408 C434 0.950 . S
H409 C436 0.950 . S
H410 C439 0.950 . S
H411 C440 0.950 . S
H412 C442 0.950 . S
H413 C443 0.950 . S
C414 H396 0.951 . S
C414 C415 1.366 1_655 S
C414 C416 1.388 . S
C415 C414 1.366 1_455 S
C415 C419 1.385 . S
C416 H397 0.951 . S
C416 C414 1.388 . S
C416 C417 1.366 1_655 S
C417 C416 1.366 1_455 S
C417 C418 1.414 . S
C417 C420 1.499 . S
C418 H398 0.950 . S
C418 C417 1.414 . S
C418 C419 1.374 . S
C419 H399 0.950 . S
C419 C415 1.385 . S
C419 C418 1.374 . S
C420 C417 1.499 . S
C420 C421 1.373 . S
C420 C422 1.389 . S
C421 H400 0.950 . S
C421 C420 1.373 . S
C421 C437 1.377 . S
C422 C420 1.389 . S
C422 C423 1.524 1_455 S
C422 C436 1.377 1_455 S
C423 C422 1.524 1_655 S
C423 C424 1.397 1_655 S
C423 C428 1.363 . S
C424 H401 0.950 . S
C424 C423 1.397 1_455 S
C424 C425 1.334 . S
C425 H402 0.950 . S
C425 C424 1.334 . S
C425 C426 1.287 1_455 S
C426 C425 1.287 1_655 S
C426 C427 1.524 . S
C426 H445 0.913 . S
C427 H403 0.950 . S
C427 C426 1.524 . S
C427 C428 1.415 . S
C428 H404 0.950 . S
C428 C423 1.363 . S
C428 C427 1.415 . S
C429 H405 0.951 . S
C429 C430 1.366 1_455 S
C429 C431 1.388 . S
C430 C429 1.366 1_655 S
C430 C434 1.385 . S
C431 H406 0.951 . S
C431 C429 1.388 . S
C431 C432 1.366 . S
C432 C431 1.366 . S
C432 C433 1.414 1_455 S
C432 C435 1.499 . S
C433 H407 0.950 . S
C433 C432 1.414 1_655 S
C433 C434 1.374 . S
C434 H408 0.950 . S
C434 C430 1.385 . S
C434 C433 1.374 . S
C435 C432 1.499 . S
C435 C436 1.373 1_455 S
C435 C437 1.389 . S
C436 H409 0.950 . S
C436 C422 1.377 1_655 S
C436 C435 1.373 1_655 S
C437 C421 1.377 . S
C437 C435 1.389 . S
C437 C438 1.524 . S
C438 C437 1.524 . S
C438 C439 1.397 1_455 S
C438 C443 1.363 . S
C439 H410 0.950 . S
C439 C438 1.397 1_655 S
C439 C440 1.334 . S
C440 H411 0.950 . S
C440 C439 1.334 . S
C440 C441 1.287 1_655 S
C441 C440 1.287 1_455 S
C441 C442 1.524 . S
C441 H444 0.999 . S
C442 H412 0.950 . S
C442 C441 1.524 . S
C442 C443 1.415 . S
C443 H413 0.950 . S
C443 C438 1.363 . S
C443 C442 1.415 . S
H444 C441 0.999 . S
H445 C426 0.913 . S
H446 C464 0.951 . S
H447 C466 0.951 . S
H448 C468 0.950 . S
H449 C469 0.950 . S
H450 C471 0.950 . S
H451 C474 0.950 . S
H452 C475 0.950 . S
H453 C477 0.950 . S
H454 C478 0.950 . S
H455 C479 0.951 . S
H456 C481 0.951 . S
H457 C483 0.950 . S
H458 C484 0.950 . S
H459 C486 0.950 . S
H460 C489 0.950 . S
H461 C490 0.950 . S
H462 C492 0.950 . S
H463 C493 0.950 . S
C464 H446 0.951 . S
C464 C465 1.366 1_545 S
C464 C466 1.388 . S
C465 C464 1.366 1_565 S
C465 C469 1.385 . S
C466 H447 0.951 . S
C466 C464 1.388 . S
C466 C467 1.366 . S
C467 C466 1.366 . S
C467 C468 1.414 1_545 S
C467 C470 1.499 . S
C468 H448 0.950 . S
C468 C467 1.414 1_565 S
C468 C469 1.374 . S
C469 H449 0.950 . S
C469 C465 1.385 . S
C469 C468 1.374 . S
C470 C467 1.499 . S
C470 C471 1.373 1_545 S
C470 C472 1.389 . S
C471 H450 0.950 . S
C471 C470 1.373 1_565 S
C471 C487 1.377 1_564 S
C472 C470 1.389 . S
C472 C473 1.524 . S
C472 C486 1.377 1_554 S
C473 C472 1.524 . S
C473 C474 1.397 1_545 S
C473 C478 1.363 . S
C474 H451 0.950 . S
C474 C473 1.397 1_565 S
C474 C475 1.334 . S
C475 H452 0.950 . S
C475 C474 1.334 . S
C475 C476 1.287 1_565 S
C476 C475 1.287 1_545 S
C476 C477 1.524 . S
C476 H495 0.913 . S
C477 H453 0.950 . S
C477 C476 1.524 . S
C477 C478 1.415 . S
C478 H454 0.950 . S
C478 C473 1.363 . S
C478 C477 1.415 . S
C479 H455 0.951 . S
C479 C480 1.366 1_565 S
C479 C481 1.388 . S
C480 C479 1.366 1_545 S
C480 C484 1.385 . S
C481 H456 0.951 . S
C481 C479 1.388 . S
C481 C482 1.366 1_565 S
C482 C481 1.366 1_545 S
C482 C483 1.414 . S
C482 C485 1.499 . S
C483 H457 0.950 . S
C483 C482 1.414 . S
C483 C484 1.374 . S
C484 H458 0.950 . S
C484 C480 1.385 . S
C484 C483 1.374 . S
C485 C482 1.499 . S
C485 C486 1.373 . S
C485 C487 1.389 . S
C486 H459 0.950 . S
C486 C472 1.377 1_556 S
C486 C485 1.373 . S
C487 C471 1.377 1_546 S
C487 C485 1.389 . S
C487 C488 1.513 1_545 S
C488 C487 1.513 1_565 S
C488 C489 1.386 1_565 S
C488 C493 1.384 . S
C489 H460 0.950 . S
C489 C488 1.386 1_545 S
C489 C490 1.334 . S
C490 H461 0.950 . S
C490 C489 1.334 . S
C490 C491 1.255 1_545 S
C491 C490 1.255 1_565 S
C491 C492 1.543 . S
C491 H494 1.017 . S
C492 H462 0.950 . S
C492 C491 1.543 . S
C492 C493 1.415 . S
C493 H463 0.950 . S
C493 C488 1.384 . S
C493 C492 1.415 . S
H494 C491 1.017 . S
H495 C476 0.913 . S
H496 C514 0.951 . S
H497 C516 0.951 . S
H498 C518 0.950 . S
H499 C519 0.950 . S
H500 C521 0.950 . S
H501 C524 0.950 . S
H502 C525 0.950 . S
H503 C527 0.950 . S
H504 C528 0.950 . S
H505 C529 0.951 . S
H506 C531 0.951 . S
H507 C533 0.950 . S
H508 C534 0.950 . S
H509 C536 0.950 . S
H510 C539 0.950 . S
H511 C540 0.950 . S
H512 C542 0.950 . S
H513 C543 0.950 . S
C514 H496 0.951 . S
C514 C515 1.366 . S
C514 C516 1.388 . S
C515 C514 1.366 . S
C515 C519 1.385 . S
C516 H497 0.951 . S
C516 C514 1.388 . S
C516 C517 1.366 . S
C517 C516 1.366 . S
C517 C518 1.414 . S
C517 C520 1.499 . S
C518 H498 0.950 . S
C518 C517 1.414 . S
C518 C519 1.374 . S
C519 H499 0.950 . S
C519 C515 1.385 . S
C519 C518 1.374 . S
C520 C517 1.499 . S
C520 C521 1.373 . S
C520 C522 1.389 . S
C521 H500 0.950 . S
C521 C520 1.373 . S
C521 C537 1.377 . S
C522 C520 1.389 . S
C522 C523 1.524 . S
C522 C536 1.377 . S
C523 C522 1.524 . S
C523 C524 1.397 . S
C523 C528 1.363 . S
C524 H501 0.950 . S
C524 C523 1.397 . S
C524 C525 1.334 . S
C525 H502 0.950 . S
C525 C524 1.334 . S
C525 C526 1.287 . S
C526 C525 1.287 . S
C526 C527 1.524 . S
C526 H545 0.913 . S
C527 H503 0.950 . S
C527 C526 1.524 . S
C527 C528 1.415 . S
C528 H504 0.950 . S
C528 C523 1.363 . S
C528 C527 1.415 . S
C529 H505 0.951 . S
C529 C530 1.366 . S
C529 C531 1.388 . S
C530 C529 1.366 . S
C530 C534 1.385 . S
C531 H506 0.951 . S
C531 C529 1.388 . S
C531 C532 1.366 . S
C532 C531 1.366 . S
C532 C533 1.414 . S
C532 C535 1.499 . S
C533 H507 0.950 . S
C533 C532 1.414 . S
C533 C534 1.374 . S
C534 H508 0.950 . S
C534 C530 1.385 . S
C534 C533 1.374 . S
C535 C532 1.499 . S
C535 C536 1.373 . S
C535 C537 1.389 . S
C536 H509 0.950 . S
C536 C522 1.377 . S
C536 C535 1.373 . S
C537 C521 1.377 . S
C537 C535 1.389 . S
C537 C538 1.524 . S
C538 C537 1.524 . S
C538 C539 1.397 . S
C538 C543 1.363 . S
C539 H510 0.950 . S
C539 C538 1.397 . S
C539 C540 1.334 . S
C540 H511 0.950 . S
C540 C539 1.334 . S
C540 C541 1.287 . S
C541 C540 1.287 . S
C541 C542 1.524 . S
C541 H544 0.999 . S
C542 H512 0.950 . S
C542 C541 1.524 . S
C542 C543 1.415 . S
C543 H513 0.950 . S
C543 C538 1.363 . S
C543 C542 1.415 . S
H544 C541 0.999 . S
H545 C526 0.913 . S
C115 C2 1.830 . S
C130 C93 1.815 . S
C165 C36 1.814 . S
C180 C6 1.830 . S
C215 C61 1.815 . S
C230 C70 1.831 . S
C265 C66 1.830 . S
C280 C29 1.814 . S
C315 C38 1.830 . S
C330 C4 1.814 . S
C365 C68 1.814 . S
C380 C34 1.830 . S
C415 N18 0.484 . S
C430 N13 0.485 1_655 S
C465 N45 0.484 1_565 S
C480 N50 0.485 . S
C515 N77 0.483 . S
C530 N82 0.482 . S
