# Generated by pormake.
# Topology son, (6)-cn, num edge types: 1
# Building blocks:
#     Node 0, Type 0, BuildingBlock: CUWYAW_clean_sbu_0, # of connection points: 6
#     Node 1, Type 0, BuildingBlock: CUWYAW_clean_sbu_0, # of connection points: 6
#     Node 2, Type 0, BuildingBlock: CUWYAW_clean_sbu_0, # of connection points: 6
#     Node 3, Type 0, BuildingBlock: CUWYAW_clean_sbu_0, # of connection points: 6
#     Node 4, Type 0, BuildingBlock: CUWYAW_clean_sbu_0, # of connection points: 6
#     Node 5, Type 0, BuildingBlock: CUWYAW_clean_sbu_0, # of connection points: 6
#     Node 6, Type 0, BuildingBlock: CUWYAW_clean_sbu_0, # of connection points: 6
#     Node 7, Type 0, BuildingBlock: CUWYAW_clean_sbu_0, # of connection points: 6
#     Node 8, Type 0, BuildingBlock: CUWYAW_clean_sbu_0, # of connection points: 6
#     Node 9, Type 0, BuildingBlock: CUWYAW_clean_sbu_0, # of connection points: 6
#     Node 10, Type 0, BuildingBlock: CUWYAW_clean_sbu_0, # of connection points: 6
#     Node 11, Type 0, BuildingBlock: CUWYAW_clean_sbu_0, # of connection points: 6
#     Node 12, Type 0, BuildingBlock: CUWYAW_clean_sbu_0, # of connection points: 6
#     Node 13, Type 0, BuildingBlock: CUWYAW_clean_sbu_0, # of connection points: 6
#     Node 14, Type 0, BuildingBlock: CUWYAW_clean_sbu_0, # of connection points: 6
#     Node 15, Type 0, BuildingBlock: CUWYAW_clean_sbu_0, # of connection points: 6
#     Node 16, Type 0, BuildingBlock: CUWYAW_clean_sbu_0, # of connection points: 6
#     Node 17, Type 0, BuildingBlock: CUWYAW_clean_sbu_0, # of connection points: 6
#     Node 18, Type 0, BuildingBlock: CUWYAW_clean_sbu_0, # of connection points: 6
#     Node 19, Type 0, BuildingBlock: CUWYAW_clean_sbu_0, # of connection points: 6
#     Node 20, Type 0, BuildingBlock: CUWYAW_clean_sbu_0, # of connection points: 6
#     Node 21, Type 0, BuildingBlock: CUWYAW_clean_sbu_0, # of connection points: 6
#     Node 22, Type 0, BuildingBlock: CUWYAW_clean_sbu_0, # of connection points: 6
#     Node 23, Type 0, BuildingBlock: CUWYAW_clean_sbu_0, # of connection points: 6
#     Node 24, Type 0, BuildingBlock: CUWYAW_clean_sbu_0, # of connection points: 6
#     Node 25, Type 0, BuildingBlock: CUWYAW_clean_sbu_0, # of connection points: 6
#     Node 26, Type 0, BuildingBlock: CUWYAW_clean_sbu_0, # of connection points: 6
#     Node 27, Type 0, BuildingBlock: CUWYAW_clean_sbu_0, # of connection points: 6
#     Node 28, Type 0, BuildingBlock: CUWYAW_clean_sbu_0, # of connection points: 6
#     Node 29, Type 0, BuildingBlock: CUWYAW_clean_sbu_0, # of connection points: 6
#     Node 30, Type 0, BuildingBlock: CUWYAW_clean_sbu_0, # of connection points: 6
#     Node 31, Type 0, BuildingBlock: CUWYAW_clean_sbu_0, # of connection points: 6
#     Edge 32, Type (0, 0), BuildingBlock: EZIPEK_clean_linker_0, # of connection points: 2
#     Edge 33, Type (0, 0), BuildingBlock: EZIPEK_clean_linker_0, # of connection points: 2
#     Edge 34, Type (0, 0), BuildingBlock: EZIPEK_clean_linker_0, # of connection points: 2
#     Edge 35, Type (0, 0), BuildingBlock: EZIPEK_clean_linker_0, # of connection points: 2
#     Edge 36, Type (0, 0), BuildingBlock: EZIPEK_clean_linker_0, # of connection points: 2
#     Edge 37, Type (0, 0), BuildingBlock: EZIPEK_clean_linker_0, # of connection points: 2
#     Edge 38, Type (0, 0), BuildingBlock: EZIPEK_clean_linker_0, # of connection points: 2
#     Edge 39, Type (0, 0), BuildingBlock: EZIPEK_clean_linker_0, # of connection points: 2
#     Edge 40, Type (0, 0), BuildingBlock: EZIPEK_clean_linker_0, # of connection points: 2
#     Edge 41, Type (0, 0), BuildingBlock: EZIPEK_clean_linker_0, # of connection points: 2
#     Edge 42, Type (0, 0), BuildingBlock: EZIPEK_clean_linker_0, # of connection points: 2
#     Edge 43, Type (0, 0), BuildingBlock: EZIPEK_clean_linker_0, # of connection points: 2
#     Edge 44, Type (0, 0), BuildingBlock: EZIPEK_clean_linker_0, # of connection points: 2
#     Edge 45, Type (0, 0), BuildingBlock: EZIPEK_clean_linker_0, # of connection points: 2
#     Edge 46, Type (0, 0), BuildingBlock: EZIPEK_clean_linker_0, # of connection points: 2
#     Edge 47, Type (0, 0), BuildingBlock: EZIPEK_clean_linker_0, # of connection points: 2
#     Edge 48, Type (0, 0), BuildingBlock: EZIPEK_clean_linker_0, # of connection points: 2
#     Edge 49, Type (0, 0), BuildingBlock: EZIPEK_clean_linker_0, # of connection points: 2
#     Edge 50, Type (0, 0), BuildingBlock: EZIPEK_clean_linker_0, # of connection points: 2
#     Edge 51, Type (0, 0), BuildingBlock: EZIPEK_clean_linker_0, # of connection points: 2
#     Edge 52, Type (0, 0), BuildingBlock: EZIPEK_clean_linker_0, # of connection points: 2
#     Edge 53, Type (0, 0), BuildingBlock: EZIPEK_clean_linker_0, # of connection points: 2
#     Edge 54, Type (0, 0), BuildingBlock: EZIPEK_clean_linker_0, # of connection points: 2
#     Edge 55, Type (0, 0), BuildingBlock: EZIPEK_clean_linker_0, # of connection points: 2
#     Edge 56, Type (0, 0), BuildingBlock: EZIPEK_clean_linker_0, # of connection points: 2
#     Edge 57, Type (0, 0), BuildingBlock: EZIPEK_clean_linker_0, # of connection points: 2
#     Edge 58, Type (0, 0), BuildingBlock: EZIPEK_clean_linker_0, # of connection points: 2
#     Edge 59, Type (0, 0), BuildingBlock: EZIPEK_clean_linker_0, # of connection points: 2
#     Edge 60, Type (0, 0), BuildingBlock: EZIPEK_clean_linker_0, # of connection points: 2
#     Edge 61, Type (0, 0), BuildingBlock: EZIPEK_clean_linker_0, # of connection points: 2
#     Edge 62, Type (0, 0), BuildingBlock: EZIPEK_clean_linker_0, # of connection points: 2
#     Edge 63, Type (0, 0), BuildingBlock: EZIPEK_clean_linker_0, # of connection points: 2
#     Edge 64, Type (0, 0), BuildingBlock: EZIPEK_clean_linker_0, # of connection points: 2
#     Edge 65, Type (0, 0), BuildingBlock: EZIPEK_clean_linker_0, # of connection points: 2
#     Edge 66, Type (0, 0), BuildingBlock: EZIPEK_clean_linker_0, # of connection points: 2
#     Edge 67, Type (0, 0), BuildingBlock: EZIPEK_clean_linker_0, # of connection points: 2
#     Edge 68, Type (0, 0), BuildingBlock: EZIPEK_clean_linker_0, # of connection points: 2
#     Edge 69, Type (0, 0), BuildingBlock: EZIPEK_clean_linker_0, # of connection points: 2
#     Edge 70, Type (0, 0), BuildingBlock: EZIPEK_clean_linker_0, # of connection points: 2
#     Edge 71, Type (0, 0), BuildingBlock: EZIPEK_clean_linker_0, # of connection points: 2
#     Edge 72, Type (0, 0), BuildingBlock: EZIPEK_clean_linker_0, # of connection points: 2
#     Edge 73, Type (0, 0), BuildingBlock: EZIPEK_clean_linker_0, # of connection points: 2
#     Edge 74, Type (0, 0), BuildingBlock: EZIPEK_clean_linker_0, # of connection points: 2
#     Edge 75, Type (0, 0), BuildingBlock: EZIPEK_clean_linker_0, # of connection points: 2
#     Edge 76, Type (0, 0), BuildingBlock: EZIPEK_clean_linker_0, # of connection points: 2
#     Edge 77, Type (0, 0), BuildingBlock: EZIPEK_clean_linker_0, # of connection points: 2
#     Edge 78, Type (0, 0), BuildingBlock: EZIPEK_clean_linker_0, # of connection points: 2
#     Edge 79, Type (0, 0), BuildingBlock: EZIPEK_clean_linker_0, # of connection points: 2
#     Edge 80, Type (0, 0), BuildingBlock: EZIPEK_clean_linker_0, # of connection points: 2
#     Edge 81, Type (0, 0), BuildingBlock: EZIPEK_clean_linker_0, # of connection points: 2
#     Edge 82, Type (0, 0), BuildingBlock: EZIPEK_clean_linker_0, # of connection points: 2
#     Edge 83, Type (0, 0), BuildingBlock: EZIPEK_clean_linker_0, # of connection points: 2
#     Edge 84, Type (0, 0), BuildingBlock: EZIPEK_clean_linker_0, # of connection points: 2
#     Edge 85, Type (0, 0), BuildingBlock: EZIPEK_clean_linker_0, # of connection points: 2
#     Edge 86, Type (0, 0), BuildingBlock: EZIPEK_clean_linker_0, # of connection points: 2
#     Edge 87, Type (0, 0), BuildingBlock: EZIPEK_clean_linker_0, # of connection points: 2
#     Edge 88, Type (0, 0), BuildingBlock: EZIPEK_clean_linker_0, # of connection points: 2
#     Edge 89, Type (0, 0), BuildingBlock: EZIPEK_clean_linker_0, # of connection points: 2
#     Edge 90, Type (0, 0), BuildingBlock: EZIPEK_clean_linker_0, # of connection points: 2
#     Edge 91, Type (0, 0), BuildingBlock: EZIPEK_clean_linker_0, # of connection points: 2
#     Edge 92, Type (0, 0), BuildingBlock: EZIPEK_clean_linker_0, # of connection points: 2
#     Edge 93, Type (0, 0), BuildingBlock: EZIPEK_clean_linker_0, # of connection points: 2
#     Edge 94, Type (0, 0), BuildingBlock: EZIPEK_clean_linker_0, # of connection points: 2
#     Edge 95, Type (0, 0), BuildingBlock: EZIPEK_clean_linker_0, # of connection points: 2
#     Edge 96, Type (0, 0), BuildingBlock: EZIPEK_clean_linker_0, # of connection points: 2
#     Edge 97, Type (0, 0), BuildingBlock: EZIPEK_clean_linker_0, # of connection points: 2
#     Edge 98, Type (0, 0), BuildingBlock: EZIPEK_clean_linker_0, # of connection points: 2
#     Edge 99, Type (0, 0), BuildingBlock: EZIPEK_clean_linker_0, # of connection points: 2
#     Edge 100, Type (0, 0), BuildingBlock: EZIPEK_clean_linker_0, # of connection points: 2
#     Edge 101, Type (0, 0), BuildingBlock: EZIPEK_clean_linker_0, # of connection points: 2
#     Edge 102, Type (0, 0), BuildingBlock: EZIPEK_clean_linker_0, # of connection points: 2
#     Edge 103, Type (0, 0), BuildingBlock: EZIPEK_clean_linker_0, # of connection points: 2
#     Edge 104, Type (0, 0), BuildingBlock: EZIPEK_clean_linker_0, # of connection points: 2
#     Edge 105, Type (0, 0), BuildingBlock: EZIPEK_clean_linker_0, # of connection points: 2
#     Edge 106, Type (0, 0), BuildingBlock: EZIPEK_clean_linker_0, # of connection points: 2
#     Edge 107, Type (0, 0), BuildingBlock: EZIPEK_clean_linker_0, # of connection points: 2
#     Edge 108, Type (0, 0), BuildingBlock: EZIPEK_clean_linker_0, # of connection points: 2
#     Edge 109, Type (0, 0), BuildingBlock: EZIPEK_clean_linker_0, # of connection points: 2
#     Edge 110, Type (0, 0), BuildingBlock: EZIPEK_clean_linker_0, # of connection points: 2
#     Edge 111, Type (0, 0), BuildingBlock: EZIPEK_clean_linker_0, # of connection points: 2
#     Edge 112, Type (0, 0), BuildingBlock: EZIPEK_clean_linker_0, # of connection points: 2
#     Edge 113, Type (0, 0), BuildingBlock: EZIPEK_clean_linker_0, # of connection points: 2
#     Edge 114, Type (0, 0), BuildingBlock: EZIPEK_clean_linker_0, # of connection points: 2
#     Edge 115, Type (0, 0), BuildingBlock: EZIPEK_clean_linker_0, # of connection points: 2
#     Edge 116, Type (0, 0), BuildingBlock: EZIPEK_clean_linker_0, # of connection points: 2
#     Edge 117, Type (0, 0), BuildingBlock: EZIPEK_clean_linker_0, # of connection points: 2
#     Edge 118, Type (0, 0), BuildingBlock: EZIPEK_clean_linker_0, # of connection points: 2
#     Edge 119, Type (0, 0), BuildingBlock: EZIPEK_clean_linker_0, # of connection points: 2
#     Edge 120, Type (0, 0), BuildingBlock: EZIPEK_clean_linker_0, # of connection points: 2
#     Edge 121, Type (0, 0), BuildingBlock: EZIPEK_clean_linker_0, # of connection points: 2
#     Edge 122, Type (0, 0), BuildingBlock: EZIPEK_clean_linker_0, # of connection points: 2
#     Edge 123, Type (0, 0), BuildingBlock: EZIPEK_clean_linker_0, # of connection points: 2
#     Edge 124, Type (0, 0), BuildingBlock: EZIPEK_clean_linker_0, # of connection points: 2
#     Edge 125, Type (0, 0), BuildingBlock: EZIPEK_clean_linker_0, # of connection points: 2
#     Edge 126, Type (0, 0), BuildingBlock: EZIPEK_clean_linker_0, # of connection points: 2
#     Edge 127, Type (0, 0), BuildingBlock: EZIPEK_clean_linker_0, # of connection points: 2
# Relax obj value: 0.213
# Max RMSD: 0.239
# Mean RMSD: 0.236
data_MOF--net-son--node1-CUWYAW_clean_sbu_0--edge1-EZIPEK_clean_linker_0
_symmetry_space_group_name_H-M    P1
_symmetry_Int_Tables_number       1
_symmetry_cell_setting            triclinic
loop_
_symmetry_equiv_pos_as_xyz
'x, y, z'
_cell_length_a     62.495529
_cell_length_b     36.23117
_cell_length_c     20.614064
_cell_angle_alpha  90.069132
_cell_angle_beta   89.890921
_cell_angle_gamma 89.940893
loop_
_atom_site_label
_atom_site_type_symbol
_atom_site_fract_x
_atom_site_fract_y
_atom_site_fract_z
_atom_type_partial_charge
C0 C 0.25225 0.25961 0.41102 0.0
Eu1 Eu 0.26998 0.25457 0.29718 0.0
C2 C 0.26053 0.26106 0.47836 0.0
C3 C 0.27482 0.23433 0.50239 0.0
C4 C 0.28257 0.23675 0.56608 0.0
C5 C 0.27577 0.26537 0.60743 0.0
C6 C 0.26177 0.29233 0.58298 0.0
C7 C 0.25441 0.29038 0.51897 0.0
C8 C 0.28401 0.19724 0.22376 0.0
C9 C 0.32237 0.24958 0.31889 0.0
C10 C 0.32082 0.29586 0.07697 0.0
Eu11 Eu 0.30352 0.28416 0.18955 0.0
C12 C 0.31378 0.28962 1.00884 0.0
C13 C 0.29875 0.31326 0.97922 0.0
C14 C 0.29265 0.30788 0.9146 0.0
C15 C 0.30134 0.27874 0.87823 0.0
C16 C 0.31607 0.25477 0.90766 0.0
C17 C 0.32225 0.26018 0.97233 0.0
C18 C 0.2943 0.33272 0.28742 0.0
C19 C 0.25257 0.26835 0.15442 0.0
O20 O 0.25665 0.28823 0.37484 0.0
O21 O 0.25385 0.22836 0.37926 0.0
O22 O 0.26959 0.19413 0.26935 0.0
O23 O 0.28947 0.23094 0.21896 0.0
O24 O 0.30259 0.24385 0.33903 0.0
O25 O 0.3273 0.2624 0.2606 0.0
O26 O 0.32525 0.26656 0.11211 0.0
O27 O 0.31047 0.32132 0.10978 0.0
O28 O 0.31108 0.33487 0.25029 0.0
O29 O 0.28186 0.30865 0.26276 0.0
O30 O 0.27224 0.27766 0.13849 0.0
O31 O 0.24628 0.26091 0.21475 0.0
H32 H 0.2802 0.2118 0.47187 0.0
H33 H 0.29365 0.21602 0.5835 0.0
H34 H 0.25649 0.31489 0.61363 0.0
H35 H 0.24363 0.31156 0.50141 0.0
H36 H 0.2918 0.33621 1.0056 0.0
H37 H 0.28137 0.3268 0.89258 0.0
H38 H 0.32295 0.23213 0.88031 0.0
H39 H 0.3338 0.24148 0.99361 0.0
C40 C 0.96344 1.00027 0.40225 0.0
Eu41 Eu 0.94283 0.99782 0.29241 0.0
C42 C 0.95657 0.99926 0.4717 0.0
C43 C 0.94538 0.0288 0.50061 0.0
C44 C 0.93844 0.02671 0.56539 0.0
C45 C 0.94309 0.99552 0.60343 0.0
C46 C 0.95424 0.96601 0.57465 0.0
C47 C 0.96086 0.96783 0.50963 0.0
C48 C 0.92512 0.05576 0.22658 0.0
C49 C 0.89227 1.0001 0.30988 0.0
C50 C 0.89827 0.95723 0.07241 0.0
Eu51 Eu 0.91493 0.97195 0.18519 0.0
C52 C 0.90524 0.96427 1.00437 0.0
C53 C 0.92391 0.94784 0.97867 0.0
C54 C 0.93004 0.95422 0.91422 0.0
C55 C 0.91783 0.97744 0.87436 0.0
C56 C 0.8994 0.99428 0.89993 0.0
C57 C 0.89315 0.9877 0.96426 0.0
C58 C 0.92119 0.92083 0.2837 0.0
C59 C 0.96438 0.98778 0.14926 0.0
O60 O 0.96073 0.9699 0.3689 0.0
O61 O 0.95909 0.02975 0.36807 0.0
O62 O 0.92647 0.05327 0.28923 0.0
O63 O 0.9321 0.02607 0.20124 0.0
O64 O 0.91039 0.98973 0.33663 0.0
O65 O 0.8907 1.00217 0.24636 0.0
O66 O 0.89267 0.98602 0.10708 0.0
O67 O 0.9095 0.93341 0.10579 0.0
O68 O 0.90359 0.9248 0.25116 0.0
O69 O 0.93488 0.94221 0.25858 0.0
O70 O 0.9459 0.97412 0.13167 0.0
O71 O 0.96796 0.99851 0.21018 0.0
H72 H 0.94181 0.05348 0.47312 0.0
H73 H 0.92962 0.04962 0.58614 0.0
H74 H 0.95776 0.94143 0.60256 0.0
H75 H 0.96934 0.94452 0.48889 0.0
H76 H 0.93376 0.92987 1.00808 0.0
H77 H 0.94419 0.94076 0.89513 0.0
H78 H 0.88975 0.01223 0.86983 0.0
H79 H 0.87877 1.00082 0.98263 0.0
C80 C 0.25293 0.00804 0.90155 0.0
Eu81 Eu 0.27105 1.00338 1.01528 0.0
C82 C 0.25983 1.00193 0.83335 0.0
C83 C 0.25713 0.03014 0.78737 0.0
C84 C 0.26347 0.0249 0.72275 0.0
C85 C 0.27277 0.99139 0.7029 0.0
C86 C 0.27572 0.96329 0.74891 0.0
C87 C 0.26919 0.96844 0.81334 0.0
C88 C 0.28294 0.05861 0.09565 0.0
C89 C 0.32333 0.99894 0.99074 0.0
C90 C 0.3163 0.95666 0.23352 0.0
Eu91 Eu 0.30097 0.97539 0.12045 0.0
C92 C 0.31116 0.96472 0.30227 0.0
C93 C 0.3212 0.94429 0.35139 0.0
C94 C 0.31506 0.9487 0.41638 0.0
C95 C 0.29868 0.97349 0.43323 0.0
C96 C 0.28873 0.99419 0.38439 0.0
C97 C 0.29486 0.98976 0.31947 0.0
C98 C 0.29175 0.92329 1.02811 0.0
C99 C 0.25253 0.99695 0.1576 0.0
O100 O 0.25131 0.97907 0.93915 0.0
O101 O 0.26143 0.03626 0.93141 0.0
O102 O 0.26437 0.05626 0.06734 0.0
O103 O 0.2952 0.03213 0.07792 0.0
O104 O 0.3038 1.00505 0.96896 0.0
O105 O 0.3273 0.9899 0.05168 0.0
O106 O 0.32461 0.98314 0.19807 0.0
O107 O 0.30165 0.93795 0.20253 0.0
O108 O 0.30825 0.92315 0.06569 0.0
O109 O 0.27888 0.94764 0.04996 0.0
O110 O 0.27262 0.99573 0.17369 0.0
O111 O 0.24628 0.99568 0.09614 0.0
H112 H 0.24995 0.0562 0.80136 0.0
H113 H 0.26111 0.04699 0.68813 0.0
H114 H 0.28299 0.93732 0.73484 0.0
H115 H 0.27162 0.9463 0.8475 0.0
H116 H 0.33353 0.92438 0.33932 0.0
H117 H 0.32289 0.93246 0.4535 0.0
H118 H 0.27618 0.01364 0.3966 0.0
H119 H 0.28661 1.00561 0.28309 0.0
C120 C 0.96561 0.25218 0.90775 0.0
Eu121 Eu 0.94811 0.25468 1.02306 0.0
C122 C 0.95797 0.25766 0.83967 0.0
C123 C 0.95778 0.22806 0.79545 0.0
C124 C 0.95082 0.23318 0.73126 0.0
C125 C 0.94379 0.26801 0.70976 0.0
C126 C 0.94388 0.29755 0.75393 0.0
C127 C 0.95111 0.29248 0.81768 0.0
C128 C 0.93778 0.20076 0.10838 0.0
C129 C 0.89601 0.25175 0.99605 0.0
C130 C 0.89718 0.28998 0.23906 0.0
Eu131 Eu 0.91587 0.28072 0.12656 0.0
C132 C 0.90364 0.28608 0.30803 0.0
C133 C 0.8904 0.29999 0.35743 0.0
C134 C 0.89662 0.29765 0.4227 0.0
C135 C 0.91625 0.28132 0.43978 0.0
C136 C 0.92951 0.26738 0.3904 0.0
C137 C 0.92326 0.26974 0.32525 0.0
C138 C 0.92363 0.3323 0.03181 0.0
C139 C 0.9668 0.2726 0.16281 0.0
O140 O 0.96622 0.28125 0.94555 0.0
O141 O 0.95886 0.22282 0.93846 0.0
O142 O 0.9565 0.20405 0.08077 0.0
O143 O 0.92484 0.22504 0.08681 0.0
O144 O 0.91587 0.24514 0.97776 0.0
O145 O 0.891 0.26415 0.05443 0.0
O146 O 0.89564 0.25957 0.20479 0.0
O147 O 0.90646 0.31662 0.20679 0.0
O148 O 0.90674 0.33147 0.06852 0.0
O149 O 0.93705 0.3095 0.05568 0.0
O150 O 0.94673 0.27663 0.17951 0.0
O151 O 0.97272 0.26685 0.10174 0.0
H152 H 0.96309 0.20093 0.8105 0.0
H153 H 0.95087 0.20989 0.69828 0.0
H154 H 0.93845 0.32464 0.73896 0.0
H155 H 0.95119 0.31584 0.84988 0.0
H156 H 0.87526 0.31287 0.34549 0.0
H157 H 0.88614 0.30862 0.45995 0.0
H158 H 0.94472 0.25472 0.40232 0.0
H159 H 0.9338 0.25883 0.28858 0.0
C160 C 0.64688 0.71471 0.98051 0.0
Eu161 Eu 0.66387 0.7302 0.86856 0.0
C162 C 0.6541 0.72044 0.04836 0.0
C163 C 0.67383 0.70631 0.07035 0.0
C164 C 0.68031 0.71165 0.13465 0.0
C165 C 0.66726 0.73134 0.17801 0.0
C166 C 0.64777 0.74596 0.15609 0.0
C167 C 0.64124 0.74054 0.09181 0.0
C168 C 0.67053 0.68026 0.76965 0.0
C169 C 0.71379 0.74253 0.90434 0.0
C170 C 0.71121 0.76038 0.64852 0.0
Eu171 Eu 0.6939 0.7559 0.76323 0.0
C172 C 0.70357 0.75505 0.58083 0.0
C173 C 0.68884 0.77966 0.55246 0.0
C174 C 0.68252 0.77535 0.48776 0.0
C175 C 0.69114 0.74687 0.44953 0.0
C176 C 0.70543 0.72172 0.47805 0.0
C177 C 0.7115 0.72567 0.54313 0.0
C178 C 0.68616 0.80996 0.85085 0.0
C179 C 0.64143 0.76308 0.74706 0.0
O180 O 0.6577 0.69082 0.94586 0.0
O181 O 0.64183 0.74433 0.94752 0.0
O182 O 0.65302 0.68309 0.80318 0.0
O183 O 0.68438 0.70105 0.7958 0.0
O184 O 0.69393 0.73954 0.92307 0.0
O185 O 0.71916 0.7451 0.84199 0.0
O186 O 0.71262 0.73087 0.68495 0.0
O187 O 0.70375 0.78895 0.68028 0.0
O188 O 0.70381 0.80633 0.81797 0.0
O189 O 0.67238 0.78663 0.83118 0.0
O190 O 0.66036 0.75844 0.71893 0.0
O191 O 0.63903 0.75836 0.80978 0.0
H192 H 0.68423 0.69089 0.03814 0.0
H193 H 0.69537 0.70011 0.15087 0.0
H194 H 0.6375 0.76121 0.189 0.0
H195 H 0.62606 0.75187 0.07608 0.0
H196 H 0.68236 0.80256 0.57993 0.0
H197 H 0.67124 0.79473 0.467 0.0
H198 H 0.71205 0.69925 0.44967 0.0
H199 H 0.7228 0.70623 0.56359 0.0
C200 C 0.07019 0.05923 0.98359 0.0
Eu201 Eu 0.05301 0.04261 0.87198 0.0
C202 C 0.06528 0.05302 0.05311 0.0
C203 C 0.069 0.08142 0.09814 0.0
C204 C 0.06441 0.07635 0.16413 0.0
C205 C 0.05622 0.04257 0.18652 0.0
C206 C 0.0523 0.01422 0.14128 0.0
C207 C 0.05666 0.01945 0.07517 0.0
C208 C 0.04558 0.09487 0.77669 0.0
C209 C 0.00382 0.02212 0.90519 0.0
C210 C 0.00761 1.00426 0.65359 0.0
Eu211 Eu 0.02707 0.01359 0.76444 0.0
C212 C 0.01582 0.00826 0.58581 0.0
C213 C 0.03468 0.9904 0.56472 0.0
C214 C 0.04255 0.9957 0.50139 0.0
C215 C 0.03201 0.01949 0.45798 0.0
C216 C 0.01339 0.03774 0.47958 0.0
C217 C 0.0054 0.03212 0.54248 0.0
C218 C 0.04704 0.95895 0.83337 0.0
C219 C 0.07732 0.01958 0.74639 0.0
O220 O 0.07584 0.03042 0.94897 0.0
O221 O 0.05719 0.08124 0.95239 0.0
O222 O 0.06329 0.0899 0.80801 0.0
O223 O 0.03208 0.07152 0.79772 0.0
O224 O 0.02181 0.03741 0.92369 0.0
O225 O 0.00112 0.01029 0.84436 0.0
O226 O 0.00647 0.03459 0.68748 0.0
O227 O 0.01491 0.97686 0.6882 0.0
O228 O 0.04618 0.9604 0.77062 0.0
O229 O 0.03806 0.98734 0.85627 0.0
O230 O 0.05874 0.02649 0.71931 0.0
O231 O 0.07924 0.01841 0.80992 0.0
H232 H 0.07539 0.10768 0.08217 0.0
H233 H 0.06722 0.09882 0.19777 0.0
H234 H 0.04566 0.98813 0.15716 0.0
H235 H 0.05328 0.99728 0.04138 0.0
H236 H 0.04341 0.97237 0.59715 0.0
H237 H 0.05686 0.98113 0.48619 0.0
H238 H 0.00486 0.05618 0.44735 0.0
H239 H -0.00895 0.04665 0.55743 0.0
C240 C 0.6486 0.0484 0.83692 0.0
Eu241 Eu 0.66635 0.03383 0.94876 0.0
C242 C 0.65474 0.04399 0.76723 0.0
C243 C 0.65892 0.07536 0.72903 0.0
C244 C 0.6647 0.07185 0.66347 0.0
C245 C 0.66679 0.03682 0.63466 0.0
C246 C 0.66272 1.00541 0.67277 0.0
C247 C 0.65647 0.00896 0.73794 0.0
C248 C 0.67266 0.08299 0.04907 0.0
C249 C 0.71679 0.02036 0.91049 0.0
C250 C 0.71494 1.00203 0.1672 0.0
Eu251 Eu 0.69797 0.00775 0.0521 0.0
C252 C 0.70702 0.00778 0.23462 0.0
C253 C 0.7105 0.98048 0.28184 0.0
C254 C 0.70309 0.98532 0.34562 0.0
C255 C 0.69188 0.01742 0.36332 0.0
C256 C 0.68808 0.0445 0.31603 0.0
C257 C 0.6956 0.03972 0.25239 0.0
C258 C 0.68881 0.95386 0.96493 0.0
C259 C 0.64602 0.99691 0.07153 0.0
O260 O 0.6445 0.01851 0.8705 0.0
O261 O 0.65946 0.07265 0.87046 0.0
O262 O 0.65521 0.0803 1.01524 0.0
O263 O 0.68683 0.06277 1.02216 0.0
O264 O 0.69686 0.02618 0.89392 0.0
O265 O 0.72275 0.01656 0.97197 0.0
O266 O 0.71727 0.03125 0.13025 0.0
O267 O 0.70665 0.97413 0.13589 0.0
O268 O 0.70666 0.95629 0.99702 0.0
O269 O 0.67574 0.97799 0.98574 0.0
O270 O 0.66501 1.00401 0.09674 0.0
O271 O 0.64207 1.00453 1.01013 0.0
H272 H 0.65763 0.10274 0.74986 0.0
H273 H 0.66767 0.09652 0.63521 0.0
H274 H 0.66413 0.97809 0.65176 0.0
H275 H 0.65293 0.98421 0.76519 0.0
H276 H 0.71917 0.95553 0.26952 0.0
H277 H 0.70628 0.96415 0.38138 0.0
H278 H 0.67962 0.06958 0.32873 0.0
H279 H 0.69256 0.06104 0.21718 0.0
C280 C 0.07928 0.72521 0.82927 0.0
Eu281 Eu 0.06121 0.73671 0.94132 0.0
C282 C 0.07229 0.72978 0.76043 0.0
C283 C 0.05938 0.70304 0.72978 0.0
C284 C 0.05318 0.70716 0.66484 0.0
C285 C 0.05967 0.73813 0.62906 0.0
C286 C 0.07229 0.76511 0.65946 0.0
C287 C 0.07859 0.76093 0.72436 0.0
C288 C 0.05396 0.68796 0.04088 0.0
C289 C 0.01077 0.74738 0.90025 0.0
C290 C 0.00869 0.75593 0.16099 0.0
Eu291 Eu 0.02705 0.76129 0.04763 0.0
C292 C 0.01728 0.75369 0.22864 0.0
C293 C 0.02598 0.78491 0.25973 0.0
C294 C 0.03411 0.78257 0.32301 0.0
C295 C 0.03304 0.74932 0.35794 0.0
C296 C 0.02449 0.71802 0.32697 0.0
C297 C 0.01692 0.72012 0.26292 0.0
C298 C 0.03837 0.82186 0.97846 0.0
C299 C 0.07904 0.77601 0.0667 0.0
O300 O 0.08236 0.75539 0.86337 0.0
O301 O 0.06993 0.69913 0.86304 0.0
O302 O 0.07191 0.69033 1.00903 0.0
O303 O 0.04031 0.70852 1.01302 0.0
O304 O 0.03063 0.73887 0.88587 0.0
O305 O 0.00415 0.75433 0.9609 0.0
O306 O 0.01196 0.72745 0.12301 0.0
O307 O 0.01108 0.78723 0.13024 0.0
O308 O 0.02437 0.82217 1.02527 0.0
O309 O 0.04553 0.78916 0.97087 0.0
O310 O 0.05997 0.76897 0.0924 0.0
O311 O 0.08353 0.76742 1.00593 0.0
H312 H 0.05406 0.6788 0.7558 0.0
H313 H 0.04338 0.68609 0.64236 0.0
H314 H 0.07738 0.78929 0.63274 0.0
H315 H 0.08848 0.78207 0.74625 0.0
H316 H 0.02657 0.8113 0.23522 0.0
H317 H 0.04074 0.80704 0.34552 0.0
H318 H 0.02362 0.69195 0.35251 0.0
H319 H 0.01039 0.69556 0.24056 0.0
C320 C 0.25744 0.74626 0.91125 0.0
Eu321 Eu 0.2746 0.75312 0.79668 0.0
C322 C 0.26467 0.75315 0.97848 0.0
C323 C 0.26009 0.72712 1.02692 0.0
C324 C 0.26666 0.73309 0.09094 0.0
C325 C 0.27804 0.76513 0.10754 0.0
C326 C 0.283 0.79092 0.05898 0.0
C327 C 0.2764 0.78494 0.99493 0.0
C328 C 0.28488 0.6994 0.71154 0.0
C329 C 0.32738 0.75292 0.81172 0.0
C330 C 0.3192 0.80089 0.57733 0.0
Eu331 Eu 0.30308 0.78239 0.68987 0.0
C332 C 0.31392 0.79383 0.50845 0.0
C333 C 0.32733 0.80752 0.45942 0.0
C334 C 0.32185 0.80306 0.39395 0.0
C335 C 0.30285 0.78488 0.37671 0.0
C336 C 0.28957 0.7708 0.4255 0.0
C337 C 0.29503 0.77529 0.49071 0.0
C338 C 0.29364 0.83287 0.78653 0.0
C339 C 0.25408 0.76086 0.65533 0.0
O340 O 0.25442 0.77511 0.87404 0.0
O341 O 0.26694 0.71912 0.88088 0.0
O342 O 0.2672 0.7008 0.74475 0.0
O343 O 0.29751 0.72514 0.72899 0.0
O344 O 0.30829 0.75415 0.83996 0.0
O345 O 0.32979 0.75913 0.74919 0.0
O346 O 0.32623 0.77299 0.61154 0.0
O347 O 0.30537 0.82099 0.60934 0.0
O348 O 0.31094 0.83249 0.75162 0.0
O349 O 0.28104 0.80912 0.7624 0.0
O350 O 0.27377 0.76622 0.6371 0.0
O351 O 0.24871 0.75877 0.71774 0.0
H352 H 0.25119 0.70233 1.01531 0.0
H353 H 0.26279 0.7128 0.12768 0.0
H354 H 0.29192 0.81566 0.07074 0.0
H355 H 0.28052 0.80507 0.95837 0.0
H356 H 0.34189 0.82208 0.4718 0.0
H357 H 0.33232 0.81402 0.35676 0.0
H358 H 0.27493 0.75649 0.413 0.0
H359 H 0.28431 0.76443 0.52668 0.0
C360 C 0.96577 0.50542 0.91092 0.0
Eu361 Eu 0.9479 0.50046 0.7973 0.0
C362 C 0.95851 0.49776 0.97826 0.0
C363 C 0.95373 0.52722 1.02032 0.0
C364 C 0.94709 0.5206 0.08411 0.0
C365 C 0.94442 0.48434 0.10664 0.0
C366 C 0.94836 0.45483 0.06395 0.0
C367 C 0.95578 0.46156 1.00093 0.0
C368 C 0.93425 0.55931 0.72448 0.0
C369 C 0.89596 0.49964 0.81167 0.0
C370 C 0.90138 0.45323 0.57666 0.0
Eu371 Eu 0.91825 0.4711 0.68788 0.0
C372 C 0.90749 0.45847 0.50804 0.0
C373 C 0.89522 0.44217 0.4589 0.0
C374 C 0.90129 0.44578 0.39379 0.0
C375 C 0.91962 0.46608 0.37685 0.0
C376 C 0.93183 0.48261 0.42598 0.0
C377 C 0.92592 0.47852 0.491 0.0
C378 C 0.92465 0.42209 0.78868 0.0
C379 C 0.96845 0.49069 0.65594 0.0
O380 O 0.96898 0.47742 0.87158 0.0
O381 O 0.95614 0.53292 0.88233 0.0
O382 O 0.94737 0.56183 0.77287 0.0
O383 O 0.92974 0.5256 0.71683 0.0
O384 O 0.91466 0.49384 0.83985 0.0
O385 O 0.89392 0.50039 0.74815 0.0
O386 O 0.89593 0.48294 0.60916 0.0
O387 O 0.91376 0.43118 0.61007 0.0
O388 O 0.90711 0.42714 0.7566 0.0
O389 O 0.93876 0.44355 0.76419 0.0
O390 O 0.94943 0.47978 0.63755 0.0
O391 O 0.97326 0.49787 0.71751 0.0
H392 H 0.95554 0.55551 1.00426 0.0
H393 H 0.94407 0.54382 0.11601 0.0
H394 H 0.94626 0.4266 0.08006 0.0
H395 H 0.95948 0.43855 0.96992 0.0
H396 H 0.88104 0.42642 0.47092 0.0
H397 H 0.89167 0.43283 0.35652 0.0
H398 H 0.94604 0.49831 0.41398 0.0
H399 H 0.93586 0.49092 0.52758 0.0
C400 C 0.25612 0.50702 0.40246 0.0
Eu401 Eu 0.27327 0.50024 0.51747 0.0
C402 C 0.26371 0.50108 0.33478 0.0
C403 C 0.2597 0.52809 0.28744 0.0
C404 C 0.26623 0.52274 0.22297 0.0
C405 C 0.27714 0.49043 0.2046 0.0
C406 C 0.28169 0.46381 0.25219 0.0
C407 C 0.27505 0.46909 0.31663 0.0
C408 C 0.28459 0.55688 0.59574 0.0
C409 C 0.32552 0.49766 0.49168 0.0
C410 C 0.31893 0.45581 0.73154 0.0
Eu411 Eu 0.30302 0.47494 0.61889 0.0
C412 C 0.31339 0.46226 0.80091 0.0
C413 C 0.32409 0.44236 0.84949 0.0
C414 C 0.31829 0.44636 0.91499 0.0
C415 C 0.30172 0.47056 0.93322 0.0
C416 C 0.29104 0.49056 0.88483 0.0
C417 C 0.29672 0.48627 0.81941 0.0
C418 C 0.29395 0.42138 0.52803 0.0
C419 C 0.25441 0.4951 0.65897 0.0
O420 O 0.25354 0.47794 0.43923 0.0
O421 O 0.26486 0.53438 0.43384 0.0
O422 O 0.26601 0.55341 0.56831 0.0
O423 O 0.29722 0.53128 0.57752 0.0
O424 O 0.30576 0.49845 0.46914 0.0
O425 O 0.32963 0.4924 0.55367 0.0
O426 O 0.32602 0.4839 0.69773 0.0
O427 O 0.30534 0.43575 0.69877 0.0
O428 O 0.31246 0.42845 0.55312 0.0
O429 O 0.28037 0.4436 0.55293 0.0
O430 O 0.27457 0.49373 0.67424 0.0
O431 O 0.24813 0.49357 0.5976 0.0
H432 H 0.25116 0.55313 0.30015 0.0
H433 H 0.26268 0.54376 0.18723 0.0
H434 H 0.29025 0.43882 0.23932 0.0
H435 H 0.27883 0.44822 0.3522 0.0
H436 H 0.33683 0.42337 0.83668 0.0
H437 H 0.32672 0.43062 0.95153 0.0
H438 H 0.27819 0.50931 0.8977 0.0
H439 H 0.28789 0.50163 0.78376 0.0
C440 C 0.95997 0.74207 0.40348 0.0
Eu441 Eu 0.94293 0.75434 0.51766 0.0
C442 C 0.95437 0.7505 0.3355 0.0
C443 C 0.96299 0.72877 0.28559 0.0
C444 C 0.95753 0.73542 0.22084 0.0
C445 C 0.94314 0.76376 0.20492 0.0
C446 C 0.93424 0.78535 0.25493 0.0
C447 C 0.93975 0.77864 0.31983 0.0
C448 C 0.93141 0.69844 0.59723 0.0
C449 C 0.89084 0.76215 0.49908 0.0
C450 C 0.90304 0.80562 0.7342 0.0
Eu451 Eu 0.91626 0.78284 0.62089 0.0
C452 C 0.9091 0.79719 0.80226 0.0
C453 C 0.89327 0.79519 0.8505 0.0
C454 C 0.89889 0.78953 0.91557 0.0
C455 C 0.92047 0.78543 0.93354 0.0
C456 C 0.9363 0.78655 0.88518 0.0
C457 C 0.9307 0.79264 0.82032 0.0
C458 C 0.92546 0.83525 0.52744 0.0
C459 C 0.96349 0.75794 0.65881 0.0
O460 O 0.96519 0.76977 0.44073 0.0
O461 O 0.94743 0.71879 0.43302 0.0
O462 O 0.94987 0.70142 0.56894 0.0
O463 O 0.91908 0.72493 0.58112 0.0
O464 O 0.91005 0.76359 0.47219 0.0
O465 O 0.88825 0.7646 0.56229 0.0
O466 O 0.89311 0.77989 0.70121 0.0
O467 O 0.91753 0.82264 0.6996 0.0
O468 O 0.90739 0.83058 0.55692 0.0
O469 O 0.93873 0.81197 0.55043 0.0
O470 O 0.94348 0.75879 0.67603 0.0
O471 O 0.9688 0.76099 0.59658 0.0
H472 H 0.97375 0.70626 0.29689 0.0
H473 H 0.96437 0.71821 0.18311 0.0
H474 H 0.92293 0.80709 0.24374 0.0
H475 H 0.93242 0.79506 0.35773 0.0
H476 H 0.87656 0.7986 0.83797 0.0
H477 H 0.88641 0.78855 0.95207 0.0
H478 H 0.95302 0.78334 0.89787 0.0
H479 H 0.94336 0.79448 0.78466 0.0
C480 C 0.642 0.21679 0.4878 0.0
Eu481 Eu 0.6608 0.22844 0.37695 0.0
C482 C 0.64753 0.22316 0.55699 0.0
C483 C 0.65244 0.19293 0.59711 0.0
C484 C 0.65792 0.19829 0.66222 0.0
C485 C 0.65835 0.23396 0.6887 0.0
C486 C 0.65347 0.26426 0.64902 0.0
C487 C 0.64817 0.25896 0.58367 0.0
C488 C 0.67086 0.17478 0.28659 0.0
C489 C 0.71061 0.24383 0.41548 0.0
C490 C 0.70919 0.25641 0.154 0.0
Eu491 Eu 0.69249 0.25425 0.26998 0.0
C492 C 0.69987 0.2542 0.08753 0.0
C493 C 0.69965 0.28564 0.04751 0.0
C494 C 0.69117 0.28401 0.98464 0.0
C495 C 0.68325 0.2506 0.95958 0.0
C496 C 0.68289 0.2194 0.99999 0.0
C497 C 0.69091 0.2213 0.06343 0.0
C498 C 0.68007 0.31561 0.33686 0.0
C499 C 0.64037 0.25391 0.24752 0.0
O500 O 0.63815 0.24583 0.45166 0.0
O501 O 0.6533 0.19168 0.45737 0.0
O502 O 0.65243 0.1796 0.31459 0.0
O503 O 0.68374 0.1988 0.30947 0.0
O504 O 0.69102 0.23497 0.43196 0.0
O505 O 0.7166 0.24977 0.35397 0.0
O506 O 0.70914 0.22672 0.19 0.0
O507 O 0.70464 0.28595 0.18756 0.0
O508 O 0.69349 0.31561 0.28901 0.0
O509 O 0.6738 0.28264 0.34684 0.0
O510 O 0.6599 0.25109 0.22383 0.0
O511 O 0.63611 0.25027 0.30959 0.0
H512 H 0.65213 0.16506 0.578 0.0
H513 H 0.6618 0.17461 0.69204 0.0
H514 H 0.65395 0.29202 0.66858 0.0
H515 H 0.64464 0.28292 0.55418 0.0
H516 H 0.70622 0.31152 0.0647 0.0
H517 H 0.69148 0.30851 0.95458 0.0
H518 H 0.67667 0.19342 0.9821 0.0
H519 H 0.69022 0.19693 0.09336 0.0
C520 C 0.06941 0.56318 0.49323 0.0
Eu521 Eu 0.05423 0.54791 0.37851 0.0
C522 C 0.06225 0.55645 0.56105 0.0
C523 C 0.04302 0.57157 0.58528 0.0
C524 C 0.03695 0.5659 0.64999 0.0
C525 C 0.04986 0.54484 0.69153 0.0
C526 C 0.06878 0.52909 0.66727 0.0
C527 C 0.07493 0.5349 0.60267 0.0
C528 C 0.04862 0.60034 0.28244 0.0
C529 C 0.00593 0.5267 0.41021 0.0
C530 C 0.00842 0.51022 0.16344 0.0
Eu531 Eu 0.02976 0.51942 0.27077 0.0
C532 C 0.01481 0.51541 0.09451 0.0
C533 C 0.03223 0.49597 0.0674 0.0
C534 C 0.03815 0.50139 1.00252 0.0
C535 C 0.02668 0.52604 0.96322 0.0
C536 C 0.00961 0.54603 0.99042 0.0
C537 C 0.00386 0.54091 0.05557 0.0
C538 C 0.04947 0.46386 0.33647 0.0
C539 C 0.08006 0.52641 0.25468 0.0
O540 O 0.07535 0.53429 0.45958 0.0
O541 O 0.05823 0.58653 0.45872 0.0
O542 O 0.06589 0.59441 0.31545 0.0
O543 O 0.03454 0.57765 0.30234 0.0
O544 O 0.02217 0.54765 0.42539 0.0
O545 O 0.00454 0.51163 0.35149 0.0
O546 O 0.0068 0.5399 0.19901 0.0
O547 O 0.01758 0.48328 0.19474 0.0
O548 O 0.04941 0.46712 0.27383 0.0
O549 O 0.0403 0.49157 0.36195 0.0
O550 O 0.06165 0.53236 0.22564 0.0
O551 O 0.08131 0.52506 0.31837 0.0
H552 H 0.03273 0.58807 0.55459 0.0
H553 H 0.02234 0.57833 0.66801 0.0
H554 H 0.07891 0.51268 0.69861 0.0
H555 H 0.08974 0.52278 0.58534 0.0
H556 H 0.04137 0.47663 0.09626 0.0
H557 H 0.05154 0.48606 0.98267 0.0
H558 H 0.00074 0.56557 0.96118 0.0
H559 H -0.00917 0.55696 0.07576 0.0
C560 C 0.65126 0.55173 0.31867 0.0
Eu561 Eu 0.66741 0.53936 0.43326 0.0
C562 C 0.65867 0.54657 0.25038 0.0
C563 C 0.67622 0.56638 0.22504 0.0
C564 C 0.68248 0.56192 0.16007 0.0
C565 C 0.67145 0.5375 0.11909 0.0
C566 C 0.65419 0.5173 0.14443 0.0
C567 C 0.64785 0.52183 0.20929 0.0
C568 C 0.6732 0.59201 0.52841 0.0
C569 C 0.71661 0.52357 0.39936 0.0
C570 C 0.71571 0.50599 0.64645 0.0
Eu571 Eu 0.69398 0.51237 0.53929 0.0
C572 C 0.70869 0.5103 0.71538 0.0
C573 C 0.69339 0.48662 0.74359 0.0
C574 C 0.68674 0.49165 0.80814 0.0
C575 C 0.69555 0.51995 0.84645 0.0
C576 C 0.71038 0.54412 0.8179 0.0
C577 C 0.7166 0.53963 0.75291 0.0
C578 C 0.67423 0.45634 0.47314 0.0
C579 C 0.64352 0.51686 0.56155 0.0
O580 O 0.64724 0.5218 0.35221 0.0
O581 O 0.66087 0.57705 0.35333 0.0
O582 O 0.65543 0.58518 0.49828 0.0
O583 O 0.68741 0.56996 0.50682 0.0
O584 O 0.69944 0.54276 0.38571 0.0
O585 O 0.71884 0.50784 0.4572 0.0
O586 O 0.71577 0.53591 0.61123 0.0
O587 O 0.70838 0.47763 0.61425 0.0
O588 O 0.67546 0.4586 0.53585 0.0
O589 O 0.68303 0.48454 0.44871 0.0
O590 O 0.66244 0.52161 0.58805 0.0
O591 O 0.64122 0.51708 0.49791 0.0
H592 H 0.68504 0.58558 0.25512 0.0
H593 H 0.69575 0.5779 0.14136 0.0
H594 H 0.64552 0.49818 0.11378 0.0
H595 H 0.63434 0.50614 0.22729 0.0
H596 H 0.68645 0.46426 0.71582 0.0
H597 H 0.67499 0.47303 0.82867 0.0
H598 H 0.71716 0.56653 0.84598 0.0
H599 H 0.72779 0.55898 0.73188 0.0
C600 C 0.07375 0.21806 0.32656 0.0
Eu601 Eu 0.05731 0.23527 0.4392 0.0
C602 C 0.06799 0.22563 0.25822 0.0
C603 C 0.08074 0.21173 0.20768 0.0
C604 C 0.07488 0.2174 0.14279 0.0
C605 C 0.05617 0.23709 0.12766 0.0
C606 C 0.04358 0.25144 0.17804 0.0
C607 C 0.04939 0.2456 0.2427 0.0
C608 C 0.04955 0.18867 0.54248 0.0
C609 C 0.00683 0.25416 0.40902 0.0
C610 C 0.00924 0.27284 0.66304 0.0
Eu611 Eu 0.02728 0.26766 0.54929 0.0
C612 C 0.01596 0.2666 0.73078 0.0
C613 C 0.00653 0.28734 0.78077 0.0
C614 C 0.01334 0.28315 0.84504 0.0
C615 C 0.02977 0.25821 0.86016 0.0
C616 C 0.0396 0.23818 0.81005 0.0
C617 C 0.03281 0.24243 0.74574 0.0
C618 C 0.04074 0.32443 0.47162 0.0
C619 C 0.07926 0.26899 0.55928 0.0
O620 O 0.08022 0.24624 0.36127 0.0
O621 O 0.0605 0.19678 0.35846 0.0
O622 O 0.06684 0.18831 0.50727 0.0
O623 O 0.03643 0.21126 0.51696 0.0
O624 O 0.02605 0.24382 0.39096 0.0
O625 O 0.00184 0.26217 0.4703 0.0
O626 O 0.00702 0.24392 0.62522 0.0
O627 O 0.01869 0.30036 0.63394 0.0
O628 O 0.0279 0.32844 0.52063 0.0
O629 O 0.04533 0.29045 0.46621 0.0
O630 O 0.06092 0.26235 0.58929 0.0
O631 O 0.08087 0.26823 0.49569 0.0
H632 H 0.09511 0.19615 0.2184 0.0
H633 H 0.08481 0.20617 0.10441 0.0
H634 H 0.02917 0.26689 0.16724 0.0
H635 H 0.03919 0.25637 0.28027 0.0
H636 H -0.00599 0.30706 0.76998 0.0
H637 H 0.00581 0.29931 0.88297 0.0
H638 H 0.05259 0.21955 0.82105 0.0
H639 H 0.04084 0.22732 0.70761 0.0
C640 C 0.76038 0.25041 0.91582 0.0
Eu641 Eu 0.77602 0.24828 0.79907 0.0
C642 C 0.77009 0.25588 0.98092 0.0
C643 C 0.78195 0.22764 1.01118 0.0
C644 C 0.79019 0.23258 0.07372 0.0
C645 C 0.78696 0.26595 0.10702 0.0
C646 C 0.77581 0.29464 0.07603 0.0
C647 C 0.76732 0.28955 1.01386 0.0
C648 C 0.78939 0.18841 0.7301 0.0
C649 C 0.82834 0.24272 0.80888 0.0
C650 C 0.82361 0.29831 0.5808 0.0
Eu651 Eu 0.80678 0.2767 0.68999 0.0
C652 C 0.81978 0.29106 0.51151 0.0
C653 C 0.82964 0.31339 0.46472 0.0
C654 C 0.8248 0.30892 0.39895 0.0
C655 C 0.81034 0.28153 0.37888 0.0
C656 C 0.80073 0.25876 0.42579 0.0
C657 C 0.80514 0.26395 0.49164 0.0
C658 C 0.7982 0.3248 0.79138 0.0
C659 C 0.75721 0.25547 0.65565 0.0
O660 O 0.76014 0.27894 0.87682 0.0
O661 O 0.76472 0.21958 0.88544 0.0
O662 O 0.77516 0.18741 0.77617 0.0
O663 O 0.7946 0.22187 0.72011 0.0
O664 O 0.80997 0.24999 0.83838 0.0
O665 O 0.83012 0.24309 0.74541 0.0
O666 O 0.8082 0.316 0.61065 0.0
O667 O 0.83149 0.27115 0.61542 0.0
O668 O 0.81618 0.32321 0.76003 0.0
O669 O 0.78538 0.30292 0.76346 0.0
O670 O 0.77712 0.26027 0.63688 0.0
O671 O 0.75139 0.25421 0.71791 0.0
H672 H 0.78456 0.20142 0.98715 0.0
H673 H 0.79866 0.21005 0.09679 0.0
H674 H 0.77308 0.32058 0.10089 0.0
H675 H 0.75832 0.31181 0.99192 0.0
H676 H 0.84072 0.33483 0.4792 0.0
H677 H 0.83223 0.32699 0.36365 0.0
H678 H 0.78936 0.23772 0.41151 0.0
H679 H 0.79678 0.24731 0.52691 0.0
C680 C 0.46211 0.01993 0.91727 0.0
Eu681 Eu 0.44588 0.00718 0.80308 0.0
C682 C 0.45734 0.00707 0.98356 0.0
C683 C 0.46534 0.0272 0.03621 0.0
C684 C 0.4585 0.01952 0.0994 0.0
C685 C 0.4436 0.99132 0.11122 0.0
C686 C 0.43544 0.97118 0.05847 0.0
C687 C 0.44202 0.97941 0.99498 0.0
C688 C 0.43172 0.06407 0.73114 0.0
C689 C 0.39502 0.99602 0.81533 0.0
C690 C 0.4039 0.95137 0.58336 0.0
Eu691 Eu 0.42015 0.97198 0.69413 0.0
C692 C 0.40911 0.95756 0.5138 0.0
C693 C 0.41417 0.92727 0.47391 0.0
C694 C 0.41939 0.93243 0.40844 0.0
C695 C 0.41986 0.96803 0.38159 0.0
C696 C 0.41484 0.9984 0.42125 0.0
C697 C 0.40935 0.9932 0.48659 0.0
C698 C 0.43147 0.92457 0.79238 0.0
C699 C 0.46674 1.00282 0.65786 0.0
O700 O 0.44674 0.03926 0.89162 0.0
O701 O 0.47091 0.99709 0.87565 0.0
O702 O 0.44162 0.06744 0.78544 0.0
O703 O 0.42772 0.03025 0.71963 0.0
O704 O 0.4136 0.99202 0.84442 0.0
O705 O 0.39339 0.99562 0.75191 0.0
O706 O 0.39672 0.97955 0.61689 0.0
O707 O 0.41751 0.93132 0.61623 0.0
O708 O 0.41313 0.925 0.76299 0.0
O709 O 0.44336 0.94928 0.76804 0.0
O710 O 0.44995 0.98382 0.64069 0.0
O711 O 0.47048 0.01227 0.7196 0.0
H712 H 0.47628 0.04986 1.0281 0.0
H713 H 0.46463 0.03589 0.13922 0.0
H714 H 0.42374 0.94959 0.06639 0.0
H715 H 0.4348 0.96478 0.9548 0.0
H716 H 0.41412 0.89953 0.49347 0.0
H717 H 0.42328 0.90868 0.37876 0.0
H718 H 0.41512 0.0261 0.40152 0.0
H719 H 0.4054 0.01713 0.51577 0.0
C720 C 0.75556 1.00274 0.40426 0.0
Eu721 Eu 0.77292 0.99546 0.51858 0.0
C722 C 0.76246 0.99577 0.33646 0.0
C723 C 0.75873 0.02279 0.28901 0.0
C724 C 0.76557 0.0174 0.22494 0.0
C725 C 0.77635 0.9849 0.2071 0.0
C726 C 0.78035 0.958 0.25462 0.0
C727 C 0.77352 0.96345 0.31877 0.0
C728 C 0.78615 0.0509 0.59765 0.0
C729 C 0.82461 0.99456 0.4979 0.0
C730 C 0.81806 0.94712 0.73689 0.0
Eu731 Eu 0.80227 0.96684 0.62469 0.0
C732 C 0.81347 0.95579 0.8059 0.0
C733 C 0.82589 0.93961 0.85494 0.0
C734 C 0.82037 0.94432 0.92046 0.0
C735 C 0.80227 0.96517 0.93787 0.0
C736 C 0.79009 0.98192 0.88911 0.0
C737 C 0.7956 0.97719 0.82385 0.0
C738 C 0.79341 0.91611 0.52888 0.0
C739 C 0.75398 0.99366 0.66204 0.0
O740 O 0.75213 0.97416 0.44189 0.0
O741 O 0.76563 0.02932 0.43413 0.0
O742 O 0.76843 0.051 0.5649 0.0
O743 O 0.79736 0.02308 0.58173 0.0
O744 O 0.80564 0.98691 0.47321 0.0
O745 O 0.82749 0.9923 0.56116 0.0
O746 O 0.82666 0.97295 0.70078 0.0
O747 O 0.80288 0.92931 0.70667 0.0
O748 O 0.81064 0.91684 0.56353 0.0
O749 O 0.78037 0.93946 0.55325 0.0
O750 O 0.77381 0.9877 0.67841 0.0
O751 O 0.74781 0.99298 0.6003 0.0
H752 H 0.75043 0.04809 0.30153 0.0
H753 H 0.7624 0.03855 0.18912 0.0
H754 H 0.78874 0.93282 0.24197 0.0
H755 H 0.77699 0.94258 0.35456 0.0
H756 H 0.8396 0.9227 0.8425 0.0
H757 H 0.83002 0.93131 0.95756 0.0
H758 H 0.7762 0.99838 0.90165 0.0
H759 H 0.78562 0.98996 0.78791 0.0
C760 C 0.46587 0.25353 0.39094 0.0
Eu761 Eu 0.44599 0.25525 0.5024 0.0
C762 C 0.45913 0.25904 0.32299 0.0
C763 C 0.46766 0.23623 0.27427 0.0
C764 C 0.46103 0.24006 0.20984 0.0
C765 C 0.44565 0.2666 0.1932 0.0
C766 C 0.43654 0.28863 0.2421 0.0
C767 C 0.44307 0.28454 0.30668 0.0
C768 C 0.43435 0.19278 0.56483 0.0
C769 C 0.39447 0.24975 0.49027 0.0
C770 C 0.39814 0.28982 0.72635 0.0
Eu771 Eu 0.41605 0.27898 0.61391 0.0
C772 C 0.40595 0.2863 0.79396 0.0
C773 C 0.4031 0.31569 0.83761 0.0
C774 C 0.4104 0.31294 0.90159 0.0
C775 C 0.42076 0.28082 0.92299 0.0
C776 C 0.42409 0.25167 0.87918 0.0
C777 C 0.41674 0.25437 0.81519 0.0
C778 C 0.42107 0.33084 0.51759 0.0
C779 C 0.46558 0.26718 0.64819 0.0
O780 O 0.46615 0.28222 0.4296 0.0
O781 O 0.45771 0.22455 0.41875 0.0
O782 O 0.4462 0.1936 0.51358 0.0
O783 O 0.42829 0.22522 0.57922 0.0
O784 O 0.41245 0.25903 0.46036 0.0
O785 O 0.39336 0.24728 0.55364 0.0
O786 O 0.3959 0.25926 0.69299 0.0
O787 O 0.40663 0.31643 0.69207 0.0
O788 O 0.40346 0.32336 0.54823 0.0
O789 O 0.43574 0.31015 0.54043 0.0
O790 O 0.44676 0.27914 0.66527 0.0
O791 O 0.47027 0.25685 0.58746 0.0
H792 H 0.47954 0.2155 0.28602 0.0
H793 H 0.46787 0.22228 0.17294 0.0
H794 H 0.42435 0.30879 0.23029 0.0
H795 H 0.4354 0.30091 0.34392 0.0
H796 H 0.39508 0.34072 0.82227 0.0
H797 H 0.40773 0.33565 0.93475 0.0
H798 H 0.43212 0.2267 0.8948 0.0
H799 H 0.41938 0.23139 0.78254 0.0
C800 C 0.14764 0.71475 0.4865 0.0
Eu801 Eu 0.16516 0.72922 0.37455 0.0
C802 C 0.15442 0.71875 0.55522 0.0
C803 C 0.15315 0.68831 0.59725 0.0
C804 C 0.15996 0.69121 0.66185 0.0
C805 C 0.16854 0.72447 0.68537 0.0
C806 C 0.1701 0.75479 0.64314 0.0
C807 C 0.16288 0.75206 0.57901 0.0
C808 C 0.17176 0.6806 0.2739 0.0
C809 C 0.2162 0.74151 0.40776 0.0
C810 C 0.21659 0.75626 0.15172 0.0
Eu811 Eu 0.19774 0.75531 0.26458 0.0
C812 C 0.20946 0.75075 0.08383 0.0
C813 C 0.2159 0.7759 0.0358 0.0
C814 C 0.20902 0.7718 0.97156 0.0
C815 C 0.19531 0.74274 0.95432 0.0
C816 C 0.1884 0.71811 1.00255 0.0
C817 C 0.19541 0.72212 0.06673 0.0
C818 C 0.18606 0.81481 0.33825 0.0
C819 C 0.14623 0.76532 0.24959 0.0
O820 O 0.14363 0.74497 0.45354 0.0
O821 O 0.15826 0.69032 0.45246 0.0
O822 O 0.15423 0.68279 0.30776 0.0
O823 O 0.18552 0.70174 0.29977 0.0
O824 O 0.19653 0.73347 0.42541 0.0
O825 O 0.22193 0.74819 0.34656 0.0
O826 O 0.21707 0.7275 0.19044 0.0
O827 O 0.20894 0.78569 0.18013 0.0
O828 O 0.19937 0.81637 0.28996 0.0
O829 O 0.18004 0.78164 0.34488 0.0
O830 O 0.16422 0.75367 0.22228 0.0
O831 O 0.14366 0.76414 0.31307 0.0
H832 H 0.14685 0.66222 0.5801 0.0
H833 H 0.15857 0.66749 0.69351 0.0
H834 H 0.17659 0.78076 0.66021 0.0
H835 H 0.16379 0.77607 0.54827 0.0
H836 H 0.22641 0.79863 0.0479 0.0
H837 H 0.21437 0.79131 0.93523 0.0
H838 H 0.17773 0.69565 0.99029 0.0
H839 H 0.18975 0.70307 0.10301 0.0
C840 C 0.5791 0.0586 0.48576 0.0
Eu841 Eu 0.56002 0.04711 0.37486 0.0
C842 C 0.57252 0.05659 0.55547 0.0
C843 C 0.5668 0.08882 0.58975 0.0
C844 C 0.56083 0.08714 0.65536 0.0
C845 C 0.56021 0.05316 0.68817 0.0
C846 C 0.56587 0.02096 0.65415 0.0
C847 C 0.57207 0.02265 0.58878 0.0
C848 C 0.55416 0.09761 0.27588 0.0
C849 C 0.51073 0.038 0.4165 0.0
C850 C 0.50983 0.02368 0.15538 0.0
Eu851 Eu 0.52776 0.0237 0.26958 0.0
C852 C 0.51804 0.02982 0.08796 0.0
C853 C 0.52446 0.9997 0.04908 0.0
C854 C 0.5321 1.00517 0.98576 0.0
C855 C 0.53361 0.04086 0.95965 0.0
C856 C 0.52747 0.07103 0.99846 0.0
C857 C 0.51946 0.06541 0.06139 0.0
C858 C 0.53741 0.96139 0.33701 0.0
C859 C 0.57879 0.01147 0.25185 0.0
O860 O 0.58047 0.02751 0.45353 0.0
O861 O 0.57068 0.08502 0.45083 0.0
O862 O 0.57231 0.08984 0.30358 0.0
O863 O 0.5398 0.07805 0.30311 0.0
O864 O 0.52957 0.05178 0.42883 0.0
O865 O 0.50469 0.02794 0.35676 0.0
O866 O 0.50853 0.05191 0.19534 0.0
O867 O 0.51687 0.99404 0.18419 0.0
O868 O 0.5239 0.9628 0.28961 0.0
O869 O 0.54501 0.99353 0.34755 0.0
O870 O 0.56099 0.02366 0.22499 0.0
O871 O 0.58107 0.01132 0.31504 0.0
H872 H 0.56699 0.11544 0.5659 0.0
H873 H 0.55652 0.11236 0.6805 0.0
H874 H 0.56559 0.99446 0.67843 0.0
H875 H 0.57647 0.99726 0.56436 0.0
H876 H 0.52342 0.97176 0.0674 0.0
H877 H 0.5367 0.98145 0.95685 0.0
H878 H 0.52831 0.09882 0.97933 0.0
H879 H 0.51386 0.08873 0.08891 0.0
C880 C 0.15293 0.05871 0.32751 0.0
Eu881 Eu 0.16889 0.03863 0.43926 0.0
C882 C 0.15784 0.05154 0.25847 0.0
C883 C 0.14498 0.06729 0.21014 0.0
C884 C 0.15024 0.06284 0.14449 0.0
C885 C 0.16848 0.04259 0.1264 0.0
C886 C 0.18118 0.02641 0.17451 0.0
C887 C 0.17594 0.03092 0.23998 0.0
C888 C 0.17729 0.08934 0.53605 0.0
C889 C 0.21769 0.01732 0.40568 0.0
C890 C 0.21341 1.003 0.66066 0.0
Eu891 Eu 0.19674 0.01016 0.54565 0.0
C892 C 0.20638 0.01057 0.72788 0.0
C893 C 0.20988 0.98384 0.77591 0.0
C894 C 0.20323 0.99008 0.83981 0.0
C895 C 0.19293 0.02316 0.85675 0.0
C896 C 0.18909 0.04976 0.80862 0.0
C897 C 0.19574 0.04348 0.74461 0.0
C898 C 0.18676 0.95547 0.46139 0.0
C899 C 0.14427 0.0095 0.55849 0.0
O900 O 0.14537 0.03121 0.36164 0.0
O901 O 0.16735 0.07758 0.35912 0.0
O902 O 0.15963 0.08714 0.50332 0.0
O903 O 0.19047 0.06648 0.51179 0.0
O904 O 0.19799 0.02132 0.38679 0.0
O905 O 0.22289 0.01641 0.46809 0.0
O906 O 0.21715 0.03138 0.62297 0.0
O907 O 0.2033 0.97643 0.63081 0.0
O908 O 0.20444 0.95744 0.49424 0.0
O909 O 0.17412 0.9813 0.47842 0.0
O910 O 0.16297 0.01347 0.58787 0.0
O911 O 0.14263 0.01218 0.49522 0.0
H912 H 0.13103 0.08347 0.22322 0.0
H913 H 0.14024 0.07544 0.10781 0.0
H914 H 0.19522 0.01051 0.16129 0.0
H915 H 0.18621 0.01852 0.27566 0.0
H916 H 0.2179 0.95817 0.76403 0.0
H917 H 0.20623 0.96917 0.87622 0.0
H918 H 0.18099 0.07533 0.82068 0.0
H919 H 0.19248 0.06423 0.70831 0.0
C920 C 0.55853 0.73513 0.31263 0.0
Eu921 Eu 0.55037 0.73556 0.43499 0.0
C922 C 0.56319 0.73493 0.24291 0.0
C923 C 0.55836 0.703 0.20729 0.0
C924 C 0.55436 0.70527 0.14069 0.0
C925 C 0.55564 0.73936 0.10849 0.0
C926 C 0.5621 0.77078 0.14331 0.0
C927 C 0.56548 0.76869 0.21025 0.0
C928 C 0.54345 0.6794 0.52103 0.0
C929 C 0.50125 0.73646 0.40044 0.0
C930 C 0.50499 0.7664 0.64666 0.0
Eu931 Eu 0.52259 0.75909 0.53304 0.0
C932 C 0.51353 0.75983 0.71268 0.0
C933 C 0.53127 0.77978 0.73604 0.0
C934 C 0.53884 0.77405 0.79897 0.0
C935 C 0.52881 0.74836 0.83963 0.0
C936 C 0.51167 0.72739 0.81587 0.0
C937 C 0.50419 0.73292 0.75266 0.0
C938 C 0.53286 0.81693 0.45586 0.0
C939 C 0.57495 0.75827 0.55637 0.0
O940 O 0.54605 0.7599 0.3392 0.0
O941 O 0.56832 0.7127 0.35318 0.0
O942 O 0.56155 0.68608 0.49153 0.0
O943 O 0.52923 0.70191 0.50057 0.0
O944 O 0.51855 0.71633 0.39843 0.0
O945 O 0.49776 0.75669 0.45246 0.0
O946 O 0.50218 0.73727 0.61022 0.0
O947 O 0.51331 0.79389 0.61449 0.0
O948 O 0.51361 0.80882 0.47479 0.0
O949 O 0.54591 0.79267 0.4765 0.0
O950 O 0.55538 0.75766 0.58085 0.0
O951 O 0.57829 0.75392 0.49381 0.0
H952 H 0.5557 0.67698 0.23186 0.0
H953 H 0.54931 0.68074 0.1148 0.0
H954 H 0.56314 0.79734 0.11941 0.0
H955 H 0.5684 0.79388 0.23717 0.0
H956 H 0.53922 0.80016 0.7061 0.0
H957 H 0.55217 0.7903 0.81656 0.0
H958 H 0.50389 0.70723 0.84663 0.0
H959 H 0.49081 0.71672 0.7354 0.0
C960 C 0.75321 0.7492 0.40803 0.0
Eu961 Eu 0.77121 0.75178 0.29409 0.0
C962 C 0.76095 0.75743 0.47466 0.0
C963 C 0.77856 0.73837 0.5012 0.0
C964 C 0.78486 0.74455 0.56541 0.0
C965 C 0.7737 0.76981 0.60448 0.0
C966 C 0.75671 0.78997 0.57749 0.0
C967 C 0.7504 0.78383 0.51312 0.0
C968 C 0.78452 0.69189 0.22385 0.0
C969 C 0.82359 0.75151 0.311 0.0
C970 C 0.81822 0.79751 0.07478 0.0
Eu971 Eu 0.80206 0.77967 0.18672 0.0
C972 C 0.81095 0.79272 1.00649 0.0
C973 C 0.79401 0.81404 0.98117 0.0
C974 C 0.7876 0.80994 0.91652 0.0
C975 C 0.7979 0.78442 0.87584 0.0
C976 C 0.81455 0.76271 0.90096 0.0
C977 C 0.82104 0.76686 0.96563 0.0
C978 C 0.79381 0.82986 0.28453 0.0
C979 C 0.75212 0.7611 0.15113 0.0
O980 O 0.75073 0.77702 0.36832 0.0
O981 O 0.76172 0.72055 0.3794 0.0
O982 O 0.77045 0.69066 0.27008 0.0
O983 O 0.78976 0.72531 0.21535 0.0
O984 O 0.80455 0.75669 0.33795 0.0
O985 O 0.82637 0.75158 0.24774 0.0
O986 O 0.824 0.76772 0.10641 0.0
O987 O 0.80712 0.82037 0.11088 0.0
O988 O 0.81204 0.82453 0.25598 0.0
O989 O 0.78026 0.80795 0.25893 0.0
O990 O 0.77166 0.76955 0.13355 0.0
O991 O 0.74647 0.75559 0.2127 0.0
H992 H 0.78731 0.7182 0.47281 0.0
H993 H 0.79816 0.72901 0.58515 0.0
H994 H 0.74805 0.8099 0.60668 0.0
H995 H 0.73688 0.79895 0.49393 0.0
H996 H 0.78575 0.83416 1.01101 0.0
H997 H 0.77483 0.82709 0.89782 0.0
H998 H 0.82264 0.74279 0.87029 0.0
H999 H 0.83406 0.74999 0.9836 0.0
C1000 C 0.46058 0.49677 0.3967 0.0
Eu1001 Eu 0.44329 0.4916 0.28207 0.0
C1002 C 0.4527 0.49115 0.46377 0.0
C1003 C 0.45778 0.51696 0.51218 0.0
C1004 C 0.45038 0.51219 0.5758 0.0
C1005 C 0.43757 0.48173 0.59183 0.0
C1006 C 0.43198 0.45639 0.54323 0.0
C1007 C 0.43942 0.4612 0.47968 0.0
C1008 C 0.43461 0.54755 0.19993 0.0
C1009 C 0.39113 0.50046 0.29886 0.0
C1010 C 0.39546 0.45166 0.06424 0.0
Eu1011 Eu 0.41304 0.46718 0.17565 0.0
C1012 C 0.40152 0.45617 0.99483 0.0
C1013 C 0.40614 0.42479 0.95707 0.0
C1014 C 0.41191 0.4282 0.89166 0.0
C1015 C 0.41346 0.46318 0.86271 0.0
C1016 C 0.40906 0.49465 0.90041 0.0
C1017 C 0.40293 0.49118 0.96558 0.0
C1018 C 0.41913 0.41633 0.27304 0.0
C1019 C 0.46275 0.4823 0.1389 0.0
O1020 O 0.46258 0.46752 0.35958 0.0
O1021 O 0.45224 0.52479 0.366 0.0
O1022 O 0.45248 0.54347 0.23115 0.0
O1023 O 0.42128 0.52291 0.21702 0.0
O1024 O 0.40987 0.4939 0.32659 0.0
O1025 O 0.38851 0.49569 0.23611 0.0
O1026 O 0.39077 0.48136 0.09781 0.0
O1027 O 0.40693 0.42812 0.09742 0.0
O1028 O 0.40186 0.41949 0.23879 0.0
O1029 O 0.43327 0.43707 0.24788 0.0
O1030 O 0.44288 0.47854 0.12077 0.0
O1031 O 0.46831 0.48368 0.20122 0.0
H1032 H 0.46767 0.54064 0.50091 0.0
H1033 H 0.45483 0.53204 0.61271 0.0
H1034 H 0.42207 0.43274 0.55467 0.0
H1035 H 0.4348 0.44161 0.44296 0.0
H1036 H 0.40521 0.39752 0.97829 0.0
H1037 H 0.41525 0.40356 0.8636 0.0
H1038 H 0.41013 0.5219 0.87908 0.0
H1039 H 0.3992 0.51589 0.99282 0.0
C1040 C 0.75944 0.50764 0.8991 0.0
Eu1041 Eu 0.7752 0.49611 1.01442 0.0
C1042 C 0.76691 0.50058 0.83206 0.0
C1043 C 0.76589 0.52904 0.78616 0.0
C1044 C 0.77214 0.52282 0.72187 0.0
C1045 C 0.78018 0.48827 0.70286 0.0
C1046 C 0.7823 0.46027 0.7495 0.0
C1047 C 0.77573 0.46643 0.8136 0.0
C1048 C 0.78613 0.55217 0.09463 0.0
C1049 C 0.82707 0.48908 0.995 0.0
C1050 C 0.8178 0.44873 0.23112 0.0
Eu1051 Eu 0.80224 0.46861 0.1187 0.0
C1052 C 0.81318 0.45697 0.30002 0.0
C1053 C 0.82632 0.44207 0.3485 0.0
C1054 C 0.82127 0.44722 0.41414 0.0
C1055 C 0.80295 0.46727 0.43211 0.0
C1056 C 0.78997 0.48267 0.38383 0.0
C1057 C 0.79506 0.47761 0.31837 0.0
C1058 C 0.79294 0.41506 1.02791 0.0
C1059 C 0.75376 0.49235 0.15322 0.0
O1060 O 0.75445 0.47913 0.93488 0.0
O1061 O 0.77022 0.53235 0.93131 0.0
O1062 O 0.76797 0.54917 0.06502 0.0
O1063 O 0.7987 0.526 0.07832 0.0
O1064 O 0.80789 0.48736 0.96853 0.0
O1065 O 0.82976 0.48682 0.05805 0.0
O1066 O 0.82604 0.4752 0.19595 0.0
O1067 O 0.80289 0.4306 0.20027 0.0
O1068 O 0.81116 0.42009 0.05619 0.0
O1069 O 0.77969 0.43876 0.04998 0.0
O1070 O 0.77359 0.48914 0.17168 0.0
O1071 O 0.74863 0.49141 0.09085 0.0
H1072 H 0.75999 0.55606 0.79995 0.0
H1073 H 0.77067 0.54496 0.68686 0.0
H1074 H 0.78886 0.43363 0.73612 0.0
H1075 H 0.77767 0.44468 0.84872 0.0
H1076 H 0.84032 0.42597 0.3356 0.0
H1077 H 0.8315 0.43526 0.45091 0.0
H1078 H 0.77584 0.49839 0.39688 0.0
H1079 H 0.78466 0.4896 0.28261 0.0
C1080 C 0.46001 0.72701 0.8929 0.0
Eu1081 Eu 0.44572 0.74035 1.00954 0.0
C1082 C 0.45156 0.73382 0.8264 0.0
C1083 C 0.43693 0.70914 0.79782 0.0
C1084 C 0.42903 0.71543 0.73531 0.0
C1085 C 0.43569 0.74635 0.69979 0.0
C1086 C 0.45002 0.77139 0.72823 0.0
C1087 C 0.45783 0.76526 0.79101 0.0
C1088 C 0.43548 0.69319 0.104 0.0
C1089 C 0.39257 0.74672 1.00478 0.0
C1090 C 0.41336 0.80207 0.22952 0.0
Eu1091 Eu 0.42199 0.77978 0.11144 0.0
C1092 C 0.40972 0.79302 0.29834 0.0
C1093 C 0.41664 0.81924 0.34379 0.0
C1094 C 0.4187 0.81009 0.40916 0.0
C1095 C 0.41353 0.77456 0.4308 0.0
C1096 C 0.40567 0.74851 0.38594 0.0
C1097 C 0.40407 0.75752 0.31974 0.0
C1098 C 0.43241 0.82436 1.00917 0.0
C1099 C 0.47116 0.75722 0.14065 0.0
O1100 O 0.46577 0.75592 0.92686 0.0
O1101 O 0.44988 0.70261 0.92812 0.0
O1102 O 0.45299 0.69166 0.06987 0.0
O1103 O 0.42326 0.71929 0.08516 0.0
O1104 O 0.41081 0.73769 0.97648 0.0
O1105 O 0.39188 0.76047 0.0638 0.0
O1106 O 0.43222 0.79316 0.20824 0.0
O1107 O 0.39845 0.79819 0.18544 0.0
O1108 O 0.41594 0.82964 0.0463 0.0
O1109 O 0.44405 0.79948 0.0336 0.0
O1110 O 0.45467 0.77806 0.15302 0.0
O1111 O 0.47282 0.73959 0.08447 0.0
H1112 H 0.43163 0.68475 0.82352 0.0
H1113 H 0.41803 0.69578 0.71402 0.0
H1114 H 0.4554 0.79536 0.70145 0.0
H1115 H 0.46898 0.78492 0.81156 0.0
H1116 H 0.42172 0.84636 0.32796 0.0
H1117 H 0.42499 0.83044 0.44263 0.0
H1118 H 0.40179 0.7208 0.40174 0.0
H1119 H 0.39935 0.73648 0.28526 0.0
C1120 C 0.15144 0.22271 0.98022 0.0
Eu1121 Eu 0.16973 0.23222 0.86796 0.0
C1122 C 0.15841 0.22779 0.04857 0.0
C1123 C 0.17739 0.21157 0.07207 0.0
C1124 C 0.18342 0.21601 0.13707 0.0
C1125 C 0.17069 0.23683 0.17968 0.0
C1126 C 0.15195 0.25352 0.15621 0.0
C1127 C 0.14588 0.24904 0.09125 0.0
C1128 C 0.17854 0.18166 0.77378 0.0
C1129 C 0.22026 0.24494 0.90409 0.0
C1130 C 0.21805 0.2615 0.64828 0.0
Eu1131 Eu 0.20131 0.26 0.76386 0.0
C1132 C 0.20938 0.25785 0.58138 0.0
C1133 C 0.19541 0.28439 0.55488 0.0
C1134 C 0.18801 0.28093 0.49096 0.0
C1135 C 0.1947 0.25128 0.4518 0.0
C1136 C 0.20815 0.22427 0.47879 0.0
C1137 C 0.21533 0.22745 0.5429 0.0
C1138 C 0.19054 0.31262 0.84985 0.0
C1139 C 0.14933 0.26282 0.73875 0.0
O1140 O 0.16061 0.19602 0.94744 0.0
O1141 O 0.14886 0.25271 0.94555 0.0
O1142 O 0.16143 0.18157 0.80968 0.0
O1143 O 0.19168 0.20483 0.79756 0.0
O1144 O 0.20059 0.23691 0.9206 0.0
O1145 O 0.22603 0.25229 0.84347 0.0
O1146 O 0.21749 0.23179 0.68425 0.0
O1147 O 0.21328 0.2914 0.68104 0.0
O1148 O 0.20886 0.31145 0.81932 0.0
O1149 O 0.17793 0.28787 0.82852 0.0
O1150 O 0.16898 0.27053 0.72 0.0
O1151 O 0.14474 0.249 0.7964 0.0
H1152 H 0.18753 0.19521 0.04049 0.0
H1153 H 0.19786 0.20285 0.15447 0.0
H1154 H 0.14197 0.26982 0.18835 0.0
H1155 H 0.13128 0.262 0.07438 0.0
H1156 H 0.19025 0.30792 0.58333 0.0
H1157 H 0.1774 0.30181 0.47151 0.0
H1158 H 0.21337 0.20097 0.4498 0.0
H1159 H 0.22599 0.20653 0.56199 0.0
C1160 C 0.56706 0.5644 0.975 0.0
Eu1161 Eu 0.5513 0.54351 0.86384 0.0
C1162 C 0.56127 0.5597 0.04437 0.0
C1163 C 0.56173 0.59032 0.08623 0.0
C1164 C 0.55578 0.58669 0.15153 0.0
C1165 C 0.54869 0.55256 0.17572 0.0
C1166 C 0.54811 0.52198 0.13384 0.0
C1167 C 0.55461 0.52545 0.0691 0.0
C1168 C 0.54467 0.58864 0.75882 0.0
C1169 C 0.50199 0.51706 0.89588 0.0
C1170 C 0.50354 0.50585 0.64029 0.0
Eu1171 Eu 0.52234 0.50987 0.75277 0.0
C1172 C 0.50988 0.51454 0.57267 0.0
C1173 C 0.50724 0.48774 0.52401 0.0
C1174 C 0.51392 0.49469 0.46029 0.0
C1175 C 0.52356 0.52845 0.44428 0.0
C1176 C 0.52636 0.5552 0.4928 0.0
C1177 C 0.5196 0.54825 0.55644 0.0
C1178 C 0.53716 0.4535 0.82785 0.0
C1179 C 0.5742 0.50782 0.74326 0.0
O1180 O 0.57393 0.53525 0.94316 0.0
O1181 O 0.55385 0.58457 0.9408 0.0
O1182 O 0.56144 0.58959 0.79574 0.0
O1183 O 0.53114 0.56657 0.78402 0.0
O1184 O 0.52033 0.53145 0.91407 0.0
O1185 O 0.49744 0.50916 0.83429 0.0
O1186 O 0.50052 0.5334 0.68084 0.0
O1187 O 0.5139 0.47839 0.66663 0.0
O1188 O 0.52467 0.44917 0.77817 0.0
O1189 O 0.54088 0.48769 0.83514 0.0
O1190 O 0.55597 0.51407 0.71247 0.0
O1191 O 0.57587 0.51262 0.80653 0.0
H1192 H 0.56674 0.61708 0.06839 0.0
H1193 H 0.55649 0.61056 0.18312 0.0
H1194 H 0.54293 0.4953 0.1516 0.0
H1195 H 0.55459 0.50132 0.03863 0.0
H1196 H 0.49994 0.46141 0.53533 0.0
H1197 H 0.51159 0.47375 0.42343 0.0
H1198 H 0.53369 0.58145 0.48124 0.0
H1199 H 0.52208 0.56904 0.59301 0.0
C1200 C 0.15015 0.55391 0.82756 0.0
Eu1201 Eu 0.16736 0.53856 0.93968 0.0
C1202 C 0.15622 0.54824 0.75882 0.0
C1203 C 0.14296 0.56171 0.70936 0.0
C1204 C 0.14895 0.55793 0.64411 0.0
C1205 C 0.16827 0.54046 0.62743 0.0
C1206 C 0.18146 0.52669 0.67674 0.0
C1207 C 0.17555 0.53075 0.74182 0.0
C1208 C 0.1742 0.5898 0.03615 0.0
C1209 C 0.2179 0.52199 0.90683 0.0
C1210 C 0.21623 0.50702 0.16236 0.0
Eu1211 Eu 0.19818 0.5122 0.04884 0.0
C1212 C 0.2092 0.51379 0.22993 0.0
C1213 C 0.21382 0.48741 0.27776 0.0
C1214 C 0.20669 0.49233 0.34159 0.0
C1215 C 0.1948 0.52374 0.35869 0.0
C1216 C 0.18968 0.54974 0.31069 0.0
C1217 C 0.19661 0.54452 0.24663 0.0
C1218 C 0.18606 0.45176 0.97863 0.0
C1219 C 0.14609 0.51099 0.06549 0.0
O1220 O 0.1453 0.5244 0.86124 0.0
O1221 O 0.16211 0.57702 0.86014 0.0
O1222 O 0.15632 0.58388 1.00627 0.0
O1223 O 0.18831 0.56804 1.0126 0.0
O1224 O 0.19852 0.53122 0.88911 0.0
O1225 O 0.22324 0.51572 0.9683 0.0
O1226 O 0.21905 0.53541 0.12381 0.0
O1227 O 0.2065 0.47973 0.13367 0.0
O1228 O 0.19964 0.45119 1.02587 0.0
O1229 O 0.18034 0.48487 0.96948 0.0
O1230 O 0.16494 0.51723 0.09237 0.0
O1231 O 0.14338 0.51041 1.00223 0.0
H1232 H 0.12805 0.57545 0.72121 0.0
H1233 H 0.13857 0.56873 0.60661 0.0
H1234 H 0.19638 0.51304 0.66474 0.0
H1235 H 0.18624 0.5204 0.77839 0.0
H1236 H 0.22303 0.46297 0.26573 0.0
H1237 H 0.21055 0.47172 0.37778 0.0
H1238 H 0.18018 0.57384 0.32272 0.0
H1239 H 0.19185 0.56407 0.21003 0.0
C1240 C 0.56976 0.21043 0.81738 0.0
Eu1241 Eu 0.55455 0.23225 0.9293 0.0
C1242 C 0.56481 0.21713 0.74818 0.0
C1243 C 0.57638 0.19832 0.69996 0.0
C1244 C 0.57123 0.20289 0.63429 0.0
C1245 C 0.55437 0.22629 0.61593 0.0
C1246 C 0.54278 0.24511 0.66397 0.0
C1247 C 0.54794 0.24054 0.72951 0.0
C1248 C 0.54856 0.18113 1.02759 0.0
C1249 C 0.50607 0.25383 0.89499 0.0
C1250 C 0.51052 0.2695 0.15041 0.0
Eu1251 Eu 0.52661 0.25949 0.03465 0.0
C1252 C 0.51774 0.26206 0.21737 0.0
C1253 C 0.51009 0.28409 0.2684 0.0
C1254 C 0.51667 0.27752 0.33224 0.0
C1255 C 0.53119 0.24902 0.34598 0.0
C1256 C 0.53933 0.22752 0.29479 0.0
C1257 C 0.53277 0.23421 0.23086 0.0
C1258 C 0.53727 0.31515 0.95293 0.0
C1259 C 0.57869 0.25897 0.04791 0.0
O1260 O 0.57788 0.23789 0.85057 0.0
O1261 O 0.55515 0.1925 0.85003 0.0
O1262 O 0.56609 0.18732 0.99611 0.0
O1263 O 0.53419 0.20221 1.0037 0.0
O1264 O 0.52594 0.25197 0.87672 0.0
O1265 O 0.50067 0.25179 0.95718 0.0
O1266 O 0.50598 0.24101 0.11385 0.0
O1267 O 0.52129 0.29464 0.11917 0.0
O1268 O 0.51923 0.31276 0.98396 0.0
O1269 O 0.54966 0.28912 0.96959 0.0
O1270 O 0.55996 0.2544 0.07655 0.0
O1271 O 0.58081 0.25829 0.98458 0.0
H1272 H 0.58927 0.1798 0.71314 0.0
H1273 H 0.58033 0.1881 0.59779 0.0
H1274 H 0.52972 0.26325 0.65067 0.0
H1275 H 0.53859 0.25517 0.76516 0.0
H1276 H 0.49877 0.30611 0.25895 0.0
H1277 H 0.51037 0.29459 0.37102 0.0
H1278 H 0.55075 0.20569 0.30434 0.0
H1279 H 0.53955 0.2179 0.19198 0.0
C1280 C 0.23643 0.28594 0.98589 0.0
C1281 C 0.23432 0.24964 0.9613 0.0
C1282 C 0.23828 0.22497 0.07204 0.0
C1283 C 0.23911 0.2616 0.09661 0.0
N1284 N 0.23454 0.32649 0.0798 0.0
N1285 N 0.23421 0.18429 0.97841 0.0
C1286 C 0.23661 0.2919 0.05409 0.0
C1287 C 0.23578 0.21902 1.00396 0.0
N1288 N 0.2387 0.31458 0.9436 0.0
N1289 N 0.24027 0.19607 0.11412 0.0
H1290 H 0.23372 0.17978 0.92836 0.0
H1291 H 0.2334 0.16017 1.00551 0.0
H1292 H 0.24051 0.19984 0.16424 0.0
H1293 H 0.24148 0.16854 0.10037 0.0
H1294 H 0.24152 0.34173 0.95779 0.0
H1295 H 0.24042 0.3101 0.89393 0.0
H1296 H 0.23095 0.34983 0.05246 0.0
H1297 H 0.2344 0.33093 0.1299 0.0
C1298 C 0.98461 0.04313 1.00517 0.0
C1299 C -0.01106 0.01401 0.96064 0.0
C1300 C 0.98361 0.96906 0.04884 0.0
C1301 C 0.97835 0.99781 0.09285 0.0
N1302 N 0.97217 0.06265 0.11145 0.0
N1303 N -0.0136 0.94934 0.93678 0.0
C1304 C 0.97856 0.03504 0.07063 0.0
C1305 C -0.01339 0.97698 0.98158 0.0
N1306 N -0.01328 0.07879 0.98449 0.0
N1307 N -0.01418 0.93394 0.07195 0.0
H1308 H -0.01341 0.95477 0.88725 0.0
H1309 H 0.98292 0.92202 0.9481 0.0
H1310 H 0.98395 0.92772 0.12111 0.0
H1311 H -0.00849 0.912 0.04412 0.0
H1312 H -0.01325 0.1016 1.01521 0.0
H1313 H -0.01092 0.08536 0.93568 0.0
H1314 H 0.96883 0.08948 0.09655 0.0
H1315 H 0.96967 0.05845 0.16077 0.0
C1316 C 0.23424 0.97542 0.32491 0.0
C1317 C 0.23254 0.01171 0.35036 0.0
C1318 C 0.23595 0.03695 0.24013 0.0
C1319 C 0.23835 1.00086 0.21476 0.0
N1320 N 0.24039 0.93545 0.23162 0.0
N1321 N 0.2359 0.07689 0.3352 0.0
C1322 C 0.23734 0.96996 0.25696 0.0
C1323 C 0.2349 0.04241 0.30855 0.0
N1324 N 0.23259 0.94626 0.36633 0.0
N1325 N 0.23433 0.06586 0.19806 0.0
H1326 H 0.23534 0.08092 0.38538 0.0
H1327 H 0.23913 0.10073 0.30883 0.0
H1328 H 0.23384 0.06167 0.14804 0.0
H1329 H 0.23131 0.09297 0.21213 0.0
H1330 H 0.23076 0.91891 0.35192 0.0
H1331 H 0.23335 0.95005 0.41633 0.0
H1332 H 0.24225 0.91165 0.25918 0.0
H1333 H 0.24143 0.93088 0.18166 0.0
C1334 C -0.00721 0.22933 0.30625 0.0
C1335 C -0.00788 0.25847 0.3525 0.0
C1336 C 0.9793 0.30021 0.26673 0.0
C1337 C 0.9815 0.2715 0.21982 0.0
N1338 N -0.0049 0.21134 0.19292 0.0
N1339 N -0.01381 0.32288 0.37569 0.0
C1340 C -0.01009 0.23694 0.239 0.0
C1341 C 0.98552 0.29422 0.3326 0.0
N1342 N -0.00357 0.19416 0.3275 0.0
N1343 N 0.97067 0.33317 0.24796 0.0
H1344 H -0.0104 0.31929 0.42469 0.0
H1345 H 0.98425 0.35042 0.36263 0.0
H1346 H 0.96802 0.33968 0.19928 0.0
H1347 H 0.96527 0.35313 0.28039 0.0
H1348 H -0.00369 0.17104 0.29757 0.0
H1349 H -0.00225 0.18788 0.37678 0.0
H1350 H 0.00282 0.18655 0.20304 0.0
H1351 H -0.00616 0.21675 0.14348 0.0
C1352 C 0.73096 0.71441 1.00095 0.0
C1353 C 0.72889 0.74569 0.95991 0.0
C1354 C 0.73422 0.78627 0.05429 0.0
C1355 C 0.73775 0.75523 0.09461 0.0
N1356 N 0.74054 0.68942 0.10652 0.0
N1357 N 0.73345 0.81076 0.94477 0.0
C1358 C 0.73626 0.71913 0.06793 0.0
C1359 C 0.73205 0.78146 0.98599 0.0
N1360 N 0.72714 0.68017 0.97566 0.0
N1361 N 0.7331 0.8205 0.08199 0.0
H1362 H 0.73387 0.80696 0.89469 0.0
H1363 H 0.7369 0.83759 0.95954 0.0
H1364 H 0.73449 0.82429 0.13206 0.0
H1365 H 0.72881 0.84426 0.05678 0.0
H1366 H 0.72569 0.65633 1.00342 0.0
H1367 H 0.72474 0.676 0.92605 0.0
H1368 H 0.74237 0.66259 0.08929 0.0
H1369 H 0.74279 0.69201 0.15643 0.0
C1370 C 0.73913 0.0386 0.74402 0.0
C1371 C 0.73994 1.00184 0.7192 0.0
C1372 C 0.73445 0.97878 0.83039 0.0
C1373 C 0.73122 0.01522 0.85354 0.0
N1374 N 0.72904 0.08013 0.83144 0.0
N1375 N 0.73472 0.93711 0.73788 0.0
C1376 C 0.73329 0.04518 0.80991 0.0
C1377 C 0.73623 0.97205 0.76234 0.0
N1378 N 0.7447 0.06738 0.70521 0.0
N1379 N 0.7366 0.95075 0.87392 0.0
H1380 H 0.73587 0.93177 0.68818 0.0
H1381 H 0.73026 0.91436 0.76562 0.0
H1382 H 0.73751 0.95596 0.92353 0.0
H1383 H 0.74031 0.9237 0.86098 0.0
H1384 H 0.74764 0.094 0.72212 0.0
H1385 H 0.74694 0.06407 0.65587 0.0
H1386 H 0.72725 0.10275 0.80077 0.0
H1387 H 0.7264 0.08607 0.8804 0.0
C1388 C 0.9758 0.72262 0.75635 0.0
C1389 C 0.97883 0.75317 0.71384 0.0
C1390 C 0.00299 0.78 0.79434 0.0
C1391 C -0.00292 0.75264 0.84122 0.0
N1392 N 0.9752 0.70016 0.86737 0.0
N1393 N -0.00845 0.81555 0.70147 0.0
C1394 C 0.98246 0.72483 0.82251 0.0
C1395 C -0.00866 0.78322 0.73542 0.0
N1396 N 0.96735 0.69074 0.73244 0.0
N1397 N 0.02036 0.80208 0.80406 0.0
H1398 H 0.98325 0.81915 0.6581 0.0
H1399 H -0.00129 0.8395 0.71924 0.0
H1400 H 0.02973 0.80098 0.84558 0.0
H1401 H 0.02647 0.8194 0.76816 0.0
H1402 H 0.9661 0.66649 0.7593 0.0
H1403 H 0.96423 0.68752 0.6832 0.0
H1404 H 0.96301 0.68133 0.85773 0.0
H1405 H 0.97998 0.701 0.91582 0.0
C1406 C 0.23412 0.78137 0.48954 0.0
C1407 C 0.23082 0.74546 0.46423 0.0
C1408 C 0.23756 0.71925 0.5726 0.0
C1409 C 0.23941 0.75541 0.59904 0.0
N1410 N 0.23637 0.82086 0.58496 0.0
N1411 N 0.23049 0.67995 0.47888 0.0
C1412 C 0.23664 0.78642 0.55786 0.0
C1413 C 0.23311 0.71431 0.50518 0.0
N1414 N 0.23514 0.81055 0.44776 0.0
N1415 N 0.24043 0.68965 0.61236 0.0
H1416 H 0.22861 0.67594 0.42903 0.0
H1417 H 0.23018 0.65558 0.50527 0.0
H1418 H 0.24107 0.69283 0.66231 0.0
H1419 H 0.24186 0.66242 0.59697 0.0
H1420 H 0.23919 0.83726 0.46169 0.0
H1421 H 0.23377 0.80719 0.39769 0.0
H1422 H 0.23283 0.84486 0.55942 0.0
H1423 H 0.23782 0.82483 0.63496 0.0
C1424 C -0.01193 0.47016 0.55666 0.0
C1425 C 0.98281 0.49927 0.60011 0.0
C1426 C -0.01416 0.54352 0.51009 0.0
C1427 C -0.0072 0.51505 0.46754 0.0
N1428 N 0.00226 0.45084 0.45251 0.0
N1429 N 0.98065 0.56442 0.62099 0.0
C1430 C -0.00575 0.47816 0.49131 0.0
C1431 C 0.98308 0.53622 0.57758 0.0
N1432 N -0.01352 0.43451 0.57776 0.0
N1433 N 0.98156 0.57765 0.48509 0.0
H1434 H 0.97911 0.55984 0.67067 0.0
H1435 H 0.98238 0.59216 0.60896 0.0
H1436 H 0.98288 0.58323 0.43555 0.0
H1437 H 0.97475 0.59908 0.51177 0.0
H1438 H -0.01294 0.41165 0.54713 0.0
H1439 H 0.98364 0.42798 0.62636 0.0
H1440 H 0.00688 0.42502 0.46968 0.0
H1441 H 0.00486 0.45413 0.40307 0.0
C1442 C 0.23699 0.53681 0.73841 0.0
C1443 C 0.24028 0.50019 0.71636 0.0
C1444 C 0.23401 0.47754 0.82771 0.0
C1445 C 0.23208 0.5145 0.85022 0.0
N1446 N 0.23595 0.57927 0.82983 0.0
N1447 N 0.24389 0.43561 0.74044 0.0
C1448 C 0.23507 0.54408 0.80617 0.0
C1449 C 0.2392 0.47052 0.76132 0.0
N1450 N 0.23527 0.56452 0.69399 0.0
N1451 N 0.23006 0.4491 0.8694 0.0
H1452 H 0.24619 0.42935 0.69145 0.0
H1453 H 0.24634 0.41332 0.77138 0.0
H1454 H 0.22757 0.45326 0.91882 0.0
H1455 H 0.22854 0.42168 0.85501 0.0
H1456 H 0.23149 0.59171 0.70579 0.0
H1457 H 0.23518 0.55906 0.64436 0.0
H1458 H 0.23984 0.60216 0.8017 0.0
H1459 H 0.23477 0.58486 0.87945 0.0
C1460 C 0.74534 0.21994 0.5588 0.0
C1461 C 0.74204 0.2505 0.60089 0.0
C1462 C 0.71845 0.27768 0.51963 0.0
C1463 C 0.72461 0.25016 0.47311 0.0
N1464 N 0.74625 0.19709 0.44804 0.0
N1465 N 0.72793 0.31166 0.6166 0.0
C1466 C 0.73898 0.22209 0.49248 0.0
C1467 C 0.7294 0.28039 0.57977 0.0
N1468 N 0.75371 0.18817 0.5834 0.0
N1469 N 0.70119 0.29988 0.50865 0.0
H1470 H 0.73478 0.31385 0.66257 0.0
H1471 H 0.721 0.33598 0.59959 0.0
H1472 H 0.69213 0.29854 0.46661 0.0
H1473 H 0.69469 0.31727 0.54389 0.0
H1474 H 0.75473 0.16368 0.55704 0.0
H1475 H 0.7571 0.18546 0.6327 0.0
H1476 H 0.75817 0.17784 0.45834 0.0
H1477 H 0.74176 0.19801 0.39934 0.0
C1478 C 0.73274 0.47811 0.31972 0.0
C1479 C 0.73039 0.51517 0.34134 0.0
C1480 C 0.73689 0.53679 0.22952 0.0
C1481 C 0.7387 0.49983 0.20779 0.0
N1482 N 0.73459 0.43532 0.22848 0.0
N1483 N 0.7357 0.57962 0.32055 0.0
C1484 C 0.73533 0.47054 0.25205 0.0
C1485 C 0.73414 0.54445 0.29698 0.0
N1486 N 0.73401 0.45038 0.36419 0.0
N1487 N 0.73708 0.56444 0.1847 0.0
H1488 H 0.73452 0.58534 0.37011 0.0
H1489 H 0.74014 0.60231 0.29275 0.0
H1490 H 0.73686 0.55865 0.13519 0.0
H1491 H 0.73484 0.59223 0.19557 0.0
H1492 H 0.73713 0.42299 0.35239 0.0
H1493 H 0.73501 0.45559 0.41366 0.0
H1494 H 0.73037 0.41243 0.25613 0.0
H1495 H 0.73626 0.42969 0.179 0.0
C1496 C 0.50025 1.0041 0.58974 0.0
C1497 C 0.47927 0.01698 0.60101 0.0
C1498 C 0.47856 0.0445 0.49046 0.0
C1499 C 0.49859 0.02835 0.47692 0.0
N1500 N 0.5281 0.98963 0.51215 0.0
N1501 N 0.4472 0.04625 0.55846 0.0
C1502 C 0.50937 0.0075 0.52644 0.0
C1503 C 0.46816 0.03648 0.55043 0.0
N1504 N 0.51135 0.98805 0.63939 0.0
N1505 N 0.46976 0.0686 0.447 0.0
H1506 H 0.43866 0.04168 0.60081 0.0
H1507 H 0.43765 0.0568 0.52161 0.0
H1508 H 0.47654 0.07395 0.40172 0.0
H1509 H 0.45672 0.08551 0.45755 0.0
H1510 H 0.52739 0.98058 0.63684 0.0
H1511 H 0.50497 0.98464 0.68573 0.0
H1512 H 0.53545 0.97055 0.54246 0.0
H1513 H 0.53549 0.99073 0.46705 0.0
C1514 C 0.49043 0.2899 0.73337 0.0
C1515 C 0.47913 0.25984 0.70626 0.0
C1516 C 0.48162 0.22754 0.81174 0.0
C1517 C 0.49108 0.25898 0.84001 0.0
N1518 N 0.49897 0.32363 0.83161 0.0
N1519 N 0.45796 0.20544 0.72899 0.0
C1520 C 0.4938 0.29127 0.80175 0.0
C1521 C 0.47321 0.22993 0.74794 0.0
N1522 N 0.49753 0.3175 0.69385 0.0
N1523 N 0.48075 0.19514 0.84542 0.0
H1524 H 0.45001 0.20811 0.68525 0.0
H1525 H 0.4515 0.18543 0.75959 0.0
H1526 H 0.4855 0.19306 0.89379 0.0
H1527 H 0.4764 0.17017 0.82398 0.0
H1528 H 0.50742 0.33878 0.70984 0.0
H1529 H 0.49518 0.31681 0.64372 0.0
H1530 H 0.49987 0.34887 0.80764 0.0
H1531 H 0.49961 0.32558 0.88194 0.0
C1532 C 0.48798 0.78148 0.24091 0.0
C1533 C 0.48474 0.75053 0.1997 0.0
C1534 C 0.48736 0.71002 0.29583 0.0
C1535 C 0.48971 0.74136 0.33688 0.0
N1536 N 0.48436 0.80695 0.34883 0.0
N1537 N 0.48602 0.68478 0.18616 0.0
C1538 C 0.48785 0.77716 0.3096 0.0
C1539 C 0.48577 0.71453 0.22678 0.0
N1540 N 0.49103 0.81539 0.2136 0.0
N1541 N 0.48582 0.676 0.324 0.0
H1542 H 0.48779 0.68763 0.13623 0.0
H1543 H 0.48679 0.65749 0.20124 0.0
H1544 H 0.48596 0.67258 0.3743 0.0
H1545 H 0.48244 0.65178 0.29906 0.0
H1546 H 0.49568 0.83858 0.24 0.0
H1547 H 0.49108 0.81917 0.1634 0.0
H1548 H 0.48139 0.83342 0.33135 0.0
H1549 H 0.48096 0.80435 0.398 0.0
C1550 C 0.48376 0.53498 0.99783 0.0
C1551 C 0.48795 0.5068 0.95184 0.0
C1552 C 0.47929 0.46041 0.03561 0.0
C1553 C 0.47752 0.48875 0.0831 0.0
N1554 N 0.48272 0.5523 0.11121 0.0
N1555 N 0.4917 0.44173 0.9291 0.0
C1556 C 0.48121 0.52584 0.06454 0.0
C1557 C 0.48604 0.46918 0.97115 0.0
N1558 N 0.48229 0.57071 0.97718 0.0
N1559 N 0.47405 0.42504 0.05219 0.0
H1560 H 0.4965 0.44697 0.88174 0.0
H1561 H 0.49296 0.41407 0.94217 0.0
H1562 H 0.47076 0.41736 0.1 0.0
H1563 H 0.47203 0.40387 1.01855 0.0
H1564 H 0.47741 0.59243 1.00688 0.0
H1565 H 0.48383 0.5778 0.92828 0.0
H1566 H 0.48633 0.57982 0.1017 0.0
H1567 H 0.48309 0.54528 0.16007 0.0
C1568 C 0.35542 0.26202 0.47173 0.0
C1569 C 0.37483 0.24485 0.45187 0.0
C1570 C 0.35872 0.22565 0.34926 0.0
C1571 C 0.33964 0.24451 0.36708 0.0
N1572 N 0.31832 0.27514 0.45059 0.0
N1573 N 0.39249 0.19972 0.38467 0.0
C1574 C 0.33731 0.25995 0.43063 0.0
C1575 C 0.3758 0.22361 0.39426 0.0
N1576 N 0.35463 0.2829 0.52727 0.0
N1577 N 0.36049 0.20938 0.28961 0.0
H1578 H 0.40457 0.19574 0.41886 0.0
H1579 H 0.39327 0.1809 0.34655 0.0
H1580 H 0.34751 0.20561 0.25859 0.0
H1581 H 0.37498 0.20045 0.27008 0.0
H1582 H 0.34095 0.29464 0.54704 0.0
H1583 H 0.36791 0.29129 0.55344 0.0
H1584 H 0.31435 0.28003 0.49877 0.0
H1585 H 0.30597 0.28322 0.42025 0.0
C1586 C 0.83668 0.00898 0.38485 0.0
C1587 C 0.8421 1.00504 0.45165 0.0
C1588 C 0.8788 0.01805 0.41911 0.0
C1589 C 0.87404 0.00763 0.35427 0.0
N1590 N 0.8463 0.98727 0.27908 0.0
N1591 N 0.87152 1.00542 0.53079 0.0
C1592 C 0.85237 1.00146 0.33752 0.0
C1593 C 0.86406 0.00951 0.46898 0.0
N1594 N 0.81723 0.0223 0.36614 0.0
N1595 N 0.89693 0.03742 0.43307 0.0
H1596 H 0.86234 1.00038 0.57161 0.0
H1597 H 0.88788 1.00505 0.54081 0.0
H1598 H 0.90719 0.04712 0.39706 0.0
H1599 H 0.8999 0.04823 0.4791 0.0
H1600 H 0.81333 0.02637 0.31752 0.0
H1601 H 0.80677 0.0349 0.39885 0.0
H1602 H 0.83039 0.98025 0.26982 0.0
H1603 H 0.85689 0.97862 0.24326 0.0
C1604 C 0.37549 0.02521 0.90721 0.0
C1605 C 0.37577 0.99914 0.85592 0.0
C1606 C 0.3399 0.97893 0.88519 0.0
C1607 C 0.34104 1.00049 0.94312 0.0
N1608 N 0.3607 0.04321 1.01093 0.0
N1609 N 0.35991 0.94593 0.80382 0.0
C1610 C 0.35915 0.02316 0.95494 0.0
C1611 C 0.35839 0.97479 0.84648 0.0
N1612 N 0.3902 0.05314 0.90838 0.0
N1613 N 0.3214 0.96186 0.86652 0.0
H1614 H 0.37325 0.94095 0.77488 0.0
H1615 H 0.34873 0.92462 0.80184 0.0
H1616 H 0.30768 0.96014 0.89459 0.0
H1617 H 0.31932 0.95065 0.82037 0.0
H1618 H 0.38961 0.075 0.94117 0.0
H1619 H 0.40168 0.05671 0.87212 0.0
H1620 H 0.37482 0.05592 1.02574 0.0
H1621 H 0.34822 0.04584 0.04422 0.0
C1622 C 0.84604 0.21903 0.90817 0.0
C1623 C 0.8476 0.23965 0.84991 0.0
C1624 C 0.8825 0.2631 0.88371 0.0
C1625 C 0.87932 0.24698 0.94612 0.0
N1626 N 0.85772 0.21005 1.01875 0.0
N1627 N 0.86671 0.28476 0.78439 0.0
C1628 C 0.86094 0.22518 0.95879 0.0
C1629 C 0.8659 0.26184 0.83727 0.0
N1630 N 0.83071 0.19233 0.91376 0.0
N1631 N 0.90112 0.28099 0.86879 0.0
H1632 H 0.85472 0.28777 0.75018 0.0
H1633 H 0.87866 0.30418 0.77641 0.0
H1634 H 0.9123 0.28979 0.90254 0.0
H1635 H 0.90588 0.28622 0.82134 0.0
H1636 H 0.82982 0.17381 0.95225 0.0
H1637 H 0.82015 0.18619 0.87627 0.0
H1638 H 0.84316 0.1988 0.03338 0.0
H1639 H 0.86922 0.21008 0.05523 0.0
C1640 C 0.60866 0.78882 0.59838 0.0
C1641 C 0.59287 0.7608 0.60297 0.0
C1642 C 0.6039 0.74778 0.71386 0.0
C1643 C 0.62243 0.76966 0.70512 0.0
N1644 N 0.6413 0.81528 0.64231 0.0
N1645 N 0.57962 0.70709 0.65937 0.0
C1646 C 0.62451 0.79143 0.64799 0.0
C1647 C 0.59175 0.73838 0.65903 0.0
N1648 N 0.60798 0.81372 0.54868 0.0
N1649 N 0.59734 0.73644 0.77381 0.0
H1650 H 0.57162 0.69798 0.61831 0.0
H1651 H 0.57984 0.68808 0.69733 0.0
H1652 H 0.60378 0.74621 0.81694 0.0
H1653 H 0.58305 0.72222 0.78077 0.0
H1654 H 0.61778 0.83688 0.54593 0.0
H1655 H 0.59654 0.81277 0.51202 0.0
H1656 H 0.64536 0.82872 0.59943 0.0
H1657 H 0.65139 0.82129 0.68114 0.0
C1658 C 0.0975 0.043 0.65266 0.0
C1659 C 0.09591 0.01647 0.7026 0.0
C1660 C 0.12484 0.98109 0.65199 0.0
C1661 C 0.12489 1.00643 0.59938 0.0
N1662 N 0.10631 0.05531 0.5415 0.0
N1663 N 0.1058 0.95682 0.74531 0.0
C1664 C 0.10923 0.03471 0.59626 0.0
C1665 C 0.10901 0.98448 0.70141 0.0
N1666 N 0.08885 0.07726 0.66115 0.0
N1667 N 0.13985 0.95369 0.65422 0.0
H1668 H 0.09441 0.95838 0.7821 0.0
H1669 H 0.11339 0.93126 0.74269 0.0
H1670 H 0.1501 0.94809 0.61542 0.0
H1671 H 0.14256 0.9374 0.69497 0.0
H1672 H 0.09079 0.09901 0.62868 0.0
H1673 H 0.0826 0.0854 0.70553 0.0
H1674 H 0.09437 0.07524 0.53749 0.0
H1675 H 0.11414 0.05058 0.49787 0.0
C1676 C 0.63349 0.98627 0.18425 0.0
C1677 C 0.62868 0.98576 0.11731 0.0
C1678 C 0.59096 0.98293 0.1474 0.0
C1679 C 0.59624 0.99829 0.209 0.0
N1680 N 0.62482 0.01828 0.28203 0.0
N1681 N 0.60171 0.97388 0.03573 0.0
C1682 C 0.61813 1.00057 0.22723 0.0
C1683 C 0.60701 0.98118 0.09856 0.0
N1684 N 0.65242 0.97271 0.20685 0.0
N1685 N 0.57123 0.96782 0.13712 0.0
H1686 H 0.6129 0.96546 1.00127 0.0
H1687 H 0.58604 0.97547 1.01868 0.0
H1688 H 0.56006 0.96448 0.17434 0.0
H1689 H 0.56706 0.95414 0.09451 0.0
H1690 H 0.65602 0.97165 0.25615 0.0
H1691 H 0.66287 0.95785 0.17705 0.0
H1692 H 0.64103 0.02229 0.29171 0.0
H1693 H 0.61488 0.03341 0.31257 0.0
C1694 C 0.11835 0.79046 0.09285 0.0
C1695 C 0.09651 0.78828 0.11161 0.0
C1696 C 0.10673 0.77916 0.22403 0.0
C1697 C 0.12876 0.77846 0.20577 0.0
N1698 N 0.15418 0.80433 0.12917 0.0
N1699 N 0.07302 0.80786 0.19784 0.0
C1700 C 0.13428 0.79043 0.14194 0.0
C1701 C 0.09167 0.79182 0.17823 0.0
N1702 N 0.12411 0.79381 1.02937 0.0
N1703 N 0.09944 0.76557 0.2817 0.0
H1704 H 0.06262 0.8204 0.16495 0.0
H1705 H 0.06982 0.81338 0.24657 0.0
H1706 H 0.10867 0.75105 0.31476 0.0
H1707 H 0.08314 0.76464 0.2925 0.0
H1708 H 0.13967 0.7887 1.01354 0.0
H1709 H 0.11363 0.8025 0.99331 0.0
H1710 H 0.15847 0.81559 0.08452 0.0
H1711 H 0.16538 0.80946 0.16545 0.0
C1712 C 0.36134 0.7753 0.86178 0.0
C1713 C 0.34629 0.74659 0.85387 0.0
C1714 C 0.36157 0.71561 0.94939 0.0
C1715 C 0.37352 0.74787 0.9627 0.0
N1716 N 0.37848 0.81265 0.94289 0.0
N1717 N 0.33231 0.68797 0.88898 0.0
C1718 C 0.37147 0.77905 0.9223 0.0
C1719 C 0.34643 0.71622 0.89763 0.0
N1720 N 0.3659 0.79921 0.8126 0.0
N1721 N 0.36487 0.6846 0.98557 0.0
H1722 H 0.32267 0.68614 0.84788 0.0
H1723 H 0.32988 0.66706 0.92281 0.0
H1724 H 0.37506 0.68439 1.02566 0.0
H1725 H 0.35828 0.65901 0.97431 0.0
H1726 H 0.37734 0.81992 0.817 0.0
H1727 H 0.35953 0.79668 0.76624 0.0
H1728 H 0.37665 0.8368 0.91608 0.0
H1729 H 0.38339 0.81673 0.99049 0.0
C1730 C 0.87636 0.52501 0.9077 0.0
C1731 C 0.8769 0.50029 0.85397 0.0
C1732 C 0.8478 0.46475 0.90169 0.0
C1733 C 0.84562 0.49156 0.95119 0.0
N1734 N 0.85574 0.55033 0.99697 0.0
N1735 N 0.85948 0.45114 0.79326 0.0
C1736 C 0.85937 0.52256 0.9533 0.0
C1737 C 0.86142 0.47177 0.84852 0.0
N1738 N 0.89215 0.55069 0.91548 0.0
N1739 N 0.83773 0.43149 0.90724 0.0
H1740 H 0.8689 0.45443 0.75221 0.0
H1741 H 0.8468 0.43298 0.78556 0.0
H1742 H 0.82858 0.42473 0.94753 0.0
H1743 H 0.84062 0.40924 0.87635 0.0
H1744 H 0.89415 0.56612 0.95768 0.0
H1745 H 0.90409 0.55508 0.88115 0.0
H1746 H 0.86375 0.57551 0.99582 0.0
H1747 H 0.84356 0.54946 0.03154 0.0
C1748 C 0.36014 0.52546 0.45116 0.0
C1749 C 0.34288 0.50044 0.4432 0.0
C1750 C 0.35273 0.49176 0.32976 0.0
C1751 C 0.37255 0.50925 0.34139 0.0
N1752 N 0.39418 0.54772 0.41074 0.0
N1753 N 0.32632 0.4527 0.37807 0.0
C1754 C 0.37599 0.52759 0.40163 0.0
C1755 C 0.34019 0.48158 0.38337 0.0
N1756 N 0.36086 0.54843 0.50379 0.0
N1757 N 0.34541 0.4855 0.26836 0.0
H1758 H 0.31779 0.44261 0.41746 0.0
H1759 H 0.32535 0.43615 0.33674 0.0
H1760 H 0.35236 0.49717 0.22738 0.0
H1761 H 0.33036 0.47421 0.25924 0.0
H1762 H 0.37199 0.56957 0.50903 0.0
H1763 H 0.34922 0.54863 0.54001 0.0
H1764 H 0.39933 0.55704 0.45589 0.0
H1765 H 0.40429 0.55461 0.37243 0.0
C1766 C 0.85643 0.78161 0.35461 0.0
C1767 C 0.84232 0.751 0.35452 0.0
C1768 C 0.85994 0.72682 0.45209 0.0
C1769 C 0.87219 0.75963 0.45556 0.0
N1770 N 0.87667 0.82271 0.42221 0.0
N1771 N 0.82922 0.69565 0.4059 0.0
C1772 C 0.86892 0.78826 0.41019 0.0
C1773 C 0.8436 0.72397 0.40435 0.0
N1774 N 0.85817 0.80446 0.30218 0.0
N1775 N 0.86435 0.69805 0.49277 0.0
H1776 H 0.8181 0.69137 0.36911 0.0
H1777 H 0.82762 0.67762 0.44489 0.0
H1778 H 0.87585 0.69958 0.52927 0.0
H1779 H 0.85758 0.67195 0.48783 0.0
H1780 H 0.86979 0.82501 0.29886 0.0
H1781 H 0.85 0.80047 0.25895 0.0
H1782 H 0.87298 0.84561 0.39383 0.0
H1783 H 0.88405 0.82914 0.46574 0.0
C1784 C 0.62352 0.22734 0.14991 0.0
C1785 C 0.623 0.25459 0.19943 0.0
C1786 C 0.59654 0.28972 0.13869 0.0
C1787 C 0.59721 0.26224 0.08992 0.0
N1788 N 0.61417 0.20901 0.04121 0.0
N1789 N 0.60599 0.3076 0.2481 0.0
C1790 C 0.61177 0.23256 0.09265 0.0
C1791 C 0.60869 0.28483 0.19594 0.0
N1792 N 0.63382 0.19478 0.16067 0.0
N1793 N 0.58465 0.32087 0.12858 0.0
H1794 H 0.61351 0.30289 0.29212 0.0
H1795 H 0.59473 0.32871 0.25051 0.0
H1796 H 0.57657 0.32542 0.08507 0.0
H1797 H 0.58432 0.34349 0.15969 0.0
H1798 H 0.63395 0.17242 0.12901 0.0
H1799 H 0.63972 0.18842 0.20599 0.0
H1800 H 0.62647 0.18973 0.03742 0.0
H1801 H 0.60537 0.21088 0.99868 0.0
C1802 C 0.11043 0.48883 0.20912 0.0
C1803 C 0.09917 0.52269 0.21334 0.0
C1804 C 0.11418 0.54267 0.11033 0.0
C1805 C 0.12742 0.511 0.10907 0.0
N1806 N 0.14008 0.45551 0.16093 0.0
N1807 N 0.09698 0.58619 0.18107 0.0
C1808 C 0.12616 0.48453 0.1598 0.0
C1809 C 0.103 0.55089 0.1677 0.0
N1810 N 0.10571 0.46056 0.25052 0.0
N1811 N 0.11207 0.56498 0.05738 0.0
H1812 H 0.09114 0.59319 0.22656 0.0
H1813 H 0.10089 0.60859 0.15164 0.0
H1814 H 0.11879 0.55891 1.01248 0.0
H1815 H 0.10129 0.58697 0.05592 0.0
H1816 H 0.11166 0.43389 0.24481 0.0
H1817 H 0.09488 0.46321 0.28873 0.0
H1818 H 0.14164 0.43766 0.2002 0.0
H1819 H 0.15089 0.45062 0.12349 0.0
C1820 C 0.60898 0.48559 0.59655 0.0
C1821 C 0.62503 0.51277 0.6063 0.0
C1822 C 0.61257 0.52101 0.71739 0.0
C1823 C 0.59364 0.50128 0.70307 0.0
N1824 N 0.57409 0.46275 0.62748 0.0
N1825 N 0.6373 0.56406 0.67167 0.0
C1826 C 0.59186 0.48302 0.64196 0.0
C1827 C 0.6254 0.53277 0.66546 0.0
N1828 N 0.6106 0.46083 0.54681 0.0
N1829 N 0.61877 0.52824 0.77958 0.0
H1830 H 0.64525 0.57562 0.63246 0.0
H1831 H 0.63673 0.58084 0.71282 0.0
H1832 H 0.61179 0.51578 0.81979 0.0
H1833 H 0.6332 0.54139 0.79024 0.0
H1834 H 0.60035 0.4384 0.54131 0.0
H1835 H 0.62355 0.46013 0.51519 0.0
H1836 H 0.57064 0.45345 0.5808 0.0
H1837 H 0.56239 0.45627 0.66162 0.0
C1838 C 0.13478 0.25122 0.62792 0.0
C1839 C 0.13228 0.26764 0.69032 0.0
C1840 C 0.09764 0.29289 0.65796 0.0
C1841 C 0.09874 0.27211 0.59949 0.0
N1842 N 0.1174 0.22602 0.53415 0.0
N1843 N 0.11122 0.30339 0.76617 0.0
C1844 C 0.11723 0.25055 0.58488 0.0
C1845 C 0.11366 0.28821 0.70582 0.0
N1846 N 0.15357 0.23459 0.60997 0.0
N1847 N 0.0816 0.31813 0.66689 0.0
H1848 H 0.12347 0.30453 0.80033 0.0
H1849 H 0.09669 0.31353 0.78353 0.0
H1850 H 0.06948 0.32255 0.63329 0.0
H1851 H 0.08128 0.33712 0.70482 0.0
H1852 H 0.1574 0.2288 0.56183 0.0
H1853 H 0.16574 0.22716 0.64165 0.0
H1854 H 0.12915 0.2059 0.52793 0.0
H1855 H 0.10489 0.22194 0.50198 0.0
C1856 C 0.29716 0.29651 0.69587 0.0
C1857 C 0.28328 0.26743 0.67638 0.0
C1858 C 0.28126 0.24562 0.78952 0.0
C1859 C 0.29548 0.27418 0.80847 0.0
N1860 N 0.31972 0.32318 0.77966 0.0
N1861 N 0.26411 0.21152 0.70255 0.0
C1862 C 0.30414 0.29872 0.7616 0.0
C1863 C 0.27603 0.24103 0.72261 0.0
N1864 N 0.30367 0.32213 0.65135 0.0
N1865 N 0.27208 0.2238 0.83605 0.0
H1866 H 0.25836 0.20856 0.65545 0.0
H1867 H 0.26077 0.18876 0.73153 0.0
H1868 H 0.27547 0.22639 0.88536 0.0
H1869 H 0.26004 0.20469 0.82699 0.0
H1870 H 0.31116 0.34681 0.66349 0.0
H1871 H 0.30075 0.31954 0.6018 0.0
H1872 H 0.32839 0.33933 0.74727 0.0
H1873 H 0.32527 0.32553 0.82717 0.0
C1874 C 0.94549 0.01523 0.72181 0.0
C1875 C 0.93583 0.99298 0.67295 0.0
C1876 C 0.91439 0.96118 0.75621 0.0
C1877 C 0.92397 0.98324 0.80501 0.0
N1878 N 0.94889 0.03046 0.83681 0.0
N1879 N 0.90712 0.95255 0.64197 0.0
C1880 C 0.93951 0.0103 0.78839 0.0
C1881 C 0.91924 0.96799 0.68983 0.0
N1882 N 0.96001 0.04157 0.70412 0.0
N1883 N 0.90118 0.93273 0.77349 0.0
H1884 H 0.90979 0.95806 0.59304 0.0
H1885 H 0.89318 0.93762 0.65068 0.0
H1886 H 0.89681 0.9273 0.82141 0.0
H1887 H 0.89585 0.91272 0.74103 0.0
H1888 H 0.96656 0.061 0.73537 0.0
H1889 H 0.96529 0.04504 0.65658 0.0
H1890 H 0.96131 0.04911 0.83017 0.0
H1891 H 0.94456 0.02792 0.88549 0.0
C1892 C 0.27587 0.95468 0.52855 0.0
C1893 C 0.29199 0.97788 0.50226 0.0
C1894 C 0.2971 0.00673 0.60897 0.0
C1895 C 0.27965 0.986 0.63397 0.0
N1896 N 0.2507 0.94315 0.61594 0.0
N1897 N 0.31602 0.0294 0.51418 0.0
C1898 C 0.26858 0.96066 0.59332 0.0
C1899 C 0.30201 1.00496 0.54156 0.0
N1900 N 0.26783 0.92641 0.49195 0.0
N1901 N 0.30963 0.02683 0.65027 0.0
H1902 H 0.32055 0.02826 0.46548 0.0
H1903 H 0.32193 0.05247 0.53839 0.0
H1904 H 0.30685 0.02823 0.70012 0.0
H1905 H 0.32392 0.0393 0.63633 0.0
H1906 H 0.25787 0.9059 0.51031 0.0
H1907 H 0.27227 0.92192 0.44376 0.0
H1908 H 0.24044 0.92785 0.58667 0.0
H1909 H 0.2451 0.94609 0.66332 0.0
C1910 C 0.91221 0.25446 0.55233 0.0
C1911 C 0.92295 0.27889 0.50942 0.0
C1912 C 0.94763 0.29623 0.5973 0.0
C1913 C 0.93611 0.27328 0.64125 0.0
N1914 N 0.90421 0.23814 0.66382 0.0
N1915 N 0.94821 0.32833 0.49393 0.0
C1916 C 0.91746 0.25455 0.61962 0.0
C1917 C 0.93993 0.30127 0.53275 0.0
N1918 N 0.89745 0.23017 0.52847 0.0
N1919 N 0.96626 0.31253 0.61654 0.0
H1920 H 0.943 0.33293 0.44659 0.0
H1921 H 0.95892 0.34829 0.51019 0.0
H1922 H 0.97202 0.31099 0.66378 0.0
H1923 H 0.9768 0.32549 0.58473 0.0
H1924 H 0.89077 0.20902 0.55603 0.0
H1925 H 0.89324 0.22903 0.47957 0.0
H1926 H 0.88922 0.22757 0.65196 0.0
H1927 H 0.90719 0.23846 0.7136 0.0
C1928 C 0.6662 0.70927 0.29339 0.0
C1929 C 0.67359 0.7354 0.24731 0.0
C1930 C 0.69274 0.76902 0.33321 0.0
C1931 C 0.68507 0.74311 0.37961 0.0
N1932 N 0.66146 0.69294 0.40647 0.0
N1933 N 0.69581 0.78733 0.21993 0.0
C1934 C 0.67109 0.71425 0.36026 0.0
C1935 C 0.68731 0.76466 0.26636 0.0
N1936 N 0.65514 0.67887 0.27274 0.0
N1937 N 0.70466 0.79846 0.35352 0.0
H1938 H 0.69173 0.78553 0.17097 0.0
H1939 H 0.70781 0.80657 0.22855 0.0
H1940 H 0.71007 0.80148 0.40101 0.0
H1941 H 0.70845 0.82095 0.32446 0.0
H1942 H 0.65164 0.65634 0.30217 0.0
H1943 H 0.65076 0.67468 0.22448 0.0
H1944 H 0.64914 0.67448 0.39664 0.0
H1945 H 0.66448 0.69603 0.45587 0.0
C1946 C 0.06656 0.03958 0.30611 0.0
C1947 C 0.05075 0.03726 0.25671 0.0
C1948 C 0.02505 0.0162 0.33774 0.0
C1949 C 0.03944 0.02398 0.38875 0.0
N1950 N 0.07326 0.05044 0.42031 0.0
N1951 N 0.01303 0.03566 0.23263 0.0
C1952 C 0.06012 0.03768 0.37269 0.0
C1953 C 0.02943 0.0292 0.27452 0.0
N1954 N 0.08767 0.0426 0.28982 0.0
N1955 N 0.00779 0.99416 0.3482 0.0
H1956 H 0.01529 0.04594 0.18586 0.0
H1957 H -0.00275 0.03569 0.24887 0.0
H1958 H 0.0052 0.98105 0.39258 0.0
H1959 H -0.00204 0.98547 0.31026 0.0
H1960 H 0.09994 0.04105 0.32387 0.0
H1961 H 0.09298 0.04314 0.24184 0.0
H1962 H 0.08756 0.06414 0.41053 0.0
H1963 H 0.06868 0.05069 0.46891 0.0
C1964 C 0.69327 0.04533 0.54226 0.0
C1965 C 0.67292 0.03298 0.56438 0.0
C1966 C 0.66535 0.00875 0.45516 0.0
C1967 C 0.68503 0.02342 0.4322 0.0
N1968 N 0.71595 0.06164 0.45088 0.0
N1969 N 0.63765 0.01066 0.53776 0.0
C1970 C 0.69839 0.04371 0.47485 0.0
C1971 C 0.6584 0.01684 0.51959 0.0
N1972 N 0.70817 0.05699 0.58599 0.0
N1973 N 0.65345 0.98646 0.41581 0.0
H1974 H 0.63178 0.01717 0.58378 0.0
H1975 H 0.62574 1.00257 0.50551 0.0
H1976 H 0.65799 0.98012 0.36847 0.0
H1977 H 0.6401 0.97185 0.43171 0.0
H1978 H 0.70547 0.05735 0.63589 0.0
H1979 H 0.72383 0.0632 0.57309 0.0
H1980 H 0.72488 0.08052 0.47763 0.0
H1981 H 0.72069 0.06001 0.40243 0.0
C1982 C 0.05929 0.72759 0.44394 0.0
C1983 C 0.04041 0.74754 0.42743 0.0
C1984 C 0.03469 0.7624 0.54305 0.0
C1985 C 0.05336 0.74214 0.55938 0.0
N1986 N 0.08482 0.70855 0.527 0.0
N1987 N 0.01152 0.78779 0.45969 0.0
C1988 C 0.06604 0.72553 0.51014 0.0
C1989 C 0.02857 0.76617 0.47664 0.0
N1990 N 0.07088 0.71105 0.39579 0.0
N1991 N 0.02242 0.77707 0.59164 0.0
H1992 H 0.0053 0.7888 0.41289 0.0
H1993 H 0.00399 0.80625 0.4909 0.0
H1994 H 0.02661 0.77553 0.6405 0.0
H1995 H 0.00762 0.78935 0.58439 0.0
H1996 H 0.08387 0.69369 0.40334 0.0
H1997 H 0.06725 0.71441 0.34689 0.0
H1998 H 0.0959 0.69791 0.49434 0.0
H1999 H 0.09004 0.70632 0.57488 0.0
C2000 C 0.27417 0.79798 0.21497 0.0
C2001 C 0.28489 0.77135 0.17595 0.0
C2002 C 0.30638 0.75216 0.26969 0.0
C2003 C 0.29677 0.78047 0.30739 0.0
N2004 N 0.27357 0.8335 0.31501 0.0
N2005 N 0.31375 0.72776 0.16238 0.0
C2006 C 0.28122 0.80431 0.27974 0.0
C2007 C 0.30172 0.74972 0.2023 0.0
N2008 N 0.25684 0.8164 0.19072 0.0
N2009 N 0.31947 0.72686 0.29881 0.0
H2010 H 0.31091 0.72542 0.11268 0.0
H2011 H 0.32767 0.71442 0.17719 0.0
H2012 H 0.32345 0.72797 0.34789 0.0
H2013 H 0.325 0.70312 0.27572 0.0
H2014 H 0.24679 0.83293 0.21872 0.0
H2015 H 0.25149 0.81315 0.14319 0.0
H2016 H 0.26398 0.85424 0.2957 0.0
H2017 H 0.27809 0.83862 0.36288 0.0
C2018 C 0.91276 0.49048 0.26459 0.0
C2019 C 0.92598 0.47007 0.30748 0.0
C2020 C 0.95186 0.45977 0.21935 0.0
C2021 C 0.93772 0.47762 0.17529 0.0
N2022 N 0.90261 0.50234 0.15328 0.0
N2023 N 0.95661 0.43073 0.32461 0.0
C2024 C 0.91755 0.49078 0.19719 0.0
C2025 C 0.94513 0.45337 0.2845 0.0
N2026 N 0.89609 0.51086 0.28856 0.0
N2027 N 0.97192 0.44982 0.19945 0.0
H2028 H 0.95191 0.42462 0.37194 0.0
H2029 H 0.96998 0.41573 0.31009 0.0
H2030 H 0.97755 0.45389 0.15243 0.0
H2031 H 0.9837 0.44001 0.23048 0.0
H2032 H 0.88733 0.52937 0.26054 0.0
H2033 H 0.89229 0.51205 0.33781 0.0
H2034 H 0.88686 0.50862 0.16585 0.0
H2035 H 0.90527 0.50205 0.10331 0.0
C2036 C 0.30807 0.49814 0.04409 0.0
C2037 C 0.29558 0.47509 1.00313 0.0
C2038 C 0.27169 0.46037 0.095 0.0
C2039 C 0.28373 0.48455 0.13533 0.0
N2040 N 0.31258 0.5279 0.14908 0.0
N2041 N 0.26557 0.43446 0.98736 0.0
C2042 C 0.30174 0.50377 0.11002 0.0
C2043 C 0.27738 0.45624 1.02809 0.0
N2044 N 0.32626 0.5141 1.01996 0.0
N2045 N 0.25486 0.44127 0.12114 0.0
H2046 H 0.26981 0.42964 0.93913 0.0
H2047 H 0.25128 0.42167 0.99983 0.0
H2048 H 0.24974 0.44474 0.16891 0.0
H2049 H 0.24616 0.42107 0.09704 0.0
H2050 H 0.33758 0.5277 0.04808 0.0
H2051 H 0.33078 0.51229 0.97133 0.0
H2052 H 0.32427 0.54607 0.13279 0.0
H2053 H 0.3093 0.53105 0.19839 0.0
C2054 C 0.93801 0.80783 0.03692 0.0
C2055 C 0.92644 0.78002 1.00312 0.0
C2056 C 0.92375 0.74397 0.10366 0.0
C2057 C 0.93703 0.76997 0.13576 0.0
N2058 N 0.95983 0.82353 0.13025 0.0
N2059 N 0.91213 0.71821 1.0011 0.0
C2060 C 0.94503 0.80106 0.1016 0.0
C2061 C 0.92036 0.74712 0.03564 0.0
N2062 N 0.94162 0.84124 1.00813 0.0
N2063 N 0.91383 0.71684 0.13853 0.0
H2064 H 0.90981 0.7191 0.95103 0.0
H2065 H 0.90953 0.69217 1.02096 0.0
H2066 H 0.91579 0.71374 0.18847 0.0
H2067 H 0.90216 0.69957 0.11908 0.0
H2068 H 0.94805 0.86382 0.03252 0.0
H2069 H 0.93647 0.84753 0.96134 0.0
H2070 H 0.96806 0.84415 0.10545 0.0
H2071 H 0.96527 0.81958 0.17756 0.0
C2072 C 0.68582 0.24854 0.77404 0.0
C2073 C 0.66441 0.23957 0.75785 0.0
C2074 C 0.65476 0.24126 0.87364 0.0
C2075 C 0.67651 0.24769 0.88995 0.0
N2076 N 0.71297 0.25693 0.85459 0.0
N2077 N 0.62896 0.22232 0.7923 0.0
C2078 C 0.69198 0.25129 0.83982 0.0
C2079 C 0.649 0.2345 0.80772 0.0
N2080 N 0.70107 0.25354 0.72757 0.0
N2081 N 0.6394 0.24389 0.92062 0.0
H2082 H 0.62374 0.21898 0.7446 0.0
H2083 H 0.61809 0.21288 0.82681 0.0
H2084 H 0.643 0.24977 0.96892 0.0
H2085 H 0.62308 0.24396 0.91063 0.0
H2086 H 0.69828 0.25157 0.6778 0.0
H2087 H 0.69828 0.25157 0.6778 0.0
H2088 H 0.72469 0.26018 0.81902 0.0
H2089 H 0.71861 0.25743 0.902 0.0
C2090 C 0.04458 0.56239 0.87408 0.0
C2091 C 0.03256 0.53095 0.89343 0.0
C2092 C 0.03183 0.50865 0.78045 0.0
C2093 C 0.04385 0.54004 0.76115 0.0
N2094 N 0.06024 0.59843 0.78639 0.0
N2095 N 0.01678 0.472 0.86807 0.0
C2096 C 0.04986 0.56735 0.8072 0.0
C2097 C 0.02673 0.50349 0.84734 0.0
N2098 N 0.05172 0.58655 0.92035 0.0
N2099 N 0.02464 0.48456 0.73418 0.0
H2100 H 0.01177 0.46802 0.91583 0.0
H2101 H 0.01423 0.44889 0.83915 0.0
H2102 H 0.02831 0.48723 0.68502 0.0
H2103 H 0.014 0.46312 0.74315 0.0
H2104 H 0.06217 0.60828 0.91149 0.0
H2105 H 0.04814 0.5838 0.96955 0.0
H2106 H 0.06346 0.62119 0.81544 0.0
H2107 H 0.06495 0.60244 0.73834 0.0
C2108 C 0.67148 0.56008 1.0031 0.0
C2109 C 0.67784 0.53315 0.04934 0.0
C2110 C 0.696 0.49763 0.96307 0.0
C2111 C 0.68933 0.52433 0.91654 0.0
N2112 N 0.66791 0.57753 0.88979 0.0
N2113 N 0.69798 0.47867 0.07639 0.0
C2114 C 0.67645 0.55481 0.93604 0.0
C2115 C 0.69047 0.50238 0.02998 0.0
N2116 N 0.661 0.59117 1.02367 0.0
N2117 N 0.70738 0.46744 0.94286 0.0
H2118 H 0.69441 0.48152 0.12559 0.0
H2119 H 0.70865 0.45722 0.06769 0.0
H2120 H 0.71309 0.4643 0.89565 0.0
H2121 H 0.71075 0.44467 0.97169 0.0
H2122 H 0.65837 0.61418 0.99464 0.0
H2123 H 0.656 0.59512 0.07147 0.0
H2124 H 0.65654 0.59782 0.89933 0.0
H2125 H 0.67089 0.57434 0.8403 0.0
C2126 C 0.02757 0.22364 0.96574 0.0
C2127 C 0.03662 0.25277 0.9287 0.0
C2128 C 0.05753 0.27288 1.02318 0.0
C2129 C 0.04954 0.24237 0.05891 0.0
N2130 N 0.02909 0.18606 0.06319 0.0
N2131 N 0.06225 0.30205 0.9181 0.0
C2132 C 0.03512 0.21701 0.02989 0.0
C2133 C 0.05217 0.27658 0.95634 0.0
N2134 N 0.01145 0.20281 0.93989 0.0
N2135 N 0.06982 0.29881 0.05372 0.0
H2136 H 0.05845 0.30601 0.86934 0.0
H2137 H 0.07541 0.31742 0.93307 0.0
H2138 H 0.0745 0.29654 0.10211 0.0
H2139 H 0.07417 0.32383 0.03277 0.0
H2140 H 0.00242 0.18402 0.96648 0.0
H2141 H 0.00603 0.20603 0.8924 0.0
H2142 H 0.02049 0.16441 0.04271 0.0
H2143 H 0.03393 0.1807 0.11065 0.0
C2144 C 0.8152 0.26864 0.19509 0.0
C2145 C 0.79334 0.26965 0.17657 0.0
C2146 C 0.78311 0.28278 0.28916 0.0
C2147 C 0.80463 0.27761 0.30899 0.0
N2148 N 0.84054 0.25814 0.28203 0.0
N2149 N 0.75633 0.26775 0.2095 0.0
C2150 C 0.82056 0.26847 0.26226 0.0
C2151 C 0.77725 0.27392 0.22465 0.0
N2152 N 0.83086 0.26884 0.14875 0.0
N2153 N 0.76835 0.29735 0.33104 0.0
H2154 H 0.75153 0.25942 0.16341 0.0
H2155 H 0.74427 0.26671 0.2444 0.0
H2156 H 0.77207 0.30551 0.37822 0.0
H2157 H 0.75299 0.30498 0.31665 0.0
H2158 H 0.84704 0.27199 0.15949 0.0
H2159 H 0.82754 0.26912 0.09919 0.0
H2160 H 0.8521 0.2477 0.2505 0.0
H2161 H 0.84491 0.2565 0.33074 0.0
C2162 C 0.4098 0.9844 0.26641 0.0
C2163 C 0.42567 0.97345 0.31186 0.0
C2164 C 0.45199 0.96875 0.22355 0.0
C2165 C 0.43681 0.98317 0.17926 0.0
N2166 N 0.40202 0.01006 0.16029 0.0
N2167 N 0.46289 0.95791 0.33242 0.0
C2168 C 0.41585 0.99231 0.20106 0.0
C2169 C 0.4469 0.96645 0.29026 0.0
N2170 N 0.38881 0.98594 0.28508 0.0
N2171 N 0.47161 0.95721 0.20227 0.0
H2172 H 0.46102 0.95694 0.3827 0.0
H2173 H 0.46102 0.95694 0.3827 0.0
H2174 H 0.47594 0.95681 0.15335 0.0
H2175 H 0.48315 0.94643 0.23355 0.0
H2176 H 0.37622 0.98975 0.25274 0.0
H2177 H 0.38373 0.98014 0.3322 0.0
H2178 H 0.38745 0.02113 0.17536 0.0
H2179 H 0.40583 0.01647 0.11235 0.0
C2180 C 0.80606 0.99682 0.04594 0.0
C2181 C 0.79596 0.96954 1.00725 0.0
C2182 C 0.77218 0.95368 0.09822 0.0
C2183 C 0.78333 0.97911 0.13839 0.0
N2184 N 0.81291 0.02092 0.15366 0.0
N2185 N 0.77147 0.91848 0.99784 0.0
C2186 C 0.80084 0.9996 0.11306 0.0
C2187 C 0.77958 0.94695 0.0338 0.0
N2188 N 0.82017 0.02089 1.01798 0.0
N2189 N 0.75406 0.93691 0.12093 0.0
H2190 H 0.77625 0.91311 0.95023 0.0
H2191 H 0.7612 0.89849 1.01644 0.0
H2192 H 0.7483 0.94071 0.16798 0.0
H2193 H 0.74379 0.92148 0.09193 0.0
H2194 H 0.8262 0.04408 0.04154 0.0
H2195 H 0.82468 0.01934 0.9693 0.0
H2196 H 0.82738 0.0329 0.14016 0.0
H2197 H 0.80933 0.02435 0.20266 0.0
C2198 C 0.44577 0.29561 1.01524 0.0
C2199 C 0.42722 0.27716 0.99226 0.0
C2200 C 0.42128 0.25051 0.10039 0.0
C2201 C 0.43896 0.27092 0.12433 0.0
N2202 N 0.4662 0.31703 0.10809 0.0
N2203 N 0.3953 0.24192 1.01434 0.0
C2204 C 0.45068 0.29472 0.08271 0.0
C2205 C 0.41442 0.25589 0.03524 0.0
N2206 N 0.45899 0.31307 0.97218 0.0
N2207 N 0.4113 0.22541 0.13963 0.0
H2208 H 0.38977 0.24505 0.96696 0.0
H2209 H 0.38409 0.22978 0.04499 0.0
H2210 H 0.41539 0.2216 0.18822 0.0
H2211 H 0.39999 0.20655 0.1231 0.0
H2212 H 0.47384 0.32392 0.98456 0.0
H2213 H 0.45586 0.31429 0.92253 0.0
H2214 H 0.47389 0.33771 0.08195 0.0
H2215 H 0.47037 0.31677 0.15707 0.0
C2216 C 0.17163 0.75978 0.85991 0.0
C2217 C 0.18844 0.73779 0.88546 0.0
C2218 C 0.19299 0.70795 0.779 0.0
C2219 C 0.17518 0.72814 0.75486 0.0
N2220 N 0.14459 0.76692 0.77671 0.0
N2221 N 0.21361 0.68784 0.87244 0.0
C2222 C 0.16368 0.75234 0.79657 0.0
C2223 C 0.1986 0.71079 0.84592 0.0
N2224 N 0.16349 0.7883 0.89573 0.0
N2225 N 0.20506 0.68712 0.73741 0.0
H2226 H 0.21906 0.69047 0.92001 0.0
H2227 H 0.21977 0.66472 0.84892 0.0
H2228 H 0.2017 0.68481 0.68806 0.0
H2229 H 0.21927 0.67417 0.75049 0.0
H2230 H 0.15288 0.80779 0.87718 0.0
H2231 H 0.16868 0.79438 0.94254 0.0
H2232 H 0.13431 0.78145 0.80731 0.0
H2233 H 0.13792 0.76143 0.73137 0.0
C2234 C 0.53194 0.05706 0.77619 0.0
C2235 C 0.55367 0.05129 0.75822 0.0
C2236 C 0.56274 0.04148 0.87372 0.0
C2237 C 0.54083 0.04621 0.89076 0.0
N2238 N 0.50471 0.06105 0.85835 0.0
N2239 N 0.58988 0.03658 0.78904 0.0
C2240 C 0.52561 0.05493 0.8421 0.0
C2241 C 0.56912 0.04308 0.80691 0.0
N2242 N 0.51649 0.0637 0.73114 0.0
N2243 N 0.57755 0.03727 0.92198 0.0
H2244 H 0.59552 0.04053 0.74192 0.0
H2245 H 0.60148 0.02593 0.81985 0.0
H2246 H 0.57342 0.03691 0.97104 0.0
H2247 H 0.594 0.03658 0.91462 0.0
H2248 H 0.51916 0.06493 0.68121 0.0
H2249 H 0.51916 0.06493 0.68121 0.0
H2250 H 0.49302 0.06757 0.82412 0.0
H2251 H 0.49907 0.0601 0.90588 0.0
C2252 C 0.19759 0.05471 0.96494 0.0
C2253 C 0.18607 0.02962 0.92512 0.0
C2254 C 0.16383 0.01168 1.0182 0.0
C2255 C 0.1744 0.03841 0.05687 0.0
N2256 N 0.19917 0.0891 0.06603 0.0
N2257 N 0.15577 0.98935 0.91004 0.0
C2258 C 0.19069 0.06101 0.02991 0.0
C2259 C 0.16848 0.00953 0.95072 0.0
N2260 N 0.21551 0.07166 0.94123 0.0
N2261 N 0.1498 0.98757 0.04643 0.0
H2262 H 0.15859 0.98732 0.86026 0.0
H2263 H 0.1414 0.97733 0.92438 0.0
H2264 H 0.14579 0.98858 0.09555 0.0
H2265 H 0.14342 0.96479 1.02251 0.0
H2266 H 0.22607 0.08678 0.96979 0.0
H2267 H 0.22077 0.06849 0.89352 0.0
H2268 H 0.20942 0.10906 0.04734 0.0
H2269 H 0.19474 0.0942 0.11403 0.0
C2270 C 0.55186 0.72071 0.92679 0.0
C2271 C 0.53537 0.74547 0.90861 0.0
C2272 C 0.5309 0.76421 1.02206 0.0
C2273 C 0.54896 0.74234 0.03925 0.0
N2274 N 0.57926 0.70571 1.00544 0.0
N2275 N 0.51111 0.79487 0.93651 0.0
C2276 C 0.56019 0.72219 0.99086 0.0
C2277 C 0.5255 0.76856 0.95555 0.0
N2278 N 0.55922 0.69517 0.88333 0.0
N2279 N 0.51829 0.7794 0.06929 0.0
H2280 H 0.50607 0.79792 0.88859 0.0
H2281 H 0.50529 0.81541 0.96725 0.0
H2282 H 0.52107 0.77562 0.11865 0.0
H2283 H 0.50393 0.79289 0.05967 0.0
H2284 H 0.56969 0.67396 0.89581 0.0
H2285 H 0.55334 0.69317 0.83611 0.0
H2286 H 0.5892 0.69379 0.9706 0.0
H2287 H 0.58623 0.70714 0.05133 0.0
C2288 C 0.77264 0.74723 0.72 0.0
C2289 C 0.77946 0.77423 0.67437 0.0
C2290 C 0.79847 0.80785 0.76071 0.0
C2291 C 0.79149 0.78096 0.80632 0.0
N2292 N 0.76987 0.72807 0.83281 0.0
N2293 N 0.79976 0.82869 0.6483 0.0
C2294 C 0.77807 0.75135 0.7868 0.0
C2295 C 0.79249 0.80435 0.69408 0.0
N2296 N 0.76133 0.71719 0.69891 0.0
N2297 N 0.81069 0.83686 0.78167 0.0
H2298 H 0.79564 0.82694 0.59938 0.0
H2299 H 0.81045 0.85003 0.6572 0.0
H2300 H 0.81617 0.83934 0.82921 0.0
H2301 H 0.81516 0.8592 0.75323 0.0
H2302 H 0.75789 0.69426 0.72737 0.0
H2303 H 0.75608 0.71414 0.65122 0.0
H2304 H 0.75843 0.70793 0.82363 0.0
H2305 H 0.7735 0.73027 0.88204 0.0
C2306 C 0.4041 0.48041 0.74743 0.0
C2307 C 0.41936 0.46682 0.79258 0.0
C2308 C 0.44521 0.45794 0.7037 0.0
C2309 C 0.43088 0.47553 0.66036 0.0
N2310 N 0.39746 0.50683 0.64107 0.0
N2311 N 0.45542 0.44694 0.81522 0.0
C2312 C 0.41051 0.48769 0.68226 0.0
C2313 C 0.44016 0.45654 0.77103 0.0
N2314 N 0.38325 0.48491 0.76617 0.0
N2315 N 0.46353 0.44203 0.68021 0.0
H2316 H 0.45259 0.44641 0.86505 0.0
H2317 H 0.47134 0.44245 0.80284 0.0
H2318 H 0.46798 0.44318 0.63144 0.0
H2319 H 0.47344 0.42504 0.70765 0.0
H2320 H 0.37092 0.49116 0.73413 0.0
H2321 H 0.37783 0.47906 0.81293 0.0
H2322 H 0.38348 0.52007 0.65591 0.0
H2323 H 0.40136 0.5117 0.5926 0.0
C2324 C 0.80842 0.49848 0.5397 0.0
C2325 C 0.79729 0.47213 0.50171 0.0
C2326 C 0.7742 0.45744 0.59459 0.0
C2327 C 0.78646 0.48169 0.634 0.0
N2328 N 0.81785 0.5196 0.64749 0.0
N2329 N 0.77203 0.42204 0.49488 0.0
C2330 C 0.80432 0.50064 0.60748 0.0
C2331 C 0.78087 0.45028 0.52972 0.0
N2332 N 0.82249 0.52219 0.51067 0.0
N2333 N 0.75573 0.44234 0.61828 0.0
H2334 H 0.77614 0.41644 0.44679 0.0
H2335 H 0.76203 0.40222 0.51528 0.0
H2336 H 0.75021 0.44698 0.66536 0.0
H2337 H 0.74494 0.42769 0.58977 0.0
H2338 H 0.82929 0.54468 0.53442 0.0
H2339 H 0.82604 0.52127 0.46122 0.0
H2340 H 0.83235 0.53072 0.63207 0.0
H2341 H 0.81561 0.52125 0.69757 0.0
C2342 C 0.41031 0.77229 0.6163 0.0
C2343 C 0.4288 0.75116 0.63103 0.0
C2344 C 0.43568 0.74155 0.51473 0.0
C2345 C 0.41785 0.76442 0.49978 0.0
N2346 N 0.38876 0.80343 0.53497 0.0
N2347 N 0.45611 0.70866 0.5964 0.0
C2348 C 0.40529 0.78026 0.55031 0.0
C2349 C 0.4406 0.73372 0.58077 0.0
N2350 N 0.39686 0.78264 0.66543 0.0
N2351 N 0.44873 0.7292 0.46587 0.0
H2352 H 0.46088 0.70335 0.64393 0.0
H2353 H 0.46306 0.69085 0.56289 0.0
H2354 H 0.44615 0.73505 0.41703 0.0
H2355 H 0.46296 0.715 0.47333 0.0
H2356 H 0.38222 0.79574 0.65857 0.0
H2357 H 0.39941 0.77489 0.71348 0.0
H2358 H 0.38075 0.81985 0.56858 0.0
H2359 H 0.38354 0.80761 0.48751 0.0
C2360 C 0.18894 0.2718 0.26974 0.0
C2361 C 0.17681 0.24078 0.24932 0.0
C2362 C 0.17439 0.21915 0.36215 0.0
C2363 C 0.18791 0.24857 0.38219 0.0
N2364 N 0.2097 0.30131 0.35457 0.0
N2365 N 0.16024 0.18235 0.27359 0.0
C2366 C 0.19554 0.27461 0.33584 0.0
C2367 C 0.17021 0.2137 0.29487 0.0
N2368 N 0.19393 0.29878 0.22585 0.0
N2369 N 0.16476 0.19737 0.40779 0.0
H2370 H 0.15617 0.17795 0.22515 0.0
H2371 H 0.15738 0.15951 0.30293 0.0
H2372 H 0.1672 0.2007 0.45746 0.0
H2373 H 0.15291 0.17813 0.39711 0.0
H2374 H 0.20054 0.32415 0.23833 0.0
H2375 H 0.1903 0.29678 0.17659 0.0
H2376 H 0.21781 0.31843 0.3224 0.0
H2377 H 0.21465 0.30491 0.40237 0.0
C2378 C 0.55017 0.52167 0.35307 0.0
C2379 C 0.53042 0.53605 0.37623 0.0
C2380 C 0.52311 0.56329 0.26918 0.0
C2381 C 0.54267 0.54821 0.24557 0.0
N2382 N 0.57662 0.51904 0.26651 0.0
N2383 N 0.49731 0.56835 0.35757 0.0
C2384 C 0.55666 0.52886 0.28793 0.0
C2385 C 0.51673 0.55652 0.33465 0.0
N2386 N 0.56247 0.50039 0.39323 0.0
N2387 N 0.51088 0.58463 0.22905 0.0
H2388 H 0.49236 0.56453 0.40542 0.0
H2389 H 0.48546 0.58046 0.32943 0.0
H2390 H 0.51488 0.58985 0.18088 0.0
H2391 H 0.497 0.59824 0.24298 0.0
H2392 H 0.5757 0.48523 0.37797 0.0
H2393 H 0.55884 0.49622 0.44209 0.0
H2394 H 0.58855 0.5082 0.29599 0.0
H2395 H 0.58205 0.5243 0.21955 0.0
C2396 C 0.16971 0.50896 0.45062 0.0
C2397 C 0.18758 0.52907 0.42701 0.0
C2398 C 0.19153 0.5592 0.53319 0.0
C2399 C 0.17484 0.53672 0.55819 0.0
N2400 N 0.15023 0.48615 0.54423 0.0
N2401 N 0.21722 0.5701 0.4468 0.0
C2402 C 0.16449 0.5105 0.51781 0.0
C2403 C 0.19898 0.55334 0.46862 0.0
N2404 N 0.15736 0.48917 0.40837 0.0
N2405 N 0.19977 0.58695 0.57059 0.0
H2406 H 0.22276 0.56746 0.39926 0.0
H2407 H 0.22771 0.58446 0.47675 0.0
H2408 H 0.19466 0.59219 0.61793 0.0
H2409 H 0.21051 0.60656 0.55348 0.0
H2410 H 0.14279 0.47728 0.42112 0.0
H2411 H 0.16076 0.4872 0.35892 0.0
H2412 H 0.14391 0.46378 0.51899 0.0
H2413 H 0.146 0.48639 0.5932 0.0
C2414 C 0.55398 0.26447 0.44297 0.0
C2415 C 0.53793 0.24197 0.41427 0.0
C2416 C 0.53341 0.20815 0.51681 0.0
C2417 C 0.5489 0.23143 0.54616 0.0
N2418 N 0.57551 0.2792 0.53802 0.0
N2419 N 0.51073 0.19518 0.42393 0.0
C2420 C 0.55959 0.25901 0.50942 0.0
C2421 C 0.5273 0.21437 0.45113 0.0
N2422 N 0.56342 0.2916 0.40669 0.0
N2423 N 0.52509 0.17927 0.55133 0.0
H2424 H 0.50625 0.19812 0.37551 0.0
H2425 H 0.5005 0.17799 0.44985 0.0
H2426 H 0.52865 0.17455 0.60005 0.0
H2427 H 0.51584 0.15842 0.53097 0.0
H2428 H 0.5738 0.31143 0.4249 0.0
H2429 H 0.56041 0.29517 0.35734 0.0
H2430 H 0.58539 0.29767 0.51376 0.0
H2431 H 0.57961 0.27651 0.58681 0.0
C2432 C 0.3095 0.37182 0.45552 0.0
C2433 C 0.29121 0.39273 0.47381 0.0
C2434 C 0.27307 0.36898 0.37475 0.0
C2435 C 0.29255 0.35211 0.35297 0.0
N2436 N 0.33076 0.34418 0.37163 0.0
N2437 N 0.25308 0.39877 0.46235 0.0
C2438 C 0.31115 0.35601 0.39259 0.0
C2439 C 0.2722 0.38782 0.43668 0.0
N2440 N 0.32482 0.36393 0.50063 0.0
N2441 N 0.25584 0.36966 0.33407 0.0
H2442 H 0.25173 0.40967 0.50892 0.0
H2443 H 0.23834 0.39321 0.44115 0.0
H2444 H 0.25587 0.3571 0.28859 0.0
H2445 H 0.24212 0.3852 0.34268 0.0
H2446 H 0.33844 0.34846 0.49064 0.0
H2447 H 0.32243 0.36777 0.55019 0.0
H2448 H 0.34501 0.35366 0.39191 0.0
H2449 H 0.33323 0.32538 0.33441 0.0
C2450 C 0.91152 0.88923 0.46125 0.0
C2451 C 0.92794 0.86269 0.47113 0.0
C2452 C 0.94208 0.87865 0.36195 0.0
C2453 C 0.92351 0.9005 0.34837 0.0
N2454 N 0.88856 0.92101 0.38622 0.0
N2455 N 0.96406 0.84716 0.44245 0.0
C2456 C 0.90774 0.90429 0.39833 0.0
C2457 C 0.94479 0.86157 0.42473 0.0
N2458 N 0.90016 0.90185 0.51343 0.0
N2459 N 0.95649 0.87197 0.31339 0.0
H2460 H 0.96708 0.83823 0.48955 0.0
H2461 H 0.97773 0.84835 0.41361 0.0
H2462 H 0.95492 0.88287 0.26687 0.0
H2463 H 0.96888 0.85286 0.3171 0.0
H2464 H 0.88937 0.92372 0.51137 0.0
H2465 H 0.90398 0.89445 0.56082 0.0
H2466 H 0.8763 0.92287 0.4201 0.0
H2467 H 0.88353 0.92987 0.3411 0.0
C2468 C 0.27152 0.88849 0.936 0.0
C2469 C 0.29099 0.90082 0.96524 0.0
C2470 C 0.31083 0.86289 0.88506 0.0
C2471 C 0.29171 0.85377 0.85114 0.0
N2472 N 0.25376 0.86432 0.83992 0.0
N2473 N 0.32988 0.89879 0.96399 0.0
C2474 C 0.27199 0.86815 0.87564 0.0
C2475 C 0.31074 0.88792 0.93815 0.0
N2476 N 0.25253 0.89432 0.96717 0.0
N2477 N 0.3297 0.84829 0.86481 0.0
H2478 H 0.33222 0.9245 0.98506 0.0
H2479 H 0.34394 0.88346 0.96124 0.0
H2480 H 0.33008 0.82262 0.8432 0.0
H2481 H 0.34455 0.86076 0.87068 0.0
H2482 H 0.23818 0.88247 0.95221 0.0
H2483 H 0.25135 0.90789 1.01155 0.0
H2484 H 0.23953 0.87794 0.85109 0.0
H2485 H 0.25328 0.85037 0.79578 0.0
C2486 C 0.90698 0.37842 0.86974 0.0
C2487 C 0.92609 0.39575 0.84726 0.0
C2488 C 0.94479 0.36819 0.94295 0.0
C2489 C 0.92499 0.35425 0.96816 0.0
N2490 N 0.88617 0.353 0.95619 0.0
N2491 N 0.96456 0.39531 0.8523 0.0
C2492 C 0.90588 0.36229 0.9326 0.0
C2493 C 0.94542 0.38759 0.88132 0.0
N2494 N 0.8904 0.37227 0.8278 0.0
N2495 N 0.9629 0.36496 0.9796 0.0
H2496 H 0.96576 0.40611 0.80573 0.0
H2497 H 0.97934 0.38717 0.87044 0.0
H2498 H 0.96308 0.35322 1.0256 0.0
H2499 H 0.97748 0.37705 0.96786 0.0
H2500 H 0.87604 0.35976 0.84103 0.0
H2501 H 0.89239 0.37222 0.77767 0.0
H2502 H 0.87236 0.36684 0.94149 0.0
H2503 H 0.88322 0.33122 0.98755 0.0
C2504 C 0.65495 0.66004 0.65961 0.0
C2505 C 0.6725 0.6606 0.70421 0.0
C2506 C 0.69358 0.62449 0.62297 0.0
C2507 C 0.67519 0.62086 0.58267 0.0
N2508 N 0.64331 0.65311 0.54889 0.0
N2509 N 0.70827 0.63956 0.72911 0.0
C2510 C 0.65736 0.64387 0.59699 0.0
C2511 C 0.69188 0.64226 0.68553 0.0
N2512 N 0.6354 0.67405 0.67626 0.0
N2513 N 0.71305 0.61396 0.5993 0.0
H2514 H 0.70747 0.65001 0.7761 0.0
H2515 H 0.72205 0.62409 0.7212 0.0
H2516 H 0.71518 0.60491 0.55177 0.0
H2517 H 0.72747 0.6187 0.62307 0.0
H2518 H 0.62147 0.66754 0.65092 0.0
H2519 H 0.63241 0.69038 0.71633 0.0
H2520 H 0.63135 0.67294 0.55442 0.0
H2521 H 0.64556 0.64572 0.50065 0.0
C2522 C 0.02593 0.12507 0.6779 0.0
C2523 C 0.04307 0.12416 0.72341 0.0
C2524 C 0.06277 0.16862 0.65502 0.0
C2525 C 0.04671 0.16718 0.60581 0.0
N2526 N 0.01369 0.14004 0.56882 0.0
N2527 N 0.07112 0.16147 0.76885 0.0
C2528 C 0.0283 0.14472 0.61735 0.0
C2529 C 0.05952 0.15079 0.71587 0.0
N2530 N 0.00665 0.11047 0.69505 0.0
N2531 N 0.08154 0.18664 0.64414 0.0
H2532 H 0.06704 0.15356 0.81587 0.0
H2533 H 0.08219 0.18292 0.76839 0.0
H2534 H 0.08508 0.19988 0.60126 0.0
H2535 H 0.09448 0.18583 0.67569 0.0
H2536 H -0.00711 0.1128 0.66696 0.0
H2537 H 0.00372 0.10011 0.74131 0.0
H2538 H 0.00147 0.12057 0.57055 0.0
H2539 H 0.01487 0.15332 0.52413 0.0
C2540 C 0.69262 0.12327 0.13358 0.0
C2541 C 0.67406 0.10266 0.11486 0.0
C2542 C 0.65779 0.11954 0.22101 0.0
C2543 C 0.67449 0.14511 0.23403 0.0
N2544 N 0.71225 0.15399 0.22032 0.0
N2545 N 0.63819 0.08248 0.14434 0.0
C2546 C 0.69327 0.14216 0.19535 0.0
C2547 C 0.65645 0.10129 0.15955 0.0
N2548 N 0.7092 0.12707 0.09083 0.0
N2549 N 0.64425 0.10974 0.27023 0.0
H2550 H 0.63654 0.06506 0.10495 0.0
H2551 H 0.62392 0.08518 0.16994 0.0
H2552 H 0.64727 0.11649 0.31851 0.0
H2553 H 0.63208 0.0904 0.26589 0.0
H2554 H 0.72188 0.1452 0.09825 0.0
H2555 H 0.70939 0.11486 0.0451 0.0
H2556 H 0.72697 0.1493 0.19805 0.0
H2557 H 0.71348 0.16472 0.26708 0.0
C2558 C 0.03298 0.64583 0.11871 0.0
C2559 C 0.05126 0.66823 0.10578 0.0
C2560 C 0.06444 0.65391 0.21662 0.0
C2561 C 0.04715 0.62883 0.22718 0.0
N2562 N 0.01038 0.61691 0.20012 0.0
N2563 N 0.08294 0.69777 0.1483 0.0
C2564 C 0.03005 0.6293 0.18161 0.0
C2565 C 0.06659 0.67322 0.15633 0.0
N2566 N 0.01868 0.63905 0.07011 0.0
N2567 N 0.07904 0.65955 0.26484 0.0
H2568 H 0.08722 0.70916 0.1042 0.0
H2569 H 0.09223 0.70805 0.1859 0.0
H2570 H 0.0756 0.6543 0.31329 0.0
H2571 H 0.09438 0.6699 0.25771 0.0
H2572 H 0.0061 0.62043 0.07443 0.0
H2573 H 0.02037 0.64964 1.0234 0.0
H2574 H -0.00325 0.61934 0.17147 0.0
H2575 H 0.00704 0.60901 0.24762 0.0
C2576 C 0.8062 0.35851 0.96844 0.0
C2577 C 0.78998 0.38557 0.97545 0.0
C2578 C 0.77586 0.36613 0.86815 0.0
C2579 C 0.7947 0.34454 0.85622 0.0
N2580 N 0.82936 0.32478 0.89699 0.0
N2581 N 0.75401 0.40096 0.94543 0.0
C2582 C 0.81021 0.34195 0.90697 0.0
C2583 C 0.77314 0.38532 0.92921 0.0
N2584 N 0.81693 0.34649 1.02215 0.0
N2585 N 0.76127 0.37058 0.81949 0.0
H2586 H 0.75109 0.41187 0.99137 0.0
H2587 H 0.74034 0.39933 0.91687 0.0
H2588 H 0.76273 0.35789 0.77433 0.0
H2589 H 0.74859 0.38918 0.82158 0.0
H2590 H 0.82753 0.32427 1.02151 0.0
H2591 H 0.8127 0.35478 0.06894 0.0
H2592 H 0.84195 0.32588 0.92994 0.0
H2593 H 0.83363 0.3122 0.85402 0.0
C2594 C 0.45177 0.90031 0.89236 0.0
C2595 C 0.43767 0.89442 0.83957 0.0
C2596 C 0.42812 0.83483 0.88814 0.0
C2597 C 0.43702 0.8462 0.94838 0.0
N2598 N 0.45917 0.88928 1.00649 0.0
N2599 N 0.41941 0.84902 0.77592 0.0
C2600 C 0.44947 0.87884 0.95014 0.0
C2601 C 0.42766 0.85955 0.83437 0.0
N2602 N 0.46883 0.92305 0.88452 0.0
N2603 N 0.42155 0.79938 0.88153 0.0
H2604 H 0.42252 0.86337 0.73309 0.0
H2605 H 0.41047 0.82539 0.76851 0.0
H2606 H 0.42665 0.78007 0.9147 0.0
H2607 H 0.41392 0.78817 0.84137 0.0
H2608 H 0.48061 0.92658 0.91968 0.0
H2609 H 0.47274 0.93351 0.83894 0.0
H2610 H 0.46727 0.91423 1.01168 0.0
H2611 H 0.45825 0.87359 0.04883 0.0
C2612 C 0.77198 0.86208 0.37765 0.0
C2613 C 0.7911 0.85724 0.3408 0.0
C2614 C 0.8106 0.89414 0.42206 0.0
C2615 C 0.79206 0.89689 0.46286 0.0
N2616 N 0.75514 0.8798 0.47997 0.0
N2617 N 0.82341 0.8898 0.31239 0.0
C2618 C 0.77265 0.88028 0.44021 0.0
C2619 C 0.80895 0.8791 0.35862 0.0
N2620 N 0.75288 0.85298 0.35011 0.0
N2621 N 0.83032 0.90542 0.44224 0.0
H2622 H 0.82078 0.88603 0.26292 0.0
H2623 H 0.83591 0.90812 0.32164 0.0
H2624 H 0.83349 0.92228 0.48159 0.0
H2625 H 0.84415 0.89599 0.4193 0.0
H2626 H 0.73812 0.8594 0.3706 0.0
H2627 H 0.75171 0.84306 0.30282 0.0
H2628 H 0.74122 0.86521 0.46974 0.0
H2629 H 0.75502 0.89153 0.5261 0.0
C2630 C 0.44102 0.36369 0.42334 0.0
C2631 C 0.42225 0.35837 0.46126 0.0
C2632 C 0.40237 0.39705 0.38208 0.0
C2633 C 0.42027 0.39658 0.33832 0.0
N2634 N 0.45614 0.37467 0.31665 0.0
N2635 N 0.38663 0.38017 0.48503 0.0
C2636 C 0.4395 0.37887 0.35911 0.0
C2637 C 0.40344 0.37799 0.44276 0.0
N2638 N 0.46058 0.35725 0.45029 0.0
N2639 N 0.38466 0.41788 0.36863 0.0
H2640 H 0.38883 0.38023 0.53514 0.0
H2641 H 0.37083 0.38415 0.4709 0.0
H2642 H 0.38178 0.43115 0.32529 0.0
H2643 H 0.37274 0.42419 0.40208 0.0
H2644 H 0.47492 0.36391 0.42726 0.0
H2645 H 0.46243 0.3498 0.49874 0.0
H2646 H 0.46955 0.35859 0.32691 0.0
H2647 H 0.45559 0.38369 0.26871 0.0
C2648 C 0.15845 0.64196 0.10347 0.0
C2649 C 0.17624 0.61863 0.09013 0.0
C2650 C 0.19309 0.64149 0.19145 0.0
C2651 C 0.17382 0.66039 0.20931 0.0
N2652 N 0.13709 0.67545 0.18041 0.0
N2653 N 0.21417 0.61243 0.106 0.0
C2654 C 0.15623 0.65947 0.16505 0.0
C2655 C 0.19471 0.62302 0.1296 0.0
N2656 N 0.14494 0.65168 0.05417 0.0
N2657 N 0.20939 0.63864 0.23526 0.0
H2658 H 0.21622 0.60236 0.05909 0.0
H2659 H 0.22857 0.61805 0.12932 0.0
H2660 H 0.2088 0.65019 0.28149 0.0
H2661 H 0.22263 0.6216 0.22842 0.0
H2662 H 0.13271 0.67106 0.05911 0.0
H2663 H 0.1482 0.64573 1.00568 0.0
H2664 H 0.12302 0.66868 0.15615 0.0
H2665 H 0.13474 0.69426 0.21768 0.0
C2666 C 0.53141 0.13572 0.1932 0.0
C2667 C 0.55167 0.12212 0.2154 0.0
C2668 C 0.56734 0.14046 0.11084 0.0
C2669 C 0.54795 0.1571 0.08917 0.0
N2670 N 0.50981 0.16114 0.10487 0.0
N2671 N 0.58984 0.13243 0.20354 0.0
C2672 C 0.52947 0.15254 0.12946 0.0
C2673 C 0.56989 0.13069 0.17695 0.0
N2674 N 0.51444 0.13552 0.23506 0.0
N2675 N 0.58313 0.13115 0.06793 0.0
H2676 H 0.59262 0.1326 0.25324 0.0
H2677 H 0.60311 0.14089 0.17678 0.0
H2678 H 0.58076 0.1308 1.01792 0.0
H2679 H 0.59705 0.11748 0.08222 0.0
H2680 H 0.49971 0.14767 0.22546 0.0
H2681 H 0.51573 0.12688 0.28303 0.0
H2682 H 0.49541 0.15604 0.12848 0.0
H2683 H 0.50755 0.1694 0.05708 0.0
C2684 C 0.19918 0.12676 0.62197 0.0
C2685 C 0.17947 0.11201 0.5983 0.0
C2686 C 0.16061 0.14964 0.67963 0.0
C2687 C 0.17999 0.16012 0.71047 0.0
N2688 N 0.21832 0.151 0.71555 0.0
N2689 N 0.14267 0.1002 0.62738 0.0
C2690 C 0.19954 0.14666 0.68286 0.0
C2691 C 0.16065 0.12085 0.63367 0.0
N2692 N 0.21746 0.12279 0.58642 0.0
N2693 N 0.14176 0.16738 0.69201 0.0
H2694 H 0.1425 0.07641 0.60018 0.0
H2695 H 0.12941 0.10342 0.65763 0.0
H2696 H 0.14034 0.1906 0.72108 0.0
H2697 H 0.12802 0.16218 0.66493 0.0
H2698 H 0.23173 0.13594 0.59849 0.0
H2699 H 0.21788 0.10926 0.54186 0.0
H2700 H 0.23253 0.1384 0.70095 0.0
H2701 H 0.21931 0.16424 0.7603 0.0
C2702 C 0.56063 0.60929 0.64979 0.0
C2703 C 0.54297 0.60889 0.69419 0.0
C2704 C 0.52268 0.64719 0.61505 0.0
C2705 C 0.54105 0.65015 0.57434 0.0
N2706 N 0.57211 0.61638 0.53855 0.0
N2707 N 0.50783 0.63212 0.721 0.0
C2708 C 0.5585 0.62621 0.58765 0.0
C2709 C 0.52407 0.62877 0.67689 0.0
N2710 N 0.5799 0.59428 0.66639 0.0
N2711 N 0.5033 0.65826 0.59195 0.0
H2712 H 0.50826 0.62015 0.76689 0.0
H2713 H 0.49475 0.64952 0.71457 0.0
H2714 H 0.50118 0.66783 0.54481 0.0
H2715 H 0.48895 0.65274 0.61568 0.0
H2716 H 0.5939 0.59943 0.64038 0.0
H2717 H 0.58258 0.57899 0.70793 0.0
H2718 H 0.58403 0.59644 0.54351 0.0
H2719 H 0.56924 0.62325 0.49027 0.0
C2720 C 0.29661 0.13167 0.2212 0.0
C2721 C 0.29176 0.16441 0.18611 0.0
C2722 C 0.28779 0.12777 0.08639 0.0
C2723 C 0.29037 0.09475 0.12306 0.0
N2724 N 0.3037 0.06579 0.2194 0.0
N2725 N 0.28993 0.19479 0.08263 0.0
C2726 C 0.29699 0.09696 0.18857 0.0
C2727 C 0.28979 0.16286 0.11763 0.0
N2728 N 0.30027 0.13384 0.28648 0.0
N2729 N 0.28309 0.12542 1.02179 0.0
H2730 H 0.29214 0.2204 0.10424 0.0
H2731 H 0.28992 0.19595 0.03221 0.0
H2732 H 0.28387 0.10062 0.99612 0.0
H2733 H 0.27804 0.14766 0.99381 0.0
H2734 H 0.30076 0.11108 0.3172 0.0
H2735 H 0.30239 0.15898 0.31039 0.0
H2736 H 0.31053 0.06541 0.26537 0.0
H2737 H 0.30413 0.04043 0.19602 0.0
C2738 C 0.91907 0.13788 0.10829 0.0
C2739 C 0.93146 0.16526 0.14074 0.0
C2740 C 0.94193 0.11914 0.22153 0.0
C2741 C 0.92761 0.09284 0.19449 0.0
N2742 N 0.9001 0.0794 0.11644 0.0
N2743 N 0.949 0.18367 0.23907 0.0
C2744 C 0.91545 0.10286 0.13896 0.0
C2745 C 0.94108 0.15635 0.20068 0.0
N2746 N 0.91139 0.14468 0.04751 0.0
N2747 N 0.95751 0.10837 0.26387 0.0
H2748 H 0.94787 0.21129 0.22607 0.0
H2749 H 0.95408 0.17905 0.28652 0.0
H2750 H 0.96061 0.08081 0.27473 0.0
H2751 H 0.96926 0.1263 0.28082 0.0
H2752 H 0.90428 0.1245 1.0187 0.0
H2753 H 0.91345 0.16986 1.02398 0.0
H2754 H 0.8893 0.0864 0.08004 0.0
H2755 H 0.89702 0.05404 0.13828 0.0
C2756 C 0.68004 0.88635 0.97654 0.0
C2757 C 0.68222 0.91787 0.93588 0.0
C2758 C 0.68058 0.87815 0.83925 0.0
C2759 C 0.68075 0.84652 0.87983 0.0
N2760 N 0.67592 0.81959 0.98511 0.0
N2761 N 0.68356 0.94462 0.82947 0.0
C2762 C 0.67892 0.8504 0.94807 0.0
C2763 C 0.68179 0.91398 0.86744 0.0
N2764 N 0.67964 0.89101 0.04241 0.0
N2765 N 0.67867 0.87371 0.77361 0.0
H2766 H 0.68195 0.97108 0.8483 0.0
H2767 H 0.68694 0.94412 0.78005 0.0
H2768 H 0.67751 0.84782 0.75177 0.0
H2769 H 0.67654 0.89527 0.74098 0.0
H2770 H 0.68018 0.86963 0.07593 0.0
H2771 H 0.67895 0.91698 0.06423 0.0
H2772 H 0.67388 0.81954 0.03514 0.0
H2773 H 0.67397 0.79357 0.96459 0.0
C2774 C 0.02655 0.90131 0.86194 0.0
C2775 C 0.04554 0.92269 0.86728 0.0
C2776 C 0.0614 0.87438 0.93598 0.0
C2777 C 0.04171 0.85467 0.93546 0.0
N2778 N 0.00419 0.8532 0.90659 0.0
N2779 N 0.08003 0.93221 0.91597 0.0
C2780 C 0.0239 0.86938 0.90113 0.0
C2781 C 0.06273 0.90986 0.90596 0.0
N2782 N 0.01101 0.91107 0.81862 0.0
N2783 N 0.07877 0.8595 0.96608 0.0
H2784 H 0.08154 0.95811 0.89447 0.0
H2785 H 0.09213 0.9265 0.94912 0.0
H2786 H 0.07787 0.83513 0.99215 0.0
H2787 H 0.09422 0.86999 0.96203 0.0
H2788 H -0.0016 0.89377 0.80577 0.0
H2789 H 0.0111 0.93573 0.79285 0.0
H2790 H -0.00987 0.86519 0.88956 0.0
H2791 H 0.00155 0.82821 0.93016 0.0
C2792 C 0.29293 0.6607 0.61342 0.0
C2793 C 0.29172 0.66378 0.68181 0.0
C2794 C 0.29499 0.59642 0.69044 0.0
C2795 C 0.29148 0.59311 0.62296 0.0
N2796 N 0.28777 0.62211 0.5184 0.0
N2797 N 0.29128 0.63417 0.78672 0.0
C2798 C 0.29083 0.62532 0.58376 0.0
C2799 C 0.29291 0.6315 0.72077 0.0
N2800 N 0.29622 0.69159 0.5771 0.0
N2801 N 0.30054 0.56602 0.72536 0.0
H2802 H 0.29089 0.65938 0.8111 0.0
H2803 H 0.28913 0.61142 0.81691 0.0
H2804 H 0.30303 0.54063 0.70309 0.0
H2805 H 0.30509 0.56692 0.77391 0.0
H2806 H 0.29864 0.69127 0.52713 0.0
H2807 H 0.29892 0.71716 0.59858 0.0
H2808 H 0.28424 0.64439 0.48839 0.0
H2809 H 0.28799 0.5967 0.49452 0.0
C2810 C 0.92735 0.62951 0.58702 0.0
C2811 C 0.9244 0.66215 0.62448 0.0
C2812 C 0.92072 0.62466 0.72271 0.0
C2813 C 0.92645 0.59239 0.6873 0.0
N2814 N 0.92946 0.5624 0.5834 0.0
N2815 N 0.91361 0.68919 0.72681 0.0
C2816 C 0.92779 0.59422 0.61845 0.0
C2817 C 0.91928 0.65917 0.6911 0.0
N2818 N 0.92992 0.63267 0.52136 0.0
N2819 N 0.91659 0.62267 0.78767 0.0
H2820 H 0.91162 0.71547 0.70733 0.0
H2821 H 0.91162 0.71547 0.70733 0.0
H2822 H 0.91617 0.5978 0.81271 0.0
H2823 H 0.91288 0.64581 0.81578 0.0
H2824 H 0.93413 0.61115 0.49049 0.0
H2825 H 0.92766 0.65764 0.49715 0.0
H2826 H 0.93021 0.56101 0.53313 0.0
H2827 H 0.92852 0.53659 0.60482 0.0
C2828 C 0.69455 0.39854 0.44349 0.0
C2829 C 0.67533 0.41942 0.44075 0.0
C2830 C 0.65778 0.36714 0.38605 0.0
C2831 C 0.67771 0.34865 0.38038 0.0
N2832 N 0.71604 0.34949 0.39795 0.0
N2833 N 0.63947 0.42583 0.39992 0.0
C2834 C 0.69638 0.36531 0.40711 0.0
C2835 C 0.65713 0.40431 0.40941 0.0
N2836 N 0.71102 0.40974 0.48228 0.0
N2837 N 0.63949 0.3491 0.36941 0.0
H2838 H 0.63891 0.45344 0.41412 0.0
H2839 H 0.62634 0.4175 0.37257 0.0
H2840 H 0.63976 0.32159 0.35493 0.0
H2841 H 0.62422 0.35986 0.37682 0.0
H2842 H 0.72399 0.39284 0.49347 0.0
H2843 H 0.71118 0.43486 0.50685 0.0
H2844 H 0.73036 0.36288 0.40858 0.0
H2845 H 0.71819 0.32333 0.37804 0.0
C2846 C 0.03941 0.36101 0.3679 0.0
C2847 C 0.04799 0.35638 0.43071 0.0
C2848 C 0.06169 0.42021 0.42503 0.0
C2849 C 0.04954 0.42655 0.36807 0.0
N2850 N 0.02219 0.40361 0.29525 0.0
N2851 N 0.06698 0.38278 0.52108 0.0
C2852 C 0.03725 0.39705 0.34172 0.0
C2853 C 0.05903 0.38645 0.45989 0.0
N2854 N 0.03327 0.33101 0.33296 0.0
N2855 N 0.07634 0.44581 0.4445 0.0
H2856 H 0.06694 0.35757 0.54519 0.0
H2857 H 0.07275 0.40485 0.54833 0.0
H2858 H 0.0794 0.46961 0.41774 0.0
H2859 H 0.08695 0.44163 0.48269 0.0
H2860 H 0.0284 0.33248 0.28468 0.0
H2861 H 0.03575 0.30452 0.3503 0.0
H2862 H 0.01162 0.3834 0.27892 0.0
H2863 H 0.01827 0.43001 0.27953 0.0
C2864 C 0.79578 0.11876 0.59317 0.0
C2865 C 0.7945 0.08531 0.62886 0.0
C2866 C 0.79739 0.1201 0.73041 0.0
C2867 C 0.79657 0.15395 0.6952 0.0
N2868 N 0.80479 0.18389 0.59391 0.0
N2869 N 0.80269 0.05386 0.72791 0.0
C2870 C 0.79899 0.15286 0.62674 0.0
C2871 C 0.79813 0.08593 0.69641 0.0
N2872 N 0.7937 0.11799 0.52724 0.0
N2873 N 0.79716 0.12046 0.79666 0.0
H2874 H 0.80419 0.02906 0.70306 0.0
H2875 H 0.80745 0.05249 0.77621 0.0
H2876 H 0.79955 0.14438 0.82364 0.0
H2877 H 0.79413 0.09718 0.82483 0.0
H2878 H 0.79171 0.14159 0.4991 0.0
H2879 H 0.79329 0.09339 0.50088 0.0
H2880 H 0.8085 0.184 0.54466 0.0
H2881 H 0.80861 0.20838 0.61744 0.0
C2882 C 0.41305 0.14218 0.62038 0.0
C2883 C 0.43297 0.15928 0.60608 0.0
C2884 C 0.45183 0.11252 0.66964 0.0
C2885 C 0.43198 0.09476 0.68342 0.0
N2886 N 0.3941 0.08932 0.66563 0.0
N2887 N 0.47177 0.15665 0.60723 0.0
C2888 C 0.41268 0.10854 0.65666 0.0
C2889 C 0.45241 0.14286 0.62692 0.0
N2890 N 0.39456 0.15791 0.59867 0.0
N2891 N 0.47034 0.10169 0.6994 0.0
H2892 H 0.4739 0.18257 0.58657 0.0
H2893 H 0.48597 0.14162 0.61005 0.0
H2894 H 0.47208 0.07748 0.72533 0.0
H2895 H 0.48402 0.11807 0.70152 0.0
H2896 H 0.37934 0.14983 0.6133 0.0
H2897 H 0.39451 0.18004 0.56664 0.0
H2898 H 0.37972 0.09568 0.64293 0.0
H2899 H 0.39329 0.06528 0.69326 0.0
C2900 C 0.17497 0.91608 0.36682 0.0
C2901 C 0.17975 0.91936 0.43368 0.0
C2902 C 0.18215 0.85179 0.44272 0.0
C2903 C 0.17908 0.84857 0.37476 0.0
N2904 N 0.1658 0.87596 0.27657 0.0
N2905 N 0.18096 0.89067 0.53879 0.0
C2906 C 0.17334 0.88033 0.33827 0.0
C2907 C 0.18109 0.88721 0.47274 0.0
N2908 N 0.17278 0.94715 0.33017 0.0
N2909 N 0.18717 0.82136 0.47818 0.0
H2910 H 0.17974 0.91621 0.5619 0.0
H2911 H 0.17992 0.86842 0.57054 0.0
H2912 H 0.18629 0.79496 0.45902 0.0
H2913 H 0.19272 0.82229 0.52571 0.0
H2914 H 0.17245 0.94717 0.27969 0.0
H2915 H 0.17183 0.97327 0.35096 0.0
H2916 H 0.15977 0.89742 0.24847 0.0
H2917 H 0.16355 0.84995 0.25598 0.0
C2918 C 0.5549 0.86458 0.39072 0.0
C2919 C 0.5385 0.85594 0.43643 0.0
C2920 C 0.52313 0.91746 0.42121 0.0
C2921 C 0.53975 0.92734 0.3777 0.0
N2922 N 0.57352 0.91199 0.32833 0.0
N2923 N 0.51437 0.88191 0.51604 0.0
C2924 C 0.55644 0.90148 0.3653 0.0
C2925 C 0.52495 0.88483 0.45826 0.0
N2926 N 0.56846 0.83756 0.36968 0.0
N2927 N 0.50495 0.93815 0.42563 0.0
H2928 H 0.51706 0.8601 0.54801 0.0
H2929 H 0.5055 0.90359 0.53587 0.0
H2930 H 0.50255 0.96196 0.39856 0.0
H2931 H 0.49167 0.92983 0.45261 0.0
H2932 H 0.57888 0.84072 0.33062 0.0
H2933 H 0.56885 0.81132 0.39 0.0
H2934 H 0.58719 0.89596 0.32204 0.0
H2935 H 0.57462 0.93819 0.3078 0.0
C2936 C 0.7918 0.65636 0.11893 0.0
C2937 C 0.79175 0.65788 0.18789 0.0
C2938 C 0.79695 0.5902 0.19103 0.0
C2939 C 0.79268 0.58824 0.12386 0.0
N2940 N 0.78735 0.61907 1.02177 0.0
N2941 N 0.796 0.62599 0.29011 0.0
C2942 C 0.79072 0.6213 0.08715 0.0
C2943 C 0.7951 0.62469 0.2239 0.0
N2944 N 0.793 0.68816 0.08365 0.0
N2945 N 0.80281 0.55896 0.2234 0.0
H2946 H 0.79721 0.65057 0.31592 0.0
H2947 H 0.79487 0.60284 0.31977 0.0
H2948 H 0.80439 0.53366 0.20006 0.0
H2949 H 0.80808 0.55853 0.27125 0.0
H2950 H 0.79473 0.68892 0.03346 0.0
H2951 H 0.79453 0.71398 0.10482 0.0
H2952 H 0.78245 0.64124 0.99334 0.0
H2953 H 0.78883 0.59437 0.99608 0.0
C2954 C 0.4248 0.59165 0.11096 0.0
C2955 C 0.42826 0.585 0.17778 0.0
C2956 C 0.42978 0.65185 0.19877 0.0
C2957 C 0.42752 0.65818 0.13159 0.0
N2958 N 0.41715 0.63607 1.02609 0.0
N2959 N 0.42902 0.60804 0.2876 0.0
C2960 C 0.42301 0.6286 0.08856 0.0
C2961 C 0.42899 0.61499 0.22251 0.0
N2962 N 0.42462 0.56277 0.0684 0.0
N2963 N 0.4338 0.68102 0.23908 0.0
H2964 H 0.42874 0.58136 0.30624 0.0
H2965 H 0.42768 0.62838 0.32306 0.0
H2966 H 0.43347 0.70832 0.22295 0.0
H2967 H 0.4382 0.67839 0.2875 0.0
H2968 H 0.42567 0.56587 1.01829 0.0
H2969 H 0.4244 0.53541 0.08365 0.0
H2970 H 0.41183 0.61606 0.99362 0.0
H2971 H 0.41575 0.66295 1.00857 0.0
C2972 C 0.18124 0.34931 0.94944 0.0
C2973 C 0.18322 0.34739 0.88113 0.0
C2974 C 0.18 0.41486 0.87407 0.0
C2975 C 0.18 0.41725 0.94292 0.0
N2976 N 0.17314 0.3862 0.04422 0.0
N2977 N 0.18144 0.37778 0.77709 0.0
C2978 C 0.17826 0.38418 0.97987 0.0
C2979 C 0.18138 0.37992 0.84329 0.0
N2980 N 0.18338 0.31802 0.98567 0.0
N2981 N 0.17905 0.44528 0.83585 0.0
H2982 H 0.18168 0.35272 0.75211 0.0
H2983 H 0.18064 0.40111 0.74749 0.0
H2984 H 0.1773 0.47199 0.8536 0.0
H2985 H 0.1773 0.47199 0.8536 0.0
H2986 H 0.18544 0.31791 0.03578 0.0
H2987 H 0.18412 0.29194 0.96489 0.0
H2988 H 0.16947 0.36337 0.07274 0.0
H2989 H 0.17041 0.41119 0.0676 0.0
C2990 C 0.5503 0.35399 0.85933 0.0
C2991 C 0.54466 0.35105 0.92561 0.0
C2992 C 0.54244 0.41856 0.93394 0.0
C2993 C 0.54541 0.42127 0.86591 0.0
N2994 N 0.56046 0.39397 0.77004 0.0
N2995 N 0.54387 0.38024 0.03037 0.0
C2996 C 0.55201 0.38958 0.8306 0.0
C2997 C 0.54346 0.38333 0.96437 0.0
N2998 N 0.55336 0.32281 0.82344 0.0
N2999 N 0.53739 0.44915 0.96903 0.0
H3000 H 0.54464 0.35474 0.05366 0.0
H3001 H 0.54563 0.40271 0.06146 0.0
H3002 H 0.53836 0.47542 0.94942 0.0
H3003 H 0.53163 0.44826 1.01645 0.0
H3004 H 0.55456 0.32255 0.77307 0.0
H3005 H 0.55427 0.29687 0.84474 0.0
H3006 H 0.56706 0.37263 0.7427 0.0
H3007 H 0.56301 0.4201 0.75048 0.0
loop_
_geom_bond_atom_site_label_1
_geom_bond_atom_site_label_2
_geom_bond_distance
_geom_bond_site_symmetry_2
_ccdc_geom_bond_type
C0 Eu1 2.835 . S
C0 C2 1.500 . S
C0 O20 1.257 . S
C0 O21 1.260 . S
Eu1 C0 2.835 . S
Eu1 O20 2.473 . S
Eu1 O21 2.480 . S
Eu1 O22 2.430 . S
Eu1 O23 2.670 . S
Eu1 O24 2.394 . S
Eu1 O29 2.355 . S
Eu1 O31 2.374 . S
C2 C0 1.500 . S
C2 C3 1.377 . S
C2 C7 1.377 . S
C3 C2 1.377 . S
C3 C4 1.395 . S
C3 H32 0.931 . S
C4 C3 1.395 . S
C4 C5 1.383 . S
C4 H33 0.931 . S
C5 C4 1.383 . S
C5 C6 1.394 . S
C6 C5 1.394 . S
C6 C7 1.378 . S
C6 H34 0.931 . S
C7 C2 1.377 . S
C7 C6 1.378 . S
C7 H35 0.931 . S
C8 O22 1.259 . S
C8 O23 1.270 . S
C9 O24 1.251 . S
C9 O25 1.251 . S
C10 Eu11 2.835 . S
C10 C12 1.500 1_554 S
C10 O26 1.257 . S
C10 O27 1.260 . S
Eu11 C10 2.835 . S
Eu11 O23 2.355 . S
Eu11 O25 2.374 . S
Eu11 O26 2.473 . S
Eu11 O27 2.480 . S
Eu11 O28 2.430 . S
Eu11 O29 2.670 . S
Eu11 O30 2.394 . S
C12 C10 1.500 1_556 S
C12 C13 1.377 . S
C12 C17 1.377 . S
C13 C12 1.377 . S
C13 C14 1.395 . S
C13 H36 0.931 . S
C14 C13 1.395 . S
C14 C15 1.383 . S
C14 H37 0.931 . S
C15 C14 1.383 . S
C15 C16 1.394 . S
C16 C15 1.394 . S
C16 C17 1.378 . S
C16 H38 0.931 . S
C17 C12 1.377 . S
C17 C16 1.378 . S
C17 H39 0.931 . S
C18 O28 1.259 . S
C18 O29 1.270 . S
C19 O30 1.251 . S
C19 O31 1.251 . S
O20 C0 1.257 . S
O20 Eu1 2.473 . S
O21 C0 1.260 . S
O21 Eu1 2.480 . S
O22 Eu1 2.430 . S
O22 C8 1.259 . S
O23 Eu1 2.670 . S
O23 C8 1.270 . S
O23 Eu11 2.355 . S
O24 Eu1 2.394 . S
O24 C9 1.251 . S
O25 C9 1.251 . S
O25 Eu11 2.374 . S
O26 C10 1.257 . S
O26 Eu11 2.473 . S
O27 C10 1.260 . S
O27 Eu11 2.480 . S
O28 Eu11 2.430 . S
O28 C18 1.259 . S
O29 Eu1 2.355 . S
O29 Eu11 2.670 . S
O29 C18 1.270 . S
O30 Eu11 2.394 . S
O30 C19 1.251 . S
O31 Eu1 2.374 . S
O31 C19 1.251 . S
H32 C3 0.931 . S
H33 C4 0.931 . S
H34 C6 0.931 . S
H35 C7 0.931 . S
H36 C13 0.931 . S
H37 C14 0.931 . S
H38 C16 0.931 . S
H39 C17 0.931 . S
C40 Eu41 2.835 . S
C40 C42 1.500 . S
C40 O60 1.257 1_545 S
C40 O61 1.260 . S
Eu41 C40 2.835 . S
Eu41 O60 2.473 1_545 S
Eu41 O61 2.480 . S
Eu41 O62 2.430 . S
Eu41 O63 2.670 . S
Eu41 O64 2.394 . S
Eu41 O69 2.355 1_545 S
Eu41 O71 2.374 . S
C42 C40 1.500 . S
C42 C43 1.377 . S
C42 C47 1.386 . S
C43 C42 1.377 . S
C43 C44 1.395 . S
C43 H72 0.931 . S
C44 C43 1.395 . S
C44 C45 1.383 . S
C44 H73 0.931 . S
C45 C44 1.383 . S
C45 C46 1.394 . S
C46 C45 1.394 . S
C46 C47 1.379 . S
C46 H74 0.931 1_545 S
C47 C42 1.386 . S
C47 C46 1.379 . S
C47 H75 0.921 1_545 S
C48 O62 1.259 . S
C48 O63 1.270 . S
C49 O64 1.251 . S
C49 O65 1.248 1_545 S
C50 Eu51 2.835 . S
C50 C52 1.500 1_554 S
C50 O66 1.257 1_565 S
C50 O67 1.260 . S
Eu51 C50 2.835 . S
Eu51 O63 2.355 1_565 S
Eu51 O65 2.376 . S
Eu51 O66 2.473 1_565 S
Eu51 O67 2.480 . S
Eu51 O68 2.430 . S
Eu51 O69 2.670 . S
Eu51 O70 2.394 . S
C52 C50 1.500 1_556 S
C52 C53 1.377 . S
C52 C57 1.392 . S
C53 C52 1.377 . S
C53 C54 1.395 . S
C53 H76 0.931 . S
C54 C53 1.395 . S
C54 C55 1.383 . S
C54 H77 0.931 . S
C55 C54 1.383 . S
C55 C56 1.394 . S
C56 C55 1.394 . S
C56 C57 1.379 . S
C56 H78 0.931 1_565 S
C57 C52 1.392 . S
C57 C56 1.379 . S
C57 H79 0.915 1_565 S
C58 O68 1.259 . S
C58 O69 1.270 . S
C59 O70 1.251 . S
C59 O71 1.250 1_565 S
O60 C40 1.257 1_565 S
O60 Eu41 2.473 1_565 S
O61 C40 1.260 . S
O61 Eu41 2.480 . S
O62 Eu41 2.430 . S
O62 C48 1.259 . S
O63 Eu41 2.670 . S
O63 C48 1.270 . S
O63 Eu51 2.355 1_545 S
O64 Eu41 2.394 . S
O64 C49 1.251 . S
O65 C49 1.248 1_565 S
O65 Eu51 2.376 . S
O66 C50 1.257 1_545 S
O66 Eu51 2.473 1_545 S
O67 C50 1.260 . S
O67 Eu51 2.480 . S
O68 Eu51 2.430 . S
O68 C58 1.259 . S
O69 Eu41 2.355 1_565 S
O69 Eu51 2.670 . S
O69 C58 1.270 . S
O70 Eu51 2.394 . S
O70 C59 1.251 . S
O71 Eu41 2.374 . S
O71 C59 1.250 1_545 S
H72 C43 0.931 . S
H73 C44 0.931 . S
H74 C46 0.931 1_565 S
H75 C47 0.921 1_565 S
H76 C53 0.931 . S
H77 C54 0.931 . S
H78 C56 0.931 1_545 S
H79 C57 0.915 1_545 S
C80 Eu81 2.835 . S
C80 C82 1.500 . S
C80 O100 1.257 1_545 S
C80 O101 1.260 . S
Eu81 C80 2.835 . S
Eu81 O100 2.473 1_545 S
Eu81 O101 2.480 . S
Eu81 O102 2.430 1_556 S
Eu81 O103 2.670 1_556 S
Eu81 O104 2.394 . S
Eu81 O109 2.355 1_545 S
Eu81 O111 2.374 1_556 S
C82 C80 1.500 . S
C82 C83 1.377 . S
C82 C87 1.386 . S
C83 C82 1.377 . S
C83 C84 1.395 . S
C83 H112 0.931 . S
C84 C83 1.395 . S
C84 C85 1.383 . S
C84 H113 0.931 . S
C85 C84 1.383 . S
C85 C86 1.394 . S
C86 C85 1.394 . S
C86 C87 1.379 . S
C86 H114 0.931 1_545 S
C87 C82 1.386 . S
C87 C86 1.379 . S
C87 H115 0.921 1_545 S
C88 O102 1.259 . S
C88 O103 1.270 . S
C89 O104 1.251 . S
C89 O105 1.248 1_546 S
C90 Eu91 2.835 . S
C90 C92 1.500 . S
C90 O106 1.257 1_565 S
C90 O107 1.260 . S
Eu91 C90 2.835 . S
Eu91 O103 2.355 1_565 S
Eu91 O105 2.376 . S
Eu91 O106 2.473 1_565 S
Eu91 O107 2.480 . S
Eu91 O108 2.430 . S
Eu91 O109 2.670 1_554 S
Eu91 O110 2.394 . S
C92 C90 1.500 . S
C92 C93 1.377 . S
C92 C97 1.392 . S
C93 C92 1.377 . S
C93 C94 1.395 . S
C93 H116 0.931 . S
C94 C93 1.395 . S
C94 C95 1.383 . S
C94 H117 0.931 . S
C95 C94 1.383 . S
C95 C96 1.394 . S
C96 C95 1.394 . S
C96 C97 1.379 . S
C96 H118 0.931 1_565 S
C97 C92 1.392 . S
C97 C96 1.379 . S
C97 H119 0.915 1_565 S
C98 O108 1.259 . S
C98 O109 1.270 1_554 S
C99 O110 1.251 . S
C99 O111 1.250 1_565 S
O100 C80 1.257 1_565 S
O100 Eu81 2.473 1_565 S
O101 C80 1.260 . S
O101 Eu81 2.480 . S
O102 Eu81 2.430 1_554 S
O102 C88 1.259 . S
O103 Eu81 2.670 1_554 S
O103 C88 1.270 . S
O103 Eu91 2.355 1_545 S
O104 Eu81 2.394 . S
O104 C89 1.251 . S
O105 C89 1.248 1_564 S
O105 Eu91 2.376 . S
O106 C90 1.257 1_545 S
O106 Eu91 2.473 1_545 S
O107 C90 1.260 . S
O107 Eu91 2.480 . S
O108 Eu91 2.430 . S
O108 C98 1.259 . S
O109 Eu81 2.355 1_565 S
O109 Eu91 2.670 1_556 S
O109 C98 1.270 1_556 S
O110 Eu91 2.394 . S
O110 C99 1.251 . S
O111 Eu81 2.374 1_554 S
O111 C99 1.250 1_545 S
H112 C83 0.931 . S
H113 C84 0.931 . S
H114 C86 0.931 1_565 S
H115 C87 0.921 1_565 S
H116 C93 0.931 . S
H117 C94 0.931 . S
H118 C96 0.931 1_545 S
H119 C97 0.915 1_545 S
C120 Eu121 2.835 . S
C120 C122 1.500 . S
C120 O140 1.257 . S
C120 O141 1.260 . S
Eu121 C120 2.835 . S
Eu121 O140 2.473 . S
Eu121 O141 2.480 . S
Eu121 O142 2.430 1_556 S
Eu121 O143 2.670 1_556 S
Eu121 O144 2.394 . S
Eu121 O149 2.355 . S
Eu121 O151 2.374 1_556 S
C122 C120 1.500 . S
C122 C123 1.377 . S
C122 C127 1.377 . S
C123 C122 1.377 . S
C123 C124 1.395 . S
C123 H152 0.931 . S
C124 C123 1.395 . S
C124 C125 1.383 . S
C124 H153 0.931 . S
C125 C124 1.383 . S
C125 C126 1.394 . S
C126 C125 1.394 . S
C126 C127 1.378 . S
C126 H154 0.931 . S
C127 C122 1.377 . S
C127 C126 1.378 . S
C127 H155 0.931 . S
C128 O142 1.259 . S
C128 O143 1.270 . S
C129 O144 1.251 . S
C129 O145 1.251 1_556 S
C130 Eu131 2.835 . S
C130 C132 1.500 . S
C130 O146 1.257 . S
C130 O147 1.260 . S
Eu131 C130 2.835 . S
Eu131 O143 2.355 . S
Eu131 O145 2.374 . S
Eu131 O146 2.473 . S
Eu131 O147 2.480 . S
Eu131 O148 2.430 . S
Eu131 O149 2.670 1_554 S
Eu131 O150 2.394 . S
C132 C130 1.500 . S
C132 C133 1.377 . S
C132 C137 1.377 . S
C133 C132 1.377 . S
C133 C134 1.395 . S
C133 H156 0.931 . S
C134 C133 1.395 . S
C134 C135 1.383 . S
C134 H157 0.931 . S
C135 C134 1.383 . S
C135 C136 1.394 . S
C136 C135 1.394 . S
C136 C137 1.378 . S
C136 H158 0.931 . S
C137 C132 1.377 . S
C137 C136 1.378 . S
C137 H159 0.931 . S
C138 O148 1.259 . S
C138 O149 1.270 1_554 S
C139 O150 1.251 . S
C139 O151 1.251 . S
O140 C120 1.257 . S
O140 Eu121 2.473 . S
O141 C120 1.260 . S
O141 Eu121 2.480 . S
O142 Eu121 2.430 1_554 S
O142 C128 1.259 . S
O143 Eu121 2.670 1_554 S
O143 C128 1.270 . S
O143 Eu131 2.355 . S
O144 Eu121 2.394 . S
O144 C129 1.251 . S
O145 C129 1.251 1_554 S
O145 Eu131 2.374 . S
O146 C130 1.257 . S
O146 Eu131 2.473 . S
O147 C130 1.260 . S
O147 Eu131 2.480 . S
O148 Eu131 2.430 . S
O148 C138 1.259 . S
O149 Eu121 2.355 . S
O149 Eu131 2.670 1_556 S
O149 C138 1.270 1_556 S
O150 Eu131 2.394 . S
O150 C139 1.251 . S
O151 Eu121 2.374 1_554 S
O151 C139 1.251 . S
H152 C123 0.931 . S
H153 C124 0.931 . S
H154 C126 0.931 . S
H155 C127 0.931 . S
H156 C133 0.931 . S
H157 C134 0.931 . S
H158 C136 0.931 . S
H159 C137 0.931 . S
C160 Eu161 2.835 . S
C160 C162 1.500 1_556 S
C160 O180 1.257 . S
C160 O181 1.260 . S
Eu161 C160 2.835 . S
Eu161 O180 2.473 . S
Eu161 O181 2.480 . S
Eu161 O182 2.430 . S
Eu161 O183 2.670 . S
Eu161 O184 2.394 . S
Eu161 O189 2.355 . S
Eu161 O191 2.374 . S
C162 C160 1.500 1_554 S
C162 C163 1.377 . S
C162 C167 1.377 . S
C163 C162 1.377 . S
C163 C164 1.395 . S
C163 H192 0.931 . S
C164 C163 1.395 . S
C164 C165 1.383 . S
C164 H193 0.931 . S
C165 C164 1.383 . S
C165 C166 1.394 . S
C166 C165 1.394 . S
C166 C167 1.378 . S
C166 H194 0.931 . S
C167 C162 1.377 . S
C167 C166 1.378 . S
C167 H195 0.931 . S
C168 O182 1.259 . S
C168 O183 1.270 . S
C169 O184 1.251 . S
C169 O185 1.251 . S
C170 Eu171 2.835 . S
C170 C172 1.500 . S
C170 O186 1.257 . S
C170 O187 1.260 . S
Eu171 C170 2.835 . S
Eu171 O183 2.355 . S
Eu171 O185 2.374 . S
Eu171 O186 2.473 . S
Eu171 O187 2.480 . S
Eu171 O188 2.430 . S
Eu171 O189 2.670 . S
Eu171 O190 2.394 . S
C172 C170 1.500 . S
C172 C173 1.377 . S
C172 C177 1.377 . S
C173 C172 1.377 . S
C173 C174 1.395 . S
C173 H196 0.931 . S
C174 C173 1.395 . S
C174 C175 1.383 . S
C174 H197 0.931 . S
C175 C174 1.383 . S
C175 C176 1.394 . S
C176 C175 1.394 . S
C176 C177 1.378 . S
C176 H198 0.931 . S
C177 C172 1.377 . S
C177 C176 1.378 . S
C177 H199 0.931 . S
C178 O188 1.259 . S
C178 O189 1.270 . S
C179 O190 1.251 . S
C179 O191 1.251 . S
O180 C160 1.257 . S
O180 Eu161 2.473 . S
O181 C160 1.260 . S
O181 Eu161 2.480 . S
O182 Eu161 2.430 . S
O182 C168 1.259 . S
O183 Eu161 2.670 . S
O183 C168 1.270 . S
O183 Eu171 2.355 . S
O184 Eu161 2.394 . S
O184 C169 1.251 . S
O185 C169 1.251 . S
O185 Eu171 2.374 . S
O186 C170 1.257 . S
O186 Eu171 2.473 . S
O187 C170 1.260 . S
O187 Eu171 2.480 . S
O188 Eu171 2.430 . S
O188 C178 1.259 . S
O189 Eu161 2.355 . S
O189 Eu171 2.670 . S
O189 C178 1.270 . S
O190 Eu171 2.394 . S
O190 C179 1.251 . S
O191 Eu161 2.374 . S
O191 C179 1.251 . S
H192 C163 0.931 . S
H193 C164 0.931 . S
H194 C166 0.931 . S
H195 C167 0.931 . S
H196 C173 0.931 . S
H197 C174 0.931 . S
H198 C176 0.931 . S
H199 C177 0.931 . S
C200 Eu201 2.835 . S
C200 C202 1.500 1_556 S
C200 O220 1.257 1_545 S
C200 O221 1.260 . S
Eu201 C200 2.835 . S
Eu201 O220 2.473 1_545 S
Eu201 O221 2.480 . S
Eu201 O222 2.430 . S
Eu201 O223 2.670 . S
Eu201 O224 2.394 . S
Eu201 O229 2.355 1_545 S
Eu201 O231 2.376 . S
C202 C200 1.500 1_554 S
C202 C203 1.377 . S
C202 C207 1.392 . S
C203 C202 1.377 . S
C203 C204 1.395 . S
C203 H232 0.931 . S
C204 C203 1.395 . S
C204 C205 1.383 . S
C204 H233 0.931 . S
C205 C204 1.383 . S
C205 C206 1.394 . S
C206 C205 1.394 . S
C206 C207 1.379 . S
C206 H234 0.931 1_545 S
C207 C202 1.392 . S
C207 C206 1.379 . S
C207 H235 0.915 1_545 S
C208 O222 1.259 . S
C208 O223 1.270 . S
C209 O224 1.251 . S
C209 O225 1.250 1_545 S
C210 Eu211 2.835 . S
C210 C212 1.500 . S
C210 O226 1.257 1_565 S
C210 O227 1.260 . S
Eu211 C210 2.835 . S
Eu211 O223 2.355 1_565 S
Eu211 O225 2.374 . S
Eu211 O226 2.473 1_565 S
Eu211 O227 2.480 . S
Eu211 O228 2.430 . S
Eu211 O229 2.670 . S
Eu211 O230 2.394 . S
C212 C210 1.500 . S
C212 C213 1.377 . S
C212 C217 1.386 . S
C213 C212 1.377 . S
C213 C214 1.395 . S
C213 H236 0.931 . S
C214 C213 1.395 . S
C214 C215 1.383 . S
C214 H237 0.931 . S
C215 C214 1.383 . S
C215 C216 1.394 . S
C216 C215 1.394 . S
C216 C217 1.379 . S
C216 H238 0.931 1_565 S
C217 C212 1.386 . S
C217 C216 1.379 . S
C217 H239 0.921 1_565 S
C218 O228 1.259 . S
C218 O229 1.270 . S
C219 O230 1.251 . S
C219 O231 1.248 1_565 S
O220 C200 1.257 1_565 S
O220 Eu201 2.473 1_565 S
O221 C200 1.260 . S
O221 Eu201 2.480 . S
O222 Eu201 2.430 . S
O222 C208 1.259 . S
O223 Eu201 2.670 . S
O223 C208 1.270 . S
O223 Eu211 2.355 1_545 S
O224 Eu201 2.394 . S
O224 C209 1.251 . S
O225 C209 1.250 1_565 S
O225 Eu211 2.374 . S
O226 C210 1.257 1_545 S
O226 Eu211 2.473 1_545 S
O227 C210 1.260 . S
O227 Eu211 2.480 . S
O228 Eu211 2.430 . S
O228 C218 1.259 . S
O229 Eu201 2.355 1_565 S
O229 Eu211 2.670 . S
O229 C218 1.270 . S
O230 Eu211 2.394 . S
O230 C219 1.251 . S
O231 Eu201 2.376 . S
O231 C219 1.248 1_545 S
H232 C203 0.931 . S
H233 C204 0.931 . S
H234 C206 0.931 1_565 S
H235 C207 0.915 1_565 S
H236 C213 0.931 . S
H237 C214 0.931 . S
H238 C216 0.931 1_545 S
H239 C217 0.921 1_545 S
C240 Eu241 2.835 . S
C240 C242 1.500 . S
C240 O260 1.257 1_545 S
C240 O261 1.260 . S
Eu241 C240 2.835 . S
Eu241 O260 2.473 1_545 S
Eu241 O261 2.480 . S
Eu241 O262 2.430 . S
Eu241 O263 2.670 1_556 S
Eu241 O264 2.394 . S
Eu241 O269 2.355 1_545 S
Eu241 O271 2.376 . S
C242 C240 1.500 . S
C242 C243 1.377 . S
C242 C247 1.392 . S
C243 C242 1.377 . S
C243 C244 1.395 . S
C243 H272 0.931 . S
C244 C243 1.395 . S
C244 C245 1.383 . S
C244 H273 0.931 . S
C245 C244 1.383 . S
C245 C246 1.394 . S
C246 C245 1.394 . S
C246 C247 1.379 . S
C246 H274 0.931 1_545 S
C247 C242 1.392 . S
C247 C246 1.379 . S
C247 H275 0.915 1_545 S
C248 O262 1.259 . S
C248 O263 1.270 1_556 S
C249 O264 1.251 . S
C249 O265 1.250 1_545 S
C250 Eu251 2.835 . S
C250 C252 1.500 . S
C250 O266 1.257 1_565 S
C250 O267 1.260 . S
Eu251 C250 2.835 . S
Eu251 O263 2.355 1_565 S
Eu251 O265 2.374 1_554 S
Eu251 O266 2.473 1_565 S
Eu251 O267 2.480 . S
Eu251 O268 2.430 1_554 S
Eu251 O269 2.670 1_554 S
Eu251 O270 2.394 . S
C252 C250 1.500 . S
C252 C253 1.377 . S
C252 C257 1.386 . S
C253 C252 1.377 . S
C253 C254 1.395 . S
C253 H276 0.931 . S
C254 C253 1.395 . S
C254 C255 1.383 . S
C254 H277 0.931 . S
C255 C254 1.383 . S
C255 C256 1.394 . S
C256 C255 1.394 . S
C256 C257 1.379 . S
C256 H278 0.931 1_565 S
C257 C252 1.386 . S
C257 C256 1.379 . S
C257 H279 0.921 1_565 S
C258 O268 1.259 . S
C258 O269 1.270 . S
C259 O270 1.251 . S
C259 O271 1.248 1_564 S
O260 C240 1.257 1_565 S
O260 Eu241 2.473 1_565 S
O261 C240 1.260 . S
O261 Eu241 2.480 . S
O262 Eu241 2.430 . S
O262 C248 1.259 . S
O263 Eu241 2.670 1_554 S
O263 C248 1.270 1_554 S
O263 Eu251 2.355 1_545 S
O264 Eu241 2.394 . S
O264 C249 1.251 . S
O265 C249 1.250 1_565 S
O265 Eu251 2.374 1_556 S
O266 C250 1.257 1_545 S
O266 Eu251 2.473 1_545 S
O267 C250 1.260 . S
O267 Eu251 2.480 . S
O268 Eu251 2.430 1_556 S
O268 C258 1.259 . S
O269 Eu241 2.355 1_565 S
O269 Eu251 2.670 1_556 S
O269 C258 1.270 . S
O270 Eu251 2.394 . S
O270 C259 1.251 . S
O271 Eu241 2.376 . S
O271 C259 1.248 1_546 S
H272 C243 0.931 . S
H273 C244 0.931 . S
H274 C246 0.931 1_565 S
H275 C247 0.915 1_565 S
H276 C253 0.931 . S
H277 C254 0.931 . S
H278 C256 0.931 1_545 S
H279 C257 0.921 1_545 S
C280 Eu281 2.835 . S
C280 C282 1.500 . S
C280 O300 1.257 . S
C280 O301 1.260 . S
Eu281 C280 2.835 . S
Eu281 O300 2.473 . S
Eu281 O301 2.480 . S
Eu281 O302 2.430 . S
Eu281 O303 2.670 1_556 S
Eu281 O304 2.394 . S
Eu281 O309 2.355 . S
Eu281 O311 2.374 . S
C282 C280 1.500 . S
C282 C283 1.377 . S
C282 C287 1.377 . S
C283 C282 1.377 . S
C283 C284 1.395 . S
C283 H312 0.931 . S
C284 C283 1.395 . S
C284 C285 1.383 . S
C284 H313 0.931 . S
C285 C284 1.383 . S
C285 C286 1.394 . S
C286 C285 1.394 . S
C286 C287 1.378 . S
C286 H314 0.931 . S
C287 C282 1.377 . S
C287 C286 1.378 . S
C287 H315 0.931 . S
C288 O302 1.259 . S
C288 O303 1.270 1_556 S
C289 O304 1.251 . S
C289 O305 1.251 . S
C290 Eu291 2.835 . S
C290 C292 1.500 . S
C290 O306 1.257 . S
C290 O307 1.260 . S
Eu291 C290 2.835 . S
Eu291 O303 2.355 . S
Eu291 O305 2.374 1_554 S
Eu291 O306 2.473 . S
Eu291 O307 2.480 . S
Eu291 O308 2.430 1_554 S
Eu291 O309 2.670 1_554 S
Eu291 O310 2.394 . S
C292 C290 1.500 . S
C292 C293 1.377 . S
C292 C297 1.377 . S
C293 C292 1.377 . S
C293 C294 1.395 . S
C293 H316 0.931 . S
C294 C293 1.395 . S
C294 C295 1.383 . S
C294 H317 0.931 . S
C295 C294 1.383 . S
C295 C296 1.394 . S
C296 C295 1.394 . S
C296 C297 1.378 . S
C296 H318 0.931 . S
C297 C292 1.377 . S
C297 C296 1.378 . S
C297 H319 0.931 . S
C298 O308 1.259 . S
C298 O309 1.270 . S
C299 O310 1.251 . S
C299 O311 1.251 1_554 S
O300 C280 1.257 . S
O300 Eu281 2.473 . S
O301 C280 1.260 . S
O301 Eu281 2.480 . S
O302 Eu281 2.430 . S
O302 C288 1.259 . S
O303 Eu281 2.670 1_554 S
O303 C288 1.270 1_554 S
O303 Eu291 2.355 . S
O304 Eu281 2.394 . S
O304 C289 1.251 . S
O305 C289 1.251 . S
O305 Eu291 2.374 1_556 S
O306 C290 1.257 . S
O306 Eu291 2.473 . S
O307 C290 1.260 . S
O307 Eu291 2.480 . S
O308 Eu291 2.430 1_556 S
O308 C298 1.259 . S
O309 Eu281 2.355 . S
O309 Eu291 2.670 1_556 S
O309 C298 1.270 . S
O310 Eu291 2.394 . S
O310 C299 1.251 . S
O311 Eu281 2.374 . S
O311 C299 1.251 1_556 S
H312 C283 0.931 . S
H313 C284 0.931 . S
H314 C286 0.931 . S
H315 C287 0.931 . S
H316 C293 0.931 . S
H317 C294 0.931 . S
H318 C296 0.931 . S
H319 C297 0.931 . S
C320 Eu321 2.835 . S
C320 C322 1.500 . S
C320 O340 1.257 . S
C320 O341 1.260 . S
Eu321 C320 2.835 . S
Eu321 O340 2.473 . S
Eu321 O341 2.480 . S
Eu321 O342 2.430 . S
Eu321 O343 2.670 . S
Eu321 O344 2.394 . S
Eu321 O349 2.355 . S
Eu321 O351 2.374 . S
C322 C320 1.500 . S
C322 C323 1.377 1_556 S
C322 C327 1.377 1_556 S
C323 C322 1.377 1_554 S
C323 C324 1.395 . S
C323 H352 0.931 1_554 S
C324 C323 1.395 . S
C324 C325 1.383 . S
C324 H353 0.931 . S
C325 C324 1.383 . S
C325 C326 1.394 . S
C326 C325 1.394 . S
C326 C327 1.378 . S
C326 H354 0.931 . S
C327 C322 1.377 1_554 S
C327 C326 1.378 . S
C327 H355 0.931 . S
C328 O342 1.259 . S
C328 O343 1.270 . S
C329 O344 1.251 . S
C329 O345 1.251 . S
C330 Eu331 2.835 . S
C330 C332 1.500 . S
C330 O346 1.257 . S
C330 O347 1.260 . S
Eu331 C330 2.835 . S
Eu331 O343 2.355 . S
Eu331 O345 2.374 . S
Eu331 O346 2.473 . S
Eu331 O347 2.480 . S
Eu331 O348 2.430 . S
Eu331 O349 2.670 . S
Eu331 O350 2.394 . S
C332 C330 1.500 . S
C332 C333 1.377 . S
C332 C337 1.377 . S
C333 C332 1.377 . S
C333 C334 1.395 . S
C333 H356 0.931 . S
C334 C333 1.395 . S
C334 C335 1.383 . S
C334 H357 0.931 . S
C335 C334 1.383 . S
C335 C336 1.394 . S
C336 C335 1.394 . S
C336 C337 1.378 . S
C336 H358 0.931 . S
C337 C332 1.377 . S
C337 C336 1.378 . S
C337 H359 0.931 . S
C338 O348 1.259 . S
C338 O349 1.270 . S
C339 O350 1.251 . S
C339 O351 1.251 . S
O340 C320 1.257 . S
O340 Eu321 2.473 . S
O341 C320 1.260 . S
O341 Eu321 2.480 . S
O342 Eu321 2.430 . S
O342 C328 1.259 . S
O343 Eu321 2.670 . S
O343 C328 1.270 . S
O343 Eu331 2.355 . S
O344 Eu321 2.394 . S
O344 C329 1.251 . S
O345 C329 1.251 . S
O345 Eu331 2.374 . S
O346 C330 1.257 . S
O346 Eu331 2.473 . S
O347 C330 1.260 . S
O347 Eu331 2.480 . S
O348 Eu331 2.430 . S
O348 C338 1.259 . S
O349 Eu321 2.355 . S
O349 Eu331 2.670 . S
O349 C338 1.270 . S
O350 Eu331 2.394 . S
O350 C339 1.251 . S
O351 Eu321 2.374 . S
O351 C339 1.251 . S
H352 C323 0.931 1_556 S
H353 C324 0.931 . S
H354 C326 0.931 . S
H355 C327 0.931 . S
H356 C333 0.931 . S
H357 C334 0.931 . S
H358 C336 0.931 . S
H359 C337 0.931 . S
C360 Eu361 2.835 . S
C360 C362 1.500 . S
C360 O380 1.257 . S
C360 O381 1.260 . S
Eu361 C360 2.835 . S
Eu361 O380 2.473 . S
Eu361 O381 2.480 . S
Eu361 O382 2.430 . S
Eu361 O383 2.670 . S
Eu361 O384 2.394 . S
Eu361 O389 2.355 . S
Eu361 O391 2.374 . S
C362 C360 1.500 . S
C362 C363 1.377 1_556 S
C362 C367 1.377 1_556 S
C363 C362 1.377 1_554 S
C363 C364 1.395 . S
C363 H392 0.931 1_554 S
C364 C363 1.395 . S
C364 C365 1.383 . S
C364 H393 0.931 . S
C365 C364 1.383 . S
C365 C366 1.394 . S
C366 C365 1.394 . S
C366 C367 1.378 . S
C366 H394 0.931 . S
C367 C362 1.377 1_554 S
C367 C366 1.378 . S
C367 H395 0.931 . S
C368 O382 1.259 . S
C368 O383 1.270 . S
C369 O384 1.251 . S
C369 O385 1.251 . S
C370 Eu371 2.835 . S
C370 C372 1.500 . S
C370 O386 1.257 . S
C370 O387 1.260 . S
Eu371 C370 2.835 . S
Eu371 O383 2.355 . S
Eu371 O385 2.374 . S
Eu371 O386 2.473 . S
Eu371 O387 2.480 . S
Eu371 O388 2.430 . S
Eu371 O389 2.670 . S
Eu371 O390 2.394 . S
C372 C370 1.500 . S
C372 C373 1.377 . S
C372 C377 1.377 . S
C373 C372 1.377 . S
C373 C374 1.395 . S
C373 H396 0.931 . S
C374 C373 1.395 . S
C374 C375 1.383 . S
C374 H397 0.931 . S
C375 C374 1.383 . S
C375 C376 1.394 . S
C376 C375 1.394 . S
C376 C377 1.378 . S
C376 H398 0.931 . S
C377 C372 1.377 . S
C377 C376 1.378 . S
C377 H399 0.931 . S
C378 O388 1.259 . S
C378 O389 1.270 . S
C379 O390 1.251 . S
C379 O391 1.251 . S
O380 C360 1.257 . S
O380 Eu361 2.473 . S
O381 C360 1.260 . S
O381 Eu361 2.480 . S
O382 Eu361 2.430 . S
O382 C368 1.259 . S
O383 Eu361 2.670 . S
O383 C368 1.270 . S
O383 Eu371 2.355 . S
O384 Eu361 2.394 . S
O384 C369 1.251 . S
O385 C369 1.251 . S
O385 Eu371 2.374 . S
O386 C370 1.257 . S
O386 Eu371 2.473 . S
O387 C370 1.260 . S
O387 Eu371 2.480 . S
O388 Eu371 2.430 . S
O388 C378 1.259 . S
O389 Eu361 2.355 . S
O389 Eu371 2.670 . S
O389 C378 1.270 . S
O390 Eu371 2.394 . S
O390 C379 1.251 . S
O391 Eu361 2.374 . S
O391 C379 1.251 . S
H392 C363 0.931 1_556 S
H393 C364 0.931 . S
H394 C366 0.931 . S
H395 C367 0.931 . S
H396 C373 0.931 . S
H397 C374 0.931 . S
H398 C376 0.931 . S
H399 C377 0.931 . S
C400 Eu401 2.835 . S
C400 C402 1.500 . S
C400 O420 1.257 . S
C400 O421 1.260 . S
Eu401 C400 2.835 . S
Eu401 O420 2.473 . S
Eu401 O421 2.480 . S
Eu401 O422 2.430 . S
Eu401 O423 2.670 . S
Eu401 O424 2.394 . S
Eu401 O429 2.355 . S
Eu401 O431 2.374 . S
C402 C400 1.500 . S
C402 C403 1.377 . S
C402 C407 1.377 . S
C403 C402 1.377 . S
C403 C404 1.395 . S
C403 H432 0.931 . S
C404 C403 1.395 . S
C404 C405 1.383 . S
C404 H433 0.931 . S
C405 C404 1.383 . S
C405 C406 1.394 . S
C406 C405 1.394 . S
C406 C407 1.378 . S
C406 H434 0.931 . S
C407 C402 1.377 . S
C407 C406 1.378 . S
C407 H435 0.931 . S
C408 O422 1.259 . S
C408 O423 1.270 . S
C409 O424 1.251 . S
C409 O425 1.251 . S
C410 Eu411 2.835 . S
C410 C412 1.500 . S
C410 O426 1.257 . S
C410 O427 1.260 . S
Eu411 C410 2.835 . S
Eu411 O423 2.355 . S
Eu411 O425 2.374 . S
Eu411 O426 2.473 . S
Eu411 O427 2.480 . S
Eu411 O428 2.430 . S
Eu411 O429 2.670 . S
Eu411 O430 2.394 . S
C412 C410 1.500 . S
C412 C413 1.377 . S
C412 C417 1.377 . S
C413 C412 1.377 . S
C413 C414 1.395 . S
C413 H436 0.931 . S
C414 C413 1.395 . S
C414 C415 1.383 . S
C414 H437 0.931 . S
C415 C414 1.383 . S
C415 C416 1.394 . S
C416 C415 1.394 . S
C416 C417 1.378 . S
C416 H438 0.931 . S
C417 C412 1.377 . S
C417 C416 1.378 . S
C417 H439 0.931 . S
C418 O428 1.259 . S
C418 O429 1.270 . S
C419 O430 1.251 . S
C419 O431 1.251 . S
O420 C400 1.257 . S
O420 Eu401 2.473 . S
O421 C400 1.260 . S
O421 Eu401 2.480 . S
O422 Eu401 2.430 . S
O422 C408 1.259 . S
O423 Eu401 2.670 . S
O423 C408 1.270 . S
O423 Eu411 2.355 . S
O424 Eu401 2.394 . S
O424 C409 1.251 . S
O425 C409 1.251 . S
O425 Eu411 2.374 . S
O426 C410 1.257 . S
O426 Eu411 2.473 . S
O427 C410 1.260 . S
O427 Eu411 2.480 . S
O428 Eu411 2.430 . S
O428 C418 1.259 . S
O429 Eu401 2.355 . S
O429 Eu411 2.670 . S
O429 C418 1.270 . S
O430 Eu411 2.394 . S
O430 C419 1.251 . S
O431 Eu401 2.374 . S
O431 C419 1.251 . S
H432 C403 0.931 . S
H433 C404 0.931 . S
H434 C406 0.931 . S
H435 C407 0.931 . S
H436 C413 0.931 . S
H437 C414 0.931 . S
H438 C416 0.931 . S
H439 C417 0.931 . S
C440 Eu441 2.835 . S
C440 C442 1.500 . S
C440 O460 1.257 . S
C440 O461 1.260 . S
Eu441 C440 2.835 . S
Eu441 O460 2.473 . S
Eu441 O461 2.480 . S
Eu441 O462 2.430 . S
Eu441 O463 2.670 . S
Eu441 O464 2.394 . S
Eu441 O469 2.355 . S
Eu441 O471 2.374 . S
C442 C440 1.500 . S
C442 C443 1.377 . S
C442 C447 1.377 . S
C443 C442 1.377 . S
C443 C444 1.395 . S
C443 H472 0.931 . S
C444 C443 1.395 . S
C444 C445 1.383 . S
C444 H473 0.931 . S
C445 C444 1.383 . S
C445 C446 1.394 . S
C446 C445 1.394 . S
C446 C447 1.378 . S
C446 H474 0.931 . S
C447 C442 1.377 . S
C447 C446 1.378 . S
C447 H475 0.931 . S
C448 O462 1.259 . S
C448 O463 1.270 . S
C449 O464 1.251 . S
C449 O465 1.251 . S
C450 Eu451 2.835 . S
C450 C452 1.500 . S
C450 O466 1.257 . S
C450 O467 1.260 . S
Eu451 C450 2.835 . S
Eu451 O463 2.355 . S
Eu451 O465 2.374 . S
Eu451 O466 2.473 . S
Eu451 O467 2.480 . S
Eu451 O468 2.430 . S
Eu451 O469 2.670 . S
Eu451 O470 2.394 . S
C452 C450 1.500 . S
C452 C453 1.377 . S
C452 C457 1.377 . S
C453 C452 1.377 . S
C453 C454 1.395 . S
C453 H476 0.931 . S
C454 C453 1.395 . S
C454 C455 1.383 . S
C454 H477 0.931 . S
C455 C454 1.383 . S
C455 C456 1.394 . S
C456 C455 1.394 . S
C456 C457 1.378 . S
C456 H478 0.931 . S
C457 C452 1.377 . S
C457 C456 1.378 . S
C457 H479 0.931 . S
C458 O468 1.259 . S
C458 O469 1.270 . S
C459 O470 1.251 . S
C459 O471 1.251 . S
O460 C440 1.257 . S
O460 Eu441 2.473 . S
O461 C440 1.260 . S
O461 Eu441 2.480 . S
O462 Eu441 2.430 . S
O462 C448 1.259 . S
O463 Eu441 2.670 . S
O463 C448 1.270 . S
O463 Eu451 2.355 . S
O464 Eu441 2.394 . S
O464 C449 1.251 . S
O465 C449 1.251 . S
O465 Eu451 2.374 . S
O466 C450 1.257 . S
O466 Eu451 2.473 . S
O467 C450 1.260 . S
O467 Eu451 2.480 . S
O468 Eu451 2.430 . S
O468 C458 1.259 . S
O469 Eu441 2.355 . S
O469 Eu451 2.670 . S
O469 C458 1.270 . S
O470 Eu451 2.394 . S
O470 C459 1.251 . S
O471 Eu441 2.374 . S
O471 C459 1.251 . S
H472 C443 0.931 . S
H473 C444 0.931 . S
H474 C446 0.931 . S
H475 C447 0.931 . S
H476 C453 0.931 . S
H477 C454 0.931 . S
H478 C456 0.931 . S
H479 C457 0.931 . S
C480 Eu481 2.835 . S
C480 C482 1.500 . S
C480 O500 1.257 . S
C480 O501 1.260 . S
Eu481 C480 2.835 . S
Eu481 O500 2.473 . S
Eu481 O501 2.480 . S
Eu481 O502 2.430 . S
Eu481 O503 2.670 . S
Eu481 O504 2.394 . S
Eu481 O509 2.355 . S
Eu481 O511 2.374 . S
C482 C480 1.500 . S
C482 C483 1.377 . S
C482 C487 1.377 . S
C483 C482 1.377 . S
C483 C484 1.395 . S
C483 H512 0.931 . S
C484 C483 1.395 . S
C484 C485 1.383 . S
C484 H513 0.931 . S
C485 C484 1.383 . S
C485 C486 1.394 . S
C486 C485 1.394 . S
C486 C487 1.378 . S
C486 H514 0.931 . S
C487 C482 1.377 . S
C487 C486 1.378 . S
C487 H515 0.931 . S
C488 O502 1.259 . S
C488 O503 1.270 . S
C489 O504 1.251 . S
C489 O505 1.251 . S
C490 Eu491 2.835 . S
C490 C492 1.500 . S
C490 O506 1.257 . S
C490 O507 1.260 . S
Eu491 C490 2.835 . S
Eu491 O503 2.355 . S
Eu491 O505 2.374 . S
Eu491 O506 2.473 . S
Eu491 O507 2.480 . S
Eu491 O508 2.430 . S
Eu491 O509 2.670 . S
Eu491 O510 2.394 . S
C492 C490 1.500 . S
C492 C493 1.377 1_554 S
C492 C497 1.377 1_554 S
C493 C492 1.377 1_556 S
C493 C494 1.395 . S
C493 H516 0.931 1_556 S
C494 C493 1.395 . S
C494 C495 1.383 . S
C494 H517 0.931 . S
C495 C494 1.383 . S
C495 C496 1.394 . S
C496 C495 1.394 . S
C496 C497 1.378 . S
C496 H518 0.931 . S
C497 C492 1.377 1_556 S
C497 C496 1.378 . S
C497 H519 0.931 . S
C498 O508 1.259 . S
C498 O509 1.270 . S
C499 O510 1.251 . S
C499 O511 1.251 . S
O500 C480 1.257 . S
O500 Eu481 2.473 . S
O501 C480 1.260 . S
O501 Eu481 2.480 . S
O502 Eu481 2.430 . S
O502 C488 1.259 . S
O503 Eu481 2.670 . S
O503 C488 1.270 . S
O503 Eu491 2.355 . S
O504 Eu481 2.394 . S
O504 C489 1.251 . S
O505 C489 1.251 . S
O505 Eu491 2.374 . S
O506 C490 1.257 . S
O506 Eu491 2.473 . S
O507 C490 1.260 . S
O507 Eu491 2.480 . S
O508 Eu491 2.430 . S
O508 C498 1.259 . S
O509 Eu481 2.355 . S
O509 Eu491 2.670 . S
O509 C498 1.270 . S
O510 Eu491 2.394 . S
O510 C499 1.251 . S
O511 Eu481 2.374 . S
O511 C499 1.251 . S
H512 C483 0.931 . S
H513 C484 0.931 . S
H514 C486 0.931 . S
H515 C487 0.931 . S
H516 C493 0.931 1_554 S
H517 C494 0.931 . S
H518 C496 0.931 . S
H519 C497 0.931 . S
C520 Eu521 2.835 . S
C520 C522 1.500 . S
C520 O540 1.257 . S
C520 O541 1.260 . S
Eu521 C520 2.835 . S
Eu521 O540 2.473 . S
Eu521 O541 2.480 . S
Eu521 O542 2.430 . S
Eu521 O543 2.670 . S
Eu521 O544 2.394 . S
Eu521 O549 2.355 . S
Eu521 O551 2.374 . S
C522 C520 1.500 . S
C522 C523 1.377 . S
C522 C527 1.377 . S
C523 C522 1.377 . S
C523 C524 1.395 . S
C523 H552 0.931 . S
C524 C523 1.395 . S
C524 C525 1.383 . S
C524 H553 0.931 . S
C525 C524 1.383 . S
C525 C526 1.394 . S
C526 C525 1.394 . S
C526 C527 1.378 . S
C526 H554 0.931 . S
C527 C522 1.377 . S
C527 C526 1.378 . S
C527 H555 0.931 . S
C528 O542 1.259 . S
C528 O543 1.270 . S
C529 O544 1.251 . S
C529 O545 1.251 . S
C530 Eu531 2.835 . S
C530 C532 1.500 . S
C530 O546 1.257 . S
C530 O547 1.260 . S
Eu531 C530 2.835 . S
Eu531 O543 2.355 . S
Eu531 O545 2.374 . S
Eu531 O546 2.473 . S
Eu531 O547 2.480 . S
Eu531 O548 2.430 . S
Eu531 O549 2.670 . S
Eu531 O550 2.394 . S
C532 C530 1.500 . S
C532 C533 1.377 1_554 S
C532 C537 1.377 1_554 S
C533 C532 1.377 1_556 S
C533 C534 1.395 . S
C533 H556 0.931 1_556 S
C534 C533 1.395 . S
C534 C535 1.383 . S
C534 H557 0.931 . S
C535 C534 1.383 . S
C535 C536 1.394 . S
C536 C535 1.394 . S
C536 C537 1.378 . S
C536 H558 0.931 . S
C537 C532 1.377 1_556 S
C537 C536 1.378 . S
C537 H559 0.931 . S
C538 O548 1.259 . S
C538 O549 1.270 . S
C539 O550 1.251 . S
C539 O551 1.251 . S
O540 C520 1.257 . S
O540 Eu521 2.473 . S
O541 C520 1.260 . S
O541 Eu521 2.480 . S
O542 Eu521 2.430 . S
O542 C528 1.259 . S
O543 Eu521 2.670 . S
O543 C528 1.270 . S
O543 Eu531 2.355 . S
O544 Eu521 2.394 . S
O544 C529 1.251 . S
O545 C529 1.251 . S
O545 Eu531 2.374 . S
O546 C530 1.257 . S
O546 Eu531 2.473 . S
O547 C530 1.260 . S
O547 Eu531 2.480 . S
O548 Eu531 2.430 . S
O548 C538 1.259 . S
O549 Eu521 2.355 . S
O549 Eu531 2.670 . S
O549 C538 1.270 . S
O550 Eu531 2.394 . S
O550 C539 1.251 . S
O551 Eu521 2.374 . S
O551 C539 1.251 . S
H552 C523 0.931 . S
H553 C524 0.931 . S
H554 C526 0.931 . S
H555 C527 0.931 . S
H556 C533 0.931 1_554 S
H557 C534 0.931 . S
H558 C536 0.931 . S
H559 C537 0.931 . S
C560 Eu561 2.835 . S
C560 C562 1.500 . S
C560 O580 1.257 . S
C560 O581 1.260 . S
Eu561 C560 2.835 . S
Eu561 O580 2.473 . S
Eu561 O581 2.480 . S
Eu561 O582 2.430 . S
Eu561 O583 2.670 . S
Eu561 O584 2.394 . S
Eu561 O589 2.355 . S
Eu561 O591 2.374 . S
C562 C560 1.500 . S
C562 C563 1.377 . S
C562 C567 1.377 . S
C563 C562 1.377 . S
C563 C564 1.395 . S
C563 H592 0.931 . S
C564 C563 1.395 . S
C564 C565 1.383 . S
C564 H593 0.931 . S
C565 C564 1.383 . S
C565 C566 1.394 . S
C566 C565 1.394 . S
C566 C567 1.378 . S
C566 H594 0.931 . S
C567 C562 1.377 . S
C567 C566 1.378 . S
C567 H595 0.931 . S
C568 O582 1.259 . S
C568 O583 1.270 . S
C569 O584 1.251 . S
C569 O585 1.251 . S
C570 Eu571 2.835 . S
C570 C572 1.500 . S
C570 O586 1.257 . S
C570 O587 1.260 . S
Eu571 C570 2.835 . S
Eu571 O583 2.355 . S
Eu571 O585 2.374 . S
Eu571 O586 2.473 . S
Eu571 O587 2.480 . S
Eu571 O588 2.430 . S
Eu571 O589 2.670 . S
Eu571 O590 2.394 . S
C572 C570 1.500 . S
C572 C573 1.377 . S
C572 C577 1.377 . S
C573 C572 1.377 . S
C573 C574 1.395 . S
C573 H596 0.931 . S
C574 C573 1.395 . S
C574 C575 1.383 . S
C574 H597 0.931 . S
C575 C574 1.383 . S
C575 C576 1.394 . S
C576 C575 1.394 . S
C576 C577 1.378 . S
C576 H598 0.931 . S
C577 C572 1.377 . S
C577 C576 1.378 . S
C577 H599 0.931 . S
C578 O588 1.259 . S
C578 O589 1.270 . S
C579 O590 1.251 . S
C579 O591 1.251 . S
O580 C560 1.257 . S
O580 Eu561 2.473 . S
O581 C560 1.260 . S
O581 Eu561 2.480 . S
O582 Eu561 2.430 . S
O582 C568 1.259 . S
O583 Eu561 2.670 . S
O583 C568 1.270 . S
O583 Eu571 2.355 . S
O584 Eu561 2.394 . S
O584 C569 1.251 . S
O585 C569 1.251 . S
O585 Eu571 2.374 . S
O586 C570 1.257 . S
O586 Eu571 2.473 . S
O587 C570 1.260 . S
O587 Eu571 2.480 . S
O588 Eu571 2.430 . S
O588 C578 1.259 . S
O589 Eu561 2.355 . S
O589 Eu571 2.670 . S
O589 C578 1.270 . S
O590 Eu571 2.394 . S
O590 C579 1.251 . S
O591 Eu561 2.374 . S
O591 C579 1.251 . S
H592 C563 0.931 . S
H593 C564 0.931 . S
H594 C566 0.931 . S
H595 C567 0.931 . S
H596 C573 0.931 . S
H597 C574 0.931 . S
H598 C576 0.931 . S
H599 C577 0.931 . S
C600 Eu601 2.835 . S
C600 C602 1.500 . S
C600 O620 1.257 . S
C600 O621 1.260 . S
Eu601 C600 2.835 . S
Eu601 O620 2.473 . S
Eu601 O621 2.480 . S
Eu601 O622 2.430 . S
Eu601 O623 2.670 . S
Eu601 O624 2.394 . S
Eu601 O629 2.355 . S
Eu601 O631 2.374 . S
C602 C600 1.500 . S
C602 C603 1.377 . S
C602 C607 1.377 . S
C603 C602 1.377 . S
C603 C604 1.395 . S
C603 H632 0.931 . S
C604 C603 1.395 . S
C604 C605 1.383 . S
C604 H633 0.931 . S
C605 C604 1.383 . S
C605 C606 1.394 . S
C606 C605 1.394 . S
C606 C607 1.378 . S
C606 H634 0.931 . S
C607 C602 1.377 . S
C607 C606 1.378 . S
C607 H635 0.931 . S
C608 O622 1.259 . S
C608 O623 1.270 . S
C609 O624 1.251 . S
C609 O625 1.251 . S
C610 Eu611 2.835 . S
C610 C612 1.500 . S
C610 O626 1.257 . S
C610 O627 1.260 . S
Eu611 C610 2.835 . S
Eu611 O623 2.355 . S
Eu611 O625 2.374 . S
Eu611 O626 2.473 . S
Eu611 O627 2.480 . S
Eu611 O628 2.430 . S
Eu611 O629 2.670 . S
Eu611 O630 2.394 . S
C612 C610 1.500 . S
C612 C613 1.377 . S
C612 C617 1.377 . S
C613 C612 1.377 . S
C613 C614 1.395 . S
C613 H636 0.931 . S
C614 C613 1.395 . S
C614 C615 1.383 . S
C614 H637 0.931 . S
C615 C614 1.383 . S
C615 C616 1.394 . S
C616 C615 1.394 . S
C616 C617 1.378 . S
C616 H638 0.931 . S
C617 C612 1.377 . S
C617 C616 1.378 . S
C617 H639 0.931 . S
C618 O628 1.259 . S
C618 O629 1.270 . S
C619 O630 1.251 . S
C619 O631 1.251 . S
O620 C600 1.257 . S
O620 Eu601 2.473 . S
O621 C600 1.260 . S
O621 Eu601 2.480 . S
O622 Eu601 2.430 . S
O622 C608 1.259 . S
O623 Eu601 2.670 . S
O623 C608 1.270 . S
O623 Eu611 2.355 . S
O624 Eu601 2.394 . S
O624 C609 1.251 . S
O625 C609 1.251 . S
O625 Eu611 2.374 . S
O626 C610 1.257 . S
O626 Eu611 2.473 . S
O627 C610 1.260 . S
O627 Eu611 2.480 . S
O628 Eu611 2.430 . S
O628 C618 1.259 . S
O629 Eu601 2.355 . S
O629 Eu611 2.670 . S
O629 C618 1.270 . S
O630 Eu611 2.394 . S
O630 C619 1.251 . S
O631 Eu601 2.374 . S
O631 C619 1.251 . S
H632 C603 0.931 . S
H633 C604 0.931 . S
H634 C606 0.931 . S
H635 C607 0.931 . S
H636 C613 0.931 . S
H637 C614 0.931 . S
H638 C616 0.931 . S
H639 C617 0.931 . S
C640 Eu641 2.835 . S
C640 C642 1.500 . S
C640 O660 1.257 . S
C640 O661 1.260 . S
Eu641 C640 2.835 . S
Eu641 O660 2.473 . S
Eu641 O661 2.480 . S
Eu641 O662 2.430 . S
Eu641 O663 2.670 . S
Eu641 O664 2.394 . S
Eu641 O669 2.355 . S
Eu641 O671 2.374 . S
C642 C640 1.500 . S
C642 C643 1.377 1_556 S
C642 C647 1.377 1_556 S
C643 C642 1.377 1_554 S
C643 C644 1.395 . S
C643 H672 0.931 1_554 S
C644 C643 1.395 . S
C644 C645 1.383 . S
C644 H673 0.931 . S
C645 C644 1.383 . S
C645 C646 1.394 . S
C646 C645 1.394 . S
C646 C647 1.378 . S
C646 H674 0.931 . S
C647 C642 1.377 1_554 S
C647 C646 1.378 . S
C647 H675 0.931 . S
C648 O662 1.259 . S
C648 O663 1.270 . S
C649 O664 1.251 . S
C649 O665 1.251 . S
C650 Eu651 2.835 . S
C650 C652 1.500 . S
C650 O666 1.257 . S
C650 O667 1.260 . S
Eu651 C650 2.835 . S
Eu651 O663 2.355 . S
Eu651 O665 2.374 . S
Eu651 O666 2.473 . S
Eu651 O667 2.480 . S
Eu651 O668 2.430 . S
Eu651 O669 2.670 . S
Eu651 O670 2.394 . S
C652 C650 1.500 . S
C652 C653 1.377 . S
C652 C657 1.377 . S
C653 C652 1.377 . S
C653 C654 1.395 . S
C653 H676 0.931 . S
C654 C653 1.395 . S
C654 C655 1.383 . S
C654 H677 0.931 . S
C655 C654 1.383 . S
C655 C656 1.394 . S
C656 C655 1.394 . S
C656 C657 1.378 . S
C656 H678 0.931 . S
C657 C652 1.377 . S
C657 C656 1.378 . S
C657 H679 0.931 . S
C658 O668 1.259 . S
C658 O669 1.270 . S
C659 O670 1.251 . S
C659 O671 1.251 . S
O660 C640 1.257 . S
O660 Eu641 2.473 . S
O661 C640 1.260 . S
O661 Eu641 2.480 . S
O662 Eu641 2.430 . S
O662 C648 1.259 . S
O663 Eu641 2.670 . S
O663 C648 1.270 . S
O663 Eu651 2.355 . S
O664 Eu641 2.394 . S
O664 C649 1.251 . S
O665 C649 1.251 . S
O665 Eu651 2.374 . S
O666 C650 1.257 . S
O666 Eu651 2.473 . S
O667 C650 1.260 . S
O667 Eu651 2.480 . S
O668 Eu651 2.430 . S
O668 C658 1.259 . S
O669 Eu641 2.355 . S
O669 Eu651 2.670 . S
O669 C658 1.270 . S
O670 Eu651 2.394 . S
O670 C659 1.251 . S
O671 Eu641 2.374 . S
O671 C659 1.251 . S
H672 C643 0.931 1_556 S
H673 C644 0.931 . S
H674 C646 0.931 . S
H675 C647 0.931 . S
H676 C653 0.931 . S
H677 C654 0.931 . S
H678 C656 0.931 . S
H679 C657 0.931 . S
C680 Eu681 2.835 . S
C680 C682 1.500 . S
C680 O700 1.257 1_545 S
C680 O701 1.260 . S
Eu681 C680 2.835 . S
Eu681 O700 2.473 1_545 S
Eu681 O701 2.480 . S
Eu681 O702 2.430 . S
Eu681 O703 2.670 . S
Eu681 O704 2.394 . S
Eu681 O709 2.355 1_545 S
Eu681 O711 2.374 . S
C682 C680 1.500 . S
C682 C683 1.377 1_556 S
C682 C687 1.386 1_556 S
C683 C682 1.377 1_554 S
C683 C684 1.395 . S
C683 H712 0.931 1_554 S
C684 C683 1.395 . S
C684 C685 1.383 . S
C684 H713 0.931 . S
C685 C684 1.383 . S
C685 C686 1.394 . S
C686 C685 1.394 . S
C686 C687 1.379 . S
C686 H714 0.931 1_545 S
C687 C682 1.386 1_554 S
C687 C686 1.379 . S
C687 H715 0.921 1_545 S
C688 O702 1.259 . S
C688 O703 1.270 . S
C689 O704 1.251 . S
C689 O705 1.248 1_545 S
C690 Eu691 2.835 . S
C690 C692 1.500 . S
C690 O706 1.257 1_565 S
C690 O707 1.260 . S
Eu691 C690 2.835 . S
Eu691 O703 2.355 1_565 S
Eu691 O705 2.376 . S
Eu691 O706 2.473 1_565 S
Eu691 O707 2.480 . S
Eu691 O708 2.430 . S
Eu691 O709 2.670 . S
Eu691 O710 2.394 . S
C692 C690 1.500 . S
C692 C693 1.377 . S
C692 C697 1.392 . S
C693 C692 1.377 . S
C693 C694 1.395 . S
C693 H716 0.931 . S
C694 C693 1.395 . S
C694 C695 1.383 . S
C694 H717 0.931 . S
C695 C694 1.383 . S
C695 C696 1.394 . S
C696 C695 1.394 . S
C696 C697 1.379 . S
C696 H718 0.931 1_565 S
C697 C692 1.392 . S
C697 C696 1.379 . S
C697 H719 0.915 1_565 S
C698 O708 1.259 . S
C698 O709 1.270 . S
C699 O710 1.251 . S
C699 O711 1.250 1_565 S
O700 C680 1.257 1_565 S
O700 Eu681 2.473 1_565 S
O701 C680 1.260 . S
O701 Eu681 2.480 . S
O702 Eu681 2.430 . S
O702 C688 1.259 . S
O703 Eu681 2.670 . S
O703 C688 1.270 . S
O703 Eu691 2.355 1_545 S
O704 Eu681 2.394 . S
O704 C689 1.251 . S
O705 C689 1.248 1_565 S
O705 Eu691 2.376 . S
O706 C690 1.257 1_545 S
O706 Eu691 2.473 1_545 S
O707 C690 1.260 . S
O707 Eu691 2.480 . S
O708 Eu691 2.430 . S
O708 C698 1.259 . S
O709 Eu681 2.355 1_565 S
O709 Eu691 2.670 . S
O709 C698 1.270 . S
O710 Eu691 2.394 . S
O710 C699 1.251 . S
O711 Eu681 2.374 . S
O711 C699 1.250 1_545 S
H712 C683 0.931 1_556 S
H713 C684 0.931 . S
H714 C686 0.931 1_565 S
H715 C687 0.921 1_565 S
H716 C693 0.931 . S
H717 C694 0.931 . S
H718 C696 0.931 1_545 S
H719 C697 0.915 1_545 S
C720 Eu721 2.835 . S
C720 C722 1.500 . S
C720 O740 1.257 1_545 S
C720 O741 1.260 . S
Eu721 C720 2.835 . S
Eu721 O740 2.473 1_545 S
Eu721 O741 2.480 . S
Eu721 O742 2.430 . S
Eu721 O743 2.670 . S
Eu721 O744 2.394 . S
Eu721 O749 2.355 1_545 S
Eu721 O751 2.374 . S
C722 C720 1.500 . S
C722 C723 1.377 . S
C722 C727 1.386 . S
C723 C722 1.377 . S
C723 C724 1.395 . S
C723 H752 0.931 . S
C724 C723 1.395 . S
C724 C725 1.383 . S
C724 H753 0.931 . S
C725 C724 1.383 . S
C725 C726 1.394 . S
C726 C725 1.394 . S
C726 C727 1.379 . S
C726 H754 0.931 1_545 S
C727 C722 1.386 . S
C727 C726 1.379 . S
C727 H755 0.921 1_545 S
C728 O742 1.259 . S
C728 O743 1.270 . S
C729 O744 1.251 . S
C729 O745 1.248 1_545 S
C730 Eu731 2.835 . S
C730 C732 1.500 . S
C730 O746 1.257 1_565 S
C730 O747 1.260 . S
Eu731 C730 2.835 . S
Eu731 O743 2.355 1_565 S
Eu731 O745 2.376 . S
Eu731 O746 2.473 1_565 S
Eu731 O747 2.480 . S
Eu731 O748 2.430 . S
Eu731 O749 2.670 . S
Eu731 O750 2.394 . S
C732 C730 1.500 . S
C732 C733 1.377 . S
C732 C737 1.392 . S
C733 C732 1.377 . S
C733 C734 1.395 . S
C733 H756 0.931 . S
C734 C733 1.395 . S
C734 C735 1.383 . S
C734 H757 0.931 . S
C735 C734 1.383 . S
C735 C736 1.394 . S
C736 C735 1.394 . S
C736 C737 1.379 . S
C736 H758 0.931 1_565 S
C737 C732 1.392 . S
C737 C736 1.379 . S
C737 H759 0.915 1_565 S
C738 O748 1.259 . S
C738 O749 1.270 . S
C739 O750 1.251 . S
C739 O751 1.250 1_565 S
O740 C720 1.257 1_565 S
O740 Eu721 2.473 1_565 S
O741 C720 1.260 . S
O741 Eu721 2.480 . S
O742 Eu721 2.430 . S
O742 C728 1.259 . S
O743 Eu721 2.670 . S
O743 C728 1.270 . S
O743 Eu731 2.355 1_545 S
O744 Eu721 2.394 . S
O744 C729 1.251 . S
O745 C729 1.248 1_565 S
O745 Eu731 2.376 . S
O746 C730 1.257 1_545 S
O746 Eu731 2.473 1_545 S
O747 C730 1.260 . S
O747 Eu731 2.480 . S
O748 Eu731 2.430 . S
O748 C738 1.259 . S
O749 Eu721 2.355 1_565 S
O749 Eu731 2.670 . S
O749 C738 1.270 . S
O750 Eu731 2.394 . S
O750 C739 1.251 . S
O751 Eu721 2.374 . S
O751 C739 1.250 1_545 S
H752 C723 0.931 . S
H753 C724 0.931 . S
H754 C726 0.931 1_565 S
H755 C727 0.921 1_565 S
H756 C733 0.931 . S
H757 C734 0.931 . S
H758 C736 0.931 1_545 S
H759 C737 0.915 1_545 S
C760 Eu761 2.835 . S
C760 C762 1.500 . S
C760 O780 1.257 . S
C760 O781 1.260 . S
Eu761 C760 2.835 . S
Eu761 O780 2.473 . S
Eu761 O781 2.480 . S
Eu761 O782 2.430 . S
Eu761 O783 2.670 . S
Eu761 O784 2.394 . S
Eu761 O789 2.355 . S
Eu761 O791 2.374 . S
C762 C760 1.500 . S
C762 C763 1.377 . S
C762 C767 1.377 . S
C763 C762 1.377 . S
C763 C764 1.395 . S
C763 H792 0.931 . S
C764 C763 1.395 . S
C764 C765 1.383 . S
C764 H793 0.931 . S
C765 C764 1.383 . S
C765 C766 1.394 . S
C766 C765 1.394 . S
C766 C767 1.378 . S
C766 H794 0.931 . S
C767 C762 1.377 . S
C767 C766 1.378 . S
C767 H795 0.931 . S
C768 O782 1.259 . S
C768 O783 1.270 . S
C769 O784 1.251 . S
C769 O785 1.251 . S
C770 Eu771 2.835 . S
C770 C772 1.500 . S
C770 O786 1.257 . S
C770 O787 1.260 . S
Eu771 C770 2.835 . S
Eu771 O783 2.355 . S
Eu771 O785 2.374 . S
Eu771 O786 2.473 . S
Eu771 O787 2.480 . S
Eu771 O788 2.430 . S
Eu771 O789 2.670 . S
Eu771 O790 2.394 . S
C772 C770 1.500 . S
C772 C773 1.377 . S
C772 C777 1.377 . S
C773 C772 1.377 . S
C773 C774 1.395 . S
C773 H796 0.931 . S
C774 C773 1.395 . S
C774 C775 1.383 . S
C774 H797 0.931 . S
C775 C774 1.383 . S
C775 C776 1.394 . S
C776 C775 1.394 . S
C776 C777 1.378 . S
C776 H798 0.931 . S
C777 C772 1.377 . S
C777 C776 1.378 . S
C777 H799 0.931 . S
C778 O788 1.259 . S
C778 O789 1.270 . S
C779 O790 1.251 . S
C779 O791 1.251 . S
O780 C760 1.257 . S
O780 Eu761 2.473 . S
O781 C760 1.260 . S
O781 Eu761 2.480 . S
O782 Eu761 2.430 . S
O782 C768 1.259 . S
O783 Eu761 2.670 . S
O783 C768 1.270 . S
O783 Eu771 2.355 . S
O784 Eu761 2.394 . S
O784 C769 1.251 . S
O785 C769 1.251 . S
O785 Eu771 2.374 . S
O786 C770 1.257 . S
O786 Eu771 2.473 . S
O787 C770 1.260 . S
O787 Eu771 2.480 . S
O788 Eu771 2.430 . S
O788 C778 1.259 . S
O789 Eu761 2.355 . S
O789 Eu771 2.670 . S
O789 C778 1.270 . S
O790 Eu771 2.394 . S
O790 C779 1.251 . S
O791 Eu761 2.374 . S
O791 C779 1.251 . S
H792 C763 0.931 . S
H793 C764 0.931 . S
H794 C766 0.931 . S
H795 C767 0.931 . S
H796 C773 0.931 . S
H797 C774 0.931 . S
H798 C776 0.931 . S
H799 C777 0.931 . S
C800 Eu801 2.835 . S
C800 C802 1.500 . S
C800 O820 1.257 . S
C800 O821 1.260 . S
Eu801 C800 2.835 . S
Eu801 O820 2.473 . S
Eu801 O821 2.480 . S
Eu801 O822 2.430 . S
Eu801 O823 2.670 . S
Eu801 O824 2.394 . S
Eu801 O829 2.355 . S
Eu801 O831 2.374 . S
C802 C800 1.500 . S
C802 C803 1.377 . S
C802 C807 1.377 . S
C803 C802 1.377 . S
C803 C804 1.395 . S
C803 H832 0.931 . S
C804 C803 1.395 . S
C804 C805 1.383 . S
C804 H833 0.931 . S
C805 C804 1.383 . S
C805 C806 1.394 . S
C806 C805 1.394 . S
C806 C807 1.378 . S
C806 H834 0.931 . S
C807 C802 1.377 . S
C807 C806 1.378 . S
C807 H835 0.931 . S
C808 O822 1.259 . S
C808 O823 1.270 . S
C809 O824 1.251 . S
C809 O825 1.251 . S
C810 Eu811 2.835 . S
C810 C812 1.500 . S
C810 O826 1.257 . S
C810 O827 1.260 . S
Eu811 C810 2.835 . S
Eu811 O823 2.355 . S
Eu811 O825 2.374 . S
Eu811 O826 2.473 . S
Eu811 O827 2.480 . S
Eu811 O828 2.430 . S
Eu811 O829 2.670 . S
Eu811 O830 2.394 . S
C812 C810 1.500 . S
C812 C813 1.377 1_554 S
C812 C817 1.377 1_554 S
C813 C812 1.377 1_556 S
C813 C814 1.395 . S
C813 H836 0.931 1_556 S
C814 C813 1.395 . S
C814 C815 1.383 . S
C814 H837 0.931 . S
C815 C814 1.383 . S
C815 C816 1.394 . S
C816 C815 1.394 . S
C816 C817 1.378 . S
C816 H838 0.931 . S
C817 C812 1.377 1_556 S
C817 C816 1.378 . S
C817 H839 0.931 . S
C818 O828 1.259 . S
C818 O829 1.270 . S
C819 O830 1.251 . S
C819 O831 1.251 . S
O820 C800 1.257 . S
O820 Eu801 2.473 . S
O821 C800 1.260 . S
O821 Eu801 2.480 . S
O822 Eu801 2.430 . S
O822 C808 1.259 . S
O823 Eu801 2.670 . S
O823 C808 1.270 . S
O823 Eu811 2.355 . S
O824 Eu801 2.394 . S
O824 C809 1.251 . S
O825 C809 1.251 . S
O825 Eu811 2.374 . S
O826 C810 1.257 . S
O826 Eu811 2.473 . S
O827 C810 1.260 . S
O827 Eu811 2.480 . S
O828 Eu811 2.430 . S
O828 C818 1.259 . S
O829 Eu801 2.355 . S
O829 Eu811 2.670 . S
O829 C818 1.270 . S
O830 Eu811 2.394 . S
O830 C819 1.251 . S
O831 Eu801 2.374 . S
O831 C819 1.251 . S
H832 C803 0.931 . S
H833 C804 0.931 . S
H834 C806 0.931 . S
H835 C807 0.931 . S
H836 C813 0.931 1_554 S
H837 C814 0.931 . S
H838 C816 0.931 . S
H839 C817 0.931 . S
C840 Eu841 2.835 . S
C840 C842 1.500 . S
C840 O860 1.257 1_545 S
C840 O861 1.260 . S
Eu841 C840 2.835 . S
Eu841 O860 2.473 1_545 S
Eu841 O861 2.480 . S
Eu841 O862 2.430 . S
Eu841 O863 2.670 . S
Eu841 O864 2.394 . S
Eu841 O869 2.355 1_545 S
Eu841 O871 2.376 . S
C842 C840 1.500 . S
C842 C843 1.377 . S
C842 C847 1.392 . S
C843 C842 1.377 . S
C843 C844 1.395 . S
C843 H872 0.931 . S
C844 C843 1.395 . S
C844 C845 1.383 . S
C844 H873 0.931 . S
C845 C844 1.383 . S
C845 C846 1.394 . S
C846 C845 1.394 . S
C846 C847 1.379 . S
C846 H874 0.931 1_545 S
C847 C842 1.392 . S
C847 C846 1.379 . S
C847 H875 0.915 1_545 S
C848 O862 1.259 . S
C848 O863 1.270 . S
C849 O864 1.251 . S
C849 O865 1.250 1_545 S
C850 Eu851 2.835 . S
C850 C852 1.500 . S
C850 O866 1.257 1_565 S
C850 O867 1.260 . S
Eu851 C850 2.835 . S
Eu851 O863 2.355 1_565 S
Eu851 O865 2.374 . S
Eu851 O866 2.473 1_565 S
Eu851 O867 2.480 . S
Eu851 O868 2.430 . S
Eu851 O869 2.670 . S
Eu851 O870 2.394 . S
C852 C850 1.500 . S
C852 C853 1.377 1_554 S
C852 C857 1.386 1_554 S
C853 C852 1.377 1_556 S
C853 C854 1.395 . S
C853 H876 0.931 1_556 S
C854 C853 1.395 . S
C854 C855 1.383 . S
C854 H877 0.931 . S
C855 C854 1.383 . S
C855 C856 1.394 . S
C856 C855 1.394 . S
C856 C857 1.379 . S
C856 H878 0.931 1_565 S
C857 C852 1.386 1_556 S
C857 C856 1.379 . S
C857 H879 0.921 1_565 S
C858 O868 1.259 . S
C858 O869 1.270 . S
C859 O870 1.251 . S
C859 O871 1.248 1_565 S
O860 C840 1.257 1_565 S
O860 Eu841 2.473 1_565 S
O861 C840 1.260 . S
O861 Eu841 2.480 . S
O862 Eu841 2.430 . S
O862 C848 1.259 . S
O863 Eu841 2.670 . S
O863 C848 1.270 . S
O863 Eu851 2.355 1_545 S
O864 Eu841 2.394 . S
O864 C849 1.251 . S
O865 C849 1.250 1_565 S
O865 Eu851 2.374 . S
O866 C850 1.257 1_545 S
O866 Eu851 2.473 1_545 S
O867 C850 1.260 . S
O867 Eu851 2.480 . S
O868 Eu851 2.430 . S
O868 C858 1.259 . S
O869 Eu841 2.355 1_565 S
O869 Eu851 2.670 . S
O869 C858 1.270 . S
O870 Eu851 2.394 . S
O870 C859 1.251 . S
O871 Eu841 2.376 . S
O871 C859 1.248 1_545 S
H872 C843 0.931 . S
H873 C844 0.931 . S
H874 C846 0.931 1_565 S
H875 C847 0.915 1_565 S
H876 C853 0.931 1_554 S
H877 C854 0.931 . S
H878 C856 0.931 1_545 S
H879 C857 0.921 1_545 S
C880 Eu881 2.835 . S
C880 C882 1.500 . S
C880 O900 1.257 1_545 S
C880 O901 1.260 . S
Eu881 C880 2.835 . S
Eu881 O900 2.473 1_545 S
Eu881 O901 2.480 . S
Eu881 O902 2.430 . S
Eu881 O903 2.670 . S
Eu881 O904 2.394 . S
Eu881 O909 2.355 1_545 S
Eu881 O911 2.376 . S
C882 C880 1.500 . S
C882 C883 1.377 . S
C882 C887 1.392 . S
C883 C882 1.377 . S
C883 C884 1.395 . S
C883 H912 0.931 . S
C884 C883 1.395 . S
C884 C885 1.383 . S
C884 H913 0.931 . S
C885 C884 1.383 . S
C885 C886 1.394 . S
C886 C885 1.394 . S
C886 C887 1.379 . S
C886 H914 0.931 1_545 S
C887 C882 1.392 . S
C887 C886 1.379 . S
C887 H915 0.915 1_545 S
C888 O902 1.259 . S
C888 O903 1.270 . S
C889 O904 1.251 . S
C889 O905 1.250 1_545 S
C890 Eu891 2.835 . S
C890 C892 1.500 . S
C890 O906 1.257 1_565 S
C890 O907 1.260 . S
Eu891 C890 2.835 . S
Eu891 O903 2.355 1_565 S
Eu891 O905 2.374 . S
Eu891 O906 2.473 1_565 S
Eu891 O907 2.480 . S
Eu891 O908 2.430 . S
Eu891 O909 2.670 . S
Eu891 O910 2.394 . S
C892 C890 1.500 . S
C892 C893 1.377 . S
C892 C897 1.386 . S
C893 C892 1.377 . S
C893 C894 1.395 . S
C893 H916 0.931 . S
C894 C893 1.395 . S
C894 C895 1.383 . S
C894 H917 0.931 . S
C895 C894 1.383 . S
C895 C896 1.394 . S
C896 C895 1.394 . S
C896 C897 1.379 . S
C896 H918 0.931 1_565 S
C897 C892 1.386 . S
C897 C896 1.379 . S
C897 H919 0.921 1_565 S
C898 O908 1.259 . S
C898 O909 1.270 . S
C899 O910 1.251 . S
C899 O911 1.248 1_565 S
O900 C880 1.257 1_565 S
O900 Eu881 2.473 1_565 S
O901 C880 1.260 . S
O901 Eu881 2.480 . S
O902 Eu881 2.430 . S
O902 C888 1.259 . S
O903 Eu881 2.670 . S
O903 C888 1.270 . S
O903 Eu891 2.355 1_545 S
O904 Eu881 2.394 . S
O904 C889 1.251 . S
O905 C889 1.250 1_565 S
O905 Eu891 2.374 . S
O906 C890 1.257 1_545 S
O906 Eu891 2.473 1_545 S
O907 C890 1.260 . S
O907 Eu891 2.480 . S
O908 Eu891 2.430 . S
O908 C898 1.259 . S
O909 Eu881 2.355 1_565 S
O909 Eu891 2.670 . S
O909 C898 1.270 . S
O910 Eu891 2.394 . S
O910 C899 1.251 . S
O911 Eu881 2.376 . S
O911 C899 1.248 1_545 S
H912 C883 0.931 . S
H913 C884 0.931 . S
H914 C886 0.931 1_565 S
H915 C887 0.915 1_565 S
H916 C893 0.931 . S
H917 C894 0.931 . S
H918 C896 0.931 1_545 S
H919 C897 0.921 1_545 S
C920 Eu921 2.835 . S
C920 C922 1.500 . S
C920 O940 1.257 . S
C920 O941 1.260 . S
Eu921 C920 2.835 . S
Eu921 O940 2.473 . S
Eu921 O941 2.480 . S
Eu921 O942 2.430 . S
Eu921 O943 2.670 . S
Eu921 O944 2.394 . S
Eu921 O949 2.355 . S
Eu921 O951 2.374 . S
C922 C920 1.500 . S
C922 C923 1.377 . S
C922 C927 1.377 . S
C923 C922 1.377 . S
C923 C924 1.395 . S
C923 H952 0.931 . S
C924 C923 1.395 . S
C924 C925 1.383 . S
C924 H953 0.931 . S
C925 C924 1.383 . S
C925 C926 1.394 . S
C926 C925 1.394 . S
C926 C927 1.378 . S
C926 H954 0.931 . S
C927 C922 1.377 . S
C927 C926 1.378 . S
C927 H955 0.931 . S
C928 O942 1.259 . S
C928 O943 1.270 . S
C929 O944 1.251 . S
C929 O945 1.251 . S
C930 Eu931 2.835 . S
C930 C932 1.500 . S
C930 O946 1.257 . S
C930 O947 1.260 . S
Eu931 C930 2.835 . S
Eu931 O943 2.355 . S
Eu931 O945 2.374 . S
Eu931 O946 2.473 . S
Eu931 O947 2.480 . S
Eu931 O948 2.430 . S
Eu931 O949 2.670 . S
Eu931 O950 2.394 . S
C932 C930 1.500 . S
C932 C933 1.377 . S
C932 C937 1.377 . S
C933 C932 1.377 . S
C933 C934 1.395 . S
C933 H956 0.931 . S
C934 C933 1.395 . S
C934 C935 1.383 . S
C934 H957 0.931 . S
C935 C934 1.383 . S
C935 C936 1.394 . S
C936 C935 1.394 . S
C936 C937 1.378 . S
C936 H958 0.931 . S
C937 C932 1.377 . S
C937 C936 1.378 . S
C937 H959 0.931 . S
C938 O948 1.259 . S
C938 O949 1.270 . S
C939 O950 1.251 . S
C939 O951 1.251 . S
O940 C920 1.257 . S
O940 Eu921 2.473 . S
O941 C920 1.260 . S
O941 Eu921 2.480 . S
O942 Eu921 2.430 . S
O942 C928 1.259 . S
O943 Eu921 2.670 . S
O943 C928 1.270 . S
O943 Eu931 2.355 . S
O944 Eu921 2.394 . S
O944 C929 1.251 . S
O945 C929 1.251 . S
O945 Eu931 2.374 . S
O946 C930 1.257 . S
O946 Eu931 2.473 . S
O947 C930 1.260 . S
O947 Eu931 2.480 . S
O948 Eu931 2.430 . S
O948 C938 1.259 . S
O949 Eu921 2.355 . S
O949 Eu931 2.670 . S
O949 C938 1.270 . S
O950 Eu931 2.394 . S
O950 C939 1.251 . S
O951 Eu921 2.374 . S
O951 C939 1.251 . S
H952 C923 0.931 . S
H953 C924 0.931 . S
H954 C926 0.931 . S
H955 C927 0.931 . S
H956 C933 0.931 . S
H957 C934 0.931 . S
H958 C936 0.931 . S
H959 C937 0.931 . S
C960 Eu961 2.835 . S
C960 C962 1.500 . S
C960 O980 1.257 . S
C960 O981 1.260 . S
Eu961 C960 2.835 . S
Eu961 O980 2.473 . S
Eu961 O981 2.480 . S
Eu961 O982 2.430 . S
Eu961 O983 2.670 . S
Eu961 O984 2.394 . S
Eu961 O989 2.355 . S
Eu961 O991 2.374 . S
C962 C960 1.500 . S
C962 C963 1.377 . S
C962 C967 1.377 . S
C963 C962 1.377 . S
C963 C964 1.395 . S
C963 H992 0.931 . S
C964 C963 1.395 . S
C964 C965 1.383 . S
C964 H993 0.931 . S
C965 C964 1.383 . S
C965 C966 1.394 . S
C966 C965 1.394 . S
C966 C967 1.378 . S
C966 H994 0.931 . S
C967 C962 1.377 . S
C967 C966 1.378 . S
C967 H995 0.931 . S
C968 O982 1.259 . S
C968 O983 1.270 . S
C969 O984 1.251 . S
C969 O985 1.251 . S
C970 Eu971 2.835 . S
C970 C972 1.500 1_554 S
C970 O986 1.257 . S
C970 O987 1.260 . S
Eu971 C970 2.835 . S
Eu971 O983 2.355 . S
Eu971 O985 2.374 . S
Eu971 O986 2.473 . S
Eu971 O987 2.480 . S
Eu971 O988 2.430 . S
Eu971 O989 2.670 . S
Eu971 O990 2.394 . S
C972 C970 1.500 1_556 S
C972 C973 1.377 . S
C972 C977 1.377 . S
C973 C972 1.377 . S
C973 C974 1.395 . S
C973 H996 0.931 . S
C974 C973 1.395 . S
C974 C975 1.383 . S
C974 H997 0.931 . S
C975 C974 1.383 . S
C975 C976 1.394 . S
C976 C975 1.394 . S
C976 C977 1.378 . S
C976 H998 0.931 . S
C977 C972 1.377 . S
C977 C976 1.378 . S
C977 H999 0.931 . S
C978 O988 1.259 . S
C978 O989 1.270 . S
C979 O990 1.251 . S
C979 O991 1.251 . S
O980 C960 1.257 . S
O980 Eu961 2.473 . S
O981 C960 1.260 . S
O981 Eu961 2.480 . S
O982 Eu961 2.430 . S
O982 C968 1.259 . S
O983 Eu961 2.670 . S
O983 C968 1.270 . S
O983 Eu971 2.355 . S
O984 Eu961 2.394 . S
O984 C969 1.251 . S
O985 C969 1.251 . S
O985 Eu971 2.374 . S
O986 C970 1.257 . S
O986 Eu971 2.473 . S
O987 C970 1.260 . S
O987 Eu971 2.480 . S
O988 Eu971 2.430 . S
O988 C978 1.259 . S
O989 Eu961 2.355 . S
O989 Eu971 2.670 . S
O989 C978 1.270 . S
O990 Eu971 2.394 . S
O990 C979 1.251 . S
O991 Eu961 2.374 . S
O991 C979 1.251 . S
H992 C963 0.931 . S
H993 C964 0.931 . S
H994 C966 0.931 . S
H995 C967 0.931 . S
H996 C973 0.931 . S
H997 C974 0.931 . S
H998 C976 0.931 . S
H999 C977 0.931 . S
C1000 Eu1001 2.835 . S
C1000 C1002 1.500 . S
C1000 O1020 1.257 . S
C1000 O1021 1.260 . S
Eu1001 C1000 2.835 . S
Eu1001 O1020 2.473 . S
Eu1001 O1021 2.480 . S
Eu1001 O1022 2.430 . S
Eu1001 O1023 2.670 . S
Eu1001 O1024 2.394 . S
Eu1001 O1029 2.355 . S
Eu1001 O1031 2.374 . S
C1002 C1000 1.500 . S
C1002 C1003 1.377 . S
C1002 C1007 1.377 . S
C1003 C1002 1.377 . S
C1003 C1004 1.395 . S
C1003 H1032 0.931 . S
C1004 C1003 1.395 . S
C1004 C1005 1.383 . S
C1004 H1033 0.931 . S
C1005 C1004 1.383 . S
C1005 C1006 1.394 . S
C1006 C1005 1.394 . S
C1006 C1007 1.378 . S
C1006 H1034 0.931 . S
C1007 C1002 1.377 . S
C1007 C1006 1.378 . S
C1007 H1035 0.931 . S
C1008 O1022 1.259 . S
C1008 O1023 1.270 . S
C1009 O1024 1.251 . S
C1009 O1025 1.251 . S
C1010 Eu1011 2.835 . S
C1010 C1012 1.500 1_554 S
C1010 O1026 1.257 . S
C1010 O1027 1.260 . S
Eu1011 C1010 2.835 . S
Eu1011 O1023 2.355 . S
Eu1011 O1025 2.374 . S
Eu1011 O1026 2.473 . S
Eu1011 O1027 2.480 . S
Eu1011 O1028 2.430 . S
Eu1011 O1029 2.670 . S
Eu1011 O1030 2.394 . S
C1012 C1010 1.500 1_556 S
C1012 C1013 1.377 . S
C1012 C1017 1.377 . S
C1013 C1012 1.377 . S
C1013 C1014 1.395 . S
C1013 H1036 0.931 . S
C1014 C1013 1.395 . S
C1014 C1015 1.383 . S
C1014 H1037 0.931 . S
C1015 C1014 1.383 . S
C1015 C1016 1.394 . S
C1016 C1015 1.394 . S
C1016 C1017 1.378 . S
C1016 H1038 0.931 . S
C1017 C1012 1.377 . S
C1017 C1016 1.378 . S
C1017 H1039 0.931 . S
C1018 O1028 1.259 . S
C1018 O1029 1.270 . S
C1019 O1030 1.251 . S
C1019 O1031 1.251 . S
O1020 C1000 1.257 . S
O1020 Eu1001 2.473 . S
O1021 C1000 1.260 . S
O1021 Eu1001 2.480 . S
O1022 Eu1001 2.430 . S
O1022 C1008 1.259 . S
O1023 Eu1001 2.670 . S
O1023 C1008 1.270 . S
O1023 Eu1011 2.355 . S
O1024 Eu1001 2.394 . S
O1024 C1009 1.251 . S
O1025 C1009 1.251 . S
O1025 Eu1011 2.374 . S
O1026 C1010 1.257 . S
O1026 Eu1011 2.473 . S
O1027 C1010 1.260 . S
O1027 Eu1011 2.480 . S
O1028 Eu1011 2.430 . S
O1028 C1018 1.259 . S
O1029 Eu1001 2.355 . S
O1029 Eu1011 2.670 . S
O1029 C1018 1.270 . S
O1030 Eu1011 2.394 . S
O1030 C1019 1.251 . S
O1031 Eu1001 2.374 . S
O1031 C1019 1.251 . S
H1032 C1003 0.931 . S
H1033 C1004 0.931 . S
H1034 C1006 0.931 . S
H1035 C1007 0.931 . S
H1036 C1013 0.931 . S
H1037 C1014 0.931 . S
H1038 C1016 0.931 . S
H1039 C1017 0.931 . S
C1040 Eu1041 2.835 . S
C1040 C1042 1.500 . S
C1040 O1060 1.257 . S
C1040 O1061 1.260 . S
Eu1041 C1040 2.835 . S
Eu1041 O1060 2.473 . S
Eu1041 O1061 2.480 . S
Eu1041 O1062 2.430 1_556 S
Eu1041 O1063 2.670 1_556 S
Eu1041 O1064 2.394 . S
Eu1041 O1069 2.355 . S
Eu1041 O1071 2.374 1_556 S
C1042 C1040 1.500 . S
C1042 C1043 1.377 . S
C1042 C1047 1.377 . S
C1043 C1042 1.377 . S
C1043 C1044 1.395 . S
C1043 H1072 0.931 . S
C1044 C1043 1.395 . S
C1044 C1045 1.383 . S
C1044 H1073 0.931 . S
C1045 C1044 1.383 . S
C1045 C1046 1.394 . S
C1046 C1045 1.394 . S
C1046 C1047 1.378 . S
C1046 H1074 0.931 . S
C1047 C1042 1.377 . S
C1047 C1046 1.378 . S
C1047 H1075 0.931 . S
C1048 O1062 1.259 . S
C1048 O1063 1.270 . S
C1049 O1064 1.251 . S
C1049 O1065 1.251 1_556 S
C1050 Eu1051 2.835 . S
C1050 C1052 1.500 . S
C1050 O1066 1.257 . S
C1050 O1067 1.260 . S
Eu1051 C1050 2.835 . S
Eu1051 O1063 2.355 . S
Eu1051 O1065 2.374 . S
Eu1051 O1066 2.473 . S
Eu1051 O1067 2.480 . S
Eu1051 O1068 2.430 . S
Eu1051 O1069 2.670 1_554 S
Eu1051 O1070 2.394 . S
C1052 C1050 1.500 . S
C1052 C1053 1.377 . S
C1052 C1057 1.377 . S
C1053 C1052 1.377 . S
C1053 C1054 1.395 . S
C1053 H1076 0.931 . S
C1054 C1053 1.395 . S
C1054 C1055 1.383 . S
C1054 H1077 0.931 . S
C1055 C1054 1.383 . S
C1055 C1056 1.394 . S
C1056 C1055 1.394 . S
C1056 C1057 1.378 . S
C1056 H1078 0.931 . S
C1057 C1052 1.377 . S
C1057 C1056 1.378 . S
C1057 H1079 0.931 . S
C1058 O1068 1.259 . S
C1058 O1069 1.270 1_554 S
C1059 O1070 1.251 . S
C1059 O1071 1.251 . S
O1060 C1040 1.257 . S
O1060 Eu1041 2.473 . S
O1061 C1040 1.260 . S
O1061 Eu1041 2.480 . S
O1062 Eu1041 2.430 1_554 S
O1062 C1048 1.259 . S
O1063 Eu1041 2.670 1_554 S
O1063 C1048 1.270 . S
O1063 Eu1051 2.355 . S
O1064 Eu1041 2.394 . S
O1064 C1049 1.251 . S
O1065 C1049 1.251 1_554 S
O1065 Eu1051 2.374 . S
O1066 C1050 1.257 . S
O1066 Eu1051 2.473 . S
O1067 C1050 1.260 . S
O1067 Eu1051 2.480 . S
O1068 Eu1051 2.430 . S
O1068 C1058 1.259 . S
O1069 Eu1041 2.355 . S
O1069 Eu1051 2.670 1_556 S
O1069 C1058 1.270 1_556 S
O1070 Eu1051 2.394 . S
O1070 C1059 1.251 . S
O1071 Eu1041 2.374 1_554 S
O1071 C1059 1.251 . S
H1072 C1043 0.931 . S
H1073 C1044 0.931 . S
H1074 C1046 0.931 . S
H1075 C1047 0.931 . S
H1076 C1053 0.931 . S
H1077 C1054 0.931 . S
H1078 C1056 0.931 . S
H1079 C1057 0.931 . S
C1080 Eu1081 2.835 . S
C1080 C1082 1.500 . S
C1080 O1100 1.257 . S
C1080 O1101 1.260 . S
Eu1081 C1080 2.835 . S
Eu1081 O1100 2.473 . S
Eu1081 O1101 2.480 . S
Eu1081 O1102 2.430 1_556 S
Eu1081 O1103 2.670 1_556 S
Eu1081 O1104 2.394 . S
Eu1081 O1109 2.355 . S
Eu1081 O1111 2.374 1_556 S
C1082 C1080 1.500 . S
C1082 C1083 1.377 . S
C1082 C1087 1.377 . S
C1083 C1082 1.377 . S
C1083 C1084 1.395 . S
C1083 H1112 0.931 . S
C1084 C1083 1.395 . S
C1084 C1085 1.383 . S
C1084 H1113 0.931 . S
C1085 C1084 1.383 . S
C1085 C1086 1.394 . S
C1086 C1085 1.394 . S
C1086 C1087 1.378 . S
C1086 H1114 0.931 . S
C1087 C1082 1.377 . S
C1087 C1086 1.378 . S
C1087 H1115 0.931 . S
C1088 O1102 1.259 . S
C1088 O1103 1.270 . S
C1089 O1104 1.251 . S
C1089 O1105 1.251 1_556 S
C1090 Eu1091 2.835 . S
C1090 C1092 1.500 . S
C1090 O1106 1.257 . S
C1090 O1107 1.260 . S
Eu1091 C1090 2.835 . S
Eu1091 O1103 2.355 . S
Eu1091 O1105 2.374 . S
Eu1091 O1106 2.473 . S
Eu1091 O1107 2.480 . S
Eu1091 O1108 2.430 . S
Eu1091 O1109 2.670 1_554 S
Eu1091 O1110 2.394 . S
C1092 C1090 1.500 . S
C1092 C1093 1.377 . S
C1092 C1097 1.377 . S
C1093 C1092 1.377 . S
C1093 C1094 1.395 . S
C1093 H1116 0.931 . S
C1094 C1093 1.395 . S
C1094 C1095 1.383 . S
C1094 H1117 0.931 . S
C1095 C1094 1.383 . S
C1095 C1096 1.394 . S
C1096 C1095 1.394 . S
C1096 C1097 1.378 . S
C1096 H1118 0.931 . S
C1097 C1092 1.377 . S
C1097 C1096 1.378 . S
C1097 H1119 0.931 . S
C1098 O1108 1.259 . S
C1098 O1109 1.270 1_554 S
C1099 O1110 1.251 . S
C1099 O1111 1.251 . S
O1100 C1080 1.257 . S
O1100 Eu1081 2.473 . S
O1101 C1080 1.260 . S
O1101 Eu1081 2.480 . S
O1102 Eu1081 2.430 1_554 S
O1102 C1088 1.259 . S
O1103 Eu1081 2.670 1_554 S
O1103 C1088 1.270 . S
O1103 Eu1091 2.355 . S
O1104 Eu1081 2.394 . S
O1104 C1089 1.251 . S
O1105 C1089 1.251 1_554 S
O1105 Eu1091 2.374 . S
O1106 C1090 1.257 . S
O1106 Eu1091 2.473 . S
O1107 C1090 1.260 . S
O1107 Eu1091 2.480 . S
O1108 Eu1091 2.430 . S
O1108 C1098 1.259 . S
O1109 Eu1081 2.355 . S
O1109 Eu1091 2.670 1_556 S
O1109 C1098 1.270 1_556 S
O1110 Eu1091 2.394 . S
O1110 C1099 1.251 . S
O1111 Eu1081 2.374 1_554 S
O1111 C1099 1.251 . S
H1112 C1083 0.931 . S
H1113 C1084 0.931 . S
H1114 C1086 0.931 . S
H1115 C1087 0.931 . S
H1116 C1093 0.931 . S
H1117 C1094 0.931 . S
H1118 C1096 0.931 . S
H1119 C1097 0.931 . S
C1120 Eu1121 2.835 . S
C1120 C1122 1.500 1_556 S
C1120 O1140 1.257 . S
C1120 O1141 1.260 . S
Eu1121 C1120 2.835 . S
Eu1121 O1140 2.473 . S
Eu1121 O1141 2.480 . S
Eu1121 O1142 2.430 . S
Eu1121 O1143 2.670 . S
Eu1121 O1144 2.394 . S
Eu1121 O1149 2.355 . S
Eu1121 O1151 2.374 . S
C1122 C1120 1.500 1_554 S
C1122 C1123 1.377 . S
C1122 C1127 1.377 . S
C1123 C1122 1.377 . S
C1123 C1124 1.395 . S
C1123 H1152 0.931 . S
C1124 C1123 1.395 . S
C1124 C1125 1.383 . S
C1124 H1153 0.931 . S
C1125 C1124 1.383 . S
C1125 C1126 1.394 . S
C1126 C1125 1.394 . S
C1126 C1127 1.378 . S
C1126 H1154 0.931 . S
C1127 C1122 1.377 . S
C1127 C1126 1.378 . S
C1127 H1155 0.931 . S
C1128 O1142 1.259 . S
C1128 O1143 1.270 . S
C1129 O1144 1.251 . S
C1129 O1145 1.251 . S
C1130 Eu1131 2.835 . S
C1130 C1132 1.500 . S
C1130 O1146 1.257 . S
C1130 O1147 1.260 . S
Eu1131 C1130 2.835 . S
Eu1131 O1143 2.355 . S
Eu1131 O1145 2.374 . S
Eu1131 O1146 2.473 . S
Eu1131 O1147 2.480 . S
Eu1131 O1148 2.430 . S
Eu1131 O1149 2.670 . S
Eu1131 O1150 2.394 . S
C1132 C1130 1.500 . S
C1132 C1133 1.377 . S
C1132 C1137 1.377 . S
C1133 C1132 1.377 . S
C1133 C1134 1.395 . S
C1133 H1156 0.931 . S
C1134 C1133 1.395 . S
C1134 C1135 1.383 . S
C1134 H1157 0.931 . S
C1135 C1134 1.383 . S
C1135 C1136 1.394 . S
C1136 C1135 1.394 . S
C1136 C1137 1.378 . S
C1136 H1158 0.931 . S
C1137 C1132 1.377 . S
C1137 C1136 1.378 . S
C1137 H1159 0.931 . S
C1138 O1148 1.259 . S
C1138 O1149 1.270 . S
C1139 O1150 1.251 . S
C1139 O1151 1.251 . S
O1140 C1120 1.257 . S
O1140 Eu1121 2.473 . S
O1141 C1120 1.260 . S
O1141 Eu1121 2.480 . S
O1142 Eu1121 2.430 . S
O1142 C1128 1.259 . S
O1143 Eu1121 2.670 . S
O1143 C1128 1.270 . S
O1143 Eu1131 2.355 . S
O1144 Eu1121 2.394 . S
O1144 C1129 1.251 . S
O1145 C1129 1.251 . S
O1145 Eu1131 2.374 . S
O1146 C1130 1.257 . S
O1146 Eu1131 2.473 . S
O1147 C1130 1.260 . S
O1147 Eu1131 2.480 . S
O1148 Eu1131 2.430 . S
O1148 C1138 1.259 . S
O1149 Eu1121 2.355 . S
O1149 Eu1131 2.670 . S
O1149 C1138 1.270 . S
O1150 Eu1131 2.394 . S
O1150 C1139 1.251 . S
O1151 Eu1121 2.374 . S
O1151 C1139 1.251 . S
H1152 C1123 0.931 . S
H1153 C1124 0.931 . S
H1154 C1126 0.931 . S
H1155 C1127 0.931 . S
H1156 C1133 0.931 . S
H1157 C1134 0.931 . S
H1158 C1136 0.931 . S
H1159 C1137 0.931 . S
C1160 Eu1161 2.835 . S
C1160 C1162 1.500 1_556 S
C1160 O1180 1.257 . S
C1160 O1181 1.260 . S
Eu1161 C1160 2.835 . S
Eu1161 O1180 2.473 . S
Eu1161 O1181 2.480 . S
Eu1161 O1182 2.430 . S
Eu1161 O1183 2.670 . S
Eu1161 O1184 2.394 . S
Eu1161 O1189 2.355 . S
Eu1161 O1191 2.374 . S
C1162 C1160 1.500 1_554 S
C1162 C1163 1.377 . S
C1162 C1167 1.377 . S
C1163 C1162 1.377 . S
C1163 C1164 1.395 . S
C1163 H1192 0.931 . S
C1164 C1163 1.395 . S
C1164 C1165 1.383 . S
C1164 H1193 0.931 . S
C1165 C1164 1.383 . S
C1165 C1166 1.394 . S
C1166 C1165 1.394 . S
C1166 C1167 1.378 . S
C1166 H1194 0.931 . S
C1167 C1162 1.377 . S
C1167 C1166 1.378 . S
C1167 H1195 0.931 . S
C1168 O1182 1.259 . S
C1168 O1183 1.270 . S
C1169 O1184 1.251 . S
C1169 O1185 1.251 . S
C1170 Eu1171 2.835 . S
C1170 C1172 1.500 . S
C1170 O1186 1.257 . S
C1170 O1187 1.260 . S
Eu1171 C1170 2.835 . S
Eu1171 O1183 2.355 . S
Eu1171 O1185 2.374 . S
Eu1171 O1186 2.473 . S
Eu1171 O1187 2.480 . S
Eu1171 O1188 2.430 . S
Eu1171 O1189 2.670 . S
Eu1171 O1190 2.394 . S
C1172 C1170 1.500 . S
C1172 C1173 1.377 . S
C1172 C1177 1.377 . S
C1173 C1172 1.377 . S
C1173 C1174 1.395 . S
C1173 H1196 0.931 . S
C1174 C1173 1.395 . S
C1174 C1175 1.383 . S
C1174 H1197 0.931 . S
C1175 C1174 1.383 . S
C1175 C1176 1.394 . S
C1176 C1175 1.394 . S
C1176 C1177 1.378 . S
C1176 H1198 0.931 . S
C1177 C1172 1.377 . S
C1177 C1176 1.378 . S
C1177 H1199 0.931 . S
C1178 O1188 1.259 . S
C1178 O1189 1.270 . S
C1179 O1190 1.251 . S
C1179 O1191 1.251 . S
O1180 C1160 1.257 . S
O1180 Eu1161 2.473 . S
O1181 C1160 1.260 . S
O1181 Eu1161 2.480 . S
O1182 Eu1161 2.430 . S
O1182 C1168 1.259 . S
O1183 Eu1161 2.670 . S
O1183 C1168 1.270 . S
O1183 Eu1171 2.355 . S
O1184 Eu1161 2.394 . S
O1184 C1169 1.251 . S
O1185 C1169 1.251 . S
O1185 Eu1171 2.374 . S
O1186 C1170 1.257 . S
O1186 Eu1171 2.473 . S
O1187 C1170 1.260 . S
O1187 Eu1171 2.480 . S
O1188 Eu1171 2.430 . S
O1188 C1178 1.259 . S
O1189 Eu1161 2.355 . S
O1189 Eu1171 2.670 . S
O1189 C1178 1.270 . S
O1190 Eu1171 2.394 . S
O1190 C1179 1.251 . S
O1191 Eu1161 2.374 . S
O1191 C1179 1.251 . S
H1192 C1163 0.931 . S
H1193 C1164 0.931 . S
H1194 C1166 0.931 . S
H1195 C1167 0.931 . S
H1196 C1173 0.931 . S
H1197 C1174 0.931 . S
H1198 C1176 0.931 . S
H1199 C1177 0.931 . S
C1200 Eu1201 2.835 . S
C1200 C1202 1.500 . S
C1200 O1220 1.257 . S
C1200 O1221 1.260 . S
Eu1201 C1200 2.835 . S
Eu1201 O1220 2.473 . S
Eu1201 O1221 2.480 . S
Eu1201 O1222 2.430 . S
Eu1201 O1223 2.670 1_556 S
Eu1201 O1224 2.394 . S
Eu1201 O1229 2.355 . S
Eu1201 O1231 2.374 . S
C1202 C1200 1.500 . S
C1202 C1203 1.377 . S
C1202 C1207 1.377 . S
C1203 C1202 1.377 . S
C1203 C1204 1.395 . S
C1203 H1232 0.931 . S
C1204 C1203 1.395 . S
C1204 C1205 1.383 . S
C1204 H1233 0.931 . S
C1205 C1204 1.383 . S
C1205 C1206 1.394 . S
C1206 C1205 1.394 . S
C1206 C1207 1.378 . S
C1206 H1234 0.931 . S
C1207 C1202 1.377 . S
C1207 C1206 1.378 . S
C1207 H1235 0.931 . S
C1208 O1222 1.259 . S
C1208 O1223 1.270 1_556 S
C1209 O1224 1.251 . S
C1209 O1225 1.251 . S
C1210 Eu1211 2.835 . S
C1210 C1212 1.500 . S
C1210 O1226 1.257 . S
C1210 O1227 1.260 . S
Eu1211 C1210 2.835 . S
Eu1211 O1223 2.355 . S
Eu1211 O1225 2.374 1_554 S
Eu1211 O1226 2.473 . S
Eu1211 O1227 2.480 . S
Eu1211 O1228 2.430 1_554 S
Eu1211 O1229 2.670 1_554 S
Eu1211 O1230 2.394 . S
C1212 C1210 1.500 . S
C1212 C1213 1.377 . S
C1212 C1217 1.377 . S
C1213 C1212 1.377 . S
C1213 C1214 1.395 . S
C1213 H1236 0.931 . S
C1214 C1213 1.395 . S
C1214 C1215 1.383 . S
C1214 H1237 0.931 . S
C1215 C1214 1.383 . S
C1215 C1216 1.394 . S
C1216 C1215 1.394 . S
C1216 C1217 1.378 . S
C1216 H1238 0.931 . S
C1217 C1212 1.377 . S
C1217 C1216 1.378 . S
C1217 H1239 0.931 . S
C1218 O1228 1.259 . S
C1218 O1229 1.270 . S
C1219 O1230 1.251 . S
C1219 O1231 1.251 1_554 S
O1220 C1200 1.257 . S
O1220 Eu1201 2.473 . S
O1221 C1200 1.260 . S
O1221 Eu1201 2.480 . S
O1222 Eu1201 2.430 . S
O1222 C1208 1.259 . S
O1223 Eu1201 2.670 1_554 S
O1223 C1208 1.270 1_554 S
O1223 Eu1211 2.355 . S
O1224 Eu1201 2.394 . S
O1224 C1209 1.251 . S
O1225 C1209 1.251 . S
O1225 Eu1211 2.374 1_556 S
O1226 C1210 1.257 . S
O1226 Eu1211 2.473 . S
O1227 C1210 1.260 . S
O1227 Eu1211 2.480 . S
O1228 Eu1211 2.430 1_556 S
O1228 C1218 1.259 . S
O1229 Eu1201 2.355 . S
O1229 Eu1211 2.670 1_556 S
O1229 C1218 1.270 . S
O1230 Eu1211 2.394 . S
O1230 C1219 1.251 . S
O1231 Eu1201 2.374 . S
O1231 C1219 1.251 1_556 S
H1232 C1203 0.931 . S
H1233 C1204 0.931 . S
H1234 C1206 0.931 . S
H1235 C1207 0.931 . S
H1236 C1213 0.931 . S
H1237 C1214 0.931 . S
H1238 C1216 0.931 . S
H1239 C1217 0.931 . S
C1240 Eu1241 2.835 . S
C1240 C1242 1.500 . S
C1240 O1260 1.257 . S
C1240 O1261 1.260 . S
Eu1241 C1240 2.835 . S
Eu1241 O1260 2.473 . S
Eu1241 O1261 2.480 . S
Eu1241 O1262 2.430 . S
Eu1241 O1263 2.670 1_556 S
Eu1241 O1264 2.394 . S
Eu1241 O1269 2.355 . S
Eu1241 O1271 2.374 . S
C1242 C1240 1.500 . S
C1242 C1243 1.377 . S
C1242 C1247 1.377 . S
C1243 C1242 1.377 . S
C1243 C1244 1.395 . S
C1243 H1272 0.931 . S
C1244 C1243 1.395 . S
C1244 C1245 1.383 . S
C1244 H1273 0.931 . S
C1245 C1244 1.383 . S
C1245 C1246 1.394 . S
C1246 C1245 1.394 . S
C1246 C1247 1.378 . S
C1246 H1274 0.931 . S
C1247 C1242 1.377 . S
C1247 C1246 1.378 . S
C1247 H1275 0.931 . S
C1248 O1262 1.259 . S
C1248 O1263 1.270 1_556 S
C1249 O1264 1.251 . S
C1249 O1265 1.251 . S
C1250 Eu1251 2.835 . S
C1250 C1252 1.500 . S
C1250 O1266 1.257 . S
C1250 O1267 1.260 . S
Eu1251 C1250 2.835 . S
Eu1251 O1263 2.355 . S
Eu1251 O1265 2.374 1_554 S
Eu1251 O1266 2.473 . S
Eu1251 O1267 2.480 . S
Eu1251 O1268 2.430 1_554 S
Eu1251 O1269 2.670 1_554 S
Eu1251 O1270 2.394 . S
C1252 C1250 1.500 . S
C1252 C1253 1.377 . S
C1252 C1257 1.377 . S
C1253 C1252 1.377 . S
C1253 C1254 1.395 . S
C1253 H1276 0.931 . S
C1254 C1253 1.395 . S
C1254 C1255 1.383 . S
C1254 H1277 0.931 . S
C1255 C1254 1.383 . S
C1255 C1256 1.394 . S
C1256 C1255 1.394 . S
C1256 C1257 1.378 . S
C1256 H1278 0.931 . S
C1257 C1252 1.377 . S
C1257 C1256 1.378 . S
C1257 H1279 0.931 . S
C1258 O1268 1.259 . S
C1258 O1269 1.270 . S
C1259 O1270 1.251 . S
C1259 O1271 1.251 1_554 S
O1260 C1240 1.257 . S
O1260 Eu1241 2.473 . S
O1261 C1240 1.260 . S
O1261 Eu1241 2.480 . S
O1262 Eu1241 2.430 . S
O1262 C1248 1.259 . S
O1263 Eu1241 2.670 1_554 S
O1263 C1248 1.270 1_554 S
O1263 Eu1251 2.355 . S
O1264 Eu1241 2.394 . S
O1264 C1249 1.251 . S
O1265 C1249 1.251 . S
O1265 Eu1251 2.374 1_556 S
O1266 C1250 1.257 . S
O1266 Eu1251 2.473 . S
O1267 C1250 1.260 . S
O1267 Eu1251 2.480 . S
O1268 Eu1251 2.430 1_556 S
O1268 C1258 1.259 . S
O1269 Eu1241 2.355 . S
O1269 Eu1251 2.670 1_556 S
O1269 C1258 1.270 . S
O1270 Eu1251 2.394 . S
O1270 C1259 1.251 . S
O1271 Eu1241 2.374 . S
O1271 C1259 1.251 1_556 S
H1272 C1243 0.931 . S
H1273 C1244 0.931 . S
H1274 C1246 0.931 . S
H1275 C1247 0.931 . S
H1276 C1253 0.931 . S
H1277 C1254 0.931 . S
H1278 C1256 0.931 . S
H1279 C1257 0.931 . S
C1280 C1281 1.363 . S
C1280 C1286 1.379 1_556 S
C1280 N1288 1.356 . S
C1281 C1280 1.363 . S
C1281 C1287 1.363 . S
C1282 C1283 1.363 . S
C1282 C1287 1.379 1_554 S
C1282 N1289 1.356 . S
C1283 C1282 1.363 . S
C1283 C1286 1.363 . S
N1284 C1286 1.356 . S
N1284 H1296 0.984 . S
N1284 H1297 0.985 . S
N1285 C1287 1.356 . S
N1285 H1290 0.984 . S
N1285 H1291 0.985 . S
C1286 C1280 1.379 1_554 S
C1286 C1283 1.363 . S
C1286 N1284 1.356 . S
C1287 C1281 1.363 . S
C1287 C1282 1.379 1_556 S
C1287 N1285 1.356 . S
N1288 C1280 1.356 . S
N1288 H1294 0.984 . S
N1288 H1295 0.984 . S
N1289 C1282 1.356 . S
N1289 H1292 0.984 . S
N1289 H1293 0.985 . S
H1290 N1285 0.984 . S
H1291 N1285 0.985 . S
H1292 N1289 0.984 . S
H1293 N1289 0.985 . S
H1294 N1288 0.984 . S
H1295 N1288 0.984 . S
H1296 N1284 0.984 . S
H1297 N1284 0.985 . S
C1298 C1299 1.363 . S
C1298 C1304 1.379 1_556 S
C1298 N1306 1.356 . S
C1299 C1298 1.363 . S
C1299 C1305 1.363 1_445 S
C1300 C1301 1.363 . S
C1300 C1305 1.379 1_554 S
C1300 N1307 1.356 . S
C1301 C1300 1.363 . S
C1301 C1304 1.363 1_665 S
N1302 C1304 1.356 . S
N1302 H1314 0.984 . S
N1302 H1315 0.985 . S
N1303 C1305 1.356 . S
N1303 H1308 0.984 . S
N1303 H1309 0.985 . S
C1304 C1298 1.379 1_554 S
C1304 C1301 1.363 1_445 S
C1304 N1302 1.356 . S
C1305 C1299 1.363 1_665 S
C1305 C1300 1.379 1_556 S
C1305 N1303 1.356 . S
N1306 C1298 1.356 . S
N1306 H1312 0.984 . S
N1306 H1313 0.984 . S
N1307 C1300 1.356 . S
N1307 H1310 0.984 . S
N1307 H1311 0.985 . S
H1308 N1303 0.984 . S
H1309 N1303 0.985 . S
H1310 N1307 0.984 . S
H1311 N1307 0.985 . S
H1312 N1306 0.984 . S
H1313 N1306 0.984 . S
H1314 N1302 0.984 . S
H1315 N1302 0.985 . S
C1316 C1317 1.363 1_565 S
C1316 C1322 1.379 . S
C1316 N1324 1.356 . S
C1317 C1316 1.363 1_545 S
C1317 C1323 1.363 . S
C1318 C1319 1.363 1_545 S
C1318 C1323 1.379 . S
C1318 N1325 1.356 . S
C1319 C1318 1.363 1_565 S
C1319 C1322 1.363 . S
N1320 C1322 1.356 . S
N1320 H1332 0.984 . S
N1320 H1333 0.985 . S
N1321 C1323 1.356 . S
N1321 H1326 0.984 . S
N1321 H1327 0.985 . S
C1322 C1316 1.379 . S
C1322 C1319 1.363 . S
C1322 N1320 1.356 . S
C1323 C1317 1.363 . S
C1323 C1318 1.379 . S
C1323 N1321 1.356 . S
N1324 C1316 1.356 . S
N1324 H1330 0.984 . S
N1324 H1331 0.984 . S
N1325 C1318 1.356 . S
N1325 H1328 0.984 . S
N1325 H1329 0.985 . S
H1326 N1321 0.984 . S
H1327 N1321 0.985 . S
H1328 N1325 0.984 . S
H1329 N1325 0.985 . S
H1330 N1324 0.984 . S
H1331 N1324 0.984 . S
H1332 N1320 0.984 . S
H1333 N1320 0.985 . S
C1334 C1335 1.363 . S
C1334 C1340 1.379 . S
C1334 N1342 1.356 . S
C1335 C1334 1.363 . S
C1335 C1341 1.363 1_455 S
C1336 C1337 1.363 . S
C1336 C1341 1.379 . S
C1336 N1343 1.356 . S
C1337 C1336 1.363 . S
C1337 C1340 1.363 1_655 S
N1338 C1340 1.356 . S
N1338 H1350 0.984 . S
N1338 H1351 0.985 . S
N1339 C1341 1.356 . S
N1339 H1344 0.984 . S
N1339 H1345 0.985 . S
C1340 C1334 1.379 . S
C1340 C1337 1.363 1_455 S
C1340 N1338 1.356 . S
C1341 C1335 1.363 1_655 S
C1341 C1336 1.379 . S
C1341 N1339 1.356 . S
N1342 C1334 1.356 . S
N1342 H1348 0.984 . S
N1342 H1349 0.984 . S
N1343 C1336 1.356 . S
N1343 H1346 0.984 . S
N1343 H1347 0.985 . S
H1344 N1339 0.984 . S
H1345 N1339 0.985 . S
H1346 N1343 0.984 . S
H1347 N1343 0.985 . S
H1348 N1342 0.984 . S
H1349 N1342 0.984 . S
H1350 N1338 0.984 . S
H1351 N1338 0.985 . S
C1352 C1353 1.363 . S
C1352 C1358 1.379 1_556 S
C1352 N1360 1.356 . S
C1353 C1352 1.363 . S
C1353 C1359 1.363 . S
C1354 C1355 1.363 . S
C1354 C1359 1.379 1_554 S
C1354 N1361 1.356 . S
C1355 C1354 1.363 . S
C1355 C1358 1.363 . S
N1356 C1358 1.356 . S
N1356 H1368 0.984 . S
N1356 H1369 0.985 . S
N1357 C1359 1.356 . S
N1357 H1362 0.984 . S
N1357 H1363 0.985 . S
C1358 C1352 1.379 1_554 S
C1358 C1355 1.363 . S
C1358 N1356 1.356 . S
C1359 C1353 1.363 . S
C1359 C1354 1.379 1_556 S
C1359 N1357 1.356 . S
N1360 C1352 1.356 . S
N1360 H1366 0.984 . S
N1360 H1367 0.984 . S
N1361 C1354 1.356 . S
N1361 H1364 0.984 . S
N1361 H1365 0.985 . S
H1362 N1357 0.984 . S
H1363 N1357 0.985 . S
H1364 N1361 0.984 . S
H1365 N1361 0.985 . S
H1366 N1360 0.984 . S
H1367 N1360 0.984 . S
H1368 N1356 0.984 . S
H1369 N1356 0.985 . S
C1370 C1371 1.363 1_545 S
C1370 C1376 1.379 . S
C1370 N1378 1.356 . S
C1371 C1370 1.363 1_565 S
C1371 C1377 1.363 . S
C1372 C1373 1.363 1_565 S
C1372 C1377 1.379 . S
C1372 N1379 1.356 . S
C1373 C1372 1.363 1_545 S
C1373 C1376 1.363 . S
N1374 C1376 1.356 . S
N1374 H1386 0.984 . S
N1374 H1387 0.985 . S
N1375 C1377 1.356 . S
N1375 H1380 0.984 . S
N1375 H1381 0.985 . S
C1376 C1370 1.379 . S
C1376 C1373 1.363 . S
C1376 N1374 1.356 . S
C1377 C1371 1.363 . S
C1377 C1372 1.379 . S
C1377 N1375 1.356 . S
N1378 C1370 1.356 . S
N1378 H1384 0.984 . S
N1378 H1385 0.984 . S
N1379 C1372 1.356 . S
N1379 H1382 0.984 . S
N1379 H1383 0.985 . S
H1380 N1375 0.984 . S
H1381 N1375 0.985 . S
H1382 N1379 0.984 . S
H1383 N1379 0.985 . S
H1384 N1378 0.984 . S
H1385 N1378 0.984 . S
H1386 N1374 0.984 . S
H1387 N1374 0.985 . S
C1388 C1389 1.363 . S
C1388 C1394 1.379 . S
C1388 N1396 1.356 . S
C1389 C1388 1.363 . S
C1389 C1395 1.363 1_655 S
C1390 C1391 1.363 . S
C1390 C1395 1.379 . S
C1390 N1397 1.356 . S
C1391 C1390 1.363 . S
C1391 C1394 1.363 1_455 S
N1392 C1394 1.356 . S
N1392 H1404 0.984 . S
N1392 H1405 0.985 . S
N1393 C1395 1.356 . S
N1393 H1398 0.984 . S
N1393 H1399 0.985 . S
C1394 C1388 1.379 . S
C1394 C1391 1.363 1_655 S
C1394 N1392 1.356 . S
C1395 C1389 1.363 1_455 S
C1395 C1390 1.379 . S
C1395 N1393 1.356 . S
N1396 C1388 1.356 . S
N1396 H1402 0.984 . S
N1396 H1403 0.984 . S
N1397 C1390 1.356 . S
N1397 H1400 0.984 . S
N1397 H1401 0.985 . S
H1398 N1393 0.984 . S
H1399 N1393 0.985 . S
H1400 N1397 0.984 . S
H1401 N1397 0.985 . S
H1402 N1396 0.984 . S
H1403 N1396 0.984 . S
H1404 N1392 0.984 . S
H1405 N1392 0.985 . S
C1406 C1407 1.363 . S
C1406 C1412 1.379 . S
C1406 N1414 1.356 . S
C1407 C1406 1.363 . S
C1407 C1413 1.363 . S
C1408 C1409 1.363 . S
C1408 C1413 1.379 . S
C1408 N1415 1.356 . S
C1409 C1408 1.363 . S
C1409 C1412 1.363 . S
N1410 C1412 1.356 . S
N1410 H1422 0.984 . S
N1410 H1423 0.985 . S
N1411 C1413 1.356 . S
N1411 H1416 0.984 . S
N1411 H1417 0.985 . S
C1412 C1406 1.379 . S
C1412 C1409 1.363 . S
C1412 N1410 1.356 . S
C1413 C1407 1.363 . S
C1413 C1408 1.379 . S
C1413 N1411 1.356 . S
N1414 C1406 1.356 . S
N1414 H1420 0.984 . S
N1414 H1421 0.984 . S
N1415 C1408 1.356 . S
N1415 H1418 0.984 . S
N1415 H1419 0.985 . S
H1416 N1411 0.984 . S
H1417 N1411 0.985 . S
H1418 N1415 0.984 . S
H1419 N1415 0.985 . S
H1420 N1414 0.984 . S
H1421 N1414 0.984 . S
H1422 N1410 0.984 . S
H1423 N1410 0.985 . S
C1424 C1425 1.363 1_455 S
C1424 C1430 1.379 . S
C1424 N1432 1.356 . S
C1425 C1424 1.363 1_655 S
C1425 C1431 1.363 . S
C1426 C1427 1.363 1_655 S
C1426 C1431 1.379 . S
C1426 N1433 1.356 . S
C1427 C1426 1.363 1_455 S
C1427 C1430 1.363 . S
N1428 C1430 1.356 . S
N1428 H1440 0.984 . S
N1428 H1441 0.985 . S
N1429 C1431 1.356 . S
N1429 H1434 0.984 . S
N1429 H1435 0.985 . S
C1430 C1424 1.379 . S
C1430 C1427 1.363 . S
C1430 N1428 1.356 . S
C1431 C1425 1.363 . S
C1431 C1426 1.379 . S
C1431 N1429 1.356 . S
N1432 C1424 1.356 . S
N1432 H1438 0.984 . S
N1432 H1439 0.984 . S
N1433 C1426 1.356 . S
N1433 H1436 0.984 . S
N1433 H1437 0.985 . S
H1434 N1429 0.984 . S
H1435 N1429 0.985 . S
H1436 N1433 0.984 . S
H1437 N1433 0.985 . S
H1438 N1432 0.984 . S
H1439 N1432 0.984 . S
H1440 N1428 0.984 . S
H1441 N1428 0.985 . S
C1442 C1443 1.363 . S
C1442 C1448 1.379 . S
C1442 N1450 1.356 . S
C1443 C1442 1.363 . S
C1443 C1449 1.363 . S
C1444 C1445 1.363 . S
C1444 C1449 1.379 . S
C1444 N1451 1.356 . S
C1445 C1444 1.363 . S
C1445 C1448 1.363 . S
N1446 C1448 1.356 . S
N1446 H1458 0.984 . S
N1446 H1459 0.985 . S
N1447 C1449 1.356 . S
N1447 H1452 0.984 . S
N1447 H1453 0.985 . S
C1448 C1442 1.379 . S
C1448 C1445 1.363 . S
C1448 N1446 1.356 . S
C1449 C1443 1.363 . S
C1449 C1444 1.379 . S
C1449 N1447 1.356 . S
N1450 C1442 1.356 . S
N1450 H1456 0.984 . S
N1450 H1457 0.984 . S
N1451 C1444 1.356 . S
N1451 H1454 0.984 . S
N1451 H1455 0.985 . S
H1452 N1447 0.984 . S
H1453 N1447 0.985 . S
H1454 N1451 0.984 . S
H1455 N1451 0.985 . S
H1456 N1450 0.984 . S
H1457 N1450 0.984 . S
H1458 N1446 0.984 . S
H1459 N1446 0.985 . S
C1460 C1461 1.363 . S
C1460 C1466 1.379 . S
C1460 N1468 1.356 . S
C1461 C1460 1.363 . S
C1461 C1467 1.363 . S
C1462 C1463 1.363 . S
C1462 C1467 1.379 . S
C1462 N1469 1.356 . S
C1463 C1462 1.363 . S
C1463 C1466 1.363 . S
N1464 C1466 1.356 . S
N1464 H1476 0.984 . S
N1464 H1477 0.985 . S
N1465 C1467 1.356 . S
N1465 H1470 0.984 . S
N1465 H1471 0.985 . S
C1466 C1460 1.379 . S
C1466 C1463 1.363 . S
C1466 N1464 1.356 . S
C1467 C1461 1.363 . S
C1467 C1462 1.379 . S
C1467 N1465 1.356 . S
N1468 C1460 1.356 . S
N1468 H1474 0.984 . S
N1468 H1475 0.984 . S
N1469 C1462 1.356 . S
N1469 H1472 0.984 . S
N1469 H1473 0.985 . S
H1470 N1465 0.984 . S
H1471 N1465 0.985 . S
H1472 N1469 0.984 . S
H1473 N1469 0.985 . S
H1474 N1468 0.984 . S
H1475 N1468 0.984 . S
H1476 N1464 0.984 . S
H1477 N1464 0.985 . S
C1478 C1479 1.363 . S
C1478 C1484 1.379 . S
C1478 N1486 1.356 . S
C1479 C1478 1.363 . S
C1479 C1485 1.363 . S
C1480 C1481 1.363 . S
C1480 C1485 1.379 . S
C1480 N1487 1.356 . S
C1481 C1480 1.363 . S
C1481 C1484 1.363 . S
N1482 C1484 1.356 . S
N1482 H1494 0.984 . S
N1482 H1495 0.985 . S
N1483 C1485 1.356 . S
N1483 H1488 0.984 . S
N1483 H1489 0.985 . S
C1484 C1478 1.379 . S
C1484 C1481 1.363 . S
C1484 N1482 1.356 . S
C1485 C1479 1.363 . S
C1485 C1480 1.379 . S
C1485 N1483 1.356 . S
N1486 C1478 1.356 . S
N1486 H1492 0.984 . S
N1486 H1493 0.984 . S
N1487 C1480 1.356 . S
N1487 H1490 0.984 . S
N1487 H1491 0.985 . S
H1488 N1483 0.984 . S
H1489 N1483 0.985 . S
H1490 N1487 0.984 . S
H1491 N1487 0.985 . S
H1492 N1486 0.984 . S
H1493 N1486 0.984 . S
H1494 N1482 0.984 . S
H1495 N1482 0.985 . S
C1496 C1497 1.363 . S
C1496 C1502 1.379 . S
C1496 N1504 1.356 . S
C1497 C1496 1.363 . S
C1497 C1503 1.363 1_565 S
C1498 C1499 1.363 . S
C1498 C1503 1.379 . S
C1498 N1505 1.356 . S
C1499 C1498 1.363 . S
C1499 C1502 1.363 1_545 S
N1500 C1502 1.356 . S
N1500 H1512 0.984 . S
N1500 H1513 0.986 . S
N1501 C1503 1.356 . S
N1501 H1506 0.984 . S
N1501 H1507 0.985 . S
C1502 C1496 1.379 . S
C1502 C1499 1.363 1_565 S
C1502 N1500 1.356 . S
C1503 C1497 1.363 1_545 S
C1503 C1498 1.379 . S
C1503 N1501 1.356 . S
N1504 C1496 1.356 . S
N1504 H1510 0.984 . S
N1504 H1511 0.984 . S
N1505 C1498 1.356 . S
N1505 H1508 0.984 . S
N1505 H1509 0.985 . S
H1506 N1501 0.984 . S
H1507 N1501 0.985 . S
H1508 N1505 0.984 . S
H1509 N1505 0.985 . S
H1510 N1504 0.984 . S
H1511 N1504 0.984 . S
H1512 N1500 0.984 . S
H1513 N1500 0.986 . S
C1514 C1515 1.363 . S
C1514 C1520 1.379 . S
C1514 N1522 1.356 . S
C1515 C1514 1.363 . S
C1515 C1521 1.363 . S
C1516 C1517 1.363 . S
C1516 C1521 1.379 . S
C1516 N1523 1.356 . S
C1517 C1516 1.363 . S
C1517 C1520 1.363 . S
N1518 C1520 1.356 . S
N1518 H1530 0.984 . S
N1518 H1531 0.985 . S
N1519 C1521 1.356 . S
N1519 H1524 0.984 . S
N1519 H1525 0.985 . S
C1520 C1514 1.379 . S
C1520 C1517 1.363 . S
C1520 N1518 1.356 . S
C1521 C1515 1.363 . S
C1521 C1516 1.379 . S
C1521 N1519 1.356 . S
N1522 C1514 1.356 . S
N1522 H1528 0.984 . S
N1522 H1529 0.984 . S
N1523 C1516 1.356 . S
N1523 H1526 0.984 . S
N1523 H1527 0.985 . S
H1524 N1519 0.984 . S
H1525 N1519 0.985 . S
H1526 N1523 0.984 . S
H1527 N1523 0.985 . S
H1528 N1522 0.984 . S
H1529 N1522 0.984 . S
H1530 N1518 0.984 . S
H1531 N1518 0.985 . S
C1532 C1533 1.363 . S
C1532 C1538 1.379 . S
C1532 N1540 1.356 . S
C1533 C1532 1.363 . S
C1533 C1539 1.363 . S
C1534 C1535 1.363 . S
C1534 C1539 1.379 . S
C1534 N1541 1.356 . S
C1535 C1534 1.363 . S
C1535 C1538 1.363 . S
N1536 C1538 1.356 . S
N1536 H1548 0.984 . S
N1536 H1549 0.985 . S
N1537 C1539 1.356 . S
N1537 H1542 0.984 . S
N1537 H1543 0.985 . S
C1538 C1532 1.379 . S
C1538 C1535 1.363 . S
C1538 N1536 1.356 . S
C1539 C1533 1.363 . S
C1539 C1534 1.379 . S
C1539 N1537 1.356 . S
N1540 C1532 1.356 . S
N1540 H1546 0.984 . S
N1540 H1547 0.984 . S
N1541 C1534 1.356 . S
N1541 H1544 0.984 . S
N1541 H1545 0.985 . S
H1542 N1537 0.984 . S
H1543 N1537 0.985 . S
H1544 N1541 0.984 . S
H1545 N1541 0.985 . S
H1546 N1540 0.984 . S
H1547 N1540 0.984 . S
H1548 N1536 0.984 . S
H1549 N1536 0.985 . S
C1550 C1551 1.363 . S
C1550 C1556 1.379 1_556 S
C1550 N1558 1.356 . S
C1551 C1550 1.363 . S
C1551 C1557 1.363 . S
C1552 C1553 1.363 . S
C1552 C1557 1.379 1_554 S
C1552 N1559 1.356 . S
C1553 C1552 1.363 . S
C1553 C1556 1.363 . S
N1554 C1556 1.356 . S
N1554 H1566 0.984 . S
N1554 H1567 0.985 . S
N1555 C1557 1.356 . S
N1555 H1560 0.984 . S
N1555 H1561 0.985 . S
C1556 C1550 1.379 1_554 S
C1556 C1553 1.363 . S
C1556 N1554 1.356 . S
C1557 C1551 1.363 . S
C1557 C1552 1.379 1_556 S
C1557 N1555 1.356 . S
N1558 C1550 1.356 . S
N1558 H1564 0.984 . S
N1558 H1565 0.984 . S
N1559 C1552 1.356 . S
N1559 H1562 0.984 . S
N1559 H1563 0.985 . S
H1560 N1555 0.984 . S
H1561 N1555 0.985 . S
H1562 N1559 0.984 . S
H1563 N1559 0.985 . S
H1564 N1558 0.984 . S
H1565 N1558 0.984 . S
H1566 N1554 0.984 . S
H1567 N1554 0.985 . S
C1568 C1569 1.363 . S
C1568 C1574 1.379 . S
C1568 N1576 1.356 . S
C1569 C1568 1.363 . S
C1569 C1575 1.363 . S
C1570 C1571 1.363 . S
C1570 C1575 1.379 . S
C1570 N1577 1.356 . S
C1571 C1570 1.363 . S
C1571 C1574 1.363 . S
N1572 C1574 1.356 . S
N1572 H1584 0.984 . S
N1572 H1585 0.985 . S
N1573 C1575 1.356 . S
N1573 H1578 0.984 . S
N1573 H1579 0.985 . S
C1574 C1568 1.379 . S
C1574 C1571 1.363 . S
C1574 N1572 1.356 . S
C1575 C1569 1.363 . S
C1575 C1570 1.379 . S
C1575 N1573 1.356 . S
N1576 C1568 1.356 . S
N1576 H1582 0.984 . S
N1576 H1583 0.984 . S
N1577 C1570 1.356 . S
N1577 H1580 0.984 . S
N1577 H1581 0.985 . S
H1578 N1573 0.984 . S
H1579 N1573 0.985 . S
H1580 N1577 0.984 . S
H1581 N1577 0.985 . S
H1582 N1576 0.984 . S
H1583 N1576 0.984 . S
H1584 N1572 0.984 . S
H1585 N1572 0.985 . S
C1586 C1587 1.363 . S
C1586 C1592 1.379 . S
C1586 N1594 1.356 . S
C1587 C1586 1.363 . S
C1587 C1593 1.363 1_545 S
C1588 C1589 1.363 1_565 S
C1588 C1593 1.379 . S
C1588 N1595 1.356 . S
C1589 C1588 1.363 1_545 S
C1589 C1592 1.363 . S
N1590 C1592 1.356 . S
N1590 H1602 0.984 . S
N1590 H1603 0.985 . S
N1591 C1593 1.356 . S
N1591 H1596 0.984 . S
N1591 H1597 0.985 . S
C1592 C1586 1.379 . S
C1592 C1589 1.363 . S
C1592 N1590 1.356 . S
C1593 C1587 1.363 1_565 S
C1593 C1588 1.379 . S
C1593 N1591 1.356 . S
N1594 C1586 1.356 . S
N1594 H1600 0.984 . S
N1594 H1601 0.984 . S
N1595 C1588 1.356 . S
N1595 H1598 0.984 . S
N1595 H1599 0.985 . S
H1596 N1591 0.984 . S
H1597 N1591 0.985 . S
H1598 N1595 0.984 . S
H1599 N1595 0.985 . S
H1600 N1594 0.984 . S
H1601 N1594 0.984 . S
H1602 N1590 0.984 . S
H1603 N1590 0.985 . S
C1604 C1605 1.363 . S
C1604 C1610 1.379 . S
C1604 N1612 1.356 . S
C1605 C1604 1.363 . S
C1605 C1611 1.363 1_545 S
C1606 C1607 1.363 1_565 S
C1606 C1611 1.379 . S
C1606 N1613 1.356 . S
C1607 C1606 1.363 1_545 S
C1607 C1610 1.363 . S
N1608 C1610 1.356 . S
N1608 H1620 0.984 . S
N1608 H1621 0.985 . S
N1609 C1611 1.356 . S
N1609 H1614 0.984 . S
N1609 H1615 0.985 . S
C1610 C1604 1.379 . S
C1610 C1607 1.363 . S
C1610 N1608 1.356 . S
C1611 C1605 1.363 1_565 S
C1611 C1606 1.379 . S
C1611 N1609 1.356 . S
N1612 C1604 1.356 . S
N1612 H1618 0.984 . S
N1612 H1619 0.984 . S
N1613 C1606 1.356 . S
N1613 H1616 0.984 . S
N1613 H1617 0.985 . S
H1614 N1609 0.984 . S
H1615 N1609 0.985 . S
H1616 N1613 0.984 . S
H1617 N1613 0.985 . S
H1618 N1612 0.984 . S
H1619 N1612 0.984 . S
H1620 N1608 0.984 . S
H1621 N1608 0.985 . S
C1622 C1623 1.363 . S
C1622 C1628 1.379 . S
C1622 N1630 1.356 . S
C1623 C1622 1.363 . S
C1623 C1629 1.363 . S
C1624 C1625 1.363 . S
C1624 C1629 1.379 . S
C1624 N1631 1.356 . S
C1625 C1624 1.363 . S
C1625 C1628 1.363 . S
N1626 C1628 1.356 . S
N1626 H1638 0.984 . S
N1626 H1639 0.985 . S
N1627 C1629 1.356 . S
N1627 H1632 0.984 . S
N1627 H1633 0.985 . S
C1628 C1622 1.379 . S
C1628 C1625 1.363 . S
C1628 N1626 1.356 . S
C1629 C1623 1.363 . S
C1629 C1624 1.379 . S
C1629 N1627 1.356 . S
N1630 C1622 1.356 . S
N1630 H1636 0.984 . S
N1630 H1637 0.984 . S
N1631 C1624 1.356 . S
N1631 H1634 0.984 . S
N1631 H1635 0.985 . S
H1632 N1627 0.984 . S
H1633 N1627 0.985 . S
H1634 N1631 0.984 . S
H1635 N1631 0.985 . S
H1636 N1630 0.984 . S
H1637 N1630 0.984 . S
H1638 N1626 0.984 . S
H1639 N1626 0.985 . S
C1640 C1641 1.363 . S
C1640 C1646 1.379 . S
C1640 N1648 1.356 . S
C1641 C1640 1.363 . S
C1641 C1647 1.363 . S
C1642 C1643 1.363 . S
C1642 C1647 1.379 . S
C1642 N1649 1.356 . S
C1643 C1642 1.363 . S
C1643 C1646 1.363 . S
N1644 C1646 1.356 . S
N1644 H1656 0.984 . S
N1644 H1657 0.985 . S
N1645 C1647 1.356 . S
N1645 H1650 0.984 . S
N1645 H1651 0.985 . S
C1646 C1640 1.379 . S
C1646 C1643 1.363 . S
C1646 N1644 1.356 . S
C1647 C1641 1.363 . S
C1647 C1642 1.379 . S
C1647 N1645 1.356 . S
N1648 C1640 1.356 . S
N1648 H1654 0.984 . S
N1648 H1655 0.984 . S
N1649 C1642 1.356 . S
N1649 H1652 0.984 . S
N1649 H1653 0.985 . S
H1650 N1645 0.984 . S
H1651 N1645 0.985 . S
H1652 N1649 0.984 . S
H1653 N1649 0.985 . S
H1654 N1648 0.984 . S
H1655 N1648 0.984 . S
H1656 N1644 0.984 . S
H1657 N1644 0.985 . S
C1658 C1659 1.363 1_545 S
C1658 C1664 1.379 . S
C1658 N1666 1.356 . S
C1659 C1658 1.363 1_565 S
C1659 C1665 1.363 . S
C1660 C1661 1.363 . S
C1660 C1665 1.379 . S
C1660 N1667 1.356 . S
C1661 C1660 1.363 . S
C1661 C1664 1.363 1_565 S
N1662 C1664 1.356 . S
N1662 H1674 0.984 . S
N1662 H1675 0.985 . S
N1663 C1665 1.356 . S
N1663 H1668 0.984 . S
N1663 H1669 0.985 . S
C1664 C1658 1.379 . S
C1664 C1661 1.363 1_545 S
C1664 N1662 1.356 . S
C1665 C1659 1.363 . S
C1665 C1660 1.379 . S
C1665 N1663 1.356 . S
N1666 C1658 1.356 . S
N1666 H1672 0.984 . S
N1666 H1673 0.984 . S
N1667 C1660 1.356 . S
N1667 H1670 0.984 . S
N1667 H1671 0.985 . S
H1668 N1663 0.984 . S
H1669 N1663 0.985 . S
H1670 N1667 0.984 . S
H1671 N1667 0.985 . S
H1672 N1666 0.984 . S
H1673 N1666 0.984 . S
H1674 N1662 0.984 . S
H1675 N1662 0.985 . S
C1676 C1677 1.363 1_545 S
C1676 C1682 1.379 . S
C1676 N1684 1.356 . S
C1677 C1676 1.363 1_565 S
C1677 C1683 1.363 . S
C1678 C1679 1.363 . S
C1678 C1683 1.379 . S
C1678 N1685 1.356 . S
C1679 C1678 1.363 . S
C1679 C1682 1.363 1_565 S
N1680 C1682 1.356 . S
N1680 H1692 0.984 . S
N1680 H1693 0.985 . S
N1681 C1683 1.356 . S
N1681 H1686 0.984 . S
N1681 H1687 0.985 . S
C1682 C1676 1.379 . S
C1682 C1679 1.363 1_545 S
C1682 N1680 1.356 . S
C1683 C1677 1.363 . S
C1683 C1678 1.379 . S
C1683 N1681 1.356 . S
N1684 C1676 1.356 . S
N1684 H1690 0.984 . S
N1684 H1691 0.984 . S
N1685 C1678 1.356 . S
N1685 H1688 0.984 . S
N1685 H1689 0.985 . S
H1686 N1681 0.984 . S
H1687 N1681 0.985 . S
H1688 N1685 0.984 . S
H1689 N1685 0.985 . S
H1690 N1684 0.984 . S
H1691 N1684 0.984 . S
H1692 N1680 0.984 . S
H1693 N1680 0.985 . S
C1694 C1695 1.363 . S
C1694 C1700 1.379 . S
C1694 N1702 1.356 . S
C1695 C1694 1.363 . S
C1695 C1701 1.363 . S
C1696 C1697 1.363 . S
C1696 C1701 1.379 . S
C1696 N1703 1.356 . S
C1697 C1696 1.363 . S
C1697 C1700 1.363 . S
N1698 C1700 1.356 . S
N1698 H1710 0.984 . S
N1698 H1711 0.985 . S
N1699 C1701 1.356 . S
N1699 H1704 0.984 . S
N1699 H1705 0.985 . S
C1700 C1694 1.379 . S
C1700 C1697 1.363 . S
C1700 N1698 1.356 . S
C1701 C1695 1.363 . S
C1701 C1696 1.379 . S
C1701 N1699 1.356 . S
N1702 C1694 1.356 . S
N1702 H1708 0.984 . S
N1702 H1709 0.984 . S
N1703 C1696 1.356 . S
N1703 H1706 0.984 . S
N1703 H1707 0.985 . S
H1704 N1699 0.984 . S
H1705 N1699 0.985 . S
H1706 N1703 0.984 . S
H1707 N1703 0.985 . S
H1708 N1702 0.984 . S
H1709 N1702 0.984 . S
H1710 N1698 0.984 . S
H1711 N1698 0.985 . S
C1712 C1713 1.363 . S
C1712 C1718 1.379 . S
C1712 N1720 1.356 . S
C1713 C1712 1.363 . S
C1713 C1719 1.363 . S
C1714 C1715 1.363 . S
C1714 C1719 1.379 . S
C1714 N1721 1.356 . S
C1715 C1714 1.363 . S
C1715 C1718 1.363 . S
N1716 C1718 1.356 . S
N1716 H1728 0.984 . S
N1716 H1729 0.985 . S
N1717 C1719 1.356 . S
N1717 H1722 0.984 . S
N1717 H1723 0.985 . S
C1718 C1712 1.379 . S
C1718 C1715 1.363 . S
C1718 N1716 1.356 . S
C1719 C1713 1.363 . S
C1719 C1714 1.379 . S
C1719 N1717 1.356 . S
N1720 C1712 1.356 . S
N1720 H1726 0.984 . S
N1720 H1727 0.984 . S
N1721 C1714 1.356 . S
N1721 H1724 0.984 . S
N1721 H1725 0.985 . S
H1722 N1717 0.984 . S
H1723 N1717 0.985 . S
H1724 N1721 0.984 . S
H1725 N1721 0.985 . S
H1726 N1720 0.984 . S
H1727 N1720 0.984 . S
H1728 N1716 0.984 . S
H1729 N1716 0.985 . S
C1730 C1731 1.363 . S
C1730 C1736 1.379 . S
C1730 N1738 1.356 . S
C1731 C1730 1.363 . S
C1731 C1737 1.363 . S
C1732 C1733 1.363 . S
C1732 C1737 1.379 . S
C1732 N1739 1.356 . S
C1733 C1732 1.363 . S
C1733 C1736 1.363 . S
N1734 C1736 1.356 . S
N1734 H1746 0.984 . S
N1734 H1747 0.985 . S
N1735 C1737 1.356 . S
N1735 H1740 0.984 . S
N1735 H1741 0.985 . S
C1736 C1730 1.379 . S
C1736 C1733 1.363 . S
C1736 N1734 1.356 . S
C1737 C1731 1.363 . S
C1737 C1732 1.379 . S
C1737 N1735 1.356 . S
N1738 C1730 1.356 . S
N1738 H1744 0.984 . S
N1738 H1745 0.984 . S
N1739 C1732 1.356 . S
N1739 H1742 0.984 . S
N1739 H1743 0.985 . S
H1740 N1735 0.984 . S
H1741 N1735 0.985 . S
H1742 N1739 0.984 . S
H1743 N1739 0.985 . S
H1744 N1738 0.984 . S
H1745 N1738 0.984 . S
H1746 N1734 0.984 . S
H1747 N1734 0.985 . S
C1748 C1749 1.363 . S
C1748 C1754 1.379 . S
C1748 N1756 1.356 . S
C1749 C1748 1.363 . S
C1749 C1755 1.363 . S
C1750 C1751 1.363 . S
C1750 C1755 1.379 . S
C1750 N1757 1.356 . S
C1751 C1750 1.363 . S
C1751 C1754 1.363 . S
N1752 C1754 1.356 . S
N1752 H1764 0.984 . S
N1752 H1765 0.985 . S
N1753 C1755 1.356 . S
N1753 H1758 0.984 . S
N1753 H1759 0.985 . S
C1754 C1748 1.379 . S
C1754 C1751 1.363 . S
C1754 N1752 1.356 . S
C1755 C1749 1.363 . S
C1755 C1750 1.379 . S
C1755 N1753 1.356 . S
N1756 C1748 1.356 . S
N1756 H1762 0.984 . S
N1756 H1763 0.984 . S
N1757 C1750 1.356 . S
N1757 H1760 0.984 . S
N1757 H1761 0.985 . S
H1758 N1753 0.984 . S
H1759 N1753 0.985 . S
H1760 N1757 0.984 . S
H1761 N1757 0.985 . S
H1762 N1756 0.984 . S
H1763 N1756 0.984 . S
H1764 N1752 0.984 . S
H1765 N1752 0.985 . S
C1766 C1767 1.363 . S
C1766 C1772 1.379 . S
C1766 N1774 1.356 . S
C1767 C1766 1.363 . S
C1767 C1773 1.363 . S
C1768 C1769 1.363 . S
C1768 C1773 1.379 . S
C1768 N1775 1.356 . S
C1769 C1768 1.363 . S
C1769 C1772 1.363 . S
N1770 C1772 1.356 . S
N1770 H1782 0.984 . S
N1770 H1783 0.985 . S
N1771 C1773 1.356 . S
N1771 H1776 0.984 . S
N1771 H1777 0.985 . S
C1772 C1766 1.379 . S
C1772 C1769 1.363 . S
C1772 N1770 1.356 . S
C1773 C1767 1.363 . S
C1773 C1768 1.379 . S
C1773 N1771 1.356 . S
N1774 C1766 1.356 . S
N1774 H1780 0.984 . S
N1774 H1781 0.984 . S
N1775 C1768 1.356 . S
N1775 H1778 0.984 . S
N1775 H1779 0.985 . S
H1776 N1771 0.984 . S
H1777 N1771 0.985 . S
H1778 N1775 0.984 . S
H1779 N1775 0.985 . S
H1780 N1774 0.984 . S
H1781 N1774 0.984 . S
H1782 N1770 0.984 . S
H1783 N1770 0.985 . S
C1784 C1785 1.363 . S
C1784 C1790 1.379 . S
C1784 N1792 1.356 . S
C1785 C1784 1.363 . S
C1785 C1791 1.363 . S
C1786 C1787 1.363 . S
C1786 C1791 1.379 . S
C1786 N1793 1.356 . S
C1787 C1786 1.363 . S
C1787 C1790 1.363 . S
N1788 C1790 1.356 . S
N1788 H1800 0.984 . S
N1788 H1801 0.985 . S
N1789 C1791 1.356 . S
N1789 H1794 0.984 . S
N1789 H1795 0.985 . S
C1790 C1784 1.379 . S
C1790 C1787 1.363 . S
C1790 N1788 1.356 . S
C1791 C1785 1.363 . S
C1791 C1786 1.379 . S
C1791 N1789 1.356 . S
N1792 C1784 1.356 . S
N1792 H1798 0.984 . S
N1792 H1799 0.984 . S
N1793 C1786 1.356 . S
N1793 H1796 0.984 . S
N1793 H1797 0.985 . S
H1794 N1789 0.984 . S
H1795 N1789 0.985 . S
H1796 N1793 0.984 . S
H1797 N1793 0.985 . S
H1798 N1792 0.984 . S
H1799 N1792 0.984 . S
H1800 N1788 0.984 . S
H1801 N1788 0.985 . S
C1802 C1803 1.363 . S
C1802 C1808 1.379 . S
C1802 N1810 1.356 . S
C1803 C1802 1.363 . S
C1803 C1809 1.363 . S
C1804 C1805 1.363 . S
C1804 C1809 1.379 . S
C1804 N1811 1.356 . S
C1805 C1804 1.363 . S
C1805 C1808 1.363 . S
N1806 C1808 1.356 . S
N1806 H1818 0.984 . S
N1806 H1819 0.985 . S
N1807 C1809 1.356 . S
N1807 H1812 0.984 . S
N1807 H1813 0.985 . S
C1808 C1802 1.379 . S
C1808 C1805 1.363 . S
C1808 N1806 1.356 . S
C1809 C1803 1.363 . S
C1809 C1804 1.379 . S
C1809 N1807 1.356 . S
N1810 C1802 1.356 . S
N1810 H1816 0.984 . S
N1810 H1817 0.984 . S
N1811 C1804 1.356 . S
N1811 H1814 0.984 . S
N1811 H1815 0.985 . S
H1812 N1807 0.984 . S
H1813 N1807 0.985 . S
H1814 N1811 0.984 . S
H1815 N1811 0.985 . S
H1816 N1810 0.984 . S
H1817 N1810 0.984 . S
H1818 N1806 0.984 . S
H1819 N1806 0.985 . S
C1820 C1821 1.363 . S
C1820 C1826 1.379 . S
C1820 N1828 1.356 . S
C1821 C1820 1.363 . S
C1821 C1827 1.363 . S
C1822 C1823 1.363 . S
C1822 C1827 1.379 . S
C1822 N1829 1.356 . S
C1823 C1822 1.363 . S
C1823 C1826 1.363 . S
N1824 C1826 1.356 . S
N1824 H1836 0.984 . S
N1824 H1837 0.985 . S
N1825 C1827 1.356 . S
N1825 H1830 0.984 . S
N1825 H1831 0.985 . S
C1826 C1820 1.379 . S
C1826 C1823 1.363 . S
C1826 N1824 1.356 . S
C1827 C1821 1.363 . S
C1827 C1822 1.379 . S
C1827 N1825 1.356 . S
N1828 C1820 1.356 . S
N1828 H1834 0.984 . S
N1828 H1835 0.984 . S
N1829 C1822 1.356 . S
N1829 H1832 0.984 . S
N1829 H1833 0.985 . S
H1830 N1825 0.984 . S
H1831 N1825 0.985 . S
H1832 N1829 0.984 . S
H1833 N1829 0.985 . S
H1834 N1828 0.984 . S
H1835 N1828 0.984 . S
H1836 N1824 0.984 . S
H1837 N1824 0.985 . S
C1838 C1839 1.363 . S
C1838 C1844 1.379 . S
C1838 N1846 1.356 . S
C1839 C1838 1.363 . S
C1839 C1845 1.363 . S
C1840 C1841 1.363 . S
C1840 C1845 1.379 . S
C1840 N1847 1.356 . S
C1841 C1840 1.363 . S
C1841 C1844 1.363 . S
N1842 C1844 1.356 . S
N1842 H1854 0.984 . S
N1842 H1855 0.985 . S
N1843 C1845 1.356 . S
N1843 H1848 0.984 . S
N1843 H1849 0.985 . S
C1844 C1838 1.379 . S
C1844 C1841 1.363 . S
C1844 N1842 1.356 . S
C1845 C1839 1.363 . S
C1845 C1840 1.379 . S
C1845 N1843 1.356 . S
N1846 C1838 1.356 . S
N1846 H1852 0.984 . S
N1846 H1853 0.984 . S
N1847 C1840 1.356 . S
N1847 H1850 0.984 . S
N1847 H1851 0.985 . S
H1848 N1843 0.984 . S
H1849 N1843 0.985 . S
H1850 N1847 0.984 . S
H1851 N1847 0.985 . S
H1852 N1846 0.984 . S
H1853 N1846 0.984 . S
H1854 N1842 0.984 . S
H1855 N1842 0.985 . S
C1856 C1857 1.363 . S
C1856 C1862 1.379 . S
C1856 N1864 1.356 . S
C1857 C1856 1.363 . S
C1857 C1863 1.363 . S
C1858 C1859 1.363 . S
C1858 C1863 1.379 . S
C1858 N1865 1.356 . S
C1859 C1858 1.363 . S
C1859 C1862 1.363 . S
N1860 C1862 1.356 . S
N1860 H1872 0.984 . S
N1860 H1873 0.985 . S
N1861 C1863 1.356 . S
N1861 H1866 0.984 . S
N1861 H1867 0.985 . S
C1862 C1856 1.379 . S
C1862 C1859 1.363 . S
C1862 N1860 1.356 . S
C1863 C1857 1.363 . S
C1863 C1858 1.379 . S
C1863 N1861 1.356 . S
N1864 C1856 1.356 . S
N1864 H1870 0.984 . S
N1864 H1871 0.984 . S
N1865 C1858 1.356 . S
N1865 H1868 0.984 . S
N1865 H1869 0.985 . S
H1866 N1861 0.984 . S
H1867 N1861 0.985 . S
H1868 N1865 0.984 . S
H1869 N1865 0.985 . S
H1870 N1864 0.984 . S
H1871 N1864 0.984 . S
H1872 N1860 0.984 . S
H1873 N1860 0.985 . S
C1874 C1875 1.363 . S
C1874 C1880 1.379 . S
C1874 N1882 1.356 . S
C1875 C1874 1.363 . S
C1875 C1881 1.363 1_545 S
C1876 C1877 1.363 . S
C1876 C1881 1.379 . S
C1876 N1883 1.356 . S
C1877 C1876 1.363 . S
C1877 C1880 1.363 1_565 S
N1878 C1880 1.356 . S
N1878 H1890 0.984 . S
N1878 H1891 0.985 1_545 S
N1879 C1881 1.356 . S
N1879 H1884 0.984 1_565 S
N1879 H1885 0.985 . S
C1880 C1874 1.379 . S
C1880 C1877 1.363 1_545 S
C1880 N1878 1.356 . S
C1881 C1875 1.363 1_565 S
C1881 C1876 1.379 . S
C1881 N1879 1.356 . S
N1882 C1874 1.356 . S
N1882 H1888 0.984 . S
N1882 H1889 0.984 . S
N1883 C1876 1.356 . S
N1883 H1886 0.984 . S
N1883 H1887 0.985 . S
H1884 N1879 0.984 1_545 S
H1885 N1879 0.985 . S
H1886 N1883 0.984 . S
H1887 N1883 0.985 . S
H1888 N1882 0.984 . S
H1889 N1882 0.984 . S
H1890 N1878 0.984 . S
H1891 N1878 0.985 1_565 S
C1892 C1893 1.363 . S
C1892 C1898 1.379 . S
C1892 N1900 1.356 . S
C1893 C1892 1.363 . S
C1893 C1899 1.363 1_565 S
C1894 C1895 1.363 . S
C1894 C1899 1.379 . S
C1894 N1901 1.356 . S
C1895 C1894 1.363 . S
C1895 C1898 1.363 1_545 S
N1896 C1898 1.356 1_545 S
N1896 H1908 0.982 1_545 S
N1896 H1909 0.987 . S
N1897 C1899 1.355 1_565 S
N1897 H1902 0.992 . S
N1897 H1903 0.978 1_565 S
C1898 C1892 1.379 . S
C1898 C1895 1.363 1_565 S
C1898 N1896 1.356 1_565 S
C1899 C1893 1.363 1_545 S
C1899 C1894 1.379 . S
C1899 N1897 1.355 1_545 S
N1900 C1892 1.356 . S
N1900 H1906 0.984 . S
N1900 H1907 0.984 . S
N1901 C1894 1.356 . S
N1901 H1904 0.984 . S
N1901 H1905 0.985 . S
H1902 N1897 0.992 . S
H1903 N1897 0.978 1_545 S
H1904 N1901 0.984 . S
H1905 N1901 0.985 . S
H1906 N1900 0.984 . S
H1907 N1900 0.984 . S
H1908 N1896 0.982 1_565 S
H1909 N1896 0.987 . S
C1910 C1911 1.363 . S
C1910 C1916 1.379 . S
C1910 N1918 1.356 . S
C1911 C1910 1.363 . S
C1911 C1917 1.363 . S
C1912 C1913 1.363 . S
C1912 C1917 1.379 . S
C1912 N1919 1.356 . S
C1913 C1912 1.363 . S
C1913 C1916 1.363 . S
N1914 C1916 1.356 . S
N1914 H1926 0.984 . S
N1914 H1927 0.985 . S
N1915 C1917 1.356 . S
N1915 H1920 0.984 . S
N1915 H1921 0.985 . S
C1916 C1910 1.379 . S
C1916 C1913 1.363 . S
C1916 N1914 1.356 . S
C1917 C1911 1.363 . S
C1917 C1912 1.379 . S
C1917 N1915 1.356 . S
N1918 C1910 1.356 . S
N1918 H1924 0.984 . S
N1918 H1925 0.984 . S
N1919 C1912 1.356 . S
N1919 H1922 0.984 . S
N1919 H1923 0.985 1_655 S
H1920 N1915 0.984 . S
H1921 N1915 0.985 . S
H1922 N1919 0.984 . S
H1923 N1919 0.985 1_455 S
H1924 N1918 0.984 . S
H1925 N1918 0.984 . S
H1926 N1914 0.984 . S
H1927 N1914 0.985 . S
C1928 C1929 1.363 . S
C1928 C1934 1.379 . S
C1928 N1936 1.356 . S
C1929 C1928 1.363 . S
C1929 C1935 1.363 . S
C1930 C1931 1.363 . S
C1930 C1935 1.379 . S
C1930 N1937 1.356 . S
C1931 C1930 1.363 . S
C1931 C1934 1.363 . S
N1932 C1934 1.356 . S
N1932 H1944 0.984 . S
N1932 H1945 0.985 . S
N1933 C1935 1.356 . S
N1933 H1938 0.984 . S
N1933 H1939 0.985 . S
C1934 C1928 1.379 . S
C1934 C1931 1.363 . S
C1934 N1932 1.356 . S
C1935 C1929 1.363 . S
C1935 C1930 1.379 . S
C1935 N1933 1.356 . S
N1936 C1928 1.356 . S
N1936 H1942 0.984 . S
N1936 H1943 0.984 . S
N1937 C1930 1.356 . S
N1937 H1940 0.984 . S
N1937 H1941 0.985 . S
H1938 N1933 0.984 . S
H1939 N1933 0.985 . S
H1940 N1937 0.984 . S
H1941 N1937 0.985 . S
H1942 N1936 0.984 . S
H1943 N1936 0.984 . S
H1944 N1932 0.984 . S
H1945 N1932 0.985 . S
C1946 C1947 1.363 . S
C1946 C1952 1.379 1_545 S
C1946 N1954 1.356 . S
C1947 C1946 1.363 . S
C1947 C1953 1.363 . S
C1948 C1949 1.363 . S
C1948 C1953 1.379 1_565 S
C1948 N1955 1.356 . S
C1949 C1948 1.363 . S
C1949 C1952 1.363 . S
N1950 C1952 1.356 . S
N1950 H1962 0.984 . S
N1950 H1963 0.985 . S
N1951 C1953 1.356 . S
N1951 H1956 0.984 . S
N1951 H1957 0.985 . S
C1952 C1946 1.379 1_565 S
C1952 C1949 1.363 . S
C1952 N1950 1.356 . S
C1953 C1947 1.363 . S
C1953 C1948 1.379 1_545 S
C1953 N1951 1.356 . S
N1954 C1946 1.356 . S
N1954 H1960 0.984 . S
N1954 H1961 0.984 . S
N1955 C1948 1.356 . S
N1955 H1958 0.984 . S
N1955 H1959 0.985 1_455 S
H1956 N1951 0.984 . S
H1957 N1951 0.985 . S
H1958 N1955 0.984 . S
H1959 N1955 0.985 1_655 S
H1960 N1954 0.984 . S
H1961 N1954 0.984 . S
H1962 N1950 0.984 . S
H1963 N1950 0.985 . S
C1964 C1965 1.363 . S
C1964 C1970 1.379 1_545 S
C1964 N1972 1.356 . S
C1965 C1964 1.363 . S
C1965 C1971 1.363 . S
C1966 C1967 1.363 . S
C1966 C1971 1.379 1_565 S
C1966 N1973 1.356 . S
C1967 C1966 1.363 . S
C1967 C1970 1.363 . S
N1968 C1970 1.356 . S
N1968 H1980 0.984 . S
N1968 H1981 0.985 . S
N1969 C1971 1.356 . S
N1969 H1974 0.984 . S
N1969 H1975 0.985 . S
C1970 C1964 1.379 1_565 S
C1970 C1967 1.363 . S
C1970 N1968 1.356 . S
C1971 C1965 1.363 . S
C1971 C1966 1.379 1_545 S
C1971 N1969 1.356 . S
N1972 C1964 1.356 . S
N1972 H1978 0.984 . S
N1972 H1979 0.984 . S
N1973 C1966 1.356 . S
N1973 H1976 0.984 . S
N1973 H1977 0.985 . S
H1974 N1969 0.984 . S
H1975 N1969 0.985 . S
H1976 N1973 0.984 . S
H1977 N1973 0.985 . S
H1978 N1972 0.984 . S
H1979 N1972 0.984 . S
H1980 N1968 0.984 . S
H1981 N1968 0.985 . S
C1982 C1983 1.363 . S
C1982 C1988 1.379 . S
C1982 N1990 1.356 . S
C1983 C1982 1.363 . S
C1983 C1989 1.363 . S
C1984 C1985 1.363 . S
C1984 C1989 1.379 . S
C1984 N1991 1.356 . S
C1985 C1984 1.363 . S
C1985 C1988 1.363 . S
N1986 C1988 1.356 . S
N1986 H1998 0.984 . S
N1986 H1999 0.985 . S
N1987 C1989 1.356 . S
N1987 H1992 0.984 . S
N1987 H1993 0.985 . S
C1988 C1982 1.379 . S
C1988 C1985 1.363 . S
C1988 N1986 1.356 . S
C1989 C1983 1.363 . S
C1989 C1984 1.379 . S
C1989 N1987 1.356 . S
N1990 C1982 1.356 . S
N1990 H1996 0.984 . S
N1990 H1997 0.984 . S
N1991 C1984 1.356 . S
N1991 H1994 0.984 . S
N1991 H1995 0.985 . S
H1992 N1987 0.984 . S
H1993 N1987 0.985 . S
H1994 N1991 0.984 . S
H1995 N1991 0.985 . S
H1996 N1990 0.984 . S
H1997 N1990 0.984 . S
H1998 N1986 0.984 . S
H1999 N1986 0.985 . S
C2000 C2001 1.363 . S
C2000 C2006 1.379 . S
C2000 N2008 1.356 . S
C2001 C2000 1.363 . S
C2001 C2007 1.363 . S
C2002 C2003 1.363 . S
C2002 C2007 1.379 . S
C2002 N2009 1.356 . S
C2003 C2002 1.363 . S
C2003 C2006 1.363 . S
N2004 C2006 1.356 . S
N2004 H2016 0.984 . S
N2004 H2017 0.985 . S
N2005 C2007 1.356 . S
N2005 H2010 0.984 . S
N2005 H2011 0.985 . S
C2006 C2000 1.379 . S
C2006 C2003 1.363 . S
C2006 N2004 1.356 . S
C2007 C2001 1.363 . S
C2007 C2002 1.379 . S
C2007 N2005 1.356 . S
N2008 C2000 1.356 . S
N2008 H2014 0.984 . S
N2008 H2015 0.984 . S
N2009 C2002 1.356 . S
N2009 H2012 0.984 . S
N2009 H2013 0.985 . S
H2010 N2005 0.984 . S
H2011 N2005 0.985 . S
H2012 N2009 0.984 . S
H2013 N2009 0.985 . S
H2014 N2008 0.984 . S
H2015 N2008 0.984 . S
H2016 N2004 0.984 . S
H2017 N2004 0.985 . S
C2018 C2019 1.363 . S
C2018 C2024 1.379 . S
C2018 N2026 1.356 . S
C2019 C2018 1.363 . S
C2019 C2025 1.363 . S
C2020 C2021 1.363 . S
C2020 C2025 1.379 . S
C2020 N2027 1.356 . S
C2021 C2020 1.363 . S
C2021 C2024 1.363 . S
N2022 C2024 1.356 . S
N2022 H2034 0.984 . S
N2022 H2035 0.985 . S
N2023 C2025 1.356 . S
N2023 H2028 0.984 . S
N2023 H2029 0.985 . S
C2024 C2018 1.379 . S
C2024 C2021 1.363 . S
C2024 N2022 1.356 . S
C2025 C2019 1.363 . S
C2025 C2020 1.379 . S
C2025 N2023 1.356 . S
N2026 C2018 1.356 . S
N2026 H2032 0.984 . S
N2026 H2033 0.984 . S
N2027 C2020 1.356 . S
N2027 H2030 0.984 . S
N2027 H2031 0.985 1_655 S
H2028 N2023 0.984 . S
H2029 N2023 0.985 . S
H2030 N2027 0.984 . S
H2031 N2027 0.985 1_455 S
H2032 N2026 0.984 . S
H2033 N2026 0.984 . S
H2034 N2022 0.984 . S
H2035 N2022 0.985 . S
C2036 C2037 1.363 . S
C2036 C2042 1.379 1_556 S
C2036 N2044 1.356 . S
C2037 C2036 1.363 . S
C2037 C2043 1.363 1_556 S
C2038 C2039 1.363 . S
C2038 C2043 1.379 . S
C2038 N2045 1.356 . S
C2039 C2038 1.363 . S
C2039 C2042 1.363 . S
N2040 C2042 1.356 . S
N2040 H2052 0.984 . S
N2040 H2053 0.985 . S
N2041 C2043 1.356 1_556 S
N2041 H2046 0.984 . S
N2041 H2047 0.985 1_556 S
C2042 C2036 1.379 1_554 S
C2042 C2039 1.363 . S
C2042 N2040 1.356 . S
C2043 C2037 1.363 1_554 S
C2043 C2038 1.379 . S
C2043 N2041 1.356 1_554 S
N2044 C2036 1.356 . S
N2044 H2050 0.984 . S
N2044 H2051 0.984 . S
N2045 C2038 1.356 . S
N2045 H2048 0.984 . S
N2045 H2049 0.985 . S
H2046 N2041 0.984 . S
H2047 N2041 0.985 1_554 S
H2048 N2045 0.984 . S
H2049 N2045 0.985 . S
H2050 N2044 0.984 . S
H2051 N2044 0.984 . S
H2052 N2040 0.984 . S
H2053 N2040 0.985 . S
C2054 C2055 1.363 1_554 S
C2054 C2060 1.379 . S
C2054 N2062 1.356 . S
C2055 C2054 1.363 1_556 S
C2055 C2061 1.363 . S
C2056 C2057 1.363 . S
C2056 C2061 1.379 1_554 S
C2056 N2063 1.356 . S
C2057 C2056 1.363 . S
C2057 C2060 1.363 . S
N2058 C2060 1.356 . S
N2058 H2070 0.984 . S
N2058 H2071 0.985 . S
N2059 C2061 1.356 . S
N2059 H2064 0.984 . S
N2059 H2065 0.985 . S
C2060 C2054 1.379 . S
C2060 C2057 1.363 . S
C2060 N2058 1.356 . S
C2061 C2055 1.363 . S
C2061 C2056 1.379 1_556 S
C2061 N2059 1.356 . S
N2062 C2054 1.356 . S
N2062 H2068 0.984 . S
N2062 H2069 0.984 1_554 S
N2063 C2056 1.356 . S
N2063 H2066 0.984 . S
N2063 H2067 0.985 . S
H2064 N2059 0.984 . S
H2065 N2059 0.985 . S
H2066 N2063 0.984 . S
H2067 N2063 0.985 . S
H2068 N2062 0.984 . S
H2069 N2062 0.984 1_556 S
H2070 N2058 0.984 . S
H2071 N2058 0.985 . S
C2072 C2073 1.363 . S
C2072 C2078 1.379 . S
C2072 N2080 1.356 . S
C2073 C2072 1.363 . S
C2073 C2079 1.363 . S
C2074 C2075 1.363 . S
C2074 C2079 1.379 . S
C2074 N2081 1.356 . S
C2075 C2074 1.363 . S
C2075 C2078 1.363 . S
N2076 C2078 1.356 . S
N2076 H2088 0.984 . S
N2076 H2089 0.985 . S
N2077 C2079 1.356 . S
N2077 H2082 0.984 . S
N2077 H2083 0.985 . S
C2078 C2072 1.379 . S
C2078 C2075 1.363 . S
C2078 N2076 1.356 . S
C2079 C2073 1.363 . S
C2079 C2074 1.379 . S
C2079 N2077 1.356 . S
N2080 C2072 1.356 . S
N2080 H2086 0.984 . S
N2080 H2087 0.984 . S
N2081 C2074 1.356 . S
N2081 H2084 0.984 . S
N2081 H2085 0.985 . S
H2082 N2077 0.984 . S
H2083 N2077 0.985 . S
H2084 N2081 0.984 . S
H2085 N2081 0.985 . S
H2086 N2080 0.984 . S
H2087 N2080 0.984 . S
H2088 N2076 0.984 . S
H2089 N2076 0.985 . S
C2090 C2091 1.363 . S
C2090 C2096 1.379 . S
C2090 N2098 1.356 . S
C2091 C2090 1.363 . S
C2091 C2097 1.363 . S
C2092 C2093 1.363 . S
C2092 C2097 1.379 . S
C2092 N2099 1.356 . S
C2093 C2092 1.363 . S
C2093 C2096 1.363 . S
N2094 C2096 1.356 . S
N2094 H2106 0.984 . S
N2094 H2107 0.985 . S
N2095 C2097 1.356 . S
N2095 H2100 0.984 . S
N2095 H2101 0.985 . S
C2096 C2090 1.379 . S
C2096 C2093 1.363 . S
C2096 N2094 1.356 . S
C2097 C2091 1.363 . S
C2097 C2092 1.379 . S
C2097 N2095 1.356 . S
N2098 C2090 1.356 . S
N2098 H2104 0.984 . S
N2098 H2105 0.984 . S
N2099 C2092 1.356 . S
N2099 H2102 0.984 . S
N2099 H2103 0.985 . S
H2100 N2095 0.984 . S
H2101 N2095 0.985 . S
H2102 N2099 0.984 . S
H2103 N2099 0.985 . S
H2104 N2098 0.984 . S
H2105 N2098 0.984 . S
H2106 N2094 0.984 . S
H2107 N2094 0.985 . S
C2108 C2109 1.363 1_556 S
C2108 C2114 1.379 . S
C2108 N2116 1.356 . S
C2109 C2108 1.363 1_554 S
C2109 C2115 1.363 . S
C2110 C2111 1.363 . S
C2110 C2115 1.379 1_556 S
C2110 N2117 1.356 . S
C2111 C2110 1.363 . S
C2111 C2114 1.363 . S
N2112 C2114 1.356 . S
N2112 H2124 0.984 . S
N2112 H2125 0.985 . S
N2113 C2115 1.356 . S
N2113 H2118 0.984 . S
N2113 H2119 0.985 . S
C2114 C2108 1.379 . S
C2114 C2111 1.363 . S
C2114 N2112 1.356 . S
C2115 C2109 1.363 . S
C2115 C2110 1.379 1_554 S
C2115 N2113 1.356 . S
N2116 C2108 1.356 . S
N2116 H2122 0.984 . S
N2116 H2123 0.984 . S
N2117 C2110 1.356 . S
N2117 H2120 0.984 . S
N2117 H2121 0.985 1_556 S
H2118 N2113 0.984 . S
H2119 N2113 0.985 . S
H2120 N2117 0.984 . S
H2121 N2117 0.985 1_554 S
H2122 N2116 0.984 . S
H2123 N2116 0.984 . S
H2124 N2112 0.984 . S
H2125 N2112 0.985 . S
C2126 C2127 1.363 . S
C2126 C2132 1.379 . S
C2126 N2134 1.356 . S
C2127 C2126 1.363 . S
C2127 C2133 1.363 . S
C2128 C2129 1.363 . S
C2128 C2133 1.379 1_554 S
C2128 N2135 1.356 . S
C2129 C2128 1.363 . S
C2129 C2132 1.363 1_554 S
N2130 C2132 1.356 . S
N2130 H2142 0.984 . S
N2130 H2143 0.985 1_556 S
N2131 C2133 1.356 . S
N2131 H2136 0.984 . S
N2131 H2137 0.985 . S
C2132 C2126 1.379 . S
C2132 C2129 1.363 1_556 S
C2132 N2130 1.356 . S
C2133 C2127 1.363 . S
C2133 C2128 1.379 1_556 S
C2133 N2131 1.356 . S
N2134 C2126 1.356 . S
N2134 H2140 0.984 . S
N2134 H2141 0.984 . S
N2135 C2128 1.356 . S
N2135 H2138 0.984 . S
N2135 H2139 0.985 . S
H2136 N2131 0.984 . S
H2137 N2131 0.985 . S
H2138 N2135 0.984 . S
H2139 N2135 0.985 . S
H2140 N2134 0.984 . S
H2141 N2134 0.984 . S
H2142 N2130 0.984 . S
H2143 N2130 0.985 1_554 S
C2144 C2145 1.363 . S
C2144 C2150 1.379 . S
C2144 N2152 1.356 . S
C2145 C2144 1.363 . S
C2145 C2151 1.363 . S
C2146 C2147 1.363 . S
C2146 C2151 1.379 . S
C2146 N2153 1.356 . S
C2147 C2146 1.363 . S
C2147 C2150 1.363 . S
N2148 C2150 1.356 . S
N2148 H2160 0.984 . S
N2148 H2161 0.985 . S
N2149 C2151 1.356 . S
N2149 H2154 0.984 . S
N2149 H2155 0.985 . S
C2150 C2144 1.379 . S
C2150 C2147 1.363 . S
C2150 N2148 1.356 . S
C2151 C2145 1.363 . S
C2151 C2146 1.379 . S
C2151 N2149 1.356 . S
N2152 C2144 1.356 . S
N2152 H2158 0.984 . S
N2152 H2159 0.984 . S
N2153 C2146 1.356 . S
N2153 H2156 0.984 . S
N2153 H2157 0.985 . S
H2154 N2149 0.984 . S
H2155 N2149 0.985 . S
H2156 N2153 0.984 . S
H2157 N2153 0.985 . S
H2158 N2152 0.984 . S
H2159 N2152 0.984 . S
H2160 N2148 0.984 . S
H2161 N2148 0.985 . S
C2162 C2163 1.363 . S
C2162 C2168 1.379 1_565 S
C2162 N2170 1.356 . S
C2163 C2162 1.363 . S
C2163 C2169 1.363 . S
C2164 C2165 1.363 . S
C2164 C2169 1.379 1_545 S
C2164 N2171 1.356 . S
C2165 C2164 1.363 . S
C2165 C2168 1.363 . S
N2166 C2168 1.356 . S
N2166 H2178 0.984 . S
N2166 H2179 0.985 . S
N2167 C2169 1.356 . S
N2167 H2172 0.984 . S
N2167 H2173 0.985 . S
C2168 C2162 1.379 1_545 S
C2168 C2165 1.363 . S
C2168 N2166 1.356 . S
C2169 C2163 1.363 . S
C2169 C2164 1.379 1_565 S
C2169 N2167 1.356 . S
N2170 C2162 1.356 . S
N2170 H2176 0.984 . S
N2170 H2177 0.984 . S
N2171 C2164 1.356 . S
N2171 H2174 0.984 . S
N2171 H2175 0.985 . S
H2172 N2167 0.984 . S
H2173 N2167 0.985 . S
H2174 N2171 0.984 . S
H2175 N2171 0.985 . S
H2176 N2170 0.984 . S
H2177 N2170 0.984 . S
H2178 N2166 0.984 . S
H2179 N2166 0.985 . S
C2180 C2181 1.363 1_545 S
C2180 C2186 1.379 1_556 S
C2180 N2188 1.356 . S
C2181 C2180 1.363 1_565 S
C2181 C2187 1.363 1_556 S
C2182 C2183 1.363 1_565 S
C2182 C2187 1.379 . S
C2182 N2189 1.356 . S
C2183 C2182 1.363 1_545 S
C2183 C2186 1.363 . S
N2184 C2186 1.356 . S
N2184 H2196 0.984 1_554 S
N2184 H2197 0.985 . S
N2185 C2187 1.356 . S
N2185 H2190 0.984 1_554 S
N2185 H2191 0.985 . S
C2186 C2180 1.379 1_554 S
C2186 C2183 1.363 . S
C2186 N2184 1.356 . S
C2187 C2181 1.363 1_554 S
C2187 C2182 1.379 . S
C2187 N2185 1.356 . S
N2188 C2180 1.356 . S
N2188 H2194 0.984 . S
N2188 H2195 0.984 1_545 S
N2189 C2182 1.356 . S
N2189 H2192 0.984 1_565 S
N2189 H2193 0.985 . S
H2190 N2185 0.984 1_556 S
H2191 N2185 0.985 . S
H2192 N2189 0.984 1_545 S
H2193 N2189 0.985 . S
H2194 N2188 0.984 . S
H2195 N2188 0.984 1_565 S
H2196 N2184 0.984 1_556 S
H2197 N2184 0.985 . S
C2198 C2199 1.363 1_554 S
C2198 C2204 1.379 . S
C2198 N2206 1.356 . S
C2199 C2198 1.363 1_556 S
C2199 C2205 1.363 . S
C2200 C2201 1.363 . S
C2200 C2205 1.379 1_554 S
C2200 N2207 1.356 . S
C2201 C2200 1.363 . S
C2201 C2204 1.363 . S
N2202 C2204 1.356 . S
N2202 H2214 0.984 . S
N2202 H2215 0.985 . S
N2203 C2205 1.356 . S
N2203 H2208 0.984 . S
N2203 H2209 0.985 . S
C2204 C2198 1.379 . S
C2204 C2201 1.363 . S
C2204 N2202 1.356 . S
C2205 C2199 1.363 . S
C2205 C2200 1.379 1_556 S
C2205 N2203 1.356 . S
N2206 C2198 1.356 . S
N2206 H2212 0.984 . S
N2206 H2213 0.984 1_554 S
N2207 C2200 1.356 . S
N2207 H2210 0.984 . S
N2207 H2211 0.985 . S
H2208 N2203 0.984 . S
H2209 N2203 0.985 . S
H2210 N2207 0.984 . S
H2211 N2207 0.985 . S
H2212 N2206 0.984 . S
H2213 N2206 0.984 1_556 S
H2214 N2202 0.984 . S
H2215 N2202 0.985 . S
C2216 C2217 1.363 . S
C2216 C2222 1.379 . S
C2216 N2224 1.356 . S
C2217 C2216 1.363 . S
C2217 C2223 1.363 . S
C2218 C2219 1.363 . S
C2218 C2223 1.379 . S
C2218 N2225 1.356 . S
C2219 C2218 1.363 . S
C2219 C2222 1.363 . S
N2220 C2222 1.356 . S
N2220 H2232 0.984 . S
N2220 H2233 0.985 . S
N2221 C2223 1.356 . S
N2221 H2226 0.984 . S
N2221 H2227 0.985 . S
C2222 C2216 1.379 . S
C2222 C2219 1.363 . S
C2222 N2220 1.356 . S
C2223 C2217 1.363 . S
C2223 C2218 1.379 . S
C2223 N2221 1.356 . S
N2224 C2216 1.356 . S
N2224 H2230 0.984 . S
N2224 H2231 0.984 . S
N2225 C2218 1.356 . S
N2225 H2228 0.984 . S
N2225 H2229 0.985 . S
H2226 N2221 0.984 . S
H2227 N2221 0.985 . S
H2228 N2225 0.984 . S
H2229 N2225 0.985 . S
H2230 N2224 0.984 . S
H2231 N2224 0.984 . S
H2232 N2220 0.984 . S
H2233 N2220 0.985 . S
C2234 C2235 1.363 . S
C2234 C2240 1.379 1_545 S
C2234 N2242 1.356 . S
C2235 C2234 1.363 . S
C2235 C2241 1.363 . S
C2236 C2237 1.363 . S
C2236 C2241 1.379 1_565 S
C2236 N2243 1.356 . S
C2237 C2236 1.363 . S
C2237 C2240 1.363 . S
N2238 C2240 1.356 . S
N2238 H2250 0.984 . S
N2238 H2251 0.985 . S
N2239 C2241 1.356 . S
N2239 H2244 0.984 . S
N2239 H2245 0.985 . S
C2240 C2234 1.379 1_565 S
C2240 C2237 1.363 . S
C2240 N2238 1.356 . S
C2241 C2235 1.363 . S
C2241 C2236 1.379 1_545 S
C2241 N2239 1.356 . S
N2242 C2234 1.356 . S
N2242 H2248 0.984 . S
N2242 H2249 0.984 . S
N2243 C2236 1.356 . S
N2243 H2246 0.984 . S
N2243 H2247 0.985 . S
H2244 N2239 0.984 . S
H2245 N2239 0.985 . S
H2246 N2243 0.984 . S
H2247 N2243 0.985 . S
H2248 N2242 0.984 . S
H2249 N2242 0.984 . S
H2250 N2238 0.984 . S
H2251 N2238 0.985 . S
C2252 C2253 1.363 1_545 S
C2252 C2258 1.379 . S
C2252 N2260 1.356 . S
C2253 C2252 1.363 1_565 S
C2253 C2259 1.363 . S
C2254 C2255 1.363 1_565 S
C2254 C2259 1.379 1_554 S
C2254 N2261 1.356 . S
C2255 C2254 1.363 1_545 S
C2255 C2258 1.363 1_554 S
N2256 C2258 1.356 . S
N2256 H2268 0.984 . S
N2256 H2269 0.985 1_556 S
N2257 C2259 1.356 . S
N2257 H2262 0.984 . S
N2257 H2263 0.985 1_556 S
C2258 C2252 1.379 . S
C2258 C2255 1.363 1_556 S
C2258 N2256 1.356 . S
C2259 C2253 1.363 . S
C2259 C2254 1.379 1_556 S
C2259 N2257 1.356 . S
N2260 C2252 1.356 . S
N2260 H2266 0.984 . S
N2260 H2267 0.984 1_545 S
N2261 C2254 1.356 . S
N2261 H2264 0.984 1_565 S
N2261 H2265 0.985 . S
H2262 N2257 0.984 . S
H2263 N2257 0.985 1_554 S
H2264 N2261 0.984 1_545 S
H2265 N2261 0.985 . S
H2266 N2260 0.984 . S
H2267 N2260 0.984 1_565 S
H2268 N2256 0.984 . S
H2269 N2256 0.985 1_554 S
C2270 C2271 1.363 . S
C2270 C2276 1.379 . S
C2270 N2278 1.356 . S
C2271 C2270 1.363 . S
C2271 C2277 1.363 . S
C2272 C2273 1.363 . S
C2272 C2277 1.379 1_554 S
C2272 N2279 1.356 . S
C2273 C2272 1.363 . S
C2273 C2276 1.363 1_554 S
N2274 C2276 1.356 . S
N2274 H2286 0.984 . S
N2274 H2287 0.985 1_556 S
N2275 C2277 1.356 . S
N2275 H2280 0.984 . S
N2275 H2281 0.993 . S
C2276 C2270 1.379 . S
C2276 C2273 1.363 1_556 S
C2276 N2274 1.356 . S
C2277 C2271 1.363 . S
C2277 C2272 1.379 1_556 S
C2277 N2275 1.356 . S
N2278 C2270 1.356 . S
N2278 H2284 0.984 . S
N2278 H2285 0.984 . S
N2279 C2272 1.356 . S
N2279 H2282 0.984 . S
N2279 H2283 0.985 . S
H2280 N2275 0.984 . S
H2281 N2275 0.993 . S
H2282 N2279 0.984 . S
H2283 N2279 0.985 . S
H2284 N2278 0.984 . S
H2285 N2278 0.984 . S
H2286 N2274 0.984 . S
H2287 N2274 0.985 1_554 S
C2288 C2289 1.363 . S
C2288 C2294 1.379 . S
C2288 N2296 1.356 . S
C2289 C2288 1.363 . S
C2289 C2295 1.363 . S
C2290 C2291 1.363 . S
C2290 C2295 1.379 . S
C2290 N2297 1.356 . S
C2291 C2290 1.363 . S
C2291 C2294 1.363 . S
N2292 C2294 1.356 . S
N2292 H2304 0.984 . S
N2292 H2305 0.985 . S
N2293 C2295 1.356 . S
N2293 H2298 0.984 . S
N2293 H2299 0.985 . S
C2294 C2288 1.379 . S
C2294 C2291 1.363 . S
C2294 N2292 1.356 . S
C2295 C2289 1.363 . S
C2295 C2290 1.379 . S
C2295 N2293 1.356 . S
N2296 C2288 1.356 . S
N2296 H2302 0.984 . S
N2296 H2303 0.984 . S
N2297 C2290 1.356 . S
N2297 H2300 0.984 . S
N2297 H2301 0.985 . S
H2298 N2293 0.984 . S
H2299 N2293 0.985 . S
H2300 N2297 0.984 . S
H2301 N2297 0.985 . S
H2302 N2296 0.984 . S
H2303 N2296 0.984 . S
H2304 N2292 0.984 . S
H2305 N2292 0.985 . S
C2306 C2307 1.363 . S
C2306 C2312 1.379 . S
C2306 N2314 1.356 . S
C2307 C2306 1.363 . S
C2307 C2313 1.363 . S
C2308 C2309 1.363 . S
C2308 C2313 1.379 . S
C2308 N2315 1.356 . S
C2309 C2308 1.363 . S
C2309 C2312 1.363 . S
N2310 C2312 1.356 . S
N2310 H2322 0.984 . S
N2310 H2323 0.985 . S
N2311 C2313 1.356 . S
N2311 H2316 0.984 . S
N2311 H2317 0.985 . S
C2312 C2306 1.379 . S
C2312 C2309 1.363 . S
C2312 N2310 1.356 . S
C2313 C2307 1.363 . S
C2313 C2308 1.379 . S
C2313 N2311 1.356 . S
N2314 C2306 1.356 . S
N2314 H2320 0.984 . S
N2314 H2321 0.984 . S
N2315 C2308 1.356 . S
N2315 H2318 0.984 . S
N2315 H2319 0.985 . S
H2316 N2311 0.984 . S
H2317 N2311 0.985 . S
H2318 N2315 0.984 . S
H2319 N2315 0.985 . S
H2320 N2314 0.984 . S
H2321 N2314 0.984 . S
H2322 N2310 0.984 . S
H2323 N2310 0.985 . S
C2324 C2325 1.363 . S
C2324 C2330 1.379 . S
C2324 N2332 1.356 . S
C2325 C2324 1.363 . S
C2325 C2331 1.363 . S
C2326 C2327 1.363 . S
C2326 C2331 1.379 . S
C2326 N2333 1.356 . S
C2327 C2326 1.363 . S
C2327 C2330 1.363 . S
N2328 C2330 1.356 . S
N2328 H2340 0.984 . S
N2328 H2341 0.985 . S
N2329 C2331 1.356 . S
N2329 H2334 0.984 . S
N2329 H2335 0.985 . S
C2330 C2324 1.379 . S
C2330 C2327 1.363 . S
C2330 N2328 1.356 . S
C2331 C2325 1.363 . S
C2331 C2326 1.379 . S
C2331 N2329 1.356 . S
N2332 C2324 1.356 . S
N2332 H2338 0.984 . S
N2332 H2339 0.984 . S
N2333 C2326 1.356 . S
N2333 H2336 0.984 . S
N2333 H2337 0.985 . S
H2334 N2329 0.984 . S
H2335 N2329 0.985 . S
H2336 N2333 0.984 . S
H2337 N2333 0.985 . S
H2338 N2332 0.984 . S
H2339 N2332 0.984 . S
H2340 N2328 0.984 . S
H2341 N2328 0.985 . S
C2342 C2343 1.363 . S
C2342 C2348 1.379 . S
C2342 N2350 1.356 . S
C2343 C2342 1.363 . S
C2343 C2349 1.363 . S
C2344 C2345 1.363 . S
C2344 C2349 1.379 . S
C2344 N2351 1.356 . S
C2345 C2344 1.363 . S
C2345 C2348 1.363 . S
N2346 C2348 1.356 . S
N2346 H2358 0.984 . S
N2346 H2359 0.985 . S
N2347 C2349 1.356 . S
N2347 H2352 0.984 . S
N2347 H2353 0.985 . S
C2348 C2342 1.379 . S
C2348 C2345 1.363 . S
C2348 N2346 1.356 . S
C2349 C2343 1.363 . S
C2349 C2344 1.379 . S
C2349 N2347 1.356 . S
N2350 C2342 1.356 . S
N2350 H2356 0.984 . S
N2350 H2357 0.984 . S
N2351 C2344 1.356 . S
N2351 H2354 0.984 . S
N2351 H2355 0.985 . S
H2352 N2347 0.984 . S
H2353 N2347 0.985 . S
H2354 N2351 0.984 . S
H2355 N2351 0.985 . S
H2356 N2350 0.984 . S
H2357 N2350 0.984 . S
H2358 N2346 0.984 . S
H2359 N2346 0.985 . S
C2360 C2361 1.363 . S
C2360 C2366 1.379 . S
C2360 N2368 1.356 . S
C2361 C2360 1.363 . S
C2361 C2367 1.363 . S
C2362 C2363 1.363 . S
C2362 C2367 1.379 . S
C2362 N2369 1.356 . S
C2363 C2362 1.363 . S
C2363 C2366 1.363 . S
N2364 C2366 1.356 . S
N2364 H2376 0.984 . S
N2364 H2377 0.985 . S
N2365 C2367 1.356 . S
N2365 H2370 0.984 . S
N2365 H2371 0.985 . S
C2366 C2360 1.379 . S
C2366 C2363 1.363 . S
C2366 N2364 1.356 . S
C2367 C2361 1.363 . S
C2367 C2362 1.379 . S
C2367 N2365 1.356 . S
N2368 C2360 1.356 . S
N2368 H2374 0.984 . S
N2368 H2375 0.984 . S
N2369 C2362 1.356 . S
N2369 H2372 0.984 . S
N2369 H2373 0.985 . S
H2370 N2365 0.984 . S
H2371 N2365 0.985 . S
H2372 N2369 0.984 . S
H2373 N2369 0.985 . S
H2374 N2368 0.984 . S
H2375 N2368 0.984 . S
H2376 N2364 0.984 . S
H2377 N2364 0.985 . S
C2378 C2379 1.363 . S
C2378 C2384 1.379 . S
C2378 N2386 1.356 . S
C2379 C2378 1.363 . S
C2379 C2385 1.363 . S
C2380 C2381 1.363 . S
C2380 C2385 1.379 . S
C2380 N2387 1.356 . S
C2381 C2380 1.363 . S
C2381 C2384 1.363 . S
N2382 C2384 1.356 . S
N2382 H2394 0.984 . S
N2382 H2395 0.985 . S
N2383 C2385 1.356 . S
N2383 H2388 0.984 . S
N2383 H2389 0.985 . S
C2384 C2378 1.379 . S
C2384 C2381 1.363 . S
C2384 N2382 1.356 . S
C2385 C2379 1.363 . S
C2385 C2380 1.379 . S
C2385 N2383 1.356 . S
N2386 C2378 1.356 . S
N2386 H2392 0.984 . S
N2386 H2393 0.984 . S
N2387 C2380 1.356 . S
N2387 H2390 0.984 . S
N2387 H2391 0.985 . S
H2388 N2383 0.984 . S
H2389 N2383 0.985 . S
H2390 N2387 0.984 . S
H2391 N2387 0.985 . S
H2392 N2386 0.984 . S
H2393 N2386 0.984 . S
H2394 N2382 0.984 . S
H2395 N2382 0.985 . S
C2396 C2397 1.363 . S
C2396 C2402 1.379 . S
C2396 N2404 1.356 . S
C2397 C2396 1.363 . S
C2397 C2403 1.363 . S
C2398 C2399 1.363 . S
C2398 C2403 1.379 . S
C2398 N2405 1.356 . S
C2399 C2398 1.363 . S
C2399 C2402 1.363 . S
N2400 C2402 1.356 . S
N2400 H2412 0.984 . S
N2400 H2413 0.985 . S
N2401 C2403 1.356 . S
N2401 H2406 0.984 . S
N2401 H2407 0.985 . S
C2402 C2396 1.379 . S
C2402 C2399 1.363 . S
C2402 N2400 1.356 . S
C2403 C2397 1.363 . S
C2403 C2398 1.379 . S
C2403 N2401 1.356 . S
N2404 C2396 1.356 . S
N2404 H2410 0.984 . S
N2404 H2411 0.984 . S
N2405 C2398 1.356 . S
N2405 H2408 0.984 . S
N2405 H2409 0.985 . S
H2406 N2401 0.984 . S
H2407 N2401 0.985 . S
H2408 N2405 0.984 . S
H2409 N2405 0.985 . S
H2410 N2404 0.984 . S
H2411 N2404 0.984 . S
H2412 N2400 0.984 . S
H2413 N2400 0.985 . S
C2414 C2415 1.363 . S
C2414 C2420 1.379 . S
C2414 N2422 1.356 . S
C2415 C2414 1.363 . S
C2415 C2421 1.363 . S
C2416 C2417 1.363 . S
C2416 C2421 1.379 . S
C2416 N2423 1.356 . S
C2417 C2416 1.363 . S
C2417 C2420 1.363 . S
N2418 C2420 1.356 . S
N2418 H2430 0.984 . S
N2418 H2431 0.985 . S
N2419 C2421 1.356 . S
N2419 H2424 0.984 . S
N2419 H2425 0.985 . S
C2420 C2414 1.379 . S
C2420 C2417 1.363 . S
C2420 N2418 1.356 . S
C2421 C2415 1.363 . S
C2421 C2416 1.379 . S
C2421 N2419 1.356 . S
N2422 C2414 1.356 . S
N2422 H2428 0.984 . S
N2422 H2429 0.984 . S
N2423 C2416 1.356 . S
N2423 H2426 0.984 . S
N2423 H2427 0.985 . S
H2424 N2419 0.984 . S
H2425 N2419 0.985 . S
H2426 N2423 0.984 . S
H2427 N2423 0.985 . S
H2428 N2422 0.984 . S
H2429 N2422 0.984 . S
H2430 N2418 0.984 . S
H2431 N2418 0.985 . S
C2432 C2433 1.363 . S
C2432 C2438 1.379 . S
C2432 N2440 1.356 . S
C2433 C2432 1.363 . S
C2433 C2439 1.363 . S
C2434 C2435 1.363 . S
C2434 C2439 1.379 . S
C2434 N2441 1.356 . S
C2435 C2434 1.363 . S
C2435 C2438 1.363 . S
N2436 C2438 1.356 . S
N2436 H2448 0.984 . S
N2436 H2449 0.985 . S
N2437 C2439 1.356 . S
N2437 H2442 0.984 . S
N2437 H2443 0.985 . S
C2438 C2432 1.379 . S
C2438 C2435 1.363 . S
C2438 N2436 1.356 . S
C2439 C2433 1.363 . S
C2439 C2434 1.379 . S
C2439 N2437 1.356 . S
N2440 C2432 1.356 . S
N2440 H2446 0.984 . S
N2440 H2447 0.984 . S
N2441 C2434 1.356 . S
N2441 H2444 0.984 . S
N2441 H2445 0.985 . S
H2442 N2437 0.984 . S
H2443 N2437 0.985 . S
H2444 N2441 0.984 . S
H2445 N2441 0.985 . S
H2446 N2440 0.984 . S
H2447 N2440 0.984 . S
H2448 N2436 0.984 . S
H2449 N2436 0.985 . S
C2450 C2451 1.363 . S
C2450 C2456 1.379 . S
C2450 N2458 1.356 . S
C2451 C2450 1.363 . S
C2451 C2457 1.363 . S
C2452 C2453 1.363 . S
C2452 C2457 1.379 . S
C2452 N2459 1.356 . S
C2453 C2452 1.363 . S
C2453 C2456 1.363 . S
N2454 C2456 1.356 . S
N2454 H2466 0.984 . S
N2454 H2467 0.985 . S
N2455 C2457 1.356 . S
N2455 H2460 0.984 . S
N2455 H2461 0.985 . S
C2456 C2450 1.379 . S
C2456 C2453 1.363 . S
C2456 N2454 1.356 . S
C2457 C2451 1.363 . S
C2457 C2452 1.379 . S
C2457 N2455 1.356 . S
N2458 C2450 1.356 . S
N2458 H2464 0.984 . S
N2458 H2465 0.984 . S
N2459 C2452 1.356 . S
N2459 H2462 0.984 . S
N2459 H2463 0.985 . S
H2460 N2455 0.984 . S
H2461 N2455 0.985 . S
H2462 N2459 0.984 . S
H2463 N2459 0.985 . S
H2464 N2458 0.984 . S
H2465 N2458 0.984 . S
H2466 N2454 0.984 . S
H2467 N2454 0.985 . S
C2468 C2469 1.363 . S
C2468 C2474 1.379 . S
C2468 N2476 1.356 . S
C2469 C2468 1.363 . S
C2469 C2475 1.363 . S
C2470 C2471 1.363 . S
C2470 C2475 1.379 . S
C2470 N2477 1.356 . S
C2471 C2470 1.363 . S
C2471 C2474 1.363 . S
N2472 C2474 1.356 . S
N2472 H2484 0.984 . S
N2472 H2485 0.985 . S
N2473 C2475 1.356 . S
N2473 H2478 0.984 . S
N2473 H2479 0.985 . S
C2474 C2468 1.379 . S
C2474 C2471 1.363 . S
C2474 N2472 1.356 . S
C2475 C2469 1.363 . S
C2475 C2470 1.379 . S
C2475 N2473 1.356 . S
N2476 C2468 1.356 . S
N2476 H2482 0.984 . S
N2476 H2483 0.984 . S
N2477 C2470 1.356 . S
N2477 H2480 0.984 . S
N2477 H2481 0.985 . S
H2478 N2473 0.984 . S
H2479 N2473 0.985 . S
H2480 N2477 0.984 . S
H2481 N2477 0.985 . S
H2482 N2476 0.984 . S
H2483 N2476 0.984 . S
H2484 N2472 0.984 . S
H2485 N2472 0.985 . S
C2486 C2487 1.363 . S
C2486 C2492 1.379 . S
C2486 N2494 1.356 . S
C2487 C2486 1.363 . S
C2487 C2493 1.363 . S
C2488 C2489 1.363 . S
C2488 C2493 1.379 . S
C2488 N2495 1.356 . S
C2489 C2488 1.363 . S
C2489 C2492 1.363 . S
N2490 C2492 1.356 . S
N2490 H2502 0.984 . S
N2490 H2503 0.985 . S
N2491 C2493 1.356 . S
N2491 H2496 0.984 . S
N2491 H2497 0.985 . S
C2492 C2486 1.379 . S
C2492 C2489 1.363 . S
C2492 N2490 1.356 . S
C2493 C2487 1.363 . S
C2493 C2488 1.379 . S
C2493 N2491 1.356 . S
N2494 C2486 1.356 . S
N2494 H2500 0.984 . S
N2494 H2501 0.984 . S
N2495 C2488 1.356 . S
N2495 H2498 0.984 1_556 S
N2495 H2499 0.985 . S
H2496 N2491 0.984 . S
H2497 N2491 0.985 . S
H2498 N2495 0.984 1_554 S
H2499 N2495 0.985 . S
H2500 N2494 0.984 . S
H2501 N2494 0.984 . S
H2502 N2490 0.984 . S
H2503 N2490 0.985 . S
C2504 C2505 1.363 . S
C2504 C2510 1.379 . S
C2504 N2512 1.356 . S
C2505 C2504 1.363 . S
C2505 C2511 1.363 . S
C2506 C2507 1.363 . S
C2506 C2511 1.379 . S
C2506 N2513 1.356 . S
C2507 C2506 1.363 . S
C2507 C2510 1.363 . S
N2508 C2510 1.356 . S
N2508 H2520 0.984 . S
N2508 H2521 0.985 . S
N2509 C2511 1.356 . S
N2509 H2514 0.984 . S
N2509 H2515 0.985 . S
C2510 C2504 1.379 . S
C2510 C2507 1.363 . S
C2510 N2508 1.356 . S
C2511 C2505 1.363 . S
C2511 C2506 1.379 . S
C2511 N2509 1.356 . S
N2512 C2504 1.356 . S
N2512 H2518 0.984 . S
N2512 H2519 0.984 . S
N2513 C2506 1.356 . S
N2513 H2516 0.984 . S
N2513 H2517 0.985 . S
H2514 N2509 0.984 . S
H2515 N2509 0.985 . S
H2516 N2513 0.984 . S
H2517 N2513 0.985 . S
H2518 N2512 0.984 . S
H2519 N2512 0.984 . S
H2520 N2508 0.984 . S
H2521 N2508 0.985 . S
C2522 C2523 1.363 . S
C2522 C2528 1.379 . S
C2522 N2530 1.356 . S
C2523 C2522 1.363 . S
C2523 C2529 1.363 . S
C2524 C2525 1.363 . S
C2524 C2529 1.379 . S
C2524 N2531 1.356 . S
C2525 C2524 1.363 . S
C2525 C2528 1.363 . S
N2526 C2528 1.356 . S
N2526 H2538 0.984 . S
N2526 H2539 0.985 . S
N2527 C2529 1.356 . S
N2527 H2532 0.984 . S
N2527 H2533 0.985 . S
C2528 C2522 1.379 . S
C2528 C2525 1.363 . S
C2528 N2526 1.356 . S
C2529 C2523 1.363 . S
C2529 C2524 1.379 . S
C2529 N2527 1.356 . S
N2530 C2522 1.356 . S
N2530 H2536 0.984 . S
N2530 H2537 0.984 . S
N2531 C2524 1.356 . S
N2531 H2534 0.984 . S
N2531 H2535 0.985 . S
H2532 N2527 0.984 . S
H2533 N2527 0.985 . S
H2534 N2531 0.984 . S
H2535 N2531 0.985 . S
H2536 N2530 0.984 . S
H2537 N2530 0.984 . S
H2538 N2526 0.984 . S
H2539 N2526 0.985 . S
C2540 C2541 1.363 . S
C2540 C2546 1.379 . S
C2540 N2548 1.356 . S
C2541 C2540 1.363 . S
C2541 C2547 1.363 . S
C2542 C2543 1.363 . S
C2542 C2547 1.379 . S
C2542 N2549 1.356 . S
C2543 C2542 1.363 . S
C2543 C2546 1.363 . S
N2544 C2546 1.356 . S
N2544 H2556 0.984 . S
N2544 H2557 0.985 . S
N2545 C2547 1.356 . S
N2545 H2550 0.984 . S
N2545 H2551 0.985 . S
C2546 C2540 1.379 . S
C2546 C2543 1.363 . S
C2546 N2544 1.356 . S
C2547 C2541 1.363 . S
C2547 C2542 1.379 . S
C2547 N2545 1.356 . S
N2548 C2540 1.356 . S
N2548 H2554 0.984 . S
N2548 H2555 0.984 1_554 S
N2549 C2542 1.356 . S
N2549 H2552 0.984 . S
N2549 H2553 0.985 . S
H2550 N2545 0.984 . S
H2551 N2545 0.985 . S
H2552 N2549 0.984 . S
H2553 N2549 0.985 . S
H2554 N2548 0.984 . S
H2555 N2548 0.984 1_556 S
H2556 N2544 0.984 . S
H2557 N2544 0.985 . S
C2558 C2559 1.363 . S
C2558 C2564 1.379 . S
C2558 N2566 1.356 . S
C2559 C2558 1.363 . S
C2559 C2565 1.363 . S
C2560 C2561 1.363 . S
C2560 C2565 1.379 . S
C2560 N2567 1.356 . S
C2561 C2560 1.363 . S
C2561 C2564 1.363 . S
N2562 C2564 1.356 . S
N2562 H2574 0.984 . S
N2562 H2575 0.985 . S
N2563 C2565 1.356 . S
N2563 H2568 0.984 . S
N2563 H2569 0.985 . S
C2564 C2558 1.379 . S
C2564 C2561 1.363 . S
C2564 N2562 1.356 . S
C2565 C2559 1.363 . S
C2565 C2560 1.379 . S
C2565 N2563 1.356 . S
N2566 C2558 1.356 . S
N2566 H2572 0.984 . S
N2566 H2573 0.984 1_554 S
N2567 C2560 1.356 . S
N2567 H2570 0.984 . S
N2567 H2571 0.985 . S
H2568 N2563 0.984 . S
H2569 N2563 0.985 . S
H2570 N2567 0.984 . S
H2571 N2567 0.985 . S
H2572 N2566 0.984 . S
H2573 N2566 0.984 1_556 S
H2574 N2562 0.984 . S
H2575 N2562 0.985 . S
C2576 C2577 1.363 . S
C2576 C2582 1.379 . S
C2576 N2584 1.356 . S
C2577 C2576 1.363 . S
C2577 C2583 1.363 . S
C2578 C2579 1.363 . S
C2578 C2583 1.379 . S
C2578 N2585 1.356 . S
C2579 C2578 1.363 . S
C2579 C2582 1.363 . S
N2580 C2582 1.356 . S
N2580 H2592 0.984 . S
N2580 H2593 0.985 . S
N2581 C2583 1.356 . S
N2581 H2586 0.984 . S
N2581 H2587 0.985 . S
C2582 C2576 1.379 . S
C2582 C2579 1.363 . S
C2582 N2580 1.356 . S
C2583 C2577 1.363 . S
C2583 C2578 1.379 . S
C2583 N2581 1.356 . S
N2584 C2576 1.356 . S
N2584 H2590 0.984 . S
N2584 H2591 0.984 1_556 S
N2585 C2578 1.356 . S
N2585 H2588 0.984 . S
N2585 H2589 0.985 . S
H2586 N2581 0.984 . S
H2587 N2581 0.985 . S
H2588 N2585 0.984 . S
H2589 N2585 0.985 . S
H2590 N2584 0.984 . S
H2591 N2584 0.984 1_554 S
H2592 N2580 0.984 . S
H2593 N2580 0.985 . S
C2594 C2595 1.363 . S
C2594 C2600 1.379 . S
C2594 N2602 1.356 . S
C2595 C2594 1.363 . S
C2595 C2601 1.363 . S
C2596 C2597 1.363 . S
C2596 C2601 1.379 . S
C2596 N2603 1.356 . S
C2597 C2596 1.363 . S
C2597 C2600 1.363 . S
N2598 C2600 1.356 . S
N2598 H2610 0.984 1_556 S
N2598 H2611 0.985 1_556 S
N2599 C2601 1.356 . S
N2599 H2604 0.984 . S
N2599 H2605 0.985 . S
C2600 C2594 1.379 . S
C2600 C2597 1.363 . S
C2600 N2598 1.356 . S
C2601 C2595 1.363 . S
C2601 C2596 1.379 . S
C2601 N2599 1.356 . S
N2602 C2594 1.356 . S
N2602 H2608 0.984 . S
N2602 H2609 0.984 . S
N2603 C2596 1.356 . S
N2603 H2606 0.984 . S
N2603 H2607 0.985 . S
H2604 N2599 0.984 . S
H2605 N2599 0.985 . S
H2606 N2603 0.984 . S
H2607 N2603 0.985 . S
H2608 N2602 0.984 . S
H2609 N2602 0.984 . S
H2610 N2598 0.984 1_554 S
H2611 N2598 0.985 1_554 S
C2612 C2613 1.363 . S
C2612 C2618 1.379 . S
C2612 N2620 1.356 . S
C2613 C2612 1.363 . S
C2613 C2619 1.363 . S
C2614 C2615 1.363 . S
C2614 C2619 1.379 . S
C2614 N2621 1.356 . S
C2615 C2614 1.363 . S
C2615 C2618 1.363 . S
N2616 C2618 1.356 . S
N2616 H2628 0.984 . S
N2616 H2629 0.985 . S
N2617 C2619 1.356 . S
N2617 H2622 0.984 . S
N2617 H2623 0.985 . S
C2618 C2612 1.379 . S
C2618 C2615 1.363 . S
C2618 N2616 1.356 . S
C2619 C2613 1.363 . S
C2619 C2614 1.379 . S
C2619 N2617 1.356 . S
N2620 C2612 1.356 . S
N2620 H2626 0.984 . S
N2620 H2627 0.984 . S
N2621 C2614 1.356 . S
N2621 H2624 0.984 . S
N2621 H2625 0.985 . S
H2622 N2617 0.984 . S
H2623 N2617 0.985 . S
H2624 N2621 0.984 . S
H2625 N2621 0.985 . S
H2626 N2620 0.984 . S
H2627 N2620 0.984 . S
H2628 N2616 0.984 . S
H2629 N2616 0.985 . S
C2630 C2631 1.363 . S
C2630 C2636 1.379 . S
C2630 N2638 1.356 . S
C2631 C2630 1.363 . S
C2631 C2637 1.363 . S
C2632 C2633 1.363 . S
C2632 C2637 1.379 . S
C2632 N2639 1.356 . S
C2633 C2632 1.363 . S
C2633 C2636 1.363 . S
N2634 C2636 1.356 . S
N2634 H2646 0.984 . S
N2634 H2647 0.985 . S
N2635 C2637 1.356 . S
N2635 H2640 0.984 . S
N2635 H2641 0.985 . S
C2636 C2630 1.379 . S
C2636 C2633 1.363 . S
C2636 N2634 1.356 . S
C2637 C2631 1.363 . S
C2637 C2632 1.379 . S
C2637 N2635 1.356 . S
N2638 C2630 1.356 . S
N2638 H2644 0.984 . S
N2638 H2645 0.984 . S
N2639 C2632 1.356 . S
N2639 H2642 0.984 . S
N2639 H2643 0.985 . S
H2640 N2635 0.984 . S
H2641 N2635 0.985 . S
H2642 N2639 0.984 . S
H2643 N2639 0.985 . S
H2644 N2638 0.984 . S
H2645 N2638 0.984 . S
H2646 N2634 0.984 . S
H2647 N2634 0.985 . S
C2648 C2649 1.363 . S
C2648 C2654 1.379 . S
C2648 N2656 1.356 . S
C2649 C2648 1.363 . S
C2649 C2655 1.363 . S
C2650 C2651 1.363 . S
C2650 C2655 1.379 . S
C2650 N2657 1.356 . S
C2651 C2650 1.363 . S
C2651 C2654 1.363 . S
N2652 C2654 1.356 . S
N2652 H2664 0.984 . S
N2652 H2665 0.985 . S
N2653 C2655 1.356 . S
N2653 H2658 0.984 . S
N2653 H2659 0.985 . S
C2654 C2648 1.379 . S
C2654 C2651 1.363 . S
C2654 N2652 1.356 . S
C2655 C2649 1.363 . S
C2655 C2650 1.379 . S
C2655 N2653 1.356 . S
N2656 C2648 1.356 . S
N2656 H2662 0.984 1_554 S
N2656 H2663 0.984 1_554 S
N2657 C2650 1.356 . S
N2657 H2660 0.984 . S
N2657 H2661 0.985 . S
H2658 N2653 0.984 . S
H2659 N2653 0.985 . S
H2660 N2657 0.984 . S
H2661 N2657 0.985 . S
H2662 N2656 0.984 1_556 S
H2663 N2656 0.984 1_556 S
H2664 N2652 0.984 . S
H2665 N2652 0.985 . S
C2666 C2667 1.363 . S
C2666 C2672 1.379 . S
C2666 N2674 1.356 . S
C2667 C2666 1.363 . S
C2667 C2673 1.363 . S
C2668 C2669 1.363 . S
C2668 C2673 1.379 . S
C2668 N2675 1.356 . S
C2669 C2668 1.363 . S
C2669 C2672 1.363 . S
N2670 C2672 1.356 . S
N2670 H2682 0.984 . S
N2670 H2683 0.985 . S
N2671 C2673 1.356 . S
N2671 H2676 0.984 . S
N2671 H2677 0.985 . S
C2672 C2666 1.379 . S
C2672 C2669 1.363 . S
C2672 N2670 1.356 . S
C2673 C2667 1.363 . S
C2673 C2668 1.379 . S
C2673 N2671 1.356 . S
N2674 C2666 1.356 . S
N2674 H2680 0.984 . S
N2674 H2681 0.984 . S
N2675 C2668 1.356 . S
N2675 H2678 0.984 . S
N2675 H2679 0.985 . S
H2676 N2671 0.984 . S
H2677 N2671 0.985 . S
H2678 N2675 0.984 . S
H2679 N2675 0.985 . S
H2680 N2674 0.984 . S
H2681 N2674 0.984 . S
H2682 N2670 0.984 . S
H2683 N2670 0.985 . S
C2684 C2685 1.363 . S
C2684 C2690 1.379 . S
C2684 N2692 1.356 . S
C2685 C2684 1.363 . S
C2685 C2691 1.363 . S
C2686 C2687 1.363 . S
C2686 C2691 1.379 . S
C2686 N2693 1.356 . S
C2687 C2686 1.363 . S
C2687 C2690 1.363 . S
N2688 C2690 1.356 . S
N2688 H2700 0.984 . S
N2688 H2701 0.985 . S
N2689 C2691 1.356 . S
N2689 H2694 0.984 . S
N2689 H2695 0.985 . S
C2690 C2684 1.379 . S
C2690 C2687 1.363 . S
C2690 N2688 1.356 . S
C2691 C2685 1.363 . S
C2691 C2686 1.379 . S
C2691 N2689 1.356 . S
N2692 C2684 1.356 . S
N2692 H2698 0.984 . S
N2692 H2699 0.984 . S
N2693 C2686 1.356 . S
N2693 H2696 0.984 . S
N2693 H2697 0.985 . S
H2694 N2689 0.984 . S
H2695 N2689 0.985 . S
H2696 N2693 0.984 . S
H2697 N2693 0.985 . S
H2698 N2692 0.984 . S
H2699 N2692 0.984 . S
H2700 N2688 0.984 . S
H2701 N2688 0.985 . S
C2702 C2703 1.363 . S
C2702 C2708 1.379 . S
C2702 N2710 1.356 . S
C2703 C2702 1.363 . S
C2703 C2709 1.363 . S
C2704 C2705 1.363 . S
C2704 C2709 1.379 . S
C2704 N2711 1.356 . S
C2705 C2704 1.363 . S
C2705 C2708 1.363 . S
N2706 C2708 1.356 . S
N2706 H2718 0.984 . S
N2706 H2719 0.985 . S
N2707 C2709 1.356 . S
N2707 H2712 0.984 . S
N2707 H2713 0.985 . S
C2708 C2702 1.379 . S
C2708 C2705 1.363 . S
C2708 N2706 1.356 . S
C2709 C2703 1.363 . S
C2709 C2704 1.379 . S
C2709 N2707 1.356 . S
N2710 C2702 1.356 . S
N2710 H2716 0.984 . S
N2710 H2717 0.984 . S
N2711 C2704 1.356 . S
N2711 H2714 0.984 . S
N2711 H2715 0.985 . S
H2712 N2707 0.984 . S
H2713 N2707 0.985 . S
H2714 N2711 0.984 . S
H2715 N2711 0.985 . S
H2716 N2710 0.984 . S
H2717 N2710 0.984 . S
H2718 N2706 0.984 . S
H2719 N2706 0.985 . S
C2720 C2721 1.363 . S
C2720 C2726 1.379 . S
C2720 N2728 1.356 . S
C2721 C2720 1.363 . S
C2721 C2727 1.363 . S
C2722 C2723 1.363 . S
C2722 C2727 1.379 . S
C2722 N2729 1.356 . S
C2723 C2722 1.363 . S
C2723 C2726 1.363 . S
N2724 C2726 1.356 . S
N2724 H2736 0.984 . S
N2724 H2737 0.985 . S
N2725 C2727 1.356 . S
N2725 H2730 0.984 . S
N2725 H2731 0.985 . S
C2726 C2720 1.379 . S
C2726 C2723 1.363 . S
C2726 N2724 1.356 . S
C2727 C2721 1.363 . S
C2727 C2722 1.379 . S
C2727 N2725 1.356 . S
N2728 C2720 1.356 . S
N2728 H2734 0.984 . S
N2728 H2735 0.984 . S
N2729 C2722 1.356 . S
N2729 H2732 0.984 1_554 S
N2729 H2733 0.985 1_554 S
H2730 N2725 0.984 . S
H2731 N2725 0.985 . S
H2732 N2729 0.984 1_556 S
H2733 N2729 0.985 1_556 S
H2734 N2728 0.984 . S
H2735 N2728 0.984 . S
H2736 N2724 0.984 . S
H2737 N2724 0.985 . S
C2738 C2739 1.363 . S
C2738 C2744 1.379 . S
C2738 N2746 1.356 . S
C2739 C2738 1.363 . S
C2739 C2745 1.363 . S
C2740 C2741 1.363 . S
C2740 C2745 1.379 . S
C2740 N2747 1.356 . S
C2741 C2740 1.363 . S
C2741 C2744 1.363 . S
N2742 C2744 1.356 . S
N2742 H2754 0.984 . S
N2742 H2755 0.985 . S
N2743 C2745 1.356 . S
N2743 H2748 0.984 . S
N2743 H2749 0.985 . S
C2744 C2738 1.379 . S
C2744 C2741 1.363 . S
C2744 N2742 1.356 . S
C2745 C2739 1.363 . S
C2745 C2740 1.379 . S
C2745 N2743 1.356 . S
N2746 C2738 1.356 . S
N2746 H2752 0.984 . S
N2746 H2753 0.984 1_554 S
N2747 C2740 1.356 . S
N2747 H2750 0.984 . S
N2747 H2751 0.985 . S
H2748 N2743 0.984 . S
H2749 N2743 0.985 . S
H2750 N2747 0.984 . S
H2751 N2747 0.985 . S
H2752 N2746 0.984 . S
H2753 N2746 0.984 1_556 S
H2754 N2742 0.984 . S
H2755 N2742 0.985 . S
C2756 C2757 1.363 . S
C2756 C2762 1.379 . S
C2756 N2764 1.356 . S
C2757 C2756 1.363 . S
C2757 C2763 1.363 . S
C2758 C2759 1.363 . S
C2758 C2763 1.379 . S
C2758 N2765 1.356 . S
C2759 C2758 1.363 . S
C2759 C2762 1.363 . S
N2760 C2762 1.356 . S
N2760 H2772 0.984 . S
N2760 H2773 0.985 . S
N2761 C2763 1.356 . S
N2761 H2766 0.984 . S
N2761 H2767 0.985 . S
C2762 C2756 1.379 . S
C2762 C2759 1.363 . S
C2762 N2760 1.356 . S
C2763 C2757 1.363 . S
C2763 C2758 1.379 . S
C2763 N2761 1.356 . S
N2764 C2756 1.356 . S
N2764 H2770 0.984 1_556 S
N2764 H2771 0.984 1_556 S
N2765 C2758 1.356 . S
N2765 H2768 0.984 . S
N2765 H2769 0.985 . S
H2766 N2761 0.984 . S
H2767 N2761 0.985 . S
H2768 N2765 0.984 . S
H2769 N2765 0.985 . S
H2770 N2764 0.984 1_554 S
H2771 N2764 0.984 1_554 S
H2772 N2760 0.984 . S
H2773 N2760 0.985 . S
C2774 C2775 1.363 . S
C2774 C2780 1.379 . S
C2774 N2782 1.356 . S
C2775 C2774 1.363 . S
C2775 C2781 1.363 . S
C2776 C2777 1.363 . S
C2776 C2781 1.379 . S
C2776 N2783 1.356 . S
C2777 C2776 1.363 . S
C2777 C2780 1.363 . S
N2778 C2780 1.356 . S
N2778 H2790 0.984 . S
N2778 H2791 0.985 . S
N2779 C2781 1.356 . S
N2779 H2784 0.984 . S
N2779 H2785 0.985 . S
C2780 C2774 1.379 . S
C2780 C2777 1.363 . S
C2780 N2778 1.356 . S
C2781 C2775 1.363 . S
C2781 C2776 1.379 . S
C2781 N2779 1.356 . S
N2782 C2774 1.356 . S
N2782 H2788 0.984 . S
N2782 H2789 0.984 . S
N2783 C2776 1.356 . S
N2783 H2786 0.984 1_556 S
N2783 H2787 0.985 . S
H2784 N2779 0.984 . S
H2785 N2779 0.985 . S
H2786 N2783 0.984 1_554 S
H2787 N2783 0.985 . S
H2788 N2782 0.984 . S
H2789 N2782 0.984 . S
H2790 N2778 0.984 . S
H2791 N2778 0.985 . S
C2792 C2793 1.363 . S
C2792 C2798 1.379 . S
C2792 N2800 1.356 . S
C2793 C2792 1.363 . S
C2793 C2799 1.363 . S
C2794 C2795 1.363 . S
C2794 C2799 1.379 . S
C2794 N2801 1.356 . S
C2795 C2794 1.363 . S
C2795 C2798 1.363 . S
N2796 C2798 1.356 . S
N2796 H2808 0.984 . S
N2796 H2809 0.985 . S
N2797 C2799 1.356 . S
N2797 H2802 0.984 . S
N2797 H2803 0.985 . S
C2798 C2792 1.379 . S
C2798 C2795 1.363 . S
C2798 N2796 1.356 . S
C2799 C2793 1.363 . S
C2799 C2794 1.379 . S
C2799 N2797 1.356 . S
N2800 C2792 1.356 . S
N2800 H2806 0.984 . S
N2800 H2807 0.984 . S
N2801 C2794 1.356 . S
N2801 H2804 0.984 . S
N2801 H2805 0.985 . S
H2802 N2797 0.984 . S
H2803 N2797 0.985 . S
H2804 N2801 0.984 . S
H2805 N2801 0.985 . S
H2806 N2800 0.984 . S
H2807 N2800 0.984 . S
H2808 N2796 0.984 . S
H2809 N2796 0.985 . S
C2810 C2811 1.363 . S
C2810 C2816 1.379 . S
C2810 N2818 1.356 . S
C2811 C2810 1.363 . S
C2811 C2817 1.363 . S
C2812 C2813 1.363 . S
C2812 C2817 1.379 . S
C2812 N2819 1.356 . S
C2813 C2812 1.363 . S
C2813 C2816 1.363 . S
N2814 C2816 1.356 . S
N2814 H2826 0.984 . S
N2814 H2827 0.985 . S
N2815 C2817 1.356 . S
N2815 H2820 0.984 . S
N2815 H2821 0.985 . S
C2816 C2810 1.379 . S
C2816 C2813 1.363 . S
C2816 N2814 1.356 . S
C2817 C2811 1.363 . S
C2817 C2812 1.379 . S
C2817 N2815 1.356 . S
N2818 C2810 1.356 . S
N2818 H2824 0.984 . S
N2818 H2825 0.984 . S
N2819 C2812 1.356 . S
N2819 H2822 0.984 . S
N2819 H2823 0.985 . S
H2820 N2815 0.984 . S
H2821 N2815 0.985 . S
H2822 N2819 0.984 . S
H2823 N2819 0.985 . S
H2824 N2818 0.984 . S
H2825 N2818 0.984 . S
H2826 N2814 0.984 . S
H2827 N2814 0.985 . S
C2828 C2829 1.363 . S
C2828 C2834 1.379 . S
C2828 N2836 1.356 . S
C2829 C2828 1.363 . S
C2829 C2835 1.363 . S
C2830 C2831 1.363 . S
C2830 C2835 1.379 . S
C2830 N2837 1.356 . S
C2831 C2830 1.363 . S
C2831 C2834 1.363 . S
N2832 C2834 1.356 . S
N2832 H2844 0.984 . S
N2832 H2845 0.985 . S
N2833 C2835 1.356 . S
N2833 H2838 0.984 . S
N2833 H2839 0.985 . S
C2834 C2828 1.379 . S
C2834 C2831 1.363 . S
C2834 N2832 1.356 . S
C2835 C2829 1.363 . S
C2835 C2830 1.379 . S
C2835 N2833 1.356 . S
N2836 C2828 1.356 . S
N2836 H2842 0.984 . S
N2836 H2843 0.984 . S
N2837 C2830 1.356 . S
N2837 H2840 0.984 . S
N2837 H2841 0.985 . S
H2838 N2833 0.984 . S
H2839 N2833 0.985 . S
H2840 N2837 0.984 . S
H2841 N2837 0.985 . S
H2842 N2836 0.984 . S
H2843 N2836 0.984 . S
H2844 N2832 0.984 . S
H2845 N2832 0.985 . S
C2846 C2847 1.363 . S
C2846 C2852 1.379 . S
C2846 N2854 1.356 . S
C2847 C2846 1.363 . S
C2847 C2853 1.363 . S
C2848 C2849 1.363 . S
C2848 C2853 1.379 . S
C2848 N2855 1.356 . S
C2849 C2848 1.363 . S
C2849 C2852 1.363 . S
N2850 C2852 1.356 . S
N2850 H2862 0.984 . S
N2850 H2863 0.985 . S
N2851 C2853 1.356 . S
N2851 H2856 0.984 . S
N2851 H2857 0.985 . S
C2852 C2846 1.379 . S
C2852 C2849 1.363 . S
C2852 N2850 1.356 . S
C2853 C2847 1.363 . S
C2853 C2848 1.379 . S
C2853 N2851 1.356 . S
N2854 C2846 1.356 . S
N2854 H2860 0.984 . S
N2854 H2861 0.984 . S
N2855 C2848 1.356 . S
N2855 H2858 0.984 . S
N2855 H2859 0.985 . S
H2856 N2851 0.984 . S
H2857 N2851 0.985 . S
H2858 N2855 0.984 . S
H2859 N2855 0.985 . S
H2860 N2854 0.984 . S
H2861 N2854 0.984 . S
H2862 N2850 0.984 . S
H2863 N2850 0.985 . S
C2864 C2865 1.363 . S
C2864 C2870 1.379 . S
C2864 N2872 1.356 . S
C2865 C2864 1.363 . S
C2865 C2871 1.363 . S
C2866 C2867 1.363 . S
C2866 C2871 1.379 . S
C2866 N2873 1.356 . S
C2867 C2866 1.363 . S
C2867 C2870 1.363 . S
N2868 C2870 1.356 . S
N2868 H2880 0.984 . S
N2868 H2881 0.985 . S
N2869 C2871 1.356 . S
N2869 H2874 0.984 . S
N2869 H2875 0.985 . S
C2870 C2864 1.379 . S
C2870 C2867 1.363 . S
C2870 N2868 1.356 . S
C2871 C2865 1.363 . S
C2871 C2866 1.379 . S
C2871 N2869 1.356 . S
N2872 C2864 1.356 . S
N2872 H2878 0.984 . S
N2872 H2879 0.984 . S
N2873 C2866 1.356 . S
N2873 H2876 0.984 . S
N2873 H2877 0.985 . S
H2874 N2869 0.984 . S
H2875 N2869 0.985 . S
H2876 N2873 0.984 . S
H2877 N2873 0.985 . S
H2878 N2872 0.984 . S
H2879 N2872 0.984 . S
H2880 N2868 0.984 . S
H2881 N2868 0.985 . S
C2882 C2883 1.363 . S
C2882 C2888 1.379 . S
C2882 N2890 1.356 . S
C2883 C2882 1.363 . S
C2883 C2889 1.363 . S
C2884 C2885 1.363 . S
C2884 C2889 1.379 . S
C2884 N2891 1.356 . S
C2885 C2884 1.363 . S
C2885 C2888 1.363 . S
N2886 C2888 1.356 . S
N2886 H2898 0.984 . S
N2886 H2899 0.985 . S
N2887 C2889 1.356 . S
N2887 H2892 0.984 . S
N2887 H2893 0.985 . S
C2888 C2882 1.379 . S
C2888 C2885 1.363 . S
C2888 N2886 1.356 . S
C2889 C2883 1.363 . S
C2889 C2884 1.379 . S
C2889 N2887 1.356 . S
N2890 C2882 1.356 . S
N2890 H2896 0.984 . S
N2890 H2897 0.984 . S
N2891 C2884 1.356 . S
N2891 H2894 0.984 . S
N2891 H2895 0.985 . S
H2892 N2887 0.984 . S
H2893 N2887 0.985 . S
H2894 N2891 0.984 . S
H2895 N2891 0.985 . S
H2896 N2890 0.984 . S
H2897 N2890 0.984 . S
H2898 N2886 0.984 . S
H2899 N2886 0.985 . S
C2900 C2901 1.363 . S
C2900 C2906 1.379 . S
C2900 N2908 1.356 . S
C2901 C2900 1.363 . S
C2901 C2907 1.363 . S
C2902 C2903 1.363 . S
C2902 C2907 1.379 . S
C2902 N2909 1.356 . S
C2903 C2902 1.363 . S
C2903 C2906 1.363 . S
N2904 C2906 1.356 . S
N2904 H2916 0.984 . S
N2904 H2917 0.985 . S
N2905 C2907 1.356 . S
N2905 H2910 0.984 . S
N2905 H2911 0.985 . S
C2906 C2900 1.379 . S
C2906 C2903 1.363 . S
C2906 N2904 1.356 . S
C2907 C2901 1.363 . S
C2907 C2902 1.379 . S
C2907 N2905 1.356 . S
N2908 C2900 1.356 . S
N2908 H2914 0.984 . S
N2908 H2915 0.984 . S
N2909 C2902 1.356 . S
N2909 H2912 0.984 . S
N2909 H2913 0.985 . S
H2910 N2905 0.984 . S
H2911 N2905 0.985 . S
H2912 N2909 0.984 . S
H2913 N2909 0.985 . S
H2914 N2908 0.984 . S
H2915 N2908 0.984 . S
H2916 N2904 0.984 . S
H2917 N2904 0.985 . S
C2918 C2919 1.363 . S
C2918 C2924 1.379 . S
C2918 N2926 1.356 . S
C2919 C2918 1.363 . S
C2919 C2925 1.363 . S
C2920 C2921 1.363 . S
C2920 C2925 1.379 . S
C2920 N2927 1.356 . S
C2921 C2920 1.363 . S
C2921 C2924 1.363 . S
N2922 C2924 1.356 . S
N2922 H2934 0.984 . S
N2922 H2935 0.985 . S
N2923 C2925 1.356 . S
N2923 H2928 0.984 . S
N2923 H2929 0.985 . S
C2924 C2918 1.379 . S
C2924 C2921 1.363 . S
C2924 N2922 1.356 . S
C2925 C2919 1.363 . S
C2925 C2920 1.379 . S
C2925 N2923 1.356 . S
N2926 C2918 1.356 . S
N2926 H2932 0.984 . S
N2926 H2933 0.984 . S
N2927 C2920 1.356 . S
N2927 H2930 0.984 . S
N2927 H2931 0.985 . S
H2928 N2923 0.984 . S
H2929 N2923 0.985 . S
H2930 N2927 0.984 . S
H2931 N2927 0.985 . S
H2932 N2926 0.984 . S
H2933 N2926 0.984 . S
H2934 N2922 0.984 . S
H2935 N2922 0.985 . S
C2936 C2937 1.363 . S
C2936 C2942 1.379 . S
C2936 N2944 1.356 . S
C2937 C2936 1.363 . S
C2937 C2943 1.363 . S
C2938 C2939 1.363 . S
C2938 C2943 1.379 . S
C2938 N2945 1.356 . S
C2939 C2938 1.363 . S
C2939 C2942 1.363 . S
N2940 C2942 1.356 . S
N2940 H2952 0.984 1_554 S
N2940 H2953 0.985 1_554 S
N2941 C2943 1.356 . S
N2941 H2946 0.984 . S
N2941 H2947 0.985 . S
C2942 C2936 1.379 . S
C2942 C2939 1.363 . S
C2942 N2940 1.356 . S
C2943 C2937 1.363 . S
C2943 C2938 1.379 . S
C2943 N2941 1.356 . S
N2944 C2936 1.356 . S
N2944 H2950 0.984 . S
N2944 H2951 0.984 . S
N2945 C2938 1.356 . S
N2945 H2948 0.984 . S
N2945 H2949 0.985 . S
H2946 N2941 0.984 . S
H2947 N2941 0.985 . S
H2948 N2945 0.984 . S
H2949 N2945 0.985 . S
H2950 N2944 0.984 . S
H2951 N2944 0.984 . S
H2952 N2940 0.984 1_556 S
H2953 N2940 0.985 1_556 S
C2954 C2955 1.363 . S
C2954 C2960 1.379 . S
C2954 N2962 1.356 . S
C2955 C2954 1.363 . S
C2955 C2961 1.363 . S
C2956 C2957 1.363 . S
C2956 C2961 1.379 . S
C2956 N2963 1.356 . S
C2957 C2956 1.363 . S
C2957 C2960 1.363 . S
N2958 C2960 1.356 . S
N2958 H2970 0.984 1_554 S
N2958 H2971 0.985 1_554 S
N2959 C2961 1.356 . S
N2959 H2964 0.984 . S
N2959 H2965 0.985 . S
C2960 C2954 1.379 . S
C2960 C2957 1.363 . S
C2960 N2958 1.356 . S
C2961 C2955 1.363 . S
C2961 C2956 1.379 . S
C2961 N2959 1.356 . S
N2962 C2954 1.356 . S
N2962 H2968 0.984 . S
N2962 H2969 0.984 . S
N2963 C2956 1.356 . S
N2963 H2966 0.984 . S
N2963 H2967 0.985 . S
H2964 N2959 0.984 . S
H2965 N2959 0.985 . S
H2966 N2963 0.984 . S
H2967 N2963 0.985 . S
H2968 N2962 0.984 . S
H2969 N2962 0.984 . S
H2970 N2958 0.984 1_556 S
H2971 N2958 0.985 1_556 S
C2972 C2973 1.363 . S
C2972 C2978 1.379 . S
C2972 N2980 1.356 . S
C2973 C2972 1.363 . S
C2973 C2979 1.363 . S
C2974 C2975 1.363 . S
C2974 C2979 1.379 . S
C2974 N2981 1.356 . S
C2975 C2974 1.363 . S
C2975 C2978 1.363 . S
N2976 C2978 1.356 . S
N2976 H2988 0.984 1_556 S
N2976 H2989 0.985 1_556 S
N2977 C2979 1.356 . S
N2977 H2982 0.984 . S
N2977 H2983 0.985 . S
C2978 C2972 1.379 . S
C2978 C2975 1.363 . S
C2978 N2976 1.356 . S
C2979 C2973 1.363 . S
C2979 C2974 1.379 . S
C2979 N2977 1.356 . S
N2980 C2972 1.356 . S
N2980 H2986 0.984 . S
N2980 H2987 0.984 . S
N2981 C2974 1.356 . S
N2981 H2984 0.984 . S
N2981 H2985 0.985 . S
H2982 N2977 0.984 . S
H2983 N2977 0.985 . S
H2984 N2981 0.984 . S
H2985 N2981 0.985 . S
H2986 N2980 0.984 . S
H2987 N2980 0.984 . S
H2988 N2976 0.984 1_554 S
H2989 N2976 0.985 1_554 S
C2990 C2991 1.363 . S
C2990 C2996 1.379 . S
C2990 N2998 1.356 . S
C2991 C2990 1.363 . S
C2991 C2997 1.363 . S
C2992 C2993 1.363 . S
C2992 C2997 1.379 . S
C2992 N2999 1.356 . S
C2993 C2992 1.363 . S
C2993 C2996 1.363 . S
N2994 C2996 1.356 . S
N2994 H3006 0.984 . S
N2994 H3007 0.985 . S
N2995 C2997 1.356 . S
N2995 H3000 0.984 1_556 S
N2995 H3001 0.985 1_556 S
C2996 C2990 1.379 . S
C2996 C2993 1.363 . S
C2996 N2994 1.356 . S
C2997 C2991 1.363 . S
C2997 C2992 1.379 . S
C2997 N2995 1.356 . S
N2998 C2990 1.356 . S
N2998 H3004 0.984 . S
N2998 H3005 0.984 . S
N2999 C2992 1.356 . S
N2999 H3002 0.984 . S
N2999 H3003 0.985 . S
H3000 N2995 0.984 1_554 S
H3001 N2995 0.985 1_554 S
H3002 N2999 0.984 . S
H3003 N2999 0.985 . S
H3004 N2998 0.984 . S
H3005 N2998 0.984 . S
H3006 N2994 0.984 . S
H3007 N2994 0.985 . S
C1281 C1129 1.993 . S
C1283 C19 1.993 . S
C1299 C209 1.999 . S
C1301 C59 2.000 . S
C1317 C889 1.999 . S
C1319 C99 2.000 . S
C1335 C609 1.993 . S
C1337 C139 1.993 . S
C1353 C169 1.993 . S
C1355 C979 1.993 . S
C1371 C739 1.999 . S
C1373 C249 2.000 . S
C1389 C459 1.993 . S
C1391 C289 1.993 . S
C1407 C809 1.993 . S
C1409 C339 1.993 . S
C1425 C379 1.996 . S
C1427 C529 1.996 . S
C1443 C419 1.996 . S
C1445 C1209 1.996 . S
C1461 C659 1.993 . S
C1463 C489 1.993 . S
C1479 C569 1.996 . S
C1481 C1059 1.996 . S
C1497 C699 1.999 . S
C1499 C849 2.000 . S
C1515 C779 1.993 . S
C1517 C1249 1.993 . S
C1533 C1099 1.993 . S
C1535 C929 1.993 . S
C1551 C1169 1.996 . S
C1553 C1019 1.996 . S
C1569 C769 1.577 . S
C1571 C9 1.577 . S
C1587 C729 1.562 . S
C1589 C49 1.562 . S
C1605 C689 1.562 . S
C1607 C89 1.562 . S
C1623 C649 1.577 . S
C1625 C129 1.577 . S
C1641 C939 1.577 . S
C1643 C179 1.577 . S
C1659 C219 1.562 . S
C1661 C899 1.562 . S
C1677 C259 1.562 . S
C1679 C859 1.562 . S
C1695 C299 1.577 . S
C1697 C819 1.577 . S
C1713 C329 1.596 . S
C1715 C1089 1.596 . S
C1731 C369 1.569 . S
C1733 C1049 1.569 . S
C1749 C409 1.569 . S
C1751 C1009 1.569 . S
C1767 C969 1.596 . S
C1769 C449 1.596 . S
C1785 C499 1.596 . S
C1787 C1259 1.596 . S
C1803 C539 1.569 . S
C1805 C1219 1.569 . S
C1821 C579 1.569 . S
C1823 C1179 1.569 . S
C1839 C1139 1.596 . S
C1841 C619 1.596 . S
C1857 C5 1.571 . S
C1859 C15 1.571 . S
C1875 C45 1.536 . S
C1877 C55 1.536 . S
C1893 C95 1.536 . S
C1895 C85 1.536 . S
C1911 C135 1.571 . S
C1913 C125 1.571 . S
C1929 C165 1.571 . S
C1931 C175 1.571 . S
C1947 C205 1.536 . S
C1949 C215 1.536 . S
C1965 C245 1.536 . S
C1967 C255 1.536 . S
C1983 C295 1.571 . S
C1985 C285 1.571 . S
C2001 C325 1.593 . S
C2003 C335 1.593 . S
C2019 C375 1.558 . S
C2021 C365 1.558 . S
C2037 C415 1.558 . S
C2039 C405 1.558 . S
C2055 C455 1.593 . S
C2057 C445 1.593 . S
C2073 C485 1.593 . S
C2075 C495 1.593 . S
C2091 C535 1.558 . S
C2093 C525 1.558 . S
C2109 C565 1.558 . S
C2111 C575 1.558 . S
C2127 C615 1.593 . S
C2129 C605 1.593 . S
C2145 C645 1.571 . S
C2147 C655 1.571 . S
C2163 C695 1.536 . S
C2165 C685 1.536 . S
C2181 C735 1.536 . S
C2183 C725 1.536 . S
C2199 C775 1.571 . S
C2201 C765 1.571 . S
C2217 C815 1.571 . S
C2219 C805 1.571 . S
C2235 C845 1.536 . S
C2237 C855 1.536 . S
C2253 C895 1.536 . S
C2255 C885 1.536 . S
C2271 C935 1.571 . S
C2273 C925 1.571 . S
C2289 C965 1.593 . S
C2291 C975 1.593 . S
C2307 C1015 1.558 . S
C2309 C1005 1.558 . S
C2325 C1055 1.558 . S
C2327 C1045 1.558 . S
C2343 C1085 1.593 . S
C2345 C1095 1.593 . S
C2361 C1125 1.593 . S
C2363 C1135 1.593 . S
C2379 C1175 1.558 . S
C2381 C1165 1.558 . S
C2397 C1215 1.558 . S
C2399 C1205 1.558 . S
C2415 C1255 1.593 . S
C2417 C1245 1.593 . S
C2433 C418 2.342 . S
C2435 C18 2.346 . S
C2451 C458 2.284 . S
C2453 C58 2.276 . S
C2469 C98 2.278 1_556 S
C2471 C338 2.282 . S
C2487 C378 2.342 . S
C2489 C138 2.346 1_556 S
C2505 C168 2.346 . S
C2507 C568 2.342 . S
C2523 C208 2.278 . S
C2525 C608 2.282 . S
C2541 C248 2.278 1_554 S
C2543 C488 2.282 . S
C2559 C288 2.346 1_554 S
C2561 C528 2.342 . S
C2577 C1058 2.342 1_556 S
C2579 C658 2.346 . S
C2595 C698 2.278 . S
C2597 C1098 2.282 1_556 S
C2613 C978 2.284 . S
C2615 C738 2.276 . S
C2631 C778 2.346 . S
C2633 C1018 2.342 . S
C2649 C1208 2.342 1_554 S
C2651 C808 2.346 . S
C2667 C848 2.278 . S
C2669 C1248 2.282 1_554 S
C2685 C888 2.278 . S
C2687 C1128 2.282 . S
C2703 C1168 2.342 . S
C2705 C928 2.346 . S
C2721 C8 1.111 . S
C2723 C88 1.107 . S
C2739 C128 1.111 . S
C2741 C48 1.107 . S
C2757 C258 1.104 . S
C2759 C178 1.113 . S
C2775 C218 1.104 . S
C2777 C298 1.113 . S
C2793 C328 1.027 . S
C2795 C408 1.024 . S
C2811 C448 1.027 . S
C2813 C368 1.024 . S
C2829 C578 1.024 . S
C2831 C498 1.027 . S
C2847 C618 1.027 . S
C2849 C538 1.024 . S
C2865 C728 1.104 . S
C2867 C648 1.113 . S
C2883 C768 1.111 . S
C2885 C688 1.107 . S
C2901 C898 1.104 . S
C2903 C818 1.113 . S
C2919 C938 1.111 . S
C2921 C858 1.107 . S
C2937 C968 1.027 . S
C2939 C1048 1.024 . S
C2955 C1008 1.024 . S
C2957 C1088 1.027 . S
C2973 C1138 1.027 . S
C2975 C1218 1.024 . S
C2991 C1258 1.027 . S
C2993 C1178 1.024 . S
