# Generated by pormake.
# Topology uog, (4)-cn, num edge types: 1
# Building blocks:
#     Node 0, Type 0, BuildingBlock: QUQFOY_clean_sbu_1, # of connection points: 4
#     Node 1, Type 0, BuildingBlock: QUQFOY_clean_sbu_1, # of connection points: 4
#     Node 2, Type 0, BuildingBlock: QUQFOY_clean_sbu_1, # of connection points: 4
#     Node 3, Type 0, BuildingBlock: QUQFOY_clean_sbu_1, # of connection points: 4
#     Node 4, Type 0, BuildingBlock: QUQFOY_clean_sbu_1, # of connection points: 4
#     Node 5, Type 0, BuildingBlock: QUQFOY_clean_sbu_1, # of connection points: 4
#     Edge 6, Type (0, 0), BuildingBlock: EZIPEK_clean_linker_0, # of connection points: 2
#     Edge 7, Type (0, 0), BuildingBlock: EZIPEK_clean_linker_0, # of connection points: 2
#     Edge 8, Type (0, 0), BuildingBlock: EZIPEK_clean_linker_0, # of connection points: 2
#     Edge 9, Type (0, 0), BuildingBlock: EZIPEK_clean_linker_0, # of connection points: 2
#     Edge 10, Type (0, 0), BuildingBlock: EZIPEK_clean_linker_0, # of connection points: 2
#     Edge 11, Type (0, 0), BuildingBlock: EZIPEK_clean_linker_0, # of connection points: 2
#     Edge 12, Type (0, 0), BuildingBlock: EZIPEK_clean_linker_0, # of connection points: 2
#     Edge 13, Type (0, 0), BuildingBlock: EZIPEK_clean_linker_0, # of connection points: 2
#     Edge 14, Type (0, 0), BuildingBlock: EZIPEK_clean_linker_0, # of connection points: 2
#     Edge 15, Type (0, 0), BuildingBlock: EZIPEK_clean_linker_0, # of connection points: 2
#     Edge 16, Type (0, 0), BuildingBlock: EZIPEK_clean_linker_0, # of connection points: 2
#     Edge 17, Type (0, 0), BuildingBlock: EZIPEK_clean_linker_0, # of connection points: 2
# Relax obj value: 0.102
# Max RMSD: 0.153
# Mean RMSD: 0.153
data_MOF--net-uog--node1-QUQFOY_clean_sbu_1--edge1-EZIPEK_clean_linker_0
_symmetry_space_group_name_H-M    P1
_symmetry_Int_Tables_number       1
_symmetry_cell_setting            triclinic
loop_
_symmetry_equiv_pos_as_xyz
'x, y, z'
_cell_length_a     21.465866
_cell_length_b     21.514332
_cell_length_c     32.162887
_cell_angle_alpha  89.470131
_cell_angle_beta   90.453522
_cell_angle_gamma 120.19675
loop_
_atom_site_label
_atom_site_type_symbol
_atom_site_fract_x
_atom_site_fract_y
_atom_site_fract_z
_atom_type_partial_charge
O0 O 0.62432 0.41535 0.20417 0.0
Cd1 Cd 0.67096 0.35365 0.21018 0.0
Cd2 Cd 0.54977 0.25642 0.17871 0.0
O3 O 0.51303 0.32311 0.20216 0.0
O4 O 0.73204 0.38543 0.26213 0.0
O5 O 0.62784 0.2834 0.25708 0.0
C6 C 0.67997 0.32929 0.27999 0.0
C7 C 0.51703 0.13521 0.18746 0.0
C8 C 0.55684 0.3908 0.20474 0.0
C9 C 0.6714 0.32454 0.12101 0.0
O10 O 0.60364 0.29579 0.12454 0.0
O11 O 0.71185 0.3422 0.15329 0.0
O12 O 0.47367 0.1525 0.16947 0.0
O13 O 0.57517 0.18604 0.2038 0.0
O14 O 0.20245 0.65891 0.50153 0.0
Cd15 Cd 0.30226 0.67331 0.5004 0.0
Cd16 Cd 0.25846 0.54591 0.48831 0.0
O17 O 0.17059 0.54685 0.51886 0.0
O18 O 0.37263 0.73658 0.54497 0.0
O19 O 0.29909 0.62088 0.5536 0.0
C20 C 0.34514 0.6813 0.56968 0.0
C21 C 0.36301 0.53829 0.50444 0.0
C22 C 0.15535 0.59717 0.51474 0.0
C23 C 0.2965 0.61862 0.41292 0.0
O24 O 0.25066 0.55719 0.42694 0.0
O25 O 0.33387 0.67045 0.43801 0.0
O26 O 0.29903 0.4819 0.5054 0.0
O27 O 0.36711 0.59926 0.49755 0.0
O28 O 0.62104 0.19949 0.86756 0.0
Cd29 Cd 0.67558 0.30852 0.87487 0.0
Cd30 Cd 0.77583 0.29581 0.83756 0.0
O31 O 0.71707 0.18883 0.85774 0.0
O32 O 0.63801 0.32911 0.92685 0.0
O33 O 0.74668 0.34153 0.9219 0.0
C34 C 0.69755 0.34177 0.94455 0.0
C35 C 0.89688 0.385 0.84499 0.0
C36 C 0.64943 0.16043 0.86398 0.0
C37 C 0.69434 0.34741 0.78672 0.0
O38 O 0.72931 0.31434 0.7871 0.0
O39 O 0.67493 0.36285 0.82068 0.0
O40 O 0.87845 0.33081 0.82074 0.0
O41 O 0.84777 0.38514 0.86771 0.0
O42 O 0.41272 0.5786 0.16845 0.0
Cd43 Cd 0.36031 0.63449 0.16766 0.0
Cd44 Cd 0.48505 0.74338 0.16046 0.0
O45 O 0.50978 0.67331 0.19377 0.0
O46 O 0.27722 0.58931 0.20771 0.0
O47 O 0.383 0.68609 0.22147 0.0
C48 C 0.32086 0.63654 0.23416 0.0
C49 C 0.49342 0.8544 0.1762 0.0
C50 C 0.47364 0.60577 0.18631 0.0
C51 C 0.40454 0.69015 0.08349 0.0
O52 O 0.46716 0.71657 0.09919 0.0
O53 O 0.34979 0.66648 0.10737 0.0
O54 O 0.55047 0.85107 0.16763 0.0
O55 O 0.43271 0.79516 0.17784 0.0
O56 O 0.82489 0.44681 0.53752 0.0
Cd57 Cd 0.71617 0.38263 0.54347 0.0
Cd58 Cd 0.71783 0.49219 0.50685 0.0
O59 O 0.82332 0.5482 0.53014 0.0
O60 O 0.69789 0.32556 0.59626 0.0
O61 O 0.67366 0.41374 0.58818 0.0
C62 C 0.67867 0.36826 0.6123 0.0
C63 C 0.62301 0.51602 0.51252 0.0
C64 C 0.85813 0.51488 0.5351 0.0
C65 C 0.68226 0.36358 0.45517 0.0
O66 O 0.70799 0.4311 0.45614 0.0
O67 O 0.66844 0.32707 0.48878 0.0
O68 O 0.67786 0.55557 0.48916 0.0
O69 O 0.62438 0.4667 0.53483 0.0
O70 O 0.46463 0.82523 0.83355 0.0
Cd71 Cd 0.40773 0.71647 0.83538 0.0
Cd72 Cd 0.299 0.73286 0.81943 0.0
O73 O 0.36778 0.83171 0.84893 0.0
O74 O 0.44793 0.68185 0.88072 0.0
O75 O 0.34779 0.68742 0.88626 0.0
C76 C 0.39661 0.67791 0.90359 0.0
C77 C 0.18089 0.64036 0.83425 0.0
C78 C 0.43627 0.86135 0.8455 0.0
C79 C 0.36076 0.69487 0.74905 0.0
O80 O 0.32978 0.72911 0.76008 0.0
O81 O 0.38675 0.67068 0.77635 0.0
O82 O 0.19282 0.70123 0.819 0.0
O83 O 0.23567 0.63366 0.84347 0.0
C84 C 0.51661 0.02866 0.22182 0.0
C85 C 0.50513 0.06062 0.18579 0.0
C86 C 0.47402 0.9516 0.14639 0.0
C87 C 0.49581 0.92444 0.1804 0.0
N88 N 0.54375 0.93953 0.24986 0.0
N89 N 0.49128 0.05829 0.11086 0.0
C90 C 0.51915 0.96387 0.21794 0.0
C91 C 0.48842 0.02359 0.14726 0.0
N92 N 0.5221 0.05852 0.25996 0.0
N93 N 0.43881 0.90862 0.11324 0.0
H94 H 0.50658 0.11249 0.10912 0.0
H95 H 0.48684 0.03545 0.08176 0.0
H96 H 0.4255 0.855 0.1118 0.0
H97 H 0.41594 0.92394 0.08946 0.0
H98 H 0.52394 0.03429 0.28776 0.0
H99 H 0.51737 0.10399 0.26419 0.0
H100 H 0.56881 0.9697 0.27628 0.0
H101 H 0.5435 0.89096 0.2486 0.0
C102 C 0.4343 0.47856 0.48464 0.0
C103 C 0.43027 0.5331 0.50723 0.0
C104 C 0.55717 0.58194 0.52914 0.0
C105 C 0.55715 0.52231 0.51096 0.0
N106 N 0.49307 0.40866 0.47535 0.0
N107 N 0.48835 0.63432 0.5544 0.0
C108 C 0.49466 0.46876 0.49029 0.0
C109 C 0.49201 0.58444 0.53021 0.0
N110 N 0.38369 0.43987 0.45496 0.0
N111 N 0.61987 0.63685 0.54509 0.0
H112 H 0.44427 0.64165 0.55505 0.0
H113 H 0.52742 0.66565 0.57628 0.0
H114 H 0.66755 0.6352 0.5469 0.0
H115 H 0.62621 0.68622 0.55379 0.0
H116 H 0.3883 0.40515 0.43451 0.0
H117 H 0.34156 0.44853 0.44695 0.0
H118 H 0.44605 0.36376 0.46485 0.0
H119 H 0.53753 0.40133 0.47601 0.0
C120 C 0.99187 0.49055 0.80505 0.0
C121 C 0.96986 0.45007 0.84263 0.0
C122 C 0.0817 0.54096 0.8765 0.0
C123 C 0.10673 0.57715 0.83773 0.0
N124 N 0.09138 0.57728 0.76319 0.0
N125 N 0.99658 0.43152 0.91295 0.0
C126 C 0.06332 0.54963 0.80148 0.0
C127 C 1.01551 0.47396 0.87813 0.0
N128 N 0.94364 0.47455 0.77318 0.0
N129 N 0.12014 0.57181 0.91195 0.0
H130 H 0.94858 0.38237 0.91512 0.0
H131 H 0.03075 0.44195 0.93835 0.0
H132 H 0.16817 0.62113 0.91196 0.0
H133 H 0.10156 0.55195 0.94169 0.0
H134 H 0.95438 0.50731 0.74704 0.0
H135 H 0.89036 0.43247 0.77449 0.0
H136 H 0.06486 0.5538 0.73546 0.0
H137 H 0.14393 0.61943 0.75873 0.0
C138 C 0.05102 0.56715 0.56205 0.0
C139 C 0.08101 0.58258 0.52158 0.0
C140 C 0.97164 0.57746 0.49381 0.0
C141 C 0.93794 0.55235 0.53302 0.0
N142 N 0.9435 0.52066 0.60445 0.0
N143 N 0.06758 0.59384 0.44775 0.0
C144 C 0.97734 0.54694 0.56724 0.0
C145 C 0.04108 0.58639 0.4872 0.0
N146 N 0.0935 0.57359 0.59552 0.0
N147 N 0.93684 0.59147 0.46253 0.0
H148 H 0.11748 0.59895 0.44125 0.0
H149 H 0.03762 0.58838 0.42102 0.0
H150 H 0.88489 0.58311 0.46531 0.0
H151 H 0.96174 0.61746 0.43492 0.0
H152 H 0.07716 0.57022 0.62625 0.0
H153 H 0.14752 0.58797 0.59267 0.0
H154 H 0.96583 0.50671 0.62912 0.0
H155 H 0.89118 0.50984 0.60996 0.0
C156 C 0.51419 0.96647 0.89091 0.0
C157 C 0.4845 0.93961 0.8511 0.0
C158 C 0.56731 0.0567 0.81935 0.0
C159 C 0.59997 0.08221 0.85885 0.0
N160 N 0.61301 0.06019 0.93087 0.0
N161 N 0.48317 0.95585 0.777 0.0
C162 C 0.57572 0.03669 0.89432 0.0
C163 C 0.51114 0.98399 0.81519 0.0
N164 N 0.4826 0.92503 0.92536 0.0
N165 N 0.58909 0.10279 0.78601 0.0
H166 H 0.43782 0.90498 0.77328 0.0
H167 H 0.5058 0.98137 0.74893 0.0
H168 H 0.63306 0.15503 0.78719 0.0
H169 H 0.56228 0.09079 0.75756 0.0
H170 H 0.49733 0.94315 0.9557 0.0
H171 H 0.43722 0.87372 0.92356 0.0
H172 H 0.60214 0.02816 0.9573 0.0
H173 H 0.6595 0.1105 0.93353 0.0
C174 C 0.53066 0.53908 0.15813 0.0
C175 C 0.50444 0.55855 0.19307 0.0
C176 C 0.50223 0.46069 0.23415 0.0
C177 C 0.53173 0.44333 0.19988 0.0
N178 N 0.57943 0.46826 0.13006 0.0
N179 N 0.47576 0.54714 0.2658 0.0
C180 C 0.54761 0.48337 0.16211 0.0
C181 C 0.49351 0.52212 0.23162 0.0
N182 N 0.53715 0.57262 0.1207 0.0
N183 N 0.48113 0.41746 0.26863 0.0
H184 H 0.46981 0.59238 0.26463 0.0
H185 H 0.4727 0.52721 0.29577 0.0
H186 H 0.48574 0.37159 0.27082 0.0
H187 H 0.45362 0.42313 0.29345 0.0
H188 H 0.54653 0.55507 0.09265 0.0
H189 H 0.53001 0.61693 0.11725 0.0
H190 H 0.60161 0.50122 0.10409 0.0
H191 H 0.58649 0.4237 0.12998 0.0
C192 C 0.6784 0.27399 1.01121 0.0
C193 C 0.70316 0.341 0.99052 0.0
C194 C 0.72581 0.40188 0.05775 0.0
C195 C 0.70002 0.33464 0.07824 0.0
N196 N 0.66883 0.21081 0.07601 0.0
N197 N 0.76467 0.47018 0.99303 0.0
C198 C 0.68233 0.27211 0.05528 0.0
C199 C 0.73185 0.40561 1.01351 0.0
N200 N 0.64799 0.21173 0.98879 0.0
N201 N 0.74055 0.46116 0.08044 0.0
H202 H 0.76846 0.47409 0.96067 0.0
H203 H 0.79264 0.51956 1.00798 0.0
H204 H 0.73916 0.4605 0.11288 0.0
H205 H 0.75099 0.50984 0.06729 0.0
H206 H 0.62117 0.16065 1.00218 0.0
H207 H 0.6451 0.2108 0.95642 0.0
H208 H 0.66146 0.16462 0.06137 0.0
H209 H 0.67165 0.20859 0.10837 0.0
C210 C 0.31597 0.57632 0.30156 0.0
C211 C 0.30678 0.62856 0.27939 0.0
C212 C 0.29092 0.67574 0.34522 0.0
C213 C 0.3066 0.62768 0.36729 0.0
N214 N 0.34953 0.54357 0.36672 0.0
N215 N 0.29546 0.73445 0.27956 0.0
C216 C 0.32321 0.58093 0.34549 0.0
C217 C 0.29745 0.68041 0.3011 0.0
N218 N 0.31825 0.52239 0.28071 0.0
N219 N 0.26647 0.71431 0.3661 0.0
H220 H 0.29592 0.73708 0.24714 0.0
H221 H 0.29758 0.77874 0.29382 0.0
H222 H 0.26066 0.71225 0.39832 0.0
H223 H 0.2466 0.74406 0.35128 0.0
H224 H 0.31647 0.4783 0.29556 0.0
H225 H 0.31659 0.51849 0.24842 0.0
H226 H 0.3697 0.51426 0.35226 0.0
H227 H 0.35843 0.54808 0.39876 0.0
C228 C 0.61897 0.30255 0.7227 0.0
C229 C 0.67276 0.36162 0.7455 0.0
C230 C 0.7204 0.43105 0.68125 0.0
C231 C 0.66994 0.3699 0.65802 0.0
N232 N 0.56043 0.25531 0.65602 0.0
N233 N 0.761 0.48697 0.74911 0.0
C234 C 0.61552 0.30808 0.67867 0.0
C235 C 0.71852 0.42781 0.72551 0.0
N236 N 0.57328 0.24029 0.74332 0.0
N237 N 0.77322 0.49027 0.66113 0.0
H238 H 0.76046 0.48497 0.78156 0.0
H239 H 0.79155 0.53878 0.73709 0.0
H240 H 0.77626 0.49583 0.62891 0.0
H241 H 0.81681 0.53268 0.67611 0.0
H242 H 0.53814 0.19208 0.72871 0.0
H243 H 0.57206 0.23665 0.77574 0.0
H244 H 0.51576 0.21109 0.66906 0.0
H245 H 0.55662 0.25875 0.6238 0.0
C246 C 0.34685 0.61849 0.97276 0.0
C247 C 0.40038 0.67725 0.94955 0.0
C248 C 0.44559 0.74773 1.01339 0.0
C249 C 0.39763 0.68639 0.03733 0.0
N250 N 0.31237 0.55847 0.03967 0.0
N251 N 0.50743 0.79514 0.94825 0.0
C252 C 0.35039 0.6204 0.01704 0.0
C253 C 0.45207 0.74078 0.97006 0.0
N254 N 0.29259 0.56082 0.95257 0.0
N255 N 0.48267 0.81379 0.0317 0.0
H256 H 0.51228 0.79544 0.91605 0.0
H257 H 0.55166 0.83822 0.96247 0.0
H258 H 0.4788 0.82193 0.06318 0.0
H259 H 0.5116 0.86168 1.01507 0.0
H260 H 0.2473 0.52049 0.96769 0.0
H261 H 0.29056 0.55575 0.92028 0.0
H262 H 0.28324 0.50784 0.02618 0.0
H263 H 0.31525 0.55627 0.07195 0.0
C264 C 0.73439 0.33592 0.39366 0.0
C265 C 0.67328 0.33064 0.41377 0.0
C266 C 0.61363 0.31692 0.34675 0.0
C267 C 0.67494 0.32254 0.32616 0.0
N268 N 0.78531 0.31929 0.33037 0.0
N269 N 0.54832 0.29588 0.41155 0.0
C270 C 0.73275 0.32619 0.3498 0.0
C271 C 0.61047 0.31354 0.39087 0.0
N272 N 0.79504 0.35341 0.41636 0.0
N273 N 0.56123 0.32115 0.32461 0.0
H274 H 0.54546 0.29361 0.44397 0.0
H275 H 0.4986 0.27653 0.39684 0.0
H276 H 0.56244 0.32758 0.29248 0.0
H277 H 0.51987 0.32547 0.33842 0.0
H278 H 0.84447 0.36708 0.40313 0.0
H279 H 0.79643 0.35723 0.44873 0.0
H280 H 0.82554 0.31511 0.34621 0.0
H281 H 0.78482 0.31118 0.2984 0.0
C282 C 0.34361 0.62433 0.68328 0.0
C283 C 0.37171 0.69082 0.70389 0.0
C284 C 0.38301 0.7516 0.63758 0.0
C285 C 0.36093 0.6863 0.61563 0.0
N286 N 0.3412 0.56418 0.62011 0.0
N287 N 0.44307 0.8198 0.69907 0.0
C288 C 0.34793 0.62377 0.63913 0.0
C289 C 0.40043 0.75509 0.68034 0.0
N290 N 0.30969 0.56137 0.70532 0.0
N291 N 0.38055 0.80821 0.6197 0.0
H292 H 0.45842 0.82361 0.73025 0.0
H293 H 0.4696 0.86806 0.68243 0.0
H294 H 0.35697 0.80604 0.59101 0.0
H295 H 0.39164 0.85409 0.6363 0.0
H296 H 0.28041 0.51127 0.69118 0.0
H297 H 0.3058 0.55942 0.73764 0.0
H298 H 0.33883 0.52114 0.63663 0.0
H299 H 0.34636 0.56024 0.58837 0.0
loop_
_geom_bond_atom_site_label_1
_geom_bond_atom_site_label_2
_geom_bond_distance
_geom_bond_site_symmetry_2
_ccdc_geom_bond_type
O0 Cd1 2.223 . S
O0 C8 1.315 . S
Cd1 O0 2.223 . S
Cd1 O4 2.297 . S
Cd1 O5 2.439 . S
Cd1 O11 2.240 . S
Cd2 O3 2.240 . S
Cd2 O10 2.223 . S
Cd2 O12 2.297 . S
Cd2 O13 2.439 . S
O3 Cd2 2.240 . S
O3 C8 1.279 . S
O4 Cd1 2.297 . S
O4 C6 1.247 . S
O5 Cd1 2.439 . S
O5 C6 1.208 . S
C6 O4 1.247 . S
C6 O5 1.208 . S
C7 O12 1.247 . S
C7 O13 1.208 . S
C8 O0 1.315 . S
C8 O3 1.279 . S
C9 O10 1.315 . S
C9 O11 1.279 . S
O10 Cd2 2.223 . S
O10 C9 1.315 . S
O11 Cd1 2.240 . S
O11 C9 1.279 . S
O12 Cd2 2.297 . S
O12 C7 1.247 . S
O13 Cd2 2.439 . S
O13 C7 1.208 . S
O14 Cd15 2.223 . S
O14 C22 1.315 . S
Cd15 O14 2.223 . S
Cd15 O18 2.297 . S
Cd15 O19 2.439 . S
Cd15 O25 2.240 . S
Cd16 O17 2.240 . S
Cd16 O24 2.223 . S
Cd16 O26 2.297 . S
Cd16 O27 2.439 . S
O17 Cd16 2.240 . S
O17 C22 1.279 . S
O18 Cd15 2.297 . S
O18 C20 1.247 . S
O19 Cd15 2.439 . S
O19 C20 1.208 . S
C20 O18 1.247 . S
C20 O19 1.208 . S
C21 O26 1.247 . S
C21 O27 1.208 . S
C22 O14 1.315 . S
C22 O17 1.279 . S
C23 O24 1.315 . S
C23 O25 1.279 . S
O24 Cd16 2.223 . S
O24 C23 1.315 . S
O25 Cd15 2.240 . S
O25 C23 1.279 . S
O26 Cd16 2.297 . S
O26 C21 1.247 . S
O27 Cd16 2.439 . S
O27 C21 1.208 . S
O28 Cd29 2.223 . S
O28 C36 1.315 . S
Cd29 O28 2.223 . S
Cd29 O32 2.297 . S
Cd29 O33 2.439 . S
Cd29 O39 2.240 . S
Cd30 O31 2.240 . S
Cd30 O38 2.223 . S
Cd30 O40 2.297 . S
Cd30 O41 2.439 . S
O31 Cd30 2.240 . S
O31 C36 1.279 . S
O32 Cd29 2.297 . S
O32 C34 1.247 . S
O33 Cd29 2.439 . S
O33 C34 1.208 . S
C34 O32 1.247 . S
C34 O33 1.208 . S
C35 O40 1.247 . S
C35 O41 1.208 . S
C36 O28 1.315 . S
C36 O31 1.279 . S
C37 O38 1.315 . S
C37 O39 1.279 . S
O38 Cd30 2.223 . S
O38 C37 1.315 . S
O39 Cd29 2.240 . S
O39 C37 1.279 . S
O40 Cd30 2.297 . S
O40 C35 1.247 . S
O41 Cd30 2.439 . S
O41 C35 1.208 . S
O42 Cd43 2.223 . S
O42 C50 1.315 . S
Cd43 O42 2.223 . S
Cd43 O46 2.297 . S
Cd43 O47 2.439 . S
Cd43 O53 2.240 . S
Cd44 O45 2.240 . S
Cd44 O52 2.223 . S
Cd44 O54 2.297 . S
Cd44 O55 2.439 . S
O45 Cd44 2.240 . S
O45 C50 1.279 . S
O46 Cd43 2.297 . S
O46 C48 1.247 . S
O47 Cd43 2.439 . S
O47 C48 1.208 . S
C48 O46 1.247 . S
C48 O47 1.208 . S
C49 O54 1.247 . S
C49 O55 1.208 . S
C50 O42 1.315 . S
C50 O45 1.279 . S
C51 O52 1.315 . S
C51 O53 1.279 . S
O52 Cd44 2.223 . S
O52 C51 1.315 . S
O53 Cd43 2.240 . S
O53 C51 1.279 . S
O54 Cd44 2.297 . S
O54 C49 1.247 . S
O55 Cd44 2.439 . S
O55 C49 1.208 . S
O56 Cd57 2.223 . S
O56 C64 1.315 . S
Cd57 O56 2.223 . S
Cd57 O60 2.297 . S
Cd57 O61 2.439 . S
Cd57 O67 2.240 . S
Cd58 O59 2.240 . S
Cd58 O66 2.223 . S
Cd58 O68 2.297 . S
Cd58 O69 2.439 . S
O59 Cd58 2.240 . S
O59 C64 1.279 . S
O60 Cd57 2.297 . S
O60 C62 1.247 . S
O61 Cd57 2.439 . S
O61 C62 1.208 . S
C62 O60 1.247 . S
C62 O61 1.208 . S
C63 O68 1.247 . S
C63 O69 1.208 . S
C64 O56 1.315 . S
C64 O59 1.279 . S
C65 O66 1.315 . S
C65 O67 1.279 . S
O66 Cd58 2.223 . S
O66 C65 1.315 . S
O67 Cd57 2.240 . S
O67 C65 1.279 . S
O68 Cd58 2.297 . S
O68 C63 1.247 . S
O69 Cd58 2.439 . S
O69 C63 1.208 . S
O70 Cd71 2.223 . S
O70 C78 1.315 . S
Cd71 O70 2.223 . S
Cd71 O74 2.297 . S
Cd71 O75 2.439 . S
Cd71 O81 2.240 . S
Cd72 O73 2.240 . S
Cd72 O80 2.223 . S
Cd72 O82 2.297 . S
Cd72 O83 2.439 . S
O73 Cd72 2.240 . S
O73 C78 1.279 . S
O74 Cd71 2.297 . S
O74 C76 1.247 . S
O75 Cd71 2.439 . S
O75 C76 1.208 . S
C76 O74 1.247 . S
C76 O75 1.208 . S
C77 O82 1.247 . S
C77 O83 1.208 . S
C78 O70 1.315 . S
C78 O73 1.279 . S
C79 O80 1.315 . S
C79 O81 1.279 . S
O80 Cd72 2.223 . S
O80 C79 1.315 . S
O81 Cd71 2.240 . S
O81 C79 1.279 . S
O82 Cd72 2.297 . S
O82 C77 1.247 . S
O83 Cd72 2.439 . S
O83 C77 1.208 . S
C84 C85 1.363 . S
C84 C90 1.379 1_545 S
C84 N92 1.356 . S
C85 C84 1.363 . S
C85 C91 1.363 . S
C86 C87 1.363 . S
C86 C91 1.379 1_565 S
C86 N93 1.356 . S
C87 C86 1.363 . S
C87 C90 1.363 . S
N88 C90 1.356 . S
N88 H100 0.984 . S
N88 H101 0.985 . S
N89 C91 1.356 . S
N89 H94 0.984 . S
N89 H95 0.985 . S
C90 C84 1.379 1_565 S
C90 C87 1.363 . S
C90 N88 1.356 . S
C91 C85 1.363 . S
C91 C86 1.379 1_545 S
C91 N89 1.356 . S
N92 C84 1.356 . S
N92 H98 0.984 . S
N92 H99 0.984 . S
N93 C86 1.356 . S
N93 H96 0.984 . S
N93 H97 0.985 . S
H94 N89 0.984 . S
H95 N89 0.985 . S
H96 N93 0.984 . S
H97 N93 0.985 . S
H98 N92 0.984 . S
H99 N92 0.984 . S
H100 N88 0.984 . S
H101 N88 0.985 . S
C102 C103 1.363 . S
C102 C108 1.379 . S
C102 N110 1.356 . S
C103 C102 1.363 . S
C103 C109 1.363 . S
C104 C105 1.363 . S
C104 C109 1.379 . S
C104 N111 1.356 . S
C105 C104 1.363 . S
C105 C108 1.363 . S
N106 C108 1.356 . S
N106 H118 0.984 . S
N106 H119 0.985 . S
N107 C109 1.356 . S
N107 H112 0.984 . S
N107 H113 0.985 . S
C108 C102 1.379 . S
C108 C105 1.363 . S
C108 N106 1.356 . S
C109 C103 1.363 . S
C109 C104 1.379 . S
C109 N107 1.356 . S
N110 C102 1.356 . S
N110 H116 0.984 . S
N110 H117 0.984 . S
N111 C104 1.356 . S
N111 H114 0.984 . S
N111 H115 0.985 . S
H112 N107 0.984 . S
H113 N107 0.985 . S
H114 N111 0.984 . S
H115 N111 0.985 . S
H116 N110 0.984 . S
H117 N110 0.984 . S
H118 N106 0.984 . S
H119 N106 0.985 . S
C120 C121 1.363 . S
C120 C126 1.379 1_655 S
C120 N128 1.356 . S
C121 C120 1.363 . S
C121 C127 1.363 . S
C122 C123 1.363 . S
C122 C127 1.379 1_455 S
C122 N129 1.356 . S
C123 C122 1.363 . S
C123 C126 1.363 . S
N124 C126 1.356 . S
N124 H136 0.984 . S
N124 H137 0.985 . S
N125 C127 1.356 . S
N125 H130 0.984 . S
N125 H131 0.985 . S
C126 C120 1.379 1_455 S
C126 C123 1.363 . S
C126 N124 1.356 . S
C127 C121 1.363 . S
C127 C122 1.379 1_655 S
C127 N125 1.356 . S
N128 C120 1.356 . S
N128 H134 0.984 . S
N128 H135 0.984 . S
N129 C122 1.356 . S
N129 H132 0.984 . S
N129 H133 0.985 . S
H130 N125 0.984 . S
H131 N125 0.985 . S
H132 N129 0.984 . S
H133 N129 0.985 . S
H134 N128 0.984 . S
H135 N128 0.984 . S
H136 N124 0.984 . S
H137 N124 0.985 . S
C138 C139 1.363 . S
C138 C144 1.379 1_455 S
C138 N146 1.356 . S
C139 C138 1.363 . S
C139 C145 1.363 . S
C140 C141 1.363 . S
C140 C145 1.379 1_655 S
C140 N147 1.356 . S
C141 C140 1.363 . S
C141 C144 1.363 . S
N142 C144 1.356 . S
N142 H154 0.984 . S
N142 H155 0.985 . S
N143 C145 1.356 . S
N143 H148 0.984 . S
N143 H149 0.985 . S
C144 C138 1.379 1_655 S
C144 C141 1.363 . S
C144 N142 1.356 . S
C145 C139 1.363 . S
C145 C140 1.379 1_455 S
C145 N143 1.356 . S
N146 C138 1.356 . S
N146 H152 0.984 . S
N146 H153 0.984 . S
N147 C140 1.356 . S
N147 H150 0.984 . S
N147 H151 0.985 . S
H148 N143 0.984 . S
H149 N143 0.985 . S
H150 N147 0.984 . S
H151 N147 0.985 . S
H152 N146 0.984 . S
H153 N146 0.984 . S
H154 N142 0.984 . S
H155 N142 0.985 . S
C156 C157 1.363 . S
C156 C162 1.379 1_565 S
C156 N164 1.356 . S
C157 C156 1.363 . S
C157 C163 1.363 . S
C158 C159 1.363 . S
C158 C163 1.379 1_545 S
C158 N165 1.356 . S
C159 C158 1.363 . S
C159 C162 1.363 . S
N160 C162 1.356 . S
N160 H172 0.984 . S
N160 H173 0.985 . S
N161 C163 1.356 . S
N161 H166 0.984 . S
N161 H167 0.985 . S
C162 C156 1.379 1_545 S
C162 C159 1.363 . S
C162 N160 1.356 . S
C163 C157 1.363 . S
C163 C158 1.379 1_565 S
C163 N161 1.356 . S
N164 C156 1.356 . S
N164 H170 0.984 . S
N164 H171 0.984 . S
N165 C158 1.356 . S
N165 H168 0.984 . S
N165 H169 0.985 . S
H166 N161 0.984 . S
H167 N161 0.985 . S
H168 N165 0.984 . S
H169 N165 0.985 . S
H170 N164 0.984 . S
H171 N164 0.984 . S
H172 N160 0.984 . S
H173 N160 0.985 . S
C174 C175 1.363 . S
C174 C180 1.379 . S
C174 N182 1.356 . S
C175 C174 1.363 . S
C175 C181 1.363 . S
C176 C177 1.363 . S
C176 C181 1.379 . S
C176 N183 1.356 . S
C177 C176 1.363 . S
C177 C180 1.363 . S
N178 C180 1.356 . S
N178 H190 0.984 . S
N178 H191 0.985 . S
N179 C181 1.356 . S
N179 H184 0.984 . S
N179 H185 0.985 . S
C180 C174 1.379 . S
C180 C177 1.363 . S
C180 N178 1.356 . S
C181 C175 1.363 . S
C181 C176 1.379 . S
C181 N179 1.356 . S
N182 C174 1.356 . S
N182 H188 0.984 . S
N182 H189 0.984 . S
N183 C176 1.356 . S
N183 H186 0.984 . S
N183 H187 0.985 . S
H184 N179 0.984 . S
H185 N179 0.985 . S
H186 N183 0.984 . S
H187 N183 0.985 . S
H188 N182 0.984 . S
H189 N182 0.984 . S
H190 N178 0.984 . S
H191 N178 0.985 . S
C192 C193 1.383 . S
C192 C198 1.351 1_556 S
C192 N200 1.372 . S
C193 C192 1.383 . S
C193 C199 1.363 . S
C194 C195 1.363 . S
C194 C199 1.379 1_554 S
C194 N201 1.356 . S
C195 C194 1.363 . S
C195 C198 1.363 . S
N196 C198 1.356 . S
N196 H208 0.984 . S
N196 H209 0.985 . S
N197 C199 1.356 . S
N197 H202 0.984 . S
N197 H203 0.985 . S
C198 C192 1.351 1_554 S
C198 C195 1.363 . S
C198 N196 1.356 . S
C199 C193 1.363 . S
C199 C194 1.379 1_556 S
C199 N197 1.356 . S
N200 C192 1.372 . S
N200 H206 0.984 . S
N200 H207 0.984 . S
N201 C194 1.356 . S
N201 H204 0.984 . S
N201 H205 0.985 . S
H202 N197 0.984 . S
H203 N197 0.985 . S
H204 N201 0.984 . S
H205 N201 0.985 . S
H206 N200 0.984 . S
H207 N200 0.984 . S
H208 N196 0.984 . S
H209 N196 0.985 . S
C210 C211 1.363 . S
C210 C216 1.379 . S
C210 N218 1.356 . S
C211 C210 1.363 . S
C211 C217 1.363 . S
C212 C213 1.363 . S
C212 C217 1.379 . S
C212 N219 1.356 . S
C213 C212 1.363 . S
C213 C216 1.363 . S
N214 C216 1.356 . S
N214 H226 0.984 . S
N214 H227 0.985 . S
N215 C217 1.356 . S
N215 H220 0.984 . S
N215 H221 0.985 . S
C216 C210 1.379 . S
C216 C213 1.363 . S
C216 N214 1.356 . S
C217 C211 1.363 . S
C217 C212 1.379 . S
C217 N215 1.356 . S
N218 C210 1.356 . S
N218 H224 0.984 . S
N218 H225 0.984 . S
N219 C212 1.356 . S
N219 H222 0.984 . S
N219 H223 0.985 . S
H220 N215 0.984 . S
H221 N215 0.985 . S
H222 N219 0.984 . S
H223 N219 0.985 . S
H224 N218 0.984 . S
H225 N218 0.984 . S
H226 N214 0.984 . S
H227 N214 0.985 . S
C228 C229 1.363 . S
C228 C234 1.379 . S
C228 N236 1.356 . S
C229 C228 1.363 . S
C229 C235 1.363 . S
C230 C231 1.363 . S
C230 C235 1.379 . S
C230 N237 1.356 . S
C231 C230 1.363 . S
C231 C234 1.363 . S
N232 C234 1.356 . S
N232 H244 0.984 . S
N232 H245 0.985 . S
N233 C235 1.356 . S
N233 H238 0.984 . S
N233 H239 0.985 . S
C234 C228 1.379 . S
C234 C231 1.363 . S
C234 N232 1.356 . S
C235 C229 1.363 . S
C235 C230 1.379 . S
C235 N233 1.356 . S
N236 C228 1.356 . S
N236 H242 0.984 . S
N236 H243 0.984 . S
N237 C230 1.356 . S
N237 H240 0.984 . S
N237 H241 0.985 . S
H238 N233 0.984 . S
H239 N233 0.985 . S
H240 N237 0.984 . S
H241 N237 0.985 . S
H242 N236 0.984 . S
H243 N236 0.984 . S
H244 N232 0.984 . S
H245 N232 0.985 . S
C246 C247 1.363 . S
C246 C252 1.379 1_556 S
C246 N254 1.356 . S
C247 C246 1.363 . S
C247 C253 1.363 . S
C248 C249 1.363 . S
C248 C253 1.379 1_554 S
C248 N255 1.356 . S
C249 C248 1.363 . S
C249 C252 1.363 . S
N250 C252 1.356 . S
N250 H262 0.984 . S
N250 H263 0.985 . S
N251 C253 1.356 . S
N251 H256 0.984 . S
N251 H257 0.985 . S
C252 C246 1.379 1_554 S
C252 C249 1.363 . S
C252 N250 1.356 . S
C253 C247 1.363 . S
C253 C248 1.379 1_556 S
C253 N251 1.356 . S
N254 C246 1.356 . S
N254 H260 0.984 . S
N254 H261 0.984 . S
N255 C248 1.356 . S
N255 H258 0.984 . S
N255 H259 0.985 . S
H256 N251 0.984 . S
H257 N251 0.985 . S
H258 N255 0.984 . S
H259 N255 0.985 . S
H260 N254 0.984 . S
H261 N254 0.984 . S
H262 N250 0.984 . S
H263 N250 0.985 . S
C264 C265 1.363 . S
C264 C270 1.379 . S
C264 N272 1.356 . S
C265 C264 1.363 . S
C265 C271 1.363 . S
C266 C267 1.363 . S
C266 C271 1.379 . S
C266 N273 1.356 . S
C267 C266 1.363 . S
C267 C270 1.363 . S
N268 C270 1.356 . S
N268 H280 0.984 . S
N268 H281 0.985 . S
N269 C271 1.356 . S
N269 H274 0.984 . S
N269 H275 0.985 . S
C270 C264 1.379 . S
C270 C267 1.363 . S
C270 N268 1.356 . S
C271 C265 1.363 . S
C271 C266 1.379 . S
C271 N269 1.356 . S
N272 C264 1.356 . S
N272 H278 0.984 . S
N272 H279 0.984 . S
N273 C266 1.356 . S
N273 H276 0.984 . S
N273 H277 0.985 . S
H274 N269 0.984 . S
H275 N269 0.985 . S
H276 N273 0.984 . S
H277 N273 0.985 . S
H278 N272 0.984 . S
H279 N272 0.984 . S
H280 N268 0.984 . S
H281 N268 0.985 . S
C282 C283 1.363 . S
C282 C288 1.379 . S
C282 N290 1.356 . S
C283 C282 1.363 . S
C283 C289 1.363 . S
C284 C285 1.363 . S
C284 C289 1.379 . S
C284 N291 1.356 . S
C285 C284 1.363 . S
C285 C288 1.363 . S
N286 C288 1.356 . S
N286 H298 0.984 . S
N286 H299 0.985 . S
N287 C289 1.356 . S
N287 H292 0.984 . S
N287 H293 0.985 . S
C288 C282 1.379 . S
C288 C285 1.363 . S
C288 N286 1.356 . S
C289 C283 1.363 . S
C289 C284 1.379 . S
C289 N287 1.356 . S
N290 C282 1.356 . S
N290 H296 0.984 . S
N290 H297 0.984 . S
N291 C284 1.356 . S
N291 H294 0.984 . S
N291 H295 0.985 . S
H292 N287 0.984 . S
H293 N287 0.985 . S
H294 N291 0.984 . S
H295 N291 0.985 . S
H296 N290 0.984 . S
H297 N290 0.984 . S
H298 N286 0.984 . S
H299 N286 0.985 . S
C85 C7 1.257 . S
C87 C49 1.257 . S
C103 C21 1.257 . S
C105 C63 1.257 . S
C121 C35 1.257 . S
C123 C77 1.257 . S
C139 C22 1.736 . S
C141 C64 1.736 . S
C157 C78 1.736 . S
C159 C36 1.736 . S
C175 C50 1.736 . S
C177 C8 1.736 . S
C193 C34 1.510 . S
C195 C9 1.366 . S
C211 C48 1.510 . S
C213 C23 1.366 . S
C229 C37 1.366 . S
C231 C62 1.510 . S
C247 C76 1.510 . S
C249 C51 1.366 . S
C265 C65 1.366 . S
C267 C6 1.510 . S
C283 C79 1.367 . S
C285 C20 1.510 . S
