# Generated by pormake.
# Topology afi, (4)-cn, num edge types: 1
# Building blocks:
#     Node 0, Type 0, BuildingBlock: CEKHIL_clean_sbu_0, # of connection points: 4
#     Node 1, Type 0, BuildingBlock: CEKHIL_clean_sbu_0, # of connection points: 4
#     Node 2, Type 0, BuildingBlock: CEKHIL_clean_sbu_0, # of connection points: 4
#     Node 3, Type 0, BuildingBlock: CEKHIL_clean_sbu_0, # of connection points: 4
#     Node 4, Type 0, BuildingBlock: CEKHIL_clean_sbu_0, # of connection points: 4
#     Node 5, Type 0, BuildingBlock: CEKHIL_clean_sbu_0, # of connection points: 4
#     Node 6, Type 0, BuildingBlock: CEKHIL_clean_sbu_0, # of connection points: 4
#     Node 7, Type 0, BuildingBlock: CEKHIL_clean_sbu_0, # of connection points: 4
#     Node 8, Type 0, BuildingBlock: CEKHIL_clean_sbu_0, # of connection points: 4
#     Node 9, Type 0, BuildingBlock: CEKHIL_clean_sbu_0, # of connection points: 4
#     Node 10, Type 0, BuildingBlock: CEKHIL_clean_sbu_0, # of connection points: 4
#     Node 11, Type 0, BuildingBlock: CEKHIL_clean_sbu_0, # of connection points: 4
#     Node 12, Type 0, BuildingBlock: CEKHIL_clean_sbu_0, # of connection points: 4
#     Node 13, Type 0, BuildingBlock: CEKHIL_clean_sbu_0, # of connection points: 4
#     Node 14, Type 0, BuildingBlock: CEKHIL_clean_sbu_0, # of connection points: 4
#     Node 15, Type 0, BuildingBlock: CEKHIL_clean_sbu_0, # of connection points: 4
#     Node 16, Type 0, BuildingBlock: CEKHIL_clean_sbu_0, # of connection points: 4
#     Node 17, Type 0, BuildingBlock: CEKHIL_clean_sbu_0, # of connection points: 4
#     Node 18, Type 0, BuildingBlock: CEKHIL_clean_sbu_0, # of connection points: 4
#     Node 19, Type 0, BuildingBlock: CEKHIL_clean_sbu_0, # of connection points: 4
#     Node 20, Type 0, BuildingBlock: CEKHIL_clean_sbu_0, # of connection points: 4
#     Node 21, Type 0, BuildingBlock: CEKHIL_clean_sbu_0, # of connection points: 4
#     Node 22, Type 0, BuildingBlock: CEKHIL_clean_sbu_0, # of connection points: 4
#     Node 23, Type 0, BuildingBlock: CEKHIL_clean_sbu_0, # of connection points: 4
#     Edge 24, Type (0, 0), BuildingBlock: XIVTED_clean_linker_0, # of connection points: 2
#     Edge 25, Type (0, 0), BuildingBlock: XIVTED_clean_linker_0, # of connection points: 2
#     Edge 26, Type (0, 0), BuildingBlock: XIVTED_clean_linker_0, # of connection points: 2
#     Edge 27, Type (0, 0), BuildingBlock: XIVTED_clean_linker_0, # of connection points: 2
#     Edge 28, Type (0, 0), BuildingBlock: XIVTED_clean_linker_0, # of connection points: 2
#     Edge 29, Type (0, 0), BuildingBlock: XIVTED_clean_linker_0, # of connection points: 2
#     Edge 30, Type (0, 0), BuildingBlock: XIVTED_clean_linker_0, # of connection points: 2
#     Edge 31, Type (0, 0), BuildingBlock: XIVTED_clean_linker_0, # of connection points: 2
#     Edge 32, Type (0, 0), BuildingBlock: XIVTED_clean_linker_0, # of connection points: 2
#     Edge 33, Type (0, 0), BuildingBlock: XIVTED_clean_linker_0, # of connection points: 2
#     Edge 34, Type (0, 0), BuildingBlock: XIVTED_clean_linker_0, # of connection points: 2
#     Edge 35, Type (0, 0), BuildingBlock: XIVTED_clean_linker_0, # of connection points: 2
#     Edge 36, Type (0, 0), BuildingBlock: XIVTED_clean_linker_0, # of connection points: 2
#     Edge 37, Type (0, 0), BuildingBlock: XIVTED_clean_linker_0, # of connection points: 2
#     Edge 38, Type (0, 0), BuildingBlock: XIVTED_clean_linker_0, # of connection points: 2
#     Edge 39, Type (0, 0), BuildingBlock: XIVTED_clean_linker_0, # of connection points: 2
#     Edge 40, Type (0, 0), BuildingBlock: XIVTED_clean_linker_0, # of connection points: 2
#     Edge 41, Type (0, 0), BuildingBlock: XIVTED_clean_linker_0, # of connection points: 2
#     Edge 42, Type (0, 0), BuildingBlock: XIVTED_clean_linker_0, # of connection points: 2
#     Edge 43, Type (0, 0), BuildingBlock: XIVTED_clean_linker_0, # of connection points: 2
#     Edge 44, Type (0, 0), BuildingBlock: XIVTED_clean_linker_0, # of connection points: 2
#     Edge 45, Type (0, 0), BuildingBlock: XIVTED_clean_linker_0, # of connection points: 2
#     Edge 46, Type (0, 0), BuildingBlock: XIVTED_clean_linker_0, # of connection points: 2
#     Edge 47, Type (0, 0), BuildingBlock: XIVTED_clean_linker_0, # of connection points: 2
#     Edge 48, Type (0, 0), BuildingBlock: XIVTED_clean_linker_0, # of connection points: 2
#     Edge 49, Type (0, 0), BuildingBlock: XIVTED_clean_linker_0, # of connection points: 2
#     Edge 50, Type (0, 0), BuildingBlock: XIVTED_clean_linker_0, # of connection points: 2
#     Edge 51, Type (0, 0), BuildingBlock: XIVTED_clean_linker_0, # of connection points: 2
#     Edge 52, Type (0, 0), BuildingBlock: XIVTED_clean_linker_0, # of connection points: 2
#     Edge 53, Type (0, 0), BuildingBlock: XIVTED_clean_linker_0, # of connection points: 2
#     Edge 54, Type (0, 0), BuildingBlock: XIVTED_clean_linker_0, # of connection points: 2
#     Edge 55, Type (0, 0), BuildingBlock: XIVTED_clean_linker_0, # of connection points: 2
#     Edge 56, Type (0, 0), BuildingBlock: XIVTED_clean_linker_0, # of connection points: 2
#     Edge 57, Type (0, 0), BuildingBlock: XIVTED_clean_linker_0, # of connection points: 2
#     Edge 58, Type (0, 0), BuildingBlock: XIVTED_clean_linker_0, # of connection points: 2
#     Edge 59, Type (0, 0), BuildingBlock: XIVTED_clean_linker_0, # of connection points: 2
#     Edge 60, Type (0, 0), BuildingBlock: XIVTED_clean_linker_0, # of connection points: 2
#     Edge 61, Type (0, 0), BuildingBlock: XIVTED_clean_linker_0, # of connection points: 2
#     Edge 62, Type (0, 0), BuildingBlock: XIVTED_clean_linker_0, # of connection points: 2
#     Edge 63, Type (0, 0), BuildingBlock: XIVTED_clean_linker_0, # of connection points: 2
#     Edge 64, Type (0, 0), BuildingBlock: XIVTED_clean_linker_0, # of connection points: 2
#     Edge 65, Type (0, 0), BuildingBlock: XIVTED_clean_linker_0, # of connection points: 2
#     Edge 66, Type (0, 0), BuildingBlock: XIVTED_clean_linker_0, # of connection points: 2
#     Edge 67, Type (0, 0), BuildingBlock: XIVTED_clean_linker_0, # of connection points: 2
#     Edge 68, Type (0, 0), BuildingBlock: XIVTED_clean_linker_0, # of connection points: 2
#     Edge 69, Type (0, 0), BuildingBlock: XIVTED_clean_linker_0, # of connection points: 2
#     Edge 70, Type (0, 0), BuildingBlock: XIVTED_clean_linker_0, # of connection points: 2
#     Edge 71, Type (0, 0), BuildingBlock: XIVTED_clean_linker_0, # of connection points: 2
# Relax obj value: 0.100
# Max RMSD: 0.107
# Mean RMSD: 0.107
data_MOF--net-afi--node1-CEKHIL_clean_sbu_0--edge1-XIVTED_clean_linker_0
_symmetry_space_group_name_H-M    P1
_symmetry_Int_Tables_number       1
_symmetry_cell_setting            triclinic
loop_
_symmetry_equiv_pos_as_xyz
'x, y, z'
_cell_length_a     67.831713
_cell_length_b     67.848001
_cell_length_c     39.134536
_cell_angle_alpha  90.017821
_cell_angle_beta   90.001309
_cell_angle_gamma 120.04254
loop_
_atom_site_label
_atom_site_type_symbol
_atom_site_fract_x
_atom_site_fract_y
_atom_site_fract_z
_atom_type_partial_charge
Co0 Co 0.46342 0.13019 0.19218 0.0
O1 O 0.47785 0.16294 0.19196 0.0
O2 O 0.44357 0.13981 0.21288 0.0
C3 C 0.49426 0.12878 0.21104 0.0
O4 O 0.44341 0.09571 0.19915 0.0
Co5 Co 0.48073 0.10456 0.14618 0.0
O6 O 0.4587 0.07729 0.17186 0.0
C7 C 0.45431 0.12386 0.11566 0.0
C8 C 0.45976 0.16057 0.20709 0.0
C9 C 0.44382 0.07741 0.19156 0.0
O10 O 0.44999 0.12896 0.14537 0.0
O11 O 0.4673 0.11551 0.11068 0.0
O12 O 0.48116 0.13147 0.2325 0.0
O13 O 0.48936 0.1288 0.17919 0.0
Co14 Co 0.33984 0.46623 0.19425 0.0
O15 O 0.32019 0.47898 0.19616 0.0
O16 O 0.31075 0.44473 0.21527 0.0
C17 C 0.37119 0.49774 0.21385 0.0
O18 O 0.35684 0.44828 0.19801 0.0
Co19 Co 0.38195 0.48858 0.14558 0.0
O20 O 0.39082 0.46952 0.17235 0.0
C21 C 0.33599 0.46018 0.11706 0.0
C22 C 0.3052 0.46038 0.21094 0.0
C23 C 0.37723 0.45261 0.19076 0.0
O24 O 0.32762 0.4534 0.14715 0.0
O25 O 0.35668 0.47541 0.11137 0.0
O26 O 0.35606 0.48349 0.23516 0.0
O27 O 0.36581 0.49354 0.18204 0.0
Co28 Co 0.87523 0.33572 0.19811 0.0
O29 O 0.84247 0.31773 0.198 0.0
O30 O 0.86528 0.30609 0.21857 0.0
C31 C 0.87718 0.3681 0.21739 0.0
O32 O 0.90971 0.35 0.20463 0.0
Co33 Co 0.90044 0.37846 0.15158 0.0
O34 O 0.92806 0.38326 0.17608 0.0
C35 C 0.87863 0.33263 0.12138 0.0
C36 C 0.8446 0.30183 0.21297 0.0
C37 C 0.92803 0.36848 0.1962 0.0
O38 O 0.87627 0.32362 0.15114 0.0
O39 O 0.8857 0.35377 0.11656 0.0
O40 O 0.87433 0.35218 0.23871 0.0
O41 O 0.87683 0.36313 0.18551 0.0
Co42 Co 0.54294 0.87399 0.19521 0.0
O43 O 0.52888 0.84131 0.19608 0.0
O44 O 0.56344 0.86504 0.21555 0.0
C45 C 0.51231 0.87537 0.21505 0.0
O46 O 0.56251 0.90859 0.20061 0.0
Co47 Co 0.5238 0.89755 0.14834 0.0
O48 O 0.54651 0.92578 0.17179 0.0
C49 C 0.54826 0.8762 0.11832 0.0
C50 C 0.54726 0.84412 0.21073 0.0
C51 C 0.56172 0.92649 0.19172 0.0
O52 O 0.55567 0.87481 0.148 0.0
O53 O 0.53356 0.88247 0.11361 0.0
O54 O 0.5259 0.87318 0.23615 0.0
O55 O 0.51655 0.87466 0.18309 0.0
Co56 Co 0.67221 0.54011 0.19488 0.0
O57 O 0.6902 0.52538 0.19528 0.0
O58 O 0.70203 0.56017 0.21456 0.0
C59 C 0.64005 0.50991 0.2153 0.0
O60 O 0.65802 0.56038 0.20072 0.0
Co61 Co 0.62895 0.52174 0.1493 0.0
O62 O 0.62455 0.54518 0.17264 0.0
C63 C 0.67448 0.54392 0.11814 0.0
C64 C 0.70621 0.54364 0.20965 0.0
C65 C 0.63954 0.56021 0.19228 0.0
O66 O 0.68371 0.55232 0.14728 0.0
O67 O 0.65335 0.52927 0.11449 0.0
O68 O 0.65612 0.52336 0.23617 0.0
O69 O 0.64473 0.51411 0.1833 0.0
Co70 Co 0.13511 0.66921 0.19675 0.0
O71 O 0.16785 0.68767 0.19718 0.0
O72 O 0.14442 0.69855 0.21768 0.0
C73 C 0.13357 0.63692 0.2156 0.0
O74 O 0.10061 0.65451 0.20293 0.0
Co75 Co 0.11043 0.6267 0.14973 0.0
O76 O 0.08256 0.62135 0.1741 0.0
C77 C 0.13194 0.67267 0.12007 0.0
C78 C 0.16526 0.70323 0.21237 0.0
C79 C 0.0824 0.63598 0.19437 0.0
O80 O 0.13407 0.68149 0.14994 0.0
O81 O 0.12512 0.6516 0.115 0.0
O82 O 0.13609 0.65262 0.23712 0.0
O83 O 0.13398 0.64204 0.18378 0.0
Co84 Co 0.87834 0.54234 0.30627 0.0
O85 O 0.84558 0.52786 0.30736 0.0
O86 O 0.86841 0.56194 0.28559 0.0
C87 C 0.87955 0.51141 0.28754 0.0
O88 O 0.91273 0.56231 0.29825 0.0
Co89 Co 0.90457 0.52551 0.35173 0.0
O90 O 0.93149 0.54721 0.32505 0.0
C91 C 0.88558 0.55211 0.38258 0.0
C92 C 0.84773 0.54575 0.29188 0.0
C93 C 0.93112 0.5619 0.30525 0.0
O94 O 0.88011 0.55617 0.35296 0.0
O95 O 0.89403 0.5392 0.38745 0.0
O96 O 0.8766 0.52435 0.2661 0.0
O97 O 0.8799 0.51652 0.31938 0.0
Co98 Co 0.33926 0.87524 0.3082 0.0
O99 O 0.32136 0.84249 0.30996 0.0
O100 O 0.30938 0.86473 0.28828 0.0
C101 C 0.37138 0.87672 0.28858 0.0
O102 O 0.35317 0.90951 0.29979 0.0
Co103 Co 0.38295 0.90215 0.35237 0.0
O104 O 0.3872 0.92886 0.32609 0.0
C105 C 0.33768 0.8835 0.3844 0.0
C106 C 0.30529 0.84421 0.29476 0.0
C107 C 0.37178 0.92812 0.30669 0.0
O108 O 0.32771 0.87736 0.35513 0.0
O109 O 0.35914 0.8922 0.38867 0.0
O110 O 0.35514 0.87341 0.26761 0.0
O111 O 0.367 0.87726 0.32053 0.0
Co112 Co 0.46603 0.33628 0.30416 0.0
O113 O 0.4791 0.31687 0.30541 0.0
O114 O 0.44556 0.30701 0.28284 0.0
C115 C 0.49807 0.36758 0.28591 0.0
O116 O 0.44787 0.35275 0.29651 0.0
Co117 Co 0.48569 0.37916 0.35105 0.0
O118 O 0.46904 0.38795 0.31857 0.0
C119 C 0.45682 0.33347 0.38052 0.0
C120 C 0.46117 0.30171 0.28937 0.0
C121 C 0.45257 0.37359 0.30017 0.0
O122 O 0.45158 0.32446 0.35053 0.0
O123 O 0.47124 0.35446 0.38605 0.0
O124 O 0.48467 0.35216 0.26421 0.0
O125 O 0.49271 0.36266 0.31763 0.0
Co126 Co 0.13302 0.46282 0.3041 0.0
O127 O 0.16571 0.4772 0.30543 0.0
O128 O 0.14297 0.44303 0.28385 0.0
C129 C 0.1319 0.49374 0.28494 0.0
O130 O 0.09859 0.44303 0.2964 0.0
Co131 Co 0.10762 0.48052 0.34993 0.0
O132 O 0.08024 0.45809 0.32459 0.0
C133 C 0.12826 0.45555 0.38068 0.0
C134 C 0.16363 0.45922 0.29037 0.0
C135 C 0.0803 0.44338 0.30438 0.0
O136 O 0.13113 0.44921 0.35096 0.0
O137 O 0.12125 0.46967 0.38538 0.0
O138 O 0.13483 0.48071 0.26365 0.0
O139 O 0.13166 0.48876 0.31678 0.0
Co140 Co 0.66816 0.13035 0.30406 0.0
O141 O 0.68611 0.16312 0.30519 0.0
O142 O 0.69775 0.14067 0.28327 0.0
C143 C 0.63569 0.12862 0.28561 0.0
O144 O 0.65414 0.09599 0.29612 0.0
Co145 Co 0.62532 0.10374 0.3499 0.0
O146 O 0.62054 0.07684 0.32361 0.0
C147 C 0.6711 0.12317 0.3803 0.0
C148 C 0.70202 0.16124 0.28976 0.0
C149 C 0.63562 0.07743 0.30358 0.0
O150 O 0.68049 0.12878 0.3506 0.0
O151 O 0.64972 0.11445 0.38541 0.0
O152 O 0.6516 0.13179 0.26405 0.0
O153 O 0.64061 0.12837 0.3174 0.0
Co154 Co 0.54563 0.67016 0.30493 0.0
O155 O 0.53082 0.68807 0.30693 0.0
O156 O 0.56499 0.70002 0.28495 0.0
C157 C 0.51486 0.63808 0.28553 0.0
O158 O 0.56589 0.65615 0.29612 0.0
Co159 Co 0.52905 0.62659 0.34914 0.0
O160 O 0.55105 0.62204 0.32216 0.0
C161 C 0.55536 0.67187 0.38117 0.0
C162 C 0.5486 0.70414 0.29168 0.0
C163 C 0.5657 0.63741 0.30264 0.0
O164 O 0.55934 0.68175 0.35183 0.0
O165 O 0.54261 0.65041 0.38548 0.0
O166 O 0.52775 0.65427 0.26447 0.0
O167 O 0.51993 0.64247 0.31746 0.0
Co168 Co 0.54506 0.87711 0.80498 0.0
O169 O 0.53048 0.84435 0.80576 0.0
O170 O 0.56469 0.86717 0.78439 0.0
C171 C 0.51418 0.87838 0.78608 0.0
O172 O 0.56519 0.91154 0.79739 0.0
Co173 Co 0.52811 0.90324 0.85042 0.0
O174 O 0.55018 0.93031 0.82441 0.0
C175 C 0.55435 0.88389 0.88141 0.0
C176 C 0.54842 0.8465 0.79046 0.0
C177 C 0.56494 0.92996 0.8047 0.0
O178 O 0.55862 0.87861 0.85179 0.0
O179 O 0.54144 0.89235 0.8862 0.0
O180 O 0.52723 0.87557 0.76469 0.0
O181 O 0.5192 0.87866 0.81794 0.0
Co182 Co 0.66894 0.54008 0.80461 0.0
O183 O 0.68714 0.5255 0.80522 0.0
O184 O 0.69839 0.55962 0.78364 0.0
C185 C 0.63652 0.50917 0.78626 0.0
O186 O 0.65468 0.5602 0.79711 0.0
Co187 Co 0.62625 0.52355 0.85077 0.0
O188 O 0.62113 0.54554 0.82473 0.0
C189 C 0.6721 0.54952 0.881 0.0
C190 C 0.70288 0.54343 0.78978 0.0
C191 C 0.63611 0.56011 0.80466 0.0
O192 O 0.68137 0.5539 0.85118 0.0
O193 O 0.65078 0.53653 0.88619 0.0
O194 O 0.6523 0.52206 0.76462 0.0
O195 O 0.64153 0.51433 0.81804 0.0
Co196 Co 0.13127 0.66995 0.80654 0.0
O197 O 0.16405 0.68822 0.80689 0.0
O198 O 0.14106 0.69953 0.78603 0.0
C199 C 0.12982 0.63773 0.78746 0.0
O200 O 0.09677 0.65554 0.79944 0.0
Co201 Co 0.10549 0.62686 0.8522 0.0
O202 O 0.07824 0.62176 0.82658 0.0
C203 C 0.12511 0.6725 0.88315 0.0
C204 C 0.16179 0.70401 0.79181 0.0
C205 C 0.07841 0.63681 0.80695 0.0
O206 O 0.13002 0.68202 0.85349 0.0
O207 O 0.11682 0.65115 0.88792 0.0
O208 O 0.13256 0.65358 0.7661 0.0
O209 O 0.12979 0.64256 0.81933 0.0
Co210 Co 0.46769 0.13206 0.80309 0.0
O211 O 0.48103 0.1645 0.80046 0.0
O212 O 0.44645 0.14001 0.78205 0.0
C213 C 0.49871 0.13135 0.78336 0.0
O214 O 0.44916 0.09711 0.80031 0.0
Co215 Co 0.48989 0.11253 0.85241 0.0
O216 O 0.46915 0.08378 0.82827 0.0
C217 C 0.46366 0.13264 0.88009 0.0
C218 C 0.46247 0.16115 0.78587 0.0
C219 C 0.45251 0.08068 0.80934 0.0
O220 O 0.45535 0.13213 0.8503 0.0
O221 O 0.47944 0.12792 0.88549 0.0
O222 O 0.48451 0.1323 0.76205 0.0
O223 O 0.49477 0.13298 0.81511 0.0
Co224 Co 0.33791 0.4655 0.8038 0.0
O225 O 0.32017 0.4805 0.80394 0.0
O226 O 0.30827 0.44606 0.78311 0.0
C227 C 0.37042 0.49591 0.7847 0.0
O228 O 0.35189 0.44505 0.7972 0.0
Co229 Co 0.38069 0.48264 0.85021 0.0
O230 O 0.38526 0.45982 0.82547 0.0
C231 C 0.33483 0.45752 0.88045 0.0
C232 C 0.30421 0.4626 0.78877 0.0
C233 C 0.37031 0.44506 0.80553 0.0
O234 O 0.3256 0.45223 0.85062 0.0
O235 O 0.3561 0.4709 0.88552 0.0
O236 O 0.3545 0.4829 0.76334 0.0
O237 O 0.36546 0.49123 0.81658 0.0
Co238 Co 0.8776 0.33763 0.80807 0.0
O239 O 0.84483 0.31927 0.80818 0.0
O240 O 0.86801 0.30825 0.7871 0.0
C241 C 0.87902 0.3699 0.78943 0.0
O242 O 0.91207 0.35215 0.80114 0.0
Co243 Co 0.90317 0.38044 0.85435 0.0
O244 O 0.9305 0.38578 0.82869 0.0
C245 C 0.88372 0.33462 0.88456 0.0
C246 C 0.84724 0.30365 0.79281 0.0
C247 C 0.93038 0.37085 0.80885 0.0
O248 O 0.87881 0.32529 0.85477 0.0
O249 O 0.89196 0.35593 0.88971 0.0
O250 O 0.87636 0.35416 0.76788 0.0
O251 O 0.87896 0.36491 0.82126 0.0
Co252 Co 0.1329 0.46626 0.69391 0.0
O253 O 0.16567 0.48069 0.69317 0.0
O254 O 0.14266 0.44659 0.71478 0.0
C255 C 0.13158 0.49721 0.71244 0.0
O256 O 0.09849 0.4463 0.70146 0.0
Co257 Co 0.10697 0.48322 0.64793 0.0
O258 O 0.07982 0.46124 0.67396 0.0
C259 C 0.12584 0.45636 0.61762 0.0
C260 C 0.16338 0.46273 0.70862 0.0
C261 C 0.0801 0.44655 0.6939 0.0
O262 O 0.13123 0.45236 0.64734 0.0
O263 O 0.11751 0.46934 0.6125 0.0
O264 O 0.13447 0.48429 0.734 0.0
O265 O 0.13141 0.4921 0.68064 0.0
Co266 Co 0.67301 0.13305 0.69364 0.0
O267 O 0.69102 0.16578 0.69369 0.0
O268 O 0.70262 0.14294 0.7142 0.0
C269 C 0.64068 0.13118 0.71297 0.0
O270 O 0.65867 0.09857 0.69998 0.0
Co271 Co 0.63022 0.10804 0.64707 0.0
O272 O 0.62539 0.08036 0.67136 0.0
C273 C 0.67607 0.12978 0.61689 0.0
C274 C 0.70687 0.16363 0.70878 0.0
C275 C 0.64016 0.0803 0.69144 0.0
O276 O 0.6851 0.13205 0.64664 0.0
O277 O 0.65493 0.12279 0.61211 0.0
O278 O 0.65658 0.13394 0.73426 0.0
O279 O 0.64563 0.13155 0.68109 0.0
Co280 Co 0.54285 0.67071 0.69507 0.0
O281 O 0.52842 0.68898 0.69452 0.0
O282 O 0.56268 0.70029 0.71567 0.0
C283 C 0.51208 0.63852 0.71416 0.0
O284 O 0.56266 0.65609 0.70212 0.0
Co285 Co 0.52506 0.62788 0.64862 0.0
O286 O 0.54745 0.62274 0.67371 0.0
C287 C 0.55002 0.67366 0.61841 0.0
C288 C 0.54643 0.70474 0.70977 0.0
C289 C 0.56223 0.63745 0.69393 0.0
O290 O 0.55639 0.68269 0.64824 0.0
O291 O 0.53582 0.65256 0.61347 0.0
O292 O 0.52516 0.65441 0.73552 0.0
O293 O 0.51688 0.64342 0.6823 0.0
Co294 Co 0.87494 0.54068 0.69596 0.0
O295 O 0.84218 0.52574 0.69558 0.0
O296 O 0.86475 0.56008 0.71675 0.0
C297 C 0.87697 0.5102 0.71481 0.0
O298 O 0.90939 0.56099 0.70278 0.0
Co299 Co 0.90038 0.52354 0.64914 0.0
O300 O 0.92788 0.54637 0.67388 0.0
C301 C 0.87885 0.54792 0.6193 0.0
C302 C 0.84412 0.54359 0.71089 0.0
C303 C 0.92776 0.56099 0.69422 0.0
O304 O 0.87613 0.55415 0.64919 0.0
O305 O 0.88606 0.53399 0.61421 0.0
O306 O 0.87396 0.52308 0.73629 0.0
O307 O 0.87671 0.51501 0.683 0.0
Co308 Co 0.33823 0.87437 0.69813 0.0
O309 O 0.31907 0.84179 0.69589 0.0
O310 O 0.30867 0.86498 0.71872 0.0
C311 C 0.36956 0.87385 0.71678 0.0
O312 O 0.3541 0.90887 0.70696 0.0
Co313 Co 0.38193 0.8994 0.65327 0.0
O314 O 0.39004 0.92373 0.68758 0.0
C315 C 0.33662 0.88256 0.62204 0.0
C316 C 0.30361 0.8442 0.7117 0.0
C317 C 0.37499 0.92519 0.70511 0.0
O318 O 0.3269 0.87742 0.65156 0.0
O319 O 0.35788 0.89008 0.61736 0.0
O320 O 0.35382 0.8713 0.73823 0.0
O321 O 0.36501 0.87479 0.68502 0.0
Co322 Co 0.46379 0.33521 0.69307 0.0
O323 O 0.47785 0.31659 0.69129 0.0
O324 O 0.4439 0.30555 0.71339 0.0
C325 C 0.49508 0.36714 0.71196 0.0
O326 O 0.4442 0.34999 0.70138 0.0
Co327 Co 0.48144 0.37868 0.648 0.0
O328 O 0.45948 0.38377 0.67418 0.0
C329 C 0.45382 0.33325 0.6169 0.0
C330 C 0.45985 0.30082 0.70655 0.0
C331 C 0.44468 0.36877 0.69399 0.0
O332 O 0.44972 0.32354 0.64639 0.0
O333 O 0.46711 0.35458 0.61219 0.0
O334 O 0.48207 0.35121 0.73331 0.0
O335 O 0.48983 0.36248 0.68015 0.0
H336 H 0.42424 0.03543 0.16221 0.0
H337 H 0.3931 0.97019 0.33574 0.0
H338 H 0.42577 0.06935 0.25619 0.0
H339 H 0.36108 0.93543 0.24203 0.0
H340 H 0.40538 0.0067 0.30751 0.0
H341 H 0.40121 0.99863 0.1904 0.0
C342 C 0.41942 0.03509 0.18869 0.0
C343 C 0.427 0.05543 0.20699 0.0
C344 C 0.39533 0.99109 0.29327 0.0
C345 C 0.40107 0.01341 0.23956 0.0
C346 C 0.3884 0.97027 0.3093 0.0
C347 C 0.37617 0.9498 0.29109 0.0
C348 C 0.39057 0.99152 0.25848 0.0
C349 C 0.37044 0.95084 0.25696 0.0
C350 C 0.40622 0.0141 0.20471 0.0
C351 C 0.42021 0.05406 0.24118 0.0
N352 N 0.3781 0.9714 0.24151 0.0
N353 N 0.40801 0.03337 0.2566 0.0
H354 H 0.40657 0.35117 0.28314 0.0
H355 H 0.41983 0.459 0.18214 0.0
H356 H 0.46863 0.41596 0.27531 0.0
H357 H 0.35555 0.4131 0.23037 0.0
H358 H 0.43603 0.43752 0.20621 0.0
H359 H 0.38591 0.36827 0.25506 0.0
C360 C 0.41583 0.36885 0.2753 0.0
C361 C 0.43933 0.38221 0.28166 0.0
C362 C 0.41835 0.43203 0.21156 0.0
C363 C 0.41607 0.40157 0.24955 0.0
C364 C 0.40895 0.44431 0.19771 0.0
C365 C 0.3862 0.4381 0.20442 0.0
C366 C 0.4051 0.41315 0.23237 0.0
C367 C 0.37318 0.41865 0.22471 0.0
C368 C 0.40404 0.37859 0.25959 0.0
C369 C 0.45052 0.40504 0.27122 0.0
N370 N 0.38284 0.40684 0.23812 0.0
N371 N 0.43885 0.41389 0.25563 0.0
H372 H 0.93634 0.35787 0.26026 0.0
H373 H 0.07212 0.42599 0.2393 0.0
H374 H 0.97005 0.39132 0.16667 0.0
H375 H 0.03833 0.42338 0.33394 0.0
H376 H 0.03464 0.40304 0.21204 0.0
H377 H 0.97382 0.37173 0.28706 0.0
C378 C 0.9516 0.3677 0.24517 0.0
C379 C 0.95013 0.37363 0.21131 0.0
C380 C 0.03552 0.40723 0.23891 0.0
C381 C 0.99284 0.38926 0.24157 0.0
C382 C 0.05684 0.42016 0.25449 0.0
C383 C 0.05827 0.4267 0.28882 0.0
C384 C 0.01559 0.40042 0.25805 0.0
C385 C 0.03795 0.41887 0.3073 0.0
C386 C 0.97293 0.37569 0.2605 0.0
C387 C 0.97045 0.38657 0.19296 0.0
N388 N 0.01745 0.40618 0.2917 0.0
N389 N 0.99096 0.39398 0.20832 0.0
H390 H 0.57902 0.96819 0.16166 0.0
H391 H 0.61561 0.0357 0.33355 0.0
H392 H 0.58181 0.9359 0.255 0.0
H393 H 0.64412 0.06954 0.2379 0.0
H394 H 0.60254 0.99893 0.30564 0.0
H395 H 0.60227 0.00546 0.18855 0.0
C396 C 0.58478 0.96897 0.1877 0.0
C397 C 0.57838 0.94893 0.20621 0.0
C398 C 0.61199 0.01439 0.29086 0.0
C399 C 0.6046 0.9915 0.23729 0.0
C400 C 0.61939 0.03536 0.30673 0.0
C401 C 0.63089 0.05565 0.28793 0.0
C402 C 0.61552 0.01362 0.25568 0.0
C403 C 0.63539 0.05428 0.25329 0.0
C404 C 0.59812 0.99024 0.20296 0.0
C405 C 0.5864 0.95093 0.23981 0.0
N406 N 0.62728 0.03357 0.23806 0.0
N407 N 0.59873 0.97184 0.25452 0.0
H408 H 0.58139 0.64602 0.23664 0.0
H409 H 0.65201 0.58084 0.25505 0.0
H410 H 0.58766 0.61731 0.33148 0.0
H411 H 0.6154 0.57825 0.16346 0.0
H412 H 0.63869 0.60484 0.2819 0.0
H413 H 0.60421 0.63173 0.20826 0.0
C414 C 0.58805 0.63722 0.2516 0.0
C415 C 0.58257 0.63269 0.28634 0.0
C416 C 0.63391 0.59928 0.25573 0.0
C417 C 0.60865 0.61656 0.25434 0.0
C418 C 0.64158 0.58571 0.24037 0.0
C419 C 0.63461 0.57738 0.20711 0.0
C420 C 0.61959 0.60492 0.23745 0.0
C421 C 0.62096 0.58411 0.1893 0.0
C422 C 0.60089 0.62896 0.23541 0.0
C423 C 0.59138 0.62099 0.30457 0.0
N424 N 0.61384 0.59743 0.2047 0.0
N425 N 0.60395 0.61329 0.28836 0.0
H426 H 0.07433 0.6477 0.25775 0.0
H427 H 0.93845 0.57811 0.23955 0.0
H428 H 0.04011 0.61176 0.1658 0.0
H429 H 0.97329 0.58287 0.33402 0.0
H430 H 0.97564 0.60073 0.21128 0.0
H431 H 0.03704 0.63411 0.2849 0.0
C432 C 0.05899 0.63734 0.24308 0.0
C433 C 0.06028 0.63066 0.2096 0.0
C434 C 0.97505 0.5971 0.23833 0.0
C435 C 0.01776 0.61535 0.24027 0.0
C436 C 0.9539 0.58437 0.25447 0.0
C437 C 0.95288 0.57853 0.28906 0.0
C438 C 0.99518 0.60442 0.25717 0.0
C439 C 0.97339 0.58687 0.30721 0.0
C440 C 0.03777 0.62952 0.25861 0.0
C441 C 0.03986 0.61709 0.1918 0.0
N442 N 0.9937 0.59936 0.29107 0.0
N443 N 0.01944 0.60985 0.20735 0.0
H444 H 0.58562 0.97184 0.83436 0.0
H445 H 0.61718 0.03839 0.66167 0.0
H446 H 0.58215 0.93792 0.7395 0.0
H447 H 0.6506 0.07176 0.75548 0.0
H448 H 0.60376 1.00142 0.68915 0.0
H449 H 0.60906 0.00862 0.80635 0.0
C450 C 0.5901 0.97216 0.80771 0.0
C451 C 0.5819 0.95184 0.78914 0.0
C452 C 0.61435 0.01682 0.70356 0.0
C453 C 0.60826 0.99388 0.75677 0.0
C454 C 0.62194 0.03791 0.68795 0.0
C455 C 0.63493 0.05816 0.70641 0.0
C456 C 0.61924 0.01591 0.73816 0.0
C457 C 0.64068 0.05656 0.74033 0.0
C458 C 0.60352 0.99315 0.79179 0.0
C459 C 0.58822 0.95321 0.75472 0.0
N460 N 0.63241 0.03578 0.75536 0.0
N461 N 0.60066 0.97391 0.73941 0.0
H462 H 0.64651 0.57791 0.7399 0.0
H463 H 0.58039 0.64758 0.75848 0.0
H464 H 0.61407 0.58028 0.83335 0.0
H465 H 0.5813 0.61438 0.66498 0.0
H466 H 0.6032 0.63307 0.78605 0.0
H467 H 0.63295 0.60149 0.71213 0.0
C468 C 0.63697 0.5838 0.75473 0.0
C469 C 0.63122 0.57701 0.78885 0.0
C470 C 0.59867 0.62931 0.75934 0.0
C471 C 0.61596 0.60404 0.75752 0.0
C472 C 0.58581 0.63767 0.74358 0.0
C473 C 0.57881 0.63199 0.70951 0.0
C474 C 0.60496 0.61562 0.74065 0.0
C475 C 0.58615 0.61894 0.69141 0.0
C476 C 0.62915 0.5971 0.73886 0.0
C477 C 0.61866 0.58496 0.80688 0.0
N478 N 0.59879 0.61116 0.7072 0.0
N479 N 0.61143 0.59802 0.79101 0.0
H480 H 0.96964 0.58071 0.66429 0.0
H481 H 0.0366 0.61505 0.83683 0.0
H482 H 0.93623 0.57933 0.75874 0.0
H483 H 0.0701 0.64632 0.7421 0.0
H484 H 0.99967 0.60147 0.80914 0.0
H485 H 0.0066 0.60438 0.6918 0.0
C486 C 0.9701 0.58566 0.69073 0.0
C487 C 0.94985 0.57796 0.70934 0.0
C488 C 0.01508 0.61164 0.79454 0.0
C489 C 0.9921 0.60466 0.74113 0.0
C490 C 0.03615 0.61932 0.81028 0.0
C491 C 0.05641 0.63175 0.79166 0.0
C492 C 0.0142 0.61583 0.75963 0.0
C493 C 0.05487 0.63686 0.75737 0.0
C494 C 0.99119 0.59924 0.70636 0.0
C495 C 0.95143 0.58495 0.74347 0.0
N496 N 0.0341 0.62849 0.74223 0.0
N497 N 0.97222 0.59754 0.75849 0.0
H498 H 0.4167 0.06454 0.76269 0.0
H499 H 0.41269 0.94629 0.74384 0.0
H500 H 0.45319 0.04236 0.82805 0.0
H501 H 0.35562 0.95263 0.71015 0.0
H502 H 0.42876 0.98325 0.77159 0.0
H503 H 0.39459 0.02537 0.74014 0.0
C504 C 0.41994 0.05152 0.77254 0.0
C505 C 0.43712 0.05698 0.79704 0.0
C506 C 0.41259 0.97658 0.75849 0.0
C507 C 0.41208 0.0124 0.77126 0.0
C508 C 0.40343 0.95547 0.74261 0.0
C509 C 0.38279 0.94641 0.72484 0.0
C510 C 0.40136 0.98917 0.7561 0.0
C511 C 0.3715 0.95902 0.72394 0.0
C512 C 0.4073 0.0292 0.75971 0.0
C513 C 0.44045 0.03929 0.80889 0.0
N514 N 0.3811 0.98 0.739 0.0
N515 N 0.42829 0.01804 0.7957 0.0
H516 H 0.39221 0.42529 0.83588 0.0
H517 H 0.42442 0.39017 0.66388 0.0
H518 H 0.36008 0.42627 0.74131 0.0
H519 H 0.42712 0.3596 0.75903 0.0
H520 H 0.40098 0.40368 0.69137 0.0
H521 H 0.40528 0.40137 0.80878 0.0
C522 C 0.38765 0.42019 0.8095 0.0
C523 C 0.37516 0.42786 0.79071 0.0
C524 C 0.40635 0.39369 0.70611 0.0
C525 C 0.39045 0.40087 0.7594 0.0
C526 C 0.41979 0.38605 0.6905 0.0
C527 C 0.42779 0.37386 0.70931 0.0
C528 C 0.40138 0.38967 0.74107 0.0
C529 C 0.42124 0.36889 0.74364 0.0
C530 C 0.39504 0.40647 0.79411 0.0
C531 C 0.36963 0.42067 0.75669 0.0
N532 N 0.40877 0.37722 0.75866 0.0
N533 N 0.37771 0.40794 0.74189 0.0
H534 H 0.03802 0.42661 0.66477 0.0
H535 H 0.97241 0.3933 0.83813 0.0
H536 H 0.07231 0.42859 0.75858 0.0
H537 H 0.9384 0.36083 0.7442 0.0
H538 H 0.00919 0.40683 0.80998 0.0
H539 H 1.00133 0.40295 0.69295 0.0
C540 C 0.0378 0.4218 0.69122 0.0
C541 C 0.0582 0.42964 0.70947 0.0
C542 C 0.9937 0.39641 0.79568 0.0
C543 C 0.01629 0.40298 0.74201 0.0
C544 C 0.97271 0.38876 0.81167 0.0
C545 C 0.95236 0.37602 0.79338 0.0
C546 C 0.99437 0.39185 0.76087 0.0
C547 C 0.95371 0.37055 0.75921 0.0
C548 C 0.01687 0.40823 0.70722 0.0
C549 C 0.05697 0.42283 0.74362 0.0
N550 N 0.97438 0.37889 0.74382 0.0
N551 N 0.03632 0.41025 0.75903 0.0
H552 H 0.4221 0.16258 0.22893 0.0
H553 H 0.49538 0.29198 0.28759 0.0
H554 H 0.49426 0.20454 0.21079 0.0
H555 H 0.42387 0.26247 0.26459 0.0
H556 H 0.49404 0.25747 0.26716 0.0
H557 H 0.42117 0.19661 0.2487 0.0
C558 C 0.4377 0.17891 0.22904 0.0
C559 C 0.45831 0.18072 0.21821 0.0
C560 C 0.47861 0.25848 0.26653 0.0
C561 C 0.45738 0.21943 0.24115 0.0
C562 C 0.47931 0.27817 0.27838 0.0
C563 C 0.4597 0.28018 0.27777 0.0
C564 C 0.45807 0.24034 0.25431 0.0
C565 C 0.4394 0.26166 0.26541 0.0
C566 C 0.43713 0.19827 0.24021 0.0
C567 C 0.47799 0.20229 0.21882 0.0
N568 N 0.43906 0.2424 0.25428 0.0
N569 N 0.47706 0.22069 0.23034 0.0
H570 H 0.20767 0.49352 0.29157 0.0
H571 H 0.2656 0.42176 0.23187 0.0
H572 H 0.16638 0.42231 0.26617 0.0
H573 H 0.29537 0.49426 0.21803 0.0
H574 H 0.23024 0.42003 0.2521 0.0
H575 H 0.2414 0.49248 0.27331 0.0
C576 C 0.20567 0.47758 0.28228 0.0
C577 C 0.18409 0.458 0.28025 0.0
C578 C 0.24458 0.43624 0.24451 0.0
C579 C 0.22295 0.45668 0.25927 0.0
C580 C 0.26473 0.43725 0.23311 0.0
C581 C 0.28347 0.45817 0.22319 0.0
C582 C 0.24346 0.45636 0.24659 0.0
C583 C 0.2814 0.47772 0.22524 0.0
C584 C 0.22499 0.47703 0.27171 0.0
C585 C 0.18269 0.43784 0.26797 0.0
N586 N 0.26191 0.47634 0.23685 0.0
N587 N 0.20189 0.43766 0.25797 0.0
H588 H 0.71111 0.20514 0.28822 0.0
H589 H 0.84181 0.26172 0.2342 0.0
H590 H 0.74194 0.16411 0.26738 0.0
H591 H 0.80091 0.29315 0.21709 0.0
H592 H 0.80737 0.22687 0.25317 0.0
H593 H 0.74605 0.23885 0.26966 0.0
C594 C 0.72528 0.20322 0.27986 0.0
C595 C 0.72355 0.18173 0.27927 0.0
C596 C 0.80602 0.24142 0.24514 0.0
C597 C 0.7638 0.22045 0.25807 0.0
C598 C 0.82563 0.2613 0.23442 0.0
C599 C 0.82423 0.28037 0.22401 0.0
C600 C 0.78501 0.24082 0.24602 0.0
C601 C 0.80283 0.27887 0.22476 0.0
C602 C 0.74521 0.22249 0.26912 0.0
C603 C 0.74252 0.18034 0.2681 0.0
N604 N 0.78416 0.25956 0.23577 0.0
N605 N 0.76193 0.19947 0.25806 0.0
H606 H 0.58535 0.84261 0.23172 0.0
H607 H 0.5136 0.71291 0.29135 0.0
H608 H 0.51288 0.80027 0.21672 0.0
H609 H 0.5852 0.74404 0.26797 0.0
H610 H 0.51413 0.74731 0.27196 0.0
H611 H 0.58673 0.80894 0.25206 0.0
C612 C 0.56977 0.82628 0.23268 0.0
C613 C 0.54897 0.82424 0.22246 0.0
C614 C 0.52975 0.74667 0.27107 0.0
C615 C 0.55039 0.78593 0.24606 0.0
C616 C 0.5295 0.72704 0.28231 0.0
C617 C 0.54938 0.72553 0.2812 0.0
C618 C 0.5501 0.76517 0.25897 0.0
C619 C 0.56947 0.74445 0.26913 0.0
C620 C 0.57059 0.80711 0.24418 0.0
C621 C 0.52931 0.80267 0.2242 0.0
N622 N 0.56935 0.76356 0.25856 0.0
N623 N 0.53049 0.78446 0.23596 0.0
H624 H 0.71483 0.50866 0.21457 0.0
H625 H 0.84544 0.58286 0.26835 0.0
H626 H 0.74631 0.58111 0.23091 0.0
H627 H 0.80373 0.5111 0.28969 0.0
H628 H 0.81126 0.58333 0.24831 0.0
H629 H 0.74941 0.50996 0.23495 0.0
C630 C 0.72908 0.5249 0.2223 0.0
C631 C 0.72763 0.54481 0.22107 0.0
C632 C 0.80967 0.56755 0.25754 0.0
C633 C 0.76748 0.54641 0.24443 0.0
C634 C 0.82913 0.56725 0.26889 0.0
C635 C 0.82744 0.54691 0.28072 0.0
C636 C 0.7885 0.54728 0.25746 0.0
C637 C 0.80587 0.52719 0.2809 0.0
C638 C 0.7488 0.5256 0.23412 0.0
C639 C 0.74668 0.56535 0.23155 0.0
N640 N 0.78735 0.52784 0.26922 0.0
N641 N 0.7659 0.56565 0.24267 0.0
H642 H 0.16693 0.74268 0.23422 0.0
H643 H 0.29672 0.8005 0.2933 0.0
H644 H 0.20917 0.71269 0.21762 0.0
H645 H 0.26534 0.8409 0.27144 0.0
H646 H 0.26238 0.76668 0.27336 0.0
H647 H 0.20064 0.7776 0.25479 0.0
C648 C 0.18325 0.74344 0.23487 0.0
C649 C 0.18525 0.72475 0.22414 0.0
C650 C 0.26296 0.78293 0.27293 0.0
C651 C 0.22364 0.76436 0.24803 0.0
C652 C 0.28254 0.80226 0.28449 0.0
C653 C 0.28395 0.82361 0.28398 0.0
C654 C 0.24441 0.78477 0.26113 0.0
C655 C 0.265 0.82478 0.27215 0.0
C656 C 0.20245 0.76335 0.24651 0.0
C657 C 0.20682 0.72667 0.22549 0.0
N658 N 0.24594 0.8056 0.26129 0.0
N659 N 0.22508 0.746 0.23742 0.0
H660 H 0.51164 0.71376 0.71282 0.0
H661 H 0.5857 0.84405 0.76805 0.0
H662 H 0.58371 0.74455 0.73233 0.0
H663 H 0.51362 0.80262 0.7873 0.0
H664 H 0.58621 0.80983 0.74836 0.0
H665 H 0.51292 0.74842 0.7327 0.0
C666 C 0.5278 0.72787 0.72115 0.0
C667 C 0.5476 0.7262 0.72096 0.0
C668 C 0.57035 0.80831 0.75705 0.0
C669 C 0.54918 0.76616 0.74372 0.0
C670 C 0.57003 0.8278 0.76819 0.0
C671 C 0.54959 0.82619 0.77936 0.0
C672 C 0.55001 0.78721 0.75649 0.0
C673 C 0.52978 0.80469 0.77904 0.0
C674 C 0.52848 0.74764 0.73267 0.0
C675 C 0.56803 0.74509 0.73217 0.0
N676 N 0.53047 0.78615 0.76757 0.0
N677 N 0.56833 0.76437 0.74297 0.0
H678 H 0.74251 0.58091 0.76764 0.0
H679 H 0.80056 0.50827 0.7142 0.0
H680 H 0.71238 0.50891 0.78687 0.0
H681 H 0.84085 0.58049 0.73311 0.0
H682 H 0.76677 0.50894 0.7337 0.0
H683 H 0.77757 0.58189 0.74857 0.0
C684 C 0.74326 0.56534 0.76789 0.0
C685 C 0.72448 0.54479 0.77888 0.0
C686 C 0.78298 0.52467 0.73363 0.0
C687 C 0.76429 0.54575 0.75674 0.0
C688 C 0.8023 0.52433 0.72233 0.0
C689 C 0.82361 0.54436 0.72206 0.0
C690 C 0.78477 0.54524 0.74436 0.0
C691 C 0.82477 0.56465 0.73302 0.0
C692 C 0.76327 0.56594 0.7571 0.0
C693 C 0.72642 0.52515 0.77872 0.0
N694 N 0.80558 0.56461 0.74359 0.0
N695 N 0.74585 0.52609 0.76761 0.0
H696 H 0.29379 0.80014 0.71226 0.0
H697 H 0.16415 0.74393 0.77056 0.0
H698 H 0.26421 0.84193 0.73605 0.0
H699 H 0.20563 0.71313 0.78749 0.0
H700 H 0.1983 0.77885 0.75095 0.0
H701 H 0.25907 0.76673 0.7319 0.0
C702 C 0.27992 0.80231 0.72145 0.0
C703 C 0.28197 0.82394 0.72256 0.0
C704 C 0.19984 0.76443 0.75912 0.0
C705 C 0.24193 0.78548 0.74508 0.0
C706 C 0.1804 0.74451 0.7702 0.0
C707 C 0.18204 0.72557 0.78069 0.0
C708 C 0.22092 0.76519 0.75791 0.0
C709 C 0.20352 0.72728 0.77975 0.0
C710 C 0.26012 0.78319 0.73284 0.0
C711 C 0.26338 0.82559 0.73486 0.0
N712 N 0.22201 0.74661 0.76833 0.0
N713 N 0.24404 0.80657 0.74554 0.0
H714 H 0.42277 0.26166 0.73149 0.0
H715 H 0.49707 0.20433 0.777 0.0
H716 H 0.49359 0.29026 0.7046 0.0
H717 H 0.42414 0.16312 0.76621 0.0
H718 H 0.49526 0.23721 0.75676 0.0
H719 H 0.42196 0.22646 0.74968 0.0
C720 C 0.43809 0.26053 0.72931 0.0
C721 C 0.45831 0.27898 0.71658 0.0
C722 C 0.4796 0.221 0.75867 0.0
C723 C 0.45753 0.23904 0.73762 0.0
C724 C 0.48059 0.20217 0.77042 0.0
C725 C 0.46071 0.18086 0.77332 0.0
C726 C 0.45853 0.21882 0.75006 0.0
C727 C 0.43988 0.17922 0.76424 0.0
C728 C 0.43758 0.24045 0.73958 0.0
C729 C 0.47763 0.27655 0.71424 0.0
N730 N 0.43929 0.19803 0.75319 0.0
N731 N 0.47679 0.25711 0.72488 0.0
H732 H 0.16535 0.42525 0.7311 0.0
H733 H 0.29603 0.49792 0.78516 0.0
H734 H 0.20747 0.49719 0.7115 0.0
H735 H 0.26401 0.42566 0.7666 0.0
H736 H 0.26161 0.49722 0.76535 0.0
H737 H 0.19937 0.42427 0.75056 0.0
C738 C 0.18172 0.4408 0.73084 0.0
C739 C 0.18357 0.46134 0.71964 0.0
C740 C 0.26207 0.48149 0.76557 0.0
C741 C 0.22234 0.46038 0.74222 0.0
C742 C 0.2817 0.48185 0.77704 0.0
C743 C 0.28294 0.46181 0.77749 0.0
C744 C 0.24328 0.4609 0.75483 0.0
C745 C 0.2638 0.44151 0.76655 0.0
C746 C 0.20109 0.44021 0.74185 0.0
C747 C 0.20521 0.48097 0.7198 0.0
N748 N 0.24467 0.44153 0.7558 0.0
N749 N 0.22365 0.48002 0.73113 0.0
H750 H 0.84537 0.2643 0.76993 0.0
H751 H 0.71538 0.20723 0.71265 0.0
H752 H 0.80324 0.29414 0.78906 0.0
H753 H 0.74676 0.16648 0.73157 0.0
H754 H 0.7497 0.24069 0.73336 0.0
H755 H 0.81149 0.22952 0.74942 0.0
C756 C 0.82903 0.26353 0.76988 0.0
C757 C 0.82713 0.28216 0.78124 0.0
C758 C 0.74913 0.22445 0.73302 0.0
C759 C 0.78854 0.24269 0.75744 0.0
C760 C 0.72955 0.20532 0.72102 0.0
C761 C 0.72815 0.18397 0.72042 0.0
C762 C 0.76771 0.22244 0.74416 0.0
C763 C 0.7471 0.1826 0.73171 0.0
C764 C 0.80974 0.24369 0.75826 0.0
C765 C 0.80554 0.28022 0.78065 0.0
N766 N 0.76618 0.20161 0.743 0.0
N767 N 0.78719 0.26096 0.76873 0.0
H768 H 0.46661 0.16509 0.08789 0.0
H769 H 0.42149 0.10571 0.90691 0.0
H770 H 0.42271 0.09307 0.07243 0.0
H771 H 0.48439 0.16839 0.92351 0.0
H772 H 0.41081 0.10671 0.96664 0.0
H773 H 0.4616 0.17159 0.02753 0.0
C774 C 0.45507 0.15078 0.07212 0.0
C775 C 0.445 0.12854 0.08486 0.0
C776 C 0.42656 0.12067 0.95682 0.0
C777 C 0.43956 0.13571 0.01615 0.0
C778 C 0.43255 0.1202 0.92275 0.0
C779 C 0.45381 0.13701 0.91057 0.0
C780 C 0.44198 0.13812 0.97854 0.0
C781 C 0.46783 0.15517 0.93215 0.0
C782 C 0.45239 0.15445 0.03769 0.0
C783 C 0.43065 0.11047 0.06338 0.0
N784 N 0.46181 0.15511 0.96527 0.0
N785 N 0.42859 0.1144 0.02989 0.0
H786 H 0.32778 0.42016 0.91549 0.0
H787 H 0.31142 0.47522 0.08261 0.0
H788 H 0.31245 0.47451 0.91627 0.0
H789 H 0.33048 0.42351 0.08147 0.0
H790 H 0.29955 0.4666 0.02276 0.0
H791 H 0.31661 0.41251 0.97567 0.0
C792 C 0.32113 0.42984 0.92809 0.0
C793 C 0.32085 0.44786 0.91115 0.0
C794 C 0.30563 0.45659 0.03582 0.0
C795 C 0.30905 0.44001 0.98016 0.0
C796 C 0.31218 0.46139 0.07004 0.0
C797 C 0.32175 0.44993 0.08675 0.0
C798 C 0.30922 0.4406 0.01814 0.0
C799 C 0.32296 0.43254 0.06935 0.0
C800 C 0.31496 0.42565 0.9625 0.0
C801 C 0.31266 0.46032 0.92858 0.0
N802 N 0.31717 0.42867 0.03576 0.0
N803 N 0.30748 0.45646 0.96237 0.0
H804 H 0.84292 0.30656 0.91445 0.0
H805 H 0.90685 0.3205 0.09083 0.0
H806 H 0.91499 0.33286 0.92538 0.0
H807 H 0.84134 0.31558 0.08071 0.0
H808 H 0.90497 0.30972 0.03053 0.0
H809 H 0.83761 0.29467 0.97463 0.0
C810 C 0.85745 0.30888 0.92919 0.0
C811 C 0.87939 0.32058 0.91522 0.0
C812 C 0.89065 0.31022 0.04179 0.0
C813 C 0.87363 0.30764 0.98382 0.0
C814 C 0.89164 0.31614 0.07622 0.0
C815 C 0.87416 0.31876 0.0905 0.0
C816 C 0.87214 0.30714 0.02166 0.0
C817 C 0.85504 0.31354 0.07047 0.0
C818 C 0.85448 0.30232 0.96354 0.0
C819 C 0.89781 0.32375 0.93538 0.0
N820 N 0.85467 0.30829 0.03686 0.0
N821 N 0.89457 0.3176 0.96885 0.0
H822 H 0.58946 0.90396 0.08945 0.0
H823 H 0.54204 0.84287 0.91009 0.0
H824 H 0.52754 0.8399 0.07584 0.0
H825 H 0.58623 0.915 0.92396 0.0
H826 H 0.54771 0.83687 0.9704 0.0
H827 H 0.59908 0.90284 0.02923 0.0
C828 C 0.57843 0.88918 0.0741 0.0
C829 C 0.55776 0.87194 0.08736 0.0
C830 C 0.5568 0.85392 0.95991 0.0
C831 C 0.56829 0.87075 0.01872 0.0
C832 C 0.55374 0.8573 0.9255 0.0
C833 C 0.56376 0.87943 0.91231 0.0
C834 C 0.56996 0.87284 0.98099 0.0
C835 C 0.57833 0.89768 0.93335 0.0
C836 C 0.58378 0.88864 0.03974 0.0
C837 C 0.5437 0.85342 0.0664 0.0
N838 N 0.58078 0.89402 0.96682 0.0
N839 N 0.54906 0.85343 0.03293 0.0
H840 H 0.69678 0.58712 0.09216 0.0
H841 H 0.67608 0.58395 0.92089 0.0
H842 H 0.68101 0.51838 0.07156 0.0
H843 H 0.69788 0.53453 0.91197 0.0
H844 H 0.68799 0.58997 0.98069 0.0
H845 H 0.70773 0.59683 0.03193 0.0
C846 C 0.69642 0.57433 0.07517 0.0
C847 C 0.68787 0.55191 0.08649 0.0
C848 C 0.69125 0.57861 0.96543 0.0
C849 C 0.69949 0.56252 0.01783 0.0
C850 C 0.68443 0.57519 0.93124 0.0
C851 C 0.68628 0.55893 0.91163 0.0
C852 C 0.69936 0.56512 0.98024 0.0
C853 C 0.6965 0.54744 0.9263 0.0
C854 C 0.70231 0.57975 0.04075 0.0
C855 C 0.68743 0.53583 0.06358 0.0
N856 N 0.70211 0.5503 0.96003 0.0
N857 N 0.69288 0.54137 0.03024 0.0
H858 H 0.16614 0.70041 0.91254 0.0
H859 H 0.10389 0.6856 0.09094 0.0
H860 H 0.09415 0.67392 0.92515 0.0
H861 H 0.16866 0.68919 0.0783 0.0
H862 H 0.10533 0.69676 0.0309 0.0
H863 H 0.17192 0.7117 0.97301 0.0
C864 C 0.15172 0.69794 0.92772 0.0
C865 C 0.12967 0.68635 0.91411 0.0
C866 C 0.1196 0.69588 0.04157 0.0
C867 C 0.13598 0.69862 0.98303 0.0
C868 C 0.11887 0.68974 0.07585 0.0
C869 C 0.13625 0.68664 0.08933 0.0
C870 C 0.13778 0.69875 0.02081 0.0
C871 C 0.15503 0.69159 0.06869 0.0
C872 C 0.15496 0.70415 0.96224 0.0
C873 C 0.11141 0.68297 0.93486 0.0
N874 N 0.15518 0.69711 0.03527 0.0
N875 N 0.11492 0.68879 0.96845 0.0
H876 H 0.90801 0.58822 0.5895 0.0
H877 H 0.84486 0.54077 0.41174 0.0
H878 H 0.84169 0.52878 0.57819 0.0
H879 H 0.91725 0.58396 0.42446 0.0
H880 H 0.83941 0.54729 0.47193 0.0
H881 H 0.9069 0.59762 0.52925 0.0
C882 C 0.89279 0.57774 0.57464 0.0
C883 C 0.87485 0.55782 0.58858 0.0
C884 C 0.85642 0.55598 0.46121 0.0
C885 C 0.8737 0.56796 0.51976 0.0
C886 C 0.85948 0.55243 0.42686 0.0
C887 C 0.88151 0.56191 0.4134 0.0
C888 C 0.87555 0.56907 0.48196 0.0
C889 C 0.9 0.57645 0.43406 0.0
C890 C 0.89224 0.58295 0.54023 0.0
C891 C 0.85574 0.54441 0.56822 0.0
N892 N 0.89665 0.57937 0.46747 0.0
N893 N 0.85579 0.54952 0.53462 0.0
H894 H 0.33298 0.91531 0.58808 0.0
H895 H 0.30818 0.84413 0.41719 0.0
H896 H 0.31194 0.84404 0.58483 0.0
H897 H 0.33881 0.91701 0.423 0.0
H898 H 0.29701 0.84137 0.47752 0.0
H899 H 0.32229 0.91352 0.52795 0.0
C900 C 0.32523 0.89907 0.57494 0.0
C901 C 0.32317 0.87977 0.5912 0.0
C902 C 0.30551 0.85791 0.46531 0.0
C903 C 0.31192 0.87773 0.52217 0.0
C904 C 0.31168 0.85943 0.43085 0.0
C905 C 0.32437 0.88082 0.4154 0.0
C906 C 0.31228 0.87796 0.4842 0.0
C907 C 0.32897 0.90023 0.43417 0.0
C908 C 0.31934 0.89806 0.54055 0.0
C909 C 0.31354 0.85922 0.57305 0.0
N910 N 0.32322 0.89837 0.46772 0.0
N911 N 0.30867 0.85881 0.53924 0.0
H912 H 0.46337 0.3032 0.58544 0.0
H913 H 0.41878 0.32757 0.41227 0.0
H914 H 0.42184 0.33449 0.57737 0.0
H915 H 0.47148 0.31 0.41876 0.0
H916 H 0.40884 0.31619 0.47205 0.0
H917 H 0.45559 0.29197 0.52505 0.0
C918 C 0.4518 0.3068 0.57128 0.0
C919 C 0.44318 0.31972 0.58609 0.0
C920 C 0.4221 0.31411 0.46016 0.0
C921 C 0.43469 0.30758 0.51725 0.0
C922 C 0.4276 0.32039 0.42599 0.0
C923 C 0.44585 0.31956 0.41083 0.0
C924 C 0.43531 0.30743 0.47933 0.0
C925 C 0.45716 0.31068 0.4297 0.0
C926 C 0.44754 0.30061 0.5368 0.0
C927 C 0.42871 0.32446 0.56668 0.0
N928 N 0.452 0.30533 0.46324 0.0
N929 N 0.42518 0.31869 0.53311 0.0
H930 H 0.16599 0.46762 0.58653 0.0
H931 H 0.09849 0.4166 0.41317 0.0
H932 H 0.09348 0.4232 0.57826 0.0
H933 H 0.16643 0.47415 0.41959 0.0
H934 H 0.10065 0.40837 0.47363 0.0
H935 H 0.17012 0.45959 0.52652 0.0
C936 C 0.15109 0.45541 0.57243 0.0
C937 C 0.12939 0.44598 0.58706 0.0
C938 C 0.11539 0.42235 0.46157 0.0
C939 C 0.13381 0.43715 0.51866 0.0
C940 C 0.11422 0.42688 0.42704 0.0
C941 C 0.13237 0.44595 0.41163 0.0
C942 C 0.13472 0.43726 0.48077 0.0
C943 C 0.15219 0.45916 0.43071 0.0
C944 C 0.15339 0.451 0.53817 0.0
C945 C 0.1105 0.43069 0.56771 0.0
N946 N 0.15273 0.4548 0.4645 0.0
N947 N 0.11309 0.42698 0.53434 0.0
H948 H 0.70069 0.16395 0.40918 0.0
H949 H 0.68768 0.10117 0.58646 0.0
H950 H 0.67165 0.09161 0.42191 0.0
H951 H 0.69326 0.16693 0.57592 0.0
H952 H 0.69761 0.10242 0.52588 0.0
H953 H 0.71342 0.16952 0.46903 0.0
C954 C 0.6979 0.14936 0.42422 0.0
C955 C 0.68518 0.12731 0.41089 0.0
C956 C 0.69746 0.11694 0.5371 0.0
C957 C 0.69922 0.13341 0.47902 0.0
C958 C 0.69204 0.11632 0.57169 0.0
C959 C 0.68982 0.13403 0.58594 0.0
C960 C 0.70045 0.13533 0.5168 0.0
C961 C 0.69501 0.15305 0.5657 0.0
C962 C 0.70496 0.1525 0.45836 0.0
C963 C 0.68149 0.10887 0.43142 0.0
N964 N 0.69976 0.15307 0.53195 0.0
N965 N 0.68822 0.11229 0.46463 0.0
H966 H 0.54445 0.70154 0.41045 0.0
H967 H 0.59027 0.68439 0.58882 0.0
H968 H 0.58643 0.67107 0.42362 0.0
H969 H 0.53124 0.69183 0.57692 0.0
H970 H 0.59995 0.69491 0.52862 0.0
H971 H 0.55066 0.71312 0.47084 0.0
C972 C 0.55578 0.6982 0.42573 0.0
C973 C 0.565 0.68541 0.41233 0.0
C974 C 0.58531 0.69501 0.53947 0.0
C975 C 0.57182 0.69813 0.48107 0.0
C976 C 0.57994 0.68924 0.57384 0.0
C977 C 0.56005 0.68742 0.5876 0.0
C978 C 0.57052 0.69875 0.51885 0.0
C979 C 0.54683 0.69326 0.56709 0.0
C980 C 0.55915 0.7046 0.46018 0.0
C981 C 0.57912 0.681 0.43319 0.0
N982 N 0.5521 0.69836 0.53353 0.0
N983 N 0.58189 0.68709 0.46666 0.0
H984 H 0.52455 0.12435 0.17045 0.0
H985 H 0.60082 0.12377 0.32634 0.0
H986 H 0.50872 0.12788 0.27626 0.0
H987 H 0.62045 0.12814 0.22052 0.0
H988 H 0.5654 0.12193 0.30851 0.0
H989 H 0.55802 0.1224 0.18836 0.0
C990 C 0.52805 0.1246 0.1975 0.0
C991 C 0.51386 0.12638 0.22191 0.0
C992 C 0.5774 0.12321 0.28916 0.0
C993 C 0.55225 0.12418 0.24262 0.0
C994 C 0.59763 0.12422 0.29931 0.0
C995 C 0.61367 0.12621 0.27486 0.0
C996 C 0.57311 0.12414 0.25427 0.0
C997 C 0.60859 0.12668 0.24022 0.0
C998 C 0.54721 0.12352 0.2077 0.0
C999 C 0.51923 0.12659 0.25658 0.0
N1000 N 0.58879 0.12572 0.23097 0.0
N1001 N 0.53803 0.12557 0.26591 0.0
H1002 H 0.49988 0.62428 0.22009 0.0
H1003 H 0.38752 0.51013 0.27909 0.0
H1004 H 0.48461 0.60262 0.32516 0.0
H1005 H 0.40484 0.52986 0.17369 0.0
H1006 H 0.42348 0.54342 0.29649 0.0
H1007 H 0.46567 0.58923 0.20243 0.0
C1008 C 0.4894 0.61209 0.23942 0.0
C1009 C 0.49505 0.61641 0.27414 0.0
C1010 C 0.41946 0.54042 0.26954 0.0
C1011 C 0.45581 0.57632 0.25419 0.0
C1012 C 0.39892 0.52142 0.25962 0.0
C1013 C 0.39315 0.51727 0.22492 0.0
C1014 C 0.43429 0.55542 0.24456 0.0
C1015 C 0.40858 0.53243 0.20074 0.0
C1016 C 0.46986 0.59208 0.22934 0.0
C1017 C 0.48087 0.60001 0.2981 0.0
N1018 N 0.42838 0.55086 0.21102 0.0
N1019 N 0.46186 0.58076 0.2877 0.0
H1020 H 0.88013 0.49701 0.22229 0.0
H1021 H 0.87894 0.38354 0.28275 0.0
H1022 H 0.88359 0.48079 0.32793 0.0
H1023 H 0.88159 0.40292 0.17711 0.0
H1024 H 0.88151 0.41948 0.29995 0.0
H1025 H 0.88154 0.46303 0.20519 0.0
C1026 C 0.8813 0.48636 0.24187 0.0
C1027 C 0.88165 0.49168 0.27657 0.0
C1028 C 0.88165 0.41592 0.273 0.0
C1029 C 0.88315 0.4527 0.25725 0.0
C1030 C 0.88018 0.39541 0.2632 0.0
C1031 C 0.87996 0.3902 0.22847 0.0
C1032 C 0.88279 0.43128 0.24788 0.0
C1033 C 0.88164 0.40621 0.20419 0.0
C1034 C 0.88211 0.46696 0.23211 0.0
C1035 C 0.88322 0.4773 0.30087 0.0
N1036 N 0.88287 0.42595 0.21435 0.0
N1037 N 0.88379 0.45842 0.29076 0.0
H1038 H 0.49952 0.87795 0.28064 0.0
H1039 H 0.38552 0.87675 0.22294 0.0
H1040 H 0.48091 0.87855 0.17537 0.0
H1041 H 0.40683 0.8817 0.32799 0.0
H1042 H 0.42087 0.87838 0.20491 0.0
H1043 H 0.46616 0.88029 0.29856 0.0
C1044 C 0.48848 0.87868 0.26131 0.0
C1045 C 0.49294 0.87796 0.22648 0.0
C1046 C 0.41787 0.87923 0.23191 0.0
C1047 C 0.45468 0.88054 0.24674 0.0
C1048 C 0.39769 0.8783 0.24219 0.0
C1049 C 0.39318 0.87899 0.27701 0.0
C1050 C 0.43363 0.88075 0.25663 0.0
C1051 C 0.40958 0.88105 0.30087 0.0
C1052 C 0.46943 0.88002 0.27153 0.0
C1053 C 0.47809 0.879 0.20252 0.0
N1054 N 0.42899 0.88173 0.29026 0.0
N1055 N 0.45958 0.88012 0.21308 0.0
H1056 H 0.6255 0.49587 0.28101 0.0
H1057 H 0.51186 0.38335 0.22089 0.0
H1058 H 0.60482 0.47954 0.1757 0.0
H1059 H 0.52935 0.40161 0.32671 0.0
H1060 H 0.54551 0.41907 0.20399 0.0
H1061 H 0.58998 0.46203 0.29862 0.0
C1062 C 0.61344 0.48525 0.26163 0.0
C1063 C 0.61816 0.49047 0.22685 0.0
C1064 C 0.54196 0.41532 0.23093 0.0
C1065 C 0.5776 0.45171 0.24672 0.0
C1066 C 0.52275 0.39491 0.24056 0.0
C1067 C 0.51786 0.38946 0.27523 0.0
C1068 C 0.55646 0.43037 0.25615 0.0
C1069 C 0.53252 0.40511 0.29966 0.0
C1070 C 0.59317 0.46594 0.27167 0.0
C1071 C 0.60192 0.47614 0.20281 0.0
N1072 N 0.55121 0.4248 0.28966 0.0
N1073 N 0.58246 0.45739 0.21317 0.0
H1074 H 0.13153 0.62113 0.28077 0.0
H1075 H 0.13157 0.50831 0.21964 0.0
H1076 H 0.1299 0.60251 0.17495 0.0
H1077 H 0.12753 0.52418 0.32528 0.0
H1078 H 0.13008 0.54228 0.20262 0.0
H1079 H 0.12919 0.58526 0.29763 0.0
C1080 C 0.13057 0.60945 0.2611 0.0
C1081 C 0.131 0.61485 0.22642 0.0
C1082 C 0.1294 0.53827 0.22953 0.0
C1083 C 0.12843 0.57382 0.24546 0.0
C1084 C 0.13025 0.51887 0.23923 0.0
C1085 C 0.12976 0.51345 0.27392 0.0
C1086 C 0.12817 0.55242 0.25471 0.0
C1087 C 0.12801 0.52773 0.29823 0.0
C1088 C 0.12924 0.58896 0.27071 0.0
C1089 C 0.12968 0.59906 0.20199 0.0
N1090 N 0.1274 0.54659 0.28818 0.0
N1091 N 0.12857 0.57934 0.21197 0.0
H1092 H 0.49938 0.87833 0.72085 0.0
H1093 H 0.38505 0.87527 0.782 0.0
H1094 H 0.48331 0.88198 0.82652 0.0
H1095 H 0.40415 0.87793 0.67621 0.0
H1096 H 0.42118 0.87818 0.79891 0.0
H1097 H 0.46485 0.87878 0.70389 0.0
C1098 C 0.48866 0.87936 0.74046 0.0
C1099 C 0.49418 0.88004 0.77513 0.0
C1100 C 0.4175 0.87821 0.77199 0.0
C1101 C 0.45458 0.88041 0.75599 0.0
C1102 C 0.39686 0.87652 0.76235 0.0
C1103 C 0.39155 0.87626 0.72767 0.0
C1104 C 0.43289 0.87955 0.74675 0.0
C1105 C 0.40752 0.87801 0.70326 0.0
C1106 C 0.46894 0.8796 0.73079 0.0
C1107 C 0.47969 0.88138 0.79948 0.0
N1108 N 0.4274 0.87947 0.71326 0.0
N1109 N 0.46051 0.8814 0.78946 0.0
H1110 H 0.602 0.47875 0.82716 0.0
H1111 H 0.52517 0.40204 0.67145 0.0
H1112 H 0.62105 0.49442 0.72122 0.0
H1113 H 0.51002 0.38217 0.77719 0.0
H1114 H 0.55869 0.43746 0.68934 0.0
H1115 H 0.56668 0.44496 0.80946 0.0
C1116 C 0.5987 0.47515 0.80013 0.0
C1117 C 0.61455 0.48939 0.77561 0.0
C1118 C 0.54802 0.42541 0.70867 0.0
C1119 C 0.5741 0.45065 0.75516 0.0
C1120 C 0.52884 0.40517 0.69848 0.0
C1121 C 0.51481 0.38906 0.72288 0.0
C1122 C 0.55326 0.42968 0.74356 0.0
C1123 C 0.5204 0.39408 0.75753 0.0
C1124 C 0.57853 0.45581 0.79006 0.0
C1125 C 0.60935 0.48388 0.74098 0.0
N1126 N 0.53922 0.41392 0.76684 0.0
N1127 N 0.5896 0.46493 0.7318 0.0
H1128 H 0.12538 0.60294 0.82787 0.0
H1129 H 0.12694 0.52734 0.67173 0.0
H1130 H 0.12947 0.62272 0.72217 0.0
H1131 H 0.13056 0.51163 0.77758 0.0
H1132 H 0.12461 0.56062 0.68964 0.0
H1133 H 0.12396 0.5678 0.80981 0.0
C1134 C 0.12586 0.59984 0.80081 0.0
C1135 C 0.12765 0.61585 0.77647 0.0
C1136 C 0.12584 0.54987 0.70897 0.0
C1137 C 0.12608 0.57558 0.75561 0.0
C1138 C 0.12714 0.53083 0.69878 0.0
C1139 C 0.12905 0.51673 0.72322 0.0
C1140 C 0.1264 0.55488 0.7439 0.0
C1141 C 0.12918 0.52208 0.75788 0.0
C1142 C 0.12509 0.57976 0.79053 0.0
C1143 C 0.12816 0.61088 0.74179 0.0
N1144 N 0.12793 0.54075 0.76718 0.0
N1145 N 0.12745 0.59121 0.73239 0.0
H1146 H 0.62575 0.1304 0.77834 0.0
H1147 H 0.51141 0.12773 0.71815 0.0
H1148 H 0.60557 0.12625 0.67282 0.0
H1149 H 0.53049 0.12943 0.82375 0.0
H1150 H 0.545 0.12554 0.70101 0.0
H1151 H 0.5901 0.12838 0.79562 0.0
C1152 C 0.61376 0.12893 0.75883 0.0
C1153 C 0.61868 0.1286 0.7241 0.0
C1154 C 0.54178 0.12629 0.72794 0.0
C1155 C 0.5779 0.12639 0.74362 0.0
C1156 C 0.5226 0.12753 0.73772 0.0
C1157 C 0.51822 0.12887 0.7724 0.0
C1158 C 0.5567 0.12645 0.75305 0.0
C1159 C 0.53326 0.1285 0.7967 0.0
C1160 C 0.59341 0.12779 0.76869 0.0
C1161 C 0.60251 0.12664 0.69989 0.0
N1162 N 0.55186 0.12744 0.78657 0.0
N1163 N 0.58292 0.12572 0.71009 0.0
H1164 H 0.38564 0.50979 0.71936 0.0
H1165 H 0.4983 0.62321 0.7795 0.0
H1166 H 0.40523 0.52653 0.82496 0.0
H1167 H 0.48155 0.60367 0.67389 0.0
H1168 H 0.46483 0.58737 0.79674 0.0
H1169 H 0.42124 0.54356 0.70211 0.0
C1170 C 0.39749 0.5205 0.7389 0.0
C1171 C 0.39243 0.51541 0.77363 0.0
C1172 C 0.46853 0.59087 0.76979 0.0
C1173 C 0.43313 0.55414 0.75415 0.0
C1174 C 0.48764 0.61133 0.75996 0.0
C1175 C 0.49265 0.61647 0.72522 0.0
C1176 C 0.45427 0.57548 0.7447 0.0
C1177 C 0.47829 0.60044 0.70097 0.0
C1178 C 0.41781 0.53978 0.72906 0.0
C1179 C 0.40841 0.52985 0.79788 0.0
N1180 N 0.4597 0.58074 0.71116 0.0
N1181 N 0.42796 0.54861 0.78769 0.0
H1182 H 0.88331 0.40454 0.83012 0.0
H1183 H 0.88209 0.48036 0.67415 0.0
H1184 H 0.87976 0.38517 0.72428 0.0
H1185 H 0.8782 0.49595 0.77998 0.0
H1186 H 0.88466 0.44723 0.69206 0.0
H1187 H 0.88487 0.43979 0.81223 0.0
C1188 C 0.88298 0.40776 0.80307 0.0
C1189 C 0.88129 0.39183 0.77864 0.0
C1190 C 0.88333 0.45792 0.7114 0.0
C1191 C 0.88303 0.4322 0.75797 0.0
C1192 C 0.88189 0.47688 0.7012 0.0
C1193 C 0.87981 0.49088 0.72563 0.0
C1194 C 0.88272 0.4529 0.74632 0.0
C1195 C 0.8797 0.48557 0.7603 0.0
C1196 C 0.88383 0.42789 0.79289 0.0
C1197 C 0.88097 0.39694 0.74398 0.0
N1198 N 0.88106 0.46696 0.76961 0.0
N1199 N 0.88176 0.41665 0.73468 0.0
loop_
_geom_bond_atom_site_label_1
_geom_bond_atom_site_label_2
_geom_bond_distance
_geom_bond_site_symmetry_2
_ccdc_geom_bond_type
Co0 O1 2.216 . S
Co0 O2 2.091 . S
Co0 O4 2.004 . S
Co0 O10 2.021 . S
Co0 O12 2.137 . S
Co0 O13 2.244 . S
O1 Co0 2.216 . S
O1 C8 1.247 . S
O2 Co0 2.091 . S
O2 C8 1.261 . S
C3 O12 1.247 . S
C3 O13 1.272 . S
O4 Co0 2.004 . S
O4 C9 1.259 . S
Co5 O6 2.061 . S
Co5 O11 2.052 . S
Co5 O13 2.135 . S
O6 Co5 2.061 . S
O6 C9 1.235 . S
C7 O10 1.238 . S
C7 O11 1.241 . S
C8 O1 1.247 . S
C8 O2 1.261 . S
C9 O4 1.259 . S
C9 O6 1.235 . S
O10 Co0 2.021 . S
O10 C7 1.238 . S
O11 Co5 2.052 . S
O11 C7 1.241 . S
O12 Co0 2.137 . S
O12 C3 1.247 . S
O13 Co0 2.244 . S
O13 C3 1.272 . S
O13 Co5 2.135 . S
Co14 O15 2.216 . S
Co14 O16 2.091 . S
Co14 O18 2.004 . S
Co14 O24 2.021 . S
Co14 O26 2.137 . S
Co14 O27 2.244 . S
O15 Co14 2.216 . S
O15 C22 1.247 . S
O16 Co14 2.091 . S
O16 C22 1.261 . S
C17 O26 1.247 . S
C17 O27 1.272 . S
O18 Co14 2.004 . S
O18 C23 1.259 . S
Co19 O20 2.061 . S
Co19 O25 2.052 . S
Co19 O27 2.135 . S
O20 Co19 2.061 . S
O20 C23 1.235 . S
C21 O24 1.238 . S
C21 O25 1.241 . S
C22 O15 1.247 . S
C22 O16 1.261 . S
C23 O18 1.259 . S
C23 O20 1.235 . S
O24 Co14 2.021 . S
O24 C21 1.238 . S
O25 Co19 2.052 . S
O25 C21 1.241 . S
O26 Co14 2.137 . S
O26 C17 1.247 . S
O27 Co14 2.244 . S
O27 C17 1.272 . S
O27 Co19 2.135 . S
Co28 O29 2.216 . S
Co28 O30 2.091 . S
Co28 O32 2.004 . S
Co28 O38 2.021 . S
Co28 O40 2.137 . S
Co28 O41 2.244 . S
O29 Co28 2.216 . S
O29 C36 1.247 . S
O30 Co28 2.091 . S
O30 C36 1.261 . S
C31 O40 1.247 . S
C31 O41 1.272 . S
O32 Co28 2.004 . S
O32 C37 1.259 . S
Co33 O34 2.061 . S
Co33 O39 2.052 . S
Co33 O41 2.135 . S
O34 Co33 2.061 . S
O34 C37 1.235 . S
C35 O38 1.238 . S
C35 O39 1.241 . S
C36 O29 1.247 . S
C36 O30 1.261 . S
C37 O32 1.259 . S
C37 O34 1.235 . S
O38 Co28 2.021 . S
O38 C35 1.238 . S
O39 Co33 2.052 . S
O39 C35 1.241 . S
O40 Co28 2.137 . S
O40 C31 1.247 . S
O41 Co28 2.244 . S
O41 C31 1.272 . S
O41 Co33 2.135 . S
Co42 O43 2.216 . S
Co42 O44 2.091 . S
Co42 O46 2.004 . S
Co42 O52 2.021 . S
Co42 O54 2.137 . S
Co42 O55 2.244 . S
O43 Co42 2.216 . S
O43 C50 1.247 . S
O44 Co42 2.091 . S
O44 C50 1.261 . S
C45 O54 1.247 . S
C45 O55 1.272 . S
O46 Co42 2.004 . S
O46 C51 1.259 . S
Co47 O48 2.061 . S
Co47 O53 2.052 . S
Co47 O55 2.135 . S
O48 Co47 2.061 . S
O48 C51 1.235 . S
C49 O52 1.238 . S
C49 O53 1.241 . S
C50 O43 1.247 . S
C50 O44 1.261 . S
C51 O46 1.259 . S
C51 O48 1.235 . S
O52 Co42 2.021 . S
O52 C49 1.238 . S
O53 Co47 2.052 . S
O53 C49 1.241 . S
O54 Co42 2.137 . S
O54 C45 1.247 . S
O55 Co42 2.244 . S
O55 C45 1.272 . S
O55 Co47 2.135 . S
Co56 O57 2.216 . S
Co56 O58 2.091 . S
Co56 O60 2.004 . S
Co56 O66 2.021 . S
Co56 O68 2.137 . S
Co56 O69 2.244 . S
O57 Co56 2.216 . S
O57 C64 1.247 . S
O58 Co56 2.091 . S
O58 C64 1.261 . S
C59 O68 1.247 . S
C59 O69 1.272 . S
O60 Co56 2.004 . S
O60 C65 1.259 . S
Co61 O62 2.061 . S
Co61 O67 2.052 . S
Co61 O69 2.135 . S
O62 Co61 2.061 . S
O62 C65 1.235 . S
C63 O66 1.238 . S
C63 O67 1.241 . S
C64 O57 1.247 . S
C64 O58 1.261 . S
C65 O60 1.259 . S
C65 O62 1.235 . S
O66 Co56 2.021 . S
O66 C63 1.238 . S
O67 Co61 2.052 . S
O67 C63 1.241 . S
O68 Co56 2.137 . S
O68 C59 1.247 . S
O69 Co56 2.244 . S
O69 C59 1.272 . S
O69 Co61 2.135 . S
Co70 O71 2.216 . S
Co70 O72 2.091 . S
Co70 O74 2.004 . S
Co70 O80 2.021 . S
Co70 O82 2.137 . S
Co70 O83 2.244 . S
O71 Co70 2.216 . S
O71 C78 1.247 . S
O72 Co70 2.091 . S
O72 C78 1.261 . S
C73 O82 1.247 . S
C73 O83 1.272 . S
O74 Co70 2.004 . S
O74 C79 1.259 . S
Co75 O76 2.061 . S
Co75 O81 2.052 . S
Co75 O83 2.135 . S
O76 Co75 2.061 . S
O76 C79 1.235 . S
C77 O80 1.238 . S
C77 O81 1.241 . S
C78 O71 1.247 . S
C78 O72 1.261 . S
C79 O74 1.259 . S
C79 O76 1.235 . S
O80 Co70 2.021 . S
O80 C77 1.238 . S
O81 Co75 2.052 . S
O81 C77 1.241 . S
O82 Co70 2.137 . S
O82 C73 1.247 . S
O83 Co70 2.244 . S
O83 C73 1.272 . S
O83 Co75 2.135 . S
Co84 O85 2.216 . S
Co84 O86 2.091 . S
Co84 O88 2.004 . S
Co84 O94 2.021 . S
Co84 O96 2.137 . S
Co84 O97 2.244 . S
O85 Co84 2.216 . S
O85 C92 1.247 . S
O86 Co84 2.091 . S
O86 C92 1.261 . S
C87 O96 1.247 . S
C87 O97 1.272 . S
O88 Co84 2.004 . S
O88 C93 1.259 . S
Co89 O90 2.061 . S
Co89 O95 2.052 . S
Co89 O97 2.135 . S
O90 Co89 2.061 . S
O90 C93 1.235 . S
C91 O94 1.238 . S
C91 O95 1.241 . S
C92 O85 1.247 . S
C92 O86 1.261 . S
C93 O88 1.259 . S
C93 O90 1.235 . S
O94 Co84 2.021 . S
O94 C91 1.238 . S
O95 Co89 2.052 . S
O95 C91 1.241 . S
O96 Co84 2.137 . S
O96 C87 1.247 . S
O97 Co84 2.244 . S
O97 C87 1.272 . S
O97 Co89 2.135 . S
Co98 O99 2.216 . S
Co98 O100 2.091 . S
Co98 O102 2.004 . S
Co98 O108 2.021 . S
Co98 O110 2.137 . S
Co98 O111 2.244 . S
O99 Co98 2.216 . S
O99 C106 1.247 . S
O100 Co98 2.091 . S
O100 C106 1.261 . S
C101 O110 1.247 . S
C101 O111 1.272 . S
O102 Co98 2.004 . S
O102 C107 1.259 . S
Co103 O104 2.061 . S
Co103 O109 2.052 . S
Co103 O111 2.135 . S
O104 Co103 2.061 . S
O104 C107 1.235 . S
C105 O108 1.238 . S
C105 O109 1.241 . S
C106 O99 1.247 . S
C106 O100 1.261 . S
C107 O102 1.259 . S
C107 O104 1.235 . S
O108 Co98 2.021 . S
O108 C105 1.238 . S
O109 Co103 2.052 . S
O109 C105 1.241 . S
O110 Co98 2.137 . S
O110 C101 1.247 . S
O111 Co98 2.244 . S
O111 C101 1.272 . S
O111 Co103 2.135 . S
Co112 O113 2.216 . S
Co112 O114 2.091 . S
Co112 O116 2.004 . S
Co112 O122 2.021 . S
Co112 O124 2.137 . S
Co112 O125 2.244 . S
O113 Co112 2.216 . S
O113 C120 1.247 . S
O114 Co112 2.091 . S
O114 C120 1.261 . S
C115 O124 1.247 . S
C115 O125 1.272 . S
O116 Co112 2.004 . S
O116 C121 1.259 . S
Co117 O118 2.061 . S
Co117 O123 2.052 . S
Co117 O125 2.135 . S
O118 Co117 2.061 . S
O118 C121 1.235 . S
C119 O122 1.238 . S
C119 O123 1.241 . S
C120 O113 1.247 . S
C120 O114 1.261 . S
C121 O116 1.259 . S
C121 O118 1.235 . S
O122 Co112 2.021 . S
O122 C119 1.238 . S
O123 Co117 2.052 . S
O123 C119 1.241 . S
O124 Co112 2.137 . S
O124 C115 1.247 . S
O125 Co112 2.244 . S
O125 C115 1.272 . S
O125 Co117 2.135 . S
Co126 O127 2.216 . S
Co126 O128 2.091 . S
Co126 O130 2.004 . S
Co126 O136 2.021 . S
Co126 O138 2.137 . S
Co126 O139 2.244 . S
O127 Co126 2.216 . S
O127 C134 1.247 . S
O128 Co126 2.091 . S
O128 C134 1.261 . S
C129 O138 1.247 . S
C129 O139 1.272 . S
O130 Co126 2.004 . S
O130 C135 1.259 . S
Co131 O132 2.061 . S
Co131 O137 2.052 . S
Co131 O139 2.135 . S
O132 Co131 2.061 . S
O132 C135 1.235 . S
C133 O136 1.238 . S
C133 O137 1.241 . S
C134 O127 1.247 . S
C134 O128 1.261 . S
C135 O130 1.259 . S
C135 O132 1.235 . S
O136 Co126 2.021 . S
O136 C133 1.238 . S
O137 Co131 2.052 . S
O137 C133 1.241 . S
O138 Co126 2.137 . S
O138 C129 1.247 . S
O139 Co126 2.244 . S
O139 C129 1.272 . S
O139 Co131 2.135 . S
Co140 O141 2.216 . S
Co140 O142 2.091 . S
Co140 O144 2.004 . S
Co140 O150 2.021 . S
Co140 O152 2.137 . S
Co140 O153 2.244 . S
O141 Co140 2.216 . S
O141 C148 1.247 . S
O142 Co140 2.091 . S
O142 C148 1.261 . S
C143 O152 1.247 . S
C143 O153 1.272 . S
O144 Co140 2.004 . S
O144 C149 1.259 . S
Co145 O146 2.061 . S
Co145 O151 2.052 . S
Co145 O153 2.135 . S
O146 Co145 2.061 . S
O146 C149 1.235 . S
C147 O150 1.238 . S
C147 O151 1.241 . S
C148 O141 1.247 . S
C148 O142 1.261 . S
C149 O144 1.259 . S
C149 O146 1.235 . S
O150 Co140 2.021 . S
O150 C147 1.238 . S
O151 Co145 2.052 . S
O151 C147 1.241 . S
O152 Co140 2.137 . S
O152 C143 1.247 . S
O153 Co140 2.244 . S
O153 C143 1.272 . S
O153 Co145 2.135 . S
Co154 O155 2.216 . S
Co154 O156 2.091 . S
Co154 O158 2.004 . S
Co154 O164 2.021 . S
Co154 O166 2.137 . S
Co154 O167 2.244 . S
O155 Co154 2.216 . S
O155 C162 1.247 . S
O156 Co154 2.091 . S
O156 C162 1.261 . S
C157 O166 1.247 . S
C157 O167 1.272 . S
O158 Co154 2.004 . S
O158 C163 1.259 . S
Co159 O160 2.061 . S
Co159 O165 2.052 . S
Co159 O167 2.135 . S
O160 Co159 2.061 . S
O160 C163 1.235 . S
C161 O164 1.238 . S
C161 O165 1.241 . S
C162 O155 1.247 . S
C162 O156 1.261 . S
C163 O158 1.259 . S
C163 O160 1.235 . S
O164 Co154 2.021 . S
O164 C161 1.238 . S
O165 Co159 2.052 . S
O165 C161 1.241 . S
O166 Co154 2.137 . S
O166 C157 1.247 . S
O167 Co154 2.244 . S
O167 C157 1.272 . S
O167 Co159 2.135 . S
Co168 O169 2.216 . S
Co168 O170 2.091 . S
Co168 O172 2.004 . S
Co168 O178 2.021 . S
Co168 O180 2.137 . S
Co168 O181 2.244 . S
O169 Co168 2.216 . S
O169 C176 1.247 . S
O170 Co168 2.091 . S
O170 C176 1.261 . S
C171 O180 1.247 . S
C171 O181 1.272 . S
O172 Co168 2.004 . S
O172 C177 1.259 . S
Co173 O174 2.061 . S
Co173 O179 2.052 . S
Co173 O181 2.135 . S
O174 Co173 2.061 . S
O174 C177 1.235 . S
C175 O178 1.238 . S
C175 O179 1.241 . S
C176 O169 1.247 . S
C176 O170 1.261 . S
C177 O172 1.259 . S
C177 O174 1.235 . S
O178 Co168 2.021 . S
O178 C175 1.238 . S
O179 Co173 2.052 . S
O179 C175 1.241 . S
O180 Co168 2.137 . S
O180 C171 1.247 . S
O181 Co168 2.244 . S
O181 C171 1.272 . S
O181 Co173 2.135 . S
Co182 O183 2.216 . S
Co182 O184 2.091 . S
Co182 O186 2.004 . S
Co182 O192 2.021 . S
Co182 O194 2.137 . S
Co182 O195 2.244 . S
O183 Co182 2.216 . S
O183 C190 1.247 . S
O184 Co182 2.091 . S
O184 C190 1.261 . S
C185 O194 1.247 . S
C185 O195 1.272 . S
O186 Co182 2.004 . S
O186 C191 1.259 . S
Co187 O188 2.061 . S
Co187 O193 2.052 . S
Co187 O195 2.135 . S
O188 Co187 2.061 . S
O188 C191 1.235 . S
C189 O192 1.238 . S
C189 O193 1.241 . S
C190 O183 1.247 . S
C190 O184 1.261 . S
C191 O186 1.259 . S
C191 O188 1.235 . S
O192 Co182 2.021 . S
O192 C189 1.238 . S
O193 Co187 2.052 . S
O193 C189 1.241 . S
O194 Co182 2.137 . S
O194 C185 1.247 . S
O195 Co182 2.244 . S
O195 C185 1.272 . S
O195 Co187 2.135 . S
Co196 O197 2.216 . S
Co196 O198 2.091 . S
Co196 O200 2.004 . S
Co196 O206 2.021 . S
Co196 O208 2.137 . S
Co196 O209 2.244 . S
O197 Co196 2.216 . S
O197 C204 1.247 . S
O198 Co196 2.091 . S
O198 C204 1.261 . S
C199 O208 1.247 . S
C199 O209 1.272 . S
O200 Co196 2.004 . S
O200 C205 1.259 . S
Co201 O202 2.061 . S
Co201 O207 2.052 . S
Co201 O209 2.135 . S
O202 Co201 2.061 . S
O202 C205 1.235 . S
C203 O206 1.238 . S
C203 O207 1.241 . S
C204 O197 1.247 . S
C204 O198 1.261 . S
C205 O200 1.259 . S
C205 O202 1.235 . S
O206 Co196 2.021 . S
O206 C203 1.238 . S
O207 Co201 2.052 . S
O207 C203 1.241 . S
O208 Co196 2.137 . S
O208 C199 1.247 . S
O209 Co196 2.244 . S
O209 C199 1.272 . S
O209 Co201 2.135 . S
Co210 O211 2.216 . S
Co210 O212 2.091 . S
Co210 O214 2.004 . S
Co210 O220 2.021 . S
Co210 O222 2.137 . S
Co210 O223 2.244 . S
O211 Co210 2.216 . S
O211 C218 1.247 . S
O212 Co210 2.091 . S
O212 C218 1.261 . S
C213 O222 1.247 . S
C213 O223 1.272 . S
O214 Co210 2.004 . S
O214 C219 1.259 . S
Co215 O216 2.061 . S
Co215 O221 2.052 . S
Co215 O223 2.135 . S
O216 Co215 2.061 . S
O216 C219 1.235 . S
C217 O220 1.238 . S
C217 O221 1.241 . S
C218 O211 1.247 . S
C218 O212 1.261 . S
C219 O214 1.259 . S
C219 O216 1.235 . S
O220 Co210 2.021 . S
O220 C217 1.238 . S
O221 Co215 2.052 . S
O221 C217 1.241 . S
O222 Co210 2.137 . S
O222 C213 1.247 . S
O223 Co210 2.244 . S
O223 C213 1.272 . S
O223 Co215 2.135 . S
Co224 O225 2.216 . S
Co224 O226 2.091 . S
Co224 O228 2.004 . S
Co224 O234 2.021 . S
Co224 O236 2.137 . S
Co224 O237 2.244 . S
O225 Co224 2.216 . S
O225 C232 1.247 . S
O226 Co224 2.091 . S
O226 C232 1.261 . S
C227 O236 1.247 . S
C227 O237 1.272 . S
O228 Co224 2.004 . S
O228 C233 1.259 . S
Co229 O230 2.061 . S
Co229 O235 2.052 . S
Co229 O237 2.135 . S
O230 Co229 2.061 . S
O230 C233 1.235 . S
C231 O234 1.238 . S
C231 O235 1.241 . S
C232 O225 1.247 . S
C232 O226 1.261 . S
C233 O228 1.259 . S
C233 O230 1.235 . S
O234 Co224 2.021 . S
O234 C231 1.238 . S
O235 Co229 2.052 . S
O235 C231 1.241 . S
O236 Co224 2.137 . S
O236 C227 1.247 . S
O237 Co224 2.244 . S
O237 C227 1.272 . S
O237 Co229 2.135 . S
Co238 O239 2.216 . S
Co238 O240 2.091 . S
Co238 O242 2.004 . S
Co238 O248 2.021 . S
Co238 O250 2.137 . S
Co238 O251 2.244 . S
O239 Co238 2.216 . S
O239 C246 1.247 . S
O240 Co238 2.091 . S
O240 C246 1.261 . S
C241 O250 1.247 . S
C241 O251 1.272 . S
O242 Co238 2.004 . S
O242 C247 1.259 . S
Co243 O244 2.061 . S
Co243 O249 2.052 . S
Co243 O251 2.135 . S
O244 Co243 2.061 . S
O244 C247 1.235 . S
C245 O248 1.238 . S
C245 O249 1.241 . S
C246 O239 1.247 . S
C246 O240 1.261 . S
C247 O242 1.259 . S
C247 O244 1.235 . S
O248 Co238 2.021 . S
O248 C245 1.238 . S
O249 Co243 2.052 . S
O249 C245 1.241 . S
O250 Co238 2.137 . S
O250 C241 1.247 . S
O251 Co238 2.244 . S
O251 C241 1.272 . S
O251 Co243 2.135 . S
Co252 O253 2.216 . S
Co252 O254 2.091 . S
Co252 O256 2.004 . S
Co252 O262 2.021 . S
Co252 O264 2.137 . S
Co252 O265 2.244 . S
O253 Co252 2.216 . S
O253 C260 1.247 . S
O254 Co252 2.091 . S
O254 C260 1.261 . S
C255 O264 1.247 . S
C255 O265 1.272 . S
O256 Co252 2.004 . S
O256 C261 1.259 . S
Co257 O258 2.061 . S
Co257 O263 2.052 . S
Co257 O265 2.135 . S
O258 Co257 2.061 . S
O258 C261 1.235 . S
C259 O262 1.238 . S
C259 O263 1.241 . S
C260 O253 1.247 . S
C260 O254 1.261 . S
C261 O256 1.259 . S
C261 O258 1.235 . S
O262 Co252 2.021 . S
O262 C259 1.238 . S
O263 Co257 2.052 . S
O263 C259 1.241 . S
O264 Co252 2.137 . S
O264 C255 1.247 . S
O265 Co252 2.244 . S
O265 C255 1.272 . S
O265 Co257 2.135 . S
Co266 O267 2.216 . S
Co266 O268 2.091 . S
Co266 O270 2.004 . S
Co266 O276 2.021 . S
Co266 O278 2.137 . S
Co266 O279 2.244 . S
O267 Co266 2.216 . S
O267 C274 1.247 . S
O268 Co266 2.091 . S
O268 C274 1.261 . S
C269 O278 1.247 . S
C269 O279 1.272 . S
O270 Co266 2.004 . S
O270 C275 1.259 . S
Co271 O272 2.061 . S
Co271 O277 2.052 . S
Co271 O279 2.135 . S
O272 Co271 2.061 . S
O272 C275 1.235 . S
C273 O276 1.238 . S
C273 O277 1.241 . S
C274 O267 1.247 . S
C274 O268 1.261 . S
C275 O270 1.259 . S
C275 O272 1.235 . S
O276 Co266 2.021 . S
O276 C273 1.238 . S
O277 Co271 2.052 . S
O277 C273 1.241 . S
O278 Co266 2.137 . S
O278 C269 1.247 . S
O279 Co266 2.244 . S
O279 C269 1.272 . S
O279 Co271 2.135 . S
Co280 O281 2.216 . S
Co280 O282 2.091 . S
Co280 O284 2.004 . S
Co280 O290 2.021 . S
Co280 O292 2.137 . S
Co280 O293 2.244 . S
O281 Co280 2.216 . S
O281 C288 1.247 . S
O282 Co280 2.091 . S
O282 C288 1.261 . S
C283 O292 1.247 . S
C283 O293 1.272 . S
O284 Co280 2.004 . S
O284 C289 1.259 . S
Co285 O286 2.061 . S
Co285 O291 2.052 . S
Co285 O293 2.135 . S
O286 Co285 2.061 . S
O286 C289 1.235 . S
C287 O290 1.238 . S
C287 O291 1.241 . S
C288 O281 1.247 . S
C288 O282 1.261 . S
C289 O284 1.259 . S
C289 O286 1.235 . S
O290 Co280 2.021 . S
O290 C287 1.238 . S
O291 Co285 2.052 . S
O291 C287 1.241 . S
O292 Co280 2.137 . S
O292 C283 1.247 . S
O293 Co280 2.244 . S
O293 C283 1.272 . S
O293 Co285 2.135 . S
Co294 O295 2.216 . S
Co294 O296 2.091 . S
Co294 O298 2.004 . S
Co294 O304 2.021 . S
Co294 O306 2.137 . S
Co294 O307 2.244 . S
O295 Co294 2.216 . S
O295 C302 1.247 . S
O296 Co294 2.091 . S
O296 C302 1.261 . S
C297 O306 1.247 . S
C297 O307 1.272 . S
O298 Co294 2.004 . S
O298 C303 1.259 . S
Co299 O300 2.061 . S
Co299 O305 2.052 . S
Co299 O307 2.135 . S
O300 Co299 2.061 . S
O300 C303 1.235 . S
C301 O304 1.238 . S
C301 O305 1.241 . S
C302 O295 1.247 . S
C302 O296 1.261 . S
C303 O298 1.259 . S
C303 O300 1.235 . S
O304 Co294 2.021 . S
O304 C301 1.238 . S
O305 Co299 2.052 . S
O305 C301 1.241 . S
O306 Co294 2.137 . S
O306 C297 1.247 . S
O307 Co294 2.244 . S
O307 C297 1.272 . S
O307 Co299 2.135 . S
Co308 O309 2.216 . S
Co308 O310 2.091 . S
Co308 O312 2.004 . S
Co308 O318 2.021 . S
Co308 O320 2.137 . S
Co308 O321 2.244 . S
O309 Co308 2.216 . S
O309 C316 1.247 . S
O310 Co308 2.091 . S
O310 C316 1.261 . S
C311 O320 1.247 . S
C311 O321 1.272 . S
O312 Co308 2.004 . S
O312 C317 1.259 . S
Co313 O314 2.061 . S
Co313 O319 2.052 . S
Co313 O321 2.135 . S
O314 Co313 2.061 . S
O314 C317 1.235 . S
C315 O318 1.238 . S
C315 O319 1.241 . S
C316 O309 1.247 . S
C316 O310 1.261 . S
C317 O312 1.259 . S
C317 O314 1.235 . S
O318 Co308 2.021 . S
O318 C315 1.238 . S
O319 Co313 2.052 . S
O319 C315 1.241 . S
O320 Co308 2.137 . S
O320 C311 1.247 . S
O321 Co308 2.244 . S
O321 C311 1.272 . S
O321 Co313 2.135 . S
Co322 O323 2.216 . S
Co322 O324 2.091 . S
Co322 O326 2.004 . S
Co322 O332 2.021 . S
Co322 O334 2.137 . S
Co322 O335 2.244 . S
O323 Co322 2.216 . S
O323 C330 1.247 . S
O324 Co322 2.091 . S
O324 C330 1.261 . S
C325 O334 1.247 . S
C325 O335 1.272 . S
O326 Co322 2.004 . S
O326 C331 1.259 . S
Co327 O328 2.061 . S
Co327 O333 2.052 . S
Co327 O335 2.135 . S
O328 Co327 2.061 . S
O328 C331 1.235 . S
C329 O332 1.238 . S
C329 O333 1.241 . S
C330 O323 1.247 . S
C330 O324 1.261 . S
C331 O326 1.259 . S
C331 O328 1.235 . S
O332 Co322 2.021 . S
O332 C329 1.238 . S
O333 Co327 2.052 . S
O333 C329 1.241 . S
O334 Co322 2.137 . S
O334 C325 1.247 . S
O335 Co322 2.244 . S
O335 C325 1.272 . S
O335 Co327 2.135 . S
H336 C342 0.930 . S
H337 C346 0.930 . S
H338 C351 0.929 . S
H339 C349 0.929 . S
H340 C344 0.929 . S
H341 C350 0.929 . S
C342 H336 0.930 . S
C342 C343 1.367 . S
C342 C350 1.378 . S
C343 C342 1.367 . S
C343 C351 1.433 . S
C344 H340 0.929 . S
C344 C346 1.378 . S
C344 C348 1.350 . S
C345 C348 1.463 1_545 S
C345 C350 1.350 . S
C345 N353 1.427 . S
C346 H337 0.930 . S
C346 C344 1.378 . S
C346 C347 1.367 . S
C347 C346 1.367 . S
C347 C349 1.433 . S
C348 C344 1.350 . S
C348 C345 1.463 1_565 S
C348 N352 1.427 . S
C349 H339 0.929 . S
C349 C347 1.433 . S
C349 N352 1.384 . S
C350 H341 0.929 . S
C350 C342 1.378 . S
C350 C345 1.350 . S
C351 H338 0.929 . S
C351 C343 1.433 . S
C351 N353 1.384 . S
N352 C348 1.427 . S
N352 C349 1.384 . S
N353 C345 1.427 . S
N353 C351 1.384 . S
H354 C360 0.930 . S
H355 C364 0.930 . S
H356 C369 0.929 . S
H357 C367 0.929 . S
H358 C362 0.929 . S
H359 C368 0.929 . S
C360 H354 0.930 . S
C360 C361 1.367 . S
C360 C368 1.378 . S
C361 C360 1.367 . S
C361 C369 1.433 . S
C362 H358 0.929 . S
C362 C364 1.378 . S
C362 C366 1.350 . S
C363 C366 1.463 . S
C363 C368 1.350 . S
C363 N371 1.427 . S
C364 H355 0.930 . S
C364 C362 1.378 . S
C364 C365 1.367 . S
C365 C364 1.367 . S
C365 C367 1.433 . S
C366 C362 1.350 . S
C366 C363 1.463 . S
C366 N370 1.427 . S
C367 H357 0.929 . S
C367 C365 1.433 . S
C367 N370 1.384 . S
C368 H359 0.929 . S
C368 C360 1.378 . S
C368 C363 1.350 . S
C369 H356 0.929 . S
C369 C361 1.433 . S
C369 N371 1.384 . S
N370 C366 1.427 . S
N370 C367 1.384 . S
N371 C363 1.427 . S
N371 C369 1.384 . S
H372 C378 0.930 . S
H373 C382 0.930 . S
H374 C387 0.929 . S
H375 C385 0.929 . S
H376 C380 0.929 . S
H377 C386 0.929 . S
C378 H372 0.930 . S
C378 C379 1.367 . S
C378 C386 1.378 . S
C379 C378 1.367 . S
C379 C387 1.433 . S
C380 H376 0.929 . S
C380 C382 1.378 . S
C380 C384 1.350 . S
C381 C384 1.463 1_655 S
C381 C386 1.350 . S
C381 N389 1.427 . S
C382 H373 0.930 . S
C382 C380 1.378 . S
C382 C383 1.367 . S
C383 C382 1.367 . S
C383 C385 1.433 . S
C384 C380 1.350 . S
C384 C381 1.463 1_455 S
C384 N388 1.427 . S
C385 H375 0.929 . S
C385 C383 1.433 . S
C385 N388 1.384 . S
C386 H377 0.929 . S
C386 C378 1.378 . S
C386 C381 1.350 . S
C387 H374 0.929 . S
C387 C379 1.433 . S
C387 N389 1.384 . S
N388 C384 1.427 . S
N388 C385 1.384 . S
N389 C381 1.427 . S
N389 C387 1.384 . S
H390 C396 0.930 . S
H391 C400 0.930 . S
H392 C405 0.929 . S
H393 C403 0.929 . S
H394 C398 0.929 . S
H395 C404 0.929 . S
C396 H390 0.930 . S
C396 C397 1.367 . S
C396 C404 1.378 . S
C397 C396 1.367 . S
C397 C405 1.433 . S
C398 H394 0.929 . S
C398 C400 1.378 . S
C398 C402 1.350 . S
C399 C402 1.463 1_565 S
C399 C404 1.350 . S
C399 N407 1.427 . S
C400 H391 0.930 . S
C400 C398 1.378 . S
C400 C401 1.367 . S
C401 C400 1.367 . S
C401 C403 1.433 . S
C402 C398 1.350 . S
C402 C399 1.463 1_545 S
C402 N406 1.427 . S
C403 H393 0.929 . S
C403 C401 1.433 . S
C403 N406 1.384 . S
C404 H395 0.929 . S
C404 C396 1.378 . S
C404 C399 1.350 . S
C405 H392 0.929 . S
C405 C397 1.433 . S
C405 N407 1.384 . S
N406 C402 1.427 . S
N406 C403 1.384 . S
N407 C399 1.427 . S
N407 C405 1.384 . S
H408 C414 0.930 . S
H409 C418 0.930 . S
H410 C423 0.929 . S
H411 C421 0.929 . S
H412 C416 0.929 . S
H413 C422 0.929 . S
C414 H408 0.930 . S
C414 C415 1.367 . S
C414 C422 1.378 . S
C415 C414 1.367 . S
C415 C423 1.433 . S
C416 H412 0.929 . S
C416 C418 1.378 . S
C416 C420 1.350 . S
C417 C420 1.463 . S
C417 C422 1.350 . S
C417 N425 1.427 . S
C418 H409 0.930 . S
C418 C416 1.378 . S
C418 C419 1.367 . S
C419 C418 1.367 . S
C419 C421 1.433 . S
C420 C416 1.350 . S
C420 C417 1.463 . S
C420 N424 1.427 . S
C421 H411 0.929 . S
C421 C419 1.433 . S
C421 N424 1.384 . S
C422 H413 0.929 . S
C422 C414 1.378 . S
C422 C417 1.350 . S
C423 H410 0.929 . S
C423 C415 1.433 . S
C423 N425 1.384 . S
N424 C420 1.427 . S
N424 C421 1.384 . S
N425 C417 1.427 . S
N425 C423 1.384 . S
H426 C432 0.930 . S
H427 C436 0.930 . S
H428 C441 0.929 . S
H429 C439 0.929 . S
H430 C434 0.929 . S
H431 C440 0.929 . S
C432 H426 0.930 . S
C432 C433 1.367 . S
C432 C440 1.378 . S
C433 C432 1.367 . S
C433 C441 1.433 . S
C434 H430 0.929 . S
C434 C436 1.378 . S
C434 C438 1.350 . S
C435 C438 1.463 1_455 S
C435 C440 1.350 . S
C435 N443 1.427 . S
C436 H427 0.930 . S
C436 C434 1.378 . S
C436 C437 1.367 . S
C437 C436 1.367 . S
C437 C439 1.433 . S
C438 C434 1.350 . S
C438 C435 1.463 1_655 S
C438 N442 1.427 . S
C439 H429 0.929 . S
C439 C437 1.433 . S
C439 N442 1.384 . S
C440 H431 0.929 . S
C440 C432 1.378 . S
C440 C435 1.350 . S
C441 H428 0.929 . S
C441 C433 1.433 . S
C441 N443 1.384 . S
N442 C438 1.427 . S
N442 C439 1.384 . S
N443 C435 1.427 . S
N443 C441 1.384 . S
H444 C450 0.930 . S
H445 C454 0.930 . S
H446 C459 0.929 . S
H447 C457 0.929 . S
H448 C452 0.929 . S
H449 C458 0.929 . S
C450 H444 0.930 . S
C450 C451 1.367 . S
C450 C458 1.378 . S
C451 C450 1.367 . S
C451 C459 1.433 . S
C452 H448 0.929 . S
C452 C454 1.378 . S
C452 C456 1.350 . S
C453 C456 1.463 1_565 S
C453 C458 1.350 . S
C453 N461 1.427 . S
C454 H445 0.930 . S
C454 C452 1.378 . S
C454 C455 1.367 . S
C455 C454 1.367 . S
C455 C457 1.433 . S
C456 C452 1.350 . S
C456 C453 1.463 1_545 S
C456 N460 1.427 . S
C457 H447 0.929 . S
C457 C455 1.433 . S
C457 N460 1.384 . S
C458 H449 0.929 . S
C458 C450 1.378 . S
C458 C453 1.350 . S
C459 H446 0.929 . S
C459 C451 1.433 . S
C459 N461 1.384 . S
N460 C456 1.427 . S
N460 C457 1.384 . S
N461 C453 1.427 . S
N461 C459 1.384 . S
H462 C468 0.930 . S
H463 C472 0.930 . S
H464 C477 0.929 . S
H465 C475 0.929 . S
H466 C470 0.929 . S
H467 C476 0.929 . S
C468 H462 0.930 . S
C468 C469 1.367 . S
C468 C476 1.378 . S
C469 C468 1.367 . S
C469 C477 1.433 . S
C470 H466 0.929 . S
C470 C472 1.378 . S
C470 C474 1.350 . S
C471 C474 1.463 . S
C471 C476 1.350 . S
C471 N479 1.427 . S
C472 H463 0.930 . S
C472 C470 1.378 . S
C472 C473 1.367 . S
C473 C472 1.367 . S
C473 C475 1.433 . S
C474 C470 1.350 . S
C474 C471 1.463 . S
C474 N478 1.427 . S
C475 H465 0.929 . S
C475 C473 1.433 . S
C475 N478 1.384 . S
C476 H467 0.929 . S
C476 C468 1.378 . S
C476 C471 1.350 . S
C477 H464 0.929 . S
C477 C469 1.433 . S
C477 N479 1.384 . S
N478 C474 1.427 . S
N478 C475 1.384 . S
N479 C471 1.427 . S
N479 C477 1.384 . S
H480 C486 0.930 . S
H481 C490 0.930 . S
H482 C495 0.929 . S
H483 C493 0.929 . S
H484 C488 0.929 . S
H485 C494 0.929 . S
C486 H480 0.930 . S
C486 C487 1.367 . S
C486 C494 1.378 . S
C487 C486 1.367 . S
C487 C495 1.433 . S
C488 H484 0.929 . S
C488 C490 1.378 . S
C488 C492 1.350 . S
C489 C492 1.463 1_655 S
C489 C494 1.350 . S
C489 N497 1.427 . S
C490 H481 0.930 . S
C490 C488 1.378 . S
C490 C491 1.367 . S
C491 C490 1.367 . S
C491 C493 1.433 . S
C492 C488 1.350 . S
C492 C489 1.463 1_455 S
C492 N496 1.427 . S
C493 H483 0.929 . S
C493 C491 1.433 . S
C493 N496 1.384 . S
C494 H485 0.929 . S
C494 C486 1.378 . S
C494 C489 1.350 . S
C495 H482 0.929 . S
C495 C487 1.433 . S
C495 N497 1.384 . S
N496 C492 1.427 . S
N496 C493 1.384 . S
N497 C489 1.427 . S
N497 C495 1.384 . S
H498 C504 0.930 . S
H499 C508 0.930 . S
H500 C513 0.929 . S
H501 C511 0.929 . S
H502 C506 0.929 . S
H503 C512 0.929 . S
C504 H498 0.930 . S
C504 C505 1.367 . S
C504 C512 1.378 . S
C505 C504 1.367 . S
C505 C513 1.433 . S
C506 H502 0.929 . S
C506 C508 1.378 . S
C506 C510 1.350 . S
C507 C510 1.463 1_545 S
C507 C512 1.350 . S
C507 N515 1.427 . S
C508 H499 0.930 . S
C508 C506 1.378 . S
C508 C509 1.367 . S
C509 C508 1.367 . S
C509 C511 1.433 . S
C510 C506 1.350 . S
C510 C507 1.463 1_565 S
C510 N514 1.427 . S
C511 H501 0.929 . S
C511 C509 1.433 . S
C511 N514 1.384 . S
C512 H503 0.929 . S
C512 C504 1.378 . S
C512 C507 1.350 . S
C513 H500 0.929 . S
C513 C505 1.433 . S
C513 N515 1.384 . S
N514 C510 1.427 . S
N514 C511 1.384 . S
N515 C507 1.427 . S
N515 C513 1.384 . S
H516 C522 0.930 . S
H517 C526 0.930 . S
H518 C531 0.929 . S
H519 C529 0.929 . S
H520 C524 0.929 . S
H521 C530 0.929 . S
C522 H516 0.930 . S
C522 C523 1.367 . S
C522 C530 1.378 . S
C523 C522 1.367 . S
C523 C531 1.433 . S
C524 H520 0.929 . S
C524 C526 1.378 . S
C524 C528 1.350 . S
C525 C528 1.463 . S
C525 C530 1.350 . S
C525 N533 1.427 . S
C526 H517 0.930 . S
C526 C524 1.378 . S
C526 C527 1.367 . S
C527 C526 1.367 . S
C527 C529 1.433 . S
C528 C524 1.350 . S
C528 C525 1.463 . S
C528 N532 1.427 . S
C529 H519 0.929 . S
C529 C527 1.433 . S
C529 N532 1.384 . S
C530 H521 0.929 . S
C530 C522 1.378 . S
C530 C525 1.350 . S
C531 H518 0.929 . S
C531 C523 1.433 . S
C531 N533 1.384 . S
N532 C528 1.427 . S
N532 C529 1.384 . S
N533 C525 1.427 . S
N533 C531 1.384 . S
H534 C540 0.930 . S
H535 C544 0.930 . S
H536 C549 0.929 . S
H537 C547 0.929 . S
H538 C542 0.929 . S
H539 C548 0.929 . S
C540 H534 0.930 . S
C540 C541 1.367 . S
C540 C548 1.378 . S
C541 C540 1.367 . S
C541 C549 1.433 . S
C542 H538 0.929 . S
C542 C544 1.378 . S
C542 C546 1.350 . S
C543 C546 1.463 1_455 S
C543 C548 1.350 . S
C543 N551 1.427 . S
C544 H535 0.930 . S
C544 C542 1.378 . S
C544 C545 1.367 . S
C545 C544 1.367 . S
C545 C547 1.433 . S
C546 C542 1.350 . S
C546 C543 1.463 1_655 S
C546 N550 1.427 . S
C547 H537 0.929 . S
C547 C545 1.433 . S
C547 N550 1.384 . S
C548 H539 0.929 . S
C548 C540 1.378 . S
C548 C543 1.350 . S
C549 H536 0.929 . S
C549 C541 1.433 . S
C549 N551 1.384 . S
N550 C546 1.427 . S
N550 C547 1.384 . S
N551 C543 1.427 . S
N551 C549 1.384 . S
H552 C558 0.930 . S
H553 C562 0.930 . S
H554 C567 0.929 . S
H555 C565 0.929 . S
H556 C560 0.929 . S
H557 C566 0.929 . S
C558 H552 0.930 . S
C558 C559 1.367 . S
C558 C566 1.378 . S
C559 C558 1.367 . S
C559 C567 1.433 . S
C560 H556 0.929 . S
C560 C562 1.378 . S
C560 C564 1.350 . S
C561 C564 1.463 . S
C561 C566 1.350 . S
C561 N569 1.427 . S
C562 H553 0.930 . S
C562 C560 1.378 . S
C562 C563 1.367 . S
C563 C562 1.367 . S
C563 C565 1.433 . S
C564 C560 1.350 . S
C564 C561 1.463 . S
C564 N568 1.427 . S
C565 H555 0.929 . S
C565 C563 1.433 . S
C565 N568 1.384 . S
C566 H557 0.929 . S
C566 C558 1.378 . S
C566 C561 1.350 . S
C567 H554 0.929 . S
C567 C559 1.433 . S
C567 N569 1.384 . S
N568 C564 1.427 . S
N568 C565 1.384 . S
N569 C561 1.427 . S
N569 C567 1.384 . S
H570 C576 0.930 . S
H571 C580 0.930 . S
H572 C585 0.929 . S
H573 C583 0.929 . S
H574 C578 0.929 . S
H575 C584 0.929 . S
C576 H570 0.930 . S
C576 C577 1.367 . S
C576 C584 1.378 . S
C577 C576 1.367 . S
C577 C585 1.433 . S
C578 H574 0.929 . S
C578 C580 1.378 . S
C578 C582 1.350 . S
C579 C582 1.463 . S
C579 C584 1.350 . S
C579 N587 1.427 . S
C580 H571 0.930 . S
C580 C578 1.378 . S
C580 C581 1.367 . S
C581 C580 1.367 . S
C581 C583 1.433 . S
C582 C578 1.350 . S
C582 C579 1.463 . S
C582 N586 1.427 . S
C583 H573 0.929 . S
C583 C581 1.433 . S
C583 N586 1.384 . S
C584 H575 0.929 . S
C584 C576 1.378 . S
C584 C579 1.350 . S
C585 H572 0.929 . S
C585 C577 1.433 . S
C585 N587 1.384 . S
N586 C582 1.427 . S
N586 C583 1.384 . S
N587 C579 1.427 . S
N587 C585 1.384 . S
H588 C594 0.930 . S
H589 C598 0.930 . S
H590 C603 0.929 . S
H591 C601 0.929 . S
H592 C596 0.929 . S
H593 C602 0.929 . S
C594 H588 0.930 . S
C594 C595 1.367 . S
C594 C602 1.378 . S
C595 C594 1.367 . S
C595 C603 1.433 . S
C596 H592 0.929 . S
C596 C598 1.378 . S
C596 C600 1.350 . S
C597 C600 1.463 . S
C597 C602 1.350 . S
C597 N605 1.427 . S
C598 H589 0.930 . S
C598 C596 1.378 . S
C598 C599 1.367 . S
C599 C598 1.367 . S
C599 C601 1.433 . S
C600 C596 1.350 . S
C600 C597 1.463 . S
C600 N604 1.427 . S
C601 H591 0.929 . S
C601 C599 1.433 . S
C601 N604 1.384 . S
C602 H593 0.929 . S
C602 C594 1.378 . S
C602 C597 1.350 . S
C603 H590 0.929 . S
C603 C595 1.433 . S
C603 N605 1.384 . S
N604 C600 1.427 . S
N604 C601 1.384 . S
N605 C597 1.427 . S
N605 C603 1.384 . S
H606 C612 0.930 . S
H607 C616 0.930 . S
H608 C621 0.929 . S
H609 C619 0.929 . S
H610 C614 0.929 . S
H611 C620 0.929 . S
C612 H606 0.930 . S
C612 C613 1.367 . S
C612 C620 1.378 . S
C613 C612 1.367 . S
C613 C621 1.433 . S
C614 H610 0.929 . S
C614 C616 1.378 . S
C614 C618 1.350 . S
C615 C618 1.463 . S
C615 C620 1.350 . S
C615 N623 1.427 . S
C616 H607 0.930 . S
C616 C614 1.378 . S
C616 C617 1.367 . S
C617 C616 1.367 . S
C617 C619 1.433 . S
C618 C614 1.350 . S
C618 C615 1.463 . S
C618 N622 1.427 . S
C619 H609 0.929 . S
C619 C617 1.433 . S
C619 N622 1.384 . S
C620 H611 0.929 . S
C620 C612 1.378 . S
C620 C615 1.350 . S
C621 H608 0.929 . S
C621 C613 1.433 . S
C621 N623 1.384 . S
N622 C618 1.427 . S
N622 C619 1.384 . S
N623 C615 1.427 . S
N623 C621 1.384 . S
H624 C630 0.930 . S
H625 C634 0.930 . S
H626 C639 0.929 . S
H627 C637 0.929 . S
H628 C632 0.929 . S
H629 C638 0.929 . S
C630 H624 0.930 . S
C630 C631 1.367 . S
C630 C638 1.378 . S
C631 C630 1.367 . S
C631 C639 1.433 . S
C632 H628 0.929 . S
C632 C634 1.378 . S
C632 C636 1.350 . S
C633 C636 1.463 . S
C633 C638 1.350 . S
C633 N641 1.427 . S
C634 H625 0.930 . S
C634 C632 1.378 . S
C634 C635 1.367 . S
C635 C634 1.367 . S
C635 C637 1.433 . S
C636 C632 1.350 . S
C636 C633 1.463 . S
C636 N640 1.427 . S
C637 H627 0.929 . S
C637 C635 1.433 . S
C637 N640 1.384 . S
C638 H629 0.929 . S
C638 C630 1.378 . S
C638 C633 1.350 . S
C639 H626 0.929 . S
C639 C631 1.433 . S
C639 N641 1.384 . S
N640 C636 1.427 . S
N640 C637 1.384 . S
N641 C633 1.427 . S
N641 C639 1.384 . S
H642 C648 0.930 . S
H643 C652 0.930 . S
H644 C657 0.929 . S
H645 C655 0.929 . S
H646 C650 0.929 . S
H647 C656 0.929 . S
C648 H642 0.930 . S
C648 C649 1.367 . S
C648 C656 1.378 . S
C649 C648 1.367 . S
C649 C657 1.433 . S
C650 H646 0.929 . S
C650 C652 1.378 . S
C650 C654 1.350 . S
C651 C654 1.463 . S
C651 C656 1.350 . S
C651 N659 1.427 . S
C652 H643 0.930 . S
C652 C650 1.378 . S
C652 C653 1.367 . S
C653 C652 1.367 . S
C653 C655 1.433 . S
C654 C650 1.350 . S
C654 C651 1.463 . S
C654 N658 1.427 . S
C655 H645 0.929 . S
C655 C653 1.433 . S
C655 N658 1.384 . S
C656 H647 0.929 . S
C656 C648 1.378 . S
C656 C651 1.350 . S
C657 H644 0.929 . S
C657 C649 1.433 . S
C657 N659 1.384 . S
N658 C654 1.427 . S
N658 C655 1.384 . S
N659 C651 1.427 . S
N659 C657 1.384 . S
H660 C666 0.930 . S
H661 C670 0.930 . S
H662 C675 0.929 . S
H663 C673 0.929 . S
H664 C668 0.929 . S
H665 C674 0.929 . S
C666 H660 0.930 . S
C666 C667 1.367 . S
C666 C674 1.378 . S
C667 C666 1.367 . S
C667 C675 1.433 . S
C668 H664 0.929 . S
C668 C670 1.378 . S
C668 C672 1.350 . S
C669 C672 1.463 . S
C669 C674 1.350 . S
C669 N677 1.427 . S
C670 H661 0.930 . S
C670 C668 1.378 . S
C670 C671 1.367 . S
C671 C670 1.367 . S
C671 C673 1.433 . S
C672 C668 1.350 . S
C672 C669 1.463 . S
C672 N676 1.427 . S
C673 H663 0.929 . S
C673 C671 1.433 . S
C673 N676 1.384 . S
C674 H665 0.929 . S
C674 C666 1.378 . S
C674 C669 1.350 . S
C675 H662 0.929 . S
C675 C667 1.433 . S
C675 N677 1.384 . S
N676 C672 1.427 . S
N676 C673 1.384 . S
N677 C669 1.427 . S
N677 C675 1.384 . S
H678 C684 0.930 . S
H679 C688 0.930 . S
H680 C693 0.929 . S
H681 C691 0.929 . S
H682 C686 0.929 . S
H683 C692 0.929 . S
C684 H678 0.930 . S
C684 C685 1.367 . S
C684 C692 1.378 . S
C685 C684 1.367 . S
C685 C693 1.433 . S
C686 H682 0.929 . S
C686 C688 1.378 . S
C686 C690 1.350 . S
C687 C690 1.463 . S
C687 C692 1.350 . S
C687 N695 1.427 . S
C688 H679 0.930 . S
C688 C686 1.378 . S
C688 C689 1.367 . S
C689 C688 1.367 . S
C689 C691 1.433 . S
C690 C686 1.350 . S
C690 C687 1.463 . S
C690 N694 1.427 . S
C691 H681 0.929 . S
C691 C689 1.433 . S
C691 N694 1.384 . S
C692 H683 0.929 . S
C692 C684 1.378 . S
C692 C687 1.350 . S
C693 H680 0.929 . S
C693 C685 1.433 . S
C693 N695 1.384 . S
N694 C690 1.427 . S
N694 C691 1.384 . S
N695 C687 1.427 . S
N695 C693 1.384 . S
H696 C702 0.930 . S
H697 C706 0.930 . S
H698 C711 0.929 . S
H699 C709 0.929 . S
H700 C704 0.929 . S
H701 C710 0.929 . S
C702 H696 0.930 . S
C702 C703 1.367 . S
C702 C710 1.378 . S
C703 C702 1.367 . S
C703 C711 1.433 . S
C704 H700 0.929 . S
C704 C706 1.378 . S
C704 C708 1.350 . S
C705 C708 1.463 . S
C705 C710 1.350 . S
C705 N713 1.427 . S
C706 H697 0.930 . S
C706 C704 1.378 . S
C706 C707 1.367 . S
C707 C706 1.367 . S
C707 C709 1.433 . S
C708 C704 1.350 . S
C708 C705 1.463 . S
C708 N712 1.427 . S
C709 H699 0.929 . S
C709 C707 1.433 . S
C709 N712 1.384 . S
C710 H701 0.929 . S
C710 C702 1.378 . S
C710 C705 1.350 . S
C711 H698 0.929 . S
C711 C703 1.433 . S
C711 N713 1.384 . S
N712 C708 1.427 . S
N712 C709 1.384 . S
N713 C705 1.427 . S
N713 C711 1.384 . S
H714 C720 0.930 . S
H715 C724 0.930 . S
H716 C729 0.929 . S
H717 C727 0.929 . S
H718 C722 0.929 . S
H719 C728 0.929 . S
C720 H714 0.930 . S
C720 C721 1.367 . S
C720 C728 1.378 . S
C721 C720 1.367 . S
C721 C729 1.433 . S
C722 H718 0.929 . S
C722 C724 1.378 . S
C722 C726 1.350 . S
C723 C726 1.463 . S
C723 C728 1.350 . S
C723 N731 1.427 . S
C724 H715 0.930 . S
C724 C722 1.378 . S
C724 C725 1.367 . S
C725 C724 1.367 . S
C725 C727 1.433 . S
C726 C722 1.350 . S
C726 C723 1.463 . S
C726 N730 1.427 . S
C727 H717 0.929 . S
C727 C725 1.433 . S
C727 N730 1.384 . S
C728 H719 0.929 . S
C728 C720 1.378 . S
C728 C723 1.350 . S
C729 H716 0.929 . S
C729 C721 1.433 . S
C729 N731 1.384 . S
N730 C726 1.427 . S
N730 C727 1.384 . S
N731 C723 1.427 . S
N731 C729 1.384 . S
H732 C738 0.930 . S
H733 C742 0.930 . S
H734 C747 0.929 . S
H735 C745 0.929 . S
H736 C740 0.929 . S
H737 C746 0.929 . S
C738 H732 0.930 . S
C738 C739 1.367 . S
C738 C746 1.378 . S
C739 C738 1.367 . S
C739 C747 1.433 . S
C740 H736 0.929 . S
C740 C742 1.378 . S
C740 C744 1.350 . S
C741 C744 1.463 . S
C741 C746 1.350 . S
C741 N749 1.427 . S
C742 H733 0.930 . S
C742 C740 1.378 . S
C742 C743 1.367 . S
C743 C742 1.367 . S
C743 C745 1.433 . S
C744 C740 1.350 . S
C744 C741 1.463 . S
C744 N748 1.427 . S
C745 H735 0.929 . S
C745 C743 1.433 . S
C745 N748 1.384 . S
C746 H737 0.929 . S
C746 C738 1.378 . S
C746 C741 1.350 . S
C747 H734 0.929 . S
C747 C739 1.433 . S
C747 N749 1.384 . S
N748 C744 1.427 . S
N748 C745 1.384 . S
N749 C741 1.427 . S
N749 C747 1.384 . S
H750 C756 0.930 . S
H751 C760 0.930 . S
H752 C765 0.929 . S
H753 C763 0.929 . S
H754 C758 0.929 . S
H755 C764 0.929 . S
C756 H750 0.930 . S
C756 C757 1.367 . S
C756 C764 1.378 . S
C757 C756 1.367 . S
C757 C765 1.433 . S
C758 H754 0.929 . S
C758 C760 1.378 . S
C758 C762 1.350 . S
C759 C762 1.463 . S
C759 C764 1.350 . S
C759 N767 1.427 . S
C760 H751 0.930 . S
C760 C758 1.378 . S
C760 C761 1.367 . S
C761 C760 1.367 . S
C761 C763 1.433 . S
C762 C758 1.350 . S
C762 C759 1.463 . S
C762 N766 1.427 . S
C763 H753 0.929 . S
C763 C761 1.433 . S
C763 N766 1.384 . S
C764 H755 0.929 . S
C764 C756 1.378 . S
C764 C759 1.350 . S
C765 H752 0.929 . S
C765 C757 1.433 . S
C765 N767 1.384 . S
N766 C762 1.427 . S
N766 C763 1.384 . S
N767 C759 1.427 . S
N767 C765 1.384 . S
H768 C774 0.930 . S
H769 C778 0.930 . S
H770 C783 0.929 . S
H771 C781 0.929 . S
H772 C776 0.929 . S
H773 C782 0.929 . S
C774 H768 0.930 . S
C774 C775 1.367 . S
C774 C782 1.378 . S
C775 C774 1.367 . S
C775 C783 1.433 . S
C776 H772 0.929 . S
C776 C778 1.378 . S
C776 C780 1.350 . S
C777 C780 1.463 1_554 S
C777 C782 1.350 . S
C777 N785 1.427 . S
C778 H769 0.930 . S
C778 C776 1.378 . S
C778 C779 1.367 . S
C779 C778 1.367 . S
C779 C781 1.433 . S
C780 C776 1.350 . S
C780 C777 1.463 1_556 S
C780 N784 1.427 . S
C781 H771 0.929 . S
C781 C779 1.433 . S
C781 N784 1.384 . S
C782 H773 0.929 . S
C782 C774 1.378 . S
C782 C777 1.350 . S
C783 H770 0.929 . S
C783 C775 1.433 . S
C783 N785 1.384 . S
N784 C780 1.427 . S
N784 C781 1.384 . S
N785 C777 1.427 . S
N785 C783 1.384 . S
H786 C792 0.930 . S
H787 C796 0.930 . S
H788 C801 0.929 . S
H789 C799 0.929 . S
H790 C794 0.929 . S
H791 C800 0.929 . S
C792 H786 0.930 . S
C792 C793 1.367 . S
C792 C800 1.378 . S
C793 C792 1.367 . S
C793 C801 1.433 . S
C794 H790 0.929 . S
C794 C796 1.378 . S
C794 C798 1.350 . S
C795 C798 1.463 1_556 S
C795 C800 1.350 . S
C795 N803 1.427 . S
C796 H787 0.930 . S
C796 C794 1.378 . S
C796 C797 1.367 . S
C797 C796 1.367 . S
C797 C799 1.433 . S
C798 C794 1.350 . S
C798 C795 1.463 1_554 S
C798 N802 1.427 . S
C799 H789 0.929 . S
C799 C797 1.433 . S
C799 N802 1.384 . S
C800 H791 0.929 . S
C800 C792 1.378 . S
C800 C795 1.350 . S
C801 H788 0.929 . S
C801 C793 1.433 . S
C801 N803 1.384 . S
N802 C798 1.427 . S
N802 C799 1.384 . S
N803 C795 1.427 . S
N803 C801 1.384 . S
H804 C810 0.930 . S
H805 C814 0.930 . S
H806 C819 0.929 . S
H807 C817 0.929 . S
H808 C812 0.929 . S
H809 C818 0.929 . S
C810 H804 0.930 . S
C810 C811 1.367 . S
C810 C818 1.378 . S
C811 C810 1.367 . S
C811 C819 1.433 . S
C812 H808 0.929 . S
C812 C814 1.378 . S
C812 C816 1.350 . S
C813 C816 1.463 1_556 S
C813 C818 1.350 . S
C813 N821 1.427 . S
C814 H805 0.930 . S
C814 C812 1.378 . S
C814 C815 1.367 . S
C815 C814 1.367 . S
C815 C817 1.433 . S
C816 C812 1.350 . S
C816 C813 1.463 1_554 S
C816 N820 1.427 . S
C817 H807 0.929 . S
C817 C815 1.433 . S
C817 N820 1.384 . S
C818 H809 0.929 . S
C818 C810 1.378 . S
C818 C813 1.350 . S
C819 H806 0.929 . S
C819 C811 1.433 . S
C819 N821 1.384 . S
N820 C816 1.427 . S
N820 C817 1.384 . S
N821 C813 1.427 . S
N821 C819 1.384 . S
H822 C828 0.930 . S
H823 C832 0.930 . S
H824 C837 0.929 . S
H825 C835 0.929 . S
H826 C830 0.929 . S
H827 C836 0.929 . S
C828 H822 0.930 . S
C828 C829 1.367 . S
C828 C836 1.378 . S
C829 C828 1.367 . S
C829 C837 1.433 . S
C830 H826 0.929 . S
C830 C832 1.378 . S
C830 C834 1.350 . S
C831 C834 1.463 1_554 S
C831 C836 1.350 . S
C831 N839 1.427 . S
C832 H823 0.930 . S
C832 C830 1.378 . S
C832 C833 1.367 . S
C833 C832 1.367 . S
C833 C835 1.433 . S
C834 C830 1.350 . S
C834 C831 1.463 1_556 S
C834 N838 1.427 . S
C835 H825 0.929 . S
C835 C833 1.433 . S
C835 N838 1.384 . S
C836 H827 0.929 . S
C836 C828 1.378 . S
C836 C831 1.350 . S
C837 H824 0.929 . S
C837 C829 1.433 . S
C837 N839 1.384 . S
N838 C834 1.427 . S
N838 C835 1.384 . S
N839 C831 1.427 . S
N839 C837 1.384 . S
H840 C846 0.930 . S
H841 C850 0.930 . S
H842 C855 0.929 . S
H843 C853 0.929 . S
H844 C848 0.929 . S
H845 C854 0.929 . S
C846 H840 0.930 . S
C846 C847 1.367 . S
C846 C854 1.378 . S
C847 C846 1.367 . S
C847 C855 1.433 . S
C848 H844 0.929 . S
C848 C850 1.378 . S
C848 C852 1.350 . S
C849 C852 1.463 1_554 S
C849 C854 1.350 . S
C849 N857 1.427 . S
C850 H841 0.930 . S
C850 C848 1.378 . S
C850 C851 1.367 . S
C851 C850 1.367 . S
C851 C853 1.433 . S
C852 C848 1.350 . S
C852 C849 1.463 1_556 S
C852 N856 1.427 . S
C853 H843 0.929 . S
C853 C851 1.433 . S
C853 N856 1.384 . S
C854 H845 0.929 . S
C854 C846 1.378 . S
C854 C849 1.350 . S
C855 H842 0.929 . S
C855 C847 1.433 . S
C855 N857 1.384 . S
N856 C852 1.427 . S
N856 C853 1.384 . S
N857 C849 1.427 . S
N857 C855 1.384 . S
H858 C864 0.930 . S
H859 C868 0.930 . S
H860 C873 0.929 . S
H861 C871 0.929 . S
H862 C866 0.929 . S
H863 C872 0.929 . S
C864 H858 0.930 . S
C864 C865 1.367 . S
C864 C872 1.378 . S
C865 C864 1.367 . S
C865 C873 1.433 . S
C866 H862 0.929 . S
C866 C868 1.378 . S
C866 C870 1.350 . S
C867 C870 1.463 1_556 S
C867 C872 1.350 . S
C867 N875 1.427 . S
C868 H859 0.930 . S
C868 C866 1.378 . S
C868 C869 1.367 . S
C869 C868 1.367 . S
C869 C871 1.433 . S
C870 C866 1.350 . S
C870 C867 1.463 1_554 S
C870 N874 1.427 . S
C871 H861 0.929 . S
C871 C869 1.433 . S
C871 N874 1.384 . S
C872 H863 0.929 . S
C872 C864 1.378 . S
C872 C867 1.350 . S
C873 H860 0.929 . S
C873 C865 1.433 . S
C873 N875 1.384 . S
N874 C870 1.427 . S
N874 C871 1.384 . S
N875 C867 1.427 . S
N875 C873 1.384 . S
H876 C882 0.930 . S
H877 C886 0.930 . S
H878 C891 0.929 . S
H879 C889 0.929 . S
H880 C884 0.929 . S
H881 C890 0.929 . S
C882 H876 0.930 . S
C882 C883 1.367 . S
C882 C890 1.378 . S
C883 C882 1.367 . S
C883 C891 1.433 . S
C884 H880 0.929 . S
C884 C886 1.378 . S
C884 C888 1.350 . S
C885 C888 1.463 . S
C885 C890 1.350 . S
C885 N893 1.427 . S
C886 H877 0.930 . S
C886 C884 1.378 . S
C886 C887 1.367 . S
C887 C886 1.367 . S
C887 C889 1.433 . S
C888 C884 1.350 . S
C888 C885 1.463 . S
C888 N892 1.427 . S
C889 H879 0.929 . S
C889 C887 1.433 . S
C889 N892 1.384 . S
C890 H881 0.929 . S
C890 C882 1.378 . S
C890 C885 1.350 . S
C891 H878 0.929 . S
C891 C883 1.433 . S
C891 N893 1.384 . S
N892 C888 1.427 . S
N892 C889 1.384 . S
N893 C885 1.427 . S
N893 C891 1.384 . S
H894 C900 0.930 . S
H895 C904 0.930 . S
H896 C909 0.929 . S
H897 C907 0.929 . S
H898 C902 0.929 . S
H899 C908 0.929 . S
C900 H894 0.930 . S
C900 C901 1.367 . S
C900 C908 1.378 . S
C901 C900 1.367 . S
C901 C909 1.433 . S
C902 H898 0.929 . S
C902 C904 1.378 . S
C902 C906 1.350 . S
C903 C906 1.463 . S
C903 C908 1.350 . S
C903 N911 1.427 . S
C904 H895 0.930 . S
C904 C902 1.378 . S
C904 C905 1.367 . S
C905 C904 1.367 . S
C905 C907 1.433 . S
C906 C902 1.350 . S
C906 C903 1.463 . S
C906 N910 1.427 . S
C907 H897 0.929 . S
C907 C905 1.433 . S
C907 N910 1.384 . S
C908 H899 0.929 . S
C908 C900 1.378 . S
C908 C903 1.350 . S
C909 H896 0.929 . S
C909 C901 1.433 . S
C909 N911 1.384 . S
N910 C906 1.427 . S
N910 C907 1.384 . S
N911 C903 1.427 . S
N911 C909 1.384 . S
H912 C918 0.930 . S
H913 C922 0.930 . S
H914 C927 0.929 . S
H915 C925 0.929 . S
H916 C920 0.929 . S
H917 C926 0.929 . S
C918 H912 0.930 . S
C918 C919 1.367 . S
C918 C926 1.378 . S
C919 C918 1.367 . S
C919 C927 1.433 . S
C920 H916 0.929 . S
C920 C922 1.378 . S
C920 C924 1.350 . S
C921 C924 1.463 . S
C921 C926 1.350 . S
C921 N929 1.427 . S
C922 H913 0.930 . S
C922 C920 1.378 . S
C922 C923 1.367 . S
C923 C922 1.367 . S
C923 C925 1.433 . S
C924 C920 1.350 . S
C924 C921 1.463 . S
C924 N928 1.427 . S
C925 H915 0.929 . S
C925 C923 1.433 . S
C925 N928 1.384 . S
C926 H917 0.929 . S
C926 C918 1.378 . S
C926 C921 1.350 . S
C927 H914 0.929 . S
C927 C919 1.433 . S
C927 N929 1.384 . S
N928 C924 1.427 . S
N928 C925 1.384 . S
N929 C921 1.427 . S
N929 C927 1.384 . S
H930 C936 0.930 . S
H931 C940 0.930 . S
H932 C945 0.929 . S
H933 C943 0.929 . S
H934 C938 0.929 . S
H935 C944 0.929 . S
C936 H930 0.930 . S
C936 C937 1.367 . S
C936 C944 1.378 . S
C937 C936 1.367 . S
C937 C945 1.433 . S
C938 H934 0.929 . S
C938 C940 1.378 . S
C938 C942 1.350 . S
C939 C942 1.463 . S
C939 C944 1.350 . S
C939 N947 1.427 . S
C940 H931 0.930 . S
C940 C938 1.378 . S
C940 C941 1.367 . S
C941 C940 1.367 . S
C941 C943 1.433 . S
C942 C938 1.350 . S
C942 C939 1.463 . S
C942 N946 1.427 . S
C943 H933 0.929 . S
C943 C941 1.433 . S
C943 N946 1.384 . S
C944 H935 0.929 . S
C944 C936 1.378 . S
C944 C939 1.350 . S
C945 H932 0.929 . S
C945 C937 1.433 . S
C945 N947 1.384 . S
N946 C942 1.427 . S
N946 C943 1.384 . S
N947 C939 1.427 . S
N947 C945 1.384 . S
H948 C954 0.930 . S
H949 C958 0.930 . S
H950 C963 0.929 . S
H951 C961 0.929 . S
H952 C956 0.929 . S
H953 C962 0.929 . S
C954 H948 0.930 . S
C954 C955 1.367 . S
C954 C962 1.378 . S
C955 C954 1.367 . S
C955 C963 1.433 . S
C956 H952 0.929 . S
C956 C958 1.378 . S
C956 C960 1.350 . S
C957 C960 1.463 . S
C957 C962 1.350 . S
C957 N965 1.427 . S
C958 H949 0.930 . S
C958 C956 1.378 . S
C958 C959 1.367 . S
C959 C958 1.367 . S
C959 C961 1.433 . S
C960 C956 1.350 . S
C960 C957 1.463 . S
C960 N964 1.427 . S
C961 H951 0.929 . S
C961 C959 1.433 . S
C961 N964 1.384 . S
C962 H953 0.929 . S
C962 C954 1.378 . S
C962 C957 1.350 . S
C963 H950 0.929 . S
C963 C955 1.433 . S
C963 N965 1.384 . S
N964 C960 1.427 . S
N964 C961 1.384 . S
N965 C957 1.427 . S
N965 C963 1.384 . S
H966 C972 0.930 . S
H967 C976 0.930 . S
H968 C981 0.929 . S
H969 C979 0.929 . S
H970 C974 0.929 . S
H971 C980 0.929 . S
C972 H966 0.930 . S
C972 C973 1.367 . S
C972 C980 1.378 . S
C973 C972 1.367 . S
C973 C981 1.433 . S
C974 H970 0.929 . S
C974 C976 1.378 . S
C974 C978 1.350 . S
C975 C978 1.463 . S
C975 C980 1.350 . S
C975 N983 1.427 . S
C976 H967 0.930 . S
C976 C974 1.378 . S
C976 C977 1.367 . S
C977 C976 1.367 . S
C977 C979 1.433 . S
C978 C974 1.350 . S
C978 C975 1.463 . S
C978 N982 1.427 . S
C979 H969 0.929 . S
C979 C977 1.433 . S
C979 N982 1.384 . S
C980 H971 0.929 . S
C980 C972 1.378 . S
C980 C975 1.350 . S
C981 H968 0.929 . S
C981 C973 1.433 . S
C981 N983 1.384 . S
N982 C978 1.427 . S
N982 C979 1.384 . S
N983 C975 1.427 . S
N983 C981 1.384 . S
H984 C990 0.930 . S
H985 C994 0.930 . S
H986 C999 0.929 . S
H987 C997 0.929 . S
H988 C992 0.929 . S
H989 C998 0.929 . S
C990 H984 0.930 . S
C990 C991 1.367 . S
C990 C998 1.378 . S
C991 C990 1.367 . S
C991 C999 1.433 . S
C992 H988 0.929 . S
C992 C994 1.378 . S
C992 C996 1.350 . S
C993 C996 1.463 . S
C993 C998 1.350 . S
C993 N1001 1.427 . S
C994 H985 0.930 . S
C994 C992 1.378 . S
C994 C995 1.367 . S
C995 C994 1.367 . S
C995 C997 1.433 . S
C996 C992 1.350 . S
C996 C993 1.463 . S
C996 N1000 1.427 . S
C997 H987 0.929 . S
C997 C995 1.433 . S
C997 N1000 1.384 . S
C998 H989 0.929 . S
C998 C990 1.378 . S
C998 C993 1.350 . S
C999 H986 0.929 . S
C999 C991 1.433 . S
C999 N1001 1.384 . S
N1000 C996 1.427 . S
N1000 C997 1.384 . S
N1001 C993 1.427 . S
N1001 C999 1.384 . S
H1002 C1008 0.930 . S
H1003 C1012 0.930 . S
H1004 C1017 0.929 . S
H1005 C1015 0.929 . S
H1006 C1010 0.929 . S
H1007 C1016 0.929 . S
C1008 H1002 0.930 . S
C1008 C1009 1.367 . S
C1008 C1016 1.378 . S
C1009 C1008 1.367 . S
C1009 C1017 1.433 . S
C1010 H1006 0.929 . S
C1010 C1012 1.378 . S
C1010 C1014 1.350 . S
C1011 C1014 1.463 . S
C1011 C1016 1.350 . S
C1011 N1019 1.427 . S
C1012 H1003 0.930 . S
C1012 C1010 1.378 . S
C1012 C1013 1.367 . S
C1013 C1012 1.367 . S
C1013 C1015 1.433 . S
C1014 C1010 1.350 . S
C1014 C1011 1.463 . S
C1014 N1018 1.427 . S
C1015 H1005 0.929 . S
C1015 C1013 1.433 . S
C1015 N1018 1.384 . S
C1016 H1007 0.929 . S
C1016 C1008 1.378 . S
C1016 C1011 1.350 . S
C1017 H1004 0.929 . S
C1017 C1009 1.433 . S
C1017 N1019 1.384 . S
N1018 C1014 1.427 . S
N1018 C1015 1.384 . S
N1019 C1011 1.427 . S
N1019 C1017 1.384 . S
H1020 C1026 0.930 . S
H1021 C1030 0.930 . S
H1022 C1035 0.929 . S
H1023 C1033 0.929 . S
H1024 C1028 0.929 . S
H1025 C1034 0.929 . S
C1026 H1020 0.930 . S
C1026 C1027 1.367 . S
C1026 C1034 1.378 . S
C1027 C1026 1.367 . S
C1027 C1035 1.433 . S
C1028 H1024 0.929 . S
C1028 C1030 1.378 . S
C1028 C1032 1.350 . S
C1029 C1032 1.463 . S
C1029 C1034 1.350 . S
C1029 N1037 1.427 . S
C1030 H1021 0.930 . S
C1030 C1028 1.378 . S
C1030 C1031 1.367 . S
C1031 C1030 1.367 . S
C1031 C1033 1.433 . S
C1032 C1028 1.350 . S
C1032 C1029 1.463 . S
C1032 N1036 1.427 . S
C1033 H1023 0.929 . S
C1033 C1031 1.433 . S
C1033 N1036 1.384 . S
C1034 H1025 0.929 . S
C1034 C1026 1.378 . S
C1034 C1029 1.350 . S
C1035 H1022 0.929 . S
C1035 C1027 1.433 . S
C1035 N1037 1.384 . S
N1036 C1032 1.427 . S
N1036 C1033 1.384 . S
N1037 C1029 1.427 . S
N1037 C1035 1.384 . S
H1038 C1044 0.930 . S
H1039 C1048 0.930 . S
H1040 C1053 0.929 . S
H1041 C1051 0.929 . S
H1042 C1046 0.929 . S
H1043 C1052 0.929 . S
C1044 H1038 0.930 . S
C1044 C1045 1.367 . S
C1044 C1052 1.378 . S
C1045 C1044 1.367 . S
C1045 C1053 1.433 . S
C1046 H1042 0.929 . S
C1046 C1048 1.378 . S
C1046 C1050 1.350 . S
C1047 C1050 1.463 . S
C1047 C1052 1.350 . S
C1047 N1055 1.427 . S
C1048 H1039 0.930 . S
C1048 C1046 1.378 . S
C1048 C1049 1.367 . S
C1049 C1048 1.367 . S
C1049 C1051 1.433 . S
C1050 C1046 1.350 . S
C1050 C1047 1.463 . S
C1050 N1054 1.427 . S
C1051 H1041 0.929 . S
C1051 C1049 1.433 . S
C1051 N1054 1.384 . S
C1052 H1043 0.929 . S
C1052 C1044 1.378 . S
C1052 C1047 1.350 . S
C1053 H1040 0.929 . S
C1053 C1045 1.433 . S
C1053 N1055 1.384 . S
N1054 C1050 1.427 . S
N1054 C1051 1.384 . S
N1055 C1047 1.427 . S
N1055 C1053 1.384 . S
H1056 C1062 0.930 . S
H1057 C1066 0.930 . S
H1058 C1071 0.929 . S
H1059 C1069 0.929 . S
H1060 C1064 0.929 . S
H1061 C1070 0.929 . S
C1062 H1056 0.930 . S
C1062 C1063 1.367 . S
C1062 C1070 1.378 . S
C1063 C1062 1.367 . S
C1063 C1071 1.433 . S
C1064 H1060 0.929 . S
C1064 C1066 1.378 . S
C1064 C1068 1.350 . S
C1065 C1068 1.463 . S
C1065 C1070 1.350 . S
C1065 N1073 1.427 . S
C1066 H1057 0.930 . S
C1066 C1064 1.378 . S
C1066 C1067 1.367 . S
C1067 C1066 1.367 . S
C1067 C1069 1.433 . S
C1068 C1064 1.350 . S
C1068 C1065 1.463 . S
C1068 N1072 1.427 . S
C1069 H1059 0.929 . S
C1069 C1067 1.433 . S
C1069 N1072 1.384 . S
C1070 H1061 0.929 . S
C1070 C1062 1.378 . S
C1070 C1065 1.350 . S
C1071 H1058 0.929 . S
C1071 C1063 1.433 . S
C1071 N1073 1.384 . S
N1072 C1068 1.427 . S
N1072 C1069 1.384 . S
N1073 C1065 1.427 . S
N1073 C1071 1.384 . S
H1074 C1080 0.930 . S
H1075 C1084 0.930 . S
H1076 C1089 0.929 . S
H1077 C1087 0.929 . S
H1078 C1082 0.929 . S
H1079 C1088 0.929 . S
C1080 H1074 0.930 . S
C1080 C1081 1.367 . S
C1080 C1088 1.378 . S
C1081 C1080 1.367 . S
C1081 C1089 1.433 . S
C1082 H1078 0.929 . S
C1082 C1084 1.378 . S
C1082 C1086 1.350 . S
C1083 C1086 1.463 . S
C1083 C1088 1.350 . S
C1083 N1091 1.427 . S
C1084 H1075 0.930 . S
C1084 C1082 1.378 . S
C1084 C1085 1.367 . S
C1085 C1084 1.367 . S
C1085 C1087 1.433 . S
C1086 C1082 1.350 . S
C1086 C1083 1.463 . S
C1086 N1090 1.427 . S
C1087 H1077 0.929 . S
C1087 C1085 1.433 . S
C1087 N1090 1.384 . S
C1088 H1079 0.929 . S
C1088 C1080 1.378 . S
C1088 C1083 1.350 . S
C1089 H1076 0.929 . S
C1089 C1081 1.433 . S
C1089 N1091 1.384 . S
N1090 C1086 1.427 . S
N1090 C1087 1.384 . S
N1091 C1083 1.427 . S
N1091 C1089 1.384 . S
H1092 C1098 0.930 . S
H1093 C1102 0.930 . S
H1094 C1107 0.929 . S
H1095 C1105 0.929 . S
H1096 C1100 0.929 . S
H1097 C1106 0.929 . S
C1098 H1092 0.930 . S
C1098 C1099 1.367 . S
C1098 C1106 1.378 . S
C1099 C1098 1.367 . S
C1099 C1107 1.433 . S
C1100 H1096 0.929 . S
C1100 C1102 1.378 . S
C1100 C1104 1.350 . S
C1101 C1104 1.463 . S
C1101 C1106 1.350 . S
C1101 N1109 1.427 . S
C1102 H1093 0.930 . S
C1102 C1100 1.378 . S
C1102 C1103 1.367 . S
C1103 C1102 1.367 . S
C1103 C1105 1.433 . S
C1104 C1100 1.350 . S
C1104 C1101 1.463 . S
C1104 N1108 1.427 . S
C1105 H1095 0.929 . S
C1105 C1103 1.433 . S
C1105 N1108 1.384 . S
C1106 H1097 0.929 . S
C1106 C1098 1.378 . S
C1106 C1101 1.350 . S
C1107 H1094 0.929 . S
C1107 C1099 1.433 . S
C1107 N1109 1.384 . S
N1108 C1104 1.427 . S
N1108 C1105 1.384 . S
N1109 C1101 1.427 . S
N1109 C1107 1.384 . S
H1110 C1116 0.930 . S
H1111 C1120 0.930 . S
H1112 C1125 0.929 . S
H1113 C1123 0.929 . S
H1114 C1118 0.929 . S
H1115 C1124 0.929 . S
C1116 H1110 0.930 . S
C1116 C1117 1.367 . S
C1116 C1124 1.378 . S
C1117 C1116 1.367 . S
C1117 C1125 1.433 . S
C1118 H1114 0.929 . S
C1118 C1120 1.378 . S
C1118 C1122 1.350 . S
C1119 C1122 1.463 . S
C1119 C1124 1.350 . S
C1119 N1127 1.427 . S
C1120 H1111 0.930 . S
C1120 C1118 1.378 . S
C1120 C1121 1.367 . S
C1121 C1120 1.367 . S
C1121 C1123 1.433 . S
C1122 C1118 1.350 . S
C1122 C1119 1.463 . S
C1122 N1126 1.427 . S
C1123 H1113 0.929 . S
C1123 C1121 1.433 . S
C1123 N1126 1.384 . S
C1124 H1115 0.929 . S
C1124 C1116 1.378 . S
C1124 C1119 1.350 . S
C1125 H1112 0.929 . S
C1125 C1117 1.433 . S
C1125 N1127 1.384 . S
N1126 C1122 1.427 . S
N1126 C1123 1.384 . S
N1127 C1119 1.427 . S
N1127 C1125 1.384 . S
H1128 C1134 0.930 . S
H1129 C1138 0.930 . S
H1130 C1143 0.929 . S
H1131 C1141 0.929 . S
H1132 C1136 0.929 . S
H1133 C1142 0.929 . S
C1134 H1128 0.930 . S
C1134 C1135 1.367 . S
C1134 C1142 1.378 . S
C1135 C1134 1.367 . S
C1135 C1143 1.433 . S
C1136 H1132 0.929 . S
C1136 C1138 1.378 . S
C1136 C1140 1.350 . S
C1137 C1140 1.463 . S
C1137 C1142 1.350 . S
C1137 N1145 1.427 . S
C1138 H1129 0.930 . S
C1138 C1136 1.378 . S
C1138 C1139 1.367 . S
C1139 C1138 1.367 . S
C1139 C1141 1.433 . S
C1140 C1136 1.350 . S
C1140 C1137 1.463 . S
C1140 N1144 1.427 . S
C1141 H1131 0.929 . S
C1141 C1139 1.433 . S
C1141 N1144 1.384 . S
C1142 H1133 0.929 . S
C1142 C1134 1.378 . S
C1142 C1137 1.350 . S
C1143 H1130 0.929 . S
C1143 C1135 1.433 . S
C1143 N1145 1.384 . S
N1144 C1140 1.427 . S
N1144 C1141 1.384 . S
N1145 C1137 1.427 . S
N1145 C1143 1.384 . S
H1146 C1152 0.930 . S
H1147 C1156 0.930 . S
H1148 C1161 0.929 . S
H1149 C1159 0.929 . S
H1150 C1154 0.929 . S
H1151 C1160 0.929 . S
C1152 H1146 0.930 . S
C1152 C1153 1.367 . S
C1152 C1160 1.378 . S
C1153 C1152 1.367 . S
C1153 C1161 1.433 . S
C1154 H1150 0.929 . S
C1154 C1156 1.378 . S
C1154 C1158 1.350 . S
C1155 C1158 1.463 . S
C1155 C1160 1.350 . S
C1155 N1163 1.427 . S
C1156 H1147 0.930 . S
C1156 C1154 1.378 . S
C1156 C1157 1.367 . S
C1157 C1156 1.367 . S
C1157 C1159 1.433 . S
C1158 C1154 1.350 . S
C1158 C1155 1.463 . S
C1158 N1162 1.427 . S
C1159 H1149 0.929 . S
C1159 C1157 1.433 . S
C1159 N1162 1.384 . S
C1160 H1151 0.929 . S
C1160 C1152 1.378 . S
C1160 C1155 1.350 . S
C1161 H1148 0.929 . S
C1161 C1153 1.433 . S
C1161 N1163 1.384 . S
N1162 C1158 1.427 . S
N1162 C1159 1.384 . S
N1163 C1155 1.427 . S
N1163 C1161 1.384 . S
H1164 C1170 0.930 . S
H1165 C1174 0.930 . S
H1166 C1179 0.929 . S
H1167 C1177 0.929 . S
H1168 C1172 0.929 . S
H1169 C1178 0.929 . S
C1170 H1164 0.930 . S
C1170 C1171 1.367 . S
C1170 C1178 1.378 . S
C1171 C1170 1.367 . S
C1171 C1179 1.433 . S
C1172 H1168 0.929 . S
C1172 C1174 1.378 . S
C1172 C1176 1.350 . S
C1173 C1176 1.463 . S
C1173 C1178 1.350 . S
C1173 N1181 1.427 . S
C1174 H1165 0.930 . S
C1174 C1172 1.378 . S
C1174 C1175 1.367 . S
C1175 C1174 1.367 . S
C1175 C1177 1.433 . S
C1176 C1172 1.350 . S
C1176 C1173 1.463 . S
C1176 N1180 1.427 . S
C1177 H1167 0.929 . S
C1177 C1175 1.433 . S
C1177 N1180 1.384 . S
C1178 H1169 0.929 . S
C1178 C1170 1.378 . S
C1178 C1173 1.350 . S
C1179 H1166 0.929 . S
C1179 C1171 1.433 . S
C1179 N1181 1.384 . S
N1180 C1176 1.427 . S
N1180 C1177 1.384 . S
N1181 C1173 1.427 . S
N1181 C1179 1.384 . S
H1182 C1188 0.930 . S
H1183 C1192 0.930 . S
H1184 C1197 0.929 . S
H1185 C1195 0.929 . S
H1186 C1190 0.929 . S
H1187 C1196 0.929 . S
C1188 H1182 0.930 . S
C1188 C1189 1.367 . S
C1188 C1196 1.378 . S
C1189 C1188 1.367 . S
C1189 C1197 1.433 . S
C1190 H1186 0.929 . S
C1190 C1192 1.378 . S
C1190 C1194 1.350 . S
C1191 C1194 1.463 . S
C1191 C1196 1.350 . S
C1191 N1199 1.427 . S
C1192 H1183 0.930 . S
C1192 C1190 1.378 . S
C1192 C1193 1.367 . S
C1193 C1192 1.367 . S
C1193 C1195 1.433 . S
C1194 C1190 1.350 . S
C1194 C1191 1.463 . S
C1194 N1198 1.427 . S
C1195 H1185 0.929 . S
C1195 C1193 1.433 . S
C1195 N1198 1.384 . S
C1196 H1187 0.929 . S
C1196 C1188 1.378 . S
C1196 C1191 1.350 . S
C1197 H1184 0.929 . S
C1197 C1189 1.433 . S
C1197 N1199 1.384 . S
N1198 C1194 1.427 . S
N1198 C1195 1.384 . S
N1199 C1191 1.427 . S
N1199 C1197 1.384 . S
C343 C9 1.530 . S
C347 C107 1.535 . S
C361 C121 1.538 . S
C365 C23 1.527 . S
C379 C37 1.535 . S
C383 C135 1.530 . S
C397 C51 1.529 . S
C401 C149 1.536 . S
C415 C163 1.534 . S
C419 C65 1.531 . S
C433 C79 1.534 . S
C437 C93 1.531 . S
C451 C177 1.533 . S
C455 C275 1.532 . S
C469 C191 1.537 . S
C473 C289 1.528 . S
C487 C303 1.536 . S
C491 C205 1.529 . S
C505 C219 1.538 . S
C509 C317 1.527 . S
C523 C233 1.537 . S
C527 C331 1.528 . S
C541 C261 1.535 . S
C545 C247 1.531 . S
C559 C8 1.392 . S
C563 C120 1.392 . S
C577 C134 1.394 . S
C581 C22 1.393 . S
C595 C148 1.391 . S
C599 C36 1.391 . S
C613 C50 1.391 . S
C617 C162 1.391 . S
C631 C64 1.395 . S
C635 C92 1.394 . S
C649 C78 1.392 . S
C653 C106 1.392 . S
C667 C288 1.396 . S
C671 C176 1.395 . S
C685 C190 1.393 . S
C689 C302 1.394 . S
C703 C316 1.395 . S
C707 C204 1.395 . S
C721 C330 1.392 . S
C725 C218 1.392 . S
C739 C260 1.391 . S
C743 C232 1.392 . S
C757 C246 1.394 . S
C761 C274 1.395 . S
C775 C7 1.528 . S
C779 C217 1.533 . S
C793 C231 1.534 . S
C797 C21 1.526 . S
C811 C245 1.525 . S
C815 C35 1.536 . S
C829 C49 1.532 . S
C833 C175 1.529 . S
C847 C63 1.537 . S
C851 C189 1.523 . S
C865 C203 1.524 . S
C869 C77 1.536 . S
C883 C301 1.530 . S
C887 C91 1.531 . S
C901 C315 1.523 . S
C905 C105 1.537 . S
C919 C329 1.537 . S
C923 C119 1.523 . S
C937 C259 1.527 . S
C941 C133 1.533 . S
C955 C147 1.528 . S
C959 C273 1.532 . S
C973 C161 1.536 . S
C977 C287 1.525 . S
C991 C3 1.437 . S
C995 C143 1.440 . S
C1009 C157 1.439 . S
C1013 C17 1.441 . S
C1027 C87 1.439 . S
C1031 C31 1.442 . S
C1045 C45 1.439 . S
C1049 C101 1.442 . S
C1063 C59 1.439 . S
C1067 C115 1.442 . S
C1081 C73 1.440 . S
C1085 C129 1.442 . S
C1099 C171 1.442 . S
C1103 C311 1.439 . S
C1117 C185 1.437 . S
C1121 C325 1.438 . S
C1135 C199 1.437 . S
C1139 C255 1.440 . S
C1153 C269 1.442 . S
C1157 C213 1.440 . S
C1171 C227 1.442 . S
C1175 C283 1.441 . S
C1189 C241 1.438 . S
C1193 C297 1.437 . S
