# Generated by pormake.
# Topology xfz, (5)-cn, num edge types: 1
# Building blocks:
#     Node 0, Type 0, BuildingBlock: XOMCOT_clean_sbu_1, # of connection points: 5
#     Node 1, Type 0, BuildingBlock: XOMCOT_clean_sbu_1, # of connection points: 5
#     Node 2, Type 0, BuildingBlock: XOMCOT_clean_sbu_1, # of connection points: 5
#     Node 3, Type 0, BuildingBlock: XOMCOT_clean_sbu_1, # of connection points: 5
#     Node 4, Type 0, BuildingBlock: XOMCOT_clean_sbu_1, # of connection points: 5
#     Node 5, Type 0, BuildingBlock: XOMCOT_clean_sbu_1, # of connection points: 5
#     Node 6, Type 0, BuildingBlock: XOMCOT_clean_sbu_1, # of connection points: 5
#     Node 7, Type 0, BuildingBlock: XOMCOT_clean_sbu_1, # of connection points: 5
#     Node 8, Type 0, BuildingBlock: XOMCOT_clean_sbu_1, # of connection points: 5
#     Node 9, Type 0, BuildingBlock: XOMCOT_clean_sbu_1, # of connection points: 5
#     Node 10, Type 0, BuildingBlock: XOMCOT_clean_sbu_1, # of connection points: 5
#     Node 11, Type 0, BuildingBlock: XOMCOT_clean_sbu_1, # of connection points: 5
#     Node 12, Type 0, BuildingBlock: XOMCOT_clean_sbu_1, # of connection points: 5
#     Node 13, Type 0, BuildingBlock: XOMCOT_clean_sbu_1, # of connection points: 5
#     Node 14, Type 0, BuildingBlock: XOMCOT_clean_sbu_1, # of connection points: 5
#     Node 15, Type 0, BuildingBlock: XOMCOT_clean_sbu_1, # of connection points: 5
#     Edge 16, Type (0, 0), BuildingBlock: MIFKUJ_clean_linker_0, # of connection points: 2
#     Edge 17, Type (0, 0), BuildingBlock: MIFKUJ_clean_linker_0, # of connection points: 2
#     Edge 18, Type (0, 0), BuildingBlock: MIFKUJ_clean_linker_0, # of connection points: 2
#     Edge 19, Type (0, 0), BuildingBlock: MIFKUJ_clean_linker_0, # of connection points: 2
#     Edge 20, Type (0, 0), BuildingBlock: MIFKUJ_clean_linker_0, # of connection points: 2
#     Edge 21, Type (0, 0), BuildingBlock: MIFKUJ_clean_linker_0, # of connection points: 2
#     Edge 22, Type (0, 0), BuildingBlock: MIFKUJ_clean_linker_0, # of connection points: 2
#     Edge 23, Type (0, 0), BuildingBlock: MIFKUJ_clean_linker_0, # of connection points: 2
#     Edge 24, Type (0, 0), BuildingBlock: MIFKUJ_clean_linker_0, # of connection points: 2
#     Edge 25, Type (0, 0), BuildingBlock: MIFKUJ_clean_linker_0, # of connection points: 2
#     Edge 26, Type (0, 0), BuildingBlock: MIFKUJ_clean_linker_0, # of connection points: 2
#     Edge 27, Type (0, 0), BuildingBlock: MIFKUJ_clean_linker_0, # of connection points: 2
#     Edge 28, Type (0, 0), BuildingBlock: MIFKUJ_clean_linker_0, # of connection points: 2
#     Edge 29, Type (0, 0), BuildingBlock: MIFKUJ_clean_linker_0, # of connection points: 2
#     Edge 30, Type (0, 0), BuildingBlock: MIFKUJ_clean_linker_0, # of connection points: 2
#     Edge 31, Type (0, 0), BuildingBlock: MIFKUJ_clean_linker_0, # of connection points: 2
#     Edge 32, Type (0, 0), BuildingBlock: MIFKUJ_clean_linker_0, # of connection points: 2
#     Edge 33, Type (0, 0), BuildingBlock: MIFKUJ_clean_linker_0, # of connection points: 2
#     Edge 34, Type (0, 0), BuildingBlock: MIFKUJ_clean_linker_0, # of connection points: 2
#     Edge 35, Type (0, 0), BuildingBlock: MIFKUJ_clean_linker_0, # of connection points: 2
#     Edge 36, Type (0, 0), BuildingBlock: MIFKUJ_clean_linker_0, # of connection points: 2
#     Edge 37, Type (0, 0), BuildingBlock: MIFKUJ_clean_linker_0, # of connection points: 2
#     Edge 38, Type (0, 0), BuildingBlock: MIFKUJ_clean_linker_0, # of connection points: 2
#     Edge 39, Type (0, 0), BuildingBlock: MIFKUJ_clean_linker_0, # of connection points: 2
#     Edge 40, Type (0, 0), BuildingBlock: MIFKUJ_clean_linker_0, # of connection points: 2
#     Edge 41, Type (0, 0), BuildingBlock: MIFKUJ_clean_linker_0, # of connection points: 2
#     Edge 42, Type (0, 0), BuildingBlock: MIFKUJ_clean_linker_0, # of connection points: 2
#     Edge 43, Type (0, 0), BuildingBlock: MIFKUJ_clean_linker_0, # of connection points: 2
#     Edge 44, Type (0, 0), BuildingBlock: MIFKUJ_clean_linker_0, # of connection points: 2
#     Edge 45, Type (0, 0), BuildingBlock: MIFKUJ_clean_linker_0, # of connection points: 2
#     Edge 46, Type (0, 0), BuildingBlock: MIFKUJ_clean_linker_0, # of connection points: 2
#     Edge 47, Type (0, 0), BuildingBlock: MIFKUJ_clean_linker_0, # of connection points: 2
#     Edge 48, Type (0, 0), BuildingBlock: MIFKUJ_clean_linker_0, # of connection points: 2
#     Edge 49, Type (0, 0), BuildingBlock: MIFKUJ_clean_linker_0, # of connection points: 2
#     Edge 50, Type (0, 0), BuildingBlock: MIFKUJ_clean_linker_0, # of connection points: 2
#     Edge 51, Type (0, 0), BuildingBlock: MIFKUJ_clean_linker_0, # of connection points: 2
#     Edge 52, Type (0, 0), BuildingBlock: MIFKUJ_clean_linker_0, # of connection points: 2
#     Edge 53, Type (0, 0), BuildingBlock: MIFKUJ_clean_linker_0, # of connection points: 2
#     Edge 54, Type (0, 0), BuildingBlock: MIFKUJ_clean_linker_0, # of connection points: 2
#     Edge 55, Type (0, 0), BuildingBlock: MIFKUJ_clean_linker_0, # of connection points: 2
# Relax obj value: 0.572
# Max RMSD: 0.322
# Mean RMSD: 0.322
data_MOF--net-xfz--node1-XOMCOT_clean_sbu_1--edge1-MIFKUJ_clean_linker_0
_symmetry_space_group_name_H-M    P1
_symmetry_Int_Tables_number       1
_symmetry_cell_setting            triclinic
loop_
_symmetry_equiv_pos_as_xyz
'x, y, z'
_cell_length_a     48.505062
_cell_length_b     48.482212
_cell_length_c     74.065432
_cell_angle_alpha  90.010559
_cell_angle_beta   90.007397
_cell_angle_gamma 89.935174
loop_
_atom_site_label
_atom_site_type_symbol
_atom_site_fract_x
_atom_site_fract_y
_atom_site_fract_z
_atom_type_partial_charge
C0 C 0.22635 0.47733 0.32984 0.0
C1 C 0.22737 0.4606 0.3149 0.0
N2 N 0.20371 0.44605 0.31405 0.0
N3 N 0.20221 0.47342 0.3384 0.0
C4 C 0.18885 0.45421 0.32857 0.0
H5 H 0.24225 0.49141 0.3343 0.0
Co6 Co 0.19274 0.49099 0.35968 0.0
C7 C 0.13547 0.47348 0.36652 0.0
O8 O 0.14326 0.46229 0.38185 0.0
N9 N 0.18387 0.50889 0.38127 0.0
C10 C 0.16453 0.53651 0.40163 0.0
C11 C 0.16389 0.5279 0.38394 0.0
C12 C 0.19633 0.5063 0.39747 0.0
N13 N 0.18492 0.5228 0.41009 0.0
O14 O 0.19855 0.45657 0.37215 0.0
H15 H 0.14973 0.53503 0.37366 0.0
H16 H 0.21367 0.49286 0.40001 0.0
O17 O 0.15359 0.48367 0.35598 0.0
C18 C 0.22427 0.45307 0.37492 0.0
O19 O 0.24096 0.47362 0.37111 0.0
N20 N 0.18925 0.52422 0.34698 0.0
C21 C 0.19071 0.5713 0.32557 0.0
C22 C 0.17324 0.54934 0.32118 0.0
C23 C 0.17281 0.52597 0.33206 0.0
C24 C 0.20624 0.54551 0.35157 0.0
C25 C 0.20697 0.56958 0.34115 0.0
H26 H 0.16022 0.50873 0.32792 0.0
H27 H 0.21979 0.54352 0.3631 0.0
H28 H 0.1685 0.4467 0.33191 0.0
H29 H 0.24441 0.45918 0.30553 0.0
H30 H 0.15076 0.55129 0.40786 0.0
H31 H 0.16045 0.55003 0.30919 0.0
H32 H 0.22087 0.58614 0.34479 0.0
C33 C 0.47763 0.77084 0.68618 0.0
C34 C 0.45705 0.77774 0.69806 0.0
N35 N 0.44276 0.79909 0.6911 0.0
N36 N 0.47666 0.78799 0.67188 0.0
C37 C 0.45515 0.80495 0.67521 0.0
H38 H 0.49122 0.75328 0.6874 0.0
Co39 Co 0.49552 0.7825 0.6505 0.0
C40 C 0.51918 0.83578 0.6391 0.0
O41 O 0.5411 0.82175 0.63413 0.0
N42 N 0.51362 0.77571 0.6284 0.0
C43 C 0.53898 0.76035 0.60545 0.0
C44 C 0.53496 0.75917 0.62382 0.0
C45 C 0.50496 0.78638 0.61253 0.0
N46 N 0.52002 0.77753 0.59839 0.0
O47 O 0.46072 0.78151 0.63823 0.0
H48 H 0.54687 0.74659 0.63292 0.0
H49 H 0.48748 0.80013 0.61138 0.0
O50 O 0.49877 0.82312 0.64643 0.0
C51 C 0.45319 0.75696 0.63468 0.0
O52 O 0.47025 0.73665 0.63842 0.0
N53 N 0.52884 0.78129 0.66364 0.0
C54 C 0.57181 0.77336 0.68811 0.0
C55 C 0.56143 0.79981 0.68476 0.0
C56 C 0.53936 0.80323 0.67295 0.0
C57 C 0.53846 0.75532 0.66702 0.0
C58 C 0.56006 0.75086 0.67917 0.0
H59 H 0.52979 0.82328 0.67235 0.0
H60 H 0.52822 0.73776 0.66101 0.0
H61 H 0.44796 0.82034 0.66573 0.0
H62 H 0.45198 0.76672 0.71032 0.0
H63 H 0.55462 0.74933 0.59792 0.0
H64 H 0.56906 0.81748 0.6922 0.0
H65 H 0.56688 0.73002 0.68199 0.0
C66 C 0.77497 0.5845 0.31579 0.0
C67 C 0.78387 0.60017 0.30153 0.0
N68 N 0.81157 0.60145 0.30222 0.0
N69 N 0.79694 0.57586 0.32536 0.0
C70 C 0.81904 0.58672 0.3169 0.0
H71 H 0.75384 0.57913 0.31883 0.0
Co72 Co 0.79231 0.55247 0.34458 0.0
C73 C 0.84722 0.53503 0.35767 0.0
O74 O 0.83636 0.51044 0.35989 0.0
N75 N 0.7856 0.52913 0.36448 0.0
C76 C 0.7698 0.4975 0.38361 0.0
C77 C 0.7701 0.50608 0.36594 0.0
C78 C 0.79375 0.53446 0.38159 0.0
N79 N 0.78478 0.51537 0.39345 0.0
O80 O 0.78385 0.58395 0.35938 0.0
H81 H 0.7589 0.49623 0.3552 0.0
H82 H 0.80644 0.55197 0.38516 0.0
O83 O 0.8323 0.55475 0.35132 0.0
C84 C 0.7584 0.58701 0.36315 0.0
O85 O 0.74092 0.56784 0.35804 0.0
N86 N 0.79897 0.52241 0.32881 0.0
C87 C 0.8054 0.47978 0.30378 0.0
C88 C 0.82775 0.4964 0.30869 0.0
C89 C 0.82398 0.51797 0.32079 0.0
C90 C 0.77646 0.50823 0.32284 0.0
C91 C 0.77924 0.48636 0.31061 0.0
H92 H 0.84121 0.53148 0.32312 0.0
H93 H 0.75612 0.51414 0.32741 0.0
H94 H 0.84016 0.58298 0.32092 0.0
H95 H 0.77098 0.60963 0.29132 0.0
H96 H 0.75872 0.47986 0.38883 0.0
H97 H 0.84797 0.49327 0.3028 0.0
H98 H 0.76119 0.47477 0.30657 0.0
C99 C 0.59567 0.21504 0.66655 0.0
C100 C 0.61167 0.21817 0.68172 0.0
N101 N 0.62493 0.1942 0.68472 0.0
N102 N 0.59868 0.18919 0.66018 0.0
C103 C 0.61682 0.177 0.67141 0.0
H104 H 0.58182 0.23026 0.6609 0.0
Co105 Co 0.57845 0.17585 0.64103 0.0
C106 C 0.60023 0.11996 0.63431 0.0
O107 O 0.60846 0.128 0.61825 0.0
N108 N 0.55746 0.16316 0.62161 0.0
C109 C 0.52972 0.13811 0.60431 0.0
C110 C 0.54149 0.1404 0.62111 0.0
C111 C 0.55459 0.17463 0.60514 0.0
N112 N 0.538 0.1597 0.59419 0.0
O113 O 0.60954 0.18297 0.62571 0.0
H114 H 0.53879 0.12618 0.63222 0.0
H115 H 0.56437 0.1937 0.60132 0.0
O116 O 0.59038 0.13777 0.64527 0.0
C117 C 0.61126 0.20781 0.62021 0.0
O118 O 0.59067 0.22471 0.62353 0.0
N119 N 0.54848 0.17084 0.65652 0.0
C120 C 0.5047 0.16844 0.68093 0.0
C121 C 0.52785 0.15132 0.68294 0.0
C122 C 0.5497 0.15329 0.6709 0.0
C123 C 0.52625 0.18765 0.65417 0.0
C124 C 0.50408 0.18683 0.66624 0.0
H125 H 0.56791 0.14119 0.67355 0.0
H126 H 0.52602 0.20215 0.64307 0.0
H127 H 0.62264 0.15548 0.67057 0.0
H128 H 0.6127 0.23627 0.69025 0.0
H129 H 0.51652 0.12145 0.59991 0.0
H130 H 0.52933 0.13644 0.69379 0.0
H131 H 0.48699 0.20087 0.66426 0.0
C132 C 0.22843 0.55354 0.68631 0.0
C133 C 0.22384 0.57025 0.70101 0.0
N134 N 0.20071 0.58489 0.69792 0.0
N135 N 0.20823 0.55754 0.67408 0.0
C136 C 0.19168 0.57674 0.68154 0.0
H137 H 0.24543 0.53933 0.68458 0.0
Co138 Co 0.20691 0.53975 0.65192 0.0
C139 C 0.14919 0.5639 0.64541 0.0
O140 O 0.15547 0.59001 0.64312 0.0
N141 N 0.20599 0.52165 0.62953 0.0
C142 C 0.1939 0.49331 0.60726 0.0
C143 C 0.19106 0.49901 0.62532 0.0
C144 C 0.21748 0.52944 0.6137 0.0
N145 N 0.21039 0.51259 0.59997 0.0
O146 O 0.21624 0.57408 0.64052 0.0
H147 H 0.17787 0.48792 0.63457 0.0
H148 H 0.23018 0.54756 0.61203 0.0
O149 O 0.16785 0.54616 0.64882 0.0
C150 C 0.24208 0.57797 0.64229 0.0
O151 O 0.25709 0.55769 0.64881 0.0
N152 N 0.19942 0.50671 0.66411 0.0
C153 C 0.19352 0.46079 0.68639 0.0
C154 C 0.17333 0.48145 0.68597 0.0
C155 C 0.1767 0.50428 0.67488 0.0
C156 C 0.21919 0.48668 0.66404 0.0
C157 C 0.21648 0.46325 0.67497 0.0
H158 H 0.1616 0.52059 0.67573 0.0
H159 H 0.23747 0.4893 0.65587 0.0
H160 H 0.17301 0.5842 0.67536 0.0
H161 H 0.23658 0.57154 0.71298 0.0
H162 H 0.18334 0.47721 0.59986 0.0
H163 H 0.15531 0.48037 0.69455 0.0
H164 H 0.23268 0.44787 0.67505 0.0
C165 C 0.55617 0.78239 0.33634 0.0
C166 C 0.57006 0.78402 0.32019 0.0
N167 N 0.56639 0.80958 0.31363 0.0
N168 N 0.54454 0.80708 0.34007 0.0
C169 C 0.55086 0.82312 0.32581 0.0
H170 H 0.55486 0.76432 0.34481 0.0
Co171 Co 0.52462 0.81614 0.36058 0.0
C172 C 0.54118 0.87316 0.36853 0.0
O173 O 0.5501 0.86453 0.3843 0.0
N174 N 0.50405 0.82511 0.38133 0.0
C175 C 0.47503 0.84593 0.40027 0.0
C176 C 0.48418 0.84457 0.38274 0.0
C177 C 0.50647 0.81496 0.39824 0.0
N178 N 0.48917 0.82727 0.41003 0.0
O179 O 0.55794 0.81134 0.37447 0.0
H180 H 0.47723 0.85774 0.37191 0.0
H181 H 0.52138 0.79961 0.40212 0.0
O182 O 0.53213 0.85557 0.35714 0.0
C183 C 0.56149 0.7866 0.37989 0.0
O184 O 0.54108 0.76901 0.37796 0.0
N185 N 0.4928 0.81798 0.34643 0.0
C186 C 0.45117 0.81218 0.3209 0.0
C187 C 0.46187 0.83827 0.325 0.0
C188 C 0.48294 0.84073 0.33767 0.0
C189 C 0.48172 0.79263 0.34325 0.0
C190 C 0.461 0.78917 0.33035 0.0
H191 H 0.49163 0.86085 0.33992 0.0
H192 H 0.49011 0.77479 0.3501 0.0
H193 H 0.54481 0.84453 0.32451 0.0
H194 H 0.58195 0.76785 0.31377 0.0
H195 H 0.45942 0.85982 0.40539 0.0
H196 H 0.45506 0.85645 0.31774 0.0
H197 H 0.45328 0.76869 0.32743 0.0
C198 C 0.78315 0.44498 0.65915 0.0
C199 C 0.77957 0.42593 0.67272 0.0
N200 N 0.80168 0.40907 0.67286 0.0
N201 N 0.80756 0.44029 0.65102 0.0
C202 C 0.81828 0.41819 0.65953 0.0
H203 H 0.76883 0.46105 0.6553 0.0
Co204 Co 0.82106 0.45867 0.63108 0.0
C205 C 0.88 0.44372 0.63085 0.0
O206 O 0.87674 0.43103 0.61532 0.0
N207 N 0.83433 0.47714 0.61078 0.0
C208 C 0.85723 0.50558 0.59265 0.0
C209 C 0.8545 0.49633 0.6101 0.0
C210 C 0.82514 0.47513 0.59366 0.0
N211 N 0.83878 0.4921 0.58234 0.0
O212 O 0.82052 0.42418 0.61835 0.0
H213 H 0.86627 0.50337 0.62162 0.0
H214 H 0.80829 0.46198 0.58957 0.0
O215 O 0.85899 0.45349 0.63901 0.0
C216 C 0.7964 0.41874 0.61254 0.0
O217 O 0.77728 0.43786 0.61396 0.0
N218 N 0.81952 0.492 0.64383 0.0
C219 C 0.81283 0.54028 0.66358 0.0
C220 C 0.82861 0.5185 0.67045 0.0
C221 C 0.83173 0.4945 0.66036 0.0
C222 C 0.80381 0.5129 0.63699 0.0
C223 C 0.80058 0.53757 0.64656 0.0
H224 H 0.84324 0.47757 0.66612 0.0
H225 H 0.79355 0.51033 0.62413 0.0
H226 H 0.83792 0.40903 0.65603 0.0
H227 H 0.76192 0.42435 0.6816 0.0
H228 H 0.87172 0.52089 0.58789 0.0
H229 H 0.83838 0.51999 0.68357 0.0
H230 H 0.78812 0.55404 0.64096 0.0
C231 C 0.40607 0.23359 0.33652 0.0
C232 C 0.39033 0.2261 0.32193 0.0
N233 N 0.39551 0.19941 0.3182 0.0
N234 N 0.42105 0.21174 0.34199 0.0
C235 C 0.41407 0.19108 0.33067 0.0
H236 H 0.40703 0.25385 0.34259 0.0
Co237 Co 0.4464 0.21465 0.36037 0.0
C238 C 0.46758 0.15866 0.36901 0.0
O239 O 0.49169 0.17001 0.37207 0.0
N240 N 0.47179 0.21925 0.3795 0.0
C241 C 0.50685 0.23164 0.39709 0.0
C242 C 0.49598 0.23306 0.38001 0.0
C243 C 0.46832 0.21006 0.3966 0.0
N244 N 0.48942 0.21715 0.40755 0.0
O245 O 0.41606 0.21825 0.37693 0.0
H246 H 0.50553 0.24372 0.36892 0.0
H247 H 0.45048 0.19842 0.4009 0.0
O248 O 0.4472 0.17369 0.36379 0.0
C249 C 0.41224 0.24243 0.38324 0.0
O250 O 0.43124 0.26126 0.38048 0.0
N251 N 0.47472 0.21352 0.34297 0.0
C252 C 0.51156 0.21867 0.31438 0.0
C253 C 0.50095 0.19287 0.31906 0.0
C254 C 0.48226 0.19074 0.33324 0.0
C255 C 0.4837 0.239 0.3378 0.0
C256 C 0.50284 0.24202 0.32384 0.0
H257 H 0.47304 0.1709 0.33558 0.0
H258 H 0.47582 0.25714 0.34458 0.0
H259 H 0.42322 0.17074 0.33107 0.0
H260 H 0.37643 0.23936 0.31449 0.0
H261 H 0.5263 0.2404 0.40133 0.0
H262 H 0.50668 0.17454 0.31154 0.0
H263 H 0.5101 0.26236 0.32013 0.0
C264 C 0.70212 0.94409 0.83631 0.0
C265 C 0.70624 0.92389 0.82357 0.0
N266 N 0.68632 0.90487 0.8255 0.0
N267 N 0.67925 0.93823 0.84602 0.0
C268 C 0.67048 0.9139 0.83923 0.0
H269 H 0.71598 0.96105 0.83864 0.0
Co270 Co 0.66526 0.95441 0.8672 0.0
C271 C 0.61471 0.94908 0.84406 0.0
O272 O 0.62898 0.95481 0.82945 0.0
N273 N 0.65223 0.96979 0.88842 0.0
C274 C 0.6269 0.98827 0.91023 0.0
C275 C 0.62634 0.97681 0.89328 0.0
C276 C 0.66812 0.97736 0.90249 0.0
N277 N 0.65324 0.98855 0.91604 0.0
O278 O 0.66692 0.91876 0.87827 0.0
H279 H 0.60815 0.97422 0.88505 0.0
H280 H 0.69021 0.97446 0.90281 0.0
O281 O 0.62704 0.94757 0.85933 0.0
C282 C 0.69104 0.91395 0.88432 0.0
O283 O 0.7093 0.93394 0.8838 0.0
N284 N 0.66576 0.98986 0.85694 0.0
C285 C 0.67356 0.03923 0.83863 0.0
C286 C 0.64686 0.02978 0.84241 0.0
C287 C 0.64339 0.00524 0.85198 0.0
C288 C 0.69146 1.00102 0.85591 0.0
C289 C 0.69601 0.02532 0.84631 0.0
H290 H 0.62272 0.99863 0.85504 0.0
H291 H 0.70874 0.99026 0.86189 0.0
H292 H 0.65279 0.90289 0.84443 0.0
H293 H 0.72314 0.92282 0.81405 0.0
H294 H 0.60927 0.99609 0.91758 0.0
H295 H 0.62887 0.04045 0.83728 0.0
H296 H 0.71688 0.03268 0.84442 0.0
C297 C 0.96375 0.28214 0.16726 0.0
C298 C 0.94342 0.28242 0.18024 0.0
N299 N 0.92703 0.30437 0.17715 0.0
N300 N 0.96041 0.3042 0.15641 0.0
C301 C 0.93767 0.31707 0.16258 0.0
H302 H 0.98044 0.26742 0.16614 0.0
Co303 Co 0.98276 0.31502 0.13752 0.0
C304 C 0.96719 0.37283 0.13161 0.0
O305 O 0.95999 0.36681 0.11497 0.0
N306 N 0.00523 0.32583 0.11821 0.0
C307 C 0.0348 0.34885 0.10091 0.0
C308 C 0.02469 0.34574 0.11815 0.0
C309 C 0.00414 0.31698 0.10097 0.0
N310 N 0.02172 0.33075 0.0901 0.0
O311 O 0.95139 0.31178 0.12203 0.0
H312 H 0.03054 0.35787 0.1298 0.0
H313 H 0.98975 0.30166 0.09624 0.0
O314 O 0.97496 0.35362 0.14219 0.0
C315 C 0.9468 0.28726 0.11671 0.0
O316 O 0.96535 0.26817 0.12013 0.0
N317 N 0.01293 0.31675 0.15331 0.0
C318 C 0.05687 0.31726 0.17744 0.0
C319 C 0.03291 0.3324 0.18104 0.0
C320 C 0.0112 0.3319 0.16881 0.0
C321 C 0.03582 0.30127 0.14976 0.0
C322 C 0.05838 0.30164 0.16155 0.0
H323 H 0.9927 0.34328 0.17206 0.0
H324 H 0.03662 0.28873 0.13769 0.0
H325 H 0.92981 0.33618 0.15704 0.0
H326 H 0.94123 0.26805 0.19134 0.0
H327 H 0.05013 0.36367 0.09665 0.0
H328 H 0.03107 0.34482 0.19314 0.0
H329 H 0.07659 0.2896 0.15843 0.0
C330 C 0.25938 0.04569 0.80552 0.0
C331 C 0.2708 0.06212 0.79242 0.0
N332 N 0.29615 0.0698 0.79794 0.0
N333 N 0.27748 0.04284 0.81916 0.0
C334 C 0.29962 0.05788 0.81427 0.0
H335 H 0.2392 0.03624 0.80514 0.0
Co336 Co 0.27021 0.02281 0.83965 0.0
C337 C 0.3242 0.0044 0.8546 0.0
O338 O 0.31237 0.98135 0.85974 0.0
N339 N 0.2614 0.00299 0.86075 0.0
C340 C 0.24359 0.97507 0.88158 0.0
C341 C 0.24475 0.98101 0.86343 0.0
C342 C 0.26949 0.01033 0.87754 0.0
N343 N 0.25937 0.99347 0.89038 0.0
O344 O 0.26424 0.0568 0.85239 0.0
H345 H 0.2337 0.96998 0.85309 0.0
H346 H 0.28265 0.02785 0.88028 0.0
O347 O 0.30995 0.02296 0.84646 0.0
C348 C 0.23894 0.06238 0.85521 0.0
O349 O 0.22021 0.04428 0.85032 0.0
N350 N 0.27447 0.99023 0.82589 0.0
C351 C 0.27655 0.94663 0.80135 0.0
C352 C 0.30069 0.95978 0.80696 0.0
C353 C 0.29915 0.98209 0.8187 0.0
C354 C 0.25062 0.97842 0.81989 0.0
C355 C 0.25116 0.95637 0.80766 0.0
H356 H 0.31777 0.99358 0.82097 0.0
H357 H 0.23099 0.98684 0.82409 0.0
H358 H 0.31775 0.06032 0.82261 0.0
H359 H 0.26134 0.06747 0.77966 0.0
H360 H 0.23228 0.95834 0.88779 0.0
H361 H 0.32056 0.95379 0.80151 0.0
H362 H 0.23202 0.94734 0.80301 0.0
C363 C 0.08917 0.74019 0.15617 0.0
C364 C 0.10404 0.74476 0.17168 0.0
N365 N 0.11334 0.72031 0.17765 0.0
N366 N 0.08766 0.71281 0.15288 0.0
C367 C 0.10385 0.70147 0.16577 0.0
H368 H 0.08087 0.75603 0.14745 0.0
Co369 Co 0.07252 0.69731 0.13185 0.0
C370 C 0.06987 0.64674 0.15531 0.0
O371 O 0.0602 0.66106 0.16899 0.0
N372 N 0.05887 0.6828 0.11047 0.0
C373 C 0.05305 0.65567 0.08669 0.0
C374 C 0.06782 0.65964 0.10226 0.0
C375 C 0.03929 0.69312 0.0994 0.0
N376 N 0.03515 0.67672 0.08495 0.0
O377 O 0.10894 0.69751 0.12203 0.0
H378 H 0.08463 0.6469 0.10699 0.0
H379 H 0.0285 0.71233 0.10182 0.0
O380 O 0.0773 0.65918 0.14083 0.0
C381 C 0.11406 0.71503 0.10968 0.0
O382 O 0.09357 0.72939 0.10285 0.0
N383 N 0.03611 0.69826 0.14151 0.0
C384 C 0.98819 0.69661 0.1621 0.0
C385 C 0.99565 0.67403 0.15134 0.0
C386 C 0.01949 0.67548 0.14085 0.0
C387 C 0.02653 0.72177 0.14947 0.0
C388 C 0.00298 0.72122 0.16027 0.0
H389 H 0.02561 0.65745 0.13326 0.0
H390 H 0.03746 0.7409 0.14809 0.0
H391 H 0.10939 0.67992 0.16625 0.0
H392 H 0.10837 0.76453 0.1778 0.0
H393 H 0.05608 0.6393 0.07693 0.0
H394 H 0.98439 0.65478 0.152 0.0
H395 H 0.997 0.73957 0.16765 0.0
C396 C 0.72836 0.08979 0.17901 0.0
C397 C 0.72103 0.11005 0.19111 0.0
N398 N 0.69792 0.12253 0.18505 0.0
N399 N 0.70988 0.08937 0.16547 0.0
C400 C 0.69195 0.1098 0.16929 0.0
H401 H 0.74527 0.07538 0.1804 0.0
Co402 Co 0.70866 0.06367 0.14704 0.0
C403 C 0.65641 0.07497 0.12814 0.0
O404 O 0.66988 0.08056 0.1132 0.0
N405 N 0.70728 0.03746 0.12817 0.0
C406 C 0.69068 0.00403 0.11071 0.0
C407 C 0.69059 0.01512 0.1277 0.0
C408 C 0.71729 0.03934 0.11115 0.0
N409 N 0.70709 0.01955 0.10023 0.0
O410 O 0.7197 0.09212 0.13073 0.0
H411 H 0.67718 0.00852 0.13852 0.0
H412 H 0.72945 0.05644 0.10627 0.0
O413 O 0.66976 0.07057 0.14268 0.0
C414 C 0.74584 0.09445 0.13091 0.0
O415 O 0.76017 0.07596 0.13991 0.0
N416 N 0.69939 0.03651 0.16399 0.0
C417 C 0.68388 0.99401 0.18703 0.0
C418 C 0.66828 0.01829 0.186 0.0
C419 C 0.67646 0.03934 0.1745 0.0
C420 C 0.71625 0.01418 0.16596 0.0
C421 C 0.70866 0.99237 0.17728 0.0
H422 H 0.66417 0.05789 0.174 0.0
H423 H 0.73496 0.01273 0.15807 0.0
H424 H 0.67431 0.11453 0.16094 0.0
H425 H 0.73106 0.114 0.20389 0.0
H426 H 0.67802 0.9871 0.10608 0.0
H427 H 0.6497 0.02096 0.19393 0.0
H428 H 0.72151 0.97412 0.1779 0.0
C429 C 0.02325 0.26772 0.81541 0.0
C430 C 0.04263 0.27099 0.8021 0.0
N431 N 0.05804 0.29329 0.80611 0.0
N432 N 0.0261 0.28808 0.82765 0.0
C433 C 0.04752 0.30328 0.82171 0.0
H434 H 0.00853 0.25108 0.8164 0.0
Co435 Co 0.00736 0.28954 0.84928 0.0
C436 C 0.99186 0.34771 0.85598 0.0
O437 O 0.96818 0.33842 0.86202 0.0
N438 N 0.98893 0.28968 0.87176 0.0
C439 C 0.96203 0.28068 0.89538 0.0
C440 C 0.96553 0.27695 0.87717 0.0
C441 C 0.99917 0.30095 0.88708 0.0
N442 N 0.98329 0.29567 0.9016 0.0
O443 O 0.04197 0.28565 0.86148 0.0
H444 H 0.95192 0.2649 0.86888 0.0
H445 H 0.01853 0.31199 0.88768 0.0
O446 O 0.0101 0.33072 0.85005 0.0
C447 C 0.0462 0.26064 0.86594 0.0
O448 O 0.02626 0.24272 0.86336 0.0
N449 N 0.97401 0.29088 0.83621 0.0
C450 C 0.92799 0.28734 0.81385 0.0
C451 C 0.94395 0.31134 0.81427 0.0
C452 C 0.96745 0.31228 0.82501 0.0
C453 C 0.95979 0.26667 0.83494 0.0
C454 C 0.93639 0.26453 0.82402 0.0
H455 H 0.98115 0.32952 0.82341 0.0
H456 H 0.9672 0.24862 0.84202 0.0
H457 H 0.05595 0.32054 0.82913 0.0
H458 H 0.04519 0.2578 0.79043 0.0
H459 H 0.94534 0.27252 0.90348 0.0
H460 H 0.93918 0.32866 0.80556 0.0
H461 H 0.92532 0.24517 0.82325 0.0
C462 C 0.30342 0.94706 0.15562 0.0
C463 C 0.30369 0.92909 0.16992 0.0
N464 N 0.32752 0.91476 0.16946 0.0
N465 N 0.32693 0.94416 0.14617 0.0
C466 C 0.34124 0.92427 0.15483 0.0
H467 H 0.287 0.96122 0.15216 0.0
Co468 Co 0.33374 0.96372 0.12531 0.0
C469 C 0.38949 0.94814 0.11402 0.0
O470 O 0.37972 0.941 0.09815 0.0
N471 N 0.3397 0.98399 0.10422 0.0
C472 C 0.3564 0.01326 0.08387 0.0
C473 C 0.35936 0.00315 0.10112 0.0
C474 C 0.32486 0.98319 0.08884 0.0
N475 N 0.33461 1.00067 0.0762 0.0
O476 O 0.32679 0.93076 0.11182 0.0
H477 H 0.37497 0.00924 0.11076 0.0
H478 H 0.30753 0.96965 0.08673 0.0
O479 O 0.37289 0.95552 0.12646 0.0
C480 C 0.30112 0.9268 0.10938 0.0
O481 O 0.28382 0.94624 0.11439 0.0
N482 N 0.33872 0.99553 0.13907 0.0
C483 C 0.3395 0.04107 0.16183 0.0
C484 C 0.36087 0.02167 0.16231 0.0
C485 C 0.35997 0.99883 0.15097 0.0
C486 C 0.31789 0.01438 0.13822 0.0
C487 C 0.31778 0.03738 0.14961 0.0
H488 H 0.37579 0.98334 0.15244 0.0
H489 H 0.30086 0.01102 0.12905 0.0
H490 H 0.36134 0.91712 0.15057 0.0
H491 H 0.28738 0.92659 0.17974 0.0
H492 H 0.36921 0.02874 0.07753 0.0
H493 H 0.37745 0.02341 0.17205 0.0
H494 H 0.30074 0.05182 0.14911 0.0
C495 C 0.90802 0.72432 0.82738 0.0
C496 C 0.89368 0.72706 0.81149 0.0
N497 N 0.88212 0.70255 0.80754 0.0
N498 N 0.90563 0.6982 0.83337 0.0
C499 C 0.88949 0.68543 0.82112 0.0
H500 H 0.9202 0.7401 0.83391 0.0
Co501 Co 0.92428 0.68574 0.85357 0.0
C502 C 0.90635 0.62876 0.85904 0.0
O503 O 0.89643 0.63625 0.87481 0.0
N504 N 0.94352 0.67394 0.87408 0.0
C505 C 0.97363 0.65245 0.89188 0.0
C506 C 0.96304 0.65399 0.8747 0.0
C507 C 0.94241 0.68394 0.89108 0.0
N508 N 0.9605 0.67124 0.90209 0.0
O509 O 0.89099 0.69034 0.86715 0.0
H510 H 0.96942 0.64157 0.8633 0.0
H511 H 0.9292 0.70066 0.89535 0.0
O512 O 0.91582 0.64715 0.84837 0.0
C513 C 0.88746 0.71481 0.87295 0.0
O514 O 0.90743 0.73282 0.87075 0.0
N515 N 0.95651 0.68325 0.83981 0.0
C516 C 0.00334 0.6844 0.81824 0.0
C517 C 0.98078 0.66797 0.81351 0.0
C518 C 0.95754 0.66763 0.82449 0.0
C519 C 0.97819 0.69961 0.84457 0.0
C520 C 0.00216 0.70012 0.83408 0.0
H521 H 0.94008 0.65543 0.82031 0.0
H522 H 0.97676 0.71246 0.85648 0.0
H523 H 0.88449 0.66369 0.8216 0.0
H524 H 0.89239 0.74548 0.80328 0.0
H525 H 0.98961 0.63856 0.89655 0.0
H526 H 0.98109 0.65554 0.80134 0.0
H527 H 0.01925 0.71317 0.83802 0.0
H528 H 0.87844 0.50741 0.38171 0.0
H529 H 0.92839 0.5031 0.38233 0.0
H530 H 0.93494 0.56246 0.33915 0.0
H531 H 0.88429 0.56664 0.33839 0.0
H532 H 0.96519 0.51638 0.33219 0.0
H533 H 0.95775 0.57852 0.3816 0.0
H534 H 0.93926 0.59705 0.41014 0.0
H535 H 0.96446 0.52352 0.43794 0.0
H536 H 0.98276 0.50435 0.40951 0.0
H537 H 0.11268 0.50688 0.34053 0.0
H538 H 0.06487 0.52219 0.33816 0.0
H539 H 0.04296 0.47006 0.3831 0.0
H540 H 0.09094 0.45515 0.38583 0.0
H541 H 0.02202 0.51947 0.38782 0.0
H542 H 0.02513 0.45567 0.33784 0.0
H543 H 0.04278 0.43665 0.30919 0.0
H544 H 0.02527 0.51326 0.28244 0.0
H545 H 0.00787 0.53288 0.311 0.0
C546 C 0.8905 0.52006 0.3726 0.0
C547 C 0.87744 0.53747 0.36007 0.0
C548 C 0.91914 0.51761 0.37299 0.0
C549 C 0.93559 0.53256 0.36088 0.0
C550 C 0.9227 0.55077 0.34869 0.0
C551 C 0.89381 0.5534 0.34838 0.0
C552 C 0.96591 0.52735 0.36036 0.0
C553 C 0.9778 0.51765 0.34426 0.0
C554 C 0.98229 0.5284 0.37618 0.0
C555 C 0.9715 0.53993 0.39337 0.0
C556 C 0.9592 0.56621 0.39377 0.0
C557 C 0.94877 0.57685 0.40994 0.0
C558 C 0.95065 0.56145 0.42584 0.0
C559 C 0.96302 0.53542 0.42561 0.0
C560 C 0.97347 0.52468 0.40948 0.0
C561 C 0.09766 0.49827 0.34974 0.0
C562 C 0.10577 0.4797 0.36338 0.0
C563 C 0.07022 0.50709 0.34835 0.0
C564 C 0.05012 0.49726 0.3604 0.0
C565 C 0.05803 0.47808 0.37367 0.0
C566 C 0.0855 0.46942 0.37515 0.0
C567 C 0.02114 0.50775 0.35978 0.0
C568 C 0.00954 0.5185 0.37569 0.0
C569 C 0.00506 0.50765 0.34378 0.0
C570 C 0.01552 0.49585 0.32661 0.0
C571 C 0.02527 0.46854 0.32588 0.0
C572 C 0.03519 0.45764 0.30966 0.0
C573 C 0.03524 0.47377 0.29402 0.0
C574 C 0.02529 0.50081 0.29457 0.0
C575 C 0.01538 0.51183 0.31077 0.0
H576 H 0.04292 0.46528 0.28147 0.0
H577 H 0.94255 0.56971 0.43834 0.0
H578 H 0.57324 0.09581 0.66293 0.0
H579 H 0.55671 0.04853 0.66502 0.0
H580 H 0.59863 0.02858 0.61533 0.0
H581 H 0.61447 0.0762 0.61283 0.0
H582 H 0.54884 0.01045 0.61328 0.0
H583 H 0.61965 1.00147 0.65843 0.0
H584 H 0.6458 0.01269 0.68601 0.0
H585 H 0.57217 0.00465 0.71775 0.0
H586 H 0.54562 0.99311 0.69033 0.0
H587 H 0.54886 0.86562 0.61529 0.0
H588 H 0.55843 0.91483 0.61587 0.0
H589 H 0.50357 0.92464 0.66125 0.0
H590 H 0.49402 0.87469 0.66083 0.0
H591 H 0.55427 0.94932 0.66684 0.0
H592 H 0.48579 0.95101 0.62032 0.0
H593 H 0.46346 0.93516 0.59227 0.0
H594 H 0.53644 0.95495 0.56216 0.0
H595 H 0.55934 0.97063 0.59006 0.0
C596 C 0.5794 0.08135 0.65258 0.0
C597 C 0.59505 0.09007 0.63761 0.0
C598 C 0.56995 0.05412 0.65383 0.0
C599 C 0.5763 0.03477 0.64032 0.0
C600 C 0.59317 0.04307 0.62587 0.0
C601 C 0.60242 0.07035 0.62453 0.0
C602 C 0.56398 0.0065 0.64053 0.0
C603 C 0.55034 0.99703 0.62496 0.0
C604 C 0.56495 0.98913 0.65591 0.0
C605 C 0.58063 0.99673 0.67233 0.0
C606 C 0.60901 0.00231 0.67128 0.0
C607 C 0.62392 0.00859 0.68689 0.0
C608 C 0.61064 0.00947 0.70363 0.0
C609 C 0.58242 0.00397 0.70479 0.0
C610 C 0.56746 0.99745 0.68923 0.0
C611 C 0.53843 0.87826 0.62524 0.0
C612 C 0.52068 0.86627 0.63802 0.0
C613 C 0.54386 0.90649 0.62551 0.0
C614 C 0.53163 0.92358 0.63853 0.0
C615 C 0.51319 0.91186 0.65104 0.0
C616 C 0.50755 0.88341 0.6507 0.0
C617 C 0.53974 0.95319 0.6395 0.0
C618 C 0.55249 0.96294 0.65528 0.0
C619 C 0.53828 0.97069 0.62422 0.0
C620 C 0.52433 0.96189 0.60732 0.0
C621 C 0.49712 0.95189 0.60774 0.0
C622 C 0.48436 0.94294 0.59186 0.0
C623 C 0.49854 0.94401 0.57545 0.0
C624 C 0.52548 0.95414 0.57488 0.0
C625 C 0.53834 0.96313 0.59072 0.0
H626 H 0.48863 0.93702 0.56319 0.0
H627 H 0.62221 0.01441 0.7157 0.0
H628 H 0.89348 0.48243 0.65636 0.0
H629 H 0.93862 0.50309 0.66176 0.0
H630 H 0.97518 0.44724 0.6233 0.0
H631 H 0.92996 0.42648 0.61767 0.0
H632 H 0.00793 0.4566 0.65538 0.0
H633 H 0.95885 0.50897 0.60899 0.0
H634 H 0.91841 0.53481 0.59798 0.0
H635 H 0.92647 0.59212 0.64187 0.0
H636 H 0.96697 0.56649 0.65319 0.0
H637 H 0.13148 0.51634 0.63046 0.0
H638 H 0.08497 0.49757 0.6302 0.0
H639 H 0.05521 0.56969 0.65832 0.0
H640 H 0.10201 0.58934 0.65767 0.0
H641 H 0.01755 0.5539 0.63538 0.0
H642 H 0.06511 0.50599 0.6821 0.0
H643 H 0.10492 0.48186 0.69546 0.0
H644 H 0.09907 0.4188 0.6549 0.0
H645 H 0.05874 0.44227 0.64157 0.0
C646 C 0.91114 0.47407 0.64929 0.0
C647 C 0.90799 0.45281 0.63648 0.0
C648 C 0.93696 0.48606 0.65235 0.0
C649 C 0.96021 0.47694 0.64278 0.0
C650 C 0.95749 0.45464 0.63081 0.0
C651 C 0.93161 0.4428 0.6276 0.0
C652 C 0.98692 0.49184 0.64425 0.0
C653 C 0.01007 0.47779 0.6509 0.0
C654 C 0.98955 0.51985 0.63908 0.0
C655 C 0.96577 0.53572 0.632 0.0
C656 C 0.95193 0.52703 0.61632 0.0
C657 C 0.92899 0.54162 0.61003 0.0
C658 C 0.91977 0.56501 0.61927 0.0
C659 C 0.9336 0.57397 0.63475 0.0
C660 C 0.95659 0.55946 0.64108 0.0
C661 C 0.115 0.52831 0.63647 0.0
C662 C 0.12036 0.5542 0.64418 0.0
C663 C 0.08839 0.51746 0.63647 0.0
C664 C 0.06659 0.5317 0.6448 0.0
C665 C 0.07167 0.55813 0.65195 0.0
C666 C 0.09837 0.56937 0.65156 0.0
C667 C 0.03885 0.51849 0.64615 0.0
C668 C 0.01544 0.53282 0.64008 0.0
C669 C 0.03578 0.49095 0.65232 0.0
C670 C 0.05899 0.47589 0.66083 0.0
C671 C 0.07224 0.48688 0.6761 0.0
C672 C 0.09488 0.47331 0.68368 0.0
C673 C 0.10462 0.44884 0.67601 0.0
C674 C 0.09146 0.43771 0.66088 0.0
C675 C 0.06856 0.451 0.6534 0.0
H676 H 0.12231 0.43847 0.68181 0.0
H677 H 0.90195 0.57623 0.6144 0.0
H678 H 0.5216 0.89965 0.33807 0.0
H679 H 0.50549 0.94746 0.33587 0.0
H680 H 0.53324 0.96263 0.39029 0.0
H681 H 0.5485 0.91492 0.39279 0.0
H682 H 0.48232 0.97978 0.38674 0.0
H683 H 0.56555 0.98921 0.35248 0.0
H684 H 0.59929 0.98102 0.32818 0.0
H685 H 0.53897 0.00405 0.28852 0.0
H686 H 0.50464 0.01184 0.31257 0.0
H687 H 0.49007 0.12482 0.39379 0.0
H688 H 0.49753 0.07513 0.39137 0.0
H689 H 0.45242 0.0739 0.3412 0.0
H690 H 0.44445 0.12401 0.34379 0.0
H691 H 0.50599 0.04847 0.33965 0.0
H692 H 0.42423 0.0429 0.37536 0.0
H693 H 0.39333 0.0547 0.40064 0.0
H694 H 0.45415 0.02651 0.43853 0.0
H695 H 0.4856 0.01491 0.41348 0.0
C696 C 0.52441 0.91319 0.34954 0.0
C697 C 0.53591 0.90316 0.36574 0.0
C698 C 0.51536 0.94065 0.34821 0.0
C699 C 0.51792 0.95873 0.36296 0.0
C700 C 0.53071 0.94909 0.37877 0.0
C701 C 0.53964 0.92173 0.38013 0.0
C702 C 0.50592 0.98714 0.36256 0.0
C703 C 0.48773 0.9948 0.37648 0.0
C704 C 0.51213 0.00663 0.34887 0.0
C705 C 0.53239 1.00078 0.33434 0.0
C706 C 0.55933 0.99215 0.33857 0.0
C707 C 0.57861 0.98772 0.32484 0.0
C708 C 0.57132 0.99215 0.30683 0.0
C709 C 0.54463 1.00077 0.30249 0.0
C710 C 0.52523 0.00511 0.31616 0.0
C711 C 0.48106 0.11383 0.3825 0.0
C712 C 0.46641 0.12818 0.36909 0.0
C713 C 0.48542 0.08544 0.38109 0.0
C714 C 0.47557 0.07073 0.3661 0.0
C715 C 0.46017 0.08484 0.3529 0.0
C716 C 0.45534 0.11335 0.35448 0.0
C717 C 0.48301 0.04106 0.36401 0.0
C718 C 0.50029 0.03319 0.34968 0.0
C719 C 0.47627 0.0214 0.3774 0.0
C720 C 0.45734 0.02819 0.39252 0.0
C721 C 0.4311 0.0394 0.38908 0.0
C722 C 0.41348 0.04602 0.40338 0.0
C723 C 0.42179 0.04139 0.42118 0.0
C724 C 0.44774 0.03008 0.42473 0.0
C725 C 0.46546 0.02344 0.41049 0.0
H726 H 0.40812 0.04654 0.43223 0.0
H727 H 0.58628 0.9887 0.29622 0.0
H728 H 0.5778 0.93644 0.87086 0.0
H729 H 0.52846 0.94694 0.87155 0.0
H730 H 0.53311 0.97862 0.81724 0.0
H731 H 0.58244 0.96823 0.81643 0.0
H732 H 0.50592 0.01442 0.84025 0.0
H733 H 0.50132 0.9188 0.82416 0.0
H734 H 0.51152 0.86911 0.82686 0.0
H735 H 0.47587 0.86807 0.87991 0.0
H736 H 0.46553 0.91779 0.87756 0.0
H737 H 0.35893 0.0272 0.82945 0.0
H738 H 0.40862 0.01908 0.82676 0.0
H739 H 0.40786 0.97512 0.87745 0.0
H740 H 0.35813 0.98215 0.87969 0.0
H741 H 0.43344 0.94564 0.85425 0.0
H742 H 0.43926 0.04171 0.87085 0.0
H743 H 0.42815 0.09117 0.86795 0.0
H744 H 0.4613 0.09172 0.8142 0.0
H745 H 0.47242 0.04215 0.81673 0.0
C746 C 0.56828 0.94531 0.85897 0.0
C747 C 0.58417 0.95156 0.84362 0.0
C748 C 0.54004 0.9513 0.85938 0.0
C749 C 0.52707 0.96367 0.84446 0.0
C750 C 0.54269 0.96922 0.82894 0.0
C751 C 0.57089 0.96303 0.82846 0.0
C752 C 0.49739 0.97151 0.8453 0.0
C753 C 0.48999 0.99935 0.84308 0.0
C754 C 0.47666 0.95197 0.84929 0.0
C755 C 0.48287 0.92208 0.85075 0.0
C756 C 0.49585 0.90802 0.83646 0.0
C757 C 0.50162 0.87985 0.83791 0.0
C758 C 0.49448 0.86549 0.85358 0.0
C759 C 0.48143 0.87924 0.86779 0.0
C760 C 0.47554 0.9074 0.86639 0.0
C761 C 0.36954 0.01646 0.84023 0.0
C762 C 0.35469 0.00533 0.8548 0.0
C763 C 0.39799 0.01175 0.83868 0.0
C764 C 0.4122 0.99644 0.85191 0.0
C765 C 0.39748 0.98676 0.86696 0.0
C766 C 0.36907 0.99098 0.86832 0.0
C767 C 0.44184 0.98875 0.84963 0.0
C768 C 0.44928 0.96083 0.85147 0.0
C769 C 0.46256 0.00827 0.84535 0.0
C770 C 0.45645 0.03818 0.84393 0.0
C771 C 0.44408 0.05235 0.85839 0.0
C772 C 0.4378 0.0804 0.85681 0.0
C773 C 0.44396 0.09455 0.84089 0.0
C774 C 0.45654 0.08071 0.82653 0.0
C775 C 0.46288 0.05266 0.82804 0.0
H776 H 0.43902 0.11625 0.83969 0.0
H777 H 0.49899 0.84368 0.85468 0.0
H778 H 0.98094 0.39313 0.16498 0.0
H779 H 0.9991 0.43901 0.1719 0.0
H780 H 0.98571 0.46382 0.11669 0.0
H781 H 0.9677 0.41806 0.10961 0.0
H782 H 0.03955 0.47252 0.12884 0.0
H783 H 0.94582 0.48889 0.15011 0.0
H784 H 0.90563 0.47797 0.1692 0.0
H785 H 0.95487 0.48869 0.21685 0.0
H786 H 0.99547 0.49932 0.19803 0.0
H787 H 0.06274 0.61405 0.12571 0.0
H788 H 0.04651 0.56689 0.12479 0.0
H789 H 0.04868 0.56319 0.183 0.0
H790 H 0.0637 0.61148 0.18395 0.0
H791 H 0.00399 0.54085 0.17293 0.0
H792 H 0.09622 0.5266 0.1545 0.0
H793 H 0.13937 0.53421 0.13764 0.0
H794 H 0.098 0.51519 0.08792 0.0
H795 H 0.0545 0.50782 0.10445 0.0
C796 C 0.9814 0.40849 0.15438 0.0
C797 C 0.97306 0.40182 0.13669 0.0
C798 C 0.99175 0.43472 0.15838 0.0
C799 C 0.9939 0.45476 0.14478 0.0
C800 C 0.98435 0.44859 0.12735 0.0
C801 C 0.97387 0.42245 0.12336 0.0
C802 C 0.00781 0.48151 0.14825 0.0
C803 C 0.03163 0.48765 0.13832 0.0
C804 C 0.99833 0.50049 0.16136 0.0
C805 C 0.97373 0.49472 0.17265 0.0
C806 C 0.94811 0.4888 0.16465 0.0
C807 C 0.92524 0.48271 0.17543 0.0
C808 C 0.92768 0.48268 0.19422 0.0
C809 C 0.95299 0.4888 0.20229 0.0
C810 C 0.97593 0.49488 0.19158 0.0
C811 C 0.06051 0.60315 0.13833 0.0
C812 C 0.06492 0.61655 0.15489 0.0
C813 C 0.05115 0.57596 0.1378 0.0
C814 C 0.04676 0.56105 0.15381 0.0
C815 C 0.05192 0.57412 0.17042 0.0
C816 C 0.06074 0.60166 0.17096 0.0
C817 C 0.0354 0.53246 0.153 0.0
C818 C 0.01215 0.52578 0.16351 0.0
C819 C 0.04587 0.51255 0.14076 0.0
C820 C 0.07203 0.51683 0.13073 0.0
C821 C 0.09628 0.5242 0.13996 0.0
C822 C 0.12081 0.52845 0.13046 0.0
C823 C 0.12141 0.52523 0.11172 0.0
C824 C 0.0975 0.51768 0.10244 0.0
C825 C 0.07291 0.51342 0.11187 0.0
H826 H 0.14043 0.52854 0.10439 0.0
H827 H 0.90999 0.47783 0.20254 0.0
H828 H 0.41992 0.95225 0.14504 0.0
H829 H 0.466 0.97226 0.14828 0.0
H830 H 0.47043 0.98356 0.09054 0.0
H831 H 0.42522 0.96224 0.08721 0.0
H832 H 0.51845 0.97043 0.10183 0.0
H833 H 0.44904 0.03548 0.12403 0.0
H834 H 0.41189 0.05105 0.14443 0.0
H835 H 0.46517 0.03969 0.19014 0.0
H836 H 0.50228 0.02348 0.17014 0.0
H837 H 0.62349 0.07053 0.09816 0.0
H838 H 0.57808 0.04891 0.09625 0.0
H839 H 0.578 0.0369 0.15396 0.0
H840 H 0.62283 0.05929 0.15605 0.0
H841 H 0.52845 0.04991 0.14348 0.0
H842 H 0.5949 0.98246 0.12465 0.0
H843 H 0.63386 0.96427 0.10689 0.0
H844 H 0.5889 0.97836 0.0578 0.0
H845 H 0.54945 0.99633 0.07533 0.0
C846 C 0.43103 0.95849 0.13303 0.0
C847 C 0.41893 0.95569 0.11588 0.0
C848 C 0.45724 0.97024 0.1349 0.0
C849 C 0.47145 0.98031 0.11971 0.0
C850 C 0.45992 0.97619 0.10251 0.0
C851 C 0.43404 0.96386 0.1006 0.0
C852 C 0.49786 0.99585 0.12156 0.0
C853 C 0.52041 0.98802 0.11079 0.0
C854 C 0.50099 0.01835 0.13367 0.0
C855 C 0.47837 0.02803 0.14559 0.0
C856 C 0.45273 0.0361 0.13845 0.0
C857 C 0.43165 0.04503 0.14996 0.0
C858 C 0.43613 0.04628 0.1686 0.0
C859 C 0.46164 0.03861 0.17575 0.0
C860 C 0.48268 0.02954 0.16433 0.0
C861 C 0.61359 0.06381 0.1105 0.0
C862 C 0.62703 0.06644 0.12725 0.0
C863 C 0.58773 0.05114 0.10936 0.0
C864 C 0.57488 0.04059 0.12491 0.0
C865 C 0.58754 0.04463 0.14174 0.0
C866 C 0.61328 0.05744 0.14291 0.0
C867 C 0.54871 0.02464 0.12363 0.0
C868 C 0.52631 0.03237 0.13449 0.0
C869 C 0.54582 1.0018 0.11187 0.0
C870 C 0.56937 0.99094 0.10127 0.0
C871 C 0.59338 0.98179 0.11006 0.0
C872 C 0.61554 0.9715 0.10004 0.0
C873 C 0.61396 0.97036 0.08122 0.0
C874 C 0.59011 0.9793 0.07238 0.0
C875 C 0.5678 0.98941 0.08235 0.0
H876 H 0.63119 0.96247 0.07348 0.0
H877 H 0.41992 0.05323 0.17753 0.0
H878 H 0.89455 0.58467 0.88073 0.0
H879 H 0.91241 0.53777 0.87824 0.0
H880 H 0.95166 0.55865 0.82783 0.0
H881 H 0.93426 0.60586 0.83037 0.0
H882 H 0.90748 0.4964 0.85527 0.0
H883 H 0.01362 0.52434 0.82522 0.0
H884 H 0.04459 0.56462 0.82362 0.0
H885 H 0.01203 0.59496 0.87375 0.0
H886 H 0.98126 0.55462 0.87582 0.0
H887 H 0.97012 0.3752 0.8276 0.0
H888 H 0.96014 0.42439 0.82601 0.0
H889 H 0.00412 0.43723 0.87588 0.0
H890 H 0.01439 0.38751 0.87744 0.0
H891 H 0.00862 0.48288 0.84964 0.0
H892 H 0.94086 0.42725 0.8802 0.0
H893 H 0.9097 0.38733 0.88303 0.0
H894 H 0.86553 0.41347 0.83578 0.0
H895 H 0.89676 0.45332 0.83249 0.0
C896 C 0.90664 0.57927 0.86895 0.0
C897 C 0.91309 0.59922 0.85582 0.0
C898 C 0.91688 0.55236 0.86756 0.0
C899 C 0.93386 0.54473 0.85303 0.0
C900 C 0.93908 0.56415 0.83937 0.0
C901 C 0.92889 0.59113 0.84077 0.0
C902 C 0.94672 0.51676 0.85261 0.0
C903 C 0.92958 0.49355 0.85398 0.0
C904 C 0.97565 0.51286 0.85124 0.0
C905 C 0.99496 0.53657 0.85057 0.0
C906 C 0.01324 0.53949 0.83597 0.0
C907 C 0.03073 0.56235 0.83497 0.0
C908 C 0.03022 0.58237 0.84854 0.0
C909 C 0.01236 0.57947 0.86322 0.0
C910 C 0.99491 0.5566 0.86432 0.0
C911 C 0.97885 0.38858 0.83778 0.0
C912 C 0.99362 0.3776 0.85243 0.0
C913 C 0.97289 0.41675 0.83694 0.0
C914 C 0.9812 0.43449 0.85088 0.0
C915 C 0.99767 0.42395 0.8649 0.0
C916 C 0.00365 0.3956 0.86575 0.0
C917 C 0.96927 0.46275 0.85201 0.0
C918 C 0.98654 0.48589 0.85083 0.0
C919 C 0.94046 0.46671 0.85385 0.0
C920 C 0.9213 0.4431 0.856 0.0
C921 C 0.92462 0.42438 0.87034 0.0
C922 C 0.90694 0.40178 0.87204 0.0
C923 C 0.88569 0.39783 0.85957 0.0
C924 C 0.88202 0.41654 0.84541 0.0
C925 C 0.8997 0.43914 0.84363 0.0
H926 H 0.87202 0.38032 0.8609 0.0
H927 H 0.04368 0.60012 0.84769 0.0
H928 H 0.19791 0.40309 0.38061 0.0
H929 H 0.22015 0.35792 0.38574 0.0
H930 H 0.29984 0.39711 0.38534 0.0
H931 H 0.27823 0.44172 0.3807 0.0
H932 H 0.28996 0.35003 0.35949 0.0
H933 H 0.28219 0.38053 0.42254 0.0
H934 H 0.25531 0.39405 0.4494 0.0
H935 H 0.21262 0.31652 0.44809 0.0
H936 H 0.23902 0.30273 0.42105 0.0
H937 H 0.40069 0.28154 0.40827 0.0
H938 H 0.35744 0.30711 0.41112 0.0
H939 H 0.31882 0.25172 0.37328 0.0
H940 H 0.36204 0.22569 0.37064 0.0
H941 H 0.29853 0.29911 0.41736 0.0
H942 H 0.29292 0.29542 0.34095 0.0
H943 H 0.32204 0.28429 0.31455 0.0
H944 H 0.39395 0.31129 0.34337 0.0
H945 H 0.36521 0.32285 0.3698 0.0
C946 C 0.22012 0.40205 0.38193 0.0
C947 C 0.23627 0.42603 0.38013 0.0
C948 C 0.23276 0.37628 0.38481 0.0
C949 C 0.26164 0.37425 0.38576 0.0
C950 C 0.27755 0.39824 0.38454 0.0
C951 C 0.26507 0.42378 0.38191 0.0
C952 C 0.27609 0.34735 0.38705 0.0
C953 C 0.29126 0.33848 0.37202 0.0
C954 C 0.27801 0.33247 0.40342 0.0
C955 C 0.26226 0.34078 0.41964 0.0
C956 C 0.26685 0.36651 0.42786 0.0
C957 C 0.25176 0.37419 0.44315 0.0
C958 C 0.23219 0.3562 0.45041 0.0
C959 C 0.22773 0.33046 0.44243 0.0
C960 C 0.24275 0.32271 0.42713 0.0
C961 C 0.38262 0.27409 0.40119 0.0
C962 C 0.3847 0.25172 0.38921 0.0
C963 C 0.35788 0.28867 0.40287 0.0
C964 C 0.33498 0.28147 0.3923 0.0
C965 C 0.33624 0.25755 0.38159 0.0
C966 C 0.36092 0.24264 0.38014 0.0
C967 C 0.31254 0.30199 0.38982 0.0
C968 C 0.29619 0.30987 0.40461 0.0
C969 C 0.30959 0.3162 0.37324 0.0
C970 C 0.32698 0.30968 0.35736 0.0
C971 C 0.31494 0.29902 0.3416 0.0
C972 C 0.33137 0.29265 0.32664 0.0
C973 C 0.35982 0.29707 0.32729 0.0
C974 C 0.37192 0.30786 0.34289 0.0
C975 C 0.35558 0.31428 0.35786 0.0
H976 H 0.3725 0.2922 0.3157 0.0
H977 H 0.22054 0.36218 0.46224 0.0
H978 H 0.22361 0.62182 0.62159 0.0
H979 H 0.2478 0.66593 0.61641 0.0
H980 H 0.31364 0.63906 0.65142 0.0
H981 H 0.29018 0.5956 0.65639 0.0
H982 H 0.29903 0.6938 0.65749 0.0
H983 H 0.31947 0.63018 0.60703 0.0
H984 H 0.30506 0.60236 0.58077 0.0
H985 H 0.27035 0.67447 0.55587 0.0
H986 H 0.28429 0.70263 0.58213 0.0
H987 H 0.43649 0.71034 0.61794 0.0
H988 H 0.38946 0.69427 0.61395 0.0
H989 H 0.35854 0.77218 0.63363 0.0
H990 H 0.40611 0.78832 0.63801 0.0
H991 H 0.34203 0.70657 0.59731 0.0
H992 H 0.30433 0.75659 0.66132 0.0
H993 H 0.32207 0.78099 0.68822 0.0
H994 H 0.39564 0.73169 0.68689 0.0
H995 H 0.37816 0.70683 0.66013 0.0
C996 C 0.24316 0.62554 0.62822 0.0
C997 C 0.25515 0.60513 0.63921 0.0
C998 C 0.25687 0.6507 0.62531 0.0
C999 C 0.28245 0.65582 0.63363 0.0
C1000 C 0.29383 0.63572 0.645 0.0
C1001 C 0.28048 0.61069 0.64766 0.0
C1002 C 0.29916 0.68074 0.62968 0.0
C1003 C 0.30785 0.6972 0.64421 0.0
C1004 C 0.31066 0.68523 0.61239 0.0
C1005 C 0.30259 0.66839 0.59659 0.0
C1006 C 0.3086 0.64004 0.59599 0.0
C1007 C 0.30055 0.62422 0.58112 0.0
C1008 C 0.28671 0.63662 0.56669 0.0
C1009 C 0.281 0.66488 0.56708 0.0
C1010 C 0.28897 0.68077 0.58195 0.0
C1011 C 0.41972 0.72434 0.62105 0.0
C1012 C 0.42496 0.75039 0.62857 0.0
C1013 C 0.39276 0.7152 0.61861 0.0
C1014 C 0.3704 0.73183 0.62372 0.0
C1015 C 0.37549 0.75888 0.62975 0.0
C1016 C 0.40265 0.76812 0.63219 0.0
C1017 C 0.34279 0.71876 0.6253 0.0
C1018 C 0.3321 0.70442 0.61036 0.0
C1019 C 0.32969 0.71592 0.6423 0.0
C1020 C 0.34004 0.73008 0.65868 0.0
C1021 C 0.32422 0.75091 0.66684 0.0
C1022 C 0.33423 0.76481 0.68204 0.0
C1023 C 0.35996 0.75789 0.68925 0.0
C1024 C 0.37571 0.73701 0.68129 0.0
C1025 C 0.36576 0.723 0.66613 0.0
H1026 H 0.36765 0.76865 0.70101 0.0
H1027 H 0.28048 0.62434 0.55519 0.0
H1028 H 0.57218 0.74053 0.39927 0.0
H1029 H 0.61591 0.71642 0.40196 0.0
H1030 H 0.65697 0.78328 0.37451 0.0
H1031 H 0.61263 0.80745 0.37145 0.0
H1032 H 0.66935 0.73629 0.35893 0.0
H1033 H 0.67295 0.76671 0.41926 0.0
H1034 H 0.65628 0.77739 0.44991 0.0
H1035 H 0.63988 0.69156 0.45922 0.0
H1036 H 0.65605 0.68037 0.42853 0.0
H1037 H 0.78035 0.63913 0.36132 0.0
H1038 H 0.75726 0.68242 0.36982 0.0
H1039 H 0.68882 0.63607 0.39122 0.0
H1040 H 0.71153 0.59307 0.38265 0.0
H1041 H 0.70164 0.683 0.41208 0.0
H1042 H 0.68692 0.65699 0.34882 0.0
H1043 H 0.70379 0.64629 0.31819 0.0
H1044 H 0.74238 0.72583 0.31512 0.0
H1045 H 0.72607 0.7368 0.34589 0.0
C1046 C 0.59061 0.7505 0.39422 0.0
C1047 C 0.58894 0.77587 0.38512 0.0
C1048 C 0.61574 0.73673 0.39587 0.0
C1049 C 0.63995 0.74804 0.38858 0.0
C1050 C 0.63863 0.77416 0.38032 0.0
C1051 C 0.61334 0.78807 0.37871 0.0
C1052 C 0.6654 0.7308 0.38772 0.0
C1053 C 0.67697 0.72533 0.37069 0.0
C1054 C 0.67535 0.71619 0.40297 0.0
C1055 C 0.66567 0.72272 0.42153 0.0
C1056 C 0.66564 0.75012 0.42779 0.0
C1057 C 0.65629 0.75626 0.44519 0.0
C1058 C 0.64701 0.73517 0.4565 0.0
C1059 C 0.6471 0.70787 0.45045 0.0
C1060 C 0.65642 0.70161 0.43306 0.0
C1061 C 0.76072 0.63823 0.36827 0.0
C1062 C 0.74761 0.61277 0.37122 0.0
C1063 C 0.74752 0.66294 0.37306 0.0
C1064 C 0.72121 0.66246 0.38103 0.0
C1065 C 0.70911 0.63696 0.38512 0.0
C1066 C 0.72205 0.61239 0.38013 0.0
C1067 C 0.7046 0.68801 0.3833 0.0
C1068 C 0.69464 0.69482 0.40052 0.0
C1069 C 0.69624 0.704 0.36828 0.0
C1070 C 0.7056 0.69757 0.34971 0.0
C1071 C 0.69916 0.67211 0.34165 0.0
C1072 C 0.7086 0.666 0.32427 0.0
C1073 C 0.72423 0.68533 0.31474 0.0
C1074 C 0.73034 0.71085 0.32254 0.0
C1075 C 0.72101 0.71702 0.33995 0.0
H1076 H 0.73154 0.68055 0.30129 0.0
H1077 H 0.63978 0.73997 0.46997 0.0
H1078 H 0.75336 0.40468 0.59123 0.0
H1079 H 0.73268 0.35923 0.58786 0.0
H1080 H 0.79901 0.32338 0.61884 0.0
H1081 H 0.81974 0.3693 0.62246 0.0
H1082 H 0.74463 0.30945 0.57492 0.0
H1083 H 0.76975 0.27411 0.64693 0.0
H1084 H 0.78153 0.29278 0.67691 0.0
H1085 H 0.74031 0.36868 0.66398 0.0
H1086 H 0.7281 0.35033 0.63394 0.0
H1087 H 0.66409 0.19042 0.62687 0.0
H1088 H 0.70661 0.21608 0.62034 0.0
H1089 H 0.65923 0.2773 0.5916 0.0
H1090 H 0.61699 0.25198 0.59814 0.0
H1091 H 0.71493 0.26847 0.63309 0.0
H1092 H 0.69746 0.30783 0.55967 0.0
H1093 H 0.67949 0.28992 0.53083 0.0
H1094 H 0.69946 0.20729 0.5471 0.0
H1095 H 0.71797 0.2247 0.57592 0.0
C1096 C 0.76392 0.38704 0.59698 0.0
C1097 C 0.78805 0.39056 0.60721 0.0
C1098 C 0.75211 0.361 0.59499 0.0
C1099 C 0.76402 0.33788 0.6033 0.0
C1100 C 0.78927 0.34098 0.61246 0.0
C1101 C 0.80123 0.36716 0.61439 0.0
C1102 C 0.74818 0.3116 0.60387 0.0
C1103 C 0.73825 0.30036 0.58762 0.0
C1104 C 0.7403 0.29927 0.62042 0.0
C1105 C 0.74833 0.31095 0.63815 0.0
C1106 C 0.76328 0.2948 0.65048 0.0
C1107 C 0.76994 0.30531 0.6675 0.0
C1108 C 0.76151 0.33184 0.67239 0.0
C1109 C 0.74675 0.3481 0.66018 0.0
C1110 C 0.74002 0.33769 0.64314 0.0
C1111 C 0.66294 0.20887 0.61866 0.0
C1112 C 0.63727 0.21926 0.61302 0.0
C1113 C 0.6872 0.22359 0.61503 0.0
C1114 C 0.68616 0.24856 0.6054 0.0
C1115 C 0.66067 0.25791 0.59881 0.0
C1116 C 0.63649 0.24347 0.60263 0.0
C1117 C 0.71065 0.26689 0.60417 0.0
C1118 C 0.7221 0.27678 0.62032 0.0
C1119 C 0.71954 0.2782 0.58755 0.0
C1120 C 0.70902 0.2676 0.57003 0.0
C1121 C 0.69824 0.28586 0.55705 0.0
C1122 C 0.6879 0.27578 0.54071 0.0
C1123 C 0.68828 0.24748 0.53715 0.0
C1124 C 0.6991 0.2292 0.5499 0.0
C1125 C 0.7095 0.23916 0.56625 0.0
H1126 H 0.68021 0.23972 0.52451 0.0
H1127 H 0.76633 0.33977 0.68567 0.0
H1128 H 0.8783 0.75831 0.89508 0.0
H1129 H 0.83426 0.78013 0.90189 0.0
H1130 H 0.79169 0.71576 0.87294 0.0
H1131 H 0.8361 0.69365 0.86606 0.0
H1132 H 0.77933 0.76767 0.86064 0.0
H1133 H 0.78009 0.72302 0.91784 0.0
H1134 H 0.80113 0.70702 0.94628 0.0
H1135 H 0.8158 0.79089 0.9622 0.0
H1136 H 0.79517 0.80741 0.93377 0.0
H1137 H 0.67026 0.8644 0.87236 0.0
H1138 H 0.69293 0.81916 0.87474 0.0
H1139 H 0.7568 0.85542 0.90764 0.0
H1140 H 0.73419 0.90009 0.90552 0.0
H1141 H 0.74736 0.80558 0.91918 0.0
H1142 H 0.76168 0.84902 0.86117 0.0
H1143 H 0.75135 0.86728 0.83083 0.0
H1144 H 0.7163 0.78946 0.8155 0.0
H1145 H 0.72598 0.77084 0.84589 0.0
C1146 C 0.85953 0.74839 0.89055 0.0
C1147 C 0.86061 0.72436 0.87999 0.0
C1148 C 0.83431 0.76079 0.89456 0.0
C1149 C 0.80961 0.74949 0.88804 0.0
C1150 C 0.81049 0.7247 0.87821 0.0
C1151 C 0.83583 0.71205 0.87436 0.0
C1152 C 0.78377 0.76582 0.88951 0.0
C1153 C 0.77162 0.77525 0.87347 0.0
C1154 C 0.77432 0.77625 0.90624 0.0
C1155 C 0.78606 0.76645 0.92362 0.0
C1156 C 0.78786 0.73806 0.92738 0.0
C1157 C 0.79972 0.7289 0.94351 0.0
C1158 C 0.8098 0.74793 0.95604 0.0
C1159 C 0.80793 0.77617 0.9525 0.0
C1160 C 0.79608 0.78545 0.93639 0.0
C1161 C 0.68867 0.86243 0.88055 0.0
C1162 C 0.70057 0.88577 0.88869 0.0
C1163 C 0.70174 0.83665 0.88177 0.0
C1164 C 0.72683 0.83391 0.89116 0.0
C1165 C 0.73751 0.85688 0.90032 0.0
C1166 C 0.72459 0.8825 0.89905 0.0
C1167 C 0.74369 0.80828 0.89024 0.0
C1168 C 0.75419 0.79714 0.90638 0.0
C1169 C 0.75222 0.79675 0.87356 0.0
C1170 C 0.74419 0.80866 0.85588 0.0
C1171 C 0.7513 0.83595 0.85145 0.0
C1172 C 0.74572 0.84631 0.83422 0.0
C1173 C 0.7334 0.82944 0.82124 0.0
C1174 C 0.72598 0.80242 0.82557 0.0
C1175 C 0.73142 0.79199 0.84281 0.0
H1176 H 0.72973 0.83726 0.80779 0.0
H1177 H 0.81906 0.74079 0.96849 0.0
H1178 H 0.72308 0.14145 0.11597 0.0
H1179 H 0.74781 0.18406 0.10775 0.0
H1180 H 0.82501 0.14512 0.12131 0.0
H1181 H 0.80095 0.10286 0.12915 0.0
H1182 H 0.80972 0.1983 0.1401 0.0
H1183 H 0.81705 0.15138 0.08131 0.0
H1184 H 0.79658 0.13146 0.05376 0.0
H1185 H 0.75753 0.2089 0.04186 0.0
H1186 H 0.77749 0.22915 0.06952 0.0
H1187 H 0.93504 0.24375 0.09512 0.0
H1188 H 0.89009 0.22203 0.09123 0.0
H1189 H 0.85167 0.28891 0.1203 0.0
H1190 H 0.89683 0.31089 0.12418 0.0
H1191 H 0.83603 0.23201 0.07925 0.0
H1192 H 0.81173 0.25729 0.15231 0.0
H1193 H 0.83411 0.2726 0.18057 0.0
H1194 H 0.90974 0.23392 0.16414 0.0
H1195 H 0.88775 0.21828 0.1359 0.0
C1196 C 0.74537 0.14188 0.11683 0.0
C1197 C 0.76004 0.11886 0.12336 0.0
C1198 C 0.75939 0.1662 0.11219 0.0
C1199 C 0.78814 0.16768 0.11412 0.0
C1200 C 0.80278 0.14437 0.11986 0.0
C1201 C 0.78894 0.1202 0.12432 0.0
C1202 C 0.80349 0.19368 0.11149 0.0
C1203 C 0.81487 0.20622 0.12682 0.0
C1204 C 0.81026 0.20383 0.09418 0.0
C1205 C 0.7984 0.19164 0.07759 0.0
C1206 C 0.80385 0.16406 0.07292 0.0
C1207 C 0.79241 0.15273 0.05726 0.0
C1208 C 0.77568 0.16887 0.0461 0.0
C1209 C 0.77043 0.1964 0.05054 0.0
C1210 C 0.7818 0.20781 0.0662 0.0
C1211 C 0.91689 0.25432 0.10012 0.0
C1212 C 0.9194 0.27879 0.11012 0.0
C1213 C 0.89117 0.24198 0.09779 0.0
C1214 C 0.86759 0.25369 0.10565 0.0
C1215 C 0.86965 0.27953 0.11416 0.0
C1216 C 0.89544 0.29208 0.11633 0.0
C1217 C 0.84277 0.2362 0.1079 0.0
C1218 C 0.82977 0.22513 0.09257 0.0
C1219 C 0.8346 0.22712 0.12525 0.0
C1220 C 0.84819 0.23692 0.14197 0.0
C1221 C 0.83315 0.25214 0.15475 0.0
C1222 C 0.84575 0.26084 0.17075 0.0
C1223 C 0.8733 0.25418 0.17415 0.0
C1224 C 0.88841 0.23907 0.16149 0.0
C1225 C 0.87591 0.23033 0.14547 0.0
H1226 H 0.88288 0.26058 0.18665 0.0
H1227 H 0.76685 0.16007 0.03398 0.0
H1228 H 0.09689 0.28526 0.86111 0.0
H1229 H 0.14222 0.26338 0.86536 0.0
H1230 H 0.10236 0.19087 0.88676 0.0
H1231 H 0.05762 0.21263 0.88294 0.0
H1232 H 0.14967 0.19991 0.90412 0.0
H1233 H 0.11827 0.20192 0.84023 0.0
H1234 H 0.10745 0.22649 0.81188 0.0
H1235 H 0.1885 0.26199 0.8115 0.0
H1236 H 0.19957 0.23814 0.84005 0.0
H1237 H 0.19256 0.07262 0.8743 0.0
H1238 H 0.17312 0.1173 0.88229 0.0
H1239 H 0.24457 0.158 0.86014 0.0
H1240 H 0.26441 0.1128 0.85219 0.0
H1241 H 0.19656 0.1785 0.84627 0.0
H1242 H 0.2324 0.16772 0.90461 0.0
H1243 H 0.24549 0.14473 0.93301 0.0
H1244 H 0.16038 0.12758 0.94425 0.0
H1245 H 0.14673 0.15058 0.91592 0.0
C1246 C 0.09796 0.26497 0.86719 0.0
C1247 C 0.0737 0.25051 0.87151 0.0
C1248 C 0.12384 0.25241 0.8695 0.0
C1249 C 0.12571 0.22525 0.8761 0.0
C1250 C 0.10154 0.21177 0.88161 0.0
C1251 C 0.07589 0.22421 0.87932 0.0
C1252 C 0.15189 0.20923 0.87573 0.0
C1253 C 0.16009 0.19538 0.8915 0.0
C1254 C 0.16648 0.20425 0.85947 0.0
C1255 C 0.15961 0.21855 0.84237 0.0
C1256 C 0.13368 0.21516 0.83417 0.0
C1257 C 0.12751 0.22896 0.81808 0.0
C1258 C 0.14726 0.24585 0.80995 0.0
C1259 C 0.17319 0.24901 0.81788 0.0
C1260 C 0.1794 0.2354 0.83401 0.0
C1261 C 0.20445 0.09103 0.87148 0.0
C1262 C 0.22994 0.08925 0.86259 0.0
C1263 C 0.1934 0.1166 0.87617 0.0
C1264 C 0.20745 0.14107 0.87195 0.0
C1265 C 0.23346 0.13939 0.86364 0.0
C1266 C 0.2448 0.1136 0.85918 0.0
C1267 C 0.193 0.16789 0.87442 0.0
C1268 C 0.18697 0.18374 0.85906 0.0
C1269 C 0.18063 0.17494 0.89108 0.0
C1270 C 0.18856 0.16083 0.9081 0.0
C1271 C 0.21647 0.15891 0.91309 0.0
C1272 C 0.22399 0.14593 0.9292 0.0
C1273 C 0.2038 0.1346 0.94041 0.0
C1274 C 0.17601 0.13637 0.93556 0.0
C1275 C 0.16835 0.14951 0.91952 0.0
H1276 H 0.20969 0.12447 0.95285 0.0
H1277 H 0.14259 0.25635 0.79744 0.0
H1278 H 0.32637 0.87594 0.11041 0.0
H1279 H 0.30344 0.83095 0.10698 0.0
H1280 H 0.22792 0.87227 0.09235 0.0
H1281 H 0.25046 0.91685 0.09565 0.0
H1282 H 0.22529 0.83804 0.12377 0.0
H1283 H 0.25786 0.83755 0.06163 0.0
H1284 H 0.29378 0.83767 0.03805 0.0
H1285 H 0.32844 0.7634 0.06001 0.0
H1286 H 0.29289 0.76297 0.08384 0.0
H1287 H 0.13322 0.74002 0.07935 0.0
H1288 H 0.17606 0.76614 0.07653 0.0
H1289 H 0.2016 0.7378 0.12912 0.0
H1290 H 0.15885 0.71131 0.13195 0.0
H1291 H 0.23567 0.76044 0.08059 0.0
H1292 H 0.21498 0.79852 0.15216 0.0
H1293 H 0.17756 0.80161 0.17469 0.0
H1294 H 0.11746 0.80421 0.13215 0.0
H1295 H 0.15453 0.80161 0.10941 0.0
C1296 C 0.30513 0.87532 0.10593 0.0
C1297 C 0.29006 0.89987 0.10352 0.0
C1298 C 0.29207 0.84966 0.10402 0.0
C1299 C 0.26394 0.8484 0.09961 0.0
C1300 C 0.24959 0.87286 0.09589 0.0
C1301 C 0.26251 0.89831 0.0978 0.0
C1302 C 0.24817 0.82238 0.10104 0.0
C1303 C 0.22788 0.82091 0.11448 0.0
C1304 C 0.25161 0.80006 0.08896 0.0
C1305 C 0.27293 0.80042 0.07465 0.0
C1306 C 0.27331 0.82141 0.06155 0.0
C1307 C 0.29356 0.8215 0.04811 0.0
C1308 C 0.31344 0.80064 0.04759 0.0
C1309 C 0.31306 0.77958 0.06046 0.0
C1310 C 0.29286 0.77938 0.07392 0.0
C1311 C 0.14843 0.73852 0.09002 0.0
C1312 C 0.14259 0.72392 0.10595 0.0
C1313 C 0.17299 0.75331 0.08834 0.0
C1314 C 0.19184 0.75409 0.10268 0.0
C1315 C 0.18729 0.7374 0.11789 0.0
C1316 C 0.16285 0.72227 0.11948 0.0
C1317 C 0.21266 0.77641 0.10319 0.0
C1318 C 0.23375 0.77724 0.09019 0.0
C1319 C 0.20996 0.79842 0.1156 0.0
C1320 C 0.18748 0.79951 0.12913 0.0
C1321 C 0.19376 0.79971 0.14764 0.0
C1322 C 0.17264 0.80144 0.16044 0.0
C1323 C 0.14517 0.80314 0.15484 0.0
C1324 C 0.13875 0.80288 0.13645 0.0
C1325 C 0.1598 0.80125 0.12361 0.0
H1326 H 0.12889 0.80489 0.16474 0.0
H1327 H 0.32909 0.80076 0.03717 0.0
H1328 H 0.18135 0.62567 0.33319 0.0
H1329 H 0.17731 0.66355 0.31121 0.0
H1330 H 0.20009 0.60774 0.26833 0.0
H1331 H 0.20386 0.57007 0.29013 0.0
H1332 H 0.222 0.66163 0.26391 0.0
H1333 H 0.1349 0.61484 0.27758 0.0
H1334 H 0.09822 0.59959 0.29837 0.0
H1335 H 0.08378 0.68354 0.31433 0.0
H1336 H 0.12068 0.69922 0.2938 0.0
H1337 H 0.15114 0.67998 0.18271 0.0
H1338 H 0.17329 0.66744 0.21114 0.0
H1339 H 0.13371 0.73623 0.23752 0.0
H1340 H 0.11109 0.74862 0.20908 0.0
H1341 H 0.12426 0.68867 0.25493 0.0
H1342 H 0.20283 0.73592 0.23424 0.0
H1343 H 0.23897 0.75083 0.21301 0.0
H1344 H 0.2698 0.66792 0.20998 0.0
H1345 H 0.23357 0.65236 0.23097 0.0
C1346 C 0.18611 0.62181 0.31912 0.0
C1347 C 0.19261 0.59507 0.31321 0.0
C1348 C 0.18382 0.64335 0.30663 0.0
C1349 C 0.18829 0.63835 0.28817 0.0
C1350 C 0.1967 0.61205 0.28252 0.0
C1351 C 0.19863 0.59053 0.29492 0.0
C1352 C 0.18067 0.65897 0.27433 0.0
C1353 C 0.2007 0.66778 0.26194 0.0
C1354 C 0.153 0.66755 0.27213 0.0
C1355 C 0.13075 0.65815 0.28437 0.0
C1356 C 0.12404 0.63001 0.28564 0.0
C1357 C 0.1032 0.62129 0.29735 0.0
C1358 C 0.08874 0.64057 0.30771 0.0
C1359 C 0.09504 0.66862 0.30634 0.0
C1360 C 0.11592 0.67743 0.29467 0.0
C1361 C 0.14737 0.69259 0.19452 0.0
C1362 C 0.12915 0.71509 0.19373 0.0
C1363 C 0.16032 0.68563 0.21071 0.0
C1364 C 0.15531 0.70104 0.22643 0.0
C1365 C 0.13798 0.72419 0.22552 0.0
C1366 C 0.12517 0.73128 0.20927 0.0
C1367 C 0.16544 0.69069 0.24404 0.0
C1368 C 0.14579 0.68359 0.25714 0.0
C1369 C 0.19347 0.6838 0.24685 0.0
C1370 C 0.21535 0.69294 0.23416 0.0
C1371 C 0.21718 0.7208 0.22895 0.0
C1372 C 0.23772 0.72939 0.21698 0.0
C1373 C 0.25667 0.71034 0.21015 0.0
C1374 C 0.25512 0.68266 0.2153 0.0
C1375 C 0.2346 0.67395 0.22726 0.0
H1376 H 0.27256 0.71704 0.20089 0.0
H1377 H 0.0726 0.63379 0.31677 0.0
H1378 H 0.62224 0.79722 0.69121 0.0
H1379 H 0.64978 0.80072 0.71877 0.0
H1380 H 0.59339 0.74602 0.74604 0.0
H1381 H 0.56603 0.74211 0.7183 0.0
H1382 H 0.59553 0.7982 0.76055 0.0
H1383 H 0.65836 0.72784 0.74647 0.0
H1384 H 0.69057 0.69936 0.72872 0.0
H1385 H 0.74484 0.76862 0.72273 0.0
H1386 H 0.71279 0.7977 0.7402 0.0
H1387 H 0.66205 0.85715 0.83609 0.0
H1388 H 0.64991 0.8181 0.81673 0.0
H1389 H 0.6895 0.85786 0.77159 0.0
H1390 H 0.70128 0.8971 0.79072 0.0
H1391 H 0.69627 0.79888 0.77222 0.0
H1392 H 0.62511 0.87019 0.77703 0.0
H1393 H 0.59416 0.89979 0.79503 0.0
H1394 H 0.55595 0.82799 0.8179 0.0
H1395 H 0.58709 0.79794 0.80023 0.0
C1396 C 0.61643 0.78508 0.70289 0.0
C1397 C 0.59207 0.7695 0.70275 0.0
C1398 C 0.63222 0.78693 0.71859 0.0
C1399 C 0.62363 0.77357 0.73444 0.0
C1400 C 0.60046 0.75626 0.7339 0.0
C1401 C 0.5849 0.75403 0.71808 0.0
C1402 C 0.63513 0.78274 0.75193 0.0
C1403 C 0.61746 0.79747 0.76344 0.0
C1404 C 0.66378 0.78221 0.7555 0.0
C1405 C 0.68299 0.76505 0.74458 0.0
C1406 C 0.67699 0.73713 0.7412 0.0
C1407 C 0.69525 0.72085 0.73119 0.0
C1408 C 0.71966 0.73221 0.72452 0.0
C1409 C 0.72588 0.75987 0.72786 0.0
C1410 C 0.70768 0.77626 0.73785 0.0
C1411 C 0.66828 0.8575 0.82207 0.0
C1412 C 0.68217 0.88044 0.81483 0.0
C1413 C 0.66165 0.83504 0.81111 0.0
C1414 C 0.66877 0.83521 0.79276 0.0
C1415 C 0.68408 0.85727 0.78577 0.0
C1416 C 0.69068 0.87973 0.7967 0.0
C1417 C 0.65673 0.81493 0.78018 0.0
C1418 C 0.67427 0.79849 0.76963 0.0
C1419 C 0.62794 0.81392 0.77734 0.0
C1420 C 0.60861 0.83186 0.7875 0.0
C1421 C 0.6102 0.86073 0.78597 0.0
C1422 C 0.59265 0.87758 0.7961 0.0
C1423 C 0.57318 0.86578 0.80765 0.0
C1424 C 0.57111 0.83709 0.80899 0.0
C1425 C 0.58871 0.82014 0.79892 0.0
H1426 H 0.5597 0.87889 0.81553 0.0
H1427 H 0.73385 0.71952 0.71687 0.0
H1428 H 0.77396 0.46508 0.27439 0.0
H1429 H 0.78584 0.43091 0.25112 0.0
H1430 H 0.85896 0.4089 0.28099 0.0
H1431 H 0.84706 0.44237 0.30429 0.0
H1432 H 0.86886 0.42564 0.24523 0.0
H1433 H 0.80831 0.36546 0.27924 0.0
H1434 H 0.7641 0.35118 0.29272 0.0
H1435 H 0.72608 0.35193 0.24037 0.0
H1436 H 0.76998 0.36669 0.2266 0.0
H1437 H 0.92709 0.30435 0.21349 0.0
H1438 H 0.89623 0.33087 0.23304 0.0
H1439 H 0.84879 0.35609 0.18665 0.0
H1440 H 0.88005 0.32981 0.16692 0.0
H1441 H 0.82036 0.34027 0.22631 0.0
H1442 H 0.88043 0.40122 0.19214 0.0
H1443 H 0.92507 0.41395 0.17855 0.0
H1444 H 0.96312 0.41234 0.23088 0.0
H1445 H 0.91881 0.39891 0.24472 0.0
C1446 C 0.79218 0.45245 0.27618 0.0
C1447 C 0.80981 0.45665 0.29102 0.0
C1448 C 0.79897 0.43304 0.26287 0.0
C1449 C 0.8234 0.41765 0.26431 0.0
C1450 C 0.84015 0.4208 0.27958 0.0
C1451 C 0.83337 0.43998 0.29284 0.0
C1452 C 0.83314 0.39996 0.24936 0.0
C1453 C 0.85817 0.40703 0.24108 0.0
C1454 C 0.81877 0.37614 0.24361 0.0
C1455 C 0.79233 0.36759 0.25193 0.0
C1456 C 0.79044 0.36294 0.27063 0.0
C1457 C 0.76546 0.35468 0.27832 0.0
C1458 C 0.74227 0.35076 0.26742 0.0
C1459 C 0.74404 0.35506 0.2488 0.0
C1460 C 0.76896 0.36337 0.24105 0.0
C1461 C 0.90961 0.31486 0.20753 0.0
C1462 C 0.90604 0.31539 0.18874 0.0
C1463 C 0.89205 0.32998 0.21867 0.0
C1464 C 0.87043 0.34543 0.2112 0.0
C1465 C 0.86539 0.3442 0.19259 0.0
C1466 C 0.88329 0.32944 0.18139 0.0
C1467 C 0.85617 0.36583 0.2226 0.0
C1468 C 0.83053 0.35928 0.2302 0.0
C1469 C 0.86975 0.39038 0.22766 0.0
C1470 C 0.8964 0.39866 0.21942 0.0
C1471 C 0.8984 0.4032 0.20072 0.0
C1472 C 0.92363 0.41056 0.19297 0.0
C1473 C 0.94695 0.41379 0.20384 0.0
C1474 C 0.94506 0.40972 0.22247 0.0
C1475 C 0.9199 0.40221 0.23027 0.0
H1476 H 0.96643 0.41963 0.19784 0.0
H1477 H 0.72296 0.34432 0.27339 0.0
H1478 H 0.3519 0.06982 0.80162 0.0
H1479 H 0.38504 0.09508 0.78318 0.0
H1480 H 0.3184 0.13169 0.75297 0.0
H1481 H 0.28503 0.10704 0.7716 0.0
H1482 H 0.35811 0.10591 0.73164 0.0
H1483 H 0.3549 0.17113 0.781 0.0
H1484 H 0.35776 0.18442 0.81309 0.0
H1485 H 0.4413 0.15522 0.81538 0.0
H1486 H 0.4388 0.14135 0.78339 0.0
H1487 H 0.44914 0.17646 0.67486 0.0
H1488 H 0.4114 0.16934 0.69604 0.0
H1489 H 0.46976 0.14714 0.73758 0.0
H1490 H 0.50754 0.1573 0.71725 0.0
H1491 H 0.4306 0.1701 0.75313 0.0
H1492 H 0.43459 0.09814 0.70846 0.0
H1493 H 0.43465 0.07848 0.67774 0.0
H1494 H 0.35405 0.11217 0.66814 0.0
H1495 H 0.35367 0.13232 0.69875 0.0
C1496 C 0.3442 0.08367 0.79134 0.0
C1497 C 0.31574 0.08621 0.78803 0.0
C1498 C 0.36321 0.09808 0.78079 0.0
C1499 C 0.3541 0.1153 0.76678 0.0
C1500 C 0.32577 0.11844 0.76372 0.0
C1501 C 0.30676 0.10417 0.7743 0.0
C1502 C 0.37416 0.12829 0.75442 0.0
C1503 C 0.37365 0.1204 0.73623 0.0
C1504 C 0.39496 0.14633 0.76064 0.0
C1505 C 0.3966 0.15508 0.77981 0.0
C1506 C 0.37382 0.16739 0.78837 0.0
C1507 C 0.37539 0.17504 0.80655 0.0
C1508 C 0.39968 0.1706 0.81628 0.0
C1509 C 0.42249 0.15861 0.80784 0.0
C1510 C 0.42102 0.1509 0.78968 0.0
C1511 C 0.45406 0.17084 0.68863 0.0
C1512 C 0.48155 0.16674 0.69411 0.0
C1513 C 0.43236 0.16635 0.70069 0.0
C1514 C 0.43762 0.15669 0.71825 0.0
C1515 C 0.46503 0.15421 0.72406 0.0
C1516 C 0.48671 0.15953 0.71223 0.0
C1517 C 0.41488 0.14746 0.73026 0.0
C1518 C 0.41485 0.15596 0.74841 0.0
C1519 C 0.39409 0.12913 0.72418 0.0
C1520 C 0.39424 0.117 0.70579 0.0
C1521 C 0.41696 0.10149 0.69975 0.0
C1522 C 0.41704 0.09025 0.68237 0.0
C1523 C 0.3944 0.09415 0.67097 0.0
C1524 C 0.3716 0.10923 0.67696 0.0
C1525 C 0.37143 0.12055 0.69433 0.0
H1526 H 0.3945 0.08543 0.65752 0.0
H1527 H 0.40084 0.17651 0.83035 0.0
H1528 H 0.20314 0.40553 0.68073 0.0
H1529 H 0.19381 0.36756 0.7018 0.0
H1530 H 0.16761 0.42636 0.74208 0.0
H1531 H 0.17801 0.46404 0.72157 0.0
H1532 H 0.1943 0.38556 0.75788 0.0
H1533 H 0.11636 0.3909 0.71342 0.0
H1534 H 0.09711 0.38862 0.68261 0.0
H1535 H 0.13893 0.31179 0.67348 0.0
H1536 H 0.15767 0.3132 0.7045 0.0
H1537 H 0.07821 0.34545 0.80658 0.0
H1538 H 0.11464 0.3641 0.78756 0.0
H1539 H 0.12642 0.28418 0.76314 0.0
H1540 H 0.09024 0.26519 0.78233 0.0
H1541 H 0.11928 0.32294 0.73825 0.0
H1542 H 0.17715 0.3115 0.78868 0.0
H1543 H 0.19142 0.31346 0.82059 0.0
H1544 H 0.1881 0.40191 0.81926 0.0
H1545 H 0.17332 0.40056 0.78744 0.0
C1546 C 0.19591 0.41027 0.69422 0.0
C1547 C 0.19079 0.4377 0.69939 0.0
C1548 C 0.1904 0.38859 0.70618 0.0
C1549 C 0.17955 0.39408 0.72343 0.0
C1550 C 0.17591 0.42154 0.72886 0.0
C1551 C 0.18153 0.44309 0.71702 0.0
C1552 C 0.16962 0.37174 0.73546 0.0
C1553 C 0.17801 0.3717 0.75362 0.0
C1554 C 0.14919 0.35286 0.72978 0.0
C1555 C 0.13862 0.35233 0.71108 0.0
C1556 C 0.12153 0.37363 0.70477 0.0
C1557 C 0.11069 0.37247 0.68731 0.0
C1558 C 0.11708 0.35029 0.676 0.0
C1559 C 0.1341 0.32903 0.68222 0.0
C1560 C 0.14469 0.3299 0.69977 0.0
C1561 C 0.08891 0.33164 0.79748 0.0
C1562 C 0.08102 0.30386 0.7959 0.0
C1563 C 0.10984 0.34233 0.78663 0.0
C1564 C 0.12343 0.32545 0.77404 0.0
C1565 C 0.11619 0.29755 0.77277 0.0
C1566 C 0.09529 0.28682 0.78365 0.0
C1567 C 0.1428 0.33787 0.76091 0.0
C1568 C 0.13626 0.33596 0.74252 0.0
C1569 C 0.16489 0.35491 0.76647 0.0
C1570 C 0.17405 0.35591 0.78561 0.0
C1571 C 0.1793 0.33139 0.79519 0.0
C1572 C 0.18749 0.33238 0.81328 0.0
C1573 C 0.19066 0.35778 0.82194 0.0
C1574 C 0.18567 0.38225 0.81252 0.0
C1575 C 0.17742 0.38138 0.79444 0.0
H1576 H 0.197 0.3585 0.83594 0.0
H1577 H 0.10871 0.3495 0.66246 0.0
H1578 H 0.45676 0.77795 0.29204 0.0
H1579 H 0.43119 0.78047 0.26352 0.0
H1580 H 0.37785 0.84257 0.28636 0.0
H1581 H 0.40347 0.8403 0.3148 0.0
H1582 H 0.3511 0.80415 0.26124 0.0
H1583 H 0.43284 0.8639 0.2673 0.0
H1584 H 0.48265 0.87055 0.27253 0.0
H1585 H 0.50115 0.81729 0.2278 0.0
H1586 H 0.45143 0.80997 0.22251 0.0
H1587 H 0.31134 0.91013 0.2043 0.0
H1588 H 0.32813 0.87763 0.22664 0.0
H1589 H 0.38167 0.84078 0.18684 0.0
H1590 H 0.36462 0.87337 0.16415 0.0
H1591 H 0.40939 0.85257 0.21622 0.0
H1592 H 0.3283 0.80281 0.20486 0.0
H1593 H 0.27904 0.79356 0.19937 0.0
H1594 H 0.25909 0.8238 0.25226 0.0
H1595 H 0.30818 0.83354 0.25803 0.0
C1596 C 0.43897 0.79141 0.29114 0.0
C1597 C 0.43211 0.80909 0.3055 0.0
C1598 C 0.42445 0.79285 0.27487 0.0
C1599 C 0.40281 0.81182 0.27287 0.0
C1600 C 0.39444 0.82773 0.28771 0.0
C1601 C 0.40915 0.82656 0.30388 0.0
C1602 C 0.39183 0.81858 0.2548 0.0
C1603 C 0.36372 0.81464 0.2513 0.0
C1604 C 0.40867 0.8313 0.24164 0.0
C1605 C 0.43849 0.83612 0.24465 0.0
C1606 C 0.44755 0.85346 0.25867 0.0
C1607 C 0.47575 0.85736 0.26164 0.0
C1608 C 0.49503 0.84428 0.25053 0.0
C1609 C 0.48618 0.82735 0.23641 0.0
C1610 C 0.458 0.82331 0.23343 0.0
C1611 C 0.32619 0.89476 0.20009 0.0
C1612 C 0.33661 0.89444 0.18238 0.0
C1613 C 0.33573 0.87605 0.21292 0.0
C1614 C 0.35583 0.85642 0.20836 0.0
C1615 C 0.36601 0.85565 0.19062 0.0
C1616 C 0.35642 0.87444 0.17772 0.0
C1617 C 0.3682 0.83917 0.22278 0.0
C1618 C 0.39669 0.84125 0.22573 0.0
C1619 C 0.35169 0.82444 0.23527 0.0
C1620 C 0.32199 0.81903 0.23184 0.0
C1621 C 0.3134 0.80771 0.21527 0.0
C1622 C 0.2855 0.80233 0.21212 0.0
C1623 C 0.26595 0.80813 0.22544 0.0
C1624 C 0.27427 0.8193 0.24196 0.0
C1625 C 0.30215 0.8247 0.24519 0.0
H1626 H 0.24436 0.80394 0.22298 0.0
H1627 H 0.51682 0.84731 0.25283 0.0
H1628 H 0.8269 0.59286 0.65447 0.0
H1629 H 0.83005 0.63249 0.67507 0.0
H1630 H 0.79464 0.58349 0.71778 0.0
H1631 H 0.79177 0.54395 0.69734 0.0
H1632 H 0.77894 0.64116 0.71866 0.0
H1633 H 0.86011 0.58113 0.71383 0.0
H1634 H 0.89673 0.55815 0.69626 0.0
H1635 H 0.92528 0.63677 0.67727 0.0
H1636 H 0.88848 0.66019 0.69454 0.0
H1637 H 0.84188 0.6645 0.80342 0.0
H1638 H 0.82168 0.64883 0.77488 0.0
H1639 H 0.8709 0.70813 0.74587 0.0
H1640 H 0.89119 0.72374 0.77429 0.0
H1641 H 0.87766 0.6558 0.73342 0.0
H1642 H 0.80403 0.71633 0.74513 0.0
H1643 H 0.76694 0.73973 0.76195 0.0
H1644 H 0.72361 0.66302 0.76729 0.0
H1645 H 0.7607 0.63898 0.75081 0.0
C1646 C 0.81902 0.59095 0.66809 0.0
C1647 C 0.80937 0.56548 0.67448 0.0
C1648 C 0.82078 0.61351 0.67981 0.0
C1649 C 0.8127 0.61078 0.69794 0.0
C1650 C 0.80083 0.58601 0.70382 0.0
C1651 C 0.7994 0.56343 0.69221 0.0
C1652 C 0.82086 0.63151 0.71154 0.0
C1653 C 0.80047 0.64454 0.72193 0.0
C1654 C 0.84899 0.63636 0.71538 0.0
C1655 C 0.8714 0.62236 0.70529 0.0
C1656 C 0.87409 0.59349 0.70581 0.0
C1657 C 0.89488 0.58039 0.69592 0.0
C1658 C 0.91329 0.59599 0.68563 0.0
C1659 C 0.91097 0.62472 0.68524 0.0
C1660 C 0.89016 0.63792 0.69506 0.0
C1661 C 0.84811 0.67437 0.79097 0.0
C1662 C 0.86818 0.69523 0.79107 0.0
C1663 C 0.83636 0.66565 0.77471 0.0
C1664 C 0.84467 0.6775 0.75829 0.0
C1665 C 0.86407 0.6989 0.75841 0.0
C1666 C 0.87557 0.70783 0.77467 0.0
C1667 C 0.83573 0.66506 0.741 0.0
C1668 C 0.85607 0.6533 0.72994 0.0
C1669 C 0.80756 0.66159 0.73657 0.0
C1670 C 0.78536 0.67577 0.74685 0.0
C1671 C 0.78679 0.70434 0.75009 0.0
C1672 C 0.76574 0.71774 0.75956 0.0
C1673 C 0.74301 0.70285 0.76576 0.0
C1674 C 0.74128 0.67452 0.76252 0.0
C1675 C 0.76232 0.66099 0.7531 0.0
H1676 H 0.72665 0.7133 0.77299 0.0
H1677 H 0.92939 0.58581 0.67801 0.0
H1678 H 0.49949 0.2114 0.27912 0.0
H1679 H 0.53238 0.20547 0.25433 0.0
H1680 H 0.59961 0.2228 0.29078 0.0
H1681 H 0.56646 0.22962 0.3155 0.0
H1682 H 0.61038 0.24125 0.25586 0.0
H1683 H 0.57998 0.15841 0.28546 0.0
H1684 H 0.54526 0.12599 0.29729 0.0
H1685 H 0.51288 0.11452 0.24386 0.0
H1686 H 0.54714 0.14727 0.23175 0.0
H1687 H 0.71261 0.15533 0.21333 0.0
H1688 H 0.68153 0.18115 0.23298 0.0
H1689 H 0.61299 0.15985 0.19863 0.0
H1690 H 0.64335 0.13303 0.1795 0.0
H1691 H 0.6033 0.14568 0.23232 0.0
H1692 H 0.6373 0.22673 0.20242 0.0
H1693 H 0.67268 0.25907 0.1914 0.0
H1694 H 0.70003 0.27312 0.24576 0.0
H1695 H 0.66507 0.24051 0.2571 0.0
C1696 C 0.52124 0.21476 0.28163 0.0
C1697 C 0.53068 0.22078 0.29907 0.0
C1698 C 0.53997 0.21135 0.26753 0.0
C1699 C 0.56842 0.21319 0.27083 0.0
C1700 C 0.57774 0.22129 0.28798 0.0
C1701 C 0.5589 0.2251 0.30206 0.0
C1702 C 0.5882 0.20287 0.2572 0.0
C1703 C 0.60904 0.22033 0.25074 0.0
C1704 C 0.58626 0.17559 0.25053 0.0
C1705 C 0.56595 0.1555 0.25773 0.0
C1706 C 0.56535 0.14911 0.27625 0.0
C1707 C 0.54576 0.13067 0.28301 0.0
C1708 C 0.52684 0.11825 0.27134 0.0
C1709 C 0.52753 0.12418 0.25288 0.0
C1710 C 0.54703 0.14268 0.24607 0.0
C1711 C 0.69098 0.15623 0.20986 0.0
C1712 C 0.6806 0.14155 0.19491 0.0
C1713 C 0.67327 0.17135 0.221 0.0
C1714 C 0.64493 0.17241 0.21727 0.0
C1715 C 0.6348 0.15926 0.20178 0.0
C1716 C 0.65238 0.14399 0.19074 0.0
C1717 C 0.62531 0.1842 0.23053 0.0
C1718 C 0.60458 0.16677 0.23717 0.0
C1719 C 0.62764 0.21137 0.2374 0.0
C1720 C 0.64871 0.23095 0.2306 0.0
C1721 C 0.65102 0.23651 0.21202 0.0
C1722 C 0.67097 0.25493 0.20572 0.0
C1723 C 0.68864 0.26809 0.21787 0.0
C1724 C 0.68635 0.26288 0.23636 0.0
C1725 C 0.66645 0.24445 0.24274 0.0
H1726 H 0.70406 0.28236 0.21296 0.0
H1727 H 0.51169 0.10398 0.27659 0.0
H1728 H 0.66858 0.15991 0.68659 0.0
H1729 H 0.68845 0.14032 0.71418 0.0
H1730 H 0.63403 0.19084 0.74633 0.0
H1731 H 0.61479 0.21096 0.71884 0.0
H1732 H 0.68267 0.18174 0.76387 0.0
H1733 H 0.61238 0.12812 0.73391 0.0
H1734 H 0.59236 0.10682 0.70663 0.0
H1735 H 0.66418 0.05569 0.70088 0.0
H1736 H 0.68464 0.0768 0.72807 0.0
H1737 H 0.64655 0.0888 0.836 0.0
H1738 H 0.64874 0.1214 0.81072 0.0
H1739 H 0.71182 0.07177 0.78558 0.0
H1740 H 0.70977 0.03921 0.81072 0.0
H1741 H 0.66412 0.08105 0.76428 0.0
H1742 H 0.72978 0.13206 0.79944 0.0
H1743 H 0.747 0.15601 0.82654 0.0
H1744 H 0.67979 0.21352 0.82349 0.0
H1745 H 0.66191 0.18966 0.79651 0.0
C1746 C 0.66142 0.16724 0.69958 0.0
C1747 C 0.63994 0.18657 0.70065 0.0
C1748 C 0.67279 0.15617 0.71529 0.0
C1749 C 0.66226 0.16374 0.73225 0.0
C1750 C 0.64243 0.18473 0.73337 0.0
C1751 C 0.6314 0.19615 0.71766 0.0
C1752 C 0.66852 0.14691 0.74839 0.0
C1753 C 0.67863 0.15974 0.76402 0.0
C1754 C 0.66313 0.11823 0.74852 0.0
C1755 C 0.6501 0.10413 0.73293 0.0
C1756 C 0.62383 0.11224 0.72685 0.0
C1757 C 0.61242 0.10024 0.71139 0.0
C1758 C 0.627 0.07994 0.702 0.0
C1759 C 0.65288 0.07139 0.70816 0.0
C1760 C 0.66437 0.0833 0.72363 0.0
C1761 C 0.66125 0.08519 0.82524 0.0
C1762 C 0.67794 0.06148 0.82528 0.0
C1763 C 0.66259 0.10386 0.81089 0.0
C1764 C 0.68047 0.09891 0.79635 0.0
C1765 C 0.698 0.07594 0.79675 0.0
C1766 C 0.69691 0.05748 0.81116 0.0
C1767 C 0.6785 0.11579 0.77981 0.0
C1768 C 0.66876 0.10294 0.76409 0.0
C1769 C 0.68365 0.14449 0.77981 0.0
C1770 C 0.69437 0.15891 0.79603 0.0
C1771 C 0.71852 0.14965 0.80464 0.0
C1772 C 0.72844 0.16325 0.81996 0.0
C1773 C 0.71447 0.18623 0.82676 0.0
C1774 C 0.69058 0.1957 0.81822 0.0
C1775 C 0.68056 0.18217 0.80289 0.0
H1776 H 0.72218 0.19674 0.83862 0.0
H1777 H 0.61823 0.07085 0.68995 0.0
H1778 H 0.22513 0.44147 0.28022 0.0
H1779 H 0.20955 0.41112 0.25619 0.0
H1780 H 0.14752 0.37731 0.2915 0.0
H1781 H 0.16387 0.40662 0.31602 0.0
H1782 H 0.16904 0.33767 0.27014 0.0
H1783 H 0.13206 0.42938 0.26239 0.0
H1784 H 0.13462 0.47993 0.25908 0.0
H1785 H 0.18407 0.47051 0.21139 0.0
H1786 H 0.1821 0.41986 0.21456 0.0
H1787 H 0.05555 0.30849 0.21362 0.0
H1788 H 0.09091 0.32126 0.23554 0.0
H1789 H 0.1458 0.34352 0.19208 0.0
H1790 H 0.11021 0.33079 0.17003 0.0
H1791 H 0.13592 0.38583 0.21515 0.0
H1792 H 0.164 0.29232 0.22056 0.0
H1793 H 0.15828 0.24212 0.22425 0.0
H1794 H 0.12219 0.25477 0.27654 0.0
H1795 H 0.12731 0.30508 0.27307 0.0
C1796 C 0.20856 0.42725 0.28311 0.0
C1797 C 0.19557 0.42688 0.30012 0.0
C1798 C 0.19955 0.40999 0.26925 0.0
C1799 C 0.17709 0.39229 0.27197 0.0
C1800 C 0.16483 0.39092 0.28909 0.0
C1801 C 0.17399 0.40801 0.30304 0.0
C1802 C 0.16501 0.37681 0.25665 0.0
C1803 C 0.1617 0.34814 0.25812 0.0
C1804 C 0.15607 0.39044 0.24079 0.0
C1805 C 0.15723 0.42087 0.23884 0.0
C1806 C 0.14366 0.4381 0.25128 0.0
C1807 C 0.14498 0.46676 0.24942 0.0
C1808 C 0.15958 0.47843 0.23507 0.0
C1809 C 0.17283 0.46145 0.22252 0.0
C1810 C 0.17161 0.43277 0.22434 0.0
C1811 C 0.07546 0.31538 0.20877 0.0
C1812 C 0.08019 0.3189 0.19021 0.0
C1813 C 0.09572 0.32248 0.22128 0.0
C1814 C 0.12101 0.33328 0.21543 0.0
C1815 C 0.12644 0.3351 0.19684 0.0
C1816 C 0.1062 0.32775 0.18428 0.0
C1817 C 0.1395 0.34666 0.22869 0.0
C1818 C 0.14388 0.37512 0.22692 0.0
C1819 C 0.14903 0.33283 0.24431 0.0
C1820 C 0.14593 0.30254 0.2465 0.0
C1821 C 0.15465 0.28443 0.23279 0.0
C1822 C 0.15155 0.25594 0.23486 0.0
C1823 C 0.13985 0.24527 0.25061 0.0
C1824 C 0.13126 0.26307 0.26434 0.0
C1825 C 0.13431 0.29158 0.26235 0.0
H1826 H 0.13747 0.2232 0.25218 0.0
H1827 H 0.16057 0.50062 0.23364 0.0
H1828 H 0.40083 0.82409 0.67284 0.0
H1829 H 0.35888 0.84409 0.68592 0.0
H1830 H 0.38631 0.82025 0.73908 0.0
H1831 H 0.42821 0.80084 0.72625 0.0
H1832 H 0.33075 0.80947 0.73364 0.0
H1833 H 0.39708 0.88464 0.72386 0.0
H1834 H 0.42633 0.91386 0.70447 0.0
H1835 H 0.35545 0.93734 0.67328 0.0
H1836 H 0.32585 0.90795 0.69238 0.0
H1837 H 0.30454 0.89862 0.80439 0.0
H1838 H 0.31753 0.86753 0.77992 0.0
H1839 H 0.26766 0.91468 0.74278 0.0
H1840 H 0.25452 0.94592 0.76749 0.0
H1841 H 0.32036 0.91122 0.73181 0.0
H1842 H 0.2528 0.84709 0.74878 0.0
H1843 H 0.22397 0.81869 0.76888 0.0
H1844 H 0.29567 0.77444 0.78675 0.0
H1845 H 0.32503 0.80283 0.76698 0.0
C1846 C 0.39803 0.82334 0.68732 0.0
C1847 C 0.41801 0.81102 0.69852 0.0
C1848 C 0.37392 0.83451 0.69474 0.0
C1849 C 0.36949 0.83356 0.71346 0.0
C1850 C 0.38917 0.8209 0.72457 0.0
C1851 C 0.41318 0.80986 0.71721 0.0
C1852 C 0.34553 0.84732 0.72197 0.0
C1853 C 0.32825 0.8317 0.73321 0.0
C1854 C 0.34158 0.87615 0.72076 0.0
C1855 C 0.35935 0.89385 0.70936 0.0
C1856 C 0.38779 0.89587 0.71277 0.0
C1857 C 0.40442 0.91248 0.70186 0.0
C1858 C 0.39278 0.92737 0.68761 0.0
C1859 C 0.36446 0.92574 0.68429 0.0
C1860 C 0.34775 0.90911 0.69514 0.0
C1861 C 0.2956 0.90171 0.79114 0.0
C1862 C 0.27855 0.9245 0.78775 0.0
C1863 C 0.30291 0.8839 0.77716 0.0
C1864 C 0.29344 0.88867 0.75951 0.0
C1865 C 0.27502 0.91052 0.75632 0.0
C1866 C 0.26743 0.92823 0.77041 0.0
C1867 C 0.30652 0.87355 0.74436 0.0
C1868 C 0.32187 0.88889 0.73181 0.0
C1869 C 0.30865 0.84445 0.7444 0.0
C1870 C 0.29115 0.82719 0.75637 0.0
C1871 C 0.26247 0.83143 0.75708 0.0
C1872 C 0.24602 0.8153 0.76841 0.0
C1873 C 0.25798 0.79477 0.77909 0.0
C1874 C 0.28642 0.79032 0.77845 0.0
C1875 C 0.30298 0.8064 0.76714 0.0
H1876 H 0.2452 0.78231 0.78785 0.0
H1877 H 0.40568 0.94023 0.67918 0.0
H1878 H 0.9372 0.67247 0.15995 0.0
H1879 H 0.90624 0.66161 0.18515 0.0
H1880 H 0.96211 0.70153 0.22214 0.0
H1881 H 0.99305 0.71245 0.19709 0.0
H1882 H 0.94768 0.64716 0.23188 0.0
H1883 H 0.90409 0.73192 0.21451 0.0
H1884 H 0.88255 0.76483 0.1934 0.0
H1885 H 0.81886 0.70612 0.18154 0.0
H1886 H 0.84025 0.67268 0.20239 0.0
H1887 H 0.86054 0.62651 0.30815 0.0
H1888 H 0.89047 0.64778 0.28538 0.0
H1889 H 0.83278 0.62461 0.24366 0.0
H1890 H 0.8027 0.60417 0.26636 0.0
H1891 H 0.84951 0.67448 0.23774 0.0
H1892 H 0.89403 0.58834 0.25219 0.0
H1893 H 0.91522 0.55375 0.2723 0.0
H1894 H 0.9768 0.61245 0.28828 0.0
H1895 H 0.95573 0.64753 0.26844 0.0
C1896 C 0.94261 0.67928 0.17342 0.0
C1897 C 0.96743 0.69339 0.17657 0.0
C1898 C 0.92493 0.67315 0.18776 0.0
C1899 C 0.93197 0.68081 0.20545 0.0
C1900 C 0.95635 0.69552 0.20856 0.0
C1901 C 0.97385 0.70194 0.19422 0.0
C1902 C 0.91481 0.67184 0.22084 0.0
C1903 C 0.92633 0.65346 0.23338 0.0
C1904 C 0.88685 0.67962 0.22244 0.0
C1905 C 0.87393 0.69969 0.2099 0.0
C1906 C 0.88563 0.72592 0.20728 0.0
C1907 C 0.87342 0.74469 0.19539 0.0
C1908 C 0.84939 0.73754 0.1861 0.0
C1909 C 0.83749 0.71162 0.18873 0.0
C1910 C 0.84963 0.69276 0.20059 0.0
C1911 C 0.85439 0.62599 0.2941 0.0
C1912 C 0.82933 0.61381 0.28899 0.0
C1913 C 0.87145 0.63808 0.28112 0.0
C1914 C 0.86398 0.63757 0.26278 0.0
C1915 C 0.8389 0.62543 0.25772 0.0
C1916 C 0.82172 0.61376 0.2707 0.0
C1917 C 0.88221 0.64938 0.2487 0.0
C1918 C 0.87092 0.6683 0.23638 0.0
C1919 C 0.91031 0.64179 0.24715 0.0
C1920 C 0.92311 0.62066 0.25899 0.0
C1921 C 0.91197 0.59393 0.26009 0.0
C1922 C 0.92398 0.57423 0.27143 0.0
C1923 C 0.94729 0.58092 0.2816 0.0
C1924 C 0.9587 0.60731 0.28041 0.0
C1925 C 0.94675 0.62711 0.26912 0.0
H1926 H 0.95655 0.56564 0.29038 0.0
H1927 H 0.83996 0.75211 0.17691 0.0
H1928 H 0.71338 0.9598 0.20948 0.0
H1929 H 0.69502 0.92339 0.2291 0.0
H1930 H 0.61309 0.93944 0.20901 0.0
H1931 H 0.6312 0.97521 0.18919 0.0
H1932 H 0.61649 0.93986 0.24642 0.0
H1933 H 0.64491 0.88313 0.19615 0.0
H1934 H 0.67804 0.86472 0.17395 0.0
H1935 H 0.72871 0.83361 0.21693 0.0
H1936 H 0.69605 0.85219 0.23941 0.0
H1937 H 0.54025 0.83742 0.28749 0.0
H1938 H 0.56199 0.86315 0.26282 0.0
H1939 H 0.64204 0.83523 0.28062 0.0
H1940 H 0.61999 0.80817 0.30464 0.0
H1941 H 0.64175 0.84062 0.245 0.0
H1942 H 0.61448 0.89756 0.29536 0.0
H1943 H 0.58016 0.91289 0.31784 0.0
H1944 H 0.52825 0.9435 0.27538 0.0
H1945 H 0.56209 0.92805 0.25262 0.0
C1946 C 0.69154 0.95523 0.20905 0.0
C1947 C 0.67367 0.97061 0.19799 0.0
C1948 C 0.6811 0.93452 0.22027 0.0
C1949 C 0.65271 0.92893 0.22051 0.0
C1950 C 0.63502 0.94368 0.20911 0.0
C1951 C 0.6454 0.96418 0.19787 0.0
C1952 C 0.64098 0.90867 0.23324 0.0
C1953 C 0.62184 0.91813 0.24602 0.0
C1954 C 0.64856 0.88051 0.23296 0.0
C1955 C 0.6682 0.86933 0.21946 0.0
C1956 C 0.66325 0.87259 0.20087 0.0
C1957 C 0.68192 0.86208 0.18824 0.0
C1958 C 0.70551 0.84808 0.19403 0.0
C1959 C 0.71045 0.8445 0.21247 0.0
C1960 C 0.69186 0.855 0.22516 0.0
C1961 C 0.5624 0.83638 0.28577 0.0
C1962 C 0.57864 0.82125 0.29786 0.0
C1963 C 0.5748 0.85104 0.27179 0.0
C1964 C 0.60365 0.85171 0.27024 0.0
C1965 C 0.61976 0.83512 0.28165 0.0
C1966 C 0.60725 0.81978 0.29533 0.0
C1967 C 0.61696 0.87176 0.25798 0.0
C1968 C 0.63652 0.86238 0.24543 0.0
C1969 C 0.61003 0.90014 0.25857 0.0
C1970 C 0.59073 0.91147 0.27228 0.0
C1971 C 0.59577 0.90763 0.29082 0.0
C1972 C 0.57636 0.9162 0.30361 0.0
C1973 C 0.55193 0.92887 0.29802 0.0
C1974 C 0.5471 0.93348 0.27966 0.0
C1975 C 0.56643 0.92491 0.26682 0.0
H1976 H 0.53687 0.93539 0.30792 0.0
H1977 H 0.71993 0.83995 0.18422 0.0
H1978 H 0.92116 0.2508 0.78637 0.0
H1979 H 0.88995 0.25639 0.76055 0.0
H1980 H 0.85216 0.32644 0.78663 0.0
H1981 H 0.88349 0.32109 0.81229 0.0
H1982 H 0.8151 0.29396 0.76355 0.0
H1983 H 0.9059 0.33942 0.7641 0.0
H1984 H 0.95659 0.3377 0.76656 0.0
H1985 H 0.96023 0.28176 0.72165 0.0
H1986 H 0.90945 0.28277 0.71917 0.0
H1987 H 0.78549 0.40561 0.70763 0.0
H1988 H 0.79843 0.37029 0.7294 0.0
H1989 H 0.84283 0.3264 0.68781 0.0
H1990 H 0.83034 0.36227 0.66601 0.0
H1991 H 0.87428 0.33253 0.71508 0.0
H1992 H 0.78421 0.29706 0.70939 0.0
H1993 H 0.73352 0.29798 0.7068 0.0
H1994 H 0.72743 0.33236 0.76009 0.0
H1995 H 0.77811 0.33207 0.76284 0.0
C1996 C 0.9054 0.26663 0.78687 0.0
C1997 C 0.90473 0.2857 0.80112 0.0
C1998 C 0.88763 0.26979 0.77216 0.0
C1999 C 0.86897 0.29194 0.7717 0.0
C2000 C 0.86634 0.30915 0.78682 0.0
C2001 C 0.8843 0.30621 0.80138 0.0
C2002 C 0.85662 0.30092 0.75446 0.0
C2003 C 0.82787 0.30225 0.75283 0.0
C2004 C 0.87344 0.31102 0.74035 0.0
C2005 C 0.90394 0.3109 0.74159 0.0
C2006 C 0.91752 0.32661 0.75484 0.0
C2007 C 0.94625 0.32578 0.75623 0.0
C2008 C 0.96162 0.30957 0.7443 0.0
C2009 C 0.94829 0.29425 0.73091 0.0
C2010 C 0.91954 0.29492 0.72951 0.0
C2011 C 0.79753 0.38816 0.70304 0.0
C2012 C 0.80712 0.38682 0.68518 0.0
C2013 C 0.80477 0.36781 0.71548 0.0
C2014 C 0.82134 0.34541 0.71023 0.0
C2015 C 0.83005 0.34348 0.69219 0.0
C2016 C 0.82309 0.36406 0.67979 0.0
C2017 C 0.83243 0.32634 0.72413 0.0
C2018 C 0.86116 0.32334 0.7253 0.0
C2019 C 0.8155 0.31454 0.73768 0.0
C2020 C 0.78497 0.31472 0.73623 0.0
C2021 C 0.77204 0.30503 0.72047 0.0
C2022 C 0.74332 0.3054 0.719 0.0
C2023 C 0.72726 0.31527 0.73326 0.0
C2024 C 0.7399 0.32472 0.74905 0.0
C2025 C 0.76863 0.32442 0.75058 0.0
H2026 H 0.70501 0.31554 0.7321 0.0
H2027 H 0.98386 0.30895 0.7454 0.0
H2028 H 0.37932 0.07911 0.16822 0.0
H2029 H 0.38348 0.1085 0.19499 0.0
H2030 H 0.30308 0.08202 0.21286 0.0
H2031 H 0.29896 0.05254 0.18607 0.0
H2032 H 0.31311 0.13638 0.2215 0.0
H2033 H 0.35656 0.04879 0.22779 0.0
H2034 H 0.38706 0.01031 0.21914 0.0
H2035 H 0.45744 0.06368 0.22265 0.0
H2036 H 0.42726 0.10269 0.2309 0.0
H2037 H 0.38703 0.14428 0.31639 0.0
H2038 H 0.37119 0.11809 0.29007 0.0
H2039 H 0.3662 0.19345 0.25922 0.0
H2040 H 0.38158 0.21958 0.28543 0.0
H2041 H 0.3942 0.11091 0.25889 0.0
H2042 H 0.31709 0.18955 0.22725 0.0
H2043 H 0.28366 0.22465 0.23738 0.0
H2044 H 0.2752 0.18298 0.28823 0.0
H2045 H 0.30826 0.14741 0.27831 0.0
C2046 C 0.36239 0.08003 0.17773 0.0
C2047 C 0.33906 0.06336 0.17535 0.0
C2048 C 0.36473 0.09679 0.19295 0.0
C2049 C 0.34382 0.09692 0.20605 0.0
C2050 C 0.31946 0.08208 0.20292 0.0
C2051 C 0.31709 0.06535 0.18763 0.0
C2052 C 0.34873 0.1101 0.22376 0.0
C2053 C 0.33083 0.13092 0.2297 0.0
C2054 C 0.37131 0.10217 0.2347 0.0
C2055 C 0.3896 0.07873 0.22982 0.0
C2056 C 0.37851 0.0524 0.22656 0.0
C2057 C 0.39574 0.03048 0.22174 0.0
C2058 C 0.42416 0.03455 0.22035 0.0
C2059 C 0.43541 0.06056 0.22374 0.0
C2060 C 0.41824 0.0826 0.22847 0.0
C2061 C 0.38243 0.1552 0.304 0.0
C2062 C 0.38539 0.18398 0.303 0.0
C2063 C 0.37332 0.14027 0.289 0.0
C2064 C 0.36712 0.15385 0.27274 0.0
C2065 C 0.37014 0.18258 0.27174 0.0
C2066 C 0.37898 0.19751 0.28674 0.0
C2067 C 0.35907 0.13794 0.25649 0.0
C2068 C 0.3764 0.11645 0.25079 0.0
C2069 C 0.33555 0.1448 0.24606 0.0
C2070 C 0.31536 0.16593 0.25207 0.0
C2071 C 0.308 0.18779 0.24055 0.0
C2072 C 0.28913 0.20779 0.24627 0.0
C2073 C 0.27738 0.20609 0.26346 0.0
C2074 C 0.2844 0.18433 0.27494 0.0
C2075 C 0.30323 0.16426 0.26929 0.0
H2076 H 0.26279 0.2216 0.26786 0.0
H2077 H 0.43748 0.01752 0.21667 0.0
H2078 H 0.05638 0.67171 0.827 0.0
H2079 H 0.0948 0.66474 0.80598 0.0
H2080 H 0.04318 0.69158 0.76182 0.0
H2081 H 0.00463 0.69758 0.78274 0.0
H2082 H 0.06433 0.64445 0.75418 0.0
H2083 H 0.10085 0.72904 0.77639 0.0
H2084 H 0.11619 0.76308 0.79898 0.0
H2085 H 0.17797 0.70657 0.81791 0.0
H2086 H 0.16275 0.67201 0.79561 0.0
H2087 H 0.16676 0.62704 0.6888 0.0
H2088 H 0.138 0.654 0.70932 0.0
H2089 H 0.17521 0.61313 0.75492 0.0
H2090 H 0.20368 0.5856 0.7345 0.0
H2091 H 0.1625 0.67163 0.76031 0.0
H2092 H 0.12074 0.58568 0.74035 0.0
H2093 H 0.10649 0.55267 0.71678 0.0
H2094 H 0.05449 0.61437 0.69285 0.0
H2095 H 0.06877 0.6479 0.71616 0.0
C2096 C 0.05358 0.67672 0.81287 0.0
C2097 C 0.02769 0.68497 0.80637 0.0
C2098 C 0.07551 0.67286 0.80087 0.0
C2099 C 0.0719 0.67771 0.7823 0.0
C2100 C 0.04641 0.68759 0.77605 0.0
C2101 C 0.02445 0.69104 0.78797 0.0
C2102 C 0.09337 0.66927 0.76916 0.0
C2103 C 0.08565 0.65097 0.75535 0.0
C2104 C 0.12136 0.67716 0.77088 0.0
C2105 C 0.13047 0.69782 0.78441 0.0
C2106 C 0.11754 0.72376 0.78548 0.0
C2107 C 0.12625 0.74317 0.79821 0.0
C2108 C 0.148 0.73697 0.8099 0.0
C2109 C 0.16111 0.71134 0.80886 0.0
C2110 C 0.15246 0.69184 0.79616 0.0
C2111 C 0.169 0.6239 0.70319 0.0
C2112 C 0.18706 0.60371 0.71001 0.0
C2113 C 0.15279 0.63954 0.71488 0.0
C2114 C 0.15439 0.63529 0.73356 0.0
C2115 C 0.17384 0.61672 0.74051 0.0
C2116 C 0.19003 0.60097 0.72881 0.0
C2117 C 0.1332 0.64713 0.74556 0.0
C2118 C 0.14102 0.6657 0.75913 0.0
C2119 C 0.10521 0.63969 0.74362 0.0
C2120 C 0.09601 0.61936 0.72989 0.0
C2121 C 0.10638 0.59225 0.73 0.0
C2122 C 0.0983 0.57345 0.7167 0.0
C2123 C 0.07964 0.58144 0.70331 0.0
C2124 C 0.06896 0.60823 0.70323 0.0
C2125 C 0.07702 0.62713 0.71649 0.0
H2126 H 0.07339 0.56684 0.69305 0.0
H2127 H 0.15472 0.75203 0.81974 0.0
H2128 H 0.21814 0.47294 0.57496 0.0
H2129 H 0.22092 0.47931 0.5422 0.0
H2130 H 0.21613 0.56749 0.54933 0.0
H2131 H 0.21345 0.56118 0.58213 0.0
H2132 H 0.17635 0.54508 0.52552 0.0
H2133 H 0.27385 0.54298 0.53469 0.0
H2134 H 0.31778 0.52454 0.54631 0.0
H2135 H 0.30589 0.45003 0.51596 0.0
H2136 H 0.26165 0.46784 0.50435 0.0
H2137 H 0.18273 0.56807 0.43134 0.0
H2138 H 0.19343 0.5706 0.4636 0.0
H2139 H 0.2139 0.48393 0.46358 0.0
H2140 H 0.20387 0.48157 0.43127 0.0
H2141 H 0.24896 0.51059 0.48407 0.0
H2142 H 0.15019 0.5085 0.47819 0.0
H2143 H 0.10481 0.52415 0.46717 0.0
H2144 H 0.11736 0.60315 0.49205 0.0
H2145 H 0.16301 0.58806 0.50302 0.0
C2146 C 0.21809 0.49366 0.56952 0.0
C2147 C 0.21552 0.51654 0.58103 0.0
C2148 C 0.21984 0.4973 0.55086 0.0
C2149 C 0.2188 0.52387 0.5434 0.0
C2150 C 0.21707 0.54683 0.55488 0.0
C2151 C 0.21571 0.54321 0.57358 0.0
C2152 C 0.21695 0.52735 0.5236 0.0
C2153 C 0.19246 0.53812 0.51643 0.0
C2154 C 0.23766 0.51745 0.51184 0.0
C2155 C 0.2643 0.50668 0.51876 0.0
C2156 C 0.28047 0.52256 0.53061 0.0
C2157 C 0.30546 0.51224 0.53717 0.0
C2158 C 0.31459 0.48611 0.5319 0.0
C2159 C 0.29878 0.47026 0.52003 0.0
C2160 C 0.27376 0.48048 0.51344 0.0
C2161 C 0.18955 0.54962 0.43825 0.0
C2162 C 0.1923 0.52459 0.42886 0.0
C2163 C 0.19567 0.55106 0.45666 0.0
C2164 C 0.20405 0.52734 0.46609 0.0
C2165 C 0.20751 0.5025 0.4566 0.0
C2166 C 0.20177 0.50116 0.43815 0.0
C2167 C 0.20817 0.52805 0.48594 0.0
C2168 C 0.23301 0.51796 0.49314 0.0
C2169 C 0.18759 0.53818 0.49778 0.0
C2170 C 0.16013 0.54726 0.49124 0.0
C2171 C 0.14335 0.52927 0.48119 0.0
C2172 C 0.11758 0.53803 0.47497 0.0
C2173 C 0.10825 0.56466 0.47886 0.0
C2174 C 0.12464 0.58255 0.48902 0.0
C2175 C 0.15046 0.57391 0.49525 0.0
H2176 H 0.08828 0.5714 0.47404 0.0
H2177 H 0.33395 0.47816 0.537 0.0
H2178 H 0.50509 0.7814 0.42828 0.0
H2179 H 0.50642 0.77519 0.4608 0.0
H2180 H 0.47036 0.85578 0.46827 0.0
H2181 H 0.47047 0.86289 0.43566 0.0
H2182 H 0.51138 0.84953 0.49056 0.0
H2183 H 0.43284 0.79592 0.47562 0.0
H2184 H 0.40536 0.76138 0.45912 0.0
H2185 H 0.46024 0.69728 0.47679 0.0
H2186 H 0.48829 0.7315 0.4932 0.0
H2187 H 0.49546 0.8234 0.58485 0.0
H2188 H 0.48581 0.83338 0.55321 0.0
H2189 H 0.52586 0.75752 0.53764 0.0
H2190 H 0.5344 0.7467 0.56932 0.0
H2191 H 0.47758 0.76434 0.52027 0.0
H2192 H 0.55759 0.82138 0.53375 0.0
H2193 H 0.58224 0.85717 0.55105 0.0
H2194 H 0.52033 0.91665 0.53674 0.0
H2195 H 0.49508 0.8811 0.5196 0.0
C2196 C 0.49759 0.79794 0.43676 0.0
C2197 C 0.48784 0.82275 0.42925 0.0
C2198 C 0.498 0.79418 0.45541 0.0
C2199 C 0.48814 0.81487 0.46698 0.0
C2200 C 0.47797 0.83949 0.45958 0.0
C2201 C 0.47782 0.84341 0.44089 0.0
C2202 C 0.48971 0.81114 0.48681 0.0
C2203 C 0.50354 0.83113 0.4971 0.0
C2204 C 0.47965 0.78705 0.49534 0.0
C2205 C 0.46279 0.76634 0.48554 0.0
C2206 C 0.43917 0.77449 0.47588 0.0
C2207 C 0.42347 0.75496 0.46657 0.0
C2208 C 0.43108 0.72716 0.46688 0.0
C2209 C 0.45437 0.71883 0.47655 0.0
C2210 C 0.47016 0.73828 0.48589 0.0
C2211 C 0.502 0.80868 0.57474 0.0
C2212 C 0.51564 0.78417 0.57966 0.0
C2213 C 0.49671 0.81458 0.55663 0.0
C2214 C 0.50533 0.7963 0.54308 0.0
C2215 C 0.51906 0.77191 0.54791 0.0
C2216 C 0.5242 0.7659 0.56602 0.0
C2217 C 0.49989 0.80233 0.52384 0.0
C2218 C 0.48521 0.78281 0.5137 0.0
C2219 C 0.5088 0.82703 0.51552 0.0
C2220 C 0.52432 0.84851 0.52554 0.0
C2221 C 0.54916 0.84205 0.53439 0.0
C2222 C 0.56323 0.8623 0.54417 0.0
C2223 C 0.55279 0.88915 0.54507 0.0
C2224 C 0.52834 0.89583 0.5361 0.0
C2225 C 0.51416 0.87565 0.52633 0.0
H2226 H 0.56369 0.90478 0.55267 0.0
H2227 H 0.4189 0.71207 0.45966 0.0
H2228 H 0.7833 0.47013 0.41495 0.0
H2229 H 0.79226 0.46821 0.44731 0.0
H2230 H 0.80827 0.55567 0.44784 0.0
H2231 H 0.79873 0.55798 0.4155 0.0
H2232 H 0.84762 0.52509 0.46656 0.0
H2233 H 0.74917 0.5337 0.46391 0.0
H2234 H 0.70229 0.52161 0.45379 0.0
H2235 H 0.71133 0.4406 0.47646 0.0
H2236 H 0.75845 0.45207 0.48649 0.0
H2237 H 0.84617 0.53832 0.56242 0.0
H2238 H 0.83744 0.54377 0.53008 0.0
H2239 H 0.81249 0.4585 0.52679 0.0
H2240 H 0.82099 0.45304 0.55909 0.0
H2241 H 0.77711 0.49035 0.50941 0.0
H2242 H 0.87561 0.48053 0.51124 0.0
H2243 H 0.92296 0.49156 0.52094 0.0
H2244 H 0.91453 0.57345 0.49955 0.0
H2245 H 0.86695 0.56303 0.48995 0.0
C2246 C 0.78837 0.48906 0.42193 0.0
C2247 C 0.79016 0.51424 0.41257 0.0
C2248 C 0.79361 0.48788 0.44043 0.0
C2249 C 0.8007 0.51184 0.44994 0.0
C2250 C 0.80286 0.53696 0.44068 0.0
C2251 C 0.79749 0.53819 0.42218 0.0
C2252 C 0.80594 0.51055 0.46958 0.0
C2253 C 0.83211 0.51791 0.47601 0.0
C2254 C 0.78583 0.50059 0.48174 0.0
C2255 C 0.75744 0.49367 0.4758 0.0
C2256 C 0.74125 0.51323 0.46661 0.0
C2257 C 0.71461 0.5065 0.46091 0.0
C2258 C 0.70386 0.48033 0.46444 0.0
C2259 C 0.7197 0.46085 0.47372 0.0
C2260 C 0.74636 0.46747 0.47942 0.0
C2261 C 0.83908 0.5207 0.55475 0.0
C2262 C 0.83423 0.49526 0.56327 0.0
C2263 C 0.8341 0.52383 0.53629 0.0
C2264 C 0.82454 0.50147 0.52601 0.0
C2265 C 0.81976 0.47605 0.53449 0.0
C2266 C 0.82455 0.47297 0.55294 0.0
C2267 C 0.81894 0.50461 0.50646 0.0
C2268 C 0.79264 0.49764 0.50002 0.0
C2269 C 0.839 0.51478 0.49429 0.0
C2270 C 0.8676 0.5211 0.50006 0.0
C2271 C 0.88376 0.50097 0.50875 0.0
C2272 C 0.91066 0.5071 0.5142 0.0
C2273 C 0.92172 0.53322 0.51091 0.0
C2274 C 0.90592 0.55324 0.50212 0.0
C2275 C 0.87899 0.54723 0.49666 0.0
H2276 H 0.94255 0.53792 0.51514 0.0
H2277 H 0.68323 0.47517 0.46003 0.0
H2278 H 0.46554 0.17512 0.4262 0.0
H2279 H 0.47191 0.16411 0.45813 0.0
H2280 H 0.52788 0.23261 0.46361 0.0
H2281 H 0.52109 0.24432 0.43195 0.0
H2282 H 0.54796 0.18338 0.47832 0.0
H2283 H 0.46528 0.23903 0.47941 0.0
H2284 H 0.41784 0.25115 0.47041 0.0
H2285 H 0.38873 0.1733 0.49038 0.0
H2286 H 0.43611 0.16055 0.49926 0.0
H2287 H 0.56299 0.19652 0.57161 0.0
H2288 H 0.55245 0.20497 0.54016 0.0
H2289 H 0.48871 0.14309 0.54183 0.0
H2290 H 0.49783 0.13556 0.57376 0.0
H2291 H 0.47167 0.18549 0.52294 0.0
H2292 H 0.55309 0.12981 0.52286 0.0
H2293 H 0.6003 0.11654 0.5317 0.0
H2294 H 0.63164 0.19205 0.50946 0.0
H2295 H 0.58456 0.20592 0.50067 0.0
C2296 C 0.47891 0.1881 0.43421 0.0
C2297 C 0.4928 0.21064 0.42642 0.0
C2298 C 0.48261 0.18167 0.45244 0.0
C2299 C 0.50032 0.1976 0.46317 0.0
C2300 C 0.51424 0.22 0.45549 0.0
C2301 C 0.51041 0.22657 0.43734 0.0
C2302 C 0.50466 0.19088 0.48242 0.0
C2303 C 0.53137 0.18407 0.48813 0.0
C2304 C 0.48278 0.19099 0.49503 0.0
C2305 C 0.45428 0.19871 0.48981 0.0
C2306 C 0.4488 0.22439 0.48174 0.0
C2307 C 0.42192 0.2314 0.47669 0.0
C2308 C 0.4003 0.21297 0.47977 0.0
C2309 C 0.40551 0.18753 0.48797 0.0
C2310 C 0.43237 0.18041 0.49302 0.0
C2311 C 0.54644 0.18485 0.56555 0.0
C2312 C 0.53144 0.16514 0.57548 0.0
C2313 C 0.54066 0.18954 0.54737 0.0
C2314 C 0.52022 0.17423 0.53851 0.0
C2315 C 0.50476 0.15499 0.54836 0.0
C2316 C 0.51024 0.15054 0.56665 0.0
C2317 C 0.51512 0.17831 0.51896 0.0
C2318 C 0.48828 0.18457 0.51315 0.0
C2319 C 0.53685 0.17743 0.50619 0.0
C2320 C 0.56526 0.16898 0.51123 0.0
C2321 C 0.57003 0.14364 0.51994 0.0
C2322 C 0.59677 0.13601 0.52492 0.0
C2323 C 0.61895 0.15346 0.52117 0.0
C2324 C 0.61444 0.17855 0.51236 0.0
C2325 C 0.58774 0.18629 0.50735 0.0
H2326 H 0.63963 0.14753 0.52506 0.0
H2327 H 0.3795 0.21843 0.47586 0.0
H2328 H 0.62414 0.99193 0.94714 0.0
H2329 H 0.64113 0.00574 0.97664 0.0
H2330 H 0.72212 0.01914 0.95429 0.0
H2331 H 0.70511 0.00567 0.92444 0.0
H2332 H 0.72395 0.98885 0.98525 0.0
H2333 H 0.68568 0.07409 0.96719 0.0
H2334 H 0.65139 0.10593 0.95415 0.0
H2335 H 0.59342 0.08375 0.99546 0.0
H2336 H 0.62719 0.05144 0.0086 0.0
H2337 H 0.74975 0.03243 0.07821 0.0
H2338 H 0.7486 0.03467 0.04496 0.0
H2339 H 0.66302 0.01049 0.04568 0.0
H2340 H 0.66405 0.00844 0.0785 0.0
H2341 H 0.67423 0.0565 0.0236 0.0
H2342 H 0.70998 0.96397 0.03643 0.0
H2343 H 0.74423 0.93173 0.04914 0.0
H2344 H 0.80785 0.96928 0.01722 0.0
H2345 H 0.77398 1.002 0.00449 0.0
C2346 C 0.64542 0.99829 0.94833 0.0
C2347 C 0.66319 0.99773 0.93335 0.0
C2348 C 0.65514 0.00617 0.96525 0.0
C2349 C 0.68279 0.01382 0.96758 0.0
C2350 C 0.70067 0.01339 0.95272 0.0
C2351 C 0.69093 0.00554 0.93571 0.0
C2352 C 0.69292 0.02072 0.98587 0.0
C2353 C 0.71363 0.00418 0.99351 0.0
C2354 C 0.67943 0.04071 0.99662 0.0
C2355 C 0.65899 0.06024 0.98885 0.0
C2356 C 0.66556 0.07586 0.97343 0.0
C2357 C 0.64622 0.09401 0.96603 0.0
C2358 C 0.62024 0.09685 0.97397 0.0
C2359 C 0.61357 0.08155 0.98934 0.0
C2360 C 0.63283 0.06334 -0.00321 0.0
C2361 C 0.73083 0.02753 0.07116 0.0
C2362 C 0.70714 0.01983 0.08084 0.0
C2363 C 0.73018 0.02881 0.05227 0.0
C2364 C 0.70571 0.02275 0.04296 0.0
C2365 C 0.68207 0.01528 0.05265 0.0
C2366 C 0.6828 0.01374 0.07138 0.0
C2367 C 0.70419 0.02372 0.02307 0.0
C2368 C 0.68514 0.04182 0.01515 0.0
C2369 C 0.71928 0.0053 0.01207 0.0
C2370 C 0.73956 0.98565 0.01971 0.0
C2371 C 0.73132 0.96552 0.03226 0.0
C2372 C 0.75065 0.94712 0.03943 0.0
C2373 C 0.77822 0.94852 0.03404 0.0
C2374 C 0.7865 0.96827 0.02142 0.0
C2375 C 0.76725 0.98674 0.01422 0.0
H2376 H 0.79315 0.93426 0.0396 0.0
H2377 H 0.60529 0.11091 0.96821 0.0
H2378 H 0.97018 0.26517 0.93079 0.0
H2379 H 0.97957 0.27608 0.96227 0.0
H2380 H 0.01931 0.35177 0.94617 0.0
H2381 H 0.01009 0.34069 0.91436 0.0
H2382 H 0.04821 0.32617 0.97233 0.0
H2383 H 0.95528 0.35389 0.96415 0.0
H2384 H 0.90688 0.35006 0.95432 0.0
H2385 H 0.89502 0.28126 0.98996 0.0
H2386 H 0.94348 0.28439 -0.00018 0.0
H2387 H 0.03836 0.37029 0.06639 0.0
H2388 H 0.03577 0.36806 0.03344 0.0
H2389 H 0.00506 0.28482 0.0368 0.0
H2390 H 0.00843 0.28643 0.0696 0.0
H2391 H 0.97153 0.32223 0.0166 0.0
H2392 H 0.06709 0.29363 0.02243 0.0
H2393 H 0.11534 0.29951 0.03218 0.0
H2394 H 0.12132 0.37398 0.00105 0.0
H2395 H 0.07294 0.36873 0.99132 0.0
C2396 C 0.98065 0.28428 0.93393 0.0
C2397 C 0.98909 0.30226 0.92014 0.0
C2398 C 0.98607 0.29048 0.95193 0.0
C2399 C 0.99967 0.315 0.95658 0.0
C2400 C 0.00867 0.3328 0.94285 0.0
C2401 C 0.00342 0.32646 0.92474 0.0
C2402 C 0.00432 0.32165 0.97585 0.0
C2403 C 0.03139 0.32586 0.98198 0.0
C2404 C 0.98237 0.32118 0.98844 0.0
C2405 C 0.9531 0.31928 0.98264 0.0
C2406 C 0.94242 0.33782 0.96981 0.0
C2407 C 0.91495 0.33579 0.96424 0.0
C2408 C 0.8979 0.3154 0.97149 0.0
C2409 C 0.90826 0.29703 0.98436 0.0
C2410 C 0.93572 0.29895 0.98996 0.0
C2411 C 0.03167 0.35127 0.06015 0.0
C2412 C 0.02325 0.32864 0.07071 0.0
C2413 C 0.03009 0.35011 0.04131 0.0
C2414 C 0.02003 0.32636 0.03278 0.0
C2415 C 0.01264 0.30342 0.0432 0.0
C2416 C 0.01444 0.30446 0.06196 0.0
C2417 C 0.01543 0.32575 0.01308 0.0
C2418 C 0.98828 0.32288 0.0069 0.0
C2419 C 0.03723 0.32786 0.00051 0.0
C2420 C 0.0663 0.33097 0.00633 0.0
C2421 C 0.07861 0.31141 0.01781 0.0
C2422 C 0.106 0.31459 0.0233 0.0
C2423 C 0.12136 0.33715 0.01729 0.0
C2424 C 0.10938 0.35654 0.00573 0.0
C2425 C 0.08198 0.35346 0.00021 0.0
H2426 H 0.14256 0.33958 0.02154 0.0
H2427 H 0.87664 0.31386 0.96716 0.0
H2428 H 0.28239 0.99251 0.06437 0.0
H2429 H 0.26639 0.99357 0.03311 0.0
H2430 H 0.34778 0.01709 0.01549 0.0
H2431 H 0.36403 0.01583 0.04673 0.0
H2432 H 0.30607 0.04593 -0.00208 0.0
H2433 H 0.32819 0.95088 0.01325 0.0
H2434 H 0.32377 0.90934 0.03226 0.0
H2435 H 0.23702 0.90606 0.02095 0.0
H2436 H 0.24086 0.94782 0.00206 0.0
H2437 H 0.30651 0.01046 0.9062 0.0
H2438 H 0.31606 0.01326 0.93849 0.0
H2439 H 0.23479 0.98175 0.95009 0.0
H2440 H 0.22525 0.97867 0.91764 0.0
H2441 H 0.27211 0.9582 0.97148 0.0
H2442 H 0.249 0.04952 0.95444 0.0
H2443 H 0.25109 0.09152 0.93585 0.0
H2444 H 0.33553 0.1038 0.95128 0.0
H2445 H 0.33424 0.06125 0.96952 0.0
C2446 C 0.29691 0.99787 0.05385 0.0
C2447 C 0.32459 0.00374 0.05801 0.0
C2448 C 0.28769 0.99859 0.03602 0.0
C2449 C 0.30602 0.00503 0.022 0.0
C2450 C 0.33334 0.01206 0.02615 0.0
C2451 C 0.34258 0.01139 0.044 0.0
C2452 C 0.29712 0.00315 0.00294 0.0
C2453 C 0.29889 0.02673 0.99206 0.0
C2454 C 0.28688 0.97826 0.99554 0.0
C2455 C 0.28477 0.95262 0.00639 0.0
C2456 C 0.30816 0.94136 0.01488 0.0
C2457 C 0.30575 0.91778 0.02563 0.0
C2458 C 0.28011 0.90514 0.02787 0.0
C2459 C 0.25685 0.91591 0.01923 0.0
C2460 C 0.25914 0.93952 0.00849 0.0
C2461 C 0.29059 0.00436 0.91563 0.0
C2462 C 0.26502 0.99464 0.90943 0.0
C2463 C 0.29608 0.00591 0.93407 0.0
C2464 C 0.27596 0.99816 0.9467 0.0
C2465 C 0.25058 0.9879 0.94056 0.0
C2466 C 0.24516 0.98613 0.92206 0.0
C2467 C 0.28156 1.0009 0.96629 0.0
C2468 C 0.27912 0.9775 0.97731 0.0
C2469 C 0.29083 0.02606 0.97388 0.0
C2470 C 0.29159 0.05203 0.96324 0.0
C2471 C 0.26809 0.06105 0.95378 0.0
C2472 C 0.26913 0.08499 0.9433 0.0
C2473 C 0.29341 0.10039 0.9424 0.0
C2474 C 0.31673 0.09185 0.95199 0.0
C2475 C 0.31587 0.06779 0.96238 0.0
H2476 H 0.29417 0.11893 0.93428 0.0
H2477 H 0.27824 0.88701 0.03629 0.0
H2478 H 0.92195 0.67793 0.92786 0.0
H2479 H 0.9301 0.68425 0.96027 0.0
H2480 H 0.01793 0.68518 0.9505 0.0
H2481 H 0.00958 0.6771 0.91835 0.0
H2482 H 0.00949 0.65416 0.97657 0.0
H2483 H 0.97693 0.74522 0.96269 0.0
H2484 H 0.94449 0.77955 0.95029 0.0
H2485 H 0.88144 0.7512 0.98647 0.0
H2486 H 0.91343 0.7165 -0.00102 0.0
H2487 H 0.02967 0.72457 0.06668 0.0
H2488 H 0.01015 0.72945 0.03622 0.0
H2489 H 0.98279 0.64484 0.03808 0.0
H2490 H 0.00303 0.63982 0.06817 0.0
H2491 H 0.96157 0.72116 0.0164 0.0
H2492 H 0.00606 0.61306 0.00119 0.0
H2493 H 0.04151 0.58152 0.0133 0.0
H2494 H 0.0873 0.6506 0.03367 0.0
H2495 H 0.05241 0.68253 0.0214 0.0
C2496 C 0.94291 0.67972 0.93275 0.0
C2497 C 0.96519 0.6769 0.92082 0.0
C2498 C 0.94759 0.68354 0.9512 0.0
C2499 C 0.97466 0.68554 0.95788 0.0
C2500 C 0.99687 0.68357 0.94575 0.0
C2501 C 0.99217 0.67897 0.92742 0.0
C2502 C 0.98009 0.68757 0.97759 0.0
C2503 C 0.99902 0.66896 0.98516 0.0
C2504 C 0.96664 0.70695 0.98894 0.0
C2505 C 0.94753 0.72813 0.98167 0.0
C2506 C 0.95611 0.74623 0.96795 0.0
C2507 C 0.93781 0.76576 0.96091 0.0
C2508 C 0.91091 0.76752 0.96756 0.0
C2509 C 0.90229 0.74981 0.98133 0.0
C2510 C 0.92051 0.73025 0.98842 0.0
C2511 C 0.01866 0.7074 0.06075 0.0
C2512 C 0.01811 0.68171 0.06949 0.0
C2513 C 0.0075 0.71018 0.04341 0.0
C2514 C 0.99553 0.68733 0.0348 0.0
C2515 C 0.99233 0.66258 0.0444 0.0
C2516 C 0.00387 0.65969 0.06152 0.0
C2517 C 0.99069 0.68769 0.01508 0.0
C2518 C 0.97196 0.70657 0.00761 0.0
C2519 C 0.00489 0.66914 0.00363 0.0
C2520 C 0.02648 0.65013 0.01053 0.0
C2521 C 0.02379 0.6215 0.00815 0.0
C2522 C 0.04377 0.60357 0.01505 0.0
C2523 C 0.0666 0.61405 0.0243 0.0
C2524 C 0.06958 0.6425 0.02656 0.0
C2525 C 0.04971 0.66052 0.01963 0.0
H2526 H 0.082 0.60012 0.02968 0.0
H2527 H 0.89675 0.78261 0.96207 0.0
loop_
_geom_bond_atom_site_label_1
_geom_bond_atom_site_label_2
_geom_bond_distance
_geom_bond_site_symmetry_2
_ccdc_geom_bond_type
C0 C1 1.351 . S
C0 N3 1.368 . S
C0 H5 0.931 . S
C1 C0 1.351 . S
C1 N2 1.373 . S
C1 H29 0.930 . S
N2 C1 1.373 . S
N2 C4 1.340 . S
N3 C0 1.368 . S
N3 C4 1.321 . S
N3 Co6 2.135 . S
C4 N2 1.340 . S
C4 N3 1.321 . S
C4 H28 0.930 . S
H5 C0 0.931 . S
Co6 N3 2.135 . S
Co6 N9 2.121 . S
Co6 O14 2.055 . S
Co6 O17 2.039 . S
Co6 N20 2.140 . S
C7 O8 1.227 . S
C7 O17 1.265 . S
O8 C7 1.227 . S
N9 Co6 2.121 . S
N9 C11 1.375 . S
N9 C12 1.313 . S
C10 C11 1.338 . S
C10 N13 1.377 . S
C10 H30 0.930 . S
C11 N9 1.375 . S
C11 C10 1.338 . S
C11 H15 0.931 . S
C12 N9 1.313 . S
C12 N13 1.344 . S
C12 H16 0.930 . S
N13 C10 1.377 . S
N13 C12 1.344 . S
O14 Co6 2.055 . S
O14 C18 1.253 . S
H15 C11 0.931 . S
H16 C12 0.930 . S
O17 Co6 2.039 . S
O17 C7 1.265 . S
C18 O14 1.253 . S
C18 O19 1.227 . S
O19 C18 1.227 . S
N20 Co6 2.140 . S
N20 C23 1.346 . S
N20 C24 1.345 . S
C21 C22 1.387 . S
C21 C25 1.391 . S
C22 C21 1.387 . S
C22 C23 1.369 . S
C22 H31 0.929 . S
C23 N20 1.346 . S
C23 C22 1.369 . S
C23 H26 0.928 . S
C24 N20 1.345 . S
C24 C25 1.371 . S
C24 H27 0.931 . S
C25 C21 1.391 . S
C25 C24 1.371 . S
C25 H32 0.930 . S
H26 C23 0.928 . S
H27 C24 0.931 . S
H28 C4 0.930 . S
H29 C1 0.930 . S
H30 C10 0.930 . S
H31 C22 0.929 . S
H32 C25 0.930 . S
C33 C34 1.351 . S
C33 N36 1.368 . S
C33 H38 0.931 . S
C34 C33 1.351 . S
C34 N35 1.373 . S
C34 H62 0.930 . S
N35 C34 1.373 . S
N35 C37 1.340 . S
N36 C33 1.368 . S
N36 C37 1.321 . S
N36 Co39 2.135 . S
C37 N35 1.340 . S
C37 N36 1.321 . S
C37 H61 0.930 . S
H38 C33 0.931 . S
Co39 N36 2.135 . S
Co39 N42 2.121 . S
Co39 O47 2.055 . S
Co39 O50 2.039 . S
Co39 N53 2.140 . S
C40 O41 1.227 . S
C40 O50 1.265 . S
O41 C40 1.227 . S
N42 Co39 2.121 . S
N42 C44 1.375 . S
N42 C45 1.313 . S
C43 C44 1.338 . S
C43 N46 1.377 . S
C43 H63 0.930 . S
C44 N42 1.375 . S
C44 C43 1.338 . S
C44 H48 0.931 . S
C45 N42 1.313 . S
C45 N46 1.344 . S
C45 H49 0.930 . S
N46 C43 1.377 . S
N46 C45 1.344 . S
O47 Co39 2.055 . S
O47 C51 1.253 . S
H48 C44 0.931 . S
H49 C45 0.930 . S
O50 Co39 2.039 . S
O50 C40 1.265 . S
C51 O47 1.253 . S
C51 O52 1.227 . S
O52 C51 1.227 . S
N53 Co39 2.140 . S
N53 C56 1.346 . S
N53 C57 1.345 . S
C54 C55 1.387 . S
C54 C58 1.391 . S
C55 C54 1.387 . S
C55 C56 1.369 . S
C55 H64 0.929 . S
C56 N53 1.346 . S
C56 C55 1.369 . S
C56 H59 0.928 . S
C57 N53 1.345 . S
C57 C58 1.371 . S
C57 H60 0.931 . S
C58 C54 1.391 . S
C58 C57 1.371 . S
C58 H65 0.930 . S
H59 C56 0.928 . S
H60 C57 0.931 . S
H61 C37 0.930 . S
H62 C34 0.930 . S
H63 C43 0.930 . S
H64 C55 0.929 . S
H65 C58 0.930 . S
C66 C67 1.351 . S
C66 N69 1.368 . S
C66 H71 0.931 . S
C67 C66 1.351 . S
C67 N68 1.373 . S
C67 H95 0.930 . S
N68 C67 1.373 . S
N68 C70 1.340 . S
N69 C66 1.368 . S
N69 C70 1.321 . S
N69 Co72 2.135 . S
C70 N68 1.340 . S
C70 N69 1.321 . S
C70 H94 0.930 . S
H71 C66 0.931 . S
Co72 N69 2.135 . S
Co72 N75 2.121 . S
Co72 O80 2.055 . S
Co72 O83 2.039 . S
Co72 N86 2.140 . S
C73 O74 1.227 . S
C73 O83 1.265 . S
O74 C73 1.227 . S
N75 Co72 2.121 . S
N75 C77 1.375 . S
N75 C78 1.313 . S
C76 C77 1.338 . S
C76 N79 1.377 . S
C76 H96 0.930 . S
C77 N75 1.375 . S
C77 C76 1.338 . S
C77 H81 0.931 . S
C78 N75 1.313 . S
C78 N79 1.344 . S
C78 H82 0.930 . S
N79 C76 1.377 . S
N79 C78 1.344 . S
O80 Co72 2.055 . S
O80 C84 1.253 . S
H81 C77 0.931 . S
H82 C78 0.930 . S
O83 Co72 2.039 . S
O83 C73 1.265 . S
C84 O80 1.253 . S
C84 O85 1.227 . S
O85 C84 1.227 . S
N86 Co72 2.140 . S
N86 C89 1.346 . S
N86 C90 1.345 . S
C87 C88 1.387 . S
C87 C91 1.391 . S
C88 C87 1.387 . S
C88 C89 1.369 . S
C88 H97 0.929 . S
C89 N86 1.346 . S
C89 C88 1.369 . S
C89 H92 0.928 . S
C90 N86 1.345 . S
C90 C91 1.371 . S
C90 H93 0.931 . S
C91 C87 1.391 . S
C91 C90 1.371 . S
C91 H98 0.930 . S
H92 C89 0.928 . S
H93 C90 0.931 . S
H94 C70 0.930 . S
H95 C67 0.930 . S
H96 C76 0.930 . S
H97 C88 0.929 . S
H98 C91 0.930 . S
C99 C100 1.351 . S
C99 N102 1.368 . S
C99 H104 0.931 . S
C100 C99 1.351 . S
C100 N101 1.373 . S
C100 H128 0.930 . S
N101 C100 1.373 . S
N101 C103 1.340 . S
N102 C99 1.368 . S
N102 C103 1.321 . S
N102 Co105 2.135 . S
C103 N101 1.340 . S
C103 N102 1.321 . S
C103 H127 0.930 . S
H104 C99 0.931 . S
Co105 N102 2.135 . S
Co105 N108 2.121 . S
Co105 O113 2.055 . S
Co105 O116 2.039 . S
Co105 N119 2.140 . S
C106 O107 1.227 . S
C106 O116 1.265 . S
O107 C106 1.227 . S
N108 Co105 2.121 . S
N108 C110 1.375 . S
N108 C111 1.313 . S
C109 C110 1.338 . S
C109 N112 1.377 . S
C109 H129 0.930 . S
C110 N108 1.375 . S
C110 C109 1.338 . S
C110 H114 0.931 . S
C111 N108 1.313 . S
C111 N112 1.344 . S
C111 H115 0.930 . S
N112 C109 1.377 . S
N112 C111 1.344 . S
O113 Co105 2.055 . S
O113 C117 1.253 . S
H114 C110 0.931 . S
H115 C111 0.930 . S
O116 Co105 2.039 . S
O116 C106 1.265 . S
C117 O113 1.253 . S
C117 O118 1.227 . S
O118 C117 1.227 . S
N119 Co105 2.140 . S
N119 C122 1.346 . S
N119 C123 1.345 . S
C120 C121 1.387 . S
C120 C124 1.391 . S
C121 C120 1.387 . S
C121 C122 1.369 . S
C121 H130 0.929 . S
C122 N119 1.346 . S
C122 C121 1.369 . S
C122 H125 0.928 . S
C123 N119 1.345 . S
C123 C124 1.371 . S
C123 H126 0.931 . S
C124 C120 1.391 . S
C124 C123 1.371 . S
C124 H131 0.930 . S
H125 C122 0.928 . S
H126 C123 0.931 . S
H127 C103 0.930 . S
H128 C100 0.930 . S
H129 C109 0.930 . S
H130 C121 0.929 . S
H131 C124 0.930 . S
C132 C133 1.351 . S
C132 N135 1.368 . S
C132 H137 0.931 . S
C133 C132 1.351 . S
C133 N134 1.373 . S
C133 H161 0.930 . S
N134 C133 1.373 . S
N134 C136 1.340 . S
N135 C132 1.368 . S
N135 C136 1.321 . S
N135 Co138 2.135 . S
C136 N134 1.340 . S
C136 N135 1.321 . S
C136 H160 0.930 . S
H137 C132 0.931 . S
Co138 N135 2.135 . S
Co138 N141 2.121 . S
Co138 O146 2.055 . S
Co138 O149 2.039 . S
Co138 N152 2.140 . S
C139 O140 1.227 . S
C139 O149 1.265 . S
O140 C139 1.227 . S
N141 Co138 2.121 . S
N141 C143 1.375 . S
N141 C144 1.313 . S
C142 C143 1.338 . S
C142 N145 1.377 . S
C142 H162 0.930 . S
C143 N141 1.375 . S
C143 C142 1.338 . S
C143 H147 0.931 . S
C144 N141 1.313 . S
C144 N145 1.344 . S
C144 H148 0.930 . S
N145 C142 1.377 . S
N145 C144 1.344 . S
O146 Co138 2.055 . S
O146 C150 1.253 . S
H147 C143 0.931 . S
H148 C144 0.930 . S
O149 Co138 2.039 . S
O149 C139 1.265 . S
C150 O146 1.253 . S
C150 O151 1.227 . S
O151 C150 1.227 . S
N152 Co138 2.140 . S
N152 C155 1.346 . S
N152 C156 1.345 . S
C153 C154 1.387 . S
C153 C157 1.391 . S
C154 C153 1.387 . S
C154 C155 1.369 . S
C154 H163 0.929 . S
C155 N152 1.346 . S
C155 C154 1.369 . S
C155 H158 0.928 . S
C156 N152 1.345 . S
C156 C157 1.371 . S
C156 H159 0.931 . S
C157 C153 1.391 . S
C157 C156 1.371 . S
C157 H164 0.930 . S
H158 C155 0.928 . S
H159 C156 0.931 . S
H160 C136 0.930 . S
H161 C133 0.930 . S
H162 C142 0.930 . S
H163 C154 0.929 . S
H164 C157 0.930 . S
C165 C166 1.351 . S
C165 N168 1.368 . S
C165 H170 0.931 . S
C166 C165 1.351 . S
C166 N167 1.373 . S
C166 H194 0.930 . S
N167 C166 1.373 . S
N167 C169 1.340 . S
N168 C165 1.368 . S
N168 C169 1.321 . S
N168 Co171 2.135 . S
C169 N167 1.340 . S
C169 N168 1.321 . S
C169 H193 0.930 . S
H170 C165 0.931 . S
Co171 N168 2.135 . S
Co171 N174 2.121 . S
Co171 O179 2.055 . S
Co171 O182 2.039 . S
Co171 N185 2.140 . S
C172 O173 1.227 . S
C172 O182 1.265 . S
O173 C172 1.227 . S
N174 Co171 2.121 . S
N174 C176 1.375 . S
N174 C177 1.313 . S
C175 C176 1.338 . S
C175 N178 1.377 . S
C175 H195 0.930 . S
C176 N174 1.375 . S
C176 C175 1.338 . S
C176 H180 0.931 . S
C177 N174 1.313 . S
C177 N178 1.344 . S
C177 H181 0.930 . S
N178 C175 1.377 . S
N178 C177 1.344 . S
O179 Co171 2.055 . S
O179 C183 1.253 . S
H180 C176 0.931 . S
H181 C177 0.930 . S
O182 Co171 2.039 . S
O182 C172 1.265 . S
C183 O179 1.253 . S
C183 O184 1.227 . S
O184 C183 1.227 . S
N185 Co171 2.140 . S
N185 C188 1.346 . S
N185 C189 1.345 . S
C186 C187 1.387 . S
C186 C190 1.391 . S
C187 C186 1.387 . S
C187 C188 1.369 . S
C187 H196 0.929 . S
C188 N185 1.346 . S
C188 C187 1.369 . S
C188 H191 0.928 . S
C189 N185 1.345 . S
C189 C190 1.371 . S
C189 H192 0.931 . S
C190 C186 1.391 . S
C190 C189 1.371 . S
C190 H197 0.930 . S
H191 C188 0.928 . S
H192 C189 0.931 . S
H193 C169 0.930 . S
H194 C166 0.930 . S
H195 C175 0.930 . S
H196 C187 0.929 . S
H197 C190 0.930 . S
C198 C199 1.351 . S
C198 N201 1.368 . S
C198 H203 0.931 . S
C199 C198 1.351 . S
C199 N200 1.373 . S
C199 H227 0.930 . S
N200 C199 1.373 . S
N200 C202 1.340 . S
N201 C198 1.368 . S
N201 C202 1.321 . S
N201 Co204 2.135 . S
C202 N200 1.340 . S
C202 N201 1.321 . S
C202 H226 0.930 . S
H203 C198 0.931 . S
Co204 N201 2.135 . S
Co204 N207 2.121 . S
Co204 O212 2.055 . S
Co204 O215 2.039 . S
Co204 N218 2.140 . S
C205 O206 1.227 . S
C205 O215 1.265 . S
O206 C205 1.227 . S
N207 Co204 2.121 . S
N207 C209 1.375 . S
N207 C210 1.313 . S
C208 C209 1.338 . S
C208 N211 1.377 . S
C208 H228 0.930 . S
C209 N207 1.375 . S
C209 C208 1.338 . S
C209 H213 0.931 . S
C210 N207 1.313 . S
C210 N211 1.344 . S
C210 H214 0.930 . S
N211 C208 1.377 . S
N211 C210 1.344 . S
O212 Co204 2.055 . S
O212 C216 1.253 . S
H213 C209 0.931 . S
H214 C210 0.930 . S
O215 Co204 2.039 . S
O215 C205 1.265 . S
C216 O212 1.253 . S
C216 O217 1.227 . S
O217 C216 1.227 . S
N218 Co204 2.140 . S
N218 C221 1.346 . S
N218 C222 1.345 . S
C219 C220 1.387 . S
C219 C223 1.391 . S
C220 C219 1.387 . S
C220 C221 1.369 . S
C220 H229 0.929 . S
C221 N218 1.346 . S
C221 C220 1.369 . S
C221 H224 0.928 . S
C222 N218 1.345 . S
C222 C223 1.371 . S
C222 H225 0.931 . S
C223 C219 1.391 . S
C223 C222 1.371 . S
C223 H230 0.930 . S
H224 C221 0.928 . S
H225 C222 0.931 . S
H226 C202 0.930 . S
H227 C199 0.930 . S
H228 C208 0.930 . S
H229 C220 0.929 . S
H230 C223 0.930 . S
C231 C232 1.351 . S
C231 N234 1.368 . S
C231 H236 0.931 . S
C232 C231 1.351 . S
C232 N233 1.373 . S
C232 H260 0.930 . S
N233 C232 1.373 . S
N233 C235 1.340 . S
N234 C231 1.368 . S
N234 C235 1.321 . S
N234 Co237 2.135 . S
C235 N233 1.340 . S
C235 N234 1.321 . S
C235 H259 0.930 . S
H236 C231 0.931 . S
Co237 N234 2.135 . S
Co237 N240 2.121 . S
Co237 O245 2.055 . S
Co237 O248 2.039 . S
Co237 N251 2.140 . S
C238 O239 1.227 . S
C238 O248 1.265 . S
O239 C238 1.227 . S
N240 Co237 2.121 . S
N240 C242 1.375 . S
N240 C243 1.313 . S
C241 C242 1.338 . S
C241 N244 1.377 . S
C241 H261 0.930 . S
C242 N240 1.375 . S
C242 C241 1.338 . S
C242 H246 0.931 . S
C243 N240 1.313 . S
C243 N244 1.344 . S
C243 H247 0.930 . S
N244 C241 1.377 . S
N244 C243 1.344 . S
O245 Co237 2.055 . S
O245 C249 1.253 . S
H246 C242 0.931 . S
H247 C243 0.930 . S
O248 Co237 2.039 . S
O248 C238 1.265 . S
C249 O245 1.253 . S
C249 O250 1.227 . S
O250 C249 1.227 . S
N251 Co237 2.140 . S
N251 C254 1.346 . S
N251 C255 1.345 . S
C252 C253 1.387 . S
C252 C256 1.391 . S
C253 C252 1.387 . S
C253 C254 1.369 . S
C253 H262 0.929 . S
C254 N251 1.346 . S
C254 C253 1.369 . S
C254 H257 0.928 . S
C255 N251 1.345 . S
C255 C256 1.371 . S
C255 H258 0.931 . S
C256 C252 1.391 . S
C256 C255 1.371 . S
C256 H263 0.930 . S
H257 C254 0.928 . S
H258 C255 0.931 . S
H259 C235 0.930 . S
H260 C232 0.930 . S
H261 C241 0.930 . S
H262 C253 0.929 . S
H263 C256 0.930 . S
C264 C265 1.351 . S
C264 N267 1.368 . S
C264 H269 0.931 . S
C265 C264 1.351 . S
C265 N266 1.373 . S
C265 H293 0.930 . S
N266 C265 1.373 . S
N266 C268 1.340 . S
N267 C264 1.368 . S
N267 C268 1.321 . S
N267 Co270 2.135 . S
C268 N266 1.340 . S
C268 N267 1.321 . S
C268 H292 0.930 . S
H269 C264 0.931 . S
Co270 N267 2.135 . S
Co270 N273 2.121 . S
Co270 O278 2.055 . S
Co270 O281 2.039 . S
Co270 N284 2.140 . S
C271 O272 1.227 . S
C271 O281 1.265 . S
O272 C271 1.227 . S
N273 Co270 2.121 . S
N273 C275 1.375 . S
N273 C276 1.313 . S
C274 C275 1.338 1_545 S
C274 N277 1.377 1_545 S
C274 H294 0.930 . S
C275 N273 1.375 . S
C275 C274 1.338 1_565 S
C275 H279 0.931 1_565 S
C276 N273 1.313 . S
C276 N277 1.344 . S
C276 H280 0.930 . S
N277 C274 1.377 1_565 S
N277 C276 1.344 . S
O278 Co270 2.055 . S
O278 C282 1.253 . S
H279 C275 0.931 1_545 S
H280 C276 0.930 . S
O281 Co270 2.039 . S
O281 C271 1.265 . S
C282 O278 1.253 . S
C282 O283 1.227 . S
O283 C282 1.227 . S
N284 Co270 2.140 . S
N284 C287 1.346 . S
N284 C288 1.345 1_565 S
C285 C286 1.387 . S
C285 C289 1.391 . S
C286 C285 1.387 . S
C286 C287 1.369 1_545 S
C286 H295 0.929 . S
C287 N284 1.346 . S
C287 C286 1.369 1_565 S
C287 H290 0.928 . S
C288 N284 1.345 1_545 S
C288 C289 1.371 . S
C288 H291 0.931 . S
C289 C285 1.391 . S
C289 C288 1.371 . S
C289 H296 0.930 . S
H290 C287 0.928 . S
H291 C288 0.931 . S
H292 C268 0.930 . S
H293 C265 0.930 . S
H294 C274 0.930 . S
H295 C286 0.929 . S
H296 C289 0.930 . S
C297 C298 1.351 . S
C297 N300 1.368 . S
C297 H302 0.931 . S
C298 C297 1.351 . S
C298 N299 1.373 . S
C298 H326 0.930 . S
N299 C298 1.373 . S
N299 C301 1.340 . S
N300 C297 1.368 . S
N300 C301 1.321 . S
N300 Co303 2.135 . S
C301 N299 1.340 . S
C301 N300 1.321 . S
C301 H325 0.930 . S
H302 C297 0.931 . S
Co303 N300 2.135 . S
Co303 N306 2.121 . S
Co303 O311 2.055 . S
Co303 O314 2.039 . S
Co303 N317 2.140 . S
C304 O305 1.227 . S
C304 O314 1.265 . S
O305 C304 1.227 . S
N306 Co303 2.121 . S
N306 C308 1.375 . S
N306 C309 1.313 . S
C307 C308 1.338 1_455 S
C307 N310 1.377 1_455 S
C307 H327 0.930 . S
C308 N306 1.375 . S
C308 C307 1.338 1_655 S
C308 H312 0.931 1_655 S
C309 N306 1.313 . S
C309 N310 1.344 . S
C309 H313 0.930 . S
N310 C307 1.377 1_655 S
N310 C309 1.344 . S
O311 Co303 2.055 . S
O311 C315 1.253 . S
H312 C308 0.931 1_455 S
H313 C309 0.930 . S
O314 Co303 2.039 . S
O314 C304 1.265 . S
C315 O311 1.253 . S
C315 O316 1.227 . S
O316 C315 1.227 . S
N317 Co303 2.140 . S
N317 C320 1.346 . S
N317 C321 1.345 1_655 S
C318 C319 1.387 . S
C318 C322 1.391 . S
C319 C318 1.387 . S
C319 C320 1.369 1_455 S
C319 H328 0.929 . S
C320 N317 1.346 . S
C320 C319 1.369 1_655 S
C320 H323 0.928 . S
C321 N317 1.345 1_455 S
C321 C322 1.371 . S
C321 H324 0.931 . S
C322 C318 1.391 . S
C322 C321 1.371 . S
C322 H329 0.930 . S
H323 C320 0.928 . S
H324 C321 0.931 . S
H325 C301 0.930 . S
H326 C298 0.930 . S
H327 C307 0.930 . S
H328 C319 0.929 . S
H329 C322 0.930 . S
C330 C331 1.351 . S
C330 N333 1.368 . S
C330 H335 0.931 . S
C331 C330 1.351 . S
C331 N332 1.373 . S
C331 H359 0.930 . S
N332 C331 1.373 . S
N332 C334 1.340 . S
N333 C330 1.368 . S
N333 C334 1.321 . S
N333 Co336 2.135 . S
C334 N332 1.340 . S
C334 N333 1.321 . S
C334 H358 0.930 . S
H335 C330 0.931 . S
Co336 N333 2.135 . S
Co336 N339 2.121 . S
Co336 O344 2.055 . S
Co336 O347 2.039 . S
Co336 N350 2.140 . S
C337 O338 1.227 . S
C337 O347 1.265 . S
O338 C337 1.227 . S
N339 Co336 2.121 . S
N339 C341 1.375 . S
N339 C342 1.313 . S
C340 C341 1.338 1_565 S
C340 N343 1.377 1_565 S
C340 H360 0.930 . S
C341 N339 1.375 . S
C341 C340 1.338 1_545 S
C341 H345 0.931 1_545 S
C342 N339 1.313 . S
C342 N343 1.344 . S
C342 H346 0.930 . S
N343 C340 1.377 1_545 S
N343 C342 1.344 . S
O344 Co336 2.055 . S
O344 C348 1.253 . S
H345 C341 0.931 1_565 S
H346 C342 0.930 . S
O347 Co336 2.039 . S
O347 C337 1.265 . S
C348 O344 1.253 . S
C348 O349 1.227 . S
O349 C348 1.227 . S
N350 Co336 2.140 . S
N350 C353 1.346 . S
N350 C354 1.345 1_545 S
C351 C352 1.387 . S
C351 C355 1.391 . S
C352 C351 1.387 . S
C352 C353 1.369 1_565 S
C352 H361 0.929 . S
C353 N350 1.346 . S
C353 C352 1.369 1_545 S
C353 H356 0.928 . S
C354 N350 1.345 1_565 S
C354 C355 1.371 . S
C354 H357 0.931 . S
C355 C351 1.391 . S
C355 C354 1.371 . S
C355 H362 0.930 . S
H356 C353 0.928 . S
H357 C354 0.931 . S
H358 C334 0.930 . S
H359 C331 0.930 . S
H360 C340 0.930 . S
H361 C352 0.929 . S
H362 C355 0.930 . S
C363 C364 1.351 . S
C363 N366 1.368 . S
C363 H368 0.931 . S
C364 C363 1.351 . S
C364 N365 1.373 . S
C364 H392 0.930 . S
N365 C364 1.373 . S
N365 C367 1.340 . S
N366 C363 1.368 . S
N366 C367 1.321 . S
N366 Co369 2.135 . S
C367 N365 1.340 . S
C367 N366 1.321 . S
C367 H391 0.930 . S
H368 C363 0.931 . S
Co369 N366 2.135 . S
Co369 N372 2.121 . S
Co369 O377 2.055 . S
Co369 O380 2.039 . S
Co369 N383 2.140 . S
C370 O371 1.227 . S
C370 O380 1.265 . S
O371 C370 1.227 . S
N372 Co369 2.121 . S
N372 C374 1.375 . S
N372 C375 1.313 . S
C373 C374 1.338 1_655 S
C373 N376 1.377 1_655 S
C373 H393 0.930 . S
C374 N372 1.375 . S
C374 C373 1.338 1_455 S
C374 H378 0.931 1_455 S
C375 N372 1.313 . S
C375 N376 1.344 . S
C375 H379 0.930 . S
N376 C373 1.377 1_455 S
N376 C375 1.344 . S
O377 Co369 2.055 . S
O377 C381 1.253 . S
H378 C374 0.931 1_655 S
H379 C375 0.930 . S
O380 Co369 2.039 . S
O380 C370 1.265 . S
C381 O377 1.253 . S
C381 O382 1.227 . S
O382 C381 1.227 . S
N383 Co369 2.140 . S
N383 C386 1.346 . S
N383 C387 1.345 1_455 S
C384 C385 1.387 . S
C384 C388 1.391 . S
C385 C384 1.387 . S
C385 C386 1.369 1_655 S
C385 H394 0.929 . S
C386 N383 1.346 . S
C386 C385 1.369 1_455 S
C386 H389 0.928 . S
C387 N383 1.345 1_655 S
C387 C388 1.371 . S
C387 H390 0.931 . S
C388 C384 1.391 . S
C388 C387 1.371 . S
C388 H395 0.930 . S
H389 C386 0.928 . S
H390 C387 0.931 . S
H391 C367 0.930 . S
H392 C364 0.930 . S
H393 C373 0.930 . S
H394 C385 0.929 . S
H395 C388 0.930 . S
C396 C397 1.351 . S
C396 N399 1.368 . S
C396 H401 0.931 . S
C397 C396 1.351 . S
C397 N398 1.373 . S
C397 H425 0.930 . S
N398 C397 1.373 . S
N398 C400 1.340 . S
N399 C396 1.368 . S
N399 C400 1.321 . S
N399 Co402 2.135 . S
C400 N398 1.340 . S
C400 N399 1.321 . S
C400 H424 0.930 . S
H401 C396 0.931 . S
Co402 N399 2.135 . S
Co402 N405 2.121 . S
Co402 O410 2.055 . S
Co402 O413 2.039 . S
Co402 N416 2.140 . S
C403 O404 1.227 . S
C403 O413 1.265 . S
O404 C403 1.227 . S
N405 Co402 2.121 . S
N405 C407 1.375 . S
N405 C408 1.313 . S
C406 C407 1.338 1_565 S
C406 N409 1.377 1_565 S
C406 H426 0.930 . S
C407 N405 1.375 . S
C407 C406 1.338 1_545 S
C407 H411 0.931 1_545 S
C408 N405 1.313 . S
C408 N409 1.344 . S
C408 H412 0.930 . S
N409 C406 1.377 1_545 S
N409 C408 1.344 . S
O410 Co402 2.055 . S
O410 C414 1.253 . S
H411 C407 0.931 1_565 S
H412 C408 0.930 . S
O413 Co402 2.039 . S
O413 C403 1.265 . S
C414 O410 1.253 . S
C414 O415 1.227 . S
O415 C414 1.227 . S
N416 Co402 2.140 . S
N416 C419 1.346 . S
N416 C420 1.345 1_545 S
C417 C418 1.387 . S
C417 C421 1.391 . S
C418 C417 1.387 . S
C418 C419 1.369 1_565 S
C418 H427 0.929 . S
C419 N416 1.346 . S
C419 C418 1.369 1_545 S
C419 H422 0.928 . S
C420 N416 1.345 1_565 S
C420 C421 1.371 . S
C420 H423 0.931 . S
C421 C417 1.391 . S
C421 C420 1.371 . S
C421 H428 0.930 . S
H422 C419 0.928 . S
H423 C420 0.931 . S
H424 C400 0.930 . S
H425 C397 0.930 . S
H426 C406 0.930 . S
H427 C418 0.929 . S
H428 C421 0.930 . S
C429 C430 1.351 . S
C429 N432 1.368 . S
C429 H434 0.931 . S
C430 C429 1.351 . S
C430 N431 1.373 . S
C430 H458 0.930 . S
N431 C430 1.373 . S
N431 C433 1.340 . S
N432 C429 1.368 . S
N432 C433 1.321 . S
N432 Co435 2.135 . S
C433 N431 1.340 . S
C433 N432 1.321 . S
C433 H457 0.930 . S
H434 C429 0.931 . S
Co435 N432 2.135 . S
Co435 N438 2.121 . S
Co435 O443 2.055 . S
Co435 O446 2.039 . S
Co435 N449 2.140 . S
C436 O437 1.227 . S
C436 O446 1.265 . S
O437 C436 1.227 . S
N438 Co435 2.121 . S
N438 C440 1.375 . S
N438 C441 1.313 . S
C439 C440 1.338 1_655 S
C439 N442 1.377 1_655 S
C439 H459 0.930 . S
C440 N438 1.375 . S
C440 C439 1.338 1_455 S
C440 H444 0.931 1_455 S
C441 N438 1.313 . S
C441 N442 1.344 . S
C441 H445 0.930 . S
N442 C439 1.377 1_455 S
N442 C441 1.344 . S
O443 Co435 2.055 . S
O443 C447 1.253 . S
H444 C440 0.931 1_655 S
H445 C441 0.930 . S
O446 Co435 2.039 . S
O446 C436 1.265 . S
C447 O443 1.253 . S
C447 O448 1.227 . S
O448 C447 1.227 . S
N449 Co435 2.140 . S
N449 C452 1.346 . S
N449 C453 1.345 1_455 S
C450 C451 1.387 . S
C450 C454 1.391 . S
C451 C450 1.387 . S
C451 C452 1.369 1_655 S
C451 H460 0.929 . S
C452 N449 1.346 . S
C452 C451 1.369 1_455 S
C452 H455 0.928 . S
C453 N449 1.345 1_655 S
C453 C454 1.371 . S
C453 H456 0.931 . S
C454 C450 1.391 . S
C454 C453 1.371 . S
C454 H461 0.930 . S
H455 C452 0.928 . S
H456 C453 0.931 . S
H457 C433 0.930 . S
H458 C430 0.930 . S
H459 C439 0.930 . S
H460 C451 0.929 . S
H461 C454 0.930 . S
C462 C463 1.351 . S
C462 N465 1.368 . S
C462 H467 0.931 . S
C463 C462 1.351 . S
C463 N464 1.373 . S
C463 H491 0.930 . S
N464 C463 1.373 . S
N464 C466 1.340 . S
N465 C462 1.368 . S
N465 C466 1.321 . S
N465 Co468 2.135 . S
C466 N464 1.340 . S
C466 N465 1.321 . S
C466 H490 0.930 . S
H467 C462 0.931 . S
Co468 N465 2.135 . S
Co468 N471 2.121 . S
Co468 O476 2.055 . S
Co468 O479 2.039 . S
Co468 N482 2.140 . S
C469 O470 1.227 . S
C469 O479 1.265 . S
O470 C469 1.227 . S
N471 Co468 2.121 . S
N471 C473 1.375 . S
N471 C474 1.313 . S
C472 C473 1.338 1_545 S
C472 N475 1.377 1_545 S
C472 H492 0.930 . S
C473 N471 1.375 . S
C473 C472 1.338 1_565 S
C473 H477 0.931 1_565 S
C474 N471 1.313 . S
C474 N475 1.344 . S
C474 H478 0.930 . S
N475 C472 1.377 1_565 S
N475 C474 1.344 . S
O476 Co468 2.055 . S
O476 C480 1.253 . S
H477 C473 0.931 1_545 S
H478 C474 0.930 . S
O479 Co468 2.039 . S
O479 C469 1.265 . S
C480 O476 1.253 . S
C480 O481 1.227 . S
O481 C480 1.227 . S
N482 Co468 2.140 . S
N482 C485 1.346 . S
N482 C486 1.345 1_565 S
C483 C484 1.387 . S
C483 C487 1.391 . S
C484 C483 1.387 . S
C484 C485 1.369 1_545 S
C484 H493 0.929 . S
C485 N482 1.346 . S
C485 C484 1.369 1_565 S
C485 H488 0.928 . S
C486 N482 1.345 1_545 S
C486 C487 1.371 . S
C486 H489 0.931 . S
C487 C483 1.391 . S
C487 C486 1.371 . S
C487 H494 0.930 . S
H488 C485 0.928 . S
H489 C486 0.931 . S
H490 C466 0.930 . S
H491 C463 0.930 . S
H492 C472 0.930 . S
H493 C484 0.929 . S
H494 C487 0.930 . S
C495 C496 1.351 . S
C495 N498 1.368 . S
C495 H500 0.931 . S
C496 C495 1.351 . S
C496 N497 1.373 . S
C496 H524 0.930 . S
N497 C496 1.373 . S
N497 C499 1.340 . S
N498 C495 1.368 . S
N498 C499 1.321 . S
N498 Co501 2.135 . S
C499 N497 1.340 . S
C499 N498 1.321 . S
C499 H523 0.930 . S
H500 C495 0.931 . S
Co501 N498 2.135 . S
Co501 N504 2.121 . S
Co501 O509 2.055 . S
Co501 O512 2.039 . S
Co501 N515 2.140 . S
C502 O503 1.227 . S
C502 O512 1.265 . S
O503 C502 1.227 . S
N504 Co501 2.121 . S
N504 C506 1.375 . S
N504 C507 1.313 . S
C505 C506 1.338 1_455 S
C505 N508 1.377 1_455 S
C505 H525 0.930 . S
C506 N504 1.375 . S
C506 C505 1.338 1_655 S
C506 H510 0.931 1_655 S
C507 N504 1.313 . S
C507 N508 1.344 . S
C507 H511 0.930 . S
N508 C505 1.377 1_655 S
N508 C507 1.344 . S
O509 Co501 2.055 . S
O509 C513 1.253 . S
H510 C506 0.931 1_455 S
H511 C507 0.930 . S
O512 Co501 2.039 . S
O512 C502 1.265 . S
C513 O509 1.253 . S
C513 O514 1.227 . S
O514 C513 1.227 . S
N515 Co501 2.140 . S
N515 C518 1.346 . S
N515 C519 1.345 1_655 S
C516 C517 1.387 . S
C516 C520 1.391 . S
C517 C516 1.387 . S
C517 C518 1.369 1_455 S
C517 H526 0.929 . S
C518 N515 1.346 . S
C518 C517 1.369 1_655 S
C518 H521 0.928 . S
C519 N515 1.345 1_455 S
C519 C520 1.371 . S
C519 H522 0.931 . S
C520 C516 1.391 . S
C520 C519 1.371 . S
C520 H527 0.930 . S
H521 C518 0.928 . S
H522 C519 0.931 . S
H523 C499 0.930 . S
H524 C496 0.930 . S
H525 C505 0.930 . S
H526 C517 0.929 . S
H527 C520 0.930 . S
H528 C546 0.951 . S
H529 C548 0.951 . S
H530 C550 0.950 . S
H531 C551 0.950 . S
H532 C553 0.950 . S
H533 C556 0.950 . S
H534 C557 0.950 . S
H535 C559 0.950 . S
H536 C560 0.950 . S
H537 C561 0.951 . S
H538 C563 0.951 . S
H539 C565 0.950 . S
H540 C566 0.950 . S
H541 C568 0.950 . S
H542 C571 0.950 . S
H543 C572 0.950 . S
H544 C574 0.950 . S
H545 C575 0.950 . S
C546 H528 0.951 . S
C546 C547 1.366 . S
C546 C548 1.388 . S
C547 C546 1.366 . S
C547 C551 1.385 . S
C548 H529 0.951 . S
C548 C546 1.388 . S
C548 C549 1.366 . S
C549 C548 1.366 . S
C549 C550 1.414 . S
C549 C552 1.499 . S
C550 H530 0.950 . S
C550 C549 1.414 . S
C550 C551 1.374 . S
C551 H531 0.950 . S
C551 C547 1.385 . S
C551 C550 1.374 . S
C552 C549 1.499 . S
C552 C553 1.373 . S
C552 C554 1.389 . S
C553 H532 0.950 . S
C553 C552 1.373 . S
C553 C569 1.377 1_655 S
C554 C552 1.389 . S
C554 C555 1.524 . S
C554 C568 1.377 1_655 S
C555 C554 1.524 . S
C555 C556 1.397 . S
C555 C560 1.363 . S
C556 H533 0.950 . S
C556 C555 1.397 . S
C556 C557 1.334 . S
C557 H534 0.950 . S
C557 C556 1.334 . S
C557 C558 1.287 . S
C558 C557 1.287 . S
C558 C559 1.524 . S
C558 H577 0.913 . S
C559 H535 0.950 . S
C559 C558 1.524 . S
C559 C560 1.415 . S
C560 H536 0.950 . S
C560 C555 1.363 . S
C560 C559 1.415 . S
C561 H537 0.951 . S
C561 C562 1.366 . S
C561 C563 1.388 . S
C562 C561 1.366 . S
C562 C566 1.385 . S
C563 H538 0.951 . S
C563 C561 1.388 . S
C563 C564 1.366 . S
C564 C563 1.366 . S
C564 C565 1.414 . S
C564 C567 1.499 . S
C565 H539 0.950 . S
C565 C564 1.414 . S
C565 C566 1.374 . S
C566 H540 0.950 . S
C566 C562 1.385 . S
C566 C565 1.374 . S
C567 C564 1.499 . S
C567 C568 1.373 . S
C567 C569 1.389 . S
C568 H541 0.950 . S
C568 C554 1.377 1_455 S
C568 C567 1.373 . S
C569 C553 1.377 1_455 S
C569 C567 1.389 . S
C569 C570 1.524 . S
C570 C569 1.524 . S
C570 C571 1.397 . S
C570 C575 1.363 . S
C571 H542 0.950 . S
C571 C570 1.397 . S
C571 C572 1.334 . S
C572 H543 0.950 . S
C572 C571 1.334 . S
C572 C573 1.287 . S
C573 C572 1.287 . S
C573 C574 1.524 . S
C573 H576 0.999 . S
C574 H544 0.950 . S
C574 C573 1.524 . S
C574 C575 1.415 . S
C575 H545 0.950 . S
C575 C570 1.363 . S
C575 C574 1.415 . S
H576 C573 0.999 . S
H577 C558 0.913 . S
H578 C596 0.951 . S
H579 C598 0.951 . S
H580 C600 0.950 . S
H581 C601 0.950 . S
H582 C603 0.950 . S
H583 C606 0.950 . S
H584 C607 0.950 . S
H585 C609 0.950 . S
H586 C610 0.950 . S
H587 C611 0.951 . S
H588 C613 0.951 . S
H589 C615 0.950 . S
H590 C616 0.950 . S
H591 C618 0.950 . S
H592 C621 0.950 . S
H593 C622 0.950 . S
H594 C624 0.950 . S
H595 C625 0.950 . S
C596 H578 0.951 . S
C596 C597 1.366 . S
C596 C598 1.388 . S
C597 C596 1.366 . S
C597 C601 1.385 . S
C598 H579 0.951 . S
C598 C596 1.388 . S
C598 C599 1.366 . S
C599 C598 1.366 . S
C599 C600 1.414 . S
C599 C602 1.499 . S
C600 H580 0.950 . S
C600 C599 1.414 . S
C600 C601 1.374 . S
C601 H581 0.950 . S
C601 C597 1.385 . S
C601 C600 1.374 . S
C602 C599 1.499 . S
C602 C603 1.373 . S
C602 C604 1.389 . S
C603 H582 0.950 . S
C603 C602 1.373 . S
C603 C619 1.377 1_545 S
C604 C602 1.389 . S
C604 C605 1.524 . S
C604 C618 1.377 1_545 S
C605 C604 1.524 . S
C605 C606 1.397 . S
C605 C610 1.363 1_545 S
C606 H583 0.950 . S
C606 C605 1.397 . S
C606 C607 1.334 . S
C607 H584 0.950 . S
C607 C606 1.334 . S
C607 C608 1.287 . S
C608 C607 1.287 . S
C608 C609 1.524 1_545 S
C608 H627 0.913 . S
C609 H585 0.950 . S
C609 C608 1.524 1_565 S
C609 C610 1.415 . S
C610 H586 0.950 . S
C610 C605 1.363 1_565 S
C610 C609 1.415 . S
C611 H587 0.951 . S
C611 C612 1.366 . S
C611 C613 1.388 . S
C612 C611 1.366 . S
C612 C616 1.385 . S
C613 H588 0.951 . S
C613 C611 1.388 . S
C613 C614 1.366 . S
C614 C613 1.366 . S
C614 C615 1.414 . S
C614 C617 1.499 . S
C615 H589 0.950 . S
C615 C614 1.414 . S
C615 C616 1.374 . S
C616 H590 0.950 . S
C616 C612 1.385 . S
C616 C615 1.374 . S
C617 C614 1.499 . S
C617 C618 1.373 . S
C617 C619 1.389 . S
C618 H591 0.950 . S
C618 C604 1.377 1_565 S
C618 C617 1.373 . S
C619 C603 1.377 1_565 S
C619 C617 1.389 . S
C619 C620 1.524 . S
C620 C619 1.524 . S
C620 C621 1.397 . S
C620 C625 1.363 1_565 S
C621 H592 0.950 . S
C621 C620 1.397 . S
C621 C622 1.334 . S
C622 H593 0.950 . S
C622 C621 1.334 . S
C622 C623 1.287 . S
C623 C622 1.287 . S
C623 C624 1.524 1_565 S
C623 H626 0.999 . S
C624 H594 0.950 . S
C624 C623 1.524 1_545 S
C624 C625 1.415 . S
C625 H595 0.950 . S
C625 C620 1.363 1_545 S
C625 C624 1.415 . S
H626 C623 0.999 . S
H627 C608 0.913 . S
H628 C646 0.951 . S
H629 C648 0.951 . S
H630 C650 0.950 . S
H631 C651 0.950 . S
H632 C653 0.950 . S
H633 C656 0.950 . S
H634 C657 0.950 . S
H635 C659 0.950 . S
H636 C660 0.950 . S
H637 C661 0.951 . S
H638 C663 0.951 . S
H639 C665 0.950 . S
H640 C666 0.950 . S
H641 C668 0.950 . S
H642 C671 0.950 . S
H643 C672 0.950 . S
H644 C674 0.950 . S
H645 C675 0.950 . S
C646 H628 0.951 . S
C646 C647 1.366 . S
C646 C648 1.388 . S
C647 C646 1.366 . S
C647 C651 1.385 . S
C648 H629 0.951 . S
C648 C646 1.388 . S
C648 C649 1.366 . S
C649 C648 1.366 . S
C649 C650 1.414 . S
C649 C652 1.499 . S
C650 H630 0.950 . S
C650 C649 1.414 . S
C650 C651 1.374 . S
C651 H631 0.950 . S
C651 C647 1.385 . S
C651 C650 1.374 . S
C652 C649 1.499 . S
C652 C653 1.373 . S
C652 C654 1.389 . S
C653 H632 0.950 . S
C653 C652 1.373 . S
C653 C669 1.377 1_655 S
C654 C652 1.389 . S
C654 C655 1.524 . S
C654 C668 1.377 1_655 S
C655 C654 1.524 . S
C655 C656 1.397 . S
C655 C660 1.363 . S
C656 H633 0.950 . S
C656 C655 1.397 . S
C656 C657 1.334 . S
C657 H634 0.950 . S
C657 C656 1.334 . S
C657 C658 1.287 . S
C658 C657 1.287 . S
C658 C659 1.524 . S
C658 H677 0.913 . S
C659 H635 0.950 . S
C659 C658 1.524 . S
C659 C660 1.415 . S
C660 H636 0.950 . S
C660 C655 1.363 . S
C660 C659 1.415 . S
C661 H637 0.951 . S
C661 C662 1.366 . S
C661 C663 1.388 . S
C662 C661 1.366 . S
C662 C666 1.385 . S
C663 H638 0.951 . S
C663 C661 1.388 . S
C663 C664 1.366 . S
C664 C663 1.366 . S
C664 C665 1.414 . S
C664 C667 1.499 . S
C665 H639 0.950 . S
C665 C664 1.414 . S
C665 C666 1.374 . S
C666 H640 0.950 . S
C666 C662 1.385 . S
C666 C665 1.374 . S
C667 C664 1.499 . S
C667 C668 1.373 . S
C667 C669 1.389 . S
C668 H641 0.950 . S
C668 C654 1.377 1_455 S
C668 C667 1.373 . S
C669 C653 1.377 1_455 S
C669 C667 1.389 . S
C669 C670 1.524 . S
C670 C669 1.524 . S
C670 C671 1.397 . S
C670 C675 1.363 . S
C671 H642 0.950 . S
C671 C670 1.397 . S
C671 C672 1.334 . S
C672 H643 0.950 . S
C672 C671 1.334 . S
C672 C673 1.287 . S
C673 C672 1.287 . S
C673 C674 1.524 . S
C673 H676 0.999 . S
C674 H644 0.950 . S
C674 C673 1.524 . S
C674 C675 1.415 . S
C675 H645 0.950 . S
C675 C670 1.363 . S
C675 C674 1.415 . S
H676 C673 0.999 . S
H677 C658 0.913 . S
H678 C696 0.951 . S
H679 C698 0.951 . S
H680 C700 0.950 . S
H681 C701 0.950 . S
H682 C703 0.950 . S
H683 C706 0.950 . S
H684 C707 0.950 . S
H685 C709 0.950 . S
H686 C710 0.950 . S
H687 C711 0.951 . S
H688 C713 0.951 . S
H689 C715 0.950 . S
H690 C716 0.950 . S
H691 C718 0.950 . S
H692 C721 0.950 . S
H693 C722 0.950 . S
H694 C724 0.950 . S
H695 C725 0.950 . S
C696 H678 0.951 . S
C696 C697 1.366 . S
C696 C698 1.388 . S
C697 C696 1.366 . S
C697 C701 1.385 . S
C698 H679 0.951 . S
C698 C696 1.388 . S
C698 C699 1.366 . S
C699 C698 1.366 . S
C699 C700 1.414 . S
C699 C702 1.499 . S
C700 H680 0.950 . S
C700 C699 1.414 . S
C700 C701 1.374 . S
C701 H681 0.950 . S
C701 C697 1.385 . S
C701 C700 1.374 . S
C702 C699 1.499 . S
C702 C703 1.373 . S
C702 C704 1.389 . S
C703 H682 0.950 . S
C703 C702 1.373 . S
C703 C719 1.377 1_565 S
C704 C702 1.389 . S
C704 C705 1.524 . S
C704 C718 1.377 1_565 S
C705 C704 1.524 . S
C705 C706 1.397 . S
C705 C710 1.363 1_565 S
C706 H683 0.950 . S
C706 C705 1.397 . S
C706 C707 1.334 . S
C707 H684 0.950 . S
C707 C706 1.334 . S
C707 C708 1.287 . S
C708 C707 1.287 . S
C708 C709 1.524 1_565 S
C708 H727 0.913 . S
C709 H685 0.950 . S
C709 C708 1.524 1_545 S
C709 C710 1.415 . S
C710 H686 0.950 . S
C710 C705 1.363 1_545 S
C710 C709 1.415 . S
C711 H687 0.951 . S
C711 C712 1.366 . S
C711 C713 1.388 . S
C712 C711 1.366 . S
C712 C716 1.385 . S
C713 H688 0.951 . S
C713 C711 1.388 . S
C713 C714 1.366 . S
C714 C713 1.366 . S
C714 C715 1.414 . S
C714 C717 1.499 . S
C715 H689 0.950 . S
C715 C714 1.414 . S
C715 C716 1.374 . S
C716 H690 0.950 . S
C716 C712 1.385 . S
C716 C715 1.374 . S
C717 C714 1.499 . S
C717 C718 1.373 . S
C717 C719 1.389 . S
C718 H691 0.950 . S
C718 C704 1.377 1_545 S
C718 C717 1.373 . S
C719 C703 1.377 1_545 S
C719 C717 1.389 . S
C719 C720 1.524 . S
C720 C719 1.524 . S
C720 C721 1.397 . S
C720 C725 1.363 1_545 S
C721 H692 0.950 . S
C721 C720 1.397 . S
C721 C722 1.334 . S
C722 H693 0.950 . S
C722 C721 1.334 . S
C722 C723 1.287 . S
C723 C722 1.287 . S
C723 C724 1.524 1_545 S
C723 H726 0.999 . S
C724 H694 0.950 . S
C724 C723 1.524 1_565 S
C724 C725 1.415 . S
C725 H695 0.950 . S
C725 C720 1.363 1_565 S
C725 C724 1.415 . S
H726 C723 0.999 . S
H727 C708 0.913 . S
H728 C746 0.951 . S
H729 C748 0.951 . S
H730 C750 0.950 1_545 S
H731 C751 0.950 . S
H732 C753 0.950 . S
H733 C756 0.950 . S
H734 C757 0.950 . S
H735 C759 0.950 . S
H736 C760 0.950 . S
H737 C761 0.951 . S
H738 C763 0.951 . S
H739 C765 0.950 1_565 S
H740 C766 0.950 . S
H741 C768 0.950 . S
H742 C771 0.950 . S
H743 C772 0.950 . S
H744 C774 0.950 . S
H745 C775 0.950 . S
C746 H728 0.951 . S
C746 C747 1.366 . S
C746 C748 1.388 . S
C747 C746 1.366 . S
C747 C751 1.385 . S
C748 H729 0.951 . S
C748 C746 1.388 . S
C748 C749 1.366 . S
C749 C748 1.366 . S
C749 C750 1.414 . S
C749 C752 1.499 . S
C750 H730 0.950 1_565 S
C750 C749 1.414 . S
C750 C751 1.374 . S
C751 H731 0.950 . S
C751 C747 1.385 . S
C751 C750 1.374 . S
C752 C749 1.499 . S
C752 C753 1.373 1_565 S
C752 C754 1.389 . S
C753 H732 0.950 . S
C753 C752 1.373 1_545 S
C753 C769 1.377 . S
C754 C752 1.389 . S
C754 C755 1.524 . S
C754 C768 1.377 . S
C755 C754 1.524 . S
C755 C756 1.397 . S
C755 C760 1.363 . S
C756 H733 0.950 . S
C756 C755 1.397 . S
C756 C757 1.334 . S
C757 H734 0.950 . S
C757 C756 1.334 . S
C757 C758 1.287 . S
C758 C757 1.287 . S
C758 C759 1.524 . S
C758 H777 0.913 . S
C759 H735 0.950 . S
C759 C758 1.524 . S
C759 C760 1.415 . S
C760 H736 0.950 . S
C760 C755 1.363 . S
C760 C759 1.415 . S
C761 H737 0.951 . S
C761 C762 1.366 . S
C761 C763 1.388 . S
C762 C761 1.366 . S
C762 C766 1.385 . S
C763 H738 0.951 . S
C763 C761 1.388 . S
C763 C764 1.366 . S
C764 C763 1.366 . S
C764 C765 1.414 . S
C764 C767 1.499 . S
C765 H739 0.950 1_545 S
C765 C764 1.414 . S
C765 C766 1.374 . S
C766 H740 0.950 . S
C766 C762 1.385 . S
C766 C765 1.374 . S
C767 C764 1.499 . S
C767 C768 1.373 1_545 S
C767 C769 1.389 . S
C768 H741 0.950 . S
C768 C754 1.377 . S
C768 C767 1.373 1_565 S
C769 C753 1.377 . S
C769 C767 1.389 . S
C769 C770 1.524 . S
C770 C769 1.524 . S
C770 C771 1.397 . S
C770 C775 1.363 . S
C771 H742 0.950 . S
C771 C770 1.397 . S
C771 C772 1.334 . S
C772 H743 0.950 . S
C772 C771 1.334 . S
C772 C773 1.287 . S
C773 C772 1.287 . S
C773 C774 1.524 . S
C773 H776 0.999 . S
C774 H744 0.950 . S
C774 C773 1.524 . S
C774 C775 1.415 . S
C775 H745 0.950 . S
C775 C770 1.363 . S
C775 C774 1.415 . S
H776 C773 0.999 . S
H777 C758 0.913 . S
H778 C796 0.951 . S
H779 C798 0.951 . S
H780 C800 0.950 1_455 S
H781 C801 0.950 . S
H782 C803 0.950 . S
H783 C806 0.950 . S
H784 C807 0.950 . S
H785 C809 0.950 . S
H786 C810 0.950 . S
H787 C811 0.951 . S
H788 C813 0.951 . S
H789 C815 0.950 1_655 S
H790 C816 0.950 . S
H791 C818 0.950 . S
H792 C821 0.950 . S
H793 C822 0.950 . S
H794 C824 0.950 . S
H795 C825 0.950 . S
C796 H778 0.951 . S
C796 C797 1.366 . S
C796 C798 1.388 . S
C797 C796 1.366 . S
C797 C801 1.385 . S
C798 H779 0.951 . S
C798 C796 1.388 . S
C798 C799 1.366 . S
C799 C798 1.366 . S
C799 C800 1.414 . S
C799 C802 1.499 . S
C800 H780 0.950 1_655 S
C800 C799 1.414 . S
C800 C801 1.374 . S
C801 H781 0.950 . S
C801 C797 1.385 . S
C801 C800 1.374 . S
C802 C799 1.499 . S
C802 C803 1.373 1_655 S
C802 C804 1.389 . S
C803 H782 0.950 . S
C803 C802 1.373 1_455 S
C803 C819 1.377 . S
C804 C802 1.389 . S
C804 C805 1.524 . S
C804 C818 1.377 . S
C805 C804 1.524 . S
C805 C806 1.397 . S
C805 C810 1.363 . S
C806 H783 0.950 . S
C806 C805 1.397 . S
C806 C807 1.334 . S
C807 H784 0.950 . S
C807 C806 1.334 . S
C807 C808 1.287 . S
C808 C807 1.287 . S
C808 C809 1.524 . S
C808 H827 0.913 . S
C809 H785 0.950 . S
C809 C808 1.524 . S
C809 C810 1.415 . S
C810 H786 0.950 . S
C810 C805 1.363 . S
C810 C809 1.415 . S
C811 H787 0.951 . S
C811 C812 1.366 . S
C811 C813 1.388 . S
C812 C811 1.366 . S
C812 C816 1.385 . S
C813 H788 0.951 . S
C813 C811 1.388 . S
C813 C814 1.366 . S
C814 C813 1.366 . S
C814 C815 1.414 . S
C814 C817 1.499 . S
C815 H789 0.950 1_455 S
C815 C814 1.414 . S
C815 C816 1.374 . S
C816 H790 0.950 . S
C816 C812 1.385 . S
C816 C815 1.374 . S
C817 C814 1.499 . S
C817 C818 1.373 1_455 S
C817 C819 1.389 . S
C818 H791 0.950 . S
C818 C804 1.377 . S
C818 C817 1.373 1_655 S
C819 C803 1.377 . S
C819 C817 1.389 . S
C819 C820 1.524 . S
C820 C819 1.524 . S
C820 C821 1.397 . S
C820 C825 1.363 . S
C821 H792 0.950 . S
C821 C820 1.397 . S
C821 C822 1.334 . S
C822 H793 0.950 . S
C822 C821 1.334 . S
C822 C823 1.287 . S
C823 C822 1.287 . S
C823 C824 1.524 . S
C823 H826 0.999 . S
C824 H794 0.950 . S
C824 C823 1.524 . S
C824 C825 1.415 . S
C825 H795 0.950 . S
C825 C820 1.363 . S
C825 C824 1.415 . S
H826 C823 0.999 . S
H827 C808 0.913 . S
H828 C846 0.951 . S
H829 C848 0.951 . S
H830 C850 0.950 . S
H831 C851 0.950 . S
H832 C853 0.950 . S
H833 C856 0.950 . S
H834 C857 0.950 . S
H835 C859 0.950 . S
H836 C860 0.950 . S
H837 C861 0.951 . S
H838 C863 0.951 . S
H839 C865 0.950 . S
H840 C866 0.950 . S
H841 C868 0.950 . S
H842 C871 0.950 . S
H843 C872 0.950 . S
H844 C874 0.950 . S
H845 C875 0.950 . S
C846 H828 0.951 . S
C846 C847 1.366 . S
C846 C848 1.388 . S
C847 C846 1.366 . S
C847 C851 1.385 . S
C848 H829 0.951 . S
C848 C846 1.388 . S
C848 C849 1.366 . S
C849 C848 1.366 . S
C849 C850 1.414 . S
C849 C852 1.499 . S
C850 H830 0.950 . S
C850 C849 1.414 . S
C850 C851 1.374 . S
C851 H831 0.950 . S
C851 C847 1.385 . S
C851 C850 1.374 . S
C852 C849 1.499 . S
C852 C853 1.373 . S
C852 C854 1.389 1_565 S
C853 H832 0.950 . S
C853 C852 1.373 . S
C853 C869 1.377 . S
C854 C852 1.389 1_545 S
C854 C855 1.524 . S
C854 C868 1.377 . S
C855 C854 1.524 . S
C855 C856 1.397 . S
C855 C860 1.363 . S
C856 H833 0.950 . S
C856 C855 1.397 . S
C856 C857 1.334 . S
C857 H834 0.950 . S
C857 C856 1.334 . S
C857 C858 1.287 . S
C858 C857 1.287 . S
C858 C859 1.524 . S
C858 H877 0.913 . S
C859 H835 0.950 . S
C859 C858 1.524 . S
C859 C860 1.415 . S
C860 H836 0.950 . S
C860 C855 1.363 . S
C860 C859 1.415 . S
C861 H837 0.951 . S
C861 C862 1.366 . S
C861 C863 1.388 . S
C862 C861 1.366 . S
C862 C866 1.385 . S
C863 H838 0.951 . S
C863 C861 1.388 . S
C863 C864 1.366 . S
C864 C863 1.366 . S
C864 C865 1.414 . S
C864 C867 1.499 . S
C865 H839 0.950 . S
C865 C864 1.414 . S
C865 C866 1.374 . S
C866 H840 0.950 . S
C866 C862 1.385 . S
C866 C865 1.374 . S
C867 C864 1.499 . S
C867 C868 1.373 . S
C867 C869 1.389 1_545 S
C868 H841 0.950 . S
C868 C854 1.377 . S
C868 C867 1.373 . S
C869 C853 1.377 . S
C869 C867 1.389 1_565 S
C869 C870 1.524 . S
C870 C869 1.524 . S
C870 C871 1.397 . S
C870 C875 1.363 . S
C871 H842 0.950 . S
C871 C870 1.397 . S
C871 C872 1.334 . S
C872 H843 0.950 . S
C872 C871 1.334 . S
C872 C873 1.287 . S
C873 C872 1.287 . S
C873 C874 1.524 . S
C873 H876 0.999 . S
C874 H844 0.950 . S
C874 C873 1.524 . S
C874 C875 1.415 . S
C875 H845 0.950 . S
C875 C870 1.363 . S
C875 C874 1.415 . S
H876 C873 0.999 . S
H877 C858 0.913 . S
H878 C896 0.951 . S
H879 C898 0.951 1_455 S
H880 C900 0.950 . S
H881 C901 0.950 . S
H882 C903 0.950 . S
H883 C906 0.950 . S
H884 C907 0.950 . S
H885 C909 0.950 . S
H886 C910 0.950 . S
H887 C911 0.951 . S
H888 C913 0.951 1_655 S
H889 C915 0.950 . S
H890 C916 0.950 . S
H891 C918 0.950 . S
H892 C921 0.950 . S
H893 C922 0.950 . S
H894 C924 0.950 . S
H895 C925 0.950 . S
C896 H878 0.951 . S
C896 C897 1.366 . S
C896 C898 1.388 . S
C897 C896 1.366 . S
C897 C901 1.385 . S
C898 H879 0.951 1_655 S
C898 C896 1.388 . S
C898 C899 1.366 . S
C899 C898 1.366 . S
C899 C900 1.414 . S
C899 C902 1.499 . S
C900 H880 0.950 . S
C900 C899 1.414 . S
C900 C901 1.374 . S
C901 H881 0.950 . S
C901 C897 1.385 . S
C901 C900 1.374 . S
C902 C899 1.499 . S
C902 C903 1.373 . S
C902 C904 1.389 1_655 S
C903 H882 0.950 . S
C903 C902 1.373 . S
C903 C919 1.377 . S
C904 C902 1.389 1_455 S
C904 C905 1.524 . S
C904 C918 1.377 . S
C905 C904 1.524 . S
C905 C906 1.397 . S
C905 C910 1.363 . S
C906 H883 0.950 . S
C906 C905 1.397 . S
C906 C907 1.334 . S
C907 H884 0.950 . S
C907 C906 1.334 . S
C907 C908 1.287 . S
C908 C907 1.287 . S
C908 C909 1.524 . S
C908 H927 0.913 . S
C909 H885 0.950 . S
C909 C908 1.524 . S
C909 C910 1.415 . S
C910 H886 0.950 . S
C910 C905 1.363 . S
C910 C909 1.415 . S
C911 H887 0.951 . S
C911 C912 1.366 . S
C911 C913 1.388 . S
C912 C911 1.366 . S
C912 C916 1.385 . S
C913 H888 0.951 1_455 S
C913 C911 1.388 . S
C913 C914 1.366 . S
C914 C913 1.366 . S
C914 C915 1.414 . S
C914 C917 1.499 . S
C915 H889 0.950 . S
C915 C914 1.414 . S
C915 C916 1.374 . S
C916 H890 0.950 . S
C916 C912 1.385 . S
C916 C915 1.374 . S
C917 C914 1.499 . S
C917 C918 1.373 . S
C917 C919 1.389 1_455 S
C918 H891 0.950 . S
C918 C904 1.377 . S
C918 C917 1.373 . S
C919 C903 1.377 . S
C919 C917 1.389 1_655 S
C919 C920 1.524 . S
C920 C919 1.524 . S
C920 C921 1.397 . S
C920 C925 1.363 . S
C921 H892 0.950 . S
C921 C920 1.397 . S
C921 C922 1.334 . S
C922 H893 0.950 . S
C922 C921 1.334 . S
C922 C923 1.287 . S
C923 C922 1.287 . S
C923 C924 1.524 . S
C923 H926 0.999 . S
C924 H894 0.950 . S
C924 C923 1.524 . S
C924 C925 1.415 . S
C925 H895 0.950 . S
C925 C920 1.363 . S
C925 C924 1.415 . S
H926 C923 0.999 . S
H927 C908 0.913 . S
H928 C946 0.951 . S
H929 C948 0.951 . S
H930 C950 0.950 . S
H931 C951 0.950 . S
H932 C953 0.950 . S
H933 C956 0.950 . S
H934 C957 0.950 . S
H935 C959 0.950 . S
H936 C960 0.950 . S
H937 C961 0.951 . S
H938 C963 0.951 . S
H939 C965 0.950 . S
H940 C966 0.950 . S
H941 C968 0.950 . S
H942 C971 0.950 . S
H943 C972 0.950 . S
H944 C974 0.950 . S
H945 C975 0.950 . S
C946 H928 0.951 . S
C946 C947 1.366 . S
C946 C948 1.388 . S
C947 C946 1.366 . S
C947 C951 1.385 . S
C948 H929 0.951 . S
C948 C946 1.388 . S
C948 C949 1.366 . S
C949 C948 1.366 . S
C949 C950 1.414 . S
C949 C952 1.499 . S
C950 H930 0.950 . S
C950 C949 1.414 . S
C950 C951 1.374 . S
C951 H931 0.950 . S
C951 C947 1.385 . S
C951 C950 1.374 . S
C952 C949 1.499 . S
C952 C953 1.373 . S
C952 C954 1.389 . S
C953 H932 0.950 . S
C953 C952 1.373 . S
C953 C969 1.377 . S
C954 C952 1.389 . S
C954 C955 1.524 . S
C954 C968 1.377 . S
C955 C954 1.524 . S
C955 C956 1.397 . S
C955 C960 1.363 . S
C956 H933 0.950 . S
C956 C955 1.397 . S
C956 C957 1.334 . S
C957 H934 0.950 . S
C957 C956 1.334 . S
C957 C958 1.287 . S
C958 C957 1.287 . S
C958 C959 1.524 . S
C958 H977 0.913 . S
C959 H935 0.950 . S
C959 C958 1.524 . S
C959 C960 1.415 . S
C960 H936 0.950 . S
C960 C955 1.363 . S
C960 C959 1.415 . S
C961 H937 0.951 . S
C961 C962 1.366 . S
C961 C963 1.388 . S
C962 C961 1.366 . S
C962 C966 1.385 . S
C963 H938 0.951 . S
C963 C961 1.388 . S
C963 C964 1.366 . S
C964 C963 1.366 . S
C964 C965 1.414 . S
C964 C967 1.499 . S
C965 H939 0.950 . S
C965 C964 1.414 . S
C965 C966 1.374 . S
C966 H940 0.950 . S
C966 C962 1.385 . S
C966 C965 1.374 . S
C967 C964 1.499 . S
C967 C968 1.373 . S
C967 C969 1.389 . S
C968 H941 0.950 . S
C968 C954 1.377 . S
C968 C967 1.373 . S
C969 C953 1.377 . S
C969 C967 1.389 . S
C969 C970 1.524 . S
C970 C969 1.524 . S
C970 C971 1.397 . S
C970 C975 1.363 . S
C971 H942 0.950 . S
C971 C970 1.397 . S
C971 C972 1.334 . S
C972 H943 0.950 . S
C972 C971 1.334 . S
C972 C973 1.287 . S
C973 C972 1.287 . S
C973 C974 1.524 . S
C973 H976 0.999 . S
C974 H944 0.950 . S
C974 C973 1.524 . S
C974 C975 1.415 . S
C975 H945 0.950 . S
C975 C970 1.363 . S
C975 C974 1.415 . S
H976 C973 0.999 . S
H977 C958 0.913 . S
H978 C996 0.951 . S
H979 C998 0.951 . S
H980 C1000 0.950 . S
H981 C1001 0.950 . S
H982 C1003 0.950 . S
H983 C1006 0.950 . S
H984 C1007 0.950 . S
H985 C1009 0.950 . S
H986 C1010 0.950 . S
H987 C1011 0.951 . S
H988 C1013 0.951 . S
H989 C1015 0.950 . S
H990 C1016 0.950 . S
H991 C1018 0.950 . S
H992 C1021 0.950 . S
H993 C1022 0.950 . S
H994 C1024 0.950 . S
H995 C1025 0.950 . S
C996 H978 0.951 . S
C996 C997 1.366 . S
C996 C998 1.388 . S
C997 C996 1.366 . S
C997 C1001 1.385 . S
C998 H979 0.951 . S
C998 C996 1.388 . S
C998 C999 1.366 . S
C999 C998 1.366 . S
C999 C1000 1.414 . S
C999 C1002 1.499 . S
C1000 H980 0.950 . S
C1000 C999 1.414 . S
C1000 C1001 1.374 . S
C1001 H981 0.950 . S
C1001 C997 1.385 . S
C1001 C1000 1.374 . S
C1002 C999 1.499 . S
C1002 C1003 1.373 . S
C1002 C1004 1.389 . S
C1003 H982 0.950 . S
C1003 C1002 1.373 . S
C1003 C1019 1.377 . S
C1004 C1002 1.389 . S
C1004 C1005 1.524 . S
C1004 C1018 1.377 . S
C1005 C1004 1.524 . S
C1005 C1006 1.397 . S
C1005 C1010 1.363 . S
C1006 H983 0.950 . S
C1006 C1005 1.397 . S
C1006 C1007 1.334 . S
C1007 H984 0.950 . S
C1007 C1006 1.334 . S
C1007 C1008 1.287 . S
C1008 C1007 1.287 . S
C1008 C1009 1.524 . S
C1008 H1027 0.913 . S
C1009 H985 0.950 . S
C1009 C1008 1.524 . S
C1009 C1010 1.415 . S
C1010 H986 0.950 . S
C1010 C1005 1.363 . S
C1010 C1009 1.415 . S
C1011 H987 0.951 . S
C1011 C1012 1.366 . S
C1011 C1013 1.388 . S
C1012 C1011 1.366 . S
C1012 C1016 1.385 . S
C1013 H988 0.951 . S
C1013 C1011 1.388 . S
C1013 C1014 1.366 . S
C1014 C1013 1.366 . S
C1014 C1015 1.414 . S
C1014 C1017 1.499 . S
C1015 H989 0.950 . S
C1015 C1014 1.414 . S
C1015 C1016 1.374 . S
C1016 H990 0.950 . S
C1016 C1012 1.385 . S
C1016 C1015 1.374 . S
C1017 C1014 1.499 . S
C1017 C1018 1.373 . S
C1017 C1019 1.389 . S
C1018 H991 0.950 . S
C1018 C1004 1.377 . S
C1018 C1017 1.373 . S
C1019 C1003 1.377 . S
C1019 C1017 1.389 . S
C1019 C1020 1.524 . S
C1020 C1019 1.524 . S
C1020 C1021 1.397 . S
C1020 C1025 1.363 . S
C1021 H992 0.950 . S
C1021 C1020 1.397 . S
C1021 C1022 1.334 . S
C1022 H993 0.950 . S
C1022 C1021 1.334 . S
C1022 C1023 1.287 . S
C1023 C1022 1.287 . S
C1023 C1024 1.524 . S
C1023 H1026 0.999 . S
C1024 H994 0.950 . S
C1024 C1023 1.524 . S
C1024 C1025 1.415 . S
C1025 H995 0.950 . S
C1025 C1020 1.363 . S
C1025 C1024 1.415 . S
H1026 C1023 0.999 . S
H1027 C1008 0.913 . S
H1028 C1046 0.951 . S
H1029 C1048 0.951 . S
H1030 C1050 0.950 . S
H1031 C1051 0.950 . S
H1032 C1053 0.950 . S
H1033 C1056 0.950 . S
H1034 C1057 0.950 . S
H1035 C1059 0.950 . S
H1036 C1060 0.950 . S
H1037 C1061 0.951 . S
H1038 C1063 0.951 . S
H1039 C1065 0.950 . S
H1040 C1066 0.950 . S
H1041 C1068 0.950 . S
H1042 C1071 0.950 . S
H1043 C1072 0.950 . S
H1044 C1074 0.950 . S
H1045 C1075 0.950 . S
C1046 H1028 0.951 . S
C1046 C1047 1.366 . S
C1046 C1048 1.388 . S
C1047 C1046 1.366 . S
C1047 C1051 1.385 . S
C1048 H1029 0.951 . S
C1048 C1046 1.388 . S
C1048 C1049 1.366 . S
C1049 C1048 1.366 . S
C1049 C1050 1.414 . S
C1049 C1052 1.499 . S
C1050 H1030 0.950 . S
C1050 C1049 1.414 . S
C1050 C1051 1.374 . S
C1051 H1031 0.950 . S
C1051 C1047 1.385 . S
C1051 C1050 1.374 . S
C1052 C1049 1.499 . S
C1052 C1053 1.373 . S
C1052 C1054 1.389 . S
C1053 H1032 0.950 . S
C1053 C1052 1.373 . S
C1053 C1069 1.377 . S
C1054 C1052 1.389 . S
C1054 C1055 1.524 . S
C1054 C1068 1.377 . S
C1055 C1054 1.524 . S
C1055 C1056 1.397 . S
C1055 C1060 1.363 . S
C1056 H1033 0.950 . S
C1056 C1055 1.397 . S
C1056 C1057 1.334 . S
C1057 H1034 0.950 . S
C1057 C1056 1.334 . S
C1057 C1058 1.287 . S
C1058 C1057 1.287 . S
C1058 C1059 1.524 . S
C1058 H1077 0.913 . S
C1059 H1035 0.950 . S
C1059 C1058 1.524 . S
C1059 C1060 1.415 . S
C1060 H1036 0.950 . S
C1060 C1055 1.363 . S
C1060 C1059 1.415 . S
C1061 H1037 0.951 . S
C1061 C1062 1.366 . S
C1061 C1063 1.388 . S
C1062 C1061 1.366 . S
C1062 C1066 1.385 . S
C1063 H1038 0.951 . S
C1063 C1061 1.388 . S
C1063 C1064 1.366 . S
C1064 C1063 1.366 . S
C1064 C1065 1.414 . S
C1064 C1067 1.499 . S
C1065 H1039 0.950 . S
C1065 C1064 1.414 . S
C1065 C1066 1.374 . S
C1066 H1040 0.950 . S
C1066 C1062 1.385 . S
C1066 C1065 1.374 . S
C1067 C1064 1.499 . S
C1067 C1068 1.373 . S
C1067 C1069 1.389 . S
C1068 H1041 0.950 . S
C1068 C1054 1.377 . S
C1068 C1067 1.373 . S
C1069 C1053 1.377 . S
C1069 C1067 1.389 . S
C1069 C1070 1.524 . S
C1070 C1069 1.524 . S
C1070 C1071 1.397 . S
C1070 C1075 1.363 . S
C1071 H1042 0.950 . S
C1071 C1070 1.397 . S
C1071 C1072 1.334 . S
C1072 H1043 0.950 . S
C1072 C1071 1.334 . S
C1072 C1073 1.287 . S
C1073 C1072 1.287 . S
C1073 C1074 1.524 . S
C1073 H1076 0.999 . S
C1074 H1044 0.950 . S
C1074 C1073 1.524 . S
C1074 C1075 1.415 . S
C1075 H1045 0.950 . S
C1075 C1070 1.363 . S
C1075 C1074 1.415 . S
H1076 C1073 0.999 . S
H1077 C1058 0.913 . S
H1078 C1096 0.951 . S
H1079 C1098 0.951 . S
H1080 C1100 0.950 . S
H1081 C1101 0.950 . S
H1082 C1103 0.950 . S
H1083 C1106 0.950 . S
H1084 C1107 0.950 . S
H1085 C1109 0.950 . S
H1086 C1110 0.950 . S
H1087 C1111 0.951 . S
H1088 C1113 0.951 . S
H1089 C1115 0.950 . S
H1090 C1116 0.950 . S
H1091 C1118 0.950 . S
H1092 C1121 0.950 . S
H1093 C1122 0.950 . S
H1094 C1124 0.950 . S
H1095 C1125 0.950 . S
C1096 H1078 0.951 . S
C1096 C1097 1.366 . S
C1096 C1098 1.388 . S
C1097 C1096 1.366 . S
C1097 C1101 1.385 . S
C1098 H1079 0.951 . S
C1098 C1096 1.388 . S
C1098 C1099 1.366 . S
C1099 C1098 1.366 . S
C1099 C1100 1.414 . S
C1099 C1102 1.499 . S
C1100 H1080 0.950 . S
C1100 C1099 1.414 . S
C1100 C1101 1.374 . S
C1101 H1081 0.950 . S
C1101 C1097 1.385 . S
C1101 C1100 1.374 . S
C1102 C1099 1.499 . S
C1102 C1103 1.373 . S
C1102 C1104 1.389 . S
C1103 H1082 0.950 . S
C1103 C1102 1.373 . S
C1103 C1119 1.377 . S
C1104 C1102 1.389 . S
C1104 C1105 1.524 . S
C1104 C1118 1.377 . S
C1105 C1104 1.524 . S
C1105 C1106 1.397 . S
C1105 C1110 1.363 . S
C1106 H1083 0.950 . S
C1106 C1105 1.397 . S
C1106 C1107 1.334 . S
C1107 H1084 0.950 . S
C1107 C1106 1.334 . S
C1107 C1108 1.287 . S
C1108 C1107 1.287 . S
C1108 C1109 1.524 . S
C1108 H1127 0.913 . S
C1109 H1085 0.950 . S
C1109 C1108 1.524 . S
C1109 C1110 1.415 . S
C1110 H1086 0.950 . S
C1110 C1105 1.363 . S
C1110 C1109 1.415 . S
C1111 H1087 0.951 . S
C1111 C1112 1.366 . S
C1111 C1113 1.388 . S
C1112 C1111 1.366 . S
C1112 C1116 1.385 . S
C1113 H1088 0.951 . S
C1113 C1111 1.388 . S
C1113 C1114 1.366 . S
C1114 C1113 1.366 . S
C1114 C1115 1.414 . S
C1114 C1117 1.499 . S
C1115 H1089 0.950 . S
C1115 C1114 1.414 . S
C1115 C1116 1.374 . S
C1116 H1090 0.950 . S
C1116 C1112 1.385 . S
C1116 C1115 1.374 . S
C1117 C1114 1.499 . S
C1117 C1118 1.373 . S
C1117 C1119 1.389 . S
C1118 H1091 0.950 . S
C1118 C1104 1.377 . S
C1118 C1117 1.373 . S
C1119 C1103 1.377 . S
C1119 C1117 1.389 . S
C1119 C1120 1.524 . S
C1120 C1119 1.524 . S
C1120 C1121 1.397 . S
C1120 C1125 1.363 . S
C1121 H1092 0.950 . S
C1121 C1120 1.397 . S
C1121 C1122 1.334 . S
C1122 H1093 0.950 . S
C1122 C1121 1.334 . S
C1122 C1123 1.287 . S
C1123 C1122 1.287 . S
C1123 C1124 1.524 . S
C1123 H1126 0.999 . S
C1124 H1094 0.950 . S
C1124 C1123 1.524 . S
C1124 C1125 1.415 . S
C1125 H1095 0.950 . S
C1125 C1120 1.363 . S
C1125 C1124 1.415 . S
H1126 C1123 0.999 . S
H1127 C1108 0.913 . S
H1128 C1146 0.951 . S
H1129 C1148 0.951 . S
H1130 C1150 0.950 . S
H1131 C1151 0.950 . S
H1132 C1153 0.950 . S
H1133 C1156 0.950 . S
H1134 C1157 0.950 . S
H1135 C1159 0.950 . S
H1136 C1160 0.950 . S
H1137 C1161 0.951 . S
H1138 C1163 0.951 . S
H1139 C1165 0.950 . S
H1140 C1166 0.950 . S
H1141 C1168 0.950 . S
H1142 C1171 0.950 . S
H1143 C1172 0.950 . S
H1144 C1174 0.950 . S
H1145 C1175 0.950 . S
C1146 H1128 0.951 . S
C1146 C1147 1.366 . S
C1146 C1148 1.388 . S
C1147 C1146 1.366 . S
C1147 C1151 1.385 . S
C1148 H1129 0.951 . S
C1148 C1146 1.388 . S
C1148 C1149 1.366 . S
C1149 C1148 1.366 . S
C1149 C1150 1.414 . S
C1149 C1152 1.499 . S
C1150 H1130 0.950 . S
C1150 C1149 1.414 . S
C1150 C1151 1.374 . S
C1151 H1131 0.950 . S
C1151 C1147 1.385 . S
C1151 C1150 1.374 . S
C1152 C1149 1.499 . S
C1152 C1153 1.373 . S
C1152 C1154 1.389 . S
C1153 H1132 0.950 . S
C1153 C1152 1.373 . S
C1153 C1169 1.377 . S
C1154 C1152 1.389 . S
C1154 C1155 1.524 . S
C1154 C1168 1.377 . S
C1155 C1154 1.524 . S
C1155 C1156 1.397 . S
C1155 C1160 1.363 . S
C1156 H1133 0.950 . S
C1156 C1155 1.397 . S
C1156 C1157 1.334 . S
C1157 H1134 0.950 . S
C1157 C1156 1.334 . S
C1157 C1158 1.287 . S
C1158 C1157 1.287 . S
C1158 C1159 1.524 . S
C1158 H1177 0.913 . S
C1159 H1135 0.950 . S
C1159 C1158 1.524 . S
C1159 C1160 1.415 . S
C1160 H1136 0.950 . S
C1160 C1155 1.363 . S
C1160 C1159 1.415 . S
C1161 H1137 0.951 . S
C1161 C1162 1.366 . S
C1161 C1163 1.388 . S
C1162 C1161 1.366 . S
C1162 C1166 1.385 . S
C1163 H1138 0.951 . S
C1163 C1161 1.388 . S
C1163 C1164 1.366 . S
C1164 C1163 1.366 . S
C1164 C1165 1.414 . S
C1164 C1167 1.499 . S
C1165 H1139 0.950 . S
C1165 C1164 1.414 . S
C1165 C1166 1.374 . S
C1166 H1140 0.950 . S
C1166 C1162 1.385 . S
C1166 C1165 1.374 . S
C1167 C1164 1.499 . S
C1167 C1168 1.373 . S
C1167 C1169 1.389 . S
C1168 H1141 0.950 . S
C1168 C1154 1.377 . S
C1168 C1167 1.373 . S
C1169 C1153 1.377 . S
C1169 C1167 1.389 . S
C1169 C1170 1.524 . S
C1170 C1169 1.524 . S
C1170 C1171 1.397 . S
C1170 C1175 1.363 . S
C1171 H1142 0.950 . S
C1171 C1170 1.397 . S
C1171 C1172 1.334 . S
C1172 H1143 0.950 . S
C1172 C1171 1.334 . S
C1172 C1173 1.287 . S
C1173 C1172 1.287 . S
C1173 C1174 1.524 . S
C1173 H1176 0.999 . S
C1174 H1144 0.950 . S
C1174 C1173 1.524 . S
C1174 C1175 1.415 . S
C1175 H1145 0.950 . S
C1175 C1170 1.363 . S
C1175 C1174 1.415 . S
H1176 C1173 0.999 . S
H1177 C1158 0.913 . S
H1178 C1196 0.951 . S
H1179 C1198 0.951 . S
H1180 C1200 0.950 . S
H1181 C1201 0.950 . S
H1182 C1203 0.950 . S
H1183 C1206 0.950 . S
H1184 C1207 0.950 . S
H1185 C1209 0.950 . S
H1186 C1210 0.950 . S
H1187 C1211 0.951 . S
H1188 C1213 0.951 . S
H1189 C1215 0.950 . S
H1190 C1216 0.950 . S
H1191 C1218 0.950 . S
H1192 C1221 0.950 . S
H1193 C1222 0.950 . S
H1194 C1224 0.950 . S
H1195 C1225 0.950 . S
C1196 H1178 0.951 . S
C1196 C1197 1.366 . S
C1196 C1198 1.388 . S
C1197 C1196 1.366 . S
C1197 C1201 1.385 . S
C1198 H1179 0.951 . S
C1198 C1196 1.388 . S
C1198 C1199 1.366 . S
C1199 C1198 1.366 . S
C1199 C1200 1.414 . S
C1199 C1202 1.499 . S
C1200 H1180 0.950 . S
C1200 C1199 1.414 . S
C1200 C1201 1.374 . S
C1201 H1181 0.950 . S
C1201 C1197 1.385 . S
C1201 C1200 1.374 . S
C1202 C1199 1.499 . S
C1202 C1203 1.373 . S
C1202 C1204 1.389 . S
C1203 H1182 0.950 . S
C1203 C1202 1.373 . S
C1203 C1219 1.377 . S
C1204 C1202 1.389 . S
C1204 C1205 1.524 . S
C1204 C1218 1.377 . S
C1205 C1204 1.524 . S
C1205 C1206 1.397 . S
C1205 C1210 1.363 . S
C1206 H1183 0.950 . S
C1206 C1205 1.397 . S
C1206 C1207 1.334 . S
C1207 H1184 0.950 . S
C1207 C1206 1.334 . S
C1207 C1208 1.287 . S
C1208 C1207 1.287 . S
C1208 C1209 1.524 . S
C1208 H1227 0.913 . S
C1209 H1185 0.950 . S
C1209 C1208 1.524 . S
C1209 C1210 1.415 . S
C1210 H1186 0.950 . S
C1210 C1205 1.363 . S
C1210 C1209 1.415 . S
C1211 H1187 0.951 . S
C1211 C1212 1.366 . S
C1211 C1213 1.388 . S
C1212 C1211 1.366 . S
C1212 C1216 1.385 . S
C1213 H1188 0.951 . S
C1213 C1211 1.388 . S
C1213 C1214 1.366 . S
C1214 C1213 1.366 . S
C1214 C1215 1.414 . S
C1214 C1217 1.499 . S
C1215 H1189 0.950 . S
C1215 C1214 1.414 . S
C1215 C1216 1.374 . S
C1216 H1190 0.950 . S
C1216 C1212 1.385 . S
C1216 C1215 1.374 . S
C1217 C1214 1.499 . S
C1217 C1218 1.373 . S
C1217 C1219 1.389 . S
C1218 H1191 0.950 . S
C1218 C1204 1.377 . S
C1218 C1217 1.373 . S
C1219 C1203 1.377 . S
C1219 C1217 1.389 . S
C1219 C1220 1.524 . S
C1220 C1219 1.524 . S
C1220 C1221 1.397 . S
C1220 C1225 1.363 . S
C1221 H1192 0.950 . S
C1221 C1220 1.397 . S
C1221 C1222 1.334 . S
C1222 H1193 0.950 . S
C1222 C1221 1.334 . S
C1222 C1223 1.287 . S
C1223 C1222 1.287 . S
C1223 C1224 1.524 . S
C1223 H1226 0.999 . S
C1224 H1194 0.950 . S
C1224 C1223 1.524 . S
C1224 C1225 1.415 . S
C1225 H1195 0.950 . S
C1225 C1220 1.363 . S
C1225 C1224 1.415 . S
H1226 C1223 0.999 . S
H1227 C1208 0.913 . S
H1228 C1246 0.951 . S
H1229 C1248 0.951 . S
H1230 C1250 0.950 . S
H1231 C1251 0.950 . S
H1232 C1253 0.950 . S
H1233 C1256 0.950 . S
H1234 C1257 0.950 . S
H1235 C1259 0.950 . S
H1236 C1260 0.950 . S
H1237 C1261 0.951 . S
H1238 C1263 0.951 . S
H1239 C1265 0.950 . S
H1240 C1266 0.950 . S
H1241 C1268 0.950 . S
H1242 C1271 0.950 . S
H1243 C1272 0.950 . S
H1244 C1274 0.950 . S
H1245 C1275 0.950 . S
C1246 H1228 0.951 . S
C1246 C1247 1.366 . S
C1246 C1248 1.388 . S
C1247 C1246 1.366 . S
C1247 C1251 1.385 . S
C1248 H1229 0.951 . S
C1248 C1246 1.388 . S
C1248 C1249 1.366 . S
C1249 C1248 1.366 . S
C1249 C1250 1.414 . S
C1249 C1252 1.499 . S
C1250 H1230 0.950 . S
C1250 C1249 1.414 . S
C1250 C1251 1.374 . S
C1251 H1231 0.950 . S
C1251 C1247 1.385 . S
C1251 C1250 1.374 . S
C1252 C1249 1.499 . S
C1252 C1253 1.373 . S
C1252 C1254 1.389 . S
C1253 H1232 0.950 . S
C1253 C1252 1.373 . S
C1253 C1269 1.377 . S
C1254 C1252 1.389 . S
C1254 C1255 1.524 . S
C1254 C1268 1.377 . S
C1255 C1254 1.524 . S
C1255 C1256 1.397 . S
C1255 C1260 1.363 . S
C1256 H1233 0.950 . S
C1256 C1255 1.397 . S
C1256 C1257 1.334 . S
C1257 H1234 0.950 . S
C1257 C1256 1.334 . S
C1257 C1258 1.287 . S
C1258 C1257 1.287 . S
C1258 C1259 1.524 . S
C1258 H1277 0.913 . S
C1259 H1235 0.950 . S
C1259 C1258 1.524 . S
C1259 C1260 1.415 . S
C1260 H1236 0.950 . S
C1260 C1255 1.363 . S
C1260 C1259 1.415 . S
C1261 H1237 0.951 . S
C1261 C1262 1.366 . S
C1261 C1263 1.388 . S
C1262 C1261 1.366 . S
C1262 C1266 1.385 . S
C1263 H1238 0.951 . S
C1263 C1261 1.388 . S
C1263 C1264 1.366 . S
C1264 C1263 1.366 . S
C1264 C1265 1.414 . S
C1264 C1267 1.499 . S
C1265 H1239 0.950 . S
C1265 C1264 1.414 . S
C1265 C1266 1.374 . S
C1266 H1240 0.950 . S
C1266 C1262 1.385 . S
C1266 C1265 1.374 . S
C1267 C1264 1.499 . S
C1267 C1268 1.373 . S
C1267 C1269 1.389 . S
C1268 H1241 0.950 . S
C1268 C1254 1.377 . S
C1268 C1267 1.373 . S
C1269 C1253 1.377 . S
C1269 C1267 1.389 . S
C1269 C1270 1.524 . S
C1270 C1269 1.524 . S
C1270 C1271 1.397 . S
C1270 C1275 1.363 . S
C1271 H1242 0.950 . S
C1271 C1270 1.397 . S
C1271 C1272 1.334 . S
C1272 H1243 0.950 . S
C1272 C1271 1.334 . S
C1272 C1273 1.287 . S
C1273 C1272 1.287 . S
C1273 C1274 1.524 . S
C1273 H1276 0.999 . S
C1274 H1244 0.950 . S
C1274 C1273 1.524 . S
C1274 C1275 1.415 . S
C1275 H1245 0.950 . S
C1275 C1270 1.363 . S
C1275 C1274 1.415 . S
H1276 C1273 0.999 . S
H1277 C1258 0.913 . S
H1278 C1296 0.951 . S
H1279 C1298 0.951 . S
H1280 C1300 0.950 . S
H1281 C1301 0.950 . S
H1282 C1303 0.950 . S
H1283 C1306 0.950 . S
H1284 C1307 0.950 . S
H1285 C1309 0.950 . S
H1286 C1310 0.950 . S
H1287 C1311 0.951 . S
H1288 C1313 0.951 . S
H1289 C1315 0.950 . S
H1290 C1316 0.950 . S
H1291 C1318 0.950 . S
H1292 C1321 0.950 . S
H1293 C1322 0.950 . S
H1294 C1324 0.950 . S
H1295 C1325 0.950 . S
C1296 H1278 0.951 . S
C1296 C1297 1.366 . S
C1296 C1298 1.388 . S
C1297 C1296 1.366 . S
C1297 C1301 1.385 . S
C1298 H1279 0.951 . S
C1298 C1296 1.388 . S
C1298 C1299 1.366 . S
C1299 C1298 1.366 . S
C1299 C1300 1.414 . S
C1299 C1302 1.499 . S
C1300 H1280 0.950 . S
C1300 C1299 1.414 . S
C1300 C1301 1.374 . S
C1301 H1281 0.950 . S
C1301 C1297 1.385 . S
C1301 C1300 1.374 . S
C1302 C1299 1.499 . S
C1302 C1303 1.373 . S
C1302 C1304 1.389 . S
C1303 H1282 0.950 . S
C1303 C1302 1.373 . S
C1303 C1319 1.377 . S
C1304 C1302 1.389 . S
C1304 C1305 1.524 . S
C1304 C1318 1.377 . S
C1305 C1304 1.524 . S
C1305 C1306 1.397 . S
C1305 C1310 1.363 . S
C1306 H1283 0.950 . S
C1306 C1305 1.397 . S
C1306 C1307 1.334 . S
C1307 H1284 0.950 . S
C1307 C1306 1.334 . S
C1307 C1308 1.287 . S
C1308 C1307 1.287 . S
C1308 C1309 1.524 . S
C1308 H1327 0.913 . S
C1309 H1285 0.950 . S
C1309 C1308 1.524 . S
C1309 C1310 1.415 . S
C1310 H1286 0.950 . S
C1310 C1305 1.363 . S
C1310 C1309 1.415 . S
C1311 H1287 0.951 . S
C1311 C1312 1.366 . S
C1311 C1313 1.388 . S
C1312 C1311 1.366 . S
C1312 C1316 1.385 . S
C1313 H1288 0.951 . S
C1313 C1311 1.388 . S
C1313 C1314 1.366 . S
C1314 C1313 1.366 . S
C1314 C1315 1.414 . S
C1314 C1317 1.499 . S
C1315 H1289 0.950 . S
C1315 C1314 1.414 . S
C1315 C1316 1.374 . S
C1316 H1290 0.950 . S
C1316 C1312 1.385 . S
C1316 C1315 1.374 . S
C1317 C1314 1.499 . S
C1317 C1318 1.373 . S
C1317 C1319 1.389 . S
C1318 H1291 0.950 . S
C1318 C1304 1.377 . S
C1318 C1317 1.373 . S
C1319 C1303 1.377 . S
C1319 C1317 1.389 . S
C1319 C1320 1.524 . S
C1320 C1319 1.524 . S
C1320 C1321 1.397 . S
C1320 C1325 1.363 . S
C1321 H1292 0.950 . S
C1321 C1320 1.397 . S
C1321 C1322 1.334 . S
C1322 H1293 0.950 . S
C1322 C1321 1.334 . S
C1322 C1323 1.287 . S
C1323 C1322 1.287 . S
C1323 C1324 1.524 . S
C1323 H1326 0.999 . S
C1324 H1294 0.950 . S
C1324 C1323 1.524 . S
C1324 C1325 1.415 . S
C1325 H1295 0.950 . S
C1325 C1320 1.363 . S
C1325 C1324 1.415 . S
H1326 C1323 0.999 . S
H1327 C1308 0.913 . S
H1328 C1346 0.951 . S
H1329 C1348 0.951 . S
H1330 C1350 0.950 . S
H1331 C1351 0.950 . S
H1332 C1353 0.950 . S
H1333 C1356 0.950 . S
H1334 C1357 0.950 . S
H1335 C1359 0.950 . S
H1336 C1360 0.950 . S
H1337 C1361 0.951 . S
H1338 C1363 0.951 . S
H1339 C1365 0.950 . S
H1340 C1366 0.950 . S
H1341 C1368 0.950 . S
H1342 C1371 0.950 . S
H1343 C1372 0.950 . S
H1344 C1374 0.950 . S
H1345 C1375 0.950 . S
C1346 H1328 0.951 . S
C1346 C1347 1.366 . S
C1346 C1348 1.388 . S
C1347 C1346 1.366 . S
C1347 C1351 1.385 . S
C1348 H1329 0.951 . S
C1348 C1346 1.388 . S
C1348 C1349 1.366 . S
C1349 C1348 1.366 . S
C1349 C1350 1.414 . S
C1349 C1352 1.499 . S
C1350 H1330 0.950 . S
C1350 C1349 1.414 . S
C1350 C1351 1.374 . S
C1351 H1331 0.950 . S
C1351 C1347 1.385 . S
C1351 C1350 1.374 . S
C1352 C1349 1.499 . S
C1352 C1353 1.373 . S
C1352 C1354 1.389 . S
C1353 H1332 0.950 . S
C1353 C1352 1.373 . S
C1353 C1369 1.377 . S
C1354 C1352 1.389 . S
C1354 C1355 1.524 . S
C1354 C1368 1.377 . S
C1355 C1354 1.524 . S
C1355 C1356 1.397 . S
C1355 C1360 1.363 . S
C1356 H1333 0.950 . S
C1356 C1355 1.397 . S
C1356 C1357 1.334 . S
C1357 H1334 0.950 . S
C1357 C1356 1.334 . S
C1357 C1358 1.287 . S
C1358 C1357 1.287 . S
C1358 C1359 1.524 . S
C1358 H1377 0.913 . S
C1359 H1335 0.950 . S
C1359 C1358 1.524 . S
C1359 C1360 1.415 . S
C1360 H1336 0.950 . S
C1360 C1355 1.363 . S
C1360 C1359 1.415 . S
C1361 H1337 0.951 . S
C1361 C1362 1.366 . S
C1361 C1363 1.388 . S
C1362 C1361 1.366 . S
C1362 C1366 1.385 . S
C1363 H1338 0.951 . S
C1363 C1361 1.388 . S
C1363 C1364 1.366 . S
C1364 C1363 1.366 . S
C1364 C1365 1.414 . S
C1364 C1367 1.499 . S
C1365 H1339 0.950 . S
C1365 C1364 1.414 . S
C1365 C1366 1.374 . S
C1366 H1340 0.950 . S
C1366 C1362 1.385 . S
C1366 C1365 1.374 . S
C1367 C1364 1.499 . S
C1367 C1368 1.373 . S
C1367 C1369 1.389 . S
C1368 H1341 0.950 . S
C1368 C1354 1.377 . S
C1368 C1367 1.373 . S
C1369 C1353 1.377 . S
C1369 C1367 1.389 . S
C1369 C1370 1.524 . S
C1370 C1369 1.524 . S
C1370 C1371 1.397 . S
C1370 C1375 1.363 . S
C1371 H1342 0.950 . S
C1371 C1370 1.397 . S
C1371 C1372 1.334 . S
C1372 H1343 0.950 . S
C1372 C1371 1.334 . S
C1372 C1373 1.287 . S
C1373 C1372 1.287 . S
C1373 C1374 1.524 . S
C1373 H1376 0.999 . S
C1374 H1344 0.950 . S
C1374 C1373 1.524 . S
C1374 C1375 1.415 . S
C1375 H1345 0.950 . S
C1375 C1370 1.363 . S
C1375 C1374 1.415 . S
H1376 C1373 0.999 . S
H1377 C1358 0.913 . S
H1378 C1396 0.951 . S
H1379 C1398 0.951 . S
H1380 C1400 0.950 . S
H1381 C1401 0.950 . S
H1382 C1403 0.950 . S
H1383 C1406 0.950 . S
H1384 C1407 0.950 . S
H1385 C1409 0.950 . S
H1386 C1410 0.950 . S
H1387 C1411 0.951 . S
H1388 C1413 0.951 . S
H1389 C1415 0.950 . S
H1390 C1416 0.950 . S
H1391 C1418 0.950 . S
H1392 C1421 0.950 . S
H1393 C1422 0.950 . S
H1394 C1424 0.950 . S
H1395 C1425 0.950 . S
C1396 H1378 0.951 . S
C1396 C1397 1.366 . S
C1396 C1398 1.388 . S
C1397 C1396 1.366 . S
C1397 C1401 1.385 . S
C1398 H1379 0.951 . S
C1398 C1396 1.388 . S
C1398 C1399 1.366 . S
C1399 C1398 1.366 . S
C1399 C1400 1.414 . S
C1399 C1402 1.499 . S
C1400 H1380 0.950 . S
C1400 C1399 1.414 . S
C1400 C1401 1.374 . S
C1401 H1381 0.950 . S
C1401 C1397 1.385 . S
C1401 C1400 1.374 . S
C1402 C1399 1.499 . S
C1402 C1403 1.373 . S
C1402 C1404 1.389 . S
C1403 H1382 0.950 . S
C1403 C1402 1.373 . S
C1403 C1419 1.377 . S
C1404 C1402 1.389 . S
C1404 C1405 1.524 . S
C1404 C1418 1.377 . S
C1405 C1404 1.524 . S
C1405 C1406 1.397 . S
C1405 C1410 1.363 . S
C1406 H1383 0.950 . S
C1406 C1405 1.397 . S
C1406 C1407 1.334 . S
C1407 H1384 0.950 . S
C1407 C1406 1.334 . S
C1407 C1408 1.287 . S
C1408 C1407 1.287 . S
C1408 C1409 1.524 . S
C1408 H1427 0.913 . S
C1409 H1385 0.950 . S
C1409 C1408 1.524 . S
C1409 C1410 1.415 . S
C1410 H1386 0.950 . S
C1410 C1405 1.363 . S
C1410 C1409 1.415 . S
C1411 H1387 0.951 . S
C1411 C1412 1.366 . S
C1411 C1413 1.388 . S
C1412 C1411 1.366 . S
C1412 C1416 1.385 . S
C1413 H1388 0.951 . S
C1413 C1411 1.388 . S
C1413 C1414 1.366 . S
C1414 C1413 1.366 . S
C1414 C1415 1.414 . S
C1414 C1417 1.499 . S
C1415 H1389 0.950 . S
C1415 C1414 1.414 . S
C1415 C1416 1.374 . S
C1416 H1390 0.950 . S
C1416 C1412 1.385 . S
C1416 C1415 1.374 . S
C1417 C1414 1.499 . S
C1417 C1418 1.373 . S
C1417 C1419 1.389 . S
C1418 H1391 0.950 . S
C1418 C1404 1.377 . S
C1418 C1417 1.373 . S
C1419 C1403 1.377 . S
C1419 C1417 1.389 . S
C1419 C1420 1.524 . S
C1420 C1419 1.524 . S
C1420 C1421 1.397 . S
C1420 C1425 1.363 . S
C1421 H1392 0.950 . S
C1421 C1420 1.397 . S
C1421 C1422 1.334 . S
C1422 H1393 0.950 . S
C1422 C1421 1.334 . S
C1422 C1423 1.287 . S
C1423 C1422 1.287 . S
C1423 C1424 1.524 . S
C1423 H1426 0.999 . S
C1424 H1394 0.950 . S
C1424 C1423 1.524 . S
C1424 C1425 1.415 . S
C1425 H1395 0.950 . S
C1425 C1420 1.363 . S
C1425 C1424 1.415 . S
H1426 C1423 0.999 . S
H1427 C1408 0.913 . S
H1428 C1446 0.951 . S
H1429 C1448 0.951 . S
H1430 C1450 0.950 . S
H1431 C1451 0.950 . S
H1432 C1453 0.950 . S
H1433 C1456 0.950 . S
H1434 C1457 0.950 . S
H1435 C1459 0.950 . S
H1436 C1460 0.950 . S
H1437 C1461 0.951 . S
H1438 C1463 0.951 . S
H1439 C1465 0.950 . S
H1440 C1466 0.950 . S
H1441 C1468 0.950 . S
H1442 C1471 0.950 . S
H1443 C1472 0.950 . S
H1444 C1474 0.950 . S
H1445 C1475 0.950 . S
C1446 H1428 0.951 . S
C1446 C1447 1.366 . S
C1446 C1448 1.388 . S
C1447 C1446 1.366 . S
C1447 C1451 1.385 . S
C1448 H1429 0.951 . S
C1448 C1446 1.388 . S
C1448 C1449 1.366 . S
C1449 C1448 1.366 . S
C1449 C1450 1.414 . S
C1449 C1452 1.499 . S
C1450 H1430 0.950 . S
C1450 C1449 1.414 . S
C1450 C1451 1.374 . S
C1451 H1431 0.950 . S
C1451 C1447 1.385 . S
C1451 C1450 1.374 . S
C1452 C1449 1.499 . S
C1452 C1453 1.373 . S
C1452 C1454 1.389 . S
C1453 H1432 0.950 . S
C1453 C1452 1.373 . S
C1453 C1469 1.377 . S
C1454 C1452 1.389 . S
C1454 C1455 1.524 . S
C1454 C1468 1.377 . S
C1455 C1454 1.524 . S
C1455 C1456 1.397 . S
C1455 C1460 1.363 . S
C1456 H1433 0.950 . S
C1456 C1455 1.397 . S
C1456 C1457 1.334 . S
C1457 H1434 0.950 . S
C1457 C1456 1.334 . S
C1457 C1458 1.287 . S
C1458 C1457 1.287 . S
C1458 C1459 1.524 . S
C1458 H1477 0.913 . S
C1459 H1435 0.950 . S
C1459 C1458 1.524 . S
C1459 C1460 1.415 . S
C1460 H1436 0.950 . S
C1460 C1455 1.363 . S
C1460 C1459 1.415 . S
C1461 H1437 0.951 . S
C1461 C1462 1.366 . S
C1461 C1463 1.388 . S
C1462 C1461 1.366 . S
C1462 C1466 1.385 . S
C1463 H1438 0.951 . S
C1463 C1461 1.388 . S
C1463 C1464 1.366 . S
C1464 C1463 1.366 . S
C1464 C1465 1.414 . S
C1464 C1467 1.499 . S
C1465 H1439 0.950 . S
C1465 C1464 1.414 . S
C1465 C1466 1.374 . S
C1466 H1440 0.950 . S
C1466 C1462 1.385 . S
C1466 C1465 1.374 . S
C1467 C1464 1.499 . S
C1467 C1468 1.373 . S
C1467 C1469 1.389 . S
C1468 H1441 0.950 . S
C1468 C1454 1.377 . S
C1468 C1467 1.373 . S
C1469 C1453 1.377 . S
C1469 C1467 1.389 . S
C1469 C1470 1.524 . S
C1470 C1469 1.524 . S
C1470 C1471 1.397 . S
C1470 C1475 1.363 . S
C1471 H1442 0.950 . S
C1471 C1470 1.397 . S
C1471 C1472 1.334 . S
C1472 H1443 0.950 . S
C1472 C1471 1.334 . S
C1472 C1473 1.287 . S
C1473 C1472 1.287 . S
C1473 C1474 1.524 . S
C1473 H1476 0.999 . S
C1474 H1444 0.950 . S
C1474 C1473 1.524 . S
C1474 C1475 1.415 . S
C1475 H1445 0.950 . S
C1475 C1470 1.363 . S
C1475 C1474 1.415 . S
H1476 C1473 0.999 . S
H1477 C1458 0.913 . S
H1478 C1496 0.951 . S
H1479 C1498 0.951 . S
H1480 C1500 0.950 . S
H1481 C1501 0.950 . S
H1482 C1503 0.950 . S
H1483 C1506 0.950 . S
H1484 C1507 0.950 . S
H1485 C1509 0.950 . S
H1486 C1510 0.950 . S
H1487 C1511 0.951 . S
H1488 C1513 0.951 . S
H1489 C1515 0.950 . S
H1490 C1516 0.950 . S
H1491 C1518 0.950 . S
H1492 C1521 0.950 . S
H1493 C1522 0.950 . S
H1494 C1524 0.950 . S
H1495 C1525 0.950 . S
C1496 H1478 0.951 . S
C1496 C1497 1.366 . S
C1496 C1498 1.388 . S
C1497 C1496 1.366 . S
C1497 C1501 1.385 . S
C1498 H1479 0.951 . S
C1498 C1496 1.388 . S
C1498 C1499 1.366 . S
C1499 C1498 1.366 . S
C1499 C1500 1.414 . S
C1499 C1502 1.499 . S
C1500 H1480 0.950 . S
C1500 C1499 1.414 . S
C1500 C1501 1.374 . S
C1501 H1481 0.950 . S
C1501 C1497 1.385 . S
C1501 C1500 1.374 . S
C1502 C1499 1.499 . S
C1502 C1503 1.373 . S
C1502 C1504 1.389 . S
C1503 H1482 0.950 . S
C1503 C1502 1.373 . S
C1503 C1519 1.377 . S
C1504 C1502 1.389 . S
C1504 C1505 1.524 . S
C1504 C1518 1.377 . S
C1505 C1504 1.524 . S
C1505 C1506 1.397 . S
C1505 C1510 1.363 . S
C1506 H1483 0.950 . S
C1506 C1505 1.397 . S
C1506 C1507 1.334 . S
C1507 H1484 0.950 . S
C1507 C1506 1.334 . S
C1507 C1508 1.287 . S
C1508 C1507 1.287 . S
C1508 C1509 1.524 . S
C1508 H1527 0.913 . S
C1509 H1485 0.950 . S
C1509 C1508 1.524 . S
C1509 C1510 1.415 . S
C1510 H1486 0.950 . S
C1510 C1505 1.363 . S
C1510 C1509 1.415 . S
C1511 H1487 0.951 . S
C1511 C1512 1.366 . S
C1511 C1513 1.388 . S
C1512 C1511 1.366 . S
C1512 C1516 1.385 . S
C1513 H1488 0.951 . S
C1513 C1511 1.388 . S
C1513 C1514 1.366 . S
C1514 C1513 1.366 . S
C1514 C1515 1.414 . S
C1514 C1517 1.499 . S
C1515 H1489 0.950 . S
C1515 C1514 1.414 . S
C1515 C1516 1.374 . S
C1516 H1490 0.950 . S
C1516 C1512 1.385 . S
C1516 C1515 1.374 . S
C1517 C1514 1.499 . S
C1517 C1518 1.373 . S
C1517 C1519 1.389 . S
C1518 H1491 0.950 . S
C1518 C1504 1.377 . S
C1518 C1517 1.373 . S
C1519 C1503 1.377 . S
C1519 C1517 1.389 . S
C1519 C1520 1.524 . S
C1520 C1519 1.524 . S
C1520 C1521 1.397 . S
C1520 C1525 1.363 . S
C1521 H1492 0.950 . S
C1521 C1520 1.397 . S
C1521 C1522 1.334 . S
C1522 H1493 0.950 . S
C1522 C1521 1.334 . S
C1522 C1523 1.287 . S
C1523 C1522 1.287 . S
C1523 C1524 1.524 . S
C1523 H1526 0.999 . S
C1524 H1494 0.950 . S
C1524 C1523 1.524 . S
C1524 C1525 1.415 . S
C1525 H1495 0.950 . S
C1525 C1520 1.363 . S
C1525 C1524 1.415 . S
H1526 C1523 0.999 . S
H1527 C1508 0.913 . S
H1528 C1546 0.951 . S
H1529 C1548 0.951 . S
H1530 C1550 0.950 . S
H1531 C1551 0.950 . S
H1532 C1553 0.950 . S
H1533 C1556 0.950 . S
H1534 C1557 0.950 . S
H1535 C1559 0.950 . S
H1536 C1560 0.950 . S
H1537 C1561 0.951 . S
H1538 C1563 0.951 . S
H1539 C1565 0.950 . S
H1540 C1566 0.950 . S
H1541 C1568 0.950 . S
H1542 C1571 0.950 . S
H1543 C1572 0.950 . S
H1544 C1574 0.950 . S
H1545 C1575 0.950 . S
C1546 H1528 0.951 . S
C1546 C1547 1.366 . S
C1546 C1548 1.388 . S
C1547 C1546 1.366 . S
C1547 C1551 1.385 . S
C1548 H1529 0.951 . S
C1548 C1546 1.388 . S
C1548 C1549 1.366 . S
C1549 C1548 1.366 . S
C1549 C1550 1.414 . S
C1549 C1552 1.499 . S
C1550 H1530 0.950 . S
C1550 C1549 1.414 . S
C1550 C1551 1.374 . S
C1551 H1531 0.950 . S
C1551 C1547 1.385 . S
C1551 C1550 1.374 . S
C1552 C1549 1.499 . S
C1552 C1553 1.373 . S
C1552 C1554 1.389 . S
C1553 H1532 0.950 . S
C1553 C1552 1.373 . S
C1553 C1569 1.377 . S
C1554 C1552 1.389 . S
C1554 C1555 1.524 . S
C1554 C1568 1.377 . S
C1555 C1554 1.524 . S
C1555 C1556 1.397 . S
C1555 C1560 1.363 . S
C1556 H1533 0.950 . S
C1556 C1555 1.397 . S
C1556 C1557 1.334 . S
C1557 H1534 0.950 . S
C1557 C1556 1.334 . S
C1557 C1558 1.287 . S
C1558 C1557 1.287 . S
C1558 C1559 1.524 . S
C1558 H1577 0.913 . S
C1559 H1535 0.950 . S
C1559 C1558 1.524 . S
C1559 C1560 1.415 . S
C1560 H1536 0.950 . S
C1560 C1555 1.363 . S
C1560 C1559 1.415 . S
C1561 H1537 0.951 . S
C1561 C1562 1.366 . S
C1561 C1563 1.388 . S
C1562 C1561 1.366 . S
C1562 C1566 1.385 . S
C1563 H1538 0.951 . S
C1563 C1561 1.388 . S
C1563 C1564 1.366 . S
C1564 C1563 1.366 . S
C1564 C1565 1.414 . S
C1564 C1567 1.499 . S
C1565 H1539 0.950 . S
C1565 C1564 1.414 . S
C1565 C1566 1.374 . S
C1566 H1540 0.950 . S
C1566 C1562 1.385 . S
C1566 C1565 1.374 . S
C1567 C1564 1.499 . S
C1567 C1568 1.373 . S
C1567 C1569 1.389 . S
C1568 H1541 0.950 . S
C1568 C1554 1.377 . S
C1568 C1567 1.373 . S
C1569 C1553 1.377 . S
C1569 C1567 1.389 . S
C1569 C1570 1.524 . S
C1570 C1569 1.524 . S
C1570 C1571 1.397 . S
C1570 C1575 1.363 . S
C1571 H1542 0.950 . S
C1571 C1570 1.397 . S
C1571 C1572 1.334 . S
C1572 H1543 0.950 . S
C1572 C1571 1.334 . S
C1572 C1573 1.287 . S
C1573 C1572 1.287 . S
C1573 C1574 1.524 . S
C1573 H1576 0.999 . S
C1574 H1544 0.950 . S
C1574 C1573 1.524 . S
C1574 C1575 1.415 . S
C1575 H1545 0.950 . S
C1575 C1570 1.363 . S
C1575 C1574 1.415 . S
H1576 C1573 0.999 . S
H1577 C1558 0.913 . S
H1578 C1596 0.951 . S
H1579 C1598 0.951 . S
H1580 C1600 0.950 . S
H1581 C1601 0.950 . S
H1582 C1603 0.950 . S
H1583 C1606 0.950 . S
H1584 C1607 0.950 . S
H1585 C1609 0.950 . S
H1586 C1610 0.950 . S
H1587 C1611 0.951 . S
H1588 C1613 0.951 . S
H1589 C1615 0.950 . S
H1590 C1616 0.950 . S
H1591 C1618 0.950 . S
H1592 C1621 0.950 . S
H1593 C1622 0.950 . S
H1594 C1624 0.950 . S
H1595 C1625 0.950 . S
C1596 H1578 0.951 . S
C1596 C1597 1.366 . S
C1596 C1598 1.388 . S
C1597 C1596 1.366 . S
C1597 C1601 1.385 . S
C1598 H1579 0.951 . S
C1598 C1596 1.388 . S
C1598 C1599 1.366 . S
C1599 C1598 1.366 . S
C1599 C1600 1.414 . S
C1599 C1602 1.499 . S
C1600 H1580 0.950 . S
C1600 C1599 1.414 . S
C1600 C1601 1.374 . S
C1601 H1581 0.950 . S
C1601 C1597 1.385 . S
C1601 C1600 1.374 . S
C1602 C1599 1.499 . S
C1602 C1603 1.373 . S
C1602 C1604 1.389 . S
C1603 H1582 0.950 . S
C1603 C1602 1.373 . S
C1603 C1619 1.377 . S
C1604 C1602 1.389 . S
C1604 C1605 1.524 . S
C1604 C1618 1.377 . S
C1605 C1604 1.524 . S
C1605 C1606 1.397 . S
C1605 C1610 1.363 . S
C1606 H1583 0.950 . S
C1606 C1605 1.397 . S
C1606 C1607 1.334 . S
C1607 H1584 0.950 . S
C1607 C1606 1.334 . S
C1607 C1608 1.287 . S
C1608 C1607 1.287 . S
C1608 C1609 1.524 . S
C1608 H1627 0.913 . S
C1609 H1585 0.950 . S
C1609 C1608 1.524 . S
C1609 C1610 1.415 . S
C1610 H1586 0.950 . S
C1610 C1605 1.363 . S
C1610 C1609 1.415 . S
C1611 H1587 0.951 . S
C1611 C1612 1.366 . S
C1611 C1613 1.388 . S
C1612 C1611 1.366 . S
C1612 C1616 1.385 . S
C1613 H1588 0.951 . S
C1613 C1611 1.388 . S
C1613 C1614 1.366 . S
C1614 C1613 1.366 . S
C1614 C1615 1.414 . S
C1614 C1617 1.499 . S
C1615 H1589 0.950 . S
C1615 C1614 1.414 . S
C1615 C1616 1.374 . S
C1616 H1590 0.950 . S
C1616 C1612 1.385 . S
C1616 C1615 1.374 . S
C1617 C1614 1.499 . S
C1617 C1618 1.373 . S
C1617 C1619 1.389 . S
C1618 H1591 0.950 . S
C1618 C1604 1.377 . S
C1618 C1617 1.373 . S
C1619 C1603 1.377 . S
C1619 C1617 1.389 . S
C1619 C1620 1.524 . S
C1620 C1619 1.524 . S
C1620 C1621 1.397 . S
C1620 C1625 1.363 . S
C1621 H1592 0.950 . S
C1621 C1620 1.397 . S
C1621 C1622 1.334 . S
C1622 H1593 0.950 . S
C1622 C1621 1.334 . S
C1622 C1623 1.287 . S
C1623 C1622 1.287 . S
C1623 C1624 1.524 . S
C1623 H1626 0.999 . S
C1624 H1594 0.950 . S
C1624 C1623 1.524 . S
C1624 C1625 1.415 . S
C1625 H1595 0.950 . S
C1625 C1620 1.363 . S
C1625 C1624 1.415 . S
H1626 C1623 0.999 . S
H1627 C1608 0.913 . S
H1628 C1646 0.951 . S
H1629 C1648 0.951 . S
H1630 C1650 0.950 . S
H1631 C1651 0.950 . S
H1632 C1653 0.950 . S
H1633 C1656 0.950 . S
H1634 C1657 0.950 . S
H1635 C1659 0.950 . S
H1636 C1660 0.950 . S
H1637 C1661 0.951 . S
H1638 C1663 0.951 . S
H1639 C1665 0.950 . S
H1640 C1666 0.950 . S
H1641 C1668 0.950 . S
H1642 C1671 0.950 . S
H1643 C1672 0.950 . S
H1644 C1674 0.950 . S
H1645 C1675 0.950 . S
C1646 H1628 0.951 . S
C1646 C1647 1.366 . S
C1646 C1648 1.388 . S
C1647 C1646 1.366 . S
C1647 C1651 1.385 . S
C1648 H1629 0.951 . S
C1648 C1646 1.388 . S
C1648 C1649 1.366 . S
C1649 C1648 1.366 . S
C1649 C1650 1.414 . S
C1649 C1652 1.499 . S
C1650 H1630 0.950 . S
C1650 C1649 1.414 . S
C1650 C1651 1.374 . S
C1651 H1631 0.950 . S
C1651 C1647 1.385 . S
C1651 C1650 1.374 . S
C1652 C1649 1.499 . S
C1652 C1653 1.373 . S
C1652 C1654 1.389 . S
C1653 H1632 0.950 . S
C1653 C1652 1.373 . S
C1653 C1669 1.377 . S
C1654 C1652 1.389 . S
C1654 C1655 1.524 . S
C1654 C1668 1.377 . S
C1655 C1654 1.524 . S
C1655 C1656 1.397 . S
C1655 C1660 1.363 . S
C1656 H1633 0.950 . S
C1656 C1655 1.397 . S
C1656 C1657 1.334 . S
C1657 H1634 0.950 . S
C1657 C1656 1.334 . S
C1657 C1658 1.287 . S
C1658 C1657 1.287 . S
C1658 C1659 1.524 . S
C1658 H1677 0.913 . S
C1659 H1635 0.950 . S
C1659 C1658 1.524 . S
C1659 C1660 1.415 . S
C1660 H1636 0.950 . S
C1660 C1655 1.363 . S
C1660 C1659 1.415 . S
C1661 H1637 0.951 . S
C1661 C1662 1.366 . S
C1661 C1663 1.388 . S
C1662 C1661 1.366 . S
C1662 C1666 1.385 . S
C1663 H1638 0.951 . S
C1663 C1661 1.388 . S
C1663 C1664 1.366 . S
C1664 C1663 1.366 . S
C1664 C1665 1.414 . S
C1664 C1667 1.499 . S
C1665 H1639 0.950 . S
C1665 C1664 1.414 . S
C1665 C1666 1.374 . S
C1666 H1640 0.950 . S
C1666 C1662 1.385 . S
C1666 C1665 1.374 . S
C1667 C1664 1.499 . S
C1667 C1668 1.373 . S
C1667 C1669 1.389 . S
C1668 H1641 0.950 . S
C1668 C1654 1.377 . S
C1668 C1667 1.373 . S
C1669 C1653 1.377 . S
C1669 C1667 1.389 . S
C1669 C1670 1.524 . S
C1670 C1669 1.524 . S
C1670 C1671 1.397 . S
C1670 C1675 1.363 . S
C1671 H1642 0.950 . S
C1671 C1670 1.397 . S
C1671 C1672 1.334 . S
C1672 H1643 0.950 . S
C1672 C1671 1.334 . S
C1672 C1673 1.287 . S
C1673 C1672 1.287 . S
C1673 C1674 1.524 . S
C1673 H1676 0.999 . S
C1674 H1644 0.950 . S
C1674 C1673 1.524 . S
C1674 C1675 1.415 . S
C1675 H1645 0.950 . S
C1675 C1670 1.363 . S
C1675 C1674 1.415 . S
H1676 C1673 0.999 . S
H1677 C1658 0.913 . S
H1678 C1696 0.951 . S
H1679 C1698 0.951 . S
H1680 C1700 0.950 . S
H1681 C1701 0.950 . S
H1682 C1703 0.950 . S
H1683 C1706 0.950 . S
H1684 C1707 0.950 . S
H1685 C1709 0.950 . S
H1686 C1710 0.950 . S
H1687 C1711 0.951 . S
H1688 C1713 0.951 . S
H1689 C1715 0.950 . S
H1690 C1716 0.950 . S
H1691 C1718 0.950 . S
H1692 C1721 0.950 . S
H1693 C1722 0.950 . S
H1694 C1724 0.950 . S
H1695 C1725 0.950 . S
C1696 H1678 0.951 . S
C1696 C1697 1.366 . S
C1696 C1698 1.388 . S
C1697 C1696 1.366 . S
C1697 C1701 1.385 . S
C1698 H1679 0.951 . S
C1698 C1696 1.388 . S
C1698 C1699 1.366 . S
C1699 C1698 1.366 . S
C1699 C1700 1.414 . S
C1699 C1702 1.499 . S
C1700 H1680 0.950 . S
C1700 C1699 1.414 . S
C1700 C1701 1.374 . S
C1701 H1681 0.950 . S
C1701 C1697 1.385 . S
C1701 C1700 1.374 . S
C1702 C1699 1.499 . S
C1702 C1703 1.373 . S
C1702 C1704 1.389 . S
C1703 H1682 0.950 . S
C1703 C1702 1.373 . S
C1703 C1719 1.377 . S
C1704 C1702 1.389 . S
C1704 C1705 1.524 . S
C1704 C1718 1.377 . S
C1705 C1704 1.524 . S
C1705 C1706 1.397 . S
C1705 C1710 1.363 . S
C1706 H1683 0.950 . S
C1706 C1705 1.397 . S
C1706 C1707 1.334 . S
C1707 H1684 0.950 . S
C1707 C1706 1.334 . S
C1707 C1708 1.287 . S
C1708 C1707 1.287 . S
C1708 C1709 1.524 . S
C1708 H1727 0.913 . S
C1709 H1685 0.950 . S
C1709 C1708 1.524 . S
C1709 C1710 1.415 . S
C1710 H1686 0.950 . S
C1710 C1705 1.363 . S
C1710 C1709 1.415 . S
C1711 H1687 0.951 . S
C1711 C1712 1.366 . S
C1711 C1713 1.388 . S
C1712 C1711 1.366 . S
C1712 C1716 1.385 . S
C1713 H1688 0.951 . S
C1713 C1711 1.388 . S
C1713 C1714 1.366 . S
C1714 C1713 1.366 . S
C1714 C1715 1.414 . S
C1714 C1717 1.499 . S
C1715 H1689 0.950 . S
C1715 C1714 1.414 . S
C1715 C1716 1.374 . S
C1716 H1690 0.950 . S
C1716 C1712 1.385 . S
C1716 C1715 1.374 . S
C1717 C1714 1.499 . S
C1717 C1718 1.373 . S
C1717 C1719 1.389 . S
C1718 H1691 0.950 . S
C1718 C1704 1.377 . S
C1718 C1717 1.373 . S
C1719 C1703 1.377 . S
C1719 C1717 1.389 . S
C1719 C1720 1.524 . S
C1720 C1719 1.524 . S
C1720 C1721 1.397 . S
C1720 C1725 1.363 . S
C1721 H1692 0.950 . S
C1721 C1720 1.397 . S
C1721 C1722 1.334 . S
C1722 H1693 0.950 . S
C1722 C1721 1.334 . S
C1722 C1723 1.287 . S
C1723 C1722 1.287 . S
C1723 C1724 1.524 . S
C1723 H1726 0.999 . S
C1724 H1694 0.950 . S
C1724 C1723 1.524 . S
C1724 C1725 1.415 . S
C1725 H1695 0.950 . S
C1725 C1720 1.363 . S
C1725 C1724 1.415 . S
H1726 C1723 0.999 . S
H1727 C1708 0.913 . S
H1728 C1746 0.951 . S
H1729 C1748 0.951 . S
H1730 C1750 0.950 . S
H1731 C1751 0.950 . S
H1732 C1753 0.950 . S
H1733 C1756 0.950 . S
H1734 C1757 0.950 . S
H1735 C1759 0.950 . S
H1736 C1760 0.950 . S
H1737 C1761 0.951 . S
H1738 C1763 0.951 . S
H1739 C1765 0.950 . S
H1740 C1766 0.950 . S
H1741 C1768 0.950 . S
H1742 C1771 0.950 . S
H1743 C1772 0.950 . S
H1744 C1774 0.950 . S
H1745 C1775 0.950 . S
C1746 H1728 0.951 . S
C1746 C1747 1.366 . S
C1746 C1748 1.388 . S
C1747 C1746 1.366 . S
C1747 C1751 1.385 . S
C1748 H1729 0.951 . S
C1748 C1746 1.388 . S
C1748 C1749 1.366 . S
C1749 C1748 1.366 . S
C1749 C1750 1.414 . S
C1749 C1752 1.499 . S
C1750 H1730 0.950 . S
C1750 C1749 1.414 . S
C1750 C1751 1.374 . S
C1751 H1731 0.950 . S
C1751 C1747 1.385 . S
C1751 C1750 1.374 . S
C1752 C1749 1.499 . S
C1752 C1753 1.373 . S
C1752 C1754 1.389 . S
C1753 H1732 0.950 . S
C1753 C1752 1.373 . S
C1753 C1769 1.377 . S
C1754 C1752 1.389 . S
C1754 C1755 1.524 . S
C1754 C1768 1.377 . S
C1755 C1754 1.524 . S
C1755 C1756 1.397 . S
C1755 C1760 1.363 . S
C1756 H1733 0.950 . S
C1756 C1755 1.397 . S
C1756 C1757 1.334 . S
C1757 H1734 0.950 . S
C1757 C1756 1.334 . S
C1757 C1758 1.287 . S
C1758 C1757 1.287 . S
C1758 C1759 1.524 . S
C1758 H1777 0.913 . S
C1759 H1735 0.950 . S
C1759 C1758 1.524 . S
C1759 C1760 1.415 . S
C1760 H1736 0.950 . S
C1760 C1755 1.363 . S
C1760 C1759 1.415 . S
C1761 H1737 0.951 . S
C1761 C1762 1.366 . S
C1761 C1763 1.388 . S
C1762 C1761 1.366 . S
C1762 C1766 1.385 . S
C1763 H1738 0.951 . S
C1763 C1761 1.388 . S
C1763 C1764 1.366 . S
C1764 C1763 1.366 . S
C1764 C1765 1.414 . S
C1764 C1767 1.499 . S
C1765 H1739 0.950 . S
C1765 C1764 1.414 . S
C1765 C1766 1.374 . S
C1766 H1740 0.950 . S
C1766 C1762 1.385 . S
C1766 C1765 1.374 . S
C1767 C1764 1.499 . S
C1767 C1768 1.373 . S
C1767 C1769 1.389 . S
C1768 H1741 0.950 . S
C1768 C1754 1.377 . S
C1768 C1767 1.373 . S
C1769 C1753 1.377 . S
C1769 C1767 1.389 . S
C1769 C1770 1.524 . S
C1770 C1769 1.524 . S
C1770 C1771 1.397 . S
C1770 C1775 1.363 . S
C1771 H1742 0.950 . S
C1771 C1770 1.397 . S
C1771 C1772 1.334 . S
C1772 H1743 0.950 . S
C1772 C1771 1.334 . S
C1772 C1773 1.287 . S
C1773 C1772 1.287 . S
C1773 C1774 1.524 . S
C1773 H1776 0.999 . S
C1774 H1744 0.950 . S
C1774 C1773 1.524 . S
C1774 C1775 1.415 . S
C1775 H1745 0.950 . S
C1775 C1770 1.363 . S
C1775 C1774 1.415 . S
H1776 C1773 0.999 . S
H1777 C1758 0.913 . S
H1778 C1796 0.951 . S
H1779 C1798 0.951 . S
H1780 C1800 0.950 . S
H1781 C1801 0.950 . S
H1782 C1803 0.950 . S
H1783 C1806 0.950 . S
H1784 C1807 0.950 . S
H1785 C1809 0.950 . S
H1786 C1810 0.950 . S
H1787 C1811 0.951 . S
H1788 C1813 0.951 . S
H1789 C1815 0.950 . S
H1790 C1816 0.950 . S
H1791 C1818 0.950 . S
H1792 C1821 0.950 . S
H1793 C1822 0.950 . S
H1794 C1824 0.950 . S
H1795 C1825 0.950 . S
C1796 H1778 0.951 . S
C1796 C1797 1.366 . S
C1796 C1798 1.388 . S
C1797 C1796 1.366 . S
C1797 C1801 1.385 . S
C1798 H1779 0.951 . S
C1798 C1796 1.388 . S
C1798 C1799 1.366 . S
C1799 C1798 1.366 . S
C1799 C1800 1.414 . S
C1799 C1802 1.499 . S
C1800 H1780 0.950 . S
C1800 C1799 1.414 . S
C1800 C1801 1.374 . S
C1801 H1781 0.950 . S
C1801 C1797 1.385 . S
C1801 C1800 1.374 . S
C1802 C1799 1.499 . S
C1802 C1803 1.373 . S
C1802 C1804 1.389 . S
C1803 H1782 0.950 . S
C1803 C1802 1.373 . S
C1803 C1819 1.377 . S
C1804 C1802 1.389 . S
C1804 C1805 1.524 . S
C1804 C1818 1.377 . S
C1805 C1804 1.524 . S
C1805 C1806 1.397 . S
C1805 C1810 1.363 . S
C1806 H1783 0.950 . S
C1806 C1805 1.397 . S
C1806 C1807 1.334 . S
C1807 H1784 0.950 . S
C1807 C1806 1.334 . S
C1807 C1808 1.287 . S
C1808 C1807 1.287 . S
C1808 C1809 1.524 . S
C1808 H1827 0.913 . S
C1809 H1785 0.950 . S
C1809 C1808 1.524 . S
C1809 C1810 1.415 . S
C1810 H1786 0.950 . S
C1810 C1805 1.363 . S
C1810 C1809 1.415 . S
C1811 H1787 0.951 . S
C1811 C1812 1.366 . S
C1811 C1813 1.388 . S
C1812 C1811 1.366 . S
C1812 C1816 1.385 . S
C1813 H1788 0.951 . S
C1813 C1811 1.388 . S
C1813 C1814 1.366 . S
C1814 C1813 1.366 . S
C1814 C1815 1.414 . S
C1814 C1817 1.499 . S
C1815 H1789 0.950 . S
C1815 C1814 1.414 . S
C1815 C1816 1.374 . S
C1816 H1790 0.950 . S
C1816 C1812 1.385 . S
C1816 C1815 1.374 . S
C1817 C1814 1.499 . S
C1817 C1818 1.373 . S
C1817 C1819 1.389 . S
C1818 H1791 0.950 . S
C1818 C1804 1.377 . S
C1818 C1817 1.373 . S
C1819 C1803 1.377 . S
C1819 C1817 1.389 . S
C1819 C1820 1.524 . S
C1820 C1819 1.524 . S
C1820 C1821 1.397 . S
C1820 C1825 1.363 . S
C1821 H1792 0.950 . S
C1821 C1820 1.397 . S
C1821 C1822 1.334 . S
C1822 H1793 0.950 . S
C1822 C1821 1.334 . S
C1822 C1823 1.287 . S
C1823 C1822 1.287 . S
C1823 C1824 1.524 . S
C1823 H1826 0.999 . S
C1824 H1794 0.950 . S
C1824 C1823 1.524 . S
C1824 C1825 1.415 . S
C1825 H1795 0.950 . S
C1825 C1820 1.363 . S
C1825 C1824 1.415 . S
H1826 C1823 0.999 . S
H1827 C1808 0.913 . S
H1828 C1846 0.951 . S
H1829 C1848 0.951 . S
H1830 C1850 0.950 . S
H1831 C1851 0.950 . S
H1832 C1853 0.950 . S
H1833 C1856 0.950 . S
H1834 C1857 0.950 . S
H1835 C1859 0.950 . S
H1836 C1860 0.950 . S
H1837 C1861 0.951 . S
H1838 C1863 0.951 . S
H1839 C1865 0.950 . S
H1840 C1866 0.950 . S
H1841 C1868 0.950 . S
H1842 C1871 0.950 . S
H1843 C1872 0.950 . S
H1844 C1874 0.950 . S
H1845 C1875 0.950 . S
C1846 H1828 0.951 . S
C1846 C1847 1.366 . S
C1846 C1848 1.388 . S
C1847 C1846 1.366 . S
C1847 C1851 1.385 . S
C1848 H1829 0.951 . S
C1848 C1846 1.388 . S
C1848 C1849 1.366 . S
C1849 C1848 1.366 . S
C1849 C1850 1.414 . S
C1849 C1852 1.499 . S
C1850 H1830 0.950 . S
C1850 C1849 1.414 . S
C1850 C1851 1.374 . S
C1851 H1831 0.950 . S
C1851 C1847 1.385 . S
C1851 C1850 1.374 . S
C1852 C1849 1.499 . S
C1852 C1853 1.373 . S
C1852 C1854 1.389 . S
C1853 H1832 0.950 . S
C1853 C1852 1.373 . S
C1853 C1869 1.377 . S
C1854 C1852 1.389 . S
C1854 C1855 1.524 . S
C1854 C1868 1.377 . S
C1855 C1854 1.524 . S
C1855 C1856 1.397 . S
C1855 C1860 1.363 . S
C1856 H1833 0.950 . S
C1856 C1855 1.397 . S
C1856 C1857 1.334 . S
C1857 H1834 0.950 . S
C1857 C1856 1.334 . S
C1857 C1858 1.287 . S
C1858 C1857 1.287 . S
C1858 C1859 1.524 . S
C1858 H1877 0.913 . S
C1859 H1835 0.950 . S
C1859 C1858 1.524 . S
C1859 C1860 1.415 . S
C1860 H1836 0.950 . S
C1860 C1855 1.363 . S
C1860 C1859 1.415 . S
C1861 H1837 0.951 . S
C1861 C1862 1.366 . S
C1861 C1863 1.388 . S
C1862 C1861 1.366 . S
C1862 C1866 1.385 . S
C1863 H1838 0.951 . S
C1863 C1861 1.388 . S
C1863 C1864 1.366 . S
C1864 C1863 1.366 . S
C1864 C1865 1.414 . S
C1864 C1867 1.499 . S
C1865 H1839 0.950 . S
C1865 C1864 1.414 . S
C1865 C1866 1.374 . S
C1866 H1840 0.950 . S
C1866 C1862 1.385 . S
C1866 C1865 1.374 . S
C1867 C1864 1.499 . S
C1867 C1868 1.373 . S
C1867 C1869 1.389 . S
C1868 H1841 0.950 . S
C1868 C1854 1.377 . S
C1868 C1867 1.373 . S
C1869 C1853 1.377 . S
C1869 C1867 1.389 . S
C1869 C1870 1.524 . S
C1870 C1869 1.524 . S
C1870 C1871 1.397 . S
C1870 C1875 1.363 . S
C1871 H1842 0.950 . S
C1871 C1870 1.397 . S
C1871 C1872 1.334 . S
C1872 H1843 0.950 . S
C1872 C1871 1.334 . S
C1872 C1873 1.287 . S
C1873 C1872 1.287 . S
C1873 C1874 1.524 . S
C1873 H1876 0.999 . S
C1874 H1844 0.950 . S
C1874 C1873 1.524 . S
C1874 C1875 1.415 . S
C1875 H1845 0.950 . S
C1875 C1870 1.363 . S
C1875 C1874 1.415 . S
H1876 C1873 0.999 . S
H1877 C1858 0.913 . S
H1878 C1896 0.951 . S
H1879 C1898 0.951 . S
H1880 C1900 0.950 . S
H1881 C1901 0.950 . S
H1882 C1903 0.950 . S
H1883 C1906 0.950 . S
H1884 C1907 0.950 . S
H1885 C1909 0.950 . S
H1886 C1910 0.950 . S
H1887 C1911 0.951 . S
H1888 C1913 0.951 . S
H1889 C1915 0.950 . S
H1890 C1916 0.950 . S
H1891 C1918 0.950 . S
H1892 C1921 0.950 . S
H1893 C1922 0.950 . S
H1894 C1924 0.950 . S
H1895 C1925 0.950 . S
C1896 H1878 0.951 . S
C1896 C1897 1.366 . S
C1896 C1898 1.388 . S
C1897 C1896 1.366 . S
C1897 C1901 1.385 . S
C1898 H1879 0.951 . S
C1898 C1896 1.388 . S
C1898 C1899 1.366 . S
C1899 C1898 1.366 . S
C1899 C1900 1.414 . S
C1899 C1902 1.499 . S
C1900 H1880 0.950 . S
C1900 C1899 1.414 . S
C1900 C1901 1.374 . S
C1901 H1881 0.950 . S
C1901 C1897 1.385 . S
C1901 C1900 1.374 . S
C1902 C1899 1.499 . S
C1902 C1903 1.373 . S
C1902 C1904 1.389 . S
C1903 H1882 0.950 . S
C1903 C1902 1.373 . S
C1903 C1919 1.377 . S
C1904 C1902 1.389 . S
C1904 C1905 1.524 . S
C1904 C1918 1.377 . S
C1905 C1904 1.524 . S
C1905 C1906 1.397 . S
C1905 C1910 1.363 . S
C1906 H1883 0.950 . S
C1906 C1905 1.397 . S
C1906 C1907 1.334 . S
C1907 H1884 0.950 . S
C1907 C1906 1.334 . S
C1907 C1908 1.287 . S
C1908 C1907 1.287 . S
C1908 C1909 1.524 . S
C1908 H1927 0.913 . S
C1909 H1885 0.950 . S
C1909 C1908 1.524 . S
C1909 C1910 1.415 . S
C1910 H1886 0.950 . S
C1910 C1905 1.363 . S
C1910 C1909 1.415 . S
C1911 H1887 0.951 . S
C1911 C1912 1.366 . S
C1911 C1913 1.388 . S
C1912 C1911 1.366 . S
C1912 C1916 1.385 . S
C1913 H1888 0.951 . S
C1913 C1911 1.388 . S
C1913 C1914 1.366 . S
C1914 C1913 1.366 . S
C1914 C1915 1.414 . S
C1914 C1917 1.499 . S
C1915 H1889 0.950 . S
C1915 C1914 1.414 . S
C1915 C1916 1.374 . S
C1916 H1890 0.950 . S
C1916 C1912 1.385 . S
C1916 C1915 1.374 . S
C1917 C1914 1.499 . S
C1917 C1918 1.373 . S
C1917 C1919 1.389 . S
C1918 H1891 0.950 . S
C1918 C1904 1.377 . S
C1918 C1917 1.373 . S
C1919 C1903 1.377 . S
C1919 C1917 1.389 . S
C1919 C1920 1.524 . S
C1920 C1919 1.524 . S
C1920 C1921 1.397 . S
C1920 C1925 1.363 . S
C1921 H1892 0.950 . S
C1921 C1920 1.397 . S
C1921 C1922 1.334 . S
C1922 H1893 0.950 . S
C1922 C1921 1.334 . S
C1922 C1923 1.287 . S
C1923 C1922 1.287 . S
C1923 C1924 1.524 . S
C1923 H1926 0.999 . S
C1924 H1894 0.950 . S
C1924 C1923 1.524 . S
C1924 C1925 1.415 . S
C1925 H1895 0.950 . S
C1925 C1920 1.363 . S
C1925 C1924 1.415 . S
H1926 C1923 0.999 . S
H1927 C1908 0.913 . S
H1928 C1946 0.951 . S
H1929 C1948 0.951 . S
H1930 C1950 0.950 . S
H1931 C1951 0.950 . S
H1932 C1953 0.950 . S
H1933 C1956 0.950 . S
H1934 C1957 0.950 . S
H1935 C1959 0.950 . S
H1936 C1960 0.950 . S
H1937 C1961 0.951 . S
H1938 C1963 0.951 . S
H1939 C1965 0.950 . S
H1940 C1966 0.950 . S
H1941 C1968 0.950 . S
H1942 C1971 0.950 . S
H1943 C1972 0.950 . S
H1944 C1974 0.950 . S
H1945 C1975 0.950 . S
C1946 H1928 0.951 . S
C1946 C1947 1.366 . S
C1946 C1948 1.388 . S
C1947 C1946 1.366 . S
C1947 C1951 1.385 . S
C1948 H1929 0.951 . S
C1948 C1946 1.388 . S
C1948 C1949 1.366 . S
C1949 C1948 1.366 . S
C1949 C1950 1.414 . S
C1949 C1952 1.499 . S
C1950 H1930 0.950 . S
C1950 C1949 1.414 . S
C1950 C1951 1.374 . S
C1951 H1931 0.950 . S
C1951 C1947 1.385 . S
C1951 C1950 1.374 . S
C1952 C1949 1.499 . S
C1952 C1953 1.373 . S
C1952 C1954 1.389 . S
C1953 H1932 0.950 . S
C1953 C1952 1.373 . S
C1953 C1969 1.377 . S
C1954 C1952 1.389 . S
C1954 C1955 1.524 . S
C1954 C1968 1.377 . S
C1955 C1954 1.524 . S
C1955 C1956 1.397 . S
C1955 C1960 1.363 . S
C1956 H1933 0.950 . S
C1956 C1955 1.397 . S
C1956 C1957 1.334 . S
C1957 H1934 0.950 . S
C1957 C1956 1.334 . S
C1957 C1958 1.287 . S
C1958 C1957 1.287 . S
C1958 C1959 1.524 . S
C1958 H1977 0.913 . S
C1959 H1935 0.950 . S
C1959 C1958 1.524 . S
C1959 C1960 1.415 . S
C1960 H1936 0.950 . S
C1960 C1955 1.363 . S
C1960 C1959 1.415 . S
C1961 H1937 0.951 . S
C1961 C1962 1.366 . S
C1961 C1963 1.388 . S
C1962 C1961 1.366 . S
C1962 C1966 1.385 . S
C1963 H1938 0.951 . S
C1963 C1961 1.388 . S
C1963 C1964 1.366 . S
C1964 C1963 1.366 . S
C1964 C1965 1.414 . S
C1964 C1967 1.499 . S
C1965 H1939 0.950 . S
C1965 C1964 1.414 . S
C1965 C1966 1.374 . S
C1966 H1940 0.950 . S
C1966 C1962 1.385 . S
C1966 C1965 1.374 . S
C1967 C1964 1.499 . S
C1967 C1968 1.373 . S
C1967 C1969 1.389 . S
C1968 H1941 0.950 . S
C1968 C1954 1.377 . S
C1968 C1967 1.373 . S
C1969 C1953 1.377 . S
C1969 C1967 1.389 . S
C1969 C1970 1.524 . S
C1970 C1969 1.524 . S
C1970 C1971 1.397 . S
C1970 C1975 1.363 . S
C1971 H1942 0.950 . S
C1971 C1970 1.397 . S
C1971 C1972 1.334 . S
C1972 H1943 0.950 . S
C1972 C1971 1.334 . S
C1972 C1973 1.287 . S
C1973 C1972 1.287 . S
C1973 C1974 1.524 . S
C1973 H1976 0.999 . S
C1974 H1944 0.950 . S
C1974 C1973 1.524 . S
C1974 C1975 1.415 . S
C1975 H1945 0.950 . S
C1975 C1970 1.363 . S
C1975 C1974 1.415 . S
H1976 C1973 0.999 . S
H1977 C1958 0.913 . S
H1978 C1996 0.951 . S
H1979 C1998 0.951 . S
H1980 C2000 0.950 . S
H1981 C2001 0.950 . S
H1982 C2003 0.950 . S
H1983 C2006 0.950 . S
H1984 C2007 0.957 . S
H1985 C2009 0.950 . S
H1986 C2010 0.950 . S
H1987 C2011 0.951 . S
H1988 C2013 0.951 . S
H1989 C2015 0.950 . S
H1990 C2016 0.950 . S
H1991 C2018 0.950 . S
H1992 C2021 0.950 . S
H1993 C2022 0.950 . S
H1994 C2024 0.950 . S
H1995 C2025 0.950 . S
C1996 H1978 0.951 . S
C1996 C1997 1.366 . S
C1996 C1998 1.388 . S
C1997 C1996 1.366 . S
C1997 C2001 1.385 . S
C1998 H1979 0.951 . S
C1998 C1996 1.388 . S
C1998 C1999 1.366 . S
C1999 C1998 1.366 . S
C1999 C2000 1.414 . S
C1999 C2002 1.499 . S
C2000 H1980 0.950 . S
C2000 C1999 1.414 . S
C2000 C2001 1.374 . S
C2001 H1981 0.950 . S
C2001 C1997 1.385 . S
C2001 C2000 1.374 . S
C2002 C1999 1.499 . S
C2002 C2003 1.373 . S
C2002 C2004 1.389 . S
C2003 H1982 0.950 . S
C2003 C2002 1.373 . S
C2003 C2019 1.377 . S
C2004 C2002 1.389 . S
C2004 C2005 1.524 . S
C2004 C2018 1.377 . S
C2005 C2004 1.524 . S
C2005 C2006 1.397 . S
C2005 C2010 1.363 . S
C2006 H1983 0.950 . S
C2006 C2005 1.397 . S
C2006 C2007 1.317 1_655 S
C2007 H1984 0.957 . S
C2007 C2006 1.317 1_455 S
C2007 C2008 1.297 . S
C2008 C2007 1.297 . S
C2008 C2009 1.524 . S
C2008 H2027 0.913 . S
C2009 H1985 0.950 . S
C2009 C2008 1.524 . S
C2009 C2010 1.415 1_455 S
C2010 H1986 0.950 . S
C2010 C2005 1.363 . S
C2010 C2009 1.415 1_655 S
C2011 H1987 0.951 . S
C2011 C2012 1.366 . S
C2011 C2013 1.388 . S
C2012 C2011 1.366 . S
C2012 C2016 1.385 . S
C2013 H1988 0.951 . S
C2013 C2011 1.388 . S
C2013 C2014 1.366 . S
C2014 C2013 1.366 . S
C2014 C2015 1.414 . S
C2014 C2017 1.499 . S
C2015 H1989 0.950 . S
C2015 C2014 1.414 . S
C2015 C2016 1.374 . S
C2016 H1990 0.950 . S
C2016 C2012 1.385 . S
C2016 C2015 1.374 . S
C2017 C2014 1.499 . S
C2017 C2018 1.373 . S
C2017 C2019 1.389 . S
C2018 H1991 0.950 . S
C2018 C2004 1.377 . S
C2018 C2017 1.373 . S
C2019 C2003 1.377 . S
C2019 C2017 1.389 . S
C2019 C2020 1.524 . S
C2020 C2019 1.524 . S
C2020 C2021 1.397 . S
C2020 C2025 1.363 . S
C2021 H1992 0.950 . S
C2021 C2020 1.397 . S
C2021 C2022 1.334 . S
C2022 H1993 0.950 . S
C2022 C2021 1.334 . S
C2022 C2023 1.287 . S
C2023 C2022 1.287 . S
C2023 C2024 1.524 . S
C2023 H2026 0.999 . S
C2024 H1994 0.950 . S
C2024 C2023 1.524 . S
C2024 C2025 1.415 . S
C2025 H1995 0.950 . S
C2025 C2020 1.363 . S
C2025 C2024 1.415 . S
H2026 C2023 0.999 . S
H2027 C2008 0.913 . S
H2028 C2046 0.951 . S
H2029 C2048 0.951 . S
H2030 C2050 0.950 . S
H2031 C2051 0.950 . S
H2032 C2053 0.950 . S
H2033 C2056 0.950 . S
H2034 C2057 0.950 . S
H2035 C2059 0.950 . S
H2036 C2060 0.950 . S
H2037 C2061 0.951 . S
H2038 C2063 0.951 . S
H2039 C2065 0.950 . S
H2040 C2066 0.950 . S
H2041 C2068 0.950 . S
H2042 C2071 0.950 . S
H2043 C2072 0.950 . S
H2044 C2074 0.950 . S
H2045 C2075 0.950 . S
C2046 H2028 0.951 . S
C2046 C2047 1.366 . S
C2046 C2048 1.388 . S
C2047 C2046 1.366 . S
C2047 C2051 1.385 . S
C2048 H2029 0.951 . S
C2048 C2046 1.388 . S
C2048 C2049 1.366 . S
C2049 C2048 1.366 . S
C2049 C2050 1.414 . S
C2049 C2052 1.499 . S
C2050 H2030 0.950 . S
C2050 C2049 1.414 . S
C2050 C2051 1.374 . S
C2051 H2031 0.950 . S
C2051 C2047 1.385 . S
C2051 C2050 1.374 . S
C2052 C2049 1.499 . S
C2052 C2053 1.373 . S
C2052 C2054 1.389 . S
C2053 H2032 0.950 . S
C2053 C2052 1.373 . S
C2053 C2069 1.377 . S
C2054 C2052 1.389 . S
C2054 C2055 1.524 . S
C2054 C2068 1.377 . S
C2055 C2054 1.524 . S
C2055 C2056 1.397 . S
C2055 C2060 1.363 . S
C2056 H2033 0.950 . S
C2056 C2055 1.397 . S
C2056 C2057 1.334 1_545 S
C2057 H2034 0.950 . S
C2057 C2056 1.334 1_565 S
C2057 C2058 1.287 . S
C2058 C2057 1.287 . S
C2058 C2059 1.524 1_565 S
C2058 H2077 0.913 . S
C2059 H2035 0.950 . S
C2059 C2058 1.524 1_545 S
C2059 C2060 1.415 . S
C2060 H2036 0.950 . S
C2060 C2055 1.363 . S
C2060 C2059 1.415 . S
C2061 H2037 0.951 . S
C2061 C2062 1.366 . S
C2061 C2063 1.388 . S
C2062 C2061 1.366 . S
C2062 C2066 1.385 . S
C2063 H2038 0.951 . S
C2063 C2061 1.388 . S
C2063 C2064 1.366 . S
C2064 C2063 1.366 . S
C2064 C2065 1.414 . S
C2064 C2067 1.499 . S
C2065 H2039 0.950 . S
C2065 C2064 1.414 . S
C2065 C2066 1.374 . S
C2066 H2040 0.950 . S
C2066 C2062 1.385 . S
C2066 C2065 1.374 . S
C2067 C2064 1.499 . S
C2067 C2068 1.373 . S
C2067 C2069 1.389 . S
C2068 H2041 0.950 . S
C2068 C2054 1.377 . S
C2068 C2067 1.373 . S
C2069 C2053 1.377 . S
C2069 C2067 1.389 . S
C2069 C2070 1.524 . S
C2070 C2069 1.524 . S
C2070 C2071 1.397 . S
C2070 C2075 1.363 . S
C2071 H2042 0.950 . S
C2071 C2070 1.397 . S
C2071 C2072 1.334 . S
C2072 H2043 0.950 . S
C2072 C2071 1.334 . S
C2072 C2073 1.287 . S
C2073 C2072 1.287 . S
C2073 C2074 1.524 . S
C2073 H2076 0.999 . S
C2074 H2044 0.950 . S
C2074 C2073 1.524 . S
C2074 C2075 1.415 . S
C2075 H2045 0.950 . S
C2075 C2070 1.363 . S
C2075 C2074 1.415 . S
H2076 C2073 0.999 . S
H2077 C2058 0.913 . S
H2078 C2096 0.951 . S
H2079 C2098 0.951 . S
H2080 C2100 0.950 . S
H2081 C2101 0.950 . S
H2082 C2103 0.950 . S
H2083 C2106 0.950 . S
H2084 C2107 0.950 . S
H2085 C2109 0.950 . S
H2086 C2110 0.950 . S
H2087 C2111 0.951 . S
H2088 C2113 0.951 . S
H2089 C2115 0.950 . S
H2090 C2116 0.950 . S
H2091 C2118 0.950 . S
H2092 C2121 0.950 . S
H2093 C2122 0.950 . S
H2094 C2124 0.950 . S
H2095 C2125 0.950 . S
C2096 H2078 0.951 . S
C2096 C2097 1.366 . S
C2096 C2098 1.388 . S
C2097 C2096 1.366 . S
C2097 C2101 1.385 . S
C2098 H2079 0.951 . S
C2098 C2096 1.388 . S
C2098 C2099 1.366 . S
C2099 C2098 1.366 . S
C2099 C2100 1.414 . S
C2099 C2102 1.499 . S
C2100 H2080 0.950 . S
C2100 C2099 1.414 . S
C2100 C2101 1.374 . S
C2101 H2081 0.950 . S
C2101 C2097 1.385 . S
C2101 C2100 1.374 . S
C2102 C2099 1.499 . S
C2102 C2103 1.373 . S
C2102 C2104 1.389 . S
C2103 H2082 0.950 . S
C2103 C2102 1.373 . S
C2103 C2119 1.377 . S
C2104 C2102 1.389 . S
C2104 C2105 1.524 . S
C2104 C2118 1.377 . S
C2105 C2104 1.524 . S
C2105 C2106 1.397 . S
C2105 C2110 1.363 . S
C2106 H2083 0.950 . S
C2106 C2105 1.397 . S
C2106 C2107 1.334 . S
C2107 H2084 0.950 . S
C2107 C2106 1.334 . S
C2107 C2108 1.287 . S
C2108 C2107 1.287 . S
C2108 C2109 1.524 . S
C2108 H2127 0.913 . S
C2109 H2085 0.950 . S
C2109 C2108 1.524 . S
C2109 C2110 1.415 . S
C2110 H2086 0.950 . S
C2110 C2105 1.363 . S
C2110 C2109 1.415 . S
C2111 H2087 0.951 . S
C2111 C2112 1.366 . S
C2111 C2113 1.388 . S
C2112 C2111 1.366 . S
C2112 C2116 1.385 . S
C2113 H2088 0.951 . S
C2113 C2111 1.388 . S
C2113 C2114 1.366 . S
C2114 C2113 1.366 . S
C2114 C2115 1.414 . S
C2114 C2117 1.499 . S
C2115 H2089 0.950 . S
C2115 C2114 1.414 . S
C2115 C2116 1.374 . S
C2116 H2090 0.950 . S
C2116 C2112 1.385 . S
C2116 C2115 1.374 . S
C2117 C2114 1.499 . S
C2117 C2118 1.373 . S
C2117 C2119 1.389 . S
C2118 H2091 0.950 . S
C2118 C2104 1.377 . S
C2118 C2117 1.373 . S
C2119 C2103 1.377 . S
C2119 C2117 1.389 . S
C2119 C2120 1.524 . S
C2120 C2119 1.524 . S
C2120 C2121 1.397 . S
C2120 C2125 1.363 . S
C2121 H2092 0.950 . S
C2121 C2120 1.397 . S
C2121 C2122 1.334 . S
C2122 H2093 0.950 . S
C2122 C2121 1.334 . S
C2122 C2123 1.287 . S
C2123 C2122 1.287 . S
C2123 C2124 1.524 . S
C2123 H2126 0.999 . S
C2124 H2094 0.950 . S
C2124 C2123 1.524 . S
C2124 C2125 1.415 . S
C2125 H2095 0.950 . S
C2125 C2120 1.363 . S
C2125 C2124 1.415 . S
H2126 C2123 0.999 . S
H2127 C2108 0.913 . S
H2128 C2146 0.951 . S
H2129 C2148 0.951 . S
H2130 C2150 0.950 . S
H2131 C2151 0.950 . S
H2132 C2153 0.950 . S
H2133 C2156 0.950 . S
H2134 C2157 0.950 . S
H2135 C2159 0.950 . S
H2136 C2160 0.950 . S
H2137 C2161 0.951 . S
H2138 C2163 0.951 . S
H2139 C2165 0.950 . S
H2140 C2166 0.950 . S
H2141 C2168 0.950 . S
H2142 C2171 0.950 . S
H2143 C2172 0.950 . S
H2144 C2174 0.950 . S
H2145 C2175 0.950 . S
C2146 H2128 0.951 . S
C2146 C2147 1.366 . S
C2146 C2148 1.388 . S
C2147 C2146 1.366 . S
C2147 C2151 1.385 . S
C2148 H2129 0.951 . S
C2148 C2146 1.388 . S
C2148 C2149 1.366 . S
C2149 C2148 1.366 . S
C2149 C2150 1.414 . S
C2149 C2152 1.499 . S
C2150 H2130 0.950 . S
C2150 C2149 1.414 . S
C2150 C2151 1.374 . S
C2151 H2131 0.950 . S
C2151 C2147 1.385 . S
C2151 C2150 1.374 . S
C2152 C2149 1.499 . S
C2152 C2153 1.373 . S
C2152 C2154 1.389 . S
C2153 H2132 0.950 . S
C2153 C2152 1.373 . S
C2153 C2169 1.377 . S
C2154 C2152 1.389 . S
C2154 C2155 1.524 . S
C2154 C2168 1.377 . S
C2155 C2154 1.524 . S
C2155 C2156 1.397 . S
C2155 C2160 1.363 . S
C2156 H2133 0.950 . S
C2156 C2155 1.397 . S
C2156 C2157 1.334 . S
C2157 H2134 0.950 . S
C2157 C2156 1.334 . S
C2157 C2158 1.287 . S
C2158 C2157 1.287 . S
C2158 C2159 1.524 . S
C2158 H2177 0.913 . S
C2159 H2135 0.950 . S
C2159 C2158 1.524 . S
C2159 C2160 1.415 . S
C2160 H2136 0.950 . S
C2160 C2155 1.363 . S
C2160 C2159 1.415 . S
C2161 H2137 0.951 . S
C2161 C2162 1.366 . S
C2161 C2163 1.388 . S
C2162 C2161 1.366 . S
C2162 C2166 1.385 . S
C2163 H2138 0.951 . S
C2163 C2161 1.388 . S
C2163 C2164 1.366 . S
C2164 C2163 1.366 . S
C2164 C2165 1.414 . S
C2164 C2167 1.499 . S
C2165 H2139 0.950 . S
C2165 C2164 1.414 . S
C2165 C2166 1.374 . S
C2166 H2140 0.950 . S
C2166 C2162 1.385 . S
C2166 C2165 1.374 . S
C2167 C2164 1.499 . S
C2167 C2168 1.373 . S
C2167 C2169 1.389 . S
C2168 H2141 0.950 . S
C2168 C2154 1.377 . S
C2168 C2167 1.373 . S
C2169 C2153 1.377 . S
C2169 C2167 1.389 . S
C2169 C2170 1.524 . S
C2170 C2169 1.524 . S
C2170 C2171 1.397 . S
C2170 C2175 1.363 . S
C2171 H2142 0.950 . S
C2171 C2170 1.397 . S
C2171 C2172 1.334 . S
C2172 H2143 0.950 . S
C2172 C2171 1.334 . S
C2172 C2173 1.287 . S
C2173 C2172 1.287 . S
C2173 C2174 1.524 . S
C2173 H2176 0.999 . S
C2174 H2144 0.950 . S
C2174 C2173 1.524 . S
C2174 C2175 1.415 . S
C2175 H2145 0.950 . S
C2175 C2170 1.363 . S
C2175 C2174 1.415 . S
H2176 C2173 0.999 . S
H2177 C2158 0.913 . S
H2178 C2196 0.951 . S
H2179 C2198 0.951 . S
H2180 C2200 0.950 . S
H2181 C2201 0.950 . S
H2182 C2203 0.950 . S
H2183 C2206 0.950 . S
H2184 C2207 0.950 . S
H2185 C2209 0.950 . S
H2186 C2210 0.950 . S
H2187 C2211 0.951 . S
H2188 C2213 0.951 . S
H2189 C2215 0.950 . S
H2190 C2216 0.950 . S
H2191 C2218 0.950 . S
H2192 C2221 0.950 . S
H2193 C2222 0.950 . S
H2194 C2224 0.950 . S
H2195 C2225 0.950 . S
C2196 H2178 0.951 . S
C2196 C2197 1.366 . S
C2196 C2198 1.388 . S
C2197 C2196 1.366 . S
C2197 C2201 1.385 . S
C2198 H2179 0.951 . S
C2198 C2196 1.388 . S
C2198 C2199 1.366 . S
C2199 C2198 1.366 . S
C2199 C2200 1.414 . S
C2199 C2202 1.499 . S
C2200 H2180 0.950 . S
C2200 C2199 1.414 . S
C2200 C2201 1.374 . S
C2201 H2181 0.950 . S
C2201 C2197 1.385 . S
C2201 C2200 1.374 . S
C2202 C2199 1.499 . S
C2202 C2203 1.373 . S
C2202 C2204 1.389 . S
C2203 H2182 0.950 . S
C2203 C2202 1.373 . S
C2203 C2219 1.377 . S
C2204 C2202 1.389 . S
C2204 C2205 1.524 . S
C2204 C2218 1.377 . S
C2205 C2204 1.524 . S
C2205 C2206 1.397 . S
C2205 C2210 1.363 . S
C2206 H2183 0.950 . S
C2206 C2205 1.397 . S
C2206 C2207 1.334 . S
C2207 H2184 0.950 . S
C2207 C2206 1.334 . S
C2207 C2208 1.287 . S
C2208 C2207 1.287 . S
C2208 C2209 1.524 . S
C2208 H2227 0.913 . S
C2209 H2185 0.950 . S
C2209 C2208 1.524 . S
C2209 C2210 1.415 . S
C2210 H2186 0.950 . S
C2210 C2205 1.363 . S
C2210 C2209 1.415 . S
C2211 H2187 0.951 . S
C2211 C2212 1.366 . S
C2211 C2213 1.388 . S
C2212 C2211 1.366 . S
C2212 C2216 1.385 . S
C2213 H2188 0.951 . S
C2213 C2211 1.388 . S
C2213 C2214 1.366 . S
C2214 C2213 1.366 . S
C2214 C2215 1.414 . S
C2214 C2217 1.499 . S
C2215 H2189 0.950 . S
C2215 C2214 1.414 . S
C2215 C2216 1.374 . S
C2216 H2190 0.950 . S
C2216 C2212 1.385 . S
C2216 C2215 1.374 . S
C2217 C2214 1.499 . S
C2217 C2218 1.373 . S
C2217 C2219 1.389 . S
C2218 H2191 0.950 . S
C2218 C2204 1.377 . S
C2218 C2217 1.373 . S
C2219 C2203 1.377 . S
C2219 C2217 1.389 . S
C2219 C2220 1.524 . S
C2220 C2219 1.524 . S
C2220 C2221 1.397 . S
C2220 C2225 1.363 . S
C2221 H2192 0.950 . S
C2221 C2220 1.397 . S
C2221 C2222 1.334 . S
C2222 H2193 0.950 . S
C2222 C2221 1.334 . S
C2222 C2223 1.287 . S
C2223 C2222 1.287 . S
C2223 C2224 1.524 . S
C2223 H2226 0.999 . S
C2224 H2194 0.950 . S
C2224 C2223 1.524 . S
C2224 C2225 1.415 . S
C2225 H2195 0.950 . S
C2225 C2220 1.363 . S
C2225 C2224 1.415 . S
H2226 C2223 0.999 . S
H2227 C2208 0.913 . S
H2228 C2246 0.951 . S
H2229 C2248 0.951 . S
H2230 C2250 0.950 . S
H2231 C2251 0.950 . S
H2232 C2253 0.950 . S
H2233 C2256 0.950 . S
H2234 C2257 0.950 . S
H2235 C2259 0.950 . S
H2236 C2260 0.950 . S
H2237 C2261 0.951 . S
H2238 C2263 0.951 . S
H2239 C2265 0.950 . S
H2240 C2266 0.950 . S
H2241 C2268 0.950 . S
H2242 C2271 0.950 . S
H2243 C2272 0.950 . S
H2244 C2274 0.950 . S
H2245 C2275 0.950 . S
C2246 H2228 0.951 . S
C2246 C2247 1.366 . S
C2246 C2248 1.388 . S
C2247 C2246 1.366 . S
C2247 C2251 1.385 . S
C2248 H2229 0.951 . S
C2248 C2246 1.388 . S
C2248 C2249 1.366 . S
C2249 C2248 1.366 . S
C2249 C2250 1.414 . S
C2249 C2252 1.499 . S
C2250 H2230 0.950 . S
C2250 C2249 1.414 . S
C2250 C2251 1.374 . S
C2251 H2231 0.950 . S
C2251 C2247 1.385 . S
C2251 C2250 1.374 . S
C2252 C2249 1.499 . S
C2252 C2253 1.373 . S
C2252 C2254 1.389 . S
C2253 H2232 0.950 . S
C2253 C2252 1.373 . S
C2253 C2269 1.377 . S
C2254 C2252 1.389 . S
C2254 C2255 1.524 . S
C2254 C2268 1.377 . S
C2255 C2254 1.524 . S
C2255 C2256 1.397 . S
C2255 C2260 1.363 . S
C2256 H2233 0.950 . S
C2256 C2255 1.397 . S
C2256 C2257 1.334 . S
C2257 H2234 0.950 . S
C2257 C2256 1.334 . S
C2257 C2258 1.287 . S
C2258 C2257 1.287 . S
C2258 C2259 1.524 . S
C2258 H2277 0.913 . S
C2259 H2235 0.950 . S
C2259 C2258 1.524 . S
C2259 C2260 1.415 . S
C2260 H2236 0.950 . S
C2260 C2255 1.363 . S
C2260 C2259 1.415 . S
C2261 H2237 0.951 . S
C2261 C2262 1.366 . S
C2261 C2263 1.388 . S
C2262 C2261 1.366 . S
C2262 C2266 1.385 . S
C2263 H2238 0.951 . S
C2263 C2261 1.388 . S
C2263 C2264 1.366 . S
C2264 C2263 1.366 . S
C2264 C2265 1.414 . S
C2264 C2267 1.499 . S
C2265 H2239 0.950 . S
C2265 C2264 1.414 . S
C2265 C2266 1.374 . S
C2266 H2240 0.950 . S
C2266 C2262 1.385 . S
C2266 C2265 1.374 . S
C2267 C2264 1.499 . S
C2267 C2268 1.373 . S
C2267 C2269 1.389 . S
C2268 H2241 0.950 . S
C2268 C2254 1.377 . S
C2268 C2267 1.373 . S
C2269 C2253 1.377 . S
C2269 C2267 1.389 . S
C2269 C2270 1.524 . S
C2270 C2269 1.524 . S
C2270 C2271 1.397 . S
C2270 C2275 1.363 . S
C2271 H2242 0.950 . S
C2271 C2270 1.397 . S
C2271 C2272 1.334 . S
C2272 H2243 0.950 . S
C2272 C2271 1.334 . S
C2272 C2273 1.287 . S
C2273 C2272 1.287 . S
C2273 C2274 1.524 . S
C2273 H2276 0.999 . S
C2274 H2244 0.950 . S
C2274 C2273 1.524 . S
C2274 C2275 1.415 . S
C2275 H2245 0.950 . S
C2275 C2270 1.363 . S
C2275 C2274 1.415 . S
H2276 C2273 0.999 . S
H2277 C2258 0.913 . S
H2278 C2296 0.951 . S
H2279 C2298 0.951 . S
H2280 C2300 0.950 . S
H2281 C2301 0.950 . S
H2282 C2303 0.950 . S
H2283 C2306 0.950 . S
H2284 C2307 0.950 . S
H2285 C2309 0.950 . S
H2286 C2310 0.950 . S
H2287 C2311 0.951 . S
H2288 C2313 0.951 . S
H2289 C2315 0.950 . S
H2290 C2316 0.950 . S
H2291 C2318 0.950 . S
H2292 C2321 0.950 . S
H2293 C2322 0.950 . S
H2294 C2324 0.950 . S
H2295 C2325 0.950 . S
C2296 H2278 0.951 . S
C2296 C2297 1.366 . S
C2296 C2298 1.388 . S
C2297 C2296 1.366 . S
C2297 C2301 1.385 . S
C2298 H2279 0.951 . S
C2298 C2296 1.388 . S
C2298 C2299 1.366 . S
C2299 C2298 1.366 . S
C2299 C2300 1.414 . S
C2299 C2302 1.499 . S
C2300 H2280 0.950 . S
C2300 C2299 1.414 . S
C2300 C2301 1.374 . S
C2301 H2281 0.950 . S
C2301 C2297 1.385 . S
C2301 C2300 1.374 . S
C2302 C2299 1.499 . S
C2302 C2303 1.373 . S
C2302 C2304 1.389 . S
C2303 H2282 0.950 . S
C2303 C2302 1.373 . S
C2303 C2319 1.377 . S
C2304 C2302 1.389 . S
C2304 C2305 1.524 . S
C2304 C2318 1.377 . S
C2305 C2304 1.524 . S
C2305 C2306 1.397 . S
C2305 C2310 1.363 . S
C2306 H2283 0.950 . S
C2306 C2305 1.397 . S
C2306 C2307 1.334 . S
C2307 H2284 0.950 . S
C2307 C2306 1.334 . S
C2307 C2308 1.287 . S
C2308 C2307 1.287 . S
C2308 C2309 1.524 . S
C2308 H2327 0.913 . S
C2309 H2285 0.950 . S
C2309 C2308 1.524 . S
C2309 C2310 1.415 . S
C2310 H2286 0.950 . S
C2310 C2305 1.363 . S
C2310 C2309 1.415 . S
C2311 H2287 0.951 . S
C2311 C2312 1.366 . S
C2311 C2313 1.388 . S
C2312 C2311 1.366 . S
C2312 C2316 1.385 . S
C2313 H2288 0.951 . S
C2313 C2311 1.388 . S
C2313 C2314 1.366 . S
C2314 C2313 1.366 . S
C2314 C2315 1.414 . S
C2314 C2317 1.499 . S
C2315 H2289 0.950 . S
C2315 C2314 1.414 . S
C2315 C2316 1.374 . S
C2316 H2290 0.950 . S
C2316 C2312 1.385 . S
C2316 C2315 1.374 . S
C2317 C2314 1.499 . S
C2317 C2318 1.373 . S
C2317 C2319 1.389 . S
C2318 H2291 0.950 . S
C2318 C2304 1.377 . S
C2318 C2317 1.373 . S
C2319 C2303 1.377 . S
C2319 C2317 1.389 . S
C2319 C2320 1.524 . S
C2320 C2319 1.524 . S
C2320 C2321 1.397 . S
C2320 C2325 1.363 . S
C2321 H2292 0.950 . S
C2321 C2320 1.397 . S
C2321 C2322 1.334 . S
C2322 H2293 0.950 . S
C2322 C2321 1.334 . S
C2322 C2323 1.287 . S
C2323 C2322 1.287 . S
C2323 C2324 1.524 . S
C2323 H2326 0.999 . S
C2324 H2294 0.950 . S
C2324 C2323 1.524 . S
C2324 C2325 1.415 . S
C2325 H2295 0.950 . S
C2325 C2320 1.363 . S
C2325 C2324 1.415 . S
H2326 C2323 0.999 . S
H2327 C2308 0.913 . S
H2328 C2346 0.951 . S
H2329 C2348 0.951 . S
H2330 C2350 0.950 . S
H2331 C2351 0.950 . S
H2332 C2353 0.950 . S
H2333 C2356 0.950 . S
H2334 C2357 0.950 . S
H2335 C2359 0.950 . S
H2336 C2360 0.950 . S
H2337 C2361 0.951 . S
H2338 C2363 0.951 . S
H2339 C2365 0.950 . S
H2340 C2366 0.950 . S
H2341 C2368 0.950 . S
H2342 C2371 0.950 . S
H2343 C2372 0.950 . S
H2344 C2374 0.950 . S
H2345 C2375 0.950 . S
C2346 H2328 0.951 . S
C2346 C2347 1.366 . S
C2346 C2348 1.388 . S
C2347 C2346 1.366 . S
C2347 C2351 1.385 1_565 S
C2348 H2329 0.951 . S
C2348 C2346 1.388 . S
C2348 C2349 1.361 1_565 S
C2349 C2348 1.361 1_545 S
C2349 C2350 1.418 . S
C2349 C2352 1.499 . S
C2350 H2330 0.950 . S
C2350 C2349 1.418 . S
C2350 C2351 1.374 . S
C2351 H2331 0.950 . S
C2351 C2347 1.385 1_545 S
C2351 C2350 1.374 . S
C2352 C2349 1.499 . S
C2352 C2353 1.373 1_545 S
C2352 C2354 1.389 . S
C2353 H2332 0.950 . S
C2353 C2352 1.373 1_565 S
C2353 C2369 1.377 1_556 S
C2354 C2352 1.389 . S
C2354 C2355 1.524 . S
C2354 C2368 1.377 1_556 S
C2355 C2354 1.524 . S
C2355 C2356 1.397 . S
C2355 C2360 1.363 . S
C2356 H2333 0.950 . S
C2356 C2355 1.397 . S
C2356 C2357 1.334 . S
C2357 H2334 0.950 . S
C2357 C2356 1.334 . S
C2357 C2358 1.287 . S
C2358 C2357 1.287 . S
C2358 C2359 1.524 . S
C2358 H2377 0.913 . S
C2359 H2335 0.950 . S
C2359 C2358 1.524 . S
C2359 C2360 1.415 . S
C2360 H2336 0.950 . S
C2360 C2355 1.363 . S
C2360 C2359 1.415 . S
C2361 H2337 0.951 . S
C2361 C2362 1.366 . S
C2361 C2363 1.388 . S
C2362 C2361 1.366 . S
C2362 C2366 1.385 1_545 S
C2363 H2338 0.951 . S
C2363 C2361 1.388 . S
C2363 C2364 1.361 1_545 S
C2364 C2363 1.361 1_565 S
C2364 C2365 1.418 . S
C2364 C2367 1.499 . S
C2365 H2339 0.950 . S
C2365 C2364 1.418 . S
C2365 C2366 1.374 . S
C2366 H2340 0.950 . S
C2366 C2362 1.385 1_565 S
C2366 C2365 1.374 . S
C2367 C2364 1.499 . S
C2367 C2368 1.373 1_565 S
C2367 C2369 1.389 . S
C2368 H2341 0.950 . S
C2368 C2354 1.377 1_554 S
C2368 C2367 1.373 1_545 S
C2369 C2353 1.377 1_554 S
C2369 C2367 1.389 . S
C2369 C2370 1.524 . S
C2370 C2369 1.524 . S
C2370 C2371 1.397 . S
C2370 C2375 1.363 . S
C2371 H2342 0.950 . S
C2371 C2370 1.397 . S
C2371 C2372 1.334 . S
C2372 H2343 0.950 . S
C2372 C2371 1.334 . S
C2372 C2373 1.287 . S
C2373 C2372 1.287 . S
C2373 C2374 1.524 . S
C2373 H2376 0.999 . S
C2374 H2344 0.950 . S
C2374 C2373 1.524 . S
C2374 C2375 1.415 . S
C2375 H2345 0.950 . S
C2375 C2370 1.363 . S
C2375 C2374 1.415 . S
H2376 C2373 0.999 . S
H2377 C2358 0.913 . S
H2378 C2396 0.951 . S
H2379 C2398 0.951 . S
H2380 C2400 0.950 . S
H2381 C2401 0.950 . S
H2382 C2403 0.950 . S
H2383 C2406 0.950 . S
H2384 C2407 0.950 . S
H2385 C2409 0.950 . S
H2386 C2410 0.950 . S
H2387 C2411 0.951 . S
H2388 C2413 0.951 . S
H2389 C2415 0.950 . S
H2390 C2416 0.950 . S
H2391 C2418 0.950 . S
H2392 C2421 0.950 . S
H2393 C2422 0.950 . S
H2394 C2424 0.950 . S
H2395 C2425 0.950 . S
C2396 H2378 0.951 . S
C2396 C2397 1.366 1_655 S
C2396 C2398 1.388 . S
C2397 C2396 1.366 1_455 S
C2397 C2401 1.385 . S
C2398 H2379 0.951 . S
C2398 C2396 1.388 . S
C2398 C2399 1.369 . S
C2399 C2398 1.369 . S
C2399 C2400 1.409 1_655 S
C2399 C2402 1.499 . S
C2400 H2380 0.950 . S
C2400 C2399 1.409 1_455 S
C2400 C2401 1.374 . S
C2401 H2381 0.950 . S
C2401 C2397 1.385 . S
C2401 C2400 1.374 . S
C2402 C2399 1.499 . S
C2402 C2403 1.345 1_655 S
C2402 C2404 1.416 . S
C2403 H2382 0.950 . S
C2403 C2402 1.345 1_455 S
C2403 C2419 1.377 1_556 S
C2404 C2402 1.416 . S
C2404 C2405 1.524 . S
C2404 C2418 1.377 1_556 S
C2405 C2404 1.524 . S
C2405 C2406 1.397 . S
C2405 C2410 1.363 . S
C2406 H2383 0.950 . S
C2406 C2405 1.397 . S
C2406 C2407 1.334 . S
C2407 H2384 0.950 . S
C2407 C2406 1.334 . S
C2407 C2408 1.287 . S
C2408 C2407 1.287 . S
C2408 C2409 1.524 . S
C2408 H2427 0.913 . S
C2409 H2385 0.950 . S
C2409 C2408 1.524 . S
C2409 C2410 1.415 . S
C2410 H2386 0.950 . S
C2410 C2405 1.363 . S
C2410 C2409 1.415 . S
C2411 H2387 0.951 . S
C2411 C2412 1.366 1_455 S
C2411 C2413 1.388 . S
C2412 C2411 1.366 1_655 S
C2412 C2416 1.385 . S
C2413 H2388 0.951 . S
C2413 C2411 1.388 . S
C2413 C2414 1.369 . S
C2414 C2413 1.369 . S
C2414 C2415 1.409 1_455 S
C2414 C2417 1.499 . S
C2415 H2389 0.950 . S
C2415 C2414 1.409 1_655 S
C2415 C2416 1.374 . S
C2416 H2390 0.950 . S
C2416 C2412 1.385 . S
C2416 C2415 1.374 . S
C2417 C2414 1.499 . S
C2417 C2418 1.345 1_455 S
C2417 C2419 1.416 . S
C2418 H2391 0.950 . S
C2418 C2404 1.377 1_554 S
C2418 C2417 1.345 1_655 S
C2419 C2403 1.377 1_554 S
C2419 C2417 1.416 . S
C2419 C2420 1.524 . S
C2420 C2419 1.524 . S
C2420 C2421 1.397 . S
C2420 C2425 1.363 . S
C2421 H2392 0.950 . S
C2421 C2420 1.397 . S
C2421 C2422 1.334 . S
C2422 H2393 0.950 . S
C2422 C2421 1.334 . S
C2422 C2423 1.287 . S
C2423 C2422 1.287 . S
C2423 C2424 1.524 . S
C2423 H2426 0.999 . S
C2424 H2394 0.950 . S
C2424 C2423 1.524 . S
C2424 C2425 1.415 . S
C2425 H2395 0.950 . S
C2425 C2420 1.363 . S
C2425 C2424 1.415 . S
H2426 C2423 0.999 . S
H2427 C2408 0.913 . S
H2428 C2446 0.951 . S
H2429 C2448 0.951 . S
H2430 C2450 0.950 . S
H2431 C2451 0.950 . S
H2432 C2453 0.950 . S
H2433 C2456 0.950 . S
H2434 C2457 0.950 . S
H2435 C2459 0.950 . S
H2436 C2460 0.950 . S
H2437 C2461 0.951 . S
H2438 C2463 0.951 . S
H2439 C2465 0.950 . S
H2440 C2466 0.950 . S
H2441 C2468 0.950 . S
H2442 C2471 0.950 . S
H2443 C2472 0.950 . S
H2444 C2474 0.950 . S
H2445 C2475 0.950 . S
C2446 H2428 0.951 . S
C2446 C2447 1.366 . S
C2446 C2448 1.388 . S
C2447 C2446 1.366 . S
C2447 C2451 1.385 1_565 S
C2448 H2429 0.951 . S
C2448 C2446 1.388 . S
C2448 C2449 1.366 . S
C2449 C2448 1.366 . S
C2449 C2450 1.414 1_565 S
C2449 C2452 1.499 . S
C2450 H2430 0.950 . S
C2450 C2449 1.414 1_545 S
C2450 C2451 1.374 . S
C2451 H2431 0.950 . S
C2451 C2447 1.385 1_545 S
C2451 C2450 1.374 . S
C2452 C2449 1.499 . S
C2452 C2453 1.373 1_565 S
C2452 C2454 1.389 . S
C2453 H2432 0.950 . S
C2453 C2452 1.373 1_545 S
C2453 C2469 1.377 1_554 S
C2454 C2452 1.389 . S
C2454 C2455 1.524 . S
C2454 C2468 1.377 1_554 S
C2455 C2454 1.524 . S
C2455 C2456 1.397 . S
C2455 C2460 1.363 . S
C2456 H2433 0.950 . S
C2456 C2455 1.397 . S
C2456 C2457 1.334 . S
C2457 H2434 0.950 . S
C2457 C2456 1.334 . S
C2457 C2458 1.287 . S
C2458 C2457 1.287 . S
C2458 C2459 1.524 . S
C2458 H2477 0.913 . S
C2459 H2435 0.950 . S
C2459 C2458 1.524 . S
C2459 C2460 1.415 . S
C2460 H2436 0.950 . S
C2460 C2455 1.363 . S
C2460 C2459 1.415 . S
C2461 H2437 0.951 . S
C2461 C2462 1.366 . S
C2461 C2463 1.388 . S
C2462 C2461 1.366 . S
C2462 C2466 1.385 1_545 S
C2463 H2438 0.951 . S
C2463 C2461 1.388 . S
C2463 C2464 1.366 . S
C2464 C2463 1.366 . S
C2464 C2465 1.414 1_545 S
C2464 C2467 1.499 . S
C2465 H2439 0.950 . S
C2465 C2464 1.414 1_565 S
C2465 C2466 1.374 . S
C2466 H2440 0.950 . S
C2466 C2462 1.385 1_565 S
C2466 C2465 1.374 . S
C2467 C2464 1.499 . S
C2467 C2468 1.373 1_545 S
C2467 C2469 1.389 . S
C2468 H2441 0.950 . S
C2468 C2454 1.377 1_556 S
C2468 C2467 1.373 1_565 S
C2469 C2453 1.377 1_556 S
C2469 C2467 1.389 . S
C2469 C2470 1.524 . S
C2470 C2469 1.524 . S
C2470 C2471 1.397 . S
C2470 C2475 1.363 . S
C2471 H2442 0.950 . S
C2471 C2470 1.397 . S
C2471 C2472 1.334 . S
C2472 H2443 0.950 . S
C2472 C2471 1.334 . S
C2472 C2473 1.287 . S
C2473 C2472 1.287 . S
C2473 C2474 1.524 . S
C2473 H2476 0.999 . S
C2474 H2444 0.950 . S
C2474 C2473 1.524 . S
C2474 C2475 1.415 . S
C2475 H2445 0.950 . S
C2475 C2470 1.363 . S
C2475 C2474 1.415 . S
H2476 C2473 0.999 . S
H2477 C2458 0.913 . S
H2478 C2496 0.951 . S
H2479 C2498 0.951 . S
H2480 C2500 0.950 . S
H2481 C2501 0.950 . S
H2482 C2503 0.950 . S
H2483 C2506 0.950 1_455 S
H2484 C2507 0.950 1_455 S
H2485 C2509 0.950 . S
H2486 C2510 0.950 . S
H2487 C2511 0.951 . S
H2488 C2513 0.951 . S
H2489 C2515 0.950 . S
H2490 C2516 0.950 . S
H2491 C2518 0.950 . S
H2492 C2521 0.950 1_655 S
H2493 C2522 0.950 1_655 S
H2494 C2524 0.950 . S
H2495 C2525 0.950 . S
C2496 H2478 0.951 . S
C2496 C2497 1.366 . S
C2496 C2498 1.388 . S
C2497 C2496 1.366 . S
C2497 C2501 1.385 1_655 S
C2498 H2479 0.951 . S
C2498 C2496 1.388 . S
C2498 C2499 1.381 . S
C2499 C2498 1.381 . S
C2499 C2500 1.399 1_655 S
C2499 C2502 1.497 1_655 S
C2500 H2480 0.950 . S
C2500 C2499 1.399 1_455 S
C2500 C2501 1.374 . S
C2501 H2481 0.950 . S
C2501 C2497 1.385 1_455 S
C2501 C2500 1.374 . S
C2502 C2499 1.497 1_455 S
C2502 C2503 1.387 . S
C2502 C2504 1.376 1_455 S
C2503 H2482 0.950 . S
C2503 C2502 1.387 . S
C2503 C2519 1.377 1_556 S
C2504 C2502 1.376 1_655 S
C2504 C2505 1.524 . S
C2504 C2518 1.377 1_556 S
C2505 C2504 1.524 . S
C2505 C2506 1.397 . S
C2505 C2510 1.363 . S
C2506 H2483 0.950 1_655 S
C2506 C2505 1.397 . S
C2506 C2507 1.334 . S
C2507 H2484 0.950 1_655 S
C2507 C2506 1.334 . S
C2507 C2508 1.287 . S
C2508 C2507 1.287 . S
C2508 C2509 1.524 . S
C2508 H2527 0.913 . S
C2509 H2485 0.950 . S
C2509 C2508 1.524 . S
C2509 C2510 1.415 . S
C2510 H2486 0.950 . S
C2510 C2505 1.363 . S
C2510 C2509 1.415 . S
C2511 H2487 0.951 . S
C2511 C2512 1.366 . S
C2511 C2513 1.388 . S
C2512 C2511 1.366 . S
C2512 C2516 1.385 1_455 S
C2513 H2488 0.951 . S
C2513 C2511 1.388 . S
C2513 C2514 1.381 . S
C2514 C2513 1.381 . S
C2514 C2515 1.399 1_455 S
C2514 C2517 1.497 1_455 S
C2515 H2489 0.950 . S
C2515 C2514 1.399 1_655 S
C2515 C2516 1.374 . S
C2516 H2490 0.950 . S
C2516 C2512 1.385 1_655 S
C2516 C2515 1.374 . S
C2517 C2514 1.497 1_655 S
C2517 C2518 1.387 . S
C2517 C2519 1.376 1_655 S
C2518 H2491 0.950 . S
C2518 C2504 1.377 1_554 S
C2518 C2517 1.387 . S
C2519 C2503 1.377 1_554 S
C2519 C2517 1.376 1_455 S
C2519 C2520 1.524 . S
C2520 C2519 1.524 . S
C2520 C2521 1.397 . S
C2520 C2525 1.363 . S
C2521 H2492 0.950 1_455 S
C2521 C2520 1.397 . S
C2521 C2522 1.334 . S
C2522 H2493 0.950 1_455 S
C2522 C2521 1.334 . S
C2522 C2523 1.287 . S
C2523 C2522 1.287 . S
C2523 C2524 1.524 . S
C2523 H2526 0.999 . S
C2524 H2494 0.950 . S
C2524 C2523 1.524 . S
C2524 C2525 1.415 . S
C2525 H2495 0.950 . S
C2525 C2520 1.363 . S
C2525 C2524 1.415 . S
H2526 C2523 0.999 . S
H2527 C2508 0.913 . S
C547 C73 0.776 . S
C562 C7 0.778 . S
C597 C106 0.776 . S
C612 C40 0.777 . S
C647 C205 0.776 . S
C662 C139 0.778 . S
C697 C172 0.776 . S
C712 C238 0.777 . S
C747 C271 0.777 . S
C762 C337 0.776 . S
C797 C304 0.776 . S
C812 C370 0.777 . S
C847 C469 0.778 . S
C862 C403 0.777 . S
C897 C502 0.778 . S
C912 C436 0.777 . S
C947 C18 1.161 . S
C962 C249 1.161 . S
C997 C150 1.161 . S
C1012 C51 1.161 . S
C1047 C183 1.161 . S
C1062 C84 1.161 . S
C1097 C216 1.161 . S
C1112 C117 1.161 . S
C1147 C513 1.161 . S
C1162 C282 1.161 . S
C1197 C414 1.161 . S
C1212 C315 1.161 . S
C1247 C447 1.161 . S
C1262 C348 1.161 . S
C1297 C480 1.161 . S
C1312 C381 1.161 . S
C1347 C21 0.620 . S
C1362 N365 0.524 . S
C1397 C54 0.616 . S
C1412 N266 0.522 . S
C1447 C87 0.616 . S
C1462 N299 0.521 . S
C1497 N332 0.522 . S
C1512 C120 0.618 . S
C1547 C153 0.619 . S
C1562 N431 0.523 . S
C1597 C186 0.620 . S
C1612 N464 0.524 . S
C1647 C219 0.620 . S
C1662 N497 0.524 . S
C1697 C252 0.620 . S
C1712 N398 0.524 . S
C1747 N101 0.521 . S
C1762 C285 0.616 . S
C1797 N2 0.521 . S
C1812 C318 0.616 . S
C1847 N35 0.521 . S
C1862 C351 0.616 . S
C1897 C384 0.616 . S
C1912 N68 0.521 . S
C1947 C417 0.616 . S
C1962 N167 0.521 . S
C1997 C450 0.620 . S
C2012 N200 0.524 . S
C2047 C483 0.620 . S
C2062 N233 0.524 . S
C2097 C516 0.616 . S
C2112 N134 0.521 . S
C2147 N145 1.643 . S
C2162 N13 1.645 . S
C2197 N178 1.643 . S
C2212 N46 1.644 . S
C2247 N79 1.643 . S
C2262 N211 1.644 . S
C2297 N244 1.643 . S
C2312 N112 1.645 . S
C2347 N277 1.644 . S
C2362 N409 1.643 . S
C2397 N442 1.644 . S
C2412 N310 1.644 . S
C2447 N475 1.644 . S
C2462 N343 1.644 . S
C2497 N508 1.643 . S
C2512 N376 1.645 . S
