# Generated by pormake.
# Topology msp, (4)-cn, num edge types: 1
# Building blocks:
#     Node 0, Type 0, BuildingBlock: QUQFOY_clean_sbu_1, # of connection points: 4
#     Node 1, Type 0, BuildingBlock: QUQFOY_clean_sbu_1, # of connection points: 4
#     Node 2, Type 0, BuildingBlock: QUQFOY_clean_sbu_1, # of connection points: 4
#     Node 3, Type 0, BuildingBlock: QUQFOY_clean_sbu_1, # of connection points: 4
#     Node 4, Type 0, BuildingBlock: QUQFOY_clean_sbu_1, # of connection points: 4
#     Node 5, Type 0, BuildingBlock: QUQFOY_clean_sbu_1, # of connection points: 4
#     Node 6, Type 0, BuildingBlock: QUQFOY_clean_sbu_1, # of connection points: 4
#     Node 7, Type 0, BuildingBlock: QUQFOY_clean_sbu_1, # of connection points: 4
#     Edge 8, Type (0, 0), BuildingBlock: FUNLAD_clean_linker_0, # of connection points: 2
#     Edge 9, Type (0, 0), BuildingBlock: FUNLAD_clean_linker_0, # of connection points: 2
#     Edge 10, Type (0, 0), BuildingBlock: FUNLAD_clean_linker_0, # of connection points: 2
#     Edge 11, Type (0, 0), BuildingBlock: FUNLAD_clean_linker_0, # of connection points: 2
#     Edge 12, Type (0, 0), BuildingBlock: FUNLAD_clean_linker_0, # of connection points: 2
#     Edge 13, Type (0, 0), BuildingBlock: FUNLAD_clean_linker_0, # of connection points: 2
#     Edge 14, Type (0, 0), BuildingBlock: FUNLAD_clean_linker_0, # of connection points: 2
#     Edge 15, Type (0, 0), BuildingBlock: FUNLAD_clean_linker_0, # of connection points: 2
#     Edge 16, Type (0, 0), BuildingBlock: FUNLAD_clean_linker_0, # of connection points: 2
#     Edge 17, Type (0, 0), BuildingBlock: FUNLAD_clean_linker_0, # of connection points: 2
#     Edge 18, Type (0, 0), BuildingBlock: FUNLAD_clean_linker_0, # of connection points: 2
#     Edge 19, Type (0, 0), BuildingBlock: FUNLAD_clean_linker_0, # of connection points: 2
#     Edge 20, Type (0, 0), BuildingBlock: FUNLAD_clean_linker_0, # of connection points: 2
#     Edge 21, Type (0, 0), BuildingBlock: FUNLAD_clean_linker_0, # of connection points: 2
#     Edge 22, Type (0, 0), BuildingBlock: FUNLAD_clean_linker_0, # of connection points: 2
#     Edge 23, Type (0, 0), BuildingBlock: FUNLAD_clean_linker_0, # of connection points: 2
# Relax obj value: 0.070
# Max RMSD: 0.125
# Mean RMSD: 0.125
data_MOF--net-msp--node1-QUQFOY_clean_sbu_1--edge1-FUNLAD_clean_linker_0
_symmetry_space_group_name_H-M    P1
_symmetry_Int_Tables_number       1
_symmetry_cell_setting            triclinic
loop_
_symmetry_equiv_pos_as_xyz
'x, y, z'
_cell_length_a     27.692099
_cell_length_b     43.378765
_cell_length_c     39.769825
_cell_angle_alpha  89.679686
_cell_angle_beta   94.04237
_cell_angle_gamma 90.125156
loop_
_atom_site_label
_atom_site_type_symbol
_atom_site_fract_x
_atom_site_fract_y
_atom_site_fract_z
_atom_type_partial_charge
O0 O 0.06554 0.30506 0.33608 0.0
Cd1 Cd 0.01409 0.30056 0.37019 0.0
Cd2 Cd 0.06675 0.352 0.39779 0.0
O3 O 0.10548 0.34621 0.35525 0.0
O4 O 0.97142 0.26832 0.34817 0.0
O5 O 0.94577 0.31532 0.35779 0.0
C6 C 0.9372 0.28834 0.34515 0.0
C7 C 0.05109 0.40153 0.41869 0.0
C8 C 0.09976 0.32434 0.33408 0.0
C9 C 0.06891 0.2913 0.43682 0.0
O10 O 0.08212 0.31928 0.43467 0.0
O11 O 0.03989 0.27937 0.41434 0.0
O12 O 0.09425 0.39048 0.41936 0.0
O13 O 0.01647 0.38495 0.40481 0.0
O14 O 0.43742 0.30339 0.6645 0.0
Cd15 Cd 0.48474 0.29806 0.6278 0.0
Cd16 Cd 0.43211 0.34921 0.60158 0.0
O17 O 0.39456 0.3433 0.64476 0.0
O18 O 0.52802 0.2654 0.64845 0.0
O19 O 0.5541 0.31215 0.63716 0.0
C20 C 0.56282 0.28513 0.64994 0.0
C21 C 0.45537 0.39796 0.58195 0.0
C22 C 0.40285 0.32222 0.66684 0.0
C23 C 0.42525 0.28931 0.5627 0.0
O24 O 0.41378 0.31757 0.56452 0.0
O25 O 0.45437 0.27696 0.58494 0.0
O26 O 0.41064 0.38951 0.58066 0.0
O27 O 0.4871 0.37918 0.59584 0.0
O28 O 0.93461 0.73099 0.66291 0.0
Cd29 Cd 0.98533 0.73498 0.62823 0.0
Cd30 Cd 0.93261 0.6845 0.60093 0.0
O31 O 0.89424 0.69004 0.64369 0.0
O32 O 0.03236 0.76441 0.65088 0.0
O33 O 0.05192 0.71676 0.63826 0.0
C34 C 0.0641 0.74272 0.65222 0.0
C35 C 0.94841 0.63512 0.57972 0.0
C36 C 0.9003 0.71179 0.66499 0.0
C37 C 0.93021 0.74539 0.56221 0.0
O38 O 0.91701 0.7174 0.56426 0.0
O39 O 0.95945 0.75719 0.58466 0.0
O40 O 0.90519 0.64608 0.57922 0.0
O41 O 0.98302 0.65172 0.59359 0.0
O42 O 0.56036 0.72914 0.33527 0.0
Cd43 Cd 0.51312 0.73539 0.37184 0.0
Cd44 Cd 0.5657 0.68459 0.39934 0.0
O45 O 0.60344 0.68975 0.35616 0.0
O46 O 0.46999 0.76777 0.35034 0.0
O47 O 0.44362 0.72137 0.36281 0.0
C48 C 0.43507 0.74813 0.34932 0.0
C49 C 0.54265 0.63608 0.41981 0.0
C50 C 0.59508 0.71031 0.33351 0.0
C51 C 0.57277 0.74525 0.43678 0.0
O52 O 0.58391 0.71688 0.43573 0.0
O53 O 0.54386 0.75726 0.41417 0.0
O54 O 0.58732 0.64465 0.42108 0.0
O55 O 0.51086 0.65461 0.40554 0.0
O56 O 0.55521 0.8072 0.83088 0.0
Cd57 Cd 0.50672 0.80124 0.8668 0.0
Cd58 Cd 0.56057 0.8509 0.89547 0.0
O59 O 0.59662 0.84722 0.85147 0.0
O60 O 0.46027 0.77147 0.84405 0.0
O61 O 0.43878 0.8181 0.859 0.0
C62 C 0.42736 0.79235 0.84432 0.0
C63 C 0.54628 0.89963 0.91899 0.0
C64 C 0.58945 0.8265 0.82909 0.0
C65 C 0.5663 0.78833 0.93068 0.0
O66 O 0.5787 0.81655 0.93006 0.0
O67 O 0.53586 0.77744 0.9084 0.0
O68 O 0.58926 0.88857 0.91811 0.0
O69 O 0.51093 0.88344 0.90546 0.0
O70 O 0.94421 0.80862 0.17486 0.0
Cd71 Cd 0.98939 0.80053 0.13744 0.0
Cd72 Cd 0.93441 0.85056 0.10808 0.0
O73 O 0.89975 0.84688 0.15273 0.0
O74 O 0.03199 0.76813 0.15949 0.0
O75 O 0.05978 0.81345 0.14452 0.0
C76 C 0.06773 0.78704 0.15896 0.0
C77 C 0.94964 0.89907 0.08367 0.0
C78 C 0.90938 0.8274 0.17632 0.0
C79 C 0.92558 0.78783 0.07479 0.0
O80 O 0.91467 0.81628 0.07427 0.0
O81 O 0.9559 0.77695 0.09725 0.0
O82 O 0.90637 0.88851 0.08528 0.0
O83 O 0.98474 0.88253 0.09705 0.0
O84 O 0.44437 0.22733 0.16994 0.0
Cd85 Cd 0.49169 0.23379 0.13335 0.0
Cd86 Cd 0.43845 0.18251 0.10614 0.0
O87 O 0.40384 0.18643 0.15071 0.0
O88 O 0.53469 0.26636 0.15442 0.0
O89 O 0.56149 0.22028 0.14199 0.0
C90 C 0.56992 0.24706 0.15516 0.0
C91 C 0.45325 0.13363 0.08311 0.0
C92 C 0.41096 0.20758 0.1726 0.0
C93 C 0.42956 0.24446 0.06986 0.0
O94 O 0.41806 0.21611 0.07121 0.0
O95 O 0.46031 0.25604 0.09145 0.0
O96 O 0.41009 0.14424 0.08459 0.0
O97 O 0.48854 0.15035 0.09581 0.0
O98 O 0.05245 0.22316 0.82519 0.0
Cd99 Cd 0.00658 0.2301 0.86247 0.0
Cd100 Cd 0.06206 0.18009 0.891 0.0
O101 O 0.09705 0.18464 0.84656 0.0
O102 O 0.96378 0.26264 0.84097 0.0
O103 O 0.93646 0.21683 0.85467 0.0
C104 C 0.92829 0.24349 0.84087 0.0
C105 C 0.04678 0.13123 0.91452 0.0
C106 C 0.08748 0.20458 0.82342 0.0
C107 C 0.06938 0.24224 0.92563 0.0
O108 O 0.08109 0.21392 0.92551 0.0
O109 O 0.0389 0.25321 0.90335 0.0
O110 O 0.09005 0.14188 0.91326 0.0
O111 O 0.01172 0.14787 0.90124 0.0
C112 C 0.99459 0.44138 0.43982 0.0
C113 C 0.04192 0.43149 0.43504 0.0
C114 C 0.98659 0.46853 0.45763 0.0
C115 C 0.02588 0.4864 0.47109 0.0
C116 C 0.07302 0.47694 0.46527 0.0
C117 C 0.08099 0.44979 0.4477 0.0
C118 C 0.01964 0.51524 0.4907 0.0
C119 C 0.97999 0.52166 0.50728 0.0
C120 C 0.97373 0.55047 0.52694 0.0
C121 C 0.9266 0.55985 0.53287 0.0
C122 C 0.9186 0.58693 0.55054 0.0
C123 C 0.95763 0.60526 0.56319 0.0
H124 H 0.04999 0.56157 0.5374 0.0
C125 C 0.00498 0.59547 0.55827 0.0
C126 C 0.01301 0.56839 0.54035 0.0
H127 H 0.03586 0.60897 0.56781 0.0
H128 H 0.96368 0.42791 0.43026 0.0
H129 H 0.94961 0.47543 0.46049 0.0
H130 H 0.104 0.49032 0.47491 0.0
H131 H 0.11795 0.44298 0.44439 0.0
H132 H 0.04964 0.53143 0.49191 0.0
H133 H 0.95 0.50546 0.50608 0.0
H134 H 0.89563 0.54643 0.52325 0.0
H135 H 0.88162 0.59366 0.55396 0.0
C136 C 0.56387 0.58765 0.45242 0.0
C137 C 0.52849 0.60669 0.4359 0.0
C138 C 0.55072 0.56092 0.46949 0.0
C139 C 0.50166 0.55259 0.47064 0.0
C140 C 0.46646 0.57121 0.45333 0.0
C141 C 0.47963 0.59799 0.43629 0.0
C142 C 0.48566 0.52447 0.48883 0.0
C143 C 0.51272 0.50988 0.5137 0.0
C144 C 0.49666 0.48175 0.53182 0.0
C145 C 0.53183 0.46288 0.54882 0.0
C146 C 0.51857 0.43603 0.56568 0.0
C147 C 0.46964 0.42749 0.56622 0.0
H148 H 0.41902 0.48788 0.52155 0.0
C149 C 0.43432 0.4468 0.55007 0.0
C150 C 0.44756 0.4736 0.53317 0.0
H151 H 0.39623 0.44109 0.55018 0.0
H152 H 0.60191 0.5935 0.45244 0.0
H153 H 0.5793 0.54685 0.48137 0.0
H154 H 0.42844 0.56529 0.45338 0.0
H155 H 0.45143 0.61206 0.4238 0.0
H156 H 0.44968 0.51589 0.48141 0.0
H157 H 0.54871 0.51842 0.52111 0.0
H158 H 0.56989 0.46867 0.54862 0.0
H159 H 0.54674 0.42176 0.57789 0.0
C160 C 0.50839 0.09404 0.05988 0.0
C161 C 0.46149 0.1039 0.066 0.0
C162 C 0.51538 0.06689 0.04182 0.0
C163 C 0.47549 0.04897 0.02943 0.0
C164 C 0.42883 0.05849 0.03645 0.0
C165 C 0.42186 0.08562 0.05429 0.0
C166 C 0.48057 0.02 0.00978 0.0
C167 C 0.51956 1.01311 0.99269 0.0
C168 C 0.52454 0.98415 0.97303 0.0
C169 C 0.5712 0.97431 0.96644 0.0
C170 C 0.57803 0.94719 0.94853 0.0
C171 C 0.53826 0.92929 0.93629 0.0
H172 H 0.44785 0.97376 0.96365 0.0
C173 C 0.49138 0.93947 0.94201 0.0
C174 C 0.48453 0.96659 0.96016 0.0
H175 H 0.45994 0.92631 0.93279 0.0
H176 H 0.53972 0.10749 0.06869 0.0
H177 H 0.55209 0.06 0.03802 0.0
H178 H 0.39741 0.0451 0.02762 0.0
H179 H 0.3852 0.0924 0.05863 0.0
H180 H 0.45025 1.00408 0.00906 0.0
H181 H 0.54993 0.02899 0.99342 0.0
H182 H 0.60271 0.98743 0.97565 0.0
H183 H 0.61467 0.94016 0.9445 0.0
C184 C 0.00527 0.93821 0.05946 0.0
C185 C 0.95823 0.92852 0.06569 0.0
C186 C 0.01263 0.96509 0.04064 0.0
C187 C 0.97297 0.9829 0.0276 0.0
C188 C 0.92617 0.97355 0.03469 0.0
C189 C 0.91883 0.94668 0.05327 0.0
C190 C 0.97849 1.01163 0.00724 0.0
C191 C 0.01762 0.0182 0.99004 0.0
C192 C 0.0232 0.04698 0.96977 0.0
C193 C 0.07003 0.05634 0.96275 0.0
C194 C 0.07745 0.08332 0.94438 0.0
C195 C 0.0381 0.10159 0.93211 0.0
H196 H 0.94676 0.05809 0.96059 0.0
C197 C 0.99102 0.09186 0.9382 0.0
C198 C 0.98358 0.06487 0.9568 0.0
H199 H 0.95989 0.1053 0.92897 0.0
H200 H 0.03644 0.92485 0.06878 0.0
H201 H 0.04944 0.97187 0.03679 0.0
H202 H 0.89492 0.98686 0.02537 0.0
H203 H 0.88207 0.94002 0.05767 0.0
H204 H 0.94839 0.02766 0.00612 0.0
H205 H 0.04772 1.00216 0.99115 0.0
H206 H 0.10125 0.04296 0.97201 0.0
H207 H 0.11423 0.09 0.94008 0.0
C208 C 0.65132 0.23204 0.18207 0.0
C209 C 0.61705 0.25497 0.17294 0.0
C210 C 0.69309 0.23922 0.20247 0.0
C211 C 0.70139 0.26955 0.21407 0.0
C212 C 0.6683 0.29265 0.20347 0.0
C213 C 0.62644 0.28544 0.18338 0.0
C214 C 0.74394 0.2781 0.23709 0.0
C215 C 0.7663 0.25824 0.25921 0.0
C216 C 0.80846 0.26675 0.28263 0.0
C217 C 0.84056 0.24343 0.29423 0.0
C218 C 0.88157 0.25039 0.3153 0.0
C219 C 0.89113 0.28086 0.3257 0.0
H220 H 0.79228 0.31561 0.28659 0.0
C221 C 0.85799 0.30409 0.31531 0.0
C222 C 0.81704 0.29714 0.29396 0.0
H223 H 0.86425 0.32775 0.32302 0.0
H224 H 0.64523 0.20838 0.17428 0.0
H225 H 0.71863 0.22096 0.20908 0.0
H226 H 0.67408 0.31626 0.21159 0.0
H227 H 0.60093 0.30372 0.17659 0.0
H228 H 0.75599 0.30191 0.23638 0.0
H229 H 0.75412 0.23445 0.25991 0.0
H230 H 0.83455 0.21978 0.28632 0.0
H231 H 0.90621 0.2319 0.32299 0.0
C232 C 0.64288 0.30065 0.67848 0.0
C233 C 0.60959 0.27744 0.66835 0.0
C234 C 0.684 0.2936 0.69964 0.0
C235 C 0.69261 0.26313 0.71101 0.0
C236 C 0.66058 0.23981 0.6994 0.0
C237 C 0.61937 0.24687 0.67855 0.0
C238 C 0.73449 0.25464 0.7347 0.0
C239 C 0.75582 0.27436 0.75725 0.0
C240 C 0.79783 0.26585 0.78081 0.0
C241 C 0.83046 0.28905 0.79182 0.0
C242 C 0.87191 0.28188 0.81238 0.0
C243 C 0.88129 0.25135 0.8229 0.0
H244 H 0.7808 0.21711 0.78557 0.0
C245 C 0.84738 0.22831 0.81343 0.0
C246 C 0.80604 0.23545 0.79251 0.0
H247 H 0.85352 0.2046 0.82124 0.0
H248 H 0.63645 0.3244 0.67092 0.0
H249 H 0.70878 0.31207 0.707 0.0
H250 H 0.66667 0.2161 0.70732 0.0
H251 H 0.5946 0.22841 0.67102 0.0
H252 H 0.74712 0.23099 0.73401 0.0
H253 H 0.74327 0.29802 0.75797 0.0
H254 H 0.82468 0.31271 0.78362 0.0
H255 H 0.89718 0.30022 0.81943 0.0
C256 C 0.12251 0.77535 0.6873 0.0
C257 C 0.11147 0.74708 0.67139 0.0
C258 C 0.16494 0.77891 0.7081 0.0
C259 C 0.19733 0.75416 0.71366 0.0
C260 C 0.18722 0.72629 0.6967 0.0
C261 C 0.14464 0.7227 0.67591 0.0
C262 C 0.24228 0.7567 0.73638 0.0
C263 C 0.24776 0.77683 0.76219 0.0
C264 C 0.29286 0.77959 0.78473 0.0
C265 C 0.30253 0.80742 0.80188 0.0
C266 C 0.34547 0.81139 0.82219 0.0
C267 C 0.3795 0.78744 0.826 0.0
H268 H 0.31925 0.73294 0.77821 0.0
C269 C 0.36887 0.75914 0.81004 0.0
C270 C 0.32604 0.75519 0.78975 0.0
H271 H 0.39405 0.74006 0.81273 0.0
H272 H 0.09797 0.79473 0.68412 0.0
H273 H 0.17216 0.80116 0.71954 0.0
H274 H 0.21183 0.70696 0.70013 0.0
H275 H 0.13728 0.70064 0.66398 0.0
H276 H 0.2714 0.74094 0.73173 0.0
H277 H 0.21857 0.79255 0.76682 0.0
H278 H 0.27733 0.82648 0.79889 0.0
H279 H 0.3525 0.83345 0.8342 0.0
C280 C 0.35464 0.73232 0.32149 0.0
C281 C 0.38833 0.75558 0.33069 0.0
C282 C 0.31343 0.73904 0.30025 0.0
C283 C 0.30514 0.76921 0.28786 0.0
C284 C 0.33764 0.79263 0.29847 0.0
C285 C 0.37892 0.78589 0.31941 0.0
C286 C 0.26306 0.77735 0.26414 0.0
C287 C 0.24076 0.75711 0.2426 0.0
C288 C 0.19853 0.76531 0.21905 0.0
C289 C 0.16526 0.7421 0.20915 0.0
C290 C 0.12368 0.74903 0.18859 0.0
C291 C 0.11478 0.77929 0.17697 0.0
H292 H 0.21648 0.8137 0.21231 0.0
C293 C 0.14929 0.80228 0.18536 0.0
C294 C 0.19077 0.7954 0.20626 0.0
H295 H 0.14354 0.82579 0.17669 0.0
H296 H 0.36077 0.70877 0.32988 0.0
H297 H 0.28833 0.72053 0.29368 0.0
H298 H 0.33184 0.81613 0.28975 0.0
H299 H 0.40401 0.8044 0.32619 0.0
H300 H 0.25104 0.80116 0.26398 0.0
H301 H 0.25266 0.73329 0.24274 0.0
H302 H 0.17065 0.71867 0.2182 0.0
H303 H 0.09795 0.73072 0.18242 0.0
C304 C 0.38434 0.23645 0.2222 0.0
C305 C 0.37522 0.2133 0.1979 0.0
C306 C 0.34714 0.24771 0.2406 0.0
C307 C 0.29985 0.23608 0.2351 0.0
C308 C 0.29167 0.21107 0.21311 0.0
C309 C 0.32893 0.19983 0.19454 0.0
C310 C 0.25823 0.24989 0.25123 0.0
C311 C 0.25647 0.2799 0.26003 0.0
C312 C 0.21438 0.29382 0.2755 0.0
C313 C 0.22186 0.31898 0.29739 0.0
C314 C 0.18373 0.3307 0.3148 0.0
C315 C 0.13727 0.31759 0.31036 0.0
H316 H 0.1594 0.26404 0.25116 0.0
C317 C 0.12909 0.29412 0.28632 0.0
C318 C 0.16712 0.28239 0.26907 0.0
H319 H 0.09357 0.28381 0.28183 0.0
H320 H 0.4198 0.24701 0.22587 0.0
H321 H 0.35544 0.26596 0.25854 0.0
H322 H 0.25575 0.20125 0.20894 0.0
H323 H 0.32065 0.18194 0.17613 0.0
H324 H 0.22741 0.23499 0.25469 0.0
H325 H 0.28727 0.29483 0.25662 0.0
H326 H 0.25777 0.32865 0.30224 0.0
H327 H 0.1913 0.34881 0.33307 0.0
C328 C 0.31802 0.31968 0.68448 0.0
C329 C 0.36783 0.31538 0.69225 0.0
C330 C 0.28418 0.30552 0.70415 0.0
C331 C 0.29972 0.28707 0.73209 0.0
C332 C 0.34939 0.28517 0.74149 0.0
C333 C 0.38313 0.29887 0.72159 0.0
C334 C 0.2655 0.26894 0.75154 0.0
C335 C 0.22389 0.25696 0.73755 0.0
C336 C 0.18978 0.23881 0.75708 0.0
C337 C 0.14005 0.24074 0.74791 0.0
C338 C 0.10648 0.2272 0.7681 0.0
C339 C 0.12204 0.21088 0.79752 0.0
H340 H 0.24372 0.21739 0.79201 0.0
C341 C 0.1719 0.20644 0.80496 0.0
C342 C 0.20553 0.2204 0.785 0.0
H343 H 0.18501 0.19404 0.8275 0.0
H344 H 0.30517 0.33219 0.66196 0.0
H345 H 0.24605 0.30846 0.69693 0.0
H346 H 0.36228 0.2716 0.76325 0.0
H347 H 0.42133 0.29524 0.72824 0.0
H348 H 0.27617 0.26428 0.77788 0.0
H349 H 0.21317 0.26164 0.71122 0.0
H350 H 0.12698 0.25427 0.72616 0.0
H351 H 0.06826 0.23093 0.76166 0.0
C352 C 0.61675 0.79791 0.77949 0.0
C353 C 0.62569 0.82079 0.80412 0.0
C354 C 0.6541 0.78688 0.76107 0.0
C355 C 0.70137 0.79846 0.76689 0.0
C356 C 0.70944 0.82314 0.78934 0.0
C357 C 0.67203 0.83415 0.80793 0.0
C358 C 0.74302 0.78502 0.75045 0.0
C359 C 0.74486 0.75517 0.74107 0.0
C360 C 0.78673 0.7416 0.72499 0.0
C361 C 0.77904 0.71654 0.703 0.0
C362 C 0.81684 0.7051 0.68506 0.0
C363 C 0.8632 0.71841 0.68906 0.0
H364 H 0.84189 0.77155 0.74887 0.0
C365 C 0.87165 0.74183 0.71313 0.0
C366 C 0.83394 0.75327 0.73092 0.0
H367 H 0.90711 0.75229 0.71728 0.0
H368 H 0.58128 0.78743 0.77547 0.0
H369 H 0.64589 0.76889 0.7428 0.0
H370 H 0.74535 0.83292 0.79377 0.0
H371 H 0.68019 0.85183 0.8266 0.0
H372 H 0.77369 0.80009 0.74715 0.0
H373 H 0.71417 0.74011 0.74439 0.0
H374 H 0.74318 0.7067 0.6985 0.0
H375 H 0.80906 0.68702 0.66679 0.0
C376 C 0.82498 0.82569 0.19469 0.0
C377 C 0.87487 0.82165 0.20237 0.0
C378 C 0.79144 0.81188 0.21483 0.0
C379 C 0.80732 0.79404 0.24316 0.0
C380 C 0.85703 0.79262 0.25258 0.0
C381 C 0.89052 0.80601 0.23222 0.0
C382 C 0.77339 0.77588 0.26281 0.0
C383 C 0.73243 0.76313 0.2487 0.0
C384 C 0.69836 0.74495 0.2682 0.0
C385 C 0.64878 0.74614 0.25833 0.0
C386 C 0.61503 0.73249 0.27827 0.0
C387 C 0.63028 0.71676 0.30813 0.0
H388 H 0.75204 0.72482 0.30429 0.0
C389 C 0.6801 0.71309 0.31639 0.0
C390 C 0.71392 0.7272 0.29668 0.0
H391 H 0.69291 0.70119 0.33933 0.0
H392 H 0.81181 0.83756 0.17183 0.0
H393 H 0.75324 0.81448 0.20761 0.0
H394 H 0.87016 0.77956 0.27465 0.0
H395 H 0.92877 0.8026 0.23883 0.0
H396 H 0.78375 0.7718 0.28931 0.0
H397 H 0.72216 0.76719 0.22218 0.0
H398 H 0.63589 0.75915 0.23616 0.0
H399 H 0.57682 0.73563 0.27125 0.0
C400 C 0.37462 0.24272 0.55151 0.0
C401 C 0.39542 0.26977 0.53924 0.0
C402 C 0.3335 0.2299 0.5345 0.0
C403 C 0.3136 0.24353 0.50457 0.0
C404 C 0.33798 0.26821 0.49027 0.0
C405 C 0.37814 0.2816 0.50777 0.0
C406 C 0.26404 0.23605 0.49067 0.0
C407 C 0.22671 0.23628 0.51067 0.0
C408 C 0.1774 0.24416 0.49658 0.0
C409 C 0.15382 0.26926 0.5103 0.0
C410 C 0.1144 0.2831 0.49233 0.0
C411 C 0.09706 0.27133 0.46096 0.0
H412 H 0.17458 0.21098 0.45602 0.0
C413 C 0.11681 0.24385 0.44938 0.0
C414 C 0.15721 0.23056 0.46686 0.0
H415 H 0.10439 0.23447 0.42509 0.0
H416 H 0.38698 0.23333 0.57591 0.0
H417 H 0.3155 0.21065 0.54579 0.0
H418 H 0.32327 0.279 0.46713 0.0
H419 H 0.39344 0.30251 0.49791 0.0
H420 H 0.25675 0.23795 0.4635 0.0
H421 H 0.23407 0.23826 0.5378 0.0
H422 H 0.16876 0.28003 0.53327 0.0
H423 H 0.0999 0.30434 0.50167 0.0
C424 C 0.88121 0.79247 0.55007 0.0
C425 C 0.90191 0.76541 0.5382 0.0
C426 C 0.84057 0.80548 0.53257 0.0
C427 C 0.82106 0.79202 0.50257 0.0
C428 C 0.84557 0.76743 0.48862 0.0
C429 C 0.88523 0.75385 0.50659 0.0
C430 C 0.77164 0.79949 0.48828 0.0
C431 C 0.7341 0.79947 0.50811 0.0
C432 C 0.68466 0.79176 0.49407 0.0
C433 C 0.66001 0.76746 0.50886 0.0
C434 C 0.61983 0.75387 0.49157 0.0
C435 C 0.60277 0.76512 0.45979 0.0
H436 H 0.68317 0.82382 0.45208 0.0
C437 C 0.62389 0.79182 0.44693 0.0
C438 C 0.66502 0.80483 0.46375 0.0
H439 H 0.61172 0.80077 0.4223 0.0
H440 H 0.89309 0.80165 0.57456 0.0
H441 H 0.82253 0.8247 0.54359 0.0
H442 H 0.83121 0.75678 0.46543 0.0
H443 H 0.90045 0.73293 0.49704 0.0
H444 H 0.76459 0.79745 0.46114 0.0
H445 H 0.74122 0.7977 0.53529 0.0
H446 H 0.67447 0.7571 0.53229 0.0
H447 H 0.60429 0.73323 0.5019 0.0
C448 C 0.87222 0.77629 0.02338 0.0
C449 C 0.89313 0.76678 0.05489 0.0
C450 C 0.82949 0.76259 0.0099 0.0
C451 C 0.80638 0.73964 0.02816 0.0
C452 C 0.82958 0.72831 0.05817 0.0
C453 C 0.87315 0.74138 0.07114 0.0
C454 C 0.75441 0.73272 0.02025 0.0
C455 C 0.73442 0.73226 0.98852 0.0
C456 C 0.68271 0.73959 0.98018 0.0
C457 C 0.65933 0.72772 0.95061 0.0
C458 C 0.61641 0.74107 0.93681 0.0
C459 C 0.59732 0.76724 0.95178 0.0
H460 H 0.67779 0.7734 0.01987 0.0
C461 C 0.61822 0.7773 0.98298 0.0
C462 C 0.66028 0.76336 0.9973 0.0
H463 H 0.60447 0.79761 0.99481 0.0
H464 H 0.88665 0.79602 0.01057 0.0
H465 H 0.81213 0.77223 0.98696 0.0
H466 H 0.81227 0.71087 0.0728 0.0
H467 H 0.88812 0.73388 0.09573 0.0
H468 H 0.73119 0.73209 0.04118 0.0
H469 H 0.75764 0.73054 0.96767 0.0
H470 H 0.67612 0.70962 0.93685 0.0
H471 H 0.60143 0.73311 0.91249 0.0
C472 C 0.37589 0.2543 0.01808 0.0
C473 C 0.39728 0.2649 0.0489 0.0
C474 C 0.33328 0.26776 0.00402 0.0
C475 C 0.31078 0.29154 0.02107 0.0
C476 C 0.33445 0.30386 0.0503 0.0
C477 C 0.37792 0.29103 0.06379 0.0
C478 C 0.25891 0.29847 0.013 0.0
C479 C 0.23887 0.29825 0.98129 0.0
C480 C 0.18708 0.29093 0.97336 0.0
C481 C 0.16348 0.30263 0.94367 0.0
C482 C 0.12027 0.28929 0.93044 0.0
C483 C 0.10113 0.26327 0.94607 0.0
H484 H 0.18243 0.25741 0.01378 0.0
C485 C 0.12236 0.25335 0.97733 0.0
C486 C 0.16471 0.26731 0.9911 0.0
H487 H 0.10856 0.23316 0.98966 0.0
H488 H 0.38984 0.23399 0.00634 0.0
H489 H 0.31551 0.25737 0.98173 0.0
H490 H 0.31758 0.32196 0.064 0.0
H491 H 0.39328 0.29938 0.08785 0.0
H492 H 0.23576 0.29965 0.03393 0.0
H493 H 0.26204 0.29936 0.96035 0.0
H494 H 0.18024 0.32061 0.92945 0.0
H495 H 0.10502 0.29715 0.90605 0.0
loop_
_geom_bond_atom_site_label_1
_geom_bond_atom_site_label_2
_geom_bond_distance
_geom_bond_site_symmetry_2
_ccdc_geom_bond_type
O0 Cd1 2.223 . S
O0 C8 1.315 . S
Cd1 O0 2.223 . S
Cd1 O4 2.297 1_455 S
Cd1 O5 2.439 1_455 S
Cd1 O11 2.240 . S
Cd2 O3 2.240 . S
Cd2 O10 2.223 . S
Cd2 O12 2.297 . S
Cd2 O13 2.439 1_455 S
O3 Cd2 2.240 . S
O3 C8 1.279 . S
O4 Cd1 2.297 1_655 S
O4 C6 1.247 . S
O5 Cd1 2.439 1_655 S
O5 C6 1.208 . S
C6 O4 1.247 . S
C6 O5 1.208 . S
C7 O12 1.247 . S
C7 O13 1.208 1_455 S
C8 O0 1.315 . S
C8 O3 1.279 . S
C9 O10 1.315 . S
C9 O11 1.279 . S
O10 Cd2 2.223 . S
O10 C9 1.315 . S
O11 Cd1 2.240 . S
O11 C9 1.279 . S
O12 Cd2 2.297 . S
O12 C7 1.247 . S
O13 Cd2 2.439 1_655 S
O13 C7 1.208 1_655 S
O14 Cd15 2.223 . S
O14 C22 1.315 . S
Cd15 O14 2.223 . S
Cd15 O18 2.297 . S
Cd15 O19 2.439 . S
Cd15 O25 2.240 . S
Cd16 O17 2.240 . S
Cd16 O24 2.223 . S
Cd16 O26 2.297 . S
Cd16 O27 2.439 . S
O17 Cd16 2.240 . S
O17 C22 1.279 . S
O18 Cd15 2.297 . S
O18 C20 1.247 . S
O19 Cd15 2.439 . S
O19 C20 1.208 . S
C20 O18 1.247 . S
C20 O19 1.208 . S
C21 O26 1.247 . S
C21 O27 1.208 . S
C22 O14 1.315 . S
C22 O17 1.279 . S
C23 O24 1.315 . S
C23 O25 1.279 . S
O24 Cd16 2.223 . S
O24 C23 1.315 . S
O25 Cd15 2.240 . S
O25 C23 1.279 . S
O26 Cd16 2.297 . S
O26 C21 1.247 . S
O27 Cd16 2.439 . S
O27 C21 1.208 . S
O28 Cd29 2.223 . S
O28 C36 1.315 . S
Cd29 O28 2.223 . S
Cd29 O32 2.297 1_655 S
Cd29 O33 2.439 1_655 S
Cd29 O39 2.240 . S
Cd30 O31 2.240 . S
Cd30 O38 2.223 . S
Cd30 O40 2.297 . S
Cd30 O41 2.439 1_655 S
O31 Cd30 2.240 . S
O31 C36 1.279 . S
O32 Cd29 2.297 1_455 S
O32 C34 1.247 . S
O33 Cd29 2.439 1_455 S
O33 C34 1.208 . S
C34 O32 1.247 . S
C34 O33 1.208 . S
C35 O40 1.247 . S
C35 O41 1.208 1_655 S
C36 O28 1.315 . S
C36 O31 1.279 . S
C37 O38 1.315 . S
C37 O39 1.279 . S
O38 Cd30 2.223 . S
O38 C37 1.315 . S
O39 Cd29 2.240 . S
O39 C37 1.279 . S
O40 Cd30 2.297 . S
O40 C35 1.247 . S
O41 Cd30 2.439 1_455 S
O41 C35 1.208 1_455 S
O42 Cd43 2.223 . S
O42 C50 1.315 . S
Cd43 O42 2.223 . S
Cd43 O46 2.297 . S
Cd43 O47 2.439 . S
Cd43 O53 2.240 . S
Cd44 O45 2.240 . S
Cd44 O52 2.223 . S
Cd44 O54 2.297 . S
Cd44 O55 2.439 . S
O45 Cd44 2.240 . S
O45 C50 1.279 . S
O46 Cd43 2.297 . S
O46 C48 1.247 . S
O47 Cd43 2.439 . S
O47 C48 1.208 . S
C48 O46 1.247 . S
C48 O47 1.208 . S
C49 O54 1.247 . S
C49 O55 1.208 . S
C50 O42 1.315 . S
C50 O45 1.279 . S
C51 O52 1.315 . S
C51 O53 1.279 . S
O52 Cd44 2.223 . S
O52 C51 1.315 . S
O53 Cd43 2.240 . S
O53 C51 1.279 . S
O54 Cd44 2.297 . S
O54 C49 1.247 . S
O55 Cd44 2.439 . S
O55 C49 1.208 . S
O56 Cd57 2.223 . S
O56 C64 1.315 . S
Cd57 O56 2.223 . S
Cd57 O60 2.297 . S
Cd57 O61 2.439 . S
Cd57 O67 2.240 . S
Cd58 O59 2.240 . S
Cd58 O66 2.223 . S
Cd58 O68 2.297 . S
Cd58 O69 2.439 . S
O59 Cd58 2.240 . S
O59 C64 1.279 . S
O60 Cd57 2.297 . S
O60 C62 1.247 . S
O61 Cd57 2.439 . S
O61 C62 1.208 . S
C62 O60 1.247 . S
C62 O61 1.208 . S
C63 O68 1.247 . S
C63 O69 1.208 . S
C64 O56 1.315 . S
C64 O59 1.279 . S
C65 O66 1.315 . S
C65 O67 1.279 . S
O66 Cd58 2.223 . S
O66 C65 1.315 . S
O67 Cd57 2.240 . S
O67 C65 1.279 . S
O68 Cd58 2.297 . S
O68 C63 1.247 . S
O69 Cd58 2.439 . S
O69 C63 1.208 . S
O70 Cd71 2.223 . S
O70 C78 1.315 . S
Cd71 O70 2.223 . S
Cd71 O74 2.297 1_655 S
Cd71 O75 2.439 1_655 S
Cd71 O81 2.240 . S
Cd72 O73 2.240 . S
Cd72 O80 2.223 . S
Cd72 O82 2.297 . S
Cd72 O83 2.439 1_655 S
O73 Cd72 2.240 . S
O73 C78 1.279 . S
O74 Cd71 2.297 1_455 S
O74 C76 1.247 . S
O75 Cd71 2.439 1_455 S
O75 C76 1.208 . S
C76 O74 1.247 . S
C76 O75 1.208 . S
C77 O82 1.247 . S
C77 O83 1.208 1_655 S
C78 O70 1.315 . S
C78 O73 1.279 . S
C79 O80 1.315 . S
C79 O81 1.279 . S
O80 Cd72 2.223 . S
O80 C79 1.315 . S
O81 Cd71 2.240 . S
O81 C79 1.279 . S
O82 Cd72 2.297 . S
O82 C77 1.247 . S
O83 Cd72 2.439 1_455 S
O83 C77 1.208 1_455 S
O84 Cd85 2.223 . S
O84 C92 1.315 . S
Cd85 O84 2.223 . S
Cd85 O88 2.297 . S
Cd85 O89 2.439 . S
Cd85 O95 2.240 . S
Cd86 O87 2.240 . S
Cd86 O94 2.223 . S
Cd86 O96 2.297 . S
Cd86 O97 2.439 . S
O87 Cd86 2.240 . S
O87 C92 1.279 . S
O88 Cd85 2.297 . S
O88 C90 1.247 . S
O89 Cd85 2.439 . S
O89 C90 1.208 . S
C90 O88 1.247 . S
C90 O89 1.208 . S
C91 O96 1.247 . S
C91 O97 1.208 . S
C92 O84 1.315 . S
C92 O87 1.279 . S
C93 O94 1.315 . S
C93 O95 1.279 . S
O94 Cd86 2.223 . S
O94 C93 1.315 . S
O95 Cd85 2.240 . S
O95 C93 1.279 . S
O96 Cd86 2.297 . S
O96 C91 1.247 . S
O97 Cd86 2.439 . S
O97 C91 1.208 . S
O98 Cd99 2.223 . S
O98 C106 1.315 . S
Cd99 O98 2.223 . S
Cd99 O102 2.297 1_455 S
Cd99 O103 2.439 1_455 S
Cd99 O109 2.240 . S
Cd100 O101 2.240 . S
Cd100 O108 2.223 . S
Cd100 O110 2.297 . S
Cd100 O111 2.439 1_455 S
O101 Cd100 2.240 . S
O101 C106 1.279 . S
O102 Cd99 2.297 1_655 S
O102 C104 1.247 . S
O103 Cd99 2.439 1_655 S
O103 C104 1.208 . S
C104 O102 1.247 . S
C104 O103 1.208 . S
C105 O110 1.247 . S
C105 O111 1.208 1_455 S
C106 O98 1.315 . S
C106 O101 1.279 . S
C107 O108 1.315 . S
C107 O109 1.279 . S
O108 Cd100 2.223 . S
O108 C107 1.315 . S
O109 Cd99 2.240 . S
O109 C107 1.279 . S
O110 Cd100 2.297 . S
O110 C105 1.247 . S
O111 Cd100 2.439 1_655 S
O111 C105 1.208 1_655 S
C112 C113 1.386 1_655 S
C112 C114 1.383 . S
C112 H128 0.951 . S
C113 C112 1.386 1_455 S
C113 C117 1.383 . S
C114 C112 1.383 . S
C114 C115 1.402 1_655 S
C114 H129 0.951 . S
C115 C114 1.402 1_455 S
C115 C116 1.375 . S
C115 C118 1.481 . S
C116 C115 1.375 . S
C116 C117 1.367 . S
C116 H130 0.951 . S
C117 C113 1.383 . S
C117 C116 1.367 . S
C117 H131 0.950 . S
C118 C115 1.481 . S
C118 C119 1.297 1_455 S
C118 H132 0.950 . S
C119 C118 1.297 1_655 S
C119 C120 1.479 . S
C119 H133 0.950 . S
C120 C119 1.479 . S
C120 C121 1.375 . S
C120 C126 1.404 1_655 S
C121 C120 1.375 . S
C121 C122 1.369 . S
C121 H134 0.950 . S
C122 C121 1.369 . S
C122 C123 1.392 . S
C122 H135 0.951 . S
C123 C122 1.392 . S
C123 C125 1.384 1_655 S
H124 C126 0.949 . S
C125 C123 1.384 1_455 S
C125 C126 1.385 . S
C125 H127 0.950 . S
C126 C120 1.404 1_455 S
C126 H124 0.949 . S
C126 C125 1.385 . S
H127 C125 0.950 . S
H128 C112 0.951 . S
H129 C114 0.951 . S
H130 C116 0.951 . S
H131 C117 0.950 . S
H132 C118 0.950 . S
H133 C119 0.950 . S
H134 C121 0.950 . S
H135 C122 0.951 . S
C136 C137 1.386 . S
C136 C138 1.383 . S
C136 H152 0.951 . S
C137 C136 1.386 . S
C137 C141 1.383 . S
C138 C136 1.383 . S
C138 C139 1.402 . S
C138 H153 0.951 . S
C139 C138 1.402 . S
C139 C140 1.375 . S
C139 C142 1.481 . S
C140 C139 1.375 . S
C140 C141 1.367 . S
C140 H154 0.951 . S
C141 C137 1.383 . S
C141 C140 1.367 . S
C141 H155 0.950 . S
C142 C139 1.481 . S
C142 C143 1.297 . S
C142 H156 0.950 . S
C143 C142 1.297 . S
C143 C144 1.479 . S
C143 H157 0.950 . S
C144 C143 1.479 . S
C144 C145 1.375 . S
C144 C150 1.404 . S
C145 C144 1.375 . S
C145 C146 1.369 . S
C145 H158 0.950 . S
C146 C145 1.369 . S
C146 C147 1.392 . S
C146 H159 0.951 . S
C147 C146 1.392 . S
C147 C149 1.384 . S
H148 C150 0.949 . S
C149 C147 1.384 . S
C149 C150 1.385 . S
C149 H151 0.950 . S
C150 C144 1.404 . S
C150 H148 0.949 . S
C150 C149 1.385 . S
H151 C149 0.950 . S
H152 C136 0.951 . S
H153 C138 0.951 . S
H154 C140 0.951 . S
H155 C141 0.950 . S
H156 C142 0.950 . S
H157 C143 0.950 . S
H158 C145 0.950 . S
H159 C146 0.951 . S
C160 C161 1.386 . S
C160 C162 1.383 . S
C160 H176 0.951 . S
C161 C160 1.386 . S
C161 C165 1.383 . S
C162 C160 1.383 . S
C162 C163 1.402 . S
C162 H177 0.951 1_554 S
C163 C162 1.402 . S
C163 C164 1.375 . S
C163 C166 1.472 1_545 S
C164 C163 1.375 . S
C164 C165 1.367 . S
C164 H178 0.951 . S
C165 C161 1.383 . S
C165 C164 1.367 . S
C165 H179 0.950 . S
C166 C163 1.472 1_565 S
C166 C167 1.299 1_554 S
C166 H180 0.957 . S
C167 C166 1.299 1_556 S
C167 C168 1.479 . S
C167 H181 0.950 1_565 S
C168 C167 1.479 . S
C168 C169 1.375 . S
C168 C174 1.404 . S
C169 C168 1.375 . S
C169 C170 1.369 . S
C169 H182 0.950 . S
C170 C169 1.369 . S
C170 C171 1.392 . S
C170 H183 0.951 . S
C171 C170 1.392 . S
C171 C173 1.384 . S
H172 C174 0.949 1_554 S
C173 C171 1.384 . S
C173 C174 1.385 . S
C173 H175 0.950 . S
C174 C168 1.404 . S
C174 H172 0.949 1_556 S
C174 C173 1.385 . S
H175 C173 0.950 . S
H176 C160 0.951 . S
H177 C162 0.951 1_556 S
H178 C164 0.951 . S
H179 C165 0.950 . S
H180 C166 0.957 . S
H181 C167 0.950 1_545 S
H182 C169 0.950 . S
H183 C170 0.951 . S
C184 C185 1.386 1_455 S
C184 C186 1.383 . S
C184 H200 0.951 . S
C185 C184 1.386 1_655 S
C185 C189 1.383 . S
C186 C184 1.383 . S
C186 C187 1.402 1_455 S
C186 H201 0.951 . S
C187 C186 1.402 1_655 S
C187 C188 1.375 . S
C187 C190 1.481 1_554 S
C188 C187 1.375 . S
C188 C189 1.367 . S
C188 H202 0.949 1_554 S
C189 C185 1.383 . S
C189 C188 1.367 . S
C189 H203 0.950 . S
C190 C187 1.481 1_556 S
C190 C191 1.297 1_665 S
C190 H204 0.950 . S
C191 C190 1.297 1_445 S
C191 C192 1.479 . S
C191 H205 0.949 1_545 S
C192 C191 1.479 . S
C192 C193 1.375 . S
C192 C198 1.404 1_455 S
C193 C192 1.375 . S
C193 C194 1.369 . S
C193 H206 0.950 . S
C194 C193 1.369 . S
C194 C195 1.392 . S
C194 H207 0.951 . S
C195 C194 1.392 . S
C195 C197 1.384 1_455 S
H196 C198 0.949 . S
C197 C195 1.384 1_655 S
C197 C198 1.385 . S
C197 H199 0.950 . S
C198 C192 1.404 1_655 S
C198 H196 0.949 . S
C198 C197 1.385 . S
H199 C197 0.950 . S
H200 C184 0.951 . S
H201 C186 0.951 . S
H202 C188 0.949 1_556 S
H203 C189 0.950 . S
H204 C190 0.950 . S
H205 C191 0.949 1_565 S
H206 C193 0.950 . S
H207 C194 0.951 . S
C208 C209 1.386 . S
C208 C210 1.383 . S
C208 H224 0.951 . S
C209 C208 1.386 . S
C209 C213 1.383 . S
C210 C208 1.383 . S
C210 C211 1.402 . S
C210 H225 0.951 . S
C211 C210 1.402 . S
C211 C212 1.375 . S
C211 C214 1.481 . S
C212 C211 1.375 . S
C212 C213 1.367 . S
C212 H226 0.951 . S
C213 C209 1.383 . S
C213 C212 1.367 . S
C213 H227 0.950 . S
C214 C211 1.481 . S
C214 C215 1.297 . S
C214 H228 0.950 . S
C215 C214 1.297 . S
C215 C216 1.479 . S
C215 H229 0.950 . S
C216 C215 1.479 . S
C216 C217 1.375 . S
C216 C222 1.404 . S
C217 C216 1.375 . S
C217 C218 1.369 . S
C217 H230 0.950 . S
C218 C217 1.369 . S
C218 C219 1.392 . S
C218 H231 0.951 . S
C219 C218 1.392 . S
C219 C221 1.384 . S
H220 C222 0.949 . S
C221 C219 1.384 . S
C221 C222 1.385 . S
C221 H223 0.950 . S
C222 C216 1.404 . S
C222 H220 0.949 . S
C222 C221 1.385 . S
H223 C221 0.950 . S
H224 C208 0.951 . S
H225 C210 0.951 . S
H226 C212 0.951 . S
H227 C213 0.950 . S
H228 C214 0.950 . S
H229 C215 0.950 . S
H230 C217 0.950 . S
H231 C218 0.951 . S
C232 C233 1.386 . S
C232 C234 1.383 . S
C232 H248 0.951 . S
C233 C232 1.386 . S
C233 C237 1.383 . S
C234 C232 1.383 . S
C234 C235 1.402 . S
C234 H249 0.951 . S
C235 C234 1.402 . S
C235 C236 1.375 . S
C235 C238 1.481 . S
C236 C235 1.375 . S
C236 C237 1.367 . S
C236 H250 0.951 . S
C237 C233 1.383 . S
C237 C236 1.367 . S
C237 H251 0.950 . S
C238 C235 1.481 . S
C238 C239 1.297 . S
C238 H252 0.950 . S
C239 C238 1.297 . S
C239 C240 1.479 . S
C239 H253 0.950 . S
C240 C239 1.479 . S
C240 C241 1.375 . S
C240 C246 1.404 . S
C241 C240 1.375 . S
C241 C242 1.369 . S
C241 H254 0.950 . S
C242 C241 1.369 . S
C242 C243 1.392 . S
C242 H255 0.951 . S
C243 C242 1.392 . S
C243 C245 1.384 . S
H244 C246 0.949 . S
C245 C243 1.384 . S
C245 C246 1.385 . S
C245 H247 0.950 . S
C246 C240 1.404 . S
C246 H244 0.949 . S
C246 C245 1.385 . S
H247 C245 0.950 . S
H248 C232 0.951 . S
H249 C234 0.951 . S
H250 C236 0.951 . S
H251 C237 0.950 . S
H252 C238 0.950 . S
H253 C239 0.950 . S
H254 C241 0.950 . S
H255 C242 0.951 . S
C256 C257 1.386 . S
C256 C258 1.383 . S
C256 H272 0.951 . S
C257 C256 1.386 . S
C257 C261 1.383 . S
C258 C256 1.383 . S
C258 C259 1.402 . S
C258 H273 0.951 . S
C259 C258 1.402 . S
C259 C260 1.375 . S
C259 C262 1.481 . S
C260 C259 1.375 . S
C260 C261 1.367 . S
C260 H274 0.951 . S
C261 C257 1.383 . S
C261 C260 1.367 . S
C261 H275 0.950 . S
C262 C259 1.481 . S
C262 C263 1.297 . S
C262 H276 0.950 . S
C263 C262 1.297 . S
C263 C264 1.479 . S
C263 H277 0.950 . S
C264 C263 1.479 . S
C264 C265 1.375 . S
C264 C270 1.404 . S
C265 C264 1.375 . S
C265 C266 1.369 . S
C265 H278 0.950 . S
C266 C265 1.369 . S
C266 C267 1.392 . S
C266 H279 0.951 . S
C267 C266 1.392 . S
C267 C269 1.384 . S
H268 C270 0.949 . S
C269 C267 1.384 . S
C269 C270 1.385 . S
C269 H271 0.950 . S
C270 C264 1.404 . S
C270 H268 0.949 . S
C270 C269 1.385 . S
H271 C269 0.950 . S
H272 C256 0.951 . S
H273 C258 0.951 . S
H274 C260 0.951 . S
H275 C261 0.950 . S
H276 C262 0.950 . S
H277 C263 0.950 . S
H278 C265 0.950 . S
H279 C266 0.951 . S
C280 C281 1.386 . S
C280 C282 1.383 . S
C280 H296 0.951 . S
C281 C280 1.386 . S
C281 C285 1.383 . S
C282 C280 1.383 . S
C282 C283 1.402 . S
C282 H297 0.951 . S
C283 C282 1.402 . S
C283 C284 1.375 . S
C283 C286 1.481 . S
C284 C283 1.375 . S
C284 C285 1.367 . S
C284 H298 0.951 . S
C285 C281 1.383 . S
C285 C284 1.367 . S
C285 H299 0.950 . S
C286 C283 1.481 . S
C286 C287 1.297 . S
C286 H300 0.950 . S
C287 C286 1.297 . S
C287 C288 1.479 . S
C287 H301 0.950 . S
C288 C287 1.479 . S
C288 C289 1.375 . S
C288 C294 1.404 . S
C289 C288 1.375 . S
C289 C290 1.369 . S
C289 H302 0.950 . S
C290 C289 1.369 . S
C290 C291 1.392 . S
C290 H303 0.951 . S
C291 C290 1.392 . S
C291 C293 1.384 . S
H292 C294 0.949 . S
C293 C291 1.384 . S
C293 C294 1.385 . S
C293 H295 0.950 . S
C294 C288 1.404 . S
C294 H292 0.949 . S
C294 C293 1.385 . S
H295 C293 0.950 . S
H296 C280 0.951 . S
H297 C282 0.951 . S
H298 C284 0.951 . S
H299 C285 0.950 . S
H300 C286 0.950 . S
H301 C287 0.950 . S
H302 C289 0.950 . S
H303 C290 0.951 . S
C304 C305 1.386 . S
C304 C306 1.383 . S
C304 H320 0.951 . S
C305 C304 1.386 . S
C305 C309 1.383 . S
C306 C304 1.383 . S
C306 C307 1.402 . S
C306 H321 0.951 . S
C307 C306 1.402 . S
C307 C308 1.375 . S
C307 C310 1.481 . S
C308 C307 1.375 . S
C308 C309 1.367 . S
C308 H322 0.951 . S
C309 C305 1.383 . S
C309 C308 1.367 . S
C309 H323 0.950 . S
C310 C307 1.481 . S
C310 C311 1.297 . S
C310 H324 0.950 . S
C311 C310 1.297 . S
C311 C312 1.479 . S
C311 H325 0.950 . S
C312 C311 1.479 . S
C312 C313 1.375 . S
C312 C318 1.404 . S
C313 C312 1.375 . S
C313 C314 1.369 . S
C313 H326 0.950 . S
C314 C313 1.369 . S
C314 C315 1.392 . S
C314 H327 0.951 . S
C315 C314 1.392 . S
C315 C317 1.384 . S
H316 C318 0.949 . S
C317 C315 1.384 . S
C317 C318 1.385 . S
C317 H319 0.950 . S
C318 C312 1.404 . S
C318 H316 0.949 . S
C318 C317 1.385 . S
H319 C317 0.950 . S
H320 C304 0.951 . S
H321 C306 0.951 . S
H322 C308 0.951 . S
H323 C309 0.950 . S
H324 C310 0.950 . S
H325 C311 0.950 . S
H326 C313 0.950 . S
H327 C314 0.951 . S
C328 C329 1.386 . S
C328 C330 1.383 . S
C328 H344 0.951 . S
C329 C328 1.386 . S
C329 C333 1.383 . S
C330 C328 1.383 . S
C330 C331 1.402 . S
C330 H345 0.951 . S
C331 C330 1.402 . S
C331 C332 1.375 . S
C331 C334 1.481 . S
C332 C331 1.375 . S
C332 C333 1.367 . S
C332 H346 0.951 . S
C333 C329 1.383 . S
C333 C332 1.367 . S
C333 H347 0.950 . S
C334 C331 1.481 . S
C334 C335 1.297 . S
C334 H348 0.950 . S
C335 C334 1.297 . S
C335 C336 1.479 . S
C335 H349 0.950 . S
C336 C335 1.479 . S
C336 C337 1.375 . S
C336 C342 1.404 . S
C337 C336 1.375 . S
C337 C338 1.369 . S
C337 H350 0.950 . S
C338 C337 1.369 . S
C338 C339 1.392 . S
C338 H351 0.951 . S
C339 C338 1.392 . S
C339 C341 1.384 . S
H340 C342 0.949 . S
C341 C339 1.384 . S
C341 C342 1.385 . S
C341 H343 0.950 . S
C342 C336 1.404 . S
C342 H340 0.949 . S
C342 C341 1.385 . S
H343 C341 0.950 . S
H344 C328 0.951 . S
H345 C330 0.951 . S
H346 C332 0.951 . S
H347 C333 0.950 . S
H348 C334 0.950 . S
H349 C335 0.950 . S
H350 C337 0.950 . S
H351 C338 0.951 . S
C352 C353 1.386 . S
C352 C354 1.383 . S
C352 H368 0.951 . S
C353 C352 1.386 . S
C353 C357 1.383 . S
C354 C352 1.383 . S
C354 C355 1.402 . S
C354 H369 0.951 . S
C355 C354 1.402 . S
C355 C356 1.375 . S
C355 C358 1.481 . S
C356 C355 1.375 . S
C356 C357 1.367 . S
C356 H370 0.951 . S
C357 C353 1.383 . S
C357 C356 1.367 . S
C357 H371 0.950 . S
C358 C355 1.481 . S
C358 C359 1.297 . S
C358 H372 0.950 . S
C359 C358 1.297 . S
C359 C360 1.479 . S
C359 H373 0.950 . S
C360 C359 1.479 . S
C360 C361 1.375 . S
C360 C366 1.404 . S
C361 C360 1.375 . S
C361 C362 1.369 . S
C361 H374 0.950 . S
C362 C361 1.369 . S
C362 C363 1.392 . S
C362 H375 0.951 . S
C363 C362 1.392 . S
C363 C365 1.384 . S
H364 C366 0.949 . S
C365 C363 1.384 . S
C365 C366 1.385 . S
C365 H367 0.950 . S
C366 C360 1.404 . S
C366 H364 0.949 . S
C366 C365 1.385 . S
H367 C365 0.950 . S
H368 C352 0.951 . S
H369 C354 0.951 . S
H370 C356 0.951 . S
H371 C357 0.950 . S
H372 C358 0.950 . S
H373 C359 0.950 . S
H374 C361 0.950 . S
H375 C362 0.951 . S
C376 C377 1.386 . S
C376 C378 1.383 . S
C376 H392 0.951 . S
C377 C376 1.386 . S
C377 C381 1.383 . S
C378 C376 1.383 . S
C378 C379 1.402 . S
C378 H393 0.951 . S
C379 C378 1.402 . S
C379 C380 1.375 . S
C379 C382 1.481 . S
C380 C379 1.375 . S
C380 C381 1.367 . S
C380 H394 0.951 . S
C381 C377 1.383 . S
C381 C380 1.367 . S
C381 H395 0.950 . S
C382 C379 1.481 . S
C382 C383 1.297 . S
C382 H396 0.950 . S
C383 C382 1.297 . S
C383 C384 1.479 . S
C383 H397 0.950 . S
C384 C383 1.479 . S
C384 C385 1.375 . S
C384 C390 1.404 . S
C385 C384 1.375 . S
C385 C386 1.369 . S
C385 H398 0.950 . S
C386 C385 1.369 . S
C386 C387 1.392 . S
C386 H399 0.951 . S
C387 C386 1.392 . S
C387 C389 1.384 . S
H388 C390 0.949 . S
C389 C387 1.384 . S
C389 C390 1.385 . S
C389 H391 0.950 . S
C390 C384 1.404 . S
C390 H388 0.949 . S
C390 C389 1.385 . S
H391 C389 0.950 . S
H392 C376 0.951 . S
H393 C378 0.951 . S
H394 C380 0.951 . S
H395 C381 0.950 . S
H396 C382 0.950 . S
H397 C383 0.950 . S
H398 C385 0.950 . S
H399 C386 0.951 . S
C400 C401 1.386 . S
C400 C402 1.383 . S
C400 H416 0.951 . S
C401 C400 1.386 . S
C401 C405 1.383 . S
C402 C400 1.383 . S
C402 C403 1.402 . S
C402 H417 0.951 . S
C403 C402 1.402 . S
C403 C404 1.375 . S
C403 C406 1.481 . S
C404 C403 1.375 . S
C404 C405 1.367 . S
C404 H418 0.951 . S
C405 C401 1.383 . S
C405 C404 1.367 . S
C405 H419 0.950 . S
C406 C403 1.481 . S
C406 C407 1.297 . S
C406 H420 0.950 . S
C407 C406 1.297 . S
C407 C408 1.479 . S
C407 H421 0.950 . S
C408 C407 1.479 . S
C408 C409 1.375 . S
C408 C414 1.404 . S
C409 C408 1.375 . S
C409 C410 1.369 . S
C409 H422 0.950 . S
C410 C409 1.369 . S
C410 C411 1.392 . S
C410 H423 0.951 . S
C411 C410 1.392 . S
C411 C413 1.384 . S
H412 C414 0.949 . S
C413 C411 1.384 . S
C413 C414 1.385 . S
C413 H415 0.950 . S
C414 C408 1.404 . S
C414 H412 0.949 . S
C414 C413 1.385 . S
H415 C413 0.950 . S
H416 C400 0.951 . S
H417 C402 0.951 . S
H418 C404 0.951 . S
H419 C405 0.950 . S
H420 C406 0.950 . S
H421 C407 0.950 . S
H422 C409 0.950 . S
H423 C410 0.951 . S
C424 C425 1.386 . S
C424 C426 1.383 . S
C424 H440 0.951 . S
C425 C424 1.386 . S
C425 C429 1.383 . S
C426 C424 1.383 . S
C426 C427 1.402 . S
C426 H441 0.951 . S
C427 C426 1.402 . S
C427 C428 1.375 . S
C427 C430 1.481 . S
C428 C427 1.375 . S
C428 C429 1.367 . S
C428 H442 0.951 . S
C429 C425 1.383 . S
C429 C428 1.367 . S
C429 H443 0.950 . S
C430 C427 1.481 . S
C430 C431 1.297 . S
C430 H444 0.950 . S
C431 C430 1.297 . S
C431 C432 1.479 . S
C431 H445 0.950 . S
C432 C431 1.479 . S
C432 C433 1.375 . S
C432 C438 1.404 . S
C433 C432 1.375 . S
C433 C434 1.369 . S
C433 H446 0.950 . S
C434 C433 1.369 . S
C434 C435 1.392 . S
C434 H447 0.951 . S
C435 C434 1.392 . S
C435 C437 1.384 . S
H436 C438 0.949 . S
C437 C435 1.384 . S
C437 C438 1.385 . S
C437 H439 0.950 . S
C438 C432 1.404 . S
C438 H436 0.949 . S
C438 C437 1.385 . S
H439 C437 0.950 . S
H440 C424 0.951 . S
H441 C426 0.951 . S
H442 C428 0.951 . S
H443 C429 0.950 . S
H444 C430 0.950 . S
H445 C431 0.950 . S
H446 C433 0.950 . S
H447 C434 0.951 . S
C448 C449 1.386 . S
C448 C450 1.383 . S
C448 H464 0.951 . S
C449 C448 1.386 . S
C449 C453 1.383 . S
C450 C448 1.383 . S
C450 C451 1.402 . S
C450 H465 0.951 . S
C451 C450 1.402 . S
C451 C452 1.375 . S
C451 C454 1.481 . S
C452 C451 1.375 . S
C452 C453 1.367 . S
C452 H466 0.951 . S
C453 C449 1.383 . S
C453 C452 1.367 . S
C453 H467 0.950 . S
C454 C451 1.481 . S
C454 C455 1.297 1_554 S
C454 H468 0.950 . S
C455 C454 1.297 1_556 S
C455 C456 1.479 . S
C455 H469 0.950 . S
C456 C455 1.479 . S
C456 C457 1.375 . S
C456 C462 1.404 . S
C457 C456 1.375 . S
C457 C458 1.369 . S
C457 H470 0.950 . S
C458 C457 1.369 . S
C458 C459 1.392 . S
C458 H471 0.951 . S
C459 C458 1.392 . S
C459 C461 1.384 . S
H460 C462 0.949 1_554 S
C461 C459 1.384 . S
C461 C462 1.385 . S
C461 H463 0.950 . S
C462 C456 1.404 . S
C462 H460 0.949 1_556 S
C462 C461 1.385 . S
H463 C461 0.950 . S
H464 C448 0.951 . S
H465 C450 0.951 . S
H466 C452 0.951 . S
H467 C453 0.950 . S
H468 C454 0.950 . S
H469 C455 0.950 . S
H470 C457 0.950 . S
H471 C458 0.951 . S
C472 C473 1.386 . S
C472 C474 1.383 . S
C472 H488 0.951 . S
C473 C472 1.386 . S
C473 C477 1.383 . S
C474 C472 1.383 . S
C474 C475 1.402 . S
C474 H489 0.951 1_554 S
C475 C474 1.402 . S
C475 C476 1.375 . S
C475 C478 1.481 . S
C476 C475 1.375 . S
C476 C477 1.367 . S
C476 H490 0.951 . S
C477 C473 1.383 . S
C477 C476 1.367 . S
C477 H491 0.950 . S
C478 C475 1.481 . S
C478 C479 1.297 1_554 S
C478 H492 0.950 . S
C479 C478 1.297 1_556 S
C479 C480 1.479 . S
C479 H493 0.950 . S
C480 C479 1.479 . S
C480 C481 1.375 . S
C480 C486 1.404 . S
C481 C480 1.375 . S
C481 C482 1.369 . S
C481 H494 0.950 . S
C482 C481 1.369 . S
C482 C483 1.392 . S
C482 H495 0.951 . S
C483 C482 1.392 . S
C483 C485 1.384 . S
H484 C486 0.949 1_554 S
C485 C483 1.384 . S
C485 C486 1.385 . S
C485 H487 0.950 . S
C486 C480 1.404 . S
C486 H484 0.949 1_556 S
C486 C485 1.385 . S
H487 C485 0.950 . S
H488 C472 0.951 . S
H489 C474 0.951 1_556 S
H490 C476 0.951 . S
H491 C477 0.950 . S
H492 C478 0.950 . S
H493 C479 0.950 . S
H494 C481 0.950 . S
H495 C482 0.951 . S
C113 C7 1.472 . S
C123 C35 1.486 . S
C137 C49 1.489 . S
C147 C21 1.529 . S
C161 C91 1.500 . S
C171 C63 1.443 . S
C185 C77 1.487 . S
C195 C105 1.456 . S
C209 C90 1.672 . S
C219 C6 1.659 . S
C233 C20 1.667 . S
C243 C104 1.678 . S
C257 C34 1.681 . S
C267 C62 1.672 . S
C281 C48 1.678 . S
C291 C76 1.652 . S
C305 C92 1.586 . S
C315 C8 1.617 . S
C329 C22 1.598 . S
C339 C106 1.571 . S
C353 C64 1.612 . S
C363 C36 1.596 . S
C377 C78 1.586 . S
C387 C50 1.617 . S
C401 C23 0.569 . S
C411 C9 0.329 . S
C425 C37 0.582 . S
C435 C51 0.638 . S
C449 C79 0.473 . S
C459 C65 0.680 . S
C473 C93 0.401 . S
C483 C107 0.324 . S
