# Generated by pormake.
# Topology sra, (4)-cn, num edge types: 1
# Building blocks:
#     Node 0, Type 0, BuildingBlock: GALJAG_clean_sbu_0, # of connection points: 4
#     Node 1, Type 0, BuildingBlock: GALJAG_clean_sbu_0, # of connection points: 4
#     Node 2, Type 0, BuildingBlock: GALJAG_clean_sbu_0, # of connection points: 4
#     Node 3, Type 0, BuildingBlock: GALJAG_clean_sbu_0, # of connection points: 4
#     Node 4, Type 0, BuildingBlock: GALJAG_clean_sbu_0, # of connection points: 4
#     Node 5, Type 0, BuildingBlock: GALJAG_clean_sbu_0, # of connection points: 4
#     Node 6, Type 0, BuildingBlock: GALJAG_clean_sbu_0, # of connection points: 4
#     Node 7, Type 0, BuildingBlock: GALJAG_clean_sbu_0, # of connection points: 4
#     Edge 8, Type (0, 0), BuildingBlock: EZIPEK_clean_linker_0, # of connection points: 2
#     Edge 9, Type (0, 0), BuildingBlock: EZIPEK_clean_linker_0, # of connection points: 2
#     Edge 10, Type (0, 0), BuildingBlock: EZIPEK_clean_linker_0, # of connection points: 2
#     Edge 11, Type (0, 0), BuildingBlock: EZIPEK_clean_linker_0, # of connection points: 2
#     Edge 12, Type (0, 0), BuildingBlock: EZIPEK_clean_linker_0, # of connection points: 2
#     Edge 13, Type (0, 0), BuildingBlock: EZIPEK_clean_linker_0, # of connection points: 2
#     Edge 14, Type (0, 0), BuildingBlock: EZIPEK_clean_linker_0, # of connection points: 2
#     Edge 15, Type (0, 0), BuildingBlock: EZIPEK_clean_linker_0, # of connection points: 2
#     Edge 16, Type (0, 0), BuildingBlock: EZIPEK_clean_linker_0, # of connection points: 2
#     Edge 17, Type (0, 0), BuildingBlock: EZIPEK_clean_linker_0, # of connection points: 2
#     Edge 18, Type (0, 0), BuildingBlock: EZIPEK_clean_linker_0, # of connection points: 2
#     Edge 19, Type (0, 0), BuildingBlock: EZIPEK_clean_linker_0, # of connection points: 2
#     Edge 20, Type (0, 0), BuildingBlock: EZIPEK_clean_linker_0, # of connection points: 2
#     Edge 21, Type (0, 0), BuildingBlock: EZIPEK_clean_linker_0, # of connection points: 2
#     Edge 22, Type (0, 0), BuildingBlock: EZIPEK_clean_linker_0, # of connection points: 2
#     Edge 23, Type (0, 0), BuildingBlock: EZIPEK_clean_linker_0, # of connection points: 2
# Relax obj value: 0.076
# Max RMSD: 0.110
# Mean RMSD: 0.110
data_MOF--net-sra--node1-GALJAG_clean_sbu_0--edge1-EZIPEK_clean_linker_0
_symmetry_space_group_name_H-M    P1
_symmetry_Int_Tables_number       1
_symmetry_cell_setting            triclinic
loop_
_symmetry_equiv_pos_as_xyz
'x, y, z'
_cell_length_a     20.679022
_cell_length_b     39.745264
_cell_length_c     21.705654
_cell_angle_alpha  89.895084
_cell_angle_beta   90.065097
_cell_angle_gamma 89.963841
loop_
_atom_site_label
_atom_site_type_symbol
_atom_site_fract_x
_atom_site_fract_y
_atom_site_fract_z
_atom_type_partial_charge
In0 In 0.04742 0.10264 0.13166 0.0
O1 O 0.0536 0.07761 0.03741 0.0
O2 O 0.04049 0.0464 0.11659 0.0
C3 C 0.04587 0.16894 0.10934 0.0
C4 C 0.92696 0.09915 0.17743 0.0
C5 C 0.16618 0.09728 0.18184 0.0
O6 O 0.04794 0.14774 0.06594 0.0
O7 O 0.04478 0.1567 0.16298 0.0
O8 O 0.11572 0.08882 0.2109 0.0
O9 O 0.15668 0.10787 0.12782 0.0
C10 C 0.04665 0.04823 0.05889 0.0
O11 O 0.97648 0.09649 0.21148 0.0
O12 O 0.9384 0.10317 0.12079 0.0
In13 In 0.04136 0.37969 0.13458 0.0
O14 O 0.05824 0.40161 0.03891 0.0
O15 O 0.02728 0.43475 0.11008 0.0
C16 C 0.04148 0.31319 0.11333 0.0
C17 C 0.15883 0.38797 0.1863 0.0
C18 C 0.922 0.38438 0.1828 0.0
O19 O 0.03345 0.33431 0.0704 0.0
O20 O 0.04918 0.32554 0.16632 0.0
O21 O 0.97222 0.38872 0.21512 0.0
O22 O 0.93187 0.37763 0.12685 0.0
C23 C 0.04342 0.43122 0.0545 0.0
O24 O 0.10734 0.39577 0.21426 0.0
O25 O 0.15095 0.37651 0.13277 0.0
In26 In 0.02621 0.87702 0.83022 0.0
O27 O 0.95173 0.88349 0.75289 0.0
O28 O 0.91822 0.8819 0.84564 0.0
C29 C 0.14475 0.88324 0.7817 0.0
C30 C 0.03374 0.93015 0.90483 0.0
C31 C 0.02509 0.81021 0.84772 0.0
O32 O 0.09445 0.89061 0.75109 0.0
O33 O 0.13499 0.87305 0.83598 0.0
O34 O 0.02046 0.83051 0.89235 0.0
O35 O 0.02994 0.82361 0.79524 0.0
C36 C 0.90392 0.88406 0.78931 0.0
O37 O 0.03457 0.90032 0.92547 0.0
O38 O 0.02936 0.93301 0.84702 0.0
In39 In 0.03832 0.60019 0.81694 0.0
O40 O 0.03351 0.57442 0.91045 0.0
O41 O 0.04725 0.5437 0.83101 0.0
C42 C 0.03458 0.66596 0.84276 0.0
C43 C 0.15907 0.59867 0.77139 0.0
C44 C 0.91937 0.59608 0.76667 0.0
O45 O 0.03753 0.64405 0.88505 0.0
O46 O 0.03373 0.65466 0.78852 0.0
O47 O 0.97005 0.59218 0.73483 0.0
O48 O 0.92873 0.60097 0.82333 0.0
C49 C 0.04094 0.54518 0.88876 0.0
O50 O 0.1104 0.59138 0.73859 0.0
O51 O 0.14673 0.60636 0.82649 0.0
In52 In 0.53752 0.60966 0.62578 0.0
O53 O 0.47197 0.59923 0.7086 0.0
O54 O 0.42787 0.60899 0.62137 0.0
C55 C 0.6583 0.6047 0.67126 0.0
C56 C 0.5397 0.55647 0.55034 0.0
C57 C 0.53138 0.67587 0.60303 0.0
O58 O 0.6089 0.5997 0.70434 0.0
O59 O 0.64669 0.61206 0.61584 0.0
O60 O 0.52782 0.65449 0.56015 0.0
O61 O 0.53788 0.66394 0.65651 0.0
C62 C 0.42039 0.60253 0.67781 0.0
O63 O 0.54418 0.58623 0.53023 0.0
O64 O 0.53341 0.55359 0.60789 0.0
In65 In 0.52565 0.88494 0.64011 0.0
O66 O 0.59209 0.89783 0.72116 0.0
O67 O 0.63474 0.87859 0.63913 0.0
C68 C 0.40614 0.88944 0.68868 0.0
C69 C 0.5315 0.93828 0.56456 0.0
C70 C 0.52429 0.81933 0.61163 0.0
O71 O 0.45642 0.89065 0.72172 0.0
O72 O 0.41599 0.88666 0.63163 0.0
O73 O 0.52793 0.84182 0.57059 0.0
O74 O 0.521 0.82985 0.66628 0.0
C75 C 0.643 0.88908 0.69328 0.0
O76 O 0.52934 0.90848 0.54466 0.0
O77 O 0.52986 0.94126 0.62238 0.0
In78 In 0.54189 0.3837 0.32642 0.0
O79 O 0.46815 0.38878 0.24793 0.0
O80 O 0.43363 0.38814 0.34032 0.0
C81 C 0.6614 0.38804 0.27902 0.0
C82 C 0.54686 0.43757 0.39921 0.0
C83 C 0.53888 0.3171 0.34549 0.0
O84 O 0.61172 0.39552 0.24756 0.0
O85 O 0.65062 0.37924 0.33397 0.0
O86 O 0.53326 0.33769 0.38962 0.0
O87 O 0.54642 0.33019 0.29306 0.0
C88 C 0.41985 0.38928 0.28379 0.0
O89 O 0.54845 0.40798 0.42089 0.0
O90 O 0.54369 0.43989 0.34124 0.0
In91 In 0.54839 0.10564 0.32503 0.0
O92 O 0.61569 0.0913 0.24544 0.0
O93 O 0.65773 0.10864 0.32952 0.0
C94 C 0.42662 0.10055 0.28138 0.0
C95 C 0.55046 0.05276 0.40132 0.0
C96 C 0.54543 0.17227 0.34463 0.0
O97 O 0.47526 0.10147 0.24595 0.0
O98 O 0.43988 0.10132 0.33804 0.0
O99 O 0.53748 0.15145 0.38813 0.0
O100 O 0.55496 0.15943 0.2924 0.0
C101 C 0.66657 0.09855 0.27513 0.0
O102 O 0.56153 0.08237 0.42001 0.0
O103 O 0.53958 0.04991 0.34432 0.0
C104 C 0.98965 0.25854 0.0828 0.0
C105 C 0.04512 0.27653 0.1027 0.0
C106 C 0.1037 0.22372 0.11965 0.0
C107 C 0.04838 0.2057 0.0995 0.0
N108 N 0.94364 0.20515 0.05069 0.0
N109 N 0.159 0.27741 0.12633 0.0
C110 C 0.99309 0.22291 0.07693 0.0
C111 C 0.10344 0.25942 0.11703 0.0
N112 N 0.93269 0.27528 0.07322 0.0
N113 N 0.15606 0.20666 0.14237 0.0
H114 H 0.16071 0.30361 0.1238 0.0
H115 H 0.2045 0.26648 0.13106 0.0
H116 H 0.16014 0.18051 0.14079 0.0
H117 H 0.19422 0.21819 0.16541 0.0
H118 H 0.88864 0.2633 0.06577 0.0
H119 H 0.92829 0.30133 0.07701 0.0
H120 H 0.9049 0.21633 0.02783 0.0
H121 H 0.94369 0.17898 0.04747 0.0
C122 C 0.97265 0.7546 0.82731 0.0
C123 C 0.02355 0.77321 0.85508 0.0
C124 C 0.08004 0.7207 0.88098 0.0
C125 C 0.02817 0.70234 0.85466 0.0
N126 N 0.91848 0.70083 0.81745 0.0
N127 N 0.12087 0.77449 0.91667 0.0
C128 C 0.97237 0.71905 0.8324 0.0
C129 C 0.07537 0.75638 0.88525 0.0
N130 N 0.92539 0.77078 0.79455 0.0
N131 N 0.13535 0.70427 0.89818 0.0
H132 H 0.12166 0.8007 0.91757 0.0
H133 H 0.15555 0.76358 0.94521 0.0
H134 H 0.14032 0.67819 0.89617 0.0
H135 H 0.17793 0.71648 0.91056 0.0
H136 H 0.89178 0.75836 0.76704 0.0
H137 H 0.92229 0.79685 0.79112 0.0
H138 H 0.87403 0.71166 0.80663 0.0
H139 H 0.9163 0.6747 0.82187 0.0
C140 C 0.46787 0.72903 0.61059 0.0
C141 C 0.5256 0.71242 0.59277 0.0
C142 C 0.5803 0.7665 0.57843 0.0
C143 C 0.52294 0.78306 0.59754 0.0
N144 N 0.40866 0.78165 0.61835 0.0
N145 N 0.63205 0.71417 0.54804 0.0
C146 C 0.46553 0.76474 0.60945 0.0
C147 C 0.58021 0.73085 0.57242 0.0
N148 N 0.41589 0.71054 0.62986 0.0
N149 N 0.63569 0.78466 0.56959 0.0
H150 H 0.63404 0.68802 0.54465 0.0
H151 H 0.67095 0.72612 0.52695 0.0
H152 H 0.63728 0.81083 0.5726 0.0
H153 H 0.68099 0.7739 0.56276 0.0
H154 H 0.37531 0.72084 0.65096 0.0
H155 H 0.41438 0.68435 0.62689 0.0
H156 H 0.36382 0.76999 0.62223 0.0
H157 H 0.40546 0.80785 0.61675 0.0
C158 C 0.48916 0.26197 0.31737 0.0
C159 C 0.53505 0.28012 0.35308 0.0
C160 C 0.58219 0.2271 0.39067 0.0
C161 C 0.53891 0.20914 0.35203 0.0
N162 N 0.44413 0.20814 0.28718 0.0
N163 N 0.62953 0.28089 0.41841 0.0
C164 C 0.49048 0.22624 0.31767 0.0
C165 C 0.5819 0.26296 0.38942 0.0
N166 N 0.44571 0.27905 0.28133 0.0
N167 N 0.62399 0.20987 0.42808 0.0
H168 H 0.6318 0.30708 0.41804 0.0
H169 H 0.66971 0.27008 0.43943 0.0
H170 H 0.62917 0.1838 0.42705 0.0
H171 H 0.6511 0.22102 0.46289 0.0
H172 H 0.41693 0.26799 0.24769 0.0
H173 H 0.43977 0.30503 0.2829 0.0
H174 H 0.40277 0.21845 0.26748 0.0
H175 H 0.44432 0.18199 0.28464 0.0
C176 C 0.31086 0.12108 0.28129 0.0
C177 C 0.35884 0.09858 0.25845 0.0
C178 C 0.28058 0.07585 0.1843 0.0
C179 C 0.23172 0.09676 0.20967 0.0
N180 N 0.19764 0.13663 0.28691 0.0
N181 N 0.38445 0.04891 0.19951 0.0
C182 C 0.24596 0.11832 0.25993 0.0
C183 C 0.34241 0.07445 0.21292 0.0
N184 N 0.32767 0.14642 0.32076 0.0
N185 N 0.26821 0.05738 0.13256 0.0
H186 H 0.42892 0.04594 0.22155 0.0
H187 H 0.37251 0.02858 0.17153 0.0
H188 H 0.22291 0.05638 0.11166 0.0
H189 H 0.30404 0.04496 0.1077 0.0
H190 H 0.29715 0.16631 0.332 0.0
H191 H 0.37376 0.14941 0.33908 0.0
H192 H 0.20293 0.14902 0.32884 0.0
H193 H 0.1507 0.13796 0.26956 0.0
C194 C 0.76306 0.35668 0.25391 0.0
C195 C 0.7276 0.38732 0.25289 0.0
C196 C 0.81879 0.4157 0.20258 0.0
C197 C 0.85594 0.38585 0.20863 0.0
N198 N 0.86752 0.32914 0.24658 0.0
N199 N 0.7243 0.44722 0.23517 0.0
C200 C 0.82931 0.35672 0.23646 0.0
C201 C 0.75601 0.41719 0.22934 0.0
N202 N 0.73252 0.32721 0.26862 0.0
N203 N 0.84326 0.44247 0.17056 0.0
H204 H 0.67852 0.44935 0.2549 0.0
H205 H 0.74531 0.47038 0.22514 0.0
H206 H 0.88995 0.44274 0.15239 0.0
H207 H 0.81595 0.46347 0.15837 0.0
H208 H 0.7538 0.30361 0.26395 0.0
H209 H 0.68364 0.32588 0.28007 0.0
H210 H 0.85316 0.30857 0.27298 0.0
H211 H 0.91567 0.3278 0.23245 0.0
C212 C 0.24875 0.85533 0.75299 0.0
C213 C 0.21087 0.8851 0.7559 0.0
C214 C 0.30106 0.91789 0.71362 0.0
C215 C 0.34015 0.88855 0.71481 0.0
N216 N 0.35541 0.83048 0.74375 0.0
N217 N 0.20273 0.94547 0.74792 0.0
C218 C 0.31525 0.85761 0.73711 0.0
C219 C 0.23731 0.91662 0.73825 0.0
N220 N 0.22032 0.82469 0.76274 0.0
N221 N 0.325 0.94695 0.68883 0.0
H222 H 0.15608 0.94557 0.76611 0.0
H223 H 0.22176 0.96952 0.74237 0.0
H224 H 0.37297 0.94939 0.67481 0.0
H225 H 0.29681 0.96804 0.67934 0.0
H226 H 0.24345 0.80183 0.75492 0.0
H227 H 0.17142 0.82189 0.77329 0.0
H228 H 0.34208 0.80835 0.76607 0.0
H229 H 0.40406 0.83091 0.73121 0.0
C230 C 0.76838 0.62977 0.68762 0.0
C231 C 0.72525 0.60228 0.69532 0.0
C232 C 0.80857 0.57135 0.75245 0.0
C233 C 0.85355 0.59739 0.73963 0.0
N234 N 0.87911 0.64978 0.68875 0.0
N235 N 0.70811 0.54424 0.72386 0.0
C236 C 0.83442 0.626 0.70484 0.0
C237 C 0.74628 0.57233 0.72482 0.0
N238 N 0.74548 0.66012 0.66723 0.0
N239 N 0.82498 0.54584 0.7917 0.0
H240 H 0.66288 0.54356 0.70261 0.0
H241 H 0.72381 0.5207 0.7388 0.0
H242 H 0.87067 0.5438 0.81143 0.0
H243 H 0.79192 0.52831 0.80841 0.0
H244 H 0.77292 0.68207 0.6669 0.0
H245 H 0.69705 0.66434 0.65619 0.0
H246 H 0.86971 0.66911 0.65755 0.0
H247 H 0.9272 0.64897 0.70312 0.0
C248 C 0.75534 0.91251 0.6991 0.0
C249 C 0.7079 0.88994 0.72195 0.0
C250 C 0.78872 0.86324 0.78877 0.0
C251 C 0.83581 0.88677 0.76784 0.0
N252 N 0.85991 0.93867 0.71484 0.0
N253 N 0.67568 0.84745 0.79519 0.0
C254 C 0.81808 0.91274 0.72608 0.0
C255 C 0.72336 0.86663 0.76921 0.0
N256 N 0.74048 0.93372 0.65144 0.0
N257 N 0.80684 0.83645 0.82448 0.0
H258 H 0.62795 0.84749 0.77971 0.0
H259 H 0.68223 0.83323 0.83504 0.0
H260 H 0.85357 0.83285 0.84094 0.0
H261 H 0.77675 0.81612 0.83407 0.0
H262 H 0.77498 0.94762 0.62751 0.0
H263 H 0.69393 0.93607 0.63334 0.0
H264 H 0.84745 0.96009 0.68983 0.0
H265 H 0.90521 0.94053 0.73572 0.0
C266 C 0.31819 0.5707 0.69898 0.0
C267 C 0.35534 0.60046 0.70571 0.0
C268 C 0.26214 0.62963 0.75033 0.0
C269 C 0.22602 0.59928 0.74719 0.0
N270 N 0.22221 0.53951 0.72849 0.0
N271 N 0.36752 0.65635 0.74692 0.0
C272 C 0.2546 0.5694 0.72395 0.0
C273 C 0.3288 0.62932 0.73441 0.0
N274 N 0.34371 0.54375 0.6684 0.0
N275 N 0.23192 0.65909 0.76556 0.0
H276 H 0.41634 0.65723 0.735 0.0
H277 H 0.35286 0.67674 0.77354 0.0
H278 H 0.18278 0.66059 0.77598 0.0
H279 H 0.25386 0.6826 0.76238 0.0
H280 H 0.31669 0.52292 0.65495 0.0
H281 H 0.39166 0.54296 0.65361 0.0
H282 H 0.24297 0.51629 0.7185 0.0
H283 H 0.17591 0.53747 0.74709 0.0
C284 C 0.77735 0.07293 0.26774 0.0
C285 C 0.73208 0.09748 0.24767 0.0
C286 C 0.8167 0.12512 0.18695 0.0
C287 C 0.86005 0.09857 0.20194 0.0
N288 N 0.87745 0.04357 0.24632 0.0
N289 N 0.70572 0.14458 0.18191 0.0
C290 C 0.83932 0.07146 0.23962 0.0
C291 C 0.75073 0.12267 0.20487 0.0
N292 N 0.76163 0.05132 0.31438 0.0
N293 N 0.83934 0.15368 0.15908 0.0
H294 H 0.6576 0.14482 0.19618 0.0
H295 H 0.71496 0.1609 0.14537 0.0
H296 H 0.88788 0.15729 0.14803 0.0
H297 H 0.81151 0.17525 0.15271 0.0
H298 H 0.795 0.03538 0.33548 0.0
H299 H 0.71648 0.05134 0.33553 0.0
H300 H 0.86187 0.0216 0.26791 0.0
H301 H 0.92237 0.04102 0.22503 0.0
C302 C 0.24016 0.36892 0.26469 0.0
C303 C 0.22393 0.3903 0.2146 0.0
C304 C 0.33318 0.41444 0.2166 0.0
C305 C 0.35177 0.39033 0.26156 0.0
N306 N 0.32468 0.34136 0.32298 0.0
N307 N 0.25645 0.43083 0.13768 0.0
C308 C 0.30558 0.36692 0.28473 0.0
C309 C 0.27096 0.41222 0.1889 0.0
N310 N 0.19329 0.35007 0.29273 0.0
N311 N 0.3736 0.4406 0.2027 0.0
H312 H 0.21063 0.43128 0.11771 0.0
H313 H 0.29097 0.44404 0.11248 0.0
H314 H 0.4184 0.44399 0.2239 0.0
H315 H 0.36009 0.46088 0.1751 0.0
H316 H 0.20026 0.33759 0.33443 0.0
H317 H 0.14583 0.34857 0.27679 0.0
H318 H 0.29529 0.32105 0.3345 0.0
H319 H 0.37158 0.33853 0.33949 0.0
C320 C 0.09189 0.99275 0.02482 0.0
C321 C 0.04355 0.01801 0.0194 0.0
C322 C 0.98518 0.98357 0.94405 0.0
C323 C 0.0366 0.95992 0.94528 0.0
N324 N 0.14396 0.94443 0.97833 0.0
N325 N 0.94668 0.03927 0.97065 0.0
C326 C 0.09123 0.96503 -0.0164 0.0
C327 C 0.99116 0.01406 0.97769 0.0
N328 N 0.13832 -0.0049 0.06948 0.0
N329 N 0.92919 0.97606 0.91333 0.0
H330 H 0.94597 0.06086 -0.00215 0.0
H331 H 0.91246 0.03976 0.93544 0.0
H332 H 0.92231 0.95365 0.88928 0.0
H333 H 0.88729 0.9905 0.91607 0.0
H334 H 0.16997 0.97559 0.08043 0.0
H335 H 0.14246 0.01564 0.09891 0.0
H336 H 0.18806 0.94914 -0.00017 0.0
H337 H 0.14583 0.92412 0.94803 0.0
C338 C 0.08916 0.51395 0.97768 0.0
C339 C 0.04391 0.51492 0.9286 0.0
C340 C 0.00337 0.45911 0.95812 0.0
C341 C 0.04418 0.45978 0.01076 0.0
N342 N 0.1213 0.48917 0.07488 0.0
N343 N 0.95388 0.49012 0.87431 0.0
C344 C 0.08551 0.48766 0.02193 0.0
C345 C 1.00041 0.48777 0.91891 0.0
N346 N 0.13799 0.53714 -0.01997 0.0
N347 N 0.96671 0.43125 0.94592 0.0
H348 H 0.95108 0.51009 0.84346 0.0
H349 H 0.91531 0.47348 0.87009 0.0
H350 H 0.96203 0.41108 0.97633 0.0
H351 H 0.94317 0.42722 0.90417 0.0
H352 H 0.17665 0.53567 0.01069 0.0
H353 H 0.14377 0.55609 0.94719 0.0
H354 H 0.14563 0.5107 0.08924 0.0
H355 H 0.12356 0.46967 0.10691 0.0
C356 C 0.48828 0.47606 0.47081 0.0
C357 C 0.54581 0.46768 0.43874 0.0
C358 C 0.60015 0.51734 0.48094 0.0
C359 C 0.54135 0.52683 0.50969 0.0
N360 N 0.42674 0.51925 0.52354 0.0
N361 N 0.65408 0.48164 0.40634 0.0
C362 C 0.48464 0.50722 0.50251 0.0
C363 C 0.60101 0.4888 0.44155 0.0
N364 N 0.43715 0.45424 0.47096 0.0
N365 N 0.65566 0.53476 0.49346 0.0
H366 H 0.65795 0.45994 0.37963 0.0
H367 H 0.69276 0.49809 0.40062 0.0
H368 H 0.6568 0.55594 0.52174 0.0
H369 H 0.70142 0.52692 0.47961 0.0
H370 H 0.39686 0.45705 0.4992 0.0
H371 H 0.43661 0.43191 0.44582 0.0
H372 H 0.38242 0.50788 0.51455 0.0
H373 H 0.42217 0.54249 0.54535 0.0
C374 C 0.58894 0.96991 0.48131 0.0
C375 C 0.53651 0.96766 0.52308 0.0
C376 C 0.49691 0.02279 0.48913 0.0
C377 C 0.54618 0.02364 0.44358 0.0
N378 N 0.63188 -0.00479 0.38867 0.0
N379 N 0.43373 0.98844 0.55897 0.0
C380 C 0.58988 -0.00371 0.43718 0.0
C381 C 0.4888 -0.00673 0.52528 0.0
N382 N 0.63949 0.9478 0.48566 0.0
N383 N 0.45699 0.04988 0.49717 0.0
H384 H 0.42491 0.9665 0.58391 0.0
H385 H 0.39401 0.00453 0.55752 0.0
H386 H 0.45698 0.07085 0.46828 0.0
H387 H 0.42612 0.05243 0.53475 0.0
H388 H 0.68235 0.9505 0.46099 0.0
H389 H 0.64147 0.92853 0.51829 0.0
H390 H 0.65951 0.97411 0.37789 0.0
H391 H 0.63534 0.01428 0.35596 0.0
loop_
_geom_bond_atom_site_label_1
_geom_bond_atom_site_label_2
_geom_bond_distance
_geom_bond_site_symmetry_2
_ccdc_geom_bond_type
In0 O1 2.294 . S
In0 O2 2.326 . S
In0 O6 2.266 . S
In0 O7 2.326 . S
In0 O8 2.266 . S
In0 O9 2.326 . S
In0 O11 2.294 1_455 S
In0 O12 2.326 1_455 S
O1 In0 2.294 . S
O1 C10 1.240 . S
O2 In0 2.326 . S
O2 C10 1.252 . S
C3 O6 1.252 . S
C3 O7 1.260 . S
C4 O11 1.240 . S
C4 O12 1.252 . S
C5 O8 1.252 . S
C5 O9 1.260 . S
O6 In0 2.266 . S
O6 C3 1.252 . S
O7 In0 2.326 . S
O7 C3 1.260 . S
O8 In0 2.266 . S
O8 C5 1.252 . S
O9 In0 2.326 . S
O9 C5 1.260 . S
C10 O1 1.240 . S
C10 O2 1.252 . S
O11 In0 2.294 1_655 S
O11 C4 1.240 . S
O12 In0 2.326 1_655 S
O12 C4 1.252 . S
In13 O14 2.294 . S
In13 O15 2.326 . S
In13 O19 2.266 . S
In13 O20 2.326 . S
In13 O21 2.266 1_455 S
In13 O22 2.326 1_455 S
In13 O24 2.294 . S
In13 O25 2.326 . S
O14 In13 2.294 . S
O14 C23 1.240 . S
O15 In13 2.326 . S
O15 C23 1.252 . S
C16 O19 1.252 . S
C16 O20 1.260 . S
C17 O24 1.240 . S
C17 O25 1.252 . S
C18 O21 1.252 . S
C18 O22 1.260 . S
O19 In13 2.266 . S
O19 C16 1.252 . S
O20 In13 2.326 . S
O20 C16 1.260 . S
O21 In13 2.266 1_655 S
O21 C18 1.252 . S
O22 In13 2.326 1_655 S
O22 C18 1.260 . S
C23 O14 1.240 . S
C23 O15 1.252 . S
O24 In13 2.294 . S
O24 C17 1.240 . S
O25 In13 2.326 . S
O25 C17 1.252 . S
In26 O27 2.294 1_455 S
In26 O28 2.326 1_455 S
In26 O32 2.266 . S
In26 O33 2.326 . S
In26 O34 2.266 . S
In26 O35 2.326 . S
In26 O37 2.294 . S
In26 O38 2.326 . S
O27 In26 2.294 1_655 S
O27 C36 1.240 . S
O28 In26 2.326 1_655 S
O28 C36 1.252 . S
C29 O32 1.252 . S
C29 O33 1.260 . S
C30 O37 1.240 . S
C30 O38 1.252 . S
C31 O34 1.252 . S
C31 O35 1.260 . S
O32 In26 2.266 . S
O32 C29 1.252 . S
O33 In26 2.326 . S
O33 C29 1.260 . S
O34 In26 2.266 . S
O34 C31 1.252 . S
O35 In26 2.326 . S
O35 C31 1.260 . S
C36 O27 1.240 . S
C36 O28 1.252 . S
O37 In26 2.294 . S
O37 C30 1.240 . S
O38 In26 2.326 . S
O38 C30 1.252 . S
In39 O40 2.294 . S
In39 O41 2.326 . S
In39 O45 2.266 . S
In39 O46 2.326 . S
In39 O47 2.266 1_455 S
In39 O48 2.326 1_455 S
In39 O50 2.294 . S
In39 O51 2.326 . S
O40 In39 2.294 . S
O40 C49 1.240 . S
O41 In39 2.326 . S
O41 C49 1.252 . S
C42 O45 1.252 . S
C42 O46 1.260 . S
C43 O50 1.240 . S
C43 O51 1.252 . S
C44 O47 1.252 . S
C44 O48 1.260 . S
O45 In39 2.266 . S
O45 C42 1.252 . S
O46 In39 2.326 . S
O46 C42 1.260 . S
O47 In39 2.266 1_655 S
O47 C44 1.252 . S
O48 In39 2.326 1_655 S
O48 C44 1.260 . S
C49 O40 1.240 . S
C49 O41 1.252 . S
O50 In39 2.294 . S
O50 C43 1.240 . S
O51 In39 2.326 . S
O51 C43 1.252 . S
In52 O53 2.294 . S
In52 O54 2.326 . S
In52 O58 2.266 . S
In52 O59 2.326 . S
In52 O60 2.266 . S
In52 O61 2.326 . S
In52 O63 2.294 . S
In52 O64 2.326 . S
O53 In52 2.294 . S
O53 C62 1.240 . S
O54 In52 2.326 . S
O54 C62 1.252 . S
C55 O58 1.252 . S
C55 O59 1.260 . S
C56 O63 1.240 . S
C56 O64 1.252 . S
C57 O60 1.252 . S
C57 O61 1.260 . S
O58 In52 2.266 . S
O58 C55 1.252 . S
O59 In52 2.326 . S
O59 C55 1.260 . S
O60 In52 2.266 . S
O60 C57 1.252 . S
O61 In52 2.326 . S
O61 C57 1.260 . S
C62 O53 1.240 . S
C62 O54 1.252 . S
O63 In52 2.294 . S
O63 C56 1.240 . S
O64 In52 2.326 . S
O64 C56 1.252 . S
In65 O66 2.294 . S
In65 O67 2.326 . S
In65 O71 2.266 . S
In65 O72 2.326 . S
In65 O73 2.266 . S
In65 O74 2.326 . S
In65 O76 2.294 . S
In65 O77 2.326 . S
O66 In65 2.294 . S
O66 C75 1.240 . S
O67 In65 2.326 . S
O67 C75 1.252 . S
C68 O71 1.252 . S
C68 O72 1.260 . S
C69 O76 1.240 . S
C69 O77 1.252 . S
C70 O73 1.252 . S
C70 O74 1.260 . S
O71 In65 2.266 . S
O71 C68 1.252 . S
O72 In65 2.326 . S
O72 C68 1.260 . S
O73 In65 2.266 . S
O73 C70 1.252 . S
O74 In65 2.326 . S
O74 C70 1.260 . S
C75 O66 1.240 . S
C75 O67 1.252 . S
O76 In65 2.294 . S
O76 C69 1.240 . S
O77 In65 2.326 . S
O77 C69 1.252 . S
In78 O79 2.294 . S
In78 O80 2.326 . S
In78 O84 2.266 . S
In78 O85 2.326 . S
In78 O86 2.266 . S
In78 O87 2.326 . S
In78 O89 2.294 . S
In78 O90 2.326 . S
O79 In78 2.294 . S
O79 C88 1.240 . S
O80 In78 2.326 . S
O80 C88 1.252 . S
C81 O84 1.252 . S
C81 O85 1.260 . S
C82 O89 1.240 . S
C82 O90 1.252 . S
C83 O86 1.252 . S
C83 O87 1.260 . S
O84 In78 2.266 . S
O84 C81 1.252 . S
O85 In78 2.326 . S
O85 C81 1.260 . S
O86 In78 2.266 . S
O86 C83 1.252 . S
O87 In78 2.326 . S
O87 C83 1.260 . S
C88 O79 1.240 . S
C88 O80 1.252 . S
O89 In78 2.294 . S
O89 C82 1.240 . S
O90 In78 2.326 . S
O90 C82 1.252 . S
In91 O92 2.294 . S
In91 O93 2.326 . S
In91 O97 2.266 . S
In91 O98 2.326 . S
In91 O99 2.266 . S
In91 O100 2.326 . S
In91 O102 2.294 . S
In91 O103 2.326 . S
O92 In91 2.294 . S
O92 C101 1.240 . S
O93 In91 2.326 . S
O93 C101 1.252 . S
C94 O97 1.252 . S
C94 O98 1.260 . S
C95 O102 1.240 . S
C95 O103 1.252 . S
C96 O99 1.252 . S
C96 O100 1.260 . S
O97 In91 2.266 . S
O97 C94 1.252 . S
O98 In91 2.326 . S
O98 C94 1.260 . S
O99 In91 2.266 . S
O99 C96 1.252 . S
O100 In91 2.326 . S
O100 C96 1.260 . S
C101 O92 1.240 . S
C101 O93 1.252 . S
O102 In91 2.294 . S
O102 C95 1.240 . S
O103 In91 2.326 . S
O103 C95 1.252 . S
C104 C105 1.362 . S
C104 C110 1.379 . S
C104 N112 1.357 1_455 S
C105 C104 1.362 . S
C105 C111 1.363 . S
C106 C107 1.363 . S
C106 C111 1.379 . S
C106 N113 1.356 . S
C107 C106 1.363 . S
C107 C110 1.363 . S
N108 C110 1.356 1_655 S
N108 H120 0.984 . S
N108 H121 0.985 . S
N109 C111 1.356 . S
N109 H114 0.984 . S
N109 H115 0.985 . S
C110 C104 1.379 . S
C110 C107 1.363 . S
C110 N108 1.356 1_455 S
C111 C105 1.363 . S
C111 C106 1.379 . S
C111 N109 1.356 . S
N112 C104 1.357 1_655 S
N112 H118 0.984 . S
N112 H119 0.984 . S
N113 C106 1.356 . S
N113 H116 0.984 . S
N113 H117 0.985 . S
H114 N109 0.984 . S
H115 N109 0.985 . S
H116 N113 0.984 . S
H117 N113 0.985 . S
H118 N112 0.984 . S
H119 N112 0.984 . S
H120 N108 0.984 . S
H121 N108 0.985 . S
C122 C123 1.363 . S
C122 C128 1.379 . S
C122 N130 1.356 1_455 S
C123 C122 1.363 . S
C123 C129 1.363 . S
C124 C125 1.363 . S
C124 C129 1.379 . S
C124 N131 1.356 . S
C125 C124 1.363 . S
C125 C128 1.363 . S
N126 C128 1.357 1_655 S
N126 H138 0.984 . S
N126 H139 0.985 . S
N127 C129 1.356 . S
N127 H132 0.984 . S
N127 H133 0.985 . S
C128 C122 1.379 . S
C128 C125 1.363 . S
C128 N126 1.357 1_455 S
C129 C123 1.363 . S
C129 C124 1.379 . S
C129 N127 1.356 . S
N130 C122 1.356 1_655 S
N130 H136 0.984 . S
N130 H137 0.984 . S
N131 C124 1.356 . S
N131 H134 0.984 . S
N131 H135 0.985 . S
H132 N127 0.984 . S
H133 N127 0.985 . S
H134 N131 0.984 . S
H135 N131 0.985 . S
H136 N130 0.984 . S
H137 N130 0.984 . S
H138 N126 0.984 . S
H139 N126 0.985 . S
C140 C141 1.363 . S
C140 C146 1.379 . S
C140 N148 1.356 . S
C141 C140 1.363 . S
C141 C147 1.363 . S
C142 C143 1.363 . S
C142 C147 1.379 . S
C142 N149 1.356 . S
C143 C142 1.363 . S
C143 C146 1.363 . S
N144 C146 1.356 . S
N144 H156 0.984 . S
N144 H157 0.985 . S
N145 C147 1.356 . S
N145 H150 0.984 . S
N145 H151 0.985 . S
C146 C140 1.379 . S
C146 C143 1.363 . S
C146 N144 1.356 . S
C147 C141 1.363 . S
C147 C142 1.379 . S
C147 N145 1.356 . S
N148 C140 1.356 . S
N148 H154 0.984 . S
N148 H155 0.984 . S
N149 C142 1.356 . S
N149 H152 0.984 . S
N149 H153 0.985 . S
H150 N145 0.984 . S
H151 N145 0.985 . S
H152 N149 0.984 . S
H153 N149 0.985 . S
H154 N148 0.984 . S
H155 N148 0.984 . S
H156 N144 0.984 . S
H157 N144 0.985 . S
C158 C159 1.363 . S
C158 C164 1.379 . S
C158 N166 1.356 . S
C159 C158 1.363 . S
C159 C165 1.363 . S
C160 C161 1.363 . S
C160 C165 1.379 . S
C160 N167 1.356 . S
C161 C160 1.363 . S
C161 C164 1.363 . S
N162 C164 1.356 . S
N162 H174 0.984 . S
N162 H175 0.985 . S
N163 C165 1.356 . S
N163 H168 0.984 . S
N163 H169 0.985 . S
C164 C158 1.379 . S
C164 C161 1.363 . S
C164 N162 1.356 . S
C165 C159 1.363 . S
C165 C160 1.379 . S
C165 N163 1.356 . S
N166 C158 1.356 . S
N166 H172 0.984 . S
N166 H173 0.984 . S
N167 C160 1.356 . S
N167 H170 0.984 . S
N167 H171 0.985 . S
H168 N163 0.984 . S
H169 N163 0.985 . S
H170 N167 0.984 . S
H171 N167 0.985 . S
H172 N166 0.984 . S
H173 N166 0.984 . S
H174 N162 0.984 . S
H175 N162 0.985 . S
C176 C177 1.363 . S
C176 C182 1.379 . S
C176 N184 1.356 . S
C177 C176 1.363 . S
C177 C183 1.363 . S
C178 C179 1.363 . S
C178 C183 1.379 . S
C178 N185 1.356 . S
C179 C178 1.363 . S
C179 C182 1.363 . S
N180 C182 1.356 . S
N180 H192 0.984 . S
N180 H193 0.985 . S
N181 C183 1.356 . S
N181 H186 0.984 . S
N181 H187 0.985 . S
C182 C176 1.379 . S
C182 C179 1.363 . S
C182 N180 1.356 . S
C183 C177 1.363 . S
C183 C178 1.379 . S
C183 N181 1.356 . S
N184 C176 1.356 . S
N184 H190 0.984 . S
N184 H191 0.984 . S
N185 C178 1.356 . S
N185 H188 0.984 . S
N185 H189 0.985 . S
H186 N181 0.984 . S
H187 N181 0.985 . S
H188 N185 0.984 . S
H189 N185 0.985 . S
H190 N184 0.984 . S
H191 N184 0.984 . S
H192 N180 0.984 . S
H193 N180 0.985 . S
C194 C195 1.363 . S
C194 C200 1.379 . S
C194 N202 1.356 . S
C195 C194 1.363 . S
C195 C201 1.363 . S
C196 C197 1.363 . S
C196 C201 1.379 . S
C196 N203 1.356 . S
C197 C196 1.363 . S
C197 C200 1.363 . S
N198 C200 1.356 . S
N198 H210 0.984 . S
N198 H211 0.985 . S
N199 C201 1.356 . S
N199 H204 0.984 . S
N199 H205 0.985 . S
C200 C194 1.379 . S
C200 C197 1.363 . S
C200 N198 1.356 . S
C201 C195 1.363 . S
C201 C196 1.379 . S
C201 N199 1.356 . S
N202 C194 1.356 . S
N202 H208 0.984 . S
N202 H209 0.984 . S
N203 C196 1.356 . S
N203 H206 0.984 . S
N203 H207 0.985 . S
H204 N199 0.984 . S
H205 N199 0.985 . S
H206 N203 0.984 . S
H207 N203 0.985 . S
H208 N202 0.984 . S
H209 N202 0.984 . S
H210 N198 0.984 . S
H211 N198 0.985 . S
C212 C213 1.363 . S
C212 C218 1.379 . S
C212 N220 1.356 . S
C213 C212 1.363 . S
C213 C219 1.363 . S
C214 C215 1.363 . S
C214 C219 1.379 . S
C214 N221 1.356 . S
C215 C214 1.363 . S
C215 C218 1.363 . S
N216 C218 1.356 . S
N216 H228 0.984 . S
N216 H229 0.985 . S
N217 C219 1.356 . S
N217 H222 0.984 . S
N217 H223 0.985 . S
C218 C212 1.379 . S
C218 C215 1.363 . S
C218 N216 1.356 . S
C219 C213 1.363 . S
C219 C214 1.379 . S
C219 N217 1.356 . S
N220 C212 1.356 . S
N220 H226 0.984 . S
N220 H227 0.984 . S
N221 C214 1.356 . S
N221 H224 0.984 . S
N221 H225 0.985 . S
H222 N217 0.984 . S
H223 N217 0.985 . S
H224 N221 0.984 . S
H225 N221 0.985 . S
H226 N220 0.984 . S
H227 N220 0.984 . S
H228 N216 0.984 . S
H229 N216 0.985 . S
C230 C231 1.363 . S
C230 C236 1.379 . S
C230 N238 1.356 . S
C231 C230 1.363 . S
C231 C237 1.363 . S
C232 C233 1.363 . S
C232 C237 1.379 . S
C232 N239 1.356 . S
C233 C232 1.363 . S
C233 C236 1.363 . S
N234 C236 1.356 . S
N234 H246 0.984 . S
N234 H247 0.985 . S
N235 C237 1.356 . S
N235 H240 0.984 . S
N235 H241 0.985 . S
C236 C230 1.379 . S
C236 C233 1.363 . S
C236 N234 1.356 . S
C237 C231 1.363 . S
C237 C232 1.379 . S
C237 N235 1.356 . S
N238 C230 1.356 . S
N238 H244 0.984 . S
N238 H245 0.984 . S
N239 C232 1.356 . S
N239 H242 0.984 . S
N239 H243 0.985 . S
H240 N235 0.984 . S
H241 N235 0.985 . S
H242 N239 0.984 . S
H243 N239 0.985 . S
H244 N238 0.984 . S
H245 N238 0.984 . S
H246 N234 0.984 . S
H247 N234 0.985 . S
C248 C249 1.363 . S
C248 C254 1.379 . S
C248 N256 1.356 . S
C249 C248 1.363 . S
C249 C255 1.363 . S
C250 C251 1.363 . S
C250 C255 1.379 . S
C250 N257 1.356 . S
C251 C250 1.363 . S
C251 C254 1.363 . S
N252 C254 1.356 . S
N252 H264 0.984 . S
N252 H265 0.985 . S
N253 C255 1.356 . S
N253 H258 0.984 . S
N253 H259 0.985 . S
C254 C248 1.379 . S
C254 C251 1.363 . S
C254 N252 1.356 . S
C255 C249 1.363 . S
C255 C250 1.379 . S
C255 N253 1.356 . S
N256 C248 1.356 . S
N256 H262 0.984 . S
N256 H263 0.984 . S
N257 C250 1.356 . S
N257 H260 0.984 . S
N257 H261 0.985 . S
H258 N253 0.984 . S
H259 N253 0.985 . S
H260 N257 0.984 . S
H261 N257 0.985 . S
H262 N256 0.984 . S
H263 N256 0.984 . S
H264 N252 0.984 . S
H265 N252 0.985 . S
C266 C267 1.363 . S
C266 C272 1.379 . S
C266 N274 1.356 . S
C267 C266 1.363 . S
C267 C273 1.363 . S
C268 C269 1.363 . S
C268 C273 1.379 . S
C268 N275 1.356 . S
C269 C268 1.363 . S
C269 C272 1.363 . S
N270 C272 1.356 . S
N270 H282 0.984 . S
N270 H283 0.985 . S
N271 C273 1.356 . S
N271 H276 0.984 . S
N271 H277 0.985 . S
C272 C266 1.379 . S
C272 C269 1.363 . S
C272 N270 1.356 . S
C273 C267 1.363 . S
C273 C268 1.379 . S
C273 N271 1.356 . S
N274 C266 1.356 . S
N274 H280 0.984 . S
N274 H281 0.984 . S
N275 C268 1.356 . S
N275 H278 0.984 . S
N275 H279 0.985 . S
H276 N271 0.984 . S
H277 N271 0.985 . S
H278 N275 0.984 . S
H279 N275 0.985 . S
H280 N274 0.984 . S
H281 N274 0.984 . S
H282 N270 0.984 . S
H283 N270 0.985 . S
C284 C285 1.363 . S
C284 C290 1.379 . S
C284 N292 1.356 . S
C285 C284 1.363 . S
C285 C291 1.363 . S
C286 C287 1.363 . S
C286 C291 1.379 . S
C286 N293 1.356 . S
C287 C286 1.363 . S
C287 C290 1.363 . S
N288 C290 1.356 . S
N288 H300 0.984 . S
N288 H301 0.985 . S
N289 C291 1.356 . S
N289 H294 0.984 . S
N289 H295 0.985 . S
C290 C284 1.379 . S
C290 C287 1.363 . S
C290 N288 1.356 . S
C291 C285 1.363 . S
C291 C286 1.379 . S
C291 N289 1.356 . S
N292 C284 1.356 . S
N292 H298 0.984 . S
N292 H299 0.984 . S
N293 C286 1.356 . S
N293 H296 0.984 . S
N293 H297 0.985 . S
H294 N289 0.984 . S
H295 N289 0.985 . S
H296 N293 0.984 . S
H297 N293 0.985 . S
H298 N292 0.984 . S
H299 N292 0.984 . S
H300 N288 0.984 . S
H301 N288 0.985 . S
C302 C303 1.363 . S
C302 C308 1.379 . S
C302 N310 1.356 . S
C303 C302 1.363 . S
C303 C309 1.363 . S
C304 C305 1.363 . S
C304 C309 1.379 . S
C304 N311 1.356 . S
C305 C304 1.363 . S
C305 C308 1.363 . S
N306 C308 1.356 . S
N306 H318 0.984 . S
N306 H319 0.985 . S
N307 C309 1.356 . S
N307 H312 0.984 . S
N307 H313 0.985 . S
C308 C302 1.379 . S
C308 C305 1.363 . S
C308 N306 1.356 . S
C309 C303 1.363 . S
C309 C304 1.379 . S
C309 N307 1.356 . S
N310 C302 1.356 . S
N310 H316 0.984 . S
N310 H317 0.984 . S
N311 C304 1.356 . S
N311 H314 0.984 . S
N311 H315 0.985 . S
H312 N307 0.984 . S
H313 N307 0.985 . S
H314 N311 0.984 . S
H315 N311 0.985 . S
H316 N310 0.984 . S
H317 N310 0.984 . S
H318 N306 0.984 . S
H319 N306 0.985 . S
C320 C321 1.363 1_565 S
C320 C326 1.379 . S
C320 N328 1.356 1_565 S
C321 C320 1.363 1_545 S
C321 C327 1.363 1_454 S
C322 C323 1.363 1_645 S
C322 C327 1.379 . S
C322 N329 1.356 1_545 S
C323 C322 1.363 1_465 S
C323 C326 1.363 1_556 S
N324 C326 1.356 . S
N324 H336 0.984 . S
N324 H337 0.985 1_554 S
N325 C327 1.356 . S
N325 H330 0.984 1_556 S
N325 H331 0.985 . S
C326 C320 1.379 . S
C326 C323 1.363 1_554 S
C326 N324 1.356 . S
C327 C321 1.363 1_656 S
C327 C322 1.379 . S
C327 N325 1.356 . S
N328 C320 1.356 1_545 S
N328 H334 0.984 1_545 S
N328 H335 0.984 . S
N329 C322 1.356 1_565 S
N329 H332 0.984 . S
N329 H333 0.985 1_565 S
H330 N325 0.984 1_554 S
H331 N325 0.985 . S
H332 N329 0.984 . S
H333 N329 0.985 1_545 S
H334 N328 0.984 1_565 S
H335 N328 0.984 . S
H336 N324 0.984 . S
H337 N324 0.985 1_556 S
C338 C339 1.363 1_554 S
C338 C344 1.379 . S
C338 N346 1.356 . S
C339 C338 1.363 1_556 S
C339 C345 1.363 . S
C340 C341 1.363 1_556 S
C340 C345 1.379 . S
C340 N347 1.356 1_455 S
C341 C340 1.363 1_554 S
C341 C344 1.363 . S
N342 C344 1.356 . S
N342 H354 0.984 . S
N342 H355 0.985 . S
N343 C345 1.356 1_655 S
N343 H348 0.984 . S
N343 H349 0.985 . S
C344 C338 1.379 . S
C344 C341 1.363 . S
C344 N342 1.356 . S
C345 C339 1.363 . S
C345 C340 1.379 . S
C345 N343 1.356 1_455 S
N346 C338 1.356 . S
N346 H352 0.984 . S
N346 H353 0.984 1_554 S
N347 C340 1.356 1_655 S
N347 H350 0.984 1_556 S
N347 H351 0.985 . S
H348 N343 0.984 . S
H349 N343 0.985 . S
H350 N347 0.984 1_554 S
H351 N347 0.985 . S
H352 N346 0.984 . S
H353 N346 0.984 1_556 S
H354 N342 0.984 . S
H355 N342 0.985 . S
C356 C357 1.363 . S
C356 C362 1.379 . S
C356 N364 1.356 . S
C357 C356 1.363 . S
C357 C363 1.363 . S
C358 C359 1.363 . S
C358 C363 1.379 . S
C358 N365 1.356 . S
C359 C358 1.363 . S
C359 C362 1.363 . S
N360 C362 1.356 . S
N360 H372 0.984 . S
N360 H373 0.985 . S
N361 C363 1.356 . S
N361 H366 0.984 . S
N361 H367 0.985 . S
C362 C356 1.379 . S
C362 C359 1.363 . S
C362 N360 1.356 . S
C363 C357 1.363 . S
C363 C358 1.379 . S
C363 N361 1.356 . S
N364 C356 1.356 . S
N364 H370 0.984 . S
N364 H371 0.984 . S
N365 C358 1.356 . S
N365 H368 0.984 . S
N365 H369 0.985 . S
H366 N361 0.984 . S
H367 N361 0.985 . S
H368 N365 0.984 . S
H369 N365 0.985 . S
H370 N364 0.984 . S
H371 N364 0.984 . S
H372 N360 0.984 . S
H373 N360 0.985 . S
C374 C375 1.363 . S
C374 C380 1.379 . S
C374 N382 1.356 . S
C375 C374 1.363 . S
C375 C381 1.363 1_565 S
C376 C377 1.363 . S
C376 C381 1.379 . S
C376 N383 1.356 . S
C377 C376 1.363 . S
C377 C380 1.363 1_545 S
N378 C380 1.356 1_545 S
N378 H390 0.984 1_545 S
N378 H391 0.985 . S
N379 C381 1.356 1_565 S
N379 H384 0.984 . S
N379 H385 0.985 1_565 S
C380 C374 1.379 . S
C380 C377 1.363 1_565 S
C380 N378 1.356 1_565 S
C381 C375 1.363 1_545 S
C381 C376 1.379 . S
C381 N379 1.356 1_545 S
N382 C374 1.356 . S
N382 H388 0.984 . S
N382 H389 0.984 . S
N383 C376 1.356 . S
N383 H386 0.984 . S
N383 H387 0.985 . S
H384 N379 0.984 . S
H385 N379 0.985 1_545 S
H386 N383 0.984 . S
H387 N383 0.985 . S
H388 N382 0.984 . S
H389 N382 0.984 . S
H390 N378 0.984 1_565 S
H391 N378 0.985 . S
C105 C16 1.479 . S
C107 C3 1.479 . S
C123 C31 1.479 . S
C125 C42 1.479 . S
C141 C57 1.479 . S
C143 C70 1.479 . S
C159 C83 1.479 . S
C161 C96 1.479 . S
C177 C94 1.636 . S
C179 C5 1.636 . S
C195 C81 1.636 . S
C197 C18 1.636 . S
C213 C29 1.636 . S
C215 C68 1.636 . S
C231 C55 1.636 . S
C233 C44 1.636 . S
C249 C75 1.289 . S
C251 C36 1.289 . S
C267 C62 1.289 . S
C269 C43 1.289 . S
C285 C101 1.289 . S
C287 C4 1.289 . S
C303 C17 1.289 . S
C305 C88 1.289 . S
C321 C10 1.443 . S
C323 C30 1.443 . S
C339 C49 1.443 . S
C341 C23 1.443 . S
C357 C82 1.443 . S
C359 C56 1.443 . S
C375 C69 1.443 . S
C377 C95 1.443 . S
