# Generated by pormake.
# Topology ull, (4)-cn, num edge types: 1
# Building blocks:
#     Node 0, Type 0, BuildingBlock: QUQFOY_clean_sbu_1, # of connection points: 4
#     Node 1, Type 0, BuildingBlock: QUQFOY_clean_sbu_1, # of connection points: 4
#     Node 2, Type 0, BuildingBlock: QUQFOY_clean_sbu_1, # of connection points: 4
#     Node 3, Type 0, BuildingBlock: QUQFOY_clean_sbu_1, # of connection points: 4
#     Node 4, Type 0, BuildingBlock: QUQFOY_clean_sbu_1, # of connection points: 4
#     Node 5, Type 0, BuildingBlock: QUQFOY_clean_sbu_1, # of connection points: 4
#     Node 6, Type 0, BuildingBlock: QUQFOY_clean_sbu_1, # of connection points: 4
#     Node 7, Type 0, BuildingBlock: QUQFOY_clean_sbu_1, # of connection points: 4
#     Node 8, Type 0, BuildingBlock: QUQFOY_clean_sbu_1, # of connection points: 4
#     Node 9, Type 0, BuildingBlock: QUQFOY_clean_sbu_1, # of connection points: 4
#     Node 10, Type 0, BuildingBlock: QUQFOY_clean_sbu_1, # of connection points: 4
#     Node 11, Type 0, BuildingBlock: QUQFOY_clean_sbu_1, # of connection points: 4
#     Node 12, Type 0, BuildingBlock: QUQFOY_clean_sbu_1, # of connection points: 4
#     Node 13, Type 0, BuildingBlock: QUQFOY_clean_sbu_1, # of connection points: 4
#     Node 14, Type 0, BuildingBlock: QUQFOY_clean_sbu_1, # of connection points: 4
#     Node 15, Type 0, BuildingBlock: QUQFOY_clean_sbu_1, # of connection points: 4
#     Node 16, Type 0, BuildingBlock: QUQFOY_clean_sbu_1, # of connection points: 4
#     Node 17, Type 0, BuildingBlock: QUQFOY_clean_sbu_1, # of connection points: 4
#     Node 18, Type 0, BuildingBlock: QUQFOY_clean_sbu_1, # of connection points: 4
#     Node 19, Type 0, BuildingBlock: QUQFOY_clean_sbu_1, # of connection points: 4
#     Node 20, Type 0, BuildingBlock: QUQFOY_clean_sbu_1, # of connection points: 4
#     Node 21, Type 0, BuildingBlock: QUQFOY_clean_sbu_1, # of connection points: 4
#     Node 22, Type 0, BuildingBlock: QUQFOY_clean_sbu_1, # of connection points: 4
#     Node 23, Type 0, BuildingBlock: QUQFOY_clean_sbu_1, # of connection points: 4
#     Node 24, Type 0, BuildingBlock: QUQFOY_clean_sbu_1, # of connection points: 4
#     Node 25, Type 0, BuildingBlock: QUQFOY_clean_sbu_1, # of connection points: 4
#     Node 26, Type 0, BuildingBlock: QUQFOY_clean_sbu_1, # of connection points: 4
#     Node 27, Type 0, BuildingBlock: QUQFOY_clean_sbu_1, # of connection points: 4
#     Node 28, Type 0, BuildingBlock: QUQFOY_clean_sbu_1, # of connection points: 4
#     Node 29, Type 0, BuildingBlock: QUQFOY_clean_sbu_1, # of connection points: 4
#     Node 30, Type 0, BuildingBlock: QUQFOY_clean_sbu_1, # of connection points: 4
#     Node 31, Type 0, BuildingBlock: QUQFOY_clean_sbu_1, # of connection points: 4
#     Node 32, Type 0, BuildingBlock: QUQFOY_clean_sbu_1, # of connection points: 4
#     Node 33, Type 0, BuildingBlock: QUQFOY_clean_sbu_1, # of connection points: 4
#     Node 34, Type 0, BuildingBlock: QUQFOY_clean_sbu_1, # of connection points: 4
#     Node 35, Type 0, BuildingBlock: QUQFOY_clean_sbu_1, # of connection points: 4
#     Node 36, Type 0, BuildingBlock: QUQFOY_clean_sbu_1, # of connection points: 4
#     Node 37, Type 0, BuildingBlock: QUQFOY_clean_sbu_1, # of connection points: 4
#     Node 38, Type 0, BuildingBlock: QUQFOY_clean_sbu_1, # of connection points: 4
#     Node 39, Type 0, BuildingBlock: QUQFOY_clean_sbu_1, # of connection points: 4
#     Node 40, Type 0, BuildingBlock: QUQFOY_clean_sbu_1, # of connection points: 4
#     Node 41, Type 0, BuildingBlock: QUQFOY_clean_sbu_1, # of connection points: 4
#     Node 42, Type 0, BuildingBlock: QUQFOY_clean_sbu_1, # of connection points: 4
#     Node 43, Type 0, BuildingBlock: QUQFOY_clean_sbu_1, # of connection points: 4
#     Node 44, Type 0, BuildingBlock: QUQFOY_clean_sbu_1, # of connection points: 4
#     Node 45, Type 0, BuildingBlock: QUQFOY_clean_sbu_1, # of connection points: 4
#     Node 46, Type 0, BuildingBlock: QUQFOY_clean_sbu_1, # of connection points: 4
#     Node 47, Type 0, BuildingBlock: QUQFOY_clean_sbu_1, # of connection points: 4
#     Edge 48, Type (0, 0), BuildingBlock: CIFDUS_clean_linker_0, # of connection points: 2
#     Edge 49, Type (0, 0), BuildingBlock: CIFDUS_clean_linker_0, # of connection points: 2
#     Edge 50, Type (0, 0), BuildingBlock: CIFDUS_clean_linker_0, # of connection points: 2
#     Edge 51, Type (0, 0), BuildingBlock: CIFDUS_clean_linker_0, # of connection points: 2
#     Edge 52, Type (0, 0), BuildingBlock: CIFDUS_clean_linker_0, # of connection points: 2
#     Edge 53, Type (0, 0), BuildingBlock: CIFDUS_clean_linker_0, # of connection points: 2
#     Edge 54, Type (0, 0), BuildingBlock: CIFDUS_clean_linker_0, # of connection points: 2
#     Edge 55, Type (0, 0), BuildingBlock: CIFDUS_clean_linker_0, # of connection points: 2
#     Edge 56, Type (0, 0), BuildingBlock: CIFDUS_clean_linker_0, # of connection points: 2
#     Edge 57, Type (0, 0), BuildingBlock: CIFDUS_clean_linker_0, # of connection points: 2
#     Edge 58, Type (0, 0), BuildingBlock: CIFDUS_clean_linker_0, # of connection points: 2
#     Edge 59, Type (0, 0), BuildingBlock: CIFDUS_clean_linker_0, # of connection points: 2
#     Edge 60, Type (0, 0), BuildingBlock: CIFDUS_clean_linker_0, # of connection points: 2
#     Edge 61, Type (0, 0), BuildingBlock: CIFDUS_clean_linker_0, # of connection points: 2
#     Edge 62, Type (0, 0), BuildingBlock: CIFDUS_clean_linker_0, # of connection points: 2
#     Edge 63, Type (0, 0), BuildingBlock: CIFDUS_clean_linker_0, # of connection points: 2
#     Edge 64, Type (0, 0), BuildingBlock: CIFDUS_clean_linker_0, # of connection points: 2
#     Edge 65, Type (0, 0), BuildingBlock: CIFDUS_clean_linker_0, # of connection points: 2
#     Edge 66, Type (0, 0), BuildingBlock: CIFDUS_clean_linker_0, # of connection points: 2
#     Edge 67, Type (0, 0), BuildingBlock: CIFDUS_clean_linker_0, # of connection points: 2
#     Edge 68, Type (0, 0), BuildingBlock: CIFDUS_clean_linker_0, # of connection points: 2
#     Edge 69, Type (0, 0), BuildingBlock: CIFDUS_clean_linker_0, # of connection points: 2
#     Edge 70, Type (0, 0), BuildingBlock: CIFDUS_clean_linker_0, # of connection points: 2
#     Edge 71, Type (0, 0), BuildingBlock: CIFDUS_clean_linker_0, # of connection points: 2
#     Edge 72, Type (0, 0), BuildingBlock: CIFDUS_clean_linker_0, # of connection points: 2
#     Edge 73, Type (0, 0), BuildingBlock: CIFDUS_clean_linker_0, # of connection points: 2
#     Edge 74, Type (0, 0), BuildingBlock: CIFDUS_clean_linker_0, # of connection points: 2
#     Edge 75, Type (0, 0), BuildingBlock: CIFDUS_clean_linker_0, # of connection points: 2
#     Edge 76, Type (0, 0), BuildingBlock: CIFDUS_clean_linker_0, # of connection points: 2
#     Edge 77, Type (0, 0), BuildingBlock: CIFDUS_clean_linker_0, # of connection points: 2
#     Edge 78, Type (0, 0), BuildingBlock: CIFDUS_clean_linker_0, # of connection points: 2
#     Edge 79, Type (0, 0), BuildingBlock: CIFDUS_clean_linker_0, # of connection points: 2
#     Edge 80, Type (0, 0), BuildingBlock: CIFDUS_clean_linker_0, # of connection points: 2
#     Edge 81, Type (0, 0), BuildingBlock: CIFDUS_clean_linker_0, # of connection points: 2
#     Edge 82, Type (0, 0), BuildingBlock: CIFDUS_clean_linker_0, # of connection points: 2
#     Edge 83, Type (0, 0), BuildingBlock: CIFDUS_clean_linker_0, # of connection points: 2
#     Edge 84, Type (0, 0), BuildingBlock: CIFDUS_clean_linker_0, # of connection points: 2
#     Edge 85, Type (0, 0), BuildingBlock: CIFDUS_clean_linker_0, # of connection points: 2
#     Edge 86, Type (0, 0), BuildingBlock: CIFDUS_clean_linker_0, # of connection points: 2
#     Edge 87, Type (0, 0), BuildingBlock: CIFDUS_clean_linker_0, # of connection points: 2
#     Edge 88, Type (0, 0), BuildingBlock: CIFDUS_clean_linker_0, # of connection points: 2
#     Edge 89, Type (0, 0), BuildingBlock: CIFDUS_clean_linker_0, # of connection points: 2
#     Edge 90, Type (0, 0), BuildingBlock: CIFDUS_clean_linker_0, # of connection points: 2
#     Edge 91, Type (0, 0), BuildingBlock: CIFDUS_clean_linker_0, # of connection points: 2
#     Edge 92, Type (0, 0), BuildingBlock: CIFDUS_clean_linker_0, # of connection points: 2
#     Edge 93, Type (0, 0), BuildingBlock: CIFDUS_clean_linker_0, # of connection points: 2
#     Edge 94, Type (0, 0), BuildingBlock: CIFDUS_clean_linker_0, # of connection points: 2
#     Edge 95, Type (0, 0), BuildingBlock: CIFDUS_clean_linker_0, # of connection points: 2
#     Edge 96, Type (0, 0), BuildingBlock: CIFDUS_clean_linker_0, # of connection points: 2
#     Edge 97, Type (0, 0), BuildingBlock: CIFDUS_clean_linker_0, # of connection points: 2
#     Edge 98, Type (0, 0), BuildingBlock: CIFDUS_clean_linker_0, # of connection points: 2
#     Edge 99, Type (0, 0), BuildingBlock: CIFDUS_clean_linker_0, # of connection points: 2
#     Edge 100, Type (0, 0), BuildingBlock: CIFDUS_clean_linker_0, # of connection points: 2
#     Edge 101, Type (0, 0), BuildingBlock: CIFDUS_clean_linker_0, # of connection points: 2
#     Edge 102, Type (0, 0), BuildingBlock: CIFDUS_clean_linker_0, # of connection points: 2
#     Edge 103, Type (0, 0), BuildingBlock: CIFDUS_clean_linker_0, # of connection points: 2
#     Edge 104, Type (0, 0), BuildingBlock: CIFDUS_clean_linker_0, # of connection points: 2
#     Edge 105, Type (0, 0), BuildingBlock: CIFDUS_clean_linker_0, # of connection points: 2
#     Edge 106, Type (0, 0), BuildingBlock: CIFDUS_clean_linker_0, # of connection points: 2
#     Edge 107, Type (0, 0), BuildingBlock: CIFDUS_clean_linker_0, # of connection points: 2
#     Edge 108, Type (0, 0), BuildingBlock: CIFDUS_clean_linker_0, # of connection points: 2
#     Edge 109, Type (0, 0), BuildingBlock: CIFDUS_clean_linker_0, # of connection points: 2
#     Edge 110, Type (0, 0), BuildingBlock: CIFDUS_clean_linker_0, # of connection points: 2
#     Edge 111, Type (0, 0), BuildingBlock: CIFDUS_clean_linker_0, # of connection points: 2
#     Edge 112, Type (0, 0), BuildingBlock: CIFDUS_clean_linker_0, # of connection points: 2
#     Edge 113, Type (0, 0), BuildingBlock: CIFDUS_clean_linker_0, # of connection points: 2
#     Edge 114, Type (0, 0), BuildingBlock: CIFDUS_clean_linker_0, # of connection points: 2
#     Edge 115, Type (0, 0), BuildingBlock: CIFDUS_clean_linker_0, # of connection points: 2
#     Edge 116, Type (0, 0), BuildingBlock: CIFDUS_clean_linker_0, # of connection points: 2
#     Edge 117, Type (0, 0), BuildingBlock: CIFDUS_clean_linker_0, # of connection points: 2
#     Edge 118, Type (0, 0), BuildingBlock: CIFDUS_clean_linker_0, # of connection points: 2
#     Edge 119, Type (0, 0), BuildingBlock: CIFDUS_clean_linker_0, # of connection points: 2
#     Edge 120, Type (0, 0), BuildingBlock: CIFDUS_clean_linker_0, # of connection points: 2
#     Edge 121, Type (0, 0), BuildingBlock: CIFDUS_clean_linker_0, # of connection points: 2
#     Edge 122, Type (0, 0), BuildingBlock: CIFDUS_clean_linker_0, # of connection points: 2
#     Edge 123, Type (0, 0), BuildingBlock: CIFDUS_clean_linker_0, # of connection points: 2
#     Edge 124, Type (0, 0), BuildingBlock: CIFDUS_clean_linker_0, # of connection points: 2
#     Edge 125, Type (0, 0), BuildingBlock: CIFDUS_clean_linker_0, # of connection points: 2
#     Edge 126, Type (0, 0), BuildingBlock: CIFDUS_clean_linker_0, # of connection points: 2
#     Edge 127, Type (0, 0), BuildingBlock: CIFDUS_clean_linker_0, # of connection points: 2
#     Edge 128, Type (0, 0), BuildingBlock: CIFDUS_clean_linker_0, # of connection points: 2
#     Edge 129, Type (0, 0), BuildingBlock: CIFDUS_clean_linker_0, # of connection points: 2
#     Edge 130, Type (0, 0), BuildingBlock: CIFDUS_clean_linker_0, # of connection points: 2
#     Edge 131, Type (0, 0), BuildingBlock: CIFDUS_clean_linker_0, # of connection points: 2
#     Edge 132, Type (0, 0), BuildingBlock: CIFDUS_clean_linker_0, # of connection points: 2
#     Edge 133, Type (0, 0), BuildingBlock: CIFDUS_clean_linker_0, # of connection points: 2
#     Edge 134, Type (0, 0), BuildingBlock: CIFDUS_clean_linker_0, # of connection points: 2
#     Edge 135, Type (0, 0), BuildingBlock: CIFDUS_clean_linker_0, # of connection points: 2
#     Edge 136, Type (0, 0), BuildingBlock: CIFDUS_clean_linker_0, # of connection points: 2
#     Edge 137, Type (0, 0), BuildingBlock: CIFDUS_clean_linker_0, # of connection points: 2
#     Edge 138, Type (0, 0), BuildingBlock: CIFDUS_clean_linker_0, # of connection points: 2
#     Edge 139, Type (0, 0), BuildingBlock: CIFDUS_clean_linker_0, # of connection points: 2
#     Edge 140, Type (0, 0), BuildingBlock: CIFDUS_clean_linker_0, # of connection points: 2
#     Edge 141, Type (0, 0), BuildingBlock: CIFDUS_clean_linker_0, # of connection points: 2
#     Edge 142, Type (0, 0), BuildingBlock: CIFDUS_clean_linker_0, # of connection points: 2
#     Edge 143, Type (0, 0), BuildingBlock: CIFDUS_clean_linker_0, # of connection points: 2
# Relax obj value: 0.009
# Max RMSD: 0.066
# Mean RMSD: 0.066
data_MOF--net-ull--node1-QUQFOY_clean_sbu_1--edge1-CIFDUS_clean_linker_0
_symmetry_space_group_name_H-M    P1
_symmetry_Int_Tables_number       1
_symmetry_cell_setting            triclinic
loop_
_symmetry_equiv_pos_as_xyz
'x, y, z'
_cell_length_a     55.074752
_cell_length_b     55.083684
_cell_length_c     55.200064
_cell_angle_alpha  89.934572
_cell_angle_beta   90.156917
_cell_angle_gamma 89.986721
loop_
_atom_site_label
_atom_site_type_symbol
_atom_site_fract_x
_atom_site_fract_y
_atom_site_fract_z
_atom_type_partial_charge
O0 O 0.01622 0.34181 0.22547 0.0
Cd1 Cd 1.01385 0.37263 0.20407 0.0
Cd2 Cd 0.03923 0.34384 0.1728 0.0
O3 O 0.04045 0.32026 0.20205 0.0
O4 O 1.01283 0.40053 0.22723 0.0
O5 O 0.04318 0.39414 0.20166 0.0
C6 C 0.03401 0.40659 0.21927 0.0
C7 C 0.0723 0.34567 0.1457 0.0
C8 C 0.0285 0.32266 0.2216 0.0
C9 C 0.98719 0.3591 0.15961 0.0
O10 O 1.00599 0.34628 0.15573 0.0
O11 O 0.98645 0.37331 0.17779 0.0
O12 O 0.05869 0.32679 0.14759 0.0
O13 O 0.06787 0.36361 0.16005 0.0
O14 O 0.68755 1.01344 0.22423 0.0
Cd15 Cd 0.65605 0.01454 0.20385 0.0
Cd16 Cd 0.68409 0.04144 0.17356 0.0
O17 O 0.70829 0.04006 0.20246 0.0
O18 O 0.62686 0.01671 0.22551 0.0
O19 O 0.64073 0.04723 0.20328 0.0
C20 C 0.6257 0.03935 0.2194 0.0
C21 C 0.67794 0.07617 0.14938 0.0
C22 C 0.70656 0.02616 0.22086 0.0
C23 C 0.66696 0.99139 0.15694 0.0
O24 O 0.68059 1.0098 0.15428 0.0
O25 O 0.65311 0.98985 0.17531 0.0
O26 O 0.69787 0.06394 0.14853 0.0
O27 O 0.66197 0.06967 0.16515 0.0
O28 O 0.0232 0.67027 0.2387 0.0
Cd29 Cd 0.02166 0.64131 0.21488 0.0
Cd30 Cd 0.9999 0.67449 0.1863 0.0
O31 O 0.99987 0.69524 0.21757 0.0
O32 O 0.02195 0.61066 0.2344 0.0
O33 O 0.98949 0.62448 0.21487 0.0
C34 C 0.99912 0.60875 0.22939 0.0
C35 C 0.96584 0.67058 0.16091 0.0
C36 C 1.01189 0.69033 0.23669 0.0
C37 C 0.04883 0.65562 0.17058 0.0
O38 O 0.03255 0.67184 0.16854 0.0
O39 O 0.04712 0.63944 0.18698 0.0
O40 O 0.97816 0.69045 0.16199 0.0
O41 O 0.97207 0.65314 0.17531 0.0
O42 O 0.34409 0.01751 0.225 0.0
Cd43 Cd 0.37484 0.0176 0.20362 0.0
Cd44 Cd 0.34772 0.98945 0.17456 0.0
O45 O 0.32445 0.98943 0.2041 0.0
O46 O 0.40471 0.01953 0.22451 0.0
O47 O 0.39315 0.98627 0.205 0.0
C48 C 0.40785 0.99673 0.21998 0.0
C49 C 0.35531 0.95431 0.15133 0.0
C50 C 0.32579 1.00366 0.22225 0.0
C51 C 0.36025 0.04027 0.15702 0.0
O52 O 0.34757 0.02113 0.15471 0.0
O53 O 0.37502 0.04225 0.17472 0.0
O54 O 0.33455 0.96511 0.15102 0.0
O55 O 0.37166 0.96275 0.16583 0.0
O56 O 1.00857 0.67862 0.79367 0.0
Cd57 Cd 1.00819 0.64997 0.81802 0.0
Cd58 Cd 0.02835 0.68473 0.84634 0.0
O59 O 0.02806 0.70613 0.81536 0.0
O60 O 1.00829 0.62035 0.79692 0.0
O61 O 0.03853 0.63003 0.82161 0.0
C62 C 0.02983 0.61593 0.80506 0.0
C63 C 0.06282 0.67879 0.87081 0.0
C64 C 0.01785 0.69966 0.79568 0.0
C65 C 0.97904 0.66505 0.86099 0.0
O66 O 0.99553 0.68096 0.86378 0.0
O67 O 0.98091 0.64914 0.84432 0.0
O68 O 0.05079 0.69889 0.87119 0.0
O69 O 0.056 0.66237 0.85557 0.0
O70 O 0.34245 1.01076 0.79647 0.0
Cd71 Cd 0.3741 1.00923 0.8167 0.0
Cd72 Cd 0.3447 0.02934 0.85044 0.0
O73 O 0.31914 0.02993 0.82271 0.0
O74 O 0.40105 1.01037 0.79253 0.0
O75 O 0.39458 0.03909 0.8199 0.0
C76 C 0.40681 0.03118 0.80159 0.0
C77 C 0.3516 0.06307 0.87574 0.0
C78 C 0.32216 0.02024 0.80201 0.0
C79 C 0.36515 0.97886 0.8602 0.0
O80 O 0.35072 0.99585 0.86616 0.0
O81 O 0.37805 0.98073 0.84117 0.0
O82 O 0.3323 0.04995 0.8776 0.0
O83 O 0.36674 0.05764 0.85876 0.0
O84 O 0.01791 0.35098 0.79779 0.0
Cd85 Cd 0.01512 0.37999 0.82118 0.0
Cd86 Cd 0.98958 0.34654 0.84799 0.0
O87 O 0.99248 0.32597 0.81641 0.0
O88 O 1.0117 0.41081 0.80163 0.0
O89 O 0.98164 0.39348 0.82182 0.0
C90 C 0.98883 0.40998 0.80683 0.0
C91 C 0.95405 0.35107 0.87131 0.0
C92 C 1.00631 0.33102 0.79859 0.0
C93 C 0.03821 0.36493 0.86752 0.0
O94 O 0.0208 0.34979 0.86813 0.0
O95 O 0.03902 0.38093 0.85082 0.0
O96 O 0.96614 0.331 0.87128 0.0
O97 O 0.96115 0.36802 0.85684 0.0
O98 O 0.68403 0.01566 0.79706 0.0
Cd99 Cd 0.65299 0.01712 0.81809 0.0
Cd100 Cd 0.68107 0.99085 0.84863 0.0
O101 O 0.70575 0.9911 0.82018 0.0
O102 O 0.62466 0.01763 0.79518 0.0
O103 O 0.63219 0.9874 0.82069 0.0
C104 C 0.61914 0.99635 0.80335 0.0
C105 C 0.67408 0.95589 0.87248 0.0
C106 C 0.70345 1.00374 0.80096 0.0
C107 C 0.66598 0.0423 0.8635 0.0
O108 O 0.67852 0.02324 0.86723 0.0
O109 O 0.65224 0.04375 0.84495 0.0
O110 O 0.69409 0.96795 0.87377 0.0
O111 O 0.65822 0.96297 0.85674 0.0
O112 O 0.23335 1.01259 0.35076 0.0
Cd113 Cd 0.20964 1.01228 0.37981 0.0
Cd114 Cd 0.17932 0.03028 0.34493 0.0
O115 O 0.21001 0.03027 0.32334 0.0
O116 O 0.23179 1.01319 0.40854 0.0
O117 O 0.20625 0.04293 0.39931 0.0
C118 C 0.22355 0.03468 0.41288 0.0
C119 C 0.15207 0.06314 0.34514 0.0
C120 C 0.23029 0.02114 0.32958 0.0
C121 C 0.16721 0.98115 0.367 0.0
O122 O 0.16334 0.99704 0.35073 0.0
O123 O 0.18436 0.98404 0.38228 0.0
O124 O 0.15395 0.0488 0.32681 0.0
O125 O 0.16654 0.05951 0.36325 0.0
O126 O 0.02463 0.23171 0.35216 0.0
Cd127 Cd 0.02234 0.20837 0.38138 0.0
Cd128 Cd 1.00026 0.17968 0.34847 0.0
O129 O 1.00179 0.21056 0.32681 0.0
O130 O 0.02438 0.22862 0.41144 0.0
O131 O 0.99066 0.21043 0.399 0.0
C132 C 1.00142 0.22481 0.41407 0.0
C133 C 0.96474 0.15662 0.35417 0.0
C134 C 1.01399 0.22956 0.3318 0.0
C135 C 0.04857 0.16277 0.36806 0.0
O136 O 0.03224 0.16052 0.3519 0.0
O137 O 0.04719 0.1798 0.38358 0.0
O138 O 0.97659 0.15616 0.33404 0.0
O139 O 0.9724 0.17118 0.37084 0.0
O140 O 0.80081 0.02021 0.348 0.0
Cd141 Cd 0.82519 0.02131 0.37655 0.0
Cd142 Cd 0.85254 0.99606 0.34403 0.0
O143 O 0.82105 0.99592 0.32344 0.0
O144 O 0.80406 0.02276 0.406 0.0
O145 O 0.82763 0.99133 0.39726 0.0
C146 C 0.81113 1.00093 0.41086 0.0
C147 C 0.87874 0.96224 0.34484 0.0
C148 C 0.80219 1.00827 0.32837 0.0
C149 C 0.86906 0.04699 0.35895 0.0
O150 O 0.87071 0.02863 0.34513 0.0
O151 O 0.85267 0.04773 0.37522 0.0
O152 O 0.87579 0.9753 0.3257 0.0
O153 O 0.86581 0.9676 0.36356 0.0
O154 O 1.01034 0.79758 0.34898 0.0
Cd155 Cd 1.01173 0.81949 0.37947 0.0
Cd156 Cd 0.03354 0.85114 0.34837 0.0
O157 O 0.0328 0.82127 0.32573 0.0
O158 O 1.01106 0.79813 0.40882 0.0
O159 O 0.04365 0.81864 0.39707 0.0
C160 C 0.03375 0.80326 0.41174 0.0
C161 C 0.06742 0.87731 0.34795 0.0
C162 C 0.02117 0.80159 0.32904 0.0
C163 C 0.98417 0.86482 0.36831 0.0
O164 O 1.00085 0.86867 0.35293 0.0
O165 O 0.98568 0.84686 0.38279 0.0
O166 O 0.0527 0.87562 0.32988 0.0
O167 O 0.06348 0.8634 0.36637 0.0
O168 O 0.22886 0.01556 0.67284 0.0
Cd169 Cd 0.20444 1.0131 0.64445 0.0
Cd170 Cd 0.17848 0.98754 0.67732 0.0
O171 O 0.21048 0.98959 0.6973 0.0
O172 O 0.223 0.01408 0.61325 0.0
O173 O 0.20549 0.98082 0.62769 0.0
C174 C 0.21918 0.991 0.61162 0.0
C175 C 0.15315 0.95296 0.67722 0.0
C176 C 0.22831 1.00353 0.69253 0.0
C177 C 0.15918 0.03683 0.66123 0.0
O178 O 0.15872 0.01913 0.676 0.0
O179 O 0.17522 0.0375 0.64466 0.0
O180 O 0.15637 0.96601 0.69631 0.0
O181 O 0.16566 0.95853 0.65826 0.0
O182 O 0.01432 0.23012 0.68254 0.0
Cd183 Cd 1.01194 0.21062 0.65057 0.0
Cd184 Cd 0.03873 0.17918 0.67711 0.0
O185 O 0.0406 0.20709 0.70221 0.0
O186 O 1.00849 0.23609 0.62485 0.0
O187 O 0.04048 0.21187 0.62774 0.0
C188 C 0.02992 0.23017 0.61748 0.0
C189 C 0.07184 0.15312 0.66971 0.0
C190 C 0.02747 0.22608 0.70108 0.0
C191 C 0.98643 0.16546 0.66371 0.0
O192 O 1.00571 0.16178 0.67588 0.0
O193 O 0.98499 0.18372 0.64956 0.0
O194 O 0.0602 0.15286 0.68991 0.0
O195 O 0.06558 0.16922 0.65386 0.0
O196 O 0.79678 0.01566 0.6742 0.0
Cd197 Cd 0.82055 0.01509 0.64526 0.0
Cd198 Cd 0.84768 0.04144 0.6769 0.0
O199 O 0.81703 0.04003 0.69883 0.0
O200 O 0.79929 1.01365 0.61573 0.0
O201 O 0.82262 0.04516 0.62483 0.0
C202 C 0.80631 0.03551 0.611 0.0
C203 C 0.87131 0.07665 0.67118 0.0
C204 C 0.79838 0.02722 0.69406 0.0
C205 C 0.86606 0.99128 0.66161 0.0
O206 O 0.8676 1.00988 0.67516 0.0
O207 O 0.84882 0.98959 0.64623 0.0
O208 O 0.87122 0.06501 0.69146 0.0
O209 O 0.85673 0.0692 0.65441 0.0
O210 O 1.01035 0.79847 0.67671 0.0
Cd211 Cd 1.012 0.8178 0.64443 0.0
Cd212 Cd 0.99208 0.85259 0.67292 0.0
O213 O 0.9908 0.82543 0.69887 0.0
O214 O 1.01066 0.79277 0.61803 0.0
O215 O 0.9821 0.82051 0.62354 0.0
C216 C 0.98988 0.80173 0.61188 0.0
C217 C 0.95887 0.87891 0.66661 0.0
C218 C 1.00066 0.80465 0.69668 0.0
C219 C 0.04316 0.86102 0.65356 0.0
O220 O 0.02604 0.86747 0.66757 0.0
O221 O 0.04103 0.84201 0.64057 0.0
O222 O 0.97239 0.8803 0.68566 0.0
O223 O 0.96369 0.86194 0.65124 0.0
O224 O 0.35054 0.22849 1.00449 0.0
Cd225 Cd 0.37867 0.20383 1.00731 0.0
Cd226 Cd 0.3458 0.17949 0.03421 0.0
O227 O 0.32625 0.21176 0.03173 0.0
O228 O 0.41031 0.22204 1.006 0.0
O229 O 0.39529 0.20582 0.03953 0.0
C230 C 0.41162 0.21906 0.02919 0.0
C231 C 0.35125 0.15633 0.06964 0.0
C232 C 0.33118 0.22894 0.01704 0.0
C233 C 0.36059 0.15765 0.98599 0.0
O234 O 0.34581 0.15841 1.0036 0.0
O235 O 0.37758 0.17331 0.98455 0.0
O236 O 0.33052 0.15748 0.05876 0.0
O237 O 0.36855 0.16984 0.06148 0.0
O238 O 0.35207 0.79307 0.01436 0.0
Cd239 Cd 0.3815 0.81637 0.01573 0.0
Cd240 Cd 0.34942 0.8447 0.98953 0.0
O241 O 0.32838 0.8137 0.98935 0.0
O242 O 0.40953 0.79372 0.02006 0.0
O243 O 0.4041 0.81597 0.98702 0.0
C244 C 0.416 0.79909 0.99824 0.0
C245 C 0.3482 0.87144 0.9562 0.0
C246 C 0.33264 0.7949 1.00203 0.0
C247 C 0.3643 0.86062 0.04075 0.0
O248 O 0.35084 0.86255 0.02212 0.0
O249 O 0.38038 0.84399 0.04187 0.0
O250 O 0.32978 0.86806 0.97006 0.0
O251 O 0.36742 0.85871 0.96049 0.0
O252 O 0.23259 0.34781 1.01061 0.0
Cd253 Cd 0.21409 0.38055 1.01251 0.0
Cd254 Cd 0.17962 0.35305 0.99001 0.0
O255 O 0.20637 0.32664 0.98892 0.0
O256 O 0.24062 0.40522 0.01505 0.0
O257 O 0.2153 0.4033 0.98386 0.0
C258 C 0.23416 0.41299 0.99394 0.0
C259 C 0.15314 0.35954 0.95704 0.0
C260 C 0.22668 0.32828 0.99985 0.0
C261 C 0.16951 0.37145 0.04117 0.0
O262 O 0.1638 0.35792 0.02341 0.0
O263 O 0.18872 0.38432 0.04037 0.0
O264 O 0.15196 0.34033 0.97031 0.0
O265 O 0.17024 0.37489 0.96174 0.0
O266 O 0.67949 0.23167 0.0159 0.0
Cd267 Cd 0.64832 0.21099 0.01438 0.0
Cd268 Cd 0.67451 0.18409 0.98421 0.0
O269 O 0.69476 0.21595 0.98243 0.0
O270 O 0.61865 0.23201 0.01661 0.0
O271 O 0.63066 0.21385 0.98279 0.0
C272 C 0.61589 0.22849 0.99361 0.0
C273 C 0.66875 0.15896 0.95014 0.0
C274 C 0.69536 0.23182 0.99921 0.0
C275 C 0.66396 0.1647 0.03489 0.0
O276 O 0.67715 0.16436 0.01602 0.0
O277 O 0.64774 0.18099 0.0372 0.0
O278 O 0.68956 0.16107 0.96061 0.0
O279 O 0.65123 0.17231 0.95807 0.0
O280 O 0.80495 0.68228 0.02601 0.0
Cd281 Cd 0.83021 0.65498 0.02272 0.0
Cd282 Cd 0.85534 0.68948 0.99853 0.0
O283 O 0.82254 0.70805 1.00078 0.0
O284 O 0.8119 0.62366 0.02035 0.0
O285 O 0.83094 0.64099 0.98949 0.0
C286 C 0.81655 0.62424 0.99741 0.0
C287 C 0.87897 0.68931 0.96297 0.0
C288 C 0.80476 0.70214 0.01427 0.0
C289 C 0.87528 0.67163 0.04692 0.0
O290 O 0.87547 0.6873 0.02999 0.0
O291 O 0.85946 0.65475 0.04686 0.0
O292 O 0.87668 0.70847 0.97615 0.0
O293 O 0.86685 0.6703 0.96931 0.0
O294 O 0.6841 0.79837 1.01178 0.0
Cd295 Cd 0.65147 0.81664 1.00776 0.0
Cd296 Cd 0.67523 0.84897 0.03677 0.0
O297 O 0.70118 0.82202 0.03922 0.0
O298 O 0.62686 0.79029 1.00322 0.0
O299 O 0.6276 0.81445 0.0353 0.0
C300 C 0.61848 0.79581 0.02434 0.0
C301 C 0.66902 0.87527 0.06979 0.0
C302 C 0.70164 0.80313 0.02602 0.0
C303 C 0.66355 0.86302 0.98404 0.0
O304 O 0.67428 0.86684 1.00408 0.0
O305 O 0.65063 0.84401 0.98127 0.0
O306 O 0.68878 0.8753 0.05744 0.0
O307 O 0.65279 0.85931 0.06423 0.0
O308 O 0.22314 0.68588 1.00614 0.0
Cd309 Cd 0.20153 0.65525 1.00568 0.0
Cd310 Cd 0.173 0.68399 0.03402 0.0
O311 O 0.20278 0.70684 0.03342 0.0
O312 O 0.22505 0.62803 1.00111 0.0
O313 O 0.20364 0.6331 0.03467 0.0
C314 C 0.22052 0.62162 0.02315 0.0
C315 C 0.14868 0.68209 0.06903 0.0
C316 C 0.22093 0.70457 0.01942 0.0
C317 C 0.15499 0.66998 0.98329 0.0
O318 O 0.15314 0.68266 1.00243 0.0
O319 O 0.17268 0.65525 0.98088 0.0
O320 O 0.14997 0.70129 0.0558 0.0
O321 O 0.16207 0.66385 0.06299 0.0
O322 O 0.79889 0.34627 1.00653 0.0
Cd323 Cd 0.81905 0.37773 1.00681 0.0
Cd324 Cd 0.84659 0.35169 0.03668 0.0
O325 O 0.81515 0.33088 0.03968 0.0
O326 O 0.79499 0.40469 1.00335 0.0
O327 O 0.81693 0.39861 0.03657 0.0
C328 C 0.79976 0.41032 0.02559 0.0
C329 C 0.87207 0.35779 0.07054 0.0
C330 C 0.79896 0.33036 0.02319 0.0
C331 C 0.8645 0.36236 0.98506 0.0
O332 O 0.86551 0.3495 1.00423 0.0
O333 O 0.84795 0.37836 0.98276 0.0
O334 O 0.87025 0.33702 0.05999 0.0
O335 O 0.85845 0.37516 0.06259 0.0
O336 O 0.51507 0.84747 0.72766 0.0
Cd337 Cd 0.51361 0.87874 0.7071 0.0
Cd338 Cd 0.5432 0.85314 0.6784 0.0
O339 O 0.54681 0.83152 0.70925 0.0
O340 O 0.51282 0.90719 0.72973 0.0
O341 O 0.54346 0.89927 0.70493 0.0
C342 C 0.5343 0.91248 0.72195 0.0
C343 C 0.57681 0.86084 0.65299 0.0
C344 C 0.53132 0.83115 0.72635 0.0
C345 C 0.49068 0.86332 0.66207 0.0
O346 O 0.51026 0.85117 0.66003 0.0
O347 O 0.48834 0.87856 0.67923 0.0
O348 O 0.56668 0.83979 0.65413 0.0
O349 O 0.56854 0.87754 0.66711 0.0
O350 O 0.18003 0.50973 0.72875 0.0
Cd351 Cd 0.14761 0.50891 0.70976 0.0
Cd352 Cd 0.17448 0.53249 0.67631 0.0
O353 O 0.19823 0.53669 0.70542 0.0
O354 O 0.12079 0.5103 0.73414 0.0
O355 O 0.12775 0.53929 0.7071 0.0
C356 C 0.11537 0.53135 0.72533 0.0
C357 C 0.16839 0.56482 0.64896 0.0
C358 C 0.19785 0.52374 0.72453 0.0
C359 C 0.15713 0.48063 0.66581 0.0
O360 O 0.17132 0.4982 0.66088 0.0
O361 O 0.14346 0.48164 0.68432 0.0
O362 O 0.18817 0.55233 0.64918 0.0
O363 O 0.15213 0.55954 0.66493 0.0
O364 O 0.51422 0.17846 0.7337 0.0
Cd365 Cd 0.51478 0.1496 0.70974 0.0
Cd366 Cd 0.49685 0.18437 0.67959 0.0
O367 O 0.49669 0.20588 0.71027 0.0
O368 O 0.51345 0.12045 0.73115 0.0
O369 O 0.48417 0.13031 0.70527 0.0
C370 C 0.49214 0.11628 0.72232 0.0
C371 C 0.46419 0.18457 0.65215 0.0
C372 C 0.50565 0.19966 0.7306 0.0
C373 C 0.54608 0.16236 0.66788 0.0
O374 O 0.53014 0.17857 0.66386 0.0
O375 O 0.54321 0.14714 0.68501 0.0
O376 O 0.47868 0.20281 0.65427 0.0
O377 O 0.46756 0.16632 0.66648 0.0
O378 O 0.84424 0.52047 0.73273 0.0
Cd379 Cd 0.87407 0.51948 0.71006 0.0
Cd380 Cd 0.84497 0.49109 0.6826 0.0
O381 O 0.82349 0.49216 0.71327 0.0
O382 O 0.90465 0.52174 0.72969 0.0
O383 O 0.89222 0.48801 0.71148 0.0
C384 C 0.90753 0.49883 0.72563 0.0
C385 C 0.84614 0.45612 0.65804 0.0
C386 C 0.82571 0.50676 0.731 0.0
C387 C 0.85824 0.54122 0.66359 0.0
O388 O 0.84498 0.5224 0.66242 0.0
O389 O 0.87377 0.54336 0.68059 0.0
O390 O 0.82675 0.46887 0.66059 0.0
O391 O 0.86496 0.46242 0.67051 0.0
O392 O 0.50525 0.17741 0.29582 0.0
Cd393 Cd 0.50833 0.14587 0.31593 0.0
Cd394 Cd 0.53426 0.17373 0.3458 0.0
O395 O 0.53563 0.19541 0.31482 0.0
O396 O 0.50803 0.11677 0.2942 0.0
O397 O 0.54085 0.12992 0.31361 0.0
C398 C 0.53102 0.11489 0.29854 0.0
C399 C 0.56884 0.16844 0.37051 0.0
C400 C 0.52031 0.19483 0.29749 0.0
C401 C 0.48468 0.15652 0.36247 0.0
O402 O 0.5017 0.17199 0.36469 0.0
O403 O 0.48495 0.14157 0.34494 0.0
O404 O 0.55698 0.1886 0.36992 0.0
O405 O 0.56173 0.15134 0.35617 0.0
O406 O 0.84562 0.50392 0.3009 0.0
Cd407 Cd 0.87484 0.50746 0.32409 0.0
Cd408 Cd 0.84018 0.52742 0.35284 0.0
O409 O 0.81885 0.52538 0.32166 0.0
O410 O 0.9049 0.50988 0.30361 0.0
O411 O 0.88927 0.54065 0.32411 0.0
C412 C 0.90512 0.53273 0.30884 0.0
C413 C 0.84551 0.56291 0.37602 0.0
C414 C 0.82471 0.51357 0.30271 0.0
C415 C 0.86287 0.48003 0.36917 0.0
O416 O 0.84569 0.49531 0.37134 0.0
O417 O 0.87849 0.4825 0.35236 0.0
O418 O 0.82567 0.55047 0.37703 0.0
O419 O 0.8619 0.55588 0.36093 0.0
O420 O 0.51517 0.84465 0.29795 0.0
Cd421 Cd 0.51293 0.87662 0.31757 0.0
Cd422 Cd 0.4934 0.84659 0.35116 0.0
O423 O 0.49401 0.8216 0.32302 0.0
O424 O 0.50925 0.90458 0.29435 0.0
O425 O 0.47975 0.89142 0.31819 0.0
C426 C 0.48683 0.90576 0.30106 0.0
C427 C 0.45967 0.85182 0.37686 0.0
C428 C 0.50534 0.82437 0.3031 0.0
C429 C 0.54253 0.86904 0.36212 0.0
O430 O 0.52657 0.85316 0.36716 0.0
O431 O 0.5398 0.88277 0.34372 0.0
O432 O 0.47334 0.83285 0.37818 0.0
O433 O 0.46443 0.86746 0.3601 0.0
O434 O 0.17903 0.5087 0.29353 0.0
Cd435 Cd 0.1506 0.51 0.3178 0.0
Cd436 Cd 0.18363 0.48542 0.34487 0.0
O437 O 0.20475 0.48537 0.31373 0.0
O438 O 0.12097 0.51178 0.2967 0.0
O439 O 0.12941 0.48048 0.32056 0.0
C440 C 0.11578 0.49014 0.30408 0.0
C441 C 0.17711 0.45119 0.36957 0.0
C442 C 0.19914 0.49745 0.29484 0.0
C443 C 0.16867 0.53626 0.36106 0.0
O444 O 0.18267 0.518 0.36299 0.0
O445 O 0.15225 0.53669 0.34473 0.0
O446 O 0.19774 0.46227 0.36916 0.0
O447 O 0.16045 0.45869 0.35485 0.0
O448 O 0.73595 0.5136 0.86109 0.0
Cd449 Cd 0.71272 0.51497 0.89033 0.0
Cd450 Cd 0.68345 0.53673 0.8573 0.0
O451 O 0.7144 0.53644 0.83599 0.0
O452 O 0.73347 0.51291 0.92008 0.0
O453 O 0.71438 0.54644 0.90838 0.0
C454 C 0.72936 0.53578 0.923 0.0
C455 C 0.65857 0.57115 0.86183 0.0
C456 C 0.73363 0.52458 0.84094 0.0
C457 C 0.6683 0.4875 0.87624 0.0
O458 O 0.66576 0.50398 0.8603 0.0
O459 O 0.68494 0.48925 0.8922 0.0
O460 O 0.65881 0.55871 0.84204 0.0
O461 O 0.67341 0.56474 0.87884 0.0
O462 O 0.52578 0.73034 0.84336 0.0
Cd463 Cd 0.52535 0.71152 0.87573 0.0
Cd464 Cd 0.49535 0.68236 0.85038 0.0
O465 O 0.49336 0.71269 0.82782 0.0
O466 O 0.52871 0.7367 0.90165 0.0
O467 O 0.49562 0.71427 0.89664 0.0
C468 C 0.5066 0.73181 0.90771 0.0
C469 C 0.46069 0.65793 0.85654 0.0
C470 C 0.50957 0.72915 0.827 0.0
C471 C 0.54677 0.66461 0.86377 0.0
O472 O 0.52767 0.66285 0.85082 0.0
O473 O 0.54924 0.68243 0.87824 0.0
O474 O 0.4722 0.65814 0.83626 0.0
O475 O 0.46821 0.67247 0.87329 0.0
O476 O 0.29971 0.52608 0.8409 0.0
Cd477 Cd 0.31855 0.52678 0.87332 0.0
Cd478 Cd 0.34759 0.4963 0.84978 0.0
O479 O 0.31691 0.49241 0.8279 0.0
O480 O 0.29371 0.52938 0.89954 0.0
O481 O 0.31694 0.49692 0.89413 0.0
C482 C 0.29927 0.50735 0.90547 0.0
C483 C 0.37329 0.46279 0.85691 0.0
C484 C 0.30059 0.50866 0.82587 0.0
C485 C 0.36492 0.54828 0.86066 0.0
O486 O 0.36653 0.52893 0.84816 0.0
O487 O 0.3474 0.55094 0.8754 0.0
O488 O 0.37203 0.47334 0.83612 0.0
O489 O 0.35896 0.47049 0.87371 0.0
O490 O 0.51028 0.30577 0.84339 0.0
Cd491 Cd 0.51205 0.32718 0.87409 0.0
Cd492 Cd 0.53842 0.35651 0.84519 0.0
O493 O 0.53768 0.32645 0.82269 0.0
O494 O 0.51514 0.30609 0.90368 0.0
O495 O 0.54525 0.3281 0.88862 0.0
C496 C 0.53785 0.31206 0.90406 0.0
C497 C 0.57264 0.38219 0.84704 0.0
C498 C 0.52345 0.30833 0.82465 0.0
C499 C 0.48814 0.37334 0.86114 0.0
O500 O 0.50636 0.37541 0.84723 0.0
O501 O 0.48714 0.35585 0.87625 0.0
O502 O 0.55951 0.38032 0.82781 0.0
O503 O 0.56718 0.36843 0.86515 0.0
O504 O 0.72515 0.50973 0.18465 0.0
Cd505 Cd 0.7075 0.51235 0.15151 0.0
Cd506 Cd 0.67134 0.49175 0.1794 0.0
O507 O 0.69777 0.48995 0.20611 0.0
O508 O 0.73522 0.51581 0.12835 0.0
O509 O 0.71006 0.4845 0.12779 0.0
C510 C 0.72932 0.49497 0.11949 0.0
C511 C 0.6449 0.45886 0.1723 0.0
C512 C 0.71862 0.49971 0.20435 0.0
C513 C 0.66358 0.54297 0.15963 0.0
O514 O 0.65687 0.52581 0.17353 0.0
O515 O 0.68291 0.54097 0.14714 0.0
O516 O 0.64309 0.47232 0.1913 0.0
O517 O 0.66237 0.46356 0.15743 0.0
O518 O 0.51077 0.72987 0.17599 0.0
Cd519 Cd 0.51051 0.70667 0.14654 0.0
Cd520 Cd 0.5366 0.67879 0.17951 0.0
O521 O 0.53566 0.71006 0.20048 0.0
O522 O 0.50591 0.72948 0.11867 0.0
O523 O 0.53961 0.70828 0.12439 0.0
C524 C 0.52803 0.72491 0.11249 0.0
C525 C 0.57049 0.65256 0.18016 0.0
C526 C 0.52267 0.72857 0.19571 0.0
C527 C 0.48633 0.66123 0.16253 0.0
O528 O 0.50448 0.65992 0.17676 0.0
O529 O 0.48521 0.67812 0.14673 0.0
O530 O 0.55671 0.65552 0.19872 0.0
O531 O 0.56597 0.66566 0.16126 0.0
O532 O 0.29624 0.5125 0.17621 0.0
Cd533 Cd 0.31388 0.51275 0.14315 0.0
Cd534 Cd 0.34861 0.53394 0.17154 0.0
O535 O 0.32201 0.53397 0.19808 0.0
O536 O 0.28643 0.51036 0.11942 0.0
O537 O 0.3109 0.54218 0.12147 0.0
C538 C 0.29192 0.53194 0.11219 0.0
C539 C 0.37441 0.56767 0.1657 0.0
C540 C 0.30204 0.52251 0.19614 0.0
C541 C 0.35834 0.48339 0.15098 0.0
O542 O 0.36415 0.50039 0.16546 0.0
O543 O 0.33934 0.48518 0.13786 0.0
O544 O 0.37615 0.55382 0.18446 0.0
O545 O 0.35731 0.56293 0.15036 0.0
O546 O 0.51462 0.29814 0.1816 0.0
Cd547 Cd 0.51212 0.31909 0.15064 0.0
Cd548 Cd 0.48269 0.34616 0.17815 0.0
O549 O 0.48102 0.3134 0.19714 0.0
O550 O 0.50999 0.29793 0.12103 0.0
O551 O 0.47891 0.31855 0.13609 0.0
C552 C 0.48703 0.30292 0.12063 0.0
C553 C 0.44902 0.37268 0.17658 0.0
C554 C 0.49783 0.29749 0.19736 0.0
C555 C 0.5332 0.36543 0.16512 0.0
O556 O 0.51496 0.36547 0.17922 0.0
O557 O 0.53496 0.34916 0.14886 0.0
O558 O 0.46084 0.3686 0.19633 0.0
O559 O 0.45531 0.36049 0.15766 0.0
O560 O 0.84118 0.72683 0.50861 0.0
Cd561 Cd 0.87135 0.70445 0.5076 0.0
Cd562 Cd 0.84297 0.6767 0.5362 0.0
O563 O 0.81994 0.70645 0.53574 0.0
O564 O 0.90062 0.72623 0.50663 0.0
O565 O 0.89174 0.70228 0.53767 0.0
C566 C 0.90544 0.71887 0.52836 0.0
C567 C 0.84951 0.6532 0.57126 0.0
C568 C 0.82238 0.7247 0.52177 0.0
C569 C 0.85538 0.65832 0.48537 0.0
O570 O 0.8432 0.65661 0.50482 0.0
O571 O 0.87024 0.67585 0.48255 0.0
O572 O 0.82904 0.65306 0.55991 0.0
O573 O 0.86607 0.66782 0.56354 0.0
O574 O 0.85426 0.29532 0.52291 0.0
Cd575 Cd 0.88263 0.31966 0.52013 0.0
Cd576 Cd 0.84753 0.34872 0.50224 0.0
O577 O 0.82746 0.31694 0.50223 0.0
O578 O 0.9129 0.30006 0.51591 0.0
O579 O 0.8962 0.32217 0.48669 0.0
C580 C 0.91246 0.30659 0.49343 0.0
C581 C 0.84609 0.37604 0.46944 0.0
C582 C 0.83345 0.29743 0.51308 0.0
C583 C 0.86992 0.3621 0.5506 0.0
O584 O 0.85262 0.36474 0.53554 0.0
O585 O 0.88625 0.34616 0.54692 0.0
O586 O 0.82796 0.37315 0.48387 0.0
O587 O 0.865 0.36262 0.473 0.0
O588 O 0.73345 0.85503 0.51071 0.0
Cd589 Cd 0.70995 0.88427 0.51223 0.0
Cd590 Cd 0.68085 0.85179 0.48778 0.0
O591 O 0.71187 0.8305 0.48742 0.0
O592 O 0.732 0.91315 0.51369 0.0
O593 O 0.70748 0.90556 0.48268 0.0
C594 C 0.72456 0.91861 0.49216 0.0
C595 C 0.65304 0.85113 0.45514 0.0
C596 C 0.73116 0.83516 0.49925 0.0
C597 C 0.66663 0.86749 0.53915 0.0
O598 O 0.66398 0.85375 0.52086 0.0
O599 O 0.68339 0.88347 0.53942 0.0
O600 O 0.65667 0.83256 0.46884 0.0
O601 O 0.66618 0.87013 0.4591 0.0
O602 O 0.18529 0.72251 0.51743 0.0
Cd603 Cd 0.15344 0.70305 0.51456 0.0
Cd604 Cd 0.17996 0.67477 0.48534 0.0
O605 O 0.20102 0.70626 0.48442 0.0
O606 O 0.12454 0.72533 0.5121 0.0
O607 O 0.13956 0.70443 0.48128 0.0
C608 C 0.12442 0.72047 0.48917 0.0
C609 C 0.174 0.65041 0.45071 0.0
C610 C 0.20156 0.72222 0.50113 0.0
C611 C 0.16565 0.65574 0.53533 0.0
O612 O 0.17985 0.65488 0.5172 0.0
O613 O 0.15024 0.67289 0.53702 0.0
O614 O 0.19465 0.65145 0.4617 0.0
O615 O 0.15686 0.66426 0.45857 0.0
O616 O 0.30249 0.18205 0.51947 0.0
Cd617 Cd 0.32277 0.15058 0.5188 0.0
Cd618 Cd 0.35471 0.18001 0.49572 0.0
O619 O 0.32396 0.20165 0.49202 0.0
O620 O 0.2989 0.12327 0.51759 0.0
O621 O 0.32473 0.13154 0.48791 0.0
C622 C 0.30691 0.11868 0.49611 0.0
C623 C 0.38318 0.17892 0.46392 0.0
C624 C 0.30531 0.20014 0.50549 0.0
C625 C 0.36645 0.16167 0.54699 0.0
O626 O 0.37029 0.17676 0.52993 0.0
O627 O 0.34886 0.14677 0.54555 0.0
O628 O 0.38051 0.19774 0.47747 0.0
O629 O 0.36902 0.16066 0.46783 0.0
O630 O 0.18502 0.29761 0.50803 0.0
Cd631 Cd 0.15293 0.31702 0.50754 0.0
Cd632 Cd 0.17941 0.34656 0.53673 0.0
O633 O 0.19991 0.31512 0.54075 0.0
O634 O 0.12662 0.29215 0.50441 0.0
O635 O 0.13141 0.31521 0.53697 0.0
C636 C 0.12029 0.29751 0.52628 0.0
C637 C 0.1786 0.37456 0.56907 0.0
C638 C 0.2008 0.29849 0.52482 0.0
C639 C 0.16731 0.36203 0.48419 0.0
O640 O 0.18023 0.36382 0.50326 0.0
O641 O 0.15159 0.34516 0.48245 0.0
O642 O 0.19785 0.37065 0.55653 0.0
O643 O 0.15964 0.36174 0.56401 0.0
O644 O 0.72826 0.18363 0.51057 0.0
Cd645 Cd 0.70658 0.15297 0.50834 0.0
Cd646 Cd 0.67561 0.18135 0.53475 0.0
O647 O 0.70493 0.20465 0.53533 0.0
O648 O 0.72939 0.12471 0.50748 0.0
O649 O 0.70412 0.13184 0.53789 0.0
C650 C 0.72154 0.11904 0.52878 0.0
C651 C 0.64956 0.18135 0.56856 0.0
C652 C 0.72438 0.20253 0.52317 0.0
C653 C 0.66107 0.16653 0.4831 0.0
O654 O 0.6575 0.17891 0.50219 0.0
O655 O 0.67955 0.15268 0.48158 0.0
O656 O 0.65144 0.1997 0.55427 0.0
O657 O 0.6631 0.16276 0.56416 0.0
O658 O 0.30211 0.83977 0.50878 0.0
Cd659 Cd 0.32152 0.87171 0.5108 0.0
Cd660 Cd 0.34997 0.84533 0.54045 0.0
O661 O 0.31857 0.8242 0.5419 0.0
O662 O 0.29898 0.90054 0.51266 0.0
O663 O 0.32024 0.88638 0.54375 0.0
C664 C 0.30394 0.90117 0.53558 0.0
C665 C 0.37489 0.85208 0.57456 0.0
C666 C 0.3025 0.82358 0.52523 0.0
C667 C 0.36856 0.85868 0.48997 0.0
O668 O 0.36944 0.8449 0.50847 0.0
O669 O 0.35154 0.87422 0.48796 0.0
O670 O 0.37395 0.83124 0.564 0.0
O671 O 0.36057 0.86887 0.56668 0.0
H672 H 0.10624 0.48768 0.25616 0.0
H673 H 0.08316 0.45956 0.32522 0.0
H674 H 0.05375 0.43299 0.30491 0.0
H675 H 0.03662 0.41583 0.2673 0.0
H676 H 0.06395 0.43988 0.19825 0.0
H677 H 0.08963 0.47003 0.21856 0.0
C678 C 0.09445 0.476 0.26672 0.0
C679 C 0.0965 0.47579 0.29213 0.0
C680 C 0.07852 0.45995 0.25484 0.0
C681 C 0.08169 0.46012 0.30565 0.0
C682 C 0.06496 0.44491 0.29403 0.0
C683 C 0.04797 0.42794 0.25673 0.0
C684 C 0.04822 0.42592 0.23132 0.0
C685 C 0.06348 0.4444 0.26862 0.0
C686 C 0.06341 0.44123 0.21782 0.0
C687 C 0.07809 0.45842 0.22944 0.0
H688 H 0.5829 0.02936 0.24243 0.0
H689 H 0.63231 0.08769 0.22543 0.0
H690 H 0.60822 0.11573 0.24966 0.0
H691 H 0.57348 0.12371 0.2763 0.0
H692 H 0.52141 0.06706 0.28996 0.0
H693 H 0.54611 0.03826 0.26667 0.0
C694 C 0.58824 0.04825 0.24392 0.0
C695 C 0.6094 0.05641 0.23221 0.0
C696 C 0.57395 0.0645 0.2575 0.0
C697 C 0.61602 0.08098 0.23413 0.0
C698 C 0.60235 0.09701 0.24812 0.0
C699 C 0.5677 0.10499 0.27427 0.0
C700 C 0.54601 0.09728 0.28513 0.0
C701 C 0.58141 0.08895 0.26004 0.0
C702 C 0.53823 0.07323 0.2819 0.0
C703 C 0.55231 0.05684 0.26856 0.0
H704 H 0.95644 0.61718 0.25117 0.0
H705 H 1.00864 0.56071 0.23725 0.0
H706 H 0.98415 0.5318 0.2607 0.0
H707 H 0.94776 0.52289 0.2855 0.0
H708 H 0.89824 0.58108 0.30264 0.0
H709 H 0.92192 0.6091 0.27799 0.0
C710 C 0.96225 0.59845 0.25308 0.0
C711 C 0.98393 0.59083 0.24215 0.0
C712 C 0.94872 0.58237 0.26746 0.0
C713 C 0.99179 0.56679 0.24531 0.0
C714 C 0.97787 0.55035 0.25878 0.0
C715 C 0.94231 0.54174 0.28395 0.0
C716 C 0.92124 0.54986 0.29586 0.0
C717 C 0.95633 0.55797 0.27006 0.0
C718 C 0.91446 0.57438 0.29382 0.0
C719 C 0.92789 0.59041 0.27957 0.0
H720 H 0.49555 0.94795 0.2763 0.0
H721 H 0.43844 0.89818 0.29607 0.0
H722 H 0.40949 0.92103 0.27145 0.0
H723 H 0.40035 0.9548 0.24374 0.0
H724 H 0.45578 1.00738 0.22735 0.0
H725 H 0.4855 0.98385 0.25095 0.0
C726 C 0.47672 0.94226 0.27532 0.0
C727 C 0.46918 0.92134 0.28795 0.0
C728 C 0.45995 0.95587 0.26152 0.0
C729 C 0.44469 0.91428 0.28668 0.0
C730 C 0.42814 0.92725 0.27246 0.0
C731 C 0.41901 0.96095 0.24523 0.0
C732 C 0.4261 0.98244 0.23349 0.0
C733 C 0.43559 0.94794 0.25966 0.0
C734 C 0.45008 0.9907 0.23605 0.0
C735 C 0.467 0.97729 0.24958 0.0
H736 H 0.10584 0.53635 0.77315 0.0
H737 H 0.08283 0.56078 0.70253 0.0
H738 H 0.05239 0.58727 0.72113 0.0
H739 H 0.03378 0.60503 0.75759 0.0
H740 H 0.06063 0.58478 0.82815 0.0
H741 H 0.08801 0.555 0.80966 0.0
C742 C 0.09394 0.54731 0.76189 0.0
C743 C 0.09631 0.54648 0.73653 0.0
C744 C 0.07725 0.56325 0.77276 0.0
C745 C 0.08123 0.56112 0.72209 0.0
C746 C 0.06386 0.57623 0.73271 0.0
C747 C 0.04541 0.59381 0.76888 0.0
C748 C 0.045 0.59673 0.79418 0.0
C749 C 0.06187 0.57764 0.75803 0.0
C750 C 0.06057 0.58264 0.80864 0.0
C751 C 0.07623 0.56569 0.79807 0.0
H752 H 0.41528 0.03734 0.75379 0.0
H753 H 0.44033 0.05929 0.82447 0.0
H754 H 0.47071 0.0859 0.80588 0.0
H755 H 0.48869 0.10437 0.76953 0.0
H756 H 0.46001 0.08659 0.69904 0.0
H757 H 0.4325 0.0568 0.71737 0.0
C758 C 0.42762 0.04777 0.76504 0.0
C759 C 0.42589 0.04622 0.79041 0.0
C760 C 0.44425 0.06379 0.75422 0.0
C761 C 0.44149 0.06019 0.8049 0.0
C762 C 0.4588 0.07538 0.79428 0.0
C763 C 0.47661 0.09372 0.7582 0.0
C764 C 0.47652 0.09733 0.73298 0.0
C765 C 0.46017 0.07751 0.76897 0.0
C766 C 0.46041 0.08395 0.71848 0.0
C767 C 0.44471 0.06698 0.72897 0.0
H768 H 0.90127 0.45656 0.74919 0.0
H769 H 0.9552 0.51069 0.73283 0.0
H770 H 0.98549 0.48816 0.75668 0.0
H771 H 0.99646 0.45272 0.78234 0.0
H772 H 0.94064 0.4013 0.80176 0.0
H773 H 0.91126 0.42322 0.77699 0.0
C774 C 0.91975 0.46325 0.75069 0.0
C775 C 0.92624 0.48489 0.73891 0.0
C776 C 0.93663 0.45083 0.76527 0.0
C777 C 0.94996 0.49386 0.74154 0.0
C778 C 0.96721 0.48104 0.75524 0.0
C779 C 0.97781 0.44648 0.7813 0.0
C780 C 0.97083 0.42535 0.79389 0.0
C781 C 0.96073 0.4595 0.76728 0.0
C782 C 0.94654 0.41758 0.79244 0.0
C783 C 0.92971 0.43 0.77811 0.0
H784 H 0.60849 0.99309 0.75561 0.0
H785 H 0.58691 0.96632 0.8257 0.0
H786 H 0.5566 0.93989 0.80663 0.0
H787 H 0.53812 0.92246 0.76977 0.0
H788 H 0.56383 0.94514 0.69966 0.0
H789 H 0.59051 0.97518 0.71878 0.0
C790 C 0.59687 0.98171 0.76667 0.0
C791 C 0.59963 0.98183 0.79201 0.0
C792 C 0.58033 0.96575 0.7555 0.0
C793 C 0.58496 0.96658 0.80616 0.0
C794 C 0.56769 0.95146 0.79526 0.0
C795 C 0.54932 0.93427 0.75873 0.0
C796 C 0.54883 0.93191 0.73337 0.0
C797 C 0.56545 0.95064 0.76992 0.0
C798 C 0.56385 0.94681 0.71922 0.0
C799 C 0.57911 0.96392 0.73015 0.0
H800 H 0.27147 0.03861 0.42225 0.0
H801 H 0.20166 0.06606 0.44422 0.0
H802 H 0.22139 0.0931 0.47357 0.0
H803 H 0.25874 0.1101 0.49173 0.0
H804 H 0.32853 0.08644 0.46567 0.0
H805 H 0.30873 0.05669 0.43918 0.0
C806 C 0.26061 0.05034 0.4337 0.0
C807 C 0.23516 0.05015 0.43143 0.0
C808 C 0.27214 0.06655 0.44967 0.0
C809 C 0.22127 0.06584 0.44583 0.0
C810 C 0.23255 0.08128 0.46255 0.0
C811 C 0.26956 0.09822 0.48039 0.0
C812 C 0.29503 0.10014 0.48081 0.0
C813 C 0.25799 0.08195 0.46448 0.0
C814 C 0.3089 0.08514 0.46568 0.0
C815 C 0.29758 0.06817 0.45056 0.0
H816 H 0.95472 0.28192 0.50155 0.0
H817 H 0.90494 0.3032 0.44486 0.0
H818 H 0.92723 0.2785 0.41575 0.0
H819 H 0.96013 0.24979 0.40653 0.0
H820 H 1.01234 0.23144 0.46182 0.0
H821 H 0.98977 0.25574 0.49147 0.0
C822 C 0.94894 0.28134 0.48277 0.0
C823 C 0.92815 0.29434 0.47542 0.0
C824 C 0.96206 0.26732 0.46598 0.0
C825 C 0.92096 0.29353 0.45098 0.0
C826 C 0.93357 0.27923 0.43434 0.0
C827 C 0.96638 0.25099 0.42516 0.0
C828 C 0.98746 0.23849 0.43226 0.0
C829 C 0.95393 0.2658 0.4417 0.0
C830 C 0.99592 0.24071 0.45615 0.0
C831 C 0.98309 0.25466 0.47301 0.0
H832 H 0.77281 0.9271 0.48973 0.0
H833 H 0.70405 0.95198 0.46178 0.0
H834 H 0.72495 0.98164 0.43603 0.0
H835 H 0.76297 0.99878 0.41973 0.0
H836 H 0.83169 0.96975 0.44344 0.0
H837 H 0.81083 0.9435 0.47268 0.0
C838 C 0.76244 0.93929 0.47823 0.0
C839 C 0.73693 0.93769 0.47788 0.0
C840 C 0.77466 0.95543 0.46267 0.0
C841 C 0.72368 0.95305 0.46245 0.0
C842 C 0.73564 0.96995 0.44772 0.0
C843 C 0.77334 0.98694 0.43159 0.0
C844 C 0.79884 0.98643 0.42979 0.0
C845 C 0.76113 0.9711 0.44746 0.0
C846 C 0.81208 0.97056 0.4447 0.0
C847 C 0.80014 0.95554 0.46134 0.0
H848 H 0.07673 0.78128 0.40444 0.0
H849 H 0.02276 0.79457 0.45913 0.0
H850 H 0.04613 0.77033 0.48839 0.0
H851 H 0.08195 0.74475 0.4981 0.0
H852 H 0.1332 0.72813 0.44151 0.0
H853 H 0.11083 0.75389 0.41328 0.0
C854 C 0.07029 0.77905 0.42287 0.0
C855 C 0.04841 0.79003 0.42988 0.0
C856 C 0.08321 0.7642 0.43914 0.0
C857 C 0.03976 0.78647 0.45352 0.0
C858 C 0.05306 0.77255 0.47017 0.0
C859 C 0.08809 0.74669 0.47955 0.0
C860 C 0.10923 0.73454 0.47195 0.0
C861 C 0.07477 0.76118 0.46314 0.0
C862 C 0.11689 0.7371 0.4478 0.0
C863 C 0.1042 0.75198 0.43166 0.0
H864 H 0.243 0.9491 0.61977 0.0
H865 H 0.22632 1.00081 0.56358 0.0
H866 H 0.2509 0.97755 0.53467 0.0
H867 H 0.27778 0.94249 0.52568 0.0
H868 H 0.29762 0.89372 0.58369 0.0
H869 H 0.27156 0.9159 0.61157 0.0
C870 C 0.24453 0.95506 0.60109 0.0
C871 C 0.23248 0.97628 0.5936 0.0
C872 C 0.25958 0.94227 0.58499 0.0
C873 C 0.2352 0.98432 0.56961 0.0
C874 C 0.24934 0.97109 0.55315 0.0
C875 C 0.27649 0.93686 0.54446 0.0
C876 C 0.28966 0.91644 0.55254 0.0
C877 C 0.26177 0.95008 0.56067 0.0
C878 C 0.28788 0.90945 0.57698 0.0
C879 C 0.27282 0.92204 0.59295 0.0
H880 H 0.06151 0.21626 0.58197 0.0
H881 H 0.02796 0.27916 0.61399 0.0
H882 H 0.05271 0.30587 0.5887 0.0
H883 H 0.08572 0.31144 0.55887 0.0
H884 H 0.11604 0.24862 0.52366 0.0
H885 H 0.0908 0.2219 0.54848 0.0
C886 C 0.05947 0.23581 0.58315 0.0
C887 C 0.04304 0.24572 0.5999 0.0
C888 C 0.07329 0.25111 0.568 0.0
C889 C 0.04039 0.27108 0.60113 0.0
C890 C 0.05464 0.28639 0.58676 0.0
C891 C 0.08655 0.29191 0.5565 0.0
C892 C 0.10281 0.282 0.53958 0.0
C893 C 0.07141 0.27663 0.57035 0.0
C894 C 0.10357 0.25668 0.53649 0.0
C895 C 0.08923 0.24137 0.55077 0.0
H896 H 0.75825 0.0382 0.6015 0.0
H897 H 0.82754 0.06613 0.57855 0.0
H898 H 0.80728 0.09267 0.54906 0.0
H899 H 0.76965 0.10977 0.53168 0.0
H900 H 0.70034 0.08598 0.55885 0.0
H901 H 0.7206 0.05593 0.58476 0.0
C902 C 0.76886 0.04985 0.58974 0.0
C903 C 0.79433 0.04999 0.59183 0.0
C904 C 0.75701 0.06589 0.57374 0.0
C905 C 0.80792 0.06562 0.57705 0.0
C906 C 0.79634 0.08081 0.56027 0.0
C907 C 0.75902 0.09774 0.54305 0.0
C908 C 0.73355 0.09978 0.54317 0.0
C909 C 0.77087 0.08135 0.55869 0.0
C910 C 0.71996 0.08459 0.5584 0.0
C911 C 0.73155 0.06746 0.57321 0.0
H912 H 0.9158 0.76681 0.53132 0.0
H913 H 0.93739 0.69693 0.55912 0.0
H914 H 0.96717 0.71641 0.58586 0.0
H915 H 0.98543 0.75355 0.60298 0.0
H916 H 0.95987 0.82356 0.57906 0.0
H917 H 0.93335 0.804 0.54917 0.0
C918 C 0.92732 0.75589 0.54299 0.0
C919 C 0.92475 0.73047 0.54302 0.0
C920 C 0.94354 0.76731 0.55913 0.0
C921 C 0.93924 0.71651 0.55868 0.0
C922 C 0.95619 0.72765 0.57399 0.0
C923 C 0.97424 0.76449 0.59101 0.0
C924 C 0.97477 0.78996 0.59299 0.0
C925 C 0.95829 0.75306 0.57461 0.0
C926 C 0.9598 0.80393 0.57779 0.0
C927 C 0.94465 0.79275 0.56071 0.0
H928 H 0.49707 0.27817 0.07871 0.0
H929 H 0.4387 0.29648 0.12741 0.0
H930 H 0.41093 0.27079 0.10447 0.0
H931 H 0.40308 0.24264 0.07093 0.0
H932 H 0.45966 0.22731 0.01947 0.0
H933 H 0.48832 0.25199 0.04312 0.0
C934 C 0.47822 0.27666 0.08414 0.0
C935 C 0.47002 0.28924 0.1048 0.0
C936 C 0.4621 0.26213 0.07053 0.0
C937 C 0.4455 0.28719 0.11152 0.0
C938 C 0.4296 0.27234 0.09851 0.0
C939 C 0.42178 0.24452 0.06507 0.0
C940 C 0.42946 0.23279 0.04383 0.0
C941 C 0.43773 0.25957 0.07813 0.0
C942 C 0.45347 0.23595 0.03595 0.0
C943 C 0.46979 0.25013 0.04942 0.0
H944 H 0.44939 0.81324 0.96442 0.0
H945 H 0.42269 0.7507 1.00306 0.0
H946 H 0.44829 0.72406 0.97869 0.0
H947 H 0.47663 0.71821 0.94452 0.0
H948 H 0.50685 0.7809 0.90895 0.0
H949 H 0.48182 0.80774 0.93388 0.0
C950 C 0.44948 0.79382 0.96766 0.0
C951 C 0.4341 0.78395 0.98542 0.0
C952 C 0.46482 0.77859 0.95401 0.0
C953 C 0.43449 0.75876 0.9896 0.0
C954 C 0.44902 0.74347 0.97556 0.0
C955 C 0.47788 0.73776 0.94249 0.0
C956 C 0.49338 0.7476 0.92487 0.0
C957 C 0.464 0.75312 0.95745 0.0
C958 C 0.49508 0.77295 0.92251 0.0
C959 C 0.48069 0.78829 0.93667 0.0
H960 H 0.31398 0.47291 0.9378 0.0
H961 H 0.25059 0.51083 0.91179 0.0
H962 H 0.2245 0.48509 0.93677 0.0
H963 H 0.21953 0.45013 0.96454 0.0
H964 H 0.28322 0.41516 0.99374 0.0
H965 H 0.30931 0.44132 0.96924 0.0
C966 C 0.29448 0.47567 0.93787 0.0
C967 C 0.2842 0.49362 0.92291 0.0
C968 C 0.27962 0.46122 0.95279 0.0
C969 C 0.25893 0.4972 0.92328 0.0
C970 C 0.24398 0.48239 0.93745 0.0
C971 C 0.23912 0.44846 0.96564 0.0
C972 C 0.24946 0.43067 0.98075 0.0
C973 C 0.25408 0.46411 0.95204 0.0
C974 C 0.27487 0.42881 0.98228 0.0
C975 C 0.2898 0.44369 0.9682 0.0
H976 H 0.62372 0.25322 0.95232 0.0
H977 H 0.56812 0.23634 1.00438 0.0
H978 H 0.53875 0.26095 0.98146 0.0
H979 H 0.52899 0.28713 0.94612 0.0
H980 H 0.58628 0.30707 0.89678 0.0
H981 H 0.61493 0.28182 0.91924 0.0
C982 C 0.6051 0.25483 0.9585 0.0
C983 C 0.59786 0.24265 0.97964 0.0
C984 C 0.58872 0.26981 0.94584 0.0
C985 C 0.57394 0.24537 0.98795 0.0
C986 C 0.55722 0.25949 0.9749 0.0
C987 C 0.5478 0.2861 0.94046 0.0
C988 C 0.55544 0.29895 0.91974 0.0
C989 C 0.56441 0.27183 0.95379 0.0
C990 C 0.57992 0.29754 0.91272 0.0
C991 C 0.59632 0.28295 0.92546 0.0
H992 H 0.75466 0.57638 0.91392 0.0
H993 H 0.7375 0.52569 0.97077 0.0
H994 H 0.76369 0.54816 0.99903 0.0
H995 H 0.79132 0.58263 1.00739 0.0
H996 H 0.81119 0.63071 0.94889 0.0
H997 H 0.78458 0.6086 0.92132 0.0
C998 C 0.7565 0.57047 0.93259 0.0
C999 C 0.7438 0.54988 0.94055 0.0
C1000 C 0.77239 0.58278 0.94828 0.0
C1001 C 0.74687 0.54179 0.96448 0.0
C1002 C 0.76192 0.55453 0.98053 0.0
C1003 C 0.79003 0.58807 0.98854 0.0
C1004 C 0.80321 0.60836 0.98027 0.0
C1005 C 0.77483 0.57506 0.97261 0.0
C1006 C 0.80141 0.61509 0.95575 0.0
C1007 C 0.78601 0.60259 0.93998 0.0
H1008 H 0.56277 0.71216 0.07948 0.0
H1009 H 0.52186 0.77321 0.10614 0.0
H1010 H 0.54584 0.80085 0.08115 0.0
H1011 H 0.58038 0.80803 0.05349 0.0
H1012 H 0.61832 0.74669 0.02342 0.0
H1013 H 0.59364 0.71891 0.04763 0.0
C1014 C 0.55894 0.73147 0.07952 0.0
C1015 C 0.54067 0.74063 0.09472 0.0
C1016 C 0.57238 0.74726 0.06453 0.0
C1017 C 0.53574 0.76568 0.09448 0.0
C1018 C 0.54955 0.78155 0.0803 0.0
C1019 C 0.58297 0.78857 0.05206 0.0
C1020 C 0.60121 0.77942 0.03683 0.0
C1021 C 0.56819 0.77261 0.06552 0.0
C1022 C 0.60428 0.75416 0.03494 0.0
C1023 C 0.59026 0.73825 0.04888 0.0
H1024 H 0.20809 0.58909 0.05842 0.0
H1025 H 0.26869 0.61472 0.01629 0.0
H1026 H 0.29645 0.58944 0.03999 0.0
H1027 H 0.30388 0.56153 0.07437 0.0
H1028 H 0.24285 0.53253 0.11356 0.0
H1029 H 0.21497 0.55738 0.08947 0.0
C1030 C 0.22733 0.58886 0.05429 0.0
C1031 C 0.23634 0.60382 0.03572 0.0
C1032 C 0.24316 0.57375 0.06759 0.0
C1033 C 0.26129 0.60324 0.0304 0.0
C1034 C 0.27722 0.5889 0.04405 0.0
C1035 C 0.28446 0.56055 0.07741 0.0
C1036 C 0.27541 0.5454 0.09579 0.0
C1037 C 0.26843 0.57432 0.06293 0.0
C1038 C 0.2502 0.54403 0.09943 0.0
C1039 C 0.23426 0.5583 0.08573 0.0
H1040 H 0.71694 0.46775 0.08001 0.0
H1041 H 0.77839 0.49415 0.12066 0.0
H1042 H 0.80598 0.47074 0.09509 0.0
H1043 H 0.81251 0.4409 0.06235 0.0
H1044 H 0.75153 0.41785 0.019 0.0
H1045 H 0.72403 0.44187 0.04407 0.0
C1046 C 0.73639 0.46849 0.08306 0.0
C1047 C 0.74563 0.48246 0.10227 0.0
C1048 C 0.75226 0.45556 0.06777 0.0
C1049 C 0.77088 0.48355 0.10591 0.0
C1050 C 0.78666 0.4701 0.09135 0.0
C1051 C 0.79324 0.44143 0.05825 0.0
C1052 C 0.78405 0.42754 0.03894 0.0
C1053 C 0.77756 0.4558 0.07239 0.0
C1054 C 0.75908 0.42851 0.03368 0.0
C1055 C 0.74329 0.44212 0.04812 0.0
H1056 H 0.02104 0.22596 0.28319 0.0
H1057 H 1.01177 0.27785 0.34081 0.0
H1058 H 0.01532 0.31133 0.31187 0.0
H1059 H 0.02094 0.32587 0.2701 0.0
H1060 H 0.03388 0.2742 0.21294 0.0
H1061 H 0.02934 0.24067 0.24168 0.0
C1062 C 0.01969 0.24462 0.2893 0.0
C1063 C 0.01586 0.24951 0.31399 0.0
C1064 C 0.02261 0.2638 0.27266 0.0
C1065 C 0.01464 0.27372 0.32185 0.0
C1066 C 0.01668 0.29284 0.30532 0.0
C1067 C 0.02286 0.30726 0.26398 0.0
C1068 C 0.02763 0.30253 0.23941 0.0
C1069 C 0.02069 0.28811 0.28069 0.0
C1070 C 0.03033 0.27834 0.23178 0.0
C1071 C 0.0276 0.25915 0.24818 0.0
H1072 H 0.80466 0.01655 0.28004 0.0
H1073 H 0.75421 1.00371 0.33817 0.0
H1074 H 0.72004 1.00752 0.30993 0.0
H1075 H 0.70453 0.01517 0.26877 0.0
H1076 H 0.75476 0.03209 0.21139 0.0
H1077 H 0.78898 0.02631 0.23918 0.0
C1078 C 0.78616 0.01439 0.28637 0.0
C1079 C 0.78185 1.00952 0.31098 0.0
C1080 C 0.76661 0.01759 0.27022 0.0
C1081 C 0.75786 1.00732 0.31923 0.0
C1082 C 0.73836 1.00954 0.30312 0.0
C1083 C 0.72298 0.01761 0.26238 0.0
C1084 C 0.72713 0.02395 0.23805 0.0
C1085 C 0.74251 0.01481 0.2786 0.0
C1086 C 0.7511 0.02733 0.23008 0.0
C1087 C 0.77067 0.02391 0.24592 0.0
H1088 H 1.01351 0.73941 0.23316 0.0
H1089 H 1.01315 0.68089 0.28507 0.0
H1090 H 0.01515 0.71011 0.3184 0.0
H1091 H 0.01733 0.75246 0.33278 0.0
H1092 H 0.02154 0.81066 0.28063 0.0
H1093 H 0.01781 0.78153 0.24745 0.0
C1094 C 1.01376 0.73312 0.2518 0.0
C1095 C 1.01297 0.7081 0.25671 0.0
C1096 C 0.0157 0.74999 0.27081 0.0
C1097 C 1.01374 0.7001 0.28088 0.0
C1098 C 0.01486 0.71679 0.29992 0.0
C1099 C 0.0174 0.75871 0.31414 0.0
C1100 C 0.01958 0.78366 0.30915 0.0
C1101 C 0.0159 0.74179 0.29511 0.0
C1102 C 0.01998 0.79152 0.28492 0.0
C1103 C 0.01776 0.7749 0.26594 0.0
H1104 H 0.22798 1.00923 0.28191 0.0
H1105 H 0.278 0.02952 0.33854 0.0
H1106 H 0.31204 0.02626 0.3103 0.0
H1107 H 0.32762 0.01728 0.26954 0.0
H1108 H 0.27807 0.99338 0.21382 0.0
H1109 H 0.24389 0.99811 0.24162 0.0
C1110 C 0.24634 1.01309 0.28793 0.0
C1111 C 0.25053 0.0199 0.31212 0.0
C1112 C 0.26591 1.01031 0.27181 0.0
C1113 C 0.2744 0.02435 0.31994 0.0
C1114 C 0.29384 0.02246 0.30383 0.0
C1115 C 0.30933 1.01307 0.26352 0.0
C1116 C 0.30538 1.00508 0.23963 0.0
C1117 C 0.28983 0.01536 0.27974 0.0
C1118 C 0.28162 0.99943 0.23216 0.0
C1119 C 0.26205 1.00226 0.248 0.0
H1120 H 1.01064 0.74864 0.79662 0.0
H1121 H 0.02064 0.68827 0.74801 0.0
H1122 H 0.01619 0.71529 0.71312 0.0
H1123 H 1.00911 0.75598 0.69634 0.0
H1124 H 0.99618 0.81606 0.74469 0.0
H1125 H 1.00177 0.78931 0.77965 0.0
C1126 C 1.01204 0.74152 0.77837 0.0
C1127 C 0.01623 0.71657 0.77486 0.0
C1128 C 1.00867 0.75706 0.75833 0.0
C1129 C 0.0175 0.70743 0.75114 0.0
C1130 C 0.01491 0.72286 0.73119 0.0
C1131 C 1.00744 0.76322 0.71453 0.0
C1132 C 1.00229 0.78802 0.71784 0.0
C1133 C 1.01038 0.74768 0.73455 0.0
C1134 C 0.99999 0.79703 0.74157 0.0
C1135 C 1.00333 0.78176 0.7616 0.0
H1136 H 0.22526 1.00664 0.74157 0.0
H1137 H 0.27639 1.00728 0.68259 0.0
H1138 H 0.30997 1.0126 0.71121 0.0
H1139 H 0.32482 0.0169 0.75303 0.0
H1140 H 0.27356 0.01974 0.81188 0.0
H1141 H 0.24 1.01358 0.78337 0.0
C1142 C 0.24379 1.0078 0.73508 0.0
C1143 C 0.24844 1.00625 0.71009 0.0
C1144 C 0.26293 1.01171 0.7516 0.0
C1145 C 0.27243 1.00833 0.70178 0.0
C1146 C 0.29161 1.01139 0.71812 0.0
C1147 C 0.30629 0.01627 0.75959 0.0
C1148 C 0.30171 0.01865 0.78455 0.0
C1149 C 0.28708 1.01314 0.74306 0.0
C1150 C 0.27757 0.01808 0.79275 0.0
C1151 C 0.25838 0.0144 0.77647 0.0
H1152 H 0.01557 0.27385 0.70019 0.0
H1153 H 0.03585 0.21601 0.74892 0.0
H1154 H 0.02972 0.2429 0.78367 0.0
H1155 H 0.01783 0.28299 0.80029 0.0
H1156 H 1.00106 0.34144 0.75108 0.0
H1157 H 1.00626 0.31423 0.71646 0.0
C1158 C 0.01877 0.26717 0.71842 0.0
C1159 C 0.02606 0.24294 0.72196 0.0
C1160 C 0.01557 0.28282 0.73824 0.0
C1161 C 0.03037 0.23462 0.74568 0.0
C1162 C 0.0267 0.24995 0.76557 0.0
C1163 C 0.01517 0.2896 0.78196 0.0
C1164 C 1.00872 0.314 0.77812 0.0
C1165 C 0.0191 0.27404 0.76209 0.0
C1166 C 1.00587 0.32264 0.75436 0.0
C1167 C 1.0089 0.30713 0.7346 0.0
H1168 H 0.80134 0.0159 0.74196 0.0
H1169 H 0.75042 0.03282 0.685 0.0
H1170 H 0.71648 0.02707 0.71297 0.0
H1171 H 0.70125 0.01674 0.75348 0.0
H1172 H 0.75181 0.99633 0.80974 0.0
H1173 H 0.78584 1.0035 0.78223 0.0
C1174 C 0.78279 0.01856 0.73585 0.0
C1175 C 0.77829 0.02517 0.71163 0.0
C1176 C 0.76332 0.01426 0.75182 0.0
C1177 C 0.75423 0.02795 0.70365 0.0
C1178 C 0.73485 0.02458 0.7196 0.0
C1179 C 0.71971 1.01376 0.75971 0.0
C1180 C 0.72395 1.00606 0.78368 0.0
C1181 C 0.73916 0.01759 0.74369 0.0
C1182 C 0.748 1.0021 0.79136 0.0
C1183 C 0.76749 1.00636 0.77567 0.0
H1184 H 0.27569 0.3285 1.00512 0.0
H1185 H 0.21442 0.28025 0.99833 0.0
H1186 H 0.24108 0.24517 1.00437 0.0
H1187 H 0.28199 0.22819 1.01228 0.0
H1188 H 0.34349 0.27646 0.01534 0.0
H1189 H 0.31666 0.31154 1.01031 0.0
C1190 C 0.2682 0.31029 1.00486 0.0
C1191 C 0.2431 0.30699 1.00139 0.0
C1192 C 0.28369 0.29022 1.00789 0.0
C1193 C 0.2337 0.28328 1.00083 0.0
C1194 C 0.24891 0.26322 1.00443 0.0
C1195 C 0.2894 0.24643 1.01197 0.0
C1196 C 0.31458 0.24986 0.01449 0.0
C1197 C 0.27393 0.26647 1.00817 0.0
C1198 C 0.32412 0.27347 0.01354 0.0
C1199 C 0.30881 0.2935 1.01063 0.0
H1200 H 0.26877 0.70017 1.00874 0.0
H1201 H 0.21372 0.75305 0.02597 0.0
H1202 H 0.24311 0.78589 0.02048 0.0
H1203 H 0.28459 0.79959 1.01062 0.0
H1204 H 0.34049 0.74651 0.99752 0.0
H1205 H 0.3107 0.71368 1.00129 0.0
C1206 C 0.26326 0.71889 1.01133 0.0
C1207 C 0.23912 0.72422 0.01763 0.0
C1208 C 0.28038 0.73761 1.00869 0.0
C1209 C 0.23225 0.74851 0.02124 0.0
C1210 C 0.249 0.76729 0.01797 0.0
C1211 C 0.2901 0.78081 1.00841 0.0
C1212 C 0.31449 0.77534 1.00343 0.0
C1213 C 0.27309 0.76206 1.01159 0.0
C1214 C 0.3217 0.75102 1.00119 0.0
C1215 C 0.30472 0.7323 1.00339 0.0
H1216 H 0.77687 0.31085 0.98397 0.0
H1217 H 0.77903 0.30686 0.06196 0.0
H1218 H 0.7465 0.2765 0.06146 0.0
H1219 H 0.71711 0.25147 0.03871 0.0
H1220 H 0.71755 0.25306 0.9606 0.0
H1221 H 0.74941 0.28404 0.96121 0.0
C1222 C 0.7702 0.30332 1.00085 0.0
C1223 C 0.78014 0.31122 0.02299 0.0
C1224 C 0.75196 0.28552 1.00036 0.0
C1225 C 0.77165 0.30104 0.04471 0.0
C1226 C 0.75302 0.28376 0.04442 0.0
C1227 C 0.72417 0.25869 0.02185 0.0
C1228 C 0.71486 0.25025 0.99963 0.0
C1229 C 0.74296 0.27596 0.02235 0.0
C1230 C 0.72444 0.25934 0.9779 0.0
C1231 C 0.74261 0.27705 0.97825 0.0
H1232 H 0.80372 0.75075 0.02229 0.0
H1233 H 0.75775 0.68859 1.01037 0.0
H1234 H 0.7216 0.71432 1.01283 0.0
H1235 H 0.70311 0.75461 0.01803 0.0
H1236 H 0.74871 0.81622 0.03389 0.0
H1237 H 0.78493 0.79068 0.03058 0.0
C1238 C 0.78574 0.74297 0.02018 0.0
C1239 C 0.78326 0.71797 0.01587 0.0
C1240 C 0.76503 0.75774 0.02251 0.0
C1241 C 0.75997 0.70786 0.01363 0.0
C1242 C 0.73935 0.72254 0.01504 0.0
C1243 C 0.72099 0.76238 0.02086 0.0
C1244 C 0.72328 0.78725 0.02606 0.0
C1245 C 0.74165 0.7475 0.01945 0.0
C1246 C 0.74651 0.79708 0.02999 0.0
C1247 C 0.76722 0.78252 0.02796 0.0
H1248 H 0.54868 0.75029 0.80591 0.0
H1249 H 0.47043 0.74856 0.80367 0.0
H1250 H 0.47029 0.78036 0.77262 0.0
H1251 H 0.49246 0.80933 0.74682 0.0
H1252 H 0.57072 0.80851 0.74627 0.0
H1253 H 0.57092 0.77698 0.77767 0.0
C1254 C 0.53162 0.75687 0.79856 0.0
C1255 C 0.50957 0.7473 0.8072 0.0
C1256 C 0.53173 0.7747 0.78028 0.0
C1257 C 0.48761 0.75565 0.79727 0.0
C1258 C 0.48753 0.77388 0.7796 0.0
C1259 C 0.50955 0.80222 0.75361 0.0
C1260 C 0.53157 0.8114 0.74452 0.0
C1261 C 0.50947 0.78365 0.7711 0.0
C1262 C 0.55357 0.80174 0.75306 0.0
C1263 C 0.55367 0.78377 0.77103 0.0
H1264 H 0.28126 0.54596 0.80017 0.0
H1265 H 0.27889 0.46811 0.80776 0.0
H1266 H 0.24652 0.46589 0.77731 0.0
H1267 H 0.21806 0.48634 0.74932 0.0
H1268 H 0.22322 0.56371 0.7388 0.0
H1269 H 0.25536 0.56598 0.76951 0.0
C1270 C 0.27367 0.52853 0.79506 0.0
C1271 C 0.28222 0.50724 0.80632 0.0
C1272 C 0.25556 0.52736 0.77707 0.0
C1273 C 0.27258 0.48471 0.7993 0.0
C1274 C 0.25403 0.48347 0.78198 0.0
C1275 C 0.2263 0.50366 0.75376 0.0
C1276 C 0.21816 0.52488 0.74208 0.0
C1277 C 0.24524 0.50469 0.77088 0.0
C1278 C 0.22921 0.54717 0.74761 0.0
C1279 C 0.24752 0.54846 0.76519 0.0
H1280 H 0.51047 0.26075 0.82722 0.0
H1281 H 0.53173 0.31662 0.77675 0.0
H1282 H 0.52659 0.28838 0.743 0.0
H1283 H 0.51618 0.24764 0.72775 0.0
H1284 H 0.49862 0.19082 0.7785 0.0
H1285 H 0.50197 0.21952 0.81218 0.0
C1286 C 0.51398 0.26671 0.80883 0.0
C1287 C 0.52138 0.29075 0.80448 0.0
C1288 C 0.51152 0.25021 0.78955 0.0
C1289 C 0.52614 0.29816 0.78058 0.0
C1290 C 0.52309 0.28206 0.76126 0.0
C1291 C 0.51291 0.24166 0.74619 0.0
C1292 C 0.50688 0.21729 0.75069 0.0
C1293 C 0.51575 0.25806 0.76551 0.0
C1294 C 0.5032 0.20955 0.77466 0.0
C1295 C 0.50514 0.22594 0.79389 0.0
H1296 H 0.8294 0.51881 0.77865 0.0
H1297 H 0.77751 0.49937 0.72333 0.0
H1298 H 0.74422 0.5047 0.75203 0.0
H1299 H 0.72977 0.51489 0.79302 0.0
H1300 H 0.78183 0.53021 0.84935 0.0
H1301 H 0.81512 0.52671 0.82021 0.0
C1302 C 0.8108 0.51572 0.77294 0.0
C1303 C 0.8059 0.5088 0.74892 0.0
C1304 C 0.79178 0.51823 0.78971 0.0
C1305 C 0.78174 0.50458 0.74179 0.0
C1306 C 0.76269 0.50774 0.75814 0.0
C1307 C 0.74842 0.51761 0.79877 0.0
C1308 C 0.75345 0.5231 0.82311 0.0
C1309 C 0.76747 0.51462 0.78214 0.0
C1310 C 0.77764 0.52607 0.83061 0.0
C1311 C 0.79663 0.52405 0.81399 0.0
H1312 H 0.48117 0.21407 0.27438 0.0
H1313 H 0.55909 0.2196 0.27961 0.0
H1314 H 0.55914 0.25125 0.24843 0.0
H1315 H 0.53697 0.27731 0.21953 0.0
H1316 H 0.45877 0.27465 0.2172 0.0
H1317 H 0.45879 0.242 0.24737 0.0
C1318 C 0.49814 0.22222 0.26863 0.0
C1319 C 0.52012 0.2144 0.27909 0.0
C1320 C 0.49794 0.24092 0.25124 0.0
C1321 C 0.54195 0.22535 0.27181 0.0
C1322 C 0.54199 0.24339 0.25396 0.0
C1323 C 0.51996 0.26952 0.22563 0.0
C1324 C 0.49791 0.27817 0.21602 0.0
C1325 C 0.5201 0.2513 0.24351 0.0
C1326 C 0.47596 0.26826 0.22436 0.0
C1327 C 0.47598 0.24957 0.24155 0.0
H1328 H 0.77531 0.50868 0.30407 0.0
H1329 H 0.836 0.5131 0.25505 0.0
H1330 H 0.80866 0.50906 0.22041 0.0
H1331 H 0.7676 0.50449 0.20391 0.0
H1332 H 0.70684 0.49709 0.25247 0.0
H1333 H 0.73403 0.50175 0.28736 0.0
C1334 C 0.78245 0.50886 0.28577 0.0
C1335 C 0.8076 0.5114 0.28209 0.0
C1336 C 0.76664 0.5058 0.26587 0.0
C1337 C 0.81671 0.51117 0.25833 0.0
C1338 C 0.8011 0.50886 0.23852 0.0
C1339 C 0.7603 0.50381 0.22213 0.0
C1340 C 0.73521 0.50057 0.22556 0.0
C1341 C 0.77605 0.50615 0.24205 0.0
C1342 C 0.7261 0.49946 0.24931 0.0
C1343 C 0.74162 0.50226 0.26927 0.0
H1344 H 0.51808 0.72616 0.24477 0.0
H1345 H 0.52282 0.77661 0.18523 0.0
H1346 H 0.51841 0.81075 0.21317 0.0
H1347 H 0.51253 0.8263 0.25445 0.0
H1348 H 0.50407 0.77592 0.31369 0.0
H1349 H 0.51032 0.74178 0.28606 0.0
C1350 C 0.51835 0.74466 0.23803 0.0
C1351 C 0.52106 0.74894 0.21306 0.0
C1352 C 0.51489 0.76419 0.25413 0.0
C1353 C 0.52085 0.77293 0.20442 0.0
C1354 C 0.51829 0.79244 0.22037 0.0
C1355 C 0.51204 0.80784 0.26131 0.0
C1356 C 0.50793 0.80367 0.28611 0.0
C1357 C 0.51515 0.78829 0.24524 0.0
C1358 C 0.50708 0.77963 0.29466 0.0
C1359 C 0.51078 0.7601 0.27889 0.0
H1360 H 0.25443 0.50986 0.1959 0.0
H1361 H 0.31342 0.52782 0.24424 0.0
H1362 H 0.28739 0.5197 0.27921 0.0
H1363 H 0.24753 0.50752 0.29612 0.0
H1364 H 0.18812 0.49268 0.24737 0.0
H1365 H 0.21468 0.49911 0.21253 0.0
C1366 C 0.26162 0.51206 0.21408 0.0
C1367 C 0.28587 0.51941 0.21741 0.0
C1368 C 0.2465 0.50762 0.23406 0.0
C1369 C 0.29478 0.52235 0.24113 0.0
C1370 C 0.27995 0.51754 0.26115 0.0
C1371 C 0.2406 0.50539 0.27784 0.0
C1372 C 0.21606 0.49927 0.27422 0.0
C1373 C 0.25579 0.51005 0.25785 0.0
C1374 C 0.20702 0.49718 0.25051 0.0
C1375 C 0.22216 0.50096 0.23061 0.0
H1376 H 0.82625 0.77183 0.50767 0.0
H1377 H 0.77408 0.71814 0.53055 0.0
H1378 H 0.74102 0.74705 0.52384 0.0
H1379 H 0.72685 0.78772 0.51126 0.0
H1380 H 0.77932 0.84243 0.49217 0.0
H1381 H 0.81234 0.81302 0.49725 0.0
C1382 C 0.80764 0.7665 0.51126 0.0
C1383 C 0.80263 0.74285 0.51953 0.0
C1384 C 0.78877 0.78335 0.50778 0.0
C1385 C 0.77845 0.73628 0.52433 0.0
C1386 C 0.75952 0.75275 0.52034 0.0
C1387 C 0.74552 0.79303 0.50799 0.0
C1388 C 0.75074 0.81698 0.50094 0.0
C1389 C 0.76444 0.77629 0.51194 0.0
C1390 C 0.77497 0.82397 0.49737 0.0
C1391 C 0.79381 0.8072 0.50036 0.0
H1392 H 0.77324 0.19992 0.51662 0.0
H1393 H 0.71482 0.25066 0.52851 0.0
H1394 H 0.74321 0.2846 0.52544 0.0
H1395 H 0.78468 0.29996 0.51893 0.0
H1396 H 0.84367 0.24921 0.51071 0.0
H1397 H 0.81513 0.2152 0.51271 0.0
C1398 C 0.76678 0.21842 0.51858 0.0
C1399 C 0.74198 0.2228 0.52265 0.0
C1400 C 0.78331 0.23784 0.51736 0.0
C1401 C 0.73386 0.24682 0.52546 0.0
C1402 C 0.75006 0.26625 0.52361 0.0
C1403 C 0.79121 0.28143 0.5175 0.0
C1404 C 0.81613 0.27703 0.51443 0.0
C1405 C 0.7748 0.26199 0.51944 0.0
C1406 C 0.82451 0.25298 0.51306 0.0
C1407 C 0.80821 0.23356 0.51418 0.0
H1408 H 0.28184 0.80267 0.48582 0.0
H1409 H 0.28215 0.80054 0.56391 0.0
H1410 H 0.25051 0.7693 0.56338 0.0
H1411 H 0.2223 0.74301 0.54062 0.0
H1412 H 0.22461 0.74263 0.46255 0.0
H1413 H 0.25572 0.77437 0.46309 0.0
C1414 C 0.27495 0.79534 0.50271 0.0
C1415 C 0.2841 0.80402 0.52488 0.0
C1416 C 0.25725 0.77695 0.50223 0.0
C1417 C 0.27536 0.79411 0.54663 0.0
C1418 C 0.25724 0.77632 0.54633 0.0
C1419 C 0.22965 0.74991 0.52375 0.0
C1420 C 0.22104 0.7407 0.50156 0.0
C1421 C 0.24797 0.76768 0.52424 0.0
C1422 C 0.23097 0.74945 0.47983 0.0
C1423 C 0.24869 0.76763 0.48014 0.0
H1424 H 0.22558 0.28043 0.48665 0.0
H1425 H 0.22017 0.27613 0.56442 0.0
H1426 H 0.25176 0.24477 0.56526 0.0
H1427 H 0.28047 0.21816 0.54367 0.0
H1428 H 0.28881 0.2255 0.46639 0.0
H1429 H 0.25659 0.25619 0.46544 0.0
C1430 C 0.23136 0.27258 0.50375 0.0
C1431 C 0.22046 0.28028 0.52543 0.0
C1432 C 0.25003 0.25517 0.50413 0.0
C1433 C 0.22834 0.27039 0.54753 0.0
C1434 C 0.24633 0.25246 0.548 0.0
C1435 C 0.2752 0.22654 0.52666 0.0
C1436 C 0.28673 0.21948 0.50508 0.0
C1437 C 0.25722 0.24464 0.52639 0.0
C1438 C 0.28013 0.2307 0.48319 0.0
C1439 C 0.26169 0.24816 0.48265 0.0
H1440 H 0.10466 0.38262 0.13563 0.0
H1441 H 0.08237 0.31111 0.11236 0.0
H1442 H 0.11042 0.31301 0.07862 0.0
H1443 H 0.13998 0.33504 0.05466 0.0
H1444 H 0.16435 0.40589 0.07722 0.0
H1445 H 0.13693 0.40413 0.11227 0.0
C1446 C 0.10611 0.36741 0.12327 0.0
C1447 C 0.09121 0.34681 0.12656 0.0
C1448 C 0.12255 0.36852 0.10367 0.0
C1449 C 0.09345 0.32723 0.11037 0.0
C1450 C 0.10949 0.32828 0.09095 0.0
C1451 C 0.13932 0.3502 0.06718 0.0
C1452 C 0.15395 0.37072 0.06311 0.0
C1453 C 0.12386 0.3489 0.08726 0.0
C1454 C 0.1532 0.38992 0.07986 0.0
C1455 C 0.13749 0.38891 0.09988 0.0
H1456 H 0.70212 0.08483 0.10771 0.0
H1457 H 0.64168 0.11042 0.1501 0.0
H1458 H 0.63175 0.14019 0.11854 0.0
H1459 H 0.63992 0.1584 0.0782 0.0
H1460 H 0.69967 0.13067 0.03584 0.0
H1461 H 0.70992 0.10229 0.06792 0.0
C1462 C 0.68691 0.09707 0.11021 0.0
C1463 C 0.67281 0.09552 0.13134 0.0
C1464 C 0.68098 0.11366 0.0918 0.0
C1465 C 0.65293 0.11131 0.13406 0.0
C1466 C 0.64718 0.12828 0.11596 0.0
C1467 C 0.65512 0.14609 0.07597 0.0
C1468 C 0.66893 0.14679 0.0545 0.0
C1469 C 0.66098 0.1295 0.09461 0.0
C1470 C 0.68859 0.13064 0.05202 0.0
C1471 C 0.69459 0.11437 0.07044 0.0
H1472 H 0.9556 0.70048 0.12338 0.0
H1473 H 0.93274 0.63341 0.15661 0.0
H1474 H 0.90248 0.62759 0.12446 0.0
H1475 H 0.88305 0.6414 0.08613 0.0
H1476 H 0.90794 0.70804 0.0531 0.0
H1477 H 0.9368 0.71396 0.08579 0.0
C1478 C 0.94389 0.68465 0.12377 0.0
C1479 C 0.94637 0.6675 0.14249 0.0
C1480 C 0.92694 0.68121 0.10506 0.0
C1481 C 0.93118 0.64697 0.14247 0.0
C1482 C 0.91391 0.64359 0.12403 0.0
C1483 C 0.89481 0.65717 0.08608 0.0
C1484 C 0.89319 0.67418 0.06702 0.0
C1485 C 0.91173 0.66053 0.10508 0.0
C1486 C 0.90867 0.69453 0.06735 0.0
C1487 C 0.92524 0.69804 0.08614 0.0
H1488 H 0.39392 0.87264 0.07971 0.0
H1489 H 0.3233 0.88635 0.04822 0.0
H1490 H 0.31401 0.91486 0.08018 0.0
H1491 H 0.32588 0.93735 0.116 0.0
H1492 H 0.39659 0.9262 0.14782 0.0
H1493 H 0.4057 0.8953 0.11715 0.0
C1494 C 0.3765 0.88181 0.07996 0.0
C1495 C 0.35949 0.87738 0.06133 0.0
C1496 C 0.37119 0.89872 0.09851 0.0
C1497 C 0.33696 0.8895 0.06201 0.0
C1498 C 0.3315 0.90583 0.0804 0.0
C1499 C 0.34324 0.92806 0.11645 0.0
C1500 C 0.36048 0.93412 0.13424 0.0
C1501 C 0.3485 0.91078 0.09857 0.0
C1502 C 0.38293 0.92189 0.13435 0.0
C1503 C 0.38818 0.90425 0.11675 0.0
H1504 H 0.07303 0.70475 0.91106 0.0
H1505 H 0.09673 0.64208 0.87083 0.0
H1506 H 0.12774 0.63364 0.90171 0.0
H1507 H 0.14764 0.64386 0.94103 0.0
H1508 H 0.1214 0.70587 0.98113 0.0
H1509 H 0.09202 0.71453 0.94961 0.0
C1510 C 0.08509 0.68934 0.90887 0.0
C1511 C 0.08265 0.6742 0.88855 0.0
C1512 C 0.10242 0.68431 0.92689 0.0
C1513 C 0.09827 0.65411 0.88626 0.0
C1514 C 0.11597 0.64924 0.90396 0.0
C1515 C 0.13547 0.65922 0.94284 0.0
C1516 C 0.13686 0.67407 0.96361 0.0
C1517 C 0.11813 0.66414 0.92452 0.0
C1518 C 0.12083 0.69392 0.96557 0.0
C1519 C 0.10396 0.69903 0.94744 0.0
H1520 H 0.3268 0.07293 0.91678 0.0
H1521 H 0.38795 0.09738 0.8747 0.0
H1522 H 0.39656 0.12884 0.90495 0.0
H1523 H 0.38662 0.14933 0.94392 0.0
H1524 H 0.32567 0.12293 0.98552 0.0
H1525 H 0.31735 0.09246 0.95506 0.0
C1526 C 0.34196 0.0852 0.91408 0.0
C1527 C 0.35659 0.08284 0.89339 0.0
C1528 C 0.34699 0.10293 0.93164 0.0
C1529 C 0.37631 0.09881 0.89041 0.0
C1530 C 0.38128 0.11679 0.90775 0.0
C1531 C 0.37159 0.13686 0.94633 0.0
C1532 C 0.35685 0.13864 0.96713 0.0
C1533 C 0.36677 0.119 0.92855 0.0
C1534 C 0.33742 0.12222 0.96983 0.0
C1535 C 0.33253 0.10468 0.95234 0.0
H1536 H 0.87118 0.3873 0.94222 0.0
H1537 H 0.8975 0.3257 0.98311 0.0
H1538 H 0.92587 0.31593 0.951 0.0
H1539 H 0.94416 0.32499 0.91176 0.0
H1540 H 0.91995 0.38738 0.87108 0.0
H1541 H 0.88981 0.39645 0.90236 0.0
C1542 C 0.88314 0.37177 0.94411 0.0
C1543 C 0.88211 0.35737 0.96522 0.0
C1544 C 0.89978 0.36622 0.92548 0.0
C1545 C 0.89783 0.33728 0.96724 0.0
C1546 C 0.9141 0.33155 0.94879 0.0
C1547 C 0.9321 0.34041 0.90955 0.0
C1548 C 0.93422 0.35536 0.889 0.0
C1549 C 0.91528 0.34588 0.92787 0.0
C1550 C 0.91866 0.37549 0.88667 0.0
C1551 C 0.90147 0.38075 0.90461 0.0
H1552 H 0.63722 0.87108 0.94173 0.0
H1553 H 0.70125 0.89408 0.98089 0.0
H1554 H 0.71058 0.92328 0.94953 0.0
H1555 H 0.70057 0.9435 0.9118 0.0
H1556 H 0.63603 0.92331 0.87233 0.0
H1557 H 0.6271 0.89195 0.90268 0.0
C1558 C 0.65321 0.88245 0.9433 0.0
C1559 C 0.66834 0.88035 0.96387 0.0
C1560 C 0.65849 0.8998 0.92509 0.0
C1561 C 0.68901 0.89534 0.96554 0.0
C1562 C 0.69451 0.91209 0.94751 0.0
C1563 C 0.68462 0.93214 0.90963 0.0
C1564 C 0.66908 0.93574 0.88973 0.0
C1565 C 0.67935 0.91462 0.92733 0.0
C1566 C 0.64837 0.92092 0.88746 0.0
C1567 C 0.64322 0.90301 0.90486 0.0
H1568 H 0.14103 0.09512 0.38171 0.0
H1569 H 0.11958 0.07363 0.30953 0.0
H1570 H 0.08596 0.10222 0.31052 0.0
H1571 H 0.06188 0.13243 0.33188 0.0
H1572 H 0.0829 0.15526 0.40367 0.0
H1573 H 0.11734 0.12707 0.40281 0.0
C1574 C 0.12911 0.09684 0.36615 0.0
C1575 C 0.13288 0.08212 0.3456 0.0
C1576 C 0.10959 0.11344 0.36679 0.0
C1577 C 0.11719 0.08463 0.32561 0.0
C1578 C 0.09786 0.10097 0.32615 0.0
C1579 C 0.07391 0.13126 0.34743 0.0
C1580 C 0.06962 0.14584 0.36791 0.0
C1581 C 0.09374 0.11526 0.3467 0.0
C1582 C 0.08569 0.14422 0.3877 0.0
C1583 C 0.10541 0.12809 0.3872 0.0
H1584 H 0.9481 0.12187 0.32377 0.0
H1585 H 0.93525 0.15289 0.39426 0.0
H1586 H 0.90364 0.12251 0.40197 0.0
H1587 H 0.88083 0.0855 0.38914 0.0
H1588 H 0.89589 0.05481 0.31875 0.0
H1589 H 0.92521 0.08653 0.31074 0.0
C1590 C 0.93828 0.1222 0.34077 0.0
C1591 C 0.94411 0.13969 0.35837 0.0
C1592 C 0.92051 0.10449 0.34523 0.0
C1593 C 0.93116 0.13966 0.38033 0.0
C1594 C 0.91311 0.12222 0.38479 0.0
C1595 C 0.89045 0.08587 0.37204 0.0
C1596 C 0.88616 0.06753 0.35473 0.0
C1597 C 0.90779 0.10428 0.36747 0.0
C1598 C 0.89888 0.06838 0.33263 0.0
C1599 C 0.9157 0.08663 0.3279 0.0
H1600 H 0.89135 0.93177 0.38246 0.0
H1601 H 0.90913 0.94966 0.30837 0.0
H1602 H 0.94287 0.92129 0.30936 0.0
H1603 H 0.96842 0.89268 0.33128 0.0
H1604 H 0.95103 0.87288 0.40481 0.0
H1605 H 0.91611 0.90063 0.40399 0.0
C1606 C 0.90248 0.92927 0.36649 0.0
C1607 C 0.89769 0.94302 0.34541 0.0
C1608 C 0.92207 0.91272 0.3671 0.0
C1609 C 0.91231 0.93946 0.32487 0.0
C1610 C 0.93173 0.92325 0.3254 0.0
C1611 C 0.95706 0.89443 0.34721 0.0
C1612 C 0.96254 0.88095 0.36819 0.0
C1613 C 0.93697 0.91006 0.34647 0.0
C1614 C 0.94729 0.88312 0.38845 0.0
C1615 C 0.92733 0.899 0.38798 0.0
H1616 H 0.13913 0.96446 0.33056 0.0
H1617 H 0.15988 0.94847 0.40426 0.0
H1618 H 0.13162 0.91397 0.40475 0.0
H1619 H 0.09933 0.88959 0.3845 0.0
H1620 H 0.07988 0.90659 0.31052 0.0
H1621 H 0.10939 0.93931 0.30994 0.0
C1622 C 0.13756 0.95346 0.3468 0.0
C1623 C 0.15143 0.95925 0.36745 0.0
C1624 C 0.12144 0.93378 0.3469 0.0
C1625 C 0.14939 0.94448 0.38813 0.0
C1626 C 0.13318 0.92478 0.38842 0.0
C1627 C 0.10174 0.90032 0.36821 0.0
C1628 C 0.0872 0.89565 0.34764 0.0
C1629 C 0.11887 0.91941 0.36796 0.0
C1630 C 0.09063 0.90975 0.32667 0.0
C1631 C 0.10753 0.92856 0.32629 0.0
H1632 H 0.0612 0.88653 0.69104 0.0
H1633 H 0.07666 0.86739 0.617 0.0
H1634 H 0.11307 0.89322 0.61789 0.0
H1635 H 0.1393 0.92313 0.63949 0.0
H1636 H 0.12347 0.94011 0.7142 0.0
H1637 H 0.08866 0.91308 0.71327 0.0
C1638 C 0.07252 0.88797 0.67505 0.0
C1639 C 0.06601 0.87536 0.65386 0.0
C1640 C 0.09345 0.90247 0.67585 0.0
C1641 C 0.0812 0.87701 0.6335 0.0
C1642 C 0.10199 0.89181 0.63402 0.0
C1643 C 0.1284 0.92066 0.65564 0.0
C1644 C 0.13401 0.93388 0.67684 0.0
C1645 C 0.10817 0.90488 0.65506 0.0
C1646 C 0.11967 0.93035 0.69759 0.0
C1647 C 0.09962 0.91491 0.6971 0.0
H1648 H 0.1527 0.07881 0.63421 0.0
H1649 H 0.1255 0.04024 0.69677 0.0
H1650 H 0.0974 0.07292 0.7051 0.0
H1651 H 0.08022 0.11224 0.69528 0.0
H1652 H 0.10494 0.15133 0.6323 0.0
H1653 H 0.13426 0.11888 0.62367 0.0
C1654 C 0.14056 0.07755 0.64958 0.0
C1655 C 0.14142 0.05693 0.66479 0.0
C1656 C 0.12402 0.0966 0.65437 0.0
C1657 C 0.12543 0.05571 0.68464 0.0
C1658 C 0.10928 0.07449 0.68955 0.0
C1659 C 0.09211 0.11384 0.67972 0.0
C1660 C 0.0905 0.13432 0.6646 0.0
C1661 C 0.10847 0.09501 0.67465 0.0
C1662 C 0.10586 0.13581 0.64433 0.0
C1663 C 0.1226 0.11722 0.63936 0.0
H1664 H 0.9451 0.15809 0.63573 0.0
H1665 H 0.98045 0.13559 0.70205 0.0
H1666 H 0.94747 0.10794 0.71075 0.0
H1667 H 0.90943 0.08882 0.69951 0.0
H1668 H 0.87389 0.10842 0.63261 0.0
H1669 H 0.90575 0.13847 0.62439 0.0
C1670 C 0.9455 0.14716 0.65207 0.0
C1671 C 0.96546 0.14894 0.66805 0.0
C1672 C 0.92635 0.13073 0.65699 0.0
C1673 C 0.9656 0.13455 0.68918 0.0
C1674 C 0.94663 0.1187 0.69432 0.0
C1675 C 0.90842 0.09981 0.68321 0.0
C1676 C 0.88919 0.09641 0.6668 0.0
C1677 C 0.92704 0.1165 0.67833 0.0
C1678 C 0.88845 0.11069 0.64564 0.0
C1679 C 0.90673 0.12783 0.64089 0.0
H1680 H 0.94964 0.91928 0.69281 0.0
H1681 H 0.92416 0.87945 0.63053 0.0
H1682 H 0.89288 0.91037 0.62328 0.0
H1683 H 0.87302 0.94945 0.63462 0.0
H1684 H 0.90055 0.98871 0.69665 0.0
H1685 H 0.93057 0.95742 0.7038 0.0
C1686 C 0.9372 0.91721 0.67768 0.0
C1687 C 0.93924 0.89698 0.66232 0.0
C1688 C 0.91957 0.93513 0.67346 0.0
C1689 C 0.92301 0.89481 0.64271 0.0
C1690 C 0.90512 0.91253 0.63853 0.0
C1691 C 0.8856 0.95112 0.64967 0.0
C1692 C 0.88436 0.97159 0.66498 0.0
C1693 C 0.90326 0.9329 0.65376 0.0
C1694 C 0.90092 0.97336 0.68441 0.0
C1695 C 0.9182 0.95539 0.68863 0.0
H1696 H 0.38682 0.08242 0.15075 0.0
H1697 H 0.32352 0.0442 0.12445 0.0
H1698 H 0.31441 0.07727 0.0969 0.0
H1699 H 0.32431 0.1166 0.07942 0.0
H1700 H 0.38859 0.15466 0.10283 0.0
H1701 H 0.39718 0.12242 0.13237 0.0
C1702 C 0.37108 0.08135 0.13895 0.0
C1703 C 0.35598 0.06067 0.13977 0.0
C1704 C 0.36595 0.10053 0.12267 0.0
C1705 C 0.33565 0.05967 0.12425 0.0
C1706 C 0.33029 0.07869 0.10847 0.0
C1707 C 0.34006 0.11805 0.09118 0.0
C1708 C 0.35562 0.13815 0.08907 0.0
C1709 C 0.34527 0.09917 0.1075 0.0
C1710 C 0.37621 0.13944 0.10417 0.0
C1711 C 0.38118 0.12095 0.121 0.0
H1712 H 0.32973 0.96221 0.88933 0.0
H1713 H 0.40207 0.94539 0.86486 0.0
H1714 H 0.40314 0.90983 0.89175 0.0
H1715 H 0.38377 0.88455 0.92372 0.0
H1716 H 0.31072 0.9018 0.9463 0.0
H1717 H 0.30969 0.93597 0.91853 0.0
C1718 C 0.34578 0.9508 0.88985 0.0
C1719 C 0.36592 0.95663 0.87537 0.0
C1720 C 0.34612 0.93038 0.90502 0.0
C1721 C 0.38636 0.94135 0.87591 0.0
C1722 C 0.38697 0.92105 0.89131 0.0
C1723 C 0.36758 0.89567 0.92237 0.0
C1724 C 0.34743 0.89062 0.93728 0.0
C1725 C 0.367 0.9155 0.90615 0.0
C1726 C 0.32655 0.90519 0.93519 0.0
C1727 C 0.32591 0.92486 0.91932 0.0
H1728 H 0.0811 0.39091 0.87227 0.0
H1729 H 0.03936 0.33309 0.90496 0.0
H1730 H 0.07118 0.32622 0.93444 0.0
H1731 H 0.11081 0.33572 0.95108 0.0
H1732 H 0.15321 0.39399 0.92069 0.0
H1733 H 0.12137 0.40144 0.89031 0.0
C1734 C 0.07894 0.37693 0.88593 0.0
C1735 C 0.05773 0.36253 0.88613 0.0
C1736 C 0.09753 0.37296 0.90324 0.0
C1737 C 0.05536 0.34448 0.90409 0.0
C1738 C 0.07363 0.34043 0.92107 0.0
C1739 C 0.11324 0.35 0.93776 0.0
C1740 C 0.13449 0.36411 0.93806 0.0
C1741 C 0.09481 0.35439 0.92073 0.0
C1742 C 0.13707 0.38276 0.92082 0.0
C1743 C 0.11884 0.38705 0.90347 0.0
H1744 H 0.69789 0.12098 0.94008 0.0
H1745 H 0.63058 0.15444 0.91805 0.0
H1746 H 0.62374 0.12171 0.88862 0.0
H1747 H 0.6367 0.08261 0.86989 0.0
H1748 H 0.70316 0.04908 0.89489 0.0
H1749 H 0.71034 0.08266 0.92232 0.0
C1750 C 0.6818 0.12132 0.9287 0.0
C1751 C 0.66489 0.14026 0.93114 0.0
C1752 C 0.67771 0.10221 0.91241 0.0
C1753 C 0.64396 0.14012 0.91647 0.0
C1754 C 0.64002 0.12136 0.89969 0.0
C1755 C 0.65272 0.08271 0.88135 0.0
C1756 C 0.66928 0.06318 0.88028 0.0
C1757 C 0.6567 0.10214 0.89761 0.0
C1758 C 0.68993 0.06363 0.89537 0.0
C1759 C 0.69418 0.08294 0.91107 0.0
H1760 H 0.96335 0.70319 0.88741 0.0
H1761 H 0.9466 0.62841 0.87141 0.0
H1762 H 0.91316 0.62949 0.90071 0.0
H1763 H 0.8901 0.65137 0.93259 0.0
H1764 H 0.90734 0.72644 0.94726 0.0
H1765 H 0.93901 0.72552 0.91666 0.0
C1766 C 0.9524 0.68707 0.89025 0.0
C1767 C 0.9577 0.66565 0.87742 0.0
C1768 C 0.93323 0.68789 0.90693 0.0
C1769 C 0.94298 0.64512 0.88108 0.0
C1770 C 0.92389 0.64573 0.89788 0.0
C1771 C 0.90062 0.66758 0.9289 0.0
C1772 C 0.89636 0.6889 0.94241 0.0
C1773 C 0.91902 0.66696 0.91116 0.0
C1774 C 0.91018 0.70975 0.9373 0.0
C1775 C 0.92839 0.70925 0.9198 0.0
H1776 H 0.64 0.94907 0.15331 0.0
H1777 H 0.6988 0.9887 0.11976 0.0
H1778 H 0.70471 0.95623 0.09097 0.0
H1779 H 0.69401 0.91676 0.07513 0.0
H1780 H 0.63448 0.87653 0.10597 0.0
H1781 H 0.62814 0.90892 0.13592 0.0
C1782 C 0.65401 0.9506 0.13964 0.0
C1783 C 0.66892 0.97143 0.13891 0.0
C1784 C 0.65734 0.93169 0.12267 0.0
C1785 C 0.68696 0.97305 0.12094 0.0
C1786 C 0.69048 0.9544 0.10438 0.0
C1787 C 0.6797 0.9149 0.08847 0.0
C1788 C 0.66492 0.89414 0.08847 0.0
C1789 C 0.67592 0.93364 0.10515 0.0
C1790 C 0.64621 0.89231 0.10566 0.0
C1791 C 0.64257 0.91084 0.12275 0.0
H1792 H 0.06416 0.69406 0.14451 0.0
H1793 H 0.08103 0.61902 0.15926 0.0
H1794 H 0.11441 0.62066 0.1299 0.0
H1795 H 0.13759 0.64328 0.0985 0.0
H1796 H 0.12004 0.7186 0.08526 0.0
H1797 H 0.08832 0.71694 0.11567 0.0
C1798 C 0.0751 0.67799 0.14136 0.0
C1799 C 0.06989 0.65636 0.15385 0.0
C1800 C 0.09422 0.67914 0.12469 0.0
C1801 C 0.08458 0.63589 0.14982 0.0
C1802 C 0.10365 0.63682 0.133 0.0
C1803 C 0.12698 0.65937 0.10247 0.0
C1804 C 0.13117 0.68099 0.08941 0.0
C1805 C 0.1085 0.65832 0.12012 0.0
C1806 C 0.11723 0.70167 0.09485 0.0
C1807 C 0.09899 0.70076 0.11225 0.0
H1808 H 0.94851 0.39007 0.15088 0.0
H1809 H 0.97801 0.32005 0.13156 0.0
H1810 H 0.94452 0.31314 0.10385 0.0
H1811 H 0.90776 0.32696 0.08387 0.0
H1812 H 0.87817 0.39748 0.10038 0.0
H1813 H 0.91051 0.40409 0.13037 0.0
C1814 C 0.94749 0.3733 0.14066 0.0
C1815 C 0.96593 0.35571 0.14329 0.0
C1816 C 0.92813 0.36947 0.12419 0.0
C1817 C 0.96432 0.33409 0.1298 0.0
C1818 C 0.94508 0.33001 0.11394 0.0
C1819 C 0.90818 0.34374 0.09413 0.0
C1820 C 0.89047 0.36164 0.08991 0.0
C1821 C 0.92703 0.3476 0.11083 0.0
C1822 C 0.89154 0.38335 0.10329 0.0
C1823 C 0.91008 0.38715 0.12041 0.0
H1824 H 0.65548 0.89815 0.5774 0.0
H1825 H 0.64164 0.82648 0.54876 0.0
H1826 H 0.61419 0.81791 0.58185 0.0
H1827 H 0.59274 0.83063 0.61796 0.0
H1828 H 0.60405 0.9024 0.64695 0.0
H1829 H 0.63379 0.91089 0.61501 0.0
C1830 C 0.64652 0.88066 0.57852 0.0
C1831 C 0.65059 0.86312 0.56038 0.0
C1832 C 0.63022 0.87578 0.59771 0.0
C1833 C 0.63874 0.84053 0.56217 0.0
C1834 C 0.62302 0.83548 0.5812 0.0
C1835 C 0.60181 0.84811 0.6175 0.0
C1836 C 0.59614 0.86581 0.63489 0.0
C1837 C 0.61844 0.85299 0.59891 0.0
C1838 C 0.60805 0.88839 0.63381 0.0
C1839 C 0.62504 0.89328 0.61549 0.0
H1840 H 0.19486 0.57248 0.60849 0.0
H1841 H 0.13251 0.59954 0.64708 0.0
H1842 H 0.12583 0.63012 0.61542 0.0
H1843 H 0.13794 0.6492 0.57643 0.0
H1844 H 0.19979 0.62025 0.53807 0.0
H1845 H 0.20622 0.59048 0.56985 0.0
C1846 C 0.17984 0.58512 0.6101 0.0
C1847 C 0.16433 0.5838 0.63024 0.0
C1848 C 0.17592 0.60233 0.59172 0.0
C1849 C 0.14479 0.60018 0.6318 0.0
C1850 C 0.14095 0.61767 0.61367 0.0
C1851 C 0.15276 0.63633 0.57501 0.0
C1852 C 0.16833 0.63714 0.55476 0.0
C1853 C 0.1564 0.61891 0.59347 0.0
C1854 C 0.18743 0.6202 0.55329 0.0
C1855 C 0.19122 0.6031 0.57154 0.0
H1856 H 0.39679 0.19782 0.56065 0.0
H1857 H 0.37189 0.12683 0.58236 0.0
H1858 H 0.39925 0.12783 0.61746 0.0
H1859 H 0.43137 0.1486 0.64127 0.0
H1860 H 0.45496 0.22003 0.61915 0.0
H1861 H 0.42688 0.21912 0.5851 0.0
C1862 C 0.39732 0.1825 0.573 0.0
C1863 C 0.38245 0.16217 0.5687 0.0
C1864 C 0.41286 0.18331 0.59318 0.0
C1865 C 0.38317 0.14268 0.58517 0.0
C1866 C 0.39883 0.14325 0.60525 0.0
C1867 C 0.43021 0.16403 0.62911 0.0
C1868 C 0.4454 0.18431 0.6328 0.0
C1869 C 0.4139 0.16343 0.60936 0.0
C1870 C 0.44359 0.20415 0.61683 0.0
C1871 C 0.42755 0.20365 0.59725 0.0
H1872 H 0.8314 0.3841 0.57098 0.0
H1873 H 0.90851 0.37404 0.58025 0.0
H1874 H 0.90797 0.40116 0.61556 0.0
H1875 H 0.88552 0.42966 0.64241 0.0
H1876 H 0.80816 0.43818 0.6324 0.0
H1877 H 0.8089 0.40957 0.59897 0.0
C1878 C 0.84815 0.3878 0.58069 0.0
C1879 C 0.87003 0.37734 0.57277 0.0
C1880 C 0.84763 0.40313 0.60093 0.0
C1881 C 0.89144 0.38196 0.5859 0.0
C1882 C 0.89112 0.39749 0.60606 0.0
C1883 C 0.86881 0.42499 0.6331 0.0
C1884 C 0.84684 0.43627 0.63987 0.0
C1885 C 0.86932 0.40843 0.61359 0.0
C1886 C 0.82535 0.42997 0.62758 0.0
C1887 C 0.82573 0.41361 0.60836 0.0
H1888 H 0.58142 0.19825 0.40725 0.0
H1889 H 0.60091 0.13015 0.37413 0.0
H1890 H 0.63203 0.1236 0.40538 0.0
H1891 H 0.6528 0.13688 0.4434 0.0
H1892 H 0.63069 0.20445 0.47636 0.0
H1893 H 0.60169 0.21139 0.44403 0.0
C1894 C 0.59257 0.18202 0.40666 0.0
C1895 C 0.58884 0.16478 0.38829 0.0
C1896 C 0.60997 0.17817 0.42488 0.0
C1897 C 0.6034 0.14378 0.38805 0.0
C1898 C 0.62117 0.14 0.40597 0.0
C1899 C 0.64168 0.15312 0.4434 0.0
C1900 C 0.64394 0.16999 0.46249 0.0
C1901 C 0.6245 0.15699 0.42468 0.0
C1902 C 0.62928 0.19095 0.46217 0.0
C1903 C 0.61266 0.19505 0.44358 0.0
H1904 H 0.81911 0.57514 0.41547 0.0
H1905 H 0.88236 0.59654 0.37488 0.0
H1906 H 0.89104 0.62848 0.40457 0.0
H1907 H 0.88116 0.6496 0.44321 0.0
H1908 H 0.81846 0.62587 0.48375 0.0
H1909 H 0.8093 0.59579 0.45313 0.0
C1910 C 0.83468 0.58691 0.41293 0.0
C1911 C 0.84996 0.58348 0.39289 0.0
C1912 C 0.83984 0.60483 0.43029 0.0
C1913 C 0.87023 0.59879 0.39012 0.0
C1914 C 0.87524 0.61704 0.40715 0.0
C1915 C 0.86551 0.63786 0.44529 0.0
C1916 C 0.85067 0.6401 0.46596 0.0
C1917 C 0.86029 0.62011 0.42751 0.0
C1918 C 0.83043 0.62462 0.46826 0.0
C1919 C 0.82503 0.60734 0.45066 0.0
H1920 H 0.37419 0.88398 0.44703 0.0
H1921 H 0.40484 0.8253 0.48922 0.0
H1922 H 0.43456 0.81762 0.45785 0.0
H1923 H 0.45228 0.82715 0.41862 0.0
H1924 H 0.42357 0.88635 0.37614 0.0
H1925 H 0.39278 0.89404 0.40721 0.0
C1926 C 0.38742 0.86958 0.44938 0.0
C1927 C 0.38709 0.85529 0.47061 0.0
C1928 C 0.40482 0.86519 0.43111 0.0
C1929 C 0.40448 0.8367 0.47322 0.0
C1930 C 0.42156 0.83218 0.45521 0.0
C1931 C 0.43921 0.84165 0.41601 0.0
C1932 C 0.44018 0.85602 0.39497 0.0
C1933 C 0.42189 0.84622 0.43408 0.0
C1934 C 0.42321 0.87493 0.39212 0.0
C1935 C 0.40562 0.87937 0.40993 0.0
H1936 H 0.20443 0.43978 0.40876 0.0
H1937 H 0.13852 0.41953 0.37162 0.0
H1938 H 0.12961 0.38966 0.40337 0.0
H1939 H 0.1402 0.37004 0.44267 0.0
H1940 H 0.20552 0.39273 0.4798 0.0
H1941 H 0.21479 0.42078 0.44724 0.0
C1942 C 0.1882 0.4287 0.40742 0.0
C1943 C 0.17227 0.43182 0.38772 0.0
C1944 C 0.18293 0.41204 0.42596 0.0
C1945 C 0.15117 0.41747 0.38653 0.0
C1946 C 0.14603 0.40042 0.40474 0.0
C1947 C 0.15644 0.38112 0.4436 0.0
C1948 C 0.17203 0.37919 0.46384 0.0
C1949 C 0.16169 0.39767 0.42472 0.0
C1950 C 0.19301 0.3938 0.46467 0.0
C1951 C 0.19845 0.40988 0.44595 0.0
H1952 H 0.61926 0.581 0.834 0.0
H1953 H 0.65732 0.60575 0.89771 0.0
H1954 H 0.62645 0.6372 0.90399 0.0
H1955 H 0.58788 0.65725 0.89159 0.0
H1956 H 0.54974 0.63033 0.82861 0.0
H1957 H 0.58125 0.60028 0.82203 0.0
C1958 C 0.62097 0.59337 0.84919 0.0
C1959 C 0.6407 0.59108 0.86525 0.0
C1960 C 0.60295 0.61102 0.85295 0.0
C1961 C 0.64237 0.60713 0.885 0.0
C1962 C 0.62467 0.6251 0.88863 0.0
C1963 C 0.58649 0.6448 0.87645 0.0
C1964 C 0.56631 0.64617 0.86068 0.0
C1965 C 0.60474 0.62715 0.87278 0.0
C1966 C 0.56487 0.62977 0.84118 0.0
C1967 C 0.58297 0.61253 0.83729 0.0
H1968 H 0.44812 0.61995 0.82818 0.0
H1969 H 0.42819 0.65632 0.89433 0.0
H1970 H 0.39624 0.62611 0.90139 0.0
H1971 H 0.37451 0.58846 0.88899 0.0
H1972 H 0.39674 0.55199 0.82344 0.0
H1973 H 0.42711 0.58303 0.81607 0.0
C1974 C 0.43671 0.62144 0.84409 0.0
C1975 C 0.44051 0.64049 0.86062 0.0
C1976 C 0.41878 0.60382 0.84824 0.0
C1977 C 0.42565 0.64189 0.88126 0.0
C1978 C 0.40739 0.62458 0.88533 0.0
C1979 C 0.38598 0.58737 0.87309 0.0
C1980 C 0.38325 0.56778 0.85686 0.0
C1981 C 0.40386 0.60531 0.86899 0.0
C1982 C 0.3984 0.56667 0.83638 0.0
C1983 C 0.41581 0.58449 0.83206 0.0
H1984 H 0.41149 0.45187 0.82861 0.0
H1985 H 0.37722 0.43131 0.89568 0.0
H1986 H 0.40942 0.40131 0.90315 0.0
H1987 H 0.44814 0.38135 0.89055 0.0
H1988 H 0.48206 0.40476 0.82395 0.0
H1989 H 0.44932 0.43309 0.81659 0.0
C1990 C 0.41087 0.44073 0.84482 0.0
C1991 C 0.39185 0.44373 0.86145 0.0
C1992 C 0.42959 0.42404 0.8492 0.0
C1993 C 0.39162 0.42932 0.88251 0.0
C1994 C 0.41007 0.41219 0.88681 0.0
C1995 C 0.44833 0.39268 0.87448 0.0
C1996 C 0.46773 0.39081 0.85792 0.0
C1997 C 0.4293 0.40946 0.87031 0.0
C1998 C 0.46761 0.40574 0.83719 0.0
C1999 C 0.44878 0.422 0.83282 0.0
H2000 H 0.60122 0.39432 0.88612 0.0
H2001 H 0.5873 0.41257 0.81123 0.0
H2002 H 0.61556 0.44634 0.81388 0.0
H2003 H 0.64275 0.47186 0.83752 0.0
H2004 H 0.65826 0.45412 0.91209 0.0
H2005 H 0.6309 0.41902 0.90949 0.0
C2006 C 0.60459 0.40553 0.87033 0.0
C2007 C 0.59198 0.40091 0.84854 0.0
C2008 C 0.62098 0.42517 0.87196 0.0
C2009 C 0.59661 0.41566 0.82826 0.0
C2010 C 0.61275 0.43508 0.82975 0.0
C2011 C 0.64015 0.46039 0.85329 0.0
C2012 C 0.6523 0.46582 0.87507 0.0
C2013 C 0.62472 0.44022 0.85156 0.0
C2014 C 0.64904 0.45043 0.89513 0.0
C2015 C 0.6334 0.43036 0.89364 0.0
H2016 H 0.57534 0.37293 0.139 0.0
H2017 H 0.53431 0.40041 0.19971 0.0
H2018 H 0.5652 0.43079 0.20735 0.0
H2019 H 0.60367 0.44991 0.19729 0.0
H2020 H 0.64521 0.42416 0.13639 0.0
H2021 H 0.61449 0.39289 0.12848 0.0
C2022 C 0.57315 0.38559 0.15385 0.0
C2023 C 0.55238 0.38419 0.16871 0.0
C2024 C 0.59115 0.40337 0.15824 0.0
C2025 C 0.54996 0.40087 0.18788 0.0
C2026 C 0.56769 0.41835 0.19236 0.0
C2027 C 0.60614 0.43743 0.18231 0.0
C2028 C 0.62682 0.43936 0.16755 0.0
C2029 C 0.58834 0.41975 0.17773 0.0
C2030 C 0.62951 0.42308 0.14811 0.0
C2031 C 0.6119 0.4052 0.14356 0.0
H2032 H 0.63617 0.56032 0.19597 0.0
H2033 H 0.65872 0.57691 0.12311 0.0
H2034 H 0.63274 0.61323 0.12313 0.0
H2035 H 0.60186 0.63915 0.14361 0.0
H2036 H 0.58141 0.62207 0.2172 0.0
H2037 H 0.60846 0.58728 0.21714 0.0
C2038 C 0.63543 0.57185 0.18004 0.0
C2039 C 0.64907 0.56571 0.15943 0.0
C2040 C 0.62083 0.5927 0.18035 0.0
C2041 C 0.6483 0.58117 0.13916 0.0
C2042 C 0.63342 0.6019 0.13918 0.0
C2043 C 0.60355 0.62797 0.1597 0.0
C2044 C 0.58938 0.63324 0.18032 0.0
C2045 C 0.61936 0.60774 0.15963 0.0
C2046 C 0.59192 0.61853 0.20103 0.0
C2047 C 0.60737 0.5985 0.20103 0.0
H2048 H 0.44484 0.65395 0.13469 0.0
H2049 H 0.48319 0.62703 0.19769 0.0
H2050 H 0.45198 0.59692 0.20433 0.0
H2051 H 0.41423 0.57751 0.19265 0.0
H2052 H 0.37514 0.60233 0.12954 0.0
H2053 H 0.40595 0.6338 0.12274 0.0
C2054 C 0.44633 0.6415 0.14984 0.0
C2055 C 0.46656 0.64294 0.16556 0.0
C2056 C 0.42811 0.62376 0.15367 0.0
C2057 C 0.46806 0.62652 0.18512 0.0
C2058 C 0.45012 0.60918 0.18906 0.0
C2059 C 0.41228 0.58984 0.17743 0.0
C2060 C 0.39231 0.58754 0.1617 0.0
C2061 C 0.43013 0.60759 0.17349 0.0
C2062 C 0.3903 0.60367 0.142 0.0
C2063 C 0.40796 0.62167 0.13808 0.0
H2064 H 0.42055 0.38714 0.13797 0.0
H2065 H 0.43605 0.40282 0.21311 0.0
H2066 H 0.40958 0.43802 0.21149 0.0
H2067 H 0.3836 0.46557 0.18873 0.0
H2068 H 0.36567 0.45019 0.11427 0.0
H2069 H 0.39143 0.41372 0.11562 0.0
C2070 C 0.41791 0.39812 0.15403 0.0
C2071 C 0.43049 0.39231 0.1756 0.0
C2072 C 0.4024 0.41855 0.15306 0.0
C2073 C 0.42674 0.40675 0.19625 0.0
C2074 C 0.41163 0.42702 0.19535 0.0
C2075 C 0.38535 0.4543 0.17272 0.0
C2076 C 0.37307 0.4608 0.1513 0.0
C2077 C 0.39971 0.4333 0.17381 0.0
C2078 C 0.37507 0.44566 0.13093 0.0
C2079 C 0.3898 0.42482 0.13172 0.0
H2080 H 0.88548 0.5825 0.65497 0.0
H2081 H 0.8209 0.5444 0.63171 0.0
H2082 H 0.81206 0.57614 0.60262 0.0
H2083 H 0.82245 0.61418 0.58304 0.0
H2084 H 0.88763 0.65235 0.60365 0.0
H2085 H 0.89625 0.62137 0.63451 0.0
C2086 C 0.86952 0.58118 0.64351 0.0
C2087 C 0.85398 0.56093 0.64562 0.0
C2088 C 0.8645 0.59959 0.62636 0.0
C2089 C 0.83336 0.55957 0.63053 0.0
C2090 C 0.82815 0.57781 0.61386 0.0
C2091 C 0.83846 0.61592 0.5944 0.0
C2092 C 0.85426 0.63565 0.59114 0.0
C2093 C 0.84356 0.59784 0.61158 0.0
C2094 C 0.87509 0.63737 0.60585 0.0
C2095 C 0.88006 0.61962 0.62345 0.0
H2096 H 0.82752 0.46481 0.39963 0.0
H2097 H 0.90033 0.44768 0.3766 0.0
H2098 H 0.90147 0.41342 0.40499 0.0
H2099 H 0.88185 0.38886 0.43722 0.0
H2100 H 0.80868 0.40649 0.45901 0.0
H2101 H 0.80765 0.43985 0.43014 0.0
C2102 C 0.84372 0.45367 0.40078 0.0
C2103 C 0.86389 0.459 0.38609 0.0
C2104 C 0.84415 0.43396 0.41692 0.0
C2105 C 0.88455 0.44407 0.38771 0.0
C2106 C 0.88521 0.42446 0.40396 0.0
C2107 C 0.86564 0.3999 0.43551 0.0
C2108 C 0.8454 0.39512 0.45039 0.0
C2109 C 0.86512 0.41928 0.41876 0.0
C2110 C 0.82455 0.40966 0.44789 0.0
C2111 C 0.82393 0.42884 0.43139 0.0
H2112 H 0.56052 0.83332 0.39032 0.0
H2113 H 0.57508 0.90681 0.36764 0.0
H2114 H 0.61129 0.90774 0.39374 0.0
H2115 H 0.6381 0.88769 0.42427 0.0
H2116 H 0.62294 0.81356 0.44497 0.0
H2117 H 0.58788 0.8129 0.41826 0.0
C2118 C 0.57152 0.84964 0.39108 0.0
C2119 C 0.56487 0.87009 0.37728 0.0
C2120 C 0.59234 0.84989 0.40576 0.0
C2121 C 0.5797 0.89085 0.37816 0.0
C2122 C 0.6004 0.89137 0.3931 0.0
C2123 C 0.62724 0.87135 0.42274 0.0
C2124 C 0.63319 0.85075 0.43681 0.0
C2125 C 0.60685 0.871 0.40713 0.0
C2126 C 0.61889 0.82972 0.43452 0.0
C2127 C 0.59871 0.8293 0.41925 0.0
H2128 H 0.20411 0.61436 0.43669 0.0
H2129 H 0.13404 0.64569 0.42102 0.0
H2130 H 0.12618 0.61371 0.39112 0.0
H2131 H 0.1388 0.57548 0.37058 0.0
H2132 H 0.20854 0.54429 0.38868 0.0
H2133 H 0.21675 0.57742 0.41634 0.0
C2134 C 0.18718 0.61441 0.4266 0.0
C2135 C 0.16975 0.63246 0.43108 0.0
C2136 C 0.18259 0.59575 0.40992 0.0
C2137 C 0.14784 0.63203 0.41791 0.0
C2138 C 0.14329 0.61368 0.40086 0.0
C2139 C 0.15579 0.57602 0.38054 0.0
C2140 C 0.1729 0.55721 0.37755 0.0
C2141 C 0.16044 0.59522 0.39689 0.0
C2142 C 0.19485 0.55826 0.39067 0.0
C2143 C 0.19968 0.5773 0.40651 0.0
H2144 H 0.47351 0.19172 0.39494 0.0
H2145 H 0.44954 0.12176 0.3692 0.0
H2146 H 0.41581 0.12245 0.39801 0.0
H2147 H 0.39322 0.14299 0.43094 0.0
H2148 H 0.41727 0.2135 0.45529 0.0
H2149 H 0.45066 0.2125 0.42657 0.0
C2150 C 0.46099 0.17654 0.39564 0.0
C2151 C 0.46421 0.15665 0.37999 0.0
C2152 C 0.4415 0.17719 0.41199 0.0
C2153 C 0.44756 0.13731 0.38103 0.0
C2154 C 0.42824 0.13769 0.39752 0.0
C2155 C 0.40571 0.15816 0.42988 0.0
C2156 C 0.40267 0.17826 0.44535 0.0
C2157 C 0.42502 0.15756 0.41312 0.0
C2158 C 0.41905 0.19778 0.44366 0.0
C2159 C 0.43826 0.19723 0.42724 0.0
H2160 H 0.19289 0.46644 0.63554 0.0
H2161 H 0.1218 0.44568 0.66072 0.0
H2162 H 0.12211 0.41056 0.63342 0.0
H2163 H 0.14243 0.38636 0.60132 0.0
H2164 H 0.21427 0.40728 0.57805 0.0
H2165 H 0.21379 0.44153 0.60571 0.0
C2166 C 0.1774 0.45428 0.63508 0.0
C2167 C 0.15725 0.45885 0.64998 0.0
C2168 C 0.17786 0.43405 0.61965 0.0
C2169 C 0.13754 0.44262 0.6494 0.0
C2170 C 0.1377 0.42256 0.63376 0.0
C2171 C 0.15801 0.39834 0.60244 0.0
C2172 C 0.1783 0.39422 0.58748 0.0
C2173 C 0.15774 0.41815 0.61866 0.0
C2174 C 0.19839 0.4099 0.58927 0.0
C2175 C 0.19814 0.42961 0.60508 0.0
H2176 H 0.63694 0.14443 0.59978 0.0
H2177 H 0.62121 0.2192 0.58188 0.0
H2178 H 0.58876 0.21988 0.61151 0.0
H2179 H 0.56339 0.19913 0.6408 0.0
H2180 H 0.5781 0.12465 0.66004 0.0
H2181 H 0.61248 0.12405 0.63177 0.0
C2182 C 0.62654 0.1609 0.60256 0.0
C2183 C 0.63145 0.18166 0.58841 0.0
C2184 C 0.60763 0.16122 0.61976 0.0
C2185 C 0.61782 0.20289 0.59232 0.0
C2186 C 0.59918 0.20333 0.60928 0.0
C2187 C 0.57409 0.18271 0.6389 0.0
C2188 C 0.56799 0.16187 0.65229 0.0
C2189 C 0.59368 0.18254 0.62279 0.0
C2190 C 0.58237 0.14093 0.64988 0.0
C2191 C 0.60198 0.14057 0.63367 0.0
H2192 H 0.44856 0.88942 0.65488 0.0
H2193 H 0.48701 0.82553 0.63073 0.0
H2194 H 0.4541 0.81583 0.60303 0.0
H2195 H 0.41486 0.82547 0.58489 0.0
H2196 H 0.37664 0.89018 0.6066 0.0
H2197 H 0.40876 0.89938 0.63605 0.0
C2198 C 0.44971 0.87339 0.64355 0.0
C2199 C 0.47037 0.85831 0.64496 0.0
C2200 C 0.43067 0.86794 0.62725 0.0
C2201 C 0.47151 0.83763 0.63003 0.0
C2202 C 0.45261 0.83195 0.61418 0.0
C2203 C 0.41338 0.84148 0.59622 0.0
C2204 C 0.39327 0.857 0.59366 0.0
C2205 C 0.43215 0.84696 0.61259 0.0
C2206 C 0.39189 0.87786 0.60826 0.0
C2207 C 0.4103 0.88316 0.62506 0.0
loop_
_geom_bond_atom_site_label_1
_geom_bond_atom_site_label_2
_geom_bond_distance
_geom_bond_site_symmetry_2
_ccdc_geom_bond_type
O0 Cd1 2.223 . S
O0 C8 1.315 . S
Cd1 O0 2.223 . S
Cd1 O4 2.297 . S
Cd1 O5 2.439 . S
Cd1 O11 2.240 . S
Cd2 O3 2.240 . S
Cd2 O10 2.223 . S
Cd2 O12 2.297 . S
Cd2 O13 2.439 . S
O3 Cd2 2.240 . S
O3 C8 1.279 . S
O4 Cd1 2.297 . S
O4 C6 1.247 . S
O5 Cd1 2.439 . S
O5 C6 1.208 . S
C6 O4 1.247 . S
C6 O5 1.208 . S
C7 O12 1.247 . S
C7 O13 1.208 . S
C8 O0 1.315 . S
C8 O3 1.279 . S
C9 O10 1.315 . S
C9 O11 1.279 . S
O10 Cd2 2.223 . S
O10 C9 1.315 . S
O11 Cd1 2.240 . S
O11 C9 1.279 . S
O12 Cd2 2.297 . S
O12 C7 1.247 . S
O13 Cd2 2.439 . S
O13 C7 1.208 . S
O14 Cd15 2.223 . S
O14 C22 1.315 . S
Cd15 O14 2.223 . S
Cd15 O18 2.297 . S
Cd15 O19 2.439 . S
Cd15 O25 2.240 . S
Cd16 O17 2.240 . S
Cd16 O24 2.223 . S
Cd16 O26 2.297 . S
Cd16 O27 2.439 . S
O17 Cd16 2.240 . S
O17 C22 1.279 . S
O18 Cd15 2.297 . S
O18 C20 1.247 . S
O19 Cd15 2.439 . S
O19 C20 1.208 . S
C20 O18 1.247 . S
C20 O19 1.208 . S
C21 O26 1.247 . S
C21 O27 1.208 . S
C22 O14 1.315 . S
C22 O17 1.279 . S
C23 O24 1.315 . S
C23 O25 1.279 . S
O24 Cd16 2.223 . S
O24 C23 1.315 . S
O25 Cd15 2.240 . S
O25 C23 1.279 . S
O26 Cd16 2.297 . S
O26 C21 1.247 . S
O27 Cd16 2.439 . S
O27 C21 1.208 . S
O28 Cd29 2.223 . S
O28 C36 1.315 . S
Cd29 O28 2.223 . S
Cd29 O32 2.297 . S
Cd29 O33 2.439 . S
Cd29 O39 2.240 . S
Cd30 O31 2.240 . S
Cd30 O38 2.223 . S
Cd30 O40 2.297 . S
Cd30 O41 2.439 . S
O31 Cd30 2.240 . S
O31 C36 1.279 . S
O32 Cd29 2.297 . S
O32 C34 1.247 . S
O33 Cd29 2.439 . S
O33 C34 1.208 . S
C34 O32 1.247 . S
C34 O33 1.208 . S
C35 O40 1.247 . S
C35 O41 1.208 . S
C36 O28 1.315 . S
C36 O31 1.279 . S
C37 O38 1.315 . S
C37 O39 1.279 . S
O38 Cd30 2.223 . S
O38 C37 1.315 . S
O39 Cd29 2.240 . S
O39 C37 1.279 . S
O40 Cd30 2.297 . S
O40 C35 1.247 . S
O41 Cd30 2.439 . S
O41 C35 1.208 . S
O42 Cd43 2.223 . S
O42 C50 1.315 . S
Cd43 O42 2.223 . S
Cd43 O46 2.297 . S
Cd43 O47 2.439 . S
Cd43 O53 2.240 . S
Cd44 O45 2.240 . S
Cd44 O52 2.223 . S
Cd44 O54 2.297 . S
Cd44 O55 2.439 . S
O45 Cd44 2.240 . S
O45 C50 1.279 . S
O46 Cd43 2.297 . S
O46 C48 1.247 . S
O47 Cd43 2.439 . S
O47 C48 1.208 . S
C48 O46 1.247 . S
C48 O47 1.208 . S
C49 O54 1.247 . S
C49 O55 1.208 . S
C50 O42 1.315 . S
C50 O45 1.279 . S
C51 O52 1.315 . S
C51 O53 1.279 . S
O52 Cd44 2.223 . S
O52 C51 1.315 . S
O53 Cd43 2.240 . S
O53 C51 1.279 . S
O54 Cd44 2.297 . S
O54 C49 1.247 . S
O55 Cd44 2.439 . S
O55 C49 1.208 . S
O56 Cd57 2.223 . S
O56 C64 1.315 . S
Cd57 O56 2.223 . S
Cd57 O60 2.297 . S
Cd57 O61 2.439 . S
Cd57 O67 2.240 . S
Cd58 O59 2.240 . S
Cd58 O66 2.223 . S
Cd58 O68 2.297 . S
Cd58 O69 2.439 . S
O59 Cd58 2.240 . S
O59 C64 1.279 . S
O60 Cd57 2.297 . S
O60 C62 1.247 . S
O61 Cd57 2.439 . S
O61 C62 1.208 . S
C62 O60 1.247 . S
C62 O61 1.208 . S
C63 O68 1.247 . S
C63 O69 1.208 . S
C64 O56 1.315 . S
C64 O59 1.279 . S
C65 O66 1.315 . S
C65 O67 1.279 . S
O66 Cd58 2.223 . S
O66 C65 1.315 . S
O67 Cd57 2.240 . S
O67 C65 1.279 . S
O68 Cd58 2.297 . S
O68 C63 1.247 . S
O69 Cd58 2.439 . S
O69 C63 1.208 . S
O70 Cd71 2.223 . S
O70 C78 1.315 . S
Cd71 O70 2.223 . S
Cd71 O74 2.297 . S
Cd71 O75 2.439 . S
Cd71 O81 2.240 . S
Cd72 O73 2.240 . S
Cd72 O80 2.223 . S
Cd72 O82 2.297 . S
Cd72 O83 2.439 . S
O73 Cd72 2.240 . S
O73 C78 1.279 . S
O74 Cd71 2.297 . S
O74 C76 1.247 . S
O75 Cd71 2.439 . S
O75 C76 1.208 . S
C76 O74 1.247 . S
C76 O75 1.208 . S
C77 O82 1.247 . S
C77 O83 1.208 . S
C78 O70 1.315 . S
C78 O73 1.279 . S
C79 O80 1.315 . S
C79 O81 1.279 . S
O80 Cd72 2.223 . S
O80 C79 1.315 . S
O81 Cd71 2.240 . S
O81 C79 1.279 . S
O82 Cd72 2.297 . S
O82 C77 1.247 . S
O83 Cd72 2.439 . S
O83 C77 1.208 . S
O84 Cd85 2.223 . S
O84 C92 1.315 . S
Cd85 O84 2.223 . S
Cd85 O88 2.297 . S
Cd85 O89 2.439 . S
Cd85 O95 2.240 . S
Cd86 O87 2.240 . S
Cd86 O94 2.223 . S
Cd86 O96 2.297 . S
Cd86 O97 2.439 . S
O87 Cd86 2.240 . S
O87 C92 1.279 . S
O88 Cd85 2.297 . S
O88 C90 1.247 . S
O89 Cd85 2.439 . S
O89 C90 1.208 . S
C90 O88 1.247 . S
C90 O89 1.208 . S
C91 O96 1.247 . S
C91 O97 1.208 . S
C92 O84 1.315 . S
C92 O87 1.279 . S
C93 O94 1.315 . S
C93 O95 1.279 . S
O94 Cd86 2.223 . S
O94 C93 1.315 . S
O95 Cd85 2.240 . S
O95 C93 1.279 . S
O96 Cd86 2.297 . S
O96 C91 1.247 . S
O97 Cd86 2.439 . S
O97 C91 1.208 . S
O98 Cd99 2.223 . S
O98 C106 1.315 . S
Cd99 O98 2.223 . S
Cd99 O102 2.297 . S
Cd99 O103 2.439 . S
Cd99 O109 2.240 . S
Cd100 O101 2.240 . S
Cd100 O108 2.223 . S
Cd100 O110 2.297 . S
Cd100 O111 2.439 . S
O101 Cd100 2.240 . S
O101 C106 1.279 . S
O102 Cd99 2.297 . S
O102 C104 1.247 . S
O103 Cd99 2.439 . S
O103 C104 1.208 . S
C104 O102 1.247 . S
C104 O103 1.208 . S
C105 O110 1.247 . S
C105 O111 1.208 . S
C106 O98 1.315 . S
C106 O101 1.279 . S
C107 O108 1.315 . S
C107 O109 1.279 . S
O108 Cd100 2.223 . S
O108 C107 1.315 . S
O109 Cd99 2.240 . S
O109 C107 1.279 . S
O110 Cd100 2.297 . S
O110 C105 1.247 . S
O111 Cd100 2.439 . S
O111 C105 1.208 . S
O112 Cd113 2.223 . S
O112 C120 1.315 . S
Cd113 O112 2.223 . S
Cd113 O116 2.297 . S
Cd113 O117 2.439 . S
Cd113 O123 2.240 . S
Cd114 O115 2.240 . S
Cd114 O122 2.223 . S
Cd114 O124 2.297 . S
Cd114 O125 2.439 . S
O115 Cd114 2.240 . S
O115 C120 1.279 . S
O116 Cd113 2.297 . S
O116 C118 1.247 . S
O117 Cd113 2.439 . S
O117 C118 1.208 . S
C118 O116 1.247 . S
C118 O117 1.208 . S
C119 O124 1.247 . S
C119 O125 1.208 . S
C120 O112 1.315 . S
C120 O115 1.279 . S
C121 O122 1.315 . S
C121 O123 1.279 . S
O122 Cd114 2.223 . S
O122 C121 1.315 . S
O123 Cd113 2.240 . S
O123 C121 1.279 . S
O124 Cd114 2.297 . S
O124 C119 1.247 . S
O125 Cd114 2.439 . S
O125 C119 1.208 . S
O126 Cd127 2.223 . S
O126 C134 1.315 . S
Cd127 O126 2.223 . S
Cd127 O130 2.297 . S
Cd127 O131 2.439 . S
Cd127 O137 2.240 . S
Cd128 O129 2.240 . S
Cd128 O136 2.223 . S
Cd128 O138 2.297 . S
Cd128 O139 2.439 . S
O129 Cd128 2.240 . S
O129 C134 1.279 . S
O130 Cd127 2.297 . S
O130 C132 1.247 . S
O131 Cd127 2.439 . S
O131 C132 1.208 . S
C132 O130 1.247 . S
C132 O131 1.208 . S
C133 O138 1.247 . S
C133 O139 1.208 . S
C134 O126 1.315 . S
C134 O129 1.279 . S
C135 O136 1.315 . S
C135 O137 1.279 . S
O136 Cd128 2.223 . S
O136 C135 1.315 . S
O137 Cd127 2.240 . S
O137 C135 1.279 . S
O138 Cd128 2.297 . S
O138 C133 1.247 . S
O139 Cd128 2.439 . S
O139 C133 1.208 . S
O140 Cd141 2.223 . S
O140 C148 1.315 . S
Cd141 O140 2.223 . S
Cd141 O144 2.297 . S
Cd141 O145 2.439 . S
Cd141 O151 2.240 . S
Cd142 O143 2.240 . S
Cd142 O150 2.223 . S
Cd142 O152 2.297 . S
Cd142 O153 2.439 . S
O143 Cd142 2.240 . S
O143 C148 1.279 . S
O144 Cd141 2.297 . S
O144 C146 1.247 . S
O145 Cd141 2.439 . S
O145 C146 1.208 . S
C146 O144 1.247 . S
C146 O145 1.208 . S
C147 O152 1.247 . S
C147 O153 1.208 . S
C148 O140 1.315 . S
C148 O143 1.279 . S
C149 O150 1.315 . S
C149 O151 1.279 . S
O150 Cd142 2.223 . S
O150 C149 1.315 . S
O151 Cd141 2.240 . S
O151 C149 1.279 . S
O152 Cd142 2.297 . S
O152 C147 1.247 . S
O153 Cd142 2.439 . S
O153 C147 1.208 . S
O154 Cd155 2.223 . S
O154 C162 1.315 . S
Cd155 O154 2.223 . S
Cd155 O158 2.297 . S
Cd155 O159 2.439 . S
Cd155 O165 2.240 . S
Cd156 O157 2.240 . S
Cd156 O164 2.223 . S
Cd156 O166 2.297 . S
Cd156 O167 2.439 . S
O157 Cd156 2.240 . S
O157 C162 1.279 . S
O158 Cd155 2.297 . S
O158 C160 1.247 . S
O159 Cd155 2.439 . S
O159 C160 1.208 . S
C160 O158 1.247 . S
C160 O159 1.208 . S
C161 O166 1.247 . S
C161 O167 1.208 . S
C162 O154 1.315 . S
C162 O157 1.279 . S
C163 O164 1.315 . S
C163 O165 1.279 . S
O164 Cd156 2.223 . S
O164 C163 1.315 . S
O165 Cd155 2.240 . S
O165 C163 1.279 . S
O166 Cd156 2.297 . S
O166 C161 1.247 . S
O167 Cd156 2.439 . S
O167 C161 1.208 . S
O168 Cd169 2.223 . S
O168 C176 1.315 . S
Cd169 O168 2.223 . S
Cd169 O172 2.297 . S
Cd169 O173 2.439 . S
Cd169 O179 2.240 . S
Cd170 O171 2.240 . S
Cd170 O178 2.223 . S
Cd170 O180 2.297 . S
Cd170 O181 2.439 . S
O171 Cd170 2.240 . S
O171 C176 1.279 . S
O172 Cd169 2.297 . S
O172 C174 1.247 . S
O173 Cd169 2.439 . S
O173 C174 1.208 . S
C174 O172 1.247 . S
C174 O173 1.208 . S
C175 O180 1.247 . S
C175 O181 1.208 . S
C176 O168 1.315 . S
C176 O171 1.279 . S
C177 O178 1.315 . S
C177 O179 1.279 . S
O178 Cd170 2.223 . S
O178 C177 1.315 . S
O179 Cd169 2.240 . S
O179 C177 1.279 . S
O180 Cd170 2.297 . S
O180 C175 1.247 . S
O181 Cd170 2.439 . S
O181 C175 1.208 . S
O182 Cd183 2.223 . S
O182 C190 1.315 . S
Cd183 O182 2.223 . S
Cd183 O186 2.297 . S
Cd183 O187 2.439 . S
Cd183 O193 2.240 . S
Cd184 O185 2.240 . S
Cd184 O192 2.223 . S
Cd184 O194 2.297 . S
Cd184 O195 2.439 . S
O185 Cd184 2.240 . S
O185 C190 1.279 . S
O186 Cd183 2.297 . S
O186 C188 1.247 . S
O187 Cd183 2.439 . S
O187 C188 1.208 . S
C188 O186 1.247 . S
C188 O187 1.208 . S
C189 O194 1.247 . S
C189 O195 1.208 . S
C190 O182 1.315 . S
C190 O185 1.279 . S
C191 O192 1.315 . S
C191 O193 1.279 . S
O192 Cd184 2.223 . S
O192 C191 1.315 . S
O193 Cd183 2.240 . S
O193 C191 1.279 . S
O194 Cd184 2.297 . S
O194 C189 1.247 . S
O195 Cd184 2.439 . S
O195 C189 1.208 . S
O196 Cd197 2.223 . S
O196 C204 1.315 . S
Cd197 O196 2.223 . S
Cd197 O200 2.297 . S
Cd197 O201 2.439 . S
Cd197 O207 2.240 . S
Cd198 O199 2.240 . S
Cd198 O206 2.223 . S
Cd198 O208 2.297 . S
Cd198 O209 2.439 . S
O199 Cd198 2.240 . S
O199 C204 1.279 . S
O200 Cd197 2.297 . S
O200 C202 1.247 . S
O201 Cd197 2.439 . S
O201 C202 1.208 . S
C202 O200 1.247 . S
C202 O201 1.208 . S
C203 O208 1.247 . S
C203 O209 1.208 . S
C204 O196 1.315 . S
C204 O199 1.279 . S
C205 O206 1.315 . S
C205 O207 1.279 . S
O206 Cd198 2.223 . S
O206 C205 1.315 . S
O207 Cd197 2.240 . S
O207 C205 1.279 . S
O208 Cd198 2.297 . S
O208 C203 1.247 . S
O209 Cd198 2.439 . S
O209 C203 1.208 . S
O210 Cd211 2.223 . S
O210 C218 1.315 . S
Cd211 O210 2.223 . S
Cd211 O214 2.297 . S
Cd211 O215 2.439 . S
Cd211 O221 2.240 . S
Cd212 O213 2.240 . S
Cd212 O220 2.223 . S
Cd212 O222 2.297 . S
Cd212 O223 2.439 . S
O213 Cd212 2.240 . S
O213 C218 1.279 . S
O214 Cd211 2.297 . S
O214 C216 1.247 . S
O215 Cd211 2.439 . S
O215 C216 1.208 . S
C216 O214 1.247 . S
C216 O215 1.208 . S
C217 O222 1.247 . S
C217 O223 1.208 . S
C218 O210 1.315 . S
C218 O213 1.279 . S
C219 O220 1.315 . S
C219 O221 1.279 . S
O220 Cd212 2.223 . S
O220 C219 1.315 . S
O221 Cd211 2.240 . S
O221 C219 1.279 . S
O222 Cd212 2.297 . S
O222 C217 1.247 . S
O223 Cd212 2.439 . S
O223 C217 1.208 . S
O224 Cd225 2.223 . S
O224 C232 1.315 . S
Cd225 O224 2.223 . S
Cd225 O228 2.297 . S
Cd225 O229 2.439 . S
Cd225 O235 2.240 . S
Cd226 O227 2.240 . S
Cd226 O234 2.223 . S
Cd226 O236 2.297 . S
Cd226 O237 2.439 . S
O227 Cd226 2.240 . S
O227 C232 1.279 . S
O228 Cd225 2.297 . S
O228 C230 1.247 . S
O229 Cd225 2.439 . S
O229 C230 1.208 . S
C230 O228 1.247 . S
C230 O229 1.208 . S
C231 O236 1.247 . S
C231 O237 1.208 . S
C232 O224 1.315 . S
C232 O227 1.279 . S
C233 O234 1.315 . S
C233 O235 1.279 . S
O234 Cd226 2.223 . S
O234 C233 1.315 . S
O235 Cd225 2.240 . S
O235 C233 1.279 . S
O236 Cd226 2.297 . S
O236 C231 1.247 . S
O237 Cd226 2.439 . S
O237 C231 1.208 . S
O238 Cd239 2.223 . S
O238 C246 1.315 . S
Cd239 O238 2.223 . S
Cd239 O242 2.297 . S
Cd239 O243 2.439 . S
Cd239 O249 2.240 . S
Cd240 O241 2.240 . S
Cd240 O248 2.223 . S
Cd240 O250 2.297 . S
Cd240 O251 2.439 . S
O241 Cd240 2.240 . S
O241 C246 1.279 . S
O242 Cd239 2.297 . S
O242 C244 1.247 . S
O243 Cd239 2.439 . S
O243 C244 1.208 . S
C244 O242 1.247 . S
C244 O243 1.208 . S
C245 O250 1.247 . S
C245 O251 1.208 . S
C246 O238 1.315 . S
C246 O241 1.279 . S
C247 O248 1.315 . S
C247 O249 1.279 . S
O248 Cd240 2.223 . S
O248 C247 1.315 . S
O249 Cd239 2.240 . S
O249 C247 1.279 . S
O250 Cd240 2.297 . S
O250 C245 1.247 . S
O251 Cd240 2.439 . S
O251 C245 1.208 . S
O252 Cd253 2.223 . S
O252 C260 1.315 . S
Cd253 O252 2.223 . S
Cd253 O256 2.297 . S
Cd253 O257 2.439 . S
Cd253 O263 2.240 . S
Cd254 O255 2.240 . S
Cd254 O262 2.223 . S
Cd254 O264 2.297 . S
Cd254 O265 2.439 . S
O255 Cd254 2.240 . S
O255 C260 1.279 . S
O256 Cd253 2.297 . S
O256 C258 1.247 . S
O257 Cd253 2.439 . S
O257 C258 1.208 . S
C258 O256 1.247 . S
C258 O257 1.208 . S
C259 O264 1.247 . S
C259 O265 1.208 . S
C260 O252 1.315 . S
C260 O255 1.279 . S
C261 O262 1.315 . S
C261 O263 1.279 . S
O262 Cd254 2.223 . S
O262 C261 1.315 . S
O263 Cd253 2.240 . S
O263 C261 1.279 . S
O264 Cd254 2.297 . S
O264 C259 1.247 . S
O265 Cd254 2.439 . S
O265 C259 1.208 . S
O266 Cd267 2.223 . S
O266 C274 1.315 . S
Cd267 O266 2.223 . S
Cd267 O270 2.297 . S
Cd267 O271 2.439 . S
Cd267 O277 2.240 . S
Cd268 O269 2.240 . S
Cd268 O276 2.223 . S
Cd268 O278 2.297 . S
Cd268 O279 2.439 . S
O269 Cd268 2.240 . S
O269 C274 1.279 . S
O270 Cd267 2.297 . S
O270 C272 1.247 . S
O271 Cd267 2.439 . S
O271 C272 1.208 . S
C272 O270 1.247 . S
C272 O271 1.208 . S
C273 O278 1.247 . S
C273 O279 1.208 . S
C274 O266 1.315 . S
C274 O269 1.279 . S
C275 O276 1.315 . S
C275 O277 1.279 . S
O276 Cd268 2.223 . S
O276 C275 1.315 . S
O277 Cd267 2.240 . S
O277 C275 1.279 . S
O278 Cd268 2.297 . S
O278 C273 1.247 . S
O279 Cd268 2.439 . S
O279 C273 1.208 . S
O280 Cd281 2.223 . S
O280 C288 1.315 . S
Cd281 O280 2.223 . S
Cd281 O284 2.297 . S
Cd281 O285 2.439 . S
Cd281 O291 2.240 . S
Cd282 O283 2.240 . S
Cd282 O290 2.223 . S
Cd282 O292 2.297 . S
Cd282 O293 2.439 . S
O283 Cd282 2.240 . S
O283 C288 1.279 . S
O284 Cd281 2.297 . S
O284 C286 1.247 . S
O285 Cd281 2.439 . S
O285 C286 1.208 . S
C286 O284 1.247 . S
C286 O285 1.208 . S
C287 O292 1.247 . S
C287 O293 1.208 . S
C288 O280 1.315 . S
C288 O283 1.279 . S
C289 O290 1.315 . S
C289 O291 1.279 . S
O290 Cd282 2.223 . S
O290 C289 1.315 . S
O291 Cd281 2.240 . S
O291 C289 1.279 . S
O292 Cd282 2.297 . S
O292 C287 1.247 . S
O293 Cd282 2.439 . S
O293 C287 1.208 . S
O294 Cd295 2.223 . S
O294 C302 1.315 . S
Cd295 O294 2.223 . S
Cd295 O298 2.297 . S
Cd295 O299 2.439 . S
Cd295 O305 2.240 . S
Cd296 O297 2.240 . S
Cd296 O304 2.223 . S
Cd296 O306 2.297 . S
Cd296 O307 2.439 . S
O297 Cd296 2.240 . S
O297 C302 1.279 . S
O298 Cd295 2.297 . S
O298 C300 1.247 . S
O299 Cd295 2.439 . S
O299 C300 1.208 . S
C300 O298 1.247 . S
C300 O299 1.208 . S
C301 O306 1.247 . S
C301 O307 1.208 . S
C302 O294 1.315 . S
C302 O297 1.279 . S
C303 O304 1.315 . S
C303 O305 1.279 . S
O304 Cd296 2.223 . S
O304 C303 1.315 . S
O305 Cd295 2.240 . S
O305 C303 1.279 . S
O306 Cd296 2.297 . S
O306 C301 1.247 . S
O307 Cd296 2.439 . S
O307 C301 1.208 . S
O308 Cd309 2.223 . S
O308 C316 1.315 . S
Cd309 O308 2.223 . S
Cd309 O312 2.297 . S
Cd309 O313 2.439 . S
Cd309 O319 2.240 . S
Cd310 O311 2.240 . S
Cd310 O318 2.223 . S
Cd310 O320 2.297 . S
Cd310 O321 2.439 . S
O311 Cd310 2.240 . S
O311 C316 1.279 . S
O312 Cd309 2.297 . S
O312 C314 1.247 . S
O313 Cd309 2.439 . S
O313 C314 1.208 . S
C314 O312 1.247 . S
C314 O313 1.208 . S
C315 O320 1.247 . S
C315 O321 1.208 . S
C316 O308 1.315 . S
C316 O311 1.279 . S
C317 O318 1.315 . S
C317 O319 1.279 . S
O318 Cd310 2.223 . S
O318 C317 1.315 . S
O319 Cd309 2.240 . S
O319 C317 1.279 . S
O320 Cd310 2.297 . S
O320 C315 1.247 . S
O321 Cd310 2.439 . S
O321 C315 1.208 . S
O322 Cd323 2.223 . S
O322 C330 1.315 . S
Cd323 O322 2.223 . S
Cd323 O326 2.297 . S
Cd323 O327 2.439 . S
Cd323 O333 2.240 . S
Cd324 O325 2.240 . S
Cd324 O332 2.223 . S
Cd324 O334 2.297 . S
Cd324 O335 2.439 . S
O325 Cd324 2.240 . S
O325 C330 1.279 . S
O326 Cd323 2.297 . S
O326 C328 1.247 . S
O327 Cd323 2.439 . S
O327 C328 1.208 . S
C328 O326 1.247 . S
C328 O327 1.208 . S
C329 O334 1.247 . S
C329 O335 1.208 . S
C330 O322 1.315 . S
C330 O325 1.279 . S
C331 O332 1.315 . S
C331 O333 1.279 . S
O332 Cd324 2.223 . S
O332 C331 1.315 . S
O333 Cd323 2.240 . S
O333 C331 1.279 . S
O334 Cd324 2.297 . S
O334 C329 1.247 . S
O335 Cd324 2.439 . S
O335 C329 1.208 . S
O336 Cd337 2.223 . S
O336 C344 1.315 . S
Cd337 O336 2.223 . S
Cd337 O340 2.297 . S
Cd337 O341 2.439 . S
Cd337 O347 2.240 . S
Cd338 O339 2.240 . S
Cd338 O346 2.223 . S
Cd338 O348 2.297 . S
Cd338 O349 2.439 . S
O339 Cd338 2.240 . S
O339 C344 1.279 . S
O340 Cd337 2.297 . S
O340 C342 1.247 . S
O341 Cd337 2.439 . S
O341 C342 1.208 . S
C342 O340 1.247 . S
C342 O341 1.208 . S
C343 O348 1.247 . S
C343 O349 1.208 . S
C344 O336 1.315 . S
C344 O339 1.279 . S
C345 O346 1.315 . S
C345 O347 1.279 . S
O346 Cd338 2.223 . S
O346 C345 1.315 . S
O347 Cd337 2.240 . S
O347 C345 1.279 . S
O348 Cd338 2.297 . S
O348 C343 1.247 . S
O349 Cd338 2.439 . S
O349 C343 1.208 . S
O350 Cd351 2.223 . S
O350 C358 1.315 . S
Cd351 O350 2.223 . S
Cd351 O354 2.297 . S
Cd351 O355 2.439 . S
Cd351 O361 2.240 . S
Cd352 O353 2.240 . S
Cd352 O360 2.223 . S
Cd352 O362 2.297 . S
Cd352 O363 2.439 . S
O353 Cd352 2.240 . S
O353 C358 1.279 . S
O354 Cd351 2.297 . S
O354 C356 1.247 . S
O355 Cd351 2.439 . S
O355 C356 1.208 . S
C356 O354 1.247 . S
C356 O355 1.208 . S
C357 O362 1.247 . S
C357 O363 1.208 . S
C358 O350 1.315 . S
C358 O353 1.279 . S
C359 O360 1.315 . S
C359 O361 1.279 . S
O360 Cd352 2.223 . S
O360 C359 1.315 . S
O361 Cd351 2.240 . S
O361 C359 1.279 . S
O362 Cd352 2.297 . S
O362 C357 1.247 . S
O363 Cd352 2.439 . S
O363 C357 1.208 . S
O364 Cd365 2.223 . S
O364 C372 1.315 . S
Cd365 O364 2.223 . S
Cd365 O368 2.297 . S
Cd365 O369 2.439 . S
Cd365 O375 2.240 . S
Cd366 O367 2.240 . S
Cd366 O374 2.223 . S
Cd366 O376 2.297 . S
Cd366 O377 2.439 . S
O367 Cd366 2.240 . S
O367 C372 1.279 . S
O368 Cd365 2.297 . S
O368 C370 1.247 . S
O369 Cd365 2.439 . S
O369 C370 1.208 . S
C370 O368 1.247 . S
C370 O369 1.208 . S
C371 O376 1.247 . S
C371 O377 1.208 . S
C372 O364 1.315 . S
C372 O367 1.279 . S
C373 O374 1.315 . S
C373 O375 1.279 . S
O374 Cd366 2.223 . S
O374 C373 1.315 . S
O375 Cd365 2.240 . S
O375 C373 1.279 . S
O376 Cd366 2.297 . S
O376 C371 1.247 . S
O377 Cd366 2.439 . S
O377 C371 1.208 . S
O378 Cd379 2.223 . S
O378 C386 1.315 . S
Cd379 O378 2.223 . S
Cd379 O382 2.297 . S
Cd379 O383 2.439 . S
Cd379 O389 2.240 . S
Cd380 O381 2.240 . S
Cd380 O388 2.223 . S
Cd380 O390 2.297 . S
Cd380 O391 2.439 . S
O381 Cd380 2.240 . S
O381 C386 1.279 . S
O382 Cd379 2.297 . S
O382 C384 1.247 . S
O383 Cd379 2.439 . S
O383 C384 1.208 . S
C384 O382 1.247 . S
C384 O383 1.208 . S
C385 O390 1.247 . S
C385 O391 1.208 . S
C386 O378 1.315 . S
C386 O381 1.279 . S
C387 O388 1.315 . S
C387 O389 1.279 . S
O388 Cd380 2.223 . S
O388 C387 1.315 . S
O389 Cd379 2.240 . S
O389 C387 1.279 . S
O390 Cd380 2.297 . S
O390 C385 1.247 . S
O391 Cd380 2.439 . S
O391 C385 1.208 . S
O392 Cd393 2.223 . S
O392 C400 1.315 . S
Cd393 O392 2.223 . S
Cd393 O396 2.297 . S
Cd393 O397 2.439 . S
Cd393 O403 2.240 . S
Cd394 O395 2.240 . S
Cd394 O402 2.223 . S
Cd394 O404 2.297 . S
Cd394 O405 2.439 . S
O395 Cd394 2.240 . S
O395 C400 1.279 . S
O396 Cd393 2.297 . S
O396 C398 1.247 . S
O397 Cd393 2.439 . S
O397 C398 1.208 . S
C398 O396 1.247 . S
C398 O397 1.208 . S
C399 O404 1.247 . S
C399 O405 1.208 . S
C400 O392 1.315 . S
C400 O395 1.279 . S
C401 O402 1.315 . S
C401 O403 1.279 . S
O402 Cd394 2.223 . S
O402 C401 1.315 . S
O403 Cd393 2.240 . S
O403 C401 1.279 . S
O404 Cd394 2.297 . S
O404 C399 1.247 . S
O405 Cd394 2.439 . S
O405 C399 1.208 . S
O406 Cd407 2.223 . S
O406 C414 1.315 . S
Cd407 O406 2.223 . S
Cd407 O410 2.297 . S
Cd407 O411 2.439 . S
Cd407 O417 2.240 . S
Cd408 O409 2.240 . S
Cd408 O416 2.223 . S
Cd408 O418 2.297 . S
Cd408 O419 2.439 . S
O409 Cd408 2.240 . S
O409 C414 1.279 . S
O410 Cd407 2.297 . S
O410 C412 1.247 . S
O411 Cd407 2.439 . S
O411 C412 1.208 . S
C412 O410 1.247 . S
C412 O411 1.208 . S
C413 O418 1.247 . S
C413 O419 1.208 . S
C414 O406 1.315 . S
C414 O409 1.279 . S
C415 O416 1.315 . S
C415 O417 1.279 . S
O416 Cd408 2.223 . S
O416 C415 1.315 . S
O417 Cd407 2.240 . S
O417 C415 1.279 . S
O418 Cd408 2.297 . S
O418 C413 1.247 . S
O419 Cd408 2.439 . S
O419 C413 1.208 . S
O420 Cd421 2.223 . S
O420 C428 1.315 . S
Cd421 O420 2.223 . S
Cd421 O424 2.297 . S
Cd421 O425 2.439 . S
Cd421 O431 2.240 . S
Cd422 O423 2.240 . S
Cd422 O430 2.223 . S
Cd422 O432 2.297 . S
Cd422 O433 2.439 . S
O423 Cd422 2.240 . S
O423 C428 1.279 . S
O424 Cd421 2.297 . S
O424 C426 1.247 . S
O425 Cd421 2.439 . S
O425 C426 1.208 . S
C426 O424 1.247 . S
C426 O425 1.208 . S
C427 O432 1.247 . S
C427 O433 1.208 . S
C428 O420 1.315 . S
C428 O423 1.279 . S
C429 O430 1.315 . S
C429 O431 1.279 . S
O430 Cd422 2.223 . S
O430 C429 1.315 . S
O431 Cd421 2.240 . S
O431 C429 1.279 . S
O432 Cd422 2.297 . S
O432 C427 1.247 . S
O433 Cd422 2.439 . S
O433 C427 1.208 . S
O434 Cd435 2.223 . S
O434 C442 1.315 . S
Cd435 O434 2.223 . S
Cd435 O438 2.297 . S
Cd435 O439 2.439 . S
Cd435 O445 2.240 . S
Cd436 O437 2.240 . S
Cd436 O444 2.223 . S
Cd436 O446 2.297 . S
Cd436 O447 2.439 . S
O437 Cd436 2.240 . S
O437 C442 1.279 . S
O438 Cd435 2.297 . S
O438 C440 1.247 . S
O439 Cd435 2.439 . S
O439 C440 1.208 . S
C440 O438 1.247 . S
C440 O439 1.208 . S
C441 O446 1.247 . S
C441 O447 1.208 . S
C442 O434 1.315 . S
C442 O437 1.279 . S
C443 O444 1.315 . S
C443 O445 1.279 . S
O444 Cd436 2.223 . S
O444 C443 1.315 . S
O445 Cd435 2.240 . S
O445 C443 1.279 . S
O446 Cd436 2.297 . S
O446 C441 1.247 . S
O447 Cd436 2.439 . S
O447 C441 1.208 . S
O448 Cd449 2.223 . S
O448 C456 1.315 . S
Cd449 O448 2.223 . S
Cd449 O452 2.297 . S
Cd449 O453 2.439 . S
Cd449 O459 2.240 . S
Cd450 O451 2.240 . S
Cd450 O458 2.223 . S
Cd450 O460 2.297 . S
Cd450 O461 2.439 . S
O451 Cd450 2.240 . S
O451 C456 1.279 . S
O452 Cd449 2.297 . S
O452 C454 1.247 . S
O453 Cd449 2.439 . S
O453 C454 1.208 . S
C454 O452 1.247 . S
C454 O453 1.208 . S
C455 O460 1.247 . S
C455 O461 1.208 . S
C456 O448 1.315 . S
C456 O451 1.279 . S
C457 O458 1.315 . S
C457 O459 1.279 . S
O458 Cd450 2.223 . S
O458 C457 1.315 . S
O459 Cd449 2.240 . S
O459 C457 1.279 . S
O460 Cd450 2.297 . S
O460 C455 1.247 . S
O461 Cd450 2.439 . S
O461 C455 1.208 . S
O462 Cd463 2.223 . S
O462 C470 1.315 . S
Cd463 O462 2.223 . S
Cd463 O466 2.297 . S
Cd463 O467 2.439 . S
Cd463 O473 2.240 . S
Cd464 O465 2.240 . S
Cd464 O472 2.223 . S
Cd464 O474 2.297 . S
Cd464 O475 2.439 . S
O465 Cd464 2.240 . S
O465 C470 1.279 . S
O466 Cd463 2.297 . S
O466 C468 1.247 . S
O467 Cd463 2.439 . S
O467 C468 1.208 . S
C468 O466 1.247 . S
C468 O467 1.208 . S
C469 O474 1.247 . S
C469 O475 1.208 . S
C470 O462 1.315 . S
C470 O465 1.279 . S
C471 O472 1.315 . S
C471 O473 1.279 . S
O472 Cd464 2.223 . S
O472 C471 1.315 . S
O473 Cd463 2.240 . S
O473 C471 1.279 . S
O474 Cd464 2.297 . S
O474 C469 1.247 . S
O475 Cd464 2.439 . S
O475 C469 1.208 . S
O476 Cd477 2.223 . S
O476 C484 1.315 . S
Cd477 O476 2.223 . S
Cd477 O480 2.297 . S
Cd477 O481 2.439 . S
Cd477 O487 2.240 . S
Cd478 O479 2.240 . S
Cd478 O486 2.223 . S
Cd478 O488 2.297 . S
Cd478 O489 2.439 . S
O479 Cd478 2.240 . S
O479 C484 1.279 . S
O480 Cd477 2.297 . S
O480 C482 1.247 . S
O481 Cd477 2.439 . S
O481 C482 1.208 . S
C482 O480 1.247 . S
C482 O481 1.208 . S
C483 O488 1.247 . S
C483 O489 1.208 . S
C484 O476 1.315 . S
C484 O479 1.279 . S
C485 O486 1.315 . S
C485 O487 1.279 . S
O486 Cd478 2.223 . S
O486 C485 1.315 . S
O487 Cd477 2.240 . S
O487 C485 1.279 . S
O488 Cd478 2.297 . S
O488 C483 1.247 . S
O489 Cd478 2.439 . S
O489 C483 1.208 . S
O490 Cd491 2.223 . S
O490 C498 1.315 . S
Cd491 O490 2.223 . S
Cd491 O494 2.297 . S
Cd491 O495 2.439 . S
Cd491 O501 2.240 . S
Cd492 O493 2.240 . S
Cd492 O500 2.223 . S
Cd492 O502 2.297 . S
Cd492 O503 2.439 . S
O493 Cd492 2.240 . S
O493 C498 1.279 . S
O494 Cd491 2.297 . S
O494 C496 1.247 . S
O495 Cd491 2.439 . S
O495 C496 1.208 . S
C496 O494 1.247 . S
C496 O495 1.208 . S
C497 O502 1.247 . S
C497 O503 1.208 . S
C498 O490 1.315 . S
C498 O493 1.279 . S
C499 O500 1.315 . S
C499 O501 1.279 . S
O500 Cd492 2.223 . S
O500 C499 1.315 . S
O501 Cd491 2.240 . S
O501 C499 1.279 . S
O502 Cd492 2.297 . S
O502 C497 1.247 . S
O503 Cd492 2.439 . S
O503 C497 1.208 . S
O504 Cd505 2.223 . S
O504 C512 1.315 . S
Cd505 O504 2.223 . S
Cd505 O508 2.297 . S
Cd505 O509 2.439 . S
Cd505 O515 2.240 . S
Cd506 O507 2.240 . S
Cd506 O514 2.223 . S
Cd506 O516 2.297 . S
Cd506 O517 2.439 . S
O507 Cd506 2.240 . S
O507 C512 1.279 . S
O508 Cd505 2.297 . S
O508 C510 1.247 . S
O509 Cd505 2.439 . S
O509 C510 1.208 . S
C510 O508 1.247 . S
C510 O509 1.208 . S
C511 O516 1.247 . S
C511 O517 1.208 . S
C512 O504 1.315 . S
C512 O507 1.279 . S
C513 O514 1.315 . S
C513 O515 1.279 . S
O514 Cd506 2.223 . S
O514 C513 1.315 . S
O515 Cd505 2.240 . S
O515 C513 1.279 . S
O516 Cd506 2.297 . S
O516 C511 1.247 . S
O517 Cd506 2.439 . S
O517 C511 1.208 . S
O518 Cd519 2.223 . S
O518 C526 1.315 . S
Cd519 O518 2.223 . S
Cd519 O522 2.297 . S
Cd519 O523 2.439 . S
Cd519 O529 2.240 . S
Cd520 O521 2.240 . S
Cd520 O528 2.223 . S
Cd520 O530 2.297 . S
Cd520 O531 2.439 . S
O521 Cd520 2.240 . S
O521 C526 1.279 . S
O522 Cd519 2.297 . S
O522 C524 1.247 . S
O523 Cd519 2.439 . S
O523 C524 1.208 . S
C524 O522 1.247 . S
C524 O523 1.208 . S
C525 O530 1.247 . S
C525 O531 1.208 . S
C526 O518 1.315 . S
C526 O521 1.279 . S
C527 O528 1.315 . S
C527 O529 1.279 . S
O528 Cd520 2.223 . S
O528 C527 1.315 . S
O529 Cd519 2.240 . S
O529 C527 1.279 . S
O530 Cd520 2.297 . S
O530 C525 1.247 . S
O531 Cd520 2.439 . S
O531 C525 1.208 . S
O532 Cd533 2.223 . S
O532 C540 1.315 . S
Cd533 O532 2.223 . S
Cd533 O536 2.297 . S
Cd533 O537 2.439 . S
Cd533 O543 2.240 . S
Cd534 O535 2.240 . S
Cd534 O542 2.223 . S
Cd534 O544 2.297 . S
Cd534 O545 2.439 . S
O535 Cd534 2.240 . S
O535 C540 1.279 . S
O536 Cd533 2.297 . S
O536 C538 1.247 . S
O537 Cd533 2.439 . S
O537 C538 1.208 . S
C538 O536 1.247 . S
C538 O537 1.208 . S
C539 O544 1.247 . S
C539 O545 1.208 . S
C540 O532 1.315 . S
C540 O535 1.279 . S
C541 O542 1.315 . S
C541 O543 1.279 . S
O542 Cd534 2.223 . S
O542 C541 1.315 . S
O543 Cd533 2.240 . S
O543 C541 1.279 . S
O544 Cd534 2.297 . S
O544 C539 1.247 . S
O545 Cd534 2.439 . S
O545 C539 1.208 . S
O546 Cd547 2.223 . S
O546 C554 1.315 . S
Cd547 O546 2.223 . S
Cd547 O550 2.297 . S
Cd547 O551 2.439 . S
Cd547 O557 2.240 . S
Cd548 O549 2.240 . S
Cd548 O556 2.223 . S
Cd548 O558 2.297 . S
Cd548 O559 2.439 . S
O549 Cd548 2.240 . S
O549 C554 1.279 . S
O550 Cd547 2.297 . S
O550 C552 1.247 . S
O551 Cd547 2.439 . S
O551 C552 1.208 . S
C552 O550 1.247 . S
C552 O551 1.208 . S
C553 O558 1.247 . S
C553 O559 1.208 . S
C554 O546 1.315 . S
C554 O549 1.279 . S
C555 O556 1.315 . S
C555 O557 1.279 . S
O556 Cd548 2.223 . S
O556 C555 1.315 . S
O557 Cd547 2.240 . S
O557 C555 1.279 . S
O558 Cd548 2.297 . S
O558 C553 1.247 . S
O559 Cd548 2.439 . S
O559 C553 1.208 . S
O560 Cd561 2.223 . S
O560 C568 1.315 . S
Cd561 O560 2.223 . S
Cd561 O564 2.297 . S
Cd561 O565 2.439 . S
Cd561 O571 2.240 . S
Cd562 O563 2.240 . S
Cd562 O570 2.223 . S
Cd562 O572 2.297 . S
Cd562 O573 2.439 . S
O563 Cd562 2.240 . S
O563 C568 1.279 . S
O564 Cd561 2.297 . S
O564 C566 1.247 . S
O565 Cd561 2.439 . S
O565 C566 1.208 . S
C566 O564 1.247 . S
C566 O565 1.208 . S
C567 O572 1.247 . S
C567 O573 1.208 . S
C568 O560 1.315 . S
C568 O563 1.279 . S
C569 O570 1.315 . S
C569 O571 1.279 . S
O570 Cd562 2.223 . S
O570 C569 1.315 . S
O571 Cd561 2.240 . S
O571 C569 1.279 . S
O572 Cd562 2.297 . S
O572 C567 1.247 . S
O573 Cd562 2.439 . S
O573 C567 1.208 . S
O574 Cd575 2.223 . S
O574 C582 1.315 . S
Cd575 O574 2.223 . S
Cd575 O578 2.297 . S
Cd575 O579 2.439 . S
Cd575 O585 2.240 . S
Cd576 O577 2.240 . S
Cd576 O584 2.223 . S
Cd576 O586 2.297 . S
Cd576 O587 2.439 . S
O577 Cd576 2.240 . S
O577 C582 1.279 . S
O578 Cd575 2.297 . S
O578 C580 1.247 . S
O579 Cd575 2.439 . S
O579 C580 1.208 . S
C580 O578 1.247 . S
C580 O579 1.208 . S
C581 O586 1.247 . S
C581 O587 1.208 . S
C582 O574 1.315 . S
C582 O577 1.279 . S
C583 O584 1.315 . S
C583 O585 1.279 . S
O584 Cd576 2.223 . S
O584 C583 1.315 . S
O585 Cd575 2.240 . S
O585 C583 1.279 . S
O586 Cd576 2.297 . S
O586 C581 1.247 . S
O587 Cd576 2.439 . S
O587 C581 1.208 . S
O588 Cd589 2.223 . S
O588 C596 1.315 . S
Cd589 O588 2.223 . S
Cd589 O592 2.297 . S
Cd589 O593 2.439 . S
Cd589 O599 2.240 . S
Cd590 O591 2.240 . S
Cd590 O598 2.223 . S
Cd590 O600 2.297 . S
Cd590 O601 2.439 . S
O591 Cd590 2.240 . S
O591 C596 1.279 . S
O592 Cd589 2.297 . S
O592 C594 1.247 . S
O593 Cd589 2.439 . S
O593 C594 1.208 . S
C594 O592 1.247 . S
C594 O593 1.208 . S
C595 O600 1.247 . S
C595 O601 1.208 . S
C596 O588 1.315 . S
C596 O591 1.279 . S
C597 O598 1.315 . S
C597 O599 1.279 . S
O598 Cd590 2.223 . S
O598 C597 1.315 . S
O599 Cd589 2.240 . S
O599 C597 1.279 . S
O600 Cd590 2.297 . S
O600 C595 1.247 . S
O601 Cd590 2.439 . S
O601 C595 1.208 . S
O602 Cd603 2.223 . S
O602 C610 1.315 . S
Cd603 O602 2.223 . S
Cd603 O606 2.297 . S
Cd603 O607 2.439 . S
Cd603 O613 2.240 . S
Cd604 O605 2.240 . S
Cd604 O612 2.223 . S
Cd604 O614 2.297 . S
Cd604 O615 2.439 . S
O605 Cd604 2.240 . S
O605 C610 1.279 . S
O606 Cd603 2.297 . S
O606 C608 1.247 . S
O607 Cd603 2.439 . S
O607 C608 1.208 . S
C608 O606 1.247 . S
C608 O607 1.208 . S
C609 O614 1.247 . S
C609 O615 1.208 . S
C610 O602 1.315 . S
C610 O605 1.279 . S
C611 O612 1.315 . S
C611 O613 1.279 . S
O612 Cd604 2.223 . S
O612 C611 1.315 . S
O613 Cd603 2.240 . S
O613 C611 1.279 . S
O614 Cd604 2.297 . S
O614 C609 1.247 . S
O615 Cd604 2.439 . S
O615 C609 1.208 . S
O616 Cd617 2.223 . S
O616 C624 1.315 . S
Cd617 O616 2.223 . S
Cd617 O620 2.297 . S
Cd617 O621 2.439 . S
Cd617 O627 2.240 . S
Cd618 O619 2.240 . S
Cd618 O626 2.223 . S
Cd618 O628 2.297 . S
Cd618 O629 2.439 . S
O619 Cd618 2.240 . S
O619 C624 1.279 . S
O620 Cd617 2.297 . S
O620 C622 1.247 . S
O621 Cd617 2.439 . S
O621 C622 1.208 . S
C622 O620 1.247 . S
C622 O621 1.208 . S
C623 O628 1.247 . S
C623 O629 1.208 . S
C624 O616 1.315 . S
C624 O619 1.279 . S
C625 O626 1.315 . S
C625 O627 1.279 . S
O626 Cd618 2.223 . S
O626 C625 1.315 . S
O627 Cd617 2.240 . S
O627 C625 1.279 . S
O628 Cd618 2.297 . S
O628 C623 1.247 . S
O629 Cd618 2.439 . S
O629 C623 1.208 . S
O630 Cd631 2.223 . S
O630 C638 1.315 . S
Cd631 O630 2.223 . S
Cd631 O634 2.297 . S
Cd631 O635 2.439 . S
Cd631 O641 2.240 . S
Cd632 O633 2.240 . S
Cd632 O640 2.223 . S
Cd632 O642 2.297 . S
Cd632 O643 2.439 . S
O633 Cd632 2.240 . S
O633 C638 1.279 . S
O634 Cd631 2.297 . S
O634 C636 1.247 . S
O635 Cd631 2.439 . S
O635 C636 1.208 . S
C636 O634 1.247 . S
C636 O635 1.208 . S
C637 O642 1.247 . S
C637 O643 1.208 . S
C638 O630 1.315 . S
C638 O633 1.279 . S
C639 O640 1.315 . S
C639 O641 1.279 . S
O640 Cd632 2.223 . S
O640 C639 1.315 . S
O641 Cd631 2.240 . S
O641 C639 1.279 . S
O642 Cd632 2.297 . S
O642 C637 1.247 . S
O643 Cd632 2.439 . S
O643 C637 1.208 . S
O644 Cd645 2.223 . S
O644 C652 1.315 . S
Cd645 O644 2.223 . S
Cd645 O648 2.297 . S
Cd645 O649 2.439 . S
Cd645 O655 2.240 . S
Cd646 O647 2.240 . S
Cd646 O654 2.223 . S
Cd646 O656 2.297 . S
Cd646 O657 2.439 . S
O647 Cd646 2.240 . S
O647 C652 1.279 . S
O648 Cd645 2.297 . S
O648 C650 1.247 . S
O649 Cd645 2.439 . S
O649 C650 1.208 . S
C650 O648 1.247 . S
C650 O649 1.208 . S
C651 O656 1.247 . S
C651 O657 1.208 . S
C652 O644 1.315 . S
C652 O647 1.279 . S
C653 O654 1.315 . S
C653 O655 1.279 . S
O654 Cd646 2.223 . S
O654 C653 1.315 . S
O655 Cd645 2.240 . S
O655 C653 1.279 . S
O656 Cd646 2.297 . S
O656 C651 1.247 . S
O657 Cd646 2.439 . S
O657 C651 1.208 . S
O658 Cd659 2.223 . S
O658 C666 1.315 . S
Cd659 O658 2.223 . S
Cd659 O662 2.297 . S
Cd659 O663 2.439 . S
Cd659 O669 2.240 . S
Cd660 O661 2.240 . S
Cd660 O668 2.223 . S
Cd660 O670 2.297 . S
Cd660 O671 2.439 . S
O661 Cd660 2.240 . S
O661 C666 1.279 . S
O662 Cd659 2.297 . S
O662 C664 1.247 . S
O663 Cd659 2.439 . S
O663 C664 1.208 . S
C664 O662 1.247 . S
C664 O663 1.208 . S
C665 O670 1.247 . S
C665 O671 1.208 . S
C666 O658 1.315 . S
C666 O661 1.279 . S
C667 O668 1.315 . S
C667 O669 1.279 . S
O668 Cd660 2.223 . S
O668 C667 1.315 . S
O669 Cd659 2.240 . S
O669 C667 1.279 . S
O670 Cd660 2.297 . S
O670 C665 1.247 . S
O671 Cd660 2.439 . S
O671 C665 1.208 . S
H672 C678 0.930 . S
H673 C681 0.930 . S
H674 C682 0.930 . S
H675 C683 0.930 . S
H676 C686 0.930 . S
H677 C687 0.930 . S
C678 H672 0.930 . S
C678 C679 1.355 . S
C678 C680 1.415 . S
C679 C678 1.355 . S
C679 C681 1.419 . S
C680 C678 1.415 . S
C680 C685 1.425 . S
C680 C687 1.409 . S
C681 H673 0.930 . S
C681 C679 1.419 . S
C681 C682 1.362 . S
C682 H674 0.930 . S
C682 C681 1.362 . S
C682 C685 1.409 . S
C683 H675 0.930 . S
C683 C684 1.355 . S
C683 C685 1.415 . S
C684 C683 1.355 . S
C684 C686 1.419 . S
C685 C680 1.425 . S
C685 C682 1.409 . S
C685 C683 1.415 . S
C686 H676 0.930 . S
C686 C684 1.419 . S
C686 C687 1.362 . S
C687 H677 0.930 . S
C687 C680 1.409 . S
C687 C686 1.362 . S
H688 C694 0.930 . S
H689 C697 0.930 . S
H690 C698 0.930 . S
H691 C699 0.930 . S
H692 C702 0.930 . S
H693 C703 0.930 . S
C694 H688 0.930 . S
C694 C695 1.355 . S
C694 C696 1.415 . S
C695 C694 1.355 . S
C695 C697 1.419 . S
C696 C694 1.415 . S
C696 C701 1.425 . S
C696 C703 1.409 . S
C697 H689 0.930 . S
C697 C695 1.419 . S
C697 C698 1.362 . S
C698 H690 0.930 . S
C698 C697 1.362 . S
C698 C701 1.409 . S
C699 H691 0.930 . S
C699 C700 1.355 . S
C699 C701 1.415 . S
C700 C699 1.355 . S
C700 C702 1.419 . S
C701 C696 1.425 . S
C701 C698 1.409 . S
C701 C699 1.415 . S
C702 H692 0.930 . S
C702 C700 1.419 . S
C702 C703 1.362 . S
C703 H693 0.930 . S
C703 C696 1.409 . S
C703 C702 1.362 . S
H704 C710 0.930 . S
H705 C713 0.930 . S
H706 C714 0.930 . S
H707 C715 0.930 . S
H708 C718 0.930 . S
H709 C719 0.930 . S
C710 H704 0.930 . S
C710 C711 1.355 . S
C710 C712 1.415 . S
C711 C710 1.355 . S
C711 C713 1.419 . S
C712 C710 1.415 . S
C712 C717 1.425 . S
C712 C719 1.409 . S
C713 H705 0.930 . S
C713 C711 1.419 . S
C713 C714 1.362 . S
C714 H706 0.930 . S
C714 C713 1.362 . S
C714 C717 1.409 . S
C715 H707 0.930 . S
C715 C716 1.355 . S
C715 C717 1.415 . S
C716 C715 1.355 . S
C716 C718 1.419 . S
C717 C712 1.425 . S
C717 C714 1.409 . S
C717 C715 1.415 . S
C718 H708 0.930 . S
C718 C716 1.419 . S
C718 C719 1.362 . S
C719 H709 0.930 . S
C719 C712 1.409 . S
C719 C718 1.362 . S
H720 C726 0.930 . S
H721 C729 0.930 . S
H722 C730 0.930 . S
H723 C731 0.930 . S
H724 C734 0.930 . S
H725 C735 0.930 . S
C726 H720 0.930 . S
C726 C727 1.355 . S
C726 C728 1.415 . S
C727 C726 1.355 . S
C727 C729 1.419 . S
C728 C726 1.415 . S
C728 C733 1.425 . S
C728 C735 1.409 . S
C729 H721 0.930 . S
C729 C727 1.419 . S
C729 C730 1.362 . S
C730 H722 0.930 . S
C730 C729 1.362 . S
C730 C733 1.409 . S
C731 H723 0.930 . S
C731 C732 1.355 . S
C731 C733 1.415 . S
C732 C731 1.355 . S
C732 C734 1.419 . S
C733 C728 1.425 . S
C733 C730 1.409 . S
C733 C731 1.415 . S
C734 H724 0.930 . S
C734 C732 1.419 . S
C734 C735 1.362 . S
C735 H725 0.930 . S
C735 C728 1.409 . S
C735 C734 1.362 . S
H736 C742 0.930 . S
H737 C745 0.930 . S
H738 C746 0.930 . S
H739 C747 0.930 . S
H740 C750 0.930 . S
H741 C751 0.930 . S
C742 H736 0.930 . S
C742 C743 1.355 . S
C742 C744 1.415 . S
C743 C742 1.355 . S
C743 C745 1.419 . S
C744 C742 1.415 . S
C744 C749 1.425 . S
C744 C751 1.409 . S
C745 H737 0.930 . S
C745 C743 1.419 . S
C745 C746 1.362 . S
C746 H738 0.930 . S
C746 C745 1.362 . S
C746 C749 1.409 . S
C747 H739 0.930 . S
C747 C748 1.355 . S
C747 C749 1.415 . S
C748 C747 1.355 . S
C748 C750 1.419 . S
C749 C744 1.425 . S
C749 C746 1.409 . S
C749 C747 1.415 . S
C750 H740 0.930 . S
C750 C748 1.419 . S
C750 C751 1.362 . S
C751 H741 0.930 . S
C751 C744 1.409 . S
C751 C750 1.362 . S
H752 C758 0.930 . S
H753 C761 0.930 . S
H754 C762 0.930 . S
H755 C763 0.930 . S
H756 C766 0.930 . S
H757 C767 0.930 . S
C758 H752 0.930 . S
C758 C759 1.355 . S
C758 C760 1.415 . S
C759 C758 1.355 . S
C759 C761 1.419 . S
C760 C758 1.415 . S
C760 C765 1.425 . S
C760 C767 1.409 . S
C761 H753 0.930 . S
C761 C759 1.419 . S
C761 C762 1.362 . S
C762 H754 0.930 . S
C762 C761 1.362 . S
C762 C765 1.409 . S
C763 H755 0.930 . S
C763 C764 1.355 . S
C763 C765 1.415 . S
C764 C763 1.355 . S
C764 C766 1.419 . S
C765 C760 1.425 . S
C765 C762 1.409 . S
C765 C763 1.415 . S
C766 H756 0.930 . S
C766 C764 1.419 . S
C766 C767 1.362 . S
C767 H757 0.930 . S
C767 C760 1.409 . S
C767 C766 1.362 . S
H768 C774 0.930 . S
H769 C777 0.930 . S
H770 C778 0.930 . S
H771 C779 0.930 . S
H772 C782 0.930 . S
H773 C783 0.930 . S
C774 H768 0.930 . S
C774 C775 1.355 . S
C774 C776 1.415 . S
C775 C774 1.355 . S
C775 C777 1.419 . S
C776 C774 1.415 . S
C776 C781 1.425 . S
C776 C783 1.409 . S
C777 H769 0.930 . S
C777 C775 1.419 . S
C777 C778 1.362 . S
C778 H770 0.930 . S
C778 C777 1.362 . S
C778 C781 1.409 . S
C779 H771 0.930 . S
C779 C780 1.355 . S
C779 C781 1.415 . S
C780 C779 1.355 . S
C780 C782 1.419 . S
C781 C776 1.425 . S
C781 C778 1.409 . S
C781 C779 1.415 . S
C782 H772 0.930 . S
C782 C780 1.419 . S
C782 C783 1.362 . S
C783 H773 0.930 . S
C783 C776 1.409 . S
C783 C782 1.362 . S
H784 C790 0.930 . S
H785 C793 0.930 . S
H786 C794 0.930 . S
H787 C795 0.930 . S
H788 C798 0.930 . S
H789 C799 0.930 . S
C790 H784 0.930 . S
C790 C791 1.355 . S
C790 C792 1.415 . S
C791 C790 1.355 . S
C791 C793 1.419 . S
C792 C790 1.415 . S
C792 C797 1.425 . S
C792 C799 1.409 . S
C793 H785 0.930 . S
C793 C791 1.419 . S
C793 C794 1.362 . S
C794 H786 0.930 . S
C794 C793 1.362 . S
C794 C797 1.409 . S
C795 H787 0.930 . S
C795 C796 1.355 . S
C795 C797 1.415 . S
C796 C795 1.355 . S
C796 C798 1.419 . S
C797 C792 1.425 . S
C797 C794 1.409 . S
C797 C795 1.415 . S
C798 H788 0.930 . S
C798 C796 1.419 . S
C798 C799 1.362 . S
C799 H789 0.930 . S
C799 C792 1.409 . S
C799 C798 1.362 . S
H800 C806 0.930 . S
H801 C809 0.930 . S
H802 C810 0.930 . S
H803 C811 0.930 . S
H804 C814 0.930 . S
H805 C815 0.930 . S
C806 H800 0.930 . S
C806 C807 1.355 . S
C806 C808 1.415 . S
C807 C806 1.355 . S
C807 C809 1.419 . S
C808 C806 1.415 . S
C808 C813 1.425 . S
C808 C815 1.409 . S
C809 H801 0.930 . S
C809 C807 1.419 . S
C809 C810 1.362 . S
C810 H802 0.930 . S
C810 C809 1.362 . S
C810 C813 1.409 . S
C811 H803 0.930 . S
C811 C812 1.355 . S
C811 C813 1.415 . S
C812 C811 1.355 . S
C812 C814 1.419 . S
C813 C808 1.425 . S
C813 C810 1.409 . S
C813 C811 1.415 . S
C814 H804 0.930 . S
C814 C812 1.419 . S
C814 C815 1.362 . S
C815 H805 0.930 . S
C815 C808 1.409 . S
C815 C814 1.362 . S
H816 C822 0.930 . S
H817 C825 0.930 . S
H818 C826 0.930 . S
H819 C827 0.930 . S
H820 C830 0.930 . S
H821 C831 0.930 . S
C822 H816 0.930 . S
C822 C823 1.355 . S
C822 C824 1.415 . S
C823 C822 1.355 . S
C823 C825 1.419 . S
C824 C822 1.415 . S
C824 C829 1.425 . S
C824 C831 1.409 . S
C825 H817 0.930 . S
C825 C823 1.419 . S
C825 C826 1.362 . S
C826 H818 0.930 . S
C826 C825 1.362 . S
C826 C829 1.409 . S
C827 H819 0.930 . S
C827 C828 1.355 . S
C827 C829 1.415 . S
C828 C827 1.355 . S
C828 C830 1.419 . S
C829 C824 1.425 . S
C829 C826 1.409 . S
C829 C827 1.415 . S
C830 H820 0.930 . S
C830 C828 1.419 . S
C830 C831 1.362 . S
C831 H821 0.930 . S
C831 C824 1.409 . S
C831 C830 1.362 . S
H832 C838 0.930 . S
H833 C841 0.930 . S
H834 C842 0.930 . S
H835 C843 0.930 . S
H836 C846 0.930 . S
H837 C847 0.930 . S
C838 H832 0.930 . S
C838 C839 1.355 . S
C838 C840 1.415 . S
C839 C838 1.355 . S
C839 C841 1.419 . S
C840 C838 1.415 . S
C840 C845 1.425 . S
C840 C847 1.409 . S
C841 H833 0.930 . S
C841 C839 1.419 . S
C841 C842 1.362 . S
C842 H834 0.930 . S
C842 C841 1.362 . S
C842 C845 1.409 . S
C843 H835 0.930 . S
C843 C844 1.355 . S
C843 C845 1.415 . S
C844 C843 1.355 . S
C844 C846 1.419 . S
C845 C840 1.425 . S
C845 C842 1.409 . S
C845 C843 1.415 . S
C846 H836 0.930 . S
C846 C844 1.419 . S
C846 C847 1.362 . S
C847 H837 0.930 . S
C847 C840 1.409 . S
C847 C846 1.362 . S
H848 C854 0.930 . S
H849 C857 0.930 . S
H850 C858 0.930 . S
H851 C859 0.930 . S
H852 C862 0.930 . S
H853 C863 0.930 . S
C854 H848 0.930 . S
C854 C855 1.355 . S
C854 C856 1.415 . S
C855 C854 1.355 . S
C855 C857 1.419 . S
C856 C854 1.415 . S
C856 C861 1.425 . S
C856 C863 1.409 . S
C857 H849 0.930 . S
C857 C855 1.419 . S
C857 C858 1.362 . S
C858 H850 0.930 . S
C858 C857 1.362 . S
C858 C861 1.409 . S
C859 H851 0.930 . S
C859 C860 1.355 . S
C859 C861 1.415 . S
C860 C859 1.355 . S
C860 C862 1.419 . S
C861 C856 1.425 . S
C861 C858 1.409 . S
C861 C859 1.415 . S
C862 H852 0.930 . S
C862 C860 1.419 . S
C862 C863 1.362 . S
C863 H853 0.930 . S
C863 C856 1.409 . S
C863 C862 1.362 . S
H864 C870 0.930 . S
H865 C873 0.930 . S
H866 C874 0.930 . S
H867 C875 0.930 . S
H868 C878 0.930 . S
H869 C879 0.930 . S
C870 H864 0.930 . S
C870 C871 1.355 . S
C870 C872 1.415 . S
C871 C870 1.355 . S
C871 C873 1.419 . S
C872 C870 1.415 . S
C872 C877 1.425 . S
C872 C879 1.409 . S
C873 H865 0.930 . S
C873 C871 1.419 . S
C873 C874 1.362 . S
C874 H866 0.930 . S
C874 C873 1.362 . S
C874 C877 1.409 . S
C875 H867 0.930 . S
C875 C876 1.355 . S
C875 C877 1.415 . S
C876 C875 1.355 . S
C876 C878 1.419 . S
C877 C872 1.425 . S
C877 C874 1.409 . S
C877 C875 1.415 . S
C878 H868 0.930 . S
C878 C876 1.419 . S
C878 C879 1.362 . S
C879 H869 0.930 . S
C879 C872 1.409 . S
C879 C878 1.362 . S
H880 C886 0.930 . S
H881 C889 0.930 . S
H882 C890 0.930 . S
H883 C891 0.930 . S
H884 C894 0.930 . S
H885 C895 0.930 . S
C886 H880 0.930 . S
C886 C887 1.355 . S
C886 C888 1.415 . S
C887 C886 1.355 . S
C887 C889 1.419 . S
C888 C886 1.415 . S
C888 C893 1.425 . S
C888 C895 1.409 . S
C889 H881 0.930 . S
C889 C887 1.419 . S
C889 C890 1.362 . S
C890 H882 0.930 . S
C890 C889 1.362 . S
C890 C893 1.409 . S
C891 H883 0.930 . S
C891 C892 1.355 . S
C891 C893 1.415 . S
C892 C891 1.355 . S
C892 C894 1.419 . S
C893 C888 1.425 . S
C893 C890 1.409 . S
C893 C891 1.415 . S
C894 H884 0.930 . S
C894 C892 1.419 . S
C894 C895 1.362 . S
C895 H885 0.930 . S
C895 C888 1.409 . S
C895 C894 1.362 . S
H896 C902 0.930 . S
H897 C905 0.930 . S
H898 C906 0.930 . S
H899 C907 0.930 . S
H900 C910 0.930 . S
H901 C911 0.930 . S
C902 H896 0.930 . S
C902 C903 1.355 . S
C902 C904 1.415 . S
C903 C902 1.355 . S
C903 C905 1.419 . S
C904 C902 1.415 . S
C904 C909 1.425 . S
C904 C911 1.409 . S
C905 H897 0.930 . S
C905 C903 1.419 . S
C905 C906 1.362 . S
C906 H898 0.930 . S
C906 C905 1.362 . S
C906 C909 1.409 . S
C907 H899 0.930 . S
C907 C908 1.355 . S
C907 C909 1.415 . S
C908 C907 1.355 . S
C908 C910 1.419 . S
C909 C904 1.425 . S
C909 C906 1.409 . S
C909 C907 1.415 . S
C910 H900 0.930 . S
C910 C908 1.419 . S
C910 C911 1.362 . S
C911 H901 0.930 . S
C911 C904 1.409 . S
C911 C910 1.362 . S
H912 C918 0.930 . S
H913 C921 0.930 . S
H914 C922 0.930 . S
H915 C923 0.930 . S
H916 C926 0.930 . S
H917 C927 0.930 . S
C918 H912 0.930 . S
C918 C919 1.355 . S
C918 C920 1.415 . S
C919 C918 1.355 . S
C919 C921 1.419 . S
C920 C918 1.415 . S
C920 C925 1.425 . S
C920 C927 1.409 . S
C921 H913 0.930 . S
C921 C919 1.419 . S
C921 C922 1.362 . S
C922 H914 0.930 . S
C922 C921 1.362 . S
C922 C925 1.409 . S
C923 H915 0.930 . S
C923 C924 1.355 . S
C923 C925 1.415 . S
C924 C923 1.355 . S
C924 C926 1.419 . S
C925 C920 1.425 . S
C925 C922 1.409 . S
C925 C923 1.415 . S
C926 H916 0.930 . S
C926 C924 1.419 . S
C926 C927 1.362 . S
C927 H917 0.930 . S
C927 C920 1.409 . S
C927 C926 1.362 . S
H928 C934 0.930 . S
H929 C937 0.930 . S
H930 C938 0.930 . S
H931 C939 0.930 . S
H932 C942 0.930 . S
H933 C943 0.930 . S
C934 H928 0.930 . S
C934 C935 1.355 . S
C934 C936 1.415 . S
C935 C934 1.355 . S
C935 C937 1.419 . S
C936 C934 1.415 . S
C936 C941 1.425 . S
C936 C943 1.409 . S
C937 H929 0.930 . S
C937 C935 1.419 . S
C937 C938 1.362 . S
C938 H930 0.930 . S
C938 C937 1.362 . S
C938 C941 1.409 . S
C939 H931 0.930 . S
C939 C940 1.355 . S
C939 C941 1.415 . S
C940 C939 1.355 . S
C940 C942 1.419 . S
C941 C936 1.425 . S
C941 C938 1.409 . S
C941 C939 1.415 . S
C942 H932 0.930 . S
C942 C940 1.419 . S
C942 C943 1.362 . S
C943 H933 0.930 . S
C943 C936 1.409 . S
C943 C942 1.362 . S
H944 C950 0.930 . S
H945 C953 0.930 . S
H946 C954 0.930 . S
H947 C955 0.930 . S
H948 C958 0.930 . S
H949 C959 0.930 . S
C950 H944 0.930 . S
C950 C951 1.355 . S
C950 C952 1.415 . S
C951 C950 1.355 . S
C951 C953 1.419 . S
C952 C950 1.415 . S
C952 C957 1.425 . S
C952 C959 1.409 . S
C953 H945 0.930 . S
C953 C951 1.419 . S
C953 C954 1.362 . S
C954 H946 0.930 . S
C954 C953 1.362 . S
C954 C957 1.409 . S
C955 H947 0.930 . S
C955 C956 1.355 . S
C955 C957 1.415 . S
C956 C955 1.355 . S
C956 C958 1.419 . S
C957 C952 1.425 . S
C957 C954 1.409 . S
C957 C955 1.415 . S
C958 H948 0.930 . S
C958 C956 1.419 . S
C958 C959 1.362 . S
C959 H949 0.930 . S
C959 C952 1.409 . S
C959 C958 1.362 . S
H960 C966 0.930 . S
H961 C969 0.930 . S
H962 C970 0.930 . S
H963 C971 0.930 . S
H964 C974 0.930 . S
H965 C975 0.930 . S
C966 H960 0.930 . S
C966 C967 1.355 . S
C966 C968 1.415 . S
C967 C966 1.355 . S
C967 C969 1.419 . S
C968 C966 1.415 . S
C968 C973 1.425 . S
C968 C975 1.409 . S
C969 H961 0.930 . S
C969 C967 1.419 . S
C969 C970 1.362 . S
C970 H962 0.930 . S
C970 C969 1.362 . S
C970 C973 1.409 . S
C971 H963 0.930 . S
C971 C972 1.355 . S
C971 C973 1.415 . S
C972 C971 1.355 . S
C972 C974 1.419 . S
C973 C968 1.425 . S
C973 C970 1.409 . S
C973 C971 1.415 . S
C974 H964 0.930 . S
C974 C972 1.419 . S
C974 C975 1.362 . S
C975 H965 0.930 . S
C975 C968 1.409 . S
C975 C974 1.362 . S
H976 C982 0.930 . S
H977 C985 0.930 . S
H978 C986 0.930 . S
H979 C987 0.930 . S
H980 C990 0.930 . S
H981 C991 0.930 . S
C982 H976 0.930 . S
C982 C983 1.355 . S
C982 C984 1.415 . S
C983 C982 1.355 . S
C983 C985 1.419 . S
C984 C982 1.415 . S
C984 C989 1.425 . S
C984 C991 1.409 . S
C985 H977 0.930 . S
C985 C983 1.419 . S
C985 C986 1.362 . S
C986 H978 0.930 . S
C986 C985 1.362 . S
C986 C989 1.409 . S
C987 H979 0.930 . S
C987 C988 1.355 . S
C987 C989 1.415 . S
C988 C987 1.355 . S
C988 C990 1.419 . S
C989 C984 1.425 . S
C989 C986 1.409 . S
C989 C987 1.415 . S
C990 H980 0.930 . S
C990 C988 1.419 . S
C990 C991 1.362 . S
C991 H981 0.930 . S
C991 C984 1.409 . S
C991 C990 1.362 . S
H992 C998 0.930 . S
H993 C1001 0.930 . S
H994 C1002 0.930 . S
H995 C1003 0.930 . S
H996 C1006 0.930 . S
H997 C1007 0.930 . S
C998 H992 0.930 . S
C998 C999 1.355 . S
C998 C1000 1.415 . S
C999 C998 1.355 . S
C999 C1001 1.419 . S
C1000 C998 1.415 . S
C1000 C1005 1.425 . S
C1000 C1007 1.409 . S
C1001 H993 0.930 . S
C1001 C999 1.419 . S
C1001 C1002 1.362 . S
C1002 H994 0.930 . S
C1002 C1001 1.362 . S
C1002 C1005 1.409 . S
C1003 H995 0.930 . S
C1003 C1004 1.355 . S
C1003 C1005 1.415 . S
C1004 C1003 1.355 . S
C1004 C1006 1.419 . S
C1005 C1000 1.425 . S
C1005 C1002 1.409 . S
C1005 C1003 1.415 . S
C1006 H996 0.930 . S
C1006 C1004 1.419 . S
C1006 C1007 1.362 . S
C1007 H997 0.930 . S
C1007 C1000 1.409 . S
C1007 C1006 1.362 . S
H1008 C1014 0.930 . S
H1009 C1017 0.930 . S
H1010 C1018 0.930 . S
H1011 C1019 0.930 . S
H1012 C1022 0.930 . S
H1013 C1023 0.930 . S
C1014 H1008 0.930 . S
C1014 C1015 1.355 . S
C1014 C1016 1.415 . S
C1015 C1014 1.355 . S
C1015 C1017 1.419 . S
C1016 C1014 1.415 . S
C1016 C1021 1.425 . S
C1016 C1023 1.409 . S
C1017 H1009 0.930 . S
C1017 C1015 1.419 . S
C1017 C1018 1.362 . S
C1018 H1010 0.930 . S
C1018 C1017 1.362 . S
C1018 C1021 1.409 . S
C1019 H1011 0.930 . S
C1019 C1020 1.355 . S
C1019 C1021 1.415 . S
C1020 C1019 1.355 . S
C1020 C1022 1.419 . S
C1021 C1016 1.425 . S
C1021 C1018 1.409 . S
C1021 C1019 1.415 . S
C1022 H1012 0.930 . S
C1022 C1020 1.419 . S
C1022 C1023 1.362 . S
C1023 H1013 0.930 . S
C1023 C1016 1.409 . S
C1023 C1022 1.362 . S
H1024 C1030 0.930 . S
H1025 C1033 0.930 . S
H1026 C1034 0.930 . S
H1027 C1035 0.930 . S
H1028 C1038 0.930 . S
H1029 C1039 0.930 . S
C1030 H1024 0.930 . S
C1030 C1031 1.355 . S
C1030 C1032 1.415 . S
C1031 C1030 1.355 . S
C1031 C1033 1.419 . S
C1032 C1030 1.415 . S
C1032 C1037 1.425 . S
C1032 C1039 1.409 . S
C1033 H1025 0.930 . S
C1033 C1031 1.419 . S
C1033 C1034 1.362 . S
C1034 H1026 0.930 . S
C1034 C1033 1.362 . S
C1034 C1037 1.409 . S
C1035 H1027 0.930 . S
C1035 C1036 1.355 . S
C1035 C1037 1.415 . S
C1036 C1035 1.355 . S
C1036 C1038 1.419 . S
C1037 C1032 1.425 . S
C1037 C1034 1.409 . S
C1037 C1035 1.415 . S
C1038 H1028 0.930 . S
C1038 C1036 1.419 . S
C1038 C1039 1.362 . S
C1039 H1029 0.930 . S
C1039 C1032 1.409 . S
C1039 C1038 1.362 . S
H1040 C1046 0.930 . S
H1041 C1049 0.930 . S
H1042 C1050 0.930 . S
H1043 C1051 0.930 . S
H1044 C1054 0.930 . S
H1045 C1055 0.930 . S
C1046 H1040 0.930 . S
C1046 C1047 1.355 . S
C1046 C1048 1.415 . S
C1047 C1046 1.355 . S
C1047 C1049 1.419 . S
C1048 C1046 1.415 . S
C1048 C1053 1.425 . S
C1048 C1055 1.409 . S
C1049 H1041 0.930 . S
C1049 C1047 1.419 . S
C1049 C1050 1.362 . S
C1050 H1042 0.930 . S
C1050 C1049 1.362 . S
C1050 C1053 1.409 . S
C1051 H1043 0.930 . S
C1051 C1052 1.355 . S
C1051 C1053 1.415 . S
C1052 C1051 1.355 . S
C1052 C1054 1.419 . S
C1053 C1048 1.425 . S
C1053 C1050 1.409 . S
C1053 C1051 1.415 . S
C1054 H1044 0.930 . S
C1054 C1052 1.419 . S
C1054 C1055 1.362 . S
C1055 H1045 0.930 . S
C1055 C1048 1.409 . S
C1055 C1054 1.362 . S
H1056 C1062 0.930 . S
H1057 C1065 0.930 . S
H1058 C1066 0.930 . S
H1059 C1067 0.930 . S
H1060 C1070 0.930 . S
H1061 C1071 0.930 . S
C1062 H1056 0.930 . S
C1062 C1063 1.355 . S
C1062 C1064 1.415 . S
C1063 C1062 1.355 . S
C1063 C1065 1.419 . S
C1064 C1062 1.415 . S
C1064 C1069 1.425 1_655 S
C1064 C1071 1.409 . S
C1065 H1057 0.930 . S
C1065 C1063 1.419 . S
C1065 C1066 1.362 1_655 S
C1066 H1058 0.930 . S
C1066 C1065 1.362 1_455 S
C1066 C1069 1.409 . S
C1067 H1059 0.930 . S
C1067 C1068 1.355 . S
C1067 C1069 1.415 . S
C1068 C1067 1.355 . S
C1068 C1070 1.419 . S
C1069 C1064 1.425 1_455 S
C1069 C1066 1.409 . S
C1069 C1067 1.415 . S
C1070 H1060 0.930 . S
C1070 C1068 1.419 . S
C1070 C1071 1.362 1_455 S
C1071 H1061 0.930 . S
C1071 C1064 1.409 . S
C1071 C1070 1.362 1_655 S
H1072 C1078 0.930 . S
H1073 C1081 0.930 . S
H1074 C1082 0.930 1_545 S
H1075 C1083 0.930 . S
H1076 C1086 0.930 . S
H1077 C1087 0.930 1_565 S
C1078 H1072 0.930 . S
C1078 C1079 1.355 . S
C1078 C1080 1.415 . S
C1079 C1078 1.355 . S
C1079 C1081 1.419 . S
C1080 C1078 1.415 . S
C1080 C1085 1.425 1_565 S
C1080 C1087 1.409 1_565 S
C1081 H1073 0.930 . S
C1081 C1079 1.419 . S
C1081 C1082 1.362 . S
C1082 H1074 0.930 1_565 S
C1082 C1081 1.362 . S
C1082 C1085 1.409 1_565 S
C1083 H1075 0.930 . S
C1083 C1084 1.355 . S
C1083 C1085 1.415 . S
C1084 C1083 1.355 . S
C1084 C1086 1.419 . S
C1085 C1080 1.425 1_545 S
C1085 C1082 1.409 1_545 S
C1085 C1083 1.415 . S
C1086 H1076 0.930 . S
C1086 C1084 1.419 . S
C1086 C1087 1.362 . S
C1087 H1077 0.930 1_545 S
C1087 C1080 1.409 1_545 S
C1087 C1086 1.362 . S
H1088 C1094 0.930 . S
H1089 C1097 0.930 . S
H1090 C1098 0.930 . S
H1091 C1099 0.930 . S
H1092 C1102 0.930 . S
H1093 C1103 0.930 . S
C1094 H1088 0.930 . S
C1094 C1095 1.355 . S
C1094 C1096 1.415 1_655 S
C1095 C1094 1.355 . S
C1095 C1097 1.419 . S
C1096 C1094 1.415 1_455 S
C1096 C1101 1.425 1_455 S
C1096 C1103 1.409 . S
C1097 H1089 0.930 . S
C1097 C1095 1.419 . S
C1097 C1098 1.362 . S
C1098 H1090 0.930 . S
C1098 C1097 1.362 . S
C1098 C1101 1.409 . S
C1099 H1091 0.930 . S
C1099 C1100 1.355 . S
C1099 C1101 1.415 1_455 S
C1100 C1099 1.355 . S
C1100 C1102 1.419 . S
C1101 C1096 1.425 1_655 S
C1101 C1098 1.409 . S
C1101 C1099 1.415 1_655 S
C1102 H1092 0.930 . S
C1102 C1100 1.419 . S
C1102 C1103 1.362 . S
C1103 H1093 0.930 . S
C1103 C1096 1.409 . S
C1103 C1102 1.362 . S
H1104 C1110 0.930 . S
H1105 C1113 0.930 . S
H1106 C1114 0.930 . S
H1107 C1115 0.930 . S
H1108 C1118 0.930 . S
H1109 C1119 0.930 . S
C1110 H1104 0.930 . S
C1110 C1111 1.355 . S
C1110 C1112 1.415 . S
C1111 C1110 1.355 . S
C1111 C1113 1.419 . S
C1112 C1110 1.415 . S
C1112 C1117 1.425 1_545 S
C1112 C1119 1.409 . S
C1113 H1105 0.930 . S
C1113 C1111 1.419 . S
C1113 C1114 1.362 1_545 S
C1114 H1106 0.930 . S
C1114 C1113 1.362 1_565 S
C1114 C1117 1.409 . S
C1115 H1107 0.930 . S
C1115 C1116 1.355 . S
C1115 C1117 1.415 . S
C1116 C1115 1.355 . S
C1116 C1118 1.419 . S
C1117 C1112 1.425 1_565 S
C1117 C1114 1.409 . S
C1117 C1115 1.415 . S
C1118 H1108 0.930 . S
C1118 C1116 1.419 . S
C1118 C1119 1.362 1_565 S
C1119 H1109 0.930 . S
C1119 C1112 1.409 . S
C1119 C1118 1.362 1_545 S
H1120 C1126 0.930 . S
H1121 C1129 0.930 . S
H1122 C1130 0.930 . S
H1123 C1131 0.930 . S
H1124 C1134 0.930 . S
H1125 C1135 0.930 . S
C1126 H1120 0.930 . S
C1126 C1127 1.355 . S
C1126 C1128 1.415 . S
C1127 C1126 1.355 . S
C1127 C1129 1.419 1_455 S
C1128 C1126 1.415 . S
C1128 C1133 1.425 1_455 S
C1128 C1135 1.409 . S
C1129 H1121 0.930 . S
C1129 C1127 1.419 1_655 S
C1129 C1130 1.362 . S
C1130 H1122 0.930 . S
C1130 C1129 1.362 . S
C1130 C1133 1.409 . S
C1131 H1123 0.930 . S
C1131 C1132 1.355 . S
C1131 C1133 1.415 . S
C1132 C1131 1.355 . S
C1132 C1134 1.419 1_655 S
C1133 C1128 1.425 1_655 S
C1133 C1130 1.409 . S
C1133 C1131 1.415 . S
C1134 H1124 0.930 . S
C1134 C1132 1.419 1_455 S
C1134 C1135 1.362 . S
C1135 H1125 0.930 . S
C1135 C1128 1.409 . S
C1135 C1134 1.362 . S
H1136 C1142 0.930 . S
H1137 C1145 0.930 . S
H1138 C1146 0.930 . S
H1139 C1147 0.930 . S
H1140 C1150 0.930 . S
H1141 C1151 0.930 . S
C1142 H1136 0.930 . S
C1142 C1143 1.355 . S
C1142 C1144 1.427 . S
C1143 C1142 1.355 . S
C1143 C1145 1.419 . S
C1144 C1142 1.427 . S
C1144 C1149 1.424 1_565 S
C1144 C1151 1.398 1_565 S
C1145 H1137 0.930 . S
C1145 C1143 1.419 . S
C1145 C1146 1.362 . S
C1146 H1138 0.930 . S
C1146 C1145 1.362 . S
C1146 C1149 1.398 1_565 S
C1147 H1139 0.930 . S
C1147 C1148 1.355 . S
C1147 C1149 1.427 . S
C1148 C1147 1.355 . S
C1148 C1150 1.419 . S
C1149 C1144 1.424 1_545 S
C1149 C1146 1.398 1_545 S
C1149 C1147 1.427 . S
C1150 H1140 0.930 . S
C1150 C1148 1.419 . S
C1150 C1151 1.362 . S
C1151 H1141 0.930 . S
C1151 C1144 1.398 1_545 S
C1151 C1150 1.362 . S
H1152 C1158 0.930 . S
H1153 C1161 0.930 . S
H1154 C1162 0.930 . S
H1155 C1163 0.930 . S
H1156 C1166 0.930 . S
H1157 C1167 0.930 . S
C1158 H1152 0.930 . S
C1158 C1159 1.355 . S
C1158 C1160 1.415 . S
C1159 C1158 1.355 . S
C1159 C1161 1.419 1_455 S
C1160 C1158 1.415 . S
C1160 C1165 1.425 1_455 S
C1160 C1167 1.409 . S
C1161 H1153 0.930 . S
C1161 C1159 1.419 1_655 S
C1161 C1162 1.362 . S
C1162 H1154 0.930 . S
C1162 C1161 1.362 . S
C1162 C1165 1.409 . S
C1163 H1155 0.930 . S
C1163 C1164 1.355 . S
C1163 C1165 1.415 . S
C1164 C1163 1.355 . S
C1164 C1166 1.419 1_655 S
C1165 C1160 1.425 1_655 S
C1165 C1162 1.409 . S
C1165 C1163 1.415 . S
C1166 H1156 0.930 . S
C1166 C1164 1.419 1_455 S
C1166 C1167 1.362 . S
C1167 H1157 0.930 . S
C1167 C1160 1.409 . S
C1167 C1166 1.362 . S
H1168 C1174 0.930 . S
H1169 C1177 0.930 . S
H1170 C1178 0.930 . S
H1171 C1179 0.930 . S
H1172 C1182 0.930 . S
H1173 C1183 0.930 . S
C1174 H1168 0.930 . S
C1174 C1175 1.355 . S
C1174 C1176 1.415 . S
C1175 C1174 1.355 . S
C1175 C1177 1.419 . S
C1176 C1174 1.415 . S
C1176 C1181 1.425 1_545 S
C1176 C1183 1.409 1_545 S
C1177 H1169 0.930 . S
C1177 C1175 1.419 . S
C1177 C1178 1.362 . S
C1178 H1170 0.930 . S
C1178 C1177 1.362 . S
C1178 C1181 1.409 1_545 S
C1179 H1171 0.930 . S
C1179 C1180 1.355 . S
C1179 C1181 1.415 . S
C1180 C1179 1.355 . S
C1180 C1182 1.419 . S
C1181 C1176 1.425 1_565 S
C1181 C1178 1.409 1_565 S
C1181 C1179 1.415 . S
C1182 H1172 0.930 . S
C1182 C1180 1.419 . S
C1182 C1183 1.362 . S
C1183 H1173 0.930 . S
C1183 C1176 1.409 1_565 S
C1183 C1182 1.362 . S
H1184 C1190 0.930 . S
H1185 C1193 0.930 . S
H1186 C1194 0.930 . S
H1187 C1195 0.930 . S
H1188 C1198 0.930 . S
H1189 C1199 0.930 . S
C1190 H1184 0.930 . S
C1190 C1191 1.355 . S
C1190 C1192 1.415 . S
C1191 C1190 1.355 . S
C1191 C1193 1.419 . S
C1192 C1190 1.415 . S
C1192 C1197 1.425 1_556 S
C1192 C1199 1.409 . S
C1193 H1185 0.930 . S
C1193 C1191 1.419 . S
C1193 C1194 1.362 1_556 S
C1194 H1186 0.930 . S
C1194 C1193 1.362 1_554 S
C1194 C1197 1.409 . S
C1195 H1187 0.930 . S
C1195 C1196 1.355 . S
C1195 C1197 1.415 . S
C1196 C1195 1.355 . S
C1196 C1198 1.419 . S
C1197 C1192 1.425 1_554 S
C1197 C1194 1.409 . S
C1197 C1195 1.415 . S
C1198 H1188 0.930 . S
C1198 C1196 1.419 . S
C1198 C1199 1.362 1_554 S
C1199 H1189 0.930 . S
C1199 C1192 1.409 . S
C1199 C1198 1.362 1_556 S
H1200 C1206 0.930 . S
H1201 C1209 0.930 . S
H1202 C1210 0.930 . S
H1203 C1211 0.930 . S
H1204 C1214 0.930 . S
H1205 C1215 0.930 . S
C1206 H1200 0.930 . S
C1206 C1207 1.355 . S
C1206 C1208 1.415 . S
C1207 C1206 1.355 . S
C1207 C1209 1.419 1_554 S
C1208 C1206 1.415 . S
C1208 C1213 1.425 1_554 S
C1208 C1215 1.409 . S
C1209 H1201 0.930 . S
C1209 C1207 1.419 1_556 S
C1209 C1210 1.362 . S
C1210 H1202 0.930 . S
C1210 C1209 1.362 . S
C1210 C1213 1.409 . S
C1211 H1203 0.930 . S
C1211 C1212 1.355 . S
C1211 C1213 1.415 . S
C1212 C1211 1.355 . S
C1212 C1214 1.419 1_556 S
C1213 C1208 1.425 1_556 S
C1213 C1210 1.409 . S
C1213 C1211 1.415 . S
C1214 H1204 0.930 . S
C1214 C1212 1.419 1_554 S
C1214 C1215 1.362 . S
C1215 H1205 0.930 . S
C1215 C1208 1.409 . S
C1215 C1214 1.362 . S
H1216 C1222 0.904 1_556 S
H1217 C1225 0.930 . S
H1218 C1226 0.930 . S
H1219 C1227 0.904 1_554 S
H1220 C1230 0.930 . S
H1221 C1231 0.930 . S
C1222 H1216 0.904 1_554 S
C1222 C1223 1.396 . S
C1222 C1224 1.400 1_554 S
C1223 C1222 1.396 . S
C1223 C1225 1.419 . S
C1224 C1222 1.400 1_556 S
C1224 C1229 1.425 1_556 S
C1224 C1231 1.409 . S
C1225 H1217 0.930 . S
C1225 C1223 1.419 . S
C1225 C1226 1.362 . S
C1226 H1218 0.930 . S
C1226 C1225 1.362 . S
C1226 C1229 1.409 . S
C1227 H1219 0.904 1_556 S
C1227 C1228 1.396 . S
C1227 C1229 1.400 1_556 S
C1228 C1227 1.396 . S
C1228 C1230 1.419 . S
C1229 C1224 1.425 1_554 S
C1229 C1226 1.409 . S
C1229 C1227 1.400 1_554 S
C1230 H1220 0.930 . S
C1230 C1228 1.419 . S
C1230 C1231 1.362 . S
C1231 H1221 0.930 . S
C1231 C1224 1.409 . S
C1231 C1230 1.362 . S
H1232 C1238 0.930 . S
H1233 C1241 0.930 . S
H1234 C1242 0.930 . S
H1235 C1243 0.930 . S
H1236 C1246 0.930 . S
H1237 C1247 0.930 . S
C1238 H1232 0.930 . S
C1238 C1239 1.355 . S
C1238 C1240 1.415 . S
C1239 C1238 1.355 . S
C1239 C1241 1.419 1_556 S
C1240 C1238 1.415 . S
C1240 C1245 1.425 1_556 S
C1240 C1247 1.409 . S
C1241 H1233 0.930 . S
C1241 C1239 1.419 1_554 S
C1241 C1242 1.362 . S
C1242 H1234 0.930 . S
C1242 C1241 1.362 . S
C1242 C1245 1.409 . S
C1243 H1235 0.930 . S
C1243 C1244 1.355 . S
C1243 C1245 1.415 . S
C1244 C1243 1.355 . S
C1244 C1246 1.419 1_554 S
C1245 C1240 1.425 1_554 S
C1245 C1242 1.409 . S
C1245 C1243 1.415 . S
C1246 H1236 0.930 . S
C1246 C1244 1.419 1_556 S
C1246 C1247 1.362 . S
C1247 H1237 0.930 . S
C1247 C1240 1.409 . S
C1247 C1246 1.362 . S
H1248 C1254 0.930 . S
H1249 C1257 0.930 . S
H1250 C1258 0.930 . S
H1251 C1259 0.930 . S
H1252 C1262 0.930 . S
H1253 C1263 0.930 . S
C1254 H1248 0.930 . S
C1254 C1255 1.355 . S
C1254 C1256 1.415 . S
C1255 C1254 1.355 . S
C1255 C1257 1.419 . S
C1256 C1254 1.415 . S
C1256 C1261 1.425 . S
C1256 C1263 1.409 . S
C1257 H1249 0.930 . S
C1257 C1255 1.419 . S
C1257 C1258 1.362 . S
C1258 H1250 0.930 . S
C1258 C1257 1.362 . S
C1258 C1261 1.409 . S
C1259 H1251 0.930 . S
C1259 C1260 1.355 . S
C1259 C1261 1.415 . S
C1260 C1259 1.355 . S
C1260 C1262 1.419 . S
C1261 C1256 1.425 . S
C1261 C1258 1.409 . S
C1261 C1259 1.415 . S
C1262 H1252 0.930 . S
C1262 C1260 1.419 . S
C1262 C1263 1.362 . S
C1263 H1253 0.930 . S
C1263 C1256 1.409 . S
C1263 C1262 1.362 . S
H1264 C1270 0.930 . S
H1265 C1273 0.930 . S
H1266 C1274 0.930 . S
H1267 C1275 0.930 . S
H1268 C1278 0.930 . S
H1269 C1279 0.930 . S
C1270 H1264 0.930 . S
C1270 C1271 1.355 . S
C1270 C1272 1.415 . S
C1271 C1270 1.355 . S
C1271 C1273 1.419 . S
C1272 C1270 1.415 . S
C1272 C1277 1.425 . S
C1272 C1279 1.409 . S
C1273 H1265 0.930 . S
C1273 C1271 1.419 . S
C1273 C1274 1.362 . S
C1274 H1266 0.930 . S
C1274 C1273 1.362 . S
C1274 C1277 1.409 . S
C1275 H1267 0.930 . S
C1275 C1276 1.355 . S
C1275 C1277 1.415 . S
C1276 C1275 1.355 . S
C1276 C1278 1.419 . S
C1277 C1272 1.425 . S
C1277 C1274 1.409 . S
C1277 C1275 1.415 . S
C1278 H1268 0.930 . S
C1278 C1276 1.419 . S
C1278 C1279 1.362 . S
C1279 H1269 0.930 . S
C1279 C1272 1.409 . S
C1279 C1278 1.362 . S
H1280 C1286 0.930 . S
H1281 C1289 0.930 . S
H1282 C1290 0.930 . S
H1283 C1291 0.930 . S
H1284 C1294 0.930 . S
H1285 C1295 0.930 . S
C1286 H1280 0.930 . S
C1286 C1287 1.355 . S
C1286 C1288 1.415 . S
C1287 C1286 1.355 . S
C1287 C1289 1.419 . S
C1288 C1286 1.415 . S
C1288 C1293 1.425 . S
C1288 C1295 1.409 . S
C1289 H1281 0.930 . S
C1289 C1287 1.419 . S
C1289 C1290 1.362 . S
C1290 H1282 0.930 . S
C1290 C1289 1.362 . S
C1290 C1293 1.409 . S
C1291 H1283 0.930 . S
C1291 C1292 1.355 . S
C1291 C1293 1.415 . S
C1292 C1291 1.355 . S
C1292 C1294 1.419 . S
C1293 C1288 1.425 . S
C1293 C1290 1.409 . S
C1293 C1291 1.415 . S
C1294 H1284 0.930 . S
C1294 C1292 1.419 . S
C1294 C1295 1.362 . S
C1295 H1285 0.930 . S
C1295 C1288 1.409 . S
C1295 C1294 1.362 . S
H1296 C1302 0.930 . S
H1297 C1305 0.930 . S
H1298 C1306 0.930 . S
H1299 C1307 0.930 . S
H1300 C1310 0.930 . S
H1301 C1311 0.930 . S
C1302 H1296 0.930 . S
C1302 C1303 1.355 . S
C1302 C1304 1.415 . S
C1303 C1302 1.355 . S
C1303 C1305 1.419 . S
C1304 C1302 1.415 . S
C1304 C1309 1.425 . S
C1304 C1311 1.409 . S
C1305 H1297 0.930 . S
C1305 C1303 1.419 . S
C1305 C1306 1.362 . S
C1306 H1298 0.930 . S
C1306 C1305 1.362 . S
C1306 C1309 1.409 . S
C1307 H1299 0.930 . S
C1307 C1308 1.355 . S
C1307 C1309 1.415 . S
C1308 C1307 1.355 . S
C1308 C1310 1.419 . S
C1309 C1304 1.425 . S
C1309 C1306 1.409 . S
C1309 C1307 1.415 . S
C1310 H1300 0.930 . S
C1310 C1308 1.419 . S
C1310 C1311 1.362 . S
C1311 H1301 0.930 . S
C1311 C1304 1.409 . S
C1311 C1310 1.362 . S
H1312 C1318 0.930 . S
H1313 C1321 0.930 . S
H1314 C1322 0.930 . S
H1315 C1323 0.930 . S
H1316 C1326 0.930 . S
H1317 C1327 0.930 . S
C1318 H1312 0.930 . S
C1318 C1319 1.355 . S
C1318 C1320 1.415 . S
C1319 C1318 1.355 . S
C1319 C1321 1.419 . S
C1320 C1318 1.415 . S
C1320 C1325 1.425 . S
C1320 C1327 1.409 . S
C1321 H1313 0.930 . S
C1321 C1319 1.419 . S
C1321 C1322 1.362 . S
C1322 H1314 0.930 . S
C1322 C1321 1.362 . S
C1322 C1325 1.409 . S
C1323 H1315 0.930 . S
C1323 C1324 1.355 . S
C1323 C1325 1.415 . S
C1324 C1323 1.355 . S
C1324 C1326 1.419 . S
C1325 C1320 1.425 . S
C1325 C1322 1.409 . S
C1325 C1323 1.415 . S
C1326 H1316 0.930 . S
C1326 C1324 1.419 . S
C1326 C1327 1.362 . S
C1327 H1317 0.930 . S
C1327 C1320 1.409 . S
C1327 C1326 1.362 . S
H1328 C1334 0.930 . S
H1329 C1337 0.930 . S
H1330 C1338 0.930 . S
H1331 C1339 0.930 . S
H1332 C1342 0.930 . S
H1333 C1343 0.930 . S
C1334 H1328 0.930 . S
C1334 C1335 1.355 . S
C1334 C1336 1.415 . S
C1335 C1334 1.355 . S
C1335 C1337 1.419 . S
C1336 C1334 1.415 . S
C1336 C1341 1.425 . S
C1336 C1343 1.409 . S
C1337 H1329 0.930 . S
C1337 C1335 1.419 . S
C1337 C1338 1.362 . S
C1338 H1330 0.930 . S
C1338 C1337 1.362 . S
C1338 C1341 1.409 . S
C1339 H1331 0.930 . S
C1339 C1340 1.355 . S
C1339 C1341 1.415 . S
C1340 C1339 1.355 . S
C1340 C1342 1.419 . S
C1341 C1336 1.425 . S
C1341 C1338 1.409 . S
C1341 C1339 1.415 . S
C1342 H1332 0.930 . S
C1342 C1340 1.419 . S
C1342 C1343 1.362 . S
C1343 H1333 0.930 . S
C1343 C1336 1.409 . S
C1343 C1342 1.362 . S
H1344 C1350 0.930 . S
H1345 C1353 0.930 . S
H1346 C1354 0.930 . S
H1347 C1355 0.930 . S
H1348 C1358 0.930 . S
H1349 C1359 0.930 . S
C1350 H1344 0.930 . S
C1350 C1351 1.355 . S
C1350 C1352 1.415 . S
C1351 C1350 1.355 . S
C1351 C1353 1.419 . S
C1352 C1350 1.415 . S
C1352 C1357 1.425 . S
C1352 C1359 1.409 . S
C1353 H1345 0.930 . S
C1353 C1351 1.419 . S
C1353 C1354 1.362 . S
C1354 H1346 0.930 . S
C1354 C1353 1.362 . S
C1354 C1357 1.409 . S
C1355 H1347 0.930 . S
C1355 C1356 1.355 . S
C1355 C1357 1.415 . S
C1356 C1355 1.355 . S
C1356 C1358 1.419 . S
C1357 C1352 1.425 . S
C1357 C1354 1.409 . S
C1357 C1355 1.415 . S
C1358 H1348 0.930 . S
C1358 C1356 1.419 . S
C1358 C1359 1.362 . S
C1359 H1349 0.930 . S
C1359 C1352 1.409 . S
C1359 C1358 1.362 . S
H1360 C1366 0.930 . S
H1361 C1369 0.930 . S
H1362 C1370 0.930 . S
H1363 C1371 0.930 . S
H1364 C1374 0.930 . S
H1365 C1375 0.930 . S
C1366 H1360 0.930 . S
C1366 C1367 1.355 . S
C1366 C1368 1.415 . S
C1367 C1366 1.355 . S
C1367 C1369 1.419 . S
C1368 C1366 1.415 . S
C1368 C1373 1.425 . S
C1368 C1375 1.409 . S
C1369 H1361 0.930 . S
C1369 C1367 1.419 . S
C1369 C1370 1.362 . S
C1370 H1362 0.930 . S
C1370 C1369 1.362 . S
C1370 C1373 1.409 . S
C1371 H1363 0.930 . S
C1371 C1372 1.355 . S
C1371 C1373 1.415 . S
C1372 C1371 1.355 . S
C1372 C1374 1.419 . S
C1373 C1368 1.425 . S
C1373 C1370 1.409 . S
C1373 C1371 1.415 . S
C1374 H1364 0.930 . S
C1374 C1372 1.419 . S
C1374 C1375 1.362 . S
C1375 H1365 0.930 . S
C1375 C1368 1.409 . S
C1375 C1374 1.362 . S
H1376 C1382 0.930 . S
H1377 C1385 0.930 . S
H1378 C1386 0.930 . S
H1379 C1387 0.930 . S
H1380 C1390 0.930 . S
H1381 C1391 0.930 . S
C1382 H1376 0.930 . S
C1382 C1383 1.355 . S
C1382 C1384 1.415 . S
C1383 C1382 1.355 . S
C1383 C1385 1.419 . S
C1384 C1382 1.415 . S
C1384 C1389 1.425 . S
C1384 C1391 1.409 . S
C1385 H1377 0.930 . S
C1385 C1383 1.419 . S
C1385 C1386 1.362 . S
C1386 H1378 0.930 . S
C1386 C1385 1.362 . S
C1386 C1389 1.409 . S
C1387 H1379 0.930 . S
C1387 C1388 1.355 . S
C1387 C1389 1.415 . S
C1388 C1387 1.355 . S
C1388 C1390 1.419 . S
C1389 C1384 1.425 . S
C1389 C1386 1.409 . S
C1389 C1387 1.415 . S
C1390 H1380 0.930 . S
C1390 C1388 1.419 . S
C1390 C1391 1.362 . S
C1391 H1381 0.930 . S
C1391 C1384 1.409 . S
C1391 C1390 1.362 . S
H1392 C1398 0.930 . S
H1393 C1401 0.930 . S
H1394 C1402 0.930 . S
H1395 C1403 0.930 . S
H1396 C1406 0.930 . S
H1397 C1407 0.930 . S
C1398 H1392 0.930 . S
C1398 C1399 1.355 . S
C1398 C1400 1.415 . S
C1399 C1398 1.355 . S
C1399 C1401 1.419 . S
C1400 C1398 1.415 . S
C1400 C1405 1.425 . S
C1400 C1407 1.409 . S
C1401 H1393 0.930 . S
C1401 C1399 1.419 . S
C1401 C1402 1.362 . S
C1402 H1394 0.930 . S
C1402 C1401 1.362 . S
C1402 C1405 1.409 . S
C1403 H1395 0.930 . S
C1403 C1404 1.355 . S
C1403 C1405 1.415 . S
C1404 C1403 1.355 . S
C1404 C1406 1.419 . S
C1405 C1400 1.425 . S
C1405 C1402 1.409 . S
C1405 C1403 1.415 . S
C1406 H1396 0.930 . S
C1406 C1404 1.419 . S
C1406 C1407 1.362 . S
C1407 H1397 0.930 . S
C1407 C1400 1.409 . S
C1407 C1406 1.362 . S
H1408 C1414 0.930 . S
H1409 C1417 0.930 . S
H1410 C1418 0.930 . S
H1411 C1419 0.930 . S
H1412 C1422 0.930 . S
H1413 C1423 0.930 . S
C1414 H1408 0.930 . S
C1414 C1415 1.355 . S
C1414 C1416 1.415 . S
C1415 C1414 1.355 . S
C1415 C1417 1.419 . S
C1416 C1414 1.415 . S
C1416 C1421 1.425 . S
C1416 C1423 1.409 . S
C1417 H1409 0.930 . S
C1417 C1415 1.419 . S
C1417 C1418 1.362 . S
C1418 H1410 0.930 . S
C1418 C1417 1.362 . S
C1418 C1421 1.409 . S
C1419 H1411 0.930 . S
C1419 C1420 1.355 . S
C1419 C1421 1.415 . S
C1420 C1419 1.355 . S
C1420 C1422 1.419 . S
C1421 C1416 1.425 . S
C1421 C1418 1.409 . S
C1421 C1419 1.415 . S
C1422 H1412 0.930 . S
C1422 C1420 1.419 . S
C1422 C1423 1.362 . S
C1423 H1413 0.930 . S
C1423 C1416 1.409 . S
C1423 C1422 1.362 . S
H1424 C1430 0.930 . S
H1425 C1433 0.930 . S
H1426 C1434 0.930 . S
H1427 C1435 0.930 . S
H1428 C1438 0.930 . S
H1429 C1439 0.930 . S
C1430 H1424 0.930 . S
C1430 C1431 1.355 . S
C1430 C1432 1.415 . S
C1431 C1430 1.355 . S
C1431 C1433 1.419 . S
C1432 C1430 1.415 . S
C1432 C1437 1.425 . S
C1432 C1439 1.409 . S
C1433 H1425 0.930 . S
C1433 C1431 1.419 . S
C1433 C1434 1.362 . S
C1434 H1426 0.930 . S
C1434 C1433 1.362 . S
C1434 C1437 1.409 . S
C1435 H1427 0.930 . S
C1435 C1436 1.355 . S
C1435 C1437 1.415 . S
C1436 C1435 1.355 . S
C1436 C1438 1.419 . S
C1437 C1432 1.425 . S
C1437 C1434 1.409 . S
C1437 C1435 1.415 . S
C1438 H1428 0.930 . S
C1438 C1436 1.419 . S
C1438 C1439 1.362 . S
C1439 H1429 0.930 . S
C1439 C1432 1.409 . S
C1439 C1438 1.362 . S
H1440 C1446 0.930 . S
H1441 C1449 0.930 . S
H1442 C1450 0.930 . S
H1443 C1451 0.930 . S
H1444 C1454 0.930 . S
H1445 C1455 0.930 . S
C1446 H1440 0.930 . S
C1446 C1447 1.355 . S
C1446 C1448 1.415 . S
C1447 C1446 1.355 . S
C1447 C1449 1.419 . S
C1448 C1446 1.415 . S
C1448 C1453 1.425 . S
C1448 C1455 1.409 . S
C1449 H1441 0.930 . S
C1449 C1447 1.419 . S
C1449 C1450 1.362 . S
C1450 H1442 0.930 . S
C1450 C1449 1.362 . S
C1450 C1453 1.409 . S
C1451 H1443 0.930 . S
C1451 C1452 1.355 . S
C1451 C1453 1.415 . S
C1452 C1451 1.355 . S
C1452 C1454 1.419 . S
C1453 C1448 1.425 . S
C1453 C1450 1.409 . S
C1453 C1451 1.415 . S
C1454 H1444 0.930 . S
C1454 C1452 1.419 . S
C1454 C1455 1.362 . S
C1455 H1445 0.930 . S
C1455 C1448 1.409 . S
C1455 C1454 1.362 . S
H1456 C1462 0.930 . S
H1457 C1465 0.930 . S
H1458 C1466 0.930 . S
H1459 C1467 0.930 . S
H1460 C1470 0.930 1_556 S
H1461 C1471 0.930 . S
C1462 H1456 0.930 . S
C1462 C1463 1.355 . S
C1462 C1464 1.415 . S
C1463 C1462 1.355 . S
C1463 C1465 1.419 . S
C1464 C1462 1.415 . S
C1464 C1469 1.425 . S
C1464 C1471 1.409 . S
C1465 H1457 0.930 . S
C1465 C1463 1.419 . S
C1465 C1466 1.362 . S
C1466 H1458 0.930 . S
C1466 C1465 1.362 . S
C1466 C1469 1.409 . S
C1467 H1459 0.930 . S
C1467 C1468 1.355 . S
C1467 C1469 1.415 . S
C1468 C1467 1.355 . S
C1468 C1470 1.419 . S
C1469 C1464 1.425 . S
C1469 C1466 1.409 . S
C1469 C1467 1.415 . S
C1470 H1460 0.930 1_554 S
C1470 C1468 1.419 . S
C1470 C1471 1.362 . S
C1471 H1461 0.930 . S
C1471 C1464 1.409 . S
C1471 C1470 1.362 . S
H1472 C1478 0.930 . S
H1473 C1481 0.930 . S
H1474 C1482 0.930 . S
H1475 C1483 0.930 . S
H1476 C1486 0.930 1_556 S
H1477 C1487 0.930 . S
C1478 H1472 0.930 . S
C1478 C1479 1.355 . S
C1478 C1480 1.415 . S
C1479 C1478 1.355 . S
C1479 C1481 1.419 . S
C1480 C1478 1.415 . S
C1480 C1485 1.425 . S
C1480 C1487 1.409 . S
C1481 H1473 0.930 . S
C1481 C1479 1.419 . S
C1481 C1482 1.362 . S
C1482 H1474 0.930 . S
C1482 C1481 1.362 . S
C1482 C1485 1.409 . S
C1483 H1475 0.930 . S
C1483 C1484 1.355 . S
C1483 C1485 1.415 . S
C1484 C1483 1.355 . S
C1484 C1486 1.419 . S
C1485 C1480 1.425 . S
C1485 C1482 1.409 . S
C1485 C1483 1.415 . S
C1486 H1476 0.930 1_554 S
C1486 C1484 1.419 . S
C1486 C1487 1.362 . S
C1487 H1477 0.930 . S
C1487 C1480 1.409 . S
C1487 C1486 1.362 . S
H1488 C1494 0.930 . S
H1489 C1497 0.930 . S
H1490 C1498 0.930 . S
H1491 C1499 0.930 . S
H1492 C1502 0.930 . S
H1493 C1503 0.930 . S
C1494 H1488 0.930 . S
C1494 C1495 1.355 . S
C1494 C1496 1.415 . S
C1495 C1494 1.355 . S
C1495 C1497 1.419 . S
C1496 C1494 1.415 . S
C1496 C1501 1.425 . S
C1496 C1503 1.409 . S
C1497 H1489 0.930 . S
C1497 C1495 1.419 . S
C1497 C1498 1.362 . S
C1498 H1490 0.930 . S
C1498 C1497 1.362 . S
C1498 C1501 1.409 . S
C1499 H1491 0.930 . S
C1499 C1500 1.355 . S
C1499 C1501 1.415 . S
C1500 C1499 1.355 . S
C1500 C1502 1.419 . S
C1501 C1496 1.425 . S
C1501 C1498 1.409 . S
C1501 C1499 1.415 . S
C1502 H1492 0.930 . S
C1502 C1500 1.419 . S
C1502 C1503 1.362 . S
C1503 H1493 0.930 . S
C1503 C1496 1.409 . S
C1503 C1502 1.362 . S
H1504 C1510 0.930 . S
H1505 C1513 0.930 . S
H1506 C1514 0.930 . S
H1507 C1515 0.930 . S
H1508 C1518 0.930 1_554 S
H1509 C1519 0.930 . S
C1510 H1504 0.930 . S
C1510 C1511 1.355 . S
C1510 C1512 1.415 . S
C1511 C1510 1.355 . S
C1511 C1513 1.419 . S
C1512 C1510 1.415 . S
C1512 C1517 1.425 . S
C1512 C1519 1.409 . S
C1513 H1505 0.930 . S
C1513 C1511 1.419 . S
C1513 C1514 1.362 . S
C1514 H1506 0.930 . S
C1514 C1513 1.362 . S
C1514 C1517 1.409 . S
C1515 H1507 0.930 . S
C1515 C1516 1.355 . S
C1515 C1517 1.415 . S
C1516 C1515 1.355 . S
C1516 C1518 1.419 . S
C1517 C1512 1.425 . S
C1517 C1514 1.409 . S
C1517 C1515 1.415 . S
C1518 H1508 0.930 1_556 S
C1518 C1516 1.419 . S
C1518 C1519 1.362 . S
C1519 H1509 0.930 . S
C1519 C1512 1.409 . S
C1519 C1518 1.362 . S
H1520 C1526 0.930 . S
H1521 C1529 0.930 . S
H1522 C1530 0.930 . S
H1523 C1531 0.930 . S
H1524 C1534 0.930 . S
H1525 C1535 0.930 . S
C1526 H1520 0.930 . S
C1526 C1527 1.355 . S
C1526 C1528 1.415 . S
C1527 C1526 1.355 . S
C1527 C1529 1.419 . S
C1528 C1526 1.415 . S
C1528 C1533 1.425 . S
C1528 C1535 1.409 . S
C1529 H1521 0.930 . S
C1529 C1527 1.419 . S
C1529 C1530 1.362 . S
C1530 H1522 0.930 . S
C1530 C1529 1.362 . S
C1530 C1533 1.409 . S
C1531 H1523 0.930 . S
C1531 C1532 1.355 . S
C1531 C1533 1.415 . S
C1532 C1531 1.355 . S
C1532 C1534 1.419 . S
C1533 C1528 1.425 . S
C1533 C1530 1.409 . S
C1533 C1531 1.415 . S
C1534 H1524 0.930 . S
C1534 C1532 1.419 . S
C1534 C1535 1.362 . S
C1535 H1525 0.930 . S
C1535 C1528 1.409 . S
C1535 C1534 1.362 . S
H1536 C1542 0.930 . S
H1537 C1545 0.930 . S
H1538 C1546 0.930 . S
H1539 C1547 0.930 . S
H1540 C1550 0.930 . S
H1541 C1551 0.930 . S
C1542 H1536 0.930 . S
C1542 C1543 1.355 . S
C1542 C1544 1.415 . S
C1543 C1542 1.355 . S
C1543 C1545 1.419 . S
C1544 C1542 1.415 . S
C1544 C1549 1.425 . S
C1544 C1551 1.409 . S
C1545 H1537 0.930 . S
C1545 C1543 1.419 . S
C1545 C1546 1.362 . S
C1546 H1538 0.930 . S
C1546 C1545 1.362 . S
C1546 C1549 1.409 . S
C1547 H1539 0.930 . S
C1547 C1548 1.355 . S
C1547 C1549 1.415 . S
C1548 C1547 1.355 . S
C1548 C1550 1.419 . S
C1549 C1544 1.425 . S
C1549 C1546 1.409 . S
C1549 C1547 1.415 . S
C1550 H1540 0.930 . S
C1550 C1548 1.419 . S
C1550 C1551 1.362 . S
C1551 H1541 0.930 . S
C1551 C1544 1.409 . S
C1551 C1550 1.362 . S
H1552 C1558 0.930 . S
H1553 C1561 0.930 1_554 S
H1554 C1562 0.930 . S
H1555 C1563 0.930 . S
H1556 C1566 0.930 . S
H1557 C1567 0.930 . S
C1558 H1552 0.930 . S
C1558 C1559 1.355 . S
C1558 C1560 1.415 . S
C1559 C1558 1.355 . S
C1559 C1561 1.419 . S
C1560 C1558 1.415 . S
C1560 C1565 1.425 . S
C1560 C1567 1.409 . S
C1561 H1553 0.930 1_556 S
C1561 C1559 1.419 . S
C1561 C1562 1.362 . S
C1562 H1554 0.930 . S
C1562 C1561 1.362 . S
C1562 C1565 1.409 . S
C1563 H1555 0.930 . S
C1563 C1564 1.355 . S
C1563 C1565 1.415 . S
C1564 C1563 1.355 . S
C1564 C1566 1.419 . S
C1565 C1560 1.425 . S
C1565 C1562 1.409 . S
C1565 C1563 1.415 . S
C1566 H1556 0.930 . S
C1566 C1564 1.419 . S
C1566 C1567 1.362 . S
C1567 H1557 0.930 . S
C1567 C1560 1.409 . S
C1567 C1566 1.362 . S
H1568 C1574 0.930 . S
H1569 C1577 0.930 . S
H1570 C1578 0.930 . S
H1571 C1579 0.930 . S
H1572 C1582 0.930 . S
H1573 C1583 0.930 . S
C1574 H1568 0.930 . S
C1574 C1575 1.355 . S
C1574 C1576 1.415 . S
C1575 C1574 1.355 . S
C1575 C1577 1.419 . S
C1576 C1574 1.415 . S
C1576 C1581 1.425 . S
C1576 C1583 1.409 . S
C1577 H1569 0.930 . S
C1577 C1575 1.419 . S
C1577 C1578 1.362 . S
C1578 H1570 0.930 . S
C1578 C1577 1.362 . S
C1578 C1581 1.409 . S
C1579 H1571 0.930 . S
C1579 C1580 1.355 . S
C1579 C1581 1.415 . S
C1580 C1579 1.355 . S
C1580 C1582 1.419 . S
C1581 C1576 1.425 . S
C1581 C1578 1.409 . S
C1581 C1579 1.415 . S
C1582 H1572 0.930 . S
C1582 C1580 1.419 . S
C1582 C1583 1.362 . S
C1583 H1573 0.930 . S
C1583 C1576 1.409 . S
C1583 C1582 1.362 . S
H1584 C1590 0.930 . S
H1585 C1593 0.930 . S
H1586 C1594 0.930 . S
H1587 C1595 0.930 . S
H1588 C1598 0.930 . S
H1589 C1599 0.930 . S
C1590 H1584 0.930 . S
C1590 C1591 1.355 . S
C1590 C1592 1.415 . S
C1591 C1590 1.355 . S
C1591 C1593 1.419 . S
C1592 C1590 1.415 . S
C1592 C1597 1.425 . S
C1592 C1599 1.409 . S
C1593 H1585 0.930 . S
C1593 C1591 1.419 . S
C1593 C1594 1.362 . S
C1594 H1586 0.930 . S
C1594 C1593 1.362 . S
C1594 C1597 1.409 . S
C1595 H1587 0.930 . S
C1595 C1596 1.355 . S
C1595 C1597 1.415 . S
C1596 C1595 1.355 . S
C1596 C1598 1.419 . S
C1597 C1592 1.425 . S
C1597 C1594 1.409 . S
C1597 C1595 1.415 . S
C1598 H1588 0.930 . S
C1598 C1596 1.419 . S
C1598 C1599 1.362 . S
C1599 H1589 0.930 . S
C1599 C1592 1.409 . S
C1599 C1598 1.362 . S
H1600 C1606 0.930 . S
H1601 C1609 0.930 . S
H1602 C1610 0.930 . S
H1603 C1611 0.930 . S
H1604 C1614 0.930 . S
H1605 C1615 0.930 . S
C1606 H1600 0.930 . S
C1606 C1607 1.355 . S
C1606 C1608 1.415 . S
C1607 C1606 1.355 . S
C1607 C1609 1.419 . S
C1608 C1606 1.415 . S
C1608 C1613 1.425 . S
C1608 C1615 1.409 . S
C1609 H1601 0.930 . S
C1609 C1607 1.419 . S
C1609 C1610 1.362 . S
C1610 H1602 0.930 . S
C1610 C1609 1.362 . S
C1610 C1613 1.409 . S
C1611 H1603 0.930 . S
C1611 C1612 1.355 . S
C1611 C1613 1.415 . S
C1612 C1611 1.355 . S
C1612 C1614 1.419 . S
C1613 C1608 1.425 . S
C1613 C1610 1.409 . S
C1613 C1611 1.415 . S
C1614 H1604 0.930 . S
C1614 C1612 1.419 . S
C1614 C1615 1.362 . S
C1615 H1605 0.930 . S
C1615 C1608 1.409 . S
C1615 C1614 1.362 . S
H1616 C1622 0.930 . S
H1617 C1625 0.930 . S
H1618 C1626 0.930 . S
H1619 C1627 0.930 . S
H1620 C1630 0.930 . S
H1621 C1631 0.930 . S
C1622 H1616 0.930 . S
C1622 C1623 1.355 . S
C1622 C1624 1.415 . S
C1623 C1622 1.355 . S
C1623 C1625 1.419 . S
C1624 C1622 1.415 . S
C1624 C1629 1.425 . S
C1624 C1631 1.409 . S
C1625 H1617 0.930 . S
C1625 C1623 1.419 . S
C1625 C1626 1.362 . S
C1626 H1618 0.930 . S
C1626 C1625 1.362 . S
C1626 C1629 1.409 . S
C1627 H1619 0.930 . S
C1627 C1628 1.355 . S
C1627 C1629 1.415 . S
C1628 C1627 1.355 . S
C1628 C1630 1.419 . S
C1629 C1624 1.425 . S
C1629 C1626 1.409 . S
C1629 C1627 1.415 . S
C1630 H1620 0.930 . S
C1630 C1628 1.419 . S
C1630 C1631 1.362 . S
C1631 H1621 0.930 . S
C1631 C1624 1.409 . S
C1631 C1630 1.362 . S
H1632 C1638 0.930 . S
H1633 C1641 0.930 . S
H1634 C1642 0.930 . S
H1635 C1643 0.930 . S
H1636 C1646 0.930 . S
H1637 C1647 0.930 . S
C1638 H1632 0.930 . S
C1638 C1639 1.355 . S
C1638 C1640 1.415 . S
C1639 C1638 1.355 . S
C1639 C1641 1.419 . S
C1640 C1638 1.415 . S
C1640 C1645 1.425 . S
C1640 C1647 1.409 . S
C1641 H1633 0.930 . S
C1641 C1639 1.419 . S
C1641 C1642 1.362 . S
C1642 H1634 0.930 . S
C1642 C1641 1.362 . S
C1642 C1645 1.409 . S
C1643 H1635 0.930 . S
C1643 C1644 1.355 . S
C1643 C1645 1.415 . S
C1644 C1643 1.355 . S
C1644 C1646 1.419 . S
C1645 C1640 1.425 . S
C1645 C1642 1.409 . S
C1645 C1643 1.415 . S
C1646 H1636 0.930 . S
C1646 C1644 1.419 . S
C1646 C1647 1.362 . S
C1647 H1637 0.930 . S
C1647 C1640 1.409 . S
C1647 C1646 1.362 . S
H1648 C1654 0.930 . S
H1649 C1657 0.930 1_565 S
H1650 C1658 0.930 . S
H1651 C1659 0.930 . S
H1652 C1662 0.930 . S
H1653 C1663 0.930 . S
C1654 H1648 0.930 . S
C1654 C1655 1.355 . S
C1654 C1656 1.415 . S
C1655 C1654 1.355 . S
C1655 C1657 1.419 . S
C1656 C1654 1.415 . S
C1656 C1661 1.425 . S
C1656 C1663 1.409 . S
C1657 H1649 0.930 1_545 S
C1657 C1655 1.419 . S
C1657 C1658 1.362 . S
C1658 H1650 0.930 . S
C1658 C1657 1.362 . S
C1658 C1661 1.409 . S
C1659 H1651 0.930 . S
C1659 C1660 1.355 . S
C1659 C1661 1.415 . S
C1660 C1659 1.355 . S
C1660 C1662 1.419 . S
C1661 C1656 1.425 . S
C1661 C1658 1.409 . S
C1661 C1659 1.415 . S
C1662 H1652 0.930 . S
C1662 C1660 1.419 . S
C1662 C1663 1.362 . S
C1663 H1653 0.930 . S
C1663 C1656 1.409 . S
C1663 C1662 1.362 . S
H1664 C1670 0.930 . S
H1665 C1673 0.930 1_455 S
H1666 C1674 0.930 . S
H1667 C1675 0.930 . S
H1668 C1678 0.930 . S
H1669 C1679 0.930 . S
C1670 H1664 0.930 . S
C1670 C1671 1.355 . S
C1670 C1672 1.415 . S
C1671 C1670 1.355 . S
C1671 C1673 1.419 . S
C1672 C1670 1.415 . S
C1672 C1677 1.425 . S
C1672 C1679 1.409 . S
C1673 H1665 0.930 1_655 S
C1673 C1671 1.419 . S
C1673 C1674 1.362 . S
C1674 H1666 0.930 . S
C1674 C1673 1.362 . S
C1674 C1677 1.409 . S
C1675 H1667 0.930 . S
C1675 C1676 1.355 . S
C1675 C1677 1.415 . S
C1676 C1675 1.355 . S
C1676 C1678 1.419 . S
C1677 C1672 1.425 . S
C1677 C1674 1.409 . S
C1677 C1675 1.415 . S
C1678 H1668 0.930 . S
C1678 C1676 1.419 . S
C1678 C1679 1.362 . S
C1679 H1669 0.930 . S
C1679 C1672 1.409 . S
C1679 C1678 1.362 . S
H1680 C1686 0.930 . S
H1681 C1689 0.930 . S
H1682 C1690 0.930 . S
H1683 C1691 0.930 . S
H1684 C1694 0.930 . S
H1685 C1695 0.930 . S
C1686 H1680 0.930 . S
C1686 C1687 1.355 . S
C1686 C1688 1.415 . S
C1687 C1686 1.355 . S
C1687 C1689 1.419 . S
C1688 C1686 1.415 . S
C1688 C1693 1.425 . S
C1688 C1695 1.409 . S
C1689 H1681 0.930 . S
C1689 C1687 1.419 . S
C1689 C1690 1.362 . S
C1690 H1682 0.930 . S
C1690 C1689 1.362 . S
C1690 C1693 1.409 . S
C1691 H1683 0.930 . S
C1691 C1692 1.355 . S
C1691 C1693 1.415 . S
C1692 C1691 1.355 . S
C1692 C1694 1.419 . S
C1693 C1688 1.425 . S
C1693 C1690 1.409 . S
C1693 C1691 1.415 . S
C1694 H1684 0.930 . S
C1694 C1692 1.419 . S
C1694 C1695 1.362 . S
C1695 H1685 0.930 . S
C1695 C1688 1.409 . S
C1695 C1694 1.362 . S
H1696 C1702 0.930 . S
H1697 C1705 0.930 1_565 S
H1698 C1706 0.930 . S
H1699 C1707 0.930 . S
H1700 C1710 0.930 . S
H1701 C1711 0.930 . S
C1702 H1696 0.930 . S
C1702 C1703 1.355 . S
C1702 C1704 1.415 . S
C1703 C1702 1.355 . S
C1703 C1705 1.419 . S
C1704 C1702 1.415 . S
C1704 C1709 1.425 . S
C1704 C1711 1.409 . S
C1705 H1697 0.930 1_545 S
C1705 C1703 1.419 . S
C1705 C1706 1.362 . S
C1706 H1698 0.930 . S
C1706 C1705 1.362 . S
C1706 C1709 1.409 . S
C1707 H1699 0.930 . S
C1707 C1708 1.355 . S
C1707 C1709 1.415 . S
C1708 C1707 1.355 . S
C1708 C1710 1.419 . S
C1709 C1704 1.425 . S
C1709 C1706 1.409 . S
C1709 C1707 1.415 . S
C1710 H1700 0.930 . S
C1710 C1708 1.419 . S
C1710 C1711 1.362 . S
C1711 H1701 0.930 . S
C1711 C1704 1.409 . S
C1711 C1710 1.362 . S
H1712 C1718 0.930 . S
H1713 C1721 0.930 . S
H1714 C1722 0.930 . S
H1715 C1723 0.930 . S
H1716 C1726 0.930 . S
H1717 C1727 0.930 . S
C1718 H1712 0.930 . S
C1718 C1719 1.355 . S
C1718 C1720 1.415 . S
C1719 C1718 1.355 . S
C1719 C1721 1.419 . S
C1720 C1718 1.415 . S
C1720 C1725 1.425 . S
C1720 C1727 1.409 . S
C1721 H1713 0.930 . S
C1721 C1719 1.419 . S
C1721 C1722 1.362 . S
C1722 H1714 0.930 . S
C1722 C1721 1.362 . S
C1722 C1725 1.409 . S
C1723 H1715 0.930 . S
C1723 C1724 1.355 . S
C1723 C1725 1.415 . S
C1724 C1723 1.355 . S
C1724 C1726 1.419 . S
C1725 C1720 1.425 . S
C1725 C1722 1.409 . S
C1725 C1723 1.415 . S
C1726 H1716 0.930 . S
C1726 C1724 1.419 . S
C1726 C1727 1.362 . S
C1727 H1717 0.930 . S
C1727 C1720 1.409 . S
C1727 C1726 1.362 . S
H1728 C1734 0.930 . S
H1729 C1737 0.930 1_655 S
H1730 C1738 0.930 . S
H1731 C1739 0.930 . S
H1732 C1742 0.930 . S
H1733 C1743 0.930 . S
C1734 H1728 0.930 . S
C1734 C1735 1.355 . S
C1734 C1736 1.415 . S
C1735 C1734 1.355 . S
C1735 C1737 1.419 . S
C1736 C1734 1.415 . S
C1736 C1741 1.425 . S
C1736 C1743 1.409 . S
C1737 H1729 0.930 1_455 S
C1737 C1735 1.419 . S
C1737 C1738 1.362 . S
C1738 H1730 0.930 . S
C1738 C1737 1.362 . S
C1738 C1741 1.409 . S
C1739 H1731 0.930 . S
C1739 C1740 1.355 . S
C1739 C1741 1.415 . S
C1740 C1739 1.355 . S
C1740 C1742 1.419 . S
C1741 C1736 1.425 . S
C1741 C1738 1.409 . S
C1741 C1739 1.415 . S
C1742 H1732 0.930 . S
C1742 C1740 1.419 . S
C1742 C1743 1.362 . S
C1743 H1733 0.930 . S
C1743 C1736 1.409 . S
C1743 C1742 1.362 . S
H1744 C1750 0.930 . S
H1745 C1753 0.930 . S
H1746 C1754 0.930 . S
H1747 C1755 0.930 . S
H1748 C1758 0.930 . S
H1749 C1759 0.930 . S
C1750 H1744 0.930 . S
C1750 C1751 1.355 . S
C1750 C1752 1.415 . S
C1751 C1750 1.355 . S
C1751 C1753 1.419 . S
C1752 C1750 1.415 . S
C1752 C1757 1.425 . S
C1752 C1759 1.409 . S
C1753 H1745 0.930 . S
C1753 C1751 1.419 . S
C1753 C1754 1.362 . S
C1754 H1746 0.930 . S
C1754 C1753 1.362 . S
C1754 C1757 1.409 . S
C1755 H1747 0.930 . S
C1755 C1756 1.355 . S
C1755 C1757 1.415 . S
C1756 C1755 1.355 . S
C1756 C1758 1.419 . S
C1757 C1752 1.425 . S
C1757 C1754 1.409 . S
C1757 C1755 1.415 . S
C1758 H1748 0.930 . S
C1758 C1756 1.419 . S
C1758 C1759 1.362 . S
C1759 H1749 0.930 . S
C1759 C1752 1.409 . S
C1759 C1758 1.362 . S
H1760 C1766 0.930 . S
H1761 C1769 0.930 . S
H1762 C1770 0.930 . S
H1763 C1771 0.930 . S
H1764 C1774 0.930 . S
H1765 C1775 0.930 . S
C1766 H1760 0.930 . S
C1766 C1767 1.355 . S
C1766 C1768 1.415 . S
C1767 C1766 1.355 . S
C1767 C1769 1.419 . S
C1768 C1766 1.415 . S
C1768 C1773 1.425 . S
C1768 C1775 1.409 . S
C1769 H1761 0.930 . S
C1769 C1767 1.419 . S
C1769 C1770 1.362 . S
C1770 H1762 0.930 . S
C1770 C1769 1.362 . S
C1770 C1773 1.409 . S
C1771 H1763 0.930 . S
C1771 C1772 1.355 . S
C1771 C1773 1.415 . S
C1772 C1771 1.355 . S
C1772 C1774 1.419 . S
C1773 C1768 1.425 . S
C1773 C1770 1.409 . S
C1773 C1771 1.415 . S
C1774 H1764 0.930 . S
C1774 C1772 1.419 . S
C1774 C1775 1.362 . S
C1775 H1765 0.930 . S
C1775 C1768 1.409 . S
C1775 C1774 1.362 . S
H1776 C1782 0.930 . S
H1777 C1785 0.930 1_545 S
H1778 C1786 0.930 . S
H1779 C1787 0.930 . S
H1780 C1790 0.930 . S
H1781 C1791 0.930 . S
C1782 H1776 0.930 . S
C1782 C1783 1.355 . S
C1782 C1784 1.415 . S
C1783 C1782 1.355 . S
C1783 C1785 1.419 . S
C1784 C1782 1.415 . S
C1784 C1789 1.425 . S
C1784 C1791 1.409 . S
C1785 H1777 0.930 1_565 S
C1785 C1783 1.419 . S
C1785 C1786 1.362 . S
C1786 H1778 0.930 . S
C1786 C1785 1.362 . S
C1786 C1789 1.409 . S
C1787 H1779 0.930 . S
C1787 C1788 1.355 . S
C1787 C1789 1.415 . S
C1788 C1787 1.355 . S
C1788 C1790 1.419 . S
C1789 C1784 1.425 . S
C1789 C1786 1.409 . S
C1789 C1787 1.415 . S
C1790 H1780 0.930 . S
C1790 C1788 1.419 . S
C1790 C1791 1.362 . S
C1791 H1781 0.930 . S
C1791 C1784 1.409 . S
C1791 C1790 1.362 . S
H1792 C1798 0.930 . S
H1793 C1801 0.930 . S
H1794 C1802 0.930 . S
H1795 C1803 0.930 . S
H1796 C1806 0.930 . S
H1797 C1807 0.930 . S
C1798 H1792 0.930 . S
C1798 C1799 1.355 . S
C1798 C1800 1.415 . S
C1799 C1798 1.355 . S
C1799 C1801 1.419 . S
C1800 C1798 1.415 . S
C1800 C1805 1.425 . S
C1800 C1807 1.409 . S
C1801 H1793 0.930 . S
C1801 C1799 1.419 . S
C1801 C1802 1.362 . S
C1802 H1794 0.930 . S
C1802 C1801 1.362 . S
C1802 C1805 1.409 . S
C1803 H1795 0.930 . S
C1803 C1804 1.355 . S
C1803 C1805 1.415 . S
C1804 C1803 1.355 . S
C1804 C1806 1.419 . S
C1805 C1800 1.425 . S
C1805 C1802 1.409 . S
C1805 C1803 1.415 . S
C1806 H1796 0.930 . S
C1806 C1804 1.419 . S
C1806 C1807 1.362 . S
C1807 H1797 0.930 . S
C1807 C1800 1.409 . S
C1807 C1806 1.362 . S
H1808 C1814 0.930 . S
H1809 C1817 0.930 . S
H1810 C1818 0.930 . S
H1811 C1819 0.930 . S
H1812 C1822 0.930 . S
H1813 C1823 0.930 . S
C1814 H1808 0.930 . S
C1814 C1815 1.355 . S
C1814 C1816 1.415 . S
C1815 C1814 1.355 . S
C1815 C1817 1.419 . S
C1816 C1814 1.415 . S
C1816 C1821 1.425 . S
C1816 C1823 1.409 . S
C1817 H1809 0.930 . S
C1817 C1815 1.419 . S
C1817 C1818 1.362 . S
C1818 H1810 0.930 . S
C1818 C1817 1.362 . S
C1818 C1821 1.409 . S
C1819 H1811 0.930 . S
C1819 C1820 1.355 . S
C1819 C1821 1.415 . S
C1820 C1819 1.355 . S
C1820 C1822 1.419 . S
C1821 C1816 1.425 . S
C1821 C1818 1.409 . S
C1821 C1819 1.415 . S
C1822 H1812 0.930 . S
C1822 C1820 1.419 . S
C1822 C1823 1.362 . S
C1823 H1813 0.930 . S
C1823 C1816 1.409 . S
C1823 C1822 1.362 . S
H1824 C1830 0.930 . S
H1825 C1833 0.930 . S
H1826 C1834 0.930 . S
H1827 C1835 0.930 . S
H1828 C1838 0.930 . S
H1829 C1839 0.930 . S
C1830 H1824 0.930 . S
C1830 C1831 1.355 . S
C1830 C1832 1.415 . S
C1831 C1830 1.355 . S
C1831 C1833 1.419 . S
C1832 C1830 1.415 . S
C1832 C1837 1.425 . S
C1832 C1839 1.409 . S
C1833 H1825 0.930 . S
C1833 C1831 1.419 . S
C1833 C1834 1.362 . S
C1834 H1826 0.930 . S
C1834 C1833 1.362 . S
C1834 C1837 1.409 . S
C1835 H1827 0.930 . S
C1835 C1836 1.355 . S
C1835 C1837 1.415 . S
C1836 C1835 1.355 . S
C1836 C1838 1.419 . S
C1837 C1832 1.425 . S
C1837 C1834 1.409 . S
C1837 C1835 1.415 . S
C1838 H1828 0.930 . S
C1838 C1836 1.419 . S
C1838 C1839 1.362 . S
C1839 H1829 0.930 . S
C1839 C1832 1.409 . S
C1839 C1838 1.362 . S
H1840 C1846 0.930 . S
H1841 C1849 0.930 . S
H1842 C1850 0.930 . S
H1843 C1851 0.930 . S
H1844 C1854 0.930 . S
H1845 C1855 0.930 . S
C1846 H1840 0.930 . S
C1846 C1847 1.355 . S
C1846 C1848 1.415 . S
C1847 C1846 1.355 . S
C1847 C1849 1.419 . S
C1848 C1846 1.415 . S
C1848 C1853 1.425 . S
C1848 C1855 1.409 . S
C1849 H1841 0.930 . S
C1849 C1847 1.419 . S
C1849 C1850 1.362 . S
C1850 H1842 0.930 . S
C1850 C1849 1.362 . S
C1850 C1853 1.409 . S
C1851 H1843 0.930 . S
C1851 C1852 1.355 . S
C1851 C1853 1.415 . S
C1852 C1851 1.355 . S
C1852 C1854 1.419 . S
C1853 C1848 1.425 . S
C1853 C1850 1.409 . S
C1853 C1851 1.415 . S
C1854 H1844 0.930 . S
C1854 C1852 1.419 . S
C1854 C1855 1.362 . S
C1855 H1845 0.930 . S
C1855 C1848 1.409 . S
C1855 C1854 1.362 . S
H1856 C1862 0.930 . S
H1857 C1865 0.930 . S
H1858 C1866 0.930 . S
H1859 C1867 0.930 . S
H1860 C1870 0.930 . S
H1861 C1871 0.930 . S
C1862 H1856 0.930 . S
C1862 C1863 1.355 . S
C1862 C1864 1.415 . S
C1863 C1862 1.355 . S
C1863 C1865 1.419 . S
C1864 C1862 1.415 . S
C1864 C1869 1.425 . S
C1864 C1871 1.409 . S
C1865 H1857 0.930 . S
C1865 C1863 1.419 . S
C1865 C1866 1.362 . S
C1866 H1858 0.930 . S
C1866 C1865 1.362 . S
C1866 C1869 1.409 . S
C1867 H1859 0.930 . S
C1867 C1868 1.355 . S
C1867 C1869 1.415 . S
C1868 C1867 1.355 . S
C1868 C1870 1.419 . S
C1869 C1864 1.425 . S
C1869 C1866 1.409 . S
C1869 C1867 1.415 . S
C1870 H1860 0.930 . S
C1870 C1868 1.419 . S
C1870 C1871 1.362 . S
C1871 H1861 0.930 . S
C1871 C1864 1.409 . S
C1871 C1870 1.362 . S
H1872 C1878 0.930 . S
H1873 C1881 0.930 . S
H1874 C1882 0.930 . S
H1875 C1883 0.930 . S
H1876 C1886 0.930 . S
H1877 C1887 0.930 . S
C1878 H1872 0.930 . S
C1878 C1879 1.355 . S
C1878 C1880 1.415 . S
C1879 C1878 1.355 . S
C1879 C1881 1.419 . S
C1880 C1878 1.415 . S
C1880 C1885 1.425 . S
C1880 C1887 1.409 . S
C1881 H1873 0.930 . S
C1881 C1879 1.419 . S
C1881 C1882 1.362 . S
C1882 H1874 0.930 . S
C1882 C1881 1.362 . S
C1882 C1885 1.409 . S
C1883 H1875 0.930 . S
C1883 C1884 1.355 . S
C1883 C1885 1.415 . S
C1884 C1883 1.355 . S
C1884 C1886 1.419 . S
C1885 C1880 1.425 . S
C1885 C1882 1.409 . S
C1885 C1883 1.415 . S
C1886 H1876 0.930 . S
C1886 C1884 1.419 . S
C1886 C1887 1.362 . S
C1887 H1877 0.930 . S
C1887 C1880 1.409 . S
C1887 C1886 1.362 . S
H1888 C1894 0.930 . S
H1889 C1897 0.930 . S
H1890 C1898 0.930 . S
H1891 C1899 0.930 . S
H1892 C1902 0.930 . S
H1893 C1903 0.930 . S
C1894 H1888 0.930 . S
C1894 C1895 1.355 . S
C1894 C1896 1.415 . S
C1895 C1894 1.355 . S
C1895 C1897 1.419 . S
C1896 C1894 1.415 . S
C1896 C1901 1.425 . S
C1896 C1903 1.409 . S
C1897 H1889 0.930 . S
C1897 C1895 1.419 . S
C1897 C1898 1.362 . S
C1898 H1890 0.930 . S
C1898 C1897 1.362 . S
C1898 C1901 1.409 . S
C1899 H1891 0.930 . S
C1899 C1900 1.355 . S
C1899 C1901 1.415 . S
C1900 C1899 1.355 . S
C1900 C1902 1.419 . S
C1901 C1896 1.425 . S
C1901 C1898 1.409 . S
C1901 C1899 1.415 . S
C1902 H1892 0.930 . S
C1902 C1900 1.419 . S
C1902 C1903 1.362 . S
C1903 H1893 0.930 . S
C1903 C1896 1.409 . S
C1903 C1902 1.362 . S
H1904 C1910 0.930 . S
H1905 C1913 0.930 . S
H1906 C1914 0.930 . S
H1907 C1915 0.930 . S
H1908 C1918 0.930 . S
H1909 C1919 0.930 . S
C1910 H1904 0.930 . S
C1910 C1911 1.355 . S
C1910 C1912 1.415 . S
C1911 C1910 1.355 . S
C1911 C1913 1.419 . S
C1912 C1910 1.415 . S
C1912 C1917 1.425 . S
C1912 C1919 1.409 . S
C1913 H1905 0.930 . S
C1913 C1911 1.419 . S
C1913 C1914 1.362 . S
C1914 H1906 0.930 . S
C1914 C1913 1.362 . S
C1914 C1917 1.409 . S
C1915 H1907 0.930 . S
C1915 C1916 1.355 . S
C1915 C1917 1.415 . S
C1916 C1915 1.355 . S
C1916 C1918 1.419 . S
C1917 C1912 1.425 . S
C1917 C1914 1.409 . S
C1917 C1915 1.415 . S
C1918 H1908 0.930 . S
C1918 C1916 1.419 . S
C1918 C1919 1.362 . S
C1919 H1909 0.930 . S
C1919 C1912 1.409 . S
C1919 C1918 1.362 . S
H1920 C1926 0.930 . S
H1921 C1929 0.930 . S
H1922 C1930 0.930 . S
H1923 C1931 0.930 . S
H1924 C1934 0.930 . S
H1925 C1935 0.930 . S
C1926 H1920 0.930 . S
C1926 C1927 1.355 . S
C1926 C1928 1.415 . S
C1927 C1926 1.355 . S
C1927 C1929 1.419 . S
C1928 C1926 1.415 . S
C1928 C1933 1.425 . S
C1928 C1935 1.409 . S
C1929 H1921 0.930 . S
C1929 C1927 1.419 . S
C1929 C1930 1.362 . S
C1930 H1922 0.930 . S
C1930 C1929 1.362 . S
C1930 C1933 1.409 . S
C1931 H1923 0.930 . S
C1931 C1932 1.355 . S
C1931 C1933 1.415 . S
C1932 C1931 1.355 . S
C1932 C1934 1.419 . S
C1933 C1928 1.425 . S
C1933 C1930 1.409 . S
C1933 C1931 1.415 . S
C1934 H1924 0.930 . S
C1934 C1932 1.419 . S
C1934 C1935 1.362 . S
C1935 H1925 0.930 . S
C1935 C1928 1.409 . S
C1935 C1934 1.362 . S
H1936 C1942 0.930 . S
H1937 C1945 0.930 . S
H1938 C1946 0.930 . S
H1939 C1947 0.930 . S
H1940 C1950 0.930 . S
H1941 C1951 0.930 . S
C1942 H1936 0.930 . S
C1942 C1943 1.355 . S
C1942 C1944 1.415 . S
C1943 C1942 1.355 . S
C1943 C1945 1.419 . S
C1944 C1942 1.415 . S
C1944 C1949 1.425 . S
C1944 C1951 1.409 . S
C1945 H1937 0.930 . S
C1945 C1943 1.419 . S
C1945 C1946 1.362 . S
C1946 H1938 0.930 . S
C1946 C1945 1.362 . S
C1946 C1949 1.409 . S
C1947 H1939 0.930 . S
C1947 C1948 1.355 . S
C1947 C1949 1.415 . S
C1948 C1947 1.355 . S
C1948 C1950 1.419 . S
C1949 C1944 1.425 . S
C1949 C1946 1.409 . S
C1949 C1947 1.415 . S
C1950 H1940 0.930 . S
C1950 C1948 1.419 . S
C1950 C1951 1.362 . S
C1951 H1941 0.930 . S
C1951 C1944 1.409 . S
C1951 C1950 1.362 . S
H1952 C1958 0.930 . S
H1953 C1961 0.930 . S
H1954 C1962 0.930 . S
H1955 C1963 0.930 . S
H1956 C1966 0.930 . S
H1957 C1967 0.930 . S
C1958 H1952 0.930 . S
C1958 C1959 1.355 . S
C1958 C1960 1.415 . S
C1959 C1958 1.355 . S
C1959 C1961 1.419 . S
C1960 C1958 1.415 . S
C1960 C1965 1.425 . S
C1960 C1967 1.409 . S
C1961 H1953 0.930 . S
C1961 C1959 1.419 . S
C1961 C1962 1.362 . S
C1962 H1954 0.930 . S
C1962 C1961 1.362 . S
C1962 C1965 1.409 . S
C1963 H1955 0.930 . S
C1963 C1964 1.355 . S
C1963 C1965 1.415 . S
C1964 C1963 1.355 . S
C1964 C1966 1.419 . S
C1965 C1960 1.425 . S
C1965 C1962 1.409 . S
C1965 C1963 1.415 . S
C1966 H1956 0.930 . S
C1966 C1964 1.419 . S
C1966 C1967 1.362 . S
C1967 H1957 0.930 . S
C1967 C1960 1.409 . S
C1967 C1966 1.362 . S
H1968 C1974 0.930 . S
H1969 C1977 0.930 . S
H1970 C1978 0.930 . S
H1971 C1979 0.930 . S
H1972 C1982 0.930 . S
H1973 C1983 0.930 . S
C1974 H1968 0.930 . S
C1974 C1975 1.355 . S
C1974 C1976 1.415 . S
C1975 C1974 1.355 . S
C1975 C1977 1.419 . S
C1976 C1974 1.415 . S
C1976 C1981 1.425 . S
C1976 C1983 1.409 . S
C1977 H1969 0.930 . S
C1977 C1975 1.419 . S
C1977 C1978 1.362 . S
C1978 H1970 0.930 . S
C1978 C1977 1.362 . S
C1978 C1981 1.409 . S
C1979 H1971 0.930 . S
C1979 C1980 1.355 . S
C1979 C1981 1.415 . S
C1980 C1979 1.355 . S
C1980 C1982 1.419 . S
C1981 C1976 1.425 . S
C1981 C1978 1.409 . S
C1981 C1979 1.415 . S
C1982 H1972 0.930 . S
C1982 C1980 1.419 . S
C1982 C1983 1.362 . S
C1983 H1973 0.930 . S
C1983 C1976 1.409 . S
C1983 C1982 1.362 . S
H1984 C1990 0.930 . S
H1985 C1993 0.930 . S
H1986 C1994 0.930 . S
H1987 C1995 0.930 . S
H1988 C1998 0.930 . S
H1989 C1999 0.930 . S
C1990 H1984 0.930 . S
C1990 C1991 1.355 . S
C1990 C1992 1.415 . S
C1991 C1990 1.355 . S
C1991 C1993 1.419 . S
C1992 C1990 1.415 . S
C1992 C1997 1.425 . S
C1992 C1999 1.409 . S
C1993 H1985 0.930 . S
C1993 C1991 1.419 . S
C1993 C1994 1.362 . S
C1994 H1986 0.930 . S
C1994 C1993 1.362 . S
C1994 C1997 1.409 . S
C1995 H1987 0.930 . S
C1995 C1996 1.355 . S
C1995 C1997 1.415 . S
C1996 C1995 1.355 . S
C1996 C1998 1.419 . S
C1997 C1992 1.425 . S
C1997 C1994 1.409 . S
C1997 C1995 1.415 . S
C1998 H1988 0.930 . S
C1998 C1996 1.419 . S
C1998 C1999 1.362 . S
C1999 H1989 0.930 . S
C1999 C1992 1.409 . S
C1999 C1998 1.362 . S
H2000 C2006 0.930 . S
H2001 C2009 0.930 . S
H2002 C2010 0.930 . S
H2003 C2011 0.930 . S
H2004 C2014 0.930 . S
H2005 C2015 0.930 . S
C2006 H2000 0.930 . S
C2006 C2007 1.355 . S
C2006 C2008 1.415 . S
C2007 C2006 1.355 . S
C2007 C2009 1.419 . S
C2008 C2006 1.415 . S
C2008 C2013 1.425 . S
C2008 C2015 1.409 . S
C2009 H2001 0.930 . S
C2009 C2007 1.419 . S
C2009 C2010 1.362 . S
C2010 H2002 0.930 . S
C2010 C2009 1.362 . S
C2010 C2013 1.409 . S
C2011 H2003 0.930 . S
C2011 C2012 1.355 . S
C2011 C2013 1.415 . S
C2012 C2011 1.355 . S
C2012 C2014 1.419 . S
C2013 C2008 1.425 . S
C2013 C2010 1.409 . S
C2013 C2011 1.415 . S
C2014 H2004 0.930 . S
C2014 C2012 1.419 . S
C2014 C2015 1.362 . S
C2015 H2005 0.930 . S
C2015 C2008 1.409 . S
C2015 C2014 1.362 . S
H2016 C2022 0.930 . S
H2017 C2025 0.930 . S
H2018 C2026 0.930 . S
H2019 C2027 0.930 . S
H2020 C2030 0.930 . S
H2021 C2031 0.930 . S
C2022 H2016 0.930 . S
C2022 C2023 1.355 . S
C2022 C2024 1.415 . S
C2023 C2022 1.355 . S
C2023 C2025 1.419 . S
C2024 C2022 1.415 . S
C2024 C2029 1.425 . S
C2024 C2031 1.409 . S
C2025 H2017 0.930 . S
C2025 C2023 1.419 . S
C2025 C2026 1.362 . S
C2026 H2018 0.930 . S
C2026 C2025 1.362 . S
C2026 C2029 1.409 . S
C2027 H2019 0.930 . S
C2027 C2028 1.355 . S
C2027 C2029 1.415 . S
C2028 C2027 1.355 . S
C2028 C2030 1.419 . S
C2029 C2024 1.425 . S
C2029 C2026 1.409 . S
C2029 C2027 1.415 . S
C2030 H2020 0.930 . S
C2030 C2028 1.419 . S
C2030 C2031 1.362 . S
C2031 H2021 0.930 . S
C2031 C2024 1.409 . S
C2031 C2030 1.362 . S
H2032 C2038 0.930 . S
H2033 C2041 0.930 . S
H2034 C2042 0.930 . S
H2035 C2043 0.930 . S
H2036 C2046 0.930 . S
H2037 C2047 0.930 . S
C2038 H2032 0.930 . S
C2038 C2039 1.355 . S
C2038 C2040 1.415 . S
C2039 C2038 1.355 . S
C2039 C2041 1.419 . S
C2040 C2038 1.415 . S
C2040 C2045 1.425 . S
C2040 C2047 1.409 . S
C2041 H2033 0.930 . S
C2041 C2039 1.419 . S
C2041 C2042 1.362 . S
C2042 H2034 0.930 . S
C2042 C2041 1.362 . S
C2042 C2045 1.409 . S
C2043 H2035 0.930 . S
C2043 C2044 1.355 . S
C2043 C2045 1.415 . S
C2044 C2043 1.355 . S
C2044 C2046 1.419 . S
C2045 C2040 1.425 . S
C2045 C2042 1.409 . S
C2045 C2043 1.415 . S
C2046 H2036 0.930 . S
C2046 C2044 1.419 . S
C2046 C2047 1.362 . S
C2047 H2037 0.930 . S
C2047 C2040 1.409 . S
C2047 C2046 1.362 . S
H2048 C2054 0.930 . S
H2049 C2057 0.930 . S
H2050 C2058 0.930 . S
H2051 C2059 0.930 . S
H2052 C2062 0.930 . S
H2053 C2063 0.930 . S
C2054 H2048 0.930 . S
C2054 C2055 1.355 . S
C2054 C2056 1.415 . S
C2055 C2054 1.355 . S
C2055 C2057 1.419 . S
C2056 C2054 1.415 . S
C2056 C2061 1.425 . S
C2056 C2063 1.409 . S
C2057 H2049 0.930 . S
C2057 C2055 1.419 . S
C2057 C2058 1.362 . S
C2058 H2050 0.930 . S
C2058 C2057 1.362 . S
C2058 C2061 1.409 . S
C2059 H2051 0.930 . S
C2059 C2060 1.355 . S
C2059 C2061 1.415 . S
C2060 C2059 1.355 . S
C2060 C2062 1.419 . S
C2061 C2056 1.425 . S
C2061 C2058 1.409 . S
C2061 C2059 1.415 . S
C2062 H2052 0.930 . S
C2062 C2060 1.419 . S
C2062 C2063 1.362 . S
C2063 H2053 0.930 . S
C2063 C2056 1.409 . S
C2063 C2062 1.362 . S
H2064 C2070 0.930 . S
H2065 C2073 0.930 . S
H2066 C2074 0.930 . S
H2067 C2075 0.930 . S
H2068 C2078 0.930 . S
H2069 C2079 0.930 . S
C2070 H2064 0.930 . S
C2070 C2071 1.355 . S
C2070 C2072 1.415 . S
C2071 C2070 1.355 . S
C2071 C2073 1.419 . S
C2072 C2070 1.415 . S
C2072 C2077 1.425 . S
C2072 C2079 1.409 . S
C2073 H2065 0.930 . S
C2073 C2071 1.419 . S
C2073 C2074 1.362 . S
C2074 H2066 0.930 . S
C2074 C2073 1.362 . S
C2074 C2077 1.409 . S
C2075 H2067 0.930 . S
C2075 C2076 1.355 . S
C2075 C2077 1.415 . S
C2076 C2075 1.355 . S
C2076 C2078 1.419 . S
C2077 C2072 1.425 . S
C2077 C2074 1.409 . S
C2077 C2075 1.415 . S
C2078 H2068 0.930 . S
C2078 C2076 1.419 . S
C2078 C2079 1.362 . S
C2079 H2069 0.930 . S
C2079 C2072 1.409 . S
C2079 C2078 1.362 . S
H2080 C2086 0.930 . S
H2081 C2089 0.930 . S
H2082 C2090 0.930 . S
H2083 C2091 0.930 . S
H2084 C2094 0.930 . S
H2085 C2095 0.930 . S
C2086 H2080 0.930 . S
C2086 C2087 1.355 . S
C2086 C2088 1.415 . S
C2087 C2086 1.355 . S
C2087 C2089 1.419 . S
C2088 C2086 1.415 . S
C2088 C2093 1.425 . S
C2088 C2095 1.409 . S
C2089 H2081 0.930 . S
C2089 C2087 1.419 . S
C2089 C2090 1.362 . S
C2090 H2082 0.930 . S
C2090 C2089 1.362 . S
C2090 C2093 1.409 . S
C2091 H2083 0.930 . S
C2091 C2092 1.355 . S
C2091 C2093 1.415 . S
C2092 C2091 1.355 . S
C2092 C2094 1.419 . S
C2093 C2088 1.425 . S
C2093 C2090 1.409 . S
C2093 C2091 1.415 . S
C2094 H2084 0.930 . S
C2094 C2092 1.419 . S
C2094 C2095 1.362 . S
C2095 H2085 0.930 . S
C2095 C2088 1.409 . S
C2095 C2094 1.362 . S
H2096 C2102 0.930 . S
H2097 C2105 0.930 . S
H2098 C2106 0.930 . S
H2099 C2107 0.930 . S
H2100 C2110 0.930 . S
H2101 C2111 0.930 . S
C2102 H2096 0.930 . S
C2102 C2103 1.355 . S
C2102 C2104 1.415 . S
C2103 C2102 1.355 . S
C2103 C2105 1.419 . S
C2104 C2102 1.415 . S
C2104 C2109 1.425 . S
C2104 C2111 1.409 . S
C2105 H2097 0.930 . S
C2105 C2103 1.419 . S
C2105 C2106 1.362 . S
C2106 H2098 0.930 . S
C2106 C2105 1.362 . S
C2106 C2109 1.409 . S
C2107 H2099 0.930 . S
C2107 C2108 1.355 . S
C2107 C2109 1.415 . S
C2108 C2107 1.355 . S
C2108 C2110 1.419 . S
C2109 C2104 1.425 . S
C2109 C2106 1.409 . S
C2109 C2107 1.415 . S
C2110 H2100 0.930 . S
C2110 C2108 1.419 . S
C2110 C2111 1.362 . S
C2111 H2101 0.930 . S
C2111 C2104 1.409 . S
C2111 C2110 1.362 . S
H2112 C2118 0.930 . S
H2113 C2121 0.930 . S
H2114 C2122 0.930 . S
H2115 C2123 0.930 . S
H2116 C2126 0.930 . S
H2117 C2127 0.930 . S
C2118 H2112 0.930 . S
C2118 C2119 1.355 . S
C2118 C2120 1.415 . S
C2119 C2118 1.355 . S
C2119 C2121 1.419 . S
C2120 C2118 1.415 . S
C2120 C2125 1.425 . S
C2120 C2127 1.409 . S
C2121 H2113 0.930 . S
C2121 C2119 1.419 . S
C2121 C2122 1.362 . S
C2122 H2114 0.930 . S
C2122 C2121 1.362 . S
C2122 C2125 1.409 . S
C2123 H2115 0.930 . S
C2123 C2124 1.355 . S
C2123 C2125 1.415 . S
C2124 C2123 1.355 . S
C2124 C2126 1.419 . S
C2125 C2120 1.425 . S
C2125 C2122 1.409 . S
C2125 C2123 1.415 . S
C2126 H2116 0.930 . S
C2126 C2124 1.419 . S
C2126 C2127 1.362 . S
C2127 H2117 0.930 . S
C2127 C2120 1.409 . S
C2127 C2126 1.362 . S
H2128 C2134 0.930 . S
H2129 C2137 0.930 . S
H2130 C2138 0.930 . S
H2131 C2139 0.930 . S
H2132 C2142 0.930 . S
H2133 C2143 0.930 . S
C2134 H2128 0.930 . S
C2134 C2135 1.355 . S
C2134 C2136 1.415 . S
C2135 C2134 1.355 . S
C2135 C2137 1.419 . S
C2136 C2134 1.415 . S
C2136 C2141 1.425 . S
C2136 C2143 1.409 . S
C2137 H2129 0.930 . S
C2137 C2135 1.419 . S
C2137 C2138 1.362 . S
C2138 H2130 0.930 . S
C2138 C2137 1.362 . S
C2138 C2141 1.409 . S
C2139 H2131 0.930 . S
C2139 C2140 1.355 . S
C2139 C2141 1.415 . S
C2140 C2139 1.355 . S
C2140 C2142 1.419 . S
C2141 C2136 1.425 . S
C2141 C2138 1.409 . S
C2141 C2139 1.415 . S
C2142 H2132 0.930 . S
C2142 C2140 1.419 . S
C2142 C2143 1.362 . S
C2143 H2133 0.930 . S
C2143 C2136 1.409 . S
C2143 C2142 1.362 . S
H2144 C2150 0.930 . S
H2145 C2153 0.930 . S
H2146 C2154 0.930 . S
H2147 C2155 0.930 . S
H2148 C2158 0.930 . S
H2149 C2159 0.930 . S
C2150 H2144 0.930 . S
C2150 C2151 1.355 . S
C2150 C2152 1.415 . S
C2151 C2150 1.355 . S
C2151 C2153 1.419 . S
C2152 C2150 1.415 . S
C2152 C2157 1.425 . S
C2152 C2159 1.409 . S
C2153 H2145 0.930 . S
C2153 C2151 1.419 . S
C2153 C2154 1.362 . S
C2154 H2146 0.930 . S
C2154 C2153 1.362 . S
C2154 C2157 1.409 . S
C2155 H2147 0.930 . S
C2155 C2156 1.355 . S
C2155 C2157 1.415 . S
C2156 C2155 1.355 . S
C2156 C2158 1.419 . S
C2157 C2152 1.425 . S
C2157 C2154 1.409 . S
C2157 C2155 1.415 . S
C2158 H2148 0.930 . S
C2158 C2156 1.419 . S
C2158 C2159 1.362 . S
C2159 H2149 0.930 . S
C2159 C2152 1.409 . S
C2159 C2158 1.362 . S
H2160 C2166 0.930 . S
H2161 C2169 0.930 . S
H2162 C2170 0.930 . S
H2163 C2171 0.930 . S
H2164 C2174 0.930 . S
H2165 C2175 0.930 . S
C2166 H2160 0.930 . S
C2166 C2167 1.355 . S
C2166 C2168 1.415 . S
C2167 C2166 1.355 . S
C2167 C2169 1.419 . S
C2168 C2166 1.415 . S
C2168 C2173 1.425 . S
C2168 C2175 1.409 . S
C2169 H2161 0.930 . S
C2169 C2167 1.419 . S
C2169 C2170 1.362 . S
C2170 H2162 0.930 . S
C2170 C2169 1.362 . S
C2170 C2173 1.409 . S
C2171 H2163 0.930 . S
C2171 C2172 1.355 . S
C2171 C2173 1.415 . S
C2172 C2171 1.355 . S
C2172 C2174 1.419 . S
C2173 C2168 1.425 . S
C2173 C2170 1.409 . S
C2173 C2171 1.415 . S
C2174 H2164 0.930 . S
C2174 C2172 1.419 . S
C2174 C2175 1.362 . S
C2175 H2165 0.930 . S
C2175 C2168 1.409 . S
C2175 C2174 1.362 . S
H2176 C2182 0.930 . S
H2177 C2185 0.930 . S
H2178 C2186 0.930 . S
H2179 C2187 0.930 . S
H2180 C2190 0.930 . S
H2181 C2191 0.930 . S
C2182 H2176 0.930 . S
C2182 C2183 1.355 . S
C2182 C2184 1.415 . S
C2183 C2182 1.355 . S
C2183 C2185 1.419 . S
C2184 C2182 1.415 . S
C2184 C2189 1.425 . S
C2184 C2191 1.409 . S
C2185 H2177 0.930 . S
C2185 C2183 1.419 . S
C2185 C2186 1.362 . S
C2186 H2178 0.930 . S
C2186 C2185 1.362 . S
C2186 C2189 1.409 . S
C2187 H2179 0.930 . S
C2187 C2188 1.355 . S
C2187 C2189 1.415 . S
C2188 C2187 1.355 . S
C2188 C2190 1.419 . S
C2189 C2184 1.425 . S
C2189 C2186 1.409 . S
C2189 C2187 1.415 . S
C2190 H2180 0.930 . S
C2190 C2188 1.419 . S
C2190 C2191 1.362 . S
C2191 H2181 0.930 . S
C2191 C2184 1.409 . S
C2191 C2190 1.362 . S
H2192 C2198 0.930 . S
H2193 C2201 0.930 . S
H2194 C2202 0.930 . S
H2195 C2203 0.930 . S
H2196 C2206 0.930 . S
H2197 C2207 0.930 . S
C2198 H2192 0.930 . S
C2198 C2199 1.355 . S
C2198 C2200 1.415 . S
C2199 C2198 1.355 . S
C2199 C2201 1.419 . S
C2200 C2198 1.415 . S
C2200 C2205 1.425 . S
C2200 C2207 1.409 . S
C2201 H2193 0.930 . S
C2201 C2199 1.419 . S
C2201 C2202 1.362 . S
C2202 H2194 0.930 . S
C2202 C2201 1.362 . S
C2202 C2205 1.409 . S
C2203 H2195 0.930 . S
C2203 C2204 1.355 . S
C2203 C2205 1.415 . S
C2204 C2203 1.355 . S
C2204 C2206 1.419 . S
C2205 C2200 1.425 . S
C2205 C2202 1.409 . S
C2205 C2203 1.415 . S
C2206 H2196 0.930 . S
C2206 C2204 1.419 . S
C2206 C2207 1.362 . S
C2207 H2197 0.930 . S
C2207 C2200 1.409 . S
C2207 C2206 1.362 . S
C679 C440 1.429 . S
C684 C6 1.465 . S
C695 C20 1.466 . S
C700 C398 1.423 . S
C711 C34 1.428 . S
C716 C412 1.452 . S
C727 C426 1.466 . S
C732 C48 1.423 . S
C743 C356 1.457 . S
C748 C62 1.442 . S
C759 C76 1.427 . S
C764 C370 1.466 . S
C775 C384 1.425 . S
C780 C90 1.466 . S
C791 C104 1.430 . S
C796 C342 1.465 . S
C807 C118 1.432 . S
C812 C622 1.464 . S
C823 C580 1.466 . S
C828 C132 1.424 . S
C839 C594 1.437 . S
C844 C146 1.461 . S
C855 C160 1.427 . S
C860 C608 1.454 . S
C871 C174 1.425 . S
C876 C664 1.466 . S
C887 C188 1.456 . S
C892 C636 1.425 . S
C903 C202 1.440 . S
C908 C650 1.459 . S
C919 C566 1.464 . S
C924 C216 1.431 . S
C935 C552 1.460 . S
C940 C230 1.438 . S
C951 C244 1.443 . S
C956 C468 1.435 . S
C967 C482 1.451 . S
C972 C258 1.428 . S
C983 C272 1.422 . S
C988 C496 1.461 . S
C999 C454 1.423 . S
C1004 C286 1.466 . S
C1015 C524 1.454 . S
C1020 C300 1.426 . S
C1031 C314 1.453 . S
C1036 C538 1.427 . S
C1047 C510 1.447 . S
C1052 C328 1.432 . S
C1063 C134 1.567 . S
C1068 C8 1.593 . S
C1079 C148 1.564 . S
C1084 C22 1.605 . S
C1095 C36 1.567 . S
C1100 C162 1.612 . S
C1111 C120 1.565 . S
C1116 C50 1.599 . S
C1127 C64 1.583 . S
C1132 C218 1.574 . S
C1143 C176 1.565 . S
C1148 C78 1.608 . S
C1159 C190 1.595 . S
C1164 C92 1.566 . S
C1175 C204 1.564 . S
C1180 C106 1.606 . S
C1191 C260 1.610 . S
C1196 C232 1.566 . S
C1207 C316 1.589 . S
C1212 C246 1.569 . S
C1223 C330 1.602 . S
C1228 C274 1.598 . S
C1239 C288 1.575 . S
C1244 C302 1.581 . S
C1255 C470 1.576 . S
C1260 C344 1.614 . S
C1271 C484 1.572 . S
C1276 C358 1.614 . S
C1287 C498 1.592 . S
C1292 C372 1.567 . S
C1303 C386 1.613 . S
C1308 C456 1.579 . S
C1319 C400 1.588 . S
C1324 C554 1.609 . S
C1335 C414 1.566 . S
C1340 C512 1.610 . S
C1351 C526 1.568 . S
C1356 C428 1.612 . S
C1367 C540 1.605 . S
C1372 C442 1.564 . S
C1383 C568 1.612 . S
C1388 C596 1.567 . S
C1399 C652 1.614 . S
C1404 C582 1.574 . S
C1415 C666 1.608 . S
C1420 C610 1.565 . S
C1431 C638 1.586 . S
C1436 C624 1.610 . S
C1447 C7 1.372 . S
C1452 C261 1.380 1_554 S
C1463 C21 1.391 . S
C1468 C275 1.342 1_554 S
C1479 C35 1.377 . S
C1484 C289 1.359 1_554 S
C1495 C247 1.344 1_554 S
C1500 C49 1.398 . S
C1511 C63 1.388 . S
C1516 C317 1.346 1_556 S
C1527 C77 1.403 . S
C1532 C233 1.334 1_556 S
C1543 C331 1.366 1_556 S
C1548 C91 1.383 . S
C1559 C303 1.334 1_556 S
C1564 C105 1.402 . S
C1575 C119 1.365 . S
C1580 C135 1.389 1_455 S
C1591 C133 1.395 . S
C1596 C149 1.348 1_545 S
C1607 C147 1.376 . S
C1612 C163 1.376 1_655 S
C1623 C121 1.376 1_565 S
C1628 C161 1.376 . S
C1639 C219 1.384 1_455 S
C1644 C175 1.369 . S
C1655 C177 1.332 1_545 S
C1660 C189 1.402 . S
C1671 C191 1.334 1_655 S
C1676 C203 1.399 . S
C1687 C217 1.401 . S
C1692 C205 1.337 1_565 S
C1703 C51 1.332 1_545 S
C1708 C231 1.402 . S
C1719 C79 1.395 1_565 S
C1724 C245 1.356 . S
C1735 C93 1.332 1_455 S
C1740 C259 1.401 . S
C1751 C273 1.401 . S
C1756 C107 1.338 1_545 S
C1767 C65 1.379 1_655 S
C1772 C287 1.374 . S
C1783 C23 1.332 1_565 S
C1788 C301 1.402 . S
C1799 C37 1.396 1_455 S
C1804 C315 1.356 . S
C1815 C9 1.353 1_655 S
C1820 C329 1.392 . S
C1831 C597 1.333 . S
C1836 C343 1.403 . S
C1847 C357 1.392 . S
C1852 C611 1.354 . S
C1863 C625 1.390 . S
C1868 C371 1.363 . S
C1879 C583 1.384 . S
C1884 C385 1.369 . S
C1895 C399 1.394 . S
C1900 C653 1.350 . S
C1911 C413 1.376 . S
C1916 C569 1.361 . S
C1927 C667 1.337 . S
C1932 C427 1.396 . S
C1943 C441 1.380 . S
C1948 C639 1.356 . S
C1959 C455 1.397 . S
C1964 C471 1.346 . S
C1975 C469 1.403 . S
C1980 C485 1.333 . S
C1991 C483 1.402 . S
C1996 C499 1.335 . S
C2007 C497 1.378 . S
C2012 C457 1.373 . S
C2023 C555 1.332 . S
C2028 C511 1.401 . S
C2039 C513 1.372 . S
C2044 C525 1.368 . S
C2055 C527 1.346 . S
C2060 C539 1.388 . S
C2071 C553 1.383 . S
C2076 C541 1.367 . S
C2087 C387 1.368 . S
C2092 C567 1.382 . S
C2103 C415 1.355 . S
C2108 C581 1.381 . S
C2119 C429 1.357 . S
C2124 C595 1.379 . S
C2135 C609 1.399 . S
C2140 C443 1.334 . S
C2151 C401 1.395 . S
C2156 C623 1.358 . S
C2167 C359 1.362 . S
C2172 C637 1.375 . S
C2183 C651 1.371 . S
C2188 C373 1.368 . S
C2199 C345 1.333 . S
C2204 C665 1.400 . S
